0:0
     RDKit          3D

 43 45  0  0  0  0  0  0  0  0999 V2000
   -6.1170   18.9730  -34.0950 C   0  0  0  0  0  0  0  0  0  0  0  0
   -7.2160   18.6270  -32.6870 S   0  0  0  0  0  0  0  0  0  0  0  0
   -7.5990   20.3560  -32.4100 C   0  0  0  0  0  0  0  0  0  0  0  0
   -8.9170   20.7500  -32.1550 C   0  0  0  0  0  0  0  0  0  0  0  0
   -9.2130   22.0970  -31.9380 C   0  0  0  0  0  0  0  0  0  0  0  0
   -8.1970   23.0560  -31.9810 C   0  0  0  0  0  0  0  0  0  0  0  0
   -6.8710   22.6740  -32.2500 C   0  0  0  0  0  0  0  0  0  0  0  0
   -5.7690   23.7120  -32.3070 C   0  0  0  0  0  0  0  0  0  0  0  0
   -4.9670   23.8050  -31.0670 N   0  0  0  0  0  0  0  0  0  0  0  0
   -3.7170   23.0130  -31.1160 C   0  0  0  0  0  0  0  0  0  0  0  0
   -3.0510   22.8710  -29.7310 C   0  0  0  0  0  0  0  0  0  0  0  0
   -3.5220   23.9160  -28.8130 N   0  0  0  0  0  0  0  0  0  0  0  0
   -2.5900   24.6820  -28.0250 C   0  0  0  0  0  0  0  0  0  0  0  0
   -1.3940   25.1580  -28.5940 C   0  0  0  0  0  0  0  0  0  0  0  0
   -0.4870   25.8910  -27.8240 C   0  0  0  0  0  0  0  0  0  0  0  0
   -0.7600   26.1510  -26.4780 C   0  0  0  0  0  0  0  0  0  0  0  0
   -1.9400   25.6760  -25.9000 C   0  0  0  0  0  0  0  0  0  0  0  0
   -2.8500   24.9430  -26.6680 C   0  0  0  0  0  0  0  0  0  0  0  0
   -4.9680   24.1140  -28.6410 C   0  0  0  0  0  0  0  0  0  0  0  0
   -5.7420   23.5560  -29.8390 C   0  0  0  0  0  0  0  0  0  0  0  0
   -6.5770   21.3120  -32.4450 C   0  0  0  0  0  0  0  0  0  0  0  0
   -5.1299   19.2838  -33.7220 H   0  0  0  0  0  0  0  0  0  0  0  0
   -6.0086   18.0655  -34.7072 H   0  0  0  0  0  0  0  0  0  0  0  0
   -6.5480   19.7789  -34.7072 H   0  0  0  0  0  0  0  0  0  0  0  0
   -9.7199   19.9986  -32.1255 H   0  0  0  0  0  0  0  0  0  0  0  0
  -10.2490   22.4046  -31.7326 H   0  0  0  0  0  0  0  0  0  0  0  0
   -8.4361   24.1149  -31.8035 H   0  0  0  0  0  0  0  0  0  0  0  0
   -5.0944   23.4555  -33.1371 H   0  0  0  0  0  0  0  0  0  0  0  0
   -6.2571   24.6881  -32.4450 H   0  0  0  0  0  0  0  0  0  0  0  0
   -3.9507   22.0088  -31.4994 H   0  0  0  0  0  0  0  0  0  0  0  0
   -3.0116   23.5433  -31.7726 H   0  0  0  0  0  0  0  0  0  0  0  0
   -3.2990   21.8848  -29.3116 H   0  0  0  0  0  0  0  0  0  0  0  0
   -1.9626   22.9745  -29.8523 H   0  0  0  0  0  0  0  0  0  0  0  0
   -1.1718   24.9518  -29.6514 H   0  0  0  0  0  0  0  0  0  0  0  0
    0.4431   26.2639  -28.2778 H   0  0  0  0  0  0  0  0  0  0  0  0
   -0.0458   26.7296  -25.8738 H   0  0  0  0  0  0  0  0  0  0  0  0
   -2.1533   25.8788  -24.8401 H   0  0  0  0  0  0  0  0  0  0  0  0
   -3.7758   24.5679  -26.2073 H   0  0  0  0  0  0  0  0  0  0  0  0
   -5.2963   23.5966  -27.7274 H   0  0  0  0  0  0  0  0  0  0  0  0
   -5.1685   25.1929  -28.5645 H   0  0  0  0  0  0  0  0  0  0  0  0
   -5.8917   22.4739  -29.7101 H   0  0  0  0  0  0  0  0  0  0  0  0
   -6.7225   24.0493  -29.9112 H   0  0  0  0  0  0  0  0  0  0  0  0
   -5.5388   20.9967  -32.6259 H   0  0  0  0  0  0  0  0  0  0  0  0
  1  2  1  0
  2  3  1  0
  3  4  2  0
  4  5  1  0
  5  6  2  0
  6  7  1  0
  7  8  1  0
  8  9  1  0
  9 10  1  0
 10 11  1  0
 11 12  1  0
 12 13  1  0
 13 14  2  0
 14 15  1  0
 15 16  2  0
 16 17  1  0
 17 18  2  0
 12 19  1  0
 19 20  1  0
  7 21  2  0
 21  3  1  0
 20  9  1  0
 18 13  1  0
  1 22  1  0
  1 23  1  0
  1 24  1  0
  4 25  1  0
  5 26  1  0
  6 27  1  0
  8 28  1  0
  8 29  1  0
 10 30  1  0
 10 31  1  0
 11 32  1  0
 11 33  1  0
 14 34  1  0
 15 35  1  0
 16 36  1  0
 17 37  1  0
 18 38  1  0
 19 39  1  0
 19 40  1  0
 20 41  1  0
 20 42  1  0
 21 43  1  0
M  END
>  <UniqueID>  (1) 
1

>  <SMILES>  (1) 
CSc1cccc(CN2CCN(c3ccccc3)CC2)c1

>  <Energy>  (1) 
52.1026681493115

>  <Genealogy>  (1) 
CSc1cccc(CN2CCN(c3ccccc3)CC2)c1 (3D coordinates assigned)
CSc1cccc(CN2CCN(c3ccccc3)CC2)c1 (nonaromatic ring conformer: 52.1026681493115 kcal/mol)

>  <smiles>  (1) 
CSc1cccc(CN2CCN(c3ccccc3)CC2)c1

>  <score_type>  (1) 
oracle

>  <origin>  (1) 
adg

>  <m_score__min__energy>  (1) 
-8.0899999999999999

>  <m_primary>  (1) 
energy

$$$$
1:0
     RDKit          3D

 44 46  0  0  0  0  0  0  0  0999 V2000
   -5.5610   25.5660  -30.4640 C   0  0  0  0  0  0  0  0  0  0  0  0
   -4.1920   25.3380  -30.7820 O   0  0  0  0  0  0  0  0  0  0  0  0
   -3.5080   24.1390  -30.5320 C   0  0  0  0  0  0  0  0  0  0  0  0
   -3.8330   22.9330  -31.1860 C   0  0  0  0  0  0  0  0  0  0  0  0
   -3.1160   21.7510  -30.9150 C   0  0  0  0  0  0  0  0  0  0  0  0
   -3.4680   20.4490  -31.6180 C   0  0  2  0  0  0  0  0  0  0  0  0
   -3.2290   20.5910  -33.1330 C   0  0  0  0  0  0  0  0  0  0  0  0
   -4.8640   20.0590  -31.3040 N   0  0  0  0  0  0  0  0  0  0  0  0
   -5.7680   20.0660  -32.4720 C   0  0  0  0  0  0  0  0  0  0  0  0
   -6.9650   20.9730  -32.2710 C   0  0  0  0  0  0  0  0  0  0  0  0
   -6.7820   22.3670  -32.3020 C   0  0  0  0  0  0  0  0  0  0  0  0
   -7.8700   23.2290  -32.1430 C   0  0  0  0  0  0  0  0  0  0  0  0
   -9.1500   22.7110  -31.9480 C   0  0  0  0  0  0  0  0  0  0  0  0
   -9.3470   21.3290  -31.9100 C   0  0  0  0  0  0  0  0  0  0  0  0
   -8.2650   20.4550  -32.0690 C   0  0  0  0  0  0  0  0  0  0  0  0
   -8.6190   18.5700  -31.9790 Br  0  0  0  0  0  0  0  0  0  0  0  0
   -2.0790   21.7810  -29.9660 C   0  0  0  0  0  0  0  0  0  0  0  0
   -1.7660   22.9690  -29.3040 C   0  0  0  0  0  0  0  0  0  0  0  0
   -2.4610   24.1480  -29.6020 C   0  0  0  0  0  0  0  0  0  0  0  0
   -2.0920   25.3320  -28.9540 O   0  0  0  0  0  0  0  0  0  0  0  0
   -0.8680   25.4250  -28.2220 C   0  0  0  0  0  0  0  0  0  0  0  0
   -0.6070   24.1200  -27.4610 C   0  0  0  0  0  0  0  0  0  0  0  0
   -0.7560   22.9990  -28.3370 O   0  0  0  0  0  0  0  0  0  0  0  0
   -5.6851   25.5867  -29.3712 H   0  0  0  0  0  0  0  0  0  0  0  0
   -5.8802   26.5297  -30.8876 H   0  0  0  0  0  0  0  0  0  0  0  0
   -6.1753   24.7578  -30.8876 H   0  0  0  0  0  0  0  0  0  0  0  0
   -4.6556   22.9148  -31.9160 H   0  0  0  0  0  0  0  0  0  0  0  0
   -2.8150   19.6423  -31.2535 H   0  0  0  0  0  0  0  0  0  0  0  0
   -2.2952   21.1458  -33.3065 H   0  0  0  0  0  0  0  0  0  0  0  0
   -3.1518   19.5921  -33.5872 H   0  0  0  0  0  0  0  0  0  0  0  0
   -4.0693   21.1364  -33.5872 H   0  0  0  0  0  0  0  0  0  0  0  0
   -4.8680   19.0990  -30.8850 H   0  0  0  0  0  0  0  0  0  0  0  0
   -5.2580   20.7100  -30.5860 H   0  0  0  0  0  0  0  0  0  0  0  0
   -5.2059   20.4128  -33.3516 H   0  0  0  0  0  0  0  0  0  0  0  0
   -6.1434   19.0415  -32.6115 H   0  0  0  0  0  0  0  0  0  0  0  0
   -5.7745   22.7819  -32.4526 H   0  0  0  0  0  0  0  0  0  0  0  0
   -7.7167   24.3179  -32.1717 H   0  0  0  0  0  0  0  0  0  0  0  0
  -10.0052   23.3916  -31.8240 H   0  0  0  0  0  0  0  0  0  0  0  0
  -10.3581   20.9248  -31.7542 H   0  0  0  0  0  0  0  0  0  0  0  0
   -1.5123   20.8646  -29.7445 H   0  0  0  0  0  0  0  0  0  0  0  0
   -0.0393   25.6100  -28.9213 H   0  0  0  0  0  0  0  0  0  0  0  0
   -0.9423   26.2526  -27.5012 H   0  0  0  0  0  0  0  0  0  0  0  0
    0.4165   24.1328  -27.0581 H   0  0  0  0  0  0  0  0  0  0  0  0
   -1.3330   24.0324  -26.6393 H   0  0  0  0  0  0  0  0  0  0  0  0
  1  2  1  0
  2  3  1  0
  3  4  2  0
  4  5  1  0
  5  6  1  0
  6  7  1  0
  6  8  1  0
  8  9  1  0
  9 10  1  0
 10 11  2  0
 11 12  1  0
 12 13  2  0
 13 14  1  0
 14 15  2  0
 15 16  1  0
  5 17  2  0
 17 18  1  0
 18 19  2  0
 19 20  1  0
 20 21  1  0
 21 22  1  0
 22 23  1  0
 19  3  1  0
 15 10  1  0
 23 18  1  0
  1 24  1  0
  1 25  1  0
  1 26  1  0
  4 27  1  0
  6 28  1  1
  7 29  1  0
  7 30  1  0
  7 31  1  0
  8 32  1  0
  8 33  1  0
  9 34  1  0
  9 35  1  0
 11 36  1  0
 12 37  1  0
 13 38  1  0
 14 39  1  0
 17 40  1  0
 21 41  1  0
 21 42  1  0
 22 43  1  0
 22 44  1  0
M  CHG  1   8   1
M  END
>  <UniqueID>  (2) 
2

>  <SMILES>  (2) 
COc1cc([C@H](C)[NH2+]Cc2ccccc2Br)cc2c1OCCO2

>  <Energy>  (2) 
47.92143377469187

>  <Genealogy>  (2) 
COc1cc(C(C)[NH2+]Cc2ccccc2Br)cc2c1OCCO2 (protonated)
COc1cc([C@H](C)[NH2+]Cc2ccccc2Br)cc2c1OCCO2 (chirality)
COc1cc([C@H](C)[NH2+]Cc2ccccc2Br)cc2c1OCCO2 (3D coordinates assigned)
COc1cc([C@H](C)[NH2+]Cc2ccccc2Br)cc2c1OCCO2 (nonaromatic ring conformer: 47.92143377469187 kcal/mol)

>  <smiles>  (2) 
COc1cc(C(C)NCc2ccccc2Br)cc2c1OCCO2

>  <score_type>  (2) 
oracle

>  <origin>  (2) 
adg

>  <m_score__min__energy>  (2) 
-8.2100000000000009

>  <m_primary>  (2) 
energy

$$$$
2:0
     RDKit          3D

 33 35  0  0  0  0  0  0  0  0999 V2000
   -5.7370   25.9870  -30.0970 C   0  0  0  0  0  0  0  0  0  0  0  0
   -5.9500   24.6000  -30.6270 C   0  0  0  0  0  0  0  0  0  0  0  0
   -7.2490   24.1070  -30.8150 C   0  0  0  0  0  0  0  0  0  0  0  0
   -7.4500   22.8020  -31.2740 C   0  0  0  0  0  0  0  0  0  0  0  0
   -6.3530   21.9580  -31.5350 C   0  0  0  0  0  0  0  0  0  0  0  0
   -6.5420   20.5700  -32.0310 C   0  0  0  0  0  0  0  0  0  0  0  0
   -7.7210   19.8470  -31.7710 C   0  0  0  0  0  0  0  0  0  0  0  0
   -7.8560   18.5440  -32.2540 C   0  0  0  0  0  0  0  0  0  0  0  0
   -6.8170   17.9620  -32.9870 C   0  0  0  0  0  0  0  0  0  0  0  0
   -6.9110   16.6620  -33.4930 C   0  0  0  0  0  0  0  0  0  0  0  0
   -5.8460   16.1220  -34.2150 C   0  0  0  0  0  0  0  0  0  0  0  0
   -4.6860   16.8840  -34.4160 C   0  0  0  0  0  0  0  0  0  0  0  0
   -3.5520   16.3240  -35.2230 C   0  0  0  0  0  0  0  0  0  0  0  0
   -4.6170   18.1580  -33.9290 N   0  0  0  0  0  0  0  0  0  0  0  0
   -5.6440   18.7070  -33.2210 C   0  0  0  0  0  0  0  0  0  0  0  0
   -5.5410   19.9750  -32.7410 N   0  0  0  0  0  0  0  0  0  0  0  0
   -5.0520   22.4580  -31.3380 C   0  0  0  0  0  0  0  0  0  0  0  0
   -4.8550   23.7640  -30.8780 C   0  0  0  0  0  0  0  0  0  0  0  0
   -5.7406   25.9638  -28.9972 H   0  0  0  0  0  0  0  0  0  0  0  0
   -4.7694   26.3708  -30.4525 H   0  0  0  0  0  0  0  0  0  0  0  0
   -6.5449   26.6435  -30.4525 H   0  0  0  0  0  0  0  0  0  0  0  0
   -8.1147   24.7507  -30.6001 H   0  0  0  0  0  0  0  0  0  0  0  0
   -8.4734   22.4312  -31.4327 H   0  0  0  0  0  0  0  0  0  0  0  0
   -8.5334   20.3069  -31.1892 H   0  0  0  0  0  0  0  0  0  0  0  0
   -8.7777   17.9764  -32.0584 H   0  0  0  0  0  0  0  0  0  0  0  0
   -7.8207   16.0674  -33.3227 H   0  0  0  0  0  0  0  0  0  0  0  0
   -5.9160   15.1035  -34.6245 H   0  0  0  0  0  0  0  0  0  0  0  0
   -2.7747   15.9401  -34.5460 H   0  0  0  0  0  0  0  0  0  0  0  0
   -3.9226   15.5053  -35.8574 H   0  0  0  0  0  0  0  0  0  0  0  0
   -3.1273   17.1159  -35.8574 H   0  0  0  0  0  0  0  0  0  0  0  0
   -3.7580   18.7300  -34.1000 H   0  0  0  0  0  0  0  0  0  0  0  0
   -4.1834   21.8165  -31.5475 H   0  0  0  0  0  0  0  0  0  0  0  0
   -3.8335   24.1368  -30.7123 H   0  0  0  0  0  0  0  0  0  0  0  0
  1  2  1  0
  2  3  2  0
  3  4  1  0
  4  5  2  0
  5  6  1  0
  6  7  2  0
  7  8  1  0
  8  9  2  0
  9 10  1  0
 10 11  2  0
 11 12  1  0
 12 13  1  0
 12 14  2  0
 14 15  1  0
 15 16  2  0
  5 17  1  0
 17 18  2  0
 18  2  1  0
 16  6  1  0
 15  9  1  0
  1 19  1  0
  1 20  1  0
  1 21  1  0
  3 22  1  0
  4 23  1  0
  7 24  1  0
  8 25  1  0
 10 26  1  0
 11 27  1  0
 13 28  1  0
 13 29  1  0
 13 30  1  0
 14 31  1  0
 17 32  1  0
 18 33  1  0
M  CHG  1  14   1
M  END
>  <UniqueID>  (3) 
3

>  <SMILES>  (3) 
Cc1ccc(-c2ccc3ccc(C)[nH+]c3n2)cc1

>  <Energy>  (3) 
41.08922717326725

>  <Genealogy>  (3) 
Cc1ccc(-c2ccc3ccc(C)[nH+]c3n2)cc1 (protonated)
Cc1ccc(-c2ccc3ccc(C)[nH+]c3n2)cc1 (3D coordinates assigned)
Cc1ccc(-c2ccc3ccc(C)[nH+]c3n2)cc1 (optimized conformer: 41.08922717326725 kcal/mol)

>  <smiles>  (3) 
Cc1ccc(-c2ccc3ccc(C)nc3n2)cc1

>  <score_type>  (3) 
oracle

>  <origin>  (3) 
adg

>  <m_score__min__energy>  (3) 
-6.7999999999999998

>  <m_primary>  (3) 
energy

$$$$
3:0
     RDKit          3D

 55 57  0  0  0  0  0  0  0  0999 V2000
    1.6010   21.5290  -35.1240 C   0  0  0  0  0  0  0  0  0  0  0  0
    1.1530   20.6360  -34.1090 O   0  0  0  0  0  0  0  0  0  0  0  0
   -0.1950   20.3660  -33.8320 C   0  0  0  0  0  0  0  0  0  0  0  0
   -0.6620   19.0700  -33.5440 C   0  0  0  0  0  0  0  0  0  0  0  0
   -2.0160   18.8540  -33.2730 C   0  0  0  0  0  0  0  0  0  0  0  0
   -2.9220   19.9270  -33.2730 C   0  0  0  0  0  0  0  0  0  0  0  0
   -4.3590   19.7000  -32.9810 C   0  0  0  0  0  0  0  0  0  0  0  0
   -5.0260   18.6510  -33.6320 C   0  0  0  0  0  0  0  0  0  0  0  0
   -6.3490   18.3510  -33.3140 C   0  0  0  0  0  0  0  0  0  0  0  0
   -7.0040   19.1030  -32.3390 C   0  0  0  0  0  0  0  0  0  0  0  0
   -8.7010   18.7310  -31.8970 S   0  0  0  0  0  0  0  0  0  0  0  0
   -9.3440   20.4040  -32.2770 C   0  0  0  0  0  0  0  0  0  0  0  0
   -9.2100   21.3770  -31.0820 C   0  0  0  0  0  0  0  0  0  0  0  0
   -8.0170   22.2580  -31.1100 N   0  0  0  0  0  0  0  0  0  0  0  0
   -7.6100   22.7100  -29.7660 C   0  0  0  0  0  0  0  0  0  0  0  0
   -8.1680   23.4020  -32.0250 C   0  0  0  0  0  0  0  0  0  0  0  0
   -6.3620   20.1360  -31.7360 N   0  0  0  0  0  0  0  0  0  0  0  0
   -5.0730   20.4670  -32.0250 C   0  0  0  0  0  0  0  0  0  0  0  0
   -4.4870   21.6370  -31.3340 C   0  0  0  0  0  0  0  0  0  0  0  0
   -3.4140   21.4550  -30.4480 C   0  0  0  0  0  0  0  0  0  0  0  0
   -2.8560   22.5490  -29.7790 C   0  0  0  0  0  0  0  0  0  0  0  0
   -3.3760   23.8420  -29.9760 C   0  0  0  0  0  0  0  0  0  0  0  0
   -2.8500   24.9710  -29.3300 O   0  0  0  0  0  0  0  0  0  0  0  0
   -2.1330   24.9320  -28.0990 C   0  0  0  0  0  0  0  0  0  0  0  0
   -4.4580   24.0170  -30.8440 C   0  0  0  0  0  0  0  0  0  0  0  0
   -5.0170   22.9250  -31.5130 C   0  0  0  0  0  0  0  0  0  0  0  0
   -2.4560   21.2160  -33.5730 C   0  0  0  0  0  0  0  0  0  0  0  0
   -1.1020   21.4320  -33.8470 C   0  0  0  0  0  0  0  0  0  0  0  0
    2.0478   22.4195  -34.6578 H   0  0  0  0  0  0  0  0  0  0  0  0
    2.3534   21.0258  -35.7491 H   0  0  0  0  0  0  0  0  0  0  0  0
    0.7478   21.8313  -35.7491 H   0  0  0  0  0  0  0  0  0  0  0  0
    0.0411   18.2241  -33.5321 H   0  0  0  0  0  0  0  0  0  0  0  0
   -2.3745   17.8365  -33.0582 H   0  0  0  0  0  0  0  0  0  0  0  0
   -4.5010   18.0617  -34.3983 H   0  0  0  0  0  0  0  0  0  0  0  0
   -6.8713   17.5297  -33.8265 H   0  0  0  0  0  0  0  0  0  0  0  0
   -8.7813   20.8128  -33.1292 H   0  0  0  0  0  0  0  0  0  0  0  0
  -10.4148   20.3053  -32.5085 H   0  0  0  0  0  0  0  0  0  0  0  0
  -10.1043   22.0172  -31.0636 H   0  0  0  0  0  0  0  0  0  0  0  0
   -9.0999   20.7458  -30.1879 H   0  0  0  0  0  0  0  0  0  0  0  0
   -7.2280   21.6770  -31.4810 H   0  0  0  0  0  0  0  0  0  0  0  0
   -8.1411   22.1202  -29.0044 H   0  0  0  0  0  0  0  0  0  0  0  0
   -6.5253   22.5724  -29.6457 H   0  0  0  0  0  0  0  0  0  0  0  0
   -7.8602   23.7744  -29.6457 H   0  0  0  0  0  0  0  0  0  0  0  0
   -8.2899   24.3257  -31.4402 H   0  0  0  0  0  0  0  0  0  0  0  0
   -7.2730   23.4850  -32.6591 H   0  0  0  0  0  0  0  0  0  0  0  0
   -9.0539   23.2499  -32.6591 H   0  0  0  0  0  0  0  0  0  0  0  0
   -3.0096   20.4461  -30.2788 H   0  0  0  0  0  0  0  0  0  0  0  0
   -2.0071   22.3983  -29.0959 H   0  0  0  0  0  0  0  0  0  0  0  0
   -2.8430   24.9706  -27.2597 H   0  0  0  0  0  0  0  0  0  0  0  0
   -1.5501   24.0008  -28.0436 H   0  0  0  0  0  0  0  0  0  0  0  0
   -1.4525   25.7945  -28.0436 H   0  0  0  0  0  0  0  0  0  0  0  0
   -4.8730   25.0234  -31.0017 H   0  0  0  0  0  0  0  0  0  0  0  0
   -5.8763   23.0750  -32.1831 H   0  0  0  0  0  0  0  0  0  0  0  0
   -3.1597   22.0612  -33.5927 H   0  0  0  0  0  0  0  0  0  0  0  0
   -0.7468   22.4476  -34.0761 H   0  0  0  0  0  0  0  0  0  0  0  0
  1  2  1  0
  2  3  1  0
  3  4  2  0
  4  5  1  0
  5  6  2  0
  6  7  1  0
  7  8  2  0
  8  9  1  0
  9 10  2  0
 10 11  1  0
 11 12  1  0
 12 13  1  0
 13 14  1  0
 14 15  1  0
 14 16  1  0
 10 17  1  0
 17 18  2  0
 18 19  1  0
 19 20  2  0
 20 21  1  0
 21 22  2  0
 22 23  1  0
 23 24  1  0
 22 25  1  0
 25 26  2  0
  6 27  1  0
 27 28  2  0
 28  3  1  0
 18  7  1  0
 26 19  1  0
  1 29  1  0
  1 30  1  0
  1 31  1  0
  4 32  1  0
  5 33  1  0
  8 34  1  0
  9 35  1  0
 12 36  1  0
 12 37  1  0
 13 38  1  0
 13 39  1  0
 14 40  1  0
 15 41  1  0
 15 42  1  0
 15 43  1  0
 16 44  1  0
 16 45  1  0
 16 46  1  0
 20 47  1  0
 21 48  1  0
 24 49  1  0
 24 50  1  0
 24 51  1  0
 25 52  1  0
 26 53  1  0
 27 54  1  0
 28 55  1  0
M  CHG  1  14   1
M  END
>  <UniqueID>  (4) 
4

>  <SMILES>  (4) 
COc1ccc(-c2ccc(SCC[NH+](C)C)nc2-c2ccc(OC)cc2)cc1

>  <Energy>  (4) 
67.65594303073026

>  <Genealogy>  (4) 
COc1ccc(-c2ccc(SCC[NH+](C)C)nc2-c2ccc(OC)cc2)cc1 (protonated)
COc1ccc(-c2ccc(SCC[NH+](C)C)nc2-c2ccc(OC)cc2)cc1 (3D coordinates assigned)
COc1ccc(-c2ccc(SCC[NH+](C)C)nc2-c2ccc(OC)cc2)cc1 (optimized conformer: 67.65594303073026 kcal/mol)

>  <smiles>  (4) 
COc1ccc(-c2ccc(SCCN(C)C)nc2-c2ccc(OC)cc2)cc1

>  <score_type>  (4) 
oracle

>  <origin>  (4) 
adg

>  <m_score__min__energy>  (4) 
-7.1600000000000001

>  <m_primary>  (4) 
energy

$$$$
4:0
     RDKit          3D

 32 33  0  0  0  0  0  0  0  0999 V2000
   -6.5710   24.6090  -30.5030 C   0  0  0  0  0  0  0  0  0  0  0  0
   -6.8750   23.1630  -30.1200 C   0  0  0  0  0  0  0  0  0  0  0  0
   -6.5490   22.2150  -31.2560 C   0  0  0  0  0  0  0  0  0  0  0  0
   -7.5970   21.4450  -31.7940 C   0  0  0  0  0  0  0  0  0  0  0  0
   -7.3470   20.4650  -32.7550 C   0  0  0  0  0  0  0  0  0  0  0  0
   -6.0430   20.2190  -33.1780 C   0  0  0  0  0  0  0  0  0  0  0  0
   -4.9870   20.9640  -32.6540 C   0  0  0  0  0  0  0  0  0  0  0  0
   -5.2210   21.9870  -31.7190 C   0  0  0  0  0  0  0  0  0  0  0  0
   -4.0810   22.7130  -31.2240 N   0  0  0  0  0  0  0  0  0  0  0  0
   -3.3520   22.3910  -30.0270 C   0  0  0  0  0  0  0  0  0  0  0  0
   -3.2020   21.0360  -29.6890 C   0  0  0  0  0  0  0  0  0  0  0  0
   -2.6040   20.6650  -28.4840 C   0  0  0  0  0  0  0  0  0  0  0  0
   -2.1420   21.6420  -27.6050 C   0  0  0  0  0  0  0  0  0  0  0  0
   -2.2480   22.9930  -27.9390 C   0  0  0  0  0  0  0  0  0  0  0  0
   -2.8280   23.3860  -29.1600 C   0  0  0  0  0  0  0  0  0  0  0  0
   -2.8050   24.8180  -29.5230 C   0  0  0  0  0  0  0  0  0  0  0  0
   -2.0030   25.6040  -28.9540 O   0  0  0  0  0  0  0  0  0  0  0  0
   -3.6210   25.3000  -30.5390 O   0  0  0  0  0  0  0  0  0  0  0  0
   -6.4444   25.2110  -29.5911 H   0  0  0  0  0  0  0  0  0  0  0  0
   -5.6458   24.6442  -31.0970 H   0  0  0  0  0  0  0  0  0  0  0  0
   -7.4037   25.0138  -31.0970 H   0  0  0  0  0  0  0  0  0  0  0  0
   -6.2724   22.8904  -29.2411 H   0  0  0  0  0  0  0  0  0  0  0  0
   -7.9486   23.0807  -29.8950 H   0  0  0  0  0  0  0  0  0  0  0  0
   -8.6280   21.6183  -31.4519 H   0  0  0  0  0  0  0  0  0  0  0  0
   -8.1806   19.8860  -33.1791 H   0  0  0  0  0  0  0  0  0  0  0  0
   -5.8460   19.4367  -33.9258 H   0  0  0  0  0  0  0  0  0  0  0  0
   -3.9577   20.7483  -32.9766 H   0  0  0  0  0  0  0  0  0  0  0  0
   -3.7510   23.5340  -31.7810 H   0  0  0  0  0  0  0  0  0  0  0  0
   -3.5595   20.2594  -30.3812 H   0  0  0  0  0  0  0  0  0  0  0  0
   -2.4974   19.6005  -28.2281 H   0  0  0  0  0  0  0  0  0  0  0  0
   -1.6924   21.3479  -26.6451 H   0  0  0  0  0  0  0  0  0  0  0  0
   -1.8749   23.7577  -27.2418 H   0  0  0  0  0  0  0  0  0  0  0  0
  1  2  1  0
  2  3  1  0
  3  4  2  0
  4  5  1  0
  5  6  2  0
  6  7  1  0
  7  8  2  0
  8  9  1  0
  9 10  1  0
 10 11  2  0
 11 12  1  0
 12 13  2  0
 13 14  1  0
 14 15  2  0
 15 16  1  0
 16 17  2  0
 16 18  1  0
  8  3  1  0
 15 10  1  0
  1 19  1  0
  1 20  1  0
  1 21  1  0
  2 22  1  0
  2 23  1  0
  4 24  1  0
  5 25  1  0
  6 26  1  0
  7 27  1  0
  9 28  1  0
 11 29  1  0
 12 30  1  0
 13 31  1  0
 14 32  1  0
M  CHG  1  18  -1
M  END
>  <UniqueID>  (5) 
5

>  <SMILES>  (5) 
CCc1ccccc1Nc1ccccc1C(=O)[O-]

>  <Energy>  (5) 
45.129003897845756

>  <Genealogy>  (5) 
CCc1ccccc1Nc1ccccc1C(=O)[O-] (protonated)
CCc1ccccc1Nc1ccccc1C(=O)[O-] (3D coordinates assigned)
CCc1ccccc1Nc1ccccc1C(=O)[O-] (optimized conformer: 45.129003897845756 kcal/mol)

>  <smiles>  (5) 
CCc1ccccc1Nc1ccccc1C(=O)O

>  <score_type>  (5) 
oracle

>  <origin>  (5) 
adg

>  <m_score__min__energy>  (5) 
-9.1999999999999993

>  <m_primary>  (5) 
energy

$$$$
5:0
     RDKit          3D

 43 46  0  0  0  0  0  0  0  0999 V2000
   -2.0460   24.6160  -28.8230 C   0  0  0  0  0  0  0  0  0  0  0  0
   -3.4200   24.4080  -29.3760 C   0  0  0  0  0  0  0  0  0  0  0  0
   -4.2760   23.4590  -28.8060 C   0  0  0  0  0  0  0  0  0  0  0  0
   -5.5610   23.2930  -29.3270 C   0  0  0  0  0  0  0  0  0  0  0  0
   -5.9820   24.0700  -30.4150 C   0  0  0  0  0  0  0  0  0  0  0  0
   -7.3770   23.9330  -30.9590 C   0  0  0  0  0  0  0  0  0  0  0  0
   -7.5600   22.6000  -31.5480 N   0  0  0  0  0  0  0  0  0  0  0  0
   -8.8420   22.1090  -31.7240 C   0  0  0  0  0  0  0  0  0  0  0  0
   -9.0710   20.8230  -32.2520 C   0  0  0  0  0  0  0  0  0  0  0  0
   -7.9530   20.0780  -32.5810 C   0  0  0  0  0  0  0  0  0  0  0  0
   -7.8600   18.8380  -33.0740 N   0  0  0  0  0  0  0  0  0  0  0  0
   -6.5170   18.6090  -33.1740 C   0  0  0  0  0  0  0  0  0  0  0  0
   -5.9270   17.3420  -33.6720 C   0  0  0  0  0  0  0  0  0  0  0  0
   -6.6870   16.1600  -33.7450 C   0  0  0  0  0  0  0  0  0  0  0  0
   -6.1100   14.9750  -34.2040 C   0  0  0  0  0  0  0  0  0  0  0  0
   -4.7740   14.9520  -34.6060 C   0  0  0  0  0  0  0  0  0  0  0  0
   -4.0030   16.1240  -34.5740 C   0  0  0  0  0  0  0  0  0  0  0  0
   -2.5460   16.0930  -34.9640 C   0  0  0  0  0  0  0  0  0  0  0  0
   -2.0150   17.3710  -34.9690 F   0  0  0  0  0  0  0  0  0  0  0  0
   -1.8490   15.3190  -34.0540 F   0  0  0  0  0  0  0  0  0  0  0  0
   -2.3870   15.5530  -36.2280 F   0  0  0  0  0  0  0  0  0  0  0  0
   -4.5810   17.3090  -34.0850 C   0  0  0  0  0  0  0  0  0  0  0  0
   -5.7470   19.6590  -32.7560 N   0  0  0  0  0  0  0  0  0  0  0  0
   -6.6480   20.5810  -32.3880 C   0  0  0  0  0  0  0  0  0  0  0  0
   -6.4530   21.8470  -31.8640 C   0  0  0  0  0  0  0  0  0  0  0  0
   -5.0990   25.0230  -30.9450 C   0  0  0  0  0  0  0  0  0  0  0  0
   -3.8530   25.1670  -30.4200 N   0  0  0  0  0  0  0  0  0  0  0  0
   -2.0883   24.6096  -27.7238 H   0  0  0  0  0  0  0  0  0  0  0  0
   -1.3852   23.8077  -29.1692 H   0  0  0  0  0  0  0  0  0  0  0  0
   -1.6540   25.5837  -29.1692 H   0  0  0  0  0  0  0  0  0  0  0  0
   -3.9395   22.8489  -27.9548 H   0  0  0  0  0  0  0  0  0  0  0  0
   -6.2428   22.5524  -28.8835 H   0  0  0  0  0  0  0  0  0  0  0  0
   -8.1012   24.0728  -30.1429 H   0  0  0  0  0  0  0  0  0  0  0  0
   -7.5371   24.6951  -31.7359 H   0  0  0  0  0  0  0  0  0  0  0  0
   -9.7012   22.7368  -31.4454 H   0  0  0  0  0  0  0  0  0  0  0  0
  -10.0886   20.4308  -32.3955 H   0  0  0  0  0  0  0  0  0  0  0  0
   -8.6530   18.2000  -33.2990 H   0  0  0  0  0  0  0  0  0  0  0  0
   -7.7433   16.1700  -33.4381 H   0  0  0  0  0  0  0  0  0  0  0  0
   -6.7112   14.0549  -34.2491 H   0  0  0  0  0  0  0  0  0  0  0  0
   -4.3226   14.0097  -34.9500 H   0  0  0  0  0  0  0  0  0  0  0  0
   -3.9729   18.2236  -34.0242 H   0  0  0  0  0  0  0  0  0  0  0  0
   -5.4385   22.2411  -31.7043 H   0  0  0  0  0  0  0  0  0  0  0  0
   -5.4156   25.6554  -31.7875 H   0  0  0  0  0  0  0  0  0  0  0  0
  1  2  1  0
  2  3  2  0
  3  4  1  0
  4  5  2  0
  5  6  1  0
  6  7  1  0
  7  8  1  0
  8  9  2  0
  9 10  1  0
 10 11  2  0
 11 12  1  0
 12 13  1  0
 13 14  2  0
 14 15  1  0
 15 16  2  0
 16 17  1  0
 17 18  1  0
 18 19  1  0
 18 20  1  0
 18 21  1  0
 17 22  2  0
 12 23  2  0
 23 24  1  0
 24 25  2  0
  5 26  1  0
 26 27  2  0
 27  2  1  0
 25  7  1  0
 24 10  1  0
 22 13  1  0
  1 28  1  0
  1 29  1  0
  1 30  1  0
  3 31  1  0
  4 32  1  0
  6 33  1  0
  6 34  1  0
  8 35  1  0
  9 36  1  0
 11 37  1  0
 14 38  1  0
 15 39  1  0
 16 40  1  0
 22 41  1  0
 25 42  1  0
 26 43  1  0
M  CHG  1  11   1
M  END
>  <UniqueID>  (6) 
6

>  <SMILES>  (6) 
Cc1ccc(Cn2ccc3[nH+]c(-c4cccc(C(F)(F)F)c4)nc-3c2)cn1

>  <Energy>  (6) 
87.25564608069719

>  <Genealogy>  (6) 
Cc1ccc(Cn2ccc3[nH+]c(-c4cccc(C(F)(F)F)c4)nc-3c2)cn1 (protonated)
Cc1ccc(Cn2ccc3[nH+]c(-c4cccc(C(F)(F)F)c4)nc-3c2)cn1 (3D coordinates assigned)
Cc1ccc(Cn2ccc3[nH+]c(-c4cccc(C(F)(F)F)c4)nc-3c2)cn1 (optimized conformer: 87.25564608069719 kcal/mol)

>  <smiles>  (6) 
Cc1ccc(Cn2ccc3nc(-c4cccc(C(F)(F)F)c4)nc-3c2)cn1

>  <score_type>  (6) 
oracle

>  <origin>  (6) 
adg

>  <m_score__min__energy>  (6) 
-8.2100000000000009

>  <m_primary>  (6) 
energy

$$$$
6:0
     RDKit          3D

 49 52  0  0  0  0  0  0  0  0999 V2000
   -9.1840   18.5550  -32.3210 C   0  0  0  0  0  0  0  0  0  0  0  0
   -8.6670   19.9580  -32.1650 C   0  0  0  0  0  0  0  0  0  0  0  0
   -9.5460   20.9820  -31.7880 C   0  0  0  0  0  0  0  0  0  0  0  0
   -9.0740   22.2800  -31.5950 C   0  0  0  0  0  0  0  0  0  0  0  0
   -7.7080   22.5500  -31.7570 C   0  0  0  0  0  0  0  0  0  0  0  0
   -7.1520   23.9470  -31.5430 C   0  0  0  0  0  0  0  0  0  0  0  0
   -6.1770   24.1100  -30.4320 N   0  0  0  0  0  0  0  0  0  0  0  0
   -5.5690   22.8560  -29.9680 C   0  0  0  0  0  0  0  0  0  0  0  0
   -4.1720   23.2680  -30.4240 C   0  0  0  0  0  0  0  0  0  0  0  0
   -3.6680   22.4780  -31.5540 N   0  0  0  0  0  0  0  0  0  0  0  0
   -2.5800   21.6810  -31.5410 C   0  0  0  0  0  0  0  0  0  0  0  0
   -2.5160   21.0010  -32.7410 C   0  0  0  0  0  0  0  0  0  0  0  0
   -3.6330   21.4070  -33.4420 C   0  0  0  0  0  0  0  0  0  0  0  0
   -4.3200   22.2860  -32.6900 N   0  0  0  0  0  0  0  0  0  0  0  0
   -4.8440   24.5720  -30.8460 C   0  0  0  0  0  0  0  0  0  0  0  0
   -6.8810   21.5550  -32.1790 N   0  0  0  0  0  0  0  0  0  0  0  0
   -7.3140   20.2840  -32.4030 C   0  0  0  0  0  0  0  0  0  0  0  0
   -6.3770   19.3040  -32.8780 N   0  0  0  0  0  0  0  0  0  0  0  0
   -5.7950   18.3250  -31.9510 C   0  0  0  0  0  0  0  0  0  0  0  0
   -5.9810   16.9080  -32.5050 C   0  0  0  0  0  0  0  0  0  0  0  0
   -5.5470   16.7650  -33.9830 C   0  0  0  0  0  0  0  0  0  0  0  0
   -5.1170   18.0890  -34.6330 C   0  0  0  0  0  0  0  0  0  0  0  0
   -6.1140   19.2100  -34.3190 C   0  0  0  0  0  0  0  0  0  0  0  0
   -9.3473   18.1118  -31.3276 H   0  0  0  0  0  0  0  0  0  0  0  0
  -10.1342   18.5738  -32.8748 H   0  0  0  0  0  0  0  0  0  0  0  0
   -8.4487   17.9527  -32.8748 H   0  0  0  0  0  0  0  0  0  0  0  0
  -10.6138   20.7609  -31.6435 H   0  0  0  0  0  0  0  0  0  0  0  0
   -9.7688   23.0864  -31.3176 H   0  0  0  0  0  0  0  0  0  0  0  0
   -6.6526   24.2541  -32.4737 H   0  0  0  0  0  0  0  0  0  0  0  0
   -8.0178   24.5653  -31.2636 H   0  0  0  0  0  0  0  0  0  0  0  0
   -5.6478   22.7085  -28.8808 H   0  0  0  0  0  0  0  0  0  0  0  0
   -5.9831   21.9026  -30.3280 H   0  0  0  0  0  0  0  0  0  0  0  0
   -3.2877   23.2277  -29.7710 H   0  0  0  0  0  0  0  0  0  0  0  0
   -1.8628   21.5881  -30.7121 H   0  0  0  0  0  0  0  0  0  0  0  0
   -1.7426   20.2901  -33.0673 H   0  0  0  0  0  0  0  0  0  0  0  0
   -3.9153   21.0679  -34.4496 H   0  0  0  0  0  0  0  0  0  0  0  0
   -5.2350   22.7190  -32.9450 H   0  0  0  0  0  0  0  0  0  0  0  0
   -4.4906   25.4481  -30.2825 H   0  0  0  0  0  0  0  0  0  0  0  0
   -4.7043   24.9302  -31.8766 H   0  0  0  0  0  0  0  0  0  0  0  0
   -4.7214   18.5312  -31.8294 H   0  0  0  0  0  0  0  0  0  0  0  0
   -6.3009   18.4027  -30.9773 H   0  0  0  0  0  0  0  0  0  0  0  0
   -5.3819   16.2143  -31.8969 H   0  0  0  0  0  0  0  0  0  0  0  0
   -7.0559   16.6793  -32.4583 H   0  0  0  0  0  0  0  0  0  0  0  0
   -4.7002   16.0644  -34.0297 H   0  0  0  0  0  0  0  0  0  0  0  0
   -6.4233   16.4035  -34.5410 H   0  0  0  0  0  0  0  0  0  0  0  0
   -4.1260   18.3722  -34.2487 H   0  0  0  0  0  0  0  0  0  0  0  0
   -5.0842   17.9473  -35.7233 H   0  0  0  0  0  0  0  0  0  0  0  0
   -5.6996   20.1664  -34.6704 H   0  0  0  0  0  0  0  0  0  0  0  0
   -7.0615   18.9841  -34.8301 H   0  0  0  0  0  0  0  0  0  0  0  0
  1  2  1  0
  2  3  2  0
  3  4  1  0
  4  5  2  0
  5  6  1  0
  6  7  1  0
  7  8  1  0
  8  9  1  0
  9 10  1  0
 10 11  1  0
 11 12  2  0
 12 13  1  0
 13 14  2  0
  9 15  1  0
  5 16  1  0
 16 17  2  0
 17 18  1  0
 18 19  1  0
 19 20  1  0
 20 21  1  0
 21 22  1  0
 22 23  1  0
 17  2  1  0
 23 18  1  0
 15  7  1  0
 14 10  1  0
  1 24  1  0
  1 25  1  0
  1 26  1  0
  3 27  1  0
  4 28  1  0
  6 29  1  0
  6 30  1  0
  8 31  1  0
  8 32  1  0
  9 33  1  0
 11 34  1  0
 12 35  1  0
 13 36  1  0
 14 37  1  0
 15 38  1  0
 15 39  1  0
 19 40  1  0
 19 41  1  0
 20 42  1  0
 20 43  1  0
 21 44  1  0
 21 45  1  0
 22 46  1  0
 22 47  1  0
 23 48  1  0
 23 49  1  0
M  CHG  1  14   1
M  END
>  <UniqueID>  (7) 
7

>  <SMILES>  (7) 
Cc1ccc(CN2CC(n3ccc[nH+]3)C2)nc1N1CCCCC1

>  <Energy>  (7) 
158.58001193192194

>  <Genealogy>  (7) 
Cc1ccc(CN2CC(n3ccc[nH+]3)C2)nc1N1CCCCC1 (protonated)
Cc1ccc(CN2CC(n3ccc[nH+]3)C2)nc1N1CCCCC1 (3D coordinates assigned)
Cc1ccc(CN2CC(n3ccc[nH+]3)C2)nc1N1CCCCC1 (nonaromatic ring conformer: 158.58001193192194 kcal/mol)

>  <smiles>  (7) 
Cc1ccc(CN2CC(n3cccn3)C2)nc1N1CCCCC1

>  <score_type>  (7) 
oracle

>  <origin>  (7) 
adg

>  <m_score__min__energy>  (7) 
-7.5599999999999996

>  <m_primary>  (7) 
energy

$$$$
7:0
     RDKit          3D

 50 52  0  0  0  0  0  0  0  0999 V2000
   -1.0420   23.9620  -28.5070 F   0  0  0  0  0  0  0  0  0  0  0  0
   -1.9880   24.9700  -28.5150 C   0  0  0  0  0  0  0  0  0  0  0  0
   -1.3440   26.1890  -28.4260 F   0  0  0  0  0  0  0  0  0  0  0  0
   -2.7350   24.9250  -29.7270 O   0  0  0  0  0  0  0  0  0  0  0  0
   -4.0930   24.5780  -29.8250 C   0  0  0  0  0  0  0  0  0  0  0  0
   -5.0760   25.5170  -30.2020 C   0  0  0  0  0  0  0  0  0  0  0  0
   -6.4190   25.1440  -30.2730 C   0  0  0  0  0  0  0  0  0  0  0  0
   -6.8010   23.8380  -29.9690 C   0  0  0  0  0  0  0  0  0  0  0  0
   -5.8390   22.8960  -29.5970 C   0  0  0  0  0  0  0  0  0  0  0  0
   -4.4810   23.2520  -29.5380 C   0  0  0  0  0  0  0  0  0  0  0  0
   -3.4640   22.2250  -29.0970 C   0  0  0  0  0  0  0  0  0  0  0  0
   -2.3640   22.1370  -30.0720 N   0  0  0  0  0  0  0  0  0  0  0  0
   -2.5450   21.0170  -31.0240 C   0  0  0  0  0  0  0  0  0  0  0  0
   -2.2990   21.4670  -32.4900 C   0  0  0  0  0  0  0  0  0  0  0  0
   -3.0960   20.6070  -33.4750 C   0  0  0  0  0  0  0  0  0  0  0  0
   -4.5620   20.7500  -33.2750 N   0  0  0  0  0  0  0  0  0  0  0  0
   -5.2980   19.6090  -33.8610 C   0  0  0  0  0  0  0  0  0  0  0  0
   -6.5700   19.3370  -33.1000 C   0  0  0  0  0  0  0  0  0  0  0  0
   -6.7010   18.1580  -32.3490 C   0  0  0  0  0  0  0  0  0  0  0  0
   -7.8700   17.9120  -31.6220 C   0  0  0  0  0  0  0  0  0  0  0  0
   -8.9120   18.8430  -31.6350 C   0  0  0  0  0  0  0  0  0  0  0  0
   -8.7860   20.0220  -32.3730 C   0  0  0  0  0  0  0  0  0  0  0  0
   -7.6200   20.2720  -33.1030 C   0  0  0  0  0  0  0  0  0  0  0  0
   -4.9560   20.9820  -31.8600 C   0  0  0  0  0  0  0  0  0  0  0  0
   -3.9540   20.3840  -30.8620 C   0  0  0  0  0  0  0  0  0  0  0  0
   -2.6712   24.8373  -27.6631 H   0  0  0  0  0  0  0  0  0  0  0  0
   -4.7821   26.5496  -30.4415 H   0  0  0  0  0  0  0  0  0  0  0  0
   -7.1783   25.8825  -30.5697 H   0  0  0  0  0  0  0  0  0  0  0  0
   -7.8611   23.5491  -30.0222 H   0  0  0  0  0  0  0  0  0  0  0  0
   -6.1464   21.8694  -29.3488 H   0  0  0  0  0  0  0  0  0  0  0  0
   -3.0570   22.5160  -28.1174 H   0  0  0  0  0  0  0  0  0  0  0  0
   -3.9565   21.2439  -29.0267 H   0  0  0  0  0  0  0  0  0  0  0  0
   -1.4530   22.0290  -29.5650 H   0  0  0  0  0  0  0  0  0  0  0  0
   -2.3370   23.0360  -30.6090 H   0  0  0  0  0  0  0  0  0  0  0  0
   -1.7925   20.2503  -30.7876 H   0  0  0  0  0  0  0  0  0  0  0  0
   -2.6076   22.5171  -32.5995 H   0  0  0  0  0  0  0  0  0  0  0  0
   -1.2283   21.3517  -32.7145 H   0  0  0  0  0  0  0  0  0  0  0  0
   -2.8451   20.9158  -34.5005 H   0  0  0  0  0  0  0  0  0  0  0  0
   -2.8293   19.5540  -33.3016 H   0  0  0  0  0  0  0  0  0  0  0  0
   -5.5475   19.8412  -34.9069 H   0  0  0  0  0  0  0  0  0  0  0  0
   -4.6593   18.7151  -33.8058 H   0  0  0  0  0  0  0  0  0  0  0  0
   -5.8810   17.4250  -32.3324 H   0  0  0  0  0  0  0  0  0  0  0  0
   -7.9694   16.9844  -31.0392 H   0  0  0  0  0  0  0  0  0  0  0  0
   -9.8315   18.6473  -31.0639 H   0  0  0  0  0  0  0  0  0  0  0  0
   -9.6058   20.7554  -32.3800 H   0  0  0  0  0  0  0  0  0  0  0  0
   -7.5239   21.2028  -33.6813 H   0  0  0  0  0  0  0  0  0  0  0  0
   -5.0220   22.0661  -31.6860 H   0  0  0  0  0  0  0  0  0  0  0  0
   -5.9240   20.4852  -31.6981 H   0  0  0  0  0  0  0  0  0  0  0  0
   -4.3140   20.5693  -29.8392 H   0  0  0  0  0  0  0  0  0  0  0  0
   -3.8728   19.3047  -31.0582 H   0  0  0  0  0  0  0  0  0  0  0  0
  1  2  1  0
  2  3  1  0
  2  4  1  0
  4  5  1  0
  5  6  2  0
  6  7  1  0
  7  8  2  0
  8  9  1  0
  9 10  2  0
 10 11  1  0
 11 12  1  0
 12 13  1  0
 13 14  1  0
 14 15  1  0
 15 16  1  0
 16 17  1  0
 17 18  1  0
 18 19  2  0
 19 20  1  0
 20 21  2  0
 21 22  1  0
 22 23  2  0
 16 24  1  0
 24 25  1  0
 10  5  1  0
 25 13  1  0
 23 18  1  0
  2 26  1  0
  6 27  1  0
  7 28  1  0
  8 29  1  0
  9 30  1  0
 11 31  1  0
 11 32  1  0
 12 33  1  0
 12 34  1  0
 13 35  1  0
 14 36  1  0
 14 37  1  0
 15 38  1  0
 15 39  1  0
 17 40  1  0
 17 41  1  0
 19 42  1  0
 20 43  1  0
 21 44  1  0
 22 45  1  0
 23 46  1  0
 24 47  1  0
 24 48  1  0
 25 49  1  0
 25 50  1  0
M  CHG  1  12   1
M  END
>  <UniqueID>  (8) 
8

>  <SMILES>  (8) 
FC(F)Oc1ccccc1C[NH2+]C1CCN(Cc2ccccc2)CC1

>  <Energy>  (8) 
60.37665593103068

>  <Genealogy>  (8) 
FC(F)Oc1ccccc1C[NH2+]C1CCN(Cc2ccccc2)CC1 (protonated)
FC(F)Oc1ccccc1C[NH2+]C1CCN(Cc2ccccc2)CC1 (3D coordinates assigned)
FC(F)Oc1ccccc1C[NH2+]C1CCN(Cc2ccccc2)CC1 (nonaromatic ring conformer: 60.37665593103068 kcal/mol)

>  <smiles>  (8) 
FC(F)Oc1ccccc1CNC1CCN(Cc2ccccc2)CC1

>  <score_type>  (8) 
oracle

>  <origin>  (8) 
adg

>  <m_score__min__energy>  (8) 
-7.5

>  <m_primary>  (8) 
energy

$$$$
8:0
     RDKit          3D

 28 28  0  0  0  0  0  0  0  0999 V2000
   -9.1340   18.8140  -32.3360 C   0  0  0  0  0  0  0  0  0  0  0  0
   -8.2620   20.0390  -32.2600 C   0  0  0  0  0  0  0  0  0  0  0  0
   -8.8010   21.2260  -31.7480 C   0  0  0  0  0  0  0  0  0  0  0  0
   -8.0190   22.3710  -31.6310 C   0  0  0  0  0  0  0  0  0  0  0  0
   -6.6770   22.3670  -32.0490 C   0  0  0  0  0  0  0  0  0  0  0  0
   -5.8600   23.5050  -31.9210 O   0  0  0  0  0  0  0  0  0  0  0  0
   -6.1320   24.6370  -31.0950 C   0  0  0  0  0  0  0  0  0  0  0  0
   -4.9630   24.9390  -30.2080 C   0  0  0  0  0  0  0  0  0  0  0  0
   -5.0960   24.8590  -28.7890 N   0  0  0  0  0  0  0  0  0  0  0  0
   -3.8640   25.2880  -30.7150 O   0  0  0  0  0  0  0  0  0  0  0  0
   -6.1300   21.1930  -32.6100 C   0  0  0  0  0  0  0  0  0  0  0  0
   -4.6990   21.1920  -33.0920 C   0  0  0  0  0  0  0  0  0  0  0  0
   -6.9190   20.0160  -32.6990 C   0  0  0  0  0  0  0  0  0  0  0  0
   -6.3560   18.8020  -33.2250 N   0  0  0  0  0  0  0  0  0  0  0  0
   -6.1460   17.8280  -32.4730 O   0  0  0  0  0  0  0  0  0  0  0  0
   -6.0660   18.6950  -34.5650 O   0  0  0  0  0  0  0  0  0  0  0  0
   -9.3767   18.4730  -31.3187 H   0  0  0  0  0  0  0  0  0  0  0  0
  -10.0629   19.0578  -32.8724 H   0  0  0  0  0  0  0  0  0  0  0  0
   -8.5995   18.0161  -32.8724 H   0  0  0  0  0  0  0  0  0  0  0  0
   -9.8551   21.2534  -31.4346 H   0  0  0  0  0  0  0  0  0  0  0  0
   -8.4551   23.2878  -31.2075 H   0  0  0  0  0  0  0  0  0  0  0  0
   -6.3355   25.5093  -31.7335 H   0  0  0  0  0  0  0  0  0  0  0  0
   -7.0053   24.4130  -30.4648 H   0  0  0  0  0  0  0  0  0  0  0  0
   -6.0040   24.5860  -28.3530 H   0  0  0  0  0  0  0  0  0  0  0  0
   -4.2820   25.0730  -28.1710 H   0  0  0  0  0  0  0  0  0  0  0  0
   -4.0205   21.1915  -32.2262 H   0  0  0  0  0  0  0  0  0  0  0  0
   -4.5177   20.2937  -33.7005 H   0  0  0  0  0  0  0  0  0  0  0  0
   -4.5164   22.0900  -33.7005 H   0  0  0  0  0  0  0  0  0  0  0  0
  1  2  1  0
  2  3  2  0
  3  4  1  0
  4  5  2  0
  5  6  1  0
  6  7  1  0
  7  8  1  0
  8  9  1  0
  8 10  2  0
  5 11  1  0
 11 12  1  0
 11 13  2  0
 13 14  1  0
 14 15  2  0
 14 16  1  0
 13  2  1  0
  1 17  1  0
  1 18  1  0
  1 19  1  0
  3 20  1  0
  4 21  1  0
  7 22  1  0
  7 23  1  0
  9 24  1  0
  9 25  1  0
 12 26  1  0
 12 27  1  0
 12 28  1  0
M  CHG  2  14   1  16  -1
M  END
>  <UniqueID>  (9) 
9

>  <SMILES>  (9) 
Cc1ccc(OCC(N)=O)c(C)c1[N+](=O)[O-]

>  <Energy>  (9) 
31.813950710387058

>  <Genealogy>  (9) 
Cc1ccc(OCC(N)=O)c(C)c1[N+](=O)[O-] (3D coordinates assigned)
Cc1ccc(OCC(N)=O)c(C)c1[N+](=O)[O-] (optimized conformer: 31.813950710387058 kcal/mol)

>  <smiles>  (9) 
Cc1ccc(OCC(N)=O)c(C)c1[N+](=O)[O-]

>  <score_type>  (9) 
oracle

>  <origin>  (9) 
adg

>  <m_score__min__energy>  (9) 
-7.4199999999999999

>  <m_primary>  (9) 
energy

$$$$
9:0
     RDKit          3D

 38 39  0  0  0  0  0  0  0  0999 V2000
   -6.4890   25.6450  -29.3660 C   0  0  0  0  0  0  0  0  0  0  0  0
   -5.3550   25.0600  -30.2090 C   0  0  0  0  0  0  0  0  0  0  0  0
   -4.6440   23.8830  -29.5110 C   0  0  0  0  0  0  0  0  0  0  0  0
   -4.2370   24.1850  -28.0590 C   0  0  0  0  0  0  0  0  0  0  0  0
   -2.7630   24.4430  -27.9250 C   0  0  0  0  0  0  0  0  0  0  0  0
   -2.2660   25.2370  -26.8810 C   0  0  0  0  0  0  0  0  0  0  0  0
   -0.8910   25.5000  -26.8010 C   0  0  0  0  0  0  0  0  0  0  0  0
   -0.3650   26.3230  -25.7420 N   0  0  0  0  0  0  0  0  0  0  0  0
   -1.2580   26.9550  -24.7640 C   0  0  0  0  0  0  0  0  0  0  0  0
   -0.7750   26.6780  -23.3260 C   0  0  0  0  0  0  0  0  0  0  0  0
    0.6770   26.4130  -23.2310 N   0  0  0  0  0  0  0  0  0  0  0  0
    1.4500   27.1150  -24.2660 C   0  0  0  0  0  0  0  0  0  0  0  0
    1.0770   26.5850  -25.6580 C   0  0  0  0  0  0  0  0  0  0  0  0
   -0.0340   24.9380  -27.7610 C   0  0  0  0  0  0  0  0  0  0  0  0
   -0.5670   24.1520  -28.7850 C   0  0  0  0  0  0  0  0  0  0  0  0
   -1.9060   23.9290  -28.8480 N   0  0  0  0  0  0  0  0  0  0  0  0
   -6.2528   25.5232  -28.2986 H   0  0  0  0  0  0  0  0  0  0  0  0
   -6.6031   26.7145  -29.5965 H   0  0  0  0  0  0  0  0  0  0  0  0
   -7.4267   25.1181  -29.5965 H   0  0  0  0  0  0  0  0  0  0  0  0
   -5.7722   24.7041  -31.1626 H   0  0  0  0  0  0  0  0  0  0  0  0
   -4.6104   25.8548  -30.3636 H   0  0  0  0  0  0  0  0  0  0  0  0
   -5.3233   23.0178  -29.5092 H   0  0  0  0  0  0  0  0  0  0  0  0
   -3.7184   23.6862  -30.0718 H   0  0  0  0  0  0  0  0  0  0  0  0
   -4.7851   25.0746  -27.7151 H   0  0  0  0  0  0  0  0  0  0  0  0
   -4.4824   23.3031  -27.4490 H   0  0  0  0  0  0  0  0  0  0  0  0
   -2.9522   25.6518  -26.1279 H   0  0  0  0  0  0  0  0  0  0  0  0
   -1.2723   28.0412  -24.9372 H   0  0  0  0  0  0  0  0  0  0  0  0
   -2.2679   26.5359  -24.8847 H   0  0  0  0  0  0  0  0  0  0  0  0
   -1.0100   27.5550  -22.7050 H   0  0  0  0  0  0  0  0  0  0  0  0
   -1.2923   25.7708  -22.9806 H   0  0  0  0  0  0  0  0  0  0  0  0
    1.0190   26.7180  -22.2900 H   0  0  0  0  0  0  0  0  0  0  0  0
    0.8510   25.3830  -23.3140 H   0  0  0  0  0  0  0  0  0  0  0  0
    1.2299   28.1916  -24.2162 H   0  0  0  0  0  0  0  0  0  0  0  0
    2.5223   26.9423  -24.0919 H   0  0  0  0  0  0  0  0  0  0  0  0
    1.3532   27.3332  -26.4156 H   0  0  0  0  0  0  0  0  0  0  0  0
    1.6192   25.6447  -25.8363 H   0  0  0  0  0  0  0  0  0  0  0  0
    1.0502   25.1157  -27.7068 H   0  0  0  0  0  0  0  0  0  0  0  0
    0.0987   23.7124  -29.5424 H   0  0  0  0  0  0  0  0  0  0  0  0
  1  2  1  0
  2  3  1  0
  3  4  1  0
  4  5  1  0
  5  6  2  0
  6  7  1  0
  7  8  1  0
  8  9  1  0
  9 10  1  0
 10 11  1  0
 11 12  1  0
 12 13  1  0
  7 14  2  0
 14 15  1  0
 15 16  2  0
 16  5  1  0
 13  8  1  0
  1 17  1  0
  1 18  1  0
  1 19  1  0
  2 20  1  0
  2 21  1  0
  3 22  1  0
  3 23  1  0
  4 24  1  0
  4 25  1  0
  6 26  1  0
  9 27  1  0
  9 28  1  0
 10 29  1  0
 10 30  1  0
 11 31  1  0
 11 32  1  0
 12 33  1  0
 12 34  1  0
 13 35  1  0
 13 36  1  0
 14 37  1  0
 15 38  1  0
M  CHG  1  11   1
M  END
>  <UniqueID>  (10) 
10

>  <SMILES>  (10) 
CCCCc1cc(N2CC[NH2+]CC2)ccn1

>  <Energy>  (10) 
39.91172231240198

>  <Genealogy>  (10) 
CCCCc1cc(N2CC[NH2+]CC2)ccn1 (protonated)
CCCCc1cc(N2CC[NH2+]CC2)ccn1 (3D coordinates assigned)
CCCCc1cc(N2CC[NH2+]CC2)ccn1 (nonaromatic ring conformer: 39.91172231240198 kcal/mol)

>  <smiles>  (10) 
CCCCc1cc(N2CCNCC2)ccn1

>  <score_type>  (10) 
oracle

>  <origin>  (10) 
adg

>  <m_score__min__energy>  (10) 
-6.21

>  <m_primary>  (10) 
energy

$$$$
10:0
     RDKit          3D

 51 53  0  0  0  0  0  0  0  0999 V2000
   -1.8890   16.2620  -34.2400 C   0  0  0  0  0  0  0  0  0  0  0  0
   -2.3700   17.4780  -34.8030 O   0  0  0  0  0  0  0  0  0  0  0  0
   -2.8220   18.5800  -34.0590 C   0  0  0  0  0  0  0  0  0  0  0  0
   -4.1820   18.9060  -33.9570 C   0  0  0  0  0  0  0  0  0  0  0  0
   -4.6120   20.0190  -33.2060 C   0  0  0  0  0  0  0  0  0  0  0  0
   -5.9810   20.3170  -33.1100 C   0  0  0  0  0  0  0  0  0  0  0  0
   -6.8100   19.5740  -33.7110 O   0  0  0  0  0  0  0  0  0  0  0  0
   -6.4310   21.3910  -32.3780 N   0  0  0  0  0  0  0  0  0  0  0  0
   -7.9020   21.6260  -32.3650 C   0  0  0  0  0  0  0  0  0  0  0  0
   -8.6070   20.8030  -31.2690 C   0  0  0  0  0  0  0  0  0  0  0  0
   -8.8250   19.3330  -31.6410 C   0  0  0  0  0  0  0  0  0  0  0  0
   -9.2160   19.2030  -33.0430 N   0  0  0  0  0  0  0  0  0  0  0  0
   -5.5310   22.2050  -31.7060 C   0  0  0  0  0  0  0  0  0  0  0  0
   -5.9660   23.2930  -30.9040 C   0  0  0  0  0  0  0  0  0  0  0  0
   -5.0610   24.1490  -30.2600 C   0  0  0  0  0  0  0  0  0  0  0  0
   -5.4840   25.2290  -29.4670 O   0  0  0  0  0  0  0  0  0  0  0  0
   -6.8330   25.6710  -29.3430 C   0  0  0  0  0  0  0  0  0  0  0  0
   -3.6940   23.9400  -30.4030 C   0  0  0  0  0  0  0  0  0  0  0  0
   -2.8190   24.8320  -29.7610 O   0  0  0  0  0  0  0  0  0  0  0  0
   -2.1430   24.5710  -28.5340 C   0  0  0  0  0  0  0  0  0  0  0  0
   -3.2330   22.8600  -31.1680 C   0  0  0  0  0  0  0  0  0  0  0  0
   -4.1270   21.9630  -31.8070 C   0  0  0  0  0  0  0  0  0  0  0  0
   -3.6660   20.8370  -32.5490 C   0  0  0  0  0  0  0  0  0  0  0  0
   -2.2960   20.4790  -32.6490 C   0  0  0  0  0  0  0  0  0  0  0  0
   -1.8770   19.3660  -33.4000 C   0  0  0  0  0  0  0  0  0  0  0  0
   -0.5240   19.0030  -33.5140 O   0  0  0  0  0  0  0  0  0  0  0  0
    0.4560   19.7340  -34.2450 C   0  0  0  0  0  0  0  0  0  0  0  0
   -1.9160   16.3302  -33.1424 H   0  0  0  0  0  0  0  0  0  0  0  0
   -2.5249   15.4278  -34.5713 H   0  0  0  0  0  0  0  0  0  0  0  0
   -0.8545   16.0885  -34.5713 H   0  0  0  0  0  0  0  0  0  0  0  0
   -4.9270   18.2819  -34.4723 H   0  0  0  0  0  0  0  0  0  0  0  0
   -8.0896   22.6945  -32.1831 H   0  0  0  0  0  0  0  0  0  0  0  0
   -8.3055   21.3121  -33.3390 H   0  0  0  0  0  0  0  0  0  0  0  0
   -7.9928   20.8422  -30.3573 H   0  0  0  0  0  0  0  0  0  0  0  0
   -9.6030   21.2476  -31.1264 H   0  0  0  0  0  0  0  0  0  0  0  0
   -7.8907   18.7769  -31.4745 H   0  0  0  0  0  0  0  0  0  0  0  0
   -9.6308   18.9268  -31.0120 H   0  0  0  0  0  0  0  0  0  0  0  0
   -8.6610   18.4180  -33.4550 H   0  0  0  0  0  0  0  0  0  0  0  0
   -8.9220   20.0710  -33.5470 H   0  0  0  0  0  0  0  0  0  0  0  0
   -7.0451   23.4697  -30.7843 H   0  0  0  0  0  0  0  0  0  0  0  0
   -7.0944   25.7566  -28.2779 H   0  0  0  0  0  0  0  0  0  0  0  0
   -6.9434   26.6523  -29.8277 H   0  0  0  0  0  0  0  0  0  0  0  0
   -7.5026   24.9453  -29.8277 H   0  0  0  0  0  0  0  0  0  0  0  0
   -2.8021   24.8255  -27.6909 H   0  0  0  0  0  0  0  0  0  0  0  0
   -1.8760   23.5052  -28.4820 H   0  0  0  0  0  0  0  0  0  0  0  0
   -1.2290   25.1809  -28.4820 H   0  0  0  0  0  0  0  0  0  0  0  0
   -2.1495   22.7038  -31.2757 H   0  0  0  0  0  0  0  0  0  0  0  0
   -1.5433   21.0872  -32.1261 H   0  0  0  0  0  0  0  0  0  0  0  0
    1.1349   20.2404  -33.5430 H   0  0  0  0  0  0  0  0  0  0  0  0
    1.0320   19.0431  -34.8782 H   0  0  0  0  0  0  0  0  0  0  0  0
   -0.0420   20.4830  -34.8782 H   0  0  0  0  0  0  0  0  0  0  0  0
  1  2  1  0
  2  3  1  0
  3  4  2  0
  4  5  1  0
  5  6  1  0
  6  7  2  0
  6  8  1  0
  8  9  1  0
  9 10  1  0
 10 11  1  0
 11 12  1  0
  8 13  1  0
 13 14  2  0
 14 15  1  0
 15 16  1  0
 16 17  1  0
 15 18  2  0
 18 19  1  0
 19 20  1  0
 18 21  1  0
 21 22  2  0
 22 23  1  0
 23 24  1  0
 24 25  2  0
 25 26  1  0
 26 27  1  0
 25  3  1  0
 23  5  2  0
 22 13  1  0
  1 28  1  0
  1 29  1  0
  1 30  1  0
  4 31  1  0
  9 32  1  0
  9 33  1  0
 10 34  1  0
 10 35  1  0
 11 36  1  0
 11 37  1  0
 12 38  1  0
 12 39  1  0
 14 40  1  0
 17 41  1  0
 17 42  1  0
 17 43  1  0
 20 44  1  0
 20 45  1  0
 20 46  1  0
 21 47  1  0
 24 48  1  0
 27 49  1  0
 27 50  1  0
 27 51  1  0
M  END
>  <UniqueID>  (11) 
11

>  <SMILES>  (11) 
COc1cc2c(=O)n(CCCN)c3cc(OC)c(OC)cc3c2cc1OC

>  <Energy>  (11) 
70.33634867017525

>  <Genealogy>  (11) 
COc1cc2c(=O)n(CCCN)c3cc(OC)c(OC)cc3c2cc1OC (3D coordinates assigned)
COc1cc2c(=O)n(CCCN)c3cc(OC)c(OC)cc3c2cc1OC (optimized conformer: 70.33634867017525 kcal/mol)

>  <smiles>  (11) 
COc1cc2c(=O)n(CCCN)c3cc(OC)c(OC)cc3c2cc1OC

>  <score_type>  (11) 
oracle

>  <origin>  (11) 
adg

>  <m_score__min__energy>  (11) 
-7.0499999999999998

>  <m_primary>  (11) 
energy

$$$$
11:0
     RDKit          3D

 75 80  0  0  0  0  0  0  0  0999 V2000
   -1.5270   21.0690  -30.8840 C   0  0  0  0  0  0  0  0  0  0  0  0
   -0.9160   21.9260  -31.9890 C   0  0  0  0  0  0  0  0  0  0  0  0
   -0.1430   21.0660  -32.9930 C   0  0  0  0  0  0  0  0  0  0  0  0
    0.0290   19.6710  -32.4650 C   0  0  0  0  0  0  0  0  0  0  0  0
    0.9160   19.3470  -31.5000 N   0  0  0  0  0  0  0  0  0  0  0  0
    0.7420   18.0640  -31.2220 N   0  0  0  0  0  0  0  0  0  0  0  0
    1.4730   17.3180  -30.1990 C   0  0  0  0  0  0  0  0  0  0  0  0
    1.8070   18.2130  -29.0360 C   0  0  0  0  0  0  0  0  0  0  0  0
    2.9650   18.1370  -28.5410 O   0  0  0  0  0  0  0  0  0  0  0  0
    0.8500   19.1390  -28.4760 N   0  0  0  0  0  0  0  0  0  0  0  0
    1.3140   20.2170  -27.5910 C   0  0  0  0  0  0  0  0  0  0  0  0
    0.4810   21.4840  -27.8110 C   0  0  0  0  0  0  0  0  0  0  0  0
   -0.9620   21.1990  -27.7630 N   0  0  0  0  0  0  0  0  0  0  0  0
   -1.9000   22.2890  -27.6180 C   0  0  0  0  0  0  0  0  0  0  0  0
   -3.2680   22.1030  -27.9000 C   0  0  0  0  0  0  0  0  0  0  0  0
   -4.1720   23.1600  -27.7560 C   0  0  0  0  0  0  0  0  0  0  0  0
   -3.7250   24.4120  -27.3270 C   0  0  0  0  0  0  0  0  0  0  0  0
   -2.3720   24.6090  -27.0400 C   0  0  0  0  0  0  0  0  0  0  0  0
   -1.4630   23.5560  -27.1830 C   0  0  0  0  0  0  0  0  0  0  0  0
   -1.4330   19.8070  -27.7290 C   0  0  0  0  0  0  0  0  0  0  0  0
   -0.5950   18.9310  -28.6680 C   0  0  0  0  0  0  0  0  0  0  0  0
   -0.2560   17.6190  -32.0090 C   0  0  0  0  0  0  0  0  0  0  0  0
   -0.6910   16.4360  -32.0030 O   0  0  0  0  0  0  0  0  0  0  0  0
   -0.7370   18.6030  -32.8000 N   0  0  0  0  0  0  0  0  0  0  0  0
   -1.7900   18.5030  -33.8140 C   0  0  0  0  0  0  0  0  0  0  0  0
   -3.0140   19.2620  -33.3760 C   0  0  0  0  0  0  0  0  0  0  0  0
   -3.9840   18.6320  -32.5810 C   0  0  0  0  0  0  0  0  0  0  0  0
   -5.1360   19.3220  -32.1940 C   0  0  0  0  0  0  0  0  0  0  0  0
   -5.3420   20.6470  -32.6110 C   0  0  0  0  0  0  0  0  0  0  0  0
   -6.5650   21.3790  -32.2070 C   0  0  0  0  0  0  0  0  0  0  0  0
   -7.8090   20.7640  -32.4270 C   0  0  0  0  0  0  0  0  0  0  0  0
   -8.9980   21.4380  -32.1420 C   0  0  0  0  0  0  0  0  0  0  0  0
   -8.9600   22.7360  -31.6370 C   0  0  0  0  0  0  0  0  0  0  0  0
   -7.7340   23.3590  -31.3990 C   0  0  0  0  0  0  0  0  0  0  0  0
   -6.5230   22.6920  -31.6620 C   0  0  0  0  0  0  0  0  0  0  0  0
   -5.2530   23.3710  -31.3100 C   0  0  0  0  0  0  0  0  0  0  0  0
   -5.1120   24.7070  -31.2110 N   0  0  0  0  0  0  0  0  0  0  0  0
   -3.8550   24.8890  -30.8410 N   0  0  0  0  0  0  0  0  0  0  0  0
   -3.2540   23.7170  -30.7100 N   0  0  0  0  0  0  0  0  0  0  0  0
   -4.1050   22.7450  -30.9900 N   0  0  0  0  0  0  0  0  0  0  0  0
   -4.3610   21.2850  -33.3840 C   0  0  0  0  0  0  0  0  0  0  0  0
   -3.2050   20.5970  -33.7650 C   0  0  0  0  0  0  0  0  0  0  0  0
   -1.2379   21.4746  -29.9032 H   0  0  0  0  0  0  0  0  0  0  0  0
   -2.6231   21.0787  -30.9761 H   0  0  0  0  0  0  0  0  0  0  0  0
   -1.1605   20.0360  -30.9761 H   0  0  0  0  0  0  0  0  0  0  0  0
   -1.7210   22.4580  -32.5171 H   0  0  0  0  0  0  0  0  0  0  0  0
   -0.2160   22.6395  -31.5298 H   0  0  0  0  0  0  0  0  0  0  0  0
   -0.6989   21.0284  -33.9415 H   0  0  0  0  0  0  0  0  0  0  0  0
    0.8499   21.5113  -33.1538 H   0  0  0  0  0  0  0  0  0  0  0  0
    1.6140   19.9790  -31.0500 H   0  0  0  0  0  0  0  0  0  0  0  0
    0.8512   16.4820  -29.8462 H   0  0  0  0  0  0  0  0  0  0  0  0
    2.4076   16.9358  -30.6353 H   0  0  0  0  0  0  0  0  0  0  0  0
    1.2141   19.8947  -26.5440 H   0  0  0  0  0  0  0  0  0  0  0  0
    2.3671   20.4380  -27.8195 H   0  0  0  0  0  0  0  0  0  0  0  0
    0.7270   22.2138  -27.0256 H   0  0  0  0  0  0  0  0  0  0  0  0
    0.7197   21.8838  -28.8076 H   0  0  0  0  0  0  0  0  0  0  0  0
   -3.6274   21.1191  -28.2359 H   0  0  0  0  0  0  0  0  0  0  0  0
   -5.2376   23.0053  -27.9810 H   0  0  0  0  0  0  0  0  0  0  0  0
   -4.4379   25.2423  -27.2152 H   0  0  0  0  0  0  0  0  0  0  0  0
   -2.0209   25.5947  -26.7007 H   0  0  0  0  0  0  0  0  0  0  0  0
   -0.3993   23.7179  -26.9543 H   0  0  0  0  0  0  0  0  0  0  0  0
   -1.3475   19.4213  -26.7024 H   0  0  0  0  0  0  0  0  0  0  0  0
   -2.4818   19.7791  -28.0596 H   0  0  0  0  0  0  0  0  0  0  0  0
   -0.8305   17.8745  -28.4720 H   0  0  0  0  0  0  0  0  0  0  0  0
   -0.8430   19.2095  -29.7028 H   0  0  0  0  0  0  0  0  0  0  0  0
   -1.4221   18.9240  -34.7613 H   0  0  0  0  0  0  0  0  0  0  0  0
   -2.0560   17.4442  -33.9490 H   0  0  0  0  0  0  0  0  0  0  0  0
   -3.8367   17.5899  -32.2609 H   0  0  0  0  0  0  0  0  0  0  0  0
   -5.8848   18.8249  -31.5598 H   0  0  0  0  0  0  0  0  0  0  0  0
   -7.8465   19.7404  -32.8281 H   0  0  0  0  0  0  0  0  0  0  0  0
   -9.9653   20.9440  -32.3162 H   0  0  0  0  0  0  0  0  0  0  0  0
   -9.8978   23.2706  -31.4255 H   0  0  0  0  0  0  0  0  0  0  0  0
   -7.7140   24.3842  -31.0009 H   0  0  0  0  0  0  0  0  0  0  0  0
   -4.5017   22.3316  -33.6920 H   0  0  0  0  0  0  0  0  0  0  0  0
   -2.4414   21.1045  -34.3727 H   0  0  0  0  0  0  0  0  0  0  0  0
  1  2  1  0
  2  3  1  0
  3  4  1  0
  4  5  2  0
  5  6  1  0
  6  7  1  0
  7  8  1  0
  8  9  2  0
  8 10  1  0
 10 11  1  0
 11 12  1  0
 12 13  1  0
 13 14  1  0
 14 15  2  0
 15 16  1  0
 16 17  2  0
 17 18  1  0
 18 19  2  0
 13 20  1  0
 20 21  1  0
  6 22  1  0
 22 23  2  0
 22 24  1  0
 24 25  1  0
 25 26  1  0
 26 27  2  0
 27 28  1  0
 28 29  2  0
 29 30  1  0
 30 31  2  0
 31 32  1  0
 32 33  2  0
 33 34  1  0
 34 35  2  0
 35 36  1  0
 36 37  1  0
 37 38  2  0
 38 39  1  0
 39 40  1  0
 29 41  1  0
 41 42  2  0
 24  4  1  0
 42 26  1  0
 21 10  1  0
 35 30  1  0
 40 36  2  0
 19 14  1  0
  1 43  1  0
  1 44  1  0
  1 45  1  0
  2 46  1  0
  2 47  1  0
  3 48  1  0
  3 49  1  0
  5 50  1  0
  7 51  1  0
  7 52  1  0
 11 53  1  0
 11 54  1  0
 12 55  1  0
 12 56  1  0
 15 57  1  0
 16 58  1  0
 17 59  1  0
 18 60  1  0
 19 61  1  0
 20 62  1  0
 20 63  1  0
 21 64  1  0
 21 65  1  0
 25 66  1  0
 25 67  1  0
 27 68  1  0
 28 69  1  0
 31 70  1  0
 32 71  1  0
 33 72  1  0
 34 73  1  0
 41 74  1  0
 42 75  1  0
M  CHG  2   5   1  39  -1
M  END
>  <UniqueID>  (12) 
12

>  <SMILES>  (12) 
CCCc1[nH+]n(CC(=O)N2CCN(c3ccccc3)CC2)c(=O)n1Cc1ccc(-c2ccccc2-c2nn[n-]n2)cc1

>  <Energy>  (12) 
163.93144168321183

>  <Genealogy>  (12) 
CCCc1[nH+]n(CC(=O)N2CCN(c3ccccc3)CC2)c(=O)n1Cc1ccc(-c2ccccc2-c2nn[n-]n2)cc1 (protonated)
CCCc1[nH+]n(CC(=O)N2CCN(c3ccccc3)CC2)c(=O)n1Cc1ccc(-c2ccccc2-c2nn[n-]n2)cc1 (3D coordinates assigned)
CCCc1[nH+]n(CC(=O)N2CCN(c3ccccc3)CC2)c(=O)n1Cc1ccc(-c2ccccc2-c2nn[n-]n2)cc1 (nonaromatic ring conformer: 163.93144168321183 kcal/mol)

>  <smiles>  (12) 
CCCc1nn(CC(=O)N2CCN(c3ccccc3)CC2)c(=O)n1Cc1ccc(-c2ccccc2-c2nn[nH]n2)cc1

>  <score_type>  (12) 
oracle

>  <origin>  (12) 
adg

>  <m_score__min__energy>  (12) 
-11.75

>  <m_primary>  (12) 
energy

$$$$
12:0
     RDKit          3D

 40 41  0  0  0  0  0  0  0  0999 V2000
   -3.0770   23.3600  -28.7120 C   0  0  0  0  0  0  0  0  0  0  0  0
   -2.8890   24.6490  -29.4380 C   0  0  0  0  0  0  0  0  0  0  0  0
   -1.8160   25.2940  -29.3010 O   0  0  0  0  0  0  0  0  0  0  0  0
   -3.9120   25.1160  -30.3240 N   0  0  0  0  0  0  0  0  0  0  0  0
   -5.3030   24.6740  -30.2630 C   0  0  1  0  0  0  0  0  0  0  0  0
   -6.1280   25.7090  -29.4940 C   0  0  0  0  0  0  0  0  0  0  0  0
   -5.8680   24.4180  -31.6770 C   0  0  0  0  0  0  0  0  0  0  0  0
   -5.8490   22.9600  -32.0710 C   0  0  0  0  0  0  0  0  0  0  0  0
   -7.0320   22.2020  -32.0470 C   0  0  0  0  0  0  0  0  0  0  0  0
   -7.0100   20.8480  -32.3910 C   0  0  0  0  0  0  0  0  0  0  0  0
   -5.8060   20.2370  -32.7620 C   0  0  0  0  0  0  0  0  0  0  0  0
   -5.7850   18.8420  -33.1140 C   0  0  0  0  0  0  0  0  0  0  0  0
   -5.7650   17.6730  -33.4090 C   0  0  0  0  0  0  0  0  0  0  0  0
   -5.7470   16.2740  -33.7590 C   0  0  0  0  0  0  0  0  0  0  0  0
   -6.9200   15.6540  -34.1970 C   0  0  0  0  0  0  0  0  0  0  0  0
   -6.9110   14.3360  -34.5260 N   0  0  0  0  0  0  0  0  0  0  0  0
   -5.7710   13.6040  -34.4380 C   0  0  0  0  0  0  0  0  0  0  0  0
   -4.6180   14.1850  -34.0160 N   0  0  0  0  0  0  0  0  0  0  0  0
   -4.5750   15.5010  -33.6730 C   0  0  0  0  0  0  0  0  0  0  0  0
   -3.2750   16.0920  -33.2130 C   0  0  0  0  0  0  0  0  0  0  0  0
   -4.6240   20.9860  -32.7890 C   0  0  0  0  0  0  0  0  0  0  0  0
   -4.6450   22.3410  -32.4450 C   0  0  0  0  0  0  0  0  0  0  0  0
   -3.0504   23.5427  -27.6276 H   0  0  0  0  0  0  0  0  0  0  0  0
   -4.0484   22.9229  -28.9864 H   0  0  0  0  0  0  0  0  0  0  0  0
   -2.2709   22.6636  -28.9864 H   0  0  0  0  0  0  0  0  0  0  0  0
   -5.3588   23.7154  -29.7263 H   0  0  0  0  0  0  0  0  0  0  0  0
   -6.0009   25.5495  -28.4131 H   0  0  0  0  0  0  0  0  0  0  0  0
   -5.7857   26.7204  -29.7582 H   0  0  0  0  0  0  0  0  0  0  0  0
   -7.1903   25.6008  -29.7582 H   0  0  0  0  0  0  0  0  0  0  0  0
   -6.9081   24.7748  -31.7076 H   0  0  0  0  0  0  0  0  0  0  0  0
   -5.2248   24.9569  -32.3882 H   0  0  0  0  0  0  0  0  0  0  0  0
   -7.9804   22.6772  -31.7558 H   0  0  0  0  0  0  0  0  0  0  0  0
   -7.9401   20.2610  -32.3703 H   0  0  0  0  0  0  0  0  0  0  0  0
   -7.8516   16.2336  -34.2755 H   0  0  0  0  0  0  0  0  0  0  0  0
   -5.7811   12.5380  -34.7091 H   0  0  0  0  0  0  0  0  0  0  0  0
   -3.2468   16.1048  -32.1134 H   0  0  0  0  0  0  0  0  0  0  0  0
   -2.4408   15.4846  -33.5941 H   0  0  0  0  0  0  0  0  0  0  0  0
   -3.1842   17.1199  -33.5941 H   0  0  0  0  0  0  0  0  0  0  0  0
   -3.6773   20.5080  -33.0812 H   0  0  0  0  0  0  0  0  0  0  0  0
   -3.7134   22.9255  -32.4674 H   0  0  0  0  0  0  0  0  0  0  0  0
  1  2  1  0
  2  3  2  0
  2  4  1  0
  4  5  1  0
  5  6  1  0
  5  7  1  0
  7  8  1  0
  8  9  2  0
  9 10  1  0
 10 11  2  0
 11 12  1  0
 12 13  3  0
 13 14  1  0
 14 15  2  0
 15 16  1  0
 16 17  2  0
 17 18  1  0
 18 19  2  0
 19 20  1  0
 11 21  1  0
 21 22  2  0
 22  8  1  0
 19 14  1  0
  1 23  1  0
  1 24  1  0
  1 25  1  0
  5 26  1  1
  6 27  1  0
  6 28  1  0
  6 29  1  0
  7 30  1  0
  7 31  1  0
  9 32  1  0
 10 33  1  0
 15 34  1  0
 17 35  1  0
 20 36  1  0
 20 37  1  0
 20 38  1  0
 21 39  1  0
 22 40  1  0
M  CHG  1   4  -1
M  END
>  <UniqueID>  (13) 
13

>  <SMILES>  (13) 
CC(=O)[N-][C@@H](C)Cc1ccc(C#Cc2cncnc2C)cc1

>  <Energy>  (13) 
29.527316741776087

>  <Genealogy>  (13) 
CC(=O)[N-]C(C)Cc1ccc(C#Cc2cncnc2C)cc1 (protonated)
CC(=O)[N-][C@@H](C)Cc1ccc(C#Cc2cncnc2C)cc1 (chirality)
CC(=O)[N-][C@@H](C)Cc1ccc(C#Cc2cncnc2C)cc1 (3D coordinates assigned)
CC(=O)[N-][C@@H](C)Cc1ccc(C#Cc2cncnc2C)cc1 (optimized conformer: 29.527316741776087 kcal/mol)

>  <smiles>  (13) 
CC(=O)NC(C)Cc1ccc(C#Cc2cncnc2C)cc1

>  <score_type>  (13) 
oracle

>  <origin>  (13) 
adg

>  <m_score__min__energy>  (13) 
-9.0700000000000003

>  <m_primary>  (13) 
energy

$$$$
13:0
     RDKit          3D

 36 37  0  0  0  0  0  0  0  0999 V2000
   -9.1040   19.9910  -31.5950 C   0  0  0  0  0  0  0  0  0  0  0  0
   -7.9910   19.2920  -32.3060 C   0  0  0  0  0  0  0  0  0  0  0  0
   -7.9880   17.9700  -32.5750 N   0  0  0  0  0  0  0  0  0  0  0  0
   -6.8660   17.6970  -33.2240 N   0  0  0  0  0  0  0  0  0  0  0  0
   -6.5070   16.3570  -33.6760 C   0  0  0  0  0  0  0  0  0  0  0  0
   -6.1320   18.8220  -33.3670 C   0  0  0  0  0  0  0  0  0  0  0  0
   -4.8210   18.9110  -34.0900 C   0  0  0  0  0  0  0  0  0  0  0  0
   -6.8420   19.8750  -32.8150 C   0  0  0  0  0  0  0  0  0  0  0  0
   -6.4240   21.3150  -32.7260 C   0  0  0  0  0  0  0  0  0  0  0  0
   -5.3890   21.4930  -31.6470 C   0  0  0  0  0  0  0  0  0  0  0  0
   -4.9460   20.4660  -31.0610 O   0  0  0  0  0  0  0  0  0  0  0  0
   -4.8920   22.7940  -31.2680 N   0  0  0  0  0  0  0  0  0  0  0  0
   -3.4690   22.9490  -30.9460 C   0  0  0  0  0  0  0  0  0  0  0  0
   -3.2700   24.1240  -29.9840 C   0  0  0  0  0  0  0  0  0  0  0  0
   -3.9020   25.2890  -30.4770 O   0  0  0  0  0  0  0  0  0  0  0  0
   -5.3020   25.0950  -30.4990 C   0  0  0  0  0  0  0  0  0  0  0  0
   -5.6860   24.0060  -31.5050 C   0  0  0  0  0  0  0  0  0  0  0  0
   -8.9592   19.9001  -30.5084 H   0  0  0  0  0  0  0  0  0  0  0  0
   -9.1084   21.0543  -31.8766 H   0  0  0  0  0  0  0  0  0  0  0  0
  -10.0637   19.5332  -31.8766 H   0  0  0  0  0  0  0  0  0  0  0  0
   -6.3336   15.7099  -32.8035 H   0  0  0  0  0  0  0  0  0  0  0  0
   -7.3259   15.9430  -34.2826 H   0  0  0  0  0  0  0  0  0  0  0  0
   -5.5908   16.4078  -34.2826 H   0  0  0  0  0  0  0  0  0  0  0  0
   -4.0017   18.9666  -33.3581 H   0  0  0  0  0  0  0  0  0  0  0  0
   -4.6891   18.0197  -34.7211 H   0  0  0  0  0  0  0  0  0  0  0  0
   -4.8107   19.8119  -34.7211 H   0  0  0  0  0  0  0  0  0  0  0  0
   -6.0002   21.6301  -33.6909 H   0  0  0  0  0  0  0  0  0  0  0  0
   -7.3039   21.9286  -32.4825 H   0  0  0  0  0  0  0  0  0  0  0  0
   -3.1006   22.0263  -30.4739 H   0  0  0  0  0  0  0  0  0  0  0  0
   -2.9102   23.1451  -31.8730 H   0  0  0  0  0  0  0  0  0  0  0  0
   -3.7015   23.8661  -29.0056 H   0  0  0  0  0  0  0  0  0  0  0  0
   -2.1923   24.3217  -29.8869 H   0  0  0  0  0  0  0  0  0  0  0  0
   -5.6400   24.7946  -29.4962 H   0  0  0  0  0  0  0  0  0  0  0  0
   -5.7832   26.0374  -30.7997 H   0  0  0  0  0  0  0  0  0  0  0  0
   -6.7542   23.7683  -31.3931 H   0  0  0  0  0  0  0  0  0  0  0  0
   -5.4874   24.3718  -32.5232 H   0  0  0  0  0  0  0  0  0  0  0  0
  1  2  1  0
  2  3  2  0
  3  4  1  0
  4  5  1  0
  4  6  1  0
  6  7  1  0
  6  8  2  0
  8  9  1  0
  9 10  1  0
 10 11  2  0
 10 12  1  0
 12 13  1  0
 13 14  1  0
 14 15  1  0
 15 16  1  0
 16 17  1  0
  8  2  1  0
 17 12  1  0
  1 18  1  0
  1 19  1  0
  1 20  1  0
  5 21  1  0
  5 22  1  0
  5 23  1  0
  7 24  1  0
  7 25  1  0
  7 26  1  0
  9 27  1  0
  9 28  1  0
 13 29  1  0
 13 30  1  0
 14 31  1  0
 14 32  1  0
 16 33  1  0
 16 34  1  0
 17 35  1  0
 17 36  1  0
M  END
>  <UniqueID>  (14) 
14

>  <SMILES>  (14) 
Cc1nn(C)c(C)c1CC(=O)N1CCOCC1

>  <Energy>  (14) 
63.20552251035836

>  <Genealogy>  (14) 
Cc1nn(C)c(C)c1CC(=O)N1CCOCC1 (3D coordinates assigned)
Cc1nn(C)c(C)c1CC(=O)N1CCOCC1 (nonaromatic ring conformer: 63.20552251035836 kcal/mol)

>  <smiles>  (14) 
Cc1nn(C)c(C)c1CC(=O)N1CCOCC1

>  <score_type>  (14) 
oracle

>  <origin>  (14) 
adg

>  <m_score__min__energy>  (14) 
-7.1699999999999999

>  <m_primary>  (14) 
energy

$$$$
14:0
     RDKit          3D

 62 64  0  0  0  0  0  0  0  0999 V2000
   -4.2624   22.8716  -31.7731 H   0  0  0  0  0  0  0  0  0  0  0  0
   -4.8520   22.1930  -32.4070 C   0  0  0  0  0  0  0  0  0  0  0  0
   -4.2240   21.5440  -33.3960 C   0  0  0  0  0  0  0  0  0  0  0  0
   -4.8209   21.0195  -34.1567 H   0  0  0  0  0  0  0  0  0  0  0  0
   -2.7250   21.5140  -33.4930 C   0  0  0  0  0  0  0  0  0  0  0  0
   -2.3139   22.3118  -32.8570 H   0  0  0  0  0  0  0  0  0  0  0  0
   -2.4544   21.6605  -34.5491 H   0  0  0  0  0  0  0  0  0  0  0  0
   -2.1580   20.2210  -33.0580 N   0  0  0  0  0  0  0  0  0  0  0  0
   -0.6810   20.1040  -33.1160 C   0  0  0  0  0  0  0  0  0  0  0  0
   -0.2814   21.0536  -33.5016 H   0  0  0  0  0  0  0  0  0  0  0  0
   -0.4735   19.2383  -33.7621 H   0  0  0  0  0  0  0  0  0  0  0  0
    0.0190   19.8050  -31.7730 C   0  0  0  0  0  0  0  0  0  0  0  0
    1.0965   19.9727  -31.9175 H   0  0  0  0  0  0  0  0  0  0  0  0
   -0.2651   18.7703  -31.5307 H   0  0  0  0  0  0  0  0  0  0  0  0
   -0.4180   20.6320  -30.5490 C   0  0  0  0  0  0  0  0  0  0  0  0
   -0.6284   21.6582  -30.8846 H   0  0  0  0  0  0  0  0  0  0  0  0
    0.4070   20.5787  -29.8234 H   0  0  0  0  0  0  0  0  0  0  0  0
   -1.6250   20.1130  -29.8570 N   0  0  1  0  0  0  0  0  0  0  0  0
   -1.4660   19.0870  -29.7050 H   0  0  0  0  0  0  0  0  0  0  0  0
   -1.7310   20.7640  -28.5230 C   0  0  0  0  0  0  0  0  0  0  0  0
   -0.9328   20.3736  -27.8745 H   0  0  0  0  0  0  0  0  0  0  0  0
   -2.7271   20.5363  -28.1157 H   0  0  0  0  0  0  0  0  0  0  0  0
   -1.5980   22.2690  -28.6060 C   0  0  0  0  0  0  0  0  0  0  0  0
   -2.6160   23.0450  -29.1730 C   0  0  0  0  0  0  0  0  0  0  0  0
   -3.5163   22.5516  -29.5679 H   0  0  0  0  0  0  0  0  0  0  0  0
   -2.5060   24.4470  -29.2460 C   0  0  0  0  0  0  0  0  0  0  0  0
   -3.5340   25.2210  -29.8060 O   0  0  0  0  0  0  0  0  0  0  0  0
   -4.9070   24.8410  -29.8620 C   0  0  0  0  0  0  0  0  0  0  0  0
   -5.2994   24.7324  -28.8401 H   0  0  0  0  0  0  0  0  0  0  0  0
   -5.4801   25.6143  -30.3945 H   0  0  0  0  0  0  0  0  0  0  0  0
   -5.0009   23.8831  -30.3945 H   0  0  0  0  0  0  0  0  0  0  0  0
   -1.3350   25.0760  -28.7470 C   0  0  0  0  0  0  0  0  0  0  0  0
   -1.1240   26.4680  -28.7720 O   0  0  0  0  0  0  0  0  0  0  0  0
   -0.7770   27.2950  -27.6660 C   0  0  0  0  0  0  0  0  0  0  0  0
   -0.9993   26.7652  -26.7280 H   0  0  0  0  0  0  0  0  0  0  0  0
    0.2964   27.5319  -27.7078 H   0  0  0  0  0  0  0  0  0  0  0  0
   -1.3600   28.2269  -27.7078 H   0  0  0  0  0  0  0  0  0  0  0  0
   -0.3080   24.2940  -28.1910 C   0  0  0  0  0  0  0  0  0  0  0  0
    0.8410   24.9480  -27.7160 O   0  0  0  0  0  0  0  0  0  0  0  0
    1.3510   24.8300  -26.3920 C   0  0  0  0  0  0  0  0  0  0  0  0
    0.5427   25.0170  -25.6697 H   0  0  0  0  0  0  0  0  0  0  0  0
    1.7497   23.8159  -26.2417 H   0  0  0  0  0  0  0  0  0  0  0  0
    2.1546   25.5659  -26.2417 H   0  0  0  0  0  0  0  0  0  0  0  0
   -0.4460   22.8970  -28.1220 C   0  0  0  0  0  0  0  0  0  0  0  0
    0.3604   22.2914  -27.6828 H   0  0  0  0  0  0  0  0  0  0  0  0
   -2.8930   20.2670  -30.6300 C   0  0  0  0  0  0  0  0  0  0  0  0
   -3.0513   21.3388  -30.8200 H   0  0  0  0  0  0  0  0  0  0  0  0
   -3.6883   19.8158  -30.0185 H   0  0  0  0  0  0  0  0  0  0  0  0
   -2.9110   19.5290  -31.9870 C   0  0  0  0  0  0  0  0  0  0  0  0
   -3.9572   19.4256  -32.3108 H   0  0  0  0  0  0  0  0  0  0  0  0
   -2.4193   18.5579  -31.8282 H   0  0  0  0  0  0  0  0  0  0  0  0
   -6.2980   22.0460  -32.1210 C   0  0  0  0  0  0  0  0  0  0  0  0
   -6.9040   20.7880  -31.9250 C   0  0  0  0  0  0  0  0  0  0  0  0
   -6.2936   19.8740  -31.9690 H   0  0  0  0  0  0  0  0  0  0  0  0
   -8.2770   20.6960  -31.6750 C   0  0  0  0  0  0  0  0  0  0  0  0
   -8.7413   19.7114  -31.5166 H   0  0  0  0  0  0  0  0  0  0  0  0
   -9.0600   21.8520  -31.6260 C   0  0  0  0  0  0  0  0  0  0  0  0
  -10.1383   21.7781  -31.4213 H   0  0  0  0  0  0  0  0  0  0  0  0
   -8.4730   23.1010  -31.8370 C   0  0  0  0  0  0  0  0  0  0  0  0
   -9.0913   24.0102  -31.8049 H   0  0  0  0  0  0  0  0  0  0  0  0
   -7.1010   23.1990  -32.0890 C   0  0  0  0  0  0  0  0  0  0  0  0
   -6.6470   24.1856  -32.2634 H   0  0  0  0  0  0  0  0  0  0  0  0
  1  2  1  0
  2  3  2  0
  3  4  1  0
  3  5  1  0
  5  6  1  0
  5  7  1  0
  5  8  1  0
  8  9  1  0
  9 10  1  0
  9 11  1  0
  9 12  1  0
 12 13  1  0
 12 14  1  0
 12 15  1  0
 15 16  1  0
 15 17  1  0
 15 18  1  0
 18 19  1  1
 18 20  1  0
 20 21  1  0
 20 22  1  0
 20 23  1  0
 23 24  2  0
 24 25  1  0
 24 26  1  0
 26 27  1  0
 27 28  1  0
 28 29  1  0
 28 30  1  0
 28 31  1  0
 26 32  2  0
 32 33  1  0
 33 34  1  0
 34 35  1  0
 34 36  1  0
 34 37  1  0
 32 38  1  0
 38 39  1  0
 39 40  1  0
 40 41  1  0
 40 42  1  0
 40 43  1  0
 38 44  2  0
 44 45  1  0
 18 46  1  0
 46 47  1  0
 46 48  1  0
 46 49  1  0
 49 50  1  0
 49 51  1  0
  2 52  1  0
 52 53  2  0
 53 54  1  0
 53 55  1  0
 55 56  1  0
 55 57  2  0
 57 58  1  0
 57 59  1  0
 59 60  1  0
 59 61  2  0
 61 62  1  0
 49  8  1  0
 61 52  1  0
 44 23  1  0
M  CHG  1  18   1
M  END
>  <UniqueID>  (15) 
15

>  <SMILES>  (15) 
COc1cc(C[N@@H+]2CCCN(C/C=C/c3ccccc3)CC2)cc(OC)c1OC

>  <Energy>  (15) 
91.50243829336611

>  <Genealogy>  (15) 
COc1cc(C[NH+]2CCCN(CC=Cc3ccccc3)CC2)cc(OC)c1OC (protonated)
COc1cc(C[N@@H+]2CCCN(CC=Cc3ccccc3)CC2)cc(OC)c1OC (chirality)
COc1cc(C[N@@H+]2CCCN(C/C=C/c3ccccc3)CC2)cc(OC)c1OC (cis-trans isomerization)
COc1cc(C[N@@H+]2CCCN(C/C=C/c3ccccc3)CC2)cc(OC)c1OC (3D coordinates assigned)
COc1cc(C[N@@H+]2CCCN(C/C=C/c3ccccc3)CC2)cc(OC)c1OC (nonaromatic ring conformer: 91.50243829336611 kcal/mol)

>  <smiles>  (15) 
COc1cc(CN2CCCN(CC=Cc3ccccc3)CC2)cc(OC)c1OC

>  <score_type>  (15) 
oracle

>  <origin>  (15) 
adg

>  <m_score__min__energy>  (15) 
-6.6399999999999997

>  <m_primary>  (15) 
energy

$$$$
15:0
     RDKit          3D

 50 51  0  0  0  0  0  0  0  0999 V2000
   -6.4211   17.6791  -34.9326 H   0  0  0  0  0  0  0  0  0  0  0  0
   -6.0320   18.1890  -34.0390 C   0  0  0  0  0  0  0  0  0  0  0  0
   -4.7530   18.1860  -33.8050 N   0  0  0  0  0  0  0  0  0  0  0  0
   -3.8160   18.9210  -34.5150 O   0  0  0  0  0  0  0  0  0  0  0  0
   -2.4800   19.1490  -34.0660 C   0  0  0  0  0  0  0  0  0  0  0  0
   -2.1095   18.2466  -33.5577 H   0  0  0  0  0  0  0  0  0  0  0  0
   -1.8463   19.3806  -34.9348 H   0  0  0  0  0  0  0  0  0  0  0  0
   -2.4380   20.3370  -33.0860 C   0  0  0  0  0  0  0  0  0  0  0  0
   -1.8082   20.0506  -32.2308 H   0  0  0  0  0  0  0  0  0  0  0  0
   -2.0423   21.1899  -33.6570 H   0  0  0  0  0  0  0  0  0  0  0  0
   -3.7580   20.7700  -32.5600 N   0  0  0  0  0  0  0  0  0  0  0  0
   -4.4630   20.0930  -32.9370 H   0  0  0  0  0  0  0  0  0  0  0  0
   -3.8430   20.7010  -31.0910 C   0  0  0  0  0  0  0  0  0  0  0  0
   -3.0612   21.3356  -30.6483 H   0  0  0  0  0  0  0  0  0  0  0  0
   -4.8317   21.0552  -30.7639 H   0  0  0  0  0  0  0  0  0  0  0  0
   -3.6996   19.6606  -30.7639 H   0  0  0  0  0  0  0  0  0  0  0  0
   -4.1520   22.1050  -33.0460 C   0  0  0  0  0  0  0  0  0  0  0  0
   -4.3468   22.7649  -32.1877 H   0  0  0  0  0  0  0  0  0  0  0  0
   -3.3402   22.5273  -33.6564 H   0  0  0  0  0  0  0  0  0  0  0  0
   -5.0630   22.0188  -33.6564 H   0  0  0  0  0  0  0  0  0  0  0  0
   -6.9700   18.8680  -33.1210 C   0  0  0  0  0  0  0  0  0  0  0  0
   -7.8540   18.0990  -32.3500 C   0  0  0  0  0  0  0  0  0  0  0  0
   -7.8468   17.0027  -32.4399 H   0  0  0  0  0  0  0  0  0  0  0  0
   -8.7420   18.7170  -31.4700 C   0  0  0  0  0  0  0  0  0  0  0  0
   -9.4275   18.1050  -30.8653 H   0  0  0  0  0  0  0  0  0  0  0  0
   -8.7660   20.1090  -31.3520 C   0  0  0  0  0  0  0  0  0  0  0  0
   -9.4649   20.5873  -30.6501 H   0  0  0  0  0  0  0  0  0  0  0  0
   -7.8980   20.9030  -32.1290 C   0  0  0  0  0  0  0  0  0  0  0  0
   -7.8730   22.3840  -32.0340 C   0  0  0  0  0  0  0  0  0  0  0  0
   -8.0286   22.9664  -32.9541 H   0  0  0  0  0  0  0  0  0  0  0  0
   -7.6710   23.0520  -30.8870 C   0  0  0  0  0  0  0  0  0  0  0  0
   -8.5399   23.2549  -30.2437 H   0  0  0  0  0  0  0  0  0  0  0  0
   -6.3390   23.5320  -30.4390 C   0  0  0  0  0  0  0  0  0  0  0  0
   -5.7370   24.5880  -31.1400 C   0  0  0  0  0  0  0  0  0  0  0  0
   -6.2602   25.0417  -31.9946 H   0  0  0  0  0  0  0  0  0  0  0  0
   -4.4790   25.0700  -30.7640 C   0  0  0  0  0  0  0  0  0  0  0  0
   -4.0251   25.9045  -31.3186 H   0  0  0  0  0  0  0  0  0  0  0  0
   -3.7910   24.4940  -29.6810 C   0  0  0  0  0  0  0  0  0  0  0  0
   -2.4940   24.9670  -29.2690 N   0  0  0  0  0  0  0  0  0  0  0  0
   -1.9990   25.6690  -29.8650 H   0  0  0  0  0  0  0  0  0  0  0  0
   -1.8200   24.5170  -28.0560 C   0  0  0  0  0  0  0  0  0  0  0  0
   -2.3678   24.8827  -27.1750 H   0  0  0  0  0  0  0  0  0  0  0  0
   -1.7907   23.4175  -28.0392 H   0  0  0  0  0  0  0  0  0  0  0  0
   -0.7933   24.9114  -28.0392 H   0  0  0  0  0  0  0  0  0  0  0  0
   -4.3830   23.4260  -28.9920 C   0  0  0  0  0  0  0  0  0  0  0  0
   -3.8518   22.9617  -28.1481 H   0  0  0  0  0  0  0  0  0  0  0  0
   -5.6410   22.9450  -29.3660 C   0  0  0  0  0  0  0  0  0  0  0  0
   -6.0887   22.1024  -28.8186 H   0  0  0  0  0  0  0  0  0  0  0  0
   -6.9940   20.2700  -32.9990 C   0  0  0  0  0  0  0  0  0  0  0  0
   -6.2958   20.8784  -33.5926 H   0  0  0  0  0  0  0  0  0  0  0  0
  1  2  1  0
  2  3  2  0
  3  4  1  0
  4  5  1  0
  5  6  1  0
  5  7  1  0
  5  8  1  0
  8  9  1  0
  8 10  1  0
  8 11  1  0
 11 12  1  0
 11 13  1  0
 13 14  1  0
 13 15  1  0
 13 16  1  0
 11 17  1  0
 17 18  1  0
 17 19  1  0
 17 20  1  0
  2 21  1  0
 21 22  2  0
 22 23  1  0
 22 24  1  0
 24 25  1  0
 24 26  2  0
 26 27  1  0
 26 28  1  0
 28 29  1  0
 29 30  1  0
 29 31  2  0
 31 32  1  0
 31 33  1  0
 33 34  2  0
 34 35  1  0
 34 36  1  0
 36 37  1  0
 36 38  2  0
 38 39  1  0
 39 40  1  0
 39 41  1  0
 41 42  1  0
 41 43  1  0
 41 44  1  0
 38 45  1  0
 45 46  1  0
 45 47  2  0
 47 48  1  0
 28 49  2  0
 49 50  1  0
 49 21  1  0
 47 33  1  0
M  CHG  1  11   1
M  END
>  <UniqueID>  (16) 
16

>  <SMILES>  (16) 
CNc1ccc(/C=C/c2cccc(/C=N/OCC[NH+](C)C)c2)cc1

>  <Energy>  (16) 
56.05441987382173

>  <Genealogy>  (16) 
CNc1ccc(C=Cc2cccc(C=NOCC[NH+](C)C)c2)cc1 (protonated)
CNc1ccc(/C=C/c2cccc(/C=N/OCC[NH+](C)C)c2)cc1 (cis-trans isomerization)
CNc1ccc(/C=C/c2cccc(/C=N/OCC[NH+](C)C)c2)cc1 (3D coordinates assigned)
CNc1ccc(/C=C/c2cccc(/C=N/OCC[NH+](C)C)c2)cc1 (optimized conformer: 56.05441987382173 kcal/mol)

>  <smiles>  (16) 
CNc1ccc(C=Cc2cccc(C=NOCCN(C)C)c2)cc1

>  <score_type>  (16) 
oracle

>  <origin>  (16) 
adg

>  <m_score__min__energy>  (16) 
-7.5700000000000003

>  <m_primary>  (16) 
energy

$$$$
16:0
     RDKit          3D

 46 49  0  0  0  0  0  0  0  0999 V2000
   -6.2832   16.4330  -34.5691 H   0  0  0  0  0  0  0  0  0  0  0  0
   -6.3570   17.4110  -34.0710 C   0  0  0  0  0  0  0  0  0  0  0  0
   -5.5740   18.4790  -34.5120 C   0  0  0  0  0  0  0  0  0  0  0  0
   -4.8814   18.3410  -35.3554 H   0  0  0  0  0  0  0  0  0  0  0  0
   -5.6690   19.7240  -33.8830 C   0  0  0  0  0  0  0  0  0  0  0  0
   -5.0460   20.5611  -34.2311 H   0  0  0  0  0  0  0  0  0  0  0  0
   -6.5560   19.9130  -32.8080 C   0  0  0  0  0  0  0  0  0  0  0  0
   -6.6790   21.2520  -32.1800 C   0  0  0  0  0  0  0  0  0  0  0  0
   -7.9450   21.7590  -31.8190 C   0  0  0  0  0  0  0  0  0  0  0  0
   -8.8504   21.1730  -32.0352 H   0  0  0  0  0  0  0  0  0  0  0  0
   -8.0560   23.0020  -31.1880 C   0  0  0  0  0  0  0  0  0  0  0  0
   -9.0385   23.4159  -30.9172 H   0  0  0  0  0  0  0  0  0  0  0  0
   -6.8830   23.6980  -30.9140 C   0  0  0  0  0  0  0  0  0  0  0  0
   -6.7510   24.9170  -30.2940 C   0  0  0  0  0  0  0  0  0  0  0  0
   -7.5716   25.5512  -29.9275 H   0  0  0  0  0  0  0  0  0  0  0  0
   -5.4370   25.1950  -30.2160 N   0  0  0  0  0  0  0  0  0  0  0  0
   -5.0070   26.0410  -29.7810 H   0  0  0  0  0  0  0  0  0  0  0  0
   -4.7910   24.1480  -30.7740 C   0  0  0  0  0  0  0  0  0  0  0  0
   -3.4840   24.1060  -30.7890 N   0  0  0  0  0  0  0  0  0  0  0  0
   -2.5090   23.0730  -30.4400 C   0  0  0  0  0  0  0  0  0  0  0  0
   -1.5033   23.5185  -30.4376 H   0  0  0  0  0  0  0  0  0  0  0  0
   -2.5818   22.2673  -31.1854 H   0  0  0  0  0  0  0  0  0  0  0  0
   -2.7900   22.4700  -29.0540 C   0  0  0  0  0  0  0  0  0  0  0  0
   -1.9841   21.7616  -28.8117 H   0  0  0  0  0  0  0  0  0  0  0  0
   -3.7727   21.9785  -29.1061 H   0  0  0  0  0  0  0  0  0  0  0  0
   -2.8650   23.5010  -27.9590 C   0  0  0  0  0  0  0  0  0  0  0  0
   -4.1110   23.9270  -27.4720 C   0  0  0  0  0  0  0  0  0  0  0  0
   -5.0353   23.4820  -27.8690 H   0  0  0  0  0  0  0  0  0  0  0  0
   -4.1820   24.9130  -26.4860 C   0  0  0  0  0  0  0  0  0  0  0  0
   -5.1610   25.2342  -26.1009 H   0  0  0  0  0  0  0  0  0  0  0  0
   -3.0120   25.4930  -25.9870 C   0  0  0  0  0  0  0  0  0  0  0  0
   -3.0728   26.2662  -25.2069 H   0  0  0  0  0  0  0  0  0  0  0  0
   -1.7610   25.0920  -26.4780 C   0  0  0  0  0  0  0  0  0  0  0  0
   -0.5040   25.7170  -25.9520 C   0  0  0  0  0  0  0  0  0  0  0  0
   -0.5224   25.7079  -24.8522 H   0  0  0  0  0  0  0  0  0  0  0  0
    0.3662   25.1467  -26.3089 H   0  0  0  0  0  0  0  0  0  0  0  0
   -0.4335   26.7551  -26.3089 H   0  0  0  0  0  0  0  0  0  0  0  0
   -1.6910   24.0730  -27.4410 C   0  0  0  0  0  0  0  0  0  0  0  0
   -0.7103   23.7200  -27.7924 H   0  0  0  0  0  0  0  0  0  0  0  0
   -5.6680   23.2070  -31.2360 N   0  0  0  0  0  0  0  0  0  0  0  0
   -5.5310   22.0150  -31.8860 C   0  0  0  0  0  0  0  0  0  0  0  0
   -4.5341   21.6531  -32.1777 H   0  0  0  0  0  0  0  0  0  0  0  0
   -7.3360   18.8260  -32.3640 C   0  0  0  0  0  0  0  0  0  0  0  0
   -8.1730   18.9550  -31.3040 F   0  0  0  0  0  0  0  0  0  0  0  0
   -7.2340   17.5830  -32.9980 C   0  0  0  0  0  0  0  0  0  0  0  0
   -7.8467   16.7383  -32.6501 H   0  0  0  0  0  0  0  0  0  0  0  0
  1  2  1  0
  2  3  2  0
  3  4  1  0
  3  5  1  0
  5  6  1  0
  5  7  2  0
  7  8  1  0
  8  9  1  0
  9 10  1  0
  9 11  2  0
 11 12  1  0
 11 13  1  0
 13 14  2  0
 14 15  1  0
 14 16  1  0
 16 17  1  0
 16 18  1  0
 18 19  2  0
 19 20  1  0
 20 21  1  0
 20 22  1  0
 20 23  1  0
 23 24  1  0
 23 25  1  0
 23 26  1  0
 26 27  2  0
 27 28  1  0
 27 29  1  0
 29 30  1  0
 29 31  2  0
 31 32  1  0
 31 33  1  0
 33 34  1  0
 34 35  1  0
 34 36  1  0
 34 37  1  0
 33 38  2  0
 38 39  1  0
 18 40  1  0
 40 41  1  0
 41 42  1  0
  7 43  1  0
 43 44  1  0
 43 45  2  0
 45 46  1  0
 45  2  1  0
 41  8  2  0
 40 13  1  0
 38 26  1  0
M  END
>  <UniqueID>  (17) 
17

>  <SMILES>  (17) 
Cc1cccc(CC/N=c2/[nH]cc3ccc(-c4ccccc4F)cn23)c1

>  <Energy>  (17) 
96.497695280157

>  <Genealogy>  (17) 
Cc1cccc(CC/N=c2/[nH]cc3ccc(-c4ccccc4F)cn23)c1 (cis-trans isomerization)
Cc1cccc(CC/N=c2/[nH]cc3ccc(-c4ccccc4F)cn23)c1 (3D coordinates assigned)
Cc1cccc(CC/N=c2/[nH]cc3ccc(-c4ccccc4F)cn23)c1 (optimized conformer: 96.497695280157 kcal/mol)

>  <smiles>  (17) 
Cc1cccc(CCN=c2[nH]cc3ccc(-c4ccccc4F)cn23)c1

>  <score_type>  (17) 
oracle

>  <origin>  (17) 
adg

>  <m_score__min__energy>  (17) 
-9.6899999999999995

>  <m_primary>  (17) 
energy

$$$$
17:0
     RDKit          3D

 29 30  0  0  0  0  0  0  0  0999 V2000
   -2.6190   24.3330  -29.3450 C   0  0  0  0  0  0  0  0  0  0  0  0
   -3.4890   24.9460  -30.2920 O   0  0  0  0  0  0  0  0  0  0  0  0
   -4.7390   24.4310  -30.6670 C   0  0  0  0  0  0  0  0  0  0  0  0
   -4.7750   23.3740  -31.5840 C   0  0  0  0  0  0  0  0  0  0  0  0
   -5.9950   22.8260  -31.9890 C   0  0  0  0  0  0  0  0  0  0  0  0
   -7.2010   23.3240  -31.4730 C   0  0  0  0  0  0  0  0  0  0  0  0
   -8.5140   22.7600  -31.9340 C   0  0  0  0  0  0  0  0  0  0  0  0
   -9.1090   21.5370  -30.7220 S   0  0  0  0  0  0  0  0  0  0  0  0
   -8.4050   20.1500  -31.6080 C   0  0  0  0  0  0  0  0  0  0  0  0
   -7.5800   20.2960  -32.5830 N   0  0  0  0  0  0  0  0  0  0  0  0
   -7.1900   18.9850  -33.0890 C   0  0  0  0  0  0  0  0  0  0  0  0
   -7.9520   17.9730  -32.2160 C   0  0  0  0  0  0  0  0  0  0  0  0
   -8.7060   18.8060  -31.3010 N   0  0  0  0  0  0  0  0  0  0  0  0
   -7.1710   24.3930  -30.5640 C   0  0  0  0  0  0  0  0  0  0  0  0
   -5.9490   24.9410  -30.1590 C   0  0  0  0  0  0  0  0  0  0  0  0
   -2.9586   24.5723  -28.3265 H   0  0  0  0  0  0  0  0  0  0  0  0
   -2.6306   23.2425  -29.4886 H   0  0  0  0  0  0  0  0  0  0  0  0
   -1.5960   24.7109  -29.4886 H   0  0  0  0  0  0  0  0  0  0  0  0
   -3.8350   22.9713  -31.9892 H   0  0  0  0  0  0  0  0  0  0  0  0
   -6.0099   22.0004  -32.7157 H   0  0  0  0  0  0  0  0  0  0  0  0
   -9.2498   23.5724  -32.0265 H   0  0  0  0  0  0  0  0  0  0  0  0
   -8.3808   22.2728  -32.9112 H   0  0  0  0  0  0  0  0  0  0  0  0
   -7.4784   18.8776  -34.1451 H   0  0  0  0  0  0  0  0  0  0  0  0
   -6.1017   18.8326  -33.0405 H   0  0  0  0  0  0  0  0  0  0  0  0
   -8.6248   17.3551  -32.8287 H   0  0  0  0  0  0  0  0  0  0  0  0
   -7.2838   17.2689  -31.6986 H   0  0  0  0  0  0  0  0  0  0  0  0
   -9.3440   18.4740  -30.5440 H   0  0  0  0  0  0  0  0  0  0  0  0
   -8.1124   24.8018  -30.1682 H   0  0  0  0  0  0  0  0  0  0  0  0
   -5.9336   25.7739  -29.4406 H   0  0  0  0  0  0  0  0  0  0  0  0
  1  2  1  0
  2  3  1  0
  3  4  2  0
  4  5  1  0
  5  6  2  0
  6  7  1  0
  7  8  1  0
  8  9  1  0
  9 10  2  0
 10 11  1  0
 11 12  1  0
 12 13  1  0
  6 14  1  0
 14 15  2  0
 15  3  1  0
 13  9  1  0
  1 16  1  0
  1 17  1  0
  1 18  1  0
  4 19  1  0
  5 20  1  0
  7 21  1  0
  7 22  1  0
 11 23  1  0
 11 24  1  0
 12 25  1  0
 12 26  1  0
 13 27  1  0
 14 28  1  0
 15 29  1  0
M  END
>  <UniqueID>  (18) 
18

>  <SMILES>  (18) 
COc1ccc(CSC2=NCCN2)cc1

>  <Energy>  (18) 
34.76762904489335

>  <Genealogy>  (18) 
COc1ccc(CSC2=NCCN2)cc1 (3D coordinates assigned)
COc1ccc(CSC2=NCCN2)cc1 (nonaromatic ring conformer: 34.76762904489335 kcal/mol)

>  <smiles>  (18) 
COc1ccc(CSC2=NCCN2)cc1

>  <score_type>  (18) 
oracle

>  <origin>  (18) 
adg

>  <m_score__min__energy>  (18) 
-6.4400000000000004

>  <m_primary>  (18) 
energy

$$$$
18:0
     RDKit          3D

 42 44  0  0  0  0  0  0  0  0999 V2000
   -2.8200   19.7020  -32.5500 C   0  0  0  0  0  0  0  0  0  0  0  0
   -3.6360   18.9100  -33.5270 C   0  0  0  0  0  0  0  0  0  0  0  0
   -3.1720   17.7280  -34.1240 C   0  0  0  0  0  0  0  0  0  0  0  0
   -4.0970   17.1270  -34.9690 C   0  0  0  0  0  0  0  0  0  0  0  0
   -5.4960   18.0600  -34.9660 S   0  0  0  0  0  0  0  0  0  0  0  0
   -4.9450   19.2300  -33.8930 C   0  0  0  0  0  0  0  0  0  0  0  0
   -5.7360   20.4350  -33.4560 C   0  0  0  0  0  0  0  0  0  0  0  0
   -7.1560   20.0960  -33.1910 N   0  0  1  0  0  0  0  0  0  0  0  0
   -7.2900   18.7660  -32.5400 C   0  0  0  0  0  0  0  0  0  0  0  0
   -8.6910   18.5430  -31.9340 C   0  0  0  0  0  0  0  0  0  0  0  0
   -9.6970   19.3910  -32.5770 N   0  0  0  0  0  0  0  0  0  0  0  0
   -9.4070   20.8220  -32.3800 C   0  0  0  0  0  0  0  0  0  0  0  0
   -7.8840   21.1670  -32.4520 C   0  0  1  0  0  0  0  0  0  0  0  0
   -7.3150   21.4660  -31.0240 C   0  0  0  0  0  0  0  0  0  0  0  0
   -6.3230   22.6050  -30.9830 C   0  0  0  0  0  0  0  0  0  0  0  0
   -4.9440   22.3490  -30.9020 C   0  0  0  0  0  0  0  0  0  0  0  0
   -4.0450   23.4160  -30.8450 C   0  0  0  0  0  0  0  0  0  0  0  0
   -4.5030   24.6960  -30.8460 N   0  0  0  0  0  0  0  0  0  0  0  0
   -5.8320   24.9750  -30.9000 C   0  0  0  0  0  0  0  0  0  0  0  0
   -6.7660   23.9380  -30.9600 C   0  0  0  0  0  0  0  0  0  0  0  0
   -3.1054   19.4250  -31.5244 H   0  0  0  0  0  0  0  0  0  0  0  0
   -1.7524   19.4866  -32.7044 H   0  0  0  0  0  0  0  0  0  0  0  0
   -3.0035   20.7755  -32.7044 H   0  0  0  0  0  0  0  0  0  0  0  0
   -2.1690   17.3154  -33.9401 H   0  0  0  0  0  0  0  0  0  0  0  0
   -3.9410   16.2006  -35.5412 H   0  0  0  0  0  0  0  0  0  0  0  0
   -5.2890   20.8398  -32.5360 H   0  0  0  0  0  0  0  0  0  0  0  0
   -5.7074   21.1757  -34.2688 H   0  0  0  0  0  0  0  0  0  0  0  0
   -7.6230   20.0270  -34.1270 H   0  0  0  0  0  0  0  0  0  0  0  0
   -7.1024   17.9850  -33.2915 H   0  0  0  0  0  0  0  0  0  0  0  0
   -6.5597   18.7210  -31.7187 H   0  0  0  0  0  0  0  0  0  0  0  0
   -8.9743   17.4886  -32.0680 H   0  0  0  0  0  0  0  0  0  0  0  0
   -8.6503   18.8059  -30.8667 H   0  0  0  0  0  0  0  0  0  0  0  0
   -9.7200   19.1760  -33.6020 H   0  0  0  0  0  0  0  0  0  0  0  0
   -9.9305   21.3937  -33.1605 H   0  0  0  0  0  0  0  0  0  0  0  0
   -9.7500   21.0846  -31.3684 H   0  0  0  0  0  0  0  0  0  0  0  0
   -7.7320   22.0938  -33.0247 H   0  0  0  0  0  0  0  0  0  0  0  0
   -8.1569   21.7167  -30.3619 H   0  0  0  0  0  0  0  0  0  0  0  0
   -6.7759   20.5631  -30.7011 H   0  0  0  0  0  0  0  0  0  0  0  0
   -4.5743   21.3132  -30.8836 H   0  0  0  0  0  0  0  0  0  0  0  0
   -2.9635   23.2203  -30.7992 H   0  0  0  0  0  0  0  0  0  0  0  0
   -6.1733   26.0207  -30.8964 H   0  0  0  0  0  0  0  0  0  0  0  0
   -7.8422   24.1638  -30.9891 H   0  0  0  0  0  0  0  0  0  0  0  0
  1  2  1  0
  2  3  1  0
  3  4  2  0
  4  5  1  0
  5  6  1  0
  6  7  1  0
  7  8  1  0
  8  9  1  0
  9 10  1  0
 10 11  1  0
 11 12  1  0
 12 13  1  0
 13 14  1  0
 14 15  1  0
 15 16  2  0
 16 17  1  0
 17 18  2  0
 18 19  1  0
 19 20  2  0
  6  2  2  0
 13  8  1  0
 20 15  1  0
  1 21  1  0
  1 22  1  0
  1 23  1  0
  3 24  1  0
  4 25  1  0
  7 26  1  0
  7 27  1  0
  8 28  1  6
  9 29  1  0
  9 30  1  0
 10 31  1  0
 10 32  1  0
 11 33  1  0
 12 34  1  0
 12 35  1  0
 13 36  1  6
 14 37  1  0
 14 38  1  0
 16 39  1  0
 17 40  1  0
 19 41  1  0
 20 42  1  0
M  CHG  1   8   1
M  END
>  <UniqueID>  (19) 
19

>  <SMILES>  (19) 
Cc1ccsc1C[N@H+]1CCNC[C@H]1Cc1ccncc1

>  <Energy>  (19) 
82.60715954469318

>  <Genealogy>  (19) 
Cc1ccsc1C[NH+]1CCNCC1Cc1ccncc1 (protonated)
Cc1ccsc1C[N@H+]1CCNC[C@H]1Cc1ccncc1 (chirality)
Cc1ccsc1C[N@H+]1CCNC[C@H]1Cc1ccncc1 (3D coordinates assigned)
Cc1ccsc1C[N@H+]1CCNC[C@H]1Cc1ccncc1 (nonaromatic ring conformer: 82.60715954469318 kcal/mol)

>  <smiles>  (19) 
Cc1ccsc1CN1CCNCC1Cc1ccncc1

>  <score_type>  (19) 
oracle

>  <origin>  (19) 
adg

>  <m_score__min__energy>  (19) 
-7.79

>  <m_primary>  (19) 
energy

$$$$
19:0
     RDKit          3D

 69 72  0  0  0  0  0  0  0  0999 V2000
    0.2670   16.5020  -31.1290 C   0  0  0  0  0  0  0  0  0  0  0  0
    0.7720   17.0090  -29.7700 C   0  0  0  0  0  0  0  0  0  0  0  0
    1.1750   18.4360  -29.7610 N   0  0  0  0  0  0  0  0  0  0  0  0
    2.5190   18.6540  -30.3380 C   0  0  0  0  0  0  0  0  0  0  0  0
    2.4230   19.3020  -31.7300 C   0  0  0  0  0  0  0  0  0  0  0  0
    1.0420   19.3210  -32.2380 N   0  0  0  0  0  0  0  0  0  0  0  0
    0.7760   20.3830  -33.2280 C   0  0  0  0  0  0  0  0  0  0  0  0
   -0.7160   20.7410  -33.3570 C   0  0  0  0  0  0  0  0  0  0  0  0
   -1.5040   20.0730  -32.3140 N   0  0  0  0  0  0  0  0  0  0  0  0
   -2.2460   18.9120  -32.8280 C   0  0  0  0  0  0  0  0  0  0  0  0
   -3.2060   19.2850  -33.9700 C   0  0  0  0  0  0  0  0  0  0  0  0
   -4.4360   19.8780  -33.4260 N   0  0  0  0  0  0  0  0  0  0  0  0
   -4.4700   21.2660  -33.0460 C   0  0  0  0  0  0  0  0  0  0  0  0
   -3.4340   21.9790  -33.1570 O   0  0  0  0  0  0  0  0  0  0  0  0
   -5.7240   21.8610  -32.5270 C   0  0  0  0  0  0  0  0  0  0  0  0
   -5.7630   23.2080  -32.1250 C   0  0  0  0  0  0  0  0  0  0  0  0
   -6.9420   23.7680  -31.6330 C   0  0  0  0  0  0  0  0  0  0  0  0
   -8.1000   22.9960  -31.5340 C   0  0  0  0  0  0  0  0  0  0  0  0
   -8.0880   21.6510  -31.9300 C   0  0  0  0  0  0  0  0  0  0  0  0
   -9.2520   20.8770  -31.8330 C   0  0  0  0  0  0  0  0  0  0  0  0
   -9.2410   19.5400  -32.2300 C   0  0  0  0  0  0  0  0  0  0  0  0
   -8.0710   18.9620  -32.7270 C   0  0  0  0  0  0  0  0  0  0  0  0
   -6.8900   19.7180  -32.8330 C   0  0  0  0  0  0  0  0  0  0  0  0
   -6.8930   21.0730  -32.4330 C   0  0  0  0  0  0  0  0  0  0  0  0
   -5.6500   19.1050  -33.3610 C   0  0  0  0  0  0  0  0  0  0  0  0
   -5.6590   17.9070  -33.7580 O   0  0  0  0  0  0  0  0  0  0  0  0
    1.0160   19.0870  -28.4410 C   0  0  0  0  0  0  0  0  0  0  0  0
   -0.4390   19.3600  -28.1570 C   0  0  0  0  0  0  0  0  0  0  0  0
   -1.0350   18.7670  -27.0330 C   0  0  0  0  0  0  0  0  0  0  0  0
   -2.3700   19.0270  -26.7180 C   0  0  0  0  0  0  0  0  0  0  0  0
   -3.1210   19.8910  -27.5160 C   0  0  0  0  0  0  0  0  0  0  0  0
   -2.5440   20.4950  -28.6360 C   0  0  0  0  0  0  0  0  0  0  0  0
   -3.5930   21.7110  -29.6780 Br  0  0  0  0  0  0  0  0  0  0  0  0
   -1.2050   20.2270  -28.9690 C   0  0  0  0  0  0  0  0  0  0  0  0
   -0.6310   20.8350  -30.0880 O   0  0  0  0  0  0  0  0  0  0  0  0
   -0.4280   22.2410  -30.1440 C   0  0  0  0  0  0  0  0  0  0  0  0
   -0.5012   15.7308  -30.9702 H   0  0  0  0  0  0  0  0  0  0  0  0
   -0.1661   17.3399  -31.6950 H   0  0  0  0  0  0  0  0  0  0  0  0
    1.1066   16.0722  -31.6950 H   0  0  0  0  0  0  0  0  0  0  0  0
   -0.0321   16.8737  -29.0317 H   0  0  0  0  0  0  0  0  0  0  0  0
    1.6741   16.4260  -29.5324 H   0  0  0  0  0  0  0  0  0  0  0  0
    3.0933   19.3151  -29.6723 H   0  0  0  0  0  0  0  0  0  0  0  0
    3.0193   17.6796  -30.4388 H   0  0  0  0  0  0  0  0  0  0  0  0
    2.7915   20.3364  -31.6658 H   0  0  0  0  0  0  0  0  0  0  0  0
    3.0311   18.7039  -32.4246 H   0  0  0  0  0  0  0  0  0  0  0  0
    0.3840   19.4160  -31.4290 H   0  0  0  0  0  0  0  0  0  0  0  0
    1.3262   21.2864  -32.9262 H   0  0  0  0  0  0  0  0  0  0  0  0
    1.1039   20.0031  -34.2068 H   0  0  0  0  0  0  0  0  0  0  0  0
   -0.8356   21.8300  -33.2576 H   0  0  0  0  0  0  0  0  0  0  0  0
   -1.0757   20.4047  -34.3406 H   0  0  0  0  0  0  0  0  0  0  0  0
   -2.1750   20.7600  -31.8950 H   0  0  0  0  0  0  0  0  0  0  0  0
   -1.5251   18.1698  -33.2014 H   0  0  0  0  0  0  0  0  0  0  0  0
   -2.8501   18.5090  -32.0018 H   0  0  0  0  0  0  0  0  0  0  0  0
   -2.7154   20.0115  -34.6344 H   0  0  0  0  0  0  0  0  0  0  0  0
   -3.4644   18.3760  -34.5330 H   0  0  0  0  0  0  0  0  0  0  0  0
   -4.8557   23.8255  -32.1992 H   0  0  0  0  0  0  0  0  0  0  0  0
   -6.9589   24.8229  -31.3217 H   0  0  0  0  0  0  0  0  0  0  0  0
   -9.0257   23.4442  -31.1439 H   0  0  0  0  0  0  0  0  0  0  0  0
  -10.1775   21.3253  -31.4425 H   0  0  0  0  0  0  0  0  0  0  0  0
  -10.1583   18.9380  -32.1512 H   0  0  0  0  0  0  0  0  0  0  0  0
   -8.0732   17.9069  -33.0381 H   0  0  0  0  0  0  0  0  0  0  0  0
    1.4189   18.4250  -27.6603 H   0  0  0  0  0  0  0  0  0  0  0  0
    1.5616   20.0421  -28.4481 H   0  0  0  0  0  0  0  0  0  0  0  0
   -0.4454   18.0920  -26.3952 H   0  0  0  0  0  0  0  0  0  0  0  0
   -2.8303   18.5504  -25.8400 H   0  0  0  0  0  0  0  0  0  0  0  0
   -4.1713   20.0973  -27.2623 H   0  0  0  0  0  0  0  0  0  0  0  0
   -0.3698   22.6440  -29.1222 H   0  0  0  0  0  0  0  0  0  0  0  0
    0.5104   22.4551  -30.6766 H   0  0  0  0  0  0  0  0  0  0  0  0
   -1.2675   22.7118  -30.6766 H   0  0  0  0  0  0  0  0  0  0  0  0
  1  2  1  0
  2  3  1  0
  3  4  1  0
  4  5  1  0
  5  6  1  0
  6  7  1  0
  7  8  1  0
  8  9  1  0
  9 10  1  0
 10 11  1  0
 11 12  1  0
 12 13  1  0
 13 14  2  0
 13 15  1  0
 15 16  2  0
 16 17  1  0
 17 18  2  0
 18 19  1  0
 19 20  2  0
 20 21  1  0
 21 22  2  0
 22 23  1  0
 23 24  2  0
 23 25  1  0
 25 26  2  0
  3 27  1  0
 27 28  1  0
 28 29  2  0
 29 30  1  0
 30 31  2  0
 31 32  1  0
 32 33  1  0
 32 34  2  0
 34 35  1  0
 35 36  1  0
 25 12  1  0
 34 28  1  0
 24 15  1  0
 24 19  1  0
  1 37  1  0
  1 38  1  0
  1 39  1  0
  2 40  1  0
  2 41  1  0
  4 42  1  0
  4 43  1  0
  5 44  1  0
  5 45  1  0
  6 46  1  0
  7 47  1  0
  7 48  1  0
  8 49  1  0
  8 50  1  0
  9 51  1  0
 10 52  1  0
 10 53  1  0
 11 54  1  0
 11 55  1  0
 16 56  1  0
 17 57  1  0
 18 58  1  0
 20 59  1  0
 21 60  1  0
 22 61  1  0
 27 62  1  0
 27 63  1  0
 29 64  1  0
 30 65  1  0
 31 66  1  0
 36 67  1  0
 36 68  1  0
 36 69  1  0
M  END
>  <UniqueID>  (20) 
20

>  <SMILES>  (20) 
CCN(CCNCCNCCN1C(=O)c2cccc3cccc(c23)C1=O)Cc1cccc(Br)c1OC

>  <Energy>  (20) 
85.79107106355048

>  <Genealogy>  (20) 
CCN(CCNCCNCCN1C(=O)c2cccc3cccc(c23)C1=O)Cc1cccc(Br)c1OC (3D coordinates assigned)
CCN(CCNCCNCCN1C(=O)c2cccc3cccc(c23)C1=O)Cc1cccc(Br)c1OC (nonaromatic ring conformer: 85.79107106355048 kcal/mol)

>  <smiles>  (20) 
CCN(CCNCCNCCN1C(=O)c2cccc3cccc(c23)C1=O)Cc1cccc(Br)c1OC

>  <score_type>  (20) 
oracle

>  <origin>  (20) 
adg

>  <m_score__min__energy>  (20) 
-10.800000000000001

>  <m_primary>  (20) 
energy

$$$$
20:0
     RDKit          3D

 33 33  0  0  0  0  0  0  0  0999 V2000
   -4.3990   22.9700  -31.4630 C   0  0  0  0  0  0  0  0  0  0  0  0
   -4.5340   24.2980  -30.8440 N   0  0  0  0  0  0  0  0  0  0  0  0
   -4.3190   24.1850  -29.3890 C   0  0  0  0  0  0  0  0  0  0  0  0
   -5.8690   24.8580  -31.1360 C   0  0  0  0  0  0  0  0  0  0  0  0
   -6.8710   23.7880  -31.1920 C   0  0  0  0  0  0  0  0  0  0  0  0
   -7.6950   22.9090  -31.2390 C   0  0  0  0  0  0  0  0  0  0  0  0
   -8.6990   21.8380  -31.2940 C   0  0  0  0  0  0  0  0  0  0  0  0
   -8.3430   20.8330  -32.3180 N   0  0  0  0  0  0  0  0  0  0  0  0
   -6.9080   20.9330  -32.6990 C   0  0  0  0  0  0  0  0  0  0  0  0
   -6.0310   19.8980  -31.9820 C   0  0  0  0  0  0  0  0  0  0  0  0
   -6.4790   18.4640  -32.3190 C   0  0  0  0  0  0  0  0  0  0  0  0
   -7.9800   18.3760  -32.6430 C   0  0  0  0  0  0  0  0  0  0  0  0
   -8.7650   19.4670  -31.9070 C   0  0  0  0  0  0  0  0  0  0  0  0
   -4.3212   22.2050  -30.6764 H   0  0  0  0  0  0  0  0  0  0  0  0
   -5.2810   22.7653  -32.0877 H   0  0  0  0  0  0  0  0  0  0  0  0
   -3.4939   22.9469  -32.0877 H   0  0  0  0  0  0  0  0  0  0  0  0
   -5.1710   24.6328  -28.8566 H   0  0  0  0  0  0  0  0  0  0  0  0
   -4.2307   23.1239  -29.1127 H   0  0  0  0  0  0  0  0  0  0  0  0
   -3.3950   24.7140  -29.1127 H   0  0  0  0  0  0  0  0  0  0  0  0
   -6.1440   25.5711  -30.3448 H   0  0  0  0  0  0  0  0  0  0  0  0
   -5.8368   25.3682  -32.1100 H   0  0  0  0  0  0  0  0  0  0  0  0
   -8.7555   21.3466  -30.3115 H   0  0  0  0  0  0  0  0  0  0  0  0
   -9.6706   22.2805  -31.5589 H   0  0  0  0  0  0  0  0  0  0  0  0
   -6.8204   20.7769  -33.7843 H   0  0  0  0  0  0  0  0  0  0  0  0
   -6.5542   21.9312  -32.4015 H   0  0  0  0  0  0  0  0  0  0  0  0
   -4.9860   20.0317  -32.2982 H   0  0  0  0  0  0  0  0  0  0  0  0
   -6.1286   20.0488  -30.8968 H   0  0  0  0  0  0  0  0  0  0  0  0
   -5.9087   18.1122  -33.1914 H   0  0  0  0  0  0  0  0  0  0  0  0
   -6.2912   17.8387  -31.4337 H   0  0  0  0  0  0  0  0  0  0  0  0
   -8.1220   18.4996  -33.7268 H   0  0  0  0  0  0  0  0  0  0  0  0
   -8.3525   17.3943  -32.3152 H   0  0  0  0  0  0  0  0  0  0  0  0
   -9.8355   19.3446  -32.1286 H   0  0  0  0  0  0  0  0  0  0  0  0
   -8.5659   19.3602  -30.8305 H   0  0  0  0  0  0  0  0  0  0  0  0
  1  2  1  0
  2  3  1  0
  2  4  1  0
  4  5  1  0
  5  6  3  0
  6  7  1  0
  7  8  1  0
  8  9  1  0
  9 10  1  0
 10 11  1  0
 11 12  1  0
 12 13  1  0
 13  8  1  0
  1 14  1  0
  1 15  1  0
  1 16  1  0
  3 17  1  0
  3 18  1  0
  3 19  1  0
  4 20  1  0
  4 21  1  0
  7 22  1  0
  7 23  1  0
  9 24  1  0
  9 25  1  0
 10 26  1  0
 10 27  1  0
 11 28  1  0
 11 29  1  0
 12 30  1  0
 12 31  1  0
 13 32  1  0
 13 33  1  0
M  END
>  <UniqueID>  (21) 
21

>  <SMILES>  (21) 
CN(C)CC#CCN1CCCCC1

>  <Energy>  (21) 
32.39871427964976

>  <Genealogy>  (21) 
CN(C)CC#CCN1CCCCC1 (3D coordinates assigned)
CN(C)CC#CCN1CCCCC1 (nonaromatic ring conformer: 32.39871427964976 kcal/mol)

>  <smiles>  (21) 
CN(C)CC#CCN1CCCCC1

>  <score_type>  (21) 
oracle

>  <origin>  (21) 
adg

>  <m_score__min__energy>  (21) 
-5.4199999999999999

>  <m_primary>  (21) 
energy

$$$$
21:0
     RDKit          3D

 43 45  0  0  0  0  0  0  0  0999 V2000
   -3.1820   20.9400  -32.2950 C   0  0  0  0  0  0  0  0  0  0  0  0
   -4.1400   20.7940  -33.4720 C   0  0  0  0  0  0  0  0  0  0  0  0
   -4.3250   19.4270  -33.7900 O   0  0  0  0  0  0  0  0  0  0  0  0
   -5.6810   19.1420  -34.0810 C   0  0  0  0  0  0  0  0  0  0  0  0
   -6.0480   17.7450  -33.5760 C   0  0  0  0  0  0  0  0  0  0  0  0
   -6.4760   17.7780  -31.8000 S   0  0  0  0  0  0  0  0  0  0  0  0
   -7.3180   19.3590  -31.8660 C   0  0  0  0  0  0  0  0  0  0  0  0
   -8.7100   19.4220  -32.1070 C   0  0  0  0  0  0  0  0  0  0  0  0
   -9.3560   20.6690  -32.1560 C   0  0  0  0  0  0  0  0  0  0  0  0
   -8.5680   21.7930  -31.9520 C   0  0  0  0  0  0  0  0  0  0  0  0
   -8.9470   23.0850  -31.9730 N   0  0  0  0  0  0  0  0  0  0  0  0
   -7.8430   23.7980  -31.7450 N   0  0  0  0  0  0  0  0  0  0  0  0
   -6.8200   22.9260  -31.5820 C   0  0  0  0  0  0  0  0  0  0  0  0
   -5.3890   23.3220  -31.3770 C   0  0  0  0  0  0  0  0  0  0  0  0
   -5.2750   24.7660  -30.8770 C   0  0  0  0  0  0  0  0  0  0  0  0
   -3.8810   25.1530  -30.6680 N   0  0  0  0  0  0  0  0  0  0  0  0
   -2.9990   24.5990  -29.6850 C   0  0  0  0  0  0  0  0  0  0  0  0
   -2.0010   25.2770  -29.3210 O   0  0  0  0  0  0  0  0  0  0  0  0
   -3.2160   23.2170  -29.1240 C   0  0  0  0  0  0  0  0  0  0  0  0
   -4.1610   23.1710  -27.9310 C   0  0  0  0  0  0  0  0  0  0  0  0
   -2.6730   22.9590  -27.7230 C   0  0  0  0  0  0  0  0  0  0  0  0
   -7.2630   21.6710  -31.7170 N   0  0  0  0  0  0  0  0  0  0  0  0
   -6.6130   20.5110  -31.6680 N   0  0  0  0  0  0  0  0  0  0  0  0
   -3.7431   20.8545  -31.3527 H   0  0  0  0  0  0  0  0  0  0  0  0
   -2.4205   20.1475  -32.3415 H   0  0  0  0  0  0  0  0  0  0  0  0
   -2.6912   21.9233  -32.3415 H   0  0  0  0  0  0  0  0  0  0  0  0
   -5.1104   21.2392  -33.2071 H   0  0  0  0  0  0  0  0  0  0  0  0
   -3.7140   21.3094  -34.3454 H   0  0  0  0  0  0  0  0  0  0  0  0
   -6.3227   19.8868  -33.5876 H   0  0  0  0  0  0  0  0  0  0  0  0
   -5.8299   19.1803  -35.1702 H   0  0  0  0  0  0  0  0  0  0  0  0
   -6.9114   17.3722  -34.1466 H   0  0  0  0  0  0  0  0  0  0  0  0
   -5.1790   17.0847  -33.7134 H   0  0  0  0  0  0  0  0  0  0  0  0
   -9.2860   18.4967  -32.2558 H   0  0  0  0  0  0  0  0  0  0  0  0
  -10.4362   20.7504  -32.3472 H   0  0  0  0  0  0  0  0  0  0  0  0
   -4.9342   22.6493  -30.6350 H   0  0  0  0  0  0  0  0  0  0  0  0
   -4.8673   23.2476  -32.3426 H   0  0  0  0  0  0  0  0  0  0  0  0
   -5.7246   25.4387  -31.6222 H   0  0  0  0  0  0  0  0  0  0  0  0
   -5.8014   24.8399  -29.9140 H   0  0  0  0  0  0  0  0  0  0  0  0
   -3.1286   22.6965  -30.0891 H   0  0  0  0  0  0  0  0  0  0  0  0
   -4.6397   24.0945  -27.5733 H   0  0  0  0  0  0  0  0  0  0  0  0
   -5.0689   22.6026  -27.6809 H   0  0  0  0  0  0  0  0  0  0  0  0
   -2.0736   23.7290  -27.2152 H   0  0  0  0  0  0  0  0  0  0  0  0
   -2.0568   22.1739  -27.2605 H   0  0  0  0  0  0  0  0  0  0  0  0
  1  2  1  0
  2  3  1  0
  3  4  1  0
  4  5  1  0
  5  6  1  0
  6  7  1  0
  7  8  1  0
  8  9  2  0
  9 10  1  0
 10 11  2  0
 11 12  1  0
 12 13  2  0
 13 14  1  0
 14 15  1  0
 15 16  1  0
 16 17  1  0
 17 18  2  0
 17 19  1  0
 19 20  1  0
 20 21  1  0
 13 22  1  0
 22 23  1  0
 23  7  2  0
 22 10  1  0
 21 19  1  0
  1 24  1  0
  1 25  1  0
  1 26  1  0
  2 27  1  0
  2 28  1  0
  4 29  1  0
  4 30  1  0
  5 31  1  0
  5 32  1  0
  8 33  1  0
  9 34  1  0
 14 35  1  0
 14 36  1  0
 15 37  1  0
 15 38  1  0
 19 39  1  0
 20 40  1  0
 20 41  1  0
 21 42  1  0
 21 43  1  0
M  CHG  1  16  -1
M  END
>  <UniqueID>  (22) 
22

>  <SMILES>  (22) 
CCOCCSc1ccc2nnc(CC[N-]C(=O)C3CC3)n2n1

>  <Energy>  (22) 
341.3505453587329

>  <Genealogy>  (22) 
CCOCCSc1ccc2nnc(CC[N-]C(=O)C3CC3)n2n1 (protonated)
CCOCCSc1ccc2nnc(CC[N-]C(=O)C3CC3)n2n1 (3D coordinates assigned)
CCOCCSc1ccc2nnc(CC[N-]C(=O)C3CC3)n2n1 (nonaromatic ring conformer: 341.3505453587329 kcal/mol)

>  <smiles>  (22) 
CCOCCSc1ccc2nnc(CCNC(=O)C3CC3)n2n1

>  <score_type>  (22) 
oracle

>  <origin>  (22) 
adg

>  <m_score__min__energy>  (22) 
-9.6400000000000006

>  <m_primary>  (22) 
energy

$$$$
22:0
     RDKit          3D

 31 32  0  0  0  0  0  0  0  0999 V2000
   -6.0260   15.8040  -33.8040 C   0  0  0  0  0  0  0  0  0  0  0  0
   -5.4270   17.1760  -33.7060 C   0  0  0  0  0  0  0  0  0  0  0  0
   -6.1280   18.2900  -34.1900 C   0  0  0  0  0  0  0  0  0  0  0  0
   -5.5550   19.5630  -34.1310 C   0  0  0  0  0  0  0  0  0  0  0  0
   -4.2720   19.7440  -33.5940 C   0  0  0  0  0  0  0  0  0  0  0  0
   -3.7120   21.0700  -33.5430 N   0  0  0  0  0  0  0  0  0  0  0  0
   -3.4800   21.8230  -32.3080 C   0  0  0  0  0  0  0  0  0  0  0  0
   -4.7850   22.3120  -31.7230 C   0  0  0  0  0  0  0  0  0  0  0  0
   -5.9360   21.5140  -31.8560 C   0  0  0  0  0  0  0  0  0  0  0  0
   -7.1670   21.9500  -31.3640 C   0  0  0  0  0  0  0  0  0  0  0  0
   -8.7200   20.8580  -31.5680 Br  0  0  0  0  0  0  0  0  0  0  0  0
   -7.2650   23.1880  -30.7260 C   0  0  0  0  0  0  0  0  0  0  0  0
   -6.1300   23.9880  -30.5710 C   0  0  0  0  0  0  0  0  0  0  0  0
   -6.2990   25.6740  -29.6800 Br  0  0  0  0  0  0  0  0  0  0  0  0
   -4.8850   23.5580  -31.0560 C   0  0  0  0  0  0  0  0  0  0  0  0
   -3.7740   24.3820  -30.8600 O   0  0  0  0  0  0  0  0  0  0  0  0
   -3.5580   18.6200  -33.1400 C   0  0  0  0  0  0  0  0  0  0  0  0
   -4.1310   17.3470  -33.1990 C   0  0  0  0  0  0  0  0  0  0  0  0
   -6.1995   15.4066  -32.7931 H   0  0  0  0  0  0  0  0  0  0  0  0
   -6.9820   15.8591  -34.3454 H   0  0  0  0  0  0  0  0  0  0  0  0
   -5.3357   15.1404  -34.3454 H   0  0  0  0  0  0  0  0  0  0  0  0
   -7.1331   18.1611  -34.6179 H   0  0  0  0  0  0  0  0  0  0  0  0
   -6.1151   20.4309  -34.5091 H   0  0  0  0  0  0  0  0  0  0  0  0
   -3.5160   21.5570  -34.4460 H   0  0  0  0  0  0  0  0  0  0  0  0
   -2.9792   21.1711  -31.5771 H   0  0  0  0  0  0  0  0  0  0  0  0
   -2.8497   22.6942  -32.5399 H   0  0  0  0  0  0  0  0  0  0  0  0
   -5.8648   20.5354  -32.3534 H   0  0  0  0  0  0  0  0  0  0  0  0
   -8.2371   23.5340  -30.3448 H   0  0  0  0  0  0  0  0  0  0  0  0
   -3.1170   24.6160  -31.5920 H   0  0  0  0  0  0  0  0  0  0  0  0
   -2.5424   18.7441  -32.7361 H   0  0  0  0  0  0  0  0  0  0  0  0
   -3.5622   16.4742  -32.8458 H   0  0  0  0  0  0  0  0  0  0  0  0
  1  2  1  0
  2  3  2  0
  3  4  1  0
  4  5  2  0
  5  6  1  0
  6  7  1  0
  7  8  1  0
  8  9  2  0
  9 10  1  0
 10 11  1  0
 10 12  2  0
 12 13  1  0
 13 14  1  0
 13 15  2  0
 15 16  1  0
  5 17  1  0
 17 18  2  0
 18  2  1  0
 15  8  1  0
  1 19  1  0
  1 20  1  0
  1 21  1  0
  3 22  1  0
  4 23  1  0
  6 24  1  0
  7 25  1  0
  7 26  1  0
  9 27  1  0
 12 28  1  0
 16 29  1  0
 17 30  1  0
 18 31  1  0
M  END
>  <UniqueID>  (23) 
23

>  <SMILES>  (23) 
Cc1ccc(NCc2cc(Br)cc(Br)c2O)cc1

>  <Energy>  (23) 
31.593852968866457

>  <Genealogy>  (23) 
Cc1ccc(NCc2cc(Br)cc(Br)c2O)cc1 (3D coordinates assigned)
Cc1ccc(NCc2cc(Br)cc(Br)c2O)cc1 (optimized conformer: 31.593852968866457 kcal/mol)

>  <smiles>  (23) 
Cc1ccc(NCc2cc(Br)cc(Br)c2O)cc1

>  <score_type>  (23) 
oracle

>  <origin>  (23) 
adg

>  <m_score__min__energy>  (23) 
-8.2400000000000002

>  <m_primary>  (23) 
energy

$$$$
23:0
     RDKit          3D

 50 52  0  0  0  0  0  0  0  0999 V2000
    1.4240   15.9800  -27.1140 C   0  0  0  0  0  0  0  0  0  0  0  0
    1.6560   17.3630  -27.3580 O   0  0  0  0  0  0  0  0  0  0  0  0
    0.6900   18.2550  -27.8480 C   0  0  0  0  0  0  0  0  0  0  0  0
    0.9890   18.9930  -28.9980 C   0  0  0  0  0  0  0  0  0  0  0  0
    0.0610   19.8940  -29.5270 C   0  0  0  0  0  0  0  0  0  0  0  0
   -1.1890   20.0760  -28.9090 C   0  0  0  0  0  0  0  0  0  0  0  0
   -2.1500   21.0030  -29.4610 N   0  0  0  0  0  0  0  0  0  0  0  0
   -3.3270   21.3850  -28.6690 C   0  0  0  0  0  0  0  0  0  0  0  0
   -4.0060   22.6200  -29.2670 C   0  0  0  0  0  0  0  0  0  0  0  0
   -4.3190   22.3980  -30.6950 N   0  0  0  0  0  0  0  0  0  0  0  0
   -4.9380   23.5830  -31.2660 C   0  0  0  0  0  0  0  0  0  0  0  0
   -4.6360   24.6860  -30.8330 O   0  0  0  0  0  0  0  0  0  0  0  0
   -5.9800   23.4940  -32.3610 C   0  0  0  0  0  0  0  0  0  0  0  0
   -7.0230   22.4510  -32.0350 C   0  0  0  0  0  0  0  0  0  0  0  0
   -8.2910   22.8540  -31.5820 C   0  0  0  0  0  0  0  0  0  0  0  0
   -9.2580   21.9060  -31.2460 C   0  0  0  0  0  0  0  0  0  0  0  0
   -8.9720   20.5460  -31.3550 C   0  0  0  0  0  0  0  0  0  0  0  0
   -7.7160   20.1280  -31.8020 C   0  0  0  0  0  0  0  0  0  0  0  0
   -6.7290   21.0740  -32.1470 C   0  0  0  0  0  0  0  0  0  0  0  0
   -5.4580   20.6820  -32.5990 O   0  0  0  0  0  0  0  0  0  0  0  0
   -5.2080   19.5670  -33.4460 C   0  0  0  0  0  0  0  0  0  0  0  0
   -3.1630   21.9340  -31.5170 C   0  0  0  0  0  0  0  0  0  0  0  0
   -1.8680   21.7150  -30.7150 C   0  0  0  0  0  0  0  0  0  0  0  0
   -1.4900   19.3310  -27.7550 C   0  0  0  0  0  0  0  0  0  0  0  0
   -0.5600   18.4300  -27.2270 C   0  0  0  0  0  0  0  0  0  0  0  0
    1.3936   15.7991  -26.0294 H   0  0  0  0  0  0  0  0  0  0  0  0
    0.4638   15.6847  -27.5620 H   0  0  0  0  0  0  0  0  0  0  0  0
    2.2353   15.3875  -27.5620 H   0  0  0  0  0  0  0  0  0  0  0  0
    1.9639   18.8629  -29.4906 H   0  0  0  0  0  0  0  0  0  0  0  0
    0.3101   20.4651  -30.4335 H   0  0  0  0  0  0  0  0  0  0  0  0
   -4.0421   20.5492  -28.6593 H   0  0  0  0  0  0  0  0  0  0  0  0
   -3.0018   21.6219  -27.6452 H   0  0  0  0  0  0  0  0  0  0  0  0
   -4.9383   22.8216  -28.7191 H   0  0  0  0  0  0  0  0  0  0  0  0
   -3.3230   23.4781  -29.1816 H   0  0  0  0  0  0  0  0  0  0  0  0
   -5.0380   21.6330  -30.7170 H   0  0  0  0  0  0  0  0  0  0  0  0
   -6.4715   24.4720  -32.4697 H   0  0  0  0  0  0  0  0  0  0  0  0
   -5.4794   23.2070  -33.2975 H   0  0  0  0  0  0  0  0  0  0  0  0
   -8.5229   23.9255  -31.4916 H   0  0  0  0  0  0  0  0  0  0  0  0
  -10.2479   22.2324  -30.8944 H   0  0  0  0  0  0  0  0  0  0  0  0
   -9.7362   19.8009  -31.0887 H   0  0  0  0  0  0  0  0  0  0  0  0
   -7.4956   19.0535  -31.8854 H   0  0  0  0  0  0  0  0  0  0  0  0
   -5.0084   18.6770  -32.8312 H   0  0  0  0  0  0  0  0  0  0  0  0
   -6.0875   19.3844  -34.0809 H   0  0  0  0  0  0  0  0  0  0  0  0
   -4.3347   19.7774  -34.0809 H   0  0  0  0  0  0  0  0  0  0  0  0
   -3.4387   20.9820  -31.9942 H   0  0  0  0  0  0  0  0  0  0  0  0
   -2.9531   22.7303  -32.2462 H   0  0  0  0  0  0  0  0  0  0  0  0
   -1.1656   21.1208  -31.3179 H   0  0  0  0  0  0  0  0  0  0  0  0
   -1.4295   22.6949  -30.4753 H   0  0  0  0  0  0  0  0  0  0  0  0
   -2.4657   19.4581  -27.2632 H   0  0  0  0  0  0  0  0  0  0  0  0
   -0.8070   17.8555  -26.3220 H   0  0  0  0  0  0  0  0  0  0  0  0
  1  2  1  0
  2  3  1  0
  3  4  2  0
  4  5  1  0
  5  6  2  0
  6  7  1  0
  7  8  1  0
  8  9  1  0
  9 10  1  0
 10 11  1  0
 11 12  2  0
 11 13  1  0
 13 14  1  0
 14 15  2  0
 15 16  1  0
 16 17  2  0
 17 18  1  0
 18 19  2  0
 19 20  1  0
 20 21  1  0
 10 22  1  0
 22 23  1  0
  6 24  1  0
 24 25  2  0
 25  3  1  0
 23  7  1  0
 19 14  1  0
  1 26  1  0
  1 27  1  0
  1 28  1  0
  4 29  1  0
  5 30  1  0
  8 31  1  0
  8 32  1  0
  9 33  1  0
  9 34  1  0
 10 35  1  0
 13 36  1  0
 13 37  1  0
 15 38  1  0
 16 39  1  0
 17 40  1  0
 18 41  1  0
 21 42  1  0
 21 43  1  0
 21 44  1  0
 22 45  1  0
 22 46  1  0
 23 47  1  0
 23 48  1  0
 24 49  1  0
 25 50  1  0
M  CHG  1  10   1
M  END
>  <UniqueID>  (24) 
24

>  <SMILES>  (24) 
COc1ccc(N2CC[NH+](C(=O)Cc3ccccc3OC)CC2)cc1

>  <Energy>  (24) 
60.79077917578549

>  <Genealogy>  (24) 
COc1ccc(N2CC[NH+](C(=O)Cc3ccccc3OC)CC2)cc1 (protonated)
COc1ccc(N2CC[NH+](C(=O)Cc3ccccc3OC)CC2)cc1 (3D coordinates assigned)
COc1ccc(N2CC[NH+](C(=O)Cc3ccccc3OC)CC2)cc1 (nonaromatic ring conformer: 60.79077917578549 kcal/mol)

>  <smiles>  (24) 
COc1ccc(N2CCN(C(=O)Cc3ccccc3OC)CC2)cc1

>  <score_type>  (24) 
oracle

>  <origin>  (24) 
adg

>  <m_score__min__energy>  (24) 
-7.3099999999999996

>  <m_primary>  (24) 
energy

$$$$
24:0
     RDKit          3D

 33 36  0  0  0  0  0  0  0  0999 V2000
   -3.5880   19.2640  -33.5600 C   0  0  0  0  0  0  0  0  0  0  0  0
   -4.2440   20.3580  -32.9300 O   0  0  0  0  0  0  0  0  0  0  0  0
   -5.5980   20.3770  -32.5510 C   0  0  0  0  0  0  0  0  0  0  0  0
   -6.4710   19.3460  -32.9530 C   0  0  0  0  0  0  0  0  0  0  0  0
   -7.8470   19.4760  -32.7820 C   0  0  0  0  0  0  0  0  0  0  0  0
   -8.3770   20.6570  -32.2710 C   0  0  0  0  0  0  0  0  0  0  0  0
   -7.5260   21.6850  -31.8440 C   0  0  0  0  0  0  0  0  0  0  0  0
   -8.0670   22.9270  -31.4950 C   0  0  0  0  0  0  0  0  0  0  0  0
   -7.2300   23.9940  -31.1900 C   0  0  0  0  0  0  0  0  0  0  0  0
   -5.8460   23.7980  -31.0630 C   0  0  0  0  0  0  0  0  0  0  0  0
   -4.9910   24.8680  -30.7350 C   0  0  0  0  0  0  0  0  0  0  0  0
   -5.4290   26.0490  -30.6760 O   0  0  0  0  0  0  0  0  0  0  0  0
   -3.7100   24.6480  -30.4810 O   0  0  0  0  0  0  0  0  0  0  0  0
   -3.1820   23.4320  -30.4430 C   0  0  0  0  0  0  0  0  0  0  0  0
   -1.8490   23.2830  -30.0450 C   0  0  0  0  0  0  0  0  0  0  0  0
   -1.3160   22.0110  -29.8380 C   0  0  0  0  0  0  0  0  0  0  0  0
   -2.1250   20.8840  -29.9950 C   0  0  0  0  0  0  0  0  0  0  0  0
   -3.4480   21.0230  -30.4200 C   0  0  0  0  0  0  0  0  0  0  0  0
   -3.9700   22.2950  -30.7500 C   0  0  0  0  0  0  0  0  0  0  0  0
   -5.2940   22.5020  -31.2340 C   0  0  0  0  0  0  0  0  0  0  0  0
   -6.1160   21.4930  -31.8350 C   0  0  0  0  0  0  0  0  0  0  0  0
   -3.1828   18.5882  -32.7925 H   0  0  0  0  0  0  0  0  0  0  0  0
   -4.3073   18.7171  -34.1873 H   0  0  0  0  0  0  0  0  0  0  0  0
   -2.7667   19.6409  -34.1873 H   0  0  0  0  0  0  0  0  0  0  0  0
   -6.0619   18.4308  -33.4057 H   0  0  0  0  0  0  0  0  0  0  0  0
   -8.5153   18.6447  -33.0510 H   0  0  0  0  0  0  0  0  0  0  0  0
   -9.4675   20.7838  -32.2021 H   0  0  0  0  0  0  0  0  0  0  0  0
   -9.1585   23.0597  -31.4618 H   0  0  0  0  0  0  0  0  0  0  0  0
   -7.6550   24.9985  -31.0472 H   0  0  0  0  0  0  0  0  0  0  0  0
   -1.2192   24.1723  -29.8948 H   0  0  0  0  0  0  0  0  0  0  0  0
   -0.2602   21.8959  -29.5516 H   0  0  0  0  0  0  0  0  0  0  0  0
   -1.7192   19.8838  -29.7833 H   0  0  0  0  0  0  0  0  0  0  0  0
   -4.0907   20.1337  -30.4989 H   0  0  0  0  0  0  0  0  0  0  0  0
  1  2  1  0
  2  3  1  0
  3  4  2  0
  4  5  1  0
  5  6  2  0
  6  7  1  0
  7  8  2  0
  8  9  1  0
  9 10  2  0
 10 11  1  0
 11 12  2  0
 11 13  1  0
 13 14  1  0
 14 15  2  0
 15 16  1  0
 16 17  2  0
 17 18  1  0
 18 19  2  0
 19 20  1  0
 20 21  2  0
 21  3  1  0
 21  7  1  0
 20 10  1  0
 19 14  1  0
  1 22  1  0
  1 23  1  0
  1 24  1  0
  4 25  1  0
  5 26  1  0
  6 27  1  0
  8 28  1  0
  9 29  1  0
 15 30  1  0
 16 31  1  0
 17 32  1  0
 18 33  1  0
M  END
>  <UniqueID>  (25) 
25

>  <SMILES>  (25) 
COc1cccc2ccc3c(=O)oc4ccccc4c3c12

>  <Energy>  (25) 
72.50824374048958

>  <Genealogy>  (25) 
COc1cccc2ccc3c(=O)oc4ccccc4c3c12 (3D coordinates assigned)
COc1cccc2ccc3c(=O)oc4ccccc4c3c12 (optimized conformer: 72.50824374048958 kcal/mol)

>  <smiles>  (25) 
COc1cccc2ccc3c(=O)oc4ccccc4c3c12

>  <score_type>  (25) 
oracle

>  <origin>  (25) 
adg

>  <m_score__min__energy>  (25) 
-8.3000000000000007

>  <m_primary>  (25) 
energy

$$$$
25:0
     RDKit          3D

 25 25  0  0  0  0  0  0  0  0999 V2000
   -4.0510   18.0690  -34.2180 C   0  0  0  0  0  0  0  0  0  0  0  0
   -5.4210   17.4550  -34.4900 C   0  0  0  0  0  0  0  0  0  0  0  0
   -6.4810   18.4370  -34.2630 N   0  0  0  0  0  0  0  0  0  0  0  0
   -7.1800   18.6050  -33.0160 C   0  0  0  0  0  0  0  0  0  0  0  0
   -6.7000   17.7990  -31.6620 S   0  0  0  0  0  0  0  0  0  0  0  0
   -8.2330   19.5790  -32.9200 N   0  0  0  0  0  0  0  0  0  0  0  0
   -7.6980   20.8270  -32.4350 C   0  0  0  0  0  0  0  0  0  0  0  0
   -6.3450   21.1510  -32.6410 C   0  0  0  0  0  0  0  0  0  0  0  0
   -5.8220   22.3500  -32.1460 C   0  0  0  0  0  0  0  0  0  0  0  0
   -6.6430   23.2330  -31.4360 C   0  0  0  0  0  0  0  0  0  0  0  0
   -5.9850   24.7350  -30.8140 Cl  0  0  0  0  0  0  0  0  0  0  0  0
   -7.9870   22.9160  -31.2210 C   0  0  0  0  0  0  0  0  0  0  0  0
   -8.5140   21.7180  -31.7160 C   0  0  0  0  0  0  0  0  0  0  0  0
   -3.8905   18.1409  -33.1322 H   0  0  0  0  0  0  0  0  0  0  0  0
   -3.2701   17.4348  -34.6629 H   0  0  0  0  0  0  0  0  0  0  0  0
   -4.0047   19.0740  -34.6629 H   0  0  0  0  0  0  0  0  0  0  0  0
   -5.4628   17.1133  -35.5348 H   0  0  0  0  0  0  0  0  0  0  0  0
   -5.5713   16.6072  -33.8054 H   0  0  0  0  0  0  0  0  0  0  0  0
   -6.7300   19.0680  -35.0580 H   0  0  0  0  0  0  0  0  0  0  0  0
   -8.6690   19.7130  -33.8620 H   0  0  0  0  0  0  0  0  0  0  0  0
   -8.9870   19.2360  -32.2790 H   0  0  0  0  0  0  0  0  0  0  0  0
   -5.6946   20.4577  -33.1944 H   0  0  0  0  0  0  0  0  0  0  0  0
   -4.7640   22.5991  -32.3151 H   0  0  0  0  0  0  0  0  0  0  0  0
   -8.6319   23.6096  -30.6615 H   0  0  0  0  0  0  0  0  0  0  0  0
   -9.5719   21.4721  -31.5417 H   0  0  0  0  0  0  0  0  0  0  0  0
  1  2  1  0
  2  3  1  0
  3  4  1  0
  4  5  2  0
  4  6  1  0
  6  7  1  0
  7  8  2  0
  8  9  1  0
  9 10  2  0
 10 11  1  0
 10 12  1  0
 12 13  2  0
 13  7  1  0
  1 14  1  0
  1 15  1  0
  1 16  1  0
  2 17  1  0
  2 18  1  0
  3 19  1  0
  6 20  1  0
  6 21  1  0
  8 22  1  0
  9 23  1  0
 12 24  1  0
 13 25  1  0
M  CHG  1   6   1
M  END
>  <UniqueID>  (26) 
26

>  <SMILES>  (26) 
CCNC(=S)[NH2+]c1ccc(Cl)cc1

>  <Energy>  (26) 
20.176594652301002

>  <Genealogy>  (26) 
CCNC(=S)[NH2+]c1ccc(Cl)cc1 (protonated)
CCNC(=S)[NH2+]c1ccc(Cl)cc1 (3D coordinates assigned)
CCNC(=S)[NH2+]c1ccc(Cl)cc1 (optimized conformer: 20.176594652301002 kcal/mol)

>  <smiles>  (26) 
CCNC(=S)Nc1ccc(Cl)cc1

>  <score_type>  (26) 
oracle

>  <origin>  (26) 
adg

>  <m_score__min__energy>  (26) 
-5.5999999999999996

>  <m_primary>  (26) 
energy

$$$$
26:0
     RDKit          3D

 50 52  0  0  1  0  0  0  0  0999 V2000
   -2.7440   21.2130  -28.2750 C   0  0  0  0  0  0  0  0  0  0  0  0
   -2.9270   22.6750  -28.6020 C   0  0  0  0  0  0  0  0  0  0  0  0
   -2.0810   23.1850  -29.6150 N   0  0  0  0  0  0  0  0  0  0  0  0
   -1.0580   24.0840  -29.2110 C   0  0  0  0  0  0  0  0  0  0  0  0
   -1.5500   25.2810  -28.4600 C   0  0  0  0  0  0  0  0  0  0  0  0
   -1.6290   22.3030  -30.6250 C   0  0  0  0  0  0  0  0  0  0  0  0
   -2.6230   22.0770  -31.7370 C   0  0  0  0  0  0  0  0  0  0  0  0
   -3.6950   23.0420  -31.6180 N   0  0  0  0  0  0  0  0  0  0  0  0
   -5.0730   22.6960  -31.6230 C   0  0  0  0  0  0  0  0  0  0  0  0
   -5.5660   21.6310  -32.4020 C   0  0  0  0  0  0  0  0  0  0  0  0
   -6.9010   21.3540  -32.3650 C   0  0  0  0  0  0  0  0  0  0  0  0
   -7.4100   20.3230  -33.1130 C   0  0  0  0  0  0  0  0  0  0  0  0
   -6.7150   19.6160  -33.8370 N   0  0  0  0  0  0  0  0  0  0  0  0
   -5.8620   18.5740  -33.6460 C   0  0  0  0  0  0  0  0  0  0  0  0
   -6.2780   17.3050  -33.1650 C   0  0  0  0  0  0  0  0  0  0  0  0
   -5.3240   16.3290  -32.8910 C   0  0  0  0  0  0  0  0  0  0  0  0
   -3.9740   16.5420  -33.0680 C   0  0  0  0  0  0  0  0  0  0  0  0
   -3.5690   17.7780  -33.5350 C   0  0  0  0  0  0  0  0  0  0  0  0
   -1.7200   18.1840  -33.8170 Br  0  0  0  0  0  0  0  0  0  0  0  0
   -4.4730   18.7950  -33.8290 C   0  0  0  0  0  0  0  0  0  0  0  0
   -8.7490   20.0770  -33.0490 N   0  0  0  0  0  0  0  0  0  0  0  0
   -9.5970   20.7850  -32.2970 C   0  0  0  0  0  0  0  0  0  0  0  0
   -9.1210   21.7930  -31.5620 N   0  0  0  0  0  0  0  0  0  0  0  0
   -7.8010   22.0540  -31.6080 C   0  0  0  0  0  0  0  0  0  0  0  0
   -7.3400   23.0930  -30.8450 C   0  0  0  0  0  0  0  0  0  0  0  0
   -6.0000   23.3690  -30.8850 C   0  0  0  0  0  0  0  0  0  0  0  0
   -5.3700   24.8210  -29.8170 Br  0  0  0  0  0  0  0  0  0  0  0  0
   -2.7274   21.0808  -27.1831 H   0  0  0  0  0  0  0  0  0  0  0  0
   -3.5768   20.6348  -28.7018 H   0  0  0  0  0  0  0  0  0  0  0  0
   -1.7944   20.8579  -28.7018 H   0  0  0  0  0  0  0  0  0  0  0  0
   -3.9683   22.8219  -28.9248 H   0  0  0  0  0  0  0  0  0  0  0  0
   -2.6641   23.2237  -27.6856 H   0  0  0  0  0  0  0  0  0  0  0  0
   -0.3547   23.5376  -28.5654 H   0  0  0  0  0  0  0  0  0  0  0  0
   -0.5891   24.4613  -30.1318 H   0  0  0  0  0  0  0  0  0  0  0  0
   -1.4727   25.0929  -27.3790 H   0  0  0  0  0  0  0  0  0  0  0  0
   -0.9388   26.1565  -28.7245 H   0  0  0  0  0  0  0  0  0  0  0  0
   -2.6002   25.4736  -28.7245 H   0  0  0  0  0  0  0  0  0  0  0  0
   -0.7105   22.7211  -31.0627 H   0  0  0  0  0  0  0  0  0  0  0  0
   -1.4652   21.3276  -30.1436 H   0  0  0  0  0  0  0  0  0  0  0  0
   -2.1227   22.2003  -32.7088 H   0  0  0  0  0  0  0  0  0  0  0  0
   -3.0322   21.0584  -31.6667 H   0  0  0  0  0  0  0  0  0  0  0  0
   -3.4710   24.0600  -31.5210 H   0  0  0  0  0  0  0  0  0  0  0  0
   -4.8870   21.0339  -33.0285 H   0  0  0  0  0  0  0  0  0  0  0  0
   -7.3464   17.0944  -33.0099 H   0  0  0  0  0  0  0  0  0  0  0  0
   -5.6606   15.3501  -32.5189 H   0  0  0  0  0  0  0  0  0  0  0  0
   -3.2414   15.7525  -32.8445 H   0  0  0  0  0  0  0  0  0  0  0  0
   -4.1119   19.7650  -34.2013 H   0  0  0  0  0  0  0  0  0  0  0  0
   -9.1800   19.2910  -33.6110 H   0  0  0  0  0  0  0  0  0  0  0  0
  -10.6696   20.5414  -32.2837 H   0  0  0  0  0  0  0  0  0  0  0  0
   -8.0239   23.6864  -30.2204 H   0  0  0  0  0  0  0  0  0  0  0  0
  1  2  1  0
  2  3  1  0
  3  4  1  0
  4  5  1  0
  3  6  1  0
  6  7  1  0
  7  8  1  0
  8  9  1  0
  9 10  2  0
 10 11  1  0
 11 12  1  0
 12 13  2  0
 13 14  1  0
 14 15  2  0
 15 16  1  0
 16 17  2  0
 17 18  1  0
 18 19  1  0
 18 20  2  0
 12 21  1  0
 21 22  1  0
 22 23  2  0
 23 24  1  0
 24 25  1  0
 25 26  2  0
 26 27  1  0
 26  9  1  0
 24 11  2  0
 20 14  1  0
  1 28  1  0
  1 29  1  0
  1 30  1  0
  2 31  1  0
  2 32  1  0
  4 33  1  0
  4 34  1  0
  5 35  1  0
  5 36  1  0
  5 37  1  0
  6 38  1  0
  6 39  1  0
  7 40  1  0
  7 41  1  0
  8 42  1  0
 10 43  1  0
 15 44  1  0
 16 45  1  0
 17 46  1  0
 20 47  1  0
 21 48  1  0
 22 49  1  0
 25 50  1  0
M  END
>  <smiles>  (27) 
CCN(CC)CCNc1cc2c(=Nc3cccc(Br)c3)[nH]cnc2cc1Br

>  <score_type>  (27) 
oracle

>  <origin>  (27) 
adg

>  <m_score__min__energy>  (27) 
-9.4800000000000004

>  <m_primary>  (27) 
energy

$$$$
27:0
     RDKit          3D

 53 56  0  0  0  0  0  0  0  0999 V2000
   -1.2380   19.8630  -28.3160 C   0  0  0  0  0  0  0  0  0  0  0  0
   -1.4620   20.2140  -29.7850 C   0  0  0  0  0  0  0  0  0  0  0  0
   -2.1560   21.5140  -29.9090 N   0  0  0  0  0  0  0  0  0  0  0  0
   -1.5980   22.5800  -29.2540 C   0  0  0  0  0  0  0  0  0  0  0  0
   -2.1760   23.8560  -29.2890 C   0  0  0  0  0  0  0  0  0  0  0  0
   -1.5230   24.9820  -28.5730 C   0  0  0  0  0  0  0  0  0  0  0  0
   -1.2310   26.0240  -29.2190 O   0  0  0  0  0  0  0  0  0  0  0  0
   -1.1800   24.9060  -27.1280 C   0  0  0  0  0  0  0  0  0  0  0  0
   -0.8320   23.6800  -26.5280 C   0  0  0  0  0  0  0  0  0  0  0  0
   -0.5020   23.6250  -25.1720 C   0  0  0  0  0  0  0  0  0  0  0  0
   -0.5240   24.7860  -24.3970 C   0  0  0  0  0  0  0  0  0  0  0  0
   -0.8880   26.0110  -24.9650 C   0  0  0  0  0  0  0  0  0  0  0  0
   -0.9030   27.1470  -24.1410 O   0  0  0  0  0  0  0  0  0  0  0  0
    0.1480   27.5070  -23.2460 C   0  0  0  0  0  0  0  0  0  0  0  0
   -1.2230   26.0660  -26.3330 C   0  0  0  0  0  0  0  0  0  0  0  0
   -3.3400   24.0490  -30.0430 C   0  0  0  0  0  0  0  0  0  0  0  0
   -3.8490   25.2000  -30.1250 O   0  0  0  0  0  0  0  0  0  0  0  0
   -3.9410   22.9600  -30.6980 C   0  0  0  0  0  0  0  0  0  0  0  0
   -5.1320   23.1310  -31.4290 C   0  0  0  0  0  0  0  0  0  0  0  0
   -5.7420   22.0500  -32.0600 C   0  0  0  0  0  0  0  0  0  0  0  0
   -6.8760   22.2500  -32.7800 F   0  0  0  0  0  0  0  0  0  0  0  0
   -5.1790   20.7720  -31.9620 C   0  0  0  0  0  0  0  0  0  0  0  0
   -5.8060   19.6530  -32.6050 N   0  0  0  0  0  0  0  0  0  0  0  0
   -6.9660   19.0420  -31.9400 C   0  0  0  0  0  0  0  0  0  0  0  0
   -7.6220   17.9690  -32.8080 C   0  0  0  0  0  0  0  0  0  0  0  0
   -6.6410   17.1640  -33.4270 O   0  0  0  0  0  0  0  0  0  0  0  0
   -5.9800   17.9320  -34.4100 C   0  0  0  0  0  0  0  0  0  0  0  0
   -5.1400   19.0480  -33.7700 C   0  0  0  0  0  0  0  0  0  0  0  0
   -3.9860   20.5850  -31.2480 C   0  0  0  0  0  0  0  0  0  0  0  0
   -3.3390   21.6720  -30.6090 C   0  0  0  0  0  0  0  0  0  0  0  0
   -1.7210   20.6198  -27.6804 H   0  0  0  0  0  0  0  0  0  0  0  0
   -1.6729   18.8750  -28.1046 H   0  0  0  0  0  0  0  0  0  0  0  0
   -0.1587   19.8413  -28.1046 H   0  0  0  0  0  0  0  0  0  0  0  0
   -0.4892   20.2733  -30.2950 H   0  0  0  0  0  0  0  0  0  0  0  0
   -2.0857   19.4335  -30.2452 H   0  0  0  0  0  0  0  0  0  0  0  0
   -0.6692   22.4299  -28.6840 H   0  0  0  0  0  0  0  0  0  0  0  0
   -0.8201   22.7602  -27.1312 H   0  0  0  0  0  0  0  0  0  0  0  0
   -0.2241   22.6645  -24.7135 H   0  0  0  0  0  0  0  0  0  0  0  0
   -0.2531   24.7369  -23.3320 H   0  0  0  0  0  0  0  0  0  0  0  0
   -0.1974   27.3887  -22.2084 H   0  0  0  0  0  0  0  0  0  0  0  0
    1.0169   26.8553  -23.4198 H   0  0  0  0  0  0  0  0  0  0  0  0
    0.4348   28.5546  -23.4198 H   0  0  0  0  0  0  0  0  0  0  0  0
   -1.5207   27.0245  -26.7831 H   0  0  0  0  0  0  0  0  0  0  0  0
   -5.5860   24.1303  -31.5025 H   0  0  0  0  0  0  0  0  0  0  0  0
   -6.6340   18.5826  -30.9973 H   0  0  0  0  0  0  0  0  0  0  0  0
   -7.7086   19.8325  -31.7566 H   0  0  0  0  0  0  0  0  0  0  0  0
   -8.2640   17.3363  -32.1775 H   0  0  0  0  0  0  0  0  0  0  0  0
   -8.2218   18.4608  -33.5880 H   0  0  0  0  0  0  0  0  0  0  0  0
   -5.3187   17.2751  -34.9941 H   0  0  0  0  0  0  0  0  0  0  0  0
   -6.7381   18.3947  -35.0590 H   0  0  0  0  0  0  0  0  0  0  0  0
   -4.1777   18.6246  -33.4465 H   0  0  0  0  0  0  0  0  0  0  0  0
   -4.9999   19.8369  -34.5237 H   0  0  0  0  0  0  0  0  0  0  0  0
   -3.5459   19.5790  -31.1831 H   0  0  0  0  0  0  0  0  0  0  0  0
  1  2  1  0
  2  3  1  0
  3  4  1  0
  4  5  2  0
  5  6  1  0
  6  7  2  0
  6  8  1  0
  8  9  2  0
  9 10  1  0
 10 11  2  0
 11 12  1  0
 12 13  1  0
 13 14  1  0
 12 15  2  0
  5 16  1  0
 16 17  2  0
 16 18  1  0
 18 19  2  0
 19 20  1  0
 20 21  1  0
 20 22  2  0
 22 23  1  0
 23 24  1  0
 24 25  1  0
 25 26  1  0
 26 27  1  0
 27 28  1  0
 22 29  1  0
 29 30  2  0
 30  3  1  0
 15  8  1  0
 30 18  1  0
 28 23  1  0
  1 31  1  0
  1 32  1  0
  1 33  1  0
  2 34  1  0
  2 35  1  0
  4 36  1  0
  9 37  1  0
 10 38  1  0
 11 39  1  0
 14 40  1  0
 14 41  1  0
 14 42  1  0
 15 43  1  0
 19 44  1  0
 24 45  1  0
 24 46  1  0
 25 47  1  0
 25 48  1  0
 27 49  1  0
 27 50  1  0
 28 51  1  0
 28 52  1  0
 29 53  1  0
M  END
>  <UniqueID>  (28) 
27

>  <SMILES>  (28) 
CCn1cc(C(=O)c2cccc(OC)c2)c(=O)c2cc(F)c(N3CCOCC3)cc21

>  <Energy>  (28) 
78.64863605388176

>  <Genealogy>  (28) 
CCn1cc(C(=O)c2cccc(OC)c2)c(=O)c2cc(F)c(N3CCOCC3)cc21 (3D coordinates assigned)
CCn1cc(C(=O)c2cccc(OC)c2)c(=O)c2cc(F)c(N3CCOCC3)cc21 (nonaromatic ring conformer: 78.64863605388176 kcal/mol)

>  <smiles>  (28) 
CCn1cc(C(=O)c2cccc(OC)c2)c(=O)c2cc(F)c(N3CCOCC3)cc21

>  <score_type>  (28) 
oracle

>  <origin>  (28) 
adg

>  <m_score__min__energy>  (28) 
-8.8699999999999992

>  <m_primary>  (28) 
energy

$$$$
28:0
     RDKit          3D

 39 39  0  0  0  0  0  0  0  0999 V2000
   -5.6330   24.5580  -30.8340 C   0  0  0  0  0  0  0  0  0  0  0  0
   -6.9610   23.9110  -30.4510 C   0  0  0  0  0  0  0  0  0  0  0  0
   -7.0080   22.5170  -30.9450 N   0  0  0  0  0  0  0  0  0  0  0  0
   -6.5250   22.4050  -32.3410 C   0  0  0  0  0  0  0  0  0  0  0  0
   -5.3630   21.4190  -32.4490 C   0  0  0  0  0  0  0  0  0  0  0  0
   -8.3290   21.8790  -30.7170 C   0  0  0  0  0  0  0  0  0  0  0  0
   -9.2500   21.8580  -31.9640 C   0  0  0  0  0  0  0  0  0  0  0  0
   -9.6340   20.4300  -32.3720 C   0  0  0  0  0  0  0  0  0  0  0  0
   -8.5100   19.7670  -33.0300 N   0  0  0  0  0  0  0  0  0  0  0  0
   -7.7280   18.7520  -32.3790 C   0  0  0  0  0  0  0  0  0  0  0  0
   -7.9480   18.4790  -31.1660 O   0  0  0  0  0  0  0  0  0  0  0  0
   -6.6530   18.0270  -33.1000 C   0  0  0  0  0  0  0  0  0  0  0  0
   -6.1360   16.8120  -32.6110 C   0  0  0  0  0  0  0  0  0  0  0  0
   -5.1190   16.1460  -33.3030 C   0  0  0  0  0  0  0  0  0  0  0  0
   -4.6030   16.6850  -34.4840 C   0  0  0  0  0  0  0  0  0  0  0  0
   -3.2140   15.7730  -35.4240 Br  0  0  0  0  0  0  0  0  0  0  0  0
   -5.1000   17.8960  -34.9710 C   0  0  0  0  0  0  0  0  0  0  0  0
   -6.1160   18.5660  -34.2840 C   0  0  0  0  0  0  0  0  0  0  0  0
   -5.0799   24.8275  -29.9221 H   0  0  0  0  0  0  0  0  0  0  0  0
   -5.0375   23.8490  -31.4280 H   0  0  0  0  0  0  0  0  0  0  0  0
   -5.8243   25.4639  -31.4280 H   0  0  0  0  0  0  0  0  0  0  0  0
   -7.0642   23.9127  -29.3559 H   0  0  0  0  0  0  0  0  0  0  0  0
   -7.7842   24.4821  -30.9051 H   0  0  0  0  0  0  0  0  0  0  0  0
   -7.3507   22.0570  -32.9790 H   0  0  0  0  0  0  0  0  0  0  0  0
   -6.1720   23.3946  -32.6667 H   0  0  0  0  0  0  0  0  0  0  0  0
   -5.0282   21.1349  -31.4404 H   0  0  0  0  0  0  0  0  0  0  0  0
   -5.6932   20.5213  -32.9922 H   0  0  0  0  0  0  0  0  0  0  0  0
   -4.5310   21.8909  -32.9922 H   0  0  0  0  0  0  0  0  0  0  0  0
   -8.1595   20.8406  -30.3962 H   0  0  0  0  0  0  0  0  0  0  0  0
   -8.8436   22.4827  -29.9549 H   0  0  0  0  0  0  0  0  0  0  0  0
  -10.1673   22.4212  -31.7373 H   0  0  0  0  0  0  0  0  0  0  0  0
   -8.6993   22.3134  -32.8003 H   0  0  0  0  0  0  0  0  0  0  0  0
   -9.9155   19.8601  -31.4742 H   0  0  0  0  0  0  0  0  0  0  0  0
  -10.4807   20.4753  -33.0728 H   0  0  0  0  0  0  0  0  0  0  0  0
   -8.2700   20.0700  -34.0000 H   0  0  0  0  0  0  0  0  0  0  0  0
   -6.5342   16.3840  -31.6792 H   0  0  0  0  0  0  0  0  0  0  0  0
   -4.7244   15.1949  -32.9160 H   0  0  0  0  0  0  0  0  0  0  0  0
   -4.6905   18.3237  -35.8980 H   0  0  0  0  0  0  0  0  0  0  0  0
   -6.4988   19.5217  -34.6715 H   0  0  0  0  0  0  0  0  0  0  0  0
  1  2  1  0
  2  3  1  0
  3  4  1  0
  4  5  1  0
  3  6  1  0
  6  7  1  0
  7  8  1  0
  8  9  1  0
  9 10  1  0
 10 11  2  0
 10 12  1  0
 12 13  2  0
 13 14  1  0
 14 15  2  0
 15 16  1  0
 15 17  1  0
 17 18  2  0
 18 12  1  0
  1 19  1  0
  1 20  1  0
  1 21  1  0
  2 22  1  0
  2 23  1  0
  4 24  1  0
  4 25  1  0
  5 26  1  0
  5 27  1  0
  5 28  1  0
  6 29  1  0
  6 30  1  0
  7 31  1  0
  7 32  1  0
  8 33  1  0
  8 34  1  0
  9 35  1  0
 13 36  1  0
 14 37  1  0
 17 38  1  0
 18 39  1  0
M  END
>  <UniqueID>  (29) 
28

>  <SMILES>  (29) 
CCN(CC)CCCNC(=O)c1ccc(Br)cc1

>  <Energy>  (29) 
37.111065004937046

>  <Genealogy>  (29) 
CCN(CC)CCCNC(=O)c1ccc(Br)cc1 (3D coordinates assigned)
CCN(CC)CCCNC(=O)c1ccc(Br)cc1 (optimized conformer: 37.111065004937046 kcal/mol)

>  <smiles>  (29) 
CCN(CC)CCCNC(=O)c1ccc(Br)cc1

>  <score_type>  (29) 
oracle

>  <origin>  (29) 
adg

>  <m_score__min__energy>  (29) 
-6.7999999999999998

>  <m_primary>  (29) 
energy

$$$$
29:0
     RDKit          3D

 54 55  0  0  0  0  0  0  0  0999 V2000
   -2.3300   15.7410  -35.4780 C   0  0  0  0  0  0  0  0  0  0  0  0
   -3.8150   16.0560  -35.2620 C   0  0  0  0  0  0  0  0  0  0  0  0
   -4.0560   16.7700  -33.9790 N   0  0  0  0  0  0  0  0  0  0  0  0
   -2.7810   17.3270  -33.4500 C   0  0  0  0  0  0  0  0  0  0  0  0
   -2.7590   18.8600  -33.4850 C   0  0  0  0  0  0  0  0  0  0  0  0
   -4.6690   15.8490  -32.9810 C   0  0  0  0  0  0  0  0  0  0  0  0
   -5.6740   16.5650  -32.0670 C   0  0  0  0  0  0  0  0  0  0  0  0
   -5.5210   17.9750  -32.1940 O   0  0  0  0  0  0  0  0  0  0  0  0
   -6.4280   18.7730  -32.8960 C   0  0  0  0  0  0  0  0  0  0  0  0
   -6.4980   18.7040  -34.1550 O   0  0  0  0  0  0  0  0  0  0  0  0
   -7.3450   19.6880  -32.1330 C   0  0  2  0  0  0  0  0  0  0  0  0
   -8.5720   20.0580  -32.9760 C   0  0  0  0  0  0  0  0  0  0  0  0
   -6.6020   20.9150  -31.6340 C   0  0  0  0  0  0  0  0  0  0  0  0
   -7.2900   22.0340  -31.1290 C   0  0  0  0  0  0  0  0  0  0  0  0
   -6.5900   23.1600  -30.6870 C   0  0  0  0  0  0  0  0  0  0  0  0
   -5.1880   23.2020  -30.7600 C   0  0  0  0  0  0  0  0  0  0  0  0
   -4.4320   24.3830  -30.2760 C   0  0  0  0  0  0  0  0  0  0  0  0
   -4.5740   25.4830  -30.8780 O   0  0  0  0  0  0  0  0  0  0  0  0
   -3.5090   24.3170  -29.1160 C   0  0  0  0  0  0  0  0  0  0  0  0
   -3.9820   24.4810  -27.8000 C   0  0  0  0  0  0  0  0  0  0  0  0
   -3.0980   24.4280  -26.7190 C   0  0  0  0  0  0  0  0  0  0  0  0
   -1.7320   24.2240  -26.9380 C   0  0  0  0  0  0  0  0  0  0  0  0
   -0.5270   24.1540  -25.4570 Br  0  0  0  0  0  0  0  0  0  0  0  0
   -1.2490   24.0780  -28.2410 C   0  0  0  0  0  0  0  0  0  0  0  0
   -2.1310   24.1290  -29.3260 C   0  0  0  0  0  0  0  0  0  0  0  0
   -4.4990   22.0840  -31.2580 C   0  0  0  0  0  0  0  0  0  0  0  0
   -5.1990   20.9570  -31.6990 C   0  0  0  0  0  0  0  0  0  0  0  0
   -1.8320   15.6354  -34.5029 H   0  0  0  0  0  0  0  0  0  0  0  0
   -2.2327   14.8022  -36.0430 H   0  0  0  0  0  0  0  0  0  0  0  0
   -1.8600   16.5594  -36.0430 H   0  0  0  0  0  0  0  0  0  0  0  0
   -4.1676   16.6875  -36.0908 H   0  0  0  0  0  0  0  0  0  0  0  0
   -4.3614   15.1020  -35.2260 H   0  0  0  0  0  0  0  0  0  0  0  0
   -4.7180   17.5630  -34.1600 H   0  0  0  0  0  0  0  0  0  0  0  0
   -2.6543   16.9947  -32.4091 H   0  0  0  0  0  0  0  0  0  0  0  0
   -1.9630   16.9632  -34.0892 H   0  0  0  0  0  0  0  0  0  0  0  0
   -2.7534   19.2502  -32.4565 H   0  0  0  0  0  0  0  0  0  0  0  0
   -1.8559   19.2018  -34.0118 H   0  0  0  0  0  0  0  0  0  0  0  0
   -3.6520   19.2276  -34.0118 H   0  0  0  0  0  0  0  0  0  0  0  0
   -5.1908   15.0428  -33.5175 H   0  0  0  0  0  0  0  0  0  0  0  0
   -3.8612   15.4532  -32.3479 H   0  0  0  0  0  0  0  0  0  0  0  0
   -6.6968   16.2811  -32.3555 H   0  0  0  0  0  0  0  0  0  0  0  0
   -5.4888   16.2719  -31.0231 H   0  0  0  0  0  0  0  0  0  0  0  0
   -7.7098   19.1510  -31.2450 H   0  0  0  0  0  0  0  0  0  0  0  0
   -9.4110   20.3110  -32.3111 H   0  0  0  0  0  0  0  0  0  0  0  0
   -8.3332   20.9241  -33.6107 H   0  0  0  0  0  0  0  0  0  0  0  0
   -8.8518   19.2043  -33.6107 H   0  0  0  0  0  0  0  0  0  0  0  0
   -8.3889   22.0223  -31.0817 H   0  0  0  0  0  0  0  0  0  0  0  0
   -7.1413   24.0199  -30.2788 H   0  0  0  0  0  0  0  0  0  0  0  0
   -5.0539   24.6519  -27.6217 H   0  0  0  0  0  0  0  0  0  0  0  0
   -3.4775   24.5470  -25.6934 H   0  0  0  0  0  0  0  0  0  0  0  0
   -0.1738   23.9227  -28.4140 H   0  0  0  0  0  0  0  0  0  0  0  0
   -1.7441   24.0213  -30.3501 H   0  0  0  0  0  0  0  0  0  0  0  0
   -3.3999   22.0952  -31.3014 H   0  0  0  0  0  0  0  0  0  0  0  0
   -4.6462   20.0950  -32.1007 H   0  0  0  0  0  0  0  0  0  0  0  0
  1  2  1  0
  2  3  1  0
  3  4  1  0
  4  5  1  0
  3  6  1  0
  6  7  1  0
  7  8  1  0
  8  9  1  0
  9 10  2  0
  9 11  1  0
 11 12  1  0
 11 13  1  0
 13 14  2  0
 14 15  1  0
 15 16  2  0
 16 17  1  0
 17 18  2  0
 17 19  1  0
 19 20  2  0
 20 21  1  0
 21 22  2  0
 22 23  1  0
 22 24  1  0
 24 25  2  0
 16 26  1  0
 26 27  2  0
 27 13  1  0
 25 19  1  0
  1 28  1  0
  1 29  1  0
  1 30  1  0
  2 31  1  0
  2 32  1  0
  3 33  1  0
  4 34  1  0
  4 35  1  0
  5 36  1  0
  5 37  1  0
  5 38  1  0
  6 39  1  0
  6 40  1  0
  7 41  1  0
  7 42  1  0
 11 43  1  1
 12 44  1  0
 12 45  1  0
 12 46  1  0
 14 47  1  0
 15 48  1  0
 20 49  1  0
 21 50  1  0
 24 51  1  0
 25 52  1  0
 26 53  1  0
 27 54  1  0
M  CHG  1   3   1
M  END
>  <UniqueID>  (30) 
29

>  <SMILES>  (30) 
CC[NH+](CC)CCOC(=O)[C@H](C)c1ccc(C(=O)c2ccc(Br)cc2)cc1

>  <Energy>  (30) 
56.839561471553935

>  <Genealogy>  (30) 
CC[NH+](CC)CCOC(=O)C(C)c1ccc(C(=O)c2ccc(Br)cc2)cc1 (protonated)
CC[NH+](CC)CCOC(=O)[C@H](C)c1ccc(C(=O)c2ccc(Br)cc2)cc1 (chirality)
CC[NH+](CC)CCOC(=O)[C@H](C)c1ccc(C(=O)c2ccc(Br)cc2)cc1 (3D coordinates assigned)
CC[NH+](CC)CCOC(=O)[C@H](C)c1ccc(C(=O)c2ccc(Br)cc2)cc1 (optimized conformer: 56.839561471553935 kcal/mol)

>  <smiles>  (30) 
CCN(CC)CCOC(=O)C(C)c1ccc(C(=O)c2ccc(Br)cc2)cc1

>  <score_type>  (30) 
oracle

>  <origin>  (30) 
adg

>  <m_score__min__energy>  (30) 
-9.3699999999999992

>  <m_primary>  (30) 
energy

$$$$
30:0
     RDKit          3D

 39 42  0  0  0  0  0  0  0  0999 V2000
   -5.7340   26.1580  -30.4670 C   0  0  0  0  0  0  0  0  0  0  0  0
   -4.4020   25.6650  -30.5770 O   0  0  0  0  0  0  0  0  0  0  0  0
   -3.9640   24.4340  -30.0640 C   0  0  0  0  0  0  0  0  0  0  0  0
   -4.7060   23.2560  -30.2250 C   0  0  0  0  0  0  0  0  0  0  0  0
   -4.2150   22.0480  -29.7410 C   0  0  0  0  0  0  0  0  0  0  0  0
   -2.9900   21.9920  -29.0650 C   0  0  0  0  0  0  0  0  0  0  0  0
   -2.2650   23.1820  -28.8080 C   0  0  0  0  0  0  0  0  0  0  0  0
   -2.7380   24.3930  -29.3830 C   0  0  0  0  0  0  0  0  0  0  0  0
   -1.9880   25.5620  -29.3370 O   0  0  0  0  0  0  0  0  0  0  0  0
   -0.9610   23.0860  -28.0730 C   0  0  0  0  0  0  0  0  0  0  0  0
   -0.2950   24.1990  -27.5140 C   0  0  0  0  0  0  0  0  0  0  0  0
    1.0300   24.0870  -27.0730 C   0  0  0  0  0  0  0  0  0  0  0  0
    1.7110   22.8730  -27.1950 C   0  0  0  0  0  0  0  0  0  0  0  0
    1.0350   21.7470  -27.6750 C   0  0  0  0  0  0  0  0  0  0  0  0
   -0.3250   21.8350  -27.9810 C   0  0  0  0  0  0  0  0  0  0  0  0
   -1.0020   20.5420  -28.3290 C   0  0  1  0  0  0  0  0  0  0  0  0
   -2.5270   20.6530  -28.5450 C   0  0  0  0  0  0  0  0  0  0  0  0
   -0.2640   19.8740  -29.4260 N   0  0  0  0  0  0  0  0  0  0  0  0
   -0.3750   20.5970  -30.7100 C   0  0  0  0  0  0  0  0  0  0  0  0
    1.1700   19.6230  -29.0740 C   0  0  0  0  0  0  0  0  0  0  0  0
    1.7180   20.4140  -27.8440 C   0  0  0  0  0  0  0  0  0  0  0  0
   -6.0017   26.2571  -29.4047 H   0  0  0  0  0  0  0  0  0  0  0  0
   -5.8026   27.1411  -30.9557 H   0  0  0  0  0  0  0  0  0  0  0  0
   -6.4261   25.4565  -30.9557 H   0  0  0  0  0  0  0  0  0  0  0  0
   -5.6797   23.2869  -30.7357 H   0  0  0  0  0  0  0  0  0  0  0  0
   -4.7958   21.1259  -29.8910 H   0  0  0  0  0  0  0  0  0  0  0  0
   -0.8207   25.1611  -27.4242 H   0  0  0  0  0  0  0  0  0  0  0  0
    1.5357   24.9573  -26.6294 H   0  0  0  0  0  0  0  0  0  0  0  0
    2.7725   22.8035  -26.9151 H   0  0  0  0  0  0  0  0  0  0  0  0
   -0.9502   19.8860  -27.4476 H   0  0  0  0  0  0  0  0  0  0  0  0
   -2.8286   19.8808  -29.2680 H   0  0  0  0  0  0  0  0  0  0  0  0
   -2.9930   20.5231  -27.5571 H   0  0  0  0  0  0  0  0  0  0  0  0
   -0.5393   21.6671  -30.5152 H   0  0  0  0  0  0  0  0  0  0  0  0
    0.5536   20.4673  -31.2853 H   0  0  0  0  0  0  0  0  0  0  0  0
   -1.2219   20.1948  -31.2853 H   0  0  0  0  0  0  0  0  0  0  0  0
    1.2822   18.5495  -28.8618 H   0  0  0  0  0  0  0  0  0  0  0  0
    1.7545   19.9727  -29.9377 H   0  0  0  0  0  0  0  0  0  0  0  0
    1.5551   19.8147  -26.9361 H   0  0  0  0  0  0  0  0  0  0  0  0
    2.7887   20.6017  -28.0126 H   0  0  0  0  0  0  0  0  0  0  0  0
  1  2  1  0
  2  3  1  0
  3  4  2  0
  4  5  1  0
  5  6  2  0
  6  7  1  0
  7  8  2  0
  8  9  1  0
  7 10  1  0
 10 11  2  0
 11 12  1  0
 12 13  2  0
 13 14  1  0
 14 15  2  0
 15 16  1  0
 16 17  1  0
 16 18  1  0
 18 19  1  0
 18 20  1  0
 20 21  1  0
  8  3  1  0
 15 10  1  0
 17  6  1  0
 21 14  1  0
  1 22  1  0
  1 23  1  0
  1 24  1  0
  4 25  1  0
  5 26  1  0
 11 27  1  0
 12 28  1  0
 13 29  1  0
 16 30  1  1
 17 31  1  0
 17 32  1  0
 19 33  1  0
 19 34  1  0
 19 35  1  0
 20 36  1  0
 20 37  1  0
 21 38  1  0
 21 39  1  0
M  CHG  1   9  -1
M  END
>  <UniqueID>  (31) 
30

>  <SMILES>  (31) 
COc1ccc2c(c1[O-])-c1cccc3c1[C@@H](C2)N(C)CC3

>  <Energy>  (31) 
73.25903174760242

>  <Genealogy>  (31) 
COc1ccc2c(c1[O-])-c1cccc3c1C(C2)N(C)CC3 (protonated)
COc1ccc2c(c1[O-])-c1cccc3c1[C@@H](C2)N(C)CC3 (chirality)
COc1ccc2c(c1[O-])-c1cccc3c1[C@@H](C2)N(C)CC3 (3D coordinates assigned)
COc1ccc2c(c1[O-])-c1cccc3c1[C@@H](C2)N(C)CC3 (nonaromatic ring conformer: 73.25903174760242 kcal/mol)

>  <smiles>  (31) 
COc1ccc2c(c1O)-c1cccc3c1C(C2)N(C)CC3

>  <score_type>  (31) 
oracle

>  <origin>  (31) 
adg

>  <m_score__min__energy>  (31) 
-9.4900000000000002

>  <m_primary>  (31) 
energy

$$$$
31:0
     RDKit          3D

 48 52  0  0  0  0  0  0  0  0999 V2000
   -4.0940   20.0970  -33.5880 O   0  0  0  0  0  0  0  0  0  0  0  0
   -5.2010   19.6760  -33.1510 C   0  0  0  0  0  0  0  0  0  0  0  0
   -5.6130   18.2860  -33.5030 C   0  0  0  0  0  0  0  0  0  0  0  0
   -4.7240   17.4650  -34.2300 C   0  0  0  0  0  0  0  0  0  0  0  0
   -5.0760   16.1590  -34.5780 C   0  0  0  0  0  0  0  0  0  0  0  0
   -6.3190   15.6480  -34.2100 C   0  0  0  0  0  0  0  0  0  0  0  0
   -7.2130   16.4430  -33.4920 C   0  0  0  0  0  0  0  0  0  0  0  0
   -6.8680   17.7550  -33.1370 C   0  0  0  0  0  0  0  0  0  0  0  0
   -8.0280   18.7120  -32.2480 S   0  0  0  0  0  0  0  0  0  0  0  0
   -8.4050   17.9900  -30.9850 O   0  0  0  0  0  0  0  0  0  0  0  0
   -9.2450   18.9410  -33.0990 O   0  0  0  0  0  0  0  0  0  0  0  0
   -7.3040   20.2490  -31.8420 C   0  0  0  0  0  0  0  0  0  0  0  0
   -8.0380   21.1480  -31.0550 C   0  0  0  0  0  0  0  0  0  0  0  0
   -7.5010   22.3840  -30.7070 C   0  0  0  0  0  0  0  0  0  0  0  0
   -6.2150   22.7320  -31.1280 C   0  0  0  0  0  0  0  0  0  0  0  0
   -5.6420   24.0370  -30.7700 C   0  0  0  0  0  0  0  0  0  0  0  0
   -6.3240   25.2320  -30.8600 C   0  0  0  0  0  0  0  0  0  0  0  0
   -5.4120   26.1820  -30.4530 C   0  0  0  0  0  0  0  0  0  0  0  0
   -4.2460   25.5850  -30.1380 N   0  0  0  0  0  0  0  0  0  0  0  0
   -4.3790   24.2820  -30.3390 N   0  0  0  0  0  0  0  0  0  0  0  0
   -3.2860   23.3390  -30.0480 C   0  0  0  0  0  0  0  0  0  0  0  0
   -2.7310   22.6600  -31.3120 C   0  0  0  0  0  0  0  0  0  0  0  0
   -1.4640   21.8450  -30.9870 C   0  0  0  0  0  0  0  0  0  0  0  0
   -1.5000   21.1890  -29.5890 C   0  0  0  0  0  0  0  0  0  0  0  0
   -2.9340   20.9740  -29.0860 C   0  0  0  0  0  0  0  0  0  0  0  0
   -3.7040   22.3050  -28.9730 C   0  0  0  0  0  0  0  0  0  0  0  0
   -5.4900   21.8530  -31.9440 C   0  0  0  0  0  0  0  0  0  0  0  0
   -6.0170   20.5940  -32.3030 C   0  0  0  0  0  0  0  0  0  0  0  0
   -3.7408   17.8592  -34.5264 H   0  0  0  0  0  0  0  0  0  0  0  0
   -4.3706   15.5326  -35.1437 H   0  0  0  0  0  0  0  0  0  0  0  0
   -6.5950   14.6194  -34.4851 H   0  0  0  0  0  0  0  0  0  0  0  0
   -8.1941   16.0383  -33.2028 H   0  0  0  0  0  0  0  0  0  0  0  0
   -9.0460   20.8743  -30.7100 H   0  0  0  0  0  0  0  0  0  0  0  0
   -8.0896   23.0876  -30.0999 H   0  0  0  0  0  0  0  0  0  0  0  0
   -7.3630   25.3914  -31.1840 H   0  0  0  0  0  0  0  0  0  0  0  0
   -5.6066   27.2631  -30.3943 H   0  0  0  0  0  0  0  0  0  0  0  0
   -2.4584   23.9343  -29.6347 H   0  0  0  0  0  0  0  0  0  0  0  0
   -3.4965   21.9864  -31.7247 H   0  0  0  0  0  0  0  0  0  0  0  0
   -2.4699   23.4388  -32.0436 H   0  0  0  0  0  0  0  0  0  0  0  0
   -1.3560   21.0521  -31.7418 H   0  0  0  0  0  0  0  0  0  0  0  0
   -0.6156   22.5451  -30.9961 H   0  0  0  0  0  0  0  0  0  0  0  0
   -0.9933   20.2141  -29.6421 H   0  0  0  0  0  0  0  0  0  0  0  0
   -0.9933   21.8658  -28.8853 H   0  0  0  0  0  0  0  0  0  0  0  0
   -3.4634   20.3144  -29.7894 H   0  0  0  0  0  0  0  0  0  0  0  0
   -2.8821   20.5217  -28.0846 H   0  0  0  0  0  0  0  0  0  0  0  0
   -4.7788   22.0988  -29.0841 H   0  0  0  0  0  0  0  0  0  0  0  0
   -3.4687   22.7389  -27.9899 H   0  0  0  0  0  0  0  0  0  0  0  0
   -4.4957   22.1487  -32.3100 H   0  0  0  0  0  0  0  0  0  0  0  0
  1  2  2  0
  2  3  1  0
  3  4  2  0
  4  5  1  0
  5  6  2  0
  6  7  1  0
  7  8  2  0
  8  9  1  0
  9 10  2  0
  9 11  2  0
  9 12  1  0
 12 13  2  0
 13 14  1  0
 14 15  2  0
 15 16  1  0
 16 17  2  0
 17 18  1  0
 18 19  2  0
 19 20  1  0
 20 21  1  0
 21 22  1  0
 22 23  1  0
 23 24  1  0
 24 25  1  0
 25 26  1  0
 15 27  1  0
 27 28  2  0
 28  2  1  0
  8  3  1  0
 28 12  1  0
 20 16  1  0
 26 21  1  0
  4 29  1  0
  5 30  1  0
  6 31  1  0
  7 32  1  0
 13 33  1  0
 14 34  1  0
 17 35  1  0
 18 36  1  0
 21 37  1  0
 22 38  1  0
 22 39  1  0
 23 40  1  0
 23 41  1  0
 24 42  1  0
 24 43  1  0
 25 44  1  0
 25 45  1  0
 26 46  1  0
 26 47  1  0
 27 48  1  0
M  END
>  <UniqueID>  (32) 
31

>  <SMILES>  (32) 
O=C1c2ccccc2S(=O)(=O)c2ccc(-c3ccnn3C3CCCCC3)cc21

>  <Energy>  (32) 
102.10441665233141

>  <Genealogy>  (32) 
O=C1c2ccccc2S(=O)(=O)c2ccc(-c3ccnn3C3CCCCC3)cc21 (3D coordinates assigned)
O=C1c2ccccc2S(=O)(=O)c2ccc(-c3ccnn3C3CCCCC3)cc21 (nonaromatic ring conformer: 102.10441665233141 kcal/mol)

>  <smiles>  (32) 
O=C1c2ccccc2S(=O)(=O)c2ccc(-c3ccnn3C3CCCCC3)cc21

>  <score_type>  (32) 
oracle

>  <origin>  (32) 
adg

>  <m_score__min__energy>  (32) 
-9.9600000000000009

>  <m_primary>  (32) 
energy

$$$$
32:0
     RDKit          3D

 60 63  0  0  0  0  0  0  0  0999 V2000
   -5.7470   25.6340  -30.3420 C   0  0  0  0  0  0  0  0  0  0  0  0
   -4.4500   25.1160  -30.6270 O   0  0  0  0  0  0  0  0  0  0  0  0
   -4.1540   23.7520  -30.7880 C   0  0  0  0  0  0  0  0  0  0  0  0
   -4.4950   23.0490  -31.9620 C   0  0  0  0  0  0  0  0  0  0  0  0
   -4.2430   21.6720  -32.0750 C   0  0  0  0  0  0  0  0  0  0  0  0
   -4.6960   20.9180  -33.3020 C   0  0  0  0  0  0  0  0  0  0  0  0
   -5.9230   20.1480  -33.0130 N   0  0  0  0  0  0  0  0  0  0  0  0
   -5.7980   18.6790  -33.0680 C   0  0  0  0  0  0  0  0  0  0  0  0
   -7.1410   17.9740  -32.8860 C   0  0  0  0  0  0  0  0  0  0  0  0
   -7.8150   18.4690  -31.6100 C   0  0  0  0  0  0  0  0  0  0  0  0
   -8.0060   19.9570  -31.6720 C   0  0  0  0  0  0  0  0  0  0  0  0
   -9.0890   20.5450  -31.0000 C   0  0  0  0  0  0  0  0  0  0  0  0
   -9.3040   21.9210  -31.0790 C   0  0  0  0  0  0  0  0  0  0  0  0
   -8.4440   22.7170  -31.8340 C   0  0  0  0  0  0  0  0  0  0  0  0
   -7.3480   22.1470  -32.4870 C   0  0  0  0  0  0  0  0  0  0  0  0
   -7.0840   20.7640  -32.3810 C   0  0  0  0  0  0  0  0  0  0  0  0
   -3.6330   20.9970  -31.0050 C   0  0  0  0  0  0  0  0  0  0  0  0
   -3.3700   19.6680  -31.0820 F   0  0  0  0  0  0  0  0  0  0  0  0
   -3.2830   21.6880  -29.8450 C   0  0  0  0  0  0  0  0  0  0  0  0
   -3.5150   23.0670  -29.7370 C   0  0  0  0  0  0  0  0  0  0  0  0
   -3.1760   23.7550  -28.4750 C   0  0  0  0  0  0  0  0  0  0  0  0
   -4.2370   24.2280  -27.6840 C   0  0  0  0  0  0  0  0  0  0  0  0
   -3.9910   24.9030  -26.4890 C   0  0  0  0  0  0  0  0  0  0  0  0
   -2.6820   25.1160  -26.0660 C   0  0  0  0  0  0  0  0  0  0  0  0
   -1.6140   24.6500  -26.8330 C   0  0  0  0  0  0  0  0  0  0  0  0
   -1.8370   23.9580  -28.0390 C   0  0  0  0  0  0  0  0  0  0  0  0
   -0.6230   23.4320  -28.8010 C   0  0  0  0  0  0  0  0  0  0  0  0
   -0.1470   22.0700  -28.4070 N   0  0  0  0  0  0  0  0  0  0  0  0
   -0.1770   21.1280  -29.5390 C   0  0  0  0  0  0  0  0  0  0  0  0
   -0.8350   21.4850  -27.2410 C   0  0  0  0  0  0  0  0  0  0  0  0
   -5.8881   25.6903  -29.2525 H   0  0  0  0  0  0  0  0  0  0  0  0
   -5.8438   26.6398  -30.7768 H   0  0  0  0  0  0  0  0  0  0  0  0
   -6.5100   24.9716  -30.7768 H   0  0  0  0  0  0  0  0  0  0  0  0
   -4.9642   23.5858  -32.7996 H   0  0  0  0  0  0  0  0  0  0  0  0
   -4.9003   21.6339  -34.1118 H   0  0  0  0  0  0  0  0  0  0  0  0
   -3.9012   20.2201  -33.6040 H   0  0  0  0  0  0  0  0  0  0  0  0
   -5.3800   18.3962  -34.0454 H   0  0  0  0  0  0  0  0  0  0  0  0
   -5.1404   18.3668  -32.2433 H   0  0  0  0  0  0  0  0  0  0  0  0
   -7.7877   18.1916  -33.7488 H   0  0  0  0  0  0  0  0  0  0  0  0
   -6.9749   16.8891  -32.8120 H   0  0  0  0  0  0  0  0  0  0  0  0
   -8.7947   17.9805  -31.5029 H   0  0  0  0  0  0  0  0  0  0  0  0
   -7.1782   18.2231  -30.7474 H   0  0  0  0  0  0  0  0  0  0  0  0
   -9.7716   19.9176  -30.4081 H   0  0  0  0  0  0  0  0  0  0  0  0
  -10.1512   22.3774  -30.5461 H   0  0  0  0  0  0  0  0  0  0  0  0
   -8.6289   23.7982  -31.9160 H   0  0  0  0  0  0  0  0  0  0  0  0
   -6.6834   22.7828  -33.0904 H   0  0  0  0  0  0  0  0  0  0  0  0
   -2.8206   21.1462  -29.0068 H   0  0  0  0  0  0  0  0  0  0  0  0
   -5.2741   24.0637  -28.0116 H   0  0  0  0  0  0  0  0  0  0  0  0
   -4.8317   25.2673  -25.8803 H   0  0  0  0  0  0  0  0  0  0  0  0
   -2.4894   25.6527  -25.1253 H   0  0  0  0  0  0  0  0  0  0  0  0
   -0.5834   24.8255  -26.4910 H   0  0  0  0  0  0  0  0  0  0  0  0
   -0.8820   23.4029  -29.8697 H   0  0  0  0  0  0  0  0  0  0  0  0
    0.2019   24.1183  -28.5590 H   0  0  0  0  0  0  0  0  0  0  0  0
    0.8610   22.1620  -28.1360 H   0  0  0  0  0  0  0  0  0  0  0  0
   -0.2098   20.0969  -29.1572 H   0  0  0  0  0  0  0  0  0  0  0  0
   -1.0695   21.3204  -30.1526 H   0  0  0  0  0  0  0  0  0  0  0  0
    0.7259   21.2632  -30.1526 H   0  0  0  0  0  0  0  0  0  0  0  0
   -0.3814   21.8707  -26.3161 H   0  0  0  0  0  0  0  0  0  0  0  0
   -1.9002   21.7582  -27.2686 H   0  0  0  0  0  0  0  0  0  0  0  0
   -0.7366   20.3898  -27.2686 H   0  0  0  0  0  0  0  0  0  0  0  0
  1  2  1  0
  2  3  1  0
  3  4  2  0
  4  5  1  0
  5  6  1  0
  6  7  1  0
  7  8  1  0
  8  9  1  0
  9 10  1  0
 10 11  1  0
 11 12  2  0
 12 13  1  0
 13 14  2  0
 14 15  1  0
 15 16  2  0
  5 17  2  0
 17 18  1  0
 17 19  1  0
 19 20  2  0
 20 21  1  0
 21 22  2  0
 22 23  1  0
 23 24  2  0
 24 25  1  0
 25 26  2  0
 26 27  1  0
 27 28  1  0
 28 29  1  0
 28 30  1  0
 20  3  1  0
 26 21  1  0
 16  7  1  0
 16 11  1  0
  1 31  1  0
  1 32  1  0
  1 33  1  0
  4 34  1  0
  6 35  1  0
  6 36  1  0
  8 37  1  0
  8 38  1  0
  9 39  1  0
  9 40  1  0
 10 41  1  0
 10 42  1  0
 12 43  1  0
 13 44  1  0
 14 45  1  0
 15 46  1  0
 19 47  1  0
 22 48  1  0
 23 49  1  0
 24 50  1  0
 25 51  1  0
 27 52  1  0
 27 53  1  0
 28 54  1  0
 29 55  1  0
 29 56  1  0
 29 57  1  0
 30 58  1  0
 30 59  1  0
 30 60  1  0
M  CHG  1  28   1
M  END
>  <UniqueID>  (33) 
32

>  <SMILES>  (33) 
COc1cc(CN2CCCc3ccccc32)c(F)cc1-c1ccccc1C[NH+](C)C

>  <Energy>  (33) 
79.98608102700787

>  <Genealogy>  (33) 
COc1cc(CN2CCCc3ccccc32)c(F)cc1-c1ccccc1C[NH+](C)C (protonated)
COc1cc(CN2CCCc3ccccc32)c(F)cc1-c1ccccc1C[NH+](C)C (3D coordinates assigned)
COc1cc(CN2CCCc3ccccc32)c(F)cc1-c1ccccc1C[NH+](C)C (nonaromatic ring conformer: 79.98608102700787 kcal/mol)

>  <smiles>  (33) 
COc1cc(CN2CCCc3ccccc32)c(F)cc1-c1ccccc1CN(C)C

>  <score_type>  (33) 
oracle

>  <origin>  (33) 
adg

>  <m_score__min__energy>  (33) 
-8.8300000000000001

>  <m_primary>  (33) 
energy

$$$$
33:0
     RDKit          3D

 53 56  0  0  0  0  0  0  0  0999 V2000
    1.2940   29.1870  -24.0850 C   0  0  0  0  0  0  0  0  0  0  0  0
    0.2870   28.3160  -24.1980 C   0  0  0  0  0  0  0  0  0  0  0  0
    0.1020   27.1750  -23.2190 C   0  0  0  0  0  0  0  0  0  0  0  0
    0.0130   25.8470  -23.8750 N   0  0  0  0  0  0  0  0  0  0  0  0
   -1.0270   25.8300  -24.9370 C   0  0  0  0  0  0  0  0  0  0  0  0
   -0.8850   24.6100  -25.8540 C   0  0  0  0  0  0  0  0  0  0  0  0
    0.4500   24.5950  -26.4680 N   0  0  0  0  0  0  0  0  0  0  0  0
    0.6460   24.0360  -27.7810 C   0  0  0  0  0  0  0  0  0  0  0  0
    1.5140   24.5390  -28.5470 O   0  0  0  0  0  0  0  0  0  0  0  0
   -0.1380   22.8710  -28.2500 C   0  0  0  0  0  0  0  0  0  0  0  0
   -0.8970   22.9640  -29.4280 C   0  0  0  0  0  0  0  0  0  0  0  0
   -1.6620   21.8740  -29.8760 C   0  0  0  0  0  0  0  0  0  0  0  0
   -2.4700   21.9880  -31.1440 C   0  0  0  0  0  0  0  0  0  0  0  0
   -3.5340   23.0510  -31.0180 C   0  0  0  0  0  0  0  0  0  0  0  0
   -3.1440   24.2930  -30.6250 N   0  0  0  0  0  0  0  0  0  0  0  0
   -4.0100   25.2900  -30.4520 N   0  0  0  0  0  0  0  0  0  0  0  0
   -5.3410   25.1230  -30.6540 C   0  0  0  0  0  0  0  0  0  0  0  0
   -6.1180   26.1000  -30.4780 O   0  0  0  0  0  0  0  0  0  0  0  0
   -5.8280   23.8690  -31.0550 C   0  0  0  0  0  0  0  0  0  0  0  0
   -7.2040   23.6540  -31.2690 C   0  0  0  0  0  0  0  0  0  0  0  0
   -7.6670   22.3990  -31.6650 C   0  0  0  0  0  0  0  0  0  0  0  0
   -6.7710   21.3480  -31.8530 C   0  0  0  0  0  0  0  0  0  0  0  0
   -5.4030   21.5450  -31.6450 C   0  0  0  0  0  0  0  0  0  0  0  0
   -4.9120   22.8040  -31.2420 C   0  0  0  0  0  0  0  0  0  0  0  0
   -1.6510   20.6790  -29.1400 C   0  0  0  0  0  0  0  0  0  0  0  0
   -0.9140   20.5880  -27.9570 C   0  0  0  0  0  0  0  0  0  0  0  0
   -0.1660   21.6790  -27.5050 C   0  0  0  0  0  0  0  0  0  0  0  0
    0.5490   21.5590  -26.3590 F   0  0  0  0  0  0  0  0  0  0  0  0
    1.5410   25.3330  -25.8230 C   0  0  0  0  0  0  0  0  0  0  0  0
    1.3470   25.3280  -24.3010 C   0  0  0  0  0  0  0  0  0  0  0  0
    1.3987   30.0042  -24.8138 H   0  0  0  0  0  0  0  0  0  0  0  0
    2.0183   29.0868  -23.2632 H   0  0  0  0  0  0  0  0  0  0  0  0
   -0.4282   28.4309  -25.0258 H   0  0  0  0  0  0  0  0  0  0  0  0
    0.9574   27.1662  -22.5275 H   0  0  0  0  0  0  0  0  0  0  0  0
   -0.8513   27.3450  -22.6971 H   0  0  0  0  0  0  0  0  0  0  0  0
   -0.3300   25.1930  -23.1290 H   0  0  0  0  0  0  0  0  0  0  0  0
   -2.0194   25.8055  -24.4631 H   0  0  0  0  0  0  0  0  0  0  0  0
   -0.9038   26.7347  -25.5504 H   0  0  0  0  0  0  0  0  0  0  0  0
   -1.0247   23.6924  -25.2636 H   0  0  0  0  0  0  0  0  0  0  0  0
   -1.6461   24.6635  -26.6464 H   0  0  0  0  0  0  0  0  0  0  0  0
   -0.8925   23.8999  -30.0059 H   0  0  0  0  0  0  0  0  0  0  0  0
   -1.7986   22.2488  -31.9754 H   0  0  0  0  0  0  0  0  0  0  0  0
   -2.9621   21.0224  -31.3321 H   0  0  0  0  0  0  0  0  0  0  0  0
   -7.9163   24.4794  -31.1232 H   0  0  0  0  0  0  0  0  0  0  0  0
   -8.7427   22.2384  -31.8294 H   0  0  0  0  0  0  0  0  0  0  0  0
   -7.1416   20.3607  -32.1660 H   0  0  0  0  0  0  0  0  0  0  0  0
   -4.7029   20.7103  -31.7971 H   0  0  0  0  0  0  0  0  0  0  0  0
   -2.2250   19.8108  -29.4962 H   0  0  0  0  0  0  0  0  0  0  0  0
   -0.9222   19.6528  -27.3779 H   0  0  0  0  0  0  0  0  0  0  0  0
    2.5005   24.8551  -26.0699 H   0  0  0  0  0  0  0  0  0  0  0  0
    1.5389   26.3718  -26.1848 H   0  0  0  0  0  0  0  0  0  0  0  0
    1.4517   24.2946  -23.9389 H   0  0  0  0  0  0  0  0  0  0  0  0
    2.1089   25.9959  -23.8727 H   0  0  0  0  0  0  0  0  0  0  0  0
  1  2  2  0
  2  3  1  0
  3  4  1  0
  4  5  1  0
  5  6  1  0
  6  7  1  0
  7  8  1  0
  8  9  2  0
  8 10  1  0
 10 11  2  0
 11 12  1  0
 12 13  1  0
 13 14  1  0
 14 15  2  0
 15 16  1  0
 16 17  1  0
 17 18  2  0
 17 19  1  0
 19 20  2  0
 20 21  1  0
 21 22  2  0
 22 23  1  0
 23 24  2  0
 12 25  2  0
 25 26  1  0
 26 27  2  0
 27 28  1  0
  7 29  1  0
 29 30  1  0
 30  4  1  0
 27 10  1  0
 24 14  1  0
 24 19  1  0
  1 31  1  0
  1 32  1  0
  2 33  1  0
  3 34  1  0
  3 35  1  0
  4 36  1  0
  5 37  1  0
  5 38  1  0
  6 39  1  0
  6 40  1  0
 11 41  1  0
 13 42  1  0
 13 43  1  0
 20 44  1  0
 21 45  1  0
 22 46  1  0
 23 47  1  0
 25 48  1  0
 26 49  1  0
 29 50  1  0
 29 51  1  0
 30 52  1  0
 30 53  1  0
M  CHG  2   4   1  16  -1
M  END
>  <UniqueID>  (34) 
33

>  <SMILES>  (34) 
C=CC[NH+]1CCN(C(=O)c2cc(Cc3n[n-]c(=O)c4ccccc34)ccc2F)CC1

>  <Energy>  (34) 
76.15111248337554

>  <Genealogy>  (34) 
C=CC[NH+]1CCN(C(=O)c2cc(Cc3n[n-]c(=O)c4ccccc34)ccc2F)CC1 (protonated)
C=CC[NH+]1CCN(C(=O)c2cc(Cc3n[n-]c(=O)c4ccccc34)ccc2F)CC1 (3D coordinates assigned)
C=CC[NH+]1CCN(C(=O)c2cc(Cc3n[n-]c(=O)c4ccccc34)ccc2F)CC1 (nonaromatic ring conformer: 76.15111248337554 kcal/mol)

>  <smiles>  (34) 
C=CCN1CCN(C(=O)c2cc(Cc3n[nH]c(=O)c4ccccc34)ccc2F)CC1

>  <score_type>  (34) 
oracle

>  <origin>  (34) 
adg

>  <m_score__min__energy>  (34) 
-11.16

>  <m_primary>  (34) 
energy

$$$$
34:0
     RDKit          3D

 46 46  0  0  0  0  0  0  0  0999 V2000
   -7.1790   18.1150  -31.8850 C   0  0  0  0  0  0  0  0  0  0  0  0
   -8.5490   18.7590  -31.6920 C   0  0  0  0  0  0  0  0  0  0  0  0
   -8.7010   20.0820  -32.4500 C   0  0  0  0  0  0  0  0  0  0  0  0
   -8.8720   21.1810  -31.5520 O   0  0  0  0  0  0  0  0  0  0  0  0
   -7.9270   22.1780  -31.2600 C   0  0  0  0  0  0  0  0  0  0  0  0
   -7.3380   22.8550  -32.3340 C   0  0  0  0  0  0  0  0  0  0  0  0
   -6.3890   23.8570  -32.1140 C   0  0  0  0  0  0  0  0  0  0  0  0
   -6.0110   24.2070  -30.8070 C   0  0  0  0  0  0  0  0  0  0  0  0
   -5.0020   25.2650  -30.5720 C   0  0  0  0  0  0  0  0  0  0  0  0
   -5.3620   26.4680  -30.4530 O   0  0  0  0  0  0  0  0  0  0  0  0
   -3.6120   24.9300  -30.4820 N   0  0  0  0  0  0  0  0  0  0  0  0
   -3.0510   24.1650  -29.3760 C   0  0  0  0  0  0  0  0  0  0  0  0
   -3.1850   22.6500  -29.6390 C   0  0  0  0  0  0  0  0  0  0  0  0
   -3.3830   22.2710  -31.0660 N   0  0  0  0  0  0  0  0  0  0  0  0
   -2.1230   21.9030  -31.7630 C   0  0  0  0  0  0  0  0  0  0  0  0
   -0.9710   21.6020  -30.7950 C   0  0  0  0  0  0  0  0  0  0  0  0
   -4.4010   21.1930  -31.2030 C   0  0  0  0  0  0  0  0  0  0  0  0
   -4.6330   20.7890  -32.6640 C   0  0  0  0  0  0  0  0  0  0  0  0
   -6.6060   23.5320  -29.7260 C   0  0  0  0  0  0  0  0  0  0  0  0
   -7.5550   22.5300  -29.9480 C   0  0  0  0  0  0  0  0  0  0  0  0
   -6.7311   17.9045  -30.9026 H   0  0  0  0  0  0  0  0  0  0  0  0
   -7.2913   17.1753  -32.4458 H   0  0  0  0  0  0  0  0  0  0  0  0
   -6.5271   18.8010  -32.4458 H   0  0  0  0  0  0  0  0  0  0  0  0
   -9.3187   18.0595  -32.0501 H   0  0  0  0  0  0  0  0  0  0  0  0
   -8.6609   18.9793  -30.6201 H   0  0  0  0  0  0  0  0  0  0  0  0
   -7.7994   20.2525  -33.0567 H   0  0  0  0  0  0  0  0  0  0  0  0
   -9.5942   20.0145  -33.0885 H   0  0  0  0  0  0  0  0  0  0  0  0
   -7.6255   22.5953  -33.3635 H   0  0  0  0  0  0  0  0  0  0  0  0
   -5.9344   24.3757  -32.9709 H   0  0  0  0  0  0  0  0  0  0  0  0
   -1.9868   24.4195  -29.2637 H   0  0  0  0  0  0  0  0  0  0  0  0
   -3.6015   24.4151  -28.4571 H   0  0  0  0  0  0  0  0  0  0  0  0
   -2.2680   22.1595  -29.2803 H   0  0  0  0  0  0  0  0  0  0  0  0
   -4.0920   22.3261  -29.1075 H   0  0  0  0  0  0  0  0  0  0  0  0
   -3.7620   23.1290  -31.5350 H   0  0  0  0  0  0  0  0  0  0  0  0
   -2.3092   21.0087  -32.3758 H   0  0  0  0  0  0  0  0  0  0  0  0
   -1.8217   22.7646  -32.3769 H   0  0  0  0  0  0  0  0  0  0  0  0
   -1.3287   21.6955  -29.7590 H   0  0  0  0  0  0  0  0  0  0  0  0
   -0.6063   20.5784  -30.9661 H   0  0  0  0  0  0  0  0  0  0  0  0
   -0.1522   22.3164  -30.9661 H   0  0  0  0  0  0  0  0  0  0  0  0
   -4.0584   20.3105  -30.6428 H   0  0  0  0  0  0  0  0  0  0  0  0
   -5.3522   21.5782  -30.8069 H   0  0  0  0  0  0  0  0  0  0  0  0
   -5.1805   19.8356  -32.6983 H   0  0  0  0  0  0  0  0  0  0  0  0
   -5.2213   21.5681  -33.1709 H   0  0  0  0  0  0  0  0  0  0  0  0
   -3.6636   20.6736  -33.1709 H   0  0  0  0  0  0  0  0  0  0  0  0
   -6.3219   23.7950  -28.6964 H   0  0  0  0  0  0  0  0  0  0  0  0
   -8.0142   22.0131  -29.0925 H   0  0  0  0  0  0  0  0  0  0  0  0
  1  2  1  0
  2  3  1  0
  3  4  1  0
  4  5  1  0
  5  6  2  0
  6  7  1  0
  7  8  2  0
  8  9  1  0
  9 10  2  0
  9 11  1  0
 11 12  1  0
 12 13  1  0
 13 14  1  0
 14 15  1  0
 15 16  1  0
 14 17  1  0
 17 18  1  0
  8 19  1  0
 19 20  2  0
 20  5  1  0
  1 21  1  0
  1 22  1  0
  1 23  1  0
  2 24  1  0
  2 25  1  0
  3 26  1  0
  3 27  1  0
  6 28  1  0
  7 29  1  0
 12 30  1  0
 12 31  1  0
 13 32  1  0
 13 33  1  0
 14 34  1  0
 15 35  1  0
 15 36  1  0
 16 37  1  0
 16 38  1  0
 16 39  1  0
 17 40  1  0
 17 41  1  0
 18 42  1  0
 18 43  1  0
 18 44  1  0
 19 45  1  0
 20 46  1  0
M  CHG  2  11  -1  14   1
M  END
>  <UniqueID>  (35) 
34

>  <SMILES>  (35) 
CCCOc1ccc(C(=O)[N-]CC[NH+](CC)CC)cc1

>  <Energy>  (35) 
41.81133834387947

>  <Genealogy>  (35) 
CCCOc1ccc(C(=O)[N-]CC[NH+](CC)CC)cc1 (protonated)
CCCOc1ccc(C(=O)[N-]CC[NH+](CC)CC)cc1 (3D coordinates assigned)
CCCOc1ccc(C(=O)[N-]CC[NH+](CC)CC)cc1 (optimized conformer: 41.81133834387947 kcal/mol)

>  <smiles>  (35) 
CCCOc1ccc(C(=O)NCCN(CC)CC)cc1

>  <score_type>  (35) 
oracle

>  <origin>  (35) 
adg

>  <m_score__min__energy>  (35) 
-6.9199999999999999

>  <m_primary>  (35) 
energy

$$$$
35:0
     RDKit          3D

 34 35  0  0  0  0  0  0  0  0999 V2000
   -9.3780   21.6140  -31.1700 C   0  0  0  0  0  0  0  0  0  0  0  0
   -9.0360   20.7280  -32.2970 C   0  0  0  0  0  0  0  0  0  0  0  0
   -7.8720   19.8440  -32.2100 C   0  0  0  0  0  0  0  0  0  0  0  0
   -6.6000   20.0740  -32.1990 C   0  0  0  0  0  0  0  0  0  0  0  0
   -5.7230   20.8620  -33.0690 C   0  0  0  0  0  0  0  0  0  0  0  0
   -4.8560   21.7210  -32.2660 N   0  0  0  0  0  0  0  0  0  0  0  0
   -3.6090   21.3120  -31.9100 C   0  0  0  0  0  0  0  0  0  0  0  0
   -3.0660   22.3050  -31.1800 N   0  0  0  0  0  0  0  0  0  0  0  0
   -3.9490   23.3140  -31.0800 C   0  0  0  0  0  0  0  0  0  0  0  0
   -3.8980   24.5210  -30.4640 N   0  0  0  0  0  0  0  0  0  0  0  0
   -4.9860   25.3340  -30.5510 C   0  0  0  0  0  0  0  0  0  0  0  0
   -6.0970   24.9680  -31.2270 N   0  0  0  0  0  0  0  0  0  0  0  0
   -6.1920   23.7790  -31.8520 C   0  0  0  0  0  0  0  0  0  0  0  0
   -7.2390   23.4400  -32.4870 N   0  0  0  0  0  0  0  0  0  0  0  0
   -5.0970   22.9460  -31.7710 C   0  0  0  0  0  0  0  0  0  0  0  0
   -8.2690   18.3620  -32.1130 C   0  0  0  0  0  0  0  0  0  0  0  0
   -7.1030   17.5030  -32.5290 C   0  0  0  0  0  0  0  0  0  0  0  0
   -9.1775   21.0946  -30.2213 H   0  0  0  0  0  0  0  0  0  0  0  0
   -8.7680   22.5278  -31.2238 H   0  0  0  0  0  0  0  0  0  0  0  0
  -10.4438   21.8809  -31.2238 H   0  0  0  0  0  0  0  0  0  0  0  0
   -9.9107   20.0840  -32.4706 H   0  0  0  0  0  0  0  0  0  0  0  0
   -8.7578   21.4322  -33.0949 H   0  0  0  0  0  0  0  0  0  0  0  0
   -6.0703   19.5795  -31.3714 H   0  0  0  0  0  0  0  0  0  0  0  0
   -5.1033   20.1822  -33.6721 H   0  0  0  0  0  0  0  0  0  0  0  0
   -6.3408   21.4903  -33.7275 H   0  0  0  0  0  0  0  0  0  0  0  0
   -3.1347   20.3538  -32.1687 H   0  0  0  0  0  0  0  0  0  0  0  0
   -4.9601   26.3166  -30.0571 H   0  0  0  0  0  0  0  0  0  0  0  0
   -6.9110   25.6110  -31.2740 H   0  0  0  0  0  0  0  0  0  0  0  0
   -7.2170   23.4020  -33.5370 H   0  0  0  0  0  0  0  0  0  0  0  0
   -8.5485   18.1241  -31.0760 H   0  0  0  0  0  0  0  0  0  0  0  0
   -9.1243   18.1667  -32.7765 H   0  0  0  0  0  0  0  0  0  0  0  0
   -6.5888   17.1242  -31.6334 H   0  0  0  0  0  0  0  0  0  0  0  0
   -7.4672   16.6558  -33.1286 H   0  0  0  0  0  0  0  0  0  0  0  0
   -6.4018   18.1020  -33.1286 H   0  0  0  0  0  0  0  0  0  0  0  0
  1  2  1  0
  2  3  1  0
  3  4  2  3
  4  5  1  0
  5  6  1  0
  6  7  1  0
  7  8  2  0
  8  9  1  0
  9 10  1  0
 10 11  2  0
 11 12  1  0
 12 13  1  0
 13 14  2  3
 13 15  1  0
  3 16  1  0
 16 17  1  0
 15  6  1  0
 15  9  2  0
  1 18  1  0
  1 19  1  0
  1 20  1  0
  2 21  1  0
  2 22  1  0
  4 23  1  0
  5 24  1  0
  5 25  1  0
  7 26  1  0
 11 27  1  0
 12 28  1  0
 14 29  1  0
 16 30  1  0
 16 31  1  0
 17 32  1  0
 17 33  1  0
 17 34  1  0
M  END
>  <smiles>  (36) 
CCC(=CCn1cnc2nc[nH]c(=N)c21)CC

>  <score_type>  (36) 
oracle

>  <origin>  (36) 
adg

>  <m_score__min__energy>  (36) 
-6.2199999999999998

>  <m_primary>  (36) 
energy

$$$$
36:0
     RDKit          3D

 57 59  0  0  0  0  0  0  0  0999 V2000
   -5.8150   25.3420  -31.0250 C   0  0  0  0  0  0  0  0  0  0  0  0
   -4.7210   24.4540  -30.4890 C   0  0  0  0  0  0  0  0  0  0  0  0
   -3.6130   25.0150  -30.0850 N   0  0  0  0  0  0  0  0  0  0  0  0
   -2.5380   24.2790  -29.4880 C   0  0  0  0  0  0  0  0  0  0  0  0
   -1.4320   24.9530  -28.9330 C   0  0  0  0  0  0  0  0  0  0  0  0
   -1.3540   26.3400  -28.9730 O   0  0  0  0  0  0  0  0  0  0  0  0
   -0.3990   24.2300  -28.3280 C   0  0  0  0  0  0  0  0  0  0  0  0
   -0.4590   22.8360  -28.2690 C   0  0  0  0  0  0  0  0  0  0  0  0
    0.8380   21.9320  -27.5100 Cl  0  0  0  0  0  0  0  0  0  0  0  0
   -1.5500   22.1630  -28.8210 C   0  0  0  0  0  0  0  0  0  0  0  0
   -2.5930   22.8780  -29.4360 C   0  0  0  0  0  0  0  0  0  0  0  0
   -3.7360   22.1340  -30.0790 C   0  0  2  0  0  0  0  0  0  0  0  0
   -3.2310   21.3750  -31.2920 C   0  0  0  0  0  0  0  0  0  0  0  0
   -2.1660   21.9040  -32.0450 C   0  0  0  0  0  0  0  0  0  0  0  0
   -1.7360   21.2650  -33.2120 C   0  0  0  0  0  0  0  0  0  0  0  0
   -2.3710   20.1020  -33.6470 C   0  0  0  0  0  0  0  0  0  0  0  0
   -3.4350   19.5710  -32.9140 C   0  0  0  0  0  0  0  0  0  0  0  0
   -3.8640   20.1970  -31.7400 C   0  0  0  0  0  0  0  0  0  0  0  0
   -4.9050   19.6600  -31.0560 F   0  0  0  0  0  0  0  0  0  0  0  0
   -4.8810   23.0070  -30.4310 N   0  0  0  0  0  0  0  0  0  0  0  0
   -6.2240   22.3820  -30.4510 C   0  0  0  0  0  0  0  0  0  0  0  0
   -6.6710   21.8810  -31.8390 C   0  0  0  0  0  0  0  0  0  0  0  0
   -7.9450   21.1250  -31.7820 N   0  0  0  0  0  0  0  0  0  0  0  0
   -9.0830   22.0510  -31.9480 C   0  0  0  0  0  0  0  0  0  0  0  0
   -7.9570   20.0850  -32.8400 C   0  0  0  0  0  0  0  0  0  0  0  0
   -7.6400   18.6770  -32.2980 C   0  0  0  0  0  0  0  0  0  0  0  0
   -6.8990   17.8670  -33.2910 N   0  0  0  0  0  0  0  0  0  0  0  0
   -5.9810   16.9400  -32.6110 C   0  0  0  0  0  0  0  0  0  0  0  0
   -6.1290   18.7270  -34.2090 C   0  0  0  0  0  0  0  0  0  0  0  0
   -6.3674   25.7904  -30.1860 H   0  0  0  0  0  0  0  0  0  0  0  0
   -5.3719   26.1391  -31.6400 H   0  0  0  0  0  0  0  0  0  0  0  0
   -6.5040   24.7445  -31.6400 H   0  0  0  0  0  0  0  0  0  0  0  0
   -3.5110   26.0540  -30.1580 H   0  0  0  0  0  0  0  0  0  0  0  0
    0.4630   24.7607  -27.8975 H   0  0  0  0  0  0  0  0  0  0  0  0
   -1.5943   21.0649  -28.7746 H   0  0  0  0  0  0  0  0  0  0  0  0
   -4.1244   21.4237  -29.3343 H   0  0  0  0  0  0  0  0  0  0  0  0
   -1.6682   22.8270  -31.7129 H   0  0  0  0  0  0  0  0  0  0  0  0
   -0.8957   21.6802  -33.7878 H   0  0  0  0  0  0  0  0  0  0  0  0
   -2.0340   19.6028  -34.5674 H   0  0  0  0  0  0  0  0  0  0  0  0
   -3.9374   18.6564  -33.2621 H   0  0  0  0  0  0  0  0  0  0  0  0
   -6.2151   21.5246  -29.7619 H   0  0  0  0  0  0  0  0  0  0  0  0
   -6.9390   23.1631  -30.1532 H   0  0  0  0  0  0  0  0  0  0  0  0
   -6.8041   22.7486  -32.5020 H   0  0  0  0  0  0  0  0  0  0  0  0
   -5.8934   21.2011  -32.2173 H   0  0  0  0  0  0  0  0  0  0  0  0
   -9.4560   22.3545  -30.9587 H   0  0  0  0  0  0  0  0  0  0  0  0
   -8.7535   22.9408  -32.5045 H   0  0  0  0  0  0  0  0  0  0  0  0
   -9.8873   21.5475  -32.5045 H   0  0  0  0  0  0  0  0  0  0  0  0
   -8.9544   20.0667  -33.3034 H   0  0  0  0  0  0  0  0  0  0  0  0
   -7.1735   20.3438  -33.5674 H   0  0  0  0  0  0  0  0  0  0  0  0
   -7.0292   18.7735  -31.3882 H   0  0  0  0  0  0  0  0  0  0  0  0
   -8.5911   18.1694  -32.0795 H   0  0  0  0  0  0  0  0  0  0  0  0
   -6.0895   17.0496  -31.5219 H   0  0  0  0  0  0  0  0  0  0  0  0
   -6.2217   15.9067  -32.9014 H   0  0  0  0  0  0  0  0  0  0  0  0
   -4.9454   17.1706  -32.9014 H   0  0  0  0  0  0  0  0  0  0  0  0
   -5.5070   19.4217  -33.6255 H   0  0  0  0  0  0  0  0  0  0  0  0
   -5.4837   18.1012  -34.8431 H   0  0  0  0  0  0  0  0  0  0  0  0
   -6.8220   19.2995  -34.8431 H   0  0  0  0  0  0  0  0  0  0  0  0
  1  2  1  0
  2  3  2  0
  3  4  1  0
  4  5  2  0
  5  6  1  0
  5  7  1  0
  7  8  2  0
  8  9  1  0
  8 10  1  0
 10 11  2  0
 11 12  1  0
 12 13  1  0
 13 14  2  0
 14 15  1  0
 15 16  2  0
 16 17  1  0
 17 18  2  0
 18 19  1  0
 12 20  1  0
 20 21  1  0
 21 22  1  0
 22 23  1  0
 23 24  1  0
 23 25  1  0
 25 26  1  0
 26 27  1  0
 27 28  1  0
 27 29  1  0
 20  2  1  0
 11  4  1  0
 18 13  1  0
  1 30  1  0
  1 31  1  0
  1 32  1  0
  3 33  1  0
  7 34  1  0
 10 35  1  0
 12 36  1  1
 14 37  1  0
 15 38  1  0
 16 39  1  0
 17 40  1  0
 21 41  1  0
 21 42  1  0
 22 43  1  0
 22 44  1  0
 24 45  1  0
 24 46  1  0
 24 47  1  0
 25 48  1  0
 25 49  1  0
 26 50  1  0
 26 51  1  0
 28 52  1  0
 28 53  1  0
 28 54  1  0
 29 55  1  0
 29 56  1  0
 29 57  1  0
M  CHG  2   3   1   6  -1
M  END
>  <UniqueID>  (37) 
35

>  <SMILES>  (37) 
CC1=[NH+]c2c([O-])cc(Cl)cc2[C@H](c2ccccc2F)N1CCN(C)CCN(C)C

>  <Energy>  (37) 
62.51730969856698

>  <Genealogy>  (37) 
CC1=[NH+]c2c([O-])cc(Cl)cc2C(c2ccccc2F)N1CCN(C)CCN(C)C (protonated)
CC1=[NH+]c2c([O-])cc(Cl)cc2[C@H](c2ccccc2F)N1CCN(C)CCN(C)C (chirality)
CC1=[NH+]c2c([O-])cc(Cl)cc2[C@H](c2ccccc2F)N1CCN(C)CCN(C)C (3D coordinates assigned)
CC1=[NH+]c2c([O-])cc(Cl)cc2[C@H](c2ccccc2F)N1CCN(C)CCN(C)C (nonaromatic ring conformer: 62.51730969856698 kcal/mol)

>  <smiles>  (37) 
CC1=Nc2c(O)cc(Cl)cc2C(c2ccccc2F)N1CCN(C)CCN(C)C

>  <score_type>  (37) 
oracle

>  <origin>  (37) 
adg

>  <m_score__min__energy>  (37) 
-10.08

>  <m_primary>  (37) 
energy

$$$$
37:0
     RDKit          3D

 35 36  0  0  0  0  0  0  0  0999 V2000
   -5.2504   20.0747  -32.1924 H   0  0  0  0  0  0  0  0  0  0  0  0
   -5.6790   21.0230  -31.8360 C   0  0  0  0  0  0  0  0  0  0  0  0
   -7.0550   21.2610  -31.9830 C   0  0  0  0  0  0  0  0  0  0  0  0
   -8.0850   20.0370  -32.7030 Cl  0  0  0  0  0  0  0  0  0  0  0  0
   -7.6150   22.4530  -31.5120 C   0  0  0  0  0  0  0  0  0  0  0  0
   -8.6985   22.6285  -31.5847 H   0  0  0  0  0  0  0  0  0  0  0  0
   -6.7780   23.4150  -30.9490 C   0  0  0  0  0  0  0  0  0  0  0  0
   -5.4110   23.2310  -30.8790 C   0  0  0  0  0  0  0  0  0  0  0  0
   -4.8400   21.9850  -31.2370 C   0  0  0  0  0  0  0  0  0  0  0  0
   -3.4170   21.6090  -30.9400 C   0  0  0  0  0  0  0  0  0  0  0  0
   -3.2678   21.5696  -29.8509 H   0  0  0  0  0  0  0  0  0  0  0  0
   -3.1998   20.6226  -31.3758 H   0  0  0  0  0  0  0  0  0  0  0  0
   -2.7409   22.3593  -31.3758 H   0  0  0  0  0  0  0  0  0  0  0  0
   -4.8410   24.4340  -30.2630 C   0  0  0  0  0  0  0  0  0  0  0  0
   -3.6470   24.9150  -30.4380 N   0  0  0  0  0  0  0  0  0  0  0  0
   -2.7860   25.2030  -29.4060 O   0  0  0  0  0  0  0  0  0  0  0  0
   -2.1500   24.1660  -28.6730 C   0  0  0  0  0  0  0  0  0  0  0  0
   -1.1890   24.5370  -28.2873 H   0  0  0  0  0  0  0  0  0  0  0  0
   -1.9944   23.3098  -29.3459 H   0  0  0  0  0  0  0  0  0  0  0  0
   -3.0190   23.7040  -27.4920 C   0  0  0  0  0  0  0  0  0  0  0  0
   -2.4146   23.7448  -26.5739 H   0  0  0  0  0  0  0  0  0  0  0  0
   -3.3593   22.6813  -27.7115 H   0  0  0  0  0  0  0  0  0  0  0  0
   -4.2230   24.5430  -27.3030 N   0  0  0  0  0  0  0  0  0  0  0  0
   -5.1040   23.9870  -27.3980 H   0  0  0  0  0  0  0  0  0  0  0  0
   -4.2410   25.2820  -28.0460 H   0  0  0  0  0  0  0  0  0  0  0  0
   -4.2230   25.2220  -26.0030 C   0  0  0  0  0  0  0  0  0  0  0  0
   -3.1859   25.3918  -25.6780 H   0  0  0  0  0  0  0  0  0  0  0  0
   -4.7415   26.1878  -26.0938 H   0  0  0  0  0  0  0  0  0  0  0  0
   -4.7415   24.5957  -25.2622 H   0  0  0  0  0  0  0  0  0  0  0  0
   -5.9400   25.2910  -29.7230 C   0  0  0  0  0  0  0  0  0  0  0  0
   -5.9686   25.2403  -28.6245 H   0  0  0  0  0  0  0  0  0  0  0  0
   -5.8078   26.3523  -29.9804 H   0  0  0  0  0  0  0  0  0  0  0  0
   -7.2230   24.6980  -30.3280 C   0  0  0  0  0  0  0  0  0  0  0  0
   -7.9735   24.5127  -29.5455 H   0  0  0  0  0  0  0  0  0  0  0  0
   -7.6974   25.3745  -31.0541 H   0  0  0  0  0  0  0  0  0  0  0  0
  1  2  1  0
  2  3  2  0
  3  4  1  0
  3  5  1  0
  5  6  1  0
  5  7  2  0
  7  8  1  0
  8  9  2  0
  9 10  1  0
 10 11  1  0
 10 12  1  0
 10 13  1  0
  8 14  1  0
 14 15  2  0
 15 16  1  0
 16 17  1  0
 17 18  1  0
 17 19  1  0
 17 20  1  0
 20 21  1  0
 20 22  1  0
 20 23  1  0
 23 24  1  0
 23 25  1  0
 23 26  1  0
 26 27  1  0
 26 28  1  0
 26 29  1  0
 14 30  1  0
 30 31  1  0
 30 32  1  0
 30 33  1  0
 33 34  1  0
 33 35  1  0
  9  2  1  0
 33  7  1  0
M  CHG  1  23   1
M  END
>  <UniqueID>  (38) 
36

>  <SMILES>  (38) 
C[NH2+]CCO/N=C1/CCc2cc(Cl)cc(C)c21

>  <Energy>  (38) 
51.75568765362556

>  <Genealogy>  (38) 
C[NH2+]CCON=C1CCc2cc(Cl)cc(C)c21 (protonated)
C[NH2+]CCO/N=C1/CCc2cc(Cl)cc(C)c21 (cis-trans isomerization)
C[NH2+]CCO/N=C1/CCc2cc(Cl)cc(C)c21 (3D coordinates assigned)
C[NH2+]CCO/N=C1/CCc2cc(Cl)cc(C)c21 (nonaromatic ring conformer: 51.75568765362556 kcal/mol)

>  <smiles>  (38) 
CNCCON=C1CCc2cc(Cl)cc(C)c21

>  <score_type>  (38) 
oracle

>  <origin>  (38) 
adg

>  <m_score__min__energy>  (38) 
-7.6200000000000001

>  <m_primary>  (38) 
energy

$$$$
38:0
     RDKit          3D

 49 52  0  0  0  0  0  0  0  0999 V2000
   -2.1370   18.5850  -26.6860 C   0  0  0  0  0  0  0  0  0  0  0  0
   -2.0210   19.8610  -27.4650 C   0  0  0  0  0  0  0  0  0  0  0  0
   -0.8190   20.1890  -28.1110 C   0  0  0  0  0  0  0  0  0  0  0  0
   -0.6950   21.3990  -28.7990 C   0  0  0  0  0  0  0  0  0  0  0  0
   -1.7690   22.3010  -28.8450 C   0  0  0  0  0  0  0  0  0  0  0  0
   -1.6150   23.6300  -29.5390 C   0  0  0  0  0  0  0  0  0  0  0  0
   -2.7890   24.5720  -29.2430 C   0  0  0  0  0  0  0  0  0  0  0  0
   -3.4920   24.9340  -30.4710 N   0  0  0  0  0  0  0  0  0  0  0  0
   -4.9170   25.0270  -30.5780 C   0  0  0  0  0  0  0  0  0  0  0  0
   -5.5090   26.0880  -30.2400 O   0  0  0  0  0  0  0  0  0  0  0  0
   -5.6960   23.8500  -31.0180 C   0  0  0  0  0  0  0  0  0  0  0  0
   -7.0840   23.8880  -30.8470 C   0  0  0  0  0  0  0  0  0  0  0  0
   -7.8780   22.8590  -31.3290 C   0  0  0  0  0  0  0  0  0  0  0  0
   -7.2880   21.7850  -31.9850 C   0  0  0  0  0  0  0  0  0  0  0  0
   -5.9270   21.7100  -32.1410 N   0  0  0  0  0  0  0  0  0  0  0  0
   -5.3730   20.6250  -32.7820 C   0  0  0  0  0  0  0  0  0  0  0  0
   -6.1130   19.7150  -33.2550 O   0  0  0  0  0  0  0  0  0  0  0  0
   -3.9810   20.5170  -32.9130 C   0  0  0  0  0  0  0  0  0  0  0  0
   -3.3770   19.4250  -33.5670 C   0  0  0  0  0  0  0  0  0  0  0  0
   -1.9860   19.3430  -33.6620 C   0  0  0  0  0  0  0  0  0  0  0  0
   -1.1770   20.3390  -33.0970 C   0  0  0  0  0  0  0  0  0  0  0  0
    0.3150   20.2680  -33.2340 C   0  0  0  0  0  0  0  0  0  0  0  0
   -1.7770   21.4350  -32.4620 C   0  0  0  0  0  0  0  0  0  0  0  0
   -3.1760   21.5280  -32.3640 C   0  0  0  0  0  0  0  0  0  0  0  0
   -3.7530   22.5900  -31.7410 N   0  0  0  0  0  0  0  0  0  0  0  0
   -5.1120   22.7140  -31.6490 C   0  0  0  0  0  0  0  0  0  0  0  0
   -2.9670   21.9800  -28.1850 C   0  0  0  0  0  0  0  0  0  0  0  0
   -3.0890   20.7710  -27.4940 C   0  0  0  0  0  0  0  0  0  0  0  0
   -2.1166   18.8096  -25.6094 H   0  0  0  0  0  0  0  0  0  0  0  0
   -3.0842   18.0860  -26.9386 H   0  0  0  0  0  0  0  0  0  0  0  0
   -1.2953   17.9234  -26.9386 H   0  0  0  0  0  0  0  0  0  0  0  0
    0.0297   19.4901  -28.0756 H   0  0  0  0  0  0  0  0  0  0  0  0
    0.2490   21.6456  -29.3069 H   0  0  0  0  0  0  0  0  0  0  0  0
   -0.6838   24.1042  -29.1956 H   0  0  0  0  0  0  0  0  0  0  0  0
   -1.5915   23.4465  -30.6233 H   0  0  0  0  0  0  0  0  0  0  0  0
   -3.4909   24.0689  -28.5616 H   0  0  0  0  0  0  0  0  0  0  0  0
   -2.3946   25.4893  -28.7815 H   0  0  0  0  0  0  0  0  0  0  0  0
   -7.5479   24.7392  -30.3271 H   0  0  0  0  0  0  0  0  0  0  0  0
   -8.9691   22.8922  -31.1931 H   0  0  0  0  0  0  0  0  0  0  0  0
   -7.9232   20.9814  -32.3860 H   0  0  0  0  0  0  0  0  0  0  0  0
   -4.0035   18.6338  -34.0046 H   0  0  0  0  0  0  0  0  0  0  0  0
   -1.5226   18.4922  -34.1830 H   0  0  0  0  0  0  0  0  0  0  0  0
    0.7743   20.2461  -32.2347 H   0  0  0  0  0  0  0  0  0  0  0  0
    0.5897   19.3558  -33.7839 H   0  0  0  0  0  0  0  0  0  0  0  0
    0.6751   21.1500  -33.7839 H   0  0  0  0  0  0  0  0  0  0  0  0
   -1.1470   22.2299  -32.0363 H   0  0  0  0  0  0  0  0  0  0  0  0
   -3.1220   23.2970  -31.3050 H   0  0  0  0  0  0  0  0  0  0  0  0
   -3.8126   22.6830  -28.2121 H   0  0  0  0  0  0  0  0  0  0  0  0
   -4.0264   20.5318  -26.9706 H   0  0  0  0  0  0  0  0  0  0  0  0
  1  2  1  0
  2  3  2  0
  3  4  1  0
  4  5  2  0
  5  6  1  0
  6  7  1  0
  7  8  1  0
  8  9  1  0
  9 10  2  0
  9 11  1  0
 11 12  2  0
 12 13  1  0
 13 14  2  0
 14 15  1  0
 15 16  1  0
 16 17  2  0
 16 18  1  0
 18 19  2  0
 19 20  1  0
 20 21  2  0
 21 22  1  0
 21 23  1  0
 23 24  2  0
 24 25  1  0
 25 26  2  0
  5 27  1  0
 27 28  2  0
 28  2  1  0
 26 11  1  0
 26 15  1  0
 24 18  1  0
  1 29  1  0
  1 30  1  0
  1 31  1  0
  3 32  1  0
  4 33  1  0
  6 34  1  0
  6 35  1  0
  7 36  1  0
  7 37  1  0
 12 38  1  0
 13 39  1  0
 14 40  1  0
 19 41  1  0
 20 42  1  0
 22 43  1  0
 22 44  1  0
 22 45  1  0
 23 46  1  0
 25 47  1  0
 27 48  1  0
 28 49  1  0
M  CHG  2   8  -1  25   1
M  END
>  <UniqueID>  (39) 
37

>  <SMILES>  (39) 
Cc1ccc(CC[N-]C(=O)c2cccn3c(=O)c4ccc(C)cc4[nH+]c23)cc1

>  <Energy>  (39) 
64.4852874851435

>  <Genealogy>  (39) 
Cc1ccc(CC[N-]C(=O)c2cccn3c(=O)c4ccc(C)cc4[nH+]c23)cc1 (protonated)
Cc1ccc(CC[N-]C(=O)c2cccn3c(=O)c4ccc(C)cc4[nH+]c23)cc1 (3D coordinates assigned)
Cc1ccc(CC[N-]C(=O)c2cccn3c(=O)c4ccc(C)cc4[nH+]c23)cc1 (optimized conformer: 64.4852874851435 kcal/mol)

>  <smiles>  (39) 
Cc1ccc(CCNC(=O)c2cccn3c(=O)c4ccc(C)cc4nc23)cc1

>  <score_type>  (39) 
oracle

>  <origin>  (39) 
adg

>  <m_score__min__energy>  (39) 
-10.16

>  <m_primary>  (39) 
energy

$$$$
39:0
     RDKit          3D

 32 33  0  0  0  0  0  0  0  0999 V2000
   -8.5140   22.9020  -31.9740 C   0  0  0  0  0  0  0  0  0  0  0  0
   -7.5410   21.9880  -32.4670 O   0  0  0  0  0  0  0  0  0  0  0  0
   -7.6030   20.5920  -32.3120 C   0  0  0  0  0  0  0  0  0  0  0  0
   -8.7050   19.9660  -31.6960 C   0  0  0  0  0  0  0  0  0  0  0  0
   -8.7380   18.5780  -31.5470 C   0  0  0  0  0  0  0  0  0  0  0  0
   -7.6780   17.7990  -32.0080 C   0  0  0  0  0  0  0  0  0  0  0  0
   -6.5800   18.4040  -32.6210 C   0  0  0  0  0  0  0  0  0  0  0  0
   -6.5310   19.7990  -32.7820 C   0  0  0  0  0  0  0  0  0  0  0  0
   -5.3340   20.4200  -33.4730 C   0  0  0  0  0  0  0  0  0  0  0  0
   -5.1070   21.8150  -33.0500 N   0  0  0  0  0  0  0  0  0  0  0  0
   -4.3770   21.9350  -31.7740 C   0  0  0  0  0  0  0  0  0  0  0  0
   -4.8020   23.1370  -30.9780 C   0  0  0  0  0  0  0  0  0  0  0  0
   -4.5840   23.3230  -29.6180 C   0  0  0  0  0  0  0  0  0  0  0  0
   -5.1470   24.5040  -29.1240 C   0  0  0  0  0  0  0  0  0  0  0  0
   -5.8260   25.2430  -30.0830 C   0  0  0  0  0  0  0  0  0  0  0  0
   -5.7280   24.4220  -31.5480 S   0  0  0  0  0  0  0  0  0  0  0  0
   -8.5028   22.8915  -30.8741 H   0  0  0  0  0  0  0  0  0  0  0  0
   -8.2807   23.9151  -32.3334 H   0  0  0  0  0  0  0  0  0  0  0  0
   -9.5106   22.6059  -32.3334 H   0  0  0  0  0  0  0  0  0  0  0  0
   -9.5449   20.5748  -31.3301 H   0  0  0  0  0  0  0  0  0  0  0  0
   -9.6024   18.0983  -31.0647 H   0  0  0  0  0  0  0  0  0  0  0  0
   -7.7070   16.7059  -31.8884 H   0  0  0  0  0  0  0  0  0  0  0  0
   -5.7460   17.7837  -32.9811 H   0  0  0  0  0  0  0  0  0  0  0  0
   -4.4393   19.8270  -33.2325 H   0  0  0  0  0  0  0  0  0  0  0  0
   -5.5334   20.4238  -34.5548 H   0  0  0  0  0  0  0  0  0  0  0  0
   -4.5770   22.3130  -33.8030 H   0  0  0  0  0  0  0  0  0  0  0  0
   -6.0280   22.3030  -32.9540 H   0  0  0  0  0  0  0  0  0  0  0  0
   -4.5631   21.0314  -31.1749 H   0  0  0  0  0  0  0  0  0  0  0  0
   -3.3089   22.0512  -32.0099 H   0  0  0  0  0  0  0  0  0  0  0  0
   -4.0243   22.6120  -28.9925 H   0  0  0  0  0  0  0  0  0  0  0  0
   -5.0599   24.8180  -28.0734 H   0  0  0  0  0  0  0  0  0  0  0  0
   -6.3398   26.2008  -29.9140 H   0  0  0  0  0  0  0  0  0  0  0  0
  1  2  1  0
  2  3  1  0
  3  4  2  0
  4  5  1  0
  5  6  2  0
  6  7  1  0
  7  8  2  0
  8  9  1  0
  9 10  1  0
 10 11  1  0
 11 12  1  0
 12 13  2  0
 13 14  1  0
 14 15  2  0
 15 16  1  0
  8  3  1  0
 16 12  1  0
  1 17  1  0
  1 18  1  0
  1 19  1  0
  4 20  1  0
  5 21  1  0
  6 22  1  0
  7 23  1  0
  9 24  1  0
  9 25  1  0
 10 26  1  0
 10 27  1  0
 11 28  1  0
 11 29  1  0
 13 30  1  0
 14 31  1  0
 15 32  1  0
M  CHG  1  10   1
M  END
>  <UniqueID>  (40) 
38

>  <SMILES>  (40) 
COc1ccccc1C[NH2+]Cc1cccs1

>  <Energy>  (40) 
56.89774039478599

>  <Genealogy>  (40) 
COc1ccccc1C[NH2+]Cc1cccs1 (protonated)
COc1ccccc1C[NH2+]Cc1cccs1 (3D coordinates assigned)
COc1ccccc1C[NH2+]Cc1cccs1 (optimized conformer: 56.89774039478599 kcal/mol)

>  <smiles>  (40) 
COc1ccccc1CNCc1cccs1

>  <score_type>  (40) 
oracle

>  <origin>  (40) 
adg

>  <m_score__min__energy>  (40) 
-5.4500000000000002

>  <m_primary>  (40) 
energy

$$$$
40:0
     RDKit          3D

 47 48  0  0  0  0  0  0  0  0999 V2000
   -4.2440   22.8960  -28.4380 C   0  0  0  0  0  0  0  0  0  0  0  0
   -5.3570   23.1790  -29.4440 C   0  0  0  0  0  0  0  0  0  0  0  0
   -4.7920   23.7280  -30.6980 N   0  0  0  0  0  0  0  0  0  0  0  0
   -5.0250   25.1860  -30.8010 C   0  0  0  0  0  0  0  0  0  0  0  0
   -6.1360   25.6120  -29.8430 C   0  0  0  0  0  0  0  0  0  0  0  0
   -3.3560   23.3840  -30.8550 C   0  0  0  0  0  0  0  0  0  0  0  0
   -3.1860   22.3750  -31.9910 C   0  0  0  0  0  0  0  0  0  0  0  0
   -4.4120   22.2640  -32.7860 N   0  0  0  0  0  0  0  0  0  0  0  0
   -5.1920   21.0550  -32.8560 C   0  0  0  0  0  0  0  0  0  0  0  0
   -4.6450   19.9100  -33.4600 C   0  0  0  0  0  0  0  0  0  0  0  0
   -5.3850   18.7230  -33.5630 C   0  0  0  0  0  0  0  0  0  0  0  0
   -4.8660   17.5620  -34.1580 O   0  0  0  0  0  0  0  0  0  0  0  0
   -5.5250   16.3000  -34.1740 C   0  0  0  0  0  0  0  0  0  0  0  0
   -6.6870   18.6820  -33.0660 C   0  0  0  0  0  0  0  0  0  0  0  0
   -7.2720   19.8110  -32.4610 C   0  0  0  0  0  0  0  0  0  0  0  0
   -8.5930   19.7800  -31.9500 C   0  0  0  0  0  0  0  0  0  0  0  0
   -9.4550   18.5440  -32.0280 C   0  0  0  0  0  0  0  0  0  0  0  0
   -9.1180   20.9290  -31.3480 C   0  0  0  0  0  0  0  0  0  0  0  0
   -8.3440   22.0810  -31.2560 C   0  0  0  0  0  0  0  0  0  0  0  0
   -7.0810   22.1040  -31.7530 N   0  0  0  0  0  0  0  0  0  0  0  0
   -6.5180   21.0120  -32.3570 C   0  0  0  0  0  0  0  0  0  0  0  0
   -4.6390   22.9964  -27.4163 H   0  0  0  0  0  0  0  0  0  0  0  0
   -3.8669   21.8734  -28.5864 H   0  0  0  0  0  0  0  0  0  0  0  0
   -3.4242   23.6143  -28.5864 H   0  0  0  0  0  0  0  0  0  0  0  0
   -5.8912   22.2435  -29.6662 H   0  0  0  0  0  0  0  0  0  0  0  0
   -6.0496   23.9163  -29.0119 H   0  0  0  0  0  0  0  0  0  0  0  0
   -4.0988   25.7210  -30.5441 H   0  0  0  0  0  0  0  0  0  0  0  0
   -5.3262   25.4294  -31.8306 H   0  0  0  0  0  0  0  0  0  0  0  0
   -5.7954   25.4814  -28.8052 H   0  0  0  0  0  0  0  0  0  0  0  0
   -6.3848   26.6693  -30.0170 H   0  0  0  0  0  0  0  0  0  0  0  0
   -7.0279   24.9921  -30.0170 H   0  0  0  0  0  0  0  0  0  0  0  0
   -2.7856   24.2953  -31.0877 H   0  0  0  0  0  0  0  0  0  0  0  0
   -2.9840   22.9426  -29.9187 H   0  0  0  0  0  0  0  0  0  0  0  0
   -2.3634   22.7036  -32.6432 H   0  0  0  0  0  0  0  0  0  0  0  0
   -2.9630   21.3907  -31.5535 H   0  0  0  0  0  0  0  0  0  0  0  0
   -4.6120   23.0280  -33.4700 H   0  0  0  0  0  0  0  0  0  0  0  0
   -3.6202   19.9453  -33.8583 H   0  0  0  0  0  0  0  0  0  0  0  0
   -5.7001   15.9647  -33.1411 H   0  0  0  0  0  0  0  0  0  0  0  0
   -6.4882   16.3959  -34.6966 H   0  0  0  0  0  0  0  0  0  0  0  0
   -4.8959   15.5644  -34.6966 H   0  0  0  0  0  0  0  0  0  0  0  0
   -7.2675   17.7513  -33.1479 H   0  0  0  0  0  0  0  0  0  0  0  0
   -9.6951   18.1997  -31.0112 H   0  0  0  0  0  0  0  0  0  0  0  0
  -10.3858   18.7794  -32.5648 H   0  0  0  0  0  0  0  0  0  0  0  0
   -8.9124   17.7519  -32.5648 H   0  0  0  0  0  0  0  0  0  0  0  0
  -10.1425   20.9211  -30.9476 H   0  0  0  0  0  0  0  0  0  0  0  0
   -8.7585   22.9802  -30.7769 H   0  0  0  0  0  0  0  0  0  0  0  0
   -6.5530   22.9950  -31.6410 H   0  0  0  0  0  0  0  0  0  0  0  0
  1  2  1  0
  2  3  1  0
  3  4  1  0
  4  5  1  0
  3  6  1  0
  6  7  1  0
  7  8  1  0
  8  9  1  0
  9 10  2  0
 10 11  1  0
 11 12  1  0
 12 13  1  0
 11 14  2  0
 14 15  1  0
 15 16  2  0
 16 17  1  0
 16 18  1  0
 18 19  2  0
 19 20  1  0
 20 21  2  0
 21  9  1  0
 21 15  1  0
  1 22  1  0
  1 23  1  0
  1 24  1  0
  2 25  1  0
  2 26  1  0
  4 27  1  0
  4 28  1  0
  5 29  1  0
  5 30  1  0
  5 31  1  0
  6 32  1  0
  6 33  1  0
  7 34  1  0
  7 35  1  0
  8 36  1  0
 10 37  1  0
 13 38  1  0
 13 39  1  0
 13 40  1  0
 14 41  1  0
 17 42  1  0
 17 43  1  0
 17 44  1  0
 18 45  1  0
 19 46  1  0
 20 47  1  0
M  CHG  1  20   1
M  END
>  <UniqueID>  (41) 
39

>  <SMILES>  (41) 
CCN(CC)CCNc1cc(OC)cc2c(C)cc[nH+]c12

>  <Energy>  (41) 
51.63541745722659

>  <Genealogy>  (41) 
CCN(CC)CCNc1cc(OC)cc2c(C)cc[nH+]c12 (protonated)
CCN(CC)CCNc1cc(OC)cc2c(C)cc[nH+]c12 (3D coordinates assigned)
CCN(CC)CCNc1cc(OC)cc2c(C)cc[nH+]c12 (optimized conformer: 51.63541745722659 kcal/mol)

>  <smiles>  (41) 
CCN(CC)CCNc1cc(OC)cc2c(C)ccnc12

>  <score_type>  (41) 
oracle

>  <origin>  (41) 
adg

>  <m_score__min__energy>  (41) 
-5.96

>  <m_primary>  (41) 
energy

$$$$
41:0
     RDKit          3D

 35 37  0  0  0  0  0  0  0  0999 V2000
    0.5080   27.3470  -23.3180 C   0  0  0  0  0  0  0  0  0  0  0  0
   -0.6860   26.7900  -23.5360 C   0  0  0  0  0  0  0  0  0  0  0  0
   -1.3390   26.8460  -24.8840 C   0  0  0  0  0  0  0  0  0  0  0  0
   -1.2450   25.5700  -25.5130 O   0  0  0  0  0  0  0  0  0  0  0  0
   -2.0430   25.1560  -26.5900 C   0  0  0  0  0  0  0  0  0  0  0  0
   -3.4040   24.9300  -26.3600 C   0  0  0  0  0  0  0  0  0  0  0  0
   -4.2420   24.5160  -27.4000 C   0  0  0  0  0  0  0  0  0  0  0  0
   -3.7290   24.3220  -28.6950 C   0  0  0  0  0  0  0  0  0  0  0  0
   -4.5940   23.8840  -29.8150 C   0  0  0  0  0  0  0  0  0  0  0  0
   -5.5510   22.9370  -29.7460 N   0  0  0  0  0  0  0  0  0  0  0  0
   -6.0380   22.9130  -31.0040 C   0  0  0  0  0  0  0  0  0  0  0  0
   -7.1240   22.0340  -31.4860 C   0  0  0  0  0  0  0  0  0  0  0  0
   -6.8660   20.8810  -32.2480 C   0  0  0  0  0  0  0  0  0  0  0  0
   -7.9340   20.0890  -32.6770 C   0  0  0  0  0  0  0  0  0  0  0  0
   -9.2420   20.4440  -32.3450 C   0  0  0  0  0  0  0  0  0  0  0  0
   -9.4640   21.5940  -31.5870 C   0  0  0  0  0  0  0  0  0  0  0  0
   -8.4120   22.3530  -31.1790 N   0  0  0  0  0  0  0  0  0  0  0  0
   -5.4060   23.8030  -31.7950 N   0  0  0  0  0  0  0  0  0  0  0  0
   -4.5270   24.3780  -31.0280 O   0  0  0  0  0  0  0  0  0  0  0  0
   -2.3610   24.5490  -28.9240 C   0  0  0  0  0  0  0  0  0  0  0  0
   -1.5240   24.9630  -27.8830 C   0  0  0  0  0  0  0  0  0  0  0  0
    0.9664   27.2923  -22.3195 H   0  0  0  0  0  0  0  0  0  0  0  0
    1.0331   27.8604  -24.1369 H   0  0  0  0  0  0  0  0  0  0  0  0
   -1.2011   26.2794  -22.7090 H   0  0  0  0  0  0  0  0  0  0  0  0
   -2.3980   27.1196  -24.7670 H   0  0  0  0  0  0  0  0  0  0  0  0
   -0.8314   27.5985  -25.5054 H   0  0  0  0  0  0  0  0  0  0  0  0
   -3.8188   25.0792  -25.3522 H   0  0  0  0  0  0  0  0  0  0  0  0
   -5.3101   24.3408  -27.2038 H   0  0  0  0  0  0  0  0  0  0  0  0
   -5.8420   22.3640  -28.9250 H   0  0  0  0  0  0  0  0  0  0  0  0
   -5.8325   20.6049  -32.5041 H   0  0  0  0  0  0  0  0  0  0  0  0
   -7.7439   19.1862  -33.2761 H   0  0  0  0  0  0  0  0  0  0  0  0
  -10.0881   19.8244  -32.6770 H   0  0  0  0  0  0  0  0  0  0  0  0
  -10.4900   21.8868  -31.3194 H   0  0  0  0  0  0  0  0  0  0  0  0
   -1.9449   24.3996  -29.9313 H   0  0  0  0  0  0  0  0  0  0  0  0
   -0.4554   25.1384  -28.0761 H   0  0  0  0  0  0  0  0  0  0  0  0
  1  2  2  0
  2  3  1  0
  3  4  1  0
  4  5  1  0
  5  6  2  0
  6  7  1  0
  7  8  2  0
  8  9  1  0
  9 10  2  0
 10 11  1  0
 11 12  1  0
 12 13  2  0
 13 14  1  0
 14 15  2  0
 15 16  1  0
 16 17  2  0
 11 18  2  0
 18 19  1  0
  8 20  1  0
 20 21  2  0
 21  5  1  0
 19  9  1  0
 17 12  1  0
  1 22  1  0
  1 23  1  0
  2 24  1  0
  3 25  1  0
  3 26  1  0
  6 27  1  0
  7 28  1  0
 10 29  1  0
 13 30  1  0
 14 31  1  0
 15 32  1  0
 16 33  1  0
 20 34  1  0
 21 35  1  0
M  CHG  1  10   1
M  END
>  <UniqueID>  (42) 
40

>  <SMILES>  (42) 
C=CCOc1ccc(-c2[nH+]c(-c3ccccn3)no2)cc1

>  <Energy>  (42) 
71.09306353439605

>  <Genealogy>  (42) 
C=CCOc1ccc(-c2[nH+]c(-c3ccccn3)no2)cc1 (protonated)
C=CCOc1ccc(-c2[nH+]c(-c3ccccn3)no2)cc1 (3D coordinates assigned)
C=CCOc1ccc(-c2[nH+]c(-c3ccccn3)no2)cc1 (optimized conformer: 71.09306353439605 kcal/mol)

>  <smiles>  (42) 
C=CCOc1ccc(-c2nc(-c3ccccn3)no2)cc1

>  <score_type>  (42) 
oracle

>  <origin>  (42) 
adg

>  <m_score__min__energy>  (42) 
-6.5899999999999999

>  <m_primary>  (42) 
energy

$$$$
42:0
     RDKit          3D

 50 53  0  0  0  0  0  0  0  0999 V2000
   -5.2420   15.7180  -33.0580 C   0  0  0  0  0  0  0  0  0  0  0  0
   -5.3500   16.1580  -31.5990 C   0  0  0  0  0  0  0  0  0  0  0  0
   -6.1750   17.4430  -31.4480 C   0  0  0  0  0  0  0  0  0  0  0  0
   -6.5880   17.9580  -32.7740 N   0  0  0  0  0  0  0  0  0  0  0  0
   -5.6480   18.9640  -33.3340 C   0  0  0  0  0  0  0  0  0  0  0  0
   -6.2040   20.4050  -33.3060 C   0  0  0  0  0  0  0  0  0  0  0  0
   -7.0030   20.6320  -32.0860 N   0  0  0  0  0  0  0  0  0  0  0  0
   -7.3510   22.0620  -31.8820 C   0  0  0  0  0  0  0  0  0  0  0  0
   -6.2330   22.9080  -31.2990 C   0  0  0  0  0  0  0  0  0  0  0  0
   -6.2530   24.3050  -31.4380 C   0  0  0  0  0  0  0  0  0  0  0  0
   -5.2320   25.0860  -30.8950 C   0  0  0  0  0  0  0  0  0  0  0  0
   -4.1840   24.4860  -30.1920 C   0  0  0  0  0  0  0  0  0  0  0  0
   -3.1970   25.2560  -29.6720 N   0  0  0  0  0  0  0  0  0  0  0  0
   -2.1570   24.7300  -28.9760 C   0  0  0  0  0  0  0  0  0  0  0  0
   -1.1780   25.5910  -28.4720 C   0  0  0  0  0  0  0  0  0  0  0  0
   -0.0980   25.0840  -27.7530 C   0  0  0  0  0  0  0  0  0  0  0  0
    0.0130   23.7120  -27.5330 C   0  0  0  0  0  0  0  0  0  0  0  0
   -0.9550   22.8260  -28.0260 C   0  0  0  0  0  0  0  0  0  0  0  0
   -0.6950   21.1150  -27.6820 Cl  0  0  0  0  0  0  0  0  0  0  0  0
   -2.0650   23.3290  -28.7630 C   0  0  0  0  0  0  0  0  0  0  0  0
   -3.0910   22.5060  -29.2990 C   0  0  0  0  0  0  0  0  0  0  0  0
   -3.0650   21.2550  -29.1420 O   0  0  0  0  0  0  0  0  0  0  0  0
   -4.1550   23.0870  -30.0190 C   0  0  0  0  0  0  0  0  0  0  0  0
   -5.1930   22.3080  -30.5680 C   0  0  0  0  0  0  0  0  0  0  0  0
   -8.1900   19.7400  -32.0240 C   0  0  0  0  0  0  0  0  0  0  0  0
   -7.9910   18.4140  -32.7930 C   0  0  0  0  0  0  0  0  0  0  0  0
   -4.9800   14.6505  -33.1006 H   0  0  0  0  0  0  0  0  0  0  0  0
   -6.2064   15.8792  -33.5620 H   0  0  0  0  0  0  0  0  0  0  0  0
   -4.4619   16.3074  -33.5620 H   0  0  0  0  0  0  0  0  0  0  0  0
   -5.8319   15.3560  -31.0205 H   0  0  0  0  0  0  0  0  0  0  0  0
   -4.3343   16.3596  -31.2278 H   0  0  0  0  0  0  0  0  0  0  0  0
   -7.0719   17.2281  -30.8486 H   0  0  0  0  0  0  0  0  0  0  0  0
   -5.5567   18.2041  -30.9496 H   0  0  0  0  0  0  0  0  0  0  0  0
   -4.7183   18.9375  -32.7467 H   0  0  0  0  0  0  0  0  0  0  0  0
   -5.4809   18.7007  -34.3889 H   0  0  0  0  0  0  0  0  0  0  0  0
   -5.3651   21.1162  -33.3258 H   0  0  0  0  0  0  0  0  0  0  0  0
   -6.8498   20.5521  -34.1843 H   0  0  0  0  0  0  0  0  0  0  0  0
   -6.3890   20.3860  -31.2730 H   0  0  0  0  0  0  0  0  0  0  0  0
   -7.6321   22.4890  -32.8560 H   0  0  0  0  0  0  0  0  0  0  0  0
   -8.1712   22.0816  -31.1492 H   0  0  0  0  0  0  0  0  0  0  0  0
   -7.0801   24.7877  -31.9792 H   0  0  0  0  0  0  0  0  0  0  0  0
   -5.2523   26.1786  -31.0209 H   0  0  0  0  0  0  0  0  0  0  0  0
   -1.2608   26.6743  -28.6440 H   0  0  0  0  0  0  0  0  0  0  0  0
    0.6684   25.7673  -27.3583 H   0  0  0  0  0  0  0  0  0  0  0  0
    0.8702   23.3200  -26.9659 H   0  0  0  0  0  0  0  0  0  0  0  0
   -5.1894   21.2176  -30.4228 H   0  0  0  0  0  0  0  0  0  0  0  0
   -8.3975   19.5057  -30.9695 H   0  0  0  0  0  0  0  0  0  0  0  0
   -9.0268   20.2730  -32.4990 H   0  0  0  0  0  0  0  0  0  0  0  0
   -8.6205   17.6395  -32.3305 H   0  0  0  0  0  0  0  0  0  0  0  0
   -8.2726   18.5890  -33.8418 H   0  0  0  0  0  0  0  0  0  0  0  0
  1  2  1  0
  2  3  1  0
  3  4  1  0
  4  5  1  0
  5  6  1  0
  6  7  1  0
  7  8  1  0
  8  9  1  0
  9 10  2  0
 10 11  1  0
 11 12  2  0
 12 13  1  0
 13 14  1  0
 14 15  2  0
 15 16  1  0
 16 17  2  0
 17 18  1  0
 18 19  1  0
 18 20  2  0
 20 21  1  0
 21 22  2  0
 21 23  1  0
 23 24  2  0
  7 25  1  0
 25 26  1  0
 26  4  1  0
 24  9  1  0
 23 12  1  0
 20 14  1  0
  1 27  1  0
  1 28  1  0
  1 29  1  0
  2 30  1  0
  2 31  1  0
  3 32  1  0
  3 33  1  0
  5 34  1  0
  5 35  1  0
  6 36  1  0
  6 37  1  0
  7 38  1  0
  8 39  1  0
  8 40  1  0
 10 41  1  0
 11 42  1  0
 15 43  1  0
 16 44  1  0
 17 45  1  0
 24 46  1  0
 25 47  1  0
 25 48  1  0
 26 49  1  0
 26 50  1  0
M  CHG  2   7   1  13  -1
M  END
>  <UniqueID>  (43) 
41

>  <SMILES>  (43) 
CCCN1CC[NH+](Cc2ccc3[n-]c4cccc(Cl)c4c(=O)c3c2)CC1

>  <Energy>  (43) 
77.63400810370607

>  <Genealogy>  (43) 
CCCN1CC[NH+](Cc2ccc3[n-]c4cccc(Cl)c4c(=O)c3c2)CC1 (protonated)
CCCN1CC[NH+](Cc2ccc3[n-]c4cccc(Cl)c4c(=O)c3c2)CC1 (3D coordinates assigned)
CCCN1CC[NH+](Cc2ccc3[n-]c4cccc(Cl)c4c(=O)c3c2)CC1 (nonaromatic ring conformer: 77.63400810370607 kcal/mol)

>  <smiles>  (43) 
CCCN1CCN(Cc2ccc3[nH]c4cccc(Cl)c4c(=O)c3c2)CC1

>  <score_type>  (43) 
oracle

>  <origin>  (43) 
adg

>  <m_score__min__energy>  (43) 
-10.220000000000001

>  <m_primary>  (43) 
energy

$$$$
43:0
     RDKit          3D

 29 30  0  0  0  0  0  0  0  0999 V2000
   -7.2523   20.6453  -33.2614 H   0  0  0  0  0  0  0  0  0  0  0  0
   -6.6370   21.3350  -32.6650 C   0  0  0  0  0  0  0  0  0  0  0  0
   -5.2460   21.2940  -32.7690 C   0  0  0  0  0  0  0  0  0  0  0  0
   -4.7705   20.5682  -33.4451 H   0  0  0  0  0  0  0  0  0  0  0  0
   -4.4450   22.1760  -32.0140 C   0  0  0  0  0  0  0  0  0  0  0  0
   -3.0430   22.1240  -32.0740 O   0  0  0  0  0  0  0  0  0  0  0  0
   -2.2970   21.2450  -32.9100 C   0  0  0  0  0  0  0  0  0  0  0  0
   -1.7110   20.5545  -32.2857 H   0  0  0  0  0  0  0  0  0  0  0  0
   -2.9867   20.6696  -33.5450 H   0  0  0  0  0  0  0  0  0  0  0  0
   -1.6171   21.8319  -33.5450 H   0  0  0  0  0  0  0  0  0  0  0  0
   -5.0680   23.1190  -31.1650 C   0  0  0  0  0  0  0  0  0  0  0  0
   -4.2760   24.0930  -30.3710 C   0  0  0  0  0  0  0  0  0  0  0  0
   -4.1260   25.2640  -30.8090 O   0  0  0  0  0  0  0  0  0  0  0  0
   -3.7230   23.7680  -29.0870 N   0  0  0  0  0  0  0  0  0  0  0  0
   -2.8540   24.4700  -28.4180 C   0  0  0  0  0  0  0  0  0  0  0  0
   -2.6630   24.3550  -26.7540 S   0  0  0  0  0  0  0  0  0  0  0  0
   -1.4410   25.5150  -26.7220 C   0  0  0  0  0  0  0  0  0  0  0  0
   -0.7840   26.0390  -25.4900 C   0  0  0  0  0  0  0  0  0  0  0  0
   -1.2923   25.6336  -24.6027 H   0  0  0  0  0  0  0  0  0  0  0  0
    0.2725   25.7328  -25.4793 H   0  0  0  0  0  0  0  0  0  0  0  0
   -0.8476   27.1371  -25.4793 H   0  0  0  0  0  0  0  0  0  0  0  0
   -1.2420   25.9890  -28.0150 C   0  0  0  0  0  0  0  0  0  0  0  0
   -0.5107   26.7746  -28.2558 H   0  0  0  0  0  0  0  0  0  0  0  0
   -2.0270   25.4000  -28.9560 N   0  0  0  0  0  0  0  0  0  0  0  0
   -2.0050   25.6850  -29.9580 H   0  0  0  0  0  0  0  0  0  0  0  0
   -6.4700   23.1330  -31.0580 C   0  0  0  0  0  0  0  0  0  0  0  0
   -6.9577   23.8473  -30.3783 H   0  0  0  0  0  0  0  0  0  0  0  0
   -7.2490   22.2480  -31.8070 C   0  0  0  0  0  0  0  0  0  0  0  0
   -8.9970   22.2910  -31.6750 Cl  0  0  0  0  0  0  0  0  0  0  0  0
  1  2  1  0
  2  3  2  0
  3  4  1  0
  3  5  1  0
  5  6  1  0
  6  7  1  0
  7  8  1  0
  7  9  1  0
  7 10  1  0
  5 11  2  0
 11 12  1  0
 12 13  2  0
 12 14  1  0
 14 15  2  0
 15 16  1  0
 16 17  1  0
 17 18  1  0
 18 19  1  0
 18 20  1  0
 18 21  1  0
 17 22  2  0
 22 23  1  0
 22 24  1  0
 24 25  1  0
 11 26  1  0
 26 27  1  0
 26 28  2  0
 28 29  1  0
 28  2  1  0
 24 15  1  0
M  END
>  <UniqueID>  (44) 
42

>  <SMILES>  (44) 
COc1ccc(Cl)cc1C(=O)/N=c1\[nH]cc(C)s1

>  <Energy>  (44) 
66.77776970649681

>  <Genealogy>  (44) 
COc1ccc(Cl)cc1C(=O)/N=c1\[nH]cc(C)s1 (cis-trans isomerization)
COc1ccc(Cl)cc1C(=O)/N=c1\[nH]cc(C)s1 (3D coordinates assigned)
COc1ccc(Cl)cc1C(=O)/N=c1\[nH]cc(C)s1 (optimized conformer: 66.77776970649681 kcal/mol)

>  <smiles>  (44) 
COc1ccc(Cl)cc1C(=O)N=c1[nH]cc(C)s1

>  <score_type>  (44) 
oracle

>  <origin>  (44) 
adg

>  <m_score__min__energy>  (44) 
-7.4100000000000001

>  <m_primary>  (44) 
energy

$$$$
44:0
     RDKit          3D

 44 47  0  0  0  0  0  0  0  0999 V2000
   -7.6580   19.0480  -31.5940 C   0  0  0  0  0  0  0  0  0  0  0  0
   -6.6300   18.6850  -32.6340 C   0  0  0  0  0  0  0  0  0  0  0  0
   -6.8260   17.5280  -33.4080 C   0  0  0  0  0  0  0  0  0  0  0  0
   -5.9020   17.1640  -34.3890 C   0  0  0  0  0  0  0  0  0  0  0  0
   -4.7680   17.9450  -34.6050 C   0  0  0  0  0  0  0  0  0  0  0  0
   -4.5500   19.0890  -33.8360 C   0  0  0  0  0  0  0  0  0  0  0  0
   -5.4710   19.4740  -32.8450 C   0  0  0  0  0  0  0  0  0  0  0  0
   -5.1870   20.6760  -32.0280 C   0  0  0  0  0  0  0  0  0  0  0  0
   -4.0420   20.8690  -31.3300 N   0  0  0  0  0  0  0  0  0  0  0  0
   -4.1200   22.0420  -30.7570 O   0  0  0  0  0  0  0  0  0  0  0  0
   -5.2600   22.6180  -31.0510 C   0  0  0  0  0  0  0  0  0  0  0  0
   -5.7430   23.8640  -30.6410 C   0  0  0  0  0  0  0  0  0  0  0  0
   -4.9290   24.7830  -29.7730 C   0  0  0  0  0  0  0  0  0  0  0  0
   -3.5660   24.8800  -30.2810 N   0  0  0  0  0  0  0  0  0  0  0  0
   -2.4010   24.6070  -29.4920 C   0  0  0  0  0  0  0  0  0  0  0  0
   -2.0570   23.4170  -29.2640 O   0  0  0  0  0  0  0  0  0  0  0  0
   -1.5850   25.6740  -28.9990 N   0  0  0  0  0  0  0  0  0  0  0  0
   -1.3870   26.0230  -27.6230 C   0  0  0  0  0  0  0  0  0  0  0  0
   -2.1290   25.3500  -26.6420 C   0  0  0  0  0  0  0  0  0  0  0  0
   -1.9800   25.6780  -25.2920 C   0  0  0  0  0  0  0  0  0  0  0  0
   -1.1000   26.6950  -24.9110 C   0  0  0  0  0  0  0  0  0  0  0  0
   -0.3760   27.3910  -25.8830 C   0  0  0  0  0  0  0  0  0  0  0  0
   -0.5220   27.0640  -27.2350 C   0  0  0  0  0  0  0  0  0  0  0  0
   -7.0240   24.2420  -31.0980 C   0  0  0  0  0  0  0  0  0  0  0  0
   -7.7790   23.3770  -31.9240 C   0  0  0  0  0  0  0  0  0  0  0  0
   -7.2600   22.1290  -32.3130 C   0  0  0  0  0  0  0  0  0  0  0  0
   -5.9850   21.7910  -31.8630 C   0  0  0  0  0  0  0  0  0  0  0  0
   -7.2332   18.8980  -30.5905 H   0  0  0  0  0  0  0  0  0  0  0  0
   -7.9466   20.1024  -31.7161 H   0  0  0  0  0  0  0  0  0  0  0  0
   -8.5447   18.4086  -31.7161 H   0  0  0  0  0  0  0  0  0  0  0  0
   -7.7158   16.9037  -33.2391 H   0  0  0  0  0  0  0  0  0  0  0  0
   -6.0691   16.2596  -34.9924 H   0  0  0  0  0  0  0  0  0  0  0  0
   -4.0441   17.6594  -35.3824 H   0  0  0  0  0  0  0  0  0  0  0  0
   -3.6486   19.6959  -34.0066 H   0  0  0  0  0  0  0  0  0  0  0  0
   -5.3881   25.7826  -29.7716 H   0  0  0  0  0  0  0  0  0  0  0  0
   -4.9026   24.3801  -28.7498 H   0  0  0  0  0  0  0  0  0  0  0  0
   -2.8333   24.5583  -26.9372 H   0  0  0  0  0  0  0  0  0  0  0  0
   -2.5560   25.1352  -24.5280 H   0  0  0  0  0  0  0  0  0  0  0  0
   -0.9774   26.9473  -23.8474 H   0  0  0  0  0  0  0  0  0  0  0  0
    0.3099   28.1974  -25.5841 H   0  0  0  0  0  0  0  0  0  0  0  0
    0.0409   27.6220  -27.9978 H   0  0  0  0  0  0  0  0  0  0  0  0
   -7.4391   25.2188  -30.8089 H   0  0  0  0  0  0  0  0  0  0  0  0
   -8.7793   23.6825  -32.2646 H   0  0  0  0  0  0  0  0  0  0  0  0
   -7.8396   21.4443  -32.9496 H   0  0  0  0  0  0  0  0  0  0  0  0
  1  2  1  0
  2  3  2  0
  3  4  1  0
  4  5  2  0
  5  6  1  0
  6  7  2  0
  7  8  1  0
  8  9  2  0
  9 10  1  0
 10 11  1  0
 11 12  2  0
 12 13  1  0
 13 14  1  0
 14 15  1  0
 15 16  2  0
 15 17  1  0
 17 18  1  0
 18 19  2  0
 19 20  1  0
 20 21  2  0
 21 22  1  0
 22 23  2  0
 12 24  1  0
 24 25  2  0
 25 26  1  0
 26 27  2  0
  7  2  1  0
 27  8  1  0
 27 11  1  0
 23 18  1  0
  1 28  1  0
  1 29  1  0
  1 30  1  0
  3 31  1  0
  4 32  1  0
  5 33  1  0
  6 34  1  0
 13 35  1  0
 13 36  1  0
 19 37  1  0
 20 38  1  0
 21 39  1  0
 22 40  1  0
 23 41  1  0
 24 42  1  0
 25 43  1  0
 26 44  1  0
M  CHG  2  14  -1  17  -1
M  END
>  <UniqueID>  (45) 
43

>  <SMILES>  (45) 
Cc1ccccc1-c1noc2c(C[N-]C(=O)[N-]c3ccccc3)cccc12

>  <Energy>  (45) 
94.54968074907441

>  <Genealogy>  (45) 
Cc1ccccc1-c1noc2c(C[N-]C(=O)[N-]c3ccccc3)cccc12 (protonated)
Cc1ccccc1-c1noc2c(C[N-]C(=O)[N-]c3ccccc3)cccc12 (3D coordinates assigned)
Cc1ccccc1-c1noc2c(C[N-]C(=O)[N-]c3ccccc3)cccc12 (optimized conformer: 94.54968074907441 kcal/mol)

>  <smiles>  (45) 
Cc1ccccc1-c1noc2c(CNC(=O)Nc3ccccc3)cccc12

>  <score_type>  (45) 
oracle

>  <origin>  (45) 
adg

>  <m_score__min__energy>  (45) 
-13.33

>  <m_primary>  (45) 
energy

$$$$
