0:0
     RDKit          3D

 27 28  0  0  0  0  0  0  0  0999 V2000
   -3.8750   25.2800  -30.8440 O   0  0  0  0  0  0  0  0  0  0  0  0
   -4.7380   24.2340  -30.4920 C   0  0  0  0  0  0  0  0  0  0  0  0
   -4.4600   22.9830  -31.3300 C   0  0  0  0  0  0  0  0  0  0  0  0
   -5.4330   22.8500  -32.4160 N   0  0  0  0  0  0  0  0  0  0  0  0
   -6.7460   22.2890  -32.2400 C   0  0  0  0  0  0  0  0  0  0  0  0
   -7.8380   23.1330  -31.9730 C   0  0  0  0  0  0  0  0  0  0  0  0
   -9.1260   22.6160  -31.8400 C   0  0  0  0  0  0  0  0  0  0  0  0
   -9.3520   21.2470  -31.9740 C   0  0  0  0  0  0  0  0  0  0  0  0
   -8.2840   20.3790  -32.2370 C   0  0  0  0  0  0  0  0  0  0  0  0
   -8.5160   19.0000  -32.3610 C   0  0  0  0  0  0  0  0  0  0  0  0
   -7.4530   18.1280  -32.6030 C   0  0  0  0  0  0  0  0  0  0  0  0
   -6.1530   18.6210  -32.7140 C   0  0  0  0  0  0  0  0  0  0  0  0
   -5.9050   19.9910  -32.5950 C   0  0  0  0  0  0  0  0  0  0  0  0
   -6.9660   20.8930  -32.3690 C   0  0  0  0  0  0  0  0  0  0  0  0
   -4.2350   25.6770  -31.6800 H   0  0  0  0  0  0  0  0  0  0  0  0
   -4.5948   23.9928  -29.4284 H   0  0  0  0  0  0  0  0  0  0  0  0
   -5.7726   24.5570  -30.6798 H   0  0  0  0  0  0  0  0  0  0  0  0
   -3.4498   23.0552  -31.7593 H   0  0  0  0  0  0  0  0  0  0  0  0
   -4.5405   22.1005  -30.6783 H   0  0  0  0  0  0  0  0  0  0  0  0
   -5.1450   23.1750  -33.3660 H   0  0  0  0  0  0  0  0  0  0  0  0
   -7.6742   24.2156  -31.8676 H   0  0  0  0  0  0  0  0  0  0  0  0
   -9.9679   23.2916  -31.6283 H   0  0  0  0  0  0  0  0  0  0  0  0
  -10.3717   20.8470  -31.8730 H   0  0  0  0  0  0  0  0  0  0  0  0
   -9.5385   18.6054  -32.2672 H   0  0  0  0  0  0  0  0  0  0  0  0
   -7.6412   17.0492  -32.7064 H   0  0  0  0  0  0  0  0  0  0  0  0
   -5.3186   17.9277  -32.8962 H   0  0  0  0  0  0  0  0  0  0  0  0
   -4.8753   20.3689  -32.6781 H   0  0  0  0  0  0  0  0  0  0  0  0
  1  2  1  0
  2  3  1  0
  3  4  1  0
  4  5  1  0
  5  6  2  0
  6  7  1  0
  7  8  2  0
  8  9  1  0
  9 10  2  0
 10 11  1  0
 11 12  2  0
 12 13  1  0
 13 14  2  0
 14  5  1  0
 14  9  1  0
  1 15  1  0
  2 16  1  0
  2 17  1  0
  3 18  1  0
  3 19  1  0
  4 20  1  0
  6 21  1  0
  7 22  1  0
  8 23  1  0
 10 24  1  0
 11 25  1  0
 12 26  1  0
 13 27  1  0
M  END
>  <UniqueID>  (1) 
1

>  <SMILES>  (1) 
OCCNc1cccc2ccccc12

>  <Energy>  (1) 
32.0664550944958

>  <Genealogy>  (1) 
OCCNc1cccc2ccccc12 (3D coordinates assigned)
OCCNc1cccc2ccccc12 (optimized conformer: 32.0664550944958 kcal/mol)

>  <smiles>  (1) 
OCCNc1cccc2ccccc12

>  <score_type>  (1) 
oracle

>  <origin>  (1) 
adg

>  <m_score__min__energy>  (1) 
-7.8600000000000003

>  <m_primary>  (1) 
energy

$$$$
1:0
     RDKit          3D

 52 54  0  0  0  0  0  0  0  0999 V2000
   -5.4120   23.3720  -32.3190 C   0  0  0  0  0  0  0  0  0  0  0  0
   -6.4640   24.1460  -31.5410 C   0  0  0  0  0  0  0  0  0  0  0  0
   -5.8180   25.1470  -30.7050 N   0  0  0  0  0  0  0  0  0  0  0  0
   -4.5950   24.9020  -30.0020 C   0  0  0  0  0  0  0  0  0  0  0  0
   -3.4970   25.2930  -30.4820 O   0  0  0  0  0  0  0  0  0  0  0  0
   -4.6120   24.2260  -28.6620 C   0  0  0  0  0  0  0  0  0  0  0  0
   -3.4840   23.2910  -28.5190 N   0  0  0  0  0  0  0  0  0  0  0  0
   -2.7590   23.2580  -27.2430 C   0  0  0  0  0  0  0  0  0  0  0  0
   -3.0410   22.4730  -29.6280 C   0  0  0  0  0  0  0  0  0  0  0  0
   -1.7880   22.7010  -30.2290 C   0  0  0  0  0  0  0  0  0  0  0  0
   -1.3560   21.9160  -31.3010 C   0  0  0  0  0  0  0  0  0  0  0  0
   -2.1730   20.8890  -31.8030 C   0  0  0  0  0  0  0  0  0  0  0  0
   -1.7790   20.0820  -32.8840 C   0  0  0  0  0  0  0  0  0  0  0  0
   -0.6460   20.2640  -33.4150 O   0  0  0  0  0  0  0  0  0  0  0  0
   -2.6150   19.1020  -33.3580 N   0  0  0  0  0  0  0  0  0  0  0  0
   -2.1960   18.2810  -34.5080 C   0  0  0  0  0  0  0  0  0  0  0  0
   -3.8140   18.8640  -32.7250 C   0  0  0  0  0  0  0  0  0  0  0  0
   -4.8930   17.4960  -33.2090 S   0  0  0  0  0  0  0  0  0  0  0  0
   -6.0930   18.5430  -34.1070 C   0  0  0  0  0  0  0  0  0  0  0  0
   -7.0230   19.2450  -33.1570 C   0  0  0  0  0  0  0  0  0  0  0  0
   -7.8960   18.5010  -32.3460 C   0  0  0  0  0  0  0  0  0  0  0  0
   -8.7370   19.1510  -31.4370 C   0  0  0  0  0  0  0  0  0  0  0  0
   -8.7070   20.5440  -31.3270 C   0  0  0  0  0  0  0  0  0  0  0  0
   -9.5180   21.1710  -30.4380 F   0  0  0  0  0  0  0  0  0  0  0  0
   -7.8360   21.2910  -32.1260 C   0  0  0  0  0  0  0  0  0  0  0  0
   -6.9970   20.6450  -33.0390 C   0  0  0  0  0  0  0  0  0  0  0  0
   -4.2140   19.6540  -31.6920 N   0  0  0  0  0  0  0  0  0  0  0  0
   -3.4260   20.6530  -31.2160 C   0  0  0  0  0  0  0  0  0  0  0  0
   -3.8530   21.4410  -30.1360 C   0  0  0  0  0  0  0  0  0  0  0  0
   -4.7308   22.8708  -31.6157 H   0  0  0  0  0  0  0  0  0  0  0  0
   -5.9043   22.6191  -32.9521 H   0  0  0  0  0  0  0  0  0  0  0  0
   -4.8398   24.0660  -32.9521 H   0  0  0  0  0  0  0  0  0  0  0  0
   -7.1472   24.6434  -32.2452 H   0  0  0  0  0  0  0  0  0  0  0  0
   -7.0313   23.4509  -30.9046 H   0  0  0  0  0  0  0  0  0  0  0  0
   -4.5453   24.9908  -27.8742 H   0  0  0  0  0  0  0  0  0  0  0  0
   -5.5484   23.6557  -28.5732 H   0  0  0  0  0  0  0  0  0  0  0  0
   -3.4785   23.2907  -26.4115 H   0  0  0  0  0  0  0  0  0  0  0  0
   -2.1685   22.3320  -27.1806 H   0  0  0  0  0  0  0  0  0  0  0  0
   -2.0868   24.1265  -27.1806 H   0  0  0  0  0  0  0  0  0  0  0  0
   -1.1419   23.5065  -29.8500 H   0  0  0  0  0  0  0  0  0  0  0  0
   -0.3713   22.1029  -31.7543 H   0  0  0  0  0  0  0  0  0  0  0  0
   -1.7239   17.3560  -34.1455 H   0  0  0  0  0  0  0  0  0  0  0  0
   -3.0757   18.0289  -35.1184 H   0  0  0  0  0  0  0  0  0  0  0  0
   -1.4757   18.8454  -35.1184 H   0  0  0  0  0  0  0  0  0  0  0  0
   -5.5444   19.2951  -34.6929 H   0  0  0  0  0  0  0  0  0  0  0  0
   -6.6920   17.8976  -34.7662 H   0  0  0  0  0  0  0  0  0  0  0  0
   -7.9182   17.4041  -32.4261 H   0  0  0  0  0  0  0  0  0  0  0  0
   -9.4231   18.5650  -30.8077 H   0  0  0  0  0  0  0  0  0  0  0  0
   -7.8109   22.3870  -32.0363 H   0  0  0  0  0  0  0  0  0  0  0  0
   -6.3138   21.2351  -33.6675 H   0  0  0  0  0  0  0  0  0  0  0  0
   -5.1390   19.4640  -31.2420 H   0  0  0  0  0  0  0  0  0  0  0  0
   -4.8356   21.2497  -29.6801 H   0  0  0  0  0  0  0  0  0  0  0  0
  1  2  1  0
  2  3  1  0
  3  4  1  0
  4  5  2  0
  4  6  1  0
  6  7  1  0
  7  8  1  0
  7  9  1  0
  9 10  2  0
 10 11  1  0
 11 12  2  0
 12 13  1  0
 13 14  2  0
 13 15  1  0
 15 16  1  0
 15 17  1  0
 17 18  1  0
 18 19  1  0
 19 20  1  0
 20 21  2  0
 21 22  1  0
 22 23  2  0
 23 24  1  0
 23 25  1  0
 25 26  2  0
 17 27  2  0
 27 28  1  0
 28 29  2  0
 29  9  1  0
 28 12  1  0
 26 20  1  0
  1 30  1  0
  1 31  1  0
  1 32  1  0
  2 33  1  0
  2 34  1  0
  6 35  1  0
  6 36  1  0
  8 37  1  0
  8 38  1  0
  8 39  1  0
 10 40  1  0
 11 41  1  0
 16 42  1  0
 16 43  1  0
 16 44  1  0
 19 45  1  0
 19 46  1  0
 21 47  1  0
 22 48  1  0
 25 49  1  0
 26 50  1  0
 27 51  1  0
 29 52  1  0
M  CHG  2   3  -1  27   1
M  END
>  <UniqueID>  (2) 
2

>  <SMILES>  (2) 
CC[N-]C(=O)CN(C)c1ccc2c(=O)n(C)c(SCc3ccc(F)cc3)[nH+]c2c1

>  <Energy>  (2) 
52.31062539740705

>  <Genealogy>  (2) 
CC[N-]C(=O)CN(C)c1ccc2c(=O)n(C)c(SCc3ccc(F)cc3)[nH+]c2c1 (protonated)
CC[N-]C(=O)CN(C)c1ccc2c(=O)n(C)c(SCc3ccc(F)cc3)[nH+]c2c1 (3D coordinates assigned)
CC[N-]C(=O)CN(C)c1ccc2c(=O)n(C)c(SCc3ccc(F)cc3)[nH+]c2c1 (optimized conformer: 52.31062539740705 kcal/mol)

>  <smiles>  (2) 
CCNC(=O)CN(C)c1ccc2c(=O)n(C)c(SCc3ccc(F)cc3)nc2c1

>  <score_type>  (2) 
oracle

>  <origin>  (2) 
adg

>  <m_score__min__energy>  (2) 
-9.9199999999999999

>  <m_primary>  (2) 
energy

$$$$
2:0
     RDKit          3D

 51 53  0  0  0  0  0  0  0  0999 V2000
   -2.7420   21.5570  -32.2160 C   0  0  0  0  0  0  0  0  0  0  0  0
   -3.4460   21.0310  -33.4630 C   0  0  0  0  0  0  0  0  0  0  0  0
   -4.8950   20.9450  -33.2580 N   0  0  0  0  0  0  0  0  0  0  0  0
   -5.5910   19.6890  -33.0880 C   0  0  0  0  0  0  0  0  0  0  0  0
   -4.8930   18.4660  -33.1860 C   0  0  0  0  0  0  0  0  0  0  0  0
   -5.5520   17.2490  -33.0140 C   0  0  0  0  0  0  0  0  0  0  0  0
   -6.9160   17.2240  -32.7410 C   0  0  0  0  0  0  0  0  0  0  0  0
   -7.6300   18.4180  -32.6400 C   0  0  0  0  0  0  0  0  0  0  0  0
   -6.9870   19.6570  -32.8170 C   0  0  0  0  0  0  0  0  0  0  0  0
   -7.8090   20.9200  -32.6840 C   0  0  0  0  0  0  0  0  0  0  0  0
   -7.1070   21.9140  -31.8460 N   0  0  0  0  0  0  0  0  0  0  0  0
   -7.0930   23.2330  -32.5040 C   0  0  0  0  0  0  0  0  0  0  0  0
   -6.1230   24.1860  -31.7790 C   0  0  0  0  0  0  0  0  0  0  0  0
   -5.9530   23.8540  -30.2720 C   0  0  0  0  0  0  0  0  0  0  0  0
   -4.7500   22.9160  -29.9970 C   0  0  0  0  0  0  0  0  0  0  0  0
   -3.6980   23.5780  -29.1410 C   0  0  0  0  0  0  0  0  0  0  0  0
   -3.9930   23.9730  -27.8250 C   0  0  0  0  0  0  0  0  0  0  0  0
   -3.0120   24.5780  -27.0340 C   0  0  0  0  0  0  0  0  0  0  0  0
   -1.7310   24.7920  -27.5480 C   0  0  0  0  0  0  0  0  0  0  0  0
   -1.4290   24.4000  -28.8560 C   0  0  0  0  0  0  0  0  0  0  0  0
   -2.4070   23.7950  -29.6500 C   0  0  0  0  0  0  0  0  0  0  0  0
   -7.2580   23.2570  -29.7160 C   0  0  0  0  0  0  0  0  0  0  0  0
   -7.7130   22.0020  -30.4940 C   0  0  0  0  0  0  0  0  0  0  0  0
   -3.2519   21.1760  -31.3189 H   0  0  0  0  0  0  0  0  0  0  0  0
   -1.6957   21.2176  -32.2150 H   0  0  0  0  0  0  0  0  0  0  0  0
   -2.7708   22.6566  -32.2150 H   0  0  0  0  0  0  0  0  0  0  0  0
   -3.2424   21.7108  -34.3035 H   0  0  0  0  0  0  0  0  0  0  0  0
   -3.0645   20.0220  -33.6786 H   0  0  0  0  0  0  0  0  0  0  0  0
   -5.4370   21.8370  -33.2630 H   0  0  0  0  0  0  0  0  0  0  0  0
   -3.8142   18.4730  -33.4010 H   0  0  0  0  0  0  0  0  0  0  0  0
   -4.9916   16.3059  -33.0944 H   0  0  0  0  0  0  0  0  0  0  0  0
   -7.4317   16.2620  -32.6047 H   0  0  0  0  0  0  0  0  0  0  0  0
   -8.7073   18.3907  -32.4196 H   0  0  0  0  0  0  0  0  0  0  0  0
   -7.9800   21.3465  -33.6834 H   0  0  0  0  0  0  0  0  0  0  0  0
   -8.7680   20.6693  -32.2070 H   0  0  0  0  0  0  0  0  0  0  0  0
   -6.7700   23.1133  -33.5487 H   0  0  0  0  0  0  0  0  0  0  0  0
   -8.1060   23.6602  -32.4676 H   0  0  0  0  0  0  0  0  0  0  0  0
   -5.1385   24.1193  -32.2651 H   0  0  0  0  0  0  0  0  0  0  0  0
   -6.5482   25.1983  -31.8452 H   0  0  0  0  0  0  0  0  0  0  0  0
   -5.7336   24.7967  -29.7493 H   0  0  0  0  0  0  0  0  0  0  0  0
   -5.1132   22.0157  -29.4797 H   0  0  0  0  0  0  0  0  0  0  0  0
   -4.2901   22.6627  -30.9636 H   0  0  0  0  0  0  0  0  0  0  0  0
   -5.0001   23.8054  -27.4156 H   0  0  0  0  0  0  0  0  0  0  0  0
   -3.2493   24.8861  -26.0050 H   0  0  0  0  0  0  0  0  0  0  0  0
   -0.9603   25.2685  -26.9244 H   0  0  0  0  0  0  0  0  0  0  0  0
   -0.4200   24.5682  -29.2605 H   0  0  0  0  0  0  0  0  0  0  0  0
   -2.1647   23.4874  -30.6780 H   0  0  0  0  0  0  0  0  0  0  0  0
   -7.0992   22.9810  -28.6631 H   0  0  0  0  0  0  0  0  0  0  0  0
   -8.0450   24.0185  -29.8202 H   0  0  0  0  0  0  0  0  0  0  0  0
   -7.4245   21.1088  -29.9204 H   0  0  0  0  0  0  0  0  0  0  0  0
   -8.8034   22.0687  -30.6228 H   0  0  0  0  0  0  0  0  0  0  0  0
  1  2  1  0
  2  3  1  0
  3  4  1  0
  4  5  2  0
  5  6  1  0
  6  7  2  0
  7  8  1  0
  8  9  2  0
  9 10  1  0
 10 11  1  0
 11 12  1  0
 12 13  1  0
 13 14  1  0
 14 15  1  0
 15 16  1  0
 16 17  2  0
 17 18  1  0
 18 19  2  0
 19 20  1  0
 20 21  2  0
 14 22  1  0
 22 23  1  0
  9  4  1  0
 23 11  1  0
 21 16  1  0
  1 24  1  0
  1 25  1  0
  1 26  1  0
  2 27  1  0
  2 28  1  0
  3 29  1  0
  5 30  1  0
  6 31  1  0
  7 32  1  0
  8 33  1  0
 10 34  1  0
 10 35  1  0
 12 36  1  0
 12 37  1  0
 13 38  1  0
 13 39  1  0
 14 40  1  0
 15 41  1  0
 15 42  1  0
 17 43  1  0
 18 44  1  0
 19 45  1  0
 20 46  1  0
 21 47  1  0
 22 48  1  0
 22 49  1  0
 23 50  1  0
 23 51  1  0
M  END
>  <UniqueID>  (3) 
3

>  <SMILES>  (3) 
CCNc1ccccc1CN1CCC(Cc2ccccc2)CC1

>  <Energy>  (3) 
54.39994627798387

>  <Genealogy>  (3) 
CCNc1ccccc1CN1CCC(Cc2ccccc2)CC1 (3D coordinates assigned)
CCNc1ccccc1CN1CCC(Cc2ccccc2)CC1 (nonaromatic ring conformer: 54.39994627798387 kcal/mol)

>  <smiles>  (3) 
CCNc1ccccc1CN1CCC(Cc2ccccc2)CC1

>  <score_type>  (3) 
oracle

>  <origin>  (3) 
adg

>  <m_score__min__energy>  (3) 
-8.2100000000000009

>  <m_primary>  (3) 
energy

$$$$
3:0
     RDKit          3D

 31 31  0  0  0  0  0  0  0  0999 V2000
   -2.4230   21.9910  -30.3450 C   0  0  0  0  0  0  0  0  0  0  0  0
   -2.6740   22.3210  -31.8120 C   0  0  0  0  0  0  0  0  0  0  0  0
   -4.0390   22.6830  -32.0190 O   0  0  0  0  0  0  0  0  0  0  0  0
   -5.1290   21.7940  -32.0510 C   0  0  0  0  0  0  0  0  0  0  0  0
   -4.9620   20.4020  -31.9060 C   0  0  0  0  0  0  0  0  0  0  0  0
   -6.0670   19.5490  -31.9260 C   0  0  0  0  0  0  0  0  0  0  0  0
   -7.3510   20.0680  -32.0920 C   0  0  0  0  0  0  0  0  0  0  0  0
   -8.8600   18.8980  -32.1060 Br  0  0  0  0  0  0  0  0  0  0  0  0
   -7.5330   21.4450  -32.2420 C   0  0  0  0  0  0  0  0  0  0  0  0
   -6.4300   22.3150  -32.2320 C   0  0  0  0  0  0  0  0  0  0  0  0
   -6.6720   23.8000  -32.3490 C   0  0  0  0  0  0  0  0  0  0  0  0
   -5.6330   24.5570  -31.6330 N   0  0  0  0  0  0  0  0  0  0  0  0
   -5.6930   24.3700  -30.1710 C   0  0  0  0  0  0  0  0  0  0  0  0
   -4.3210   24.6050  -29.5440 C   0  0  0  0  0  0  0  0  0  0  0  0
   -3.4890   25.2690  -30.4530 O   0  0  0  0  0  0  0  0  0  0  0  0
   -2.9668   22.7060  -29.7101 H   0  0  0  0  0  0  0  0  0  0  0  0
   -2.7754   20.9707  -30.1332 H   0  0  0  0  0  0  0  0  0  0  0  0
   -1.3457   22.0582  -30.1332 H   0  0  0  0  0  0  0  0  0  0  0  0
   -2.0283   23.1604  -32.1093 H   0  0  0  0  0  0  0  0  0  0  0  0
   -2.4467   21.4324  -32.4193 H   0  0  0  0  0  0  0  0  0  0  0  0
   -3.9527   19.9843  -31.7760 H   0  0  0  0  0  0  0  0  0  0  0  0
   -5.9246   18.4644  -31.8105 H   0  0  0  0  0  0  0  0  0  0  0  0
   -8.5474   21.8510  -32.3689 H   0  0  0  0  0  0  0  0  0  0  0  0
   -6.6582   24.0850  -33.4114 H   0  0  0  0  0  0  0  0  0  0  0  0
   -7.6496   24.0341  -31.9023 H   0  0  0  0  0  0  0  0  0  0  0  0
   -4.7070   24.1960  -31.9640 H   0  0  0  0  0  0  0  0  0  0  0  0
   -6.4129   25.0839  -29.7442 H   0  0  0  0  0  0  0  0  0  0  0  0
   -6.0092   23.3383  -29.9575 H   0  0  0  0  0  0  0  0  0  0  0  0
   -4.4343   25.2184  -28.6380 H   0  0  0  0  0  0  0  0  0  0  0  0
   -3.8714   23.6356  -29.2830 H   0  0  0  0  0  0  0  0  0  0  0  0
   -3.5710   24.7770  -31.3110 H   0  0  0  0  0  0  0  0  0  0  0  0
  1  2  1  0
  2  3  1  0
  3  4  1  0
  4  5  2  0
  5  6  1  0
  6  7  2  0
  7  8  1  0
  7  9  1  0
  9 10  2  0
 10 11  1  0
 11 12  1  0
 12 13  1  0
 13 14  1  0
 14 15  1  0
 10  4  1  0
  1 16  1  0
  1 17  1  0
  1 18  1  0
  2 19  1  0
  2 20  1  0
  5 21  1  0
  6 22  1  0
  9 23  1  0
 11 24  1  0
 11 25  1  0
 12 26  1  0
 13 27  1  0
 13 28  1  0
 14 29  1  0
 14 30  1  0
 15 31  1  0
M  END
>  <UniqueID>  (4) 
4

>  <SMILES>  (4) 
CCOc1ccc(Br)cc1CNCCO

>  <Energy>  (4) 
23.85783486472964

>  <Genealogy>  (4) 
CCOc1ccc(Br)cc1CNCCO (3D coordinates assigned)
CCOc1ccc(Br)cc1CNCCO (optimized conformer: 23.85783486472964 kcal/mol)

>  <smiles>  (4) 
CCOc1ccc(Br)cc1CNCCO

>  <score_type>  (4) 
oracle

>  <origin>  (4) 
adg

>  <m_score__min__energy>  (4) 
-6.1500000000000004

>  <m_primary>  (4) 
energy

$$$$
4:0
     RDKit          3D

 50 52  0  0  0  0  0  0  0  0999 V2000
   -6.7750   25.5370  -29.6970 C   0  0  0  0  0  0  0  0  0  0  0  0
   -5.3050   25.1230  -29.8230 C   0  0  0  0  0  0  0  0  0  0  0  0
   -4.9920   23.8960  -29.0510 N   0  0  2  0  0  0  0  0  0  0  0  0
   -3.5840   23.8690  -28.5940 C   0  0  0  0  0  0  0  0  0  0  0  0
   -5.3560   22.6610  -29.7950 C   0  0  0  0  0  0  0  0  0  0  0  0
   -4.1660   21.9410  -30.4780 C   0  0  0  0  0  0  0  0  0  0  0  0
   -3.6950   22.6640  -31.7490 C   0  0  0  0  0  0  0  0  0  0  0  0
   -4.4680   22.2310  -32.9120 N   0  0  0  0  0  0  0  0  0  0  0  0
   -5.4980   21.2340  -32.8100 C   0  0  0  0  0  0  0  0  0  0  0  0
   -6.8240   21.5800  -32.4880 C   0  0  0  0  0  0  0  0  0  0  0  0
   -7.1880   22.9240  -32.2720 C   0  0  0  0  0  0  0  0  0  0  0  0
   -8.5080   23.2660  -31.9860 C   0  0  0  0  0  0  0  0  0  0  0  0
   -9.4850   22.2780  -31.9150 C   0  0  0  0  0  0  0  0  0  0  0  0
   -9.1470   20.9380  -32.1010 C   0  0  0  0  0  0  0  0  0  0  0  0
   -7.8090   20.5500  -32.3570 C   0  0  0  0  0  0  0  0  0  0  0  0
   -7.4500   19.2170  -32.4860 N   0  0  0  0  0  0  0  0  0  0  0  0
   -8.3570   18.1610  -31.9970 C   0  0  0  0  0  0  0  0  0  0  0  0
   -6.1950   18.9060  -32.9710 C   0  0  0  0  0  0  0  0  0  0  0  0
   -5.7140   17.6400  -33.4280 C   0  0  0  0  0  0  0  0  0  0  0  0
   -6.5160   16.3890  -33.6570 C   0  0  0  0  0  0  0  0  0  0  0  0
   -4.3690   17.6740  -33.7990 C   0  0  0  0  0  0  0  0  0  0  0  0
   -3.7910   19.2420  -33.6490 S   0  0  0  0  0  0  0  0  0  0  0  0
   -5.2260   19.8970  -33.0780 C   0  0  0  0  0  0  0  0  0  0  0  0
   -7.0447   25.6129  -28.6333 H   0  0  0  0  0  0  0  0  0  0  0  0
   -6.9243   26.5121  -30.1836 H   0  0  0  0  0  0  0  0  0  0  0  0
   -7.4113   24.7831  -30.1836 H   0  0  0  0  0  0  0  0  0  0  0  0
   -5.0801   24.9392  -30.8839 H   0  0  0  0  0  0  0  0  0  0  0  0
   -4.6917   25.9399  -29.4150 H   0  0  0  0  0  0  0  0  0  0  0  0
   -5.5910   23.8990  -28.1910 H   0  0  0  0  0  0  0  0  0  0  0  0
   -3.5554   23.8685  -27.4944 H   0  0  0  0  0  0  0  0  0  0  0  0
   -3.0925   22.9613  -28.9740 H   0  0  0  0  0  0  0  0  0  0  0  0
   -3.0581   24.7572  -28.9740 H   0  0  0  0  0  0  0  0  0  0  0  0
   -5.8203   21.9589  -29.0869 H   0  0  0  0  0  0  0  0  0  0  0  0
   -6.0342   22.9738  -30.6026 H   0  0  0  0  0  0  0  0  0  0  0  0
   -3.3275   21.8930  -29.7677 H   0  0  0  0  0  0  0  0  0  0  0  0
   -4.5051   20.9362  -30.7701 H   0  0  0  0  0  0  0  0  0  0  0  0
   -3.8228   23.7483  -31.6149 H   0  0  0  0  0  0  0  0  0  0  0  0
   -2.6361   22.4203  -31.9201 H   0  0  0  0  0  0  0  0  0  0  0  0
   -4.3460   22.7430  -33.8140 H   0  0  0  0  0  0  0  0  0  0  0  0
   -6.4220   23.7114  -32.3298 H   0  0  0  0  0  0  0  0  0  0  0  0
   -8.7781   24.3187  -31.8161 H   0  0  0  0  0  0  0  0  0  0  0  0
  -10.5297   22.5554  -31.7110 H   0  0  0  0  0  0  0  0  0  0  0  0
   -9.9324   20.1696  -32.0481 H   0  0  0  0  0  0  0  0  0  0  0  0
   -8.3584   18.1593  -30.8970 H   0  0  0  0  0  0  0  0  0  0  0  0
   -9.3757   18.3534  -32.3647 H   0  0  0  0  0  0  0  0  0  0  0  0
   -8.0131   17.1830  -32.3647 H   0  0  0  0  0  0  0  0  0  0  0  0
   -6.7968   15.9509  -32.6879 H   0  0  0  0  0  0  0  0  0  0  0  0
   -7.4251   16.6351  -34.2253 H   0  0  0  0  0  0  0  0  0  0  0  0
   -5.9128   15.6657  -34.2253 H   0  0  0  0  0  0  0  0  0  0  0  0
   -3.7801   16.8085  -34.1368 H   0  0  0  0  0  0  0  0  0  0  0  0
  1  2  1  0
  2  3  1  0
  3  4  1  0
  3  5  1  0
  5  6  1  0
  6  7  1  0
  7  8  1  0
  8  9  1  0
  9 10  2  0
 10 11  1  0
 11 12  2  0
 12 13  1  0
 13 14  2  0
 14 15  1  0
 15 16  2  0
 16 17  1  0
 16 18  1  0
 18 19  1  0
 19 20  1  0
 19 21  2  0
 21 22  1  0
 22 23  1  0
 23  9  1  0
 15 10  1  0
 23 18  2  0
  1 24  1  0
  1 25  1  0
  1 26  1  0
  2 27  1  0
  2 28  1  0
  3 29  1  1
  4 30  1  0
  4 31  1  0
  4 32  1  0
  5 33  1  0
  5 34  1  0
  6 35  1  0
  6 36  1  0
  7 37  1  0
  7 38  1  0
  8 39  1  0
 11 40  1  0
 12 41  1  0
 13 42  1  0
 14 43  1  0
 17 44  1  0
 17 45  1  0
 17 46  1  0
 20 47  1  0
 20 48  1  0
 20 49  1  0
 21 50  1  0
M  CHG  2   3   1  16   1
M  END
>  <UniqueID>  (5) 
5

>  <SMILES>  (5) 
CC[N@H+](C)CCCNc1c2ccccc2[n+](C)c2c(C)csc12

>  <Energy>  (5) 
105.45866041731632

>  <Genealogy>  (5) 
CC[NH+](C)CCCNc1c2ccccc2[n+](C)c2c(C)csc12 (protonated)
CC[N@H+](C)CCCNc1c2ccccc2[n+](C)c2c(C)csc12 (chirality)
CC[N@H+](C)CCCNc1c2ccccc2[n+](C)c2c(C)csc12 (3D coordinates assigned)
CC[N@H+](C)CCCNc1c2ccccc2[n+](C)c2c(C)csc12 (optimized conformer: 105.45866041731632 kcal/mol)

>  <smiles>  (5) 
CCN(C)CCCNc1c2ccccc2[n+](C)c2c(C)csc12

>  <score_type>  (5) 
oracle

>  <origin>  (5) 
adg

>  <m_score__min__energy>  (5) 
-7.25

>  <m_primary>  (5) 
energy

$$$$
5:0
     RDKit          3D

 41 43  0  0  0  0  0  0  0  0999 V2000
   -1.5940   23.5730  -26.3620 C   0  0  0  0  0  0  0  0  0  0  0  0
   -2.1470   24.9090  -26.0910 N   0  0  0  0  0  0  0  0  0  0  0  0
   -3.5820   24.9270  -26.4220 C   0  0  0  0  0  0  0  0  0  0  0  0
   -1.4140   25.9430  -26.8540 C   0  0  0  0  0  0  0  0  0  0  0  0
   -0.7850   25.3510  -28.1200 C   0  0  0  0  0  0  0  0  0  0  0  0
   -1.6650   25.4860  -29.2380 O   0  0  0  0  0  0  0  0  0  0  0  0
   -2.6370   24.5560  -29.6430 C   0  0  0  0  0  0  0  0  0  0  0  0
   -2.2550   23.2110  -29.7470 C   0  0  0  0  0  0  0  0  0  0  0  0
   -3.1710   22.2370  -30.1550 C   0  0  0  0  0  0  0  0  0  0  0  0
   -4.4850   22.5990  -30.4610 C   0  0  0  0  0  0  0  0  0  0  0  0
   -5.3800   21.6590  -30.8630 N   0  0  0  0  0  0  0  0  0  0  0  0
   -6.6660   21.9890  -31.1650 C   0  0  0  0  0  0  0  0  0  0  0  0
   -7.6240   20.9440  -31.6020 C   0  0  0  0  0  0  0  0  0  0  0  0
   -8.9510   21.2810  -31.9340 C   0  0  0  0  0  0  0  0  0  0  0  0
   -9.8520   20.2930  -32.3450 C   0  0  0  0  0  0  0  0  0  0  0  0
   -9.4430   18.9610  -32.4300 C   0  0  0  0  0  0  0  0  0  0  0  0
   -8.1310   18.6130  -32.1040 C   0  0  0  0  0  0  0  0  0  0  0  0
   -7.2250   19.5950  -31.6920 C   0  0  0  0  0  0  0  0  0  0  0  0
   -7.0660   23.2880  -31.0590 N   0  0  0  0  0  0  0  0  0  0  0  0
   -6.2100   24.2640  -30.6620 C   0  0  0  0  0  0  0  0  0  0  0  0
   -4.8860   23.9430  -30.3490 C   0  0  0  0  0  0  0  0  0  0  0  0
   -3.9680   24.9180  -29.9350 C   0  0  0  0  0  0  0  0  0  0  0  0
   -1.3831   23.0635  -25.4102 H   0  0  0  0  0  0  0  0  0  0  0  0
   -2.3226   22.9848  -26.9392 H   0  0  0  0  0  0  0  0  0  0  0  0
   -0.6628   23.6718  -26.9392 H   0  0  0  0  0  0  0  0  0  0  0  0
   -4.1723   24.9344  -25.4938 H   0  0  0  0  0  0  0  0  0  0  0  0
   -3.8115   25.8281  -27.0097 H   0  0  0  0  0  0  0  0  0  0  0  0
   -3.8340   24.0319  -27.0097 H   0  0  0  0  0  0  0  0  0  0  0  0
   -2.1137   26.7421  -27.1402 H   0  0  0  0  0  0  0  0  0  0  0  0
   -0.6103   26.3428  -26.2182 H   0  0  0  0  0  0  0  0  0  0  0  0
    0.1552   25.8795  -28.3359 H   0  0  0  0  0  0  0  0  0  0  0  0
   -0.5942   24.2811  -27.9502 H   0  0  0  0  0  0  0  0  0  0  0  0
   -1.2226   22.9188  -29.5047 H   0  0  0  0  0  0  0  0  0  0  0  0
   -2.8571   21.1858  -30.2351 H   0  0  0  0  0  0  0  0  0  0  0  0
   -9.2809   22.3284  -31.8696 H   0  0  0  0  0  0  0  0  0  0  0  0
  -10.8860   20.5665  -32.6020 H   0  0  0  0  0  0  0  0  0  0  0  0
  -10.1538   18.1864  -32.7535 H   0  0  0  0  0  0  0  0  0  0  0  0
   -7.8091   17.5633  -32.1714 H   0  0  0  0  0  0  0  0  0  0  0  0
   -6.1931   19.3128  -31.4362 H   0  0  0  0  0  0  0  0  0  0  0  0
   -6.5575   25.3050  -30.5868 H   0  0  0  0  0  0  0  0  0  0  0  0
   -4.2863   25.9665  -29.8378 H   0  0  0  0  0  0  0  0  0  0  0  0
  1  2  1  0
  2  3  1  0
  2  4  1  0
  4  5  1  0
  5  6  1  0
  6  7  1  0
  7  8  2  0
  8  9  1  0
  9 10  2  0
 10 11  1  0
 11 12  2  0
 12 13  1  0
 13 14  2  0
 14 15  1  0
 15 16  2  0
 16 17  1  0
 17 18  2  0
 12 19  1  0
 19 20  2  0
 20 21  1  0
 21 22  2  0
 22  7  1  0
 21 10  1  0
 18 13  1  0
  1 23  1  0
  1 24  1  0
  1 25  1  0
  3 26  1  0
  3 27  1  0
  3 28  1  0
  4 29  1  0
  4 30  1  0
  5 31  1  0
  5 32  1  0
  8 33  1  0
  9 34  1  0
 14 35  1  0
 15 36  1  0
 16 37  1  0
 17 38  1  0
 18 39  1  0
 20 40  1  0
 22 41  1  0
M  END
>  <UniqueID>  (6) 
6

>  <SMILES>  (6) 
CN(C)CCOc1ccc2nc(-c3ccccc3)ncc2c1

>  <Energy>  (6) 
48.05658061913078

>  <Genealogy>  (6) 
CN(C)CCOc1ccc2nc(-c3ccccc3)ncc2c1 (3D coordinates assigned)
CN(C)CCOc1ccc2nc(-c3ccccc3)ncc2c1 (optimized conformer: 48.05658061913078 kcal/mol)

>  <smiles>  (6) 
CN(C)CCOc1ccc2nc(-c3ccccc3)ncc2c1

>  <score_type>  (6) 
oracle

>  <origin>  (6) 
adg

>  <m_score__min__energy>  (6) 
-7.3600000000000003

>  <m_primary>  (6) 
energy

$$$$
6:0
     RDKit          3D

 49 51  0  0  0  0  0  0  0  0999 V2000
   -9.1090   21.9970  -31.3230 C   0  0  0  0  0  0  0  0  0  0  0  0
   -7.8600   22.3390  -30.5200 C   0  0  0  0  0  0  0  0  0  0  0  0
   -6.6690   22.3830  -31.3780 N   0  0  0  0  0  0  0  0  0  0  0  0
   -5.8130   23.4130  -31.5830 C   0  0  0  0  0  0  0  0  0  0  0  0
   -5.7700   24.6800  -30.7860 C   0  0  0  0  0  0  0  0  0  0  0  0
   -4.4190   24.9430  -30.4380 O   0  0  0  0  0  0  0  0  0  0  0  0
   -3.6800   24.1770  -29.5240 C   0  0  0  0  0  0  0  0  0  0  0  0
   -2.3190   24.4790  -29.3350 C   0  0  0  0  0  0  0  0  0  0  0  0
   -1.5480   23.7500  -28.4210 C   0  0  0  0  0  0  0  0  0  0  0  0
   -2.1350   22.7170  -27.6740 C   0  0  0  0  0  0  0  0  0  0  0  0
   -3.4880   22.4040  -27.8540 C   0  0  0  0  0  0  0  0  0  0  0  0
   -4.2580   23.1250  -28.7760 C   0  0  0  0  0  0  0  0  0  0  0  0
   -4.9510   23.1540  -32.5970 N   0  0  0  0  0  0  0  0  0  0  0  0
   -5.2840   21.9640  -33.0660 N   0  0  0  0  0  0  0  0  0  0  0  0
   -6.2860   21.4770  -32.3040 C   0  0  0  0  0  0  0  0  0  0  0  0
   -7.0710   19.8760  -32.5590 S   0  0  0  0  0  0  0  0  0  0  0  0
   -5.9260   19.2430  -33.8540 C   0  0  0  0  0  0  0  0  0  0  0  0
   -4.5650   18.7730  -33.3060 C   0  0  0  0  0  0  0  0  0  0  0  0
   -3.6450   19.9050  -33.0850 N   0  0  0  0  0  0  0  0  0  0  0  0
   -3.3060   20.0500  -31.6580 C   0  0  0  0  0  0  0  0  0  0  0  0
   -2.4640   21.3310  -31.4550 C   0  0  0  0  0  0  0  0  0  0  0  0
   -1.9750   21.8570  -32.6830 O   0  0  0  0  0  0  0  0  0  0  0  0
   -1.3520   20.8330  -33.4350 C   0  0  0  0  0  0  0  0  0  0  0  0
   -2.3810   19.7610  -33.8540 C   0  0  0  0  0  0  0  0  0  0  0  0
   -9.9367   21.7704  -30.6348 H   0  0  0  0  0  0  0  0  0  0  0  0
   -9.3832   22.8531  -31.9569 H   0  0  0  0  0  0  0  0  0  0  0  0
   -8.9088   21.1206  -31.9569 H   0  0  0  0  0  0  0  0  0  0  0  0
   -7.9968   23.3223  -30.0463 H   0  0  0  0  0  0  0  0  0  0  0  0
   -7.7114   21.5579  -29.7599 H   0  0  0  0  0  0  0  0  0  0  0  0
   -6.1676   25.5110  -31.3871 H   0  0  0  0  0  0  0  0  0  0  0  0
   -6.3818   24.5769  -29.8777 H   0  0  0  0  0  0  0  0  0  0  0  0
   -1.8565   25.2947  -29.9101 H   0  0  0  0  0  0  0  0  0  0  0  0
   -0.4821   23.9871  -28.2885 H   0  0  0  0  0  0  0  0  0  0  0  0
   -1.5321   22.1531  -26.9470 H   0  0  0  0  0  0  0  0  0  0  0  0
   -3.9465   21.5916  -27.2711 H   0  0  0  0  0  0  0  0  0  0  0  0
   -5.3187   22.8713  -28.9190 H   0  0  0  0  0  0  0  0  0  0  0  0
   -4.8140   21.4920  -33.8710 H   0  0  0  0  0  0  0  0  0  0  0  0
   -6.4089   18.3930  -34.3582 H   0  0  0  0  0  0  0  0  0  0  0  0
   -5.7236   20.0797  -34.5388 H   0  0  0  0  0  0  0  0  0  0  0  0
   -4.7260   18.2528  -32.3503 H   0  0  0  0  0  0  0  0  0  0  0  0
   -4.1098   18.1014  -34.0488 H   0  0  0  0  0  0  0  0  0  0  0  0
   -4.2310   20.1219  -31.0670 H   0  0  0  0  0  0  0  0  0  0  0  0
   -2.7268   19.1749  -31.3283 H   0  0  0  0  0  0  0  0  0  0  0  0
   -3.0910   22.0929  -30.9688 H   0  0  0  0  0  0  0  0  0  0  0  0
   -1.5960   21.0675  -30.8328 H   0  0  0  0  0  0  0  0  0  0  0  0
   -0.8997   21.2714  -34.3368 H   0  0  0  0  0  0  0  0  0  0  0  0
   -0.5792   20.3576  -32.8131 H   0  0  0  0  0  0  0  0  0  0  0  0
   -2.5983   19.8710  -34.9267 H   0  0  0  0  0  0  0  0  0  0  0  0
   -1.9561   18.7679  -33.6462 H   0  0  0  0  0  0  0  0  0  0  0  0
  1  2  1  0
  2  3  1  0
  3  4  1  0
  4  5  1  0
  5  6  1  0
  6  7  1  0
  7  8  2  0
  8  9  1  0
  9 10  2  0
 10 11  1  0
 11 12  2  0
  4 13  2  0
 13 14  1  0
 14 15  2  0
 15 16  1  0
 16 17  1  0
 17 18  1  0
 18 19  1  0
 19 20  1  0
 20 21  1  0
 21 22  1  0
 22 23  1  0
 23 24  1  0
 15  3  1  0
 24 19  1  0
 12  7  1  0
  1 25  1  0
  1 26  1  0
  1 27  1  0
  2 28  1  0
  2 29  1  0
  5 30  1  0
  5 31  1  0
  8 32  1  0
  9 33  1  0
 10 34  1  0
 11 35  1  0
 12 36  1  0
 14 37  1  0
 17 38  1  0
 17 39  1  0
 18 40  1  0
 18 41  1  0
 20 42  1  0
 20 43  1  0
 21 44  1  0
 21 45  1  0
 23 46  1  0
 23 47  1  0
 24 48  1  0
 24 49  1  0
M  CHG  1  14   1
M  END
>  <UniqueID>  (7) 
7

>  <SMILES>  (7) 
CCn1c(COc2ccccc2)n[nH+]c1SCCN1CCOCC1

>  <Energy>  (7) 
89.50712026252594

>  <Genealogy>  (7) 
CCn1c(COc2ccccc2)n[nH+]c1SCCN1CCOCC1 (protonated)
CCn1c(COc2ccccc2)n[nH+]c1SCCN1CCOCC1 (3D coordinates assigned)
CCn1c(COc2ccccc2)n[nH+]c1SCCN1CCOCC1 (nonaromatic ring conformer: 89.50712026252594 kcal/mol)

>  <smiles>  (7) 
CCn1c(COc2ccccc2)nnc1SCCN1CCOCC1

>  <score_type>  (7) 
oracle

>  <origin>  (7) 
adg

>  <m_score__min__energy>  (7) 
-6.6600000000000001

>  <m_primary>  (7) 
energy

$$$$
7:0
     RDKit          3D

 60 62  0  0  0  0  0  0  0  0999 V2000
   -0.8330   26.8470  -23.6350 C   0  0  0  0  0  0  0  0  0  0  0  0
   -1.5240   26.7150  -24.9900 C   0  0  0  0  0  0  0  0  0  0  0  0
   -1.8740   25.3090  -25.2830 N   0  0  0  0  0  0  0  0  0  0  0  0
   -0.7460   24.4300  -24.9300 C   0  0  0  0  0  0  0  0  0  0  0  0
   -2.2710   25.1050  -26.6990 C   0  0  0  0  0  0  0  0  0  0  0  0
   -1.2980   25.8470  -27.6160 C   0  0  0  0  0  0  0  0  0  0  0  0
   -1.6510   25.6470  -28.9740 O   0  0  0  0  0  0  0  0  0  0  0  0
   -1.5810   24.2780  -29.3360 C   0  0  0  0  0  0  0  0  0  0  0  0
   -2.9600   23.7740  -29.7800 C   0  0  0  0  0  0  0  0  0  0  0  0
   -3.6530   24.7590  -30.5210 O   0  0  0  0  0  0  0  0  0  0  0  0
   -4.9440   24.9750  -29.9890 C   0  0  0  0  0  0  0  0  0  0  0  0
   -5.8870   23.9140  -30.5550 C   0  0  0  0  0  0  0  0  0  0  0  0
   -5.3520   23.3310  -31.7860 N   0  0  0  0  0  0  0  0  0  0  0  0
   -5.7360   22.0190  -32.2340 C   0  0  0  0  0  0  0  0  0  0  0  0
   -7.0870   21.6290  -32.2380 C   0  0  0  0  0  0  0  0  0  0  0  0
   -8.1070   22.5500  -31.9140 C   0  0  0  0  0  0  0  0  0  0  0  0
   -9.4450   22.1700  -31.9430 C   0  0  0  0  0  0  0  0  0  0  0  0
   -9.7950   20.8810  -32.3270 C   0  0  0  0  0  0  0  0  0  0  0  0
   -8.8070   19.9610  -32.6760 C   0  0  0  0  0  0  0  0  0  0  0  0
   -7.4320   20.3000  -32.6080 C   0  0  0  0  0  0  0  0  0  0  0  0
   -6.4390   19.3870  -32.9170 N   0  0  0  0  0  0  0  0  0  0  0  0
   -6.7660   17.9490  -33.0450 C   0  0  0  0  0  0  0  0  0  0  0  0
   -5.1360   19.8150  -33.0950 C   0  0  0  0  0  0  0  0  0  0  0  0
   -4.1440   18.9730  -33.6590 C   0  0  0  0  0  0  0  0  0  0  0  0
   -2.8200   19.3970  -33.7740 C   0  0  0  0  0  0  0  0  0  0  0  0
   -2.4510   20.6670  -33.3460 C   0  0  0  0  0  0  0  0  0  0  0  0
   -0.7810   21.1880  -33.4830 Cl  0  0  0  0  0  0  0  0  0  0  0  0
   -3.4120   21.5330  -32.8280 C   0  0  0  0  0  0  0  0  0  0  0  0
   -4.7610   21.1320  -32.7190 C   0  0  0  0  0  0  0  0  0  0  0  0
   -1.5711   26.7060  -22.8317 H   0  0  0  0  0  0  0  0  0  0  0  0
   -0.0465   26.0829  -23.5485 H   0  0  0  0  0  0  0  0  0  0  0  0
   -0.3835   27.8472  -23.5485 H   0  0  0  0  0  0  0  0  0  0  0  0
   -2.4436   27.3186  -24.9830 H   0  0  0  0  0  0  0  0  0  0  0  0
   -0.8308   27.0682  -25.7677 H   0  0  0  0  0  0  0  0  0  0  0  0
   -0.6613   24.3640  -23.8353 H   0  0  0  0  0  0  0  0  0  0  0  0
   -0.9192   23.4264  -25.3456 H   0  0  0  0  0  0  0  0  0  0  0  0
    0.1849   24.8432  -25.3456 H   0  0  0  0  0  0  0  0  0  0  0  0
   -2.2490   24.0307  -26.9343 H   0  0  0  0  0  0  0  0  0  0  0  0
   -3.2880   25.4947  -26.8533 H   0  0  0  0  0  0  0  0  0  0  0  0
   -1.3322   26.9223  -27.3869 H   0  0  0  0  0  0  0  0  0  0  0  0
   -0.2827   25.4579  -27.4496 H   0  0  0  0  0  0  0  0  0  0  0  0
   -0.8667   24.1575  -30.1638 H   0  0  0  0  0  0  0  0  0  0  0  0
   -1.2498   23.6938  -28.4648 H   0  0  0  0  0  0  0  0  0  0  0  0
   -2.8298   22.8796  -30.4070 H   0  0  0  0  0  0  0  0  0  0  0  0
   -3.5489   23.5372  -28.8816 H   0  0  0  0  0  0  0  0  0  0  0  0
   -4.9113   24.8950  -28.8924 H   0  0  0  0  0  0  0  0  0  0  0  0
   -5.3003   25.9793  -30.2619 H   0  0  0  0  0  0  0  0  0  0  0  0
   -6.0191   23.1168  -29.8086 H   0  0  0  0  0  0  0  0  0  0  0  0
   -6.8499   24.3927  -30.7868 H   0  0  0  0  0  0  0  0  0  0  0  0
   -4.6100   23.8460  -32.3100 H   0  0  0  0  0  0  0  0  0  0  0  0
   -7.8406   23.5802  -31.6353 H   0  0  0  0  0  0  0  0  0  0  0  0
  -10.2269   22.8907  -31.6616 H   0  0  0  0  0  0  0  0  0  0  0  0
  -10.8542   20.5857  -32.3557 H   0  0  0  0  0  0  0  0  0  0  0  0
   -9.0995   18.9546  -33.0099 H   0  0  0  0  0  0  0  0  0  0  0  0
   -6.8669   17.5054  -32.0435 H   0  0  0  0  0  0  0  0  0  0  0  0
   -7.7128   17.8357  -33.5933 H   0  0  0  0  0  0  0  0  0  0  0  0
   -5.9613   17.4374  -33.5933 H   0  0  0  0  0  0  0  0  0  0  0  0
   -4.4231   17.9691  -34.0116 H   0  0  0  0  0  0  0  0  0  0  0  0
   -2.0647   18.7235  -34.2052 H   0  0  0  0  0  0  0  0  0  0  0  0
   -3.1160   22.5405  -32.5003 H   0  0  0  0  0  0  0  0  0  0  0  0
  1  2  1  0
  2  3  1  0
  3  4  1  0
  3  5  1  0
  5  6  1  0
  6  7  1  0
  7  8  1  0
  8  9  1  0
  9 10  1  0
 10 11  1  0
 11 12  1  0
 12 13  1  0
 13 14  1  0
 14 15  2  0
 15 16  1  0
 16 17  2  0
 17 18  1  0
 18 19  2  0
 19 20  1  0
 20 21  2  0
 21 22  1  0
 21 23  1  0
 23 24  2  0
 24 25  1  0
 25 26  2  0
 26 27  1  0
 26 28  1  0
 28 29  2  0
 29 14  1  0
 20 15  1  0
 29 23  1  0
  1 30  1  0
  1 31  1  0
  1 32  1  0
  2 33  1  0
  2 34  1  0
  4 35  1  0
  4 36  1  0
  4 37  1  0
  5 38  1  0
  5 39  1  0
  6 40  1  0
  6 41  1  0
  8 42  1  0
  8 43  1  0
  9 44  1  0
  9 45  1  0
 11 46  1  0
 11 47  1  0
 12 48  1  0
 12 49  1  0
 13 50  1  0
 16 51  1  0
 17 52  1  0
 18 53  1  0
 19 54  1  0
 22 55  1  0
 22 56  1  0
 22 57  1  0
 24 58  1  0
 25 59  1  0
 28 60  1  0
M  CHG  1  21   1
M  END
>  <UniqueID>  (8) 
8

>  <SMILES>  (8) 
CCN(C)CCOCCOCCNc1c2ccccc2[n+](C)c2ccc(Cl)cc12

>  <Energy>  (8) 
82.55021973013935

>  <Genealogy>  (8) 
CCN(C)CCOCCOCCNc1c2ccccc2[n+](C)c2ccc(Cl)cc12 (3D coordinates assigned)
CCN(C)CCOCCOCCNc1c2ccccc2[n+](C)c2ccc(Cl)cc12 (optimized conformer: 82.55021973013935 kcal/mol)

>  <smiles>  (8) 
CCN(C)CCOCCOCCNc1c2ccccc2[n+](C)c2ccc(Cl)cc12

>  <score_type>  (8) 
oracle

>  <origin>  (8) 
adg

>  <m_score__min__energy>  (8) 
-9.4100000000000001

>  <m_primary>  (8) 
energy

$$$$
8:0
     RDKit          3D

 64 65  0  0  0  0  0  0  0  0999 V2000
   -2.2190   20.0650  -28.2860 C   0  0  0  0  0  0  0  0  0  0  0  0
   -3.0870   20.9950  -27.4430 C   0  0  0  0  0  0  0  0  0  0  0  0
   -3.7670   21.9680  -28.3040 N   0  0  0  0  0  0  0  0  0  0  0  0
   -4.3790   23.0250  -27.4910 C   0  0  0  0  0  0  0  0  0  0  0  0
   -3.5030   24.2790  -27.5150 C   0  0  0  0  0  0  0  0  0  0  0  0
   -2.1490   23.9390  -27.8010 O   0  0  0  0  0  0  0  0  0  0  0  0
   -1.3850   24.5860  -28.7780 C   0  0  0  0  0  0  0  0  0  0  0  0
   -1.4520   25.8370  -28.9300 O   0  0  0  0  0  0  0  0  0  0  0  0
   -0.5020   23.7750  -29.6730 C   0  0  0  0  0  0  0  0  0  0  0  0
   -1.1800   22.4470  -30.0410 C   0  0  0  0  0  0  0  0  0  0  0  0
   -2.3510   22.6160  -31.0310 C   0  0  0  0  0  0  0  0  0  0  0  0
   -3.3390   23.6430  -30.6500 N   0  0  0  0  0  0  0  0  0  0  0  0
   -4.6750   23.4650  -31.2460 C   0  0  0  0  0  0  0  0  0  0  0  0
   -5.7480   24.2950  -30.5270 C   0  0  0  0  0  0  0  0  0  0  0  0
   -6.9640   23.5060  -30.3100 N   0  0  0  0  0  0  0  0  0  0  0  0
   -7.6810   23.0090  -31.8180 S   0  0  0  0  0  0  0  0  0  0  0  0
   -9.0660   23.5830  -31.9290 O   0  0  0  0  0  0  0  0  0  0  0  0
   -6.8340   23.5410  -32.9400 O   0  0  0  0  0  0  0  0  0  0  0  0
   -7.7520   21.2400  -31.9410 C   0  0  0  0  0  0  0  0  0  0  0  0
   -8.9230   20.5890  -31.5250 C   0  0  0  0  0  0  0  0  0  0  0  0
   -9.0430   19.2050  -31.6130 C   0  0  0  0  0  0  0  0  0  0  0  0
   -7.9980   18.4400  -32.1210 C   0  0  0  0  0  0  0  0  0  0  0  0
   -6.8030   19.0510  -32.5430 C   0  0  0  0  0  0  0  0  0  0  0  0
   -5.7340   18.2760  -33.0520 C   0  0  0  0  0  0  0  0  0  0  0  0
   -5.8520   16.8530  -33.2050 N   0  0  0  0  0  0  0  0  0  0  0  0
   -5.2150   15.9620  -32.2390 C   0  0  0  0  0  0  0  0  0  0  0  0
   -6.7500   16.3150  -34.2250 C   0  0  0  0  0  0  0  0  0  0  0  0
   -4.5410   18.9000  -33.4310 C   0  0  0  0  0  0  0  0  0  0  0  0
   -4.3970   20.2790  -33.3130 C   0  0  0  0  0  0  0  0  0  0  0  0
   -5.4440   21.0580  -32.8230 C   0  0  0  0  0  0  0  0  0  0  0  0
   -6.6660   20.4670  -32.4370 C   0  0  0  0  0  0  0  0  0  0  0  0
   -1.6196   19.4228  -27.6240 H   0  0  0  0  0  0  0  0  0  0  0  0
   -2.8625   19.4381  -28.9208 H   0  0  0  0  0  0  0  0  0  0  0  0
   -1.5493   20.6638  -28.9208 H   0  0  0  0  0  0  0  0  0  0  0  0
   -3.8380   20.4006  -26.9020 H   0  0  0  0  0  0  0  0  0  0  0  0
   -2.4482   21.5327  -26.7268 H   0  0  0  0  0  0  0  0  0  0  0  0
   -3.0410   22.4140  -28.9140 H   0  0  0  0  0  0  0  0  0  0  0  0
   -5.3724   23.2671  -27.8966 H   0  0  0  0  0  0  0  0  0  0  0  0
   -4.4747   22.6720  -26.4536 H   0  0  0  0  0  0  0  0  0  0  0  0
   -3.8750   24.9652  -28.2901 H   0  0  0  0  0  0  0  0  0  0  0  0
   -3.5467   24.7613  -26.5274 H   0  0  0  0  0  0  0  0  0  0  0  0
   -0.2983   24.3439  -30.5921 H   0  0  0  0  0  0  0  0  0  0  0  0
    0.4377   23.5590  -29.1435 H   0  0  0  0  0  0  0  0  0  0  0  0
   -0.4288   21.7858  -30.4977 H   0  0  0  0  0  0  0  0  0  0  0  0
   -1.5943   22.0238  -29.1140 H   0  0  0  0  0  0  0  0  0  0  0  0
   -1.9337   22.8894  -32.0114 H   0  0  0  0  0  0  0  0  0  0  0  0
   -2.8892   21.6567  -31.0411 H   0  0  0  0  0  0  0  0  0  0  0  0
   -3.4280   23.6800  -29.6080 H   0  0  0  0  0  0  0  0  0  0  0  0
   -4.6361   23.7745  -32.3009 H   0  0  0  0  0  0  0  0  0  0  0  0
   -4.9486   22.4040  -31.1490 H   0  0  0  0  0  0  0  0  0  0  0  0
   -5.3552   24.6256  -29.5541 H   0  0  0  0  0  0  0  0  0  0  0  0
   -6.0001   25.1620  -31.1553 H   0  0  0  0  0  0  0  0  0  0  0  0
   -9.7586   21.1810  -31.1234 H   0  0  0  0  0  0  0  0  0  0  0  0
   -9.9688   18.7137  -31.2792 H   0  0  0  0  0  0  0  0  0  0  0  0
   -8.1070   17.3478  -32.1934 H   0  0  0  0  0  0  0  0  0  0  0  0
   -5.4540   16.2963  -31.2187 H   0  0  0  0  0  0  0  0  0  0  0  0
   -5.5862   14.9369  -32.3854 H   0  0  0  0  0  0  0  0  0  0  0  0
   -4.1250   15.9816  -32.3854 H   0  0  0  0  0  0  0  0  0  0  0  0
   -7.5961   15.8081  -33.7381 H   0  0  0  0  0  0  0  0  0  0  0  0
   -7.1264   17.1365  -34.8523 H   0  0  0  0  0  0  0  0  0  0  0  0
   -6.2033   15.5956  -34.8523 H   0  0  0  0  0  0  0  0  0  0  0  0
   -3.7104   18.2961  -33.8253 H   0  0  0  0  0  0  0  0  0  0  0  0
   -3.4514   20.7572  -33.6081 H   0  0  0  0  0  0  0  0  0  0  0  0
   -5.3161   22.1471  -32.7361 H   0  0  0  0  0  0  0  0  0  0  0  0
  1  2  1  0
  2  3  1  0
  3  4  1  0
  4  5  1  0
  5  6  1  0
  6  7  1  0
  7  8  2  0
  7  9  1  0
  9 10  1  0
 10 11  1  0
 11 12  1  0
 12 13  1  0
 13 14  1  0
 14 15  1  0
 15 16  1  0
 16 17  2  0
 16 18  2  0
 16 19  1  0
 19 20  2  0
 20 21  1  0
 21 22  2  0
 22 23  1  0
 23 24  2  0
 24 25  1  0
 25 26  1  0
 25 27  1  0
 24 28  1  0
 28 29  2  0
 29 30  1  0
 30 31  2  0
 31 19  1  0
 31 23  1  0
  1 32  1  0
  1 33  1  0
  1 34  1  0
  2 35  1  0
  2 36  1  0
  3 37  1  0
  4 38  1  0
  4 39  1  0
  5 40  1  0
  5 41  1  0
  9 42  1  0
  9 43  1  0
 10 44  1  0
 10 45  1  0
 11 46  1  0
 11 47  1  0
 12 48  1  0
 13 49  1  0
 13 50  1  0
 14 51  1  0
 14 52  1  0
 20 53  1  0
 21 54  1  0
 22 55  1  0
 26 56  1  0
 26 57  1  0
 26 58  1  0
 27 59  1  0
 27 60  1  0
 27 61  1  0
 28 62  1  0
 29 63  1  0
 30 64  1  0
M  CHG  1  15  -1
M  END
>  <UniqueID>  (9) 
9

>  <SMILES>  (9) 
CCNCCOC(=O)CCCNCC[N-]S(=O)(=O)c1cccc2c(N(C)C)cccc12

>  <Energy>  (9) 
63.495606513758304

>  <Genealogy>  (9) 
CCNCCOC(=O)CCCNCC[N-]S(=O)(=O)c1cccc2c(N(C)C)cccc12 (protonated)
CCNCCOC(=O)CCCNCC[N-]S(=O)(=O)c1cccc2c(N(C)C)cccc12 (3D coordinates assigned)
CCNCCOC(=O)CCCNCC[N-]S(=O)(=O)c1cccc2c(N(C)C)cccc12 (optimized conformer: 63.495606513758304 kcal/mol)

>  <smiles>  (9) 
CCNCCOC(=O)CCCNCCNS(=O)(=O)c1cccc2c(N(C)C)cccc12

>  <score_type>  (9) 
oracle

>  <origin>  (9) 
adg

>  <m_score__min__energy>  (9) 
-9.0700000000000003

>  <m_primary>  (9) 
energy

$$$$
9:0
     RDKit          3D

 46 47  0  0  0  0  0  0  0  0999 V2000
   -2.7090   20.1000  -33.5090 C   0  0  0  0  0  0  0  0  0  0  0  0
   -4.1590   19.7190  -33.4410 C   0  0  0  0  0  0  0  0  0  0  0  0
   -4.5680   18.4310  -33.8130 C   0  0  0  0  0  0  0  0  0  0  0  0
   -5.9190   18.0640  -33.7320 C   0  0  0  0  0  0  0  0  0  0  0  0
   -6.3510   16.6800  -34.1180 C   0  0  0  0  0  0  0  0  0  0  0  0
   -6.8550   18.9780  -33.2260 C   0  0  0  0  0  0  0  0  0  0  0  0
   -6.4530   20.2590  -32.8130 C   0  0  0  0  0  0  0  0  0  0  0  0
   -7.4370   21.2360  -32.2910 C   0  0  0  0  0  0  0  0  0  0  0  0
   -8.6500   21.1130  -32.6130 O   0  0  0  0  0  0  0  0  0  0  0  0
   -7.0440   22.3600  -31.4170 C   0  0  0  0  0  0  0  0  0  0  0  0
   -7.5510   22.6670  -30.1650 C   0  0  0  0  0  0  0  0  0  0  0  0
   -6.8410   23.7620  -29.7150 C   0  0  0  0  0  0  0  0  0  0  0  0
   -5.9240   24.1230  -30.6360 N   0  0  0  0  0  0  0  0  0  0  0  0
   -4.9940   25.2080  -30.5240 C   0  0  0  0  0  0  0  0  0  0  0  0
   -5.4130   26.3970  -30.4730 O   0  0  0  0  0  0  0  0  0  0  0  0
   -3.5900   24.9410  -30.4690 N   0  0  0  0  0  0  0  0  0  0  0  0
   -2.9310   24.3910  -29.2880 C   0  0  0  0  0  0  0  0  0  0  0  0
   -2.5850   22.8940  -29.4870 C   0  0  0  0  0  0  0  0  0  0  0  0
   -2.8800   22.5050  -30.9490 C   0  0  0  0  0  0  0  0  0  0  0  0
   -1.0900   22.6490  -29.1950 C   0  0  0  0  0  0  0  0  0  0  0  0
   -3.4440   22.0200  -28.5510 C   0  0  0  0  0  0  0  0  0  0  0  0
   -6.0350   23.2700  -31.6730 C   0  0  0  0  0  0  0  0  0  0  0  0
   -5.1030   20.6260  -32.9360 C   0  0  0  0  0  0  0  0  0  0  0  0
   -2.3093   20.2050  -32.4896 H   0  0  0  0  0  0  0  0  0  0  0  0
   -2.1492   19.3185  -34.0436 H   0  0  0  0  0  0  0  0  0  0  0  0
   -2.6057   21.0558  -34.0436 H   0  0  0  0  0  0  0  0  0  0  0  0
   -3.8245   17.7035  -34.1707 H   0  0  0  0  0  0  0  0  0  0  0  0
   -6.5361   16.0871  -33.2102 H   0  0  0  0  0  0  0  0  0  0  0  0
   -7.2742   16.7367  -34.7134 H   0  0  0  0  0  0  0  0  0  0  0  0
   -5.5595   16.2015  -34.7134 H   0  0  0  0  0  0  0  0  0  0  0  0
   -7.9137   18.6889  -33.1519 H   0  0  0  0  0  0  0  0  0  0  0  0
   -8.3592   22.1422  -29.6345 H   0  0  0  0  0  0  0  0  0  0  0  0
   -6.9994   24.2650  -28.7496 H   0  0  0  0  0  0  0  0  0  0  0  0
   -2.0036   24.9520  -29.1005 H   0  0  0  0  0  0  0  0  0  0  0  0
   -3.6170   24.4797  -28.4327 H   0  0  0  0  0  0  0  0  0  0  0  0
   -3.5446   21.6287  -30.9683 H   0  0  0  0  0  0  0  0  0  0  0  0
   -3.3686   23.3471  -31.4610 H   0  0  0  0  0  0  0  0  0  0  0  0
   -1.9373   22.2617  -31.4610 H   0  0  0  0  0  0  0  0  0  0  0  0
   -0.9284   22.6225  -28.1073 H   0  0  0  0  0  0  0  0  0  0  0  0
   -0.7831   21.6886  -29.6348 H   0  0  0  0  0  0  0  0  0  0  0  0
   -0.4926   23.4612  -29.6348 H   0  0  0  0  0  0  0  0  0  0  0  0
   -3.2070   22.2611  -27.5043 H   0  0  0  0  0  0  0  0  0  0  0  0
   -4.5094   22.2173  -28.7405 H   0  0  0  0  0  0  0  0  0  0  0  0
   -3.2283   20.9581  -28.7405 H   0  0  0  0  0  0  0  0  0  0  0  0
   -5.4178   23.2939  -32.5832 H   0  0  0  0  0  0  0  0  0  0  0  0
   -4.7827   21.6339  -32.6336 H   0  0  0  0  0  0  0  0  0  0  0  0
  1  2  1  0
  2  3  2  0
  3  4  1  0
  4  5  1  0
  4  6  2  0
  6  7  1  0
  7  8  1  0
  8  9  2  0
  8 10  1  0
 10 11  1  0
 11 12  2  0
 12 13  1  0
 13 14  1  0
 14 15  2  0
 14 16  1  0
 16 17  1  0
 17 18  1  0
 18 19  1  0
 18 20  1  0
 18 21  1  0
 13 22  1  0
  7 23  2  0
 23  2  1  0
 22 10  2  0
  1 24  1  0
  1 25  1  0
  1 26  1  0
  3 27  1  0
  5 28  1  0
  5 29  1  0
  5 30  1  0
  6 31  1  0
 11 32  1  0
 12 33  1  0
 17 34  1  0
 17 35  1  0
 19 36  1  0
 19 37  1  0
 19 38  1  0
 20 39  1  0
 20 40  1  0
 20 41  1  0
 21 42  1  0
 21 43  1  0
 21 44  1  0
 22 45  1  0
 23 46  1  0
M  CHG  1  16  -1
M  END
>  <UniqueID>  (10) 
10

>  <SMILES>  (10) 
Cc1cc(C)cc(C(=O)c2ccn(C(=O)[N-]CC(C)(C)C)c2)c1

>  <Energy>  (10) 
65.83104628680103

>  <Genealogy>  (10) 
Cc1cc(C)cc(C(=O)c2ccn(C(=O)[N-]CC(C)(C)C)c2)c1 (protonated)
Cc1cc(C)cc(C(=O)c2ccn(C(=O)[N-]CC(C)(C)C)c2)c1 (3D coordinates assigned)
Cc1cc(C)cc(C(=O)c2ccn(C(=O)[N-]CC(C)(C)C)c2)c1 (optimized conformer: 65.83104628680103 kcal/mol)

>  <smiles>  (10) 
Cc1cc(C)cc(C(=O)c2ccn(C(=O)NCC(C)(C)C)c2)c1

>  <score_type>  (10) 
oracle

>  <origin>  (10) 
adg

>  <m_score__min__energy>  (10) 
-9.5800000000000001

>  <m_primary>  (10) 
energy

$$$$
10:0
     RDKit          3D

 44 46  0  0  0  0  0  0  0  0999 V2000
   -2.2050   23.8180  -29.3450 C   0  0  0  0  0  0  0  0  0  0  0  0
   -3.7050   24.0070  -29.5390 C   0  0  0  0  0  0  0  0  0  0  0  0
   -3.9680   24.7560  -30.7770 N   0  0  0  0  0  0  0  0  0  0  0  0
   -5.3930   25.0900  -30.9460 C   0  0  0  0  0  0  0  0  0  0  0  0
   -6.2960   23.8420  -30.9850 C   0  0  0  0  0  0  0  0  0  0  0  0
   -6.2360   23.1870  -32.2920 N   0  0  0  0  0  0  0  0  0  0  0  0
   -6.0010   21.7760  -32.4260 C   0  0  0  0  0  0  0  0  0  0  0  0
   -4.6910   21.3160  -32.5470 C   0  0  0  0  0  0  0  0  0  0  0  0
   -4.4250   19.9350  -32.6220 C   0  0  0  0  0  0  0  0  0  0  0  0
   -5.4660   19.0300  -32.6890 N   0  0  0  0  0  0  0  0  0  0  0  0
   -5.1900   17.6100  -32.9920 C   0  0  0  0  0  0  0  0  0  0  0  0
   -6.7670   19.4570  -32.4830 C   0  0  0  0  0  0  0  0  0  0  0  0
   -7.8420   18.5400  -32.3550 C   0  0  0  0  0  0  0  0  0  0  0  0
   -9.1570   18.9870  -32.2260 C   0  0  0  0  0  0  0  0  0  0  0  0
   -9.4360   20.3480  -32.2200 C   0  0  0  0  0  0  0  0  0  0  0  0
   -8.3990   21.2740  -32.3050 C   0  0  0  0  0  0  0  0  0  0  0  0
   -7.0580   20.8470  -32.3940 C   0  0  0  0  0  0  0  0  0  0  0  0
   -2.9670   19.5070  -32.7140 C   0  0  0  0  0  0  0  0  0  0  0  0
   -2.0250   20.5040  -32.0280 C   0  0  0  0  0  0  0  0  0  0  0  0
   -2.3720   21.9120  -32.4010 C   0  0  0  0  0  0  0  0  0  0  0  0
   -3.6090   22.2620  -32.5740 N   0  0  0  0  0  0  0  0  0  0  0  0
   -1.9751   23.7890  -28.2697 H   0  0  0  0  0  0  0  0  0  0  0  0
   -1.8910   22.8732  -29.8127 H   0  0  0  0  0  0  0  0  0  0  0  0
   -1.6664   24.6554  -29.8127 H   0  0  0  0  0  0  0  0  0  0  0  0
   -4.1901   23.0217  -29.6007 H   0  0  0  0  0  0  0  0  0  0  0  0
   -4.1083   24.5721  -28.6858 H   0  0  0  0  0  0  0  0  0  0  0  0
   -3.6350   24.1890  -31.5900 H   0  0  0  0  0  0  0  0  0  0  0  0
   -5.7075   25.7257  -30.1052 H   0  0  0  0  0  0  0  0  0  0  0  0
   -5.5006   25.6081  -31.9104 H   0  0  0  0  0  0  0  0  0  0  0  0
   -5.9624   23.1333  -30.2127 H   0  0  0  0  0  0  0  0  0  0  0  0
   -7.3337   24.1566  -30.8000 H   0  0  0  0  0  0  0  0  0  0  0  0
   -6.0610   23.7940  -33.1260 H   0  0  0  0  0  0  0  0  0  0  0  0
   -5.0810   17.0490  -32.0521 H   0  0  0  0  0  0  0  0  0  0  0  0
   -6.0235   17.1907  -33.5747 H   0  0  0  0  0  0  0  0  0  0  0  0
   -4.2602   17.5334  -33.5747 H   0  0  0  0  0  0  0  0  0  0  0  0
   -7.6352   17.4596  -32.3575 H   0  0  0  0  0  0  0  0  0  0  0  0
   -9.9761   18.2593  -32.1287 H   0  0  0  0  0  0  0  0  0  0  0  0
  -10.4774   20.6948  -32.1480 H   0  0  0  0  0  0  0  0  0  0  0  0
   -8.6285   22.3498  -32.3027 H   0  0  0  0  0  0  0  0  0  0  0  0
   -2.8552   18.5248  -32.2315 H   0  0  0  0  0  0  0  0  0  0  0  0
   -2.6948   19.4638  -33.7789 H   0  0  0  0  0  0  0  0  0  0  0  0
   -2.1113   20.3888  -30.9375 H   0  0  0  0  0  0  0  0  0  0  0  0
   -0.9957   20.2974  -32.3564 H   0  0  0  0  0  0  0  0  0  0  0  0
   -1.5715   22.6555  -32.5293 H   0  0  0  0  0  0  0  0  0  0  0  0
  1  2  1  0
  2  3  1  0
  3  4  1  0
  4  5  1  0
  5  6  1  0
  6  7  1  0
  7  8  2  0
  8  9  1  0
  9 10  2  0
 10 11  1  0
 10 12  1  0
 12 13  2  0
 13 14  1  0
 14 15  2  0
 15 16  1  0
 16 17  2  0
  9 18  1  0
 18 19  1  0
 19 20  1  0
 20 21  2  0
 17  7  1  0
 21  8  1  0
 17 12  1  0
  1 22  1  0
  1 23  1  0
  1 24  1  0
  2 25  1  0
  2 26  1  0
  3 27  1  0
  4 28  1  0
  4 29  1  0
  5 30  1  0
  5 31  1  0
  6 32  1  0
 11 33  1  0
 11 34  1  0
 11 35  1  0
 13 36  1  0
 14 37  1  0
 15 38  1  0
 16 39  1  0
 18 40  1  0
 18 41  1  0
 19 42  1  0
 19 43  1  0
 20 44  1  0
M  CHG  1  10   1
M  END
>  <UniqueID>  (11) 
11

>  <SMILES>  (11) 
CCNCCNc1c2c([n+](C)c3ccccc13)CCC=N2

>  <Energy>  (11) 
63.21804900880406

>  <Genealogy>  (11) 
CCNCCNc1c2c([n+](C)c3ccccc13)CCC=N2 (3D coordinates assigned)
CCNCCNc1c2c([n+](C)c3ccccc13)CCC=N2 (nonaromatic ring conformer: 63.21804900880406 kcal/mol)

>  <smiles>  (11) 
CCNCCNc1c2c([n+](C)c3ccccc13)CCC=N2

>  <score_type>  (11) 
oracle

>  <origin>  (11) 
adg

>  <m_score__min__energy>  (11) 
-8.3800000000000008

>  <m_primary>  (11) 
energy

$$$$
11:0
     RDKit          3D

 44 46  0  0  0  0  0  0  0  0999 V2000
   -2.4730   22.8820  -30.0030 C   0  0  0  0  0  0  0  0  0  0  0  0
   -3.7040   23.7210  -29.6670 C   0  0  0  0  0  0  0  0  0  0  0  0
   -4.2550   24.3640  -30.8680 N   0  0  0  0  0  0  0  0  0  0  0  0
   -5.3910   25.2560  -30.5730 C   0  0  0  0  0  0  0  0  0  0  0  0
   -6.7170   24.4840  -30.6470 C   0  0  0  0  0  0  0  0  0  0  0  0
   -6.5480   23.0000  -31.0190 C   0  0  0  0  0  0  0  0  0  0  0  0
   -6.0500   22.8230  -32.3930 N   0  0  0  0  0  0  0  0  0  0  0  0
   -5.8920   21.4140  -32.6970 C   0  0  0  0  0  0  0  0  0  0  0  0
   -4.6380   20.8410  -33.0450 C   0  0  0  0  0  0  0  0  0  0  0  0
   -3.4560   21.6140  -33.0670 C   0  0  0  0  0  0  0  0  0  0  0  0
   -2.2280   21.0350  -33.3770 C   0  0  0  0  0  0  0  0  0  0  0  0
   -2.1440   19.6780  -33.6540 C   0  0  0  0  0  0  0  0  0  0  0  0
   -3.2900   18.8840  -33.6350 C   0  0  0  0  0  0  0  0  0  0  0  0
   -4.5640   19.4410  -33.3540 C   0  0  0  0  0  0  0  0  0  0  0  0
   -5.7070   18.6550  -33.3490 N   0  0  0  0  0  0  0  0  0  0  0  0
   -5.6710   17.2540  -33.8150 C   0  0  0  0  0  0  0  0  0  0  0  0
   -6.8840   19.1980  -32.8890 C   0  0  0  0  0  0  0  0  0  0  0  0
   -8.0920   18.5030  -32.6570 C   0  0  0  0  0  0  0  0  0  0  0  0
   -9.1180   19.3200  -32.1970 C   0  0  0  0  0  0  0  0  0  0  0  0
   -8.5390   20.8920  -32.0590 S   0  0  0  0  0  0  0  0  0  0  0  0
   -6.9770   20.5460  -32.5840 C   0  0  0  0  0  0  0  0  0  0  0  0
   -1.9889   22.5521  -29.0720 H   0  0  0  0  0  0  0  0  0  0  0  0
   -2.7775   22.0026  -30.5895 H   0  0  0  0  0  0  0  0  0  0  0  0
   -1.7659   23.4870  -30.5895 H   0  0  0  0  0  0  0  0  0  0  0  0
   -4.4721   23.0694  -29.2248 H   0  0  0  0  0  0  0  0  0  0  0  0
   -3.4058   24.5071  -28.9577 H   0  0  0  0  0  0  0  0  0  0  0  0
   -3.4890   24.9420  -31.2870 H   0  0  0  0  0  0  0  0  0  0  0  0
   -5.2708   25.6723  -29.5619 H   0  0  0  0  0  0  0  0  0  0  0  0
   -5.4095   26.0654  -31.3177 H   0  0  0  0  0  0  0  0  0  0  0  0
   -7.2082   24.5421  -29.6645 H   0  0  0  0  0  0  0  0  0  0  0  0
   -7.3163   24.9492  -31.4435 H   0  0  0  0  0  0  0  0  0  0  0  0
   -5.8332   22.5393  -30.3213 H   0  0  0  0  0  0  0  0  0  0  0  0
   -7.5364   22.5216  -30.9544 H   0  0  0  0  0  0  0  0  0  0  0  0
   -6.7320   23.2460  -33.0620 H   0  0  0  0  0  0  0  0  0  0  0  0
   -5.1530   23.3350  -32.5440 H   0  0  0  0  0  0  0  0  0  0  0  0
   -3.5062   22.6883  -32.8361 H   0  0  0  0  0  0  0  0  0  0  0  0
   -1.3206   21.6562  -33.4024 H   0  0  0  0  0  0  0  0  0  0  0  0
   -1.1690   19.2266  -33.8896 H   0  0  0  0  0  0  0  0  0  0  0  0
   -3.2047   17.8069  -33.8415 H   0  0  0  0  0  0  0  0  0  0  0  0
   -5.6537   16.5791  -32.9466 H   0  0  0  0  0  0  0  0  0  0  0  0
   -6.5641   17.0467  -34.4227 H   0  0  0  0  0  0  0  0  0  0  0  0
   -4.7684   17.0928  -34.4227 H   0  0  0  0  0  0  0  0  0  0  0  0
   -8.2090   17.4221  -32.8239 H   0  0  0  0  0  0  0  0  0  0  0  0
  -10.1412   18.9917  -31.9618 H   0  0  0  0  0  0  0  0  0  0  0  0
  1  2  1  0
  2  3  1  0
  3  4  1  0
  4  5  1  0
  5  6  1  0
  6  7  1  0
  7  8  1  0
  8  9  2  0
  9 10  1  0
 10 11  2  0
 11 12  1  0
 12 13  2  0
 13 14  1  0
 14 15  2  0
 15 16  1  0
 15 17  1  0
 17 18  1  0
 18 19  2  0
 19 20  1  0
 20 21  1  0
 21  8  1  0
 14  9  1  0
 21 17  2  0
  1 22  1  0
  1 23  1  0
  1 24  1  0
  2 25  1  0
  2 26  1  0
  3 27  1  0
  4 28  1  0
  4 29  1  0
  5 30  1  0
  5 31  1  0
  6 32  1  0
  6 33  1  0
  7 34  1  0
  7 35  1  0
 10 36  1  0
 11 37  1  0
 12 38  1  0
 13 39  1  0
 16 40  1  0
 16 41  1  0
 16 42  1  0
 18 43  1  0
 19 44  1  0
M  CHG  2   7   1  15   1
M  END
>  <UniqueID>  (12) 
12

>  <SMILES>  (12) 
CCNCCC[NH2+]c1c2ccccc2[n+](C)c2ccsc12

>  <Energy>  (12) 
88.27705579676626

>  <Genealogy>  (12) 
CCNCCC[NH2+]c1c2ccccc2[n+](C)c2ccsc12 (protonated)
CCNCCC[NH2+]c1c2ccccc2[n+](C)c2ccsc12 (3D coordinates assigned)
CCNCCC[NH2+]c1c2ccccc2[n+](C)c2ccsc12 (optimized conformer: 88.27705579676626 kcal/mol)

>  <smiles>  (12) 
CCNCCCNc1c2ccccc2[n+](C)c2ccsc12

>  <score_type>  (12) 
oracle

>  <origin>  (12) 
adg

>  <m_score__min__energy>  (12) 
-8.2899999999999991

>  <m_primary>  (12) 
energy

$$$$
12:0
     RDKit          3D

 63 65  0  0  0  0  0  0  0  0999 V2000
   -1.2650   28.3010  -34.6330 C   0  0  0  0  0  0  0  0  0  0  0  0
   -0.0970   27.4910  -35.1850 C   0  0  0  0  0  0  0  0  0  0  0  0
   -0.3710   27.1130  -36.5980 N   0  0  0  0  0  0  0  0  0  0  0  0
   -1.5630   27.8110  -37.1320 C   0  0  0  0  0  0  0  0  0  0  0  0
   -1.7440   27.5390  -38.6260 C   0  0  0  0  0  0  0  0  0  0  0  0
   -0.5050   25.6450  -36.7630 C   0  0  0  0  0  0  0  0  0  0  0  0
    0.6520   24.9050  -36.0840 C   0  0  0  0  0  0  0  0  0  0  0  0
    0.9930   23.7540  -36.8250 O   0  0  0  0  0  0  0  0  0  0  0  0
    1.3700   22.7170  -35.9470 C   0  0  0  0  0  0  0  0  0  0  0  0
    0.1560   21.8290  -35.6840 C   0  0  0  0  0  0  0  0  0  0  0  0
   -0.3410   22.0490  -34.3760 O   0  0  0  0  0  0  0  0  0  0  0  0
   -0.9630   20.8890  -33.8580 C   0  0  0  0  0  0  0  0  0  0  0  0
   -2.0440   21.2740  -32.8440 C   0  0  0  0  0  0  0  0  0  0  0  0
   -3.2850   21.6420  -33.5230 N   0  0  0  0  0  0  0  0  0  0  0  0
   -4.5620   21.1410  -33.0910 C   0  0  0  0  0  0  0  0  0  0  0  0
   -5.4300   21.9670  -32.3580 C   0  0  0  0  0  0  0  0  0  0  0  0
   -5.0330   23.2620  -31.9620 C   0  0  0  0  0  0  0  0  0  0  0  0
   -5.8810   24.0650  -31.2060 C   0  0  0  0  0  0  0  0  0  0  0  0
   -7.1280   23.5900  -30.8180 C   0  0  0  0  0  0  0  0  0  0  0  0
   -7.5470   22.3180  -31.2070 C   0  0  0  0  0  0  0  0  0  0  0  0
   -6.7240   21.4910  -32.0130 C   0  0  0  0  0  0  0  0  0  0  0  0
   -7.1430   20.2470  -32.4500 N   0  0  0  0  0  0  0  0  0  0  0  0
   -8.5700   19.8690  -32.3480 C   0  0  0  0  0  0  0  0  0  0  0  0
   -6.2310   19.3620  -32.9950 C   0  0  0  0  0  0  0  0  0  0  0  0
   -6.5450   17.9930  -33.1960 C   0  0  0  0  0  0  0  0  0  0  0  0
   -5.6210   17.1180  -33.7690 C   0  0  0  0  0  0  0  0  0  0  0  0
   -6.0790   15.2820  -34.0300 Br  0  0  0  0  0  0  0  0  0  0  0  0
   -4.3600   17.5750  -34.1340 C   0  0  0  0  0  0  0  0  0  0  0  0
   -4.0090   18.9040  -33.9160 C   0  0  0  0  0  0  0  0  0  0  0  0
   -4.9280   19.8090  -33.3470 C   0  0  0  0  0  0  0  0  0  0  0  0
   -1.2373   28.2818  -33.5335 H   0  0  0  0  0  0  0  0  0  0  0  0
   -1.1883   29.3408  -34.9836 H   0  0  0  0  0  0  0  0  0  0  0  0
   -2.2119   27.8647  -34.9836 H   0  0  0  0  0  0  0  0  0  0  0  0
    0.8208   28.0956  -35.1398 H   0  0  0  0  0  0  0  0  0  0  0  0
    0.0306   26.5795  -34.5826 H   0  0  0  0  0  0  0  0  0  0  0  0
   -2.4553   27.4595  -36.5932 H   0  0  0  0  0  0  0  0  0  0  0  0
   -1.4238   28.8930  -36.9907 H   0  0  0  0  0  0  0  0  0  0  0  0
   -2.3487   26.6303  -38.7626 H   0  0  0  0  0  0  0  0  0  0  0  0
   -2.2545   28.3931  -39.0950 H   0  0  0  0  0  0  0  0  0  0  0  0
   -0.7590   27.3980  -39.0950 H   0  0  0  0  0  0  0  0  0  0  0  0
   -1.4539   25.3181  -36.3127 H   0  0  0  0  0  0  0  0  0  0  0  0
   -0.4859   25.4114  -37.8377 H   0  0  0  0  0  0  0  0  0  0  0  0
    1.5252   25.5714  -36.0248 H   0  0  0  0  0  0  0  0  0  0  0  0
    0.3420   24.6032  -35.0726 H   0  0  0  0  0  0  0  0  0  0  0  0
    2.1730   22.1197  -36.4036 H   0  0  0  0  0  0  0  0  0  0  0  0
    1.7337   23.1427  -35.0002 H   0  0  0  0  0  0  0  0  0  0  0  0
   -0.6310   22.0647  -36.4155 H   0  0  0  0  0  0  0  0  0  0  0  0
    0.4566   20.7752  -35.7796 H   0  0  0  0  0  0  0  0  0  0  0  0
   -1.4232   20.3249  -34.6826 H   0  0  0  0  0  0  0  0  0  0  0  0
   -0.2049   20.2703  -33.3556 H   0  0  0  0  0  0  0  0  0  0  0  0
   -2.2364   20.4186  -32.1796 H   0  0  0  0  0  0  0  0  0  0  0  0
   -1.6904   22.1383  -32.2627 H   0  0  0  0  0  0  0  0  0  0  0  0
   -3.2390   22.2400  -34.3790 H   0  0  0  0  0  0  0  0  0  0  0  0
   -4.0424   23.6406  -32.2542 H   0  0  0  0  0  0  0  0  0  0  0  0
   -5.5640   25.0773  -30.9150 H   0  0  0  0  0  0  0  0  0  0  0  0
   -7.7869   24.2195  -30.2019 H   0  0  0  0  0  0  0  0  0  0  0  0
   -8.5319   21.9502  -30.8834 H   0  0  0  0  0  0  0  0  0  0  0  0
   -8.8545   19.7936  -31.2881 H   0  0  0  0  0  0  0  0  0  0  0  0
   -9.1881   20.6344  -32.8400 H   0  0  0  0  0  0  0  0  0  0  0  0
   -8.7282   18.8980  -32.8400 H   0  0  0  0  0  0  0  0  0  0  0  0
   -7.5332   17.6150  -32.8952 H   0  0  0  0  0  0  0  0  0  0  0  0
   -3.6384   16.8851  -34.5959 H   0  0  0  0  0  0  0  0  0  0  0  0
   -3.0025   19.2524  -34.1910 H   0  0  0  0  0  0  0  0  0  0  0  0
  1  2  1  0
  2  3  1  0
  3  4  1  0
  4  5  1  0
  3  6  1  0
  6  7  1  0
  7  8  1  0
  8  9  1  0
  9 10  1  0
 10 11  1  0
 11 12  1  0
 12 13  1  0
 13 14  1  0
 14 15  1  0
 15 16  2  0
 16 17  1  0
 17 18  2  0
 18 19  1  0
 19 20  2  0
 20 21  1  0
 21 22  2  0
 22 23  1  0
 22 24  1  0
 24 25  2  0
 25 26  1  0
 26 27  1  0
 26 28  2  0
 28 29  1  0
 29 30  2  0
 30 15  1  0
 21 16  1  0
 30 24  1  0
  1 31  1  0
  1 32  1  0
  1 33  1  0
  2 34  1  0
  2 35  1  0
  4 36  1  0
  4 37  1  0
  5 38  1  0
  5 39  1  0
  5 40  1  0
  6 41  1  0
  6 42  1  0
  7 43  1  0
  7 44  1  0
  9 45  1  0
  9 46  1  0
 10 47  1  0
 10 48  1  0
 12 49  1  0
 12 50  1  0
 13 51  1  0
 13 52  1  0
 14 53  1  0
 17 54  1  0
 18 55  1  0
 19 56  1  0
 20 57  1  0
 23 58  1  0
 23 59  1  0
 23 60  1  0
 25 61  1  0
 28 62  1  0
 29 63  1  0
M  CHG  1  22   1
M  END
>  <UniqueID>  (13) 
13

>  <SMILES>  (13) 
CCN(CC)CCOCCOCCNc1c2ccccc2[n+](C)c2cc(Br)ccc12

>  <Energy>  (13) 
88.5383297558868

>  <Genealogy>  (13) 
CCN(CC)CCOCCOCCNc1c2ccccc2[n+](C)c2cc(Br)ccc12 (3D coordinates assigned)
CCN(CC)CCOCCOCCNc1c2ccccc2[n+](C)c2cc(Br)ccc12 (optimized conformer: 88.5383297558868 kcal/mol)

>  <smiles>  (13) 
CCN(CC)CCOCCOCCNc1c2ccccc2[n+](C)c2cc(Br)ccc12

>  <score_type>  (13) 
oracle

>  <origin>  (13) 
adg

>  <m_score__min__energy>  (13) 
-9.7200000000000006

>  <m_primary>  (13) 
energy

$$$$
13:0
     RDKit          3D

 87 89  0  0  0  0  0  0  0  0999 V2000
   -4.1550   22.3780  -27.6000 C   0  0  0  0  0  0  0  0  0  0  0  0
   -2.8280   21.6350  -27.4830 C   0  0  0  0  0  0  0  0  0  0  0  0
   -2.7590   20.4600  -28.4650 C   0  0  0  0  0  0  0  0  0  0  0  0
   -1.8870   19.3950  -27.9180 N   0  0  0  0  0  0  0  0  0  0  0  0
   -1.9100   19.3840  -26.4380 C   0  0  0  0  0  0  0  0  0  0  0  0
   -3.1230   18.6040  -25.9350 C   0  0  0  0  0  0  0  0  0  0  0  0
   -0.5020   19.5130  -28.4350 C   0  0  0  0  0  0  0  0  0  0  0  0
   -0.3310   18.6720  -29.6980 C   0  0  0  0  0  0  0  0  0  0  0  0
   -0.3480   19.5210  -30.8260 O   0  0  0  0  0  0  0  0  0  0  0  0
    0.9720   19.7490  -31.2700 C   0  0  0  0  0  0  0  0  0  0  0  0
    1.0020   19.7330  -32.7920 C   0  0  0  0  0  0  0  0  0  0  0  0
   -0.2240   19.2240  -33.2780 O   0  0  0  0  0  0  0  0  0  0  0  0
   -0.7410   20.0560  -34.2990 C   0  0  0  0  0  0  0  0  0  0  0  0
   -2.0300   20.7450  -33.8350 C   0  0  0  0  0  0  0  0  0  0  0  0
   -2.2600   20.5130  -32.3980 N   0  0  0  0  0  0  0  0  0  0  0  0
   -3.5990   20.9200  -32.0040 C   0  0  0  0  0  0  0  0  0  0  0  0
   -4.7090   20.1150  -32.3890 C   0  0  0  0  0  0  0  0  0  0  0  0
   -4.5370   18.8310  -32.9720 C   0  0  0  0  0  0  0  0  0  0  0  0
   -5.6210   18.1070  -33.4570 C   0  0  0  0  0  0  0  0  0  0  0  0
   -6.9000   18.6340  -33.3780 C   0  0  0  0  0  0  0  0  0  0  0  0
   -7.1080   19.8600  -32.7560 C   0  0  0  0  0  0  0  0  0  0  0  0
   -6.0300   20.5930  -32.1920 C   0  0  0  0  0  0  0  0  0  0  0  0
   -6.2490   21.7470  -31.4760 N   0  0  0  0  0  0  0  0  0  0  0  0
   -7.6180   22.0570  -30.9930 C   0  0  0  0  0  0  0  0  0  0  0  0
   -5.1980   22.5770  -31.1410 C   0  0  0  0  0  0  0  0  0  0  0  0
   -5.4480   23.8710  -30.6360 C   0  0  0  0  0  0  0  0  0  0  0  0
   -4.4410   24.6470  -30.0970 C   0  0  0  0  0  0  0  0  0  0  0  0
   -3.1240   24.1890  -30.0790 C   0  0  0  0  0  0  0  0  0  0  0  0
   -2.1220   24.8860  -29.2990 N   0  0  0  0  0  0  0  0  0  0  0  0
   -2.2300   25.0860  -27.8480 C   0  0  0  0  0  0  0  0  0  0  0  0
   -0.9250   24.7120  -27.1000 C   0  0  0  0  0  0  0  0  0  0  0  0
    0.3210   25.1990  -27.7330 N   0  0  0  0  0  0  0  0  0  0  0  0
    0.8110   26.4590  -27.1580 C   0  0  0  0  0  0  0  0  0  0  0  0
    1.3850   24.1820  -27.7720 C   0  0  0  0  0  0  0  0  0  0  0  0
   -2.7990   22.9990  -30.7730 C   0  0  0  0  0  0  0  0  0  0  0  0
   -1.4480   22.6510  -30.8720 O   0  0  0  0  0  0  0  0  0  0  0  0
   -0.6070   22.4990  -29.7260 C   0  0  0  0  0  0  0  0  0  0  0  0
   -3.8410   22.1580  -31.3140 C   0  0  0  0  0  0  0  0  0  0  0  0
   -4.5434   22.5955  -26.5941 H   0  0  0  0  0  0  0  0  0  0  0  0
   -4.0005   23.3208  -28.1451 H   0  0  0  0  0  0  0  0  0  0  0  0
   -4.8781   21.7535  -28.1451 H   0  0  0  0  0  0  0  0  0  0  0  0
   -2.0062   22.3329  -27.7010 H   0  0  0  0  0  0  0  0  0  0  0  0
   -2.7411   21.2385  -26.4606 H   0  0  0  0  0  0  0  0  0  0  0  0
   -3.7704   20.0575  -28.6235 H   0  0  0  0  0  0  0  0  0  0  0  0
   -2.3441   20.8116  -29.4212 H   0  0  0  0  0  0  0  0  0  0  0  0
   -0.9915   18.9083  -26.0639 H   0  0  0  0  0  0  0  0  0  0  0  0
   -1.9724   20.4196  -26.0723 H   0  0  0  0  0  0  0  0  0  0  0  0
   -3.1269   18.6015  -24.8350 H   0  0  0  0  0  0  0  0  0  0  0  0
   -4.0436   19.0798  -26.3039 H   0  0  0  0  0  0  0  0  0  0  0  0
   -3.0721   17.5689  -26.3039 H   0  0  0  0  0  0  0  0  0  0  0  0
   -0.2916   20.5668  -28.6702 H   0  0  0  0  0  0  0  0  0  0  0  0
    0.1972   19.1497  -27.6674 H   0  0  0  0  0  0  0  0  0  0  0  0
    0.6282   18.1353  -29.6557 H   0  0  0  0  0  0  0  0  0  0  0  0
   -1.1517   17.9433  -29.7711 H   0  0  0  0  0  0  0  0  0  0  0  0
    1.3179   20.7277  -30.9061 H   0  0  0  0  0  0  0  0  0  0  0  0
    1.6326   18.9603  -30.8806 H   0  0  0  0  0  0  0  0  0  0  0  0
    1.1497   20.7564  -33.1674 H   0  0  0  0  0  0  0  0  0  0  0  0
    1.8288   19.0951  -33.1376 H   0  0  0  0  0  0  0  0  0  0  0  0
    0.0063   20.8218  -34.5539 H   0  0  0  0  0  0  0  0  0  0  0  0
   -0.9679   19.4367  -35.1793 H   0  0  0  0  0  0  0  0  0  0  0  0
   -1.9461   21.8266  -34.0167 H   0  0  0  0  0  0  0  0  0  0  0  0
   -2.8762   20.3261  -34.3994 H   0  0  0  0  0  0  0  0  0  0  0  0
   -1.5320   21.0120  -31.8430 H   0  0  0  0  0  0  0  0  0  0  0  0
   -2.0750   19.5300  -32.1170 H   0  0  0  0  0  0  0  0  0  0  0  0
   -3.5269   18.4010  -33.0412 H   0  0  0  0  0  0  0  0  0  0  0  0
   -5.4627   17.1145  -33.9040 H   0  0  0  0  0  0  0  0  0  0  0  0
   -7.7500   18.0830  -33.8069 H   0  0  0  0  0  0  0  0  0  0  0  0
   -8.1271   20.2702  -32.6996 H   0  0  0  0  0  0  0  0  0  0  0  0
   -7.6270   22.0590  -29.8930 H   0  0  0  0  0  0  0  0  0  0  0  0
   -7.9224   23.0468  -31.3640 H   0  0  0  0  0  0  0  0  0  0  0  0
   -8.3191   21.2949  -31.3640 H   0  0  0  0  0  0  0  0  0  0  0  0
   -6.4717   24.2718  -30.6727 H   0  0  0  0  0  0  0  0  0  0  0  0
   -4.6799   25.6356  -29.6779 H   0  0  0  0  0  0  0  0  0  0  0  0
   -1.2190   25.1340  -29.7600 H   0  0  0  0  0  0  0  0  0  0  0  0
   -2.4574   26.1445  -27.6535 H   0  0  0  0  0  0  0  0  0  0  0  0
   -3.0289   24.4268  -27.4777 H   0  0  0  0  0  0  0  0  0  0  0  0
   -0.9801   25.1345  -26.0859 H   0  0  0  0  0  0  0  0  0  0  0  0
   -0.8673   23.6136  -27.1134 H   0  0  0  0  0  0  0  0  0  0  0  0
    0.7862   26.3952  -26.0601 H   0  0  0  0  0  0  0  0  0  0  0  0
    1.8439   26.6371  -27.4917 H   0  0  0  0  0  0  0  0  0  0  0  0
    0.1698   27.2882  -27.4917 H   0  0  0  0  0  0  0  0  0  0  0  0
    1.6698   23.9098  -26.7450 H   0  0  0  0  0  0  0  0  0  0  0  0
    1.0195   23.2890  -28.3001 H   0  0  0  0  0  0  0  0  0  0  0  0
    2.2606   24.5875  -28.3001 H   0  0  0  0  0  0  0  0  0  0  0  0
   -1.2094   22.6079  -28.8121 H   0  0  0  0  0  0  0  0  0  0  0  0
   -0.1420   21.5023  -29.7421 H   0  0  0  0  0  0  0  0  0  0  0  0
    0.1775   23.2699  -29.7421 H   0  0  0  0  0  0  0  0  0  0  0  0
  1  2  1  0
  2  3  1  0
  3  4  1  0
  4  5  1  0
  5  6  1  0
  4  7  1  0
  7  8  1  0
  8  9  1  0
  9 10  1  0
 10 11  1  0
 11 12  1  0
 12 13  1  0
 13 14  1  0
 14 15  1  0
 15 16  1  0
 16 17  2  0
 17 18  1  0
 18 19  2  0
 19 20  1  0
 20 21  2  0
 21 22  1  0
 22 23  2  0
 23 24  1  0
 23 25  1  0
 25 26  2  0
 26 27  1  0
 27 28  2  0
 28 29  1  0
 29 30  1  0
 30 31  1  0
 31 32  1  0
 32 33  1  0
 32 34  1  0
 28 35  1  0
 35 36  1  0
 36 37  1  0
 35 38  2  0
 38 16  1  0
 22 17  1  0
 38 25  1  0
  1 39  1  0
  1 40  1  0
  1 41  1  0
  2 42  1  0
  2 43  1  0
  3 44  1  0
  3 45  1  0
  5 46  1  0
  5 47  1  0
  6 48  1  0
  6 49  1  0
  6 50  1  0
  7 51  1  0
  7 52  1  0
  8 53  1  0
  8 54  1  0
 10 55  1  0
 10 56  1  0
 11 57  1  0
 11 58  1  0
 13 59  1  0
 13 60  1  0
 14 61  1  0
 14 62  1  0
 15 63  1  0
 15 64  1  0
 18 65  1  0
 19 66  1  0
 20 67  1  0
 21 68  1  0
 24 69  1  0
 24 70  1  0
 24 71  1  0
 26 72  1  0
 27 73  1  0
 29 74  1  0
 30 75  1  0
 30 76  1  0
 31 77  1  0
 31 78  1  0
 33 79  1  0
 33 80  1  0
 33 81  1  0
 34 82  1  0
 34 83  1  0
 34 84  1  0
 37 85  1  0
 37 86  1  0
 37 87  1  0
M  CHG  2  15   1  23   1
M  END
>  <UniqueID>  (14) 
14

>  <SMILES>  (14) 
CCCN(CC)CCOCCOCC[NH2+]c1c2ccccc2[n+](C)c2ccc(NCCN(C)C)c(OC)c12

>  <Energy>  (14) 
126.96819863948818

>  <Genealogy>  (14) 
CCCN(CC)CCOCCOCC[NH2+]c1c2ccccc2[n+](C)c2ccc(NCCN(C)C)c(OC)c12 (protonated)
CCCN(CC)CCOCCOCC[NH2+]c1c2ccccc2[n+](C)c2ccc(NCCN(C)C)c(OC)c12 (3D coordinates assigned)
CCCN(CC)CCOCCOCC[NH2+]c1c2ccccc2[n+](C)c2ccc(NCCN(C)C)c(OC)c12 (optimized conformer: 126.96819863948818 kcal/mol)

>  <smiles>  (14) 
CCCN(CC)CCOCCOCCNc1c2ccccc2[n+](C)c2ccc(NCCN(C)C)c(OC)c12

>  <score_type>  (14) 
oracle

>  <origin>  (14) 
adg

>  <m_score__min__energy>  (14) 
-7.4299999999999997

>  <m_primary>  (14) 
energy

$$$$
14:0
     RDKit          3D

 44 45  0  0  0  0  0  0  0  0999 V2000
   -0.9580   27.3640  -24.7270 C   0  0  0  0  0  0  0  0  0  0  0  0
   -0.8500   26.2570  -25.7320 C   0  0  0  0  0  0  0  0  0  0  0  0
   -0.4540   24.9740  -25.3300 C   0  0  0  0  0  0  0  0  0  0  0  0
   -0.3890   23.9320  -26.2580 C   0  0  0  0  0  0  0  0  0  0  0  0
   -0.7300   24.1550  -27.6020 C   0  0  0  0  0  0  0  0  0  0  0  0
   -0.6740   23.0190  -28.5940 C   0  0  0  0  0  0  0  0  0  0  0  0
   -1.9530   22.9130  -29.3220 N   0  0  0  0  0  0  0  0  0  0  0  0
   -1.8420   22.1080  -30.5480 C   0  0  0  0  0  0  0  0  0  0  0  0
   -3.1250   22.5830  -28.4710 C   0  0  0  0  0  0  0  0  0  0  0  0
   -4.4650   23.2690  -28.8390 C   0  0  0  0  0  0  0  0  0  0  0  0
   -4.3190   24.5640  -29.6550 C   0  0  0  0  0  0  0  0  0  0  0  0
   -4.4870   24.3250  -31.0530 O   0  0  0  0  0  0  0  0  0  0  0  0
   -5.1530   23.2250  -31.6200 C   0  0  0  0  0  0  0  0  0  0  0  0
   -4.4940   22.2500  -32.3960 C   0  0  0  0  0  0  0  0  0  0  0  0
   -5.2110   21.1740  -32.9290 C   0  0  0  0  0  0  0  0  0  0  0  0
   -6.5840   21.0620  -32.6970 C   0  0  0  0  0  0  0  0  0  0  0  0
   -7.2450   22.0270  -31.9310 C   0  0  0  0  0  0  0  0  0  0  0  0
   -9.1210   21.8720  -31.6110 Br  0  0  0  0  0  0  0  0  0  0  0  0
   -6.5310   23.1030  -31.3970 C   0  0  0  0  0  0  0  0  0  0  0  0
   -1.1500   25.4360  -28.0050 C   0  0  0  0  0  0  0  0  0  0  0  0
   -1.5070   25.6690  -29.3340 O   0  0  0  0  0  0  0  0  0  0  0  0
   -1.2120   26.4780  -27.0690 C   0  0  0  0  0  0  0  0  0  0  0  0
   -0.9169   26.9428  -23.7117 H   0  0  0  0  0  0  0  0  0  0  0  0
   -0.1243   28.0680  -24.8659 H   0  0  0  0  0  0  0  0  0  0  0  0
   -1.9121   27.8936  -24.8659 H   0  0  0  0  0  0  0  0  0  0  0  0
   -0.1930   24.7866  -24.2780 H   0  0  0  0  0  0  0  0  0  0  0  0
   -0.0688   22.9307  -25.9341 H   0  0  0  0  0  0  0  0  0  0  0  0
    0.1384   23.2038  -29.3122 H   0  0  0  0  0  0  0  0  0  0  0  0
   -0.4909   22.0791  -28.0526 H   0  0  0  0  0  0  0  0  0  0  0  0
   -1.6963   21.0510  -30.2807 H   0  0  0  0  0  0  0  0  0  0  0  0
   -2.7631   22.2128  -31.1401 H   0  0  0  0  0  0  0  0  0  0  0  0
   -0.9836   22.4582  -31.1401 H   0  0  0  0  0  0  0  0  0  0  0  0
   -3.2810   21.4955  -28.5250 H   0  0  0  0  0  0  0  0  0  0  0  0
   -2.8715   22.9604  -27.4694 H   0  0  0  0  0  0  0  0  0  0  0  0
   -5.0638   22.5584  -29.4276 H   0  0  0  0  0  0  0  0  0  0  0  0
   -4.9414   23.5517  -27.8887 H   0  0  0  0  0  0  0  0  0  0  0  0
   -5.0808   25.2840  -29.3216 H   0  0  0  0  0  0  0  0  0  0  0  0
   -3.3062   24.9612  -29.4926 H   0  0  0  0  0  0  0  0  0  0  0  0
   -3.4134   22.3357  -32.5827 H   0  0  0  0  0  0  0  0  0  0  0  0
   -4.6926   20.4142  -33.5323 H   0  0  0  0  0  0  0  0  0  0  0  0
   -7.1453   20.2144  -33.1171 H   0  0  0  0  0  0  0  0  0  0  0  0
   -7.0553   23.8608  -30.7963 H   0  0  0  0  0  0  0  0  0  0  0  0
   -1.4830   24.9310  -30.0280 H   0  0  0  0  0  0  0  0  0  0  0  0
   -1.5472   27.4767  -27.3856 H   0  0  0  0  0  0  0  0  0  0  0  0
  1  2  1  0
  2  3  2  0
  3  4  1  0
  4  5  2  0
  5  6  1  0
  6  7  1  0
  7  8  1  0
  7  9  1  0
  9 10  1  0
 10 11  1  0
 11 12  1  0
 12 13  1  0
 13 14  2  0
 14 15  1  0
 15 16  2  0
 16 17  1  0
 17 18  1  0
 17 19  2  0
  5 20  1  0
 20 21  1  0
 20 22  2  0
 22  2  1  0
 19 13  1  0
  1 23  1  0
  1 24  1  0
  1 25  1  0
  3 26  1  0
  4 27  1  0
  6 28  1  0
  6 29  1  0
  8 30  1  0
  8 31  1  0
  8 32  1  0
  9 33  1  0
  9 34  1  0
 10 35  1  0
 10 36  1  0
 11 37  1  0
 11 38  1  0
 14 39  1  0
 15 40  1  0
 16 41  1  0
 19 42  1  0
 21 43  1  0
 22 44  1  0
M  END
>  <UniqueID>  (15) 
15

>  <SMILES>  (15) 
Cc1ccc(CN(C)CCCOc2cccc(Br)c2)c(O)c1

>  <Energy>  (15) 
48.453338063928626

>  <Genealogy>  (15) 
Cc1ccc(CN(C)CCCOc2cccc(Br)c2)c(O)c1 (3D coordinates assigned)
Cc1ccc(CN(C)CCCOc2cccc(Br)c2)c(O)c1 (optimized conformer: 48.453338063928626 kcal/mol)

>  <smiles>  (15) 
Cc1ccc(CN(C)CCCOc2cccc(Br)c2)c(O)c1

>  <score_type>  (15) 
oracle

>  <origin>  (15) 
adg

>  <m_score__min__energy>  (15) 
-8.8100000000000005

>  <m_primary>  (15) 
energy

$$$$
15:0
     RDKit          3D

 61 63  0  0  0  0  0  0  0  0999 V2000
   -1.2200   25.1160  -26.4550 C   0  0  0  0  0  0  0  0  0  0  0  0
   -1.1830   24.0370  -27.5440 C   0  0  0  0  0  0  0  0  0  0  0  0
    0.0690   23.1620  -27.3790 C   0  0  0  0  0  0  0  0  0  0  0  0
   -1.2520   24.6790  -28.9480 C   0  0  0  0  0  0  0  0  0  0  0  0
   -2.6470   24.9210  -29.3440 N   0  0  0  0  0  0  0  0  0  0  0  0
   -3.5690   24.0750  -28.5720 C   0  0  0  0  0  0  0  0  0  0  0  0
   -5.0100   24.5480  -28.7960 C   0  0  0  0  0  0  0  0  0  0  0  0
   -5.1850   25.2320  -30.1600 C   0  0  0  0  0  0  0  0  0  0  0  0
   -4.5170   24.4870  -31.1790 O   0  0  0  0  0  0  0  0  0  0  0  0
   -4.8940   23.2060  -31.6230 C   0  0  0  0  0  0  0  0  0  0  0  0
   -6.1620   22.9560  -32.1830 C   0  0  0  0  0  0  0  0  0  0  0  0
   -6.5030   21.6790  -32.6270 C   0  0  0  0  0  0  0  0  0  0  0  0
   -5.5910   20.6200  -32.5180 C   0  0  0  0  0  0  0  0  0  0  0  0
   -5.9500   19.2640  -33.0020 C   0  0  0  0  0  0  0  0  0  0  0  0
   -5.3930   18.7580  -34.1940 C   0  0  0  0  0  0  0  0  0  0  0  0
   -5.7360   17.4830  -34.6490 C   0  0  0  0  0  0  0  0  0  0  0  0
   -6.6350   16.6980  -33.9200 C   0  0  0  0  0  0  0  0  0  0  0  0
   -7.1940   17.1880  -32.7370 C   0  0  0  0  0  0  0  0  0  0  0  0
   -6.8570   18.4640  -32.2790 C   0  0  0  0  0  0  0  0  0  0  0  0
   -4.3270   20.8640  -31.9560 C   0  0  0  0  0  0  0  0  0  0  0  0
   -3.9650   22.1510  -31.5180 C   0  0  0  0  0  0  0  0  0  0  0  0
   -2.6420   22.4110  -31.0070 N   0  0  0  0  0  0  0  0  0  0  0  0
   -1.6260   21.3690  -30.8340 C   0  0  0  0  0  0  0  0  0  0  0  0
   -1.7570   20.7260  -29.4780 C   0  0  0  0  0  0  0  0  0  0  0  0
   -0.7050   19.9650  -28.9470 C   0  0  0  0  0  0  0  0  0  0  0  0
   -0.8260   19.4240  -27.6670 C   0  0  0  0  0  0  0  0  0  0  0  0
   -1.9860   19.6470  -26.9290 C   0  0  0  0  0  0  0  0  0  0  0  0
   -3.0190   20.3990  -27.4890 C   0  0  0  0  0  0  0  0  0  0  0  0
   -2.8960   20.9060  -28.7460 N   0  0  0  0  0  0  0  0  0  0  0  0
   -1.2036   24.6379  -25.4645 H   0  0  0  0  0  0  0  0  0  0  0  0
   -0.3438   25.7728  -26.5597 H   0  0  0  0  0  0  0  0  0  0  0  0
   -2.1391   25.7113  -26.5597 H   0  0  0  0  0  0  0  0  0  0  0  0
   -2.0645   23.3878  -27.4365 H   0  0  0  0  0  0  0  0  0  0  0  0
    0.2765   23.0170  -26.3085 H   0  0  0  0  0  0  0  0  0  0  0  0
   -0.1010   22.1851  -27.8552 H   0  0  0  0  0  0  0  0  0  0  0  0
    0.9280   23.6574  -27.8552 H   0  0  0  0  0  0  0  0  0  0  0  0
   -0.7100   25.6361  -28.9338 H   0  0  0  0  0  0  0  0  0  0  0  0
   -0.7943   23.9902  -29.6733 H   0  0  0  0  0  0  0  0  0  0  0  0
   -2.7530   24.6560  -30.3540 H   0  0  0  0  0  0  0  0  0  0  0  0
   -3.4710   23.0304  -28.9023 H   0  0  0  0  0  0  0  0  0  0  0  0
   -3.3227   24.1474  -27.5024 H   0  0  0  0  0  0  0  0  0  0  0  0
   -5.6813   23.6780  -28.7462 H   0  0  0  0  0  0  0  0  0  0  0  0
   -5.2523   25.2825  -28.0138 H   0  0  0  0  0  0  0  0  0  0  0  0
   -6.2568   25.2940  -30.3997 H   0  0  0  0  0  0  0  0  0  0  0  0
   -4.7499   26.2411  -30.1120 H   0  0  0  0  0  0  0  0  0  0  0  0
   -6.8901   23.7759  -32.2709 H   0  0  0  0  0  0  0  0  0  0  0  0
   -7.4956   21.5011  -33.0663 H   0  0  0  0  0  0  0  0  0  0  0  0
   -4.6838   19.3712  -34.7693 H   0  0  0  0  0  0  0  0  0  0  0  0
   -5.2988   17.0960  -35.5813 H   0  0  0  0  0  0  0  0  0  0  0  0
   -6.9025   15.6931  -34.2786 H   0  0  0  0  0  0  0  0  0  0  0  0
   -7.9005   16.5681  -32.1654 H   0  0  0  0  0  0  0  0  0  0  0  0
   -7.3022   18.8464  -31.3487 H   0  0  0  0  0  0  0  0  0  0  0  0
   -3.6093   20.0363  -31.8569 H   0  0  0  0  0  0  0  0  0  0  0  0
   -2.3350   23.4000  -30.8750 H   0  0  0  0  0  0  0  0  0  0  0  0
   -1.7568   20.6028  -31.6124 H   0  0  0  0  0  0  0  0  0  0  0  0
   -0.6290   21.8263  -30.9166 H   0  0  0  0  0  0  0  0  0  0  0  0
    0.2087   19.7961  -29.5357 H   0  0  0  0  0  0  0  0  0  0  0  0
   -0.0083   18.8234  -27.2420 H   0  0  0  0  0  0  0  0  0  0  0  0
   -2.0866   19.2342  -25.9144 H   0  0  0  0  0  0  0  0  0  0  0  0
   -3.9372   20.5830  -26.9119 H   0  0  0  0  0  0  0  0  0  0  0  0
   -3.6840   21.4690  -29.1390 H   0  0  0  0  0  0  0  0  0  0  0  0
  1  2  1  0
  2  3  1  0
  2  4  1  0
  4  5  1  0
  5  6  1  0
  6  7  1  0
  7  8  1  0
  8  9  1  0
  9 10  1  0
 10 11  2  0
 11 12  1  0
 12 13  2  0
 13 14  1  0
 14 15  2  0
 15 16  1  0
 16 17  2  0
 17 18  1  0
 18 19  2  0
 13 20  1  0
 20 21  2  0
 21 22  1  0
 22 23  1  0
 23 24  1  0
 24 25  2  0
 25 26  1  0
 26 27  2  0
 27 28  1  0
 28 29  2  0
 21 10  1  0
 29 24  1  0
 19 14  1  0
  1 30  1  0
  1 31  1  0
  1 32  1  0
  2 33  1  0
  3 34  1  0
  3 35  1  0
  3 36  1  0
  4 37  1  0
  4 38  1  0
  5 39  1  0
  6 40  1  0
  6 41  1  0
  7 42  1  0
  7 43  1  0
  8 44  1  0
  8 45  1  0
 11 46  1  0
 12 47  1  0
 15 48  1  0
 16 49  1  0
 17 50  1  0
 18 51  1  0
 19 52  1  0
 20 53  1  0
 22 54  1  0
 23 55  1  0
 23 56  1  0
 25 57  1  0
 26 58  1  0
 27 59  1  0
 28 60  1  0
 29 61  1  0
M  CHG  1  29   1
M  END
>  <UniqueID>  (16) 
16

>  <SMILES>  (16) 
CC(C)CNCCCOc1ccc(-c2ccccc2)cc1NCc1cccc[nH+]1

>  <Energy>  (16) 
58.333848206030005

>  <Genealogy>  (16) 
CC(C)CNCCCOc1ccc(-c2ccccc2)cc1NCc1cccc[nH+]1 (protonated)
CC(C)CNCCCOc1ccc(-c2ccccc2)cc1NCc1cccc[nH+]1 (3D coordinates assigned)
CC(C)CNCCCOc1ccc(-c2ccccc2)cc1NCc1cccc[nH+]1 (optimized conformer: 58.333848206030005 kcal/mol)

>  <smiles>  (16) 
CC(C)CNCCCOc1ccc(-c2ccccc2)cc1NCc1ccccn1

>  <score_type>  (16) 
oracle

>  <origin>  (16) 
adg

>  <m_score__min__energy>  (16) 
-9.4000000000000004

>  <m_primary>  (16) 
energy

$$$$
16:0
     RDKit          3D

 52 55  0  0  0  0  0  0  0  0999 V2000
   -4.6170   13.3150  -31.1540 C   0  0  0  0  0  0  0  0  0  0  0  0
   -3.3650   13.5860  -31.9920 C   0  0  0  0  0  0  0  0  0  0  0  0
   -3.5880   14.6660  -32.9840 N   0  0  0  0  0  0  0  0  0  0  0  0
   -5.0140   15.0220  -33.1240 C   0  0  0  0  0  0  0  0  0  0  0  0
   -5.2670   16.5320  -32.9260 C   0  0  0  0  0  0  0  0  0  0  0  0
   -4.0780   17.3550  -33.2260 N   0  0  0  0  0  0  0  0  0  0  0  0
   -4.3860   18.4390  -34.1690 C   0  0  0  0  0  0  0  0  0  0  0  0
   -5.1670   19.5430  -33.4700 C   0  0  0  0  0  0  0  0  0  0  0  0
   -6.5570   19.4170  -33.5010 C   0  0  0  0  0  0  0  0  0  0  0  0
   -7.3760   20.2840  -32.7900 C   0  0  0  0  0  0  0  0  0  0  0  0
   -8.7620   20.0570  -32.7520 C   0  0  0  0  0  0  0  0  0  0  0  0
   -9.5900   20.8700  -31.9810 C   0  0  0  0  0  0  0  0  0  0  0  0
   -9.0420   21.9050  -31.2300 C   0  0  0  0  0  0  0  0  0  0  0  0
   -7.6690   22.1510  -31.2720 C   0  0  0  0  0  0  0  0  0  0  0  0
   -6.8070   21.3700  -32.0860 C   0  0  0  0  0  0  0  0  0  0  0  0
   -5.3980   21.6190  -32.1670 C   0  0  0  0  0  0  0  0  0  0  0  0
   -4.9290   22.8950  -31.7800 C   0  0  0  0  0  0  0  0  0  0  0  0
   -5.6260   23.8980  -32.1100 O   0  0  0  0  0  0  0  0  0  0  0  0
   -3.8280   23.1110  -30.9320 C   0  0  0  0  0  0  0  0  0  0  0  0
   -3.9090   24.2040  -30.0340 C   0  0  0  0  0  0  0  0  0  0  0  0
   -2.8980   24.4660  -29.1130 C   0  0  0  0  0  0  0  0  0  0  0  0
   -1.7690   23.6610  -29.0790 C   0  0  0  0  0  0  0  0  0  0  0  0
   -1.6360   22.6130  -29.9850 C   0  0  0  0  0  0  0  0  0  0  0  0
   -2.6490   22.3230  -30.9270 C   0  0  0  0  0  0  0  0  0  0  0  0
   -2.3220   21.3950  -31.9210 C   0  0  0  0  0  0  0  0  0  0  0  0
   -3.1540   20.7740  -32.8440 C   0  0  0  0  0  0  0  0  0  0  0  0
   -4.5580   20.6540  -32.8010 C   0  0  0  0  0  0  0  0  0  0  0  0
   -4.3620   13.3702  -30.0854 H   0  0  0  0  0  0  0  0  0  0  0  0
   -5.3844   14.0678  -31.3872 H   0  0  0  0  0  0  0  0  0  0  0  0
   -5.0043   12.3122  -31.3872 H   0  0  0  0  0  0  0  0  0  0  0  0
   -2.5452   13.8826  -31.3213 H   0  0  0  0  0  0  0  0  0  0  0  0
   -3.1150   12.6655  -32.5398 H   0  0  0  0  0  0  0  0  0  0  0  0
   -3.0340   15.5230  -32.7600 H   0  0  0  0  0  0  0  0  0  0  0  0
   -3.2490   14.3300  -33.9160 H   0  0  0  0  0  0  0  0  0  0  0  0
   -5.3519   14.7365  -34.1311 H   0  0  0  0  0  0  0  0  0  0  0  0
   -5.5717   14.4838  -32.3434 H   0  0  0  0  0  0  0  0  0  0  0  0
   -6.0860   16.8415  -33.5919 H   0  0  0  0  0  0  0  0  0  0  0  0
   -5.5207   16.6896  -31.8673 H   0  0  0  0  0  0  0  0  0  0  0  0
   -3.6610   17.7630  -32.3560 H   0  0  0  0  0  0  0  0  0  0  0  0
   -3.4469   18.8536  -34.5643 H   0  0  0  0  0  0  0  0  0  0  0  0
   -4.9957   18.0353  -34.9907 H   0  0  0  0  0  0  0  0  0  0  0  0
   -7.0124   18.6150  -34.1005 H   0  0  0  0  0  0  0  0  0  0  0  0
   -9.1964   19.2316  -33.3351 H   0  0  0  0  0  0  0  0  0  0  0  0
  -10.6757   20.6938  -31.9661 H   0  0  0  0  0  0  0  0  0  0  0  0
   -9.6926   22.5310  -30.6016 H   0  0  0  0  0  0  0  0  0  0  0  0
   -7.2471   22.9645  -30.6636 H   0  0  0  0  0  0  0  0  0  0  0  0
   -4.7909   24.8607  -30.0651 H   0  0  0  0  0  0  0  0  0  0  0  0
   -2.9945   25.3097  -28.4138 H   0  0  0  0  0  0  0  0  0  0  0  0
   -0.9796   23.8507  -28.3368 H   0  0  0  0  0  0  0  0  0  0  0  0
   -0.7241   21.9980  -29.9676 H   0  0  0  0  0  0  0  0  0  0  0  0
   -1.2589   21.1186  -31.9801 H   0  0  0  0  0  0  0  0  0  0  0  0
   -2.6568   20.3208  -33.7143 H   0  0  0  0  0  0  0  0  0  0  0  0
  1  2  1  0
  2  3  1  0
  3  4  1  0
  4  5  1  0
  5  6  1  0
  6  7  1  0
  7  8  1  0
  8  9  2  0
  9 10  1  0
 10 11  2  0
 11 12  1  0
 12 13  2  0
 13 14  1  0
 14 15  2  0
 15 16  1  0
 16 17  1  0
 17 18  2  0
 17 19  1  0
 19 20  2  0
 20 21  1  0
 21 22  2  0
 22 23  1  0
 23 24  2  0
 24 25  1  0
 25 26  2  0
 26 27  1  0
 27  8  1  0
 15 10  1  0
 27 16  2  0
 24 19  1  0
  1 28  1  0
  1 29  1  0
  1 30  1  0
  2 31  1  0
  2 32  1  0
  3 33  1  0
  3 34  1  0
  4 35  1  0
  4 36  1  0
  5 37  1  0
  5 38  1  0
  6 39  1  0
  7 40  1  0
  7 41  1  0
  9 42  1  0
 11 43  1  0
 12 44  1  0
 13 45  1  0
 14 46  1  0
 20 47  1  0
 21 48  1  0
 22 49  1  0
 23 50  1  0
 25 51  1  0
 26 52  1  0
M  CHG  1   3   1
M  END
>  <UniqueID>  (17) 
17

>  <SMILES>  (17) 
CC[NH2+]CCNCc1cc2ccccc2c2c(=O)c3ccccc3ccc12

>  <Energy>  (17) 
121.67077152212036

>  <Genealogy>  (17) 
CC[NH2+]CCNCc1cc2ccccc2c2c(=O)c3ccccc3ccc12 (protonated)
CC[NH2+]CCNCc1cc2ccccc2c2c(=O)c3ccccc3ccc12 (3D coordinates assigned)
CC[NH2+]CCNCc1cc2ccccc2c2c(=O)c3ccccc3ccc12 (optimized conformer: 121.67077152212036 kcal/mol)

>  <smiles>  (17) 
CCNCCNCc1cc2ccccc2c2c(=O)c3ccccc3ccc12

>  <score_type>  (17) 
oracle

>  <origin>  (17) 
adg

>  <m_score__min__energy>  (17) 
-8.5600000000000005

>  <m_primary>  (17) 
energy

$$$$
17:0
     RDKit          3D

 55 57  0  0  0  0  0  0  0  0999 V2000
   -0.5750   23.7590  -26.4790 C   0  0  0  0  0  0  0  0  0  0  0  0
   -1.7700   24.0480  -27.3390 C   0  0  0  0  0  0  0  0  0  0  0  0
   -3.0190   24.3140  -26.7580 C   0  0  0  0  0  0  0  0  0  0  0  0
   -4.1340   24.5520  -27.5640 C   0  0  0  0  0  0  0  0  0  0  0  0
   -4.0190   24.5130  -28.9610 C   0  0  0  0  0  0  0  0  0  0  0  0
   -5.4300   24.8100  -29.9810 S   0  0  0  0  0  0  0  0  0  0  0  0
   -6.4120   25.6690  -29.2320 O   0  0  0  0  0  0  0  0  0  0  0  0
   -4.9980   25.5620  -31.2090 O   0  0  0  0  0  0  0  0  0  0  0  0
   -6.2060   23.3210  -30.4590 N   0  0  0  0  0  0  0  0  0  0  0  0
   -5.1980   22.2530  -30.6430 C   0  0  0  0  0  0  0  0  0  0  0  0
   -5.7940   20.9900  -31.3050 C   0  0  0  0  0  0  0  0  0  0  0  0
   -7.3320   21.0160  -31.2840 C   0  0  0  0  0  0  0  0  0  0  0  0
   -7.9150   19.7650  -31.8910 C   0  0  0  0  0  0  0  0  0  0  0  0
   -9.1620   19.5880  -31.8510 O   0  0  0  0  0  0  0  0  0  0  0  0
   -7.0700   18.7760  -32.5010 N   0  0  0  0  0  0  0  0  0  0  0  0
   -7.5980   17.5310  -33.0550 C   0  0  0  0  0  0  0  0  0  0  0  0
   -6.5230   16.8420  -33.9270 C   0  0  0  0  0  0  0  0  0  0  0  0
   -5.2490   17.5890  -34.0510 N   0  0  0  0  0  0  0  0  0  0  0  0
   -4.6090   17.4650  -35.3690 C   0  0  0  0  0  0  0  0  0  0  0  0
   -3.3720   16.6060  -35.1890 C   0  0  0  0  0  0  0  0  0  0  0  0
   -2.9590   16.8450  -33.7550 C   0  0  0  0  0  0  0  0  0  0  0  0
   -4.2440   17.2390  -33.0310 C   0  0  0  0  0  0  0  0  0  0  0  0
   -7.8700   22.2870  -31.9760 C   0  0  0  0  0  0  0  0  0  0  0  0
   -6.9890   23.5220  -31.6890 C   0  0  0  0  0  0  0  0  0  0  0  0
   -2.7750   24.2290  -29.5420 C   0  0  0  0  0  0  0  0  0  0  0  0
   -1.6580   23.9910  -28.7360 C   0  0  0  0  0  0  0  0  0  0  0  0
   -0.8608   23.8281  -25.4190 H   0  0  0  0  0  0  0  0  0  0  0  0
   -0.2052   22.7455  -26.6937 H   0  0  0  0  0  0  0  0  0  0  0  0
    0.2171   24.4915  -26.6937 H   0  0  0  0  0  0  0  0  0  0  0  0
   -3.1203   24.3351  -25.6629 H   0  0  0  0  0  0  0  0  0  0  0  0
   -5.1074   24.7712  -27.1009 H   0  0  0  0  0  0  0  0  0  0  0  0
   -4.3880   22.6374  -31.2803 H   0  0  0  0  0  0  0  0  0  0  0  0
   -4.8260   21.9671  -29.6481 H   0  0  0  0  0  0  0  0  0  0  0  0
   -5.4514   20.9380  -32.3490 H   0  0  0  0  0  0  0  0  0  0  0  0
   -5.4555   20.1103  -30.7380 H   0  0  0  0  0  0  0  0  0  0  0  0
   -7.6539   21.0445  -30.2325 H   0  0  0  0  0  0  0  0  0  0  0  0
   -6.0340   18.9110  -32.4980 H   0  0  0  0  0  0  0  0  0  0  0  0
   -7.8852   16.8593  -32.2326 H   0  0  0  0  0  0  0  0  0  0  0  0
   -8.4769   17.7567  -33.6768 H   0  0  0  0  0  0  0  0  0  0  0  0
   -6.3017   15.8596  -33.4843 H   0  0  0  0  0  0  0  0  0  0  0  0
   -6.9431   16.7770  -34.9415 H   0  0  0  0  0  0  0  0  0  0  0  0
   -5.2994   16.9870  -36.0795 H   0  0  0  0  0  0  0  0  0  0  0  0
   -4.3419   18.4548  -35.7676 H   0  0  0  0  0  0  0  0  0  0  0  0
   -3.6069   15.5443  -35.3554 H   0  0  0  0  0  0  0  0  0  0  0  0
   -2.5757   16.8596  -35.9043 H   0  0  0  0  0  0  0  0  0  0  0  0
   -2.5347   15.9292  -33.3177 H   0  0  0  0  0  0  0  0  0  0  0  0
   -2.1851   17.6224  -33.6733 H   0  0  0  0  0  0  0  0  0  0  0  0
   -4.6051   16.3954  -32.4245 H   0  0  0  0  0  0  0  0  0  0  0  0
   -4.0613   18.0941  -32.3635 H   0  0  0  0  0  0  0  0  0  0  0  0
   -7.8967   22.1151  -33.0622 H   0  0  0  0  0  0  0  0  0  0  0  0
   -8.8758   22.4888  -31.5789 H   0  0  0  0  0  0  0  0  0  0  0  0
   -6.3023   23.6811  -32.5335 H   0  0  0  0  0  0  0  0  0  0  0  0
   -7.6385   24.4001  -31.5582 H   0  0  0  0  0  0  0  0  0  0  0  0
   -2.6776   24.1933  -30.6371 H   0  0  0  0  0  0  0  0  0  0  0  0
   -0.6877   23.7582  -29.1990 H   0  0  0  0  0  0  0  0  0  0  0  0
  1  2  1  0
  2  3  2  0
  3  4  1  0
  4  5  2  0
  5  6  1  0
  6  7  2  0
  6  8  2  0
  6  9  1  0
  9 10  1  0
 10 11  1  0
 11 12  1  0
 12 13  1  0
 13 14  2  0
 13 15  1  0
 15 16  1  0
 16 17  1  0
 17 18  1  0
 18 19  1  0
 19 20  1  0
 20 21  1  0
 21 22  1  0
 12 23  1  0
 23 24  1  0
  5 25  1  0
 25 26  2  0
 26  2  1  0
 24  9  1  0
 22 18  1  0
  1 27  1  0
  1 28  1  0
  1 29  1  0
  3 30  1  0
  4 31  1  0
 10 32  1  0
 10 33  1  0
 11 34  1  0
 11 35  1  0
 12 36  1  0
 15 37  1  0
 16 38  1  0
 16 39  1  0
 17 40  1  0
 17 41  1  0
 19 42  1  0
 19 43  1  0
 20 44  1  0
 20 45  1  0
 21 46  1  0
 21 47  1  0
 22 48  1  0
 22 49  1  0
 23 50  1  0
 23 51  1  0
 24 52  1  0
 24 53  1  0
 25 54  1  0
 26 55  1  0
M  END
>  <UniqueID>  (18) 
18

>  <SMILES>  (18) 
Cc1ccc(S(=O)(=O)N2CCC(C(=O)NCCN3CCCC3)CC2)cc1

>  <Energy>  (18) 
58.92579029368987

>  <Genealogy>  (18) 
Cc1ccc(S(=O)(=O)N2CCC(C(=O)NCCN3CCCC3)CC2)cc1 (3D coordinates assigned)
Cc1ccc(S(=O)(=O)N2CCC(C(=O)NCCN3CCCC3)CC2)cc1 (nonaromatic ring conformer: 58.92579029368987 kcal/mol)

>  <smiles>  (18) 
Cc1ccc(S(=O)(=O)N2CCC(C(=O)NCCN3CCCC3)CC2)cc1

>  <score_type>  (18) 
oracle

>  <origin>  (18) 
adg

>  <m_score__min__energy>  (18) 
-9.1099999999999994

>  <m_primary>  (18) 
energy

$$$$
18:0
     RDKit          3D

 56 58  0  0  0  0  0  0  0  0999 V2000
   -3.4790   18.7700  -26.3120 C   0  0  0  0  0  0  0  0  0  0  0  0
   -2.0920   19.4070  -26.4460 C   0  0  0  0  0  0  0  0  0  0  0  0
   -2.1260   20.6550  -27.2350 N   0  0  0  0  0  0  0  0  0  0  0  0
   -2.4160   20.4260  -28.6640 C   0  0  0  0  0  0  0  0  0  0  0  0
   -2.9220   21.6930  -29.3620 C   0  0  0  0  0  0  0  0  0  0  0  0
   -2.8810   22.7730  -28.4500 O   0  0  0  0  0  0  0  0  0  0  0  0
   -3.7430   23.8140  -28.8680 C   0  0  0  0  0  0  0  0  0  0  0  0
   -3.6410   24.0120  -30.3800 C   0  0  0  0  0  0  0  0  0  0  0  0
   -4.3330   25.2450  -30.7730 N   0  0  0  0  0  0  0  0  0  0  0  0
   -5.7110   24.9550  -31.1860 C   0  0  0  0  0  0  0  0  0  0  0  0
   -6.0080   23.4540  -31.0900 C   0  0  0  0  0  0  0  0  0  0  0  0
   -6.1840   22.8660  -32.4200 N   0  0  0  0  0  0  0  0  0  0  0  0
   -5.9940   21.4590  -32.6410 C   0  0  0  0  0  0  0  0  0  0  0  0
   -4.7410   20.9100  -32.9940 C   0  0  0  0  0  0  0  0  0  0  0  0
   -3.5740   21.7010  -32.9780 C   0  0  0  0  0  0  0  0  0  0  0  0
   -2.3390   21.1520  -33.3090 C   0  0  0  0  0  0  0  0  0  0  0  0
   -2.2390   19.8020  -33.6310 C   0  0  0  0  0  0  0  0  0  0  0  0
   -3.3710   18.9880  -33.6260 C   0  0  0  0  0  0  0  0  0  0  0  0
   -4.6490   19.5170  -33.3220 C   0  0  0  0  0  0  0  0  0  0  0  0
   -5.7840   18.7180  -33.3140 N   0  0  0  0  0  0  0  0  0  0  0  0
   -5.7360   17.3240  -33.7980 C   0  0  0  0  0  0  0  0  0  0  0  0
   -6.9610   19.2420  -32.8290 C   0  0  0  0  0  0  0  0  0  0  0  0
   -8.1640   18.5410  -32.6040 C   0  0  0  0  0  0  0  0  0  0  0  0
   -9.1900   19.3490  -32.1290 C   0  0  0  0  0  0  0  0  0  0  0  0
   -8.6180   20.9250  -31.9760 S   0  0  0  0  0  0  0  0  0  0  0  0
   -7.0640   20.5850  -32.5060 C   0  0  0  0  0  0  0  0  0  0  0  0
   -3.7285   18.6554  -25.2468 H   0  0  0  0  0  0  0  0  0  0  0  0
   -4.2270   19.4148  -26.7965 H   0  0  0  0  0  0  0  0  0  0  0  0
   -3.4773   17.7824  -26.7965 H   0  0  0  0  0  0  0  0  0  0  0  0
   -1.7075   19.6337  -25.4406 H   0  0  0  0  0  0  0  0  0  0  0  0
   -1.4412   18.6925  -26.9714 H   0  0  0  0  0  0  0  0  0  0  0  0
   -2.8530   21.2980  -26.8430 H   0  0  0  0  0  0  0  0  0  0  0  0
   -1.2070   21.1460  -27.1350 H   0  0  0  0  0  0  0  0  0  0  0  0
   -1.4950   20.0903  -29.1631 H   0  0  0  0  0  0  0  0  0  0  0  0
   -3.2073   19.6648  -28.7303 H   0  0  0  0  0  0  0  0  0  0  0  0
   -2.2811   21.9174  -30.2274 H   0  0  0  0  0  0  0  0  0  0  0  0
   -3.9553   21.5383  -29.7061 H   0  0  0  0  0  0  0  0  0  0  0  0
   -4.7792   23.5548  -28.6050 H   0  0  0  0  0  0  0  0  0  0  0  0
   -3.4485   24.7465  -28.3643 H   0  0  0  0  0  0  0  0  0  0  0  0
   -2.5815   24.0815  -30.6675 H   0  0  0  0  0  0  0  0  0  0  0  0
   -4.1105   23.1569  -30.8884 H   0  0  0  0  0  0  0  0  0  0  0  0
   -3.8190   25.6470  -31.5930 H   0  0  0  0  0  0  0  0  0  0  0  0
   -6.4055   25.5019  -30.5314 H   0  0  0  0  0  0  0  0  0  0  0  0
   -5.8378   25.2716  -32.2318 H   0  0  0  0  0  0  0  0  0  0  0  0
   -5.1695   22.9534  -30.5838 H   0  0  0  0  0  0  0  0  0  0  0  0
   -6.9396   23.3175  -30.5212 H   0  0  0  0  0  0  0  0  0  0  0  0
   -6.0970   23.5100  -33.2390 H   0  0  0  0  0  0  0  0  0  0  0  0
   -3.6405   22.7634  -32.7009 H   0  0  0  0  0  0  0  0  0  0  0  0
   -1.4403   21.7862  -33.3161 H   0  0  0  0  0  0  0  0  0  0  0  0
   -1.2598   19.3739  -33.8914 H   0  0  0  0  0  0  0  0  0  0  0  0
   -3.2698   17.9184  -33.8618 H   0  0  0  0  0  0  0  0  0  0  0  0
   -5.7124   16.6380  -32.9384 H   0  0  0  0  0  0  0  0  0  0  0  0
   -6.6275   17.1168  -34.4081 H   0  0  0  0  0  0  0  0  0  0  0  0
   -4.8323   17.1786  -34.4081 H   0  0  0  0  0  0  0  0  0  0  0  0
   -8.2787   17.4623  -32.7863 H   0  0  0  0  0  0  0  0  0  0  0  0
  -10.2103   19.0133  -31.8915 H   0  0  0  0  0  0  0  0  0  0  0  0
  1  2  1  0
  2  3  1  0
  3  4  1  0
  4  5  1  0
  5  6  1  0
  6  7  1  0
  7  8  1  0
  8  9  1  0
  9 10  1  0
 10 11  1  0
 11 12  1  0
 12 13  1  0
 13 14  2  0
 14 15  1  0
 15 16  2  0
 16 17  1  0
 17 18  2  0
 18 19  1  0
 19 20  2  0
 20 21  1  0
 20 22  1  0
 22 23  1  0
 23 24  2  0
 24 25  1  0
 25 26  1  0
 26 13  1  0
 19 14  1  0
 26 22  2  0
  1 27  1  0
  1 28  1  0
  1 29  1  0
  2 30  1  0
  2 31  1  0
  3 32  1  0
  3 33  1  0
  4 34  1  0
  4 35  1  0
  5 36  1  0
  5 37  1  0
  7 38  1  0
  7 39  1  0
  8 40  1  0
  8 41  1  0
  9 42  1  0
 10 43  1  0
 10 44  1  0
 11 45  1  0
 11 46  1  0
 12 47  1  0
 15 48  1  0
 16 49  1  0
 17 50  1  0
 18 51  1  0
 21 52  1  0
 21 53  1  0
 21 54  1  0
 23 55  1  0
 24 56  1  0
M  CHG  2   3   1  20   1
M  END
>  <UniqueID>  (19) 
19

>  <SMILES>  (19) 
CC[NH2+]CCOCCNCCNc1c2ccccc2[n+](C)c2ccsc12

>  <Energy>  (19) 
96.87015192207618

>  <Genealogy>  (19) 
CC[NH2+]CCOCCNCCNc1c2ccccc2[n+](C)c2ccsc12 (protonated)
CC[NH2+]CCOCCNCCNc1c2ccccc2[n+](C)c2ccsc12 (3D coordinates assigned)
CC[NH2+]CCOCCNCCNc1c2ccccc2[n+](C)c2ccsc12 (optimized conformer: 96.87015192207618 kcal/mol)

>  <smiles>  (19) 
CCNCCOCCNCCNc1c2ccccc2[n+](C)c2ccsc12

>  <score_type>  (19) 
oracle

>  <origin>  (19) 
adg

>  <m_score__min__energy>  (19) 
-8.3100000000000005

>  <m_primary>  (19) 
energy

$$$$
19:0
     RDKit          3D

 46 47  0  0  0  0  0  0  0  0999 V2000
   -3.5900   24.1810  -28.1970 C   0  0  0  0  0  0  0  0  0  0  0  0
   -3.2290   23.9090  -29.6480 C   0  0  0  0  0  0  0  0  0  0  0  0
   -3.8670   24.8680  -30.4840 O   0  0  0  0  0  0  0  0  0  0  0  0
   -5.2120   25.2170  -30.3460 C   0  0  0  0  0  0  0  0  0  0  0  0
   -5.5810   26.4180  -30.4480 O   0  0  0  0  0  0  0  0  0  0  0  0
   -6.2270   24.1430  -30.1260 C   0  0  0  0  0  0  0  0  0  0  0  0
   -7.0630   23.7190  -31.6920 S   0  0  0  0  0  0  0  0  0  0  0  0
   -5.7970   22.5620  -32.2290 C   0  0  0  0  0  0  0  0  0  0  0  0
   -4.4780   22.8720  -32.2470 N   0  0  0  0  0  0  0  0  0  0  0  0
   -3.8840   21.7570  -32.7010 C   0  0  0  0  0  0  0  0  0  0  0  0
   -2.5270   21.5370  -32.9170 C   0  0  0  0  0  0  0  0  0  0  0  0
   -2.1420   20.2770  -33.4150 C   0  0  0  0  0  0  0  0  0  0  0  0
   -3.1130   19.2870  -33.6840 C   0  0  0  0  0  0  0  0  0  0  0  0
   -4.4780   19.5430  -33.4550 C   0  0  0  0  0  0  0  0  0  0  0  0
   -4.8280   20.8000  -32.9560 C   0  0  0  0  0  0  0  0  0  0  0  0
   -6.0460   21.2970  -32.6600 N   0  0  0  0  0  0  0  0  0  0  0  0
   -7.3580   20.6640  -32.8210 C   0  0  0  0  0  0  0  0  0  0  0  0
   -7.8360   20.1450  -31.5210 N   0  0  0  0  0  0  0  0  0  0  0  0
   -8.8180   21.0400  -30.8640 C   0  0  0  0  0  0  0  0  0  0  0  0
   -9.7990   21.5800  -31.8970 C   0  0  0  0  0  0  0  0  0  0  0  0
   -8.3000   18.7420  -31.6110 C   0  0  0  0  0  0  0  0  0  0  0  0
   -7.3240   17.8170  -32.3510 C   0  0  0  0  0  0  0  0  0  0  0  0
   -2.8863   23.6508  -27.5385 H   0  0  0  0  0  0  0  0  0  0  0  0
   -3.5320   25.2619  -28.0011 H   0  0  0  0  0  0  0  0  0  0  0  0
   -4.6130   23.8272  -28.0011 H   0  0  0  0  0  0  0  0  0  0  0  0
   -2.1386   23.9805  -29.7741 H   0  0  0  0  0  0  0  0  0  0  0  0
   -3.5651   22.8992  -29.9261 H   0  0  0  0  0  0  0  0  0  0  0  0
   -5.7258   23.2476  -29.7298 H   0  0  0  0  0  0  0  0  0  0  0  0
   -6.9786   24.5066  -29.4098 H   0  0  0  0  0  0  0  0  0  0  0  0
   -4.0280   23.7720  -31.9690 H   0  0  0  0  0  0  0  0  0  0  0  0
   -1.7822   22.3186  -32.7065 H   0  0  0  0  0  0  0  0  0  0  0  0
   -1.0783   20.0625  -33.5956 H   0  0  0  0  0  0  0  0  0  0  0  0
   -2.7998   18.3080  -34.0757 H   0  0  0  0  0  0  0  0  0  0  0  0
   -5.2426   18.7797  -33.6618 H   0  0  0  0  0  0  0  0  0  0  0  0
   -8.0753   21.4057  -33.2024 H   0  0  0  0  0  0  0  0  0  0  0  0
   -7.2695   19.8286  -33.5311 H   0  0  0  0  0  0  0  0  0  0  0  0
   -9.3694   20.4762  -30.0971 H   0  0  0  0  0  0  0  0  0  0  0  0
   -8.2853   21.8809  -30.3959 H   0  0  0  0  0  0  0  0  0  0  0  0
  -10.6511   22.0491  -31.3833 H   0  0  0  0  0  0  0  0  0  0  0  0
   -9.2940   22.3272  -32.5268 H   0  0  0  0  0  0  0  0  0  0  0  0
  -10.1602   20.7536  -32.5268 H   0  0  0  0  0  0  0  0  0  0  0  0
   -8.4388   18.3557  -30.5904 H   0  0  0  0  0  0  0  0  0  0  0  0
   -9.2368   18.7490  -32.1874 H   0  0  0  0  0  0  0  0  0  0  0  0
   -6.7279   17.2521  -31.6192 H   0  0  0  0  0  0  0  0  0  0  0  0
   -7.8901   17.1161  -32.9821 H   0  0  0  0  0  0  0  0  0  0  0  0
   -6.6545   18.4199  -32.9821 H   0  0  0  0  0  0  0  0  0  0  0  0
  1  2  1  0
  2  3  1  0
  3  4  1  0
  4  5  2  0
  4  6  1  0
  6  7  1  0
  7  8  1  0
  8  9  2  0
  9 10  1  0
 10 11  2  0
 11 12  1  0
 12 13  2  0
 13 14  1  0
 14 15  2  0
 15 16  1  0
 16 17  1  0
 17 18  1  0
 18 19  1  0
 19 20  1  0
 18 21  1  0
 21 22  1  0
 16  8  1  0
 15 10  1  0
  1 23  1  0
  1 24  1  0
  1 25  1  0
  2 26  1  0
  2 27  1  0
  6 28  1  0
  6 29  1  0
  9 30  1  0
 11 31  1  0
 12 32  1  0
 13 33  1  0
 14 34  1  0
 17 35  1  0
 17 36  1  0
 19 37  1  0
 19 38  1  0
 20 39  1  0
 20 40  1  0
 20 41  1  0
 21 42  1  0
 21 43  1  0
 22 44  1  0
 22 45  1  0
 22 46  1  0
M  CHG  1   9   1
M  END
>  <UniqueID>  (20) 
20

>  <SMILES>  (20) 
CCOC(=O)CSc1[nH+]c2ccccc2n1CN(CC)CC

>  <Energy>  (20) 
71.60574340561317

>  <Genealogy>  (20) 
CCOC(=O)CSc1[nH+]c2ccccc2n1CN(CC)CC (protonated)
CCOC(=O)CSc1[nH+]c2ccccc2n1CN(CC)CC (3D coordinates assigned)
CCOC(=O)CSc1[nH+]c2ccccc2n1CN(CC)CC (optimized conformer: 71.60574340561317 kcal/mol)

>  <smiles>  (20) 
CCOC(=O)CSc1nc2ccccc2n1CN(CC)CC

>  <score_type>  (20) 
oracle

>  <origin>  (20) 
adg

>  <m_score__min__energy>  (20) 
-6.8700000000000001

>  <m_primary>  (20) 
energy

$$$$
20:0
     RDKit          3D

 27 27  0  0  0  0  0  0  0  0999 V2000
   -1.8860   25.5860  -26.7080 C   0  0  0  0  0  0  0  0  0  0  0  0
   -1.1800   26.4460  -27.7500 C   0  0  0  0  0  0  0  0  0  0  0  0
   -0.9800   25.6810  -28.9910 N   0  0  0  0  0  0  0  0  0  0  0  0
   -1.1920   24.2330  -28.8090 C   0  0  0  0  0  0  0  0  0  0  0  0
   -2.2410   23.6630  -29.7800 C   0  0  0  0  0  0  0  0  0  0  0  0
   -3.2030   24.6550  -30.1460 O   0  0  0  0  0  0  0  0  0  0  0  0
   -4.5700   24.4240  -30.3740 C   0  0  0  0  0  0  0  0  0  0  0  0
   -5.5860   25.2010  -29.7790 C   0  0  0  0  0  0  0  0  0  0  0  0
   -6.9300   24.9220  -30.0440 C   0  0  0  0  0  0  0  0  0  0  0  0
   -7.2740   23.8760  -30.9040 C   0  0  0  0  0  0  0  0  0  0  0  0
   -6.2730   23.1070  -31.5010 C   0  0  0  0  0  0  0  0  0  0  0  0
   -4.9280   23.3810  -31.2370 C   0  0  0  0  0  0  0  0  0  0  0  0
   -1.6060   25.9271  -25.7004 H   0  0  0  0  0  0  0  0  0  0  0  0
   -2.9749   25.6751  -26.8359 H   0  0  0  0  0  0  0  0  0  0  0  0
   -1.5865   24.5353  -26.8359 H   0  0  0  0  0  0  0  0  0  0  0  0
   -1.7940   27.3330  -27.9651 H   0  0  0  0  0  0  0  0  0  0  0  0
   -0.1998   26.7534  -27.3565 H   0  0  0  0  0  0  0  0  0  0  0  0
   -1.6260   26.0480  -29.7290 H   0  0  0  0  0  0  0  0  0  0  0  0
   -0.2372   23.7131  -28.9766 H   0  0  0  0  0  0  0  0  0  0  0  0
   -1.5644   24.0763  -27.7859 H   0  0  0  0  0  0  0  0  0  0  0  0
   -1.7324   23.3051  -30.6873 H   0  0  0  0  0  0  0  0  0  0  0  0
   -2.7670   22.8378  -29.2776 H   0  0  0  0  0  0  0  0  0  0  0  0
   -5.3201   26.0285  -29.1048 H   0  0  0  0  0  0  0  0  0  0  0  0
   -7.7189   25.5277  -29.5741 H   0  0  0  0  0  0  0  0  0  0  0  0
   -8.3323   23.6585  -31.1106 H   0  0  0  0  0  0  0  0  0  0  0  0
   -6.5432   22.2847  -32.1798 H   0  0  0  0  0  0  0  0  0  0  0  0
   -4.1441   22.7721  -31.7112 H   0  0  0  0  0  0  0  0  0  0  0  0
  1  2  1  0
  2  3  1  0
  3  4  1  0
  4  5  1  0
  5  6  1  0
  6  7  1  0
  7  8  2  0
  8  9  1  0
  9 10  2  0
 10 11  1  0
 11 12  2  0
 12  7  1  0
  1 13  1  0
  1 14  1  0
  1 15  1  0
  2 16  1  0
  2 17  1  0
  3 18  1  0
  4 19  1  0
  4 20  1  0
  5 21  1  0
  5 22  1  0
  8 23  1  0
  9 24  1  0
 10 25  1  0
 11 26  1  0
 12 27  1  0
M  END
>  <UniqueID>  (21) 
21

>  <SMILES>  (21) 
CCNCCOc1ccccc1

>  <Energy>  (21) 
23.02597135239526

>  <Genealogy>  (21) 
CCNCCOc1ccccc1 (3D coordinates assigned)
CCNCCOc1ccccc1 (optimized conformer: 23.02597135239526 kcal/mol)

>  <smiles>  (21) 
CCNCCOc1ccccc1

>  <score_type>  (21) 
oracle

>  <origin>  (21) 
adg

>  <m_score__min__energy>  (21) 
-5.5700000000000003

>  <m_primary>  (21) 
energy

$$$$
21:0
     RDKit          3D

 54 57  0  0  0  0  0  0  0  0999 V2000
   -0.0930   25.0940  -24.4640 C   0  0  0  0  0  0  0  0  0  0  0  0
    1.3550   25.1970  -24.9410 C   0  0  0  0  0  0  0  0  0  0  0  0
    1.4200   25.1500  -26.3680 O   0  0  0  0  0  0  0  0  0  0  0  0
    0.3710   24.7690  -27.2210 C   0  0  0  0  0  0  0  0  0  0  0  0
    0.1490   23.4320  -27.6050 C   0  0  0  0  0  0  0  0  0  0  0  0
   -0.9420   23.1000  -28.4160 C   0  0  0  0  0  0  0  0  0  0  0  0
   -1.8290   24.0980  -28.8630 C   0  0  0  0  0  0  0  0  0  0  0  0
   -3.0070   23.7600  -29.6270 N   0  0  0  0  0  0  0  0  0  0  0  0
   -4.2790   24.1650  -29.3850 C   0  0  0  0  0  0  0  0  0  0  0  0
   -5.0710   23.6730  -30.3970 C   0  0  0  0  0  0  0  0  0  0  0  0
   -4.2330   22.9580  -31.2060 C   0  0  0  0  0  0  0  0  0  0  0  0
   -2.9710   23.0260  -30.7350 N   0  0  0  0  0  0  0  0  0  0  0  0
   -4.6650   22.3190  -32.4890 C   0  0  0  0  0  0  0  0  0  0  0  0
   -6.1450   22.3690  -32.6700 N   0  0  0  0  0  0  0  0  0  0  0  0
   -6.8870   21.0880  -32.5220 C   0  0  0  0  0  0  0  0  0  0  0  0
   -8.2270   21.2470  -31.7190 C   0  0  0  0  0  0  0  0  0  0  0  0
   -9.3810   20.3140  -32.1340 C   0  0  0  0  0  0  0  0  0  0  0  0
   -9.0720   18.8130  -31.9890 C   0  0  0  0  0  0  0  0  0  0  0  0
   -7.8040   18.3290  -32.7080 C   0  0  0  0  0  0  0  0  0  0  0  0
   -6.5070   18.5670  -31.9180 C   0  0  0  0  0  0  0  0  0  0  0  0
   -5.9240   19.9980  -31.9820 C   0  0  0  0  0  0  0  0  0  0  0  0
   -6.8260   23.5740  -32.1230 C   0  0  0  0  0  0  0  0  0  0  0  0
   -6.5360   23.8010  -30.6270 C   0  0  0  0  0  0  0  0  0  0  0  0
   -1.5870   25.4330  -28.4980 C   0  0  0  0  0  0  0  0  0  0  0  0
   -0.4910   25.7650  -27.6940 C   0  0  0  0  0  0  0  0  0  0  0  0
   -0.1175   25.0923  -23.3643 H   0  0  0  0  0  0  0  0  0  0  0  0
   -0.6657   25.9537  -24.8422 H   0  0  0  0  0  0  0  0  0  0  0  0
   -0.5382   24.1619  -24.8422 H   0  0  0  0  0  0  0  0  0  0  0  0
    1.7841   26.1474  -24.5908 H   0  0  0  0  0  0  0  0  0  0  0  0
    1.9238   24.3488  -24.5324 H   0  0  0  0  0  0  0  0  0  0  0  0
    0.8374   22.6442  -27.2653 H   0  0  0  0  0  0  0  0  0  0  0  0
   -1.1078   22.0520  -28.7063 H   0  0  0  0  0  0  0  0  0  0  0  0
   -4.6160   24.7757  -28.5344 H   0  0  0  0  0  0  0  0  0  0  0  0
   -4.1871   22.8474  -33.3270 H   0  0  0  0  0  0  0  0  0  0  0  0
   -4.3627   21.2618  -32.4596 H   0  0  0  0  0  0  0  0  0  0  0  0
   -7.2329   20.7503  -33.5101 H   0  0  0  0  0  0  0  0  0  0  0  0
   -8.0073   21.0582  -30.6578 H   0  0  0  0  0  0  0  0  0  0  0  0
   -8.5801   22.2666  -31.9326 H   0  0  0  0  0  0  0  0  0  0  0  0
  -10.2539   20.5472  -31.5066 H   0  0  0  0  0  0  0  0  0  0  0  0
   -9.5599   20.4946  -33.2042 H   0  0  0  0  0  0  0  0  0  0  0  0
   -8.9599   18.5916  -30.9174 H   0  0  0  0  0  0  0  0  0  0  0  0
   -9.9108   18.2836  -32.4645 H   0  0  0  0  0  0  0  0  0  0  0  0
   -7.9026   17.2493  -32.8936 H   0  0  0  0  0  0  0  0  0  0  0  0
   -7.7224   18.9131  -33.6365 H   0  0  0  0  0  0  0  0  0  0  0  0
   -6.7089   18.3333  -30.8622 H   0  0  0  0  0  0  0  0  0  0  0  0
   -5.7521   17.9192  -32.3875 H   0  0  0  0  0  0  0  0  0  0  0  0
   -5.6218   20.2867  -30.9645 H   0  0  0  0  0  0  0  0  0  0  0  0
   -5.0888   19.9522  -32.6964 H   0  0  0  0  0  0  0  0  0  0  0  0
   -6.4833   24.4557  -32.6844 H   0  0  0  0  0  0  0  0  0  0  0  0
   -7.9095   23.4164  -32.2284 H   0  0  0  0  0  0  0  0  0  0  0  0
   -6.8695   24.8076  -30.3345 H   0  0  0  0  0  0  0  0  0  0  0  0
   -7.0752   23.0551  -30.0246 H   0  0  0  0  0  0  0  0  0  0  0  0
   -2.2657   26.2249  -28.8477 H   0  0  0  0  0  0  0  0  0  0  0  0
   -0.3054   26.8170  -27.4317 H   0  0  0  0  0  0  0  0  0  0  0  0
  1  2  1  0
  2  3  1  0
  3  4  1  0
  4  5  2  0
  5  6  1  0
  6  7  2  0
  7  8  1  0
  8  9  1  0
  9 10  2  0
 10 11  1  0
 11 12  2  0
 11 13  1  0
 13 14  1  0
 14 15  1  0
 15 16  1  0
 16 17  1  0
 17 18  1  0
 18 19  1  0
 19 20  1  0
 20 21  1  0
 14 22  1  0
 22 23  1  0
  7 24  1  0
 24 25  2  0
 25  4  1  0
 12  8  1  0
 21 15  1  0
 23 10  1  0
  1 26  1  0
  1 27  1  0
  1 28  1  0
  2 29  1  0
  2 30  1  0
  5 31  1  0
  6 32  1  0
  9 33  1  0
 13 34  1  0
 13 35  1  0
 15 36  1  0
 16 37  1  0
 16 38  1  0
 17 39  1  0
 17 40  1  0
 18 41  1  0
 18 42  1  0
 19 43  1  0
 19 44  1  0
 20 45  1  0
 20 46  1  0
 21 47  1  0
 21 48  1  0
 22 49  1  0
 22 50  1  0
 23 51  1  0
 23 52  1  0
 24 53  1  0
 25 54  1  0
M  END
>  <UniqueID>  (22) 
22

>  <SMILES>  (22) 
CCOc1ccc(-n2cc3c(n2)CN(C2CCCCCC2)CC3)cc1

>  <Energy>  (22) 
110.26166243088373

>  <Genealogy>  (22) 
CCOc1ccc(-n2cc3c(n2)CN(C2CCCCCC2)CC3)cc1 (3D coordinates assigned)
CCOc1ccc(-n2cc3c(n2)CN(C2CCCCCC2)CC3)cc1 (nonaromatic ring conformer: 110.26166243088373 kcal/mol)

>  <smiles>  (22) 
CCOc1ccc(-n2cc3c(n2)CN(C2CCCCCC2)CC3)cc1

>  <score_type>  (22) 
oracle

>  <origin>  (22) 
adg

>  <m_score__min__energy>  (22) 
-7.2999999999999998

>  <m_primary>  (22) 
energy

$$$$
22:0
     RDKit          3D

 54 56  0  0  0  0  0  0  0  0999 V2000
   -2.7990   24.3860  -27.4310 C   0  0  0  0  0  0  0  0  0  0  0  0
   -3.8600   23.2940  -27.5220 C   0  0  0  0  0  0  0  0  0  0  0  0
   -3.4280   22.2260  -28.4330 N   0  0  0  0  0  0  0  0  0  0  0  0
   -2.3390   21.4160  -27.8480 C   0  0  0  0  0  0  0  0  0  0  0  0
   -1.5730   20.5850  -28.8970 C   0  0  0  0  0  0  0  0  0  0  0  0
   -1.2160   21.4080  -30.1480 C   0  0  0  0  0  0  0  0  0  0  0  0
   -2.3640   21.5760  -31.0530 N   0  0  0  0  0  0  0  0  0  0  0  0
   -2.4690   20.4960  -32.0440 C   0  0  0  0  0  0  0  0  0  0  0  0
   -2.7860   21.0910  -33.4210 C   0  0  0  0  0  0  0  0  0  0  0  0
   -4.0770   21.7870  -33.4150 N   0  0  0  0  0  0  0  0  0  0  0  0
   -5.2080   21.5660  -32.5190 C   0  0  0  0  0  0  0  0  0  0  0  0
   -5.5780   22.6050  -31.6300 C   0  0  0  0  0  0  0  0  0  0  0  0
   -4.6450   23.5790  -31.2090 C   0  0  0  0  0  0  0  0  0  0  0  0
   -5.0160   24.5940  -30.3280 C   0  0  0  0  0  0  0  0  0  0  0  0
   -6.3080   24.6400  -29.8220 C   0  0  0  0  0  0  0  0  0  0  0  0
   -7.2440   23.6820  -30.2050 C   0  0  0  0  0  0  0  0  0  0  0  0
   -6.9070   22.6570  -31.1270 C   0  0  0  0  0  0  0  0  0  0  0  0
   -7.8280   21.7130  -31.5210 N   0  0  0  0  0  0  0  0  0  0  0  0
   -9.2710   21.9380  -31.2760 C   0  0  0  0  0  0  0  0  0  0  0  0
   -7.3920   20.5320  -32.0860 C   0  0  0  0  0  0  0  0  0  0  0  0
   -8.2390   19.3950  -32.1530 C   0  0  0  0  0  0  0  0  0  0  0  0
   -7.7840   18.1890  -32.6810 C   0  0  0  0  0  0  0  0  0  0  0  0
   -6.4610   18.0630  -33.0850 C   0  0  0  0  0  0  0  0  0  0  0  0
   -5.8050   16.3710  -33.6770 Br  0  0  0  0  0  0  0  0  0  0  0  0
   -5.5990   19.1560  -33.0020 C   0  0  0  0  0  0  0  0  0  0  0  0
   -6.0540   20.4220  -32.5750 C   0  0  0  0  0  0  0  0  0  0  0  0
   -2.5871   24.6041  -26.3739 H   0  0  0  0  0  0  0  0  0  0  0  0
   -1.8782   24.0448  -27.9267 H   0  0  0  0  0  0  0  0  0  0  0  0
   -3.1665   25.2966  -27.9267 H   0  0  0  0  0  0  0  0  0  0  0  0
   -4.0279   22.8692  -26.5213 H   0  0  0  0  0  0  0  0  0  0  0  0
   -4.7899   23.7354  -27.9098 H   0  0  0  0  0  0  0  0  0  0  0  0
   -3.1340   22.6450  -29.3480 H   0  0  0  0  0  0  0  0  0  0  0  0
   -1.6284   22.0921  -27.3501 H   0  0  0  0  0  0  0  0  0  0  0  0
   -2.7989   20.7092  -27.1416 H   0  0  0  0  0  0  0  0  0  0  0  0
   -0.6436   20.2116  -28.4423 H   0  0  0  0  0  0  0  0  0  0  0  0
   -2.2262   19.7584  -29.2134 H   0  0  0  0  0  0  0  0  0  0  0  0
   -0.8680   22.4019  -29.8300 H   0  0  0  0  0  0  0  0  0  0  0  0
   -0.4326   20.8640  -30.6961 H   0  0  0  0  0  0  0  0  0  0  0  0
   -3.2460   21.6170  -30.4930 H   0  0  0  0  0  0  0  0  0  0  0  0
   -1.5157   19.9492  -32.0920 H   0  0  0  0  0  0  0  0  0  0  0  0
   -3.2742   19.8068  -31.7495 H   0  0  0  0  0  0  0  0  0  0  0  0
   -1.9950   21.8050  -33.6938 H   0  0  0  0  0  0  0  0  0  0  0  0
   -2.8370   20.2699  -34.1512 H   0  0  0  0  0  0  0  0  0  0  0  0
   -4.2730   22.3250  -34.2880 H   0  0  0  0  0  0  0  0  0  0  0  0
   -3.6110   23.5359  -31.5817 H   0  0  0  0  0  0  0  0  0  0  0  0
   -4.2835   25.3599  -30.0333 H   0  0  0  0  0  0  0  0  0  0  0  0
   -6.5932   25.4348  -29.1170 H   0  0  0  0  0  0  0  0  0  0  0  0
   -8.2604   23.7206  -29.7862 H   0  0  0  0  0  0  0  0  0  0  0  0
   -9.4588   21.9673  -30.1925 H   0  0  0  0  0  0  0  0  0  0  0  0
   -9.5747   22.8944  -31.7267 H   0  0  0  0  0  0  0  0  0  0  0  0
   -9.8514   21.1195  -31.7267 H   0  0  0  0  0  0  0  0  0  0  0  0
   -9.2719   19.4674  -31.7818 H   0  0  0  0  0  0  0  0  0  0  0  0
   -8.4723   17.3365  -32.7780 H   0  0  0  0  0  0  0  0  0  0  0  0
   -4.5411   19.0287  -33.2753 H   0  0  0  0  0  0  0  0  0  0  0  0
  1  2  1  0
  2  3  1  0
  3  4  1  0
  4  5  1  0
  5  6  1  0
  6  7  1  0
  7  8  1  0
  8  9  1  0
  9 10  1  0
 10 11  1  0
 11 12  2  0
 12 13  1  0
 13 14  2  0
 14 15  1  0
 15 16  2  0
 16 17  1  0
 17 18  2  0
 18 19  1  0
 18 20  1  0
 20 21  2  0
 21 22  1  0
 22 23  2  0
 23 24  1  0
 23 25  1  0
 25 26  2  0
 26 11  1  0
 17 12  1  0
 26 20  1  0
  1 27  1  0
  1 28  1  0
  1 29  1  0
  2 30  1  0
  2 31  1  0
  3 32  1  0
  4 33  1  0
  4 34  1  0
  5 35  1  0
  5 36  1  0
  6 37  1  0
  6 38  1  0
  7 39  1  0
  8 40  1  0
  8 41  1  0
  9 42  1  0
  9 43  1  0
 10 44  1  0
 13 45  1  0
 14 46  1  0
 15 47  1  0
 16 48  1  0
 19 49  1  0
 19 50  1  0
 19 51  1  0
 21 52  1  0
 22 53  1  0
 25 54  1  0
M  CHG  1  18   1
M  END
>  <UniqueID>  (23) 
23

>  <SMILES>  (23) 
CCNCCCNCCNc1c2ccccc2[n+](C)c2ccc(Br)cc12

>  <Energy>  (23) 
88.91486071389924

>  <Genealogy>  (23) 
CCNCCCNCCNc1c2ccccc2[n+](C)c2ccc(Br)cc12 (3D coordinates assigned)
CCNCCCNCCNc1c2ccccc2[n+](C)c2ccc(Br)cc12 (optimized conformer: 88.91486071389924 kcal/mol)

>  <smiles>  (23) 
CCNCCCNCCNc1c2ccccc2[n+](C)c2ccc(Br)cc12

>  <score_type>  (23) 
oracle

>  <origin>  (23) 
adg

>  <m_score__min__energy>  (23) 
-8.9299999999999997

>  <m_primary>  (23) 
energy

$$$$
23:0
     RDKit          3D

 38 39  0  0  0  0  0  0  0  0999 V2000
   -6.8800   23.8480  -30.6240 C   0  0  0  0  0  0  0  0  0  0  0  0
   -7.3910   23.4060  -31.9960 C   0  0  0  0  0  0  0  0  0  0  0  0
   -8.8640   22.9630  -31.9740 C   0  0  0  0  0  0  0  0  0  0  0  0
   -9.1160   21.5470  -31.4140 C   0  0  0  0  0  0  0  0  0  0  0  0
   -8.8580   20.3840  -32.3950 C   0  0  0  0  0  0  0  0  0  0  0  0
   -8.4410   19.0390  -31.7450 C   0  0  0  0  0  0  0  0  0  0  0  0
   -7.0440   18.4020  -32.1040 C   0  0  1  0  0  0  0  0  0  0  0  0
   -6.4910   17.4560  -31.0110 C   0  0  0  0  0  0  0  0  0  0  0  0
   -7.2620   17.6350  -33.3010 O   0  0  0  0  0  0  0  0  0  0  0  0
   -6.0890   17.3630  -34.0580 C   0  0  0  0  0  0  0  0  0  0  0  0
   -5.4900   18.6490  -34.6310 C   0  0  0  0  0  0  0  0  0  0  0  0
   -5.3180   19.6110  -33.5140 C   0  0  0  0  0  0  0  0  0  0  0  0
   -4.2900   20.9350  -33.4630 S   0  0  0  0  0  0  0  0  0  0  0  0
   -4.7210   21.4100  -31.9050 C   0  0  0  0  0  0  0  0  0  0  0  0
   -5.6820   20.5300  -31.4190 C   0  0  0  0  0  0  0  0  0  0  0  0
   -6.0350   19.5260  -32.3370 C   0  0  0  0  0  0  0  0  0  0  0  0
   -7.4612   23.3453  -29.8369 H   0  0  0  0  0  0  0  0  0  0  0  0
   -5.8181   23.5790  -30.5241 H   0  0  0  0  0  0  0  0  0  0  0  0
   -6.9932   24.9376  -30.5241 H   0  0  0  0  0  0  0  0  0  0  0  0
   -7.2885   24.2481  -32.6963 H   0  0  0  0  0  0  0  0  0  0  0  0
   -6.7908   22.5383  -32.3071 H   0  0  0  0  0  0  0  0  0  0  0  0
   -9.4254   23.6785  -31.3552 H   0  0  0  0  0  0  0  0  0  0  0  0
   -9.1912   22.9388  -33.0239 H   0  0  0  0  0  0  0  0  0  0  0  0
   -8.4594   21.4063  -30.5428 H   0  0  0  0  0  0  0  0  0  0  0  0
  -10.1889   21.5055  -31.1751 H   0  0  0  0  0  0  0  0  0  0  0  0
   -9.7822   20.2117  -32.9662 H   0  0  0  0  0  0  0  0  0  0  0  0
   -8.0042   20.6964  -33.0142 H   0  0  0  0  0  0  0  0  0  0  0  0
   -8.4516   19.1934  -30.6559 H   0  0  0  0  0  0  0  0  0  0  0  0
   -9.1653   18.3194  -32.1543 H   0  0  0  0  0  0  0  0  0  0  0  0
   -6.7296   17.8642  -30.0178 H   0  0  0  0  0  0  0  0  0  0  0  0
   -6.9506   16.4625  -31.1192 H   0  0  0  0  0  0  0  0  0  0  0  0
   -5.3998   17.3690  -31.1192 H   0  0  0  0  0  0  0  0  0  0  0  0
   -5.3456   16.8800  -33.4068 H   0  0  0  0  0  0  0  0  0  0  0  0
   -6.3596   16.7018  -34.8944 H   0  0  0  0  0  0  0  0  0  0  0  0
   -4.5147   18.4337  -35.0920 H   0  0  0  0  0  0  0  0  0  0  0  0
   -6.1538   19.0706  -35.4002 H   0  0  0  0  0  0  0  0  0  0  0  0
   -4.3100   22.2737  -31.3618 H   0  0  0  0  0  0  0  0  0  0  0  0
   -6.1227   20.6117  -30.4145 H   0  0  0  0  0  0  0  0  0  0  0  0
  1  2  1  0
  2  3  1  0
  3  4  1  0
  4  5  1  0
  5  6  1  0
  7  6  1  1
  7  8  1  0
  7  9  1  0
  9 10  1  0
 10 11  1  0
 11 12  1  0
 12 13  1  0
 13 14  1  0
 14 15  2  0
 15 16  1  0
 16  7  1  0
 16 12  2  0
  1 17  1  0
  1 18  1  0
  1 19  1  0
  2 20  1  0
  2 21  1  0
  3 22  1  0
  3 23  1  0
  4 24  1  0
  4 25  1  0
  5 26  1  0
  5 27  1  0
  6 28  1  0
  6 29  1  0
  8 30  1  0
  8 31  1  0
  8 32  1  0
 10 33  1  0
 10 34  1  0
 11 35  1  0
 11 36  1  0
 14 37  1  0
 15 38  1  0
M  END
>  <UniqueID>  (24) 
24

>  <SMILES>  (24) 
CCCCCC[C@@]1(C)OCCc2sccc21

>  <Energy>  (24) 
74.50249451898785

>  <Genealogy>  (24) 
CCCCCC[C@@]1(C)OCCc2sccc21 (chirality)
CCCCCC[C@@]1(C)OCCc2sccc21 (3D coordinates assigned)
CCCCCC[C@@]1(C)OCCc2sccc21 (nonaromatic ring conformer: 74.50249451898785 kcal/mol)

>  <smiles>  (24) 
CCCCCCC1(C)OCCc2sccc21

>  <score_type>  (24) 
oracle

>  <origin>  (24) 
adg

>  <m_score__min__energy>  (24) 
-6.4199999999999999

>  <m_primary>  (24) 
energy

$$$$
24:0
     RDKit          3D

 62 65  0  0  0  0  0  0  0  0999 V2000
   -6.2270   25.6410  -29.5420 C   0  0  0  0  0  0  0  0  0  0  0  0
   -5.3420   25.7360  -30.7800 C   0  0  0  0  0  0  0  0  0  0  0  0
   -4.4260   24.5900  -30.8430 N   0  0  0  0  0  0  0  0  0  0  0  0
   -4.1650   24.0320  -29.5070 C   0  0  0  0  0  0  0  0  0  0  0  0
   -2.8780   23.1940  -29.5180 C   0  0  0  0  0  0  0  0  0  0  0  0
   -2.4340   22.9060  -30.8330 O   0  0  0  0  0  0  0  0  0  0  0  0
   -3.0000   21.7010  -31.3080 C   0  0  0  0  0  0  0  0  0  0  0  0
   -2.8590   21.6420  -32.8270 C   0  0  0  0  0  0  0  0  0  0  0  0
   -4.1700   21.7180  -33.4720 N   0  0  0  0  0  0  0  0  0  0  0  0
   -5.2520   20.8700  -33.0650 C   0  0  0  0  0  0  0  0  0  0  0  0
   -6.4120   21.3990  -32.4550 C   0  0  0  0  0  0  0  0  0  0  0  0
   -6.4920   22.7670  -32.1310 C   0  0  0  0  0  0  0  0  0  0  0  0
   -7.6300   23.2880  -31.5200 C   0  0  0  0  0  0  0  0  0  0  0  0
   -8.6990   22.4540  -31.2060 C   0  0  0  0  0  0  0  0  0  0  0  0
   -8.6480   21.0930  -31.5130 C   0  0  0  0  0  0  0  0  0  0  0  0
   -7.5210   20.5330  -32.1610 C   0  0  0  0  0  0  0  0  0  0  0  0
   -7.4690   19.1890  -32.4990 N   0  0  0  0  0  0  0  0  0  0  0  0
   -8.6310   18.3020  -32.3090 C   0  0  0  0  0  0  0  0  0  0  0  0
   -6.2940   18.6900  -33.0010 C   0  0  0  0  0  0  0  0  0  0  0  0
   -6.0120   17.3870  -33.2520 N   0  0  0  0  0  0  0  0  0  0  0  0
   -4.7370   17.3830  -33.6900 C   0  0  0  0  0  0  0  0  0  0  0  0
   -3.9810   16.2680  -34.0370 C   0  0  0  0  0  0  0  0  0  0  0  0
   -2.6450   16.4660  -34.4220 C   0  0  0  0  0  0  0  0  0  0  0  0
   -2.0670   17.7670  -34.4380 C   0  0  0  0  0  0  0  0  0  0  0  0
   -0.6800   17.9580  -34.8260 N   0  0  0  0  0  0  0  0  0  0  0  0
    0.1680   16.8040  -35.1520 C   0  0  0  0  0  0  0  0  0  0  0  0
   -0.1010   19.3050  -34.8890 C   0  0  0  0  0  0  0  0  0  0  0  0
   -2.8700   18.8750  -34.0630 C   0  0  0  0  0  0  0  0  0  0  0  0
   -4.2040   18.6500  -33.7170 C   0  0  0  0  0  0  0  0  0  0  0  0
   -5.2090   19.4960  -33.2790 C   0  0  0  0  0  0  0  0  0  0  0  0
   -5.6026   25.7080  -28.6389 H   0  0  0  0  0  0  0  0  0  0  0  0
   -6.9543   26.4662  -29.5470 H   0  0  0  0  0  0  0  0  0  0  0  0
   -6.7626   24.6802  -29.5470 H   0  0  0  0  0  0  0  0  0  0  0  0
   -5.9758   25.7434  -31.6790 H   0  0  0  0  0  0  0  0  0  0  0  0
   -4.7515   26.6625  -30.7265 H   0  0  0  0  0  0  0  0  0  0  0  0
   -3.5130   24.9270  -31.2290 H   0  0  0  0  0  0  0  0  0  0  0  0
   -4.0552   24.8552  -28.7857 H   0  0  0  0  0  0  0  0  0  0  0  0
   -5.0081   23.3867  -29.2193 H   0  0  0  0  0  0  0  0  0  0  0  0
   -2.0886   23.7513  -28.9924 H   0  0  0  0  0  0  0  0  0  0  0  0
   -3.0952   22.2378  -29.0195 H   0  0  0  0  0  0  0  0  0  0  0  0
   -2.4757   20.8458  -30.8568 H   0  0  0  0  0  0  0  0  0  0  0  0
   -4.0648   21.6611  -31.0348 H   0  0  0  0  0  0  0  0  0  0  0  0
   -2.2408   22.4866  -33.1652 H   0  0  0  0  0  0  0  0  0  0  0  0
   -2.3851   20.6879  -33.1011 H   0  0  0  0  0  0  0  0  0  0  0  0
   -4.2890   22.3210  -34.3170 H   0  0  0  0  0  0  0  0  0  0  0  0
   -5.6465   23.4314  -32.3630 H   0  0  0  0  0  0  0  0  0  0  0  0
   -7.6840   24.3613  -31.2850 H   0  0  0  0  0  0  0  0  0  0  0  0
   -9.5899   22.8699  -30.7127 H   0  0  0  0  0  0  0  0  0  0  0  0
   -9.4968   20.4458  -31.2472 H   0  0  0  0  0  0  0  0  0  0  0  0
   -8.8138   18.1625  -31.2333 H   0  0  0  0  0  0  0  0  0  0  0  0
   -9.5181   18.7547  -32.7760 H   0  0  0  0  0  0  0  0  0  0  0  0
   -8.4282   17.3269  -32.7760 H   0  0  0  0  0  0  0  0  0  0  0  0
   -6.6050   16.5420  -33.0970 H   0  0  0  0  0  0  0  0  0  0  0  0
   -4.4177   15.2588  -34.0106 H   0  0  0  0  0  0  0  0  0  0  0  0
   -2.0340   15.6001  -34.7166 H   0  0  0  0  0  0  0  0  0  0  0  0
    0.5160   16.3304  -34.2222 H   0  0  0  0  0  0  0  0  0  0  0  0
   -0.4122   16.0768  -35.7390 H   0  0  0  0  0  0  0  0  0  0  0  0
    1.0353   17.1405  -35.7390 H   0  0  0  0  0  0  0  0  0  0  0  0
    0.0612   19.6825  -33.8686 H   0  0  0  0  0  0  0  0  0  0  0  0
    0.8600   19.2664  -35.4228 H   0  0  0  0  0  0  0  0  0  0  0  0
   -0.7903   19.9758  -35.4228 H   0  0  0  0  0  0  0  0  0  0  0  0
   -2.4499   19.8915  -34.0452 H   0  0  0  0  0  0  0  0  0  0  0  0
  1  2  1  0
  2  3  1  0
  3  4  1  0
  4  5  1  0
  5  6  1  0
  6  7  1  0
  7  8  1  0
  8  9  1  0
  9 10  1  0
 10 11  2  0
 11 12  1  0
 12 13  2  0
 13 14  1  0
 14 15  2  0
 15 16  1  0
 16 17  2  0
 17 18  1  0
 17 19  1  0
 19 20  1  0
 20 21  1  0
 21 22  2  0
 22 23  1  0
 23 24  2  0
 24 25  1  0
 25 26  1  0
 25 27  1  0
 24 28  1  0
 28 29  2  0
 29 30  1  0
 30 10  1  0
 16 11  1  0
 30 19  2  0
 29 21  1  0
  1 31  1  0
  1 32  1  0
  1 33  1  0
  2 34  1  0
  2 35  1  0
  3 36  1  0
  4 37  1  0
  4 38  1  0
  5 39  1  0
  5 40  1  0
  7 41  1  0
  7 42  1  0
  8 43  1  0
  8 44  1  0
  9 45  1  0
 12 46  1  0
 13 47  1  0
 14 48  1  0
 15 49  1  0
 18 50  1  0
 18 51  1  0
 18 52  1  0
 20 53  1  0
 22 54  1  0
 23 55  1  0
 26 56  1  0
 26 57  1  0
 26 58  1  0
 27 59  1  0
 27 60  1  0
 27 61  1  0
 28 62  1  0
M  CHG  1  17   1
M  END
>  <UniqueID>  (25) 
25

>  <SMILES>  (25) 
CCNCCOCCNc1c2ccccc2[n+](C)c2[nH]c3ccc(N(C)C)cc3c12

>  <Energy>  (25) 
117.90217929354816

>  <Genealogy>  (25) 
CCNCCOCCNc1c2ccccc2[n+](C)c2[nH]c3ccc(N(C)C)cc3c12 (3D coordinates assigned)
CCNCCOCCNc1c2ccccc2[n+](C)c2[nH]c3ccc(N(C)C)cc3c12 (optimized conformer: 117.90217929354816 kcal/mol)

>  <smiles>  (25) 
CCNCCOCCNc1c2ccccc2[n+](C)c2[nH]c3ccc(N(C)C)cc3c12

>  <score_type>  (25) 
oracle

>  <origin>  (25) 
adg

>  <m_score__min__energy>  (25) 
-8.9299999999999997

>  <m_primary>  (25) 
energy

$$$$
25:0
     RDKit          3D

 46 47  0  0  0  0  0  0  0  0999 V2000
   -6.8080   25.0150  -29.7440 C   0  0  0  0  0  0  0  0  0  0  0  0
   -5.7050   25.9800  -30.1610 C   0  0  0  0  0  0  0  0  0  0  0  0
   -4.5610   25.2350  -30.7040 N   0  0  0  0  0  0  0  0  0  0  0  0
   -4.8630   23.8040  -30.8920 C   0  0  0  0  0  0  0  0  0  0  0  0
   -5.4250   23.4750  -32.2910 C   0  0  0  0  0  0  0  0  0  0  0  0
   -5.6420   21.9950  -32.5040 C   0  0  0  0  0  0  0  0  0  0  0  0
   -4.6650   21.1150  -33.0050 C   0  0  0  0  0  0  0  0  0  0  0  0
   -3.2480   21.4490  -33.3730 C   0  0  0  0  0  0  0  0  0  0  0  0
   -2.3030   20.9600  -32.3480 N   0  0  0  0  0  0  0  0  0  0  0  0
   -2.2260   21.7790  -31.1150 C   0  0  0  0  0  0  0  0  0  0  0  0
   -2.9320   21.1640  -29.8950 C   0  0  0  0  0  0  0  0  0  0  0  0
   -0.9990   20.4760  -32.8620 C   0  0  0  0  0  0  0  0  0  0  0  0
   -0.5230   21.1820  -34.1340 C   0  0  0  0  0  0  0  0  0  0  0  0
   -5.3110   19.5570  -33.1130 S   0  0  0  0  0  0  0  0  0  0  0  0
   -6.8220   19.9740  -32.5250 C   0  0  0  0  0  0  0  0  0  0  0  0
   -7.9190   19.1400  -32.3260 C   0  0  0  0  0  0  0  0  0  0  0  0
   -9.0940   19.7010  -31.8030 C   0  0  0  0  0  0  0  0  0  0  0  0
   -9.1460   21.0710  -31.4890 C   0  0  0  0  0  0  0  0  0  0  0  0
   -8.0260   21.8940  -31.6970 C   0  0  0  0  0  0  0  0  0  0  0  0
   -6.8560   21.3310  -32.2290 C   0  0  0  0  0  0  0  0  0  0  0  0
   -6.8598   24.9697  -28.6462 H   0  0  0  0  0  0  0  0  0  0  0  0
   -7.7716   25.3653  -30.1424 H   0  0  0  0  0  0  0  0  0  0  0  0
   -6.5888   24.0134  -30.1424 H   0  0  0  0  0  0  0  0  0  0  0  0
   -6.0919   26.6642  -30.9305 H   0  0  0  0  0  0  0  0  0  0  0  0
   -5.3766   26.5532  -29.2814 H   0  0  0  0  0  0  0  0  0  0  0  0
   -4.2470   25.6670  -31.6030 H   0  0  0  0  0  0  0  0  0  0  0  0
   -3.9364   23.2298  -30.7446 H   0  0  0  0  0  0  0  0  0  0  0  0
   -5.6387   23.5368  -30.1593 H   0  0  0  0  0  0  0  0  0  0  0  0
   -6.3882   23.9921  -32.4129 H   0  0  0  0  0  0  0  0  0  0  0  0
   -4.6840   23.8101  -33.0317 H   0  0  0  0  0  0  0  0  0  0  0  0
   -3.0069   20.9785  -34.3376 H   0  0  0  0  0  0  0  0  0  0  0  0
   -3.1534   22.5428  -33.4420 H   0  0  0  0  0  0  0  0  0  0  0  0
   -1.1648   21.9206  -30.8624 H   0  0  0  0  0  0  0  0  0  0  0  0
   -2.7461   22.7232  -31.3340 H   0  0  0  0  0  0  0  0  0  0  0  0
   -2.4800   21.5578  -28.9727 H   0  0  0  0  0  0  0  0  0  0  0  0
   -4.0004   21.4244  -29.9198 H   0  0  0  0  0  0  0  0  0  0  0  0
   -2.8206   20.0699  -29.9198 H   0  0  0  0  0  0  0  0  0  0  0  0
   -0.2417   20.6289  -32.0790 H   0  0  0  0  0  0  0  0  0  0  0  0
   -1.1363   19.4161  -33.1222 H   0  0  0  0  0  0  0  0  0  0  0  0
    0.0728   22.0657  -33.8618 H   0  0  0  0  0  0  0  0  0  0  0  0
    0.0948   20.4917  -34.7272 H   0  0  0  0  0  0  0  0  0  0  0  0
   -1.3946   21.4959  -34.7272 H   0  0  0  0  0  0  0  0  0  0  0  0
   -7.8659   18.0693  -32.5724 H   0  0  0  0  0  0  0  0  0  0  0  0
   -9.9777   19.0670  -31.6380 H   0  0  0  0  0  0  0  0  0  0  0  0
  -10.0707   21.5017  -31.0773 H   0  0  0  0  0  0  0  0  0  0  0  0
   -8.0660   22.9643  -31.4463 H   0  0  0  0  0  0  0  0  0  0  0  0
  1  2  1  0
  2  3  1  0
  3  4  1  0
  4  5  1  0
  5  6  1  0
  6  7  2  0
  7  8  1  0
  8  9  1  0
  9 10  1  0
 10 11  1  0
  9 12  1  0
 12 13  1  0
  7 14  1  0
 14 15  1  0
 15 16  2  0
 16 17  1  0
 17 18  2  0
 18 19  1  0
 19 20  2  0
 20  6  1  0
 20 15  1  0
  1 21  1  0
  1 22  1  0
  1 23  1  0
  2 24  1  0
  2 25  1  0
  3 26  1  0
  4 27  1  0
  4 28  1  0
  5 29  1  0
  5 30  1  0
  8 31  1  0
  8 32  1  0
 10 33  1  0
 10 34  1  0
 11 35  1  0
 11 36  1  0
 11 37  1  0
 12 38  1  0
 12 39  1  0
 13 40  1  0
 13 41  1  0
 13 42  1  0
 16 43  1  0
 17 44  1  0
 18 45  1  0
 19 46  1  0
M  END
>  <UniqueID>  (26) 
26

>  <SMILES>  (26) 
CCNCCc1c(CN(CC)CC)sc2ccccc12

>  <Energy>  (26) 
76.51726950112482

>  <Genealogy>  (26) 
CCNCCc1c(CN(CC)CC)sc2ccccc12 (3D coordinates assigned)
CCNCCc1c(CN(CC)CC)sc2ccccc12 (optimized conformer: 76.51726950112482 kcal/mol)

>  <smiles>  (26) 
CCNCCc1c(CN(CC)CC)sc2ccccc12

>  <score_type>  (26) 
oracle

>  <origin>  (26) 
adg

>  <m_score__min__energy>  (26) 
-7.8499999999999996

>  <m_primary>  (26) 
energy

$$$$
26:0
     RDKit          3D

 47 48  0  0  0  0  0  0  0  0999 V2000
   -5.8066   25.4338  -32.0453 H   0  0  0  0  0  0  0  0  0  0  0  0
   -5.3450   24.8930  -31.2060 C   0  0  0  0  0  0  0  0  0  0  0  0
   -4.1310   25.2830  -30.7350 N   0  0  0  0  0  0  0  0  0  0  0  0
   -3.5090   24.6490  -29.7040 C   0  0  0  0  0  0  0  0  0  0  0  0
   -2.3490   25.0980  -29.3120 N   0  0  0  0  0  0  0  0  0  0  0  0
   -1.3320   24.3850  -28.5390 C   0  0  0  0  0  0  0  0  0  0  0  0
   -0.5218   25.0835  -28.2826 H   0  0  0  0  0  0  0  0  0  0  0  0
   -1.8041   23.9856  -27.6293 H   0  0  0  0  0  0  0  0  0  0  0  0
   -0.7460   23.2100  -29.3370 C   0  0  0  0  0  0  0  0  0  0  0  0
   -1.1902   23.2100  -30.3433 H   0  0  0  0  0  0  0  0  0  0  0  0
    0.3451   23.3435  -29.3780 H   0  0  0  0  0  0  0  0  0  0  0  0
   -1.0270   21.8540  -28.6740 C   0  0  0  0  0  0  0  0  0  0  0  0
   -0.1902   21.6024  -28.0058 H   0  0  0  0  0  0  0  0  0  0  0  0
   -1.9679   21.9337  -28.1098 H   0  0  0  0  0  0  0  0  0  0  0  0
   -1.1730   20.8180  -29.6450 O   0  0  0  0  0  0  0  0  0  0  0  0
   -1.7960   20.9550  -30.8980 C   0  0  0  0  0  0  0  0  0  0  0  0
   -3.1960   21.0110  -31.0500 C   0  0  0  0  0  0  0  0  0  0  0  0
   -3.8464   20.9609  -30.1643 H   0  0  0  0  0  0  0  0  0  0  0  0
   -3.7600   21.1300  -32.3230 C   0  0  0  0  0  0  0  0  0  0  0  0
   -4.8533   21.1718  -32.4370 H   0  0  0  0  0  0  0  0  0  0  0  0
   -2.9390   21.1960  -33.4510 C   0  0  0  0  0  0  0  0  0  0  0  0
   -3.3863   21.2803  -34.4524 H   0  0  0  0  0  0  0  0  0  0  0  0
   -1.5500   21.1550  -33.3080 C   0  0  0  0  0  0  0  0  0  0  0  0
   -0.7520   21.2270  -34.4020 F   0  0  0  0  0  0  0  0  0  0  0  0
   -0.9820   21.0280  -32.0360 C   0  0  0  0  0  0  0  0  0  0  0  0
    0.1119   20.9851  -31.9284 H   0  0  0  0  0  0  0  0  0  0  0  0
   -4.1440   23.5480  -29.0970 C   0  0  0  0  0  0  0  0  0  0  0  0
   -3.6551   23.0135  -28.2692 H   0  0  0  0  0  0  0  0  0  0  0  0
   -5.3990   23.1400  -29.5540 C   0  0  0  0  0  0  0  0  0  0  0  0
   -5.9094   22.2939  -29.0706 H   0  0  0  0  0  0  0  0  0  0  0  0
   -6.0110   23.8040  -30.6260 C   0  0  0  0  0  0  0  0  0  0  0  0
   -7.3930   23.4090  -31.0930 C   0  0  0  0  0  0  0  0  0  0  0  0
   -7.5437   23.8187  -32.1027 H   0  0  0  0  0  0  0  0  0  0  0  0
   -8.0989   23.8133  -30.3525 H   0  0  0  0  0  0  0  0  0  0  0  0
   -7.6340   21.9450  -31.1470 N   0  0  1  0  0  0  0  0  0  0  0  0
   -7.0960   21.5640  -30.3290 H   0  0  0  0  0  0  0  0  0  0  0  0
   -9.0400   21.5850  -30.8770 C   0  0  0  0  0  0  0  0  0  0  0  0
   -9.2055   21.5426  -29.7903 H   0  0  0  0  0  0  0  0  0  0  0  0
   -9.7039   22.3421  -31.3197 H   0  0  0  0  0  0  0  0  0  0  0  0
   -9.2583   20.6020  -31.3197 H   0  0  0  0  0  0  0  0  0  0  0  0
   -7.0500   21.2800  -32.3460 C   0  0  0  0  0  0  0  0  0  0  0  0
   -5.9817   21.1048  -32.1507 H   0  0  0  0  0  0  0  0  0  0  0  0
   -7.2386   21.9580  -33.1915 H   0  0  0  0  0  0  0  0  0  0  0  0
   -7.6890   19.9360  -32.7290 C   0  0  0  0  0  0  0  0  0  0  0  0
   -7.9525   19.3819  -31.8160 H   0  0  0  0  0  0  0  0  0  0  0  0
   -8.5971   20.1177  -33.3226 H   0  0  0  0  0  0  0  0  0  0  0  0
   -6.9748   19.3464  -33.3226 H   0  0  0  0  0  0  0  0  0  0  0  0
  1  2  1  0
  2  3  1  0
  3  4  1  0
  4  5  2  0
  5  6  1  0
  6  7  1  0
  6  8  1  0
  6  9  1  0
  9 10  1  0
  9 11  1  0
  9 12  1  0
 12 13  1  0
 12 14  1  0
 12 15  1  0
 15 16  1  0
 16 17  2  0
 17 18  1  0
 17 19  1  0
 19 20  1  0
 19 21  2  0
 21 22  1  0
 21 23  1  0
 23 24  1  0
 23 25  2  0
 25 26  1  0
  4 27  1  0
 27 28  1  0
 27 29  2  0
 29 30  1  0
 29 31  1  0
 31 32  1  0
 32 33  1  0
 32 34  1  0
 32 35  1  0
 35 36  1  1
 35 37  1  0
 37 38  1  0
 37 39  1  0
 37 40  1  0
 35 41  1  0
 41 42  1  0
 41 43  1  0
 41 44  1  0
 44 45  1  0
 44 46  1  0
 44 47  1  0
 31  2  2  0
 25 16  1  0
M  CHG  2   3  -1  35   1
M  END
>  <UniqueID>  (27) 
27

>  <SMILES>  (27) 
CC[N@H+](C)Cc1cc/c(=N\CCCOc2cccc(F)c2)[n-]c1

>  <Energy>  (27) 
48.97980748749907

>  <Genealogy>  (27) 
CC[NH+](C)Cc1ccc(=NCCCOc2cccc(F)c2)[n-]c1 (protonated)
CC[N@H+](C)Cc1ccc(=NCCCOc2cccc(F)c2)[n-]c1 (chirality)
CC[N@H+](C)Cc1cc/c(=N\CCCOc2cccc(F)c2)[n-]c1 (cis-trans isomerization)
CC[N@H+](C)Cc1cc/c(=N\CCCOc2cccc(F)c2)[n-]c1 (3D coordinates assigned)
CC[N@H+](C)Cc1cc/c(=N\CCCOc2cccc(F)c2)[n-]c1 (optimized conformer: 48.97980748749907 kcal/mol)

>  <smiles>  (27) 
CCN(C)Cc1ccc(=NCCCOc2cccc(F)c2)[nH]c1

>  <score_type>  (27) 
oracle

>  <origin>  (27) 
adg

>  <m_score__min__energy>  (27) 
-8.9600000000000009

>  <m_primary>  (27) 
energy

$$$$
27:0
     RDKit          3D

 49 51  0  0  0  0  0  0  0  0999 V2000
   -4.2270   22.9800  -27.8440 C   0  0  0  0  0  0  0  0  0  0  0  0
   -3.1570   22.0590  -28.4280 C   0  0  0  0  0  0  0  0  0  0  0  0
   -2.4830   22.7040  -29.5750 N   0  0  0  0  0  0  0  0  0  0  0  0
   -1.2590   23.4450  -29.1910 C   0  0  0  0  0  0  0  0  0  0  0  0
   -1.5230   24.8670  -28.6700 C   0  0  0  0  0  0  0  0  0  0  0  0
   -2.2730   21.7940  -30.7250 C   0  0  0  0  0  0  0  0  0  0  0  0
   -3.0090   22.3250  -31.9620 C   0  0  0  0  0  0  0  0  0  0  0  0
   -4.4670   22.4170  -31.7130 N   0  0  0  0  0  0  0  0  0  0  0  0
   -4.9880   23.5380  -31.1220 C   0  0  0  0  0  0  0  0  0  0  0  0
   -4.2360   24.5220  -30.8690 O   0  0  0  0  0  0  0  0  0  0  0  0
   -6.3150   23.5990  -30.7880 N   0  0  0  0  0  0  0  0  0  0  0  0
   -6.8480   24.8050  -30.1270 C   0  0  0  0  0  0  0  0  0  0  0  0
   -7.1610   22.5720  -31.1150 C   0  0  0  0  0  0  0  0  0  0  0  0
   -8.3710   22.6390  -30.7640 O   0  0  0  0  0  0  0  0  0  0  0  0
   -6.6740   21.4280  -31.7920 C   0  0  0  0  0  0  0  0  0  0  0  0
   -7.4980   20.3410  -32.2300 C   0  0  0  0  0  0  0  0  0  0  0  0
   -9.0090   20.4750  -32.3020 C   0  0  0  0  0  0  0  0  0  0  0  0
   -6.8730   19.1360  -32.6580 C   0  0  0  0  0  0  0  0  0  0  0  0
   -7.5900   17.9440  -32.9130 C   0  0  0  0  0  0  0  0  0  0  0  0
   -6.9270   16.8000  -33.3690 C   0  0  0  0  0  0  0  0  0  0  0  0
   -5.5470   16.8180  -33.5670 C   0  0  0  0  0  0  0  0  0  0  0  0
   -4.8200   17.9760  -33.2920 C   0  0  0  0  0  0  0  0  0  0  0  0
   -5.4720   19.1230  -32.8260 C   0  0  0  0  0  0  0  0  0  0  0  0
   -4.7410   20.2220  -32.5320 N   0  0  0  0  0  0  0  0  0  0  0  0
   -5.2810   21.3580  -32.0190 C   0  0  0  0  0  0  0  0  0  0  0  0
   -4.1833   22.9424  -26.7455 H   0  0  0  0  0  0  0  0  0  0  0  0
   -4.0481   24.0111  -28.1830 H   0  0  0  0  0  0  0  0  0  0  0  0
   -5.2199   22.6496  -28.1830 H   0  0  0  0  0  0  0  0  0  0  0  0
   -2.4116   21.8332  -27.6513 H   0  0  0  0  0  0  0  0  0  0  0  0
   -3.6382   21.1328  -28.7752 H   0  0  0  0  0  0  0  0  0  0  0  0
   -0.7454   22.8776  -28.4009 H   0  0  0  0  0  0  0  0  0  0  0  0
   -0.6523   23.5490  -30.1027 H   0  0  0  0  0  0  0  0  0  0  0  0
   -1.5218   24.8606  -27.5700 H   0  0  0  0  0  0  0  0  0  0  0  0
   -0.7350   25.5429  -29.0336 H   0  0  0  0  0  0  0  0  0  0  0  0
   -2.5011   25.2150  -29.0336 H   0  0  0  0  0  0  0  0  0  0  0  0
   -1.1970   21.7268  -30.9434 H   0  0  0  0  0  0  0  0  0  0  0  0
   -2.6677   20.7989  -30.4721 H   0  0  0  0  0  0  0  0  0  0  0  0
   -2.6224   23.3247  -32.2092 H   0  0  0  0  0  0  0  0  0  0  0  0
   -2.8390   21.6292  -32.7968 H   0  0  0  0  0  0  0  0  0  0  0  0
   -6.7926   24.6797  -29.0356 H   0  0  0  0  0  0  0  0  0  0  0  0
   -6.2530   25.6804  -30.4262 H   0  0  0  0  0  0  0  0  0  0  0  0
   -7.8959   24.9543  -30.4262 H   0  0  0  0  0  0  0  0  0  0  0  0
   -9.4228   20.5117  -31.2835 H   0  0  0  0  0  0  0  0  0  0  0  0
   -9.2700   21.3998  -32.8373 H   0  0  0  0  0  0  0  0  0  0  0  0
   -9.4287   19.6105  -32.8373 H   0  0  0  0  0  0  0  0  0  0  0  0
   -8.6777   17.9163  -32.7514 H   0  0  0  0  0  0  0  0  0  0  0  0
   -7.4971   15.8815  -33.5724 H   0  0  0  0  0  0  0  0  0  0  0  0
   -5.0323   15.9201  -33.9396 H   0  0  0  0  0  0  0  0  0  0  0  0
   -3.7303   17.9877  -33.4420 H   0  0  0  0  0  0  0  0  0  0  0  0
  1  2  1  0
  2  3  1  0
  3  4  1  0
  4  5  1  0
  3  6  1  0
  6  7  1  0
  7  8  1  0
  8  9  1  0
  9 10  2  0
  9 11  1  0
 11 12  1  0
 11 13  1  0
 13 14  2  0
 13 15  1  0
 15 16  2  0
 16 17  1  0
 16 18  1  0
 18 19  2  0
 19 20  1  0
 20 21  2  0
 21 22  1  0
 22 23  2  0
 23 24  1  0
 24 25  2  0
 25  8  1  0
 25 15  1  0
 23 18  1  0
  1 26  1  0
  1 27  1  0
  1 28  1  0
  2 29  1  0
  2 30  1  0
  4 31  1  0
  4 32  1  0
  5 33  1  0
  5 34  1  0
  5 35  1  0
  6 36  1  0
  6 37  1  0
  7 38  1  0
  7 39  1  0
 12 40  1  0
 12 41  1  0
 12 42  1  0
 17 43  1  0
 17 44  1  0
 17 45  1  0
 19 46  1  0
 20 47  1  0
 21 48  1  0
 22 49  1  0
M  END
>  <UniqueID>  (28) 
28

>  <SMILES>  (28) 
CCN(CC)CCn1c(=O)n(C)c(=O)c2c(C)c3ccccc3nc21

>  <Energy>  (28) 
74.00667415760691

>  <Genealogy>  (28) 
CCN(CC)CCn1c(=O)n(C)c(=O)c2c(C)c3ccccc3nc21 (3D coordinates assigned)
CCN(CC)CCn1c(=O)n(C)c(=O)c2c(C)c3ccccc3nc21 (optimized conformer: 74.00667415760691 kcal/mol)

>  <smiles>  (28) 
CCN(CC)CCn1c(=O)n(C)c(=O)c2c(C)c3ccccc3nc21

>  <score_type>  (28) 
oracle

>  <origin>  (28) 
adg

>  <m_score__min__energy>  (28) 
-8.4399999999999995

>  <m_primary>  (28) 
energy

$$$$
28:0
     RDKit          3D

 53 55  0  0  0  0  0  0  0  0999 V2000
   -0.8470   21.3610  -33.7240 C   0  0  0  0  0  0  0  0  0  0  0  0
   -1.7430   20.2050  -33.7490 C   0  0  0  0  0  0  0  0  0  0  0  0
   -2.4820   19.2520  -33.7680 C   0  0  0  0  0  0  0  0  0  0  0  0
   -3.3800   18.0950  -33.7910 C   0  0  0  0  0  0  0  0  0  0  0  0
   -4.7040   18.4880  -33.2960 N   0  0  0  0  0  0  0  0  0  0  0  0
   -5.3080   17.4250  -32.4790 C   0  0  0  0  0  0  0  0  0  0  0  0
   -6.7110   17.8400  -32.0160 C   0  0  0  0  0  0  0  0  0  0  0  0
   -7.4490   18.6560  -33.0810 C   0  0  0  0  0  0  0  0  0  0  0  0
   -8.8620   18.8210  -32.7140 N   0  0  0  0  0  0  0  0  0  0  0  0
   -9.0510   19.7370  -31.5770 C   0  0  0  0  0  0  0  0  0  0  0  0
   -8.4660   21.1470  -31.8000 C   0  0  0  0  0  0  0  0  0  0  0  0
   -7.0960   21.2710  -31.2900 N   0  0  0  0  0  0  0  0  0  0  0  0
   -6.4630   22.5320  -31.0020 C   0  0  0  0  0  0  0  0  0  0  0  0
   -7.2530   23.6920  -30.9920 C   0  0  0  0  0  0  0  0  0  0  0  0
   -6.7100   24.9250  -30.6540 C   0  0  0  0  0  0  0  0  0  0  0  0
   -5.3700   25.0270  -30.3090 C   0  0  0  0  0  0  0  0  0  0  0  0
   -4.5380   23.8940  -30.3140 C   0  0  0  0  0  0  0  0  0  0  0  0
   -3.1790   24.0260  -29.9700 C   0  0  0  0  0  0  0  0  0  0  0  0
   -2.6720   25.2730  -29.6020 O   0  0  0  0  0  0  0  0  0  0  0  0
   -2.3270   22.9120  -29.9960 C   0  0  0  0  0  0  0  0  0  0  0  0
   -0.9670   23.0370  -29.6520 C   0  0  0  0  0  0  0  0  0  0  0  0
   -0.1210   21.9280  -29.6930 C   0  0  0  0  0  0  0  0  0  0  0  0
   -0.6170   20.6840  -30.0780 C   0  0  0  0  0  0  0  0  0  0  0  0
   -1.9620   20.5410  -30.4200 C   0  0  0  0  0  0  0  0  0  0  0  0
   -2.8340   21.6490  -30.3820 C   0  0  0  0  0  0  0  0  0  0  0  0
   -4.1920   21.5070  -30.7270 C   0  0  0  0  0  0  0  0  0  0  0  0
   -4.6400   20.2560  -31.1440 O   0  0  0  0  0  0  0  0  0  0  0  0
   -5.0730   22.6220  -30.6750 C   0  0  0  0  0  0  0  0  0  0  0  0
   -0.6333   21.6368  -32.6808 H   0  0  0  0  0  0  0  0  0  0  0  0
    0.0929   21.1076  -34.2362 H   0  0  0  0  0  0  0  0  0  0  0  0
   -1.3269   22.2080  -34.2362 H   0  0  0  0  0  0  0  0  0  0  0  0
   -3.4706   17.7227  -34.8221 H   0  0  0  0  0  0  0  0  0  0  0  0
   -2.9704   17.3026  -33.1473 H   0  0  0  0  0  0  0  0  0  0  0  0
   -4.5750   19.3260  -32.6810 H   0  0  0  0  0  0  0  0  0  0  0  0
   -5.3809   16.5048  -33.0773 H   0  0  0  0  0  0  0  0  0  0  0  0
   -4.6767   17.2513  -31.5951 H   0  0  0  0  0  0  0  0  0  0  0  0
   -7.2945   16.9340  -31.7953 H   0  0  0  0  0  0  0  0  0  0  0  0
   -6.6007   18.4703  -31.1213 H   0  0  0  0  0  0  0  0  0  0  0  0
   -6.9793   19.6469  -33.1680 H   0  0  0  0  0  0  0  0  0  0  0  0
   -7.3904   18.1234  -34.0417 H   0  0  0  0  0  0  0  0  0  0  0  0
   -9.4020   19.1650  -33.5390 H   0  0  0  0  0  0  0  0  0  0  0  0
  -10.1303   19.8365  -31.3893 H   0  0  0  0  0  0  0  0  0  0  0  0
   -8.5100   19.3003  -30.7246 H   0  0  0  0  0  0  0  0  0  0  0  0
   -8.4621   21.3613  -32.8789 H   0  0  0  0  0  0  0  0  0  0  0  0
   -9.0949   21.8621  -31.2494 H   0  0  0  0  0  0  0  0  0  0  0  0
   -6.6040   20.3880  -31.0280 H   0  0  0  0  0  0  0  0  0  0  0  0
   -8.3187   23.6237  -31.2559 H   0  0  0  0  0  0  0  0  0  0  0  0
   -7.3445   25.8236  -30.6599 H   0  0  0  0  0  0  0  0  0  0  0  0
   -4.9539   26.0058  -30.0283 H   0  0  0  0  0  0  0  0  0  0  0  0
   -0.5686   24.0164  -29.3487 H   0  0  0  0  0  0  0  0  0  0  0  0
    0.9393   22.0360  -29.4209 H   0  0  0  0  0  0  0  0  0  0  0  0
    0.0535   19.8127  -30.1123 H   0  0  0  0  0  0  0  0  0  0  0  0
   -2.3458   19.5554  -30.7220 H   0  0  0  0  0  0  0  0  0  0  0  0
  1  2  1  0
  2  3  3  0
  3  4  1  0
  4  5  1  0
  5  6  1  0
  6  7  1  0
  7  8  1  0
  8  9  1  0
  9 10  1  0
 10 11  1  0
 11 12  1  0
 12 13  1  0
 13 14  2  0
 14 15  1  0
 15 16  2  0
 16 17  1  0
 17 18  2  0
 18 19  1  0
 18 20  1  0
 20 21  2  0
 21 22  1  0
 22 23  2  0
 23 24  1  0
 24 25  2  0
 25 26  1  0
 26 27  1  0
 26 28  2  0
 28 13  1  0
 28 17  1  0
 25 20  1  0
  1 29  1  0
  1 30  1  0
  1 31  1  0
  4 32  1  0
  4 33  1  0
  5 34  1  0
  6 35  1  0
  6 36  1  0
  7 37  1  0
  7 38  1  0
  8 39  1  0
  8 40  1  0
  9 41  1  0
 10 42  1  0
 10 43  1  0
 11 44  1  0
 11 45  1  0
 12 46  1  0
 14 47  1  0
 15 48  1  0
 16 49  1  0
 21 50  1  0
 22 51  1  0
 23 52  1  0
 24 53  1  0
M  CHG  2  19  -1  27  -1
M  END
>  <UniqueID>  (29) 
29

>  <SMILES>  (29) 
CC#CCNCCCNCCNc1cccc2c([O-])c3ccccc3c([O-])c12

>  <Energy>  (29) 
60.19369899926897

>  <Genealogy>  (29) 
CC#CCNCCCNCCNc1cccc2c([O-])c3ccccc3c([O-])c12 (protonated)
CC#CCNCCCNCCNc1cccc2c([O-])c3ccccc3c([O-])c12 (3D coordinates assigned)
CC#CCNCCCNCCNc1cccc2c([O-])c3ccccc3c([O-])c12 (optimized conformer: 60.19369899926897 kcal/mol)

>  <smiles>  (29) 
CC#CCNCCCNCCNc1cccc2c(O)c3ccccc3c(O)c12

>  <score_type>  (29) 
oracle

>  <origin>  (29) 
adg

>  <m_score__min__energy>  (29) 
-9.8900000000000006

>  <m_primary>  (29) 
energy

$$$$
29:0
     RDKit          3D

 52 54  0  0  0  0  0  0  0  0999 V2000
   -1.2150   18.3980  -34.3880 C   0  0  0  0  0  0  0  0  0  0  0  0
   -0.7010   18.8390  -33.0210 C   0  0  0  0  0  0  0  0  0  0  0  0
   -1.2820   20.1540  -32.6610 N   0  0  0  0  0  0  0  0  0  0  0  0
   -0.2660   21.0150  -32.0100 C   0  0  0  0  0  0  0  0  0  0  0  0
   -0.8550   21.7050  -30.7800 C   0  0  0  0  0  0  0  0  0  0  0  0
   -1.8700   20.8280  -33.8410 C   0  0  0  0  0  0  0  0  0  0  0  0
   -3.2010   21.5260  -33.4630 C   0  0  0  0  0  0  0  0  0  0  0  0
   -3.7380   21.2410  -32.1000 N   0  0  0  0  0  0  0  0  0  0  0  0
   -5.0970   20.7170  -32.0230 C   0  0  0  0  0  0  0  0  0  0  0  0
   -5.3620   19.4010  -32.5010 C   0  0  0  0  0  0  0  0  0  0  0  0
   -4.3120   18.5350  -32.9080 C   0  0  0  0  0  0  0  0  0  0  0  0
   -4.5730   17.2480  -33.3690 C   0  0  0  0  0  0  0  0  0  0  0  0
   -5.8780   16.7930  -33.4620 C   0  0  0  0  0  0  0  0  0  0  0  0
   -6.9320   17.6200  -33.0810 C   0  0  0  0  0  0  0  0  0  0  0  0
   -6.6990   18.9260  -32.5730 C   0  0  0  0  0  0  0  0  0  0  0  0
   -7.7470   19.7430  -32.2020 N   0  0  0  0  0  0  0  0  0  0  0  0
   -9.1080   19.1780  -32.0560 C   0  0  0  0  0  0  0  0  0  0  0  0
   -7.5260   21.0810  -31.9490 C   0  0  0  0  0  0  0  0  0  0  0  0
   -8.6020   22.0030  -31.9700 C   0  0  0  0  0  0  0  0  0  0  0  0
   -8.4120   23.3380  -31.6470 C   0  0  0  0  0  0  0  0  0  0  0  0
   -7.1690   23.7780  -31.2260 C   0  0  0  0  0  0  0  0  0  0  0  0
   -6.0740   22.9070  -31.1910 C   0  0  0  0  0  0  0  0  0  0  0  0
   -4.9120   23.3630  -30.4880 N   0  0  0  0  0  0  0  0  0  0  0  0
   -4.2160   24.2680  -30.9870 O   0  0  0  0  0  0  0  0  0  0  0  0
   -4.3680   22.5790  -29.4970 O   0  0  0  0  0  0  0  0  0  0  0  0
   -6.2060   21.5650  -31.6930 C   0  0  0  0  0  0  0  0  0  0  0  0
   -2.0438   17.6869  -34.2561 H   0  0  0  0  0  0  0  0  0  0  0  0
   -1.5707   19.2762  -34.9468 H   0  0  0  0  0  0  0  0  0  0  0  0
   -0.4011   17.9129  -34.9468 H   0  0  0  0  0  0  0  0  0  0  0  0
   -0.9902   18.0938  -32.2653 H   0  0  0  0  0  0  0  0  0  0  0  0
    0.3949   18.9265  -33.0584 H   0  0  0  0  0  0  0  0  0  0  0  0
    0.5894   20.3956  -31.7023 H   0  0  0  0  0  0  0  0  0  0  0  0
    0.0594   21.7837  -32.7264 H   0  0  0  0  0  0  0  0  0  0  0  0
   -0.4544   21.2357  -29.8693 H   0  0  0  0  0  0  0  0  0  0  0  0
   -0.5841   22.7711  -30.7927 H   0  0  0  0  0  0  0  0  0  0  0  0
   -1.9504   21.6048  -30.7927 H   0  0  0  0  0  0  0  0  0  0  0  0
   -1.1616   21.5803  -34.2180 H   0  0  0  0  0  0  0  0  0  0  0  0
   -2.0724   20.0741  -34.6160 H   0  0  0  0  0  0  0  0  0  0  0  0
   -3.0426   22.6118  -33.5396 H   0  0  0  0  0  0  0  0  0  0  0  0
   -3.9497   21.1235  -34.1612 H   0  0  0  0  0  0  0  0  0  0  0  0
   -3.6810   22.1100  -31.5210 H   0  0  0  0  0  0  0  0  0  0  0  0
   -3.0690   20.6360  -31.5810 H   0  0  0  0  0  0  0  0  0  0  0  0
   -3.2717   18.8888  -32.8578 H   0  0  0  0  0  0  0  0  0  0  0  0
   -3.7407   16.5904  -33.6603 H   0  0  0  0  0  0  0  0  0  0  0  0
   -6.0818   15.7790  -33.8366 H   0  0  0  0  0  0  0  0  0  0  0  0
   -7.9652   17.2546  -33.1753 H   0  0  0  0  0  0  0  0  0  0  0  0
   -9.3506   19.0773  -30.9878 H   0  0  0  0  0  0  0  0  0  0  0  0
   -9.8366   19.8480  -32.5359 H   0  0  0  0  0  0  0  0  0  0  0  0
   -9.1479   18.1890  -32.5359 H   0  0  0  0  0  0  0  0  0  0  0  0
   -9.6071   21.6529  -32.2478 H   0  0  0  0  0  0  0  0  0  0  0  0
   -9.2491   24.0474  -31.7253 H   0  0  0  0  0  0  0  0  0  0  0  0
   -7.0402   24.8252  -30.9151 H   0  0  0  0  0  0  0  0  0  0  0  0
  1  2  1  0
  2  3  1  0
  3  4  1  0
  4  5  1  0
  3  6  1  0
  6  7  1  0
  7  8  1  0
  8  9  1  0
  9 10  2  0
 10 11  1  0
 11 12  2  0
 12 13  1  0
 13 14  2  0
 14 15  1  0
 15 16  2  0
 16 17  1  0
 16 18  1  0
 18 19  2  0
 19 20  1  0
 20 21  2  0
 21 22  1  0
 22 23  1  0
 23 24  2  0
 23 25  1  0
 22 26  2  0
 26  9  1  0
 15 10  1  0
 26 18  1  0
  1 27  1  0
  1 28  1  0
  1 29  1  0
  2 30  1  0
  2 31  1  0
  4 32  1  0
  4 33  1  0
  5 34  1  0
  5 35  1  0
  5 36  1  0
  6 37  1  0
  6 38  1  0
  7 39  1  0
  7 40  1  0
  8 41  1  0
  8 42  1  0
 11 43  1  0
 12 44  1  0
 13 45  1  0
 14 46  1  0
 17 47  1  0
 17 48  1  0
 17 49  1  0
 19 50  1  0
 20 51  1  0
 21 52  1  0
M  CHG  4   8   1  16   1  23   1  25  -1
M  END
>  <UniqueID>  (30) 
30

>  <SMILES>  (30) 
CCN(CC)CC[NH2+]c1c2ccccc2[n+](C)c2cccc([N+](=O)[O-])c12

>  <Energy>  (30) 
103.14859226380041

>  <Genealogy>  (30) 
CCN(CC)CC[NH2+]c1c2ccccc2[n+](C)c2cccc([N+](=O)[O-])c12 (protonated)
CCN(CC)CC[NH2+]c1c2ccccc2[n+](C)c2cccc([N+](=O)[O-])c12 (3D coordinates assigned)
CCN(CC)CC[NH2+]c1c2ccccc2[n+](C)c2cccc([N+](=O)[O-])c12 (optimized conformer: 103.14859226380041 kcal/mol)

>  <smiles>  (30) 
CCN(CC)CCNc1c2ccccc2[n+](C)c2cccc([N+](=O)[O-])c12

>  <score_type>  (30) 
oracle

>  <origin>  (30) 
adg

>  <m_score__min__energy>  (30) 
-7.96

>  <m_primary>  (30) 
energy

$$$$
