0:0
     RDKit          3D

 31 31  0  0  0  0  0  0  0  0999 V2000
   -4.2430   24.2930  -28.0930 C   0  0  0  0  0  0  0  0  0  0  0  0
   -3.1060   24.4960  -29.4480 S   0  0  0  0  0  0  0  0  0  0  0  0
   -1.9160   25.2910  -28.9910 O   0  0  0  0  0  0  0  0  0  0  0  0
   -2.6430   23.1380  -29.8950 O   0  0  0  0  0  0  0  0  0  0  0  0
   -3.8700   25.2950  -30.7910 N   0  0  0  0  0  0  0  0  0  0  0  0
   -5.2670   25.6300  -30.5000 C   0  0  0  0  0  0  0  0  0  0  0  0
   -6.2180   24.5710  -31.0830 C   0  0  0  0  0  0  0  0  0  0  0  0
   -5.6620   23.1850  -30.9920 N   0  0  0  0  0  0  0  0  0  0  0  0
   -5.5690   22.5020  -32.3140 C   0  0  0  0  0  0  0  0  0  0  0  0
   -6.8150   21.6690  -32.6940 C   0  0  0  0  0  0  0  0  0  0  0  0
   -8.0620   22.1130  -31.9370 C   0  0  0  0  0  0  0  0  0  0  0  0
   -7.8430   22.0370  -30.4210 C   0  0  0  0  0  0  0  0  0  0  0  0
   -6.3870   22.3540  -30.0020 C   0  0  0  0  0  0  0  0  0  0  0  0
   -3.7002   24.3899  -27.1412 H   0  0  0  0  0  0  0  0  0  0  0  0
   -5.0235   25.0660  -28.1503 H   0  0  0  0  0  0  0  0  0  0  0  0
   -4.7078   23.2977  -28.1503 H   0  0  0  0  0  0  0  0  0  0  0  0
   -5.4063   25.6781  -29.4099 H   0  0  0  0  0  0  0  0  0  0  0  0
   -5.4986   26.6019  -30.9601 H   0  0  0  0  0  0  0  0  0  0  0  0
   -7.1673   24.6067  -30.5285 H   0  0  0  0  0  0  0  0  0  0  0  0
   -6.3613   24.8029  -32.1487 H   0  0  0  0  0  0  0  0  0  0  0  0
   -4.6750   23.2490  -30.6450 H   0  0  0  0  0  0  0  0  0  0  0  0
   -5.4198   23.2696  -33.0876 H   0  0  0  0  0  0  0  0  0  0  0  0
   -4.7295   21.7947  -32.2425 H   0  0  0  0  0  0  0  0  0  0  0  0
   -6.9984   21.7793  -33.7730 H   0  0  0  0  0  0  0  0  0  0  0  0
   -6.6138   20.6215  -32.4252 H   0  0  0  0  0  0  0  0  0  0  0  0
   -8.3003   23.1505  -32.2141 H   0  0  0  0  0  0  0  0  0  0  0  0
   -8.8912   21.4415  -32.2046 H   0  0  0  0  0  0  0  0  0  0  0  0
   -8.5131   22.7605  -29.9336 H   0  0  0  0  0  0  0  0  0  0  0  0
   -8.0567   21.0038  -30.1098 H   0  0  0  0  0  0  0  0  0  0  0  0
   -6.4086   22.8921  -29.0429 H   0  0  0  0  0  0  0  0  0  0  0  0
   -5.8527   21.3954  -29.9263 H   0  0  0  0  0  0  0  0  0  0  0  0
  1  2  1  0
  2  3  2  0
  2  4  2  0
  2  5  1  0
  5  6  1  0
  6  7  1  0
  7  8  1  0
  8  9  1  0
  9 10  1  0
 10 11  1  0
 11 12  1  0
 12 13  1  0
 13  8  1  0
  1 14  1  0
  1 15  1  0
  1 16  1  0
  6 17  1  0
  6 18  1  0
  7 19  1  0
  7 20  1  0
  8 21  1  0
  9 22  1  0
  9 23  1  0
 10 24  1  0
 10 25  1  0
 11 26  1  0
 11 27  1  0
 12 28  1  0
 12 29  1  0
 13 30  1  0
 13 31  1  0
M  CHG  2   5  -1   8   1
M  END
>  <UniqueID>  (1) 
1

>  <SMILES>  (1) 
CS(=O)(=O)[N-]CC[NH+]1CCCCC1

>  <Energy>  (1) 
33.42707057979732

>  <Genealogy>  (1) 
CS(=O)(=O)[N-]CC[NH+]1CCCCC1 (protonated)
CS(=O)(=O)[N-]CC[NH+]1CCCCC1 (3D coordinates assigned)
CS(=O)(=O)[N-]CC[NH+]1CCCCC1 (nonaromatic ring conformer: 33.42707057979732 kcal/mol)

>  <smiles>  (1) 
CS(=O)(=O)NCCN1CCCCC1

>  <score_type>  (1) 
oracle

>  <origin>  (1) 
adg

>  <m_score__min__energy>  (1) 
-6.1900000000000004

>  <m_primary>  (1) 
energy

$$$$
1:0
     RDKit          3D

 42 45  0  0  0  0  0  0  0  0999 V2000
   -9.8450   20.7970  -32.2350 C   0  0  0  0  0  0  0  0  0  0  0  0
   -9.3750   21.7640  -31.3450 C   0  0  0  0  0  0  0  0  0  0  0  0
   -8.0180   21.7730  -30.9880 C   0  0  0  0  0  0  0  0  0  0  0  0
   -7.4680   22.8240  -30.0510 C   0  0  0  0  0  0  0  0  0  0  0  0
   -6.7370   23.9120  -30.7400 N   0  0  0  0  0  0  0  0  0  0  0  0
   -6.4780   25.0820  -29.8740 C   0  0  0  0  0  0  0  0  0  0  0  0
   -5.3620   25.9580  -30.4650 C   0  0  0  0  0  0  0  0  0  0  0  0
   -4.1190   25.2820  -30.6070 O   0  0  0  0  0  0  0  0  0  0  0  0
   -4.2430   23.8800  -30.8110 C   0  0  0  0  0  0  0  0  0  0  0  0
   -5.5520   23.4660  -31.5070 C   0  0  0  0  0  0  0  0  0  0  0  0
   -7.1880   20.8230  -31.4990 N   0  0  0  0  0  0  0  0  0  0  0  0
   -7.6230   19.8590  -32.3560 C   0  0  0  0  0  0  0  0  0  0  0  0
   -6.6500   18.9030  -32.9230 C   0  0  0  0  0  0  0  0  0  0  0  0
   -7.0790   17.5870  -33.1560 C   0  0  0  0  0  0  0  0  0  0  0  0
   -6.1840   16.6370  -33.6440 C   0  0  0  0  0  0  0  0  0  0  0  0
   -4.8980   16.9810  -33.9060 N   0  0  0  0  0  0  0  0  0  0  0  0
   -4.4400   18.2470  -33.7180 C   0  0  0  0  0  0  0  0  0  0  0  0
   -3.1090   18.5510  -34.0240 C   0  0  0  0  0  0  0  0  0  0  0  0
   -2.6330   19.8550  -33.8680 C   0  0  0  0  0  0  0  0  0  0  0  0
   -3.4870   20.8620  -33.4150 C   0  0  0  0  0  0  0  0  0  0  0  0
   -4.8190   20.5710  -33.1030 C   0  0  0  0  0  0  0  0  0  0  0  0
   -5.3110   19.2540  -33.2300 C   0  0  0  0  0  0  0  0  0  0  0  0
   -8.9680   19.8460  -32.7550 C   0  0  0  0  0  0  0  0  0  0  0  0
  -10.9058   20.7852  -32.5258 H   0  0  0  0  0  0  0  0  0  0  0  0
  -10.0631   22.5133  -30.9266 H   0  0  0  0  0  0  0  0  0  0  0  0
   -8.3074   23.2673  -29.4953 H   0  0  0  0  0  0  0  0  0  0  0  0
   -6.7468   22.3202  -29.3906 H   0  0  0  0  0  0  0  0  0  0  0  0
   -7.3982   25.6785  -29.7881 H   0  0  0  0  0  0  0  0  0  0  0  0
   -6.1607   24.7255  -28.8829 H   0  0  0  0  0  0  0  0  0  0  0  0
   -5.6831   26.3065  -31.4577 H   0  0  0  0  0  0  0  0  0  0  0  0
   -5.1981   26.7876  -29.7615 H   0  0  0  0  0  0  0  0  0  0  0  0
   -3.3992   23.5440  -31.4315 H   0  0  0  0  0  0  0  0  0  0  0  0
   -4.2474   23.4110  -29.8160 H   0  0  0  0  0  0  0  0  0  0  0  0
   -5.5832   23.9189  -32.5089 H   0  0  0  0  0  0  0  0  0  0  0  0
   -5.5761   22.3683  -31.5734 H   0  0  0  0  0  0  0  0  0  0  0  0
   -8.1228   17.3053  -32.9531 H   0  0  0  0  0  0  0  0  0  0  0  0
   -6.5213   15.6045  -33.8174 H   0  0  0  0  0  0  0  0  0  0  0  0
   -2.4357   17.7611  -34.3883 H   0  0  0  0  0  0  0  0  0  0  0  0
   -1.5840   20.0886  -34.1024 H   0  0  0  0  0  0  0  0  0  0  0  0
   -3.1105   21.8895  -33.3029 H   0  0  0  0  0  0  0  0  0  0  0  0
   -5.4872   21.3732  -32.7566 H   0  0  0  0  0  0  0  0  0  0  0  0
   -9.3273   19.0925  -33.4714 H   0  0  0  0  0  0  0  0  0  0  0  0
  1  2  2  0
  2  3  1  0
  3  4  1  0
  4  5  1  0
  5  6  1  0
  6  7  1  0
  7  8  1  0
  8  9  1  0
  9 10  1  0
  3 11  2  0
 11 12  1  0
 12 13  1  0
 13 14  2  0
 14 15  1  0
 15 16  2  0
 16 17  1  0
 17 18  2  0
 18 19  1  0
 19 20  2  0
 20 21  1  0
 21 22  2  0
 12 23  2  0
 23  1  1  0
 10  5  1  0
 22 13  1  0
 22 17  1  0
  1 24  1  0
  2 25  1  0
  4 26  1  0
  4 27  1  0
  6 28  1  0
  6 29  1  0
  7 30  1  0
  7 31  1  0
  9 32  1  0
  9 33  1  0
 10 34  1  0
 10 35  1  0
 14 36  1  0
 15 37  1  0
 18 38  1  0
 19 39  1  0
 20 40  1  0
 21 41  1  0
 23 42  1  0
M  END
>  <UniqueID>  (2) 
2

>  <SMILES>  (2) 
c1cc(CN2CCOCC2)nc(-c2ccnc3ccccc23)c1

>  <Energy>  (2) 
73.1875898453235

>  <Genealogy>  (2) 
c1cc(CN2CCOCC2)nc(-c2ccnc3ccccc23)c1 (3D coordinates assigned)
c1cc(CN2CCOCC2)nc(-c2ccnc3ccccc23)c1 (nonaromatic ring conformer: 73.1875898453235 kcal/mol)

>  <smiles>  (2) 
c1cc(CN2CCOCC2)nc(-c2ccnc3ccccc23)c1

>  <score_type>  (2) 
oracle

>  <origin>  (2) 
adg

>  <m_score__min__energy>  (2) 
-9.7599999999999998

>  <m_primary>  (2) 
energy

$$$$
2:0
     RDKit          3D

 43 47  0  0  0  0  0  0  0  0999 V2000
   -5.3580   23.3990  -32.9700 O   0  0  0  0  0  0  0  0  0  0  0  0
   -6.2060   23.2950  -32.0440 C   0  0  0  0  0  0  0  0  0  0  0  0
   -7.1670   22.1720  -32.0480 C   0  0  0  0  0  0  0  0  0  0  0  0
   -8.5380   22.4480  -31.9290 C   0  0  0  0  0  0  0  0  0  0  0  0
   -9.4740   21.4190  -31.9850 C   0  0  0  0  0  0  0  0  0  0  0  0
   -9.0550   20.1000  -32.1640 C   0  0  0  0  0  0  0  0  0  0  0  0
   -7.6960   19.8000  -32.2890 C   0  0  0  0  0  0  0  0  0  0  0  0
   -7.1920   17.9580  -32.4560 Br  0  0  0  0  0  0  0  0  0  0  0  0
   -6.7370   20.8350  -32.2320 C   0  0  0  0  0  0  0  0  0  0  0  0
   -5.3360   20.5240  -32.3180 N   0  0  0  0  0  0  0  0  0  0  0  0
   -4.7180   20.2110  -33.4440 N   0  0  0  0  0  0  0  0  0  0  0  0
   -3.4260   20.0250  -33.1180 C   0  0  0  0  0  0  0  0  0  0  0  0
   -3.2960   20.2420  -31.7660 C   0  0  0  0  0  0  0  0  0  0  0  0
   -4.5100   20.5550  -31.2840 N   0  0  0  0  0  0  0  0  0  0  0  0
   -6.2040   24.2540  -30.9840 N   0  0  0  0  0  0  0  0  0  0  0  0
   -7.1200   24.7480  -29.9380 C   0  0  0  0  0  0  0  0  0  0  0  0
   -6.1430   25.6800  -29.2960 C   0  0  0  0  0  0  0  0  0  0  0  0
   -5.2260   25.1710  -30.3660 C   0  0  1  0  0  0  0  0  0  0  0  0
   -4.0410   24.4290  -29.8110 C   0  0  0  0  0  0  0  0  0  0  0  0
   -4.0940   23.1560  -29.3770 N   0  0  0  0  0  0  0  0  0  0  0  0
   -2.8100   22.9460  -29.0140 C   0  0  0  0  0  0  0  0  0  0  0  0
   -2.3050   21.6780  -28.4650 C   0  0  0  0  0  0  0  0  0  0  0  0
   -3.0790   20.9130  -27.5800 C   0  0  0  0  0  0  0  0  0  0  0  0
   -2.5680   19.7130  -27.0770 C   0  0  0  0  0  0  0  0  0  0  0  0
   -1.2980   19.2820  -27.4700 C   0  0  0  0  0  0  0  0  0  0  0  0
   -0.5540   20.0670  -28.3500 C   0  0  0  0  0  0  0  0  0  0  0  0
   -1.0680   21.2350  -28.8240 N   0  0  0  0  0  0  0  0  0  0  0  0
   -2.0330   24.0280  -29.2180 N   0  0  0  0  0  0  0  0  0  0  0  0
   -2.8310   24.9230  -29.7150 O   0  0  0  0  0  0  0  0  0  0  0  0
   -8.8756   23.4857  -31.7904 H   0  0  0  0  0  0  0  0  0  0  0  0
  -10.5459   21.6461  -31.8880 H   0  0  0  0  0  0  0  0  0  0  0  0
   -9.7994   19.2912  -32.2070 H   0  0  0  0  0  0  0  0  0  0  0  0
   -2.6170   19.7484  -33.8101 H   0  0  0  0  0  0  0  0  0  0  0  0
   -2.3652   20.1718  -31.1841 H   0  0  0  0  0  0  0  0  0  0  0  0
   -7.9950   25.2701  -30.3524 H   0  0  0  0  0  0  0  0  0  0  0  0
   -7.5925   23.9948  -29.2904 H   0  0  0  0  0  0  0  0  0  0  0  0
   -6.3961   26.7488  -29.3563 H   0  0  0  0  0  0  0  0  0  0  0  0
   -5.8999   25.6724  -28.2232 H   0  0  0  0  0  0  0  0  0  0  0  0
   -4.7525   25.9246  -31.0124 H   0  0  0  0  0  0  0  0  0  0  0  0
   -4.0816   21.2551  -27.2837 H   0  0  0  0  0  0  0  0  0  0  0  0
   -3.1630   19.1105  -26.3748 H   0  0  0  0  0  0  0  0  0  0  0  0
   -0.8899   18.3341  -27.0893 H   0  0  0  0  0  0  0  0  0  0  0  0
    0.4496   19.7420  -28.6616 H   0  0  0  0  0  0  0  0  0  0  0  0
  1  2  2  0
  2  3  1  0
  3  4  2  0
  4  5  1  0
  5  6  2  0
  6  7  1  0
  7  8  1  0
  7  9  2  0
  9 10  1  0
 10 11  1  0
 11 12  2  0
 12 13  1  0
 13 14  2  0
  2 15  1  0
 15 16  1  0
 16 17  1  0
 17 18  1  0
 18 19  1  0
 19 20  2  0
 20 21  1  0
 21 22  1  0
 22 23  2  0
 23 24  1  0
 24 25  2  0
 25 26  1  0
 26 27  2  0
 21 28  2  0
 28 29  1  0
  9  3  1  0
 14 10  1  0
 18 15  1  0
 29 19  1  0
 27 22  1  0
  4 30  1  0
  5 31  1  0
  6 32  1  0
 12 33  1  0
 13 34  1  0
 16 35  1  0
 16 36  1  0
 17 37  1  0
 17 38  1  0
 18 39  1  6
 23 40  1  0
 24 41  1  0
 25 42  1  0
 26 43  1  0
M  END
>  <UniqueID>  (3) 
3

>  <SMILES>  (3) 
O=C(c1cccc(Br)c1-n1nccn1)N1CC[C@H]1c1nc(-c2ccccn2)no1

>  <Energy>  (3) 
169.88563362384784

>  <Genealogy>  (3) 
O=C(c1cccc(Br)c1-n1nccn1)N1CC[C@H]1c1nc(-c2ccccn2)no1 (chirality)
O=C(c1cccc(Br)c1-n1nccn1)N1CC[C@H]1c1nc(-c2ccccn2)no1 (3D coordinates assigned)
O=C(c1cccc(Br)c1-n1nccn1)N1CC[C@H]1c1nc(-c2ccccn2)no1 (nonaromatic ring conformer: 169.88563362384784 kcal/mol)

>  <smiles>  (3) 
O=C(c1cccc(Br)c1-n1nccn1)N1CCC1c1nc(-c2ccccn2)no1

>  <score_type>  (3) 
oracle

>  <origin>  (3) 
adg

>  <m_score__min__energy>  (3) 
-9.9700000000000006

>  <m_primary>  (3) 
energy

$$$$
3:0
     RDKit          3D

 25 27  0  0  0  0  0  0  0  0999 V2000
   -6.4810   23.8010  -31.9690 C   0  0  0  0  0  0  0  0  0  0  0  0
   -7.6150   23.5160  -31.2170 C   0  0  0  0  0  0  0  0  0  0  0  0
   -7.8610   22.1800  -31.4370 C   0  0  0  0  0  0  0  0  0  0  0  0
   -8.8480   21.3420  -30.9370 C   0  0  0  0  0  0  0  0  0  0  0  0
   -8.8340   20.0330  -31.3190 N   0  0  0  0  0  0  0  0  0  0  0  0
   -7.8820   19.5220  -32.1640 C   0  0  0  0  0  0  0  0  0  0  0  0
   -6.8810   20.3750  -32.7070 C   0  0  0  0  0  0  0  0  0  0  0  0
   -6.9030   21.7120  -32.2920 C   0  0  0  0  0  0  0  0  0  0  0  0
   -6.0480   22.6980  -32.6230 N   0  0  0  0  0  0  0  0  0  0  0  0
   -5.7790   19.8500  -33.5970 C   0  0  0  0  0  0  0  0  0  0  0  0
   -6.1120   18.4810  -34.2000 C   0  0  0  0  0  0  0  0  0  0  0  0
   -6.6610   17.5360  -33.1300 C   0  0  0  0  0  0  0  0  0  0  0  0
   -7.9810   18.0760  -32.5690 C   0  0  0  0  0  0  0  0  0  0  0  0
   -6.0007   24.7890  -32.0249 H   0  0  0  0  0  0  0  0  0  0  0  0
   -8.1903   24.2077  -30.5840 H   0  0  0  0  0  0  0  0  0  0  0  0
   -9.6197   21.7230  -30.2519 H   0  0  0  0  0  0  0  0  0  0  0  0
   -5.2150   22.6370  -33.2490 H   0  0  0  0  0  0  0  0  0  0  0  0
   -5.6163   20.5659  -34.4162 H   0  0  0  0  0  0  0  0  0  0  0  0
   -4.8777   19.7315  -32.9776 H   0  0  0  0  0  0  0  0  0  0  0  0
   -6.8666   18.6087  -34.9901 H   0  0  0  0  0  0  0  0  0  0  0  0
   -5.1918   18.0457  -34.6167 H   0  0  0  0  0  0  0  0  0  0  0  0
   -6.8345   16.5453  -33.5755 H   0  0  0  0  0  0  0  0  0  0  0  0
   -5.9298   17.4589  -32.3119 H   0  0  0  0  0  0  0  0  0  0  0  0
   -8.7594   17.9773  -33.3399 H   0  0  0  0  0  0  0  0  0  0  0  0
   -8.2282   17.4916  -31.6704 H   0  0  0  0  0  0  0  0  0  0  0  0
  1  2  2  0
  2  3  1  0
  3  4  2  0
  4  5  1  0
  5  6  2  0
  6  7  1  0
  7  8  2  0
  8  9  1  0
  7 10  1  0
 10 11  1  0
 11 12  1  0
 12 13  1  0
  9  1  1  0
  8  3  1  0
 13  6  1  0
  1 14  1  0
  2 15  1  0
  4 16  1  0
  9 17  1  0
 10 18  1  0
 10 19  1  0
 11 20  1  0
 11 21  1  0
 12 22  1  0
 12 23  1  0
 13 24  1  0
 13 25  1  0
M  END
>  <UniqueID>  (4) 
4

>  <SMILES>  (4) 
c1cc2cnc3c(c2[nH]1)CCCC3

>  <Energy>  (4) 
59.216840230072805

>  <Genealogy>  (4) 
c1cc2cnc3c(c2[nH]1)CCCC3 (3D coordinates assigned)
c1cc2cnc3c(c2[nH]1)CCCC3 (nonaromatic ring conformer: 59.216840230072805 kcal/mol)

>  <smiles>  (4) 
c1cc2cnc3c(c2[nH]1)CCCC3

>  <score_type>  (4) 
oracle

>  <origin>  (4) 
adg

>  <m_score__min__energy>  (4) 
-6.3700000000000001

>  <m_primary>  (4) 
energy

$$$$
4:0
     RDKit          3D

 45 48  0  0  0  0  0  0  0  0999 V2000
   -9.8710   19.3230  -33.0990 O   0  0  0  0  0  0  0  0  0  0  0  0
   -8.7650   19.8290  -32.2180 S   0  0  0  0  0  0  0  0  0  0  0  0
   -9.0570   19.4530  -30.7900 O   0  0  0  0  0  0  0  0  0  0  0  0
   -8.6680   21.5350  -32.3450 O   0  0  0  0  0  0  0  0  0  0  0  0
   -7.6770   22.3010  -31.7180 C   0  0  0  0  0  0  0  0  0  0  0  0
   -7.5510   22.3660  -30.3190 C   0  0  0  0  0  0  0  0  0  0  0  0
   -6.4960   23.0760  -29.7400 C   0  0  0  0  0  0  0  0  0  0  0  0
   -5.5420   23.7050  -30.5450 C   0  0  0  0  0  0  0  0  0  0  0  0
   -4.4260   24.3650  -29.9280 N   0  0  0  0  0  0  0  0  0  0  0  0
   -3.1710   24.0560  -30.0950 C   0  0  0  0  0  0  0  0  0  0  0  0
   -2.2240   23.8340  -28.9710 C   0  0  0  0  0  0  0  0  0  0  0  0
   -1.3030   24.8460  -28.6260 C   0  0  0  0  0  0  0  0  0  0  0  0
   -1.2630   26.0430  -29.3350 O   0  0  0  0  0  0  0  0  0  0  0  0
   -0.4010   24.6550  -27.5770 C   0  0  0  0  0  0  0  0  0  0  0  0
   -0.3800   23.4540  -26.8720 C   0  0  0  0  0  0  0  0  0  0  0  0
   -1.2640   22.4200  -27.2110 C   0  0  0  0  0  0  0  0  0  0  0  0
   -1.2290   21.2080  -26.5040 C   0  0  0  0  0  0  0  0  0  0  0  0
   -2.1110   20.1770  -26.8310 C   0  0  0  0  0  0  0  0  0  0  0  0
   -3.0430   20.3520  -27.8550 C   0  0  0  0  0  0  0  0  0  0  0  0
   -3.0940   21.5530  -28.5670 C   0  0  0  0  0  0  0  0  0  0  0  0
   -2.1980   22.6020  -28.2660 C   0  0  0  0  0  0  0  0  0  0  0  0
   -5.7040   23.6970  -31.9420 C   0  0  0  0  0  0  0  0  0  0  0  0
   -6.7710   23.0040  -32.5200 C   0  0  0  0  0  0  0  0  0  0  0  0
   -7.2340   19.1280  -32.7390 C   0  0  0  0  0  0  0  0  0  0  0  0
   -6.5150   19.7310  -33.7840 C   0  0  0  0  0  0  0  0  0  0  0  0
   -5.2760   19.2120  -34.1760 C   0  0  0  0  0  0  0  0  0  0  0  0
   -4.7520   18.0850  -33.5320 C   0  0  0  0  0  0  0  0  0  0  0  0
   -3.1940   17.4360  -34.0200 Cl  0  0  0  0  0  0  0  0  0  0  0  0
   -5.4710   17.4770  -32.4960 C   0  0  0  0  0  0  0  0  0  0  0  0
   -6.7080   17.9950  -32.0990 C   0  0  0  0  0  0  0  0  0  0  0  0
   -8.2855   21.8562  -29.6782 H   0  0  0  0  0  0  0  0  0  0  0  0
   -6.4158   23.1403  -28.6448 H   0  0  0  0  0  0  0  0  0  0  0  0
   -2.7923   23.9540  -31.1227 H   0  0  0  0  0  0  0  0  0  0  0  0
    0.2984   25.4594  -27.3054 H   0  0  0  0  0  0  0  0  0  0  0  0
    0.3331   23.3162  -26.0459 H   0  0  0  0  0  0  0  0  0  0  0  0
   -0.5034   21.0702  -25.6888 H   0  0  0  0  0  0  0  0  0  0  0  0
   -2.0715   19.2252  -26.2809 H   0  0  0  0  0  0  0  0  0  0  0  0
   -3.7417   19.5394  -28.1030 H   0  0  0  0  0  0  0  0  0  0  0  0
   -3.8372   21.6823  -29.3675 H   0  0  0  0  0  0  0  0  0  0  0  0
   -4.9896   24.2371  -32.5807 H   0  0  0  0  0  0  0  0  0  0  0  0
   -6.8995   23.0111  -33.6124 H   0  0  0  0  0  0  0  0  0  0  0  0
   -6.9269   20.6134  -34.2956 H   0  0  0  0  0  0  0  0  0  0  0  0
   -4.7131   19.6902  -34.9912 H   0  0  0  0  0  0  0  0  0  0  0  0
   -5.0616   16.5888  -31.9925 H   0  0  0  0  0  0  0  0  0  0  0  0
   -7.2692   17.5140  -31.2844 H   0  0  0  0  0  0  0  0  0  0  0  0
  1  2  2  0
  2  3  2  0
  2  4  1  0
  4  5  1  0
  5  6  2  0
  6  7  1  0
  7  8  2  0
  8  9  1  0
  9 10  2  3
 10 11  1  0
 11 12  2  0
 12 13  1  0
 12 14  1  0
 14 15  2  0
 15 16  1  0
 16 17  2  0
 17 18  1  0
 18 19  2  0
 19 20  1  0
 20 21  2  0
  8 22  1  0
 22 23  2  0
  2 24  1  0
 24 25  2  0
 25 26  1  0
 26 27  2  0
 27 28  1  0
 27 29  1  0
 29 30  2  0
 23  5  1  0
 30 24  1  0
 21 11  1  0
 21 16  1  0
  6 31  1  0
  7 32  1  0
 10 33  1  0
 14 34  1  0
 15 35  1  0
 17 36  1  0
 18 37  1  0
 19 38  1  0
 20 39  1  0
 22 40  1  0
 23 41  1  0
 25 42  1  0
 26 43  1  0
 29 44  1  0
 30 45  1  0
M  CHG  1  13  -1
M  END
>  <UniqueID>  (5) 
5

>  <SMILES>  (5) 
O=S(=O)(Oc1ccc(N=Cc2c([O-])ccc3ccccc23)cc1)c1ccc(Cl)cc1

>  <Energy>  (5) 
67.72254658579749

>  <Genealogy>  (5) 
O=S(=O)(Oc1ccc(N=Cc2c([O-])ccc3ccccc23)cc1)c1ccc(Cl)cc1 (protonated)
O=S(=O)(Oc1ccc(N=Cc2c([O-])ccc3ccccc23)cc1)c1ccc(Cl)cc1 (3D coordinates assigned)
O=S(=O)(Oc1ccc(N=Cc2c([O-])ccc3ccccc23)cc1)c1ccc(Cl)cc1 (optimized conformer: 67.72254658579749 kcal/mol)

>  <smiles>  (5) 
O=S(=O)(Oc1ccc(N=Cc2c(O)ccc3ccccc23)cc1)c1ccc(Cl)cc1

>  <score_type>  (5) 
oracle

>  <origin>  (5) 
adg

>  <m_score__min__energy>  (5) 
-13.67

>  <m_primary>  (5) 
energy

$$$$
5:0
     RDKit          3D

 31 33  0  0  0  0  0  0  0  0999 V2000
   -1.3200   25.1490  -27.7910 C   0  0  0  0  0  0  0  0  0  0  0  0
   -1.9290   25.2750  -29.1110 N   0  0  0  0  0  0  0  0  0  0  0  0
   -2.9360   24.3760  -29.6110 C   0  0  0  0  0  0  0  0  0  0  0  0
   -4.1490   24.8450  -30.1470 C   0  0  0  0  0  0  0  0  0  0  0  0
   -5.1070   23.9470  -30.6260 C   0  0  0  0  0  0  0  0  0  0  0  0
   -4.8770   22.5610  -30.5790 C   0  0  0  0  0  0  0  0  0  0  0  0
   -5.8950   21.6080  -31.0870 C   0  0  0  0  0  0  0  0  0  0  0  0
   -7.2620   21.8530  -31.2200 C   0  0  0  0  0  0  0  0  0  0  0  0
   -7.8210   20.7360  -31.7140 N   0  0  0  0  0  0  0  0  0  0  0  0
   -9.1160   20.4710  -32.0200 C   0  0  0  0  0  0  0  0  0  0  0  0
   -9.4300   19.2000  -32.5240 C   0  0  0  0  0  0  0  0  0  0  0  0
   -8.4040   18.2490  -32.6960 C   0  0  0  0  0  0  0  0  0  0  0  0
   -7.0770   18.5690  -32.3660 C   0  0  0  0  0  0  0  0  0  0  0  0
   -6.8260   19.8470  -31.8690 C   0  0  0  0  0  0  0  0  0  0  0  0
   -5.6310   20.3420  -31.4990 N   0  0  0  0  0  0  0  0  0  0  0  0
   -3.6640   22.0940  -30.0410 C   0  0  0  0  0  0  0  0  0  0  0  0
   -2.7060   22.9930  -29.5640 C   0  0  0  0  0  0  0  0  0  0  0  0
   -2.0857   25.3074  -27.0173 H   0  0  0  0  0  0  0  0  0  0  0  0
   -0.8896   24.1428  -27.6803 H   0  0  0  0  0  0  0  0  0  0  0  0
   -0.5256   25.9018  -27.6803 H   0  0  0  0  0  0  0  0  0  0  0  0
   -1.6090   26.0650  -29.7180 H   0  0  0  0  0  0  0  0  0  0  0  0
   -4.3451   25.9265  -30.1895 H   0  0  0  0  0  0  0  0  0  0  0  0
   -6.0503   24.3286  -31.0439 H   0  0  0  0  0  0  0  0  0  0  0  0
   -7.7848   22.7872  -30.9673 H   0  0  0  0  0  0  0  0  0  0  0  0
   -9.8978   21.2315  -31.8769 H   0  0  0  0  0  0  0  0  0  0  0  0
  -10.4689   18.9475  -32.7829 H   0  0  0  0  0  0  0  0  0  0  0  0
   -8.6440   17.2508  -33.0909 H   0  0  0  0  0  0  0  0  0  0  0  0
   -6.2653   17.8379  -32.4950 H   0  0  0  0  0  0  0  0  0  0  0  0
   -4.7160   19.8400  -31.5110 H   0  0  0  0  0  0  0  0  0  0  0  0
   -3.4679   21.0126  -29.9954 H   0  0  0  0  0  0  0  0  0  0  0  0
   -1.7619   22.6121  -29.1474 H   0  0  0  0  0  0  0  0  0  0  0  0
  1  2  1  0
  2  3  1  0
  3  4  2  0
  4  5  1  0
  5  6  2  0
  6  7  1  0
  7  8  2  0
  8  9  1  0
  9 10  1  0
 10 11  2  0
 11 12  1  0
 12 13  2  0
 13 14  1  0
 14 15  2  0
  6 16  1  0
 16 17  2  0
 17  3  1  0
 15  7  1  0
 14  9  1  0
  1 18  1  0
  1 19  1  0
  1 20  1  0
  2 21  1  0
  4 22  1  0
  5 23  1  0
  8 24  1  0
 10 25  1  0
 11 26  1  0
 12 27  1  0
 13 28  1  0
 15 29  1  0
 16 30  1  0
 17 31  1  0
M  CHG  1  15   1
M  END
>  <UniqueID>  (6) 
6

>  <SMILES>  (6) 
CNc1ccc(-c2cn3ccccc3[nH+]2)cc1

>  <Energy>  (6) 
70.2812054153692

>  <Genealogy>  (6) 
CNc1ccc(-c2cn3ccccc3[nH+]2)cc1 (protonated)
CNc1ccc(-c2cn3ccccc3[nH+]2)cc1 (3D coordinates assigned)
CNc1ccc(-c2cn3ccccc3[nH+]2)cc1 (optimized conformer: 70.2812054153692 kcal/mol)

>  <smiles>  (6) 
CNc1ccc(-c2cn3ccccc3n2)cc1

>  <score_type>  (6) 
oracle

>  <origin>  (6) 
adg

>  <m_score__min__energy>  (6) 
-6.1699999999999999

>  <m_primary>  (6) 
energy

$$$$
6:0
     RDKit          3D

 58 62  0  0  0  0  0  0  0  0999 V2000
   -2.9665   26.0197  -26.0446 H   0  0  0  0  0  0  0  0  0  0  0  0
   -1.9680   25.9150  -25.5950 C   0  0  0  0  0  0  0  0  0  0  0  0
   -1.0910   25.0030  -26.0930 N   0  0  0  0  0  0  0  0  0  0  0  0
    0.1510   24.8340  -25.5600 C   0  0  0  0  0  0  0  0  0  0  0  0
    1.0930   23.8380  -26.1750 C   0  0  0  0  0  0  0  0  0  0  0  0
    0.5400   22.9146  -26.4017 H   0  0  0  0  0  0  0  0  0  0  0  0
    1.9045   23.6403  -25.4592 H   0  0  0  0  0  0  0  0  0  0  0  0
    1.7120   24.3810  -27.4710 C   0  0  0  0  0  0  0  0  0  0  0  0
    2.6012   23.7835  -27.7207 H   0  0  0  0  0  0  0  0  0  0  0  0
    1.9826   25.4350  -27.3104 H   0  0  0  0  0  0  0  0  0  0  0  0
    0.7640   24.3130  -28.5850 N   0  0  0  0  0  0  0  0  0  0  0  0
   -0.2650   23.5290  -28.7580 C   0  0  0  0  0  0  0  0  0  0  0  0
   -0.0660   22.1920  -28.6050 N   0  0  0  0  0  0  0  0  0  0  0  0
   -1.0560   21.2800  -28.7730 C   0  0  0  0  0  0  0  0  0  0  0  0
   -0.8433   20.2088  -28.6415 H   0  0  0  0  0  0  0  0  0  0  0  0
   -2.3390   21.6960  -29.1110 C   0  0  0  0  0  0  0  0  0  0  0  0
   -3.1388   20.9551  -29.2572 H   0  0  0  0  0  0  0  0  0  0  0  0
   -2.6100   23.0640  -29.2650 C   0  0  0  0  0  0  0  0  0  0  0  0
   -3.9860   23.5010  -29.6080 C   0  0  0  0  0  0  0  0  0  0  0  0
   -4.5970   23.4330  -30.8500 C   0  0  0  0  0  0  0  0  0  0  0  0
   -4.1298   23.0751  -31.7793 H   0  0  0  0  0  0  0  0  0  0  0  0
   -5.8600   23.8800  -30.7240 N   0  0  0  0  0  0  0  0  0  0  0  0
   -6.8750   23.8920  -31.7740 C   0  0  0  0  0  0  0  0  0  0  0  0
   -7.6240   24.6655  -31.5490 H   0  0  0  0  0  0  0  0  0  0  0  0
   -6.3957   24.1098  -32.7398 H   0  0  0  0  0  0  0  0  0  0  0  0
   -7.5490   22.5510  -31.8460 C   0  0  0  0  0  0  0  0  0  0  0  0
   -8.8150   22.3600  -31.2720 C   0  0  0  0  0  0  0  0  0  0  0  0
   -9.3319   23.2039  -30.7918 H   0  0  0  0  0  0  0  0  0  0  0  0
   -9.4210   21.1030  -31.3080 C   0  0  0  0  0  0  0  0  0  0  0  0
  -10.4179   20.9618  -30.8650 H   0  0  0  0  0  0  0  0  0  0  0  0
   -8.7650   20.0240  -31.9050 C   0  0  0  0  0  0  0  0  0  0  0  0
   -9.2507   19.0374  -31.9321 H   0  0  0  0  0  0  0  0  0  0  0  0
   -7.4880   20.1890  -32.4720 C   0  0  0  0  0  0  0  0  0  0  0  0
   -6.7800   19.0390  -33.0910 C   0  0  0  0  0  0  0  0  0  0  0  0
   -6.0520   19.2040  -34.2850 C   0  0  0  0  0  0  0  0  0  0  0  0
   -6.0060   20.1926  -34.7652 H   0  0  0  0  0  0  0  0  0  0  0  0
   -5.3870   18.1180  -34.8640 C   0  0  0  0  0  0  0  0  0  0  0  0
   -4.8203   18.2562  -35.7966 H   0  0  0  0  0  0  0  0  0  0  0  0
   -5.4400   16.8610  -34.2630 C   0  0  0  0  0  0  0  0  0  0  0  0
   -4.9172   16.0091  -34.7222 H   0  0  0  0  0  0  0  0  0  0  0  0
   -6.1570   16.6840  -33.0780 C   0  0  0  0  0  0  0  0  0  0  0  0
   -6.1971   15.6925  -32.6033 H   0  0  0  0  0  0  0  0  0  0  0  0
   -6.8240   17.7650  -32.4940 C   0  0  0  0  0  0  0  0  0  0  0  0
   -7.3876   17.6188  -31.5607 H   0  0  0  0  0  0  0  0  0  0  0  0
   -6.8880   21.4630  -32.4360 C   0  0  0  0  0  0  0  0  0  0  0  0
   -5.8899   21.6065  -32.8755 H   0  0  0  0  0  0  0  0  0  0  0  0
   -6.0850   24.2060  -29.4620 N   0  0  0  0  0  0  0  0  0  0  0  0
   -7.0000   24.5410  -29.0830 H   0  0  0  0  0  0  0  0  0  0  0  0
   -4.9620   23.9920  -28.7520 C   0  0  0  0  0  0  0  0  0  0  0  0
   -4.8384   24.1754  -27.6745 H   0  0  0  0  0  0  0  0  0  0  0  0
   -1.5640   23.9940  -29.0900 C   0  0  0  0  0  0  0  0  0  0  0  0
   -1.8220   25.3120  -29.2680 F   0  0  0  0  0  0  0  0  0  0  0  0
    0.5550   25.6310  -24.4780 C   0  0  0  0  0  0  0  0  0  0  0  0
    1.5600   25.5134  -24.0466 H   0  0  0  0  0  0  0  0  0  0  0  0
   -0.3310   26.5750  -23.9540 C   0  0  0  0  0  0  0  0  0  0  0  0
   -0.0281   27.2032  -23.1033 H   0  0  0  0  0  0  0  0  0  0  0  0
   -1.6020   26.7190  -24.5130 C   0  0  0  0  0  0  0  0  0  0  0  0
   -2.3079   27.4578  -24.1057 H   0  0  0  0  0  0  0  0  0  0  0  0
  1  2  1  0
  2  3  2  0
  3  4  1  0
  4  5  1  0
  5  6  1  0
  5  7  1  0
  5  8  1  0
  8  9  1  0
  8 10  1  0
  8 11  1  0
 11 12  2  0
 12 13  1  0
 13 14  1  0
 14 15  1  0
 14 16  2  0
 16 17  1  0
 16 18  1  0
 18 19  1  0
 19 20  2  0
 20 21  1  0
 20 22  1  0
 22 23  1  0
 23 24  1  0
 23 25  1  0
 23 26  1  0
 26 27  2  0
 27 28  1  0
 27 29  1  0
 29 30  1  0
 29 31  2  0
 31 32  1  0
 31 33  1  0
 33 34  1  0
 34 35  2  0
 35 36  1  0
 35 37  1  0
 37 38  1  0
 37 39  2  0
 39 40  1  0
 39 41  1  0
 41 42  1  0
 41 43  2  0
 43 44  1  0
 33 45  2  0
 45 46  1  0
 22 47  1  0
 47 48  1  0
 47 49  2  0
 49 50  1  0
 18 51  2  0
 51 52  1  0
  4 53  2  0
 53 54  1  0
 53 55  1  0
 55 56  1  0
 55 57  2  0
 57 58  1  0
 57  2  1  0
 51 12  1  0
 49 19  1  0
 45 26  1  0
 43 34  1  0
M  CHG  2  13  -1  47   1
M  END
>  <UniqueID>  (7) 
7

>  <SMILES>  (7) 
Fc1c(-c2c[nH+]n(Cc3cccc(-c4ccccc4)c3)c2)cc[n-]/c1=N/CCc1ccccn1

>  <Energy>  (7) 
106.24983738905226

>  <Genealogy>  (7) 
Fc1c(-c2c[nH+]n(Cc3cccc(-c4ccccc4)c3)c2)cc[n-]c1=NCCc1ccccn1 (protonated)
Fc1c(-c2c[nH+]n(Cc3cccc(-c4ccccc4)c3)c2)cc[n-]/c1=N/CCc1ccccn1 (cis-trans isomerization)
Fc1c(-c2c[nH+]n(Cc3cccc(-c4ccccc4)c3)c2)cc[n-]/c1=N/CCc1ccccn1 (3D coordinates assigned)
Fc1c(-c2c[nH+]n(Cc3cccc(-c4ccccc4)c3)c2)cc[n-]/c1=N/CCc1ccccn1 (optimized conformer: 106.24983738905226 kcal/mol)

>  <smiles>  (7) 
Fc1c(-c2cnn(Cc3cccc(-c4ccccc4)c3)c2)cc[nH]c1=NCCc1ccccn1

>  <score_type>  (7) 
oracle

>  <origin>  (7) 
adg

>  <m_score__min__energy>  (7) 
-11.470000000000001

>  <m_primary>  (7) 
energy

$$$$
7:0
     RDKit          3D

 45 47  0  0  0  0  0  0  0  0999 V2000
   -1.6210   17.7270  -32.9620 C   0  0  0  0  0  0  0  0  0  0  0  0
   -2.3080   19.2650  -33.5330 S   0  0  0  0  0  0  0  0  0  0  0  0
   -3.6760   19.0140  -34.1030 O   0  0  0  0  0  0  0  0  0  0  0  0
   -1.4330   19.8420  -34.6090 O   0  0  0  0  0  0  0  0  0  0  0  0
   -2.4080   20.3980  -32.1890 C   0  0  0  0  0  0  0  0  0  0  0  0
   -3.5230   20.4060  -31.3390 C   0  0  0  0  0  0  0  0  0  0  0  0
   -3.5900   21.3090  -30.2760 C   0  0  0  0  0  0  0  0  0  0  0  0
   -2.5420   22.2160  -30.0470 C   0  0  0  0  0  0  0  0  0  0  0  0
   -2.5940   23.1500  -28.8680 C   0  0  0  0  0  0  0  0  0  0  0  0
   -2.6470   24.5630  -29.3500 C   0  0  0  0  0  0  0  0  0  0  0  0
   -1.9530   25.4460  -28.7780 O   0  0  0  0  0  0  0  0  0  0  0  0
   -3.5050   24.9080  -30.4440 N   0  0  0  0  0  0  0  0  0  0  0  0
   -4.8600   24.4690  -30.5920 C   0  0  0  0  0  0  0  0  0  0  0  0
   -5.8530   25.0360  -29.7840 C   0  0  0  0  0  0  0  0  0  0  0  0
   -7.1870   24.6500  -29.9320 C   0  0  0  0  0  0  0  0  0  0  0  0
   -7.5450   23.7190  -30.9120 C   0  0  0  0  0  0  0  0  0  0  0  0
   -6.5720   23.1810  -31.7630 C   0  0  0  0  0  0  0  0  0  0  0  0
   -6.9690   22.2680  -32.7510 O   0  0  0  0  0  0  0  0  0  0  0  0
   -7.2540   20.9120  -32.5310 C   0  0  0  0  0  0  0  0  0  0  0  0
   -8.4390   20.5740  -31.8640 C   0  0  0  0  0  0  0  0  0  0  0  0
   -8.7630   19.2330  -31.6370 C   0  0  0  0  0  0  0  0  0  0  0  0
   -7.9120   18.2190  -32.0860 C   0  0  0  0  0  0  0  0  0  0  0  0
   -6.7370   18.5460  -32.7670 C   0  0  0  0  0  0  0  0  0  0  0  0
   -6.4100   19.8860  -32.9980 C   0  0  0  0  0  0  0  0  0  0  0  0
   -5.2250   23.5410  -31.5840 C   0  0  0  0  0  0  0  0  0  0  0  0
   -1.4180   22.1920  -30.8870 C   0  0  0  0  0  0  0  0  0  0  0  0
   -1.3550   21.2900  -31.9540 C   0  0  0  0  0  0  0  0  0  0  0  0
   -1.6152   17.7139  -31.8621 H   0  0  0  0  0  0  0  0  0  0  0  0
   -2.2315   16.8916  -33.3354 H   0  0  0  0  0  0  0  0  0  0  0  0
   -0.5914   17.6242  -33.3354 H   0  0  0  0  0  0  0  0  0  0  0  0
   -4.3478   19.6986  -31.5101 H   0  0  0  0  0  0  0  0  0  0  0  0
   -4.4685   21.3101  -29.6141 H   0  0  0  0  0  0  0  0  0  0  0  0
   -3.4908   22.9337  -28.2689 H   0  0  0  0  0  0  0  0  0  0  0  0
   -1.6952   23.0084  -28.2498 H   0  0  0  0  0  0  0  0  0  0  0  0
   -5.5812   25.7888  -29.0293 H   0  0  0  0  0  0  0  0  0  0  0  0
   -7.9583   25.0796  -29.2758 H   0  0  0  0  0  0  0  0  0  0  0  0
   -8.5951   23.4081  -31.0147 H   0  0  0  0  0  0  0  0  0  0  0  0
   -9.1175   21.3674  -31.5174 H   0  0  0  0  0  0  0  0  0  0  0  0
   -9.6899   18.9752  -31.1037 H   0  0  0  0  0  0  0  0  0  0  0  0
   -8.1673   17.1648  -31.9033 H   0  0  0  0  0  0  0  0  0  0  0  0
   -6.0679   17.7483  -33.1221 H   0  0  0  0  0  0  0  0  0  0  0  0
   -5.4906   20.1393  -33.5462 H   0  0  0  0  0  0  0  0  0  0  0  0
   -4.4506   23.0936  -32.2245 H   0  0  0  0  0  0  0  0  0  0  0  0
   -0.5834   22.8852  -30.7055 H   0  0  0  0  0  0  0  0  0  0  0  0
   -0.4735   21.2814  -32.6119 H   0  0  0  0  0  0  0  0  0  0  0  0
  1  2  1  0
  2  3  2  0
  2  4  2  0
  2  5  1  0
  5  6  2  0
  6  7  1  0
  7  8  2  0
  8  9  1  0
  9 10  1  0
 10 11  2  0
 10 12  1  0
 12 13  1  0
 13 14  2  0
 14 15  1  0
 15 16  2  0
 16 17  1  0
 17 18  1  0
 18 19  1  0
 19 20  2  0
 20 21  1  0
 21 22  2  0
 22 23  1  0
 23 24  2  0
 17 25  2  0
  8 26  1  0
 26 27  2  0
 27  5  1  0
 25 13  1  0
 24 19  1  0
  1 28  1  0
  1 29  1  0
  1 30  1  0
  6 31  1  0
  7 32  1  0
  9 33  1  0
  9 34  1  0
 14 35  1  0
 15 36  1  0
 16 37  1  0
 20 38  1  0
 21 39  1  0
 22 40  1  0
 23 41  1  0
 24 42  1  0
 25 43  1  0
 26 44  1  0
 27 45  1  0
M  CHG  1  12  -1
M  END
>  <UniqueID>  (8) 
8

>  <SMILES>  (8) 
CS(=O)(=O)c1ccc(CC(=O)[N-]c2cccc(Oc3ccccc3)c2)cc1

>  <Energy>  (8) 
51.04146187768674

>  <Genealogy>  (8) 
CS(=O)(=O)c1ccc(CC(=O)[N-]c2cccc(Oc3ccccc3)c2)cc1 (protonated)
CS(=O)(=O)c1ccc(CC(=O)[N-]c2cccc(Oc3ccccc3)c2)cc1 (3D coordinates assigned)
CS(=O)(=O)c1ccc(CC(=O)[N-]c2cccc(Oc3ccccc3)c2)cc1 (optimized conformer: 51.04146187768674 kcal/mol)

>  <smiles>  (8) 
CS(=O)(=O)c1ccc(CC(=O)Nc2cccc(Oc3ccccc3)c2)cc1

>  <score_type>  (8) 
oracle

>  <origin>  (8) 
adg

>  <m_score__min__energy>  (8) 
-10.630000000000001

>  <m_primary>  (8) 
energy

$$$$
8:0
     RDKit          3D

 49 51  0  0  0  0  0  0  0  0999 V2000
   -9.4480   20.1330  -32.6350 C   0  0  0  0  0  0  0  0  0  0  0  0
   -8.9840   19.0470  -32.0030 C   0  0  0  0  0  0  0  0  0  0  0  0
   -7.6040   18.5060  -32.2530 C   0  0  0  0  0  0  0  0  0  0  0  0
   -6.8200   19.4670  -32.9610 O   0  0  0  0  0  0  0  0  0  0  0  0
   -6.1210   20.5390  -32.3790 C   0  0  0  0  0  0  0  0  0  0  0  0
   -6.6500   21.2920  -31.3160 C   0  0  0  0  0  0  0  0  0  0  0  0
   -5.9320   22.3600  -30.7550 C   0  0  0  0  0  0  0  0  0  0  0  0
   -4.6510   22.6830  -31.2680 C   0  0  0  0  0  0  0  0  0  0  0  0
   -4.1290   21.9200  -32.3300 C   0  0  0  0  0  0  0  0  0  0  0  0
   -4.8570   20.8570  -32.8890 C   0  0  0  0  0  0  0  0  0  0  0  0
   -4.3540   20.0830  -33.9490 O   0  0  0  0  0  0  0  0  0  0  0  0
   -4.0060   18.7060  -33.8540 C   0  0  0  0  0  0  0  0  0  0  0  0
   -3.8010   23.8180  -30.7000 C   0  0  2  0  0  0  0  0  0  0  0  0
   -3.2050   23.5340  -29.3170 C   0  0  0  0  0  0  0  0  0  0  0  0
   -2.8070   24.6100  -28.4980 C   0  0  0  0  0  0  0  0  0  0  0  0
   -2.2280   24.3820  -27.2490 C   0  0  0  0  0  0  0  0  0  0  0  0
   -2.0000   23.0810  -26.8050 C   0  0  0  0  0  0  0  0  0  0  0  0
   -2.3310   21.9880  -27.6220 C   0  0  0  0  0  0  0  0  0  0  0  0
   -2.0790   20.5680  -27.1790 C   0  0  0  0  0  0  0  0  0  0  0  0
   -1.5960   19.8290  -28.2440 F   0  0  0  0  0  0  0  0  0  0  0  0
   -1.1560   20.5120  -26.1510 F   0  0  0  0  0  0  0  0  0  0  0  0
   -3.2650   20.0080  -26.7440 F   0  0  0  0  0  0  0  0  0  0  0  0
   -2.9230   22.2220  -28.8750 C   0  0  0  0  0  0  0  0  0  0  0  0
   -4.5520   25.1730  -30.8200 C   0  0  0  0  0  0  0  0  0  0  0  0
   -5.5600   25.4010  -29.7740 N   0  0  0  0  0  0  0  0  0  0  0  0
   -6.7740   24.6000  -29.9570 C   0  0  0  0  0  0  0  0  0  0  0  0
   -6.5490   23.1250  -29.6050 C   0  0  0  0  0  0  0  0  0  0  0  0
  -10.4639   20.4992  -32.4256 H   0  0  0  0  0  0  0  0  0  0  0  0
   -8.8132   20.6587  -33.3635 H   0  0  0  0  0  0  0  0  0  0  0  0
   -9.6335   18.5347  -31.2779 H   0  0  0  0  0  0  0  0  0  0  0  0
   -7.1216   18.2813  -31.2903 H   0  0  0  0  0  0  0  0  0  0  0  0
   -7.6809   17.5896  -32.8566 H   0  0  0  0  0  0  0  0  0  0  0  0
   -7.6436   21.0399  -30.9170 H   0  0  0  0  0  0  0  0  0  0  0  0
   -3.1327   22.1609  -32.7292 H   0  0  0  0  0  0  0  0  0  0  0  0
   -3.9333   18.4184  -32.7948 H   0  0  0  0  0  0  0  0  0  0  0  0
   -4.7786   18.0977  -34.3469 H   0  0  0  0  0  0  0  0  0  0  0  0
   -3.0371   18.5378  -34.3469 H   0  0  0  0  0  0  0  0  0  0  0  0
   -2.9007   23.8959  -31.3272 H   0  0  0  0  0  0  0  0  0  0  0  0
   -2.9547   25.6424  -28.8478 H   0  0  0  0  0  0  0  0  0  0  0  0
   -1.9500   25.2341  -26.6113 H   0  0  0  0  0  0  0  0  0  0  0  0
   -1.5595   22.9097  -25.8117 H   0  0  0  0  0  0  0  0  0  0  0  0
   -3.1712   21.3685  -29.5231 H   0  0  0  0  0  0  0  0  0  0  0  0
   -3.8105   25.9837  -30.7664 H   0  0  0  0  0  0  0  0  0  0  0  0
   -5.0920   25.1500  -31.7781 H   0  0  0  0  0  0  0  0  0  0  0  0
   -5.1600   25.2580  -28.8190 H   0  0  0  0  0  0  0  0  0  0  0  0
   -7.5660   25.0028  -29.3085 H   0  0  0  0  0  0  0  0  0  0  0  0
   -7.0604   24.6557  -31.0176 H   0  0  0  0  0  0  0  0  0  0  0  0
   -5.8769   23.0649  -28.7363 H   0  0  0  0  0  0  0  0  0  0  0  0
   -7.5270   22.6743  -29.3806 H   0  0  0  0  0  0  0  0  0  0  0  0
  1  2  2  0
  2  3  1  0
  3  4  1  0
  4  5  1  0
  5  6  2  0
  6  7  1  0
  7  8  2  0
  8  9  1  0
  9 10  2  0
 10 11  1  0
 11 12  1  0
  8 13  1  0
 13 14  1  0
 14 15  2  0
 15 16  1  0
 16 17  2  0
 17 18  1  0
 18 19  1  0
 19 20  1  0
 19 21  1  0
 19 22  1  0
 18 23  2  0
 13 24  1  0
 24 25  1  0
 25 26  1  0
 26 27  1  0
 10  5  1  0
 23 14  1  0
 27  7  1  0
  1 28  1  0
  1 29  1  0
  2 30  1  0
  3 31  1  0
  3 32  1  0
  6 33  1  0
  9 34  1  0
 12 35  1  0
 12 36  1  0
 12 37  1  0
 13 38  1  6
 15 39  1  0
 16 40  1  0
 17 41  1  0
 23 42  1  0
 24 43  1  0
 24 44  1  0
 25 45  1  0
 26 46  1  0
 26 47  1  0
 27 48  1  0
 27 49  1  0
M  END
>  <UniqueID>  (9) 
9

>  <SMILES>  (9) 
C=CCOc1cc2c(cc1OC)[C@H](c1cccc(C(F)(F)F)c1)CNCC2

>  <Energy>  (9) 
59.42329612494326

>  <Genealogy>  (9) 
C=CCOc1cc2c(cc1OC)[C@H](c1cccc(C(F)(F)F)c1)CNCC2 (chirality)
C=CCOc1cc2c(cc1OC)[C@H](c1cccc(C(F)(F)F)c1)CNCC2 (3D coordinates assigned)
C=CCOc1cc2c(cc1OC)[C@H](c1cccc(C(F)(F)F)c1)CNCC2 (nonaromatic ring conformer: 59.42329612494326 kcal/mol)

>  <smiles>  (9) 
C=CCOc1cc2c(cc1OC)C(c1cccc(C(F)(F)F)c1)CNCC2

>  <score_type>  (9) 
oracle

>  <origin>  (9) 
adg

>  <m_score__min__energy>  (9) 
-6.3700000000000001

>  <m_primary>  (9) 
energy

$$$$
9:0
     RDKit          3D

 50 52  0  0  0  0  0  0  0  0999 V2000
   -4.1590   16.8640  -35.2570 C   0  0  0  0  0  0  0  0  0  0  0  0
   -3.3780   15.9150  -34.5970 C   0  0  0  0  0  0  0  0  0  0  0  0
   -3.8280   15.3660  -33.4360 N   0  0  0  0  0  0  0  0  0  0  0  0
   -5.0280   15.7290  -32.9090 C   0  0  0  0  0  0  0  0  0  0  0  0
   -5.8170   16.6810  -33.5710 C   0  0  0  0  0  0  0  0  0  0  0  0
   -7.1580   17.1000  -33.0200 C   0  0  0  0  0  0  0  0  0  0  0  0
   -7.0540   18.0400  -31.8810 N   0  0  0  0  0  0  0  0  0  0  0  0
   -5.9110   18.9680  -31.9810 C   0  0  0  0  0  0  0  0  0  0  0  0
   -6.0470   19.7910  -33.2630 C   0  0  0  0  0  0  0  0  0  0  0  0
   -6.7040   21.1620  -33.0430 C   0  0  0  0  0  0  0  0  0  0  0  0
   -8.0060   21.1100  -32.3440 N   0  0  0  0  0  0  0  0  0  0  0  0
   -7.9880   21.6640  -30.9720 C   0  0  0  0  0  0  0  0  0  0  0  0
   -7.6110   23.1510  -30.9780 C   0  0  0  0  0  0  0  0  0  0  0  0
   -6.6410   23.4370  -29.8950 N   0  0  0  0  0  0  0  0  0  0  0  0
   -5.3710   22.7020  -30.0620 C   0  0  0  0  0  0  0  0  0  0  0  0
   -4.4880   23.3500  -31.1360 C   0  0  0  0  0  0  0  0  0  0  0  0
   -4.2080   24.6930  -30.7980 O   0  0  0  0  0  0  0  0  0  0  0  0
   -5.4100   25.4360  -30.7760 C   0  0  0  0  0  0  0  0  0  0  0  0
   -6.3870   24.8850  -29.7210 C   0  0  0  0  0  0  0  0  0  0  0  0
   -8.7310   19.8330  -32.5340 C   0  0  0  0  0  0  0  0  0  0  0  0
   -8.3420   18.6920  -31.5660 C   0  0  0  0  0  0  0  0  0  0  0  0
   -5.3570   17.2260  -34.7300 N   0  0  0  0  0  0  0  0  0  0  0  0
   -3.8073   17.3153  -36.1965 H   0  0  0  0  0  0  0  0  0  0  0  0
   -2.4053   15.6126  -35.0122 H   0  0  0  0  0  0  0  0  0  0  0  0
   -3.2420   14.6550  -32.9430 H   0  0  0  0  0  0  0  0  0  0  0  0
   -5.3779   15.2784  -31.9685 H   0  0  0  0  0  0  0  0  0  0  0  0
   -7.7293   17.5871  -33.8240 H   0  0  0  0  0  0  0  0  0  0  0  0
   -7.6566   16.1922  -32.6494 H   0  0  0  0  0  0  0  0  0  0  0  0
   -5.9048   19.6403  -31.1103 H   0  0  0  0  0  0  0  0  0  0  0  0
   -4.9707   18.3976  -32.0041 H   0  0  0  0  0  0  0  0  0  0  0  0
   -5.0429   19.9493  -33.6835 H   0  0  0  0  0  0  0  0  0  0  0  0
   -6.6994   19.2246  -33.9439 H   0  0  0  0  0  0  0  0  0  0  0  0
   -6.0176   21.7807  -32.4463 H   0  0  0  0  0  0  0  0  0  0  0  0
   -6.9000   21.5802  -34.0414 H   0  0  0  0  0  0  0  0  0  0  0  0
   -8.9868   21.5491  -30.5257 H   0  0  0  0  0  0  0  0  0  0  0  0
   -7.2353   21.1166  -30.3856 H   0  0  0  0  0  0  0  0  0  0  0  0
   -7.1592   23.4075  -31.9476 H   0  0  0  0  0  0  0  0  0  0  0  0
   -8.5179   23.7520  -30.8157 H   0  0  0  0  0  0  0  0  0  0  0  0
   -4.8288   22.7017  -29.1049 H   0  0  0  0  0  0  0  0  0  0  0  0
   -5.6040   21.6745  -30.3782 H   0  0  0  0  0  0  0  0  0  0  0  0
   -3.5436   22.7914  -31.2145 H   0  0  0  0  0  0  0  0  0  0  0  0
   -5.0211   23.3275  -32.0979 H   0  0  0  0  0  0  0  0  0  0  0  0
   -5.1790   26.4848  -30.5378 H   0  0  0  0  0  0  0  0  0  0  0  0
   -5.8854   25.3580  -31.7649 H   0  0  0  0  0  0  0  0  0  0  0  0
   -5.9596   25.0519  -28.7213 H   0  0  0  0  0  0  0  0  0  0  0  0
   -7.3450   25.4122  -29.8405 H   0  0  0  0  0  0  0  0  0  0  0  0
   -9.8054   20.0321  -32.4077 H   0  0  0  0  0  0  0  0  0  0  0  0
   -8.4586   19.4797  -33.5395 H   0  0  0  0  0  0  0  0  0  0  0  0
   -8.2777   19.1090  -30.5501 H   0  0  0  0  0  0  0  0  0  0  0  0
   -9.1184   17.9187  -31.6624 H   0  0  0  0  0  0  0  0  0  0  0  0
  1  2  2  0
  2  3  1  0
  3  4  2  0
  4  5  1  0
  5  6  1  0
  6  7  1  0
  7  8  1  0
  8  9  1  0
  9 10  1  0
 10 11  1  0
 11 12  1  0
 12 13  1  0
 13 14  1  0
 14 15  1  0
 15 16  1  0
 16 17  1  0
 17 18  1  0
 18 19  1  0
 11 20  1  0
 20 21  1  0
  5 22  2  0
 22  1  1  0
 21  7  1  0
 19 14  1  0
  1 23  1  0
  2 24  1  0
  3 25  1  0
  4 26  1  0
  6 27  1  0
  6 28  1  0
  8 29  1  0
  8 30  1  0
  9 31  1  0
  9 32  1  0
 10 33  1  0
 10 34  1  0
 12 35  1  0
 12 36  1  0
 13 37  1  0
 13 38  1  0
 15 39  1  0
 15 40  1  0
 16 41  1  0
 16 42  1  0
 18 43  1  0
 18 44  1  0
 19 45  1  0
 19 46  1  0
 20 47  1  0
 20 48  1  0
 21 49  1  0
 21 50  1  0
M  CHG  1   3   1
M  END
>  <UniqueID>  (10) 
10

>  <SMILES>  (10) 
c1c[nH+]cc(CN2CCCN(CCN3CCOCC3)CC2)n1

>  <Energy>  (10) 
70.671303781869

>  <Genealogy>  (10) 
c1c[nH+]cc(CN2CCCN(CCN3CCOCC3)CC2)n1 (protonated)
c1c[nH+]cc(CN2CCCN(CCN3CCOCC3)CC2)n1 (3D coordinates assigned)
c1c[nH+]cc(CN2CCCN(CCN3CCOCC3)CC2)n1 (nonaromatic ring conformer: 70.671303781869 kcal/mol)

>  <smiles>  (10) 
c1cnc(CN2CCCN(CCN3CCOCC3)CC2)cn1

>  <score_type>  (10) 
oracle

>  <origin>  (10) 
adg

>  <m_score__min__energy>  (10) 
-5.0899999999999999

>  <m_primary>  (10) 
energy

$$$$
10:0
     RDKit          3D

 35 37  0  0  0  0  0  0  0  0999 V2000
   -0.7390   27.0390  -24.1880 C   0  0  0  0  0  0  0  0  0  0  0  0
   -0.2860   27.0360  -25.6450 C   0  0  0  0  0  0  0  0  0  0  0  0
   -1.1950   26.1800  -26.4840 C   0  0  0  0  0  0  0  0  0  0  0  0
   -2.3940   25.6840  -25.9480 C   0  0  0  0  0  0  0  0  0  0  0  0
   -3.2250   24.8630  -26.7170 C   0  0  0  0  0  0  0  0  0  0  0  0
   -2.8690   24.5270  -28.0360 C   0  0  0  0  0  0  0  0  0  0  0  0
   -3.6950   23.6640  -28.8380 N   0  0  0  0  0  0  0  0  0  0  0  0
   -4.3570   24.0850  -30.0420 C   0  0  0  0  0  0  0  0  0  0  0  0
   -3.9700   25.1210  -30.6460 O   0  0  0  0  0  0  0  0  0  0  0  0
   -5.4630   23.2940  -30.6120 C   0  0  0  0  0  0  0  0  0  0  0  0
   -5.3430   22.0990  -31.3280 C   0  0  0  0  0  0  0  0  0  0  0  0
   -6.5850   21.5860  -31.7200 C   0  0  0  0  0  0  0  0  0  0  0  0
   -6.7990   20.4100  -32.4440 C   0  0  0  0  0  0  0  0  0  0  0  0
   -8.1190   20.0370  -32.7550 C   0  0  0  0  0  0  0  0  0  0  0  0
   -9.2020   20.8360  -32.3400 C   0  0  0  0  0  0  0  0  0  0  0  0
   -8.9770   22.0150  -31.6120 C   0  0  0  0  0  0  0  0  0  0  0  0
   -7.6600   22.3630  -31.3180 C   0  0  0  0  0  0  0  0  0  0  0  0
   -7.1020   23.6980  -30.4670 S   0  0  0  0  0  0  0  0  0  0  0  0
   -1.6530   24.9960  -28.5550 C   0  0  0  0  0  0  0  0  0  0  0  0
   -0.8230   25.8170  -27.7880 C   0  0  0  0  0  0  0  0  0  0  0  0
    0.1424   27.0332  -23.5300 H   0  0  0  0  0  0  0  0  0  0  0  0
   -1.3371   27.9411  -23.9918 H   0  0  0  0  0  0  0  0  0  0  0  0
   -1.3490   26.1449  -23.9918 H   0  0  0  0  0  0  0  0  0  0  0  0
   -0.3032   28.0661  -26.0304 H   0  0  0  0  0  0  0  0  0  0  0  0
    0.7331   26.6253  -25.6971 H   0  0  0  0  0  0  0  0  0  0  0  0
   -2.6813   25.9424  -24.9181 H   0  0  0  0  0  0  0  0  0  0  0  0
   -4.1620   24.4779  -26.2883 H   0  0  0  0  0  0  0  0  0  0  0  0
   -3.7270   22.6510  -28.5850 H   0  0  0  0  0  0  0  0  0  0  0  0
   -4.3814   21.6166  -31.5573 H   0  0  0  0  0  0  0  0  0  0  0  0
   -5.9507   19.7875  -32.7648 H   0  0  0  0  0  0  0  0  0  0  0  0
   -8.3066   19.1156  -33.3258 H   0  0  0  0  0  0  0  0  0  0  0  0
  -10.2304   20.5344  -32.5878 H   0  0  0  0  0  0  0  0  0  0  0  0
   -9.8160   22.6459  -31.2831 H   0  0  0  0  0  0  0  0  0  0  0  0
   -1.3506   24.7149  -29.5746 H   0  0  0  0  0  0  0  0  0  0  0  0
    0.1265   26.1807  -28.2078 H   0  0  0  0  0  0  0  0  0  0  0  0
  1  2  1  0
  2  3  1  0
  3  4  2  0
  4  5  1  0
  5  6  2  0
  6  7  1  0
  7  8  1  0
  8  9  2  0
  8 10  1  0
 10 11  2  0
 11 12  1  0
 12 13  2  0
 13 14  1  0
 14 15  2  0
 15 16  1  0
 16 17  2  0
 17 18  1  0
  6 19  1  0
 19 20  2  0
 20  3  1  0
 18 10  1  0
 17 12  1  0
  1 21  1  0
  1 22  1  0
  1 23  1  0
  2 24  1  0
  2 25  1  0
  4 26  1  0
  5 27  1  0
  7 28  1  0
 11 29  1  0
 13 30  1  0
 14 31  1  0
 15 32  1  0
 16 33  1  0
 19 34  1  0
 20 35  1  0
M  END
>  <UniqueID>  (11) 
11

>  <SMILES>  (11) 
CCc1ccc(NC(=O)c2cc3ccccc3s2)cc1

>  <Energy>  (11) 
68.19539987386949

>  <Genealogy>  (11) 
CCc1ccc(NC(=O)c2cc3ccccc3s2)cc1 (3D coordinates assigned)
CCc1ccc(NC(=O)c2cc3ccccc3s2)cc1 (optimized conformer: 68.19539987386949 kcal/mol)

>  <smiles>  (11) 
CCc1ccc(NC(=O)c2cc3ccccc3s2)cc1

>  <score_type>  (11) 
oracle

>  <origin>  (11) 
adg

>  <m_score__min__energy>  (11) 
-8.5199999999999996

>  <m_primary>  (11) 
energy

$$$$
11:0
     RDKit          3D

 25 26  0  0  0  0  0  0  0  0999 V2000
   -4.5620   24.2080  -28.4680 C   0  0  0  0  0  0  0  0  0  0  0  0
   -4.9990   24.5750  -30.1520 S   0  0  0  0  0  0  0  0  0  0  0  0
   -6.2130   25.4610  -30.1740 O   0  0  0  0  0  0  0  0  0  0  0  0
   -3.8640   25.2960  -30.8220 O   0  0  0  0  0  0  0  0  0  0  0  0
   -5.3410   23.0750  -31.0080 C   0  0  0  0  0  0  0  0  0  0  0  0
   -6.5470   22.9080  -31.6910 C   0  0  0  0  0  0  0  0  0  0  0  0
   -6.8120   21.7090  -32.3540 C   0  0  0  0  0  0  0  0  0  0  0  0
   -5.8650   20.6710  -32.3230 C   0  0  0  0  0  0  0  0  0  0  0  0
   -6.1230   19.4230  -32.9980 N   0  0  0  0  0  0  0  0  0  0  0  0
   -6.8310   18.3790  -32.5310 C   0  0  0  0  0  0  0  0  0  0  0  0
   -6.8300   17.3960  -33.4930 C   0  0  0  0  0  0  0  0  0  0  0  0
   -6.1240   17.8120  -34.5640 N   0  0  0  0  0  0  0  0  0  0  0  0
   -5.7090   19.0510  -34.2290 C   0  0  0  0  0  0  0  0  0  0  0  0
   -4.6950   20.8570  -31.6390 N   0  0  0  0  0  0  0  0  0  0  0  0
   -4.4210   22.0210  -30.9890 C   0  0  0  0  0  0  0  0  0  0  0  0
   -5.2240   24.7640  -27.7879 H   0  0  0  0  0  0  0  0  0  0  0  0
   -4.6734   23.1287  -28.2872 H   0  0  0  0  0  0  0  0  0  0  0  0
   -3.5182   24.5043  -28.2872 H   0  0  0  0  0  0  0  0  0  0  0  0
   -7.2879   23.7209  -31.7066 H   0  0  0  0  0  0  0  0  0  0  0  0
   -7.7584   21.5768  -32.8988 H   0  0  0  0  0  0  0  0  0  0  0  0
   -7.3251   18.3214  -31.5499 H   0  0  0  0  0  0  0  0  0  0  0  0
   -7.3288   16.4198  -33.4026 H   0  0  0  0  0  0  0  0  0  0  0  0
   -5.0999   19.6889  -34.8864 H   0  0  0  0  0  0  0  0  0  0  0  0
   -3.9720   20.1050  -31.6180 H   0  0  0  0  0  0  0  0  0  0  0  0
   -3.4711   22.1337  -30.4458 H   0  0  0  0  0  0  0  0  0  0  0  0
  1  2  1  0
  2  3  2  0
  2  4  2  0
  2  5  1  0
  5  6  2  0
  6  7  1  0
  7  8  2  0
  8  9  1  0
  9 10  1  0
 10 11  2  0
 11 12  1  0
 12 13  2  0
  8 14  1  0
 14 15  2  0
 15  5  1  0
 13  9  1  0
  1 16  1  0
  1 17  1  0
  1 18  1  0
  6 19  1  0
  7 20  1  0
 10 21  1  0
 11 22  1  0
 13 23  1  0
 14 24  1  0
 15 25  1  0
M  CHG  1  14   1
M  END
>  <UniqueID>  (12) 
12

>  <SMILES>  (12) 
CS(=O)(=O)c1ccc(-n2ccnc2)[nH+]c1

>  <Energy>  (12) 
54.97206697395509

>  <Genealogy>  (12) 
CS(=O)(=O)c1ccc(-n2ccnc2)[nH+]c1 (protonated)
CS(=O)(=O)c1ccc(-n2ccnc2)[nH+]c1 (3D coordinates assigned)
CS(=O)(=O)c1ccc(-n2ccnc2)[nH+]c1 (optimized conformer: 54.97206697395509 kcal/mol)

>  <smiles>  (12) 
CS(=O)(=O)c1ccc(-n2ccnc2)nc1

>  <score_type>  (12) 
oracle

>  <origin>  (12) 
adg

>  <m_score__min__energy>  (12) 
-5.7400000000000002

>  <m_primary>  (12) 
energy

$$$$
12:0
     RDKit          3D

 29 29  0  0  0  0  0  0  0  0999 V2000
   -7.2920   19.2210  -32.1460 C   0  0  0  0  0  0  0  0  0  0  0  0
   -7.3730   20.4930  -32.7830 O   0  0  0  0  0  0  0  0  0  0  0  0
   -6.8970   21.6910  -32.2270 C   0  0  0  0  0  0  0  0  0  0  0  0
   -7.7460   22.5910  -31.5550 C   0  0  0  0  0  0  0  0  0  0  0  0
   -7.2370   23.7740  -31.0150 C   0  0  0  0  0  0  0  0  0  0  0  0
   -5.8760   24.0790  -31.1390 C   0  0  0  0  0  0  0  0  0  0  0  0
   -5.3170   25.3410  -30.5400 C   0  0  0  0  0  0  0  0  0  0  0  0
   -3.8590   25.2960  -30.5320 N   0  0  0  0  0  0  0  0  0  0  0  0
   -3.0880   24.8410  -29.4160 C   0  0  0  0  0  0  0  0  0  0  0  0
   -3.6410   23.7850  -28.5190 C   0  0  0  0  0  0  0  0  0  0  0  0
   -1.9270   25.2890  -29.2130 O   0  0  0  0  0  0  0  0  0  0  0  0
   -5.0250   23.1830  -31.8030 C   0  0  0  0  0  0  0  0  0  0  0  0
   -5.5310   21.9880  -32.3500 C   0  0  0  0  0  0  0  0  0  0  0  0
   -4.7080   21.0700  -33.0230 O   0  0  0  0  0  0  0  0  0  0  0  0
   -3.2980   21.2030  -33.1650 C   0  0  0  0  0  0  0  0  0  0  0  0
   -7.3006   19.3564  -31.0544 H   0  0  0  0  0  0  0  0  0  0  0  0
   -8.1528   18.6052  -32.4459 H   0  0  0  0  0  0  0  0  0  0  0  0
   -6.3601   18.7194  -32.4459 H   0  0  0  0  0  0  0  0  0  0  0  0
   -8.8170   22.3609  -31.4547 H   0  0  0  0  0  0  0  0  0  0  0  0
   -7.9083   24.4694  -30.4898 H   0  0  0  0  0  0  0  0  0  0  0  0
   -5.6500   26.2037  -31.1357 H   0  0  0  0  0  0  0  0  0  0  0  0
   -5.6774   25.4355  -29.5050 H   0  0  0  0  0  0  0  0  0  0  0  0
   -3.4876   24.0779  -27.4699 H   0  0  0  0  0  0  0  0  0  0  0  0
   -4.7172   23.6659  -28.7129 H   0  0  0  0  0  0  0  0  0  0  0  0
   -3.1259   22.8326  -28.7129 H   0  0  0  0  0  0  0  0  0  0  0  0
   -3.9540   23.4157  -31.8972 H   0  0  0  0  0  0  0  0  0  0  0  0
   -2.8318   21.2470  -32.1697 H   0  0  0  0  0  0  0  0  0  0  0  0
   -2.9019   20.3382  -33.7175 H   0  0  0  0  0  0  0  0  0  0  0  0
   -3.0706   22.1266  -33.7175 H   0  0  0  0  0  0  0  0  0  0  0  0
  1  2  1  0
  2  3  1  0
  3  4  2  0
  4  5  1  0
  5  6  2  0
  6  7  1  0
  7  8  1  0
  8  9  1  0
  9 10  1  0
  9 11  2  0
  6 12  1  0
 12 13  2  0
 13 14  1  0
 14 15  1  0
 13  3  1  0
  1 16  1  0
  1 17  1  0
  1 18  1  0
  4 19  1  0
  5 20  1  0
  7 21  1  0
  7 22  1  0
 10 23  1  0
 10 24  1  0
 10 25  1  0
 12 26  1  0
 15 27  1  0
 15 28  1  0
 15 29  1  0
M  CHG  1   8  -1
M  END
>  <UniqueID>  (13) 
13

>  <SMILES>  (13) 
COc1ccc(C[N-]C(C)=O)cc1OC

>  <Energy>  (13) 
21.688134569749774

>  <Genealogy>  (13) 
COc1ccc(C[N-]C(C)=O)cc1OC (protonated)
COc1ccc(C[N-]C(C)=O)cc1OC (3D coordinates assigned)
COc1ccc(C[N-]C(C)=O)cc1OC (optimized conformer: 21.688134569749774 kcal/mol)

>  <smiles>  (13) 
COc1ccc(CNC(C)=O)cc1OC

>  <score_type>  (13) 
oracle

>  <origin>  (13) 
adg

>  <m_score__min__energy>  (13) 
-7.25

>  <m_primary>  (13) 
energy

$$$$
13:0
     RDKit          3D

 56 59  0  0  0  0  0  0  0  0999 V2000
   -5.9450   16.1080  -34.1130 C   0  0  0  0  0  0  0  0  0  0  0  0
   -6.4950   17.4780  -34.1960 N   0  0  0  0  0  0  0  0  0  0  0  0
   -5.4070   18.4630  -34.4170 C   0  0  0  0  0  0  0  0  0  0  0  0
   -5.7580   19.8540  -33.8800 C   0  0  0  0  0  0  0  0  0  0  0  0
   -6.0280   19.7580  -32.4400 N   0  0  0  0  0  0  0  0  0  0  0  0
   -5.6640   20.8360  -31.5530 C   0  0  0  0  0  0  0  0  0  0  0  0
   -6.5510   21.8930  -31.3210 C   0  0  0  0  0  0  0  0  0  0  0  0
   -6.1970   22.9390  -30.4730 C   0  0  0  0  0  0  0  0  0  0  0  0
   -4.9470   22.9670  -29.8280 C   0  0  0  0  0  0  0  0  0  0  0  0
   -4.0180   21.9130  -30.0860 C   0  0  0  0  0  0  0  0  0  0  0  0
   -4.4140   20.8490  -30.9220 C   0  0  0  0  0  0  0  0  0  0  0  0
   -2.6500   21.7860  -29.4340 C   0  0  0  0  0  0  0  0  0  0  0  0
   -2.0460   23.1030  -28.9320 C   0  0  0  0  0  0  0  0  0  0  0  0
   -2.6280   23.4930  -27.5600 C   0  0  1  0  0  0  0  0  0  0  0  0
   -1.7500   24.4060  -26.8010 N   0  0  0  0  0  0  0  0  0  0  0  0
   -0.8360   25.5890  -27.7080 S   0  0  0  0  0  0  0  0  0  0  0  0
    0.4900   25.0190  -28.1280 O   0  0  0  0  0  0  0  0  0  0  0  0
   -1.6090   25.9190  -28.9530 O   0  0  0  0  0  0  0  0  0  0  0  0
   -0.6190   27.0890  -26.8130 C   0  0  0  0  0  0  0  0  0  0  0  0
   -0.8260   27.1350  -25.4260 C   0  0  0  0  0  0  0  0  0  0  0  0
   -0.6720   28.3400  -24.7340 C   0  0  0  0  0  0  0  0  0  0  0  0
   -0.2990   29.4990  -25.4200 C   0  0  0  0  0  0  0  0  0  0  0  0
   -0.1540   30.6680  -24.7480 F   0  0  0  0  0  0  0  0  0  0  0  0
   -0.0730   29.4530  -26.7980 C   0  0  0  0  0  0  0  0  0  0  0  0
   -0.2280   28.2500  -27.4930 C   0  0  0  0  0  0  0  0  0  0  0  0
   -4.1160   23.9140  -27.5890 C   0  0  0  0  0  0  0  0  0  0  0  0
   -4.6280   24.2040  -29.0070 C   0  0  0  0  0  0  0  0  0  0  0  0
   -6.6620   18.5410  -31.9150 C   0  0  0  0  0  0  0  0  0  0  0  0
   -7.3810   17.7770  -33.0400 C   0  0  0  0  0  0  0  0  0  0  0  0
   -5.8303   15.8223  -33.0570 H   0  0  0  0  0  0  0  0  0  0  0  0
   -6.6313   15.4066  -34.6101 H   0  0  0  0  0  0  0  0  0  0  0  0
   -4.9643   16.0759  -34.6101 H   0  0  0  0  0  0  0  0  0  0  0  0
   -4.4995   18.1067  -33.9075 H   0  0  0  0  0  0  0  0  0  0  0  0
   -5.2523   18.5526  -35.5024 H   0  0  0  0  0  0  0  0  0  0  0  0
   -4.9147   20.5390  -34.0520 H   0  0  0  0  0  0  0  0  0  0  0  0
   -6.6481   20.2385  -34.3995 H   0  0  0  0  0  0  0  0  0  0  0  0
   -7.5352   21.8976  -31.8122 H   0  0  0  0  0  0  0  0  0  0  0  0
   -6.9091   23.7602  -30.3039 H   0  0  0  0  0  0  0  0  0  0  0  0
   -3.7236   20.0078  -31.0826 H   0  0  0  0  0  0  0  0  0  0  0  0
   -2.7431   21.1044  -28.5757 H   0  0  0  0  0  0  0  0  0  0  0  0
   -1.9706   21.4146  -30.2153 H   0  0  0  0  0  0  0  0  0  0  0  0
   -0.9561   22.9862  -28.8398 H   0  0  0  0  0  0  0  0  0  0  0  0
   -2.2903   23.8967  -29.6534 H   0  0  0  0  0  0  0  0  0  0  0  0
   -2.6431   22.5583  -26.9802 H   0  0  0  0  0  0  0  0  0  0  0  0
   -1.1098   26.2218  -24.8824 H   0  0  0  0  0  0  0  0  0  0  0  0
   -0.8446   28.3759  -23.6482 H   0  0  0  0  0  0  0  0  0  0  0  0
    0.2271   30.3641  -27.3364 H   0  0  0  0  0  0  0  0  0  0  0  0
   -0.0425   28.2148  -28.5767 H   0  0  0  0  0  0  0  0  0  0  0  0
   -4.7190   23.1014  -27.1576 H   0  0  0  0  0  0  0  0  0  0  0  0
   -4.2070   24.8441  -27.0089 H   0  0  0  0  0  0  0  0  0  0  0  0
   -5.5443   24.8070  -28.9245 H   0  0  0  0  0  0  0  0  0  0  0  0
   -3.8145   24.7260  -29.5321 H   0  0  0  0  0  0  0  0  0  0  0  0
   -5.8905   17.8930  -31.4736 H   0  0  0  0  0  0  0  0  0  0  0  0
   -7.4008   18.8268  -31.1518 H   0  0  0  0  0  0  0  0  0  0  0  0
   -7.7592   16.8276  -32.6331 H   0  0  0  0  0  0  0  0  0  0  0  0
   -8.1953   18.4194  -33.4064 H   0  0  0  0  0  0  0  0  0  0  0  0
  1  2  1  0
  2  3  1  0
  3  4  1  0
  4  5  1  0
  5  6  1  0
  6  7  2  0
  7  8  1  0
  8  9  2  0
  9 10  1  0
 10 11  2  0
 10 12  1  0
 12 13  1  0
 13 14  1  0
 14 15  1  0
 15 16  1  0
 16 17  2  0
 16 18  2  0
 16 19  1  0
 19 20  2  0
 20 21  1  0
 21 22  2  0
 22 23  1  0
 22 24  1  0
 24 25  2  0
 14 26  1  0
 26 27  1  0
  5 28  1  0
 28 29  1  0
 29  2  1  0
 11  6  1  0
 25 19  1  0
 27  9  1  0
  1 30  1  0
  1 31  1  0
  1 32  1  0
  3 33  1  0
  3 34  1  0
  4 35  1  0
  4 36  1  0
  7 37  1  0
  8 38  1  0
 11 39  1  0
 12 40  1  0
 12 41  1  0
 13 42  1  0
 13 43  1  0
 14 44  1  1
 20 45  1  0
 21 46  1  0
 24 47  1  0
 25 48  1  0
 26 49  1  0
 26 50  1  0
 27 51  1  0
 27 52  1  0
 28 53  1  0
 28 54  1  0
 29 55  1  0
 29 56  1  0
M  CHG  1  15  -1
M  END
>  <UniqueID>  (14) 
14

>  <SMILES>  (14) 
CN1CCN(c2ccc3c(c2)CC[C@@H]([N-]S(=O)(=O)c2ccc(F)cc2)CC3)CC1

>  <Energy>  (14) 
83.14202850143961

>  <Genealogy>  (14) 
CN1CCN(c2ccc3c(c2)CCC([N-]S(=O)(=O)c2ccc(F)cc2)CC3)CC1 (protonated)
CN1CCN(c2ccc3c(c2)CC[C@@H]([N-]S(=O)(=O)c2ccc(F)cc2)CC3)CC1 (chirality)
CN1CCN(c2ccc3c(c2)CC[C@@H]([N-]S(=O)(=O)c2ccc(F)cc2)CC3)CC1 (3D coordinates assigned)
CN1CCN(c2ccc3c(c2)CC[C@@H]([N-]S(=O)(=O)c2ccc(F)cc2)CC3)CC1 (nonaromatic ring conformer: 83.14202850143961 kcal/mol)

>  <smiles>  (14) 
CN1CCN(c2ccc3c(c2)CCC(NS(=O)(=O)c2ccc(F)cc2)CC3)CC1

>  <score_type>  (14) 
oracle

>  <origin>  (14) 
adg

>  <m_score__min__energy>  (14) 
-8.8399999999999999

>  <m_primary>  (14) 
energy

$$$$
14:0
     RDKit          3D

 26 28  0  0  0  0  0  0  0  0999 V2000
   -2.3160   24.8090  -29.3670 N   0  0  0  0  0  0  0  0  0  0  0  0
   -3.3190   24.1640  -29.8530 C   0  0  0  0  0  0  0  0  0  0  0  0
   -4.5420   24.6350  -29.5580 N   0  0  0  0  0  0  0  0  0  0  0  0
   -5.6480   24.0150  -30.0290 C   0  0  0  0  0  0  0  0  0  0  0  0
   -6.7700   24.5270  -29.7020 N   0  0  0  0  0  0  0  0  0  0  0  0
   -5.4760   22.9020  -30.8080 C   0  0  0  0  0  0  0  0  0  0  0  0
   -4.2140   22.4350  -31.0990 C   0  0  0  0  0  0  0  0  0  0  0  0
   -3.9570   21.3290  -31.8700 C   0  0  0  0  0  0  0  0  0  0  0  0
   -5.0340   20.6480  -32.3830 C   0  0  0  0  0  0  0  0  0  0  0  0
   -6.3090   21.1140  -32.0930 C   0  0  0  0  0  0  0  0  0  0  0  0
   -7.3470   20.3660  -32.6530 C   0  0  0  0  0  0  0  0  0  0  0  0
   -8.6160   20.7970  -32.3880 C   0  0  0  0  0  0  0  0  0  0  0  0
   -8.9130   21.8890  -31.6270 C   0  0  0  0  0  0  0  0  0  0  0  0
   -7.8390   22.6140  -31.0830 C   0  0  0  0  0  0  0  0  0  0  0  0
   -6.5420   22.2270  -31.3160 C   0  0  0  0  0  0  0  0  0  0  0  0
   -3.1310   23.0860  -30.6070 N   0  0  0  0  0  0  0  0  0  0  0  0
   -1.9990   25.6730  -29.8510 H   0  0  0  0  0  0  0  0  0  0  0  0
   -4.6160   25.5030  -28.9490 H   0  0  0  0  0  0  0  0  0  0  0  0
   -7.0020   24.6460  -28.7040 H   0  0  0  0  0  0  0  0  0  0  0  0
   -2.9265   21.0000  -32.0698 H   0  0  0  0  0  0  0  0  0  0  0  0
   -4.8896   19.7548  -33.0086 H   0  0  0  0  0  0  0  0  0  0  0  0
   -7.1534   19.4785  -33.2734 H   0  0  0  0  0  0  0  0  0  0  0  0
   -9.4529   20.2259  -32.8164 H   0  0  0  0  0  0  0  0  0  0  0  0
   -9.9550   22.1913  -31.4456 H   0  0  0  0  0  0  0  0  0  0  0  0
   -8.0393   23.5009  -30.4640 H   0  0  0  0  0  0  0  0  0  0  0  0
   -2.1710   22.7500  -30.8150 H   0  0  0  0  0  0  0  0  0  0  0  0
  1  2  2  3
  2  3  1  0
  3  4  1  0
  4  5  2  3
  4  6  1  0
  6  7  2  0
  7  8  1  0
  8  9  2  0
  9 10  1  0
 10 11  2  0
 11 12  1  0
 12 13  2  0
 13 14  1  0
 14 15  2  0
  7 16  1  0
 16  2  1  0
 15  6  1  0
 15 10  1  0
  1 17  1  0
  3 18  1  0
  5 19  1  0
  8 20  1  0
  9 21  1  0
 11 22  1  0
 12 23  1  0
 13 24  1  0
 14 25  1  0
 16 26  1  0
M  END
>  <smiles>  (15) 
N=c1[nH]c(=N)c2c(ccc3ccccc32)[nH]1

>  <score_type>  (15) 
oracle

>  <origin>  (15) 
adg

>  <m_score__min__energy>  (15) 
-7.1500000000000004

>  <m_primary>  (15) 
energy

$$$$
15:0
     RDKit          3D

 44 46  0  0  0  0  0  0  0  0999 V2000
   -0.9110   26.2410  -27.8990 C   0  0  0  0  0  0  0  0  0  0  0  0
   -1.6720   24.9220  -27.8400 C   0  0  0  0  0  0  0  0  0  0  0  0
   -2.7500   24.9130  -28.8270 N   0  0  0  0  0  0  0  0  0  0  0  0
   -2.9110   23.8950  -29.8350 C   0  0  0  0  0  0  0  0  0  0  0  0
   -1.9170   22.9160  -30.0200 C   0  0  0  0  0  0  0  0  0  0  0  0
   -2.1020   21.8730  -30.9280 C   0  0  0  0  0  0  0  0  0  0  0  0
   -3.2880   21.7760  -31.6700 C   0  0  0  0  0  0  0  0  0  0  0  0
   -3.5120   20.6740  -32.6340 C   0  0  0  0  0  0  0  0  0  0  0  0
   -2.9640   20.5740  -33.8610 N   0  0  0  0  0  0  0  0  0  0  0  0
   -3.4050   19.4520  -34.4040 N   0  0  0  0  0  0  0  0  0  0  0  0
   -4.2230   18.8970  -33.4860 C   0  0  0  0  0  0  0  0  0  0  0  0
   -4.9290   17.6020  -33.6420 C   0  0  0  0  0  0  0  0  0  0  0  0
   -4.1470   16.4750  -33.9530 C   0  0  0  0  0  0  0  0  0  0  0  0
   -4.7390   15.2360  -34.1920 C   0  0  0  0  0  0  0  0  0  0  0  0
   -6.1220   15.1020  -34.1290 C   0  0  0  0  0  0  0  0  0  0  0  0
   -6.9190   16.1990  -33.8010 C   0  0  0  0  0  0  0  0  0  0  0  0
   -6.3420   17.4570  -33.5110 C   0  0  0  0  0  0  0  0  0  0  0  0
   -7.2150   18.6370  -33.1020 C   0  0  0  0  0  0  0  0  0  0  0  0
   -7.9490   18.4770  -31.7680 C   0  0  0  0  0  0  0  0  0  0  0  0
   -4.2850   19.6380  -32.4010 O   0  0  0  0  0  0  0  0  0  0  0  0
   -4.2830   22.7500  -31.4920 C   0  0  0  0  0  0  0  0  0  0  0  0
   -4.1030   23.8170  -30.5940 C   0  0  0  0  0  0  0  0  0  0  0  0
   -5.1250   24.8240  -30.4940 N   0  0  0  0  0  0  0  0  0  0  0  0
   -4.8230   26.0350  -30.4670 O   0  0  0  0  0  0  0  0  0  0  0  0
   -6.4500   24.4760  -30.6260 O   0  0  0  0  0  0  0  0  0  0  0  0
   -0.7078   26.5931  -26.8769 H   0  0  0  0  0  0  0  0  0  0  0  0
    0.0400   26.0921  -28.4314 H   0  0  0  0  0  0  0  0  0  0  0  0
   -1.5159   26.9898  -28.4314 H   0  0  0  0  0  0  0  0  0  0  0  0
   -0.9795   24.0939  -28.0516 H   0  0  0  0  0  0  0  0  0  0  0  0
   -2.1055   24.8040  -26.8360 H   0  0  0  0  0  0  0  0  0  0  0  0
   -3.4760   25.6610  -28.7440 H   0  0  0  0  0  0  0  0  0  0  0  0
   -0.9830   22.9738  -29.4418 H   0  0  0  0  0  0  0  0  0  0  0  0
   -1.3110   21.1206  -31.0630 H   0  0  0  0  0  0  0  0  0  0  0  0
   -2.3070   21.2320  -34.3330 H   0  0  0  0  0  0  0  0  0  0  0  0
   -3.0528   16.5728  -34.0084 H   0  0  0  0  0  0  0  0  0  0  0  0
   -4.1123   14.3640  -34.4305 H   0  0  0  0  0  0  0  0  0  0  0  0
   -6.5887   14.1282  -34.3384 H   0  0  0  0  0  0  0  0  0  0  0  0
   -8.0124   16.0837  -33.7675 H   0  0  0  0  0  0  0  0  0  0  0  0
   -6.5722   19.5269  -33.0315 H   0  0  0  0  0  0  0  0  0  0  0  0
   -7.9970   18.7177  -33.8714 H   0  0  0  0  0  0  0  0  0  0  0  0
   -7.2419   18.6311  -30.9396 H   0  0  0  0  0  0  0  0  0  0  0  0
   -8.7575   19.2200  -31.7030 H   0  0  0  0  0  0  0  0  0  0  0  0
   -8.3750   17.4649  -31.7030 H   0  0  0  0  0  0  0  0  0  0  0  0
   -5.2194   22.6774  -32.0647 H   0  0  0  0  0  0  0  0  0  0  0  0
  1  2  1  0
  2  3  1  0
  3  4  1  0
  4  5  2  0
  5  6  1  0
  6  7  2  0
  7  8  1  0
  8  9  2  0
  9 10  1  0
 10 11  2  0
 11 12  1  0
 12 13  2  0
 13 14  1  0
 14 15  2  0
 15 16  1  0
 16 17  2  0
 17 18  1  0
 18 19  1  0
 11 20  1  0
  7 21  1  0
 21 22  2  0
 22 23  1  0
 23 24  2  0
 23 25  1  0
 22  4  1  0
 20  8  1  0
 17 12  1  0
  1 26  1  0
  1 27  1  0
  1 28  1  0
  2 29  1  0
  2 30  1  0
  3 31  1  0
  5 32  1  0
  6 33  1  0
  9 34  1  0
 13 35  1  0
 14 36  1  0
 15 37  1  0
 16 38  1  0
 18 39  1  0
 18 40  1  0
 19 41  1  0
 19 42  1  0
 19 43  1  0
 21 44  1  0
M  CHG  3   9   1  23   1  25  -1
M  END
>  <UniqueID>  (16) 
15

>  <SMILES>  (16) 
CCNc1ccc(-c2[nH+]nc(-c3ccccc3CC)o2)cc1[N+](=O)[O-]

>  <Energy>  (16) 
91.71806736570954

>  <Genealogy>  (16) 
CCNc1ccc(-c2[nH+]nc(-c3ccccc3CC)o2)cc1[N+](=O)[O-] (protonated)
CCNc1ccc(-c2[nH+]nc(-c3ccccc3CC)o2)cc1[N+](=O)[O-] (3D coordinates assigned)
CCNc1ccc(-c2[nH+]nc(-c3ccccc3CC)o2)cc1[N+](=O)[O-] (optimized conformer: 91.71806736570954 kcal/mol)

>  <smiles>  (16) 
CCNc1ccc(-c2nnc(-c3ccccc3CC)o2)cc1[N+](=O)[O-]

>  <score_type>  (16) 
oracle

>  <origin>  (16) 
adg

>  <m_score__min__energy>  (16) 
-7.6399999999999997

>  <m_primary>  (16) 
energy

$$$$
16:0
     RDKit          3D

 57 60  0  0  0  0  0  0  0  0999 V2000
   -5.3640   13.2760  -34.5960 C   0  0  0  0  0  0  0  0  0  0  0  0
   -5.0250   14.7010  -34.5990 N   0  0  0  0  0  0  0  0  0  0  0  0
   -3.7500   15.1550  -35.1680 C   0  0  0  0  0  0  0  0  0  0  0  0
   -6.0190   15.6590  -34.1790 C   0  0  0  0  0  0  0  0  0  0  0  0
   -7.2420   15.3620  -34.2630 O   0  0  0  0  0  0  0  0  0  0  0  0
   -5.6440   16.9920  -33.6590 C   0  0  0  0  0  0  0  0  0  0  0  0
   -4.2920   17.3310  -33.5120 C   0  0  0  0  0  0  0  0  0  0  0  0
   -3.9060   18.5950  -33.0320 C   0  0  0  0  0  0  0  0  0  0  0  0
   -2.4180   18.9060  -32.9020 C   0  0  1  0  0  0  0  0  0  0  0  0
   -1.5520   17.6400  -33.0080 C   0  0  0  0  0  0  0  0  0  0  0  0
   -0.0560   17.9510  -32.7720 C   0  0  0  0  0  0  0  0  0  0  0  0
    0.3000   19.3650  -33.0140 N   0  0  0  0  0  0  0  0  0  0  0  0
   -0.4210   19.9310  -34.1640 C   0  0  0  0  0  0  0  0  0  0  0  0
   -1.9480   19.9980  -33.9040 C   0  0  2  0  0  0  0  0  0  0  0  0
   -2.3240   21.2750  -33.4480 O   0  0  0  0  0  0  0  0  0  0  0  0
   -4.9110   19.5370  -32.7010 C   0  0  0  0  0  0  0  0  0  0  0  0
   -4.5790   20.7350  -32.2260 O   0  0  0  0  0  0  0  0  0  0  0  0
   -5.4640   21.6730  -31.8920 C   0  0  0  0  0  0  0  0  0  0  0  0
   -4.9850   22.9360  -31.3690 N   0  0  0  0  0  0  0  0  0  0  0  0
   -5.7370   24.1830  -31.5870 C   0  0  0  0  0  0  0  0  0  0  0  0
   -5.3410   25.2560  -30.5700 C   0  0  0  0  0  0  0  0  0  0  0  0
   -3.9370   25.3790  -30.4870 O   0  0  0  0  0  0  0  0  0  0  0  0
   -3.3990   24.1930  -29.9410 C   0  0  0  0  0  0  0  0  0  0  0  0
   -3.5940   23.0170  -30.8990 C   0  0  0  0  0  0  0  0  0  0  0  0
   -6.8360   21.4140  -32.0620 C   0  0  0  0  0  0  0  0  0  0  0  0
   -7.2400   20.1730  -32.5520 C   0  0  0  0  0  0  0  0  0  0  0  0
   -8.4710   19.9370  -32.7000 O   0  0  0  0  0  0  0  0  0  0  0  0
   -6.2740   19.2060  -32.8720 C   0  0  0  0  0  0  0  0  0  0  0  0
   -6.6300   17.9380  -33.3590 C   0  0  0  0  0  0  0  0  0  0  0  0
   -5.4484   12.9214  -33.5582 H   0  0  0  0  0  0  0  0  0  0  0  0
   -6.3229   13.1261  -35.1138 H   0  0  0  0  0  0  0  0  0  0  0  0
   -4.5753   12.7104  -35.1138 H   0  0  0  0  0  0  0  0  0  0  0  0
   -3.0529   15.4032  -34.3541 H   0  0  0  0  0  0  0  0  0  0  0  0
   -3.3196   14.3549  -35.7881 H   0  0  0  0  0  0  0  0  0  0  0  0
   -3.9222   16.0471  -35.7881 H   0  0  0  0  0  0  0  0  0  0  0  0
   -3.5188   16.5948  -33.7770 H   0  0  0  0  0  0  0  0  0  0  0  0
   -2.2791   19.3172  -31.8913 H   0  0  0  0  0  0  0  0  0  0  0  0
   -1.8886   16.9133  -32.2539 H   0  0  0  0  0  0  0  0  0  0  0  0
   -1.6621   17.2325  -34.0238 H   0  0  0  0  0  0  0  0  0  0  0  0
    0.1901   17.7041  -31.7287 H   0  0  0  0  0  0  0  0  0  0  0  0
    0.5164   17.3467  -33.4912 H   0  0  0  0  0  0  0  0  0  0  0  0
    1.3280   19.4240  -33.2010 H   0  0  0  0  0  0  0  0  0  0  0  0
    0.1010   19.9330  -32.1580 H   0  0  0  0  0  0  0  0  0  0  0  0
   -0.0465   20.9475  -34.3549 H   0  0  0  0  0  0  0  0  0  0  0  0
   -0.2484   19.2789  -35.0329 H   0  0  0  0  0  0  0  0  0  0  0  0
   -2.4465   19.8036  -34.8651 H   0  0  0  0  0  0  0  0  0  0  0  0
   -3.1780   21.1790  -32.9510 H   0  0  0  0  0  0  0  0  0  0  0  0
   -5.5275   24.5553  -32.6007 H   0  0  0  0  0  0  0  0  0  0  0  0
   -6.8089   23.9679  -31.4653 H   0  0  0  0  0  0  0  0  0  0  0  0
   -5.7692   26.2208  -30.8795 H   0  0  0  0  0  0  0  0  0  0  0  0
   -5.7267   24.9630  -29.5824 H   0  0  0  0  0  0  0  0  0  0  0  0
   -2.3236   24.3353  -29.7589 H   0  0  0  0  0  0  0  0  0  0  0  0
   -3.9208   23.9703  -28.9986 H   0  0  0  0  0  0  0  0  0  0  0  0
   -2.9298   23.1472  -31.7661 H   0  0  0  0  0  0  0  0  0  0  0  0
   -3.3544   22.0877  -30.3614 H   0  0  0  0  0  0  0  0  0  0  0  0
   -7.5821   22.1823  -31.8110 H   0  0  0  0  0  0  0  0  0  0  0  0
   -7.6909   17.6869  -33.5055 H   0  0  0  0  0  0  0  0  0  0  0  0
  1  2  1  0
  2  3  1  0
  2  4  1  0
  4  5  2  0
  4  6  1  0
  6  7  2  0
  7  8  1  0
  8  9  1  0
  9 10  1  0
 10 11  1  0
 11 12  1  0
 12 13  1  0
 13 14  1  0
 14 15  1  0
  8 16  2  0
 16 17  1  0
 17 18  1  0
 18 19  1  0
 19 20  1  0
 20 21  1  0
 21 22  1  0
 22 23  1  0
 23 24  1  0
 18 25  2  0
 25 26  1  0
 26 27  2  0
 26 28  1  0
 28 29  2  0
 29  6  1  0
 14  9  1  0
 28 16  1  0
 24 19  1  0
  1 30  1  0
  1 31  1  0
  1 32  1  0
  3 33  1  0
  3 34  1  0
  3 35  1  0
  7 36  1  0
  9 37  1  1
 10 38  1  0
 10 39  1  0
 11 40  1  0
 11 41  1  0
 12 42  1  0
 12 43  1  0
 13 44  1  0
 13 45  1  0
 14 46  1  6
 15 47  1  0
 20 48  1  0
 20 49  1  0
 21 50  1  0
 21 51  1  0
 23 52  1  0
 23 53  1  0
 24 54  1  0
 24 55  1  0
 25 56  1  0
 29 57  1  0
M  CHG  1  12   1
M  END
>  <UniqueID>  (17) 
16

>  <SMILES>  (17) 
CN(C)C(=O)c1cc([C@H]2CC[NH2+]C[C@@H]2O)c2oc(N3CCOCC3)cc(=O)c2c1

>  <Energy>  (17) 
77.57050396877659

>  <Genealogy>  (17) 
CN(C)C(=O)c1cc(C2CC[NH2+]CC2O)c2oc(N3CCOCC3)cc(=O)c2c1 (protonated)
CN(C)C(=O)c1cc([C@H]2CC[NH2+]C[C@@H]2O)c2oc(N3CCOCC3)cc(=O)c2c1 (chirality)
CN(C)C(=O)c1cc([C@H]2CC[NH2+]C[C@@H]2O)c2oc(N3CCOCC3)cc(=O)c2c1 (3D coordinates assigned)
CN(C)C(=O)c1cc([C@H]2CC[NH2+]C[C@@H]2O)c2oc(N3CCOCC3)cc(=O)c2c1 (nonaromatic ring conformer: 77.57050396877659 kcal/mol)

>  <smiles>  (17) 
CN(C)C(=O)c1cc(C2CCNCC2O)c2oc(N3CCOCC3)cc(=O)c2c1

>  <score_type>  (17) 
oracle

>  <origin>  (17) 
adg

>  <m_score__min__energy>  (17) 
-8.1500000000000004

>  <m_primary>  (17) 
energy

$$$$
17:0
     RDKit          3D

 35 36  0  0  0  0  0  0  0  0999 V2000
   -2.7080   18.9970  -26.6850 C   0  0  0  0  0  0  0  0  0  0  0  0
   -1.9080   20.2370  -26.3280 C   0  0  0  0  0  0  0  0  0  0  0  0
   -1.2050   20.7910  -27.4710 N   0  0  0  0  0  0  0  0  0  0  0  0
   -0.0520   20.1150  -28.0430 C   0  0  0  0  0  0  0  0  0  0  0  0
   -0.0090   20.1710  -29.5370 C   0  0  0  0  0  0  0  0  0  0  0  0
   -1.7100   21.9800  -28.0430 C   0  0  0  0  0  0  0  0  0  0  0  0
   -2.9390   22.1190  -28.5800 N   0  0  0  0  0  0  0  0  0  0  0  0
   -3.2780   23.3250  -29.1050 C   0  0  0  0  0  0  0  0  0  0  0  0
   -4.5710   23.5870  -29.7190 C   0  0  0  0  0  0  0  0  0  0  0  0
   -5.6030   22.6630  -29.5770 C   0  0  0  0  0  0  0  0  0  0  0  0
   -6.8550   22.8500  -30.1300 C   0  0  0  0  0  0  0  0  0  0  0  0
   -7.0980   24.0080  -30.8570 C   0  0  0  0  0  0  0  0  0  0  0  0
   -6.1040   24.9510  -31.0220 C   0  0  0  0  0  0  0  0  0  0  0  0
   -4.8690   24.7110  -30.4480 C   0  0  0  0  0  0  0  0  0  0  0  0
   -3.8540   25.6750  -30.6180 O   0  0  0  0  0  0  0  0  0  0  0  0
   -2.4060   24.3710  -29.0930 N   0  0  0  0  0  0  0  0  0  0  0  0
   -1.1740   24.2410  -28.5580 C   0  0  0  0  0  0  0  0  0  0  0  0
   -0.3680   25.1820  -28.5410 O   0  0  0  0  0  0  0  0  0  0  0  0
   -0.8520   23.0470  -28.0440 N   0  0  0  0  0  0  0  0  0  0  0  0
   -3.0334   18.4926  -25.7632 H   0  0  0  0  0  0  0  0  0  0  0  0
   -3.5898   19.2869  -27.2752 H   0  0  0  0  0  0  0  0  0  0  0  0
   -2.0804   18.3131  -27.2752 H   0  0  0  0  0  0  0  0  0  0  0  0
   -2.5957   20.9993  -25.9330 H   0  0  0  0  0  0  0  0  0  0  0  0
   -1.1553   19.9464  -25.5803 H   0  0  0  0  0  0  0  0  0  0  0  0
    0.8598   20.5888  -27.6503 H   0  0  0  0  0  0  0  0  0  0  0  0
   -0.1254   19.0544  -27.7606 H   0  0  0  0  0  0  0  0  0  0  0  0
    0.6325   21.0064  -29.8543 H   0  0  0  0  0  0  0  0  0  0  0  0
    0.3984   19.2269  -29.9277 H   0  0  0  0  0  0  0  0  0  0  0  0
   -1.0263   20.3209  -29.9277 H   0  0  0  0  0  0  0  0  0  0  0  0
   -5.4133   21.7457  -29.0003 H   0  0  0  0  0  0  0  0  0  0  0  0
   -7.6446   22.0958  -29.9970 H   0  0  0  0  0  0  0  0  0  0  0  0
   -8.0891   24.1747  -31.3042 H   0  0  0  0  0  0  0  0  0  0  0  0
   -6.2895   25.8709  -31.5960 H   0  0  0  0  0  0  0  0  0  0  0  0
   -3.4680   26.0490  -29.7450 H   0  0  0  0  0  0  0  0  0  0  0  0
    0.1220   22.9250  -27.6210 H   0  0  0  0  0  0  0  0  0  0  0  0
  1  2  1  0
  2  3  1  0
  3  4  1  0
  4  5  1  0
  3  6  1  0
  6  7  2  0
  7  8  1  0
  8  9  1  0
  9 10  2  0
 10 11  1  0
 11 12  2  0
 12 13  1  0
 13 14  2  0
 14 15  1  0
  8 16  2  0
 16 17  1  0
 17 18  2  0
 17 19  1  0
 19  6  1  0
 14  9  1  0
  1 20  1  0
  1 21  1  0
  1 22  1  0
  2 23  1  0
  2 24  1  0
  4 25  1  0
  4 26  1  0
  5 27  1  0
  5 28  1  0
  5 29  1  0
 10 30  1  0
 11 31  1  0
 12 32  1  0
 13 33  1  0
 15 34  1  0
 19 35  1  0
M  END
>  <smiles>  (18) 
CCN(CC)c1nc(-c2ccccc2O)nc(=O)[nH]1

>  <score_type>  (18) 
oracle

>  <origin>  (18) 
adg

>  <m_score__min__energy>  (18) 
-7.0800000000000001

>  <m_primary>  (18) 
energy

$$$$
18:0
     RDKit          3D

 43 46  0  0  0  0  0  0  0  0999 V2000
   -0.4400   22.0496  -26.2808 H   0  0  0  0  0  0  0  0  0  0  0  0
   -0.8380   23.0520  -26.4970 C   0  0  0  0  0  0  0  0  0  0  0  0
   -0.8090   24.0370  -25.5080 C   0  0  0  0  0  0  0  0  0  0  0  0
   -0.4024   23.8068  -24.5122 H   0  0  0  0  0  0  0  0  0  0  0  0
   -1.2970   25.3140  -25.7860 C   0  0  0  0  0  0  0  0  0  0  0  0
   -1.2130   26.5740  -24.5650 Cl  0  0  0  0  0  0  0  0  0  0  0  0
   -1.8350   25.5960  -27.0470 C   0  0  0  0  0  0  0  0  0  0  0  0
   -2.2103   26.6069  -27.2643 H   0  0  0  0  0  0  0  0  0  0  0  0
   -1.9010   24.6060  -28.0350 C   0  0  0  0  0  0  0  0  0  0  0  0
   -2.4340   24.9790  -29.3180 N   0  0  0  0  0  0  0  0  0  0  0  0
   -3.4820   24.5260  -29.9400 C   0  0  0  0  0  0  0  0  0  0  0  0
   -3.4520   23.6120  -30.9490 N   0  0  0  0  0  0  0  0  0  0  0  0
   -4.7680   23.4750  -31.2090 C   0  0  0  0  0  0  0  0  0  0  0  0
   -5.3560   22.6120  -32.1250 C   0  0  0  0  0  0  0  0  0  0  0  0
   -4.5800   21.8910  -33.1020 N   0  0  0  0  0  0  0  0  0  0  0  0
   -4.6330   22.1800  -34.1050 H   0  0  0  0  0  0  0  0  0  0  0  0
   -3.9670   20.6040  -32.7700 C   0  0  0  0  0  0  0  0  0  0  0  0
   -3.6244   20.6222  -31.7249 H   0  0  0  0  0  0  0  0  0  0  0  0
   -3.1120   20.4273  -33.4391 H   0  0  0  0  0  0  0  0  0  0  0  0
   -4.9730   19.4940  -32.9470 C   0  0  0  0  0  0  0  0  0  0  0  0
   -4.7860   18.5340  -33.9570 C   0  0  0  0  0  0  0  0  0  0  0  0
   -3.8591   18.5365  -34.5493 H   0  0  0  0  0  0  0  0  0  0  0  0
   -5.7730   17.5750  -34.2130 C   0  0  0  0  0  0  0  0  0  0  0  0
   -5.6236   16.8337  -35.0119 H   0  0  0  0  0  0  0  0  0  0  0  0
   -6.9480   17.5570  -33.4560 C   0  0  0  0  0  0  0  0  0  0  0  0
   -7.7268   16.8100  -33.6689 H   0  0  0  0  0  0  0  0  0  0  0  0
   -7.1360   18.4910  -32.4240 C   0  0  0  0  0  0  0  0  0  0  0  0
   -8.4150   18.4950  -31.6420 C   0  0  0  0  0  0  0  0  0  0  0  0
   -8.1868   18.4943  -30.5659 H   0  0  0  0  0  0  0  0  0  0  0  0
   -8.9955   19.3950  -31.8931 H   0  0  0  0  0  0  0  0  0  0  0  0
   -9.0011   17.5987  -31.8931 H   0  0  0  0  0  0  0  0  0  0  0  0
   -6.1500   19.4660  -32.1800 C   0  0  0  0  0  0  0  0  0  0  0  0
   -6.3020   20.2102  -31.3843 H   0  0  0  0  0  0  0  0  0  0  0  0
   -6.7600   22.6420  -32.2310 C   0  0  0  0  0  0  0  0  0  0  0  0
   -7.2631   22.0244  -32.9896 H   0  0  0  0  0  0  0  0  0  0  0  0
   -7.5230   23.4540  -31.3760 C   0  0  0  0  0  0  0  0  0  0  0  0
   -8.6211   23.4491  -31.4402 H   0  0  0  0  0  0  0  0  0  0  0  0
   -6.8740   24.2700  -30.4410 C   0  0  0  0  0  0  0  0  0  0  0  0
   -7.4447   24.9197  -29.7612 H   0  0  0  0  0  0  0  0  0  0  0  0
   -5.5180   24.2330  -30.4010 N   0  0  0  0  0  0  0  0  0  0  0  0
   -4.7300   24.9130  -29.5930 N   0  0  0  0  0  0  0  0  0  0  0  0
   -1.3690   23.3300  -27.7600 C   0  0  0  0  0  0  0  0  0  0  0  0
   -1.3716   22.5532  -28.5389 H   0  0  0  0  0  0  0  0  0  0  0  0
  1  2  1  0
  2  3  2  0
  3  4  1  0
  3  5  1  0
  5  6  1  0
  5  7  2  0
  7  8  1  0
  7  9  1  0
  9 10  1  0
 10 11  2  0
 11 12  1  0
 12 13  2  0
 13 14  1  0
 14 15  1  0
 15 16  1  0
 15 17  1  0
 17 18  1  0
 17 19  1  0
 17 20  1  0
 20 21  2  0
 21 22  1  0
 21 23  1  0
 23 24  1  0
 23 25  2  0
 25 26  1  0
 25 27  1  0
 27 28  1  0
 28 29  1  0
 28 30  1  0
 28 31  1  0
 27 32  2  0
 32 33  1  0
 14 34  2  0
 34 35  1  0
 34 36  1  0
 36 37  1  0
 36 38  2  0
 38 39  1  0
 38 40  1  0
 40 41  1  0
  9 42  2  0
 42 43  1  0
 42  2  1  0
 41 11  1  0
 40 13  1  0
 32 20  1  0
M  CHG  1  41  -1
M  END
>  <UniqueID>  (19) 
17

>  <SMILES>  (19) 
Cc1cccc(CNc2cccn3[n-]/c(=N/c4cccc(Cl)c4)nc23)c1

>  <Energy>  (19) 
94.73338556222208

>  <Genealogy>  (19) 
Cc1cccc(CNc2cccn3[n-]c(=Nc4cccc(Cl)c4)nc23)c1 (protonated)
Cc1cccc(CNc2cccn3[n-]/c(=N/c4cccc(Cl)c4)nc23)c1 (cis-trans isomerization)
Cc1cccc(CNc2cccn3[n-]/c(=N/c4cccc(Cl)c4)nc23)c1 (3D coordinates assigned)
Cc1cccc(CNc2cccn3[n-]/c(=N/c4cccc(Cl)c4)nc23)c1 (optimized conformer: 94.73338556222208 kcal/mol)

>  <smiles>  (19) 
Cc1cccc(CNc2cccn3[nH]c(=Nc4cccc(Cl)c4)nc23)c1

>  <score_type>  (19) 
oracle

>  <origin>  (19) 
adg

>  <m_score__min__energy>  (19) 
-10.68

>  <m_primary>  (19) 
energy

$$$$
19:0
     RDKit          3D

 42 44  0  0  0  0  0  0  0  0999 V2000
   -1.2750   26.0500  -28.9800 N   0  0  0  0  0  0  0  0  0  0  0  0
   -0.9860   24.4080  -28.5250 S   0  0  0  0  0  0  0  0  0  0  0  0
   -1.4880   24.1990  -27.1230 O   0  0  0  0  0  0  0  0  0  0  0  0
    0.4880   24.1230  -28.5740 O   0  0  0  0  0  0  0  0  0  0  0  0
   -1.8260   23.3310  -29.6360 C   0  0  0  0  0  0  0  0  0  0  0  0
   -3.1170   23.6530  -30.0730 C   0  0  0  0  0  0  0  0  0  0  0  0
   -3.7870   22.8150  -30.9660 C   0  0  0  0  0  0  0  0  0  0  0  0
   -3.1800   21.6350  -31.4300 C   0  0  0  0  0  0  0  0  0  0  0  0
   -3.8930   20.7610  -32.3920 C   0  0  0  0  0  0  0  0  0  0  0  0
   -3.4880   19.5830  -32.5740 O   0  0  0  0  0  0  0  0  0  0  0  0
   -5.0760   21.1910  -33.0780 N   0  0  0  0  0  0  0  0  0  0  0  0
   -6.4130   21.1930  -32.5530 C   0  0  0  0  0  0  0  0  0  0  0  0
   -6.9910   22.3650  -32.0300 C   0  0  0  0  0  0  0  0  0  0  0  0
   -8.3140   22.3580  -31.5790 C   0  0  0  0  0  0  0  0  0  0  0  0
   -9.0750   21.1910  -31.6610 C   0  0  0  0  0  0  0  0  0  0  0  0
   -8.5190   20.0280  -32.1990 C   0  0  0  0  0  0  0  0  0  0  0  0
   -7.1890   20.0240  -32.6480 C   0  0  0  0  0  0  0  0  0  0  0  0
   -6.6180   18.8220  -33.1890 N   0  0  0  0  0  0  0  0  0  0  0  0
   -6.9130   17.5360  -32.5530 C   0  0  0  0  0  0  0  0  0  0  0  0
   -5.7810   16.5460  -32.8470 C   0  0  0  0  0  0  0  0  0  0  0  0
   -5.5100   16.4850  -34.2360 O   0  0  0  0  0  0  0  0  0  0  0  0
   -5.0230   17.7370  -34.6850 C   0  0  0  0  0  0  0  0  0  0  0  0
   -6.1030   18.8140  -34.5590 C   0  0  0  0  0  0  0  0  0  0  0  0
   -1.8770   21.3250  -31.0010 C   0  0  0  0  0  0  0  0  0  0  0  0
   -1.2070   22.1660  -30.1070 C   0  0  0  0  0  0  0  0  0  0  0  0
   -1.2240   26.0910  -30.0230 H   0  0  0  0  0  0  0  0  0  0  0  0
   -3.6050   24.5700  -29.7111 H   0  0  0  0  0  0  0  0  0  0  0  0
   -4.7979   23.0801  -31.3093 H   0  0  0  0  0  0  0  0  0  0  0  0
   -6.3989   23.2905  -31.9760 H   0  0  0  0  0  0  0  0  0  0  0  0
   -8.7559   23.2735  -31.1589 H   0  0  0  0  0  0  0  0  0  0  0  0
  -10.1145   21.1870  -31.3013 H   0  0  0  0  0  0  0  0  0  0  0  0
   -9.1250   19.1128  -32.2710 H   0  0  0  0  0  0  0  0  0  0  0  0
   -7.0028   17.6772  -31.4658 H   0  0  0  0  0  0  0  0  0  0  0  0
   -7.8583   17.1393  -32.9519 H   0  0  0  0  0  0  0  0  0  0  0  0
   -4.8731   16.8695  -32.3169 H   0  0  0  0  0  0  0  0  0  0  0  0
   -6.0904   15.5472  -32.5054 H   0  0  0  0  0  0  0  0  0  0  0  0
   -4.1529   18.0252  -34.0769 H   0  0  0  0  0  0  0  0  0  0  0  0
   -4.7358   17.6461  -35.7429 H   0  0  0  0  0  0  0  0  0  0  0  0
   -5.6709   19.7976  -34.7952 H   0  0  0  0  0  0  0  0  0  0  0  0
   -6.9226   18.5989  -35.2604 H   0  0  0  0  0  0  0  0  0  0  0  0
   -1.3818   20.4152  -31.3711 H   0  0  0  0  0  0  0  0  0  0  0  0
   -0.1904   21.9119  -29.7725 H   0  0  0  0  0  0  0  0  0  0  0  0
  1  2  1  0
  2  3  2  0
  2  4  2  0
  2  5  1  0
  5  6  2  0
  6  7  1  0
  7  8  2  0
  8  9  1  0
  9 10  2  0
  9 11  1  0
 11 12  1  0
 12 13  2  0
 13 14  1  0
 14 15  2  0
 15 16  1  0
 16 17  2  0
 17 18  1  0
 18 19  1  0
 19 20  1  0
 20 21  1  0
 21 22  1  0
 22 23  1  0
  8 24  1  0
 24 25  2  0
 25  5  1  0
 17 12  1  0
 23 18  1  0
  1 26  1  0
  6 27  1  0
  7 28  1  0
 13 29  1  0
 14 30  1  0
 15 31  1  0
 16 32  1  0
 19 33  1  0
 19 34  1  0
 20 35  1  0
 20 36  1  0
 22 37  1  0
 22 38  1  0
 23 39  1  0
 23 40  1  0
 24 41  1  0
 25 42  1  0
M  CHG  2   1  -1  11  -1
M  END
>  <UniqueID>  (20) 
18

>  <SMILES>  (20) 
[NH-]S(=O)(=O)c1ccc(C(=O)[N-]c2ccccc2N2CCOCC2)cc1

>  <Energy>  (20) 
55.750139821527576

>  <Genealogy>  (20) 
[NH-]S(=O)(=O)c1ccc(C(=O)[N-]c2ccccc2N2CCOCC2)cc1 (protonated)
[NH-]S(=O)(=O)c1ccc(C(=O)[N-]c2ccccc2N2CCOCC2)cc1 (3D coordinates assigned)
[NH-]S(=O)(=O)c1ccc(C(=O)[N-]c2ccccc2N2CCOCC2)cc1 (nonaromatic ring conformer: 55.750139821527576 kcal/mol)

>  <smiles>  (20) 
NS(=O)(=O)c1ccc(C(=O)Nc2ccccc2N2CCOCC2)cc1

>  <score_type>  (20) 
oracle

>  <origin>  (20) 
adg

>  <m_score__min__energy>  (20) 
-10.619999999999999

>  <m_primary>  (20) 
energy

$$$$
20:0
     RDKit          3D

 51 54  0  0  0  0  0  0  0  0999 V2000
   -0.1010   23.1550  -24.4270 C   0  0  0  0  0  0  0  0  0  0  0  0
   -0.4540   22.4420  -25.7280 C   0  0  0  0  0  0  0  0  0  0  0  0
   -0.9580   23.4050  -26.7220 N   0  0  0  0  0  0  0  0  0  0  0  0
   -0.3760   24.6440  -26.7910 C   0  0  0  0  0  0  0  0  0  0  0  0
   -0.8340   25.5980  -27.6950 C   0  0  0  0  0  0  0  0  0  0  0  0
   -1.9060   25.2950  -28.5270 C   0  0  0  0  0  0  0  0  0  0  0  0
   -2.5290   24.0390  -28.4510 C   0  0  0  0  0  0  0  0  0  0  0  0
   -3.6830   23.7200  -29.3300 C   0  0  0  0  0  0  0  0  0  0  0  0
   -4.5130   22.6570  -29.1520 N   0  0  0  0  0  0  0  0  0  0  0  0
   -5.3780   22.7610  -30.1700 C   0  0  0  0  0  0  0  0  0  0  0  0
   -6.4480   21.9360  -30.4960 C   0  0  0  0  0  0  0  0  0  0  0  0
   -7.2050   22.2900  -31.6370 C   0  0  0  0  0  0  0  0  0  0  0  0
   -8.3230   21.4780  -32.0380 N   0  0  0  0  0  0  0  0  0  0  0  0
   -9.6690   21.9430  -31.6890 C   0  0  0  0  0  0  0  0  0  0  0  0
   -8.1270   20.2430  -32.8240 C   0  0  0  0  0  0  0  0  0  0  0  0
   -6.6700   20.1500  -33.3360 C   0  0  0  0  0  0  0  0  0  0  0  0
   -6.3670   18.7400  -33.8550 C   0  0  0  0  0  0  0  0  0  0  0  0
   -6.5180   17.6680  -32.7500 C   0  0  0  0  0  0  0  0  0  0  0  0
   -7.4020   18.1160  -31.5680 C   0  0  0  0  0  0  0  0  0  0  0  0
   -8.5820   18.9820  -32.0370 C   0  0  0  0  0  0  0  0  0  0  0  0
   -6.8690   23.4050  -32.3680 N   0  0  0  0  0  0  0  0  0  0  0  0
   -5.8130   24.2030  -32.0330 C   0  0  0  0  0  0  0  0  0  0  0  0
   -5.0660   23.8560  -30.9130 C   0  0  0  0  0  0  0  0  0  0  0  0
   -4.0190   24.4430  -30.3940 O   0  0  0  0  0  0  0  0  0  0  0  0
   -2.0300   23.0940  -27.5240 C   0  0  0  0  0  0  0  0  0  0  0  0
   -2.5820   21.9620  -27.4230 O   0  0  0  0  0  0  0  0  0  0  0  0
   -0.4087   22.5335  -23.5731 H   0  0  0  0  0  0  0  0  0  0  0  0
    0.9851   23.3244  -24.3847 H   0  0  0  0  0  0  0  0  0  0  0  0
   -0.6247   24.1214  -24.3847 H   0  0  0  0  0  0  0  0  0  0  0  0
    0.4447   21.9478  -26.1256 H   0  0  0  0  0  0  0  0  0  0  0  0
   -1.2372   21.6968  -25.5248 H   0  0  0  0  0  0  0  0  0  0  0  0
    0.4637   24.8875  -26.1234 H   0  0  0  0  0  0  0  0  0  0  0  0
   -0.3512   26.5848  -27.7509 H   0  0  0  0  0  0  0  0  0  0  0  0
   -2.2677   26.0428  -29.2481 H   0  0  0  0  0  0  0  0  0  0  0  0
   -4.4820   21.9110  -28.4210 H   0  0  0  0  0  0  0  0  0  0  0  0
   -6.6947   21.0488  -29.8944 H   0  0  0  0  0  0  0  0  0  0  0  0
   -9.7723   21.9787  -30.5944 H   0  0  0  0  0  0  0  0  0  0  0  0
   -9.8290   22.9485  -32.1054 H   0  0  0  0  0  0  0  0  0  0  0  0
  -10.4155   21.2507  -32.1054 H   0  0  0  0  0  0  0  0  0  0  0  0
   -8.7749   20.2871  -33.7118 H   0  0  0  0  0  0  0  0  0  0  0  0
   -6.5272   20.8736  -34.1521 H   0  0  0  0  0  0  0  0  0  0  0  0
   -5.9875   20.3745  -32.5031 H   0  0  0  0  0  0  0  0  0  0  0  0
   -7.0636   18.5061  -34.6736 H   0  0  0  0  0  0  0  0  0  0  0  0
   -5.3233   18.7239  -34.2020 H   0  0  0  0  0  0  0  0  0  0  0  0
   -6.9663   16.7687  -33.1976 H   0  0  0  0  0  0  0  0  0  0  0  0
   -5.5125   17.4791  -32.3459 H   0  0  0  0  0  0  0  0  0  0  0  0
   -7.7949   17.2238  -31.0585 H   0  0  0  0  0  0  0  0  0  0  0  0
   -6.7837   18.7188  -30.8866 H   0  0  0  0  0  0  0  0  0  0  0  0
   -9.2269   18.3744  -32.6888 H   0  0  0  0  0  0  0  0  0  0  0  0
   -9.1178   19.3262  -31.1401 H   0  0  0  0  0  0  0  0  0  0  0  0
   -5.5614   25.0919  -32.6301 H   0  0  0  0  0  0  0  0  0  0  0  0
  1  2  1  0
  2  3  1  0
  3  4  1  0
  4  5  2  0
  5  6  1  0
  6  7  2  0
  7  8  1  0
  8  9  2  0
  9 10  1  0
 10 11  2  0
 11 12  1  0
 12 13  1  0
 13 14  1  0
 13 15  1  0
 15 16  1  0
 16 17  1  0
 17 18  1  0
 18 19  1  0
 19 20  1  0
 12 21  2  0
 21 22  1  0
 22 23  2  0
 23 24  1  0
  7 25  1  0
 25 26  2  0
 25  3  1  0
 24  8  1  0
 23 10  1  0
 20 15  1  0
  1 27  1  0
  1 28  1  0
  1 29  1  0
  2 30  1  0
  2 31  1  0
  4 32  1  0
  5 33  1  0
  6 34  1  0
  9 35  1  0
 11 36  1  0
 14 37  1  0
 14 38  1  0
 14 39  1  0
 15 40  1  0
 16 41  1  0
 16 42  1  0
 17 43  1  0
 17 44  1  0
 18 45  1  0
 18 46  1  0
 19 47  1  0
 19 48  1  0
 20 49  1  0
 20 50  1  0
 22 51  1  0
M  CHG  1   9   1
M  END
>  <UniqueID>  (21) 
19

>  <SMILES>  (21) 
CCn1cccc(-c2[nH+]c3cc(N(C)C4CCCCC4)ncc3o2)c1=O

>  <Energy>  (21) 
103.11390357929142

>  <Genealogy>  (21) 
CCn1cccc(-c2[nH+]c3cc(N(C)C4CCCCC4)ncc3o2)c1=O (protonated)
CCn1cccc(-c2[nH+]c3cc(N(C)C4CCCCC4)ncc3o2)c1=O (3D coordinates assigned)
CCn1cccc(-c2[nH+]c3cc(N(C)C4CCCCC4)ncc3o2)c1=O (nonaromatic ring conformer: 103.11390357929142 kcal/mol)

>  <smiles>  (21) 
CCn1cccc(-c2nc3cc(N(C)C4CCCCC4)ncc3o2)c1=O

>  <score_type>  (21) 
oracle

>  <origin>  (21) 
adg

>  <m_score__min__energy>  (21) 
-8.1300000000000008

>  <m_primary>  (21) 
energy

$$$$
21:0
     RDKit          3D

 29 31  0  0  0  0  0  0  0  0999 V2000
   -6.5530   25.6180  -29.3370 C   0  0  0  0  0  0  0  0  0  0  0  0
   -5.3610   25.5780  -30.7110 S   0  0  0  0  0  0  0  0  0  0  0  0
   -5.9220   23.9790  -31.3010 C   0  0  0  0  0  0  0  0  0  0  0  0
   -4.9810   23.0460  -31.7990 C   0  0  0  0  0  0  0  0  0  0  0  0
   -5.4170   21.7900  -32.2570 C   0  0  0  0  0  0  0  0  0  0  0  0
   -6.7870   21.5320  -32.2090 C   0  0  0  0  0  0  0  0  0  0  0  0
   -7.6560   22.4470  -31.7020 C   0  0  0  0  0  0  0  0  0  0  0  0
   -8.9110   21.9650  -31.6820 N   0  0  0  0  0  0  0  0  0  0  0  0
   -8.7580   20.7170  -32.2000 C   0  0  0  0  0  0  0  0  0  0  0  0
   -7.4740   20.4250  -32.5370 N   0  0  0  0  0  0  0  0  0  0  0  0
   -6.9950   19.1980  -33.1130 C   0  0  0  0  0  0  0  0  0  0  0  0
   -6.1290   19.2280  -34.2190 C   0  0  0  0  0  0  0  0  0  0  0  0
   -5.6500   18.0370  -34.7740 C   0  0  0  0  0  0  0  0  0  0  0  0
   -6.0220   16.8090  -34.2240 C   0  0  0  0  0  0  0  0  0  0  0  0
   -6.8700   16.7690  -33.1130 C   0  0  0  0  0  0  0  0  0  0  0  0
   -7.3520   17.9580  -32.5560 C   0  0  0  0  0  0  0  0  0  0  0  0
   -7.2530   23.6610  -31.2500 N   0  0  0  0  0  0  0  0  0  0  0  0
   -6.0105   25.5998  -28.3803 H   0  0  0  0  0  0  0  0  0  0  0  0
   -7.1545   26.5368  -29.4000 H   0  0  0  0  0  0  0  0  0  0  0  0
   -7.2147   24.7416  -29.4000 H   0  0  0  0  0  0  0  0  0  0  0  0
   -3.9118   23.3028  -31.8276 H   0  0  0  0  0  0  0  0  0  0  0  0
   -4.7066   21.0414  -32.6376 H   0  0  0  0  0  0  0  0  0  0  0  0
   -9.5921   20.0124  -32.3333 H   0  0  0  0  0  0  0  0  0  0  0  0
   -5.8261   20.1934  -34.6507 H   0  0  0  0  0  0  0  0  0  0  0  0
   -4.9791   18.0679  -35.6452 H   0  0  0  0  0  0  0  0  0  0  0  0
   -5.6481   15.8730  -34.6646 H   0  0  0  0  0  0  0  0  0  0  0  0
   -7.1584   15.8014  -32.6765 H   0  0  0  0  0  0  0  0  0  0  0  0
   -8.0136   17.9224  -31.6779 H   0  0  0  0  0  0  0  0  0  0  0  0
   -7.9480   24.3390  -30.8660 H   0  0  0  0  0  0  0  0  0  0  0  0
  1  2  1  0
  2  3  1  0
  3  4  2  0
  4  5  1  0
  5  6  2  0
  6  7  1  0
  7  8  1  0
  8  9  2  0
  9 10  1  0
 10 11  1  0
 11 12  2  0
 12 13  1  0
 13 14  2  0
 14 15  1  0
 15 16  2  0
  7 17  2  0
 17  3  1  0
 10  6  1  0
 16 11  1  0
  1 18  1  0
  1 19  1  0
  1 20  1  0
  4 21  1  0
  5 22  1  0
  9 23  1  0
 12 24  1  0
 13 25  1  0
 14 26  1  0
 15 27  1  0
 16 28  1  0
 17 29  1  0
M  CHG  1  17   1
M  END
>  <UniqueID>  (22) 
20

>  <SMILES>  (22) 
CSc1ccc2c(ncn2-c2ccccc2)[nH+]1

>  <Energy>  (22) 
71.37676210334537

>  <Genealogy>  (22) 
CSc1ccc2c(ncn2-c2ccccc2)[nH+]1 (protonated)
CSc1ccc2c(ncn2-c2ccccc2)[nH+]1 (3D coordinates assigned)
CSc1ccc2c(ncn2-c2ccccc2)[nH+]1 (optimized conformer: 71.37676210334537 kcal/mol)

>  <smiles>  (22) 
CSc1ccc2c(ncn2-c2ccccc2)n1

>  <score_type>  (22) 
oracle

>  <origin>  (22) 
adg

>  <m_score__min__energy>  (22) 
-6.7599999999999998

>  <m_primary>  (22) 
energy

$$$$
22:0
     RDKit          3D

 47 49  0  0  0  0  0  0  0  0999 V2000
   -5.2210   22.3440  -31.8060 C   0  0  0  0  0  0  0  0  0  0  0  0
   -5.2350   22.7090  -30.4290 O   0  0  0  0  0  0  0  0  0  0  0  0
   -4.0950   22.9340  -29.6420 C   0  0  0  0  0  0  0  0  0  0  0  0
   -3.5800   21.9200  -28.8110 C   0  0  0  0  0  0  0  0  0  0  0  0
   -2.4460   22.1370  -28.0180 C   0  0  0  0  0  0  0  0  0  0  0  0
   -1.9320   21.0420  -27.1530 C   0  0  0  0  0  0  0  0  0  0  0  0
   -1.5140   21.3290  -25.9950 O   0  0  0  0  0  0  0  0  0  0  0  0
   -1.9140   19.6620  -27.5980 N   0  0  2  0  0  0  0  0  0  0  0  0
   -2.4200   18.7960  -26.5190 C   0  0  0  0  0  0  0  0  0  0  0  0
   -0.5420   19.2790  -28.0070 C   0  0  0  0  0  0  0  0  0  0  0  0
   -0.2850   19.5820  -29.4610 C   0  0  0  0  0  0  0  0  0  0  0  0
    0.9580   19.2740  -30.0480 C   0  0  0  0  0  0  0  0  0  0  0  0
    1.1690   19.5950  -31.3940 C   0  0  0  0  0  0  0  0  0  0  0  0
    2.2730   19.3300  -31.9430 O   0  0  0  0  0  0  0  0  0  0  0  0
    0.1670   20.1970  -32.0920 N   0  0  0  0  0  0  0  0  0  0  0  0
    0.1970   20.5790  -33.3980 C   0  0  0  0  0  0  0  0  0  0  0  0
   -0.9840   21.1770  -33.8430 C   0  0  0  0  0  0  0  0  0  0  0  0
   -2.0860   21.2240  -32.5590 S   0  0  0  0  0  0  0  0  0  0  0  0
   -1.0150   20.4830  -31.5030 C   0  0  0  0  0  0  0  0  0  0  0  0
   -1.2550   20.1880  -30.2030 N   0  0  0  0  0  0  0  0  0  0  0  0
   -1.8030   23.3810  -28.0770 C   0  0  0  0  0  0  0  0  0  0  0  0
   -2.2990   24.4090  -28.8970 C   0  0  0  0  0  0  0  0  0  0  0  0
   -1.6750   25.6660  -28.9680 O   0  0  0  0  0  0  0  0  0  0  0  0
   -0.8400   26.2150  -27.9530 C   0  0  0  0  0  0  0  0  0  0  0  0
   -3.4460   24.1950  -29.6790 C   0  0  0  0  0  0  0  0  0  0  0  0
   -3.8820   25.2760  -30.4680 O   0  0  0  0  0  0  0  0  0  0  0  0
   -5.2300   25.6730  -30.6960 C   0  0  0  0  0  0  0  0  0  0  0  0
   -5.1790   21.2484  -31.8945 H   0  0  0  0  0  0  0  0  0  0  0  0
   -6.1341   22.7165  -32.2934 H   0  0  0  0  0  0  0  0  0  0  0  0
   -4.3391   22.7853  -32.2934 H   0  0  0  0  0  0  0  0  0  0  0  0
   -4.0777   20.9394  -28.7843 H   0  0  0  0  0  0  0  0  0  0  0  0
   -2.5370   19.5570  -28.4330 H   0  0  0  0  0  0  0  0  0  0  0  0
   -2.1627   19.2363  -25.5444 H   0  0  0  0  0  0  0  0  0  0  0  0
   -3.5130   18.7056  -26.6035 H   0  0  0  0  0  0  0  0  0  0  0  0
   -1.9621   17.7994  -26.6035 H   0  0  0  0  0  0  0  0  0  0  0  0
    0.1809   19.8372  -27.3940 H   0  0  0  0  0  0  0  0  0  0  0  0
   -0.4320   18.1945  -27.8596 H   0  0  0  0  0  0  0  0  0  0  0  0
    1.7499   18.7891  -29.4582 H   0  0  0  0  0  0  0  0  0  0  0  0
    1.0736   20.4300  -34.0455 H   0  0  0  0  0  0  0  0  0  0  0  0
   -1.1677   21.5549  -34.8596 H   0  0  0  0  0  0  0  0  0  0  0  0
   -0.8994   23.5548  -27.4743 H   0  0  0  0  0  0  0  0  0  0  0  0
   -1.2426   25.9503  -26.9641 H   0  0  0  0  0  0  0  0  0  0  0  0
    0.1771   25.8089  -28.0555 H   0  0  0  0  0  0  0  0  0  0  0  0
   -0.8097   27.3098  -28.0555 H   0  0  0  0  0  0  0  0  0  0  0  0
   -5.7365   25.8222  -29.7310 H   0  0  0  0  0  0  0  0  0  0  0  0
   -5.2438   26.6133  -31.2666 H   0  0  0  0  0  0  0  0  0  0  0  0
   -5.7513   24.8902  -31.2666 H   0  0  0  0  0  0  0  0  0  0  0  0
  1  2  1  0
  2  3  1  0
  3  4  2  0
  4  5  1  0
  5  6  1  0
  6  7  2  0
  6  8  1  0
  8  9  1  0
  8 10  1  0
 10 11  1  0
 11 12  2  0
 12 13  1  0
 13 14  2  0
 13 15  1  0
 15 16  1  0
 16 17  2  0
 17 18  1  0
 18 19  1  0
 19 20  2  0
  5 21  2  0
 21 22  1  0
 22 23  1  0
 23 24  1  0
 22 25  2  0
 25 26  1  0
 26 27  1  0
 25  3  1  0
 20 11  1  0
 19 15  1  0
  1 28  1  0
  1 29  1  0
  1 30  1  0
  4 31  1  0
  8 32  1  6
  9 33  1  0
  9 34  1  0
  9 35  1  0
 10 36  1  0
 10 37  1  0
 12 38  1  0
 16 39  1  0
 17 40  1  0
 21 41  1  0
 24 42  1  0
 24 43  1  0
 24 44  1  0
 27 45  1  0
 27 46  1  0
 27 47  1  0
M  CHG  1   8   1
M  END
>  <UniqueID>  (23) 
21

>  <SMILES>  (23) 
COc1cc(C(=O)[N@H+](C)Cc2cc(=O)n3ccsc3n2)cc(OC)c1OC

>  <Energy>  (23) 
90.41472719820723

>  <Genealogy>  (23) 
COc1cc(C(=O)[NH+](C)Cc2cc(=O)n3ccsc3n2)cc(OC)c1OC (protonated)
COc1cc(C(=O)[N@H+](C)Cc2cc(=O)n3ccsc3n2)cc(OC)c1OC (chirality)
COc1cc(C(=O)[N@H+](C)Cc2cc(=O)n3ccsc3n2)cc(OC)c1OC (3D coordinates assigned)
COc1cc(C(=O)[N@H+](C)Cc2cc(=O)n3ccsc3n2)cc(OC)c1OC (optimized conformer: 90.41472719820723 kcal/mol)

>  <smiles>  (23) 
COc1cc(C(=O)N(C)Cc2cc(=O)n3ccsc3n2)cc(OC)c1OC

>  <score_type>  (23) 
oracle

>  <origin>  (23) 
adg

>  <m_score__min__energy>  (23) 
-7.6299999999999999

>  <m_primary>  (23) 
energy

$$$$
23:0
     RDKit          3D

 43 45  0  0  0  0  0  0  0  0999 V2000
   -6.8860   16.9590  -33.4420 C   0  0  0  0  0  0  0  0  0  0  0  0
   -7.0600   18.3270  -32.8760 C   0  0  0  0  0  0  0  0  0  0  0  0
   -8.2640   18.8980  -32.6580 N   0  0  0  0  0  0  0  0  0  0  0  0
   -8.1820   20.0990  -32.0860 N   0  0  0  0  0  0  0  0  0  0  0  0
   -6.9130   20.4830  -31.8230 C   0  0  0  0  0  0  0  0  0  0  0  0
   -6.5970   21.7610  -31.2460 N   0  0  0  0  0  0  0  0  0  0  0  0
   -7.3060   22.2680  -30.2470 N   0  0  0  0  0  0  0  0  0  0  0  0
   -6.7880   23.4680  -29.9260 C   0  0  0  0  0  0  0  0  0  0  0  0
   -5.7080   23.7330  -30.7440 C   0  0  0  0  0  0  0  0  0  0  0  0
   -4.8950   24.9620  -30.7660 C   0  0  0  0  0  0  0  0  0  0  0  0
   -5.4420   26.0500  -31.0900 O   0  0  0  0  0  0  0  0  0  0  0  0
   -3.5000   24.9660  -30.4320 N   0  0  0  0  0  0  0  0  0  0  0  0
   -2.8500   24.1040  -29.4470 C   0  0  0  0  0  0  0  0  0  0  0  0
   -2.3880   22.7790  -30.0680 C   0  0  0  0  0  0  0  0  0  0  0  0
   -1.2000   22.1700  -29.3150 C   0  0  0  0  0  0  0  0  0  0  0  0
   -1.6590   21.1060  -28.4230 N   0  0  0  0  0  0  0  0  0  0  0  0
   -3.0370   20.9130  -28.0140 C   0  0  0  0  0  0  0  0  0  0  0  0
   -3.0350   19.6890  -27.0780 C   0  0  0  0  0  0  0  0  0  0  0  0
   -1.5670   19.3030  -26.8290 C   0  0  0  0  0  0  0  0  0  0  0  0
   -0.8200   20.2060  -27.7250 C   0  0  0  0  0  0  0  0  0  0  0  0
    0.4330   20.1970  -27.8430 O   0  0  0  0  0  0  0  0  0  0  0  0
   -5.6080   22.6290  -31.5760 C   0  0  0  0  0  0  0  0  0  0  0  0
   -4.5480   22.4050  -32.6150 C   0  0  0  0  0  0  0  0  0  0  0  0
   -5.8090   19.3090  -32.3270 S   0  0  0  0  0  0  0  0  0  0  0  0
   -6.7935   16.2319  -32.6218 H   0  0  0  0  0  0  0  0  0  0  0  0
   -7.7590   16.7045  -34.0609 H   0  0  0  0  0  0  0  0  0  0  0  0
   -5.9771   16.9311  -34.0609 H   0  0  0  0  0  0  0  0  0  0  0  0
   -7.1659   24.1333  -29.1357 H   0  0  0  0  0  0  0  0  0  0  0  0
   -1.9751   24.6291  -29.0361 H   0  0  0  0  0  0  0  0  0  0  0  0
   -3.5803   23.8756  -28.6567 H   0  0  0  0  0  0  0  0  0  0  0  0
   -3.2253   22.0659  -30.0449 H   0  0  0  0  0  0  0  0  0  0  0  0
   -2.0651   22.9838  -31.0994 H   0  0  0  0  0  0  0  0  0  0  0  0
   -0.4854   21.7532  -30.0400 H   0  0  0  0  0  0  0  0  0  0  0  0
   -0.7138   22.9548  -28.7169 H   0  0  0  0  0  0  0  0  0  0  0  0
   -3.4053   21.8016  -27.4804 H   0  0  0  0  0  0  0  0  0  0  0  0
   -3.6962   20.7564  -28.8805 H   0  0  0  0  0  0  0  0  0  0  0  0
   -3.5237   19.9430  -26.1258 H   0  0  0  0  0  0  0  0  0  0  0  0
   -3.5852   18.8517  -27.5322 H   0  0  0  0  0  0  0  0  0  0  0  0
   -1.2883   19.4717  -25.7784 H   0  0  0  0  0  0  0  0  0  0  0  0
   -1.3634   18.2396  -27.0235 H   0  0  0  0  0  0  0  0  0  0  0  0
   -3.5868   22.2019  -32.1203 H   0  0  0  0  0  0  0  0  0  0  0  0
   -4.8259   21.5458  -33.2431 H   0  0  0  0  0  0  0  0  0  0  0  0
   -4.4545   23.3032  -33.2431 H   0  0  0  0  0  0  0  0  0  0  0  0
  1  2  1  0
  2  3  2  0
  3  4  1  0
  4  5  2  0
  5  6  1  0
  6  7  1  0
  7  8  2  0
  8  9  1  0
  9 10  1  0
 10 11  2  0
 10 12  1  0
 12 13  1  0
 13 14  1  0
 14 15  1  0
 15 16  1  0
 16 17  1  0
 17 18  1  0
 18 19  1  0
 19 20  1  0
 20 21  2  0
  9 22  2  0
 22 23  1  0
  5 24  1  0
 24  2  1  0
 22  6  1  0
 20 16  1  0
  1 25  1  0
  1 26  1  0
  1 27  1  0
  8 28  1  0
 13 29  1  0
 13 30  1  0
 14 31  1  0
 14 32  1  0
 15 33  1  0
 15 34  1  0
 17 35  1  0
 17 36  1  0
 18 37  1  0
 18 38  1  0
 19 39  1  0
 19 40  1  0
 23 41  1  0
 23 42  1  0
 23 43  1  0
M  CHG  1  12  -1
M  END
>  <UniqueID>  (24) 
22

>  <SMILES>  (24) 
Cc1nnc(-n2ncc(C(=O)[N-]CCCN3CCCC3=O)c2C)s1

>  <Energy>  (24) 
111.56906945992972

>  <Genealogy>  (24) 
Cc1nnc(-n2ncc(C(=O)[N-]CCCN3CCCC3=O)c2C)s1 (protonated)
Cc1nnc(-n2ncc(C(=O)[N-]CCCN3CCCC3=O)c2C)s1 (3D coordinates assigned)
Cc1nnc(-n2ncc(C(=O)[N-]CCCN3CCCC3=O)c2C)s1 (nonaromatic ring conformer: 111.56906945992972 kcal/mol)

>  <smiles>  (24) 
Cc1nnc(-n2ncc(C(=O)NCCCN3CCCC3=O)c2C)s1

>  <score_type>  (24) 
oracle

>  <origin>  (24) 
adg

>  <m_score__min__energy>  (24) 
-10.17

>  <m_primary>  (24) 
energy

$$$$
24:0
     RDKit          3D

 41 44  0  0  0  0  0  0  0  0999 V2000
   -2.2770   24.6850  -27.3590 C   0  0  0  0  0  0  0  0  0  0  0  0
   -2.0050   24.5340  -28.8530 C   0  0  0  0  0  0  0  0  0  0  0  0
   -3.2590   24.3480  -29.5860 N   0  0  0  0  0  0  0  0  0  0  0  0
   -3.9360   23.1920  -29.7270 C   0  0  0  0  0  0  0  0  0  0  0  0
   -5.0290   23.4340  -30.5370 C   0  0  0  0  0  0  0  0  0  0  0  0
   -5.9910   22.4480  -31.0570 C   0  0  0  0  0  0  0  0  0  0  0  0
   -7.3810   22.5550  -31.0030 C   0  0  0  0  0  0  0  0  0  0  0  0
   -8.0240   21.4980  -31.6580 C   0  0  0  0  0  0  0  0  0  0  0  0
   -9.3990   21.3270  -31.7740 C   0  0  0  0  0  0  0  0  0  0  0  0
   -9.8640   20.2450  -32.4580 N   0  0  0  0  0  0  0  0  0  0  0  0
   -9.0430   19.3410  -33.0070 N   0  0  0  0  0  0  0  0  0  0  0  0
   -7.6760   19.4490  -32.9170 C   0  0  0  0  0  0  0  0  0  0  0  0
   -6.8200   18.4460  -33.5200 N   0  0  0  0  0  0  0  0  0  0  0  0
   -6.9730   17.0350  -33.0820 C   0  0  0  0  0  0  0  0  0  0  0  0
   -6.1220   16.0120  -33.8670 C   0  0  0  0  0  0  0  0  0  0  0  0
   -4.9240   16.5980  -34.4850 N   0  0  0  0  0  0  0  0  0  0  0  0
   -5.3110   17.7220  -35.3290 C   0  0  0  0  0  0  0  0  0  0  0  0
   -5.7360   18.8640  -34.4260 C   0  0  0  0  0  0  0  0  0  0  0  0
   -7.1700   20.5660  -32.2240 C   0  0  0  0  0  0  0  0  0  0  0  0
   -5.5840   21.0440  -31.9040 S   0  0  0  0  0  0  0  0  0  0  0  0
   -4.9560   24.7810  -30.8450 C   0  0  0  0  0  0  0  0  0  0  0  0
   -3.8650   25.3130  -30.2590 N   0  0  0  0  0  0  0  0  0  0  0  0
   -1.4547   24.2285  -26.7886 H   0  0  0  0  0  0  0  0  0  0  0  0
   -2.3503   25.7529  -27.1057 H   0  0  0  0  0  0  0  0  0  0  0  0
   -3.2221   24.1824  -27.1057 H   0  0  0  0  0  0  0  0  0  0  0  0
   -1.5005   25.4390  -29.2224 H   0  0  0  0  0  0  0  0  0  0  0  0
   -1.3662   23.6526  -29.0112 H   0  0  0  0  0  0  0  0  0  0  0  0
   -3.6662   22.2254  -29.2766 H   0  0  0  0  0  0  0  0  0  0  0  0
   -7.9121   23.3777  -30.5019 H   0  0  0  0  0  0  0  0  0  0  0  0
  -10.0955   22.0494  -31.3234 H   0  0  0  0  0  0  0  0  0  0  0  0
   -9.4790   18.5570  -33.5380 H   0  0  0  0  0  0  0  0  0  0  0  0
   -6.6876   16.9740  -32.0214 H   0  0  0  0  0  0  0  0  0  0  0  0
   -8.0238   16.7676  -33.2674 H   0  0  0  0  0  0  0  0  0  0  0  0
   -5.8040   15.2190  -33.1742 H   0  0  0  0  0  0  0  0  0  0  0  0
   -6.7510   15.6257  -34.6826 H   0  0  0  0  0  0  0  0  0  0  0  0
   -4.4990   15.8680  -35.1070 H   0  0  0  0  0  0  0  0  0  0  0  0
   -4.4575   18.0343  -35.9487 H   0  0  0  0  0  0  0  0  0  0  0  0
   -6.1387   17.4328  -35.9934 H   0  0  0  0  0  0  0  0  0  0  0  0
   -4.8725   19.1897  -33.8274 H   0  0  0  0  0  0  0  0  0  0  0  0
   -6.1031   19.6891  -35.0540 H   0  0  0  0  0  0  0  0  0  0  0  0
   -5.6751   25.3311  -31.4697 H   0  0  0  0  0  0  0  0  0  0  0  0
  1  2  1  0
  2  3  1  0
  3  4  1  0
  4  5  2  0
  5  6  1  0
  6  7  2  0
  7  8  1  0
  8  9  2  0
  9 10  1  0
 10 11  2  0
 11 12  1  0
 12 13  1  0
 13 14  1  0
 14 15  1  0
 15 16  1  0
 16 17  1  0
 17 18  1  0
 12 19  2  0
 19 20  1  0
  5 21  1  0
 21 22  2  0
 22  3  1  0
 20  6  1  0
 19  8  1  0
 18 13  1  0
  1 23  1  0
  1 24  1  0
  1 25  1  0
  2 26  1  0
  2 27  1  0
  4 28  1  0
  7 29  1  0
  9 30  1  0
 11 31  1  0
 14 32  1  0
 14 33  1  0
 15 34  1  0
 15 35  1  0
 16 36  1  0
 17 37  1  0
 17 38  1  0
 18 39  1  0
 18 40  1  0
 21 41  1  0
M  CHG  1  11   1
M  END
>  <UniqueID>  (25) 
23

>  <SMILES>  (25) 
CCn1cc(-c2cc3cn[nH+]c(N4CCNCC4)c3s2)cn1

>  <Energy>  (25) 
110.92473085811778

>  <Genealogy>  (25) 
CCn1cc(-c2cc3cn[nH+]c(N4CCNCC4)c3s2)cn1 (protonated)
CCn1cc(-c2cc3cn[nH+]c(N4CCNCC4)c3s2)cn1 (3D coordinates assigned)
CCn1cc(-c2cc3cn[nH+]c(N4CCNCC4)c3s2)cn1 (nonaromatic ring conformer: 110.92473085811778 kcal/mol)

>  <smiles>  (25) 
CCn1cc(-c2cc3cnnc(N4CCNCC4)c3s2)cn1

>  <score_type>  (25) 
oracle

>  <origin>  (25) 
adg

>  <m_score__min__energy>  (25) 
-8.2100000000000009

>  <m_primary>  (25) 
energy

$$$$
25:0
     RDKit          3D

 28 29  0  0  0  0  0  0  0  0999 V2000
   -4.3070   21.1060  -33.4700 C   0  0  0  0  0  0  0  0  0  0  0  0
   -5.2550   21.0210  -32.2510 C   0  0  0  0  0  0  0  0  0  0  0  0
   -4.6010   20.1260  -31.1750 C   0  0  0  0  0  0  0  0  0  0  0  0
   -6.5790   20.3660  -32.7380 C   0  0  0  0  0  0  0  0  0  0  0  0
   -7.7320   20.5840  -31.7610 C   0  0  0  0  0  0  0  0  0  0  0  0
   -8.0340   22.0730  -31.6430 C   0  0  0  0  0  0  0  0  0  0  0  0
   -6.7990   22.8810  -31.3310 C   0  0  0  0  0  0  0  0  0  0  0  0
   -6.9690   24.1580  -30.7690 C   0  0  0  0  0  0  0  0  0  0  0  0
   -5.8670   24.9610  -30.4840 C   0  0  0  0  0  0  0  0  0  0  0  0
   -4.5810   24.5030  -30.7560 C   0  0  0  0  0  0  0  0  0  0  0  0
   -3.4830   25.2990  -30.4540 O   0  0  0  0  0  0  0  0  0  0  0  0
   -4.3940   23.2450  -31.3310 C   0  0  0  0  0  0  0  0  0  0  0  0
   -5.4940   22.4210  -31.6570 C   0  0  0  0  0  0  0  0  0  0  0  0
   -3.2681   21.1992  -33.1207 H   0  0  0  0  0  0  0  0  0  0  0  0
   -4.4091   20.1951  -34.0781 H   0  0  0  0  0  0  0  0  0  0  0  0
   -4.5695   21.9842  -34.0781 H   0  0  0  0  0  0  0  0  0  0  0  0
   -4.8720   20.4968  -30.1755 H   0  0  0  0  0  0  0  0  0  0  0  0
   -4.9579   19.0921  -31.2917 H   0  0  0  0  0  0  0  0  0  0  0  0
   -3.5075   20.1519  -31.2917 H   0  0  0  0  0  0  0  0  0  0  0  0
   -6.8524   20.8030  -33.7097 H   0  0  0  0  0  0  0  0  0  0  0  0
   -6.4072   19.2823  -32.8164 H   0  0  0  0  0  0  0  0  0  0  0  0
   -8.6258   20.0580  -32.1277 H   0  0  0  0  0  0  0  0  0  0  0  0
   -7.4501   20.1912  -30.7730 H   0  0  0  0  0  0  0  0  0  0  0  0
   -8.4569   22.4254  -32.5954 H   0  0  0  0  0  0  0  0  0  0  0  0
   -8.7452   22.2091  -30.8150 H   0  0  0  0  0  0  0  0  0  0  0  0
   -7.9823   24.5270  -30.5521 H   0  0  0  0  0  0  0  0  0  0  0  0
   -6.0132   25.9583  -30.0435 H   0  0  0  0  0  0  0  0  0  0  0  0
   -3.3730   22.8893  -31.5337 H   0  0  0  0  0  0  0  0  0  0  0  0
  1  2  1  0
  2  3  1  0
  2  4  1  0
  4  5  1  0
  5  6  1  0
  6  7  1  0
  7  8  2  0
  8  9  1  0
  9 10  2  0
 10 11  1  0
 10 12  1  0
 12 13  2  0
 13  2  1  0
 13  7  1  0
  1 14  1  0
  1 15  1  0
  1 16  1  0
  3 17  1  0
  3 18  1  0
  3 19  1  0
  4 20  1  0
  4 21  1  0
  5 22  1  0
  5 23  1  0
  6 24  1  0
  6 25  1  0
  8 26  1  0
  9 27  1  0
 12 28  1  0
M  CHG  1  11  -1
M  END
>  <UniqueID>  (26) 
24

>  <SMILES>  (26) 
CC1(C)CCCc2ccc([O-])cc21

>  <Energy>  (26) 
28.131151018173572

>  <Genealogy>  (26) 
CC1(C)CCCc2ccc([O-])cc21 (protonated)
CC1(C)CCCc2ccc([O-])cc21 (3D coordinates assigned)
CC1(C)CCCc2ccc([O-])cc21 (nonaromatic ring conformer: 28.131151018173572 kcal/mol)

>  <smiles>  (26) 
CC1(C)CCCc2ccc(O)cc21

>  <score_type>  (26) 
oracle

>  <origin>  (26) 
adg

>  <m_score__min__energy>  (26) 
-9.5899999999999999

>  <m_primary>  (26) 
energy

$$$$
26:0
     RDKit          3D

 47 50  0  0  0  0  0  0  0  0999 V2000
   -2.7420   20.9150  -29.1060 C   0  0  0  0  0  0  0  0  0  0  0  0
   -2.8250   22.3560  -28.8170 N   0  0  0  0  0  0  0  0  0  0  0  0
   -4.1190   22.6760  -28.1670 C   0  0  0  0  0  0  0  0  0  0  0  0
   -4.4330   24.1770  -28.2660 C   0  0  0  0  0  0  0  0  0  0  0  0
   -4.5250   24.6440  -29.6770 N   0  0  0  0  0  0  0  0  0  0  0  0
   -5.9230   24.8890  -30.0970 C   0  0  0  0  0  0  0  0  0  0  0  0
   -6.1360   24.4090  -31.5380 C   0  0  0  0  0  0  0  0  0  0  0  0
   -6.7560   23.0780  -31.5500 N   0  0  0  0  0  0  0  0  0  0  0  0
   -7.9680   22.9370  -30.9920 N   0  0  0  0  0  0  0  0  0  0  0  0
   -8.6200   21.7720  -31.0020 N   0  0  0  0  0  0  0  0  0  0  0  0
   -8.0480   20.7030  -31.5970 C   0  0  0  0  0  0  0  0  0  0  0  0
   -8.7060   19.1650  -31.7620 S   0  0  0  0  0  0  0  0  0  0  0  0
   -7.3810   18.5680  -32.6290 C   0  0  0  0  0  0  0  0  0  0  0  0
   -6.4010   19.5580  -32.7600 C   0  0  0  0  0  0  0  0  0  0  0  0
   -6.8070   20.7810  -32.1880 C   0  0  0  0  0  0  0  0  0  0  0  0
   -6.1450   22.0120  -32.1680 C   0  0  0  0  0  0  0  0  0  0  0  0
   -5.0150   22.1470  -32.7130 O   0  0  0  0  0  0  0  0  0  0  0  0
   -5.1300   19.3210  -33.5380 C   0  0  0  0  0  0  0  0  0  0  0  0
   -4.8640   17.8180  -33.7520 C   0  0  0  0  0  0  0  0  0  0  0  0
   -6.1360   17.0800  -34.2000 C   0  0  0  0  0  0  0  0  0  0  0  0
   -7.2240   17.1580  -33.1170 C   0  0  0  0  0  0  0  0  0  0  0  0
   -3.8330   23.7550  -30.6400 C   0  0  0  0  0  0  0  0  0  0  0  0
   -2.5510   23.1690  -30.0280 C   0  0  0  0  0  0  0  0  0  0  0  0
   -2.7096   20.3528  -28.1611 H   0  0  0  0  0  0  0  0  0  0  0  0
   -3.6238   20.6061  -29.6864 H   0  0  0  0  0  0  0  0  0  0  0  0
   -1.8305   20.7093  -29.6864 H   0  0  0  0  0  0  0  0  0  0  0  0
   -4.9200   22.1082  -28.6629 H   0  0  0  0  0  0  0  0  0  0  0  0
   -4.0521   22.4030  -27.1035 H   0  0  0  0  0  0  0  0  0  0  0  0
   -5.3934   24.3711  -27.7660 H   0  0  0  0  0  0  0  0  0  0  0  0
   -3.6104   24.7251  -27.7834 H   0  0  0  0  0  0  0  0  0  0  0  0
   -6.6042   24.3429  -29.4279 H   0  0  0  0  0  0  0  0  0  0  0  0
   -6.1292   25.9682  -30.0444 H   0  0  0  0  0  0  0  0  0  0  0  0
   -6.7923   25.1189  -32.0628 H   0  0  0  0  0  0  0  0  0  0  0  0
   -5.1599   24.3515  -32.0419 H   0  0  0  0  0  0  0  0  0  0  0  0
   -9.5640   21.6980  -30.5620 H   0  0  0  0  0  0  0  0  0  0  0  0
   -5.2161   19.8109  -34.5191 H   0  0  0  0  0  0  0  0  0  0  0  0
   -4.2919   19.7386  -32.9608 H   0  0  0  0  0  0  0  0  0  0  0  0
   -4.0902   17.6982  -34.5246 H   0  0  0  0  0  0  0  0  0  0  0  0
   -4.5325   17.3862  -32.7962 H   0  0  0  0  0  0  0  0  0  0  0  0
   -6.5138   17.5415  -35.1243 H   0  0  0  0  0  0  0  0  0  0  0  0
   -5.8870   16.0227  -34.3733 H   0  0  0  0  0  0  0  0  0  0  0  0
   -8.1795   16.8125  -33.5385 H   0  0  0  0  0  0  0  0  0  0  0  0
   -6.9294   16.5199  -32.2708 H   0  0  0  0  0  0  0  0  0  0  0  0
   -4.5075   22.9317  -30.9178 H   0  0  0  0  0  0  0  0  0  0  0  0
   -3.5590   24.3457  -31.5266 H   0  0  0  0  0  0  0  0  0  0  0  0
   -2.0603   22.5316  -30.7783 H   0  0  0  0  0  0  0  0  0  0  0  0
   -1.9061   24.0089  -29.7303 H   0  0  0  0  0  0  0  0  0  0  0  0
  1  2  1  0
  2  3  1  0
  3  4  1  0
  4  5  1  0
  5  6  1  0
  6  7  1  0
  7  8  1  0
  8  9  1  0
  9 10  2  0
 10 11  1  0
 11 12  1  0
 12 13  1  0
 13 14  2  0
 14 15  1  0
 15 16  1  0
 16 17  2  0
 14 18  1  0
 18 19  1  0
 19 20  1  0
 20 21  1  0
  5 22  1  0
 22 23  1  0
 23  2  1  0
 16  8  1  0
 15 11  2  0
 21 13  1  0
  1 24  1  0
  1 25  1  0
  1 26  1  0
  3 27  1  0
  3 28  1  0
  4 29  1  0
  4 30  1  0
  6 31  1  0
  6 32  1  0
  7 33  1  0
  7 34  1  0
 10 35  1  0
 18 36  1  0
 18 37  1  0
 19 38  1  0
 19 39  1  0
 20 40  1  0
 20 41  1  0
 21 42  1  0
 21 43  1  0
 22 44  1  0
 22 45  1  0
 23 46  1  0
 23 47  1  0
M  CHG  1  10   1
M  END
>  <UniqueID>  (27) 
25

>  <SMILES>  (27) 
CN1CCN(CCn2n[nH+]c3sc4c(c3c2=O)CCCC4)CC1

>  <Energy>  (27) 
92.859704387137

>  <Genealogy>  (27) 
CN1CCN(CCn2n[nH+]c3sc4c(c3c2=O)CCCC4)CC1 (protonated)
CN1CCN(CCn2n[nH+]c3sc4c(c3c2=O)CCCC4)CC1 (3D coordinates assigned)
CN1CCN(CCn2n[nH+]c3sc4c(c3c2=O)CCCC4)CC1 (nonaromatic ring conformer: 92.859704387137 kcal/mol)

>  <smiles>  (27) 
CN1CCN(CCn2nnc3sc4c(c3c2=O)CCCC4)CC1

>  <score_type>  (27) 
oracle

>  <origin>  (27) 
adg

>  <m_score__min__energy>  (27) 
-8.2799999999999994

>  <m_primary>  (27) 
energy

$$$$
27:0
     RDKit          3D

 43 45  0  0  0  0  0  0  0  0999 V2000
   -9.9393   18.0539  -31.5456 H   0  0  0  0  0  0  0  0  0  0  0  0
   -9.0360   18.6150  -31.8270 C   0  0  0  0  0  0  0  0  0  0  0  0
   -7.8210   17.9450  -31.9900 C   0  0  0  0  0  0  0  0  0  0  0  0
   -7.7696   16.8563  -31.8413 H   0  0  0  0  0  0  0  0  0  0  0  0
   -6.6700   18.6570  -32.3420 C   0  0  0  0  0  0  0  0  0  0  0  0
   -5.7174   18.1239  -32.4773 H   0  0  0  0  0  0  0  0  0  0  0  0
   -6.7230   20.0500  -32.5240 C   0  0  0  0  0  0  0  0  0  0  0  0
   -5.4740   20.8010  -32.9370 C   0  0  0  0  0  0  0  0  0  0  0  0
   -5.5740   21.0850  -33.9950 H   0  0  0  0  0  0  0  0  0  0  0  0
   -4.2790   19.9610  -32.8100 N   0  0  0  0  0  0  0  0  0  0  0  0
   -3.4470   19.6630  -33.7670 C   0  0  0  0  0  0  0  0  0  0  0  0
   -2.4480   20.6050  -34.1970 N   0  0  0  0  0  0  0  0  0  0  0  0
   -2.6650   21.6270  -34.1820 H   0  0  0  0  0  0  0  0  0  0  0  0
   -1.0430   20.2240  -34.2860 C   0  0  0  0  0  0  0  0  0  0  0  0
   -0.4326   20.9965  -33.7954 H   0  0  0  0  0  0  0  0  0  0  0  0
   -0.7803   20.1301  -35.3500 H   0  0  0  0  0  0  0  0  0  0  0  0
   -0.7760   18.8740  -33.6070 C   0  0  0  0  0  0  0  0  0  0  0  0
   -1.3124   18.8617  -32.6467 H   0  0  0  0  0  0  0  0  0  0  0  0
    0.3153   18.7937  -33.4950 H   0  0  0  0  0  0  0  0  0  0  0  0
   -1.2200   17.6460  -34.4190 C   0  0  0  0  0  0  0  0  0  0  0  0
   -0.5735   16.7978  -34.1497 H   0  0  0  0  0  0  0  0  0  0  0  0
   -1.1352   17.9126  -35.4828 H   0  0  0  0  0  0  0  0  0  0  0  0
   -2.6860   17.2420  -34.1670 C   0  0  0  0  0  0  0  0  0  0  0  0
   -2.8031   16.9817  -33.1047 H   0  0  0  0  0  0  0  0  0  0  0  0
   -2.9150   16.3864  -34.8193 H   0  0  0  0  0  0  0  0  0  0  0  0
   -3.6710   18.3690  -34.5100 C   0  0  0  0  0  0  0  0  0  0  0  0
   -4.6869   18.0154  -34.2799 H   0  0  0  0  0  0  0  0  0  0  0  0
   -3.5171   18.5967  -35.5751 H   0  0  0  0  0  0  0  0  0  0  0  0
   -5.3280   22.0430  -32.0870 C   0  0  0  0  0  0  0  0  0  0  0  0
   -4.3000   22.1190  -31.1290 C   0  0  0  0  0  0  0  0  0  0  0  0
   -3.6259   21.2624  -30.9816 H   0  0  0  0  0  0  0  0  0  0  0  0
   -4.1300   23.2770  -30.3630 C   0  0  0  0  0  0  0  0  0  0  0  0
   -3.3299   23.3243  -29.6096 H   0  0  0  0  0  0  0  0  0  0  0  0
   -4.9740   24.3730  -30.5530 C   0  0  0  0  0  0  0  0  0  0  0  0
   -4.8405   25.2817  -29.9477 H   0  0  0  0  0  0  0  0  0  0  0  0
   -5.9880   24.3150  -31.5120 C   0  0  0  0  0  0  0  0  0  0  0  0
   -6.6502   25.1802  -31.6634 H   0  0  0  0  0  0  0  0  0  0  0  0
   -6.1630   23.1610  -32.2790 C   0  0  0  0  0  0  0  0  0  0  0  0
   -6.9583   23.1250  -33.0381 H   0  0  0  0  0  0  0  0  0  0  0  0
   -7.9570   20.7130  -32.3720 C   0  0  0  0  0  0  0  0  0  0  0  0
   -8.0172   21.7999  -32.5304 H   0  0  0  0  0  0  0  0  0  0  0  0
   -9.1050   19.9970  -32.0210 C   0  0  0  0  0  0  0  0  0  0  0  0
  -10.0637   20.5220  -31.8974 H   0  0  0  0  0  0  0  0  0  0  0  0
  1  2  1  0
  2  3  2  0
  3  4  1  0
  3  5  1  0
  5  6  1  0
  5  7  2  0
  7  8  1  0
  8  9  1  0
  8 10  1  0
 10 11  2  0
 11 12  1  0
 12 13  1  0
 12 14  1  0
 14 15  1  0
 14 16  1  0
 14 17  1  0
 17 18  1  0
 17 19  1  0
 17 20  1  0
 20 21  1  0
 20 22  1  0
 20 23  1  0
 23 24  1  0
 23 25  1  0
 23 26  1  0
 26 27  1  0
 26 28  1  0
  8 29  1  0
 29 30  2  0
 30 31  1  0
 30 32  1  0
 32 33  1  0
 32 34  2  0
 34 35  1  0
 34 36  1  0
 36 37  1  0
 36 38  2  0
 38 39  1  0
  7 40  1  0
 40 41  1  0
 40 42  2  0
 42 43  1  0
 42  2  1  0
 26 11  1  0
 38 29  1  0
M  END
>  <UniqueID>  (28) 
26

>  <SMILES>  (28) 
c1ccc(C(/N=C2/CCCCCN2)c2ccccc2)cc1

>  <Energy>  (28) 
48.678022542240896

>  <Genealogy>  (28) 
c1ccc(C(/N=C2/CCCCCN2)c2ccccc2)cc1 (cis-trans isomerization)
c1ccc(C(/N=C2/CCCCCN2)c2ccccc2)cc1 (3D coordinates assigned)
c1ccc(C(/N=C2/CCCCCN2)c2ccccc2)cc1 (nonaromatic ring conformer: 48.678022542240896 kcal/mol)

>  <smiles>  (28) 
c1ccc(C(N=C2CCCCCN2)c2ccccc2)cc1

>  <score_type>  (28) 
oracle

>  <origin>  (28) 
adg

>  <m_score__min__energy>  (28) 
-6.1200000000000001

>  <m_primary>  (28) 
energy

$$$$
28:0
     RDKit          3D

 46 48  0  0  0  0  0  0  0  0999 V2000
   -1.3510   21.1520  -33.7220 C   0  0  0  0  0  0  0  0  0  0  0  0
   -1.6150   19.9230  -33.2830 C   0  0  0  0  0  0  0  0  0  0  0  0
   -2.8340   19.1740  -33.6650 C   0  0  0  0  0  0  0  0  0  0  0  0
   -2.6840   18.0690  -34.5140 C   0  0  0  0  0  0  0  0  0  0  0  0
   -3.7910   17.3160  -34.9010 C   0  0  0  0  0  0  0  0  0  0  0  0
   -5.0580   17.6430  -34.4250 C   0  0  0  0  0  0  0  0  0  0  0  0
   -5.2410   18.7520  -33.5850 C   0  0  0  0  0  0  0  0  0  0  0  0
   -6.5800   18.9580  -32.9960 C   0  0  0  0  0  0  0  0  0  0  0  0
   -7.1270   17.9930  -32.1340 C   0  0  0  0  0  0  0  0  0  0  0  0
   -8.4020   18.1780  -31.5920 C   0  0  0  0  0  0  0  0  0  0  0  0
   -9.1430   19.3190  -31.9160 C   0  0  0  0  0  0  0  0  0  0  0  0
   -8.6110   20.2750  -32.7850 C   0  0  0  0  0  0  0  0  0  0  0  0
   -7.3350   20.0940  -33.3300 C   0  0  0  0  0  0  0  0  0  0  0  0
   -4.1290   19.5720  -33.2540 C   0  0  0  0  0  0  0  0  0  0  0  0
   -4.2630   20.7960  -32.5710 O   0  0  0  0  0  0  0  0  0  0  0  0
   -4.6830   20.9370  -31.2140 C   0  0  0  0  0  0  0  0  0  0  0  0
   -5.9630   21.7770  -31.1390 C   0  0  0  0  0  0  0  0  0  0  0  0
   -5.7640   23.0130  -30.3480 N   0  0  0  0  0  0  0  0  0  0  0  0
   -4.4420   23.0230  -29.6730 C   0  0  0  0  0  0  0  0  0  0  0  0
   -3.4360   23.9440  -30.3870 C   0  0  0  0  0  0  0  0  0  0  0  0
   -3.8640   25.2960  -30.4640 O   0  0  0  0  0  0  0  0  0  0  0  0
   -5.2750   25.4450  -30.5500 C   0  0  0  0  0  0  0  0  0  0  0  0
   -5.9910   24.2300  -31.1620 C   0  0  0  0  0  0  0  0  0  0  0  0
   -0.4294   21.6628  -33.4061 H   0  0  0  0  0  0  0  0  0  0  0  0
   -2.0545   21.6566  -34.4006 H   0  0  0  0  0  0  0  0  0  0  0  0
   -0.8944   19.4419  -32.6053 H   0  0  0  0  0  0  0  0  0  0  0  0
   -1.6833   17.7935  -34.8782 H   0  0  0  0  0  0  0  0  0  0  0  0
   -3.6637   16.4625  -35.5832 H   0  0  0  0  0  0  0  0  0  0  0  0
   -5.9232   17.0264  -34.7100 H   0  0  0  0  0  0  0  0  0  0  0  0
   -6.5506   17.0898  -31.8850 H   0  0  0  0  0  0  0  0  0  0  0  0
   -8.8232   17.4251  -30.9096 H   0  0  0  0  0  0  0  0  0  0  0  0
  -10.1452   19.4639  -31.4864 H   0  0  0  0  0  0  0  0  0  0  0  0
   -9.1958   21.1708  -33.0410 H   0  0  0  0  0  0  0  0  0  0  0  0
   -6.9224   20.8432  -34.0216 H   0  0  0  0  0  0  0  0  0  0  0  0
   -4.8767   19.9413  -30.7886 H   0  0  0  0  0  0  0  0  0  0  0  0
   -3.8892   21.4419  -30.6439 H   0  0  0  0  0  0  0  0  0  0  0  0
   -6.2684   22.0525  -32.1592 H   0  0  0  0  0  0  0  0  0  0  0  0
   -6.7386   21.1749  -30.6432 H   0  0  0  0  0  0  0  0  0  0  0  0
   -4.5739   23.3751  -28.6392 H   0  0  0  0  0  0  0  0  0  0  0  0
   -4.0409   21.9990  -29.6969 H   0  0  0  0  0  0  0  0  0  0  0  0
   -2.4830   23.9108  -29.8386 H   0  0  0  0  0  0  0  0  0  0  0  0
   -3.3354   23.5764  -31.4189 H   0  0  0  0  0  0  0  0  0  0  0  0
   -5.6693   25.6053  -29.5357 H   0  0  0  0  0  0  0  0  0  0  0  0
   -5.4670   26.2991  -31.2161 H   0  0  0  0  0  0  0  0  0  0  0  0
   -7.0707   24.4350  -31.2088 H   0  0  0  0  0  0  0  0  0  0  0  0
   -5.5869   24.0570  -32.1704 H   0  0  0  0  0  0  0  0  0  0  0  0
  1  2  2  0
  2  3  1  0
  3  4  2  0
  4  5  1  0
  5  6  2  0
  6  7  1  0
  7  8  1  0
  8  9  2  0
  9 10  1  0
 10 11  2  0
 11 12  1  0
 12 13  2  0
  7 14  2  0
 14 15  1  0
 15 16  1  0
 16 17  1  0
 17 18  1  0
 18 19  1  0
 19 20  1  0
 20 21  1  0
 21 22  1  0
 22 23  1  0
 14  3  1  0
 23 18  1  0
 13  8  1  0
  1 24  1  0
  1 25  1  0
  2 26  1  0
  4 27  1  0
  5 28  1  0
  6 29  1  0
  9 30  1  0
 10 31  1  0
 11 32  1  0
 12 33  1  0
 13 34  1  0
 16 35  1  0
 16 36  1  0
 17 37  1  0
 17 38  1  0
 19 39  1  0
 19 40  1  0
 20 41  1  0
 20 42  1  0
 22 43  1  0
 22 44  1  0
 23 45  1  0
 23 46  1  0
M  END
>  <UniqueID>  (29) 
27

>  <SMILES>  (29) 
C=Cc1cccc(-c2ccccc2)c1OCCN1CCOCC1

>  <Energy>  (29) 
75.11890328962711

>  <Genealogy>  (29) 
C=Cc1cccc(-c2ccccc2)c1OCCN1CCOCC1 (3D coordinates assigned)
C=Cc1cccc(-c2ccccc2)c1OCCN1CCOCC1 (nonaromatic ring conformer: 75.11890328962711 kcal/mol)

>  <smiles>  (29) 
C=Cc1cccc(-c2ccccc2)c1OCCN1CCOCC1

>  <score_type>  (29) 
oracle

>  <origin>  (29) 
adg

>  <m_score__min__energy>  (29) 
-8.6400000000000006

>  <m_primary>  (29) 
energy

$$$$
29:0
     RDKit          3D

 66 70  0  0  0  0  0  0  0  0999 V2000
    2.4737   26.1498  -27.3623 H   0  0  0  0  0  0  0  0  0  0  0  0
    1.7260   25.3720  -27.1480 C   0  0  0  0  0  0  0  0  0  0  0  0
    0.5540   25.3470  -27.8390 N   0  0  0  0  0  0  0  0  0  0  0  0
   -0.4000   24.4010  -27.6070 C   0  0  0  0  0  0  0  0  0  0  0  0
   -0.1790   23.4070  -26.6340 C   0  0  0  0  0  0  0  0  0  0  0  0
    1.0250   23.4280  -25.9110 C   0  0  0  0  0  0  0  0  0  0  0  0
    1.2158   22.6669  -25.1401 H   0  0  0  0  0  0  0  0  0  0  0  0
    1.9800   24.4130  -26.1690 C   0  0  0  0  0  0  0  0  0  0  0  0
    2.9242   24.4321  -25.6049 H   0  0  0  0  0  0  0  0  0  0  0  0
   -1.1850   22.3440  -26.4200 C   0  0  0  0  0  0  0  0  0  0  0  0
   -1.0270   21.5070  -25.4910 O   0  0  0  0  0  0  0  0  0  0  0  0
   -2.3830   22.2950  -27.2990 C   0  0  0  0  0  0  0  0  0  0  0  0
   -3.0950   21.2190  -27.4790 N   0  0  0  0  0  0  0  0  0  0  0  0
   -2.7300   20.0360  -28.2560 C   0  0  0  0  0  0  0  0  0  0  0  0
   -2.7171   20.2919  -29.3257 H   0  0  0  0  0  0  0  0  0  0  0  0
   -3.4675   19.2406  -28.0730 H   0  0  0  0  0  0  0  0  0  0  0  0
   -1.3400   19.5430  -27.8340 C   0  0  0  0  0  0  0  0  0  0  0  0
   -1.3342   18.4437  -27.8741 H   0  0  0  0  0  0  0  0  0  0  0  0
   -1.1568   19.9264  -26.8194 H   0  0  0  0  0  0  0  0  0  0  0  0
   -0.1990   20.0690  -28.7280 C   0  0  0  0  0  0  0  0  0  0  0  0
    0.1836   19.2255  -29.3214 H   0  0  0  0  0  0  0  0  0  0  0  0
    0.5461   20.5026  -28.0448 H   0  0  0  0  0  0  0  0  0  0  0  0
   -0.5890   21.1960  -29.7010 C   0  0  0  0  0  0  0  0  0  0  0  0
    0.0332   22.0769  -29.4845 H   0  0  0  0  0  0  0  0  0  0  0  0
   -1.6592   21.4027  -29.5530 H   0  0  0  0  0  0  0  0  0  0  0  0
   -0.3950   20.8100  -31.1760 C   0  0  0  0  0  0  0  0  0  0  0  0
   -0.5942   19.7339  -31.2874 H   0  0  0  0  0  0  0  0  0  0  0  0
    0.6392   21.0628  -31.4525 H   0  0  0  0  0  0  0  0  0  0  0  0
   -1.3320   21.5850  -32.1210 C   0  0  0  0  0  0  0  0  0  0  0  0
   -0.7137   22.1237  -32.8542 H   0  0  0  0  0  0  0  0  0  0  0  0
   -1.9299   22.2590  -31.4900 H   0  0  0  0  0  0  0  0  0  0  0  0
   -2.3250   20.7020  -32.8860 C   0  0  0  0  0  0  0  0  0  0  0  0
   -2.5032   19.7772  -32.3176 H   0  0  0  0  0  0  0  0  0  0  0  0
   -1.9054   20.4578  -33.8731 H   0  0  0  0  0  0  0  0  0  0  0  0
   -3.5880   21.4110  -33.0640 N   0  0  0  0  0  0  0  0  0  0  0  0
   -4.7350   21.3610  -32.4280 C   0  0  0  0  0  0  0  0  0  0  0  0
   -5.2770   22.4250  -31.6370 C   0  0  0  0  0  0  0  0  0  0  0  0
   -4.5190   23.5060  -31.1210 C   0  0  0  0  0  0  0  0  0  0  0  0
   -3.4314   23.5283  -31.2839 H   0  0  0  0  0  0  0  0  0  0  0  0
   -5.1260   24.5430  -30.4100 C   0  0  0  0  0  0  0  0  0  0  0  0
   -4.5198   25.3860  -30.0468 H   0  0  0  0  0  0  0  0  0  0  0  0
   -6.4930   24.5150  -30.1590 C   0  0  0  0  0  0  0  0  0  0  0  0
   -6.9745   25.3525  -29.6329 H   0  0  0  0  0  0  0  0  0  0  0  0
   -7.2500   23.4250  -30.5750 C   0  0  0  0  0  0  0  0  0  0  0  0
   -8.3262   23.3915  -30.3497 H   0  0  0  0  0  0  0  0  0  0  0  0
   -6.6530   22.3650  -31.2810 C   0  0  0  0  0  0  0  0  0  0  0  0
   -7.4040   21.2710  -31.5890 N   0  0  0  0  0  0  0  0  0  0  0  0
   -8.4090   21.2770  -31.3040 H   0  0  0  0  0  0  0  0  0  0  0  0
   -6.8770   20.1740  -32.2040 C   0  0  0  0  0  0  0  0  0  0  0  0
   -7.6680   19.0150  -32.4360 C   0  0  0  0  0  0  0  0  0  0  0  0
   -9.1060   18.9300  -31.9920 C   0  0  0  0  0  0  0  0  0  0  0  0
   -9.1508   18.9273  -30.8929 H   0  0  0  0  0  0  0  0  0  0  0  0
   -9.6613   19.7969  -32.3795 H   0  0  0  0  0  0  0  0  0  0  0  0
   -9.5553   18.0037  -32.3795 H   0  0  0  0  0  0  0  0  0  0  0  0
   -7.1050   17.9120  -33.0930 C   0  0  0  0  0  0  0  0  0  0  0  0
   -7.7153   17.0144  -33.2717 H   0  0  0  0  0  0  0  0  0  0  0  0
   -5.7820   17.9420  -33.5210 C   0  0  0  0  0  0  0  0  0  0  0  0
   -5.3535   17.0699  -34.0366 H   0  0  0  0  0  0  0  0  0  0  0  0
   -4.9980   19.0700  -33.3000 C   0  0  0  0  0  0  0  0  0  0  0  0
   -3.9546   19.0826  -33.6480 H   0  0  0  0  0  0  0  0  0  0  0  0
   -5.5250   20.2000  -32.6340 C   0  0  0  0  0  0  0  0  0  0  0  0
   -2.8200   23.5540  -27.9990 C   0  0  1  0  0  0  0  0  0  0  0  0
   -3.3337   23.2606  -28.9264 H   0  0  0  0  0  0  0  0  0  0  0  0
   -4.0080   24.5470  -26.8340 Br  0  0  0  0  0  0  0  0  0  0  0  0
   -1.6570   24.4280  -28.3790 C   0  0  0  0  0  0  0  0  0  0  0  0
   -1.7850   25.2410  -29.3360 O   0  0  0  0  0  0  0  0  0  0  0  0
  1  2  1  0
  2  3  2  0
  3  4  1  0
  4  5  2  0
  5  6  1  0
  6  7  1  0
  6  8  2  0
  8  9  1  0
  5 10  1  0
 10 11  2  0
 10 12  1  0
 12 13  2  3
 13 14  1  0
 14 15  1  0
 14 16  1  0
 14 17  1  0
 17 18  1  0
 17 19  1  0
 17 20  1  0
 20 21  1  0
 20 22  1  0
 20 23  1  0
 23 24  1  0
 23 25  1  0
 23 26  1  0
 26 27  1  0
 26 28  1  0
 26 29  1  0
 29 30  1  0
 29 31  1  0
 29 32  1  0
 32 33  1  0
 32 34  1  0
 32 35  1  0
 35 36  2  0
 36 37  1  0
 37 38  2  0
 38 39  1  0
 38 40  1  0
 40 41  1  0
 40 42  2  0
 42 43  1  0
 42 44  1  0
 44 45  1  0
 44 46  2  0
 46 47  1  0
 47 48  1  0
 47 49  1  0
 49 50  2  0
 50 51  1  0
 51 52  1  0
 51 53  1  0
 51 54  1  0
 50 55  1  0
 55 56  1  0
 55 57  2  0
 57 58  1  0
 57 59  1  0
 59 60  1  0
 59 61  2  0
 12 62  1  0
 62 63  1  6
 62 64  1  0
 62 65  1  0
 65 66  2  0
  8  2  1  0
 61 36  1  0
 65  4  1  0
 46 37  1  0
 61 49  1  0
M  END
>  <UniqueID>  (30) 
28

>  <SMILES>  (30) 
Cc1cccc2/c(=N/CCCCCCCN=C3C(=O)c4cccnc4C(=O)[C@@H]3Br)c3ccccc3[nH]c12

>  <Energy>  (30) 
93.41720391163888

>  <Genealogy>  (30) 
Cc1cccc2c(=NCCCCCCCN=C3C(=O)c4cccnc4C(=O)[C@@H]3Br)c3ccccc3[nH]c12 (chirality)
Cc1cccc2/c(=N/CCCCCCCN=C3C(=O)c4cccnc4C(=O)[C@@H]3Br)c3ccccc3[nH]c12 (cis-trans isomerization)
Cc1cccc2/c(=N/CCCCCCCN=C3C(=O)c4cccnc4C(=O)[C@@H]3Br)c3ccccc3[nH]c12 (3D coordinates assigned)
Cc1cccc2/c(=N/CCCCCCCN=C3C(=O)c4cccnc4C(=O)[C@@H]3Br)c3ccccc3[nH]c12 (nonaromatic ring conformer: 93.41720391163888 kcal/mol)

>  <smiles>  (30) 
Cc1cccc2c(=NCCCCCCCN=C3C(=O)c4cccnc4C(=O)C3Br)c3ccccc3[nH]c12

>  <score_type>  (30) 
oracle

>  <origin>  (30) 
adg

>  <m_score__min__energy>  (30) 
-11.140000000000001

>  <m_primary>  (30) 
energy

$$$$
30:0
     RDKit          3D

 51 56  0  0  0  0  0  0  0  0999 V2000
   -3.0930   23.9750  -28.3360 O   0  0  0  0  0  0  0  0  0  0  0  0
   -2.7630   24.8890  -29.1390 C   0  0  0  0  0  0  0  0  0  0  0  0
   -3.6100   25.2290  -30.2420 N   0  0  0  0  0  0  0  0  0  0  0  0
   -4.6130   24.3840  -30.8230 C   0  0  0  0  0  0  0  0  0  0  0  0
   -4.3050   23.1040  -31.3170 C   0  0  0  0  0  0  0  0  0  0  0  0
   -5.3080   22.3000  -31.8670 C   0  0  0  0  0  0  0  0  0  0  0  0
   -6.6330   22.7660  -31.9330 C   0  0  0  0  0  0  0  0  0  0  0  0
   -7.6630   21.9930  -32.4880 O   0  0  0  0  0  0  0  0  0  0  0  0
   -7.8130   20.6110  -32.3080 C   0  0  0  0  0  0  0  0  0  0  0  0
   -8.9260   20.1210  -31.6070 C   0  0  0  0  0  0  0  0  0  0  0  0
   -9.0880   18.7340  -31.4250 C   0  0  0  0  0  0  0  0  0  0  0  0
   -8.1810   17.8560  -31.9440 N   0  0  0  0  0  0  0  0  0  0  0  0
   -7.1100   18.3140  -32.6430 C   0  0  0  0  0  0  0  0  0  0  0  0
   -6.1470   17.5030  -33.2460 C   0  0  0  0  0  0  0  0  0  0  0  0
   -5.1880   18.2490  -33.9330 C   0  0  0  0  0  0  0  0  0  0  0  0
   -4.0430   17.7020  -34.6730 C   0  0  0  0  0  0  0  0  0  0  0  0
   -4.1930   16.6910  -35.4110 O   0  0  0  0  0  0  0  0  0  0  0  0
   -2.7570   18.3140  -34.5440 N   0  0  0  0  0  0  0  0  0  0  0  0
   -2.3460   19.0170  -33.3370 C   0  0  0  0  0  0  0  0  0  0  0  0
   -2.3740   20.5270  -33.4770 C   0  0  0  0  0  0  0  0  0  0  0  0
   -1.0480   19.7820  -33.5140 C   0  0  0  0  0  0  0  0  0  0  0  0
   -5.5500   19.8970  -33.7890 S   0  0  0  0  0  0  0  0  0  0  0  0
   -6.9160   19.6730  -32.8340 C   0  0  0  0  0  0  0  0  0  0  0  0
   -6.9450   24.0200  -31.3960 C   0  0  0  0  0  0  0  0  0  0  0  0
   -5.9440   24.8220  -30.8410 C   0  0  0  0  0  0  0  0  0  0  0  0
   -6.2670   26.0380  -30.3350 F   0  0  0  0  0  0  0  0  0  0  0  0
   -1.4950   25.5360  -29.0100 N   0  0  0  0  0  0  0  0  0  0  0  0
   -0.5320   25.2300  -27.9950 C   0  0  0  0  0  0  0  0  0  0  0  0
    0.6000   24.5390  -28.3050 N   0  0  0  0  0  0  0  0  0  0  0  0
    1.4440   24.3780  -26.8770 S   0  0  0  0  0  0  0  0  0  0  0  0
    0.4090   25.1870  -25.8580 C   0  0  0  0  0  0  0  0  0  0  0  0
    0.5220   25.4650  -24.5010 C   0  0  0  0  0  0  0  0  0  0  0  0
   -0.4900   26.2310  -23.9050 C   0  0  0  0  0  0  0  0  0  0  0  0
   -1.5670   26.7100  -24.6760 C   0  0  0  0  0  0  0  0  0  0  0  0
   -1.6490   26.4170  -26.0500 C   0  0  0  0  0  0  0  0  0  0  0  0
   -0.6520   25.6250  -26.6350 C   0  0  0  0  0  0  0  0  0  0  0  0
   -3.2703   22.7336  -31.2705 H   0  0  0  0  0  0  0  0  0  0  0  0
   -5.0596   21.2990  -32.2496 H   0  0  0  0  0  0  0  0  0  0  0  0
   -9.6714   20.8201  -31.2000 H   0  0  0  0  0  0  0  0  0  0  0  0
   -9.9525   18.3552  -30.8600 H   0  0  0  0  0  0  0  0  0  0  0  0
   -6.1443   16.4046  -33.1867 H   0  0  0  0  0  0  0  0  0  0  0  0
   -2.7384   18.2978  -32.6030 H   0  0  0  0  0  0  0  0  0  0  0  0
   -2.7722   20.9874  -34.3932 H   0  0  0  0  0  0  0  0  0  0  0  0
   -2.7845   21.3563  -32.8823 H   0  0  0  0  0  0  0  0  0  0  0  0
   -0.4871   19.7034  -34.4570 H   0  0  0  0  0  0  0  0  0  0  0  0
   -0.1017   19.8489  -32.9572 H   0  0  0  0  0  0  0  0  0  0  0  0
   -7.9854   24.3770  -31.4108 H   0  0  0  0  0  0  0  0  0  0  0  0
    1.3765   25.0966  -23.9143 H   0  0  0  0  0  0  0  0  0  0  0  0
   -0.4425   26.4590  -22.8299 H   0  0  0  0  0  0  0  0  0  0  0  0
   -2.3505   27.3181  -24.2002 H   0  0  0  0  0  0  0  0  0  0  0  0
   -2.4824   26.8035  -26.6550 H   0  0  0  0  0  0  0  0  0  0  0  0
  1  2  2  0
  2  3  1  0
  3  4  1  0
  4  5  2  0
  5  6  1  0
  6  7  2  0
  7  8  1  0
  8  9  1  0
  9 10  2  0
 10 11  1  0
 11 12  2  0
 12 13  1  0
 13 14  1  0
 14 15  2  0
 15 16  1  0
 16 17  2  0
 16 18  1  0
 18 19  1  0
 19 20  1  0
 20 21  1  0
 15 22  1  0
 22 23  1  0
  7 24  1  0
 24 25  2  0
 25 26  1  0
  2 27  1  0
 27 28  1  0
 28 29  2  0
 29 30  1  0
 30 31  1  0
 31 32  2  0
 32 33  1  0
 33 34  2  0
 34 35  1  0
 35 36  2  0
 25  4  1  0
 36 28  1  0
 23  9  1  0
 36 31  1  0
 23 13  2  0
 21 19  1  0
  5 37  1  0
  6 38  1  0
 10 39  1  0
 11 40  1  0
 14 41  1  0
 19 42  1  0
 20 43  1  0
 20 44  1  0
 21 45  1  0
 21 46  1  0
 24 47  1  0
 32 48  1  0
 33 49  1  0
 34 50  1  0
 35 51  1  0
M  CHG  3   3  -1  18  -1  27  -1
M  END
>  <UniqueID>  (31) 
29

>  <SMILES>  (31) 
O=C([N-]c1ccc(Oc2ccnc3cc(C(=O)[N-]C4CC4)sc23)cc1F)[N-]c1nsc2ccccc12

>  <Energy>  (31) 
407.1978769518024

>  <Genealogy>  (31) 
O=C([N-]c1ccc(Oc2ccnc3cc(C(=O)[N-]C4CC4)sc23)cc1F)[N-]c1nsc2ccccc12 (protonated)
O=C([N-]c1ccc(Oc2ccnc3cc(C(=O)[N-]C4CC4)sc23)cc1F)[N-]c1nsc2ccccc12 (3D coordinates assigned)
O=C([N-]c1ccc(Oc2ccnc3cc(C(=O)[N-]C4CC4)sc23)cc1F)[N-]c1nsc2ccccc12 (nonaromatic ring conformer: 407.1978769518024 kcal/mol)

>  <smiles>  (31) 
O=C(Nc1ccc(Oc2ccnc3cc(C(=O)NC4CC4)sc23)cc1F)Nc1nsc2ccccc12

>  <score_type>  (31) 
oracle

>  <origin>  (31) 
adg

>  <m_score__min__energy>  (31) 
-14.48

>  <m_primary>  (31) 
energy

$$$$
31:0
     RDKit          3D

 26 27  0  0  0  0  0  0  0  0999 V2000
   -4.1600   25.3360  -30.9930 O   0  0  0  0  0  0  0  0  0  0  0  0
   -3.8380   24.9600  -29.8350 C   0  0  0  0  0  0  0  0  0  0  0  0
   -2.5690   25.2480  -29.3470 O   0  0  0  0  0  0  0  0  0  0  0  0
   -4.8320   24.2510  -28.9700 C   0  0  0  0  0  0  0  0  0  0  0  0
   -6.0970   23.8900  -29.7530 C   0  0  0  0  0  0  0  0  0  0  0  0
   -5.7910   22.9490  -30.8260 N   0  0  0  0  0  0  0  0  0  0  0  0
   -6.2580   21.7140  -30.8920 N   0  0  0  0  0  0  0  0  0  0  0  0
   -5.7750   21.2450  -32.0640 C   0  0  0  0  0  0  0  0  0  0  0  0
   -6.0300   19.8870  -32.5860 C   0  0  0  0  0  0  0  0  0  0  0  0
   -6.9210   19.0240  -31.9220 C   0  0  0  0  0  0  0  0  0  0  0  0
   -7.1610   17.7380  -32.4170 C   0  0  0  0  0  0  0  0  0  0  0  0
   -6.5150   17.3010  -33.5780 C   0  0  0  0  0  0  0  0  0  0  0  0
   -6.8170   15.6880  -34.1960 Cl  0  0  0  0  0  0  0  0  0  0  0  0
   -5.6280   18.1520  -34.2430 C   0  0  0  0  0  0  0  0  0  0  0  0
   -5.3850   19.4390  -33.7520 C   0  0  0  0  0  0  0  0  0  0  0  0
   -5.0380   22.1820  -32.7020 N   0  0  0  0  0  0  0  0  0  0  0  0
   -5.0750   23.2300  -31.8990 N   0  0  0  0  0  0  0  0  0  0  0  0
   -4.3754   23.3283  -28.5826 H   0  0  0  0  0  0  0  0  0  0  0  0
   -5.1148   24.9225  -28.1459 H   0  0  0  0  0  0  0  0  0  0  0  0
   -6.8264   23.4321  -29.0687 H   0  0  0  0  0  0  0  0  0  0  0  0
   -6.5116   24.8075  -30.1960 H   0  0  0  0  0  0  0  0  0  0  0  0
   -7.4317   19.3625  -31.0085 H   0  0  0  0  0  0  0  0  0  0  0  0
   -7.8590   17.0691  -31.8923 H   0  0  0  0  0  0  0  0  0  0  0  0
   -5.1192   17.8085  -35.1557 H   0  0  0  0  0  0  0  0  0  0  0  0
   -4.6859   20.1037  -34.2807 H   0  0  0  0  0  0  0  0  0  0  0  0
   -4.6130   24.1470  -32.0950 H   0  0  0  0  0  0  0  0  0  0  0  0
  1  2  2  0
  2  3  1  0
  2  4  1  0
  4  5  1  0
  5  6  1  0
  6  7  1  0
  7  8  2  0
  8  9  1  0
  9 10  2  0
 10 11  1  0
 11 12  2  0
 12 13  1  0
 12 14  1  0
 14 15  2  0
  8 16  1  0
 16 17  2  0
 17  6  1  0
 15  9  1  0
  4 18  1  0
  4 19  1  0
  5 20  1  0
  5 21  1  0
 10 22  1  0
 11 23  1  0
 14 24  1  0
 15 25  1  0
 17 26  1  0
M  CHG  2   3  -1  17   1
M  END
>  <UniqueID>  (32) 
30

>  <SMILES>  (32) 
O=C([O-])CCn1nc(-c2ccc(Cl)cc2)n[nH+]1

>  <Energy>  (32) 
61.27532693915481

>  <Genealogy>  (32) 
O=C([O-])CCn1nc(-c2ccc(Cl)cc2)n[nH+]1 (protonated)
O=C([O-])CCn1nc(-c2ccc(Cl)cc2)n[nH+]1 (3D coordinates assigned)
O=C([O-])CCn1nc(-c2ccc(Cl)cc2)n[nH+]1 (optimized conformer: 61.27532693915481 kcal/mol)

>  <smiles>  (32) 
O=C(O)CCn1nnc(-c2ccc(Cl)cc2)n1

>  <score_type>  (32) 
oracle

>  <origin>  (32) 
adg

>  <m_score__min__energy>  (32) 
-9.6400000000000006

>  <m_primary>  (32) 
energy

$$$$
32:0
     RDKit          3D

 57 61  0  0  0  0  0  0  0  0999 V2000
   -5.2710   25.4330  -30.5680 C   0  0  0  0  0  0  0  0  0  0  0  0
   -3.8630   25.2710  -30.4320 O   0  0  0  0  0  0  0  0  0  0  0  0
   -3.2460   24.1910  -29.7760 C   0  0  0  0  0  0  0  0  0  0  0  0
   -3.4350   24.0520  -28.3960 C   0  0  0  0  0  0  0  0  0  0  0  0
   -2.8440   22.9900  -27.7020 C   0  0  0  0  0  0  0  0  0  0  0  0
   -2.0610   22.0540  -28.3800 C   0  0  0  0  0  0  0  0  0  0  0  0
   -1.8580   22.1730  -29.7650 C   0  0  0  0  0  0  0  0  0  0  0  0
   -1.0580   21.2010  -30.4690 N   0  0  0  0  0  0  0  0  0  0  0  0
   -0.4430   21.5470  -31.7600 C   0  0  0  0  0  0  0  0  0  0  0  0
    0.5980   20.4980  -32.1870 C   0  0  0  0  0  0  0  0  0  0  0  0
    0.0910   19.1090  -32.0930 N   0  0  0  0  0  0  0  0  0  0  0  0
   -0.2960   18.5000  -33.3850 C   0  0  0  0  0  0  0  0  0  0  0  0
   -1.1080   19.4390  -34.2970 C   0  0  0  0  0  0  0  0  0  0  0  0
   -2.5490   19.3560  -33.9660 N   0  0  0  0  0  0  0  0  0  0  0  0
   -3.2440   18.1670  -34.0640 C   0  0  0  0  0  0  0  0  0  0  0  0
   -2.5150   16.7680  -34.5470 S   0  0  0  0  0  0  0  0  0  0  0  0
   -4.5670   18.1180  -33.7450 N   0  0  0  0  0  0  0  0  0  0  0  0
   -5.2350   19.2120  -33.3080 C   0  0  0  0  0  0  0  0  0  0  0  0
   -6.5280   19.1100  -33.0100 O   0  0  0  0  0  0  0  0  0  0  0  0
   -7.2500   20.1340  -32.5680 C   0  0  0  0  0  0  0  0  0  0  0  0
   -8.6050   19.9480  -32.2730 C   0  0  0  0  0  0  0  0  0  0  0  0
   -9.3760   21.0170  -31.8050 C   0  0  0  0  0  0  0  0  0  0  0  0
   -8.7970   22.2760  -31.6280 C   0  0  0  0  0  0  0  0  0  0  0  0
   -7.4450   22.4740  -31.9200 C   0  0  0  0  0  0  0  0  0  0  0  0
   -6.6580   21.4040  -32.3930 C   0  0  0  0  0  0  0  0  0  0  0  0
   -5.2950   21.5540  -32.6990 C   0  0  0  0  0  0  0  0  0  0  0  0
   -4.7390   22.6790  -32.5520 O   0  0  0  0  0  0  0  0  0  0  0  0
   -4.5620   20.4380  -33.1670 C   0  0  0  0  0  0  0  0  0  0  0  0
   -3.1910   20.4820  -33.5020 C   0  0  0  0  0  0  0  0  0  0  0  0
   -2.5490   21.5630  -33.3690 O   0  0  0  0  0  0  0  0  0  0  0  0
   -0.8630   18.8230  -30.9950 C   0  0  0  0  0  0  0  0  0  0  0  0
   -0.8130   19.8770  -29.8870 C   0  0  0  0  0  0  0  0  0  0  0  0
   -2.4500   23.2490  -30.4560 C   0  0  0  0  0  0  0  0  0  0  0  0
   -5.7320   25.4860  -29.5707 H   0  0  0  0  0  0  0  0  0  0  0  0
   -5.4817   26.3613  -31.1192 H   0  0  0  0  0  0  0  0  0  0  0  0
   -5.6871   24.5768  -31.1192 H   0  0  0  0  0  0  0  0  0  0  0  0
   -4.0525   24.7827  -27.8531 H   0  0  0  0  0  0  0  0  0  0  0  0
   -2.9972   22.8924  -26.6171 H   0  0  0  0  0  0  0  0  0  0  0  0
   -1.6016   21.2207  -27.8281 H   0  0  0  0  0  0  0  0  0  0  0  0
   -1.2294   21.6031  -32.5271 H   0  0  0  0  0  0  0  0  0  0  0  0
    0.0672   22.5154  -31.6511 H   0  0  0  0  0  0  0  0  0  0  0  0
    0.8879   20.6957  -33.2295 H   0  0  0  0  0  0  0  0  0  0  0  0
    1.4530   20.5838  -31.5003 H   0  0  0  0  0  0  0  0  0  0  0  0
    0.6202   18.2059  -33.9179 H   0  0  0  0  0  0  0  0  0  0  0  0
   -0.9426   17.6409  -33.1531 H   0  0  0  0  0  0  0  0  0  0  0  0
   -0.7616   20.4732  -34.1538 H   0  0  0  0  0  0  0  0  0  0  0  0
   -0.9629   19.1350  -35.3442 H   0  0  0  0  0  0  0  0  0  0  0  0
   -5.0890   17.2160  -33.8300 H   0  0  0  0  0  0  0  0  0  0  0  0
   -9.0652   18.9583  -32.4095 H   0  0  0  0  0  0  0  0  0  0  0  0
  -10.4412   20.8660  -31.5757 H   0  0  0  0  0  0  0  0  0  0  0  0
   -9.4068   23.1133  -31.2579 H   0  0  0  0  0  0  0  0  0  0  0  0
   -6.9934   23.4673  -31.7805 H   0  0  0  0  0  0  0  0  0  0  0  0
   -1.8812   18.7956  -31.4103 H   0  0  0  0  0  0  0  0  0  0  0  0
   -0.5818   17.8568  -30.5506 H   0  0  0  0  0  0  0  0  0  0  0  0
   -1.5851   19.6571  -29.1350 H   0  0  0  0  0  0  0  0  0  0  0  0
    0.1766   19.8618  -29.4070 H   0  0  0  0  0  0  0  0  0  0  0  0
   -2.2885   23.3544  -31.5390 H   0  0  0  0  0  0  0  0  0  0  0  0
  1  2  1  0
  2  3  1  0
  3  4  2  0
  4  5  1  0
  5  6  2  0
  6  7  1  0
  7  8  1  0
  8  9  1  0
  9 10  1  0
 10 11  1  0
 11 12  1  0
 12 13  1  0
 13 14  1  0
 14 15  1  0
 15 16  2  0
 15 17  1  0
 17 18  1  0
 18 19  1  0
 19 20  1  0
 20 21  2  0
 21 22  1  0
 22 23  2  0
 23 24  1  0
 24 25  2  0
 25 26  1  0
 26 27  2  0
 26 28  1  0
 28 29  1  0
 29 30  2  0
 11 31  1  0
 31 32  1  0
  7 33  2  0
 33  3  1  0
 32  8  1  0
 29 14  1  0
 28 18  2  0
 25 20  1  0
  1 34  1  0
  1 35  1  0
  1 36  1  0
  4 37  1  0
  5 38  1  0
  6 39  1  0
  9 40  1  0
  9 41  1  0
 10 42  1  0
 10 43  1  0
 12 44  1  0
 12 45  1  0
 13 46  1  0
 13 47  1  0
 17 48  1  0
 21 49  1  0
 22 50  1  0
 23 51  1  0
 24 52  1  0
 31 53  1  0
 31 54  1  0
 32 55  1  0
 32 56  1  0
 33 57  1  0
M  END
>  <UniqueID>  (33) 
31

>  <SMILES>  (33) 
COc1cccc(N2CCN(CCn3c(=S)[nH]c4oc5ccccc5c(=O)c4c3=O)CC2)c1

>  <Energy>  (33) 
91.35317120359267

>  <Genealogy>  (33) 
COc1cccc(N2CCN(CCn3c(=S)[nH]c4oc5ccccc5c(=O)c4c3=O)CC2)c1 (3D coordinates assigned)
COc1cccc(N2CCN(CCn3c(=S)[nH]c4oc5ccccc5c(=O)c4c3=O)CC2)c1 (nonaromatic ring conformer: 91.35317120359267 kcal/mol)

>  <smiles>  (33) 
COc1cccc(N2CCN(CCn3c(=S)[nH]c4oc5ccccc5c(=O)c4c3=O)CC2)c1

>  <score_type>  (33) 
oracle

>  <origin>  (33) 
adg

>  <m_score__min__energy>  (33) 
-9.5600000000000005

>  <m_primary>  (33) 
energy

$$$$
33:0
     RDKit          3D

 34 36  0  0  0  0  0  0  0  0999 V2000
   -1.8130   25.6600  -28.9630 O   0  0  0  0  0  0  0  0  0  0  0  0
   -2.7680   24.8760  -29.2090 C   0  0  0  0  0  0  0  0  0  0  0  0
   -3.2170   23.9060  -28.1610 C   0  0  0  0  0  0  0  0  0  0  0  0
   -2.1390   23.6610  -27.2000 N   0  0  0  0  0  0  0  0  0  0  0  0
   -1.3860   22.5350  -27.0320 C   0  0  0  0  0  0  0  0  0  0  0  0
   -1.4770   21.3110  -27.8970 C   0  0  0  0  0  0  0  0  0  0  0  0
   -2.7400   20.7550  -27.8030 F   0  0  0  0  0  0  0  0  0  0  0  0
   -0.5470   20.3750  -27.4790 F   0  0  0  0  0  0  0  0  0  0  0  0
   -1.2370   21.6430  -29.2160 F   0  0  0  0  0  0  0  0  0  0  0  0
   -0.4990   22.6320  -26.0050 N   0  0  0  0  0  0  0  0  0  0  0  0
   -0.7250   23.8650  -25.5190 C   0  0  0  0  0  0  0  0  0  0  0  0
   -0.0880   24.4820  -24.4450 C   0  0  0  0  0  0  0  0  0  0  0  0
   -0.4920   25.7880  -24.1060 C   0  0  0  0  0  0  0  0  0  0  0  0
   -1.5090   26.4360  -24.8420 C   0  0  0  0  0  0  0  0  0  0  0  0
   -2.1330   25.7840  -25.9230 C   0  0  0  0  0  0  0  0  0  0  0  0
   -1.7090   24.4880  -26.2300 C   0  0  0  0  0  0  0  0  0  0  0  0
   -3.4900   24.9640  -30.4450 N   0  0  0  0  0  0  0  0  0  0  0  0
   -4.7620   24.3710  -30.7370 C   0  0  0  0  0  0  0  0  0  0  0  0
   -5.9100   24.9240  -30.1540 C   0  0  0  0  0  0  0  0  0  0  0  0
   -7.1670   24.3610  -30.3960 C   0  0  0  0  0  0  0  0  0  0  0  0
   -7.2840   23.2320  -31.2110 C   0  0  0  0  0  0  0  0  0  0  0  0
   -6.1430   22.6590  -31.7770 C   0  0  0  0  0  0  0  0  0  0  0  0
   -4.8840   23.2200  -31.5390 C   0  0  0  0  0  0  0  0  0  0  0  0
   -4.0876   24.3207  -27.6318 H   0  0  0  0  0  0  0  0  0  0  0  0
   -3.4877   22.9560  -28.6450 H   0  0  0  0  0  0  0  0  0  0  0  0
    0.7035   23.9669  -23.8809 H   0  0  0  0  0  0  0  0  0  0  0  0
   -0.0126   26.3068  -23.2628 H   0  0  0  0  0  0  0  0  0  0  0  0
   -1.8154   27.4565  -24.5689 H   0  0  0  0  0  0  0  0  0  0  0  0
   -2.9257   26.2770  -26.5049 H   0  0  0  0  0  0  0  0  0  0  0  0
   -5.8219   25.8058  -29.5024 H   0  0  0  0  0  0  0  0  0  0  0  0
   -8.0650   24.8076  -29.9441 H   0  0  0  0  0  0  0  0  0  0  0  0
   -8.2742   22.7948  -31.4067 H   0  0  0  0  0  0  0  0  0  0  0  0
   -6.2346   21.7649  -32.4111 H   0  0  0  0  0  0  0  0  0  0  0  0
   -3.9867   22.7608  -31.9795 H   0  0  0  0  0  0  0  0  0  0  0  0
  1  2  2  0
  2  3  1  0
  3  4  1  0
  4  5  1  0
  5  6  1  0
  6  7  1  0
  6  8  1  0
  6  9  1  0
  5 10  2  0
 10 11  1  0
 11 12  2  0
 12 13  1  0
 13 14  2  0
 14 15  1  0
 15 16  2  0
  2 17  1  0
 17 18  1  0
 18 19  2  0
 19 20  1  0
 20 21  2  0
 21 22  1  0
 22 23  2  0
 16  4  1  0
 23 18  1  0
 16 11  1  0
  3 24  1  0
  3 25  1  0
 12 26  1  0
 13 27  1  0
 14 28  1  0
 15 29  1  0
 19 30  1  0
 20 31  1  0
 21 32  1  0
 22 33  1  0
 23 34  1  0
M  CHG  1  17  -1
M  END
>  <UniqueID>  (34) 
32

>  <SMILES>  (34) 
O=C(Cn1c(C(F)(F)F)nc2ccccc21)[N-]c1ccccc1

>  <Energy>  (34) 
75.26367526181187

>  <Genealogy>  (34) 
O=C(Cn1c(C(F)(F)F)nc2ccccc21)[N-]c1ccccc1 (protonated)
O=C(Cn1c(C(F)(F)F)nc2ccccc21)[N-]c1ccccc1 (3D coordinates assigned)
O=C(Cn1c(C(F)(F)F)nc2ccccc21)[N-]c1ccccc1 (optimized conformer: 75.26367526181187 kcal/mol)

>  <smiles>  (34) 
O=C(Cn1c(C(F)(F)F)nc2ccccc21)Nc1ccccc1

>  <score_type>  (34) 
oracle

>  <origin>  (34) 
adg

>  <m_score__min__energy>  (34) 
-8.4100000000000001

>  <m_primary>  (34) 
energy

$$$$
34:0
     RDKit          3D

 38 39  0  0  0  0  0  0  0  0999 V2000
   -6.5140   25.3060  -30.0260 C   0  0  0  0  0  0  0  0  0  0  0  0
   -5.0890   24.9070  -29.6790 C   0  0  0  0  0  0  0  0  0  0  0  0
   -4.3670   24.6800  -30.8720 O   0  0  0  0  0  0  0  0  0  0  0  0
   -3.7280   23.4160  -30.8370 C   0  0  0  0  0  0  0  0  0  0  0  0
   -4.5480   22.3480  -31.6000 C   0  0  2  0  0  0  0  0  0  0  0  0
   -3.6150   21.4260  -32.4200 C   0  0  0  0  0  0  0  0  0  0  0  0
   -4.2080   21.1030  -33.6490 O   0  0  0  0  0  0  0  0  0  0  0  0
   -5.5500   23.0060  -32.4790 N   0  0  0  0  0  0  0  0  0  0  0  0
   -6.9430   22.7700  -32.0550 C   0  0  0  0  0  0  0  0  0  0  0  0
   -7.3520   21.3380  -32.2590 C   0  0  0  0  0  0  0  0  0  0  0  0
   -8.6070   20.8460  -31.9030 C   0  0  0  0  0  0  0  0  0  0  0  0
   -8.6640   19.2220  -32.3370 S   0  0  0  0  0  0  0  0  0  0  0  0
   -7.0990   19.2170  -32.9550 C   0  0  0  0  0  0  0  0  0  0  0  0
   -6.4230   18.0600  -33.5530 C   0  0  0  0  0  0  0  0  0  0  0  0
   -6.8830   16.7570  -33.5540 C   0  0  0  0  0  0  0  0  0  0  0  0
   -5.9250   16.0270  -34.2240 C   0  0  0  0  0  0  0  0  0  0  0  0
   -4.9440   16.9260  -34.5900 C   0  0  0  0  0  0  0  0  0  0  0  0
   -5.2700   18.1290  -34.1760 O   0  0  0  0  0  0  0  0  0  0  0  0
   -6.5220   20.4310  -32.8440 N   0  0  0  0  0  0  0  0  0  0  0  0
   -7.0858   25.4661  -29.1000 H   0  0  0  0  0  0  0  0  0  0  0  0
   -6.5016   26.2352  -30.6146 H   0  0  0  0  0  0  0  0  0  0  0  0
   -6.9859   24.5055  -30.6146 H   0  0  0  0  0  0  0  0  0  0  0  0
   -4.6096   25.7149  -29.1068 H   0  0  0  0  0  0  0  0  0  0  0  0
   -5.0992   23.9892  -29.0727 H   0  0  0  0  0  0  0  0  0  0  0  0
   -2.7348   23.5040  -31.3015 H   0  0  0  0  0  0  0  0  0  0  0  0
   -3.6409   23.1008  -29.7867 H   0  0  0  0  0  0  0  0  0  0  0  0
   -5.0820   21.7234  -30.8687 H   0  0  0  0  0  0  0  0  0  0  0  0
   -2.6616   21.9436  -32.6019 H   0  0  0  0  0  0  0  0  0  0  0  0
   -3.4386   20.4999  -31.8533 H   0  0  0  0  0  0  0  0  0  0  0  0
   -4.5210   20.1650  -33.5670 H   0  0  0  0  0  0  0  0  0  0  0  0
   -5.4370   22.6600  -33.4610 H   0  0  0  0  0  0  0  0  0  0  0  0
   -5.3920   24.0420  -32.5110 H   0  0  0  0  0  0  0  0  0  0  0  0
   -7.0377   23.0191  -30.9878 H   0  0  0  0  0  0  0  0  0  0  0  0
   -7.5999   23.4046  -32.6681 H   0  0  0  0  0  0  0  0  0  0  0  0
   -9.4154   21.4178  -31.4239 H   0  0  0  0  0  0  0  0  0  0  0  0
   -7.8178   16.3812  -33.1126 H   0  0  0  0  0  0  0  0  0  0  0  0
   -5.9394   14.9458  -34.4262 H   0  0  0  0  0  0  0  0  0  0  0  0
   -4.0281   16.6734  -35.1443 H   0  0  0  0  0  0  0  0  0  0  0  0
  1  2  1  0
  2  3  1  0
  3  4  1  0
  4  5  1  0
  5  6  1  0
  6  7  1  0
  5  8  1  0
  8  9  1  0
  9 10  1  0
 10 11  2  0
 11 12  1  0
 12 13  1  0
 13 14  1  0
 14 15  2  0
 15 16  1  0
 16 17  2  0
 17 18  1  0
 13 19  2  0
 19 10  1  0
 18 14  1  0
  1 20  1  0
  1 21  1  0
  1 22  1  0
  2 23  1  0
  2 24  1  0
  4 25  1  0
  4 26  1  0
  5 27  1  1
  6 28  1  0
  6 29  1  0
  7 30  1  0
  8 31  1  0
  8 32  1  0
  9 33  1  0
  9 34  1  0
 11 35  1  0
 15 36  1  0
 16 37  1  0
 17 38  1  0
M  CHG  1   8   1
M  END
>  <UniqueID>  (35) 
33

>  <SMILES>  (35) 
CCOC[C@H](CO)[NH2+]Cc1csc(-c2ccco2)n1

>  <Energy>  (35) 
90.47355992369849

>  <Genealogy>  (35) 
CCOCC(CO)[NH2+]Cc1csc(-c2ccco2)n1 (protonated)
CCOC[C@H](CO)[NH2+]Cc1csc(-c2ccco2)n1 (chirality)
CCOC[C@H](CO)[NH2+]Cc1csc(-c2ccco2)n1 (3D coordinates assigned)
CCOC[C@H](CO)[NH2+]Cc1csc(-c2ccco2)n1 (optimized conformer: 90.47355992369849 kcal/mol)

>  <smiles>  (35) 
CCOCC(CO)NCc1csc(-c2ccco2)n1

>  <score_type>  (35) 
oracle

>  <origin>  (35) 
adg

>  <m_score__min__energy>  (35) 
-5.5899999999999999

>  <m_primary>  (35) 
energy

$$$$
35:0
     RDKit          3D

 45 47  0  0  1  0  0  0  0  0999 V2000
   -2.0940   24.8410  -29.3600 O   0  0  0  0  0  0  0  0  0  0  0  0
   -3.3740   24.5290  -28.9510 N   0  0  0  0  0  0  0  0  0  0  0  0
   -4.3370   24.9160  -29.7390 C   0  0  0  0  0  0  0  0  0  0  0  0
   -4.0870   25.5250  -30.9630 O   0  0  0  0  0  0  0  0  0  0  0  0
   -5.7680   24.7220  -29.3660 C   0  0  0  0  0  0  0  0  0  0  0  0
   -6.2630   23.3910  -29.9310 C   0  0  0  0  0  0  0  0  0  0  0  0
   -7.3180   23.6280  -30.9610 C   0  0  0  0  0  0  0  0  0  0  0  0
   -6.8680   23.2630  -32.3580 C   0  0  0  0  0  0  0  0  0  0  0  0
   -6.7020   21.8250  -32.5480 C   0  0  0  0  0  0  0  0  0  0  0  0
   -7.7190   20.9310  -32.3820 N   0  0  0  0  0  0  0  0  0  0  0  0
   -7.2690   19.6940  -32.6340 C   0  0  0  0  0  0  0  0  0  0  0  0
   -7.9240   18.4780  -32.6020 C   0  0  0  0  0  0  0  0  0  0  0  0
   -7.2330   17.3260  -32.9100 C   0  0  0  0  0  0  0  0  0  0  0  0
   -5.8990   17.4230  -33.2440 C   0  0  0  0  0  0  0  0  0  0  0  0
   -5.2620   18.6590  -33.2690 C   0  0  0  0  0  0  0  0  0  0  0  0
   -5.9450   19.8340  -32.9600 C   0  0  0  0  0  0  0  0  0  0  0  0
   -5.5750   21.1440  -32.9120 N   0  0  0  0  0  0  0  0  0  0  0  0
   -4.2660   21.6280  -33.1930 C   0  0  0  0  0  0  0  0  0  0  0  0
   -3.3300   21.5690  -32.0560 C   0  0  0  0  0  0  0  0  0  0  0  0
   -3.7520   21.4800  -30.7310 C   0  0  0  0  0  0  0  0  0  0  0  0
   -2.8700   21.4150  -29.6730 C   0  0  0  0  0  0  0  0  0  0  0  0
   -1.5080   21.4360  -29.8820 C   0  0  0  0  0  0  0  0  0  0  0  0
   -1.0660   21.5230  -31.1700 C   0  0  0  0  0  0  0  0  0  0  0  0
   -1.9500   21.5880  -32.2310 C   0  0  0  0  0  0  0  0  0  0  0  0
   -1.9870   25.6730  -29.9200 H   0  0  0  0  0  0  0  0  0  0  0  0
   -3.3680   25.1220  -31.5670 H   0  0  0  0  0  0  0  0  0  0  0  0
   -5.8640   24.7141  -28.2702 H   0  0  0  0  0  0  0  0  0  0  0  0
   -6.3706   25.5440  -29.7797 H   0  0  0  0  0  0  0  0  0  0  0  0
   -5.4196   22.8556  -30.3914 H   0  0  0  0  0  0  0  0  0  0  0  0
   -6.6882   22.7902  -29.1136 H   0  0  0  0  0  0  0  0  0  0  0  0
   -8.1998   23.0216  -30.7065 H   0  0  0  0  0  0  0  0  0  0  0  0
   -7.5469   24.7039  -30.9581 H   0  0  0  0  0  0  0  0  0  0  0  0
   -7.6196   23.6265  -33.0742 H   0  0  0  0  0  0  0  0  0  0  0  0
   -5.8857   23.7311  -32.5194 H   0  0  0  0  0  0  0  0  0  0  0  0
   -8.9894   18.4296  -32.3326 H   0  0  0  0  0  0  0  0  0  0  0  0
   -7.7362   16.3480  -32.8897 H   0  0  0  0  0  0  0  0  0  0  0  0
   -5.3327   16.5135  -33.4933 H   0  0  0  0  0  0  0  0  0  0  0  0
   -4.1967   18.7104  -33.5383 H   0  0  0  0  0  0  0  0  0  0  0  0
   -3.8471   21.0265  -34.0132 H   0  0  0  0  0  0  0  0  0  0  0  0
   -4.3767   22.6920  -33.4492 H   0  0  0  0  0  0  0  0  0  0  0  0
   -4.8315   21.4608  -30.5206 H   0  0  0  0  0  0  0  0  0  0  0  0
   -3.2595   21.3453  -28.6466 H   0  0  0  0  0  0  0  0  0  0  0  0
   -0.8020   21.3844  -29.0401 H   0  0  0  0  0  0  0  0  0  0  0  0
    0.0158   21.5418  -31.3682 H   0  0  0  0  0  0  0  0  0  0  0  0
   -1.5470   21.6574  -33.2521 H   0  0  0  0  0  0  0  0  0  0  0  0
  1  2  1  0
  2  3  2  0
  3  4  1  0
  3  5  1  0
  5  6  1  0
  6  7  1  0
  7  8  1  0
  8  9  1  0
  9 10  2  0
 10 11  1  0
 11 12  2  0
 12 13  1  0
 13 14  2  0
 14 15  1  0
 15 16  2  0
 16 17  1  0
 17 18  1  0
 18 19  1  0
 19 20  2  0
 20 21  1  0
 21 22  2  0
 22 23  1  0
 23 24  2  0
 17  9  1  0
 24 19  1  0
 16 11  1  0
  1 25  1  0
  4 26  1  0
  5 27  1  0
  5 28  1  0
  6 29  1  0
  6 30  1  0
  7 31  1  0
  7 32  1  0
  8 33  1  0
  8 34  1  0
 12 35  1  0
 13 36  1  0
 14 37  1  0
 15 38  1  0
 18 39  1  0
 18 40  1  0
 20 41  1  0
 21 42  1  0
 22 43  1  0
 23 44  1  0
 24 45  1  0
M  END
>  <smiles>  (36) 
ON=C(O)CCCCc1nc2ccccc2n1Cc1ccccc1

>  <score_type>  (36) 
oracle

>  <origin>  (36) 
adg

>  <m_score__min__energy>  (36) 
-9.0500000000000007

>  <m_primary>  (36) 
energy

$$$$
36:0
     RDKit          3D

 36 39  0  0  0  0  0  0  0  0999 V2000
   -5.7050   26.0570  -30.6000 O   0  0  0  0  0  0  0  0  0  0  0  0
   -4.9770   25.0370  -30.7380 C   0  0  0  0  0  0  0  0  0  0  0  0
   -3.5760   25.1500  -30.4570 N   0  0  0  0  0  0  0  0  0  0  0  0
   -2.8950   24.6170  -29.3120 C   0  0  0  0  0  0  0  0  0  0  0  0
   -3.5850   23.9230  -28.2970 C   0  0  0  0  0  0  0  0  0  0  0  0
   -2.8930   23.4200  -27.1900 C   0  0  0  0  0  0  0  0  0  0  0  0
   -1.5140   23.6180  -27.0830 C   0  0  0  0  0  0  0  0  0  0  0  0
   -0.8320   24.3500  -28.0640 C   0  0  0  0  0  0  0  0  0  0  0  0
   -1.5190   24.8410  -29.1780 C   0  0  0  0  0  0  0  0  0  0  0  0
    0.5390   24.5790  -27.9100 O   0  0  0  0  0  0  0  0  0  0  0  0
    1.1950   24.3270  -26.6640 C   0  0  0  0  0  0  0  0  0  0  0  0
    0.6330   23.0550  -26.0160 C   0  0  0  0  0  0  0  0  0  0  0  0
   -0.7970   23.0960  -26.0030 O   0  0  0  0  0  0  0  0  0  0  0  0
   -5.5870   23.7740  -31.2180 C   0  0  0  0  0  0  0  0  0  0  0  0
   -6.9780   23.6130  -31.1670 C   0  0  0  0  0  0  0  0  0  0  0  0
   -7.5540   22.4170  -31.6020 C   0  0  0  0  0  0  0  0  0  0  0  0
   -8.9410   22.2090  -31.5520 C   0  0  0  0  0  0  0  0  0  0  0  0
   -9.4800   20.9950  -31.9920 C   0  0  0  0  0  0  0  0  0  0  0  0
   -8.6410   19.9900  -32.4850 C   0  0  0  0  0  0  0  0  0  0  0  0
   -7.2570   20.1930  -32.5390 C   0  0  0  0  0  0  0  0  0  0  0  0
   -6.7090   21.4030  -32.1000 C   0  0  0  0  0  0  0  0  0  0  0  0
   -5.3950   21.5960  -32.1550 O   0  0  0  0  0  0  0  0  0  0  0  0
   -4.8140   22.7210  -31.7490 C   0  0  0  0  0  0  0  0  0  0  0  0
   -3.5640   22.8360  -31.8660 O   0  0  0  0  0  0  0  0  0  0  0  0
   -4.6723   23.7764  -28.3759 H   0  0  0  0  0  0  0  0  0  0  0  0
   -3.4334   22.8698  -26.4056 H   0  0  0  0  0  0  0  0  0  0  0  0
   -0.9773   25.4050  -29.9516 H   0  0  0  0  0  0  0  0  0  0  0  0
    2.2731   24.1987  -26.8406 H   0  0  0  0  0  0  0  0  0  0  0  0
    1.0232   25.1789  -25.9896 H   0  0  0  0  0  0  0  0  0  0  0  0
    0.9659   22.1776  -26.5899 H   0  0  0  0  0  0  0  0  0  0  0  0
    0.9990   22.9884  -24.9808 H   0  0  0  0  0  0  0  0  0  0  0  0
   -7.6141   24.4254  -30.7858 H   0  0  0  0  0  0  0  0  0  0  0  0
   -9.6032   22.9988  -31.1676 H   0  0  0  0  0  0  0  0  0  0  0  0
  -10.5668   20.8304  -31.9501 H   0  0  0  0  0  0  0  0  0  0  0  0
   -9.0698   19.0380  -32.8310 H   0  0  0  0  0  0  0  0  0  0  0  0
   -6.5999   19.4006  -32.9269 H   0  0  0  0  0  0  0  0  0  0  0  0
  1  2  2  0
  2  3  1  0
  3  4  1  0
  4  5  2  0
  5  6  1  0
  6  7  2  0
  7  8  1  0
  8  9  2  0
  8 10  1  0
 10 11  1  0
 11 12  1  0
 12 13  1  0
  2 14  1  0
 14 15  2  0
 15 16  1  0
 16 17  2  0
 17 18  1  0
 18 19  2  0
 19 20  1  0
 20 21  2  0
 21 22  1  0
 22 23  1  0
 23 24  2  0
  9  4  1  0
 23 14  1  0
 13  7  1  0
 21 16  1  0
  5 25  1  0
  6 26  1  0
  9 27  1  0
 11 28  1  0
 11 29  1  0
 12 30  1  0
 12 31  1  0
 15 32  1  0
 17 33  1  0
 18 34  1  0
 19 35  1  0
 20 36  1  0
M  CHG  1   3  -1
M  END
>  <UniqueID>  (37) 
34

>  <SMILES>  (37) 
O=C([N-]c1ccc2c(c1)OCCO2)c1cc2ccccc2oc1=O

>  <Energy>  (37) 
53.827424419532576

>  <Genealogy>  (37) 
O=C([N-]c1ccc2c(c1)OCCO2)c1cc2ccccc2oc1=O (protonated)
O=C([N-]c1ccc2c(c1)OCCO2)c1cc2ccccc2oc1=O (3D coordinates assigned)
O=C([N-]c1ccc2c(c1)OCCO2)c1cc2ccccc2oc1=O (nonaromatic ring conformer: 53.827424419532576 kcal/mol)

>  <smiles>  (37) 
O=C(Nc1ccc2c(c1)OCCO2)c1cc2ccccc2oc1=O

>  <score_type>  (37) 
oracle

>  <origin>  (37) 
adg

>  <m_score__min__energy>  (37) 
-10.140000000000001

>  <m_primary>  (37) 
energy

$$$$
37:0
     RDKit          3D

 37 40  0  0  0  0  0  0  0  0999 V2000
   -8.3380   18.8340  -31.6890 C   0  0  0  0  0  0  0  0  0  0  0  0
   -7.7360   19.4670  -32.9430 C   0  0  0  0  0  0  0  0  0  0  0  0
   -6.5290   20.2610  -32.6090 N   0  0  0  0  0  0  0  0  0  0  0  0
   -5.2770   19.7140  -32.8240 C   0  0  0  0  0  0  0  0  0  0  0  0
   -5.0890   18.3440  -33.3500 C   0  0  0  0  0  0  0  0  0  0  0  0
   -4.4690   18.1470  -34.5930 C   0  0  0  0  0  0  0  0  0  0  0  0
   -4.2840   16.8510  -35.0850 C   0  0  0  0  0  0  0  0  0  0  0  0
   -4.7080   15.7490  -34.3350 C   0  0  0  0  0  0  0  0  0  0  0  0
   -5.3160   15.9430  -33.0910 C   0  0  0  0  0  0  0  0  0  0  0  0
   -5.5030   17.2370  -32.5960 C   0  0  0  0  0  0  0  0  0  0  0  0
   -4.1160   20.4430  -32.5470 C   0  0  0  0  0  0  0  0  0  0  0  0
   -4.2000   21.7290  -32.0370 C   0  0  0  0  0  0  0  0  0  0  0  0
   -3.1390   22.3700  -31.8020 O   0  0  0  0  0  0  0  0  0  0  0  0
   -5.4560   22.2880  -31.7850 C   0  0  0  0  0  0  0  0  0  0  0  0
   -5.5990   23.5760  -31.2500 C   0  0  0  0  0  0  0  0  0  0  0  0
   -6.8130   24.1140  -30.9830 C   0  0  0  0  0  0  0  0  0  0  0  0
   -7.9900   23.4240  -31.2180 C   0  0  0  0  0  0  0  0  0  0  0  0
   -7.9040   22.1300  -31.7560 C   0  0  0  0  0  0  0  0  0  0  0  0
   -6.6390   21.5330  -32.0640 C   0  0  0  0  0  0  0  0  0  0  0  0
   -6.6580   25.3840  -30.4620 O   0  0  0  0  0  0  0  0  0  0  0  0
   -5.2550   25.6660  -30.3960 C   0  0  0  0  0  0  0  0  0  0  0  0
   -4.6160   24.4890  -30.9060 O   0  0  0  0  0  0  0  0  0  0  0  0
   -7.8960   19.2988  -30.7953 H   0  0  0  0  0  0  0  0  0  0  0  0
   -9.4265   18.9928  -31.6845 H   0  0  0  0  0  0  0  0  0  0  0  0
   -8.1248   17.7549  -31.6845 H   0  0  0  0  0  0  0  0  0  0  0  0
   -7.4591   18.6714  -33.6503 H   0  0  0  0  0  0  0  0  0  0  0  0
   -8.4840   20.1373  -33.3914 H   0  0  0  0  0  0  0  0  0  0  0  0
   -4.1283   19.0121  -35.1808 H   0  0  0  0  0  0  0  0  0  0  0  0
   -3.8044   16.6980  -36.0631 H   0  0  0  0  0  0  0  0  0  0  0  0
   -4.5631   14.7302  -34.7238 H   0  0  0  0  0  0  0  0  0  0  0  0
   -5.6477   15.0760  -32.5008 H   0  0  0  0  0  0  0  0  0  0  0  0
   -5.9754   17.3867  -31.6140 H   0  0  0  0  0  0  0  0  0  0  0  0
   -3.1301   19.9929  -32.7351 H   0  0  0  0  0  0  0  0  0  0  0  0
   -8.9659   23.8772  -30.9895 H   0  0  0  0  0  0  0  0  0  0  0  0
   -8.8274   21.5629  -31.9449 H   0  0  0  0  0  0  0  0  0  0  0  0
   -5.0067   26.5402  -31.0158 H   0  0  0  0  0  0  0  0  0  0  0  0
   -4.9287   25.9029  -29.3726 H   0  0  0  0  0  0  0  0  0  0  0  0
  1  2  1  0
  2  3  1  0
  3  4  1  0
  4  5  1  0
  5  6  2  0
  6  7  1  0
  7  8  2  0
  8  9  1  0
  9 10  2  0
  4 11  2  0
 11 12  1  0
 12 13  2  0
 12 14  1  0
 14 15  2  0
 15 16  1  0
 16 17  2  0
 17 18  1  0
 18 19  2  0
 16 20  1  0
 20 21  1  0
 21 22  1  0
 19  3  1  0
 10  5  1  0
 19 14  1  0
 22 15  1  0
  1 23  1  0
  1 24  1  0
  1 25  1  0
  2 26  1  0
  2 27  1  0
  6 28  1  0
  7 29  1  0
  8 30  1  0
  9 31  1  0
 10 32  1  0
 11 33  1  0
 17 34  1  0
 18 35  1  0
 21 36  1  0
 21 37  1  0
M  END
>  <UniqueID>  (38) 
35

>  <SMILES>  (38) 
CCn1c(-c2ccccc2)cc(=O)c2c3c(ccc21)OCO3

>  <Energy>  (38) 
86.69324004324363

>  <Genealogy>  (38) 
CCn1c(-c2ccccc2)cc(=O)c2c3c(ccc21)OCO3 (3D coordinates assigned)
CCn1c(-c2ccccc2)cc(=O)c2c3c(ccc21)OCO3 (nonaromatic ring conformer: 86.69324004324363 kcal/mol)

>  <smiles>  (38) 
CCn1c(-c2ccccc2)cc(=O)c2c3c(ccc21)OCO3

>  <score_type>  (38) 
oracle

>  <origin>  (38) 
adg

>  <m_score__min__energy>  (38) 
-7.7699999999999996

>  <m_primary>  (38) 
energy

$$$$
38:0
     RDKit          3D

 46 49  0  0  0  0  0  0  0  0999 V2000
   -2.2010   23.0410  -27.3600 C   0  0  0  0  0  0  0  0  0  0  0  0
   -2.4630   21.6980  -27.5940 C   0  0  0  0  0  0  0  0  0  0  0  0
   -3.0980   21.5450  -29.1440 S   0  0  0  0  0  0  0  0  0  0  0  0
   -3.0370   23.1810  -29.5270 C   0  0  0  0  0  0  0  0  0  0  0  0
   -3.5030   23.7890  -30.8200 C   0  0  0  0  0  0  0  0  0  0  0  0
   -3.9360   25.1860  -30.6520 N   0  0  0  0  0  0  0  0  0  0  0  0
   -5.3120   25.2990  -30.1450 C   0  0  0  0  0  0  0  0  0  0  0  0
   -6.3130   24.8550  -31.2170 C   0  0  0  0  0  0  0  0  0  0  0  0
   -6.6740   23.3780  -31.0580 C   0  0  0  0  0  0  0  0  0  0  0  0
   -6.2950   22.6630  -32.2710 N   0  0  0  0  0  0  0  0  0  0  0  0
   -5.9990   21.4100  -32.5200 C   0  0  0  0  0  0  0  0  0  0  0  0
   -7.0530   20.4720  -32.3740 C   0  0  0  0  0  0  0  0  0  0  0  0
   -8.3900   20.8860  -32.1560 C   0  0  0  0  0  0  0  0  0  0  0  0
   -9.4100   19.9480  -31.9910 C   0  0  0  0  0  0  0  0  0  0  0  0
   -9.1230   18.5850  -32.0320 C   0  0  0  0  0  0  0  0  0  0  0  0
   -7.8130   18.1550  -32.2390 C   0  0  0  0  0  0  0  0  0  0  0  0
   -6.7750   19.0870  -32.4120 C   0  0  0  0  0  0  0  0  0  0  0  0
   -5.5020   18.6510  -32.5960 N   0  0  0  0  0  0  0  0  0  0  0  0
   -4.4690   19.5090  -32.8170 C   0  0  0  0  0  0  0  0  0  0  0  0
   -3.1880   18.9820  -33.0530 C   0  0  0  0  0  0  0  0  0  0  0  0
   -2.1230   19.8210  -33.3600 C   0  0  0  0  0  0  0  0  0  0  0  0
   -2.3310   21.1900  -33.4670 C   0  0  0  0  0  0  0  0  0  0  0  0
   -3.5940   21.7350  -33.2280 C   0  0  0  0  0  0  0  0  0  0  0  0
   -4.6870   20.9180  -32.8380 C   0  0  0  0  0  0  0  0  0  0  0  0
   -2.5230   23.8740  -28.4390 C   0  0  0  0  0  0  0  0  0  0  0  0
   -1.7799   23.4159  -26.4155 H   0  0  0  0  0  0  0  0  0  0  0  0
   -2.2856   20.8745  -26.8866 H   0  0  0  0  0  0  0  0  0  0  0  0
   -2.6757   23.7590  -31.5443 H   0  0  0  0  0  0  0  0  0  0  0  0
   -4.3666   23.2076  -31.1753 H   0  0  0  0  0  0  0  0  0  0  0  0
   -3.8710   25.6780  -31.5740 H   0  0  0  0  0  0  0  0  0  0  0  0
   -5.4248   24.6602  -29.2566 H   0  0  0  0  0  0  0  0  0  0  0  0
   -5.5112   26.3486  -29.8828 H   0  0  0  0  0  0  0  0  0  0  0  0
   -7.2274   25.4597  -31.1266 H   0  0  0  0  0  0  0  0  0  0  0  0
   -5.8509   24.9963  -32.2052 H   0  0  0  0  0  0  0  0  0  0  0  0
   -6.1334   22.9568  -30.1976 H   0  0  0  0  0  0  0  0  0  0  0  0
   -7.7563   23.2762  -30.8896 H   0  0  0  0  0  0  0  0  0  0  0  0
   -8.6270   21.9594  -32.1163 H   0  0  0  0  0  0  0  0  0  0  0  0
  -10.4441   20.2857  -31.8280 H   0  0  0  0  0  0  0  0  0  0  0  0
   -9.9296   17.8487  -31.9011 H   0  0  0  0  0  0  0  0  0  0  0  0
   -7.5900   17.0782  -32.2672 H   0  0  0  0  0  0  0  0  0  0  0  0
   -5.3160   17.6210  -32.5950 H   0  0  0  0  0  0  0  0  0  0  0  0
   -3.0264   17.8955  -32.9943 H   0  0  0  0  0  0  0  0  0  0  0  0
   -1.1183   19.4018  -33.5177 H   0  0  0  0  0  0  0  0  0  0  0  0
   -1.4947   21.8496  -33.7420 H   0  0  0  0  0  0  0  0  0  0  0  0
   -3.7448   22.8184  -33.3442 H   0  0  0  0  0  0  0  0  0  0  0  0
   -2.3831   24.9650  -28.4259 H   0  0  0  0  0  0  0  0  0  0  0  0
  1  2  2  0
  2  3  1  0
  3  4  1  0
  4  5  1  0
  5  6  1  0
  6  7  1  0
  7  8  1  0
  8  9  1  0
  9 10  1  0
 10 11  2  3
 11 12  1  0
 12 13  2  0
 13 14  1  0
 14 15  2  0
 15 16  1  0
 16 17  2  0
 17 18  1  0
 18 19  1  0
 19 20  2  0
 20 21  1  0
 21 22  2  0
 22 23  1  0
 23 24  2  0
  4 25  2  0
 25  1  1  0
 24 11  1  0
 17 12  1  0
 24 19  1  0
  1 26  1  0
  2 27  1  0
  5 28  1  0
  5 29  1  0
  6 30  1  0
  7 31  1  0
  7 32  1  0
  8 33  1  0
  8 34  1  0
  9 35  1  0
  9 36  1  0
 13 37  1  0
 14 38  1  0
 15 39  1  0
 16 40  1  0
 18 41  1  0
 20 42  1  0
 21 43  1  0
 22 44  1  0
 23 45  1  0
 25 46  1  0
M  END
>  <UniqueID>  (39) 
36

>  <SMILES>  (39) 
c1csc(CNCCCN=c2c3ccccc3[nH]c3ccccc23)c1

>  <Energy>  (39) 
96.3732467025444

>  <Genealogy>  (39) 
c1csc(CNCCCN=c2c3ccccc3[nH]c3ccccc23)c1 (3D coordinates assigned)
c1csc(CNCCCN=c2c3ccccc3[nH]c3ccccc23)c1 (optimized conformer: 96.3732467025444 kcal/mol)

>  <smiles>  (39) 
c1csc(CNCCCN=c2c3ccccc3[nH]c3ccccc23)c1

>  <score_type>  (39) 
oracle

>  <origin>  (39) 
adg

>  <m_score__min__energy>  (39) 
-9.3800000000000008

>  <m_primary>  (39) 
energy

$$$$
39:0
     RDKit          3D

 43 47  0  0  0  0  0  0  0  0999 V2000
   -9.0760   18.6690  -31.9500 C   0  0  0  0  0  0  0  0  0  0  0  0
   -8.9930   20.1450  -32.3420 C   0  0  0  0  0  0  0  0  0  0  0  0
   -8.0660   20.8940  -31.4620 N   0  0  2  0  0  0  0  0  0  0  0  0
   -8.4950   22.3140  -31.2680 C   0  0  0  0  0  0  0  0  0  0  0  0
   -7.2370   22.9490  -30.7050 C   0  0  2  0  0  0  0  0  0  0  0  0
   -6.7210   24.2450  -30.0960 C   0  0  0  0  0  0  0  0  0  0  0  0
   -5.3810   23.6990  -29.6370 C   0  0  0  0  0  0  0  0  0  0  0  0
   -4.5820   24.1770  -28.6000 C   0  0  0  0  0  0  0  0  0  0  0  0
   -3.4580   23.4300  -28.2170 C   0  0  0  0  0  0  0  0  0  0  0  0
   -3.1560   22.2120  -28.8560 C   0  0  0  0  0  0  0  0  0  0  0  0
   -3.9670   21.7280  -29.8950 C   0  0  0  0  0  0  0  0  0  0  0  0
   -5.0860   22.4780  -30.2700 C   0  0  0  0  0  0  0  0  0  0  0  0
   -6.0480   22.3250  -31.4330 C   0  0  2  0  0  0  0  0  0  0  0  0
   -5.2780   22.9690  -32.6350 C   0  0  0  0  0  0  0  0  0  0  0  0
   -4.2170   21.9310  -33.1980 C   0  0  0  0  0  0  0  0  0  0  0  0
   -4.5510   20.4610  -32.8920 C   0  0  0  0  0  0  0  0  0  0  0  0
   -3.8190   19.4080  -33.1640 O   0  0  0  0  0  0  0  0  0  0  0  0
   -4.4740   18.3350  -32.7570 C   0  0  0  0  0  0  0  0  0  0  0  0
   -5.6950   18.6880  -32.1930 C   0  0  0  0  0  0  0  0  0  0  0  0
   -5.7090   20.0580  -32.2630 C   0  0  0  0  0  0  0  0  0  0  0  0
   -6.7380   21.0930  -32.0690 C   0  0  1  0  0  0  0  0  0  0  0  0
   -9.0810   18.5805  -30.8536 H   0  0  0  0  0  0  0  0  0  0  0  0
  -10.0001   18.2329  -32.3572 H   0  0  0  0  0  0  0  0  0  0  0  0
   -8.2066   18.1320  -32.3572 H   0  0  0  0  0  0  0  0  0  0  0  0
   -8.6369   20.2187  -33.3801 H   0  0  0  0  0  0  0  0  0  0  0  0
   -9.9959   20.5847  -32.2373 H   0  0  0  0  0  0  0  0  0  0  0  0
   -7.9580   20.3950  -30.5450 H   0  0  0  0  0  0  0  0  0  0  0  0
   -8.7844   22.7781  -32.2224 H   0  0  0  0  0  0  0  0  0  0  0  0
   -9.3769   22.4265  -30.6203 H   0  0  0  0  0  0  0  0  0  0  0  0
   -7.8323   22.8985  -29.7814 H   0  0  0  0  0  0  0  0  0  0  0  0
   -6.6176   25.0494  -30.8391 H   0  0  0  0  0  0  0  0  0  0  0  0
   -7.3523   24.7200  -29.3306 H   0  0  0  0  0  0  0  0  0  0  0  0
   -4.8278   25.1212  -28.0919 H   0  0  0  0  0  0  0  0  0  0  0  0
   -2.8070   23.7988  -27.4107 H   0  0  0  0  0  0  0  0  0  0  0  0
   -2.2758   21.6339  -28.5380 H   0  0  0  0  0  0  0  0  0  0  0  0
   -3.7278   20.7815  -30.4018 H   0  0  0  0  0  0  0  0  0  0  0  0
   -5.9918   23.2318  -33.4297 H   0  0  0  0  0  0  0  0  0  0  0  0
   -4.7589   23.8772  -32.2948 H   0  0  0  0  0  0  0  0  0  0  0  0
   -4.1613   22.0522  -34.2899 H   0  0  0  0  0  0  0  0  0  0  0  0
   -3.2629   22.1499  -32.6963 H   0  0  0  0  0  0  0  0  0  0  0  0
   -4.1039   17.3034  -32.8514 H   0  0  0  0  0  0  0  0  0  0  0  0
   -6.4703   18.0227  -31.7851 H   0  0  0  0  0  0  0  0  0  0  0  0
   -7.1028   21.1567  -33.1048 H   0  0  0  0  0  0  0  0  0  0  0  0
  1  2  1  0
  2  3  1  0
  3  4  1  0
  4  5  1  0
  5  6  1  0
  6  7  1  0
  7  8  2  0
  8  9  1  0
  9 10  2  0
 10 11  1  0
 11 12  2  0
 12 13  1  0
 13 14  1  6
 14 15  1  0
 15 16  1  0
 16 17  1  0
 17 18  1  0
 18 19  2  0
 19 20  1  0
 20 21  1  0
 21  3  1  0
 13  5  1  0
 20 16  2  0
 12  7  1  0
 21 13  1  0
  1 22  1  0
  1 23  1  0
  1 24  1  0
  2 25  1  0
  2 26  1  0
  3 27  1  1
  4 28  1  0
  4 29  1  0
  5 30  1  1
  6 31  1  0
  6 32  1  0
  8 33  1  0
  9 34  1  0
 10 35  1  0
 11 36  1  0
 14 37  1  0
 14 38  1  0
 15 39  1  0
 15 40  1  0
 18 41  1  0
 19 42  1  0
 21 43  1  6
M  CHG  1   3   1
M  END
>  <UniqueID>  (40) 
37

>  <SMILES>  (40) 
CC[N@@H+]1C[C@@H]2Cc3ccccc3C23CCc2occc2C13

>  <Energy>  (40) 
202.73103268666992

>  <Genealogy>  (40) 
CC[NH+]1CC2Cc3ccccc3C23CCc2occc2C13 (protonated)
CC[N@@H+]1C[C@@H]2Cc3ccccc3C23CCc2occc2C13 (chirality)
CC[N@@H+]1C[C@@H]2Cc3ccccc3C23CCc2occc2C13 (3D coordinates assigned)
CC[N@@H+]1C[C@@H]2Cc3ccccc3C23CCc2occc2C13 (nonaromatic ring conformer: 202.73103268666992 kcal/mol)

>  <smiles>  (40) 
CCN1CC2Cc3ccccc3C23CCc2occc2C13

>  <score_type>  (40) 
oracle

>  <origin>  (40) 
adg

>  <m_score__min__energy>  (40) 
-6.9800000000000004

>  <m_primary>  (40) 
energy

$$$$
40:0
     RDKit          3D

 43 45  0  0  0  0  0  0  0  0999 V2000
   -2.2070   21.7450  -29.1630 C   0  0  0  0  0  0  0  0  0  0  0  0
   -2.3760   22.7910  -30.2590 C   0  0  0  0  0  0  0  0  0  0  0  0
   -3.1290   23.9490  -29.7560 N   0  0  0  0  0  0  0  0  0  0  0  0
   -4.2370   24.4550  -30.5300 C   0  0  0  0  0  0  0  0  0  0  0  0
   -4.2670   25.6760  -30.8450 O   0  0  0  0  0  0  0  0  0  0  0  0
   -5.3510   23.5740  -30.9540 C   0  0  0  0  0  0  0  0  0  0  0  0
   -6.5190   24.1260  -31.5080 C   0  0  0  0  0  0  0  0  0  0  0  0
   -7.5720   23.3000  -31.9080 C   0  0  0  0  0  0  0  0  0  0  0  0
   -7.4760   21.9130  -31.7490 C   0  0  0  0  0  0  0  0  0  0  0  0
   -8.8310   20.8540  -32.2550 S   0  0  0  0  0  0  0  0  0  0  0  0
   -7.7300   19.5390  -32.7780 C   0  0  0  0  0  0  0  0  0  0  0  0
   -7.7860   18.2860  -32.1520 C   0  0  0  0  0  0  0  0  0  0  0  0
   -6.9220   17.2630  -32.5570 C   0  0  0  0  0  0  0  0  0  0  0  0
   -6.0050   17.4880  -33.5890 C   0  0  0  0  0  0  0  0  0  0  0  0
   -5.9510   18.7360  -34.2170 C   0  0  0  0  0  0  0  0  0  0  0  0
   -6.8130   19.7610  -33.8140 C   0  0  0  0  0  0  0  0  0  0  0  0
   -6.3220   21.3540  -31.1890 C   0  0  0  0  0  0  0  0  0  0  0  0
   -5.2670   22.1800  -30.7880 C   0  0  0  0  0  0  0  0  0  0  0  0
   -2.8110   24.5220  -28.4670 C   0  0  0  0  0  0  0  0  0  0  0  0
   -3.7700   24.5300  -27.4360 C   0  0  0  0  0  0  0  0  0  0  0  0
   -3.4710   25.0980  -26.1950 C   0  0  0  0  0  0  0  0  0  0  0  0
   -2.2130   25.6610  -25.9670 C   0  0  0  0  0  0  0  0  0  0  0  0
   -1.2520   25.6570  -26.9810 C   0  0  0  0  0  0  0  0  0  0  0  0
   -1.5480   25.0910  -28.2250 C   0  0  0  0  0  0  0  0  0  0  0  0
   -2.2853   22.2295  -28.1786 H   0  0  0  0  0  0  0  0  0  0  0  0
   -2.9935   20.9821  -29.2598 H   0  0  0  0  0  0  0  0  0  0  0  0
   -1.2202   21.2686  -29.2598 H   0  0  0  0  0  0  0  0  0  0  0  0
   -1.3837   23.1240  -30.5973 H   0  0  0  0  0  0  0  0  0  0  0  0
   -2.9318   22.3422  -31.0955 H   0  0  0  0  0  0  0  0  0  0  0  0
   -6.6044   25.2162  -31.6274 H   0  0  0  0  0  0  0  0  0  0  0  0
   -8.4784   23.7406  -32.3488 H   0  0  0  0  0  0  0  0  0  0  0  0
   -8.5091   18.1072  -31.3426 H   0  0  0  0  0  0  0  0  0  0  0  0
   -6.9638   16.2808  -32.0635 H   0  0  0  0  0  0  0  0  0  0  0  0
   -5.3261   16.6828  -33.9066 H   0  0  0  0  0  0  0  0  0  0  0  0
   -5.2299   18.9119  -35.0288 H   0  0  0  0  0  0  0  0  0  0  0  0
   -6.7711   20.7417  -34.3105 H   0  0  0  0  0  0  0  0  0  0  0  0
   -6.2445   20.2639  -31.0640 H   0  0  0  0  0  0  0  0  0  0  0  0
   -4.3657   21.7364  -30.3399 H   0  0  0  0  0  0  0  0  0  0  0  0
   -4.7615   24.0860  -27.6088 H   0  0  0  0  0  0  0  0  0  0  0  0
   -4.2273   25.1019  -25.3963 H   0  0  0  0  0  0  0  0  0  0  0  0
   -1.9791   26.1074  -24.9892 H   0  0  0  0  0  0  0  0  0  0  0  0
   -0.2613   26.0996  -26.8006 H   0  0  0  0  0  0  0  0  0  0  0  0
   -0.7876   25.0909  -29.0198 H   0  0  0  0  0  0  0  0  0  0  0  0
  1  2  1  0
  2  3  1  0
  3  4  1  0
  4  5  2  0
  4  6  1  0
  6  7  2  0
  7  8  1  0
  8  9  2  0
  9 10  1  0
 10 11  1  0
 11 12  2  0
 12 13  1  0
 13 14  2  0
 14 15  1  0
 15 16  2  0
  9 17  1  0
 17 18  2  0
  3 19  1  0
 19 20  2  0
 20 21  1  0
 21 22  2  0
 22 23  1  0
 23 24  2  0
 18  6  1  0
 24 19  1  0
 16 11  1  0
  1 25  1  0
  1 26  1  0
  1 27  1  0
  2 28  1  0
  2 29  1  0
  7 30  1  0
  8 31  1  0
 12 32  1  0
 13 33  1  0
 14 34  1  0
 15 35  1  0
 16 36  1  0
 17 37  1  0
 18 38  1  0
 20 39  1  0
 21 40  1  0
 22 41  1  0
 23 42  1  0
 24 43  1  0
M  END
>  <UniqueID>  (41) 
38

>  <SMILES>  (41) 
CCN(C(=O)c1ccc(Sc2ccccc2)cc1)c1ccccc1

>  <Energy>  (41) 
46.55931616700154

>  <Genealogy>  (41) 
CCN(C(=O)c1ccc(Sc2ccccc2)cc1)c1ccccc1 (3D coordinates assigned)
CCN(C(=O)c1ccc(Sc2ccccc2)cc1)c1ccccc1 (optimized conformer: 46.55931616700154 kcal/mol)

>  <smiles>  (41) 
CCN(C(=O)c1ccc(Sc2ccccc2)cc1)c1ccccc1

>  <score_type>  (41) 
oracle

>  <origin>  (41) 
adg

>  <m_score__min__energy>  (41) 
-9.6899999999999995

>  <m_primary>  (41) 
energy

$$$$
41:0
     RDKit          3D

 33 36  0  0  0  0  0  0  0  0999 V2000
   -0.9630   25.5580  -28.3610 C   0  0  0  0  0  0  0  0  0  0  0  0
   -1.9630   25.2930  -29.3370 O   0  0  0  0  0  0  0  0  0  0  0  0
   -3.0270   24.4160  -29.1070 C   0  0  0  0  0  0  0  0  0  0  0  0
   -2.9600   23.4430  -28.1460 N   0  0  0  0  0  0  0  0  0  0  0  0
   -4.0050   22.5800  -27.9290 C   0  0  0  0  0  0  0  0  0  0  0  0
   -5.1480   22.6740  -28.6730 N   0  0  0  0  0  0  0  0  0  0  0  0
   -5.2110   23.6430  -29.6180 C   0  0  0  0  0  0  0  0  0  0  0  0
   -4.1930   24.5020  -29.8530 C   0  0  0  0  0  0  0  0  0  0  0  0
   -4.5010   25.3380  -30.8620 N   0  0  0  0  0  0  0  0  0  0  0  0
   -5.7530   24.9330  -31.2140 C   0  0  0  0  0  0  0  0  0  0  0  0
   -6.2160   23.9030  -30.4610 N   0  0  0  0  0  0  0  0  0  0  0  0
   -7.4680   23.1700  -30.6280 C   0  0  0  0  0  0  0  0  0  0  0  0
   -7.2570   22.0000  -31.5480 C   0  0  0  0  0  0  0  0  0  0  0  0
   -8.3430   21.1510  -31.8860 C   0  0  0  0  0  0  0  0  0  0  0  0
   -8.1420   20.0310  -32.7120 C   0  0  0  0  0  0  0  0  0  0  0  0
   -6.8520   19.7840  -33.1690 C   0  0  0  0  0  0  0  0  0  0  0  0
   -5.8070   20.5850  -32.8400 C   0  0  0  0  0  0  0  0  0  0  0  0
   -5.9620   21.7040  -32.0270 C   0  0  0  0  0  0  0  0  0  0  0  0
   -4.6530   20.1000  -33.4260 O   0  0  0  0  0  0  0  0  0  0  0  0
   -4.9960   18.9220  -34.1700 C   0  0  0  0  0  0  0  0  0  0  0  0
   -6.4080   18.7560  -33.9790 O   0  0  0  0  0  0  0  0  0  0  0  0
   -1.3931   25.4440  -27.3550 H   0  0  0  0  0  0  0  0  0  0  0  0
   -0.1312   24.8493  -28.4866 H   0  0  0  0  0  0  0  0  0  0  0  0
   -0.5913   26.5857  -28.4866 H   0  0  0  0  0  0  0  0  0  0  0  0
   -3.9222   21.8071  -27.1507 H   0  0  0  0  0  0  0  0  0  0  0  0
   -6.3314   25.3948  -32.0277 H   0  0  0  0  0  0  0  0  0  0  0  0
   -7.8112   22.8063  -29.6482 H   0  0  0  0  0  0  0  0  0  0  0  0
   -8.2249   23.8400  -31.0619 H   0  0  0  0  0  0  0  0  0  0  0  0
   -9.3490   21.3707  -31.4991 H   0  0  0  0  0  0  0  0  0  0  0  0
   -8.9781   19.3715  -32.9878 H   0  0  0  0  0  0  0  0  0  0  0  0
   -5.1022   22.3383  -31.7656 H   0  0  0  0  0  0  0  0  0  0  0  0
   -4.7641   19.0580  -35.2366 H   0  0  0  0  0  0  0  0  0  0  0  0
   -4.4286   18.0421  -33.8324 H   0  0  0  0  0  0  0  0  0  0  0  0
  1  2  1  0
  2  3  1  0
  3  4  2  0
  4  5  1  0
  5  6  2  0
  6  7  1  0
  7  8  2  0
  8  9  1  0
  9 10  2  0
 10 11  1  0
 11 12  1  0
 12 13  1  0
 13 14  2  0
 14 15  1  0
 15 16  2  0
 16 17  1  0
 17 18  2  0
 17 19  1  0
 19 20  1  0
 20 21  1  0
  8  3  1  0
 18 13  1  0
 11  7  1  0
 21 16  1  0
  1 22  1  0
  1 23  1  0
  1 24  1  0
  5 25  1  0
 10 26  1  0
 12 27  1  0
 12 28  1  0
 14 29  1  0
 15 30  1  0
 18 31  1  0
 20 32  1  0
 20 33  1  0
M  END
>  <UniqueID>  (42) 
39

>  <SMILES>  (42) 
COc1ncnc2c1ncn2Cc1ccc2c(c1)OCO2

>  <Energy>  (42) 
101.83989246439053

>  <Genealogy>  (42) 
COc1ncnc2c1ncn2Cc1ccc2c(c1)OCO2 (3D coordinates assigned)
COc1ncnc2c1ncn2Cc1ccc2c(c1)OCO2 (nonaromatic ring conformer: 101.83989246439053 kcal/mol)

>  <smiles>  (42) 
COc1ncnc2c1ncn2Cc1ccc2c(c1)OCO2

>  <score_type>  (42) 
oracle

>  <origin>  (42) 
adg

>  <m_score__min__energy>  (42) 
-7.2199999999999998

>  <m_primary>  (42) 
energy

$$$$
42:0
     RDKit          3D

 24 25  0  0  0  0  0  0  0  0999 V2000
   -3.5970   25.2940  -30.6520 N   0  0  0  0  0  0  0  0  0  0  0  0
   -4.8580   24.6200  -30.5820 C   0  0  0  0  0  0  0  0  0  0  0  0
   -5.9140   25.1770  -29.8480 C   0  0  0  0  0  0  0  0  0  0  0  0
   -7.1430   24.5200  -29.7790 C   0  0  0  0  0  0  0  0  0  0  0  0
   -7.3290   23.3040  -30.4440 C   0  0  0  0  0  0  0  0  0  0  0  0
   -6.2820   22.7350  -31.1880 C   0  0  0  0  0  0  0  0  0  0  0  0
   -6.4720   21.4400  -31.8890 C   0  0  0  0  0  0  0  0  0  0  0  0
   -7.6280   20.6750  -31.6500 C   0  0  0  0  0  0  0  0  0  0  0  0
   -7.8200   19.4560  -32.3080 C   0  0  0  0  0  0  0  0  0  0  0  0
   -6.8610   18.9870  -33.2070 C   0  0  0  0  0  0  0  0  0  0  0  0
   -5.7050   19.7350  -33.4480 C   0  0  0  0  0  0  0  0  0  0  0  0
   -5.5060   20.9560  -32.7940 C   0  0  0  0  0  0  0  0  0  0  0  0
   -4.3560   21.6420  -33.0190 F   0  0  0  0  0  0  0  0  0  0  0  0
   -5.0440   23.4000  -31.2480 C   0  0  0  0  0  0  0  0  0  0  0  0
   -3.1190   25.4390  -31.5690 H   0  0  0  0  0  0  0  0  0  0  0  0
   -3.1340   25.6510  -29.7870 H   0  0  0  0  0  0  0  0  0  0  0  0
   -5.7736   26.1345  -29.3250 H   0  0  0  0  0  0  0  0  0  0  0  0
   -7.9681   24.9599  -29.1997 H   0  0  0  0  0  0  0  0  0  0  0  0
   -8.2999   22.7905  -30.3842 H   0  0  0  0  0  0  0  0  0  0  0  0
   -8.3862   21.0381  -30.9406 H   0  0  0  0  0  0  0  0  0  0  0  0
   -8.7284   18.8659  -32.1167 H   0  0  0  0  0  0  0  0  0  0  0  0
   -7.0148   18.0292  -33.7256 H   0  0  0  0  0  0  0  0  0  0  0  0
   -4.9487   19.3623  -34.1545 H   0  0  0  0  0  0  0  0  0  0  0  0
   -4.2153   22.9596  -31.8218 H   0  0  0  0  0  0  0  0  0  0  0  0
  1  2  1  0
  2  3  2  0
  3  4  1  0
  4  5  2  0
  5  6  1  0
  6  7  1  0
  7  8  2  0
  8  9  1  0
  9 10  2  0
 10 11  1  0
 11 12  2  0
 12 13  1  0
  6 14  2  0
 14  2  1  0
 12  7  1  0
  1 15  1  0
  1 16  1  0
  3 17  1  0
  4 18  1  0
  5 19  1  0
  8 20  1  0
  9 21  1  0
 10 22  1  0
 11 23  1  0
 14 24  1  0
M  END
>  <UniqueID>  (43) 
40

>  <SMILES>  (43) 
Nc1cccc(-c2ccccc2F)c1

>  <Energy>  (43) 
30.0174646541355

>  <Genealogy>  (43) 
Nc1cccc(-c2ccccc2F)c1 (3D coordinates assigned)
Nc1cccc(-c2ccccc2F)c1 (optimized conformer: 30.0174646541355 kcal/mol)

>  <smiles>  (43) 
Nc1cccc(-c2ccccc2F)c1

>  <score_type>  (43) 
oracle

>  <origin>  (43) 
adg

>  <m_score__min__energy>  (43) 
-6.6399999999999997

>  <m_primary>  (43) 
energy

$$$$
43:0
     RDKit          3D

 26 27  0  0  0  0  0  0  0  0999 V2000
   -6.1400   25.7090  -29.4700 C   0  0  0  0  0  0  0  0  0  0  0  0
   -5.9790   24.5100  -30.3640 C   0  0  0  0  0  0  0  0  0  0  0  0
   -7.1060   23.7560  -30.7330 C   0  0  0  0  0  0  0  0  0  0  0  0
   -6.9700   22.6440  -31.5680 C   0  0  0  0  0  0  0  0  0  0  0  0
   -8.0620   21.9220  -31.9180 F   0  0  0  0  0  0  0  0  0  0  0  0
   -5.7100   22.2760  -32.0410 C   0  0  0  0  0  0  0  0  0  0  0  0
   -4.5820   23.0170  -31.6820 C   0  0  0  0  0  0  0  0  0  0  0  0
   -4.7040   24.1420  -30.8430 C   0  0  0  0  0  0  0  0  0  0  0  0
   -3.5600   24.9250  -30.4670 N   0  0  0  0  0  0  0  0  0  0  0  0
   -2.4770   24.5630  -29.1620 S   0  0  0  0  0  0  0  0  0  0  0  0
   -1.2420   25.4080  -29.2960 O   0  0  0  0  0  0  0  0  0  0  0  0
   -3.1500   24.8790  -27.8560 O   0  0  0  0  0  0  0  0  0  0  0  0
   -2.0190   22.8720  -29.2190 C   0  0  0  0  0  0  0  0  0  0  0  0
   -2.4510   21.8830  -28.3480 C   0  0  0  0  0  0  0  0  0  0  0  0
   -1.9250   20.6230  -28.6530 C   0  0  0  0  0  0  0  0  0  0  0  0
   -1.0830   20.6210  -29.7600 C   0  0  0  0  0  0  0  0  0  0  0  0
   -0.9930   22.1900  -30.3610 S   0  0  0  0  0  0  0  0  0  0  0  0
   -6.0972   25.3904  -28.4180 H   0  0  0  0  0  0  0  0  0  0  0  0
   -5.3301   26.4262  -29.6691 H   0  0  0  0  0  0  0  0  0  0  0  0
   -7.1104   26.1872  -29.6691 H   0  0  0  0  0  0  0  0  0  0  0  0
   -8.1011   24.0429  -30.3623 H   0  0  0  0  0  0  0  0  0  0  0  0
   -5.6049   21.4002  -32.6982 H   0  0  0  0  0  0  0  0  0  0  0  0
   -3.5914   22.7201  -32.0570 H   0  0  0  0  0  0  0  0  0  0  0  0
   -3.1346   22.0695  -27.5067 H   0  0  0  0  0  0  0  0  0  0  0  0
   -2.1558   19.7182  -28.0715 H   0  0  0  0  0  0  0  0  0  0  0  0
   -0.5642   19.7431  -30.1724 H   0  0  0  0  0  0  0  0  0  0  0  0
  1  2  1  0
  2  3  2  0
  3  4  1  0
  4  5  1  0
  4  6  2  0
  6  7  1  0
  7  8  2  0
  8  9  1  0
  9 10  1  0
 10 11  2  0
 10 12  2  0
 10 13  1  0
 13 14  2  0
 14 15  1  0
 15 16  2  0
 16 17  1  0
  8  2  1  0
 17 13  1  0
  1 18  1  0
  1 19  1  0
  1 20  1  0
  3 21  1  0
  6 22  1  0
  7 23  1  0
 14 24  1  0
 15 25  1  0
 16 26  1  0
M  CHG  1   9  -1
M  END
>  <UniqueID>  (44) 
41

>  <SMILES>  (44) 
Cc1cc(F)ccc1[N-]S(=O)(=O)c1cccs1

>  <Energy>  (44) 
55.58678952570396

>  <Genealogy>  (44) 
Cc1cc(F)ccc1[N-]S(=O)(=O)c1cccs1 (protonated)
Cc1cc(F)ccc1[N-]S(=O)(=O)c1cccs1 (3D coordinates assigned)
Cc1cc(F)ccc1[N-]S(=O)(=O)c1cccs1 (optimized conformer: 55.58678952570396 kcal/mol)

>  <smiles>  (44) 
Cc1cc(F)ccc1NS(=O)(=O)c1cccs1

>  <score_type>  (44) 
oracle

>  <origin>  (44) 
adg

>  <m_score__min__energy>  (44) 
-7.7300000000000004

>  <m_primary>  (44) 
energy

$$$$
44:0
     RDKit          3D

 40 42  0  0  0  0  0  0  0  0999 V2000
   -9.5420   21.5490  -30.8200 C   0  0  0  0  0  0  0  0  0  0  0  0
   -8.4920   20.8230  -31.6200 C   0  0  0  0  0  0  0  0  0  0  0  0
   -8.5070   19.4180  -31.6530 C   0  0  0  0  0  0  0  0  0  0  0  0
   -7.5480   18.7140  -32.3840 C   0  0  0  0  0  0  0  0  0  0  0  0
   -6.5620   19.4030  -33.0890 C   0  0  0  0  0  0  0  0  0  0  0  0
   -6.5250   20.7980  -33.0590 C   0  0  0  0  0  0  0  0  0  0  0  0
   -7.4720   21.5230  -32.3130 C   0  0  0  0  0  0  0  0  0  0  0  0
   -7.4080   23.0330  -32.3270 C   0  0  0  0  0  0  0  0  0  0  0  0
   -6.0200   23.4890  -32.3370 N   0  0  0  0  0  0  0  0  0  0  0  0
   -5.3860   23.9560  -31.1420 C   0  0  0  0  0  0  0  0  0  0  0  0
   -5.9920   24.6700  -30.1310 C   0  0  0  0  0  0  0  0  0  0  0  0
   -5.0340   24.9120  -29.2210 N   0  0  0  0  0  0  0  0  0  0  0  0
   -3.9150   24.3600  -29.6660 N   0  0  0  0  0  0  0  0  0  0  0  0
   -2.6250   24.4640  -28.9930 C   0  0  0  0  0  0  0  0  0  0  0  0
   -2.3090   23.1690  -28.3010 C   0  0  0  0  0  0  0  0  0  0  0  0
   -3.1430   22.0520  -28.4710 C   0  0  0  0  0  0  0  0  0  0  0  0
   -2.8700   20.8600  -27.7930 C   0  0  0  0  0  0  0  0  0  0  0  0
   -1.7710   20.7780  -26.9340 C   0  0  0  0  0  0  0  0  0  0  0  0
   -0.9450   21.8910  -26.7470 C   0  0  0  0  0  0  0  0  0  0  0  0
   -1.2150   23.0850  -27.4230 C   0  0  0  0  0  0  0  0  0  0  0  0
   -4.0850   23.7740  -30.8430 N   0  0  0  0  0  0  0  0  0  0  0  0
   -9.3446   21.4125  -29.7465 H   0  0  0  0  0  0  0  0  0  0  0  0
   -9.5133   22.6211  -31.0647 H   0  0  0  0  0  0  0  0  0  0  0  0
  -10.5348   21.1436  -31.0647 H   0  0  0  0  0  0  0  0  0  0  0  0
   -9.2812   18.8680  -31.0979 H   0  0  0  0  0  0  0  0  0  0  0  0
   -7.5704   17.6144  -32.4037 H   0  0  0  0  0  0  0  0  0  0  0  0
   -5.8119   18.8462  -33.6699 H   0  0  0  0  0  0  0  0  0  0  0  0
   -5.7486   21.3351  -33.6236 H   0  0  0  0  0  0  0  0  0  0  0  0
   -7.9182   23.4081  -33.2264 H   0  0  0  0  0  0  0  0  0  0  0  0
   -7.9009   23.4172  -31.4217 H   0  0  0  0  0  0  0  0  0  0  0  0
   -5.4660   23.4780  -33.2240 H   0  0  0  0  0  0  0  0  0  0  0  0
   -7.0464   24.9791  -30.0796 H   0  0  0  0  0  0  0  0  0  0  0  0
   -5.1350   25.4470  -28.3300 H   0  0  0  0  0  0  0  0  0  0  0  0
   -1.8424   24.6828  -29.7344 H   0  0  0  0  0  0  0  0  0  0  0  0
   -2.6663   25.2736  -28.2495 H   0  0  0  0  0  0  0  0  0  0  0  0
   -4.0140   22.1150  -29.1398 H   0  0  0  0  0  0  0  0  0  0  0  0
   -3.5215   19.9853  -27.9361 H   0  0  0  0  0  0  0  0  0  0  0  0
   -1.5555   19.8380  -26.4048 H   0  0  0  0  0  0  0  0  0  0  0  0
   -0.0822   21.8271  -26.0676 H   0  0  0  0  0  0  0  0  0  0  0  0
   -0.5688   23.9614  -27.2670 H   0  0  0  0  0  0  0  0  0  0  0  0
  1  2  1  0
  2  3  2  0
  3  4  1  0
  4  5  2  0
  5  6  1  0
  6  7  2  0
  7  8  1  0
  8  9  1  0
  9 10  1  0
 10 11  1  0
 11 12  2  0
 12 13  1  0
 13 14  1  0
 14 15  1  0
 15 16  2  0
 16 17  1  0
 17 18  2  0
 18 19  1  0
 19 20  2  0
 13 21  1  0
  7  2  1  0
 21 10  2  0
 20 15  1  0
  1 22  1  0
  1 23  1  0
  1 24  1  0
  3 25  1  0
  4 26  1  0
  5 27  1  0
  6 28  1  0
  8 29  1  0
  8 30  1  0
  9 31  1  0
 11 32  1  0
 12 33  1  0
 14 34  1  0
 14 35  1  0
 16 36  1  0
 17 37  1  0
 18 38  1  0
 19 39  1  0
 20 40  1  0
M  CHG  1  12   1
M  END
>  <UniqueID>  (45) 
42

>  <SMILES>  (45) 
Cc1ccccc1CNc1c[nH+]n(Cc2ccccc2)n1

>  <Energy>  (45) 
73.87587600233722

>  <Genealogy>  (45) 
Cc1ccccc1CNc1c[nH+]n(Cc2ccccc2)n1 (protonated)
Cc1ccccc1CNc1c[nH+]n(Cc2ccccc2)n1 (3D coordinates assigned)
Cc1ccccc1CNc1c[nH+]n(Cc2ccccc2)n1 (optimized conformer: 73.87587600233722 kcal/mol)

>  <smiles>  (45) 
Cc1ccccc1CNc1cnn(Cc2ccccc2)n1

>  <score_type>  (45) 
oracle

>  <origin>  (45) 
adg

>  <m_score__min__energy>  (45) 
-7.6200000000000001

>  <m_primary>  (45) 
energy

$$$$
45:0
     RDKit          3D

 37 39  0  0  0  0  0  0  0  0999 V2000
   -3.8760   23.7400  -28.1990 C   0  0  0  0  0  0  0  0  0  0  0  0
   -3.9590   23.6660  -29.6620 N   0  0  0  0  0  0  0  0  0  0  0  0
   -4.7760   24.5890  -30.4180 C   0  0  0  0  0  0  0  0  0  0  0  0
   -4.2730   25.6680  -30.8450 O   0  0  0  0  0  0  0  0  0  0  0  0
   -6.2530   24.3680  -30.6370 C   0  0  0  0  0  0  0  0  0  0  0  0
   -6.5250   23.7670  -32.0200 C   0  0  0  0  0  0  0  0  0  0  0  0
   -7.6060   22.7820  -31.9610 N   0  0  0  0  0  0  0  0  0  0  0  0
   -8.9080   23.0590  -31.9820 N   0  0  0  0  0  0  0  0  0  0  0  0
   -9.6560   21.9540  -32.0130 N   0  0  0  0  0  0  0  0  0  0  0  0
   -8.7760   20.9350  -32.0120 C   0  0  0  0  0  0  0  0  0  0  0  0
   -9.0000   19.5680  -32.0960 C   0  0  0  0  0  0  0  0  0  0  0  0
   -7.8620   18.7380  -32.1500 C   0  0  0  0  0  0  0  0  0  0  0  0
   -6.5650   19.3130  -32.1180 C   0  0  0  0  0  0  0  0  0  0  0  0
   -6.4050   20.6720  -32.0340 N   0  0  0  0  0  0  0  0  0  0  0  0
   -7.5170   21.4440  -31.9800 C   0  0  0  0  0  0  0  0  0  0  0  0
   -3.0880   22.7480  -30.3520 C   0  0  0  0  0  0  0  0  0  0  0  0
   -1.7440   22.6190  -29.9610 C   0  0  0  0  0  0  0  0  0  0  0  0
   -0.8860   21.7610  -30.6560 C   0  0  0  0  0  0  0  0  0  0  0  0
   -1.3690   21.0090  -31.7320 C   0  0  0  0  0  0  0  0  0  0  0  0
   -2.7100   21.1170  -32.1150 C   0  0  0  0  0  0  0  0  0  0  0  0
   -3.3190   20.1660  -33.4640 Cl  0  0  0  0  0  0  0  0  0  0  0  0
   -3.5690   21.9890  -31.4340 C   0  0  0  0  0  0  0  0  0  0  0  0
   -4.6271   23.0703  -27.7548 H   0  0  0  0  0  0  0  0  0  0  0  0
   -2.8716   23.4322  -27.8727 H   0  0  0  0  0  0  0  0  0  0  0  0
   -4.0670   24.7730  -27.8727 H   0  0  0  0  0  0  0  0  0  0  0  0
   -6.6309   23.6800  -29.8663 H   0  0  0  0  0  0  0  0  0  0  0  0
   -6.7635   25.3403  -30.5735 H   0  0  0  0  0  0  0  0  0  0  0  0
   -6.8100   24.5727  -32.7125 H   0  0  0  0  0  0  0  0  0  0  0  0
   -5.6113   23.2638  -32.3691 H   0  0  0  0  0  0  0  0  0  0  0  0
   -9.3020   24.0270  -31.9970 H   0  0  0  0  0  0  0  0  0  0  0  0
  -10.0179   19.1517  -32.1193 H   0  0  0  0  0  0  0  0  0  0  0  0
   -7.9791   17.6463  -32.2168 H   0  0  0  0  0  0  0  0  0  0  0  0
   -5.6794   18.6620  -32.1610 H   0  0  0  0  0  0  0  0  0  0  0  0
   -1.3654   23.1957  -29.1042 H   0  0  0  0  0  0  0  0  0  0  0  0
    0.1691   21.6774  -30.3565 H   0  0  0  0  0  0  0  0  0  0  0  0
   -0.6942   20.3326  -32.2771 H   0  0  0  0  0  0  0  0  0  0  0  0
   -4.6200   22.0802  -31.7455 H   0  0  0  0  0  0  0  0  0  0  0  0
  1  2  1  0
  2  3  1  0
  3  4  2  0
  3  5  1  0
  5  6  1  0
  6  7  1  0
  7  8  1  0
  8  9  2  0
  9 10  1  0
 10 11  2  0
 11 12  1  0
 12 13  2  0
 13 14  1  0
 14 15  2  0
  2 16  1  0
 16 17  2  0
 17 18  1  0
 18 19  2  0
 19 20  1  0
 20 21  1  0
 20 22  2  0
 15  7  1  0
 22 16  1  0
 15 10  1  0
  1 23  1  0
  1 24  1  0
  1 25  1  0
  5 26  1  0
  5 27  1  0
  6 28  1  0
  6 29  1  0
  8 30  1  0
 11 31  1  0
 12 32  1  0
 13 33  1  0
 17 34  1  0
 18 35  1  0
 19 36  1  0
 22 37  1  0
M  CHG  1   8   1
M  END
>  <UniqueID>  (46) 
43

>  <SMILES>  (46) 
CN(C(=O)CCn1[nH+]nc2cccnc21)c1cccc(Cl)c1

>  <Energy>  (46) 
86.23969868812753

>  <Genealogy>  (46) 
CN(C(=O)CCn1[nH+]nc2cccnc21)c1cccc(Cl)c1 (protonated)
CN(C(=O)CCn1[nH+]nc2cccnc21)c1cccc(Cl)c1 (3D coordinates assigned)
CN(C(=O)CCn1[nH+]nc2cccnc21)c1cccc(Cl)c1 (optimized conformer: 86.23969868812753 kcal/mol)

>  <smiles>  (46) 
CN(C(=O)CCn1nnc2cccnc21)c1cccc(Cl)c1

>  <score_type>  (46) 
oracle

>  <origin>  (46) 
adg

>  <m_score__min__energy>  (46) 
-7.9900000000000002

>  <m_primary>  (46) 
energy

$$$$
46:0
     RDKit          3D

 37 40  0  0  1  0  0  0  0  0999 V2000
   -1.2760   27.8570  -25.4310 O   0  0  0  0  0  0  0  0  0  0  0  0
   -1.4450   26.6340  -25.2430 N   0  0  0  0  0  0  0  0  0  0  0  0
   -1.2320   26.1720  -23.9670 O   0  0  0  0  0  0  0  0  0  0  0  0
   -1.8390   25.7940  -26.3220 C   0  0  0  0  0  0  0  0  0  0  0  0
   -3.0950   25.2270  -26.2510 C   0  0  0  0  0  0  0  0  0  0  0  0
   -3.4780   24.4130  -27.2980 C   0  0  0  0  0  0  0  0  0  0  0  0
   -2.6660   24.1540  -28.3860 C   0  0  0  0  0  0  0  0  0  0  0  0
   -3.1940   23.2950  -29.3880 N   0  0  0  0  0  0  0  0  0  0  0  0
   -2.7580   22.0360  -29.5290 N   0  0  0  0  0  0  0  0  0  0  0  0
   -3.4270   21.4620  -30.5440 C   0  0  0  0  0  0  0  0  0  0  0  0
   -4.2960   22.3840  -31.0420 C   0  0  0  0  0  0  0  0  0  0  0  0
   -5.2240   22.3600  -32.0710 C   0  0  0  0  0  0  0  0  0  0  0  0
   -5.3220   21.2520  -32.7230 N   0  0  0  0  0  0  0  0  0  0  0  0
   -6.4340   20.4170  -32.5180 C   0  0  0  0  0  0  0  0  0  0  0  0
   -7.5310   20.9040  -31.8360 C   0  0  0  0  0  0  0  0  0  0  0  0
   -8.6640   20.1500  -31.5920 C   0  0  0  0  0  0  0  0  0  0  0  0
   -8.7280   18.8520  -32.0390 C   0  0  0  0  0  0  0  0  0  0  0  0
   -7.6480   18.3350  -32.7260 C   0  0  0  0  0  0  0  0  0  0  0  0
   -6.5110   19.1110  -32.9640 C   0  0  0  0  0  0  0  0  0  0  0  0
   -5.1430   18.4350  -33.8400 Cl  0  0  0  0  0  0  0  0  0  0  0  0
   -5.9620   23.4510  -32.3420 N   0  0  0  0  0  0  0  0  0  0  0  0
   -5.7740   24.5540  -31.5930 C   0  0  0  0  0  0  0  0  0  0  0  0
   -4.8710   24.6010  -30.5810 N   0  0  0  0  0  0  0  0  0  0  0  0
   -4.1310   23.5320  -30.2970 C   0  0  0  0  0  0  0  0  0  0  0  0
   -1.4090   24.7200  -28.4590 C   0  0  0  0  0  0  0  0  0  0  0  0
   -1.0310   25.5330  -27.4100 C   0  0  0  0  0  0  0  0  0  0  0  0
   -3.7622   25.4155  -25.3970 H   0  0  0  0  0  0  0  0  0  0  0  0
   -4.4750   23.9493  -27.2649 H   0  0  0  0  0  0  0  0  0  0  0  0
   -3.2958   20.4320  -30.9070 H   0  0  0  0  0  0  0  0  0  0  0  0
   -7.5024   21.9407  -31.4694 H   0  0  0  0  0  0  0  0  0  0  0  0
   -9.5106   20.5872  -31.0424 H   0  0  0  0  0  0  0  0  0  0  0  0
   -9.6214   18.2377  -31.8532 H   0  0  0  0  0  0  0  0  0  0  0  0
   -7.6832   17.2979  -33.0910 H   0  0  0  0  0  0  0  0  0  0  0  0
   -6.6380   23.3850  -33.1150 H   0  0  0  0  0  0  0  0  0  0  0  0
   -6.3744   25.4499  -31.8093 H   0  0  0  0  0  0  0  0  0  0  0  0
   -0.7408   24.5320  -29.3123 H   0  0  0  0  0  0  0  0  0  0  0  0
   -0.0342   25.9970  -27.4427 H   0  0  0  0  0  0  0  0  0  0  0  0
  1  2  2  0
  2  3  1  0
  2  4  1  0
  4  5  2  0
  5  6  1  0
  6  7  2  0
  7  8  1  0
  8  9  1  0
  9 10  2  0
 10 11  1  0
 11 12  1  0
 12 13  2  0
 13 14  1  0
 14 15  2  0
 15 16  1  0
 16 17  2  0
 17 18  1  0
 18 19  2  0
 19 20  1  0
 12 21  1  0
 21 22  1  0
 22 23  2  0
 23 24  1  0
  7 25  1  0
 25 26  2  0
 26  4  1  0
 24  8  1  0
 24 11  2  0
 19 14  1  0
  5 27  1  0
  6 28  1  0
 10 29  1  0
 15 30  1  0
 16 31  1  0
 17 32  1  0
 18 33  1  0
 21 34  1  0
 22 35  1  0
 25 36  1  0
 26 37  1  0
M  CHG  2   2   1   3  -1
M  END
>  <smiles>  (47) 
O=[N+]([O-])c1ccc(-n2ncc3c(=Nc4ccccc4Cl)[nH]cnc32)cc1

>  <score_type>  (47) 
oracle

>  <origin>  (47) 
adg

>  <m_score__min__energy>  (47) 
-8.5600000000000005

>  <m_primary>  (47) 
energy

$$$$
47:0
     RDKit          3D

 43 45  0  0  0  0  0  0  0  0999 V2000
   -4.0370   24.5490  -27.1010 C   0  0  0  0  0  0  0  0  0  0  0  0
   -4.2810   23.9660  -28.4670 C   0  0  0  0  0  0  0  0  0  0  0  0
   -5.0180   24.7020  -29.4090 C   0  0  0  0  0  0  0  0  0  0  0  0
   -5.2630   24.1850  -30.6830 C   0  0  0  0  0  0  0  0  0  0  0  0
   -4.7690   22.9280  -31.0390 C   0  0  0  0  0  0  0  0  0  0  0  0
   -5.0690   22.2490  -32.6780 S   0  0  0  0  0  0  0  0  0  0  0  0
   -6.7890   21.8270  -32.3430 C   0  0  0  0  0  0  0  0  0  0  0  0
   -7.7370   22.8550  -32.2310 C   0  0  0  0  0  0  0  0  0  0  0  0
   -9.0760   22.5580  -31.9680 C   0  0  0  0  0  0  0  0  0  0  0  0
   -9.4860   21.2300  -31.8400 C   0  0  0  0  0  0  0  0  0  0  0  0
   -8.5600   20.1970  -31.9940 C   0  0  0  0  0  0  0  0  0  0  0  0
   -7.2100   20.4820  -32.2530 C   0  0  0  0  0  0  0  0  0  0  0  0
   -6.3090   19.3980  -32.5310 N   0  0  0  0  0  0  0  0  0  0  0  0
   -5.6720   19.3010  -33.8480 C   0  0  0  0  0  0  0  0  0  0  0  0
   -6.0970   18.0000  -34.5630 C   0  0  0  0  0  0  0  0  0  0  0  0
   -6.6160   16.9750  -33.6370 N   0  0  0  0  0  0  0  0  0  0  0  0
   -5.8890   16.9750  -32.3640 C   0  0  0  0  0  0  0  0  0  0  0  0
   -6.1960   18.2690  -31.6010 C   0  0  0  0  0  0  0  0  0  0  0  0
   -4.0540   22.1750  -30.1010 C   0  0  0  0  0  0  0  0  0  0  0  0
   -3.8030   22.6790  -28.8140 C   0  0  0  0  0  0  0  0  0  0  0  0
   -3.0160   21.8470  -27.8350 C   0  0  0  0  0  0  0  0  0  0  0  0
   -4.3409   23.8228  -26.3328 H   0  0  0  0  0  0  0  0  0  0  0  0
   -2.9674   24.7784  -26.9860 H   0  0  0  0  0  0  0  0  0  0  0  0
   -4.6244   25.4719  -26.9860 H   0  0  0  0  0  0  0  0  0  0  0  0
   -5.4062   25.6956  -29.1407 H   0  0  0  0  0  0  0  0  0  0  0  0
   -5.8472   24.7699  -31.4087 H   0  0  0  0  0  0  0  0  0  0  0  0
   -7.4234   23.9025  -32.3512 H   0  0  0  0  0  0  0  0  0  0  0  0
   -9.8085   23.3717  -31.8616 H   0  0  0  0  0  0  0  0  0  0  0  0
  -10.5380   20.9977  -31.6179 H   0  0  0  0  0  0  0  0  0  0  0  0
   -8.8907   19.1511  -31.9118 H   0  0  0  0  0  0  0  0  0  0  0  0
   -5.9729   20.1644  -34.4595 H   0  0  0  0  0  0  0  0  0  0  0  0
   -4.5802   19.2915  -33.7140 H   0  0  0  0  0  0  0  0  0  0  0  0
   -6.8829   18.2424  -35.2934 H   0  0  0  0  0  0  0  0  0  0  0  0
   -5.2011   17.5829  -35.0461 H   0  0  0  0  0  0  0  0  0  0  0  0
   -6.4910   16.0370  -34.0850 H   0  0  0  0  0  0  0  0  0  0  0  0
   -6.2043   16.1103  -31.7615 H   0  0  0  0  0  0  0  0  0  0  0  0
   -4.8082   16.9113  -32.5586 H   0  0  0  0  0  0  0  0  0  0  0  0
   -7.1445   18.1520  -31.0564 H   0  0  0  0  0  0  0  0  0  0  0  0
   -5.3764   18.4694  -30.8952 H   0  0  0  0  0  0  0  0  0  0  0  0
   -3.6839   21.1760  -30.3748 H   0  0  0  0  0  0  0  0  0  0  0  0
   -3.2876   22.1341  -26.8084 H   0  0  0  0  0  0  0  0  0  0  0  0
   -3.2454   20.7825  -27.9909 H   0  0  0  0  0  0  0  0  0  0  0  0
   -1.9404   22.0169  -27.9909 H   0  0  0  0  0  0  0  0  0  0  0  0
  1  2  1  0
  2  3  2  0
  3  4  1  0
  4  5  2  0
  5  6  1  0
  6  7  1  0
  7  8  2  0
  8  9  1  0
  9 10  2  0
 10 11  1  0
 11 12  2  0
 12 13  1  0
 13 14  1  0
 14 15  1  0
 15 16  1  0
 16 17  1  0
 17 18  1  0
  5 19  1  0
 19 20  2  0
 20 21  1  0
 20  2  1  0
 12  7  1  0
 18 13  1  0
  1 22  1  0
  1 23  1  0
  1 24  1  0
  3 25  1  0
  4 26  1  0
  8 27  1  0
  9 28  1  0
 10 29  1  0
 11 30  1  0
 14 31  1  0
 14 32  1  0
 15 33  1  0
 15 34  1  0
 16 35  1  0
 17 36  1  0
 17 37  1  0
 18 38  1  0
 18 39  1  0
 19 40  1  0
 21 41  1  0
 21 42  1  0
 21 43  1  0
M  END
>  <UniqueID>  (48) 
44

>  <SMILES>  (48) 
Cc1ccc(Sc2ccccc2N2CCNCC2)cc1C

>  <Energy>  (48) 
51.772154080041254

>  <Genealogy>  (48) 
Cc1ccc(Sc2ccccc2N2CCNCC2)cc1C (3D coordinates assigned)
Cc1ccc(Sc2ccccc2N2CCNCC2)cc1C (nonaromatic ring conformer: 51.772154080041254 kcal/mol)

>  <smiles>  (48) 
Cc1ccc(Sc2ccccc2N2CCNCC2)cc1C

>  <score_type>  (48) 
oracle

>  <origin>  (48) 
adg

>  <m_score__min__energy>  (48) 
-8.4499999999999993

>  <m_primary>  (48) 
energy

$$$$
48:0
     RDKit          3D

 54 56  0  0  0  0  0  0  0  0999 V2000
   -5.3076   25.9747  -30.7435 H   0  0  0  0  0  0  0  0  0  0  0  0
   -5.1860   24.8940  -30.9090 C   0  0  0  0  0  0  0  0  0  0  0  0
   -3.9560   24.3270  -30.8040 N   0  0  0  0  0  0  0  0  0  0  0  0
   -3.7500   22.9960  -30.9990 C   0  0  0  0  0  0  0  0  0  0  0  0
   -2.5370   22.5320  -30.8710 N   0  0  0  0  0  0  0  0  0  0  0  0
   -1.8650   22.1310  -29.6340 C   0  0  0  0  0  0  0  0  0  0  0  0
   -2.4475   21.3344  -29.1482 H   0  0  0  0  0  0  0  0  0  0  0  0
   -0.8559   21.7689  -29.8803 H   0  0  0  0  0  0  0  0  0  0  0  0
   -1.7420   23.3230  -28.6740 C   0  0  0  0  0  0  0  0  0  0  0  0
   -2.7510   23.6716  -28.4089 H   0  0  0  0  0  0  0  0  0  0  0  0
   -1.1913   22.9874  -27.7828 H   0  0  0  0  0  0  0  0  0  0  0  0
   -0.9670   24.4830  -29.3010 C   0  0  0  0  0  0  0  0  0  0  0  0
    0.0828   24.4356  -28.9760 H   0  0  0  0  0  0  0  0  0  0  0  0
   -1.0268   24.4022  -30.3964 H   0  0  0  0  0  0  0  0  0  0  0  0
   -1.5410   25.7580  -28.8880 N   0  0  0  0  0  0  0  0  0  0  0  0
   -1.2400   26.4120  -27.6510 C   0  0  0  0  0  0  0  0  0  0  0  0
   -0.4730   27.4110  -27.6700 O   0  0  0  0  0  0  0  0  0  0  0  0
   -1.8640   25.9460  -26.3510 C   0  0  0  0  0  0  0  0  0  0  0  0
   -2.8858   25.7598  -26.7132 H   0  0  0  0  0  0  0  0  0  0  0  0
   -1.5770   26.8930  -25.1890 C   0  0  0  0  0  0  0  0  0  0  0  0
   -0.9433   27.7516  -25.4558 H   0  0  0  0  0  0  0  0  0  0  0  0
   -2.3989   27.4313  -24.6944 H   0  0  0  0  0  0  0  0  0  0  0  0
   -0.8380   25.7780  -24.4600 C   0  0  0  0  0  0  0  0  0  0  0  0
    0.2310   25.9803  -24.2979 H   0  0  0  0  0  0  0  0  0  0  0  0
   -1.1215   25.5038  -23.4331 H   0  0  0  0  0  0  0  0  0  0  0  0
   -1.1210   24.8270  -25.6140 C   0  0  0  0  0  0  0  0  0  0  0  0
   -0.2195   24.4688  -26.1325 H   0  0  0  0  0  0  0  0  0  0  0  0
   -1.6105   23.8590  -25.4314 H   0  0  0  0  0  0  0  0  0  0  0  0
   -4.8470   22.1750  -31.3320 C   0  0  0  0  0  0  0  0  0  0  0  0
   -4.7015   21.0972  -31.4966 H   0  0  0  0  0  0  0  0  0  0  0  0
   -6.1230   22.7400  -31.4520 C   0  0  0  0  0  0  0  0  0  0  0  0
   -7.2800   21.8840  -31.7830 C   0  0  0  0  0  0  0  0  0  0  0  0
   -8.4960   22.1080  -31.1230 C   0  0  0  0  0  0  0  0  0  0  0  0
   -8.5762   22.9163  -30.3812 H   0  0  0  0  0  0  0  0  0  0  0  0
   -9.6030   21.3110  -31.4030 C   0  0  0  0  0  0  0  0  0  0  0  0
  -10.5597   21.4895  -30.8904 H   0  0  0  0  0  0  0  0  0  0  0  0
   -9.4870   20.2850  -32.3390 C   0  0  0  0  0  0  0  0  0  0  0  0
  -10.3576   19.6536  -32.5701 H   0  0  0  0  0  0  0  0  0  0  0  0
   -8.3020   20.0610  -32.9680 N   0  0  0  0  0  0  0  0  0  0  0  0
   -8.2500   19.2750  -33.6530 H   0  0  0  0  0  0  0  0  0  0  0  0
   -7.1940   20.8220  -32.7160 C   0  0  0  0  0  0  0  0  0  0  0  0
   -5.9030   20.5030  -33.4350 C   0  0  0  0  0  0  0  0  0  0  0  0
   -5.1383   20.2212  -32.6962 H   0  0  0  0  0  0  0  0  0  0  0  0
   -5.5815   21.3926  -33.9964 H   0  0  0  0  0  0  0  0  0  0  0  0
   -6.0880   19.4330  -34.3440 O   0  0  0  0  0  0  0  0  0  0  0  0
   -5.4750   18.2450  -33.8790 C   0  0  0  0  0  0  0  0  0  0  0  0
   -4.7350   18.4974  -33.1053 H   0  0  0  0  0  0  0  0  0  0  0  0
   -4.9807   17.7431  -34.7239 H   0  0  0  0  0  0  0  0  0  0  0  0
   -6.5200   17.3070  -33.2880 C   0  0  0  0  0  0  0  0  0  0  0  0
   -6.4721   17.3500  -32.1899 H   0  0  0  0  0  0  0  0  0  0  0  0
   -7.5211   17.6153  -33.6237 H   0  0  0  0  0  0  0  0  0  0  0  0
   -6.3212   16.2785  -33.6237 H   0  0  0  0  0  0  0  0  0  0  0  0
   -6.2950   24.1100  -31.2260 C   0  0  0  0  0  0  0  0  0  0  0  0
   -7.2944   24.5640  -31.2976 H   0  0  0  0  0  0  0  0  0  0  0  0
  1  2  1  0
  2  3  1  0
  3  4  1  0
  4  5  2  0
  5  6  1  0
  6  7  1  0
  6  8  1  0
  6  9  1  0
  9 10  1  0
  9 11  1  0
  9 12  1  0
 12 13  1  0
 12 14  1  0
 12 15  1  0
 15 16  1  0
 16 17  2  0
 16 18  1  0
 18 19  1  0
 18 20  1  0
 20 21  1  0
 20 22  1  0
 20 23  1  0
 23 24  1  0
 23 25  1  0
 23 26  1  0
 26 27  1  0
 26 28  1  0
  4 29  1  0
 29 30  1  0
 29 31  2  0
 31 32  1  0
 32 33  2  0
 33 34  1  0
 33 35  1  0
 35 36  1  0
 35 37  2  0
 37 38  1  0
 37 39  1  0
 39 40  1  0
 39 41  2  0
 41 42  1  0
 42 43  1  0
 42 44  1  0
 42 45  1  0
 45 46  1  0
 46 47  1  0
 46 48  1  0
 46 49  1  0
 49 50  1  0
 49 51  1  0
 49 52  1  0
 31 53  1  0
 53 54  1  0
 53  2  2  0
 26 18  1  0
 41 32  1  0
M  CHG  3   3  -1  15  -1  39   1
M  END
>  <UniqueID>  (49) 
45

>  <SMILES>  (49) 
CCOCc1[nH+]cccc1-c1cc[n-]/c(=N/CCC[N-]C(=O)C2CCC2)c1

>  <Energy>  (49) 
120.2792672278069

>  <Genealogy>  (49) 
CCOCc1[nH+]cccc1-c1cc[n-]c(=NCCC[N-]C(=O)C2CCC2)c1 (protonated)
CCOCc1[nH+]cccc1-c1cc[n-]/c(=N/CCC[N-]C(=O)C2CCC2)c1 (cis-trans isomerization)
CCOCc1[nH+]cccc1-c1cc[n-]/c(=N/CCC[N-]C(=O)C2CCC2)c1 (3D coordinates assigned)
CCOCc1[nH+]cccc1-c1cc[n-]/c(=N/CCC[N-]C(=O)C2CCC2)c1 (nonaromatic ring conformer: 120.2792672278069 kcal/mol)

>  <smiles>  (49) 
CCOCc1ncccc1-c1cc[nH]c(=NCCCNC(=O)C2CCC2)c1

>  <score_type>  (49) 
oracle

>  <origin>  (49) 
adg

>  <m_score__min__energy>  (49) 
-10.470000000000001

>  <m_primary>  (49) 
energy

$$$$
