0:0
     RDKit          3D

 52 54  0  0  0  0  0  0  0  0999 V2000
   -1.5050   24.2700  -28.2890 C   0  0  0  0  0  0  0  0  0  0  0  0
   -1.6600   23.3700  -29.4760 C   0  0  0  0  0  0  0  0  0  0  0  0
   -0.7050   22.6370  -30.0940 N   0  0  0  0  0  0  0  0  0  0  0  0
   -1.2390   21.9770  -31.1030 N   0  0  0  0  0  0  0  0  0  0  0  0
   -0.5530   21.0670  -32.0350 C   0  0  0  0  0  0  0  0  0  0  0  0
   -2.5610   22.2500  -31.1870 C   0  0  0  0  0  0  0  0  0  0  0  0
   -3.4820   21.6820  -32.2040 C   0  0  0  0  0  0  0  0  0  0  0  0
   -2.8280   23.1330  -30.1540 C   0  0  0  0  0  0  0  0  0  0  0  0
   -4.1980   23.6690  -29.9160 C   0  0  0  0  0  0  0  0  0  0  0  0
   -4.3500   25.0010  -30.4570 N   0  0  0  0  0  0  0  0  0  0  0  0
   -5.6820   25.1580  -30.9410 C   0  0  0  0  0  0  0  0  0  0  0  0
   -6.1180   24.1420  -31.9660 C   0  0  0  0  0  0  0  0  0  0  0  0
   -7.3000   23.4230  -31.4240 C   0  0  0  0  0  0  0  0  0  0  0  0
   -7.4230   22.0470  -31.8510 N   0  0  0  0  0  0  0  0  0  0  0  0
   -6.5520   21.2520  -32.4490 N   0  0  0  0  0  0  0  0  0  0  0  0
   -7.1160   20.0530  -32.6540 C   0  0  0  0  0  0  0  0  0  0  0  0
   -6.5670   18.8510  -33.2800 C   0  0  0  0  0  0  0  0  0  0  0  0
   -6.9880   17.5700  -32.9130 C   0  0  0  0  0  0  0  0  0  0  0  0
   -6.4850   16.4330  -33.4940 C   0  0  0  0  0  0  0  0  0  0  0  0
   -5.5290   16.5290  -34.4800 C   0  0  0  0  0  0  0  0  0  0  0  0
   -5.0830   17.7870  -34.8760 C   0  0  0  0  0  0  0  0  0  0  0  0
   -5.5930   18.9420  -34.2850 C   0  0  0  0  0  0  0  0  0  0  0  0
   -8.4230   20.0730  -32.1590 C   0  0  0  0  0  0  0  0  0  0  0  0
   -8.5810   21.3480  -31.6600 C   0  0  0  0  0  0  0  0  0  0  0  0
   -9.8250   21.8720  -31.0130 C   0  0  0  0  0  0  0  0  0  0  0  0
   -1.6066   23.6803  -27.3660 H   0  0  0  0  0  0  0  0  0  0  0  0
   -0.5122   24.7429  -28.3146 H   0  0  0  0  0  0  0  0  0  0  0  0
   -2.2824   25.0478  -28.3146 H   0  0  0  0  0  0  0  0  0  0  0  0
    0.0131   20.3161  -31.4643 H   0  0  0  0  0  0  0  0  0  0  0  0
   -1.2969   20.5618  -32.6685 H   0  0  0  0  0  0  0  0  0  0  0  0
    0.1374   21.6431  -32.6685 H   0  0  0  0  0  0  0  0  0  0  0  0
   -4.3139   21.1689  -31.6994 H   0  0  0  0  0  0  0  0  0  0  0  0
   -3.8786   22.4926  -32.8330 H   0  0  0  0  0  0  0  0  0  0  0  0
   -2.9357   20.9637  -32.8330 H   0  0  0  0  0  0  0  0  0  0  0  0
   -4.9302   23.0031  -30.3961 H   0  0  0  0  0  0  0  0  0  0  0  0
   -4.3643   23.7179  -28.8297 H   0  0  0  0  0  0  0  0  0  0  0  0
   -4.2350   25.6770  -29.6450 H   0  0  0  0  0  0  0  0  0  0  0  0
   -6.3661   25.0898  -30.0823 H   0  0  0  0  0  0  0  0  0  0  0  0
   -5.7086   26.1335  -31.4486 H   0  0  0  0  0  0  0  0  0  0  0  0
   -6.3873   24.6496  -32.9040 H   0  0  0  0  0  0  0  0  0  0  0  0
   -5.3021   23.4343  -32.1745 H   0  0  0  0  0  0  0  0  0  0  0  0
   -7.2340   23.4357  -30.3261 H   0  0  0  0  0  0  0  0  0  0  0  0
   -8.1855   23.9474  -31.8126 H   0  0  0  0  0  0  0  0  0  0  0  0
   -7.7521   17.4691  -32.1281 H   0  0  0  0  0  0  0  0  0  0  0  0
   -6.8457   15.4450  -33.1719 H   0  0  0  0  0  0  0  0  0  0  0  0
   -5.1219   15.6215  -34.9499 H   0  0  0  0  0  0  0  0  0  0  0  0
   -4.3199   17.8705  -35.6638 H   0  0  0  0  0  0  0  0  0  0  0  0
   -5.2300   19.9288  -34.6082 H   0  0  0  0  0  0  0  0  0  0  0  0
   -9.1592   19.2557  -32.1661 H   0  0  0  0  0  0  0  0  0  0  0  0
   -9.7166   21.8263  -29.9193 H   0  0  0  0  0  0  0  0  0  0  0  0
   -9.9876   22.9151  -31.3221 H   0  0  0  0  0  0  0  0  0  0  0  0
  -10.6849   21.2596  -31.3221 H   0  0  0  0  0  0  0  0  0  0  0  0
  1  2  1  0
  2  3  2  0
  3  4  1  0
  4  5  1  0
  4  6  1  0
  6  7  1  0
  6  8  2  0
  8  9  1  0
  9 10  1  0
 10 11  1  0
 11 12  1  0
 12 13  1  0
 13 14  1  0
 14 15  1  0
 15 16  2  0
 16 17  1  0
 17 18  2  0
 18 19  1  0
 19 20  2  0
 20 21  1  0
 21 22  2  0
 16 23  1  0
 23 24  2  0
 24 25  1  0
  8  2  1  0
 24 14  1  0
 22 17  1  0
  1 26  1  0
  1 27  1  0
  1 28  1  0
  5 29  1  0
  5 30  1  0
  5 31  1  0
  7 32  1  0
  7 33  1  0
  7 34  1  0
  9 35  1  0
  9 36  1  0
 10 37  1  0
 11 38  1  0
 11 39  1  0
 12 40  1  0
 12 41  1  0
 13 42  1  0
 13 43  1  0
 18 44  1  0
 19 45  1  0
 20 46  1  0
 21 47  1  0
 22 48  1  0
 23 49  1  0
 25 50  1  0
 25 51  1  0
 25 52  1  0
M  END
>  <smiles>  (1) 
Cc1nn(C)c(C)c1CNCCCn1nc(-c2ccccc2)cc1C

>  <score_type>  (1) 
oracle

>  <origin>  (1) 
adg

>  <m_score__min__energy>  (1) 
-9.0899999999999999

>  <m_primary>  (1) 
energy

$$$$
1:0
     RDKit          3D

 31 32  0  0  1  0  0  0  0  0999 V2000
   -9.3970   22.4600  -31.9660 C   0  0  0  0  0  0  0  0  0  0  0  0
   -8.9530   21.9150  -30.8230 C   0  0  0  0  0  0  0  0  0  0  0  0
   -7.5080   22.0130  -30.3960 C   0  0  0  0  0  0  0  0  0  0  0  0
   -6.5980   21.7080  -31.4420 N   0  0  0  0  0  0  0  0  0  0  0  0
   -5.6570   22.3820  -32.0920 C   0  0  0  0  0  0  0  0  0  0  0  0
   -5.2050   23.5370  -31.8350 N   0  0  0  0  0  0  0  0  0  0  0  0
   -5.9620   24.5190  -31.1640 C   0  0  0  0  0  0  0  0  0  0  0  0
   -5.2720   25.6320  -30.4570 C   0  0  0  0  0  0  0  0  0  0  0  0
   -3.8640   25.6250  -30.6280 O   0  0  0  0  0  0  0  0  0  0  0  0
   -5.1220   21.6210  -33.0990 N   0  0  0  0  0  0  0  0  0  0  0  0
   -5.7240   20.4490  -33.0910 C   0  0  0  0  0  0  0  0  0  0  0  0
   -5.5730   19.3280  -33.8750 C   0  0  0  0  0  0  0  0  0  0  0  0
   -6.3350   18.2060  -33.6640 C   0  0  0  0  0  0  0  0  0  0  0  0
   -7.2540   18.2180  -32.6530 C   0  0  0  0  0  0  0  0  0  0  0  0
   -7.4000   19.3460  -31.8710 C   0  0  0  0  0  0  0  0  0  0  0  0
   -6.6420   20.4790  -32.0720 C   0  0  0  0  0  0  0  0  0  0  0  0
  -10.4574   22.3678  -32.2437 H   0  0  0  0  0  0  0  0  0  0  0  0
   -8.7006   22.9989  -32.6252 H   0  0  0  0  0  0  0  0  0  0  0  0
   -9.6642   21.3799  -30.1766 H   0  0  0  0  0  0  0  0  0  0  0  0
   -7.3135   23.0390  -30.0504 H   0  0  0  0  0  0  0  0  0  0  0  0
   -7.3504   21.2735  -29.5971 H   0  0  0  0  0  0  0  0  0  0  0  0
   -6.6222   24.9792  -31.9139 H   0  0  0  0  0  0  0  0  0  0  0  0
   -6.4406   23.9575  -30.3481 H   0  0  0  0  0  0  0  0  0  0  0  0
   -5.6646   26.5849  -30.8414 H   0  0  0  0  0  0  0  0  0  0  0  0
   -5.4678   25.5029  -29.3823 H   0  0  0  0  0  0  0  0  0  0  0  0
   -3.5990   24.9320  -31.2670 H   0  0  0  0  0  0  0  0  0  0  0  0
   -4.3680   21.8930  -33.7720 H   0  0  0  0  0  0  0  0  0  0  0  0
   -4.8286   19.3312  -34.6849 H   0  0  0  0  0  0  0  0  0  0  0  0
   -6.2083   17.3149  -34.2963 H   0  0  0  0  0  0  0  0  0  0  0  0
   -7.8760   17.3309  -32.4627 H   0  0  0  0  0  0  0  0  0  0  0  0
   -8.1450   19.3403  -31.0617 H   0  0  0  0  0  0  0  0  0  0  0  0
  1  2  2  0
  2  3  1  0
  3  4  1  0
  4  5  1  0
  5  6  2  0
  6  7  1  0
  7  8  1  0
  8  9  1  0
  5 10  1  0
 10 11  1  0
 11 12  2  0
 12 13  1  0
 13 14  2  0
 14 15  1  0
 15 16  2  0
 16  4  1  0
 16 11  1  0
  1 17  1  0
  1 18  1  0
  2 19  1  0
  3 20  1  0
  3 21  1  0
  7 22  1  0
  7 23  1  0
  8 24  1  0
  8 25  1  0
  9 26  1  0
 10 27  1  0
 12 28  1  0
 13 29  1  0
 14 30  1  0
 15 31  1  0
M  END
>  <smiles>  (2) 
C=CCn1c(=NCCO)[nH]c2ccccc21

>  <score_type>  (2) 
oracle

>  <origin>  (2) 
adg

>  <m_score__min__energy>  (2) 
-7.04

>  <m_primary>  (2) 
energy

$$$$
2:0
     RDKit          3D

 69 71  0  0  0  0  0  0  0  0999 V2000
    0.3750   17.8970  -27.9170 C   0  0  0  0  0  0  0  0  0  0  0  0
   -0.8990   18.2660  -27.1420 C   0  0  0  0  0  0  0  0  0  0  0  0
   -1.5350   19.3480  -27.8190 N   0  0  0  0  0  0  0  0  0  0  0  0
   -2.7050   19.7470  -27.0810 C   0  0  0  0  0  0  0  0  0  0  0  0
   -3.1850   18.7330  -26.0840 C   0  0  0  0  0  0  0  0  0  0  0  0
   -0.6660   20.4240  -28.1640 C   0  0  0  0  0  0  0  0  0  0  0  0
   -0.4780   20.5470  -29.6500 C   0  0  0  0  0  0  0  0  0  0  0  0
   -0.9500   21.8970  -30.1150 C   0  0  0  0  0  0  0  0  0  0  0  0
   -2.3550   22.2220  -29.6990 C   0  0  0  0  0  0  0  0  0  0  0  0
   -2.4110   23.0930  -28.6250 O   0  0  0  0  0  0  0  0  0  0  0  0
   -3.4280   24.0600  -28.8150 C   0  0  0  0  0  0  0  0  0  0  0  0
   -3.7880   23.9480  -30.2890 C   0  0  0  0  0  0  0  0  0  0  0  0
   -4.2600   25.1100  -30.8390 O   0  0  0  0  0  0  0  0  0  0  0  0
   -5.6510   25.2150  -30.8860 C   0  0  0  0  0  0  0  0  0  0  0  0
   -6.2410   23.8420  -31.0210 C   0  0  0  0  0  0  0  0  0  0  0  0
   -5.9530   23.1700  -32.2700 N   0  0  0  0  0  0  0  0  0  0  0  0
   -6.0090   21.7900  -32.4830 C   0  0  0  0  0  0  0  0  0  0  0  0
   -7.1210   20.9920  -32.4270 C   0  0  0  0  0  0  0  0  0  0  0  0
   -8.3190   21.5740  -32.0740 C   0  0  0  0  0  0  0  0  0  0  0  0
   -9.4980   20.8650  -31.9700 C   0  0  0  0  0  0  0  0  0  0  0  0
   -9.4430   19.5150  -32.2350 C   0  0  0  0  0  0  0  0  0  0  0  0
   -8.2360   18.9190  -32.5910 C   0  0  0  0  0  0  0  0  0  0  0  0
   -7.0610   19.6430  -32.6930 C   0  0  0  0  0  0  0  0  0  0  0  0
   -5.9000   19.0120  -33.0280 N   0  0  0  0  0  0  0  0  0  0  0  0
   -5.8220   17.6140  -33.3260 C   0  0  0  0  0  0  0  0  0  0  0  0
   -4.7740   19.7870  -33.0880 C   0  0  0  0  0  0  0  0  0  0  0  0
   -3.5420   19.2420  -33.4050 C   0  0  0  0  0  0  0  0  0  0  0  0
   -2.3820   20.0020  -33.4650 C   0  0  0  0  0  0  0  0  0  0  0  0
   -2.4250   21.3500  -33.2030 C   0  0  0  0  0  0  0  0  0  0  0  0
   -3.6500   21.8960  -32.8860 C   0  0  0  0  0  0  0  0  0  0  0  0
   -4.8130   21.1440  -32.8250 C   0  0  0  0  0  0  0  0  0  0  0  0
    1.1816   17.6634  -27.2065 H   0  0  0  0  0  0  0  0  0  0  0  0
    0.1779   17.0190  -28.5497 H   0  0  0  0  0  0  0  0  0  0  0  0
    0.6777   18.7444  -28.5497 H   0  0  0  0  0  0  0  0  0  0  0  0
   -1.5764   17.4001  -27.1053 H   0  0  0  0  0  0  0  0  0  0  0  0
   -0.6459   18.5585  -26.1122 H   0  0  0  0  0  0  0  0  0  0  0  0
   -2.4708   20.6763  -26.5410 H   0  0  0  0  0  0  0  0  0  0  0  0
   -3.5132   19.8706  -27.8169 H   0  0  0  0  0  0  0  0  0  0  0  0
   -3.0075   19.1080  -25.0652 H   0  0  0  0  0  0  0  0  0  0  0  0
   -4.2614   18.5582  -26.2280 H   0  0  0  0  0  0  0  0  0  0  0  0
   -2.6379   17.7897  -26.2280 H   0  0  0  0  0  0  0  0  0  0  0  0
   -1.0949   21.3622  -27.7822 H   0  0  0  0  0  0  0  0  0  0  0  0
    0.3174   20.2216  -27.7145 H   0  0  0  0  0  0  0  0  0  0  0  0
    0.5882   20.4294  -29.8938 H   0  0  0  0  0  0  0  0  0  0  0  0
   -1.0632   19.7646  -30.1553 H   0  0  0  0  0  0  0  0  0  0  0  0
   -0.2787   22.6621  -29.6979 H   0  0  0  0  0  0  0  0  0  0  0  0
   -0.9364   21.8807  -31.2148 H   0  0  0  0  0  0  0  0  0  0  0  0
   -2.8759   22.6822  -30.5516 H   0  0  0  0  0  0  0  0  0  0  0  0
   -2.8325   21.2816  -29.3865 H   0  0  0  0  0  0  0  0  0  0  0  0
   -4.3004   23.8363  -28.1834 H   0  0  0  0  0  0  0  0  0  0  0  0
   -3.0992   25.0731  -28.5401 H   0  0  0  0  0  0  0  0  0  0  0  0
   -2.8871   23.6447  -30.8426 H   0  0  0  0  0  0  0  0  0  0  0  0
   -4.6001   23.2096  -30.3620 H   0  0  0  0  0  0  0  0  0  0  0  0
   -6.0168   25.6841  -29.9607 H   0  0  0  0  0  0  0  0  0  0  0  0
   -5.9479   25.8330  -31.7462 H   0  0  0  0  0  0  0  0  0  0  0  0
   -5.8497   23.2209  -30.2018 H   0  0  0  0  0  0  0  0  0  0  0  0
   -7.3327   23.9732  -30.9884 H   0  0  0  0  0  0  0  0  0  0  0  0
   -5.6780   23.7740  -33.0820 H   0  0  0  0  0  0  0  0  0  0  0  0
   -8.3362   22.6539  -31.8655 H   0  0  0  0  0  0  0  0  0  0  0  0
  -10.4406   21.3567  -31.6877 H   0  0  0  0  0  0  0  0  0  0  0  0
  -10.3558   18.9051  -32.1652 H   0  0  0  0  0  0  0  0  0  0  0  0
   -8.2158   17.8388  -32.7977 H   0  0  0  0  0  0  0  0  0  0  0  0
   -5.7900   17.0404  -32.3880 H   0  0  0  0  0  0  0  0  0  0  0  0
   -6.7048   17.3137  -33.9095 H   0  0  0  0  0  0  0  0  0  0  0  0
   -4.9113   17.4137  -33.9095 H   0  0  0  0  0  0  0  0  0  0  0  0
   -3.4796   18.1646  -33.6177 H   0  0  0  0  0  0  0  0  0  0  0  0
   -1.4256   19.5237  -33.7230 H   0  0  0  0  0  0  0  0  0  0  0  0
   -1.5169   21.9694  -33.2446 H   0  0  0  0  0  0  0  0  0  0  0  0
   -3.7074   22.9735  -32.6725 H   0  0  0  0  0  0  0  0  0  0  0  0
  1  2  1  0
  2  3  1  0
  3  4  1  0
  4  5  1  0
  3  6  1  0
  6  7  1  0
  7  8  1  0
  8  9  1  0
  9 10  1  0
 10 11  1  0
 11 12  1  0
 12 13  1  0
 13 14  1  0
 14 15  1  0
 15 16  1  0
 16 17  1  0
 17 18  2  0
 18 19  1  0
 19 20  2  0
 20 21  1  0
 21 22  2  0
 22 23  1  0
 23 24  2  0
 24 25  1  0
 24 26  1  0
 26 27  2  0
 27 28  1  0
 28 29  2  0
 29 30  1  0
 30 31  2  0
 31 17  1  0
 23 18  1  0
 31 26  1  0
  1 32  1  0
  1 33  1  0
  1 34  1  0
  2 35  1  0
  2 36  1  0
  4 37  1  0
  4 38  1  0
  5 39  1  0
  5 40  1  0
  5 41  1  0
  6 42  1  0
  6 43  1  0
  7 44  1  0
  7 45  1  0
  8 46  1  0
  8 47  1  0
  9 48  1  0
  9 49  1  0
 11 50  1  0
 11 51  1  0
 12 52  1  0
 12 53  1  0
 14 54  1  0
 14 55  1  0
 15 56  1  0
 15 57  1  0
 16 58  1  0
 19 59  1  0
 20 60  1  0
 21 61  1  0
 22 62  1  0
 25 63  1  0
 25 64  1  0
 25 65  1  0
 27 66  1  0
 28 67  1  0
 29 68  1  0
 30 69  1  0
M  CHG  1  24   1
M  END
>  <smiles>  (3) 
CCN(CC)CCCCOCCOCCNc1c2ccccc2[n+](C)c2ccccc12

>  <score_type>  (3) 
oracle

>  <origin>  (3) 
adg

>  <m_score__min__energy>  (3) 
-9.4600000000000009

>  <m_primary>  (3) 
energy

$$$$
3:0
     RDKit          3D

 40 42  0  0  0  0  0  0  0  0999 V2000
   -1.4990   21.1340  -33.2870 C   0  0  0  0  0  0  0  0  0  0  0  0
   -2.7400   20.3560  -33.3990 C   0  0  0  0  0  0  0  0  0  0  0  0
   -2.8920   19.2720  -34.1640 N   0  0  0  0  0  0  0  0  0  0  0  0
   -4.0980   18.7850  -34.0760 N   0  0  0  0  0  0  0  0  0  0  0  0
   -4.5290   17.5940  -34.7970 C   0  0  0  0  0  0  0  0  0  0  0  0
   -4.8160   19.5610  -33.2210 C   0  0  0  0  0  0  0  0  0  0  0  0
   -6.2240   19.3490  -32.8480 C   0  0  0  0  0  0  0  0  0  0  0  0
   -6.5920   18.3560  -31.9430 C   0  0  0  0  0  0  0  0  0  0  0  0
   -7.8990   18.1440  -31.5680 C   0  0  0  0  0  0  0  0  0  0  0  0
   -8.9030   18.9230  -32.0860 C   0  0  0  0  0  0  0  0  0  0  0  0
   -8.5650   19.9220  -32.9900 C   0  0  0  0  0  0  0  0  0  0  0  0
   -7.2450   20.1290  -33.3630 C   0  0  0  0  0  0  0  0  0  0  0  0
   -3.9590   20.5600  -32.7860 C   0  0  0  0  0  0  0  0  0  0  0  0
   -4.2600   21.6500  -31.8410 C   0  0  0  0  0  0  0  0  0  0  0  0
   -4.6500   22.8780  -32.5100 N   0  0  0  0  0  0  0  0  0  0  0  0
   -5.4610   23.7190  -31.6860 C   0  0  0  0  0  0  0  0  0  0  0  0
   -6.8520   23.1700  -31.4780 C   0  0  0  0  0  0  0  0  0  0  0  0
   -7.8930   23.4340  -32.2470 C   0  0  0  0  0  0  0  0  0  0  0  0
   -9.1170   22.8800  -31.9690 C   0  0  0  0  0  0  0  0  0  0  0  0
   -8.8180   21.8570  -30.4540 S   0  0  0  0  0  0  0  0  0  0  0  0
   -7.0620   22.3010  -30.3720 C   0  0  0  0  0  0  0  0  0  0  0  0
   -1.2562   21.2862  -32.2250 H   0  0  0  0  0  0  0  0  0  0  0  0
   -0.6787   20.5882  -33.7761 H   0  0  0  0  0  0  0  0  0  0  0  0
   -1.6328   22.1102  -33.7761 H   0  0  0  0  0  0  0  0  0  0  0  0
   -4.8120   16.8119  -34.0771 H   0  0  0  0  0  0  0  0  0  0  0  0
   -5.3947   17.8412  -35.4290 H   0  0  0  0  0  0  0  0  0  0  0  0
   -3.7056   17.2300  -35.4290 H   0  0  0  0  0  0  0  0  0  0  0  0
   -5.8077   17.7167  -31.5115 H   0  0  0  0  0  0  0  0  0  0  0  0
   -8.1400   17.3465  -30.8498 H   0  0  0  0  0  0  0  0  0  0  0  0
   -9.9505   18.7602  -31.7923 H   0  0  0  0  0  0  0  0  0  0  0  0
   -9.3551   20.5578  -33.4161 H   0  0  0  0  0  0  0  0  0  0  0  0
   -7.0054   20.9273  -34.0809 H   0  0  0  0  0  0  0  0  0  0  0  0
   -5.0827   21.3299  -31.1847 H   0  0  0  0  0  0  0  0  0  0  0  0
   -3.3430   21.8586  -31.2704 H   0  0  0  0  0  0  0  0  0  0  0  0
   -5.0920   22.6790  -33.4420 H   0  0  0  0  0  0  0  0  0  0  0  0
   -4.9745   23.8241  -30.7050 H   0  0  0  0  0  0  0  0  0  0  0  0
   -5.5607   24.6872  -32.1984 H   0  0  0  0  0  0  0  0  0  0  0  0
   -7.7781   24.1010  -33.1141 H   0  0  0  0  0  0  0  0  0  0  0  0
  -10.0599   23.0129  -32.5197 H   0  0  0  0  0  0  0  0  0  0  0  0
   -6.3211   21.9705  -29.6292 H   0  0  0  0  0  0  0  0  0  0  0  0
  1  2  1  0
  2  3  2  0
  3  4  1  0
  4  5  1  0
  4  6  1  0
  6  7  1  0
  7  8  2  0
  8  9  1  0
  9 10  2  0
 10 11  1  0
 11 12  2  0
  6 13  2  0
 13 14  1  0
 14 15  1  0
 15 16  1  0
 16 17  1  0
 17 18  1  0
 18 19  2  0
 19 20  1  0
 20 21  1  0
 13  2  1  0
 21 17  2  0
 12  7  1  0
  1 22  1  0
  1 23  1  0
  1 24  1  0
  5 25  1  0
  5 26  1  0
  5 27  1  0
  8 28  1  0
  9 29  1  0
 10 30  1  0
 11 31  1  0
 12 32  1  0
 14 33  1  0
 14 34  1  0
 15 35  1  0
 16 36  1  0
 16 37  1  0
 18 38  1  0
 19 39  1  0
 21 40  1  0
M  END
>  <smiles>  (4) 
Cc1nn(C)c(-c2ccccc2)c1CNCc1ccsc1

>  <score_type>  (4) 
oracle

>  <origin>  (4) 
adg

>  <m_score__min__energy>  (4) 
-7.6799999999999997

>  <m_primary>  (4) 
energy

$$$$
4:0
     RDKit          3D

 46 48  0  0  0  0  0  0  0  0999 V2000
   -2.7010   24.4520  -28.7990 C   0  0  0  0  0  0  0  0  0  0  0  0
   -3.1590   24.1720  -30.2170 C   0  0  0  0  0  0  0  0  0  0  0  0
   -3.9640   25.2960  -30.6410 N   0  0  0  0  0  0  0  0  0  0  0  0
   -5.3780   25.0830  -30.4430 C   0  0  0  0  0  0  0  0  0  0  0  0
   -5.7570   23.6370  -30.3630 C   0  0  0  0  0  0  0  0  0  0  0  0
   -6.9140   23.3030  -31.3000 C   0  0  0  0  0  0  0  0  0  0  0  0
   -6.4650   22.7950  -32.5730 N   0  0  0  0  0  0  0  0  0  0  0  0
   -6.1350   21.4250  -32.6620 C   0  0  0  0  0  0  0  0  0  0  0  0
   -7.1260   20.4520  -32.5460 C   0  0  0  0  0  0  0  0  0  0  0  0
   -8.4030   20.9100  -32.3360 C   0  0  0  0  0  0  0  0  0  0  0  0
   -9.4520   20.0360  -32.2020 C   0  0  0  0  0  0  0  0  0  0  0  0
   -9.2000   18.6880  -32.2810 C   0  0  0  0  0  0  0  0  0  0  0  0
   -7.9000   18.2370  -32.4930 C   0  0  0  0  0  0  0  0  0  0  0  0
   -6.8320   19.1000  -32.6320 C   0  0  0  0  0  0  0  0  0  0  0  0
   -5.5590   18.6540  -32.8360 N   0  0  0  0  0  0  0  0  0  0  0  0
   -5.3320   17.2460  -32.9300 C   0  0  0  0  0  0  0  0  0  0  0  0
   -4.6120   19.5920  -32.9460 C   0  0  0  0  0  0  0  0  0  0  0  0
   -3.3000   19.2160  -33.1430 C   0  0  0  0  0  0  0  0  0  0  0  0
   -2.2850   20.1690  -33.2560 C   0  0  0  0  0  0  0  0  0  0  0  0
   -0.4790   19.6310  -33.5280 Br  0  0  0  0  0  0  0  0  0  0  0  0
   -2.5470   21.5140  -33.1750 C   0  0  0  0  0  0  0  0  0  0  0  0
   -3.8560   21.9010  -32.9770 C   0  0  0  0  0  0  0  0  0  0  0  0
   -4.8550   20.9510  -32.8670 C   0  0  0  0  0  0  0  0  0  0  0  0
   -3.4178   24.0138  -28.0889 H   0  0  0  0  0  0  0  0  0  0  0  0
   -1.7080   24.0064  -28.6397 H   0  0  0  0  0  0  0  0  0  0  0  0
   -2.6450   25.5390  -28.6397 H   0  0  0  0  0  0  0  0  0  0  0  0
   -2.2874   24.0627  -30.8790 H   0  0  0  0  0  0  0  0  0  0  0  0
   -3.7405   23.2393  -30.2604 H   0  0  0  0  0  0  0  0  0  0  0  0
   -3.7460   25.6330  -31.5850 H   0  0  0  0  0  0  0  0  0  0  0  0
   -5.6764   25.5739  -29.5049 H   0  0  0  0  0  0  0  0  0  0  0  0
   -5.8951   25.5059  -31.3169 H   0  0  0  0  0  0  0  0  0  0  0  0
   -4.8862   23.0246  -30.6398 H   0  0  0  0  0  0  0  0  0  0  0  0
   -6.0782   23.4237  -29.3328 H   0  0  0  0  0  0  0  0  0  0  0  0
   -7.5480   22.5426  -30.8205 H   0  0  0  0  0  0  0  0  0  0  0  0
   -7.4703   24.2330  -31.4887 H   0  0  0  0  0  0  0  0  0  0  0  0
   -6.3890   23.4320  -33.4040 H   0  0  0  0  0  0  0  0  0  0  0  0
   -8.5877   21.9926  -32.2743 H   0  0  0  0  0  0  0  0  0  0  0  0
  -10.4739   20.4071  -32.0347 H   0  0  0  0  0  0  0  0  0  0  0  0
  -10.0236   17.9663  -32.1770 H   0  0  0  0  0  0  0  0  0  0  0  0
   -7.7175   17.1538  -32.5518 H   0  0  0  0  0  0  0  0  0  0  0  0
   -5.2629   16.8175  -31.9193 H   0  0  0  0  0  0  0  0  0  0  0  0
   -6.1659   16.7755  -33.4715 H   0  0  0  0  0  0  0  0  0  0  0  0
   -4.3925   17.0614  -33.4715 H   0  0  0  0  0  0  0  0  0  0  0  0
   -3.0484   18.1474  -33.2123 H   0  0  0  0  0  0  0  0  0  0  0  0
   -1.7411   22.2573  -33.2649 H   0  0  0  0  0  0  0  0  0  0  0  0
   -4.1064   22.9698  -32.9063 H   0  0  0  0  0  0  0  0  0  0  0  0
  1  2  1  0
  2  3  1  0
  3  4  1  0
  4  5  1  0
  5  6  1  0
  6  7  1  0
  7  8  1  0
  8  9  2  0
  9 10  1  0
 10 11  2  0
 11 12  1  0
 12 13  2  0
 13 14  1  0
 14 15  2  0
 15 16  1  0
 15 17  1  0
 17 18  2  0
 18 19  1  0
 19 20  1  0
 19 21  2  0
 21 22  1  0
 22 23  2  0
 23  8  1  0
 14  9  1  0
 23 17  1  0
  1 24  1  0
  1 25  1  0
  1 26  1  0
  2 27  1  0
  2 28  1  0
  3 29  1  0
  4 30  1  0
  4 31  1  0
  5 32  1  0
  5 33  1  0
  6 34  1  0
  6 35  1  0
  7 36  1  0
 10 37  1  0
 11 38  1  0
 12 39  1  0
 13 40  1  0
 16 41  1  0
 16 42  1  0
 16 43  1  0
 18 44  1  0
 21 45  1  0
 22 46  1  0
M  CHG  1  15   1
M  END
>  <smiles>  (5) 
CCNCCCNc1c2ccccc2[n+](C)c2cc(Br)ccc12

>  <score_type>  (5) 
oracle

>  <origin>  (5) 
adg

>  <m_score__min__energy>  (5) 
-9.3200000000000003

>  <m_primary>  (5) 
energy

$$$$
5:0
     RDKit          3D

 54 55  0  0  0  0  0  0  0  0999 V2000
   -6.5160   17.5380  -31.6950 C   0  0  0  0  0  0  0  0  0  0  0  0
   -7.8640   18.1120  -32.0100 C   0  0  0  0  0  0  0  0  0  0  0  0
   -7.9000   19.5200  -32.0930 N   0  0  0  0  0  0  0  0  0  0  0  0
   -7.2360   20.1690  -33.1480 C   0  0  0  0  0  0  0  0  0  0  0  0
   -8.8310   20.2340  -31.3100 C   0  0  0  0  0  0  0  0  0  0  0  0
   -9.1970   21.5870  -31.8220 C   0  0  0  0  0  0  0  0  0  0  0  0
   -8.4610   22.6140  -31.2520 O   0  0  0  0  0  0  0  0  0  0  0  0
   -7.7140   23.3630  -32.1170 C   0  0  0  0  0  0  0  0  0  0  0  0
   -6.3000   23.6260  -31.6340 C   0  0  0  0  0  0  0  0  0  0  0  0
   -6.1930   24.8330  -30.9450 O   0  0  0  0  0  0  0  0  0  0  0  0
   -5.6910   24.5350  -29.7180 N   0  0  0  0  0  0  0  0  0  0  0  0
   -4.2910   24.5160  -29.5190 C   0  0  0  0  0  0  0  0  0  0  0  0
   -3.5260   24.7790  -30.4870 O   0  0  0  0  0  0  0  0  0  0  0  0
   -3.7520   24.1800  -28.1570 C   0  0  0  0  0  0  0  0  0  0  0  0
   -2.4320   23.5170  -28.2580 C   0  0  0  0  0  0  0  0  0  0  0  0
   -1.3410   24.3220  -28.6040 C   0  0  0  0  0  0  0  0  0  0  0  0
   -1.5360   25.6780  -28.8260 O   0  0  0  0  0  0  0  0  0  0  0  0
   -0.8780   26.7010  -28.0980 C   0  0  0  0  0  0  0  0  0  0  0  0
   -0.0620   23.7680  -28.7240 C   0  0  0  0  0  0  0  0  0  0  0  0
    0.1520   22.4150  -28.5040 C   0  0  0  0  0  0  0  0  0  0  0  0
   -0.9410   21.6380  -28.1640 C   0  0  0  0  0  0  0  0  0  0  0  0
   -0.7150   20.2820  -27.9510 C   0  0  0  0  0  0  0  0  0  0  0  0
   -1.8050   19.5030  -27.6150 C   0  0  0  0  0  0  0  0  0  0  0  0
   -3.0840   20.0170  -27.4870 C   0  0  0  0  0  0  0  0  0  0  0  0
   -3.2800   21.3680  -27.7050 C   0  0  0  0  0  0  0  0  0  0  0  0
   -2.2170   22.1760  -28.0410 C   0  0  0  0  0  0  0  0  0  0  0  0
   -6.3868   17.4830  -30.6040 H   0  0  0  0  0  0  0  0  0  0  0  0
   -6.4378   16.5285  -32.1249 H   0  0  0  0  0  0  0  0  0  0  0  0
   -5.7340   18.1812  -32.1249 H   0  0  0  0  0  0  0  0  0  0  0  0
   -8.1932   17.7032  -32.9767 H   0  0  0  0  0  0  0  0  0  0  0  0
   -8.5236   17.8328  -31.1751 H   0  0  0  0  0  0  0  0  0  0  0  0
   -6.5060   20.8825  -32.7381 H   0  0  0  0  0  0  0  0  0  0  0  0
   -6.7133   19.4239  -33.7658 H   0  0  0  0  0  0  0  0  0  0  0  0
   -7.9689   20.7085  -33.7658 H   0  0  0  0  0  0  0  0  0  0  0  0
   -9.7514   19.6349  -31.2475 H   0  0  0  0  0  0  0  0  0  0  0  0
   -8.3435   20.4005  -30.3381 H   0  0  0  0  0  0  0  0  0  0  0  0
   -9.0326   21.6034  -32.9095 H   0  0  0  0  0  0  0  0  0  0  0  0
  -10.2503   21.7586  -31.5554 H   0  0  0  0  0  0  0  0  0  0  0  0
   -7.6590   22.8311  -33.0783 H   0  0  0  0  0  0  0  0  0  0  0  0
   -8.2099   24.3409  -32.2053 H   0  0  0  0  0  0  0  0  0  0  0  0
   -5.9970   22.8079  -30.9639 H   0  0  0  0  0  0  0  0  0  0  0  0
   -5.6474   23.6835  -32.5176 H   0  0  0  0  0  0  0  0  0  0  0  0
   -6.2950   24.3160  -28.8920 H   0  0  0  0  0  0  0  0  0  0  0  0
   -3.6456   25.1064  -27.5735 H   0  0  0  0  0  0  0  0  0  0  0  0
   -4.4532   23.4917  -27.6624 H   0  0  0  0  0  0  0  0  0  0  0  0
   -0.9959   26.5177  -27.0198 H   0  0  0  0  0  0  0  0  0  0  0  0
    0.1916   26.7037  -28.3546 H   0  0  0  0  0  0  0  0  0  0  0  0
   -1.3191   27.6754  -28.3546 H   0  0  0  0  0  0  0  0  0  0  0  0
    0.7856   24.4140  -28.9965 H   0  0  0  0  0  0  0  0  0  0  0  0
    1.1560   21.9753  -28.5967 H   0  0  0  0  0  0  0  0  0  0  0  0
    0.2911   19.8477  -28.0463 H   0  0  0  0  0  0  0  0  0  0  0  0
   -1.6501   18.4278  -27.4417 H   0  0  0  0  0  0  0  0  0  0  0  0
   -3.9270   19.3639  -27.2174 H   0  0  0  0  0  0  0  0  0  0  0  0
   -4.2878   21.7985  -27.6098 H   0  0  0  0  0  0  0  0  0  0  0  0
  1  2  1  0
  2  3  1  0
  3  4  1  0
  3  5  1  0
  5  6  1  0
  6  7  1  0
  7  8  1  0
  8  9  1  0
  9 10  1  0
 10 11  1  0
 11 12  1  0
 12 13  2  0
 12 14  1  0
 14 15  1  0
 15 16  2  0
 16 17  1  0
 17 18  1  0
 16 19  1  0
 19 20  2  0
 20 21  1  0
 21 22  2  0
 22 23  1  0
 23 24  2  0
 24 25  1  0
 25 26  2  0
 26 15  1  0
 26 21  1  0
  1 27  1  0
  1 28  1  0
  1 29  1  0
  2 30  1  0
  2 31  1  0
  4 32  1  0
  4 33  1  0
  4 34  1  0
  5 35  1  0
  5 36  1  0
  6 37  1  0
  6 38  1  0
  8 39  1  0
  8 40  1  0
  9 41  1  0
  9 42  1  0
 11 43  1  0
 14 44  1  0
 14 45  1  0
 18 46  1  0
 18 47  1  0
 18 48  1  0
 19 49  1  0
 20 50  1  0
 22 51  1  0
 23 52  1  0
 24 53  1  0
 25 54  1  0
M  END
>  <smiles>  (6) 
CCN(C)CCOCCONC(=O)Cc1c(OC)ccc2ccccc12

>  <score_type>  (6) 
oracle

>  <origin>  (6) 
adg

>  <m_score__min__energy>  (6) 
-8.25

>  <m_primary>  (6) 
energy

$$$$
7:0
     RDKit          3D

 55 57  0  0  0  0  0  0  0  0999 V2000
   -2.9330   19.4660  -33.6470 C   0  0  0  0  0  0  0  0  0  0  0  0
   -3.5370   18.1080  -33.6880 C   0  0  0  0  0  0  0  0  0  0  0  0
   -4.9860   18.0860  -33.6760 N   0  0  0  0  0  3  0  0  0  0  0  0
   -5.5160   19.4060  -33.8550 C   0  0  0  0  0  0  0  0  0  0  0  0
   -6.9710   19.4930  -33.4680 C   0  0  0  0  0  0  0  0  0  0  0  0
   -7.1190   18.9950  -32.1120 N   0  0  0  0  0  0  0  0  0  0  0  0
   -8.3910   19.3290  -31.5550 C   0  0  0  0  0  0  0  0  0  0  0  0
   -9.1100   20.3980  -32.3580 C   0  0  0  0  0  0  0  0  0  0  0  0
   -8.3840   21.5630  -32.4060 O   0  0  0  0  0  0  0  0  0  0  0  0
   -8.7750   22.5480  -31.5320 C   0  0  0  0  0  0  0  0  0  0  0  0
   -7.6420   23.5730  -31.5030 C   0  0  0  0  0  0  0  0  0  0  0  0
   -6.4460   23.0180  -32.1020 N   0  0  0  0  0  0  0  0  0  0  0  0
   -5.1880   22.9570  -31.4510 C   0  0  0  0  0  0  0  0  0  0  0  0
   -4.4950   21.7540  -31.4080 C   0  0  0  0  0  0  0  0  0  0  0  0
   -3.2730   21.6120  -30.7950 C   0  0  0  0  0  0  0  0  0  0  0  0
   -2.6890   22.7020  -30.1860 C   0  0  0  0  0  0  0  0  0  0  0  0
   -1.4630   22.5290  -29.5800 C   0  0  0  0  0  0  0  0  0  0  0  0
   -0.7680   21.2000  -29.5680 C   0  0  0  0  0  0  0  0  0  0  0  0
   -0.8970   23.6300  -28.9780 C   0  0  0  0  0  0  0  0  0  0  0  0
   -1.5950   24.8190  -29.0280 C   0  0  0  0  0  0  0  0  0  0  0  0
   -1.0790   25.8430  -28.4740 O   0  0  0  0  0  0  0  0  0  0  0  0
   -2.7600   24.9280  -29.6210 O   0  0  0  0  0  0  0  0  0  0  0  0
   -3.3640   23.9020  -30.2220 C   0  0  0  0  0  0  0  0  0  0  0  0
   -4.5870   24.0360  -30.8390 C   0  0  0  0  0  0  0  0  0  0  0  0
   -6.7940   17.6050  -32.0540 C   0  0  0  0  0  0  0  0  0  0  0  0
   -5.3690   17.4300  -32.4570 C   0  0  0  0  0  0  0  0  0  0  0  0
   -2.7957   19.7748  -32.6002 H   0  0  0  0  0  0  0  0  0  0  0  0
   -1.9576   19.4490  -34.1552 H   0  0  0  0  0  0  0  0  0  0  0  0
   -3.5989   20.1790  -34.1552 H   0  0  0  0  0  0  0  0  0  0  0  0
   -3.1949   17.6091  -34.6067 H   0  0  0  0  0  0  0  0  0  0  0  0
   -3.2122   17.5971  -32.7695 H   0  0  0  0  0  0  0  0  0  0  0  0
   -4.9410   20.1062  -33.2312 H   0  0  0  0  0  0  0  0  0  0  0  0
   -5.4346   19.6608  -34.9220 H   0  0  0  0  0  0  0  0  0  0  0  0
   -7.3059   20.5396  -33.5173 H   0  0  0  0  0  0  0  0  0  0  0  0
   -7.5807   18.8916  -34.1584 H   0  0  0  0  0  0  0  0  0  0  0  0
   -9.0157   18.4239  -31.5323 H   0  0  0  0  0  0  0  0  0  0  0  0
   -8.2211   19.7260  -30.5433 H   0  0  0  0  0  0  0  0  0  0  0  0
   -9.2658   20.0311  -33.3832 H   0  0  0  0  0  0  0  0  0  0  0  0
  -10.0720   20.6099  -31.8684 H   0  0  0  0  0  0  0  0  0  0  0  0
   -9.7056   23.0192  -31.8813 H   0  0  0  0  0  0  0  0  0  0  0  0
   -8.9681   22.1383  -30.5296 H   0  0  0  0  0  0  0  0  0  0  0  0
   -7.9477   24.4677  -32.0653 H   0  0  0  0  0  0  0  0  0  0  0  0
   -7.4277   23.8396  -30.4575 H   0  0  0  0  0  0  0  0  0  0  0  0
   -6.5270   22.6410  -33.0800 H   0  0  0  0  0  0  0  0  0  0  0  0
   -4.9458   20.8726  -31.8876 H   0  0  0  0  0  0  0  0  0  0  0  0
   -2.7651   20.6363  -30.7904 H   0  0  0  0  0  0  0  0  0  0  0  0
   -0.6019   20.8824  -28.5280 H   0  0  0  0  0  0  0  0  0  0  0  0
   -1.3921   20.4552  -30.0836 H   0  0  0  0  0  0  0  0  0  0  0  0
    0.1997   21.2876  -30.0836 H   0  0  0  0  0  0  0  0  0  0  0  0
    0.0786   23.5640  -28.4742 H   0  0  0  0  0  0  0  0  0  0  0  0
   -5.0900   25.0142  -30.8438 H   0  0  0  0  0  0  0  0  0  0  0  0
   -6.9369   17.2339  -31.0284 H   0  0  0  0  0  0  0  0  0  0  0  0
   -7.4479   17.0385  -32.7334 H   0  0  0  0  0  0  0  0  0  0  0  0
   -4.7370   17.8237  -31.6473 H   0  0  0  0  0  0  0  0  0  0  0  0
   -5.2368   16.3533  -32.6391 H   0  0  0  0  0  0  0  0  0  0  0  0
  1  2  1  0
  2  3  1  0
  3  4  1  0
  4  5  1  0
  5  6  1  0
  6  7  1  0
  7  8  1  0
  8  9  1  0
  9 10  1  0
 10 11  1  0
 11 12  1  0
 12 13  1  0
 13 14  2  0
 14 15  1  0
 15 16  2  0
 16 17  1  0
 17 18  1  0
 17 19  2  0
 19 20  1  0
 20 21  2  0
 20 22  1  0
 22 23  1  0
 23 24  2  0
  6 25  1  0
 25 26  1  0
 26  3  1  0
 24 13  1  0
 23 16  1  0
  1 27  1  0
  1 28  1  0
  1 29  1  0
  2 30  1  0
  2 31  1  0
  4 32  1  0
  4 33  1  0
  5 34  1  0
  5 35  1  0
  7 36  1  0
  7 37  1  0
  8 38  1  0
  8 39  1  0
 10 40  1  0
 10 41  1  0
 11 42  1  0
 11 43  1  0
 12 44  1  0
 14 45  1  0
 15 46  1  0
 18 47  1  0
 18 48  1  0
 18 49  1  0
 19 50  1  0
 24 51  1  0
 25 52  1  0
 25 53  1  0
 26 54  1  0
 26 55  1  0
M  CHG  1   3   1
M  RAD  1   3   2
M  END
>  <smiles>  (7) 
CC[N+]1CCN(CCOCCNc2ccc3c(C)cc(=O)oc3c2)CC1

>  <score_type>  (7) 
oracle

>  <origin>  (7) 
adg

>  <m_score__min__energy>  (7) 
-7.4299999999999997

>  <m_primary>  (7) 
energy

$$$$
8:0
     RDKit          3D

 53 55  0  0  0  0  0  0  0  0999 V2000
   -6.2420   25.2980  -29.8160 C   0  0  0  0  0  0  0  0  0  0  0  0
   -5.2280   24.9730  -30.8670 C   0  0  0  0  0  0  0  0  0  0  0  0
   -3.8650   25.3000  -30.4950 N   0  0  0  0  0  0  0  0  0  0  0  0
   -3.4050   24.6060  -29.3240 C   0  0  0  0  0  0  0  0  0  0  0  0
   -2.5810   23.3830  -29.7060 C   0  0  0  0  0  0  0  0  0  0  0  0
   -3.6280   21.9150  -29.7160 S   0  0  0  0  0  0  0  0  0  0  0  0
   -2.7590   20.4470  -30.2810 C   0  0  0  0  0  0  0  0  0  0  0  0
   -1.8810   20.6920  -31.4940 C   0  0  0  0  0  0  0  0  0  0  0  0
   -2.5140   21.7960  -32.3450 C   0  0  0  0  0  0  0  0  0  0  0  0
   -3.1270   21.2780  -33.5240 N   0  0  0  0  0  0  0  0  0  0  0  0
   -4.1730   20.3310  -33.3880 C   0  0  0  0  0  0  0  0  0  0  0  0
   -3.9680   19.0080  -33.7470 C   0  0  0  0  0  0  0  0  0  0  0  0
   -2.7270   18.6850  -34.2330 C   0  0  0  0  0  0  0  0  0  0  0  0
   -2.4170   17.4010  -34.6260 C   0  0  0  0  0  0  0  0  0  0  0  0
   -3.4090   16.4530  -34.5080 C   0  0  0  0  0  0  0  0  0  0  0  0
   -4.6550   16.7810  -34.0180 C   0  0  0  0  0  0  0  0  0  0  0  0
   -4.9790   18.0770  -33.6180 C   0  0  0  0  0  0  0  0  0  0  0  0
   -6.2070   18.3830  -33.1450 N   0  0  0  0  0  0  0  0  0  0  0  0
   -7.2310   17.3970  -33.0010 C   0  0  0  0  0  0  0  0  0  0  0  0
   -6.4100   19.6810  -32.7950 C   0  0  0  0  0  0  0  0  0  0  0  0
   -7.6330   20.1120  -32.3070 C   0  0  0  0  0  0  0  0  0  0  0  0
   -7.8630   21.4310  -31.9490 C   0  0  0  0  0  0  0  0  0  0  0  0
   -9.4370   21.9490  -31.3250 Cl  0  0  0  0  0  0  0  0  0  0  0  0
   -6.8660   22.3750  -32.0690 C   0  0  0  0  0  0  0  0  0  0  0  0
   -5.6330   21.9690  -32.5560 C   0  0  0  0  0  0  0  0  0  0  0  0
   -5.4290   20.6430  -32.9070 C   0  0  0  0  0  0  0  0  0  0  0  0
   -5.7967   25.1553  -28.8203 H   0  0  0  0  0  0  0  0  0  0  0  0
   -6.5633   26.3441  -29.9275 H   0  0  0  0  0  0  0  0  0  0  0  0
   -7.1115   24.6335  -29.9275 H   0  0  0  0  0  0  0  0  0  0  0  0
   -5.2800   23.8942  -31.0755 H   0  0  0  0  0  0  0  0  0  0  0  0
   -5.4734   25.5875  -31.7458 H   0  0  0  0  0  0  0  0  0  0  0  0
   -3.8660   26.3350  -30.2970 H   0  0  0  0  0  0  0  0  0  0  0  0
   -2.7832   25.2860  -28.7233 H   0  0  0  0  0  0  0  0  0  0  0  0
   -4.2798   24.2739  -28.7457 H   0  0  0  0  0  0  0  0  0  0  0  0
   -2.1514   23.5312  -30.7077 H   0  0  0  0  0  0  0  0  0  0  0  0
   -1.7738   23.2467  -28.9712 H   0  0  0  0  0  0  0  0  0  0  0  0
   -2.1246   20.0806  -29.4604 H   0  0  0  0  0  0  0  0  0  0  0  0
   -3.5229   19.7132  -30.5777 H   0  0  0  0  0  0  0  0  0  0  0  0
   -0.8784   21.0055  -31.1677 H   0  0  0  0  0  0  0  0  0  0  0  0
   -1.7928   19.7683  -32.0848 H   0  0  0  0  0  0  0  0  0  0  0  0
   -3.2780   22.3124  -31.7453 H   0  0  0  0  0  0  0  0  0  0  0  0
   -1.7154   22.4868  -32.6533 H   0  0  0  0  0  0  0  0  0  0  0  0
   -2.8540   21.5540  -34.5000 H   0  0  0  0  0  0  0  0  0  0  0  0
   -1.9603   19.4699  -34.3111 H   0  0  0  0  0  0  0  0  0  0  0  0
   -1.4212   17.1446  -35.0167 H   0  0  0  0  0  0  0  0  0  0  0  0
   -3.2034   15.4155  -34.8102 H   0  0  0  0  0  0  0  0  0  0  0  0
   -5.4195   15.9939  -33.9399 H   0  0  0  0  0  0  0  0  0  0  0  0
   -7.4185   17.2165  -31.9322 H   0  0  0  0  0  0  0  0  0  0  0  0
   -8.1544   17.7547  -33.4800 H   0  0  0  0  0  0  0  0  0  0  0  0
   -6.9085   16.4607  -33.4800 H   0  0  0  0  0  0  0  0  0  0  0  0
   -8.4493   19.3824  -32.2001 H   0  0  0  0  0  0  0  0  0  0  0  0
   -7.0438   23.4230  -31.7859 H   0  0  0  0  0  0  0  0  0  0  0  0
   -4.8168   22.6985  -32.6639 H   0  0  0  0  0  0  0  0  0  0  0  0
  1  2  1  0
  2  3  1  0
  3  4  1  0
  4  5  1  0
  5  6  1  0
  6  7  1  0
  7  8  1  0
  8  9  1  0
  9 10  1  0
 10 11  1  0
 11 12  2  0
 12 13  1  0
 13 14  2  0
 14 15  1  0
 15 16  2  0
 16 17  1  0
 17 18  2  0
 18 19  1  0
 18 20  1  0
 20 21  2  0
 21 22  1  0
 22 23  1  0
 22 24  2  0
 24 25  1  0
 25 26  2  0
 26 11  1  0
 17 12  1  0
 26 20  1  0
  1 27  1  0
  1 28  1  0
  1 29  1  0
  2 30  1  0
  2 31  1  0
  3 32  1  0
  4 33  1  0
  4 34  1  0
  5 35  1  0
  5 36  1  0
  7 37  1  0
  7 38  1  0
  8 39  1  0
  8 40  1  0
  9 41  1  0
  9 42  1  0
 10 43  1  0
 13 44  1  0
 14 45  1  0
 15 46  1  0
 16 47  1  0
 19 48  1  0
 19 49  1  0
 19 50  1  0
 21 51  1  0
 24 52  1  0
 25 53  1  0
M  CHG  1  18   1
M  END
>  <smiles>  (8) 
CCNCCSCCCNc1c2ccccc2[n+](C)c2cc(Cl)ccc12

>  <score_type>  (8) 
oracle

>  <origin>  (8) 
adg

>  <m_score__min__energy>  (8) 
-9.1899999999999995

>  <m_primary>  (8) 
energy

$$$$
9:0
     RDKit          3D

 50 51  0  0  0  0  0  0  0  0999 V2000
   -7.2970   23.1090  -32.3340 C   0  0  0  0  0  0  0  0  0  0  0  0
   -7.3450   22.5210  -30.9300 C   0  0  0  0  0  0  0  0  0  0  0  0
   -8.6560   21.8460  -30.7100 C   0  0  0  0  0  0  0  0  0  0  0  0
   -9.4310   21.5960  -31.9590 C   0  0  0  0  0  0  0  0  0  0  0  0
   -9.3420   20.1540  -32.3790 C   0  0  0  0  0  0  0  0  0  0  0  0
   -8.2180   19.4390  -31.6940 C   0  0  0  0  0  0  0  0  0  0  0  0
   -7.3820   18.6190  -32.5990 C   0  0  0  0  0  0  0  0  0  0  0  0
   -7.5860   17.3130  -32.8200 N   0  0  0  0  0  0  0  0  0  0  0  0
   -6.6630   16.8420  -33.6630 N   0  0  0  0  0  0  0  0  0  0  0  0
   -6.5080   15.4940  -34.1760 C   0  0  0  0  0  0  0  0  0  0  0  0
   -5.8920   17.8890  -33.9540 C   0  0  0  0  0  0  0  0  0  0  0  0
   -4.5970   17.8000  -34.9710 S   0  0  0  0  0  0  0  0  0  0  0  0
   -6.3170   19.0030  -33.3080 N   0  0  0  0  0  0  0  0  0  0  0  0
   -5.6860   20.2330  -33.4440 N   0  0  0  0  0  0  0  0  0  0  0  0
   -4.5140   20.5440  -32.6670 C   0  0  0  0  0  0  0  0  0  0  0  0
   -3.8510   21.8200  -33.0820 C   0  0  0  0  0  0  0  0  0  0  0  0
   -2.8640   22.1660  -32.0490 N   0  0  0  0  0  0  0  0  0  0  0  0
   -3.3170   22.7230  -30.7980 C   0  0  0  0  0  0  0  0  0  0  0  0
   -2.7940   22.3080  -29.5870 C   0  0  0  0  0  0  0  0  0  0  0  0
   -3.2630   22.8900  -28.4030 C   0  0  0  0  0  0  0  0  0  0  0  0
   -4.2440   23.8780  -28.4310 C   0  0  0  0  0  0  0  0  0  0  0  0
   -4.7710   24.2950  -29.6570 C   0  0  0  0  0  0  0  0  0  0  0  0
   -6.1240   25.6590  -29.7150 Br  0  0  0  0  0  0  0  0  0  0  0  0
   -4.2920   23.7040  -30.8120 C   0  0  0  0  0  0  0  0  0  0  0  0
   -7.2077   24.2035  -32.2703 H   0  0  0  0  0  0  0  0  0  0  0  0
   -6.4292   22.7010  -32.8729 H   0  0  0  0  0  0  0  0  0  0  0  0
   -8.2195   22.8472  -32.8729 H   0  0  0  0  0  0  0  0  0  0  0  0
   -6.5328   21.7884  -30.8129 H   0  0  0  0  0  0  0  0  0  0  0  0
   -7.2243   23.3290  -30.1934 H   0  0  0  0  0  0  0  0  0  0  0  0
   -8.4684   20.8788  -30.2208 H   0  0  0  0  0  0  0  0  0  0  0  0
   -9.2619   22.5251  -30.0922 H   0  0  0  0  0  0  0  0  0  0  0  0
  -10.4859   21.8535  -31.7836 H   0  0  0  0  0  0  0  0  0  0  0  0
   -9.0064   22.2177  -32.7610 H   0  0  0  0  0  0  0  0  0  0  0  0
  -10.2879   19.6518  -32.1279 H   0  0  0  0  0  0  0  0  0  0  0  0
   -9.1526   20.1264  -33.4622 H   0  0  0  0  0  0  0  0  0  0  0  0
   -7.5731   20.1896  -31.2136 H   0  0  0  0  0  0  0  0  0  0  0  0
   -8.6759   18.7471  -30.9718 H   0  0  0  0  0  0  0  0  0  0  0  0
   -6.4269   14.7889  -33.3356 H   0  0  0  0  0  0  0  0  0  0  0  0
   -7.3820   15.2329  -34.7907 H   0  0  0  0  0  0  0  0  0  0  0  0
   -5.5975   15.4380  -34.7907 H   0  0  0  0  0  0  0  0  0  0  0  0
   -6.1010   20.9070  -34.1300 H   0  0  0  0  0  0  0  0  0  0  0  0
   -4.8082   20.6307  -31.6106 H   0  0  0  0  0  0  0  0  0  0  0  0
   -3.7898   19.7322  -32.8299 H   0  0  0  0  0  0  0  0  0  0  0  0
   -3.3477   21.6832  -34.0505 H   0  0  0  0  0  0  0  0  0  0  0  0
   -4.5943   22.6236  -33.1899 H   0  0  0  0  0  0  0  0  0  0  0  0
   -1.8410   22.0190  -32.1970 H   0  0  0  0  0  0  0  0  0  0  0  0
   -2.0179   21.5291  -29.5542 H   0  0  0  0  0  0  0  0  0  0  0  0
   -2.8508   22.5622  -27.4373 H   0  0  0  0  0  0  0  0  0  0  0  0
   -4.6024   24.3280  -27.4934 H   0  0  0  0  0  0  0  0  0  0  0  0
   -4.7026   24.0269  -31.7801 H   0  0  0  0  0  0  0  0  0  0  0  0
  1  2  1  0
  2  3  1  0
  3  4  1  0
  4  5  1  0
  5  6  1  0
  6  7  1  0
  7  8  2  0
  8  9  1  0
  9 10  1  0
  9 11  1  0
 11 12  2  0
 11 13  1  0
 13 14  1  0
 14 15  1  0
 15 16  1  0
 16 17  1  0
 17 18  1  0
 18 19  2  0
 19 20  1  0
 20 21  2  0
 21 22  1  0
 22 23  1  0
 22 24  2  0
 13  7  1  0
 24 18  1  0
  1 25  1  0
  1 26  1  0
  1 27  1  0
  2 28  1  0
  2 29  1  0
  3 30  1  0
  3 31  1  0
  4 32  1  0
  4 33  1  0
  5 34  1  0
  5 35  1  0
  6 36  1  0
  6 37  1  0
 10 38  1  0
 10 39  1  0
 10 40  1  0
 14 41  1  0
 15 42  1  0
 15 43  1  0
 16 44  1  0
 16 45  1  0
 17 46  1  0
 19 47  1  0
 20 48  1  0
 21 49  1  0
 24 50  1  0
M  END
>  <smiles>  (9) 
CCCCCCc1nn(C)c(=S)n1NCCNc1cccc(Br)c1

>  <score_type>  (9) 
oracle

>  <origin>  (9) 
adg

>  <m_score__min__energy>  (9) 
-8.2899999999999991

>  <m_primary>  (9) 
energy

$$$$
10:0
     RDKit          3D

 38 40  0  0  0  0  0  0  0  0999 V2000
   -3.5860   23.9570  -30.1290 C   0  0  0  0  0  0  0  0  0  0  0  0
   -3.8620   25.3180  -30.4810 N   0  0  0  0  0  0  0  0  0  0  0  0
   -5.2830   25.4860  -30.7400 C   0  0  0  0  0  0  0  0  0  0  0  0
   -6.0180   25.1190  -29.4690 C   0  0  0  0  0  0  0  0  0  0  0  0
   -6.9700   23.9870  -29.7860 C   0  0  0  0  0  0  0  0  0  0  0  0
   -7.1310   23.8230  -31.1850 O   0  0  0  0  0  0  0  0  0  0  0  0
   -7.2300   22.5210  -31.6590 C   0  0  0  0  0  0  0  0  0  0  0  0
   -8.4690   21.9560  -31.8950 C   0  0  0  0  0  0  0  0  0  0  0  0
   -8.5400   20.6610  -32.3650 C   0  0  0  0  0  0  0  0  0  0  0  0
   -7.4280   19.8840  -32.6180 C   0  0  0  0  0  0  0  0  0  0  0  0
   -6.2010   20.4580  -32.3780 C   0  0  0  0  0  0  0  0  0  0  0  0
   -6.1320   21.7250  -31.9180 C   0  0  0  0  0  0  0  0  0  0  0  0
   -4.7020   19.5400  -32.6730 S   0  0  0  0  0  0  0  0  0  0  0  0
   -5.2340   17.9450  -33.2630 C   0  0  0  0  0  0  0  0  0  0  0  0
   -4.3270   17.0020  -33.5800 C   0  0  0  0  0  0  0  0  0  0  0  0
   -4.6340   15.7370  -34.0460 C   0  0  0  0  0  0  0  0  0  0  0  0
   -5.9810   15.4500  -34.1850 C   0  0  0  0  0  0  0  0  0  0  0  0
   -6.9110   16.4160  -33.8600 C   0  0  0  0  0  0  0  0  0  0  0  0
   -6.5740   17.6710  -33.3970 C   0  0  0  0  0  0  0  0  0  0  0  0
   -7.6120   18.5660  -33.1000 N   0  0  0  0  0  0  0  0  0  0  0  0
   -3.5660   23.8584  -29.0336 H   0  0  0  0  0  0  0  0  0  0  0  0
   -4.3703   23.3053  -30.5416 H   0  0  0  0  0  0  0  0  0  0  0  0
   -2.6098   23.6623  -30.5416 H   0  0  0  0  0  0  0  0  0  0  0  0
   -3.5010   26.0060  -29.8140 H   0  0  0  0  0  0  0  0  0  0  0  0
   -5.4956   26.5311  -31.0095 H   0  0  0  0  0  0  0  0  0  0  0  0
   -5.6052   24.8465  -31.5750 H   0  0  0  0  0  0  0  0  0  0  0  0
   -5.2983   24.7970  -28.7020 H   0  0  0  0  0  0  0  0  0  0  0  0
   -6.5735   25.9877  -29.0860 H   0  0  0  0  0  0  0  0  0  0  0  0
   -6.5717   23.0544  -29.3598 H   0  0  0  0  0  0  0  0  0  0  0  0
   -7.9511   24.2274  -29.3504 H   0  0  0  0  0  0  0  0  0  0  0  0
   -9.3877   22.5321  -31.7102 H   0  0  0  0  0  0  0  0  0  0  0  0
   -9.5336   20.2256  -32.5474 H   0  0  0  0  0  0  0  0  0  0  0  0
   -5.1344   22.1519  -31.7374 H   0  0  0  0  0  0  0  0  0  0  0  0
   -3.2637   17.2566  -33.4594 H   0  0  0  0  0  0  0  0  0  0  0  0
   -3.8536   15.0018  -34.2919 H   0  0  0  0  0  0  0  0  0  0  0  0
   -6.3058   14.4644  -34.5499 H   0  0  0  0  0  0  0  0  0  0  0  0
   -7.9774   16.1726  -33.9762 H   0  0  0  0  0  0  0  0  0  0  0  0
   -8.5950   18.2490  -33.2400 H   0  0  0  0  0  0  0  0  0  0  0  0
  1  2  1  0
  2  3  1  0
  3  4  1  0
  4  5  1  0
  5  6  1  0
  6  7  1  0
  7  8  2  0
  8  9  1  0
  9 10  2  0
 10 11  1  0
 11 12  2  0
 11 13  1  0
 13 14  1  0
 14 15  2  0
 15 16  1  0
 16 17  2  0
 17 18  1  0
 18 19  2  0
 19 20  1  0
 12  7  1  0
 19 14  1  0
 20 10  1  0
  1 21  1  0
  1 22  1  0
  1 23  1  0
  2 24  1  0
  3 25  1  0
  3 26  1  0
  4 27  1  0
  4 28  1  0
  5 29  1  0
  5 30  1  0
  8 31  1  0
  9 32  1  0
 12 33  1  0
 15 34  1  0
 16 35  1  0
 17 36  1  0
 18 37  1  0
 20 38  1  0
M  END
>  <smiles>  (10) 
CNCCCOc1ccc2c(c1)Sc1ccccc1N2

>  <score_type>  (10) 
oracle

>  <origin>  (10) 
adg

>  <m_score__min__energy>  (10) 
-8.2100000000000009

>  <m_primary>  (10) 
energy

$$$$
11:0
     RDKit          3D

 51 53  0  0  0  0  0  0  0  0999 V2000
   -6.4750   24.8660  -29.7190 C   0  0  0  0  0  0  0  0  0  0  0  0
   -5.7290   25.6740  -30.7890 C   0  0  0  0  0  0  0  0  0  0  0  0
   -4.5970   24.9980  -31.1790 O   0  0  0  0  0  0  0  0  0  0  0  0
   -3.6700   24.8800  -30.2190 N   0  0  0  0  0  0  0  0  0  0  0  0
   -3.1650   23.5420  -30.1140 C   0  0  0  0  0  0  0  0  0  0  0  0
   -4.1160   22.5760  -30.8050 C   0  0  0  0  0  0  0  0  0  0  0  0
   -3.5470   22.0860  -32.1150 C   0  0  0  0  0  0  0  0  0  0  0  0
   -4.6100   21.8280  -33.0960 N   0  0  0  0  0  0  0  0  0  0  0  0
   -5.7070   20.9680  -32.8010 C   0  0  0  0  0  0  0  0  0  0  0  0
   -5.5670   19.6110  -32.8830 C   0  0  0  0  0  0  0  0  0  0  0  0
   -6.5650   18.6980  -32.6190 C   0  0  0  0  0  0  0  0  0  0  0  0
   -7.7770   19.2190  -32.2480 N   0  0  0  0  0  0  0  0  0  0  0  0
   -8.8050   18.2520  -31.9610 C   0  0  0  0  0  0  0  0  0  0  0  0
   -7.9380   20.5500  -32.1620 C   0  0  0  0  0  0  0  0  0  0  0  0
   -9.1620   21.0650  -31.7930 C   0  0  0  0  0  0  0  0  0  0  0  0
   -9.3350   22.4360  -31.7050 C   0  0  0  0  0  0  0  0  0  0  0  0
   -8.3280   23.3370  -31.9710 C   0  0  0  0  0  0  0  0  0  0  0  0
   -7.1070   22.8270  -32.3390 C   0  0  0  0  0  0  0  0  0  0  0  0
   -6.9370   21.4620  -32.4270 C   0  0  0  0  0  0  0  0  0  0  0  0
   -6.3470   17.2350  -32.7350 C   0  0  0  0  0  0  0  0  0  0  0  0
   -5.3580   16.8670  -33.7840 C   0  0  0  0  0  0  0  0  0  0  0  0
   -4.6030   18.0370  -34.3720 C   0  0  0  0  0  0  0  0  0  0  0  0
   -4.2390   19.0280  -33.2860 C   0  0  0  0  0  0  0  0  0  0  0  0
   -6.1627   25.2043  -28.7200 H   0  0  0  0  0  0  0  0  0  0  0  0
   -7.5585   25.0165  -29.8350 H   0  0  0  0  0  0  0  0  0  0  0  0
   -6.2387   23.7980  -29.8350 H   0  0  0  0  0  0  0  0  0  0  0  0
   -6.3852   25.8200  -31.6597 H   0  0  0  0  0  0  0  0  0  0  0  0
   -5.4428   26.6509  -30.3722 H   0  0  0  0  0  0  0  0  0  0  0  0
   -3.9170   25.3120  -29.3120 H   0  0  0  0  0  0  0  0  0  0  0  0
   -2.1763   23.4863  -30.5929 H   0  0  0  0  0  0  0  0  0  0  0  0
   -3.0785   23.2689  -29.0519 H   0  0  0  0  0  0  0  0  0  0  0  0
   -4.2913   21.7131  -30.1457 H   0  0  0  0  0  0  0  0  0  0  0  0
   -5.0574   23.1057  -31.0127 H   0  0  0  0  0  0  0  0  0  0  0  0
   -2.8656   22.8499  -32.5177 H   0  0  0  0  0  0  0  0  0  0  0  0
   -3.0100   21.1441  -31.9294 H   0  0  0  0  0  0  0  0  0  0  0  0
   -4.5970   22.2690  -34.0500 H   0  0  0  0  0  0  0  0  0  0  0  0
   -8.9162   18.1474  -30.8716 H   0  0  0  0  0  0  0  0  0  0  0  0
   -9.7574   18.5892  -32.3961 H   0  0  0  0  0  0  0  0  0  0  0  0
   -8.5266   17.2808  -32.3961 H   0  0  0  0  0  0  0  0  0  0  0  0
   -9.9997   20.3883  -31.5689 H   0  0  0  0  0  0  0  0  0  0  0  0
  -10.3213   22.8230  -31.4093 H   0  0  0  0  0  0  0  0  0  0  0  0
   -8.4948   24.4214  -31.8919 H   0  0  0  0  0  0  0  0  0  0  0  0
   -6.2694   23.5042  -32.5623 H   0  0  0  0  0  0  0  0  0  0  0  0
   -5.9851   16.8584  -31.7669 H   0  0  0  0  0  0  0  0  0  0  0  0
   -7.3086   16.7849  -33.0226 H   0  0  0  0  0  0  0  0  0  0  0  0
   -4.6274   16.1750  -33.3397 H   0  0  0  0  0  0  0  0  0  0  0  0
   -5.9299   16.4174  -34.6091 H   0  0  0  0  0  0  0  0  0  0  0  0
   -3.6835   17.6710  -34.8521 H   0  0  0  0  0  0  0  0  0  0  0  0
   -5.2420   18.5383  -35.1139 H   0  0  0  0  0  0  0  0  0  0  0  0
   -3.7580   18.5212  -32.4364 H   0  0  0  0  0  0  0  0  0  0  0  0
   -3.5214   19.7900  -33.6243 H   0  0  0  0  0  0  0  0  0  0  0  0
  1  2  1  0
  2  3  1  0
  3  4  1  0
  4  5  1  0
  5  6  1  0
  6  7  1  0
  7  8  1  0
  8  9  1  0
  9 10  2  0
 10 11  1  0
 11 12  2  0
 12 13  1  0
 12 14  1  0
 14 15  2  0
 15 16  1  0
 16 17  2  0
 17 18  1  0
 18 19  2  0
 11 20  1  0
 20 21  1  0
 21 22  1  0
 22 23  1  0
 19  9  1  0
 23 10  1  0
 19 14  1  0
  1 24  1  0
  1 25  1  0
  1 26  1  0
  2 27  1  0
  2 28  1  0
  4 29  1  0
  5 30  1  0
  5 31  1  0
  6 32  1  0
  6 33  1  0
  7 34  1  0
  7 35  1  0
  8 36  1  0
 13 37  1  0
 13 38  1  0
 13 39  1  0
 15 40  1  0
 16 41  1  0
 17 42  1  0
 18 43  1  0
 20 44  1  0
 20 45  1  0
 21 46  1  0
 21 47  1  0
 22 48  1  0
 22 49  1  0
 23 50  1  0
 23 51  1  0
M  CHG  1  12   1
M  END
>  <smiles>  (11) 
CCONCCCNc1c2c([n+](C)c3ccccc13)CCCC2

>  <score_type>  (11) 
oracle

>  <origin>  (11) 
adg

>  <m_score__min__energy>  (11) 
-9.6899999999999995

>  <m_primary>  (11) 
energy

$$$$
12:0
     RDKit          3D

 31 32  0  0  0  0  0  0  0  0999 V2000
   -3.7720   21.3800  -33.0720 C   0  0  0  0  0  0  0  0  0  0  0  0
   -4.4570   21.6310  -31.7550 C   0  0  0  0  0  0  0  0  0  0  0  0
   -4.5870   23.0370  -31.4530 N   0  0  0  0  0  0  0  0  0  0  0  0
   -3.6150   23.8010  -30.9440 N   0  0  0  0  0  0  0  0  0  0  0  0
   -4.1350   25.0310  -30.8120 N   0  0  0  0  0  0  0  0  0  0  0  0
   -5.3790   25.0660  -31.2120 N   0  0  0  0  0  0  0  0  0  0  0  0
   -5.6790   23.8190  -31.6170 C   0  0  0  0  0  0  0  0  0  0  0  0
   -7.2160   23.1860  -32.2790 S   0  0  0  0  0  0  0  0  0  0  0  0
   -8.1680   22.4660  -30.8960 C   0  0  0  0  0  0  0  0  0  0  0  0
   -9.1070   21.4090  -31.3590 C   0  0  0  0  0  0  0  0  0  0  0  0
   -8.6270   20.7730  -32.4910 O   0  0  0  0  0  0  0  0  0  0  0  0
   -7.8370   19.7050  -32.6930 C   0  0  0  0  0  0  0  0  0  0  0  0
   -6.8030   19.8400  -33.6340 C   0  0  0  0  0  0  0  0  0  0  0  0
   -5.9370   18.8400  -33.9340 C   0  0  0  0  0  0  0  0  0  0  0  0
   -6.0340   17.6160  -33.3130 C   0  0  0  0  0  0  0  0  0  0  0  0
   -7.0290   17.4430  -32.3890 C   0  0  0  0  0  0  0  0  0  0  0  0
   -7.9120   18.4730  -32.0880 C   0  0  0  0  0  0  0  0  0  0  0  0
   -2.7534   21.0067  -32.8902 H   0  0  0  0  0  0  0  0  0  0  0  0
   -4.3401   20.6316  -33.6440 H   0  0  0  0  0  0  0  0  0  0  0  0
   -3.7221   22.3182  -33.6440 H   0  0  0  0  0  0  0  0  0  0  0  0
   -5.4616   21.1844  -31.7902 H   0  0  0  0  0  0  0  0  0  0  0  0
   -3.8375   21.1780  -30.9669 H   0  0  0  0  0  0  0  0  0  0  0  0
   -7.4661   22.0259  -30.1724 H   0  0  0  0  0  0  0  0  0  0  0  0
   -8.7606   23.2701  -30.4354 H   0  0  0  0  0  0  0  0  0  0  0  0
   -9.2348   20.6666  -30.5574 H   0  0  0  0  0  0  0  0  0  0  0  0
  -10.0687   21.8820  -31.6069 H   0  0  0  0  0  0  0  0  0  0  0  0
   -6.6900   20.8034  -34.1528 H   0  0  0  0  0  0  0  0  0  0  0  0
   -5.1485   19.0095  -34.6820 H   0  0  0  0  0  0  0  0  0  0  0  0
   -5.3338   16.8019  -33.5516 H   0  0  0  0  0  0  0  0  0  0  0  0
   -7.1311   16.4746  -31.8773 H   0  0  0  0  0  0  0  0  0  0  0  0
   -8.6984   18.2962  -31.3395 H   0  0  0  0  0  0  0  0  0  0  0  0
  1  2  1  0
  2  3  1  0
  3  4  1  0
  4  5  2  0
  5  6  1  0
  6  7  2  0
  7  8  1  0
  8  9  1  0
  9 10  1  0
 10 11  1  0
 11 12  1  0
 12 13  2  0
 13 14  1  0
 14 15  2  0
 15 16  1  0
 16 17  2  0
  7  3  1  0
 17 12  1  0
  1 18  1  0
  1 19  1  0
  1 20  1  0
  2 21  1  0
  2 22  1  0
  9 23  1  0
  9 24  1  0
 10 25  1  0
 10 26  1  0
 13 27  1  0
 14 28  1  0
 15 29  1  0
 16 30  1  0
 17 31  1  0
M  END
>  <smiles>  (12) 
CCn1nnnc1SCCOc1ccccc1

>  <score_type>  (12) 
oracle

>  <origin>  (12) 
adg

>  <m_score__min__energy>  (12) 
-7.5

>  <m_primary>  (12) 
energy

$$$$
13:0
     RDKit          3D

 31 32  0  0  0  0  0  0  0  0999 V2000
   -3.9200   24.5550  -26.8770 C   0  0  0  0  0  0  0  0  0  0  0  0
   -2.4740   24.6800  -27.2650 C   0  0  0  0  0  0  0  0  0  0  0  0
   -2.1510   24.4650  -29.0100 S   0  0  0  0  0  0  0  0  0  0  0  0
   -3.6070   24.3520  -30.0170 C   0  0  0  0  0  0  0  0  0  0  0  0
   -4.2440   25.3100  -30.7260 N   0  0  0  0  0  0  0  0  0  0  0  0
   -5.2910   24.7900  -31.3440 N   0  0  0  0  0  0  0  0  0  0  0  0
   -5.3560   23.4660  -31.0460 C   0  0  0  0  0  0  0  0  0  0  0  0
   -6.3290   22.4790  -31.4950 C   0  0  0  0  0  0  0  0  0  0  0  0
   -7.6300   22.6100  -30.9970 C   0  0  0  0  0  0  0  0  0  0  0  0
   -8.6200   21.7060  -31.3780 C   0  0  0  0  0  0  0  0  0  0  0  0
   -8.3610   20.6630  -32.2460 C   0  0  0  0  0  0  0  0  0  0  0  0
   -7.0720   20.5490  -32.7270 C   0  0  0  0  0  0  0  0  0  0  0  0
   -6.8140   19.5280  -33.5800 F   0  0  0  0  0  0  0  0  0  0  0  0
   -6.0780   21.4550  -32.3460 C   0  0  0  0  0  0  0  0  0  0  0  0
   -4.3140   23.2340  -30.2340 N   0  0  0  0  0  0  0  0  0  0  0  0
   -4.0140   21.9310  -29.6780 C   0  0  0  0  0  0  0  0  0  0  0  0
   -2.9490   21.2050  -30.5020 C   0  0  0  0  0  0  0  0  0  0  0  0
   -4.0061   24.5476  -25.7804 H   0  0  0  0  0  0  0  0  0  0  0  0
   -4.4837   25.4078  -27.2833 H   0  0  0  0  0  0  0  0  0  0  0  0
   -4.3290   23.6182  -27.2833 H   0  0  0  0  0  0  0  0  0  0  0  0
   -2.1255   25.6814  -26.9723 H   0  0  0  0  0  0  0  0  0  0  0  0
   -1.9408   23.8693  -26.7469 H   0  0  0  0  0  0  0  0  0  0  0  0
   -7.8720   23.4285  -30.3031 H   0  0  0  0  0  0  0  0  0  0  0  0
   -9.6368   21.8265  -30.9760 H   0  0  0  0  0  0  0  0  0  0  0  0
   -9.1482   19.9537  -32.5413 H   0  0  0  0  0  0  0  0  0  0  0  0
   -5.0618   21.3330  -32.7491 H   0  0  0  0  0  0  0  0  0  0  0  0
   -3.6463   22.0569  -28.6490 H   0  0  0  0  0  0  0  0  0  0  0  0
   -4.9339   21.3280  -29.6924 H   0  0  0  0  0  0  0  0  0  0  0  0
   -2.2322   20.7163  -29.8257 H   0  0  0  0  0  0  0  0  0  0  0  0
   -3.4304   20.4462  -31.1364 H   0  0  0  0  0  0  0  0  0  0  0  0
   -2.4186   21.9304  -31.1364 H   0  0  0  0  0  0  0  0  0  0  0  0
  1  2  1  0
  2  3  1  0
  3  4  1  0
  4  5  2  0
  5  6  1  0
  6  7  2  0
  7  8  1  0
  8  9  2  0
  9 10  1  0
 10 11  2  0
 11 12  1  0
 12 13  1  0
 12 14  2  0
  7 15  1  0
 15 16  1  0
 16 17  1  0
 15  4  1  0
 14  8  1  0
  1 18  1  0
  1 19  1  0
  1 20  1  0
  2 21  1  0
  2 22  1  0
  9 23  1  0
 10 24  1  0
 11 25  1  0
 14 26  1  0
 16 27  1  0
 16 28  1  0
 17 29  1  0
 17 30  1  0
 17 31  1  0
M  END
>  <smiles>  (13) 
CCSc1nnc(-c2cccc(F)c2)n1CC

>  <score_type>  (13) 
oracle

>  <origin>  (13) 
adg

>  <m_score__min__energy>  (13) 
-6.5599999999999996

>  <m_primary>  (13) 
energy

$$$$
14:0
     RDKit          3D

 50 54  0  0  0  0  0  0  0  0999 V2000
    0.0620   17.1690  -33.4780 C   0  0  0  0  0  0  0  0  0  0  0  0
   -1.0990   18.1170  -33.3260 C   0  0  0  0  0  0  0  0  0  0  0  0
   -1.1730   19.1620  -32.5290 O   0  0  0  0  0  0  0  0  0  0  0  0
   -2.3450   19.7540  -32.6680 C   0  0  0  0  0  0  0  0  0  0  0  0
   -2.8320   20.9390  -31.9730 C   0  0  0  0  0  0  0  0  0  0  0  0
   -2.2020   21.4910  -30.8790 C   0  0  0  0  0  0  0  0  0  0  0  0
   -2.6630   22.6120  -30.2230 C   0  0  0  0  0  0  0  0  0  0  0  0
   -3.8290   23.2250  -30.6830 C   0  0  0  0  0  0  0  0  0  0  0  0
   -4.2990   24.3510  -30.0290 C   0  0  0  0  0  0  0  0  0  0  0  0
   -5.4530   24.9560  -30.4880 C   0  0  0  0  0  0  0  0  0  0  0  0
   -6.1260   24.4480  -31.5770 C   0  0  0  0  0  0  0  0  0  0  0  0
   -5.6480   23.3330  -32.2140 C   0  0  0  0  0  0  0  0  0  0  0  0
   -4.5000   22.6950  -31.7930 C   0  0  0  0  0  0  0  0  0  0  0  0
   -3.9880   21.5700  -32.4070 C   0  0  0  0  0  0  0  0  0  0  0  0
   -3.0610   19.0640  -33.5940 N   0  0  0  0  0  0  0  0  0  0  0  0
   -2.3010   18.0370  -34.0190 C   0  0  0  0  0  0  0  0  0  0  0  0
   -2.5820   16.9850  -35.0080 C   0  0  0  0  0  0  0  0  0  0  0  0
   -3.9010   15.8590  -34.4940 S   0  0  0  0  0  0  0  0  0  0  0  0
   -5.0300   16.7120  -33.3790 C   0  0  0  0  0  0  0  0  0  0  0  0
   -5.2390   16.2590  -32.1150 N   0  0  0  0  0  0  0  0  0  0  0  0
   -6.1210   17.0980  -31.5540 N   0  0  0  0  0  0  0  0  0  0  0  0
   -6.4390   18.0510  -32.4790 C   0  0  0  0  0  0  0  0  0  0  0  0
   -7.3800   19.1350  -32.2140 C   0  0  0  0  0  0  0  0  0  0  0  0
   -6.9240   20.2280  -31.4690 C   0  0  0  0  0  0  0  0  0  0  0  0
   -7.7580   21.2940  -31.1760 C   0  0  0  0  0  0  0  0  0  0  0  0
   -9.0480   21.2650  -31.6300 C   0  0  0  0  0  0  0  0  0  0  0  0
   -9.8500   22.3290  -31.3270 F   0  0  0  0  0  0  0  0  0  0  0  0
   -9.5090   20.2070  -32.3590 C   0  0  0  0  0  0  0  0  0  0  0  0
   -8.6860   19.1250  -32.6630 C   0  0  0  0  0  0  0  0  0  0  0  0
   -5.7620   17.8100  -33.6090 N   0  0  0  0  0  0  0  0  0  0  0  0
   -5.8000   18.5640  -34.8310 C   0  0  0  0  0  0  0  0  0  0  0  0
    0.4256   16.8721  -32.4832 H   0  0  0  0  0  0  0  0  0  0  0  0
   -0.2640   16.2757  -34.0309 H   0  0  0  0  0  0  0  0  0  0  0  0
    0.8721   17.6671  -34.0309 H   0  0  0  0  0  0  0  0  0  0  0  0
   -1.2831   21.0120  -30.5099 H   0  0  0  0  0  0  0  0  0  0  0  0
   -2.1225   23.0154  -29.3541 H   0  0  0  0  0  0  0  0  0  0  0  0
   -3.7627   24.7571  -29.1587 H   0  0  0  0  0  0  0  0  0  0  0  0
   -5.8380   25.8519  -29.9789 H   0  0  0  0  0  0  0  0  0  0  0  0
   -7.0447   24.9361  -31.9344 H   0  0  0  0  0  0  0  0  0  0  0  0
   -6.1936   22.9367  -33.0831 H   0  0  0  0  0  0  0  0  0  0  0  0
   -4.5192   21.1566  -33.2770 H   0  0  0  0  0  0  0  0  0  0  0  0
   -2.8791   17.4636  -35.9528 H   0  0  0  0  0  0  0  0  0  0  0  0
   -1.6656   16.3867  -35.1186 H   0  0  0  0  0  0  0  0  0  0  0  0
   -5.8844   20.2408  -31.1096 H   0  0  0  0  0  0  0  0  0  0  0  0
   -7.3899   22.1483  -30.5890 H   0  0  0  0  0  0  0  0  0  0  0  0
  -10.5504   20.2089  -32.7132 H   0  0  0  0  0  0  0  0  0  0  0  0
   -9.0695   18.2776  -33.2503 H   0  0  0  0  0  0  0  0  0  0  0  0
   -5.8541   19.6376  -34.5979 H   0  0  0  0  0  0  0  0  0  0  0  0
   -4.8905   18.3611  -35.4155 H   0  0  0  0  0  0  0  0  0  0  0  0
   -6.6845   18.2707  -35.4155 H   0  0  0  0  0  0  0  0  0  0  0  0
  1  2  1  0
  2  3  1  0
  3  4  1  0
  4  5  1  0
  5  6  2  0
  6  7  1  0
  7  8  2  0
  8  9  1  0
  9 10  2  0
 10 11  1  0
 11 12  2  0
 12 13  1  0
 13 14  2  0
  4 15  2  0
 15 16  1  0
 16 17  1  0
 17 18  1  0
 18 19  1  0
 19 20  2  0
 20 21  1  0
 21 22  2  0
 22 23  1  0
 23 24  2  0
 24 25  1  0
 25 26  2  0
 26 27  1  0
 26 28  1  0
 28 29  2  0
 22 30  1  0
 30 31  1  0
 16  2  2  0
 30 19  1  0
 14  5  1  0
 29 23  1  0
 13  8  1  0
  1 32  1  0
  1 33  1  0
  1 34  1  0
  6 35  1  0
  7 36  1  0
  9 37  1  0
 10 38  1  0
 11 39  1  0
 12 40  1  0
 14 41  1  0
 17 42  1  0
 17 43  1  0
 24 44  1  0
 25 45  1  0
 28 46  1  0
 29 47  1  0
 31 48  1  0
 31 49  1  0
 31 50  1  0
M  END
>  <smiles>  (14) 
Cc1oc(-c2ccc3ccccc3c2)nc1CSc1nnc(-c2ccc(F)cc2)n1C

>  <score_type>  (14) 
oracle

>  <origin>  (14) 
adg

>  <m_score__min__energy>  (14) 
-9.8300000000000001

>  <m_primary>  (14) 
energy

$$$$
15:0
     RDKit          3D

 55 57  0  0  1  0  0  0  0  0999 V2000
   -8.3690   22.3990  -31.1650 C   0  0  0  0  0  0  0  0  0  0  0  0
   -7.2740   23.1450  -31.0770 O   0  0  0  0  0  0  0  0  0  0  0  0
   -6.8550   23.9120  -30.0920 C   0  0  0  0  0  0  0  0  0  0  0  0
   -5.4570   24.3860  -30.0080 C   0  0  0  0  0  0  0  0  0  0  0  0
   -4.4090   23.7590  -30.8460 C   0  0  0  0  0  0  0  0  0  0  0  0
   -4.0540   22.4590  -30.2540 N   0  0  0  0  0  0  0  0  0  0  0  0
   -2.5740   22.4020  -30.1310 C   0  0  0  0  0  0  0  0  0  0  0  0
   -1.9620   21.3230  -30.9430 C   0  0  0  0  0  0  0  0  0  0  0  0
   -1.8500   21.5980  -32.4260 C   0  0  0  0  0  0  0  0  0  0  0  0
   -3.0930   21.3810  -33.1910 C   0  0  1  0  0  0  0  0  0  0  0  0
   -3.3250   19.9680  -33.4180 N   0  0  0  0  0  0  0  0  0  0  0  0
   -4.3510   19.1030  -33.3050 C   0  0  0  0  0  0  0  0  0  0  0  0
   -5.7480   19.0630  -32.9110 C   0  0  0  0  0  0  0  0  0  0  0  0
   -6.2920   18.1700  -32.0220 C   0  0  0  0  0  0  0  0  0  0  0  0
   -7.6460   18.1850  -31.6870 C   0  0  0  0  0  0  0  0  0  0  0  0
   -8.4790   19.1360  -32.2690 C   0  0  0  0  0  0  0  0  0  0  0  0
   -9.7870   19.1310  -31.9250 F   0  0  0  0  0  0  0  0  0  0  0  0
   -7.9520   20.0500  -33.1710 C   0  0  0  0  0  0  0  0  0  0  0  0
   -6.6140   19.9930  -33.4670 C   0  0  0  0  0  0  0  0  0  0  0  0
   -3.5410   18.0520  -33.7640 C   0  0  0  0  0  0  0  0  0  0  0  0
   -3.7000   16.5990  -34.0230 C   0  0  0  0  0  0  0  0  0  0  0  0
   -2.5360   18.9730  -33.8590 N   0  0  0  0  0  0  0  0  0  0  0  0
   -1.1680   18.7970  -34.2880 C   0  0  0  0  0  0  0  0  0  0  0  0
   -4.3320   21.9250  -32.5310 C   0  0  0  0  0  0  0  0  0  0  0  0
   -4.4700   21.3760  -31.0970 C   0  0  0  0  0  0  0  0  0  0  0  0
   -8.7282   22.1543  -30.1545 H   0  0  0  0  0  0  0  0  0  0  0  0
   -9.1486   22.9546  -31.7067 H   0  0  0  0  0  0  0  0  0  0  0  0
   -8.1373   21.4701  -31.7067 H   0  0  0  0  0  0  0  0  0  0  0  0
   -7.4849   24.8135  -30.1145 H   0  0  0  0  0  0  0  0  0  0  0  0
   -6.9214   23.2347  -29.2278 H   0  0  0  0  0  0  0  0  0  0  0  0
   -5.4690   25.4560  -30.2630 H   0  0  0  0  0  0  0  0  0  0  0  0
   -5.1591   24.1121  -28.9851 H   0  0  0  0  0  0  0  0  0  0  0  0
   -4.7900   23.6102  -31.8671 H   0  0  0  0  0  0  0  0  0  0  0  0
   -3.5222   24.4084  -30.8893 H   0  0  0  0  0  0  0  0  0  0  0  0
   -2.1584   23.3658  -30.4600 H   0  0  0  0  0  0  0  0  0  0  0  0
   -2.3413   22.1902  -29.0770 H   0  0  0  0  0  0  0  0  0  0  0  0
   -0.9483   21.1428  -30.5557 H   0  0  0  0  0  0  0  0  0  0  0  0
   -2.6369   20.4594  -30.8495 H   0  0  0  0  0  0  0  0  0  0  0  0
   -1.5459   22.6469  -32.5576 H   0  0  0  0  0  0  0  0  0  0  0  0
   -1.1149   20.8805  -32.8194 H   0  0  0  0  0  0  0  0  0  0  0  0
   -2.9279   21.9285  -34.1307 H   0  0  0  0  0  0  0  0  0  0  0  0
   -5.6381   17.4170  -31.5579 H   0  0  0  0  0  0  0  0  0  0  0  0
   -8.0505   17.4540  -30.9714 H   0  0  0  0  0  0  0  0  0  0  0  0
   -8.5968   20.8075  -33.6406 H   0  0  0  0  0  0  0  0  0  0  0  0
   -6.2066   20.7226  -34.1824 H   0  0  0  0  0  0  0  0  0  0  0  0
   -3.7590   16.0602  -33.0658 H   0  0  0  0  0  0  0  0  0  0  0  0
   -4.6222   16.4277  -34.5976 H   0  0  0  0  0  0  0  0  0  0  0  0
   -2.8366   16.2323  -34.5976 H   0  0  0  0  0  0  0  0  0  0  0  0
   -0.5152   18.7130  -33.4066 H   0  0  0  0  0  0  0  0  0  0  0  0
   -1.0881   17.8812  -34.8920 H   0  0  0  0  0  0  0  0  0  0  0  0
   -0.8589   19.6628  -34.8920 H   0  0  0  0  0  0  0  0  0  0  0  0
   -4.2690   23.0225  -32.4932 H   0  0  0  0  0  0  0  0  0  0  0  0
   -5.2103   21.6136  -33.1154 H   0  0  0  0  0  0  0  0  0  0  0  0
   -5.5133   21.0983  -30.8861 H   0  0  0  0  0  0  0  0  0  0  0  0
   -3.8690   20.4686  -30.9378 H   0  0  0  0  0  0  0  0  0  0  0  0
  1  2  1  0
  2  3  1  0
  3  4  1  0
  4  5  1  0
  5  6  1  0
  6  7  1  0
  7  8  1  0
  8  9  1  0
  9 10  1  0
 10 11  1  0
 11 12  1  0
 12 13  1  0
 13 14  2  0
 14 15  1  0
 15 16  2  0
 16 17  1  0
 16 18  1  0
 18 19  2  0
 12 20  2  0
 20 21  1  0
 20 22  1  0
 22 23  1  0
 10 24  1  0
 24 25  1  0
 25  6  1  0
 22 11  1  0
 19 13  1  0
  1 26  1  0
  1 27  1  0
  1 28  1  0
  3 29  1  0
  3 30  1  0
  4 31  1  0
  4 32  1  0
  5 33  1  0
  5 34  1  0
  7 35  1  0
  7 36  1  0
  8 37  1  0
  8 38  1  0
  9 39  1  0
  9 40  1  0
 10 41  1  6
 14 42  1  0
 15 43  1  0
 18 44  1  0
 19 45  1  0
 21 46  1  0
 21 47  1  0
 21 48  1  0
 23 49  1  0
 23 50  1  0
 23 51  1  0
 24 52  1  0
 24 53  1  0
 25 54  1  0
 25 55  1  0
M  END
>  <smiles>  (15) 
COCCCN1CCCC(n2c(-c3ccc(F)cc3)c(C)n2C)CC1

>  <score_type>  (15) 
oracle

>  <origin>  (15) 
adg

>  <m_score__min__energy>  (15) 
-6.5999999999999996

>  <m_primary>  (15) 
energy

$$$$
16:0
     RDKit          3D

 57 60  0  0  0  0  0  0  0  0999 V2000
   -2.9020   20.4510  -27.9610 C   0  0  0  0  0  0  0  0  0  0  0  0
   -2.1070   20.5510  -29.1720 N   0  0  0  0  0  0  0  0  0  0  0  0
   -0.9570   19.7140  -29.0330 C   0  0  0  0  0  0  0  0  0  0  0  0
    0.1970   20.2780  -29.7910 C   0  0  0  0  0  0  0  0  0  0  0  0
   -0.2230   20.9830  -30.9590 N   0  0  0  0  0  0  0  0  0  0  0  0
   -1.0480   20.2600  -31.8680 C   0  0  0  0  0  0  0  0  0  0  0  0
   -1.5520   21.0880  -33.0440 C   0  0  0  0  0  0  0  0  0  0  0  0
   -3.0570   21.0290  -33.0730 C   0  0  0  0  0  0  0  0  0  0  0  0
   -3.6860   20.6380  -31.8310 N   0  0  0  0  0  0  0  0  0  0  0  0
   -5.0980   20.9230  -31.7160 C   0  0  0  0  0  0  0  0  0  0  0  0
   -6.0660   19.9990  -32.0290 C   0  0  0  0  0  0  0  0  0  0  0  0
   -5.6900   18.7800  -32.5530 C   0  0  0  0  0  0  0  0  0  0  0  0
   -6.6510   17.8500  -32.8880 C   0  0  0  0  0  0  0  0  0  0  0  0
   -7.9750   18.1630  -32.6950 C   0  0  0  0  0  0  0  0  0  0  0  0
   -8.3320   19.3990  -32.1660 C   0  0  0  0  0  0  0  0  0  0  0  0
   -7.3770   20.3510  -31.8200 C   0  0  0  0  0  0  0  0  0  0  0  0
   -7.7480   21.5680  -31.3220 N   0  0  0  0  0  0  0  0  0  0  0  0
   -9.1460   21.8400  -31.1270 C   0  0  0  0  0  0  0  0  0  0  0  0
   -6.7590   22.4320  -31.0370 C   0  0  0  0  0  0  0  0  0  0  0  0
   -7.0720   23.6900  -30.5370 C   0  0  0  0  0  0  0  0  0  0  0  0
   -6.0720   24.5960  -30.2430 C   0  0  0  0  0  0  0  0  0  0  0  0
   -4.7520   24.3190  -30.4230 C   0  0  0  0  0  0  0  0  0  0  0  0
   -3.7770   25.2970  -30.0980 N   0  0  0  0  0  0  0  0  0  0  0  0
   -4.4130   23.0610  -30.9250 C   0  0  0  0  0  0  0  0  0  0  0  0
   -5.4210   22.1640  -31.2130 C   0  0  0  0  0  0  0  0  0  0  0  0
   -0.9190   22.1870  -30.5590 C   0  0  0  0  0  0  0  0  0  0  0  0
   -1.8490   21.9370  -29.3950 C   0  0  0  0  0  0  0  0  0  0  0  0
   -2.2446   20.5337  -27.0829 H   0  0  0  0  0  0  0  0  0  0  0  0
   -3.6439   21.2629  -27.9413 H   0  0  0  0  0  0  0  0  0  0  0  0
   -3.4197   19.4807  -27.9413 H   0  0  0  0  0  0  0  0  0  0  0  0
   -0.6894   19.6410  -27.9685 H   0  0  0  0  0  0  0  0  0  0  0  0
   -1.1927   18.7176  -29.4351 H   0  0  0  0  0  0  0  0  0  0  0  0
    0.7470   20.9705  -29.1369 H   0  0  0  0  0  0  0  0  0  0  0  0
    0.8349   19.4409  -30.1107 H   0  0  0  0  0  0  0  0  0  0  0  0
   -0.4667   19.4146  -32.2647 H   0  0  0  0  0  0  0  0  0  0  0  0
   -1.9354   19.9376  -31.3035 H   0  0  0  0  0  0  0  0  0  0  0  0
   -1.2256   22.1320  -32.9274 H   0  0  0  0  0  0  0  0  0  0  0  0
   -1.1451   20.6866  -33.9839 H   0  0  0  0  0  0  0  0  0  0  0  0
   -3.4307   22.0277  -33.3431 H   0  0  0  0  0  0  0  0  0  0  0  0
   -3.3159   20.2480  -33.8031 H   0  0  0  0  0  0  0  0  0  0  0  0
   -3.1880   20.1760  -31.0400 H   0  0  0  0  0  0  0  0  0  0  0  0
   -4.6249   18.5501  -32.7034 H   0  0  0  0  0  0  0  0  0  0  0  0
   -6.3625   16.8731  -33.3031 H   0  0  0  0  0  0  0  0  0  0  0  0
   -8.7550   17.4339  -32.9596 H   0  0  0  0  0  0  0  0  0  0  0  0
   -9.3971   19.6303  -32.0171 H   0  0  0  0  0  0  0  0  0  0  0  0
   -9.3645   21.8825  -30.0498 H   0  0  0  0  0  0  0  0  0  0  0  0
   -9.4001   22.8044  -31.5910 H   0  0  0  0  0  0  0  0  0  0  0  0
   -9.7432   21.0412  -31.5910 H   0  0  0  0  0  0  0  0  0  0  0  0
   -8.1242   23.9664  -30.3741 H   0  0  0  0  0  0  0  0  0  0  0  0
   -6.3543   25.5826  -29.8468 H   0  0  0  0  0  0  0  0  0  0  0  0
   -3.6920   25.6650  -29.1180 H   0  0  0  0  0  0  0  0  0  0  0  0
   -3.1060   25.6880  -30.8240 H   0  0  0  0  0  0  0  0  0  0  0  0
   -3.3596   22.7895  -31.0882 H   0  0  0  0  0  0  0  0  0  0  0  0
   -0.1784   22.9459  -30.2664 H   0  0  0  0  0  0  0  0  0  0  0  0
   -1.5230   22.5319  -31.4112 H   0  0  0  0  0  0  0  0  0  0  0  0
   -1.3942   22.3590  -28.4867 H   0  0  0  0  0  0  0  0  0  0  0  0
   -2.8102   22.4151  -29.6347 H   0  0  0  0  0  0  0  0  0  0  0  0
  1  2  1  0
  2  3  1  0
  3  4  1  0
  4  5  1  0
  5  6  1  0
  6  7  1  0
  7  8  1  0
  8  9  1  0
  9 10  1  0
 10 11  1  0
 11 12  2  0
 12 13  1  0
 13 14  2  0
 14 15  1  0
 15 16  2  0
 16 17  1  0
 17 18  1  0
 17 19  2  0
 19 20  1  0
 20 21  2  0
 21 22  1  0
 22 23  1  0
 22 24  2  0
 24 25  1  0
  5 26  1  0
 26 27  1  0
 27  2  1  0
 25 10  2  0
 16 11  1  0
 25 19  1  0
  1 28  1  0
  1 29  1  0
  1 30  1  0
  3 31  1  0
  3 32  1  0
  4 33  1  0
  4 34  1  0
  6 35  1  0
  6 36  1  0
  7 37  1  0
  7 38  1  0
  8 39  1  0
  8 40  1  0
  9 41  1  0
 12 42  1  0
 13 43  1  0
 14 44  1  0
 15 45  1  0
 18 46  1  0
 18 47  1  0
 18 48  1  0
 20 49  1  0
 21 50  1  0
 23 51  1  0
 23 52  1  0
 24 53  1  0
 26 54  1  0
 26 55  1  0
 27 56  1  0
 27 57  1  0
M  CHG  1  17   1
M  END
>  <smiles>  (16) 
CN1CCN(CCCNc2c3ccccc3[n+](C)c3ccc(N)cc23)CC1

>  <score_type>  (16) 
oracle

>  <origin>  (16) 
adg

>  <m_score__min__energy>  (16) 
-8.8000000000000007

>  <m_primary>  (16) 
energy

$$$$
17:0
     RDKit          3D

 70 74  0  0  0  0  0  0  0  0999 V2000
   -5.6880   25.5960  -30.4640 C   0  0  0  0  0  0  0  0  0  0  0  0
   -6.2700   24.3780  -29.7330 C   0  0  0  0  0  0  0  0  0  0  0  0
   -5.4620   23.2650  -30.1190 N   0  0  0  0  0  0  0  0  0  0  0  0
   -4.3340   23.6730  -30.9640 C   0  0  0  0  0  0  0  0  0  0  0  0
   -3.9040   22.4960  -31.7750 C   0  0  0  0  0  0  0  0  0  0  0  0
   -4.7290   22.2180  -32.9650 N   0  0  0  0  0  0  0  0  0  0  0  0
   -5.6120   21.1370  -32.8840 C   0  0  0  0  0  0  0  0  0  0  0  0
   -6.9180   21.4570  -32.4740 C   0  0  0  0  0  0  0  0  0  0  0  0
   -7.3010   22.7750  -32.3370 C   0  0  0  0  0  0  0  0  0  0  0  0
   -8.5640   23.1790  -31.9670 C   0  0  0  0  0  0  0  0  0  0  0  0
   -9.4990   22.2030  -31.7210 C   0  0  0  0  0  0  0  0  0  0  0  0
   -9.1330   20.8810  -31.8550 C   0  0  0  0  0  0  0  0  0  0  0  0
   -7.8540   20.4880  -32.2310 C   0  0  0  0  0  0  0  0  0  0  0  0
   -7.5550   19.1570  -32.3780 N   0  0  0  0  0  0  0  0  0  0  0  0
   -8.6180   18.2550  -32.0790 C   0  0  0  0  0  0  0  0  0  0  0  0
   -6.3170   18.8350  -32.7730 C   0  0  0  0  0  0  0  0  0  0  0  0
   -6.0380   17.4950  -32.9270 C   0  0  0  0  0  0  0  0  0  0  0  0
   -4.7800   17.1190  -33.3400 C   0  0  0  0  0  0  0  0  0  0  0  0
   -3.8360   18.0870  -33.5930 C   0  0  0  0  0  0  0  0  0  0  0  0
   -4.0710   19.4460  -33.4550 C   0  0  0  0  0  0  0  0  0  0  0  0
   -3.0390   20.3210  -33.8330 N   0  0  0  0  0  0  0  0  0  0  0  0
   -1.6230   19.9290  -33.6510 C   0  0  0  0  0  0  0  0  0  0  0  0
   -0.8030   21.0800  -33.1740 C   0  0  0  0  0  0  0  0  0  0  0  0
   -0.1630   20.8010  -31.8440 C   0  0  0  0  0  0  0  0  0  0  0  0
   -0.9820   21.2480  -30.7340 N   0  0  0  0  0  0  0  0  0  0  0  0
   -1.8640   20.4150  -30.1200 C   0  0  0  0  0  0  0  0  0  0  0  0
   -2.6420   20.8550  -29.0580 C   0  0  0  0  0  0  0  0  0  0  0  0
   -2.5240   22.1560  -28.6140 C   0  0  0  0  0  0  0  0  0  0  0  0
   -3.2740   22.6510  -27.5610 C   0  0  0  0  0  0  0  0  0  0  0  0
   -3.1290   23.9500  -27.1480 C   0  0  0  0  0  0  0  0  0  0  0  0
   -2.2310   24.8310  -27.7580 C   0  0  0  0  0  0  0  0  0  0  0  0
   -1.4940   24.3070  -28.8110 C   0  0  0  0  0  0  0  0  0  0  0  0
   -1.6330   23.0010  -29.2330 C   0  0  0  0  0  0  0  0  0  0  0  0
   -0.8740   22.5280  -30.2880 C   0  0  0  0  0  0  0  0  0  0  0  0
   -5.3300   19.8090  -33.0340 C   0  0  0  0  0  0  0  0  0  0  0  0
   -5.3361   26.3325  -29.7266 H   0  0  0  0  0  0  0  0  0  0  0  0
   -4.8451   25.2769  -31.0946 H   0  0  0  0  0  0  0  0  0  0  0  0
   -6.4658   26.0514  -31.0946 H   0  0  0  0  0  0  0  0  0  0  0  0
   -6.2214   24.5264  -28.6441 H   0  0  0  0  0  0  0  0  0  0  0  0
   -7.3268   24.2186  -29.9932 H   0  0  0  0  0  0  0  0  0  0  0  0
   -5.0220   22.8810  -29.2390 H   0  0  0  0  0  0  0  0  0  0  0  0
   -4.6459   24.4901  -31.6312 H   0  0  0  0  0  0  0  0  0  0  0  0
   -3.5009   24.0260  -30.3384 H   0  0  0  0  0  0  0  0  0  0  0  0
   -2.8715   22.6730  -32.1106 H   0  0  0  0  0  0  0  0  0  0  0  0
   -4.0089   21.6190  -31.1194 H   0  0  0  0  0  0  0  0  0  0  0  0
   -4.6650   22.8480  -33.8220 H   0  0  0  0  0  0  0  0  0  0  0  0
   -6.5493   23.5530  -32.5361 H   0  0  0  0  0  0  0  0  0  0  0  0
   -8.8156   24.2456  -31.8717 H   0  0  0  0  0  0  0  0  0  0  0  0
  -10.5228   22.4722  -31.4220 H   0  0  0  0  0  0  0  0  0  0  0  0
   -9.8854   20.1037  -31.6558 H   0  0  0  0  0  0  0  0  0  0  0  0
   -8.7255   18.1638  -30.9881 H   0  0  0  0  0  0  0  0  0  0  0  0
   -9.5554   18.6375  -32.5091 H   0  0  0  0  0  0  0  0  0  0  0  0
   -8.3932   17.2679  -32.5091 H   0  0  0  0  0  0  0  0  0  0  0  0
   -6.8087   16.7370  -32.7231 H   0  0  0  0  0  0  0  0  0  0  0  0
   -4.5319   16.0548  -33.4665 H   0  0  0  0  0  0  0  0  0  0  0  0
   -2.8378   17.7642  -33.9237 H   0  0  0  0  0  0  0  0  0  0  0  0
   -3.1020   21.2440  -34.2840 H   0  0  0  0  0  0  0  0  0  0  0  0
   -1.5675   19.1174  -32.9106 H   0  0  0  0  0  0  0  0  0  0  0  0
   -1.2257   19.5960  -34.6212 H   0  0  0  0  0  0  0  0  0  0  0  0
   -0.0136   21.2840  -33.9124 H   0  0  0  0  0  0  0  0  0  0  0  0
   -1.4699   21.9467  -33.0554 H   0  0  0  0  0  0  0  0  0  0  0  0
   -0.0010   19.7171  -31.7499 H   0  0  0  0  0  0  0  0  0  0  0  0
    0.7869   21.3543  -31.8052 H   0  0  0  0  0  0  0  0  0  0  0  0
   -1.9625   19.3769  -30.4701 H   0  0  0  0  0  0  0  0  0  0  0  0
   -3.3506   20.1684  -28.5718 H   0  0  0  0  0  0  0  0  0  0  0  0
   -3.9941   21.9948  -27.0502 H   0  0  0  0  0  0  0  0  0  0  0  0
   -3.7401   24.3116  -26.3079 H   0  0  0  0  0  0  0  0  0  0  0  0
   -2.1159   25.8729  -27.4247 H   0  0  0  0  0  0  0  0  0  0  0  0
   -0.7727   24.9569  -29.3280 H   0  0  0  0  0  0  0  0  0  0  0  0
   -0.1624   23.2069  -30.7806 H   0  0  0  0  0  0  0  0  0  0  0  0
  1  2  1  0
  2  3  1  0
  3  4  1  0
  4  5  1  0
  5  6  1  0
  6  7  1  0
  7  8  2  0
  8  9  1  0
  9 10  2  0
 10 11  1  0
 11 12  2  0
 12 13  1  0
 13 14  2  0
 14 15  1  0
 14 16  1  0
 16 17  2  0
 17 18  1  0
 18 19  2  0
 19 20  1  0
 20 21  1  0
 21 22  1  0
 22 23  1  0
 23 24  1  0
 24 25  1  0
 25 26  2  0
 26 27  1  0
 27 28  2  0
 28 29  1  0
 29 30  2  0
 30 31  1  0
 31 32  2  0
 32 33  1  0
 33 34  2  0
 20 35  2  0
 35  7  1  0
 13  8  1  0
 35 16  1  0
 34 25  1  0
 33 28  1  0
  1 36  1  0
  1 37  1  0
  1 38  1  0
  2 39  1  0
  2 40  1  0
  3 41  1  0
  4 42  1  0
  4 43  1  0
  5 44  1  0
  5 45  1  0
  6 46  1  0
  9 47  1  0
 10 48  1  0
 11 49  1  0
 12 50  1  0
 15 51  1  0
 15 52  1  0
 15 53  1  0
 17 54  1  0
 18 55  1  0
 19 56  1  0
 21 57  1  0
 22 58  1  0
 22 59  1  0
 23 60  1  0
 23 61  1  0
 24 62  1  0
 24 63  1  0
 26 64  1  0
 27 65  1  0
 29 66  1  0
 30 67  1  0
 31 68  1  0
 32 69  1  0
 34 70  1  0
M  CHG  2  14   1  25   1
M  END
>  <smiles>  (17) 
CCNCCNc1c2ccccc2[n+](C)c2cccc(NCCC[n+]3ccc4ccccc4c3)c12

>  <score_type>  (17) 
oracle

>  <origin>  (17) 
adg

>  <m_score__min__energy>  (17) 
-10.539999999999999

>  <m_primary>  (17) 
energy

$$$$
