0:0
     RDKit          3D

 42 44  0  0  0  0  0  0  0  0999 V2000
   -3.5360   24.5370  -26.7150 C   0  0  0  0  0  0  0  0  0  0  0  0
   -2.6370   24.9140  -27.8920 C   0  0  0  0  0  0  0  0  0  0  0  0
   -2.7470   23.9160  -28.9850 N   0  0  0  0  0  0  0  0  0  0  0  0
   -1.6830   23.0700  -29.2580 C   0  0  0  0  0  0  0  0  0  0  0  0
   -0.3660   23.1090  -28.4920 C   0  0  0  0  0  0  0  0  0  0  0  0
    0.2680   24.4380  -28.5410 N   0  0  0  0  0  0  0  0  0  0  0  0
    1.2040   24.6450  -27.4280 C   0  0  0  0  0  0  0  0  0  0  0  0
    0.4820   25.2900  -26.2780 C   0  0  0  0  0  0  0  0  0  0  0  0
   -0.2460   26.4730  -26.4670 C   0  0  0  0  0  0  0  0  0  0  0  0
   -0.8810   27.0810  -25.3840 C   0  0  0  0  0  0  0  0  0  0  0  0
   -0.7720   26.5070  -24.1160 C   0  0  0  0  0  0  0  0  0  0  0  0
   -0.0480   25.3680  -23.9400 N   0  0  0  0  0  0  0  0  0  0  0  0
    0.5790   24.7570  -24.9830 C   0  0  0  0  0  0  0  0  0  0  0  0
   -1.7730   22.1340  -30.2960 C   0  0  0  0  0  0  0  0  0  0  0  0
   -2.9230   22.0320  -31.0590 C   0  0  0  0  0  0  0  0  0  0  0  0
   -2.9650   21.1880  -31.9960 O   0  0  0  0  0  0  0  0  0  0  0  0
   -4.0170   22.8570  -30.7780 C   0  0  0  0  0  0  0  0  0  0  0  0
   -5.2020   22.7500  -31.5340 C   0  0  0  0  0  0  0  0  0  0  0  0
   -6.3050   23.5490  -31.2410 C   0  0  0  0  0  0  0  0  0  0  0  0
   -7.7740   23.4010  -32.1880 Cl  0  0  0  0  0  0  0  0  0  0  0  0
   -6.2430   24.4560  -30.1890 C   0  0  0  0  0  0  0  0  0  0  0  0
   -5.0780   24.5810  -29.4300 C   0  0  0  0  0  0  0  0  0  0  0  0
   -3.9270   23.7970  -29.7130 C   0  0  0  0  0  0  0  0  0  0  0  0
   -3.0151   24.7554  -25.7711 H   0  0  0  0  0  0  0  0  0  0  0  0
   -4.4673   25.1204  -26.7634 H   0  0  0  0  0  0  0  0  0  0  0  0
   -3.7726   23.4638  -26.7634 H   0  0  0  0  0  0  0  0  0  0  0  0
   -2.9387   25.9006  -28.2737 H   0  0  0  0  0  0  0  0  0  0  0  0
   -1.5941   24.9388  -27.5431 H   0  0  0  0  0  0  0  0  0  0  0  0
   -0.5596   22.8476  -27.4412 H   0  0  0  0  0  0  0  0  0  0  0  0
    0.3201   22.3903  -28.9639 H   0  0  0  0  0  0  0  0  0  0  0  0
    0.7950   24.5470  -29.4380 H   0  0  0  0  0  0  0  0  0  0  0  0
    1.6119   23.6752  -27.1070 H   0  0  0  0  0  0  0  0  0  0  0  0
    2.0256   25.2981  -27.7571 H   0  0  0  0  0  0  0  0  0  0  0  0
   -0.3165   26.9216  -27.4689 H   0  0  0  0  0  0  0  0  0  0  0  0
   -1.4621   28.0039  -25.5276 H   0  0  0  0  0  0  0  0  0  0  0  0
   -1.2728   26.9767  -23.2566 H   0  0  0  0  0  0  0  0  0  0  0  0
    0.0300   24.9540  -22.9850 H   0  0  0  0  0  0  0  0  0  0  0  0
    1.1641   23.8417  -24.8100 H   0  0  0  0  0  0  0  0  0  0  0  0
   -0.9199   21.4725  -30.5071 H   0  0  0  0  0  0  0  0  0  0  0  0
   -5.2563   22.0290  -32.3629 H   0  0  0  0  0  0  0  0  0  0  0  0
   -7.1180   25.0794  -29.9531 H   0  0  0  0  0  0  0  0  0  0  0  0
   -5.0505   25.2996  -28.5976 H   0  0  0  0  0  0  0  0  0  0  0  0
  1  2  1  0
  2  3  1  0
  3  4  1  0
  4  5  1  0
  5  6  1  0
  6  7  1  0
  7  8  1  0
  8  9  2  0
  9 10  1  0
 10 11  2  0
 11 12  1  0
 12 13  2  0
  4 14  2  0
 14 15  1  0
 15 16  2  0
 15 17  1  0
 17 18  2  0
 18 19  1  0
 19 20  1  0
 19 21  2  0
 21 22  1  0
 22 23  2  0
 23  3  1  0
 13  8  1  0
 23 17  1  0
  1 24  1  0
  1 25  1  0
  1 26  1  0
  2 27  1  0
  2 28  1  0
  5 29  1  0
  5 30  1  0
  6 31  1  0
  7 32  1  0
  7 33  1  0
  9 34  1  0
 10 35  1  0
 11 36  1  0
 12 37  1  0
 13 38  1  0
 14 39  1  0
 18 40  1  0
 21 41  1  0
 22 42  1  0
M  CHG  1  12   1
M  END
>  <UniqueID>  (1) 
1

>  <SMILES>  (1) 
CCn1c(CNCc2ccc[nH+]c2)cc(=O)c2cc(Cl)ccc21

>  <Energy>  (1) 
56.316424178982714

>  <Genealogy>  (1) 
CCn1c(CNCc2ccc[nH+]c2)cc(=O)c2cc(Cl)ccc21 (protonated)
CCn1c(CNCc2ccc[nH+]c2)cc(=O)c2cc(Cl)ccc21 (3D coordinates assigned)
CCn1c(CNCc2ccc[nH+]c2)cc(=O)c2cc(Cl)ccc21 (optimized conformer: 56.316424178982714 kcal/mol)

>  <smiles>  (1) 
CCn1c(CNCc2cccnc2)cc(=O)c2cc(Cl)ccc21

>  <score_type>  (1) 
oracle

>  <origin>  (1) 
adg

>  <m_score__min__energy>  (1) 
-8.4100000000000001

>  <m_primary>  (1) 
energy

$$$$
1:0
     RDKit          3D

 50 52  0  0  0  0  0  0  0  0999 V2000
   -3.0160   16.8080  -34.9690 C   0  0  0  0  0  0  0  0  0  0  0  0
   -3.6550   17.9550  -34.2410 C   0  0  0  0  0  0  0  0  0  0  0  0
   -2.9130   19.0810  -33.9480 C   0  0  0  0  0  0  0  0  0  0  0  0
   -3.5060   20.1900  -33.3320 C   0  0  0  0  0  0  0  0  0  0  0  0
   -2.5740   21.3120  -32.9300 C   0  0  0  0  0  0  0  0  0  0  0  0
   -4.9180   20.1990  -33.0820 C   0  0  0  0  0  0  0  0  0  0  0  0
   -5.6310   21.3510  -32.6570 C   0  0  0  0  0  0  0  0  0  0  0  0
   -5.0110   22.6400  -32.6130 N   0  0  0  0  0  0  0  0  0  0  0  0
   -4.3810   23.0950  -31.3740 C   0  0  0  0  0  0  0  0  0  0  0  0
   -5.2550   22.7580  -30.1510 C   0  0  0  0  0  0  0  0  0  0  0  0
   -5.4140   23.9280  -29.2420 N   0  0  0  0  0  0  0  0  0  0  0  0
   -4.1930   24.1380  -28.4380 C   0  0  0  0  0  0  0  0  0  0  0  0
   -5.7030   25.1490  -30.0160 C   0  0  0  0  0  0  0  0  0  0  0  0
   -7.0090   21.2600  -32.3820 C   0  0  0  0  0  0  0  0  0  0  0  0
   -7.7440   22.3960  -31.9660 C   0  0  0  0  0  0  0  0  0  0  0  0
   -9.1170   22.3200  -31.7470 C   0  0  0  0  0  0  0  0  0  0  0  0
   -9.7860   21.1210  -31.9500 C   0  0  0  0  0  0  0  0  0  0  0  0
   -9.0820   19.9840  -32.3440 C   0  0  0  0  0  0  0  0  0  0  0  0
   -7.6760   20.0180  -32.5300 C   0  0  0  0  0  0  0  0  0  0  0  0
   -6.9660   18.8920  -32.8650 N   0  0  0  0  0  0  0  0  0  0  0  0
   -7.6060   17.5610  -32.7480 C   0  0  0  0  0  0  0  0  0  0  0  0
   -5.6500   18.9940  -33.2730 C   0  0  0  0  0  0  0  0  0  0  0  0
   -5.0100   17.9110  -33.9130 C   0  0  0  0  0  0  0  0  0  0  0  0
   -2.6152   16.0885  -34.2398 H   0  0  0  0  0  0  0  0  0  0  0  0
   -3.7669   16.3104  -35.6003 H   0  0  0  0  0  0  0  0  0  0  0  0
   -2.1977   17.1846  -35.6003 H   0  0  0  0  0  0  0  0  0  0  0  0
   -1.8429   19.1077  -34.2014 H   0  0  0  0  0  0  0  0  0  0  0  0
   -2.5242   21.3719  -31.8328 H   0  0  0  0  0  0  0  0  0  0  0  0
   -1.5692   21.1160  -33.3325 H   0  0  0  0  0  0  0  0  0  0  0  0
   -2.9510   22.2638  -33.3325 H   0  0  0  0  0  0  0  0  0  0  0  0
   -4.6580   23.0250  -33.5160 H   0  0  0  0  0  0  0  0  0  0  0  0
   -3.4045   22.6005  -31.2649 H   0  0  0  0  0  0  0  0  0  0  0  0
   -4.2580   24.1869  -31.4252 H   0  0  0  0  0  0  0  0  0  0  0  0
   -6.2489   22.4416  -30.5005 H   0  0  0  0  0  0  0  0  0  0  0  0
   -4.7580   21.9542  -29.5881 H   0  0  0  0  0  0  0  0  0  0  0  0
   -6.2210   23.7710  -28.5920 H   0  0  0  0  0  0  0  0  0  0  0  0
   -4.4463   24.0944  -27.3684 H   0  0  0  0  0  0  0  0  0  0  0  0
   -3.4594   23.3528  -28.6734 H   0  0  0  0  0  0  0  0  0  0  0  0
   -3.7639   25.1231  -28.6734 H   0  0  0  0  0  0  0  0  0  0  0  0
   -5.9003   25.9825  -29.3258 H   0  0  0  0  0  0  0  0  0  0  0  0
   -4.8382   25.3946  -30.6498 H   0  0  0  0  0  0  0  0  0  0  0  0
   -6.5862   24.9809  -30.6498 H   0  0  0  0  0  0  0  0  0  0  0  0
   -7.2229   23.3527  -31.8135 H   0  0  0  0  0  0  0  0  0  0  0  0
   -9.6711   23.2097  -31.4133 H   0  0  0  0  0  0  0  0  0  0  0  0
  -10.8744   21.0677  -31.7996 H   0  0  0  0  0  0  0  0  0  0  0  0
   -9.6266   19.0435  -32.5137 H   0  0  0  0  0  0  0  0  0  0  0  0
   -7.7289   17.3054  -31.6852 H   0  0  0  0  0  0  0  0  0  0  0  0
   -8.5916   17.5839  -33.2360 H   0  0  0  0  0  0  0  0  0  0  0  0
   -6.9727   16.8055  -33.2360 H   0  0  0  0  0  0  0  0  0  0  0  0
   -5.5933   17.0114  -34.1588 H   0  0  0  0  0  0  0  0  0  0  0  0
  1  2  1  0
  2  3  2  0
  3  4  1  0
  4  5  1  0
  4  6  2  0
  6  7  1  0
  7  8  1  0
  8  9  1  0
  9 10  1  0
 10 11  1  0
 11 12  1  0
 11 13  1  0
  7 14  2  0
 14 15  1  0
 15 16  2  0
 16 17  1  0
 17 18  2  0
 18 19  1  0
 19 20  2  0
 20 21  1  0
 20 22  1  0
 22 23  2  0
 23  2  1  0
 22  6  1  0
 19 14  1  0
  1 24  1  0
  1 25  1  0
  1 26  1  0
  3 27  1  0
  5 28  1  0
  5 29  1  0
  5 30  1  0
  8 31  1  0
  9 32  1  0
  9 33  1  0
 10 34  1  0
 10 35  1  0
 11 36  1  0
 12 37  1  0
 12 38  1  0
 12 39  1  0
 13 40  1  0
 13 41  1  0
 13 42  1  0
 15 43  1  0
 16 44  1  0
 17 45  1  0
 18 46  1  0
 21 47  1  0
 21 48  1  0
 21 49  1  0
 23 50  1  0
M  CHG  2  11   1  20   1
M  END
>  <UniqueID>  (2) 
2

>  <SMILES>  (2) 
Cc1cc(C)c2c(NCC[NH+](C)C)c3ccccc3[n+](C)c2c1

>  <Energy>  (2) 
86.78916605955669

>  <Genealogy>  (2) 
Cc1cc(C)c2c(NCC[NH+](C)C)c3ccccc3[n+](C)c2c1 (protonated)
Cc1cc(C)c2c(NCC[NH+](C)C)c3ccccc3[n+](C)c2c1 (3D coordinates assigned)
Cc1cc(C)c2c(NCC[NH+](C)C)c3ccccc3[n+](C)c2c1 (optimized conformer: 86.78916605955669 kcal/mol)

>  <smiles>  (2) 
Cc1cc(C)c2c(NCCN(C)C)c3ccccc3[n+](C)c2c1

>  <score_type>  (2) 
oracle

>  <origin>  (2) 
adg

>  <m_score__min__energy>  (2) 
-7.3099999999999996

>  <m_primary>  (2) 
energy

$$$$
2:0
     RDKit          3D

 62 65  0  0  0  0  0  0  0  0999 V2000
   -1.9040   23.0330  -29.8430 C   0  0  0  0  0  0  0  0  0  0  0  0
   -0.9150   22.0720  -30.5070 C   0  0  0  0  0  0  0  0  0  0  0  0
   -1.3110   20.6450  -30.4450 N   0  0  0  0  0  0  0  0  0  0  0  0
   -1.1240   20.0100  -29.1180 C   0  0  0  0  0  0  0  0  0  0  0  0
   -2.2920   20.2180  -28.1390 C   0  0  0  0  0  0  0  0  0  0  0  0
   -0.9150   19.8120  -31.6030 C   0  0  0  0  0  0  0  0  0  0  0  0
   -0.4300   20.6700  -32.7790 C   0  0  0  0  0  0  0  0  0  0  0  0
   -1.5490   21.0380  -33.6510 N   0  0  0  0  0  0  0  0  0  0  0  0
   -2.9340   21.0950  -33.2330 C   0  0  0  0  0  0  0  0  0  0  0  0
   -3.4760   22.2900  -32.7430 C   0  0  0  0  0  0  0  0  0  0  0  0
   -4.8180   22.3770  -32.3900 C   0  0  0  0  0  0  0  0  0  0  0  0
   -5.6750   21.2640  -32.5100 C   0  0  0  0  0  0  0  0  0  0  0  0
   -5.1280   20.0320  -32.9390 C   0  0  0  0  0  0  0  0  0  0  0  0
   -3.7630   19.9500  -33.3220 C   0  0  0  0  0  0  0  0  0  0  0  0
   -3.1930   18.6490  -33.8450 C   0  0  0  0  0  0  0  0  0  0  0  0
   -4.1470   17.4580  -33.6800 C   0  0  0  0  0  0  0  0  0  0  0  0
   -5.5680   17.8070  -33.9400 N   0  0  0  0  0  0  0  0  0  0  0  0
   -6.3590   16.5540  -33.8530 C   0  0  0  0  0  0  0  0  0  0  0  0
   -5.7450   18.3090  -35.3320 C   0  0  0  0  0  0  0  0  0  0  0  0
   -5.9570   18.8830  -33.0050 C   0  0  0  0  0  0  0  0  0  0  0  0
   -7.1800   18.9270  -32.3610 N   0  0  0  0  0  0  0  0  0  0  0  0
   -7.6410   17.7910  -31.5370 C   0  0  0  0  0  0  0  0  0  0  0  0
   -7.8090   20.1360  -32.1820 C   0  0  0  0  0  0  0  0  0  0  0  0
   -9.1940   20.1930  -31.9000 C   0  0  0  0  0  0  0  0  0  0  0  0
   -9.8320   21.4140  -31.6970 C   0  0  0  0  0  0  0  0  0  0  0  0
   -9.1110   22.5990  -31.7750 C   0  0  0  0  0  0  0  0  0  0  0  0
   -7.7440   22.5720  -32.0530 C   0  0  0  0  0  0  0  0  0  0  0  0
   -7.0660   21.3430  -32.2520 C   0  0  0  0  0  0  0  0  0  0  0  0
   -1.8182   22.9497  -28.7495 H   0  0  0  0  0  0  0  0  0  0  0  0
   -1.6764   24.0641  -30.1511 H   0  0  0  0  0  0  0  0  0  0  0  0
   -2.9282   22.7759  -30.1511 H   0  0  0  0  0  0  0  0  0  0  0  0
   -0.8173   22.3561  -31.5652 H   0  0  0  0  0  0  0  0  0  0  0  0
    0.0294   22.1598  -29.9499 H   0  0  0  0  0  0  0  0  0  0  0  0
   -0.9924   18.9286  -29.2705 H   0  0  0  0  0  0  0  0  0  0  0  0
   -0.2458   20.4912  -28.6628 H   0  0  0  0  0  0  0  0  0  0  0  0
   -1.9206   20.1519  -27.1057 H   0  0  0  0  0  0  0  0  0  0  0  0
   -2.7379   21.2097  -28.3056 H   0  0  0  0  0  0  0  0  0  0  0  0
   -3.0528   19.4412  -28.3056 H   0  0  0  0  0  0  0  0  0  0  0  0
   -0.1029   19.1368  -31.2955 H   0  0  0  0  0  0  0  0  0  0  0  0
   -1.7964   19.2430  -31.9338 H   0  0  0  0  0  0  0  0  0  0  0  0
    0.0390   21.5852  -32.3884 H   0  0  0  0  0  0  0  0  0  0  0  0
    0.2965   20.0874  -33.3645 H   0  0  0  0  0  0  0  0  0  0  0  0
   -1.3000   21.2840  -34.6350 H   0  0  0  0  0  0  0  0  0  0  0  0
   -2.8297   23.1736  -32.6358 H   0  0  0  0  0  0  0  0  0  0  0  0
   -5.2174   23.3293  -32.0111 H   0  0  0  0  0  0  0  0  0  0  0  0
   -2.9690   18.7712  -34.9150 H   0  0  0  0  0  0  0  0  0  0  0  0
   -2.2912   18.4281  -33.2551 H   0  0  0  0  0  0  0  0  0  0  0  0
   -3.8461   16.6686  -34.3845 H   0  0  0  0  0  0  0  0  0  0  0  0
   -4.0777   17.1256  -32.6337 H   0  0  0  0  0  0  0  0  0  0  0  0
   -6.5219   16.2959  -32.7962 H   0  0  0  0  0  0  0  0  0  0  0  0
   -7.3301   16.6982  -34.3492 H   0  0  0  0  0  0  0  0  0  0  0  0
   -5.8111   15.7393  -34.3492 H   0  0  0  0  0  0  0  0  0  0  0  0
   -6.1107   19.3461  -35.3041 H   0  0  0  0  0  0  0  0  0  0  0  0
   -4.7805   18.2744  -35.8597 H   0  0  0  0  0  0  0  0  0  0  0  0
   -6.4745   17.6771  -35.8597 H   0  0  0  0  0  0  0  0  0  0  0  0
   -7.5379   18.0451  -30.4717 H   0  0  0  0  0  0  0  0  0  0  0  0
   -8.6964   17.5787  -31.7628 H   0  0  0  0  0  0  0  0  0  0  0  0
   -7.0320   16.9033  -31.7628 H   0  0  0  0  0  0  0  0  0  0  0  0
   -9.7746   19.2606  -31.8403 H   0  0  0  0  0  0  0  0  0  0  0  0
  -10.9089   21.4403  -31.4745 H   0  0  0  0  0  0  0  0  0  0  0  0
   -9.6195   23.5616  -31.6171 H   0  0  0  0  0  0  0  0  0  0  0  0
   -7.1849   23.5170  -32.1186 H   0  0  0  0  0  0  0  0  0  0  0  0
  1  2  1  0
  2  3  1  0
  3  4  1  0
  4  5  1  0
  3  6  1  0
  6  7  1  0
  7  8  1  0
  8  9  1  0
  9 10  2  0
 10 11  1  0
 11 12  2  0
 12 13  1  0
 13 14  2  0
 14 15  1  0
 15 16  1  0
 16 17  1  0
 17 18  1  0
 17 19  1  0
 17 20  1  0
 20 21  2  0
 21 22  1  0
 21 23  1  0
 23 24  2  0
 24 25  1  0
 25 26  2  0
 26 27  1  0
 27 28  2  0
 14  9  1  0
 28 23  1  0
 28 12  1  0
 20 13  1  0
  1 29  1  0
  1 30  1  0
  1 31  1  0
  2 32  1  0
  2 33  1  0
  4 34  1  0
  4 35  1  0
  5 36  1  0
  5 37  1  0
  5 38  1  0
  6 39  1  0
  6 40  1  0
  7 41  1  0
  7 42  1  0
  8 43  1  0
 10 44  1  0
 11 45  1  0
 15 46  1  0
 15 47  1  0
 16 48  1  0
 16 49  1  0
 18 50  1  0
 18 51  1  0
 18 52  1  0
 19 53  1  0
 19 54  1  0
 19 55  1  0
 22 56  1  0
 22 57  1  0
 22 58  1  0
 24 59  1  0
 25 60  1  0
 26 61  1  0
 27 62  1  0
M  CHG  2  17   1  21   1
M  END
>  <UniqueID>  (3) 
3

>  <SMILES>  (3) 
CCN(CC)CCNc1ccc2c3c1CC[N+](C)(C)c3[n+](C)c1ccccc21

>  <Energy>  (3) 
127.77088651207475

>  <Genealogy>  (3) 
CCN(CC)CCNc1ccc2c3c1CC[N+](C)(C)c3[n+](C)c1ccccc21 (3D coordinates assigned)
CCN(CC)CCNc1ccc2c3c1CC[N+](C)(C)c3[n+](C)c1ccccc21 (nonaromatic ring conformer: 127.77088651207475 kcal/mol)

>  <smiles>  (3) 
CCN(CC)CCNc1ccc2c3c1CC[N+](C)(C)c3[n+](C)c1ccccc21

>  <score_type>  (3) 
oracle

>  <origin>  (3) 
adg

>  <m_score__min__energy>  (3) 
-8.25

>  <m_primary>  (3) 
energy

$$$$
3:0
     RDKit          3D

 35 37  0  0  0  0  0  0  0  0999 V2000
   -4.2280   24.9360  -26.3280 C   0  0  0  0  0  0  0  0  0  0  0  0
   -3.7830   23.8640  -27.3180 C   0  0  0  0  0  0  0  0  0  0  0  0
   -2.3770   24.0810  -27.7240 N   0  0  0  0  0  0  0  0  0  0  0  0
   -1.6370   25.1040  -26.9470 C   0  0  0  0  0  0  0  0  0  0  0  0
   -0.1540   24.8620  -26.8690 C   0  0  0  0  0  0  0  0  0  0  0  0
    0.5610   24.6000  -25.7160 C   0  0  0  0  0  0  0  0  0  0  0  0
    1.8690   24.4380  -26.1180 C   0  0  0  0  0  0  0  0  0  0  0  0
    1.8750   24.6190  -27.4860 C   0  0  0  0  0  0  0  0  0  0  0  0
    0.6560   24.8740  -27.9030 O   0  0  0  0  0  0  0  0  0  0  0  0
   -2.1560   24.1260  -29.1870 C   0  0  0  0  0  0  0  0  0  0  0  0
   -3.4250   24.1610  -29.9930 C   0  0  0  0  0  0  0  0  0  0  0  0
   -4.2320   23.1020  -30.1960 N   0  0  0  0  0  0  0  0  0  0  0  0
   -5.2050   23.6520  -30.9500 C   0  0  0  0  0  0  0  0  0  0  0  0
   -6.3820   22.9130  -31.4190 C   0  0  0  0  0  0  0  0  0  0  0  0
   -7.6890   23.3820  -31.4320 C   0  0  0  0  0  0  0  0  0  0  0  0
   -8.6050   22.4430  -31.9210 C   0  0  0  0  0  0  0  0  0  0  0  0
   -8.0230   21.2370  -32.2910 C   0  0  0  0  0  0  0  0  0  0  0  0
   -6.3680   21.3390  -32.0090 S   0  0  0  0  0  0  0  0  0  0  0  0
   -4.9920   24.9590  -31.2000 N   0  0  0  0  0  0  0  0  0  0  0  0
   -3.8780   25.2340  -30.5930 O   0  0  0  0  0  0  0  0  0  0  0  0
   -4.0769   24.5721  -25.3010 H   0  0  0  0  0  0  0  0  0  0  0  0
   -3.6345   25.8488  -26.4846 H   0  0  0  0  0  0  0  0  0  0  0  0
   -5.2935   25.1601  -26.4846 H   0  0  0  0  0  0  0  0  0  0  0  0
   -3.8741   22.8751  -26.8450 H   0  0  0  0  0  0  0  0  0  0  0  0
   -4.4224   23.9192  -28.2113 H   0  0  0  0  0  0  0  0  0  0  0  0
   -1.8028   26.0834  -27.4194 H   0  0  0  0  0  0  0  0  0  0  0  0
   -2.0205   25.0589  -25.9170 H   0  0  0  0  0  0  0  0  0  0  0  0
    0.1679   24.5344  -24.6907 H   0  0  0  0  0  0  0  0  0  0  0  0
    2.7339   24.2103  -25.4776 H   0  0  0  0  0  0  0  0  0  0  0  0
    2.7653   24.5589  -28.1293 H   0  0  0  0  0  0  0  0  0  0  0  0
   -1.5715   25.0278  -29.4216 H   0  0  0  0  0  0  0  0  0  0  0  0
   -1.6295   23.1994  -29.4595 H   0  0  0  0  0  0  0  0  0  0  0  0
   -7.9753   24.3884  -31.0927 H   0  0  0  0  0  0  0  0  0  0  0  0
   -9.6837   22.6414  -32.0044 H   0  0  0  0  0  0  0  0  0  0  0  0
   -8.5540   20.3642  -32.6988 H   0  0  0  0  0  0  0  0  0  0  0  0
  1  2  1  0
  2  3  1  0
  3  4  1  0
  4  5  1  0
  5  6  2  0
  6  7  1  0
  7  8  2  0
  8  9  1  0
  3 10  1  0
 10 11  1  0
 11 12  2  0
 12 13  1  0
 13 14  1  0
 14 15  2  0
 15 16  1  0
 16 17  2  0
 17 18  1  0
 13 19  2  0
 19 20  1  0
  9  5  1  0
 20 11  1  0
 18 14  1  0
  1 21  1  0
  1 22  1  0
  1 23  1  0
  2 24  1  0
  2 25  1  0
  4 26  1  0
  4 27  1  0
  6 28  1  0
  7 29  1  0
  8 30  1  0
 10 31  1  0
 10 32  1  0
 15 33  1  0
 16 34  1  0
 17 35  1  0
M  END
>  <UniqueID>  (4) 
4

>  <SMILES>  (4) 
CCN(Cc1ccco1)Cc1nc(-c2cccs2)no1

>  <Energy>  (4) 
123.71820944242153

>  <Genealogy>  (4) 
CCN(Cc1ccco1)Cc1nc(-c2cccs2)no1 (3D coordinates assigned)
CCN(Cc1ccco1)Cc1nc(-c2cccs2)no1 (optimized conformer: 123.71820944242153 kcal/mol)

>  <smiles>  (4) 
CCN(Cc1ccco1)Cc1nc(-c2cccs2)no1

>  <score_type>  (4) 
oracle

>  <origin>  (4) 
adg

>  <m_score__min__energy>  (4) 
-7.3700000000000001

>  <m_primary>  (4) 
energy

$$$$
4:0
     RDKit          3D

 44 45  0  0  0  0  0  0  0  0999 V2000
   -6.5580   17.7680  -31.4680 C   0  0  0  0  0  0  0  0  0  0  0  0
   -5.5770   18.1280  -32.5760 C   0  0  0  0  0  0  0  0  0  0  0  0
   -6.3860   19.0910  -33.9020 S   0  0  0  0  0  0  0  0  0  0  0  0
   -7.0170   20.3750  -32.8130 C   0  0  0  0  0  0  0  0  0  0  0  0
   -8.3240   20.5300  -32.3530 C   0  0  0  0  0  0  0  0  0  0  0  0
   -9.4960   19.6740  -32.7170 C   0  0  0  0  0  0  0  0  0  0  0  0
   -8.4170   21.6160  -31.5490 N   0  0  0  0  0  0  0  0  0  0  0  0
   -7.1760   22.1290  -31.4800 C   0  0  0  0  0  0  0  0  0  0  0  0
   -6.7670   23.2540  -30.7670 C   0  0  0  0  0  0  0  0  0  0  0  0
   -5.4100   23.6370  -30.8500 C   0  0  0  0  0  0  0  0  0  0  0  0
   -4.9460   24.8280  -30.1150 C   0  0  0  0  0  0  0  0  0  0  0  0
   -5.7760   25.4920  -29.4400 O   0  0  0  0  0  0  0  0  0  0  0  0
   -3.5840   25.2760  -30.1660 N   0  0  0  0  0  0  0  0  0  0  0  0
   -2.4160   24.5390  -29.6840 C   0  0  0  0  0  0  0  0  0  0  0  0
   -2.3010   24.5720  -28.1450 C   0  0  0  0  0  0  0  0  0  0  0  0
   -3.6110   24.6550  -27.4530 N   0  0  0  0  0  0  0  0  0  0  0  0
   -4.2350   23.3260  -27.3070 C   0  0  0  0  0  0  0  0  0  0  0  0
   -3.4310   25.2650  -26.1240 C   0  0  0  0  0  0  0  0  0  0  0  0
   -4.5030   22.8610  -31.6130 C   0  0  0  0  0  0  0  0  0  0  0  0
   -4.9460   21.7300  -32.3210 C   0  0  0  0  0  0  0  0  0  0  0  0
   -6.2960   21.3960  -32.2330 C   0  0  0  0  0  0  0  0  0  0  0  0
   -6.0859   17.9413  -30.4897 H   0  0  0  0  0  0  0  0  0  0  0  0
   -7.4577   18.3945  -31.5570 H   0  0  0  0  0  0  0  0  0  0  0  0
   -6.8389   16.7082  -31.5570 H   0  0  0  0  0  0  0  0  0  0  0  0
   -4.7589   18.7262  -32.1483 H   0  0  0  0  0  0  0  0  0  0  0  0
   -5.1932   17.1944  -33.0132 H   0  0  0  0  0  0  0  0  0  0  0  0
   -9.9869   19.3154  -31.8003 H   0  0  0  0  0  0  0  0  0  0  0  0
  -10.2111   20.2639  -33.3092 H   0  0  0  0  0  0  0  0  0  0  0  0
   -9.1516   18.8133  -33.3092 H   0  0  0  0  0  0  0  0  0  0  0  0
   -9.2760   21.9800  -31.0780 H   0  0  0  0  0  0  0  0  0  0  0  0
   -7.4804   23.8275  -30.1570 H   0  0  0  0  0  0  0  0  0  0  0  0
   -2.4980   23.4919  -30.0109 H   0  0  0  0  0  0  0  0  0  0  0  0
   -1.5180   25.0188  -30.1004 H   0  0  0  0  0  0  0  0  0  0  0  0
   -1.7907   23.6552  -27.8147 H   0  0  0  0  0  0  0  0  0  0  0  0
   -1.7396   25.4809  -27.8829 H   0  0  0  0  0  0  0  0  0  0  0  0
   -4.2610   25.2720  -27.9940 H   0  0  0  0  0  0  0  0  0  0  0  0
   -4.3465   23.0886  -26.2387 H   0  0  0  0  0  0  0  0  0  0  0  0
   -5.2249   23.3310  -27.7867 H   0  0  0  0  0  0  0  0  0  0  0  0
   -3.5989   22.5676  -27.7867 H   0  0  0  0  0  0  0  0  0  0  0  0
   -3.6510   24.5196  -25.3456 H   0  0  0  0  0  0  0  0  0  0  0  0
   -2.3924   25.6112  -26.0171 H   0  0  0  0  0  0  0  0  0  0  0  0
   -4.1152   26.1196  -26.0171 H   0  0  0  0  0  0  0  0  0  0  0  0
   -3.4413   23.1463  -31.6519 H   0  0  0  0  0  0  0  0  0  0  0  0
   -4.2500   21.1287  -32.9244 H   0  0  0  0  0  0  0  0  0  0  0  0
  1  2  1  0
  2  3  1  0
  3  4  1  0
  4  5  2  0
  5  6  1  0
  5  7  1  0
  7  8  1  0
  8  9  2  0
  9 10  1  0
 10 11  1  0
 11 12  2  0
 11 13  1  0
 13 14  1  0
 14 15  1  0
 15 16  1  0
 16 17  1  0
 16 18  1  0
 10 19  2  0
 19 20  1  0
 20 21  2  0
 21  4  1  0
 21  8  1  0
  1 22  1  0
  1 23  1  0
  1 24  1  0
  2 25  1  0
  2 26  1  0
  6 27  1  0
  6 28  1  0
  6 29  1  0
  7 30  1  0
  9 31  1  0
 14 32  1  0
 14 33  1  0
 15 34  1  0
 15 35  1  0
 16 36  1  0
 17 37  1  0
 17 38  1  0
 17 39  1  0
 18 40  1  0
 18 41  1  0
 18 42  1  0
 19 43  1  0
 20 44  1  0
M  CHG  2  13  -1  16   1
M  END
>  <UniqueID>  (5) 
5

>  <SMILES>  (5) 
CCSc1c(C)[nH]c2cc(C(=O)[N-]CC[NH+](C)C)ccc12

>  <Energy>  (5) 
72.41421078969472

>  <Genealogy>  (5) 
CCSc1c(C)[nH]c2cc(C(=O)[N-]CC[NH+](C)C)ccc12 (protonated)
CCSc1c(C)[nH]c2cc(C(=O)[N-]CC[NH+](C)C)ccc12 (3D coordinates assigned)
CCSc1c(C)[nH]c2cc(C(=O)[N-]CC[NH+](C)C)ccc12 (optimized conformer: 72.41421078969472 kcal/mol)

>  <smiles>  (5) 
CCSc1c(C)[nH]c2cc(C(=O)NCCN(C)C)ccc12

>  <score_type>  (5) 
oracle

>  <origin>  (5) 
adg

>  <m_score__min__energy>  (5) 
-8.5999999999999996

>  <m_primary>  (5) 
energy

$$$$
5:0
     RDKit          3D

 43 44  0  0  0  0  0  0  0  0999 V2000
   -4.3020   20.3920  -32.0430 C   0  0  0  0  0  0  0  0  0  0  0  0
   -5.4090   20.4670  -33.0950 C   0  0  0  0  0  0  0  0  0  0  0  0
   -6.7020   20.8630  -32.4900 N   0  0  0  0  0  0  0  0  0  0  0  0
   -7.7080   19.9280  -32.3120 C   0  0  0  0  0  0  0  0  0  0  0  0
   -7.5490   18.4820  -32.7300 C   0  0  0  0  0  0  0  0  0  0  0  0
   -8.9050   20.2930  -31.6790 C   0  0  0  0  0  0  0  0  0  0  0  0
   -9.0910   21.5980  -31.2390 C   0  0  0  0  0  0  0  0  0  0  0  0
  -10.1620   21.9240  -30.6650 O   0  0  0  0  0  0  0  0  0  0  0  0
   -8.0900   22.5380  -31.4400 C   0  0  0  0  0  0  0  0  0  0  0  0
   -6.9070   22.1710  -32.0910 C   0  0  0  0  0  0  0  0  0  0  0  0
   -5.6700   23.4670  -32.3380 S   0  0  0  0  0  0  0  0  0  0  0  0
   -6.1480   24.4510  -30.8750 C   0  0  0  0  0  0  0  0  0  0  0  0
   -4.9530   24.7170  -30.0150 C   0  0  0  0  0  0  0  0  0  0  0  0
   -3.9480   25.2980  -30.5110 O   0  0  0  0  0  0  0  0  0  0  0  0
   -4.9410   24.2990  -28.6430 N   0  0  0  0  0  0  0  0  0  0  0  0
   -3.7850   24.5480  -27.7810 C   0  0  0  0  0  0  0  0  0  0  0  0
   -2.6170   23.6120  -28.1220 C   0  0  1  0  0  0  0  0  0  0  0  0
   -3.0810   22.1950  -28.4340 C   0  0  0  0  0  0  0  0  0  0  0  0
   -2.0680   21.7350  -29.4340 C   0  0  0  0  0  0  0  0  0  0  0  0
   -1.6280   23.0290  -30.0910 C   0  0  0  0  0  0  0  0  0  0  0  0
   -1.9170   24.1150  -29.2390 O   0  0  0  0  0  0  0  0  0  0  0  0
   -4.7485   20.4222  -31.0381 H   0  0  0  0  0  0  0  0  0  0  0  0
   -3.7413   19.4538  -32.1670 H   0  0  0  0  0  0  0  0  0  0  0  0
   -3.6199   21.2460  -32.1670 H   0  0  0  0  0  0  0  0  0  0  0  0
   -5.1285   21.2083  -33.8578 H   0  0  0  0  0  0  0  0  0  0  0  0
   -5.5276   19.4704  -33.5452 H   0  0  0  0  0  0  0  0  0  0  0  0
   -7.4792   17.8470  -31.8345 H   0  0  0  0  0  0  0  0  0  0  0  0
   -8.4189   18.1759  -33.3296 H   0  0  0  0  0  0  0  0  0  0  0  0
   -6.6334   18.3722  -33.3296 H   0  0  0  0  0  0  0  0  0  0  0  0
   -9.6979   19.5452  -31.5305 H   0  0  0  0  0  0  0  0  0  0  0  0
   -8.2265   23.5711  -31.0877 H   0  0  0  0  0  0  0  0  0  0  0  0
   -6.5772   25.4082  -31.2060 H   0  0  0  0  0  0  0  0  0  0  0  0
   -6.8904   23.8868  -30.2914 H   0  0  0  0  0  0  0  0  0  0  0  0
   -5.7810   23.8090  -28.2600 H   0  0  0  0  0  0  0  0  0  0  0  0
   -3.4584   25.5900  -27.9132 H   0  0  0  0  0  0  0  0  0  0  0  0
   -4.0845   24.3608  -26.7393 H   0  0  0  0  0  0  0  0  0  0  0  0
   -1.9659   23.5708  -27.2364 H   0  0  0  0  0  0  0  0  0  0  0  0
   -3.0650   21.5641  -27.5330 H   0  0  0  0  0  0  0  0  0  0  0  0
   -4.1159   22.1439  -28.8032 H   0  0  0  0  0  0  0  0  0  0  0  0
   -1.2223   21.2350  -28.9392 H   0  0  0  0  0  0  0  0  0  0  0  0
   -2.4659   20.9989  -30.1480 H   0  0  0  0  0  0  0  0  0  0  0  0
   -0.5455   22.9924  -30.2829 H   0  0  0  0  0  0  0  0  0  0  0  0
   -2.1666   23.1573  -31.0415 H   0  0  0  0  0  0  0  0  0  0  0  0
  1  2  1  0
  2  3  1  0
  3  4  1  0
  4  5  1  0
  4  6  2  0
  6  7  1  0
  7  8  2  0
  7  9  1  0
  9 10  2  0
 10 11  1  0
 11 12  1  0
 12 13  1  0
 13 14  2  0
 13 15  1  0
 15 16  1  0
 16 17  1  0
 17 18  1  0
 18 19  1  0
 19 20  1  0
 20 21  1  0
 10  3  1  0
 21 17  1  0
  1 22  1  0
  1 23  1  0
  1 24  1  0
  2 25  1  0
  2 26  1  0
  5 27  1  0
  5 28  1  0
  5 29  1  0
  6 30  1  0
  9 31  1  0
 12 32  1  0
 12 33  1  0
 15 34  1  0
 16 35  1  0
 16 36  1  0
 17 37  1  1
 18 38  1  0
 18 39  1  0
 19 40  1  0
 19 41  1  0
 20 42  1  0
 20 43  1  0
M  END
>  <UniqueID>  (6) 
6

>  <SMILES>  (6) 
CCn1c(C)cc(=O)cc1SCC(=O)NC[C@H]1CCCO1

>  <Energy>  (6) 
35.22298897532412

>  <Genealogy>  (6) 
CCn1c(C)cc(=O)cc1SCC(=O)NC[C@H]1CCCO1 (chirality)
CCn1c(C)cc(=O)cc1SCC(=O)NC[C@H]1CCCO1 (3D coordinates assigned)
CCn1c(C)cc(=O)cc1SCC(=O)NC[C@H]1CCCO1 (nonaromatic ring conformer: 35.22298897532412 kcal/mol)

>  <smiles>  (6) 
CCn1c(C)cc(=O)cc1SCC(=O)NCC1CCCO1

>  <score_type>  (6) 
oracle

>  <origin>  (6) 
adg

>  <m_score__min__energy>  (6) 
-8.2799999999999994

>  <m_primary>  (6) 
energy

$$$$
6:0
     RDKit          3D

 57 59  0  0  0  0  0  0  0  0999 V2000
   -1.9180   23.9810  -29.1740 C   0  0  0  0  0  0  0  0  0  0  0  0
   -1.7330   22.7820  -30.0950 C   0  0  0  0  0  0  0  0  0  0  0  0
   -2.9930   22.0020  -30.1500 N   0  0  0  0  0  0  0  0  0  0  0  0
   -3.4740   21.5900  -28.8110 C   0  0  0  0  0  0  0  0  0  0  0  0
   -2.6430   20.4640  -28.1760 C   0  0  0  0  0  0  0  0  0  0  0  0
   -2.9470   20.8770  -31.1080 C   0  0  0  0  0  0  0  0  0  0  0  0
   -2.4500   21.3460  -32.4780 C   0  0  0  0  0  0  0  0  0  0  0  0
   -3.5470   21.3480  -33.4450 N   0  0  0  0  0  0  0  0  0  0  0  0
   -4.8660   20.9100  -33.0740 C   0  0  0  0  0  0  0  0  0  0  0  0
   -5.6940   21.7410  -32.2970 C   0  0  0  0  0  0  0  0  0  0  0  0
   -5.2530   23.0160  -31.8770 C   0  0  0  0  0  0  0  0  0  0  0  0
   -6.0410   23.8040  -31.0410 C   0  0  0  0  0  0  0  0  0  0  0  0
   -5.4080   25.5120  -30.4630 Br  0  0  0  0  0  0  0  0  0  0  0  0
   -7.2750   23.3360  -30.6060 C   0  0  0  0  0  0  0  0  0  0  0  0
   -7.7410   22.0900  -31.0230 C   0  0  0  0  0  0  0  0  0  0  0  0
   -6.9800   21.2800  -31.9050 C   0  0  0  0  0  0  0  0  0  0  0  0
   -7.4510   20.0640  -32.3640 N   0  0  0  0  0  0  0  0  0  0  0  0
   -8.8820   19.7190  -32.2030 C   0  0  0  0  0  0  0  0  0  0  0  0
   -6.5960   19.1880  -33.0080 C   0  0  0  0  0  0  0  0  0  0  0  0
   -6.9620   17.8430  -33.2620 C   0  0  0  0  0  0  0  0  0  0  0  0
   -6.1270   16.9800  -33.9930 C   0  0  0  0  0  0  0  0  0  0  0  0
   -6.4800   15.6480  -34.2640 O   0  0  0  0  0  0  0  0  0  0  0  0
   -5.7230   14.5090  -33.8640 C   0  0  0  0  0  0  0  0  0  0  0  0
   -4.9020   17.4460  -34.4740 C   0  0  0  0  0  0  0  0  0  0  0  0
   -4.1020   16.5670  -35.2220 O   0  0  0  0  0  0  0  0  0  0  0  0
   -2.7020   16.3850  -35.0350 C   0  0  0  0  0  0  0  0  0  0  0  0
   -4.5010   18.7610  -34.1910 C   0  0  0  0  0  0  0  0  0  0  0  0
   -5.3120   19.6200  -33.4230 C   0  0  0  0  0  0  0  0  0  0  0  0
   -1.8669   23.6499  -28.1263 H   0  0  0  0  0  0  0  0  0  0  0  0
   -1.1227   24.7165  -29.3653 H   0  0  0  0  0  0  0  0  0  0  0  0
   -2.8980   24.4425  -29.3653 H   0  0  0  0  0  0  0  0  0  0  0  0
   -1.4741   23.1321  -31.1051 H   0  0  0  0  0  0  0  0  0  0  0  0
   -0.9237   22.1447  -29.7092 H   0  0  0  0  0  0  0  0  0  0  0  0
   -3.4396   22.4649  -28.1452 H   0  0  0  0  0  0  0  0  0  0  0  0
   -4.4950   21.2019  -28.9414 H   0  0  0  0  0  0  0  0  0  0  0  0
   -2.6992   20.5401  -27.0801 H   0  0  0  0  0  0  0  0  0  0  0  0
   -3.0401   19.4896  -28.4967 H   0  0  0  0  0  0  0  0  0  0  0  0
   -1.5948   20.5563  -28.4967 H   0  0  0  0  0  0  0  0  0  0  0  0
   -2.2658   20.1038  -30.7231 H   0  0  0  0  0  0  0  0  0  0  0  0
   -3.9630   20.4713  -31.2227 H   0  0  0  0  0  0  0  0  0  0  0  0
   -2.0449   22.3647  -32.3873 H   0  0  0  0  0  0  0  0  0  0  0  0
   -1.6668   20.6575  -32.8283 H   0  0  0  0  0  0  0  0  0  0  0  0
   -3.4380   21.9230  -34.3100 H   0  0  0  0  0  0  0  0  0  0  0  0
   -4.2754   23.3910  -32.2143 H   0  0  0  0  0  0  0  0  0  0  0  0
   -7.8867   23.9513  -29.9298 H   0  0  0  0  0  0  0  0  0  0  0  0
   -8.7153   21.7287  -30.6621 H   0  0  0  0  0  0  0  0  0  0  0  0
   -9.1267   19.6600  -31.1322 H   0  0  0  0  0  0  0  0  0  0  0  0
   -9.5017   20.4935  -32.6786 H   0  0  0  0  0  0  0  0  0  0  0  0
   -9.0806   18.7472  -32.6786 H   0  0  0  0  0  0  0  0  0  0  0  0
   -7.9214   17.4654  -32.8785 H   0  0  0  0  0  0  0  0  0  0  0  0
   -5.6894   14.4584  -32.7657 H   0  0  0  0  0  0  0  0  0  0  0  0
   -6.1956   13.5975  -34.2588 H   0  0  0  0  0  0  0  0  0  0  0  0
   -4.6996   14.5918  -34.2588 H   0  0  0  0  0  0  0  0  0  0  0  0
   -2.4766   16.3557  -33.9587 H   0  0  0  0  0  0  0  0  0  0  0  0
   -2.3898   15.4387  -35.5009 H   0  0  0  0  0  0  0  0  0  0  0  0
   -2.1582   17.2200  -35.5009 H   0  0  0  0  0  0  0  0  0  0  0  0
   -3.5375   19.1271  -34.5752 H   0  0  0  0  0  0  0  0  0  0  0  0
  1  2  1  0
  2  3  1  0
  3  4  1  0
  4  5  1  0
  3  6  1  0
  6  7  1  0
  7  8  1  0
  8  9  1  0
  9 10  2  0
 10 11  1  0
 11 12  2  0
 12 13  1  0
 12 14  1  0
 14 15  2  0
 15 16  1  0
 16 17  2  0
 17 18  1  0
 17 19  1  0
 19 20  2  0
 20 21  1  0
 21 22  1  0
 22 23  1  0
 21 24  2  0
 24 25  1  0
 25 26  1  0
 24 27  1  0
 27 28  2  0
 28  9  1  0
 16 10  1  0
 28 19  1  0
  1 29  1  0
  1 30  1  0
  1 31  1  0
  2 32  1  0
  2 33  1  0
  4 34  1  0
  4 35  1  0
  5 36  1  0
  5 37  1  0
  5 38  1  0
  6 39  1  0
  6 40  1  0
  7 41  1  0
  7 42  1  0
  8 43  1  0
 11 44  1  0
 14 45  1  0
 15 46  1  0
 18 47  1  0
 18 48  1  0
 18 49  1  0
 20 50  1  0
 23 51  1  0
 23 52  1  0
 23 53  1  0
 26 54  1  0
 26 55  1  0
 26 56  1  0
 27 57  1  0
M  CHG  1  17   1
M  END
>  <UniqueID>  (7) 
7

>  <SMILES>  (7) 
CCN(CC)CCNc1c2cc(Br)ccc2[n+](C)c2cc(OC)c(OC)cc12

>  <Energy>  (7) 
82.23600018918911

>  <Genealogy>  (7) 
CCN(CC)CCNc1c2cc(Br)ccc2[n+](C)c2cc(OC)c(OC)cc12 (3D coordinates assigned)
CCN(CC)CCNc1c2cc(Br)ccc2[n+](C)c2cc(OC)c(OC)cc12 (optimized conformer: 82.23600018918911 kcal/mol)

>  <smiles>  (7) 
CCN(CC)CCNc1c2cc(Br)ccc2[n+](C)c2cc(OC)c(OC)cc12

>  <score_type>  (7) 
oracle

>  <origin>  (7) 
adg

>  <m_score__min__energy>  (7) 
-8.5500000000000007

>  <m_primary>  (7) 
energy

$$$$
7:0
     RDKit          3D

 36 35  0  0  0  0  0  0  0  0999 V2000
   -4.0970   24.5410  -27.0060 C   0  0  0  0  0  0  0  0  0  0  0  0
   -2.8710   24.4850  -27.9120 C   0  0  0  0  0  0  0  0  0  0  0  0
   -3.2130   23.8700  -29.2030 N   0  0  0  0  0  0  0  0  0  0  0  0
   -2.3860   22.7650  -29.6940 C   0  0  0  0  0  0  0  0  0  0  0  0
   -4.3010   24.4150  -29.9880 C   0  0  0  0  0  0  0  0  0  0  0  0
   -4.0530   25.3100  -30.8430 O   0  0  0  0  0  0  0  0  0  0  0  0
   -5.7530   23.9790  -29.8250 C   0  0  0  0  0  0  0  0  0  0  0  0
   -6.2950   23.0230  -30.8710 N   0  0  0  0  0  0  0  0  0  0  0  0
   -6.5480   23.7330  -32.1610 C   0  0  0  0  0  0  0  0  0  0  0  0
   -7.6040   22.3790  -30.4870 C   0  0  0  0  0  0  0  0  0  0  0  0
   -8.5570   21.9440  -31.6240 C   0  0  0  0  0  0  0  0  0  0  0  0
   -5.2640   21.9800  -31.2110 C   0  0  0  0  0  0  0  0  0  0  0  0
   -4.6350   22.0740  -32.6070 C   0  0  0  0  0  0  0  0  0  0  0  0
   -3.7764   24.5264  -25.9539 H   0  0  0  0  0  0  0  0  0  0  0  0
   -4.6584   25.4657  -27.2054 H   0  0  0  0  0  0  0  0  0  0  0  0
   -4.7403   23.6713  -27.2054 H   0  0  0  0  0  0  0  0  0  0  0  0
   -2.5011   25.5065  -28.0842 H   0  0  0  0  0  0  0  0  0  0  0  0
   -2.0946   23.8782  -27.4232 H   0  0  0  0  0  0  0  0  0  0  0  0
   -1.9707   22.2101  -28.8398 H   0  0  0  0  0  0  0  0  0  0  0  0
   -3.0022   22.0894  -30.3054 H   0  0  0  0  0  0  0  0  0  0  0  0
   -1.5641   23.1657  -30.3054 H   0  0  0  0  0  0  0  0  0  0  0  0
   -5.8467   23.4894  -28.8444 H   0  0  0  0  0  0  0  0  0  0  0  0
   -6.3468   24.8983  -29.9357 H   0  0  0  0  0  0  0  0  0  0  0  0
   -6.9107   24.7507  -31.9544 H   0  0  0  0  0  0  0  0  0  0  0  0
   -5.6138   23.7870  -32.7392 H   0  0  0  0  0  0  0  0  0  0  0  0
   -7.3058   23.1840  -32.7392 H   0  0  0  0  0  0  0  0  0  0  0  0
   -7.3669   21.4815  -29.8969 H   0  0  0  0  0  0  0  0  0  0  0  0
   -8.1536   23.1682  -29.9531 H   0  0  0  0  0  0  0  0  0  0  0  0
   -9.4769   21.5241  -31.1909 H   0  0  0  0  0  0  0  0  0  0  0  0
   -8.8090   22.8162  -32.2450 H   0  0  0  0  0  0  0  0  0  0  0  0
   -8.0632   21.1821  -32.2450 H   0  0  0  0  0  0  0  0  0  0  0  0
   -4.4527   22.0577  -30.4722 H   0  0  0  0  0  0  0  0  0  0  0  0
   -5.8022   21.0207  -31.1964 H   0  0  0  0  0  0  0  0  0  0  0  0
   -3.5513   22.2360  -32.5107 H   0  0  0  0  0  0  0  0  0  0  0  0
   -4.8186   21.1384  -33.1557 H   0  0  0  0  0  0  0  0  0  0  0  0
   -5.0841   22.9150  -33.1557 H   0  0  0  0  0  0  0  0  0  0  0  0
  1  2  1  0
  2  3  1  0
  3  4  1  0
  3  5  1  0
  5  6  2  0
  5  7  1  0
  7  8  1  0
  8  9  1  0
  8 10  1  0
 10 11  1  0
  8 12  1  0
 12 13  1  0
  1 14  1  0
  1 15  1  0
  1 16  1  0
  2 17  1  0
  2 18  1  0
  4 19  1  0
  4 20  1  0
  4 21  1  0
  7 22  1  0
  7 23  1  0
  9 24  1  0
  9 25  1  0
  9 26  1  0
 10 27  1  0
 10 28  1  0
 11 29  1  0
 11 30  1  0
 11 31  1  0
 12 32  1  0
 12 33  1  0
 13 34  1  0
 13 35  1  0
 13 36  1  0
M  CHG  1   8   1
M  END
>  <UniqueID>  (8) 
8

>  <SMILES>  (8) 
CCN(C)C(=O)C[N+](C)(CC)CC

>  <Energy>  (8) 
52.95625295033977

>  <Genealogy>  (8) 
CCN(C)C(=O)C[N+](C)(CC)CC (3D coordinates assigned)
CCN(C)C(=O)C[N+](C)(CC)CC (optimized conformer: 52.95625295033977 kcal/mol)

>  <smiles>  (8) 
CCN(C)C(=O)C[N+](C)(CC)CC

>  <score_type>  (8) 
oracle

>  <origin>  (8) 
adg

>  <m_score__min__energy>  (8) 
-3.8399999999999999

>  <m_primary>  (8) 
energy

$$$$
8:0
     RDKit          3D

 66 69  0  0  0  0  0  0  0  0999 V2000
    0.5340   24.7380  -36.2260 C   0  0  0  0  0  0  0  0  0  0  0  0
    1.8110   24.0610  -35.7380 C   0  0  0  0  0  0  0  0  0  0  0  0
    1.5010   22.7590  -35.1140 N   0  0  0  0  0  0  0  0  0  0  0  0
    2.5900   21.7660  -35.2680 C   0  0  0  0  0  0  0  0  0  0  0  0
    2.2320   20.5630  -36.1540 C   0  0  0  0  0  0  0  0  0  0  0  0
    0.1650   22.2310  -35.4790 C   0  0  0  0  0  0  0  0  0  0  0  0
   -0.4980   21.5460  -34.2770 C   0  0  0  0  0  0  0  0  0  0  0  0
   -1.1100   20.3300  -34.6710 O   0  0  0  0  0  0  0  0  0  0  0  0
   -1.9970   19.8710  -33.6710 C   0  0  0  0  0  0  0  0  0  0  0  0
   -3.1160   20.8940  -33.4760 C   0  0  0  0  0  0  0  0  0  0  0  0
   -4.1470   20.3570  -32.5880 N   0  0  0  0  0  0  0  0  0  0  0  0
   -4.8770   21.2410  -31.7190 C   0  0  0  0  0  0  0  0  0  0  0  0
   -4.1760   22.1500  -30.9060 C   0  0  0  0  0  0  0  0  0  0  0  0
   -2.7880   22.0120  -30.6820 C   0  0  0  0  0  0  0  0  0  0  0  0
   -2.1100   22.8990  -29.8500 C   0  0  0  0  0  0  0  0  0  0  0  0
   -2.8010   23.9250  -29.2160 C   0  0  0  0  0  0  0  0  0  0  0  0
   -4.1670   24.0950  -29.4420 C   0  0  0  0  0  0  0  0  0  0  0  0
   -4.8730   23.2380  -30.3230 C   0  0  0  0  0  0  0  0  0  0  0  0
   -6.1990   23.4530  -30.6370 N   0  0  0  0  0  0  0  0  0  0  0  0
   -6.8160   24.7690  -30.3620 C   0  0  0  0  0  0  0  0  0  0  0  0
   -6.9390   22.4490  -31.2330 C   0  0  0  0  0  0  0  0  0  0  0  0
   -8.3490   22.5390  -31.3310 C   0  0  0  0  0  0  0  0  0  0  0  0
   -9.0910   21.5510  -31.9680 C   0  0  0  0  0  0  0  0  0  0  0  0
   -8.4670   20.4210  -32.4680 C   0  0  0  0  0  0  0  0  0  0  0  0
   -7.0820   20.2550  -32.3450 C   0  0  0  0  0  0  0  0  0  0  0  0
   -6.5390   18.9210  -32.6960 C   0  0  0  0  0  0  0  0  0  0  0  0
   -6.1960   18.6250  -34.0260 C   0  0  0  0  0  0  0  0  0  0  0  0
   -5.6710   17.3720  -34.3560 C   0  0  0  0  0  0  0  0  0  0  0  0
   -5.4710   16.4130  -33.3600 C   0  0  0  0  0  0  0  0  0  0  0  0
   -5.7910   16.7070  -32.0320 C   0  0  0  0  0  0  0  0  0  0  0  0
   -6.3160   17.9600  -31.6980 C   0  0  0  0  0  0  0  0  0  0  0  0
   -6.2910   21.2970  -31.7680 C   0  0  0  0  0  0  0  0  0  0  0  0
   -0.0660   25.0561  -35.3607 H   0  0  0  0  0  0  0  0  0  0  0  0
    0.7943   25.6166  -36.8346 H   0  0  0  0  0  0  0  0  0  0  0  0
   -0.0471   24.0295  -36.8346 H   0  0  0  0  0  0  0  0  0  0  0  0
    2.4852   23.9014  -36.5924 H   0  0  0  0  0  0  0  0  0  0  0  0
    2.2927   24.7079  -34.9900 H   0  0  0  0  0  0  0  0  0  0  0  0
    3.4585   22.2741  -35.7125 H   0  0  0  0  0  0  0  0  0  0  0  0
    2.7943   21.3662  -34.2638 H   0  0  0  0  0  0  0  0  0  0  0  0
    1.9760   19.7027  -35.5182 H   0  0  0  0  0  0  0  0  0  0  0  0
    1.3710   20.8187  -36.7891 H   0  0  0  0  0  0  0  0  0  0  0  0
    3.0927   20.3063  -36.7891 H   0  0  0  0  0  0  0  0  0  0  0  0
   -0.4714   23.0624  -35.8163 H   0  0  0  0  0  0  0  0  0  0  0  0
    0.2866   21.4906  -36.2834 H   0  0  0  0  0  0  0  0  0  0  0  0
    0.2660   21.3356  -33.5141 H   0  0  0  0  0  0  0  0  0  0  0  0
   -1.2695   22.2153  -33.8685 H   0  0  0  0  0  0  0  0  0  0  0  0
   -2.4300   18.9077  -33.9786 H   0  0  0  0  0  0  0  0  0  0  0  0
   -1.4494   19.7410  -32.7259 H   0  0  0  0  0  0  0  0  0  0  0  0
   -2.6971   21.8098  -33.0334 H   0  0  0  0  0  0  0  0  0  0  0  0
   -3.5681   21.1198  -34.4531 H   0  0  0  0  0  0  0  0  0  0  0  0
   -4.1490   19.3300  -32.3990 H   0  0  0  0  0  0  0  0  0  0  0  0
   -2.2368   21.1948  -31.1703 H   0  0  0  0  0  0  0  0  0  0  0  0
   -1.0268   22.7877  -29.6943 H   0  0  0  0  0  0  0  0  0  0  0  0
   -2.2692   24.6048  -28.5341 H   0  0  0  0  0  0  0  0  0  0  0  0
   -4.7042   24.9062  -28.9289 H   0  0  0  0  0  0  0  0  0  0  0  0
   -6.8871   24.9206  -29.2748 H   0  0  0  0  0  0  0  0  0  0  0  0
   -6.1967   25.5638  -30.8033 H   0  0  0  0  0  0  0  0  0  0  0  0
   -7.8231   24.8012  -30.8033 H   0  0  0  0  0  0  0  0  0  0  0  0
   -8.8664   23.4064  -30.8952 H   0  0  0  0  0  0  0  0  0  0  0  0
  -10.1795   21.6677  -32.0753 H   0  0  0  0  0  0  0  0  0  0  0  0
   -9.0657   19.6450  -32.9674 H   0  0  0  0  0  0  0  0  0  0  0  0
   -6.3411   19.3821  -34.8107 H   0  0  0  0  0  0  0  0  0  0  0  0
   -5.4152   17.1411  -35.4006 H   0  0  0  0  0  0  0  0  0  0  0  0
   -5.0615   15.4261  -33.6213 H   0  0  0  0  0  0  0  0  0  0  0  0
   -5.6299   15.9523  -31.2482 H   0  0  0  0  0  0  0  0  0  0  0  0
   -6.5548   18.1927  -30.6497 H   0  0  0  0  0  0  0  0  0  0  0  0
  1  2  1  0
  2  3  1  0
  3  4  1  0
  4  5  1  0
  3  6  1  0
  6  7  1  0
  7  8  1  0
  8  9  1  0
  9 10  1  0
 10 11  1  0
 11 12  1  0
 12 13  2  0
 13 14  1  0
 14 15  2  0
 15 16  1  0
 16 17  2  0
 17 18  1  0
 18 19  2  0
 19 20  1  0
 19 21  1  0
 21 22  2  0
 22 23  1  0
 23 24  2  0
 24 25  1  0
 25 26  1  0
 26 27  2  0
 27 28  1  0
 28 29  2  0
 29 30  1  0
 30 31  2  0
 25 32  2  0
 32 12  1  0
 18 13  1  0
 32 21  1  0
 31 26  1  0
  1 33  1  0
  1 34  1  0
  1 35  1  0
  2 36  1  0
  2 37  1  0
  4 38  1  0
  4 39  1  0
  5 40  1  0
  5 41  1  0
  5 42  1  0
  6 43  1  0
  6 44  1  0
  7 45  1  0
  7 46  1  0
  9 47  1  0
  9 48  1  0
 10 49  1  0
 10 50  1  0
 11 51  1  0
 14 52  1  0
 15 53  1  0
 16 54  1  0
 17 55  1  0
 20 56  1  0
 20 57  1  0
 20 58  1  0
 22 59  1  0
 23 60  1  0
 24 61  1  0
 27 62  1  0
 28 63  1  0
 29 64  1  0
 30 65  1  0
 31 66  1  0
M  CHG  1  19   1
M  END
>  <UniqueID>  (9) 
9

>  <SMILES>  (9) 
CCN(CC)CCOCCNc1c2ccccc2[n+](C)c2cccc(-c3ccccc3)c12

>  <Energy>  (9) 
102.13367691765222

>  <Genealogy>  (9) 
CCN(CC)CCOCCNc1c2ccccc2[n+](C)c2cccc(-c3ccccc3)c12 (3D coordinates assigned)
CCN(CC)CCOCCNc1c2ccccc2[n+](C)c2cccc(-c3ccccc3)c12 (optimized conformer: 102.13367691765222 kcal/mol)

>  <smiles>  (9) 
CCN(CC)CCOCCNc1c2ccccc2[n+](C)c2cccc(-c3ccccc3)c12

>  <score_type>  (9) 
oracle

>  <origin>  (9) 
adg

>  <m_score__min__energy>  (9) 
-8.5600000000000005

>  <m_primary>  (9) 
energy

$$$$
9:0
     RDKit          3D

 53 55  0  0  0  0  0  0  0  0999 V2000
   -6.9580   25.3090  -29.7450 C   0  0  0  0  0  0  0  0  0  0  0  0
   -5.4370   25.1370  -29.6410 C   0  0  0  0  0  0  0  0  0  0  0  0
   -5.0510   23.8650  -28.9720 N   0  0  0  0  0  0  0  0  0  0  0  0
   -3.7510   24.0130  -28.2600 C   0  0  0  0  0  0  0  0  0  0  0  0
   -3.8690   24.5200  -26.8160 C   0  0  0  0  0  0  0  0  0  0  0  0
   -5.0750   22.7330  -29.9410 C   0  0  0  0  0  0  0  0  0  0  0  0
   -4.4140   23.0440  -31.2970 C   0  0  0  0  0  0  0  0  0  0  0  0
   -5.2480   22.5920  -32.4120 N   0  0  0  0  0  0  0  0  0  0  0  0
   -5.4090   21.1910  -32.6990 C   0  0  0  0  0  0  0  0  0  0  0  0
   -6.6490   20.5620  -32.4910 C   0  0  0  0  0  0  0  0  0  0  0  0
   -7.7330   21.2620  -31.9190 C   0  0  0  0  0  0  0  0  0  0  0  0
   -8.9490   20.6270  -31.6860 C   0  0  0  0  0  0  0  0  0  0  0  0
   -9.1050   19.2830  -32.0010 C   0  0  0  0  0  0  0  0  0  0  0  0
   -8.0520   18.5720  -32.5760 C   0  0  0  0  0  0  0  0  0  0  0  0
   -6.8150   19.2020  -32.8680 C   0  0  0  0  0  0  0  0  0  0  0  0
   -5.7840   18.5260  -33.4930 N   0  0  0  0  0  0  0  0  0  0  0  0
   -6.0430   17.2260  -34.1520 C   0  0  0  0  0  0  0  0  0  0  0  0
   -4.5140   19.0740  -33.5190 C   0  0  0  0  0  0  0  0  0  0  0  0
   -3.3810   18.3110  -33.8980 C   0  0  0  0  0  0  0  0  0  0  0  0
   -2.1100   18.8820  -33.9490 C   0  0  0  0  0  0  0  0  0  0  0  0
   -1.9140   20.2190  -33.5860 C   0  0  0  0  0  0  0  0  0  0  0  0
   -0.5470   20.8500  -33.6790 C   0  0  0  0  0  0  0  0  0  0  0  0
   -0.4960   21.7800  -34.7040 F   0  0  0  0  0  0  0  0  0  0  0  0
    0.4150   19.8850  -33.9240 F   0  0  0  0  0  0  0  0  0  0  0  0
   -0.2560   21.4820  -32.4840 F   0  0  0  0  0  0  0  0  0  0  0  0
   -3.0200   20.9860  -33.1980 C   0  0  0  0  0  0  0  0  0  0  0  0
   -4.3150   20.4280  -33.1460 C   0  0  0  0  0  0  0  0  0  0  0  0
   -7.3914   25.3580  -28.7351 H   0  0  0  0  0  0  0  0  0  0  0  0
   -7.1857   26.2386  -30.2872 H   0  0  0  0  0  0  0  0  0  0  0  0
   -7.3875   24.4537  -30.2872 H   0  0  0  0  0  0  0  0  0  0  0  0
   -5.0110   25.1454  -30.6551 H   0  0  0  0  0  0  0  0  0  0  0  0
   -5.0481   25.9661  -29.0317 H   0  0  0  0  0  0  0  0  0  0  0  0
   -5.7580   23.6720  -28.2260 H   0  0  0  0  0  0  0  0  0  0  0  0
   -3.2569   23.0304  -28.2396 H   0  0  0  0  0  0  0  0  0  0  0  0
   -3.1773   24.7723  -28.8117 H   0  0  0  0  0  0  0  0  0  0  0  0
   -3.6760   23.6909  -26.1194 H   0  0  0  0  0  0  0  0  0  0  0  0
   -3.1330   25.3198  -26.6469 H   0  0  0  0  0  0  0  0  0  0  0  0
   -4.8825   24.9126  -26.6469 H   0  0  0  0  0  0  0  0  0  0  0  0
   -4.5472   21.8808  -29.4881 H   0  0  0  0  0  0  0  0  0  0  0  0
   -6.1338   22.5192  -30.1488 H   0  0  0  0  0  0  0  0  0  0  0  0
   -4.2620   24.1302  -31.3807 H   0  0  0  0  0  0  0  0  0  0  0  0
   -3.4527   22.5115  -31.3446 H   0  0  0  0  0  0  0  0  0  0  0  0
   -5.6010   23.2950  -33.0990 H   0  0  0  0  0  0  0  0  0  0  0  0
   -7.6150   22.3231  -31.6540 H   0  0  0  0  0  0  0  0  0  0  0  0
   -9.7882   21.1902  -31.2517 H   0  0  0  0  0  0  0  0  0  0  0  0
  -10.0609   18.7786  -31.7965 H   0  0  0  0  0  0  0  0  0  0  0  0
   -8.1829   17.5045  -32.8070 H   0  0  0  0  0  0  0  0  0  0  0  0
   -6.1974   16.4512  -33.3866 H   0  0  0  0  0  0  0  0  0  0  0  0
   -6.9429   17.3059  -34.7796 H   0  0  0  0  0  0  0  0  0  0  0  0
   -5.1812   16.9549  -34.7796 H   0  0  0  0  0  0  0  0  0  0  0  0
   -3.5068   17.2492  -34.1565 H   0  0  0  0  0  0  0  0  0  0  0  0
   -1.2532   18.2756  -34.2778 H   0  0  0  0  0  0  0  0  0  0  0  0
   -2.8764   22.0429  -32.9289 H   0  0  0  0  0  0  0  0  0  0  0  0
  1  2  1  0
  2  3  1  0
  3  4  1  0
  4  5  1  0
  3  6  1  0
  6  7  1  0
  7  8  1  0
  8  9  1  0
  9 10  2  0
 10 11  1  0
 11 12  2  0
 12 13  1  0
 13 14  2  0
 14 15  1  0
 15 16  2  0
 16 17  1  0
 16 18  1  0
 18 19  2  0
 19 20  1  0
 20 21  2  0
 21 22  1  0
 22 23  1  0
 22 24  1  0
 22 25  1  0
 21 26  1  0
 26 27  2  0
 27  9  1  0
 15 10  1  0
 27 18  1  0
  1 28  1  0
  1 29  1  0
  1 30  1  0
  2 31  1  0
  2 32  1  0
  3 33  1  0
  4 34  1  0
  4 35  1  0
  5 36  1  0
  5 37  1  0
  5 38  1  0
  6 39  1  0
  6 40  1  0
  7 41  1  0
  7 42  1  0
  8 43  1  0
 11 44  1  0
 12 45  1  0
 13 46  1  0
 14 47  1  0
 17 48  1  0
 17 49  1  0
 17 50  1  0
 19 51  1  0
 20 52  1  0
 26 53  1  0
M  CHG  2   3   1  16   1
M  END
>  <UniqueID>  (10) 
10

>  <SMILES>  (10) 
CC[NH+](CC)CCNc1c2ccccc2[n+](C)c2ccc(C(F)(F)F)cc12

>  <Energy>  (10) 
82.6136028064072

>  <Genealogy>  (10) 
CC[NH+](CC)CCNc1c2ccccc2[n+](C)c2ccc(C(F)(F)F)cc12 (protonated)
CC[NH+](CC)CCNc1c2ccccc2[n+](C)c2ccc(C(F)(F)F)cc12 (3D coordinates assigned)
CC[NH+](CC)CCNc1c2ccccc2[n+](C)c2ccc(C(F)(F)F)cc12 (optimized conformer: 82.6136028064072 kcal/mol)

>  <smiles>  (10) 
CCN(CC)CCNc1c2ccccc2[n+](C)c2ccc(C(F)(F)F)cc12

>  <score_type>  (10) 
oracle

>  <origin>  (10) 
adg

>  <m_score__min__energy>  (10) 
-7.1500000000000004

>  <m_primary>  (10) 
energy

$$$$
10:0
     RDKit          3D

 46 49  0  0  0  0  0  0  0  0999 V2000
   -2.5450   18.7700  -32.7500 C   0  0  0  0  0  0  0  0  0  0  0  0
   -3.3320   19.8600  -33.4700 C   0  0  0  0  0  0  0  0  0  0  0  0
   -4.6500   20.0380  -32.8510 N   0  0  0  0  0  0  0  0  0  0  0  0
   -5.1260   21.1230  -32.1910 C   0  0  0  0  0  0  0  0  0  0  0  0
   -6.4410   20.9340  -31.8370 C   0  0  0  0  0  0  0  0  0  0  0  0
   -6.8100   19.6850  -32.2990 C   0  0  0  0  0  0  0  0  0  0  0  0
   -8.0980   19.0530  -32.1860 C   0  0  0  0  0  0  0  0  0  0  0  0
   -9.1330   18.5440  -32.0950 N   0  0  0  0  0  0  0  0  0  0  0  0
   -5.6860   19.1680  -32.9170 C   0  0  0  0  0  0  0  0  0  0  0  0
   -5.6260   17.8950  -33.5690 N   0  0  0  0  0  0  0  0  0  0  0  0
   -6.1030   16.7020  -32.8710 C   0  0  0  0  0  0  0  0  0  0  0  0
   -6.1680   15.5020  -33.8280 C   0  0  0  0  0  0  0  0  0  0  0  0
   -4.9150   15.3160  -34.6010 N   0  0  0  0  0  0  0  0  0  0  0  0
   -3.9440   14.4960  -33.8570 C   0  0  0  0  0  0  0  0  0  0  0  0
   -4.2870   16.5670  -35.1060 C   0  0  0  0  0  0  0  0  0  0  0  0
   -5.1820   17.8010  -34.9580 C   0  0  0  0  0  0  0  0  0  0  0  0
   -7.2180   21.9550  -31.1230 C   0  0  0  0  0  0  0  0  0  0  0  0
   -8.4230   21.7460  -30.8140 O   0  0  0  0  0  0  0  0  0  0  0  0
   -6.5430   23.2340  -30.7780 C   0  0  0  0  0  0  0  0  0  0  0  0
   -7.2380   24.2450  -30.0940 C   0  0  0  0  0  0  0  0  0  0  0  0
   -6.6020   25.4460  -29.7710 C   0  0  0  0  0  0  0  0  0  0  0  0
   -5.2690   25.6520  -30.1270 C   0  0  0  0  0  0  0  0  0  0  0  0
   -4.5610   24.6590  -30.8080 C   0  0  0  0  0  0  0  0  0  0  0  0
   -5.1830   23.4430  -31.1410 C   0  0  0  0  0  0  0  0  0  0  0  0
   -4.4270   22.3840  -31.8670 C   0  0  0  0  0  0  0  0  0  0  0  0
   -3.2230   22.5610  -32.1930 O   0  0  0  0  0  0  0  0  0  0  0  0
   -2.6424   18.9049  -31.6627 H   0  0  0  0  0  0  0  0  0  0  0  0
   -2.9407   17.7837  -33.0340 H   0  0  0  0  0  0  0  0  0  0  0  0
   -1.4843   18.8352  -33.0340 H   0  0  0  0  0  0  0  0  0  0  0  0
   -2.7746   20.8066  -33.4125 H   0  0  0  0  0  0  0  0  0  0  0  0
   -3.4700   19.5635  -34.5203 H   0  0  0  0  0  0  0  0  0  0  0  0
   -5.4155   16.4680  -32.0448 H   0  0  0  0  0  0  0  0  0  0  0  0
   -7.1131   16.8997  -32.4829 H   0  0  0  0  0  0  0  0  0  0  0  0
   -6.3562   14.5922  -33.2390 H   0  0  0  0  0  0  0  0  0  0  0  0
   -6.9765   15.6955  -34.5483 H   0  0  0  0  0  0  0  0  0  0  0  0
   -4.1025   14.6299  -32.7767 H   0  0  0  0  0  0  0  0  0  0  0  0
   -4.0816   13.4366  -34.1193 H   0  0  0  0  0  0  0  0  0  0  0  0
   -2.9226   14.8090  -34.1193 H   0  0  0  0  0  0  0  0  0  0  0  0
   -3.3573   16.7415  -34.5445 H   0  0  0  0  0  0  0  0  0  0  0  0
   -4.1038   16.4265  -36.1815 H   0  0  0  0  0  0  0  0  0  0  0  0
   -4.6144   18.7041  -35.2269 H   0  0  0  0  0  0  0  0  0  0  0  0
   -6.0529   17.7140  -35.6244 H   0  0  0  0  0  0  0  0  0  0  0  0
   -8.2896   24.0900  -29.8110 H   0  0  0  0  0  0  0  0  0  0  0  0
   -7.1539   26.2317  -29.2343 H   0  0  0  0  0  0  0  0  0  0  0  0
   -4.7736   26.6000  -29.8705 H   0  0  0  0  0  0  0  0  0  0  0  0
   -3.5103   24.8295  -31.0854 H   0  0  0  0  0  0  0  0  0  0  0  0
  1  2  1  0
  2  3  1  0
  3  4  1  0
  4  5  2  0
  5  6  1  0
  6  7  1  0
  7  8  3  0
  6  9  2  0
  9 10  1  0
 10 11  1  0
 11 12  1  0
 12 13  1  0
 13 14  1  0
 13 15  1  0
 15 16  1  0
  5 17  1  0
 17 18  2  0
 17 19  1  0
 19 20  2  0
 20 21  1  0
 21 22  2  0
 22 23  1  0
 23 24  2  0
 24 25  1  0
 25 26  2  0
  9  3  1  0
 16 10  1  0
 24 19  1  0
 25  4  1  0
  1 27  1  0
  1 28  1  0
  1 29  1  0
  2 30  1  0
  2 31  1  0
 11 32  1  0
 11 33  1  0
 12 34  1  0
 12 35  1  0
 14 36  1  0
 14 37  1  0
 14 38  1  0
 15 39  1  0
 15 40  1  0
 16 41  1  0
 16 42  1  0
 20 43  1  0
 21 44  1  0
 22 45  1  0
 23 46  1  0
M  END
>  <UniqueID>  (11) 
11

>  <SMILES>  (11) 
CCn1c2c(c(C#N)c1N1CCN(C)CC1)C(=O)c1ccccc1C2=O

>  <Energy>  (11) 
91.57904009339487

>  <Genealogy>  (11) 
CCn1c2c(c(C#N)c1N1CCN(C)CC1)C(=O)c1ccccc1C2=O (3D coordinates assigned)
CCn1c2c(c(C#N)c1N1CCN(C)CC1)C(=O)c1ccccc1C2=O (nonaromatic ring conformer: 91.57904009339487 kcal/mol)

>  <smiles>  (11) 
CCn1c2c(c(C#N)c1N1CCN(C)CC1)C(=O)c1ccccc1C2=O

>  <score_type>  (11) 
oracle

>  <origin>  (11) 
adg

>  <m_score__min__energy>  (11) 
-8.4000000000000004

>  <m_primary>  (11) 
energy

$$$$
11:0
     RDKit          3D

 37 38  0  0  0  0  0  0  0  0999 V2000
   -6.8510   24.7300  -30.0200 C   0  0  0  0  0  0  0  0  0  0  0  0
   -5.6060   25.6000  -30.2270 C   0  0  0  0  0  0  0  0  0  0  0  0
   -4.6040   24.9440  -31.0920 N   0  0  0  0  0  0  0  0  0  0  0  0
   -3.7220   24.0380  -30.3360 C   0  0  0  0  0  0  0  0  0  0  0  0
   -3.7570   22.6370  -30.9530 C   0  0  0  0  0  0  0  0  0  0  0  0
   -5.0970   22.3400  -31.4640 N   0  0  0  0  0  0  0  0  0  0  0  0
   -5.3550   21.1140  -32.1660 C   0  0  0  0  0  0  0  0  0  0  0  0
   -4.3120   20.5090  -32.8610 C   0  0  0  0  0  0  0  0  0  0  0  0
   -4.5080   19.2800  -33.4840 C   0  0  0  0  0  0  0  0  0  0  0  0
   -5.7170   18.6420  -33.4310 N   0  0  0  0  0  0  0  0  0  0  0  0
   -5.8410   17.3320  -34.0950 C   0  0  0  0  0  0  0  0  0  0  0  0
   -6.7840   19.2240  -32.7760 C   0  0  0  0  0  0  0  0  0  0  0  0
   -8.0510   18.5960  -32.7140 C   0  0  0  0  0  0  0  0  0  0  0  0
   -9.1270   19.2200  -32.0840 C   0  0  0  0  0  0  0  0  0  0  0  0
   -8.9720   20.4810  -31.5150 C   0  0  0  0  0  0  0  0  0  0  0  0
   -7.7340   21.1190  -31.5510 C   0  0  0  0  0  0  0  0  0  0  0  0
   -6.6230   20.4940  -32.1490 C   0  0  0  0  0  0  0  0  0  0  0  0
   -7.0340   24.6021  -28.9429 H   0  0  0  0  0  0  0  0  0  0  0  0
   -7.7207   25.2180  -30.4843 H   0  0  0  0  0  0  0  0  0  0  0  0
   -6.6917   23.7456  -30.4843 H   0  0  0  0  0  0  0  0  0  0  0  0
   -5.9103   26.5484  -30.6938 H   0  0  0  0  0  0  0  0  0  0  0  0
   -5.1442   25.7680  -29.2429 H   0  0  0  0  0  0  0  0  0  0  0  0
   -4.0240   25.6720  -31.5740 H   0  0  0  0  0  0  0  0  0  0  0  0
   -2.6922   24.4235  -30.3658 H   0  0  0  0  0  0  0  0  0  0  0  0
   -4.0697   23.9822  -29.2939 H   0  0  0  0  0  0  0  0  0  0  0  0
   -3.0338   22.5866  -31.7803 H   0  0  0  0  0  0  0  0  0  0  0  0
   -3.4972   21.8989  -30.1799 H   0  0  0  0  0  0  0  0  0  0  0  0
   -5.7190   23.1560  -31.6660 H   0  0  0  0  0  0  0  0  0  0  0  0
   -3.3309   21.0031  -32.9180 H   0  0  0  0  0  0  0  0  0  0  0  0
   -3.6749   18.8127  -34.0294 H   0  0  0  0  0  0  0  0  0  0  0  0
   -5.9159   16.5410  -33.3343 H   0  0  0  0  0  0  0  0  0  0  0  0
   -6.7440   17.3233  -34.7231 H   0  0  0  0  0  0  0  0  0  0  0  0
   -4.9557   17.1540  -34.7231 H   0  0  0  0  0  0  0  0  0  0  0  0
   -8.1884   17.6037  -33.1683 H   0  0  0  0  0  0  0  0  0  0  0  0
  -10.1024   18.7138  -32.0364 H   0  0  0  0  0  0  0  0  0  0  0  0
   -9.8297   20.9753  -31.0354 H   0  0  0  0  0  0  0  0  0  0  0  0
   -7.6235   22.1199  -31.1083 H   0  0  0  0  0  0  0  0  0  0  0  0
  1  2  1  0
  2  3  1  0
  3  4  1  0
  4  5  1  0
  5  6  1  0
  6  7  1  0
  7  8  2  0
  8  9  1  0
  9 10  2  0
 10 11  1  0
 10 12  1  0
 12 13  2  0
 13 14  1  0
 14 15  2  0
 15 16  1  0
 16 17  2  0
 17  7  1  0
 17 12  1  0
  1 18  1  0
  1 19  1  0
  1 20  1  0
  2 21  1  0
  2 22  1  0
  3 23  1  0
  4 24  1  0
  4 25  1  0
  5 26  1  0
  5 27  1  0
  6 28  1  0
  8 29  1  0
  9 30  1  0
 11 31  1  0
 11 32  1  0
 11 33  1  0
 13 34  1  0
 14 35  1  0
 15 36  1  0
 16 37  1  0
M  CHG  1  10   1
M  END
>  <UniqueID>  (12) 
12

>  <SMILES>  (12) 
CCNCCNc1cc[n+](C)c2ccccc12

>  <Energy>  (12) 
46.55292101000687

>  <Genealogy>  (12) 
CCNCCNc1cc[n+](C)c2ccccc12 (3D coordinates assigned)
CCNCCNc1cc[n+](C)c2ccccc12 (optimized conformer: 46.55292101000687 kcal/mol)

>  <smiles>  (12) 
CCNCCNc1cc[n+](C)c2ccccc12

>  <score_type>  (12) 
oracle

>  <origin>  (12) 
adg

>  <m_score__min__energy>  (12) 
-6.96

>  <m_primary>  (12) 
energy

$$$$
12:0
     RDKit          3D

 34 37  0  0  0  0  0  0  0  0999 V2000
   -9.4900   21.8080  -31.9250 C   0  0  0  0  0  0  0  0  0  0  0  0
   -8.6290   20.8300  -31.1300 C   0  0  0  0  0  0  0  0  0  0  0  0
   -7.3000   20.6960  -31.7400 N   0  0  0  0  0  0  0  0  0  0  0  0
   -6.8750   19.5930  -32.4150 C   0  0  0  0  0  0  0  0  0  0  0  0
   -7.6200   18.4630  -32.7790 C   0  0  0  0  0  0  0  0  0  0  0  0
   -6.9620   17.4200  -33.4560 C   0  0  0  0  0  0  0  0  0  0  0  0
   -5.5870   17.5150  -33.7540 C   0  0  0  0  0  0  0  0  0  0  0  0
   -4.8570   18.6560  -33.3810 C   0  0  0  0  0  0  0  0  0  0  0  0
   -5.5370   19.6770  -32.7170 C   0  0  0  0  0  0  0  0  0  0  0  0
   -5.1040   20.8820  -32.2250 C   0  0  0  0  0  0  0  0  0  0  0  0
   -3.8240   21.4200  -32.2120 C   0  0  0  0  0  0  0  0  0  0  0  0
   -3.6360   22.6600  -31.6000 C   0  0  0  0  0  0  0  0  0  0  0  0
   -4.7290   23.3670  -31.0530 C   0  0  0  0  0  0  0  0  0  0  0  0
   -4.5100   24.6300  -30.4810 C   0  0  0  0  0  0  0  0  0  0  0  0
   -5.5780   25.3800  -29.9950 C   0  0  0  0  0  0  0  0  0  0  0  0
   -6.8770   24.8900  -30.0980 C   0  0  0  0  0  0  0  0  0  0  0  0
   -7.1190   23.6320  -30.6580 C   0  0  0  0  0  0  0  0  0  0  0  0
   -6.0520   22.8210  -31.1020 C   0  0  0  0  0  0  0  0  0  0  0  0
   -6.2030   21.5170  -31.6590 C   0  0  0  0  0  0  0  0  0  0  0  0
  -10.0538   22.4484  -31.2307 H   0  0  0  0  0  0  0  0  0  0  0  0
   -8.8442   22.4337  -32.5586 H   0  0  0  0  0  0  0  0  0  0  0  0
  -10.1925   21.2467  -32.5586 H   0  0  0  0  0  0  0  0  0  0  0  0
   -8.5182   21.2007  -30.1003 H   0  0  0  0  0  0  0  0  0  0  0  0
   -9.1196   19.8454  -31.1299 H   0  0  0  0  0  0  0  0  0  0  0  0
   -8.6918   18.3934  -32.5414 H   0  0  0  0  0  0  0  0  0  0  0  0
   -7.5245   16.5233  -33.7552 H   0  0  0  0  0  0  0  0  0  0  0  0
   -5.0833   16.6914  -34.2813 H   0  0  0  0  0  0  0  0  0  0  0  0
   -3.7835   18.7415  -33.6054 H   0  0  0  0  0  0  0  0  0  0  0  0
   -2.9810   20.8833  -32.6717 H   0  0  0  0  0  0  0  0  0  0  0  0
   -2.6256   23.0912  -31.5431 H   0  0  0  0  0  0  0  0  0  0  0  0
   -3.4874   25.0302  -30.4162 H   0  0  0  0  0  0  0  0  0  0  0  0
   -5.3952   26.3598  -29.5296 H   0  0  0  0  0  0  0  0  0  0  0  0
   -7.7196   25.4974  -29.7359 H   0  0  0  0  0  0  0  0  0  0  0  0
   -8.1532   23.2697  -30.7538 H   0  0  0  0  0  0  0  0  0  0  0  0
  1  2  1  0
  2  3  1  0
  3  4  1  0
  4  5  2  0
  5  6  1  0
  6  7  2  0
  7  8  1  0
  8  9  2  0
  9 10  1  0
 10 11  2  0
 11 12  1  0
 12 13  2  0
 13 14  1  0
 14 15  2  0
 15 16  1  0
 16 17  2  0
 17 18  1  0
 18 19  2  0
 19  3  1  0
  9  4  1  0
 19 10  1  0
 18 13  1  0
  1 20  1  0
  1 21  1  0
  1 22  1  0
  2 23  1  0
  2 24  1  0
  5 25  1  0
  6 26  1  0
  7 27  1  0
  8 28  1  0
 11 29  1  0
 12 30  1  0
 14 31  1  0
 15 32  1  0
 16 33  1  0
 17 34  1  0
M  END
>  <UniqueID>  (13) 
13

>  <SMILES>  (13) 
CCn1c2ccccc2c2ccc3ccccc3c21

>  <Energy>  (13) 
89.29149171962575

>  <Genealogy>  (13) 
CCn1c2ccccc2c2ccc3ccccc3c21 (3D coordinates assigned)
CCn1c2ccccc2c2ccc3ccccc3c21 (optimized conformer: 89.29149171962575 kcal/mol)

>  <smiles>  (13) 
CCn1c2ccccc2c2ccc3ccccc3c21

>  <score_type>  (13) 
oracle

>  <origin>  (13) 
adg

>  <m_score__min__energy>  (13) 
-8.0999999999999996

>  <m_primary>  (13) 
energy

$$$$
13:0
     RDKit          3D

 86 89  0  0  0  0  0  0  0  0999 V2000
   -0.2380   19.3440  -29.0310 C   0  0  0  0  0  0  0  0  0  0  0  0
    0.1880   20.2550  -30.1780 C   0  0  0  0  0  0  0  0  0  0  0  0
    0.1970   19.5010  -31.4540 N   0  0  0  0  0  0  0  0  0  0  0  0
    1.4280   18.7000  -31.5690 C   0  0  0  0  0  0  0  0  0  0  0  0
    0.0730   20.4060  -32.6160 C   0  0  0  0  0  0  0  0  0  0  0  0
   -1.2130   20.0880  -33.4050 C   0  0  0  0  0  0  0  0  0  0  0  0
   -2.0890   19.1370  -32.6910 N   0  0  0  0  0  0  0  0  0  0  0  0
   -3.0920   18.5400  -33.5660 C   0  0  0  0  0  0  0  0  0  0  0  0
   -2.7630   17.4330  -34.3790 C   0  0  0  0  0  0  0  0  0  0  0  0
   -1.4510   17.2390  -34.8610 C   0  0  0  0  0  0  0  0  0  0  0  0
   -1.1400   16.1350  -35.6530 C   0  0  0  0  0  0  0  0  0  0  0  0
   -2.1300   15.2180  -35.9880 C   0  0  0  0  0  0  0  0  0  0  0  0
   -3.4340   15.3930  -35.5250 C   0  0  0  0  0  0  0  0  0  0  0  0
   -3.7720   16.4920  -34.6970 C   0  0  0  0  0  0  0  0  0  0  0  0
   -5.0430   16.6530  -34.1860 N   0  0  0  0  0  0  0  0  0  0  0  0
   -5.9860   15.5140  -34.1700 C   0  0  0  0  0  0  0  0  0  0  0  0
   -5.4330   17.8910  -33.7100 C   0  0  0  0  0  0  0  0  0  0  0  0
   -6.7910   18.1920  -33.4640 C   0  0  0  0  0  0  0  0  0  0  0  0
   -7.1830   19.4530  -33.0380 C   0  0  0  0  0  0  0  0  0  0  0  0
   -6.2530   20.4930  -32.9310 C   0  0  0  0  0  0  0  0  0  0  0  0
   -6.6520   21.8130  -32.6670 O   0  0  0  0  0  0  0  0  0  0  0  0
   -7.5520   22.2390  -31.6460 C   0  0  0  0  0  0  0  0  0  0  0  0
   -7.2780   23.7020  -31.2710 C   0  0  0  0  0  0  0  0  0  0  0  0
   -5.7930   24.0810  -31.4140 C   0  0  0  0  0  0  0  0  0  0  0  0
   -5.2770   24.9930  -30.2930 C   0  0  0  0  0  0  0  0  0  0  0  0
   -3.8640   25.3100  -30.4850 N   0  0  0  0  0  0  0  0  0  0  0  0
   -4.8860   20.2270  -33.1500 C   0  0  0  0  0  0  0  0  0  0  0  0
   -3.9650   21.3330  -33.2340 N   0  0  0  0  0  0  0  0  0  0  0  0
   -3.4220   21.9800  -32.0330 C   0  0  0  0  0  0  0  0  0  0  0  0
   -3.9660   21.3230  -30.7580 C   0  0  0  0  0  0  0  0  0  0  0  0
   -2.9750   21.4760  -29.5950 C   0  0  0  0  0  0  0  0  0  0  0  0
   -2.6580   22.8980  -29.3390 N   0  0  0  0  0  0  0  0  0  0  0  0
   -3.0320   23.2600  -27.9590 C   0  0  0  0  0  0  0  0  0  0  0  0
   -2.7360   24.7520  -27.6960 C   0  0  0  0  0  0  0  0  0  0  0  0
   -1.9720   25.3440  -28.7330 O   0  0  0  0  0  0  0  0  0  0  0  0
   -0.8270   24.5580  -28.9860 C   0  0  0  0  0  0  0  0  0  0  0  0
   -1.2220   23.1850  -29.5640 C   0  0  0  0  0  0  0  0  0  0  0  0
   -4.4610   18.9010  -33.4670 C   0  0  0  0  0  0  0  0  0  0  0  0
   -0.0101   19.8314  -28.0716 H   0  0  0  0  0  0  0  0  0  0  0  0
   -1.3191   19.1523  -29.0972 H   0  0  0  0  0  0  0  0  0  0  0  0
    0.3080   18.3914  -29.0972 H   0  0  0  0  0  0  0  0  0  0  0  0
   -0.5185   21.0945  -30.2569 H   0  0  0  0  0  0  0  0  0  0  0  0
    1.2010   20.6343  -29.9780 H   0  0  0  0  0  0  0  0  0  0  0  0
    1.8022   18.4565  -30.5637 H   0  0  0  0  0  0  0  0  0  0  0  0
    1.2106   17.7699  -32.1146 H   0  0  0  0  0  0  0  0  0  0  0  0
    2.1903   19.2755  -32.1146 H   0  0  0  0  0  0  0  0  0  0  0  0
    0.0344   21.4471  -32.2630 H   0  0  0  0  0  0  0  0  0  0  0  0
    0.9422   20.2644  -33.2751 H   0  0  0  0  0  0  0  0  0  0  0  0
   -1.7672   21.0238  -33.5699 H   0  0  0  0  0  0  0  0  0  0  0  0
   -0.9170   19.6228  -34.3568 H   0  0  0  0  0  0  0  0  0  0  0  0
   -2.5560   19.6140  -31.8870 H   0  0  0  0  0  0  0  0  0  0  0  0
   -1.4460   18.4240  -32.2950 H   0  0  0  0  0  0  0  0  0  0  0  0
   -0.6655   17.9667  -34.6091 H   0  0  0  0  0  0  0  0  0  0  0  0
   -0.1109   15.9892  -36.0132 H   0  0  0  0  0  0  0  0  0  0  0  0
   -1.8841   14.3519  -36.6200 H   0  0  0  0  0  0  0  0  0  0  0  0
   -4.2112   14.6674  -35.8067 H   0  0  0  0  0  0  0  0  0  0  0  0
   -6.2127   15.2402  -33.1290 H   0  0  0  0  0  0  0  0  0  0  0  0
   -6.9152   15.8000  -34.6845 H   0  0  0  0  0  0  0  0  0  0  0  0
   -5.5316   14.6545  -34.6845 H   0  0  0  0  0  0  0  0  0  0  0  0
   -7.5522   17.4120  -33.6130 H   0  0  0  0  0  0  0  0  0  0  0  0
   -8.2367   19.6372  -32.7815 H   0  0  0  0  0  0  0  0  0  0  0  0
   -8.5854   22.1454  -32.0110 H   0  0  0  0  0  0  0  0  0  0  0  0
   -7.4081   21.6085  -30.7562 H   0  0  0  0  0  0  0  0  0  0  0  0
   -7.8726   24.3520  -31.9298 H   0  0  0  0  0  0  0  0  0  0  0  0
   -7.5553   23.8329  -30.2146 H   0  0  0  0  0  0  0  0  0  0  0  0
   -5.1971   23.1564  -31.4111 H   0  0  0  0  0  0  0  0  0  0  0  0
   -5.6942   24.6420  -32.3550 H   0  0  0  0  0  0  0  0  0  0  0  0
   -5.8584   25.9268  -30.2926 H   0  0  0  0  0  0  0  0  0  0  0  0
   -5.3912   24.4677  -29.3333 H   0  0  0  0  0  0  0  0  0  0  0  0
   -3.5950   26.0390  -29.7850 H   0  0  0  0  0  0  0  0  0  0  0  0
   -3.3100   24.4540  -30.2530 H   0  0  0  0  0  0  0  0  0  0  0  0
   -3.5160   21.5290  -34.1590 H   0  0  0  0  0  0  0  0  0  0  0  0
   -2.3255   21.8926  -32.0424 H   0  0  0  0  0  0  0  0  0  0  0  0
   -3.7256   23.0373  -32.0381 H   0  0  0  0  0  0  0  0  0  0  0  0
   -4.9181   21.8014  -30.4848 H   0  0  0  0  0  0  0  0  0  0  0  0
   -4.1157   20.2507  -30.9524 H   0  0  0  0  0  0  0  0  0  0  0  0
   -3.4178   21.0392  -28.6878 H   0  0  0  0  0  0  0  0  0  0  0  0
   -2.0433   20.9567  -29.8638 H   0  0  0  0  0  0  0  0  0  0  0  0
   -4.1060   23.0722  -27.8133 H   0  0  0  0  0  0  0  0  0  0  0  0
   -2.4435   22.6501  -27.2578 H   0  0  0  0  0  0  0  0  0  0  0  0
   -3.6908   25.2913  -27.6091 H   0  0  0  0  0  0  0  0  0  0  0  0
   -2.1488   24.8182  -26.7682 H   0  0  0  0  0  0  0  0  0  0  0  0
   -0.1828   25.0813  -29.7079 H   0  0  0  0  0  0  0  0  0  0  0  0
   -0.2912   24.4005  -28.0383 H   0  0  0  0  0  0  0  0  0  0  0  0
   -1.0211   23.1805  -30.6455 H   0  0  0  0  0  0  0  0  0  0  0  0
   -0.6297   22.4108  -29.0543 H   0  0  0  0  0  0  0  0  0  0  0  0
  1  2  1  0
  2  3  1  0
  3  4  1  0
  3  5  1  0
  5  6  1  0
  6  7  1  0
  7  8  1  0
  8  9  2  0
  9 10  1  0
 10 11  2  0
 11 12  1  0
 12 13  2  0
 13 14  1  0
 14 15  2  0
 15 16  1  0
 15 17  1  0
 17 18  2  0
 18 19  1  0
 19 20  2  0
 20 21  1  0
 21 22  1  0
 22 23  1  0
 23 24  1  0
 24 25  1  0
 25 26  1  0
 20 27  1  0
 27 28  1  0
 28 29  1  0
 29 30  1  0
 30 31  1  0
 31 32  1  0
 32 33  1  0
 33 34  1  0
 34 35  1  0
 35 36  1  0
 36 37  1  0
 27 38  2  0
 38  8  1  0
 14  9  1  0
 38 17  1  0
 37 32  1  0
  1 39  1  0
  1 40  1  0
  1 41  1  0
  2 42  1  0
  2 43  1  0
  4 44  1  0
  4 45  1  0
  4 46  1  0
  5 47  1  0
  5 48  1  0
  6 49  1  0
  6 50  1  0
  7 51  1  0
  7 52  1  0
 10 53  1  0
 11 54  1  0
 12 55  1  0
 13 56  1  0
 16 57  1  0
 16 58  1  0
 16 59  1  0
 18 60  1  0
 19 61  1  0
 22 62  1  0
 22 63  1  0
 23 64  1  0
 23 65  1  0
 24 66  1  0
 24 67  1  0
 25 68  1  0
 25 69  1  0
 26 70  1  0
 26 71  1  0
 28 72  1  0
 29 73  1  0
 29 74  1  0
 30 75  1  0
 30 76  1  0
 31 77  1  0
 31 78  1  0
 33 79  1  0
 33 80  1  0
 34 81  1  0
 34 82  1  0
 36 83  1  0
 36 84  1  0
 37 85  1  0
 37 86  1  0
M  CHG  2   7   1  15   1
M  END
>  <UniqueID>  (14) 
14

>  <SMILES>  (14) 
CCN(C)CC[NH2+]c1c2ccccc2[n+](C)c2ccc(OCCCCN)c(NCCCN3CCOCC3)c12

>  <Energy>  (14) 
128.94410339042855

>  <Genealogy>  (14) 
CCN(C)CC[NH2+]c1c2ccccc2[n+](C)c2ccc(OCCCCN)c(NCCCN3CCOCC3)c12 (protonated)
CCN(C)CC[NH2+]c1c2ccccc2[n+](C)c2ccc(OCCCCN)c(NCCCN3CCOCC3)c12 (3D coordinates assigned)
CCN(C)CC[NH2+]c1c2ccccc2[n+](C)c2ccc(OCCCCN)c(NCCCN3CCOCC3)c12 (nonaromatic ring conformer: 128.94410339042855 kcal/mol)

>  <smiles>  (14) 
CCN(C)CCNc1c2ccccc2[n+](C)c2ccc(OCCCCN)c(NCCCN3CCOCC3)c12

>  <score_type>  (14) 
oracle

>  <origin>  (14) 
adg

>  <m_score__min__energy>  (14) 
-8.9700000000000006

>  <m_primary>  (14) 
energy

$$$$
14:0
     RDKit          3D

 67 69  0  0  0  0  0  0  0  0999 V2000
   -2.8870   16.4540  -34.5880 C   0  0  0  0  0  0  0  0  0  0  0  0
   -3.4800   16.2970  -33.1800 C   0  0  0  0  0  0  0  0  0  0  0  0
   -4.8800   15.7990  -33.1570 N   0  0  0  0  0  0  0  0  0  0  0  0
   -4.9940   14.3520  -32.8520 C   0  0  0  0  0  0  0  0  0  0  0  0
   -4.2340   13.9740  -31.5810 C   0  0  0  0  0  0  0  0  0  0  0  0
   -5.6110   16.1550  -34.3940 C   0  0  0  0  0  0  0  0  0  0  0  0
   -6.3630   17.4830  -34.2240 C   0  0  0  0  0  0  0  0  0  0  0  0
   -6.0130   18.1270  -32.9560 N   0  0  0  0  0  0  0  0  0  0  0  0
   -5.9310   19.5580  -32.8380 C   0  0  0  0  0  0  0  0  0  0  0  0
   -7.0800   20.3010  -32.4840 C   0  0  0  0  0  0  0  0  0  0  0  0
   -8.3390   19.6660  -32.4030 C   0  0  0  0  0  0  0  0  0  0  0  0
   -9.4700   20.3700  -32.0010 C   0  0  0  0  0  0  0  0  0  0  0  0
   -9.3700   21.7150  -31.6690 C   0  0  0  0  0  0  0  0  0  0  0  0
   -8.1420   22.3700  -31.7500 C   0  0  0  0  0  0  0  0  0  0  0  0
   -6.9720   21.6880  -32.1710 C   0  0  0  0  0  0  0  0  0  0  0  0
   -5.7010   22.3340  -32.2630 C   0  0  0  0  0  0  0  0  0  0  0  0
   -5.4940   23.8060  -31.8970 C   0  0  0  0  0  0  0  0  0  0  0  0
   -4.4170   24.0000  -30.9060 N   0  0  0  0  0  0  0  0  0  0  0  0
   -4.7030   23.4280  -29.5700 C   0  0  2  0  0  0  0  0  0  0  0  0
   -4.6540   24.5500  -28.5210 C   0  0  0  0  0  0  0  0  0  0  0  0
   -3.6790   22.2920  -29.2530 C   0  0  0  0  0  0  0  0  0  0  0  0
   -2.3720   22.3590  -29.9510 N   0  0  0  0  0  0  0  0  0  0  0  0
   -1.5010   23.4640  -29.5210 C   0  0  0  0  0  0  0  0  0  0  0  0
   -1.6540   21.0790  -30.0370 C   0  0  0  0  0  0  0  0  0  0  0  0
   -4.5770   21.5870  -32.6880 C   0  0  0  0  0  0  0  0  0  0  0  0
   -3.3630   22.1970  -32.8180 N   0  0  0  0  0  0  0  0  0  0  0  0
   -2.2530   21.5370  -33.2310 C   0  0  0  0  0  0  0  0  0  0  0  0
   -2.3280   20.1850  -33.5530 C   0  0  0  0  0  0  0  0  0  0  0  0
   -3.5480   19.5220  -33.4350 C   0  0  0  0  0  0  0  0  0  0  0  0
   -4.6920   20.2090  -32.9820 C   0  0  0  0  0  0  0  0  0  0  0  0
   -1.8263   16.7348  -34.5099 H   0  0  0  0  0  0  0  0  0  0  0  0
   -2.9751   15.5016  -35.1313 H   0  0  0  0  0  0  0  0  0  0  0  0
   -3.4348   17.2380  -35.1313 H   0  0  0  0  0  0  0  0  0  0  0  0
   -2.8531   15.5879  -32.6195 H   0  0  0  0  0  0  0  0  0  0  0  0
   -3.4960   17.3014  -32.7316 H   0  0  0  0  0  0  0  0  0  0  0  0
   -6.0564   14.0995  -32.7191 H   0  0  0  0  0  0  0  0  0  0  0  0
   -4.5543   13.7920  -33.6905 H   0  0  0  0  0  0  0  0  0  0  0  0
   -4.8239   14.2674  -30.7001 H   0  0  0  0  0  0  0  0  0  0  0  0
   -4.0655   12.8871  -31.5641 H   0  0  0  0  0  0  0  0  0  0  0  0
   -3.2656   14.4954  -31.5641 H   0  0  0  0  0  0  0  0  0  0  0  0
   -4.8927   16.2514  -35.2215 H   0  0  0  0  0  0  0  0  0  0  0  0
   -6.3425   15.3624  -34.6100 H   0  0  0  0  0  0  0  0  0  0  0  0
   -6.0981   18.1549  -35.0536 H   0  0  0  0  0  0  0  0  0  0  0  0
   -7.4434   17.2760  -34.2249 H   0  0  0  0  0  0  0  0  0  0  0  0
   -5.6810   17.5350  -32.1620 H   0  0  0  0  0  0  0  0  0  0  0  0
   -8.4267   18.6003  -32.6612 H   0  0  0  0  0  0  0  0  0  0  0  0
  -10.4437   19.8611  -31.9461 H   0  0  0  0  0  0  0  0  0  0  0  0
  -10.2637   22.2658  -31.3407 H   0  0  0  0  0  0  0  0  0  0  0  0
   -8.0794   23.4351  -31.4825 H   0  0  0  0  0  0  0  0  0  0  0  0
   -5.2368   24.3630  -32.8100 H   0  0  0  0  0  0  0  0  0  0  0  0
   -6.4291   24.1716  -31.4477 H   0  0  0  0  0  0  0  0  0  0  0  0
   -3.5300   23.6110  -31.3050 H   0  0  0  0  0  0  0  0  0  0  0  0
   -5.7091   22.9836  -29.5512 H   0  0  0  0  0  0  0  0  0  0  0  0
   -4.6732   24.1105  -27.5128 H   0  0  0  0  0  0  0  0  0  0  0  0
   -3.7296   25.1321  -28.6497 H   0  0  0  0  0  0  0  0  0  0  0  0
   -5.5242   25.2105  -28.6497 H   0  0  0  0  0  0  0  0  0  0  0  0
   -3.4806   22.3145  -28.1713 H   0  0  0  0  0  0  0  0  0  0  0  0
   -4.1524   21.3672  -29.6144 H   0  0  0  0  0  0  0  0  0  0  0  0
   -1.4716   23.5013  -28.4220 H   0  0  0  0  0  0  0  0  0  0  0  0
   -0.4847   23.3024  -29.9097 H   0  0  0  0  0  0  0  0  0  0  0  0
   -1.8955   24.4144  -29.9097 H   0  0  0  0  0  0  0  0  0  0  0  0
   -1.4452   20.7068  -29.0231 H   0  0  0  0  0  0  0  0  0  0  0  0
   -2.2731   20.3468  -30.5761 H   0  0  0  0  0  0  0  0  0  0  0  0
   -0.7064   21.2256  -30.5761 H   0  0  0  0  0  0  0  0  0  0  0  0
   -1.2939   22.0696  -33.3115 H   0  0  0  0  0  0  0  0  0  0  0  0
   -1.4334   19.6453  -33.8971 H   0  0  0  0  0  0  0  0  0  0  0  0
   -3.6185   18.4560  -33.6970 H   0  0  0  0  0  0  0  0  0  0  0  0
  1  2  1  0
  2  3  1  0
  3  4  1  0
  4  5  1  0
  3  6  1  0
  6  7  1  0
  7  8  1  0
  8  9  1  0
  9 10  2  0
 10 11  1  0
 11 12  2  0
 12 13  1  0
 13 14  2  0
 14 15  1  0
 15 16  2  0
 16 17  1  0
 17 18  1  0
 18 19  1  0
 19 20  1  0
 19 21  1  0
 21 22  1  0
 22 23  1  0
 22 24  1  0
 16 25  1  0
 25 26  2  0
 26 27  1  0
 27 28  2  0
 28 29  1  0
 29 30  2  0
 30  9  1  0
 15 10  1  0
 30 25  1  0
  1 31  1  0
  1 32  1  0
  1 33  1  0
  2 34  1  0
  2 35  1  0
  4 36  1  0
  4 37  1  0
  5 38  1  0
  5 39  1  0
  5 40  1  0
  6 41  1  0
  6 42  1  0
  7 43  1  0
  7 44  1  0
  8 45  1  0
 11 46  1  0
 12 47  1  0
 13 48  1  0
 14 49  1  0
 17 50  1  0
 17 51  1  0
 18 52  1  0
 19 53  1  6
 20 54  1  0
 20 55  1  0
 20 56  1  0
 21 57  1  0
 21 58  1  0
 23 59  1  0
 23 60  1  0
 23 61  1  0
 24 62  1  0
 24 63  1  0
 24 64  1  0
 27 65  1  0
 28 66  1  0
 29 67  1  0
M  END
>  <UniqueID>  (15) 
15

>  <SMILES>  (15) 
CCN(CC)CCNc1c2ccccc2c(CN[C@H](C)CN(C)C)c2ncccc12

>  <Energy>  (15) 
93.30515565062667

>  <Genealogy>  (15) 
CCN(CC)CCNc1c2ccccc2c(CN[C@H](C)CN(C)C)c2ncccc12 (chirality)
CCN(CC)CCNc1c2ccccc2c(CN[C@H](C)CN(C)C)c2ncccc12 (3D coordinates assigned)
CCN(CC)CCNc1c2ccccc2c(CN[C@H](C)CN(C)C)c2ncccc12 (optimized conformer: 93.30515565062667 kcal/mol)

>  <smiles>  (15) 
CCN(CC)CCNc1c2ccccc2c(CNC(C)CN(C)C)c2ncccc12

>  <score_type>  (15) 
oracle

>  <origin>  (15) 
adg

>  <m_score__min__energy>  (15) 
-8.6199999999999992

>  <m_primary>  (15) 
energy

$$$$
15:0
     RDKit          3D

 48 49  0  0  0  0  0  0  0  0999 V2000
   -3.4410   25.2810  -26.0040 C   0  0  0  0  0  0  0  0  0  0  0  0
   -1.9320   25.5270  -26.0860 C   0  0  0  0  0  0  0  0  0  0  0  0
   -1.1760   24.4340  -26.7280 N   0  0  0  0  0  0  0  0  0  0  0  0
   -0.0010   23.8980  -26.0130 C   0  0  0  0  0  0  0  0  0  0  0  0
   -0.2770   23.4880  -24.5620 C   0  0  0  0  0  0  0  0  0  0  0  0
   -1.1020   24.4870  -28.4770 S   0  0  0  0  0  0  0  0  0  0  0  0
   -1.2640   25.9040  -28.9530 O   0  0  0  0  0  0  0  0  0  0  0  0
    0.2570   24.0120  -28.9130 O   0  0  0  0  0  0  0  0  0  0  0  0
   -2.3210   23.4620  -29.2370 C   0  0  0  0  0  0  0  0  0  0  0  0
   -2.1910   22.0670  -29.1830 C   0  0  0  0  0  0  0  0  0  0  0  0
   -3.1540   21.2440  -29.7700 C   0  0  0  0  0  0  0  0  0  0  0  0
   -4.2530   21.8060  -30.4270 C   0  0  0  0  0  0  0  0  0  0  0  0
   -5.1560   21.0120  -30.9890 O   0  0  0  0  0  0  0  0  0  0  0  0
   -6.2250   21.4670  -31.6360 C   0  0  0  0  0  0  0  0  0  0  0  0
   -7.1190   20.4640  -32.2470 C   0  0  0  0  0  0  0  0  0  0  0  0
   -8.2580   20.2840  -31.7330 O   0  0  0  0  0  0  0  0  0  0  0  0
   -6.6440   19.5830  -33.2940 N   0  0  0  0  0  0  0  0  0  0  0  0
   -6.7050   18.1750  -32.8690 C   0  0  0  0  0  0  0  0  0  0  0  0
   -5.2680   19.9520  -33.6600 C   0  0  0  0  0  0  0  0  0  0  0  0
   -6.4670   22.8610  -31.7150 C   0  0  0  0  0  0  0  0  0  0  0  0
   -7.7080   23.4170  -32.3720 C   0  0  0  0  0  0  0  0  0  0  0  0
   -5.5120   23.7330  -31.1600 C   0  0  0  0  0  0  0  0  0  0  0  0
   -5.6680   24.9830  -31.2490 O   0  0  0  0  0  0  0  0  0  0  0  0
   -4.3890   23.2070  -30.5010 C   0  0  0  0  0  0  0  0  0  0  0  0
   -3.4130   24.0290  -29.9090 C   0  0  0  0  0  0  0  0  0  0  0  0
   -3.7475   25.2310  -24.9488 H   0  0  0  0  0  0  0  0  0  0  0  0
   -3.9743   26.1041  -26.5022 H   0  0  0  0  0  0  0  0  0  0  0  0
   -3.6853   24.3312  -26.5022 H   0  0  0  0  0  0  0  0  0  0  0  0
   -1.7633   26.4485  -26.6626 H   0  0  0  0  0  0  0  0  0  0  0  0
   -1.5663   25.5996  -25.0511 H   0  0  0  0  0  0  0  0  0  0  0  0
    0.3596   23.0132  -26.5581 H   0  0  0  0  0  0  0  0  0  0  0  0
    0.7409   24.7092  -25.9749 H   0  0  0  0  0  0  0  0  0  0  0  0
    0.2052   24.2043  -23.8805 H   0  0  0  0  0  0  0  0  0  0  0  0
   -1.3622   23.4843  -24.3821 H   0  0  0  0  0  0  0  0  0  0  0  0
    0.1279   22.4812  -24.3821 H   0  0  0  0  0  0  0  0  0  0  0  0
   -1.3248   21.6181  -28.6749 H   0  0  0  0  0  0  0  0  0  0  0  0
   -3.0479   20.1505  -29.7155 H   0  0  0  0  0  0  0  0  0  0  0  0
   -7.2390   19.6920  -34.1480 H   0  0  0  0  0  0  0  0  0  0  0  0
   -6.7072   18.1234  -31.7702 H   0  0  0  0  0  0  0  0  0  0  0  0
   -7.6240   17.7136  -33.2596 H   0  0  0  0  0  0  0  0  0  0  0  0
   -5.8294   17.6358  -33.2596 H   0  0  0  0  0  0  0  0  0  0  0  0
   -4.6757   20.1108  -32.7468 H   0  0  0  0  0  0  0  0  0  0  0  0
   -4.8170   19.1431  -34.2535 H   0  0  0  0  0  0  0  0  0  0  0  0
   -5.2822   20.8781  -34.2535 H   0  0  0  0  0  0  0  0  0  0  0  0
   -8.4210   23.7365  -31.5977 H   0  0  0  0  0  0  0  0  0  0  0  0
   -7.4362   24.2794  -32.9984 H   0  0  0  0  0  0  0  0  0  0  0  0
   -8.1707   22.6401  -32.9984 H   0  0  0  0  0  0  0  0  0  0  0  0
   -3.5071   25.1231  -29.9737 H   0  0  0  0  0  0  0  0  0  0  0  0
  1  2  1  0
  2  3  1  0
  3  4  1  0
  4  5  1  0
  3  6  1  0
  6  7  2  0
  6  8  2  0
  6  9  1  0
  9 10  2  0
 10 11  1  0
 11 12  2  0
 12 13  1  0
 13 14  1  0
 14 15  1  0
 15 16  2  0
 15 17  1  0
 17 18  1  0
 17 19  1  0
 14 20  2  0
 20 21  1  0
 20 22  1  0
 22 23  2  0
 22 24  1  0
 24 25  2  0
 25  9  1  0
 24 12  1  0
  1 26  1  0
  1 27  1  0
  1 28  1  0
  2 29  1  0
  2 30  1  0
  4 31  1  0
  4 32  1  0
  5 33  1  0
  5 34  1  0
  5 35  1  0
 10 36  1  0
 11 37  1  0
 17 38  1  0
 18 39  1  0
 18 40  1  0
 18 41  1  0
 19 42  1  0
 19 43  1  0
 19 44  1  0
 21 45  1  0
 21 46  1  0
 21 47  1  0
 25 48  1  0
M  CHG  1  17   1
M  END
>  <UniqueID>  (16) 
16

>  <SMILES>  (16) 
CCN(CC)S(=O)(=O)c1ccc2oc(C(=O)[NH+](C)C)c(C)c(=O)c2c1

>  <Energy>  (16) 
67.35575997621258

>  <Genealogy>  (16) 
CCN(CC)S(=O)(=O)c1ccc2oc(C(=O)[NH+](C)C)c(C)c(=O)c2c1 (protonated)
CCN(CC)S(=O)(=O)c1ccc2oc(C(=O)[NH+](C)C)c(C)c(=O)c2c1 (3D coordinates assigned)
CCN(CC)S(=O)(=O)c1ccc2oc(C(=O)[NH+](C)C)c(C)c(=O)c2c1 (optimized conformer: 67.35575997621258 kcal/mol)

>  <smiles>  (16) 
CCN(CC)S(=O)(=O)c1ccc2oc(C(=O)N(C)C)c(C)c(=O)c2c1

>  <score_type>  (16) 
oracle

>  <origin>  (16) 
adg

>  <m_score__min__energy>  (16) 
-7.5199999999999996

>  <m_primary>  (16) 
energy

$$$$
16:0
     RDKit          3D

 63 66  0  0  0  0  0  0  0  0999 V2000
   -2.0840   22.1330  -29.0700 C   0  0  0  0  0  0  0  0  0  0  0  0
   -1.7010   23.4660  -29.7030 C   0  0  0  0  0  0  0  0  0  0  0  0
   -2.2450   24.5790  -28.8920 N   0  0  0  0  0  0  0  0  0  0  0  0
   -1.2100   25.5860  -28.5470 C   0  0  0  0  0  0  0  0  0  0  0  0
   -1.1650   25.9670  -27.0580 C   0  0  0  0  0  0  0  0  0  0  0  0
   -3.0550   24.0980  -27.7490 C   0  0  0  0  0  0  0  0  0  0  0  0
   -4.5350   24.4820  -27.8930 C   0  0  0  0  0  0  0  0  0  0  0  0
   -4.9060   24.6220  -29.3030 N   0  0  0  0  0  0  0  0  0  0  0  0
   -5.4390   23.5420  -30.0950 C   0  0  0  0  0  0  0  0  0  0  0  0
   -6.7430   23.1070  -29.8610 C   0  0  0  0  0  0  0  0  0  0  0  0
   -7.2860   22.0670  -30.6070 C   0  0  0  0  0  0  0  0  0  0  0  0
   -6.5500   21.4310  -31.6240 C   0  0  0  0  0  0  0  0  0  0  0  0
   -5.2010   21.8410  -31.8570 C   0  0  0  0  0  0  0  0  0  0  0  0
   -4.6790   22.9050  -31.0880 C   0  0  0  0  0  0  0  0  0  0  0  0
   -4.2800   21.2290  -32.8670 C   0  0  0  0  0  0  0  0  0  0  0  0
   -3.3210   21.9200  -33.3100 O   0  0  0  0  0  0  0  0  0  0  0  0
   -4.3720   19.8280  -33.3320 C   0  0  0  0  0  0  0  0  0  0  0  0
   -3.2090   19.0420  -33.3500 C   0  0  0  0  0  0  0  0  0  0  0  0
   -3.2470   17.7260  -33.8150 C   0  0  0  0  0  0  0  0  0  0  0  0
   -4.4470   17.1760  -34.2890 C   0  0  0  0  0  0  0  0  0  0  0  0
   -4.5000   15.8030  -34.7280 N   0  0  0  0  0  0  0  0  0  0  0  0
   -4.1420   14.9290  -33.6370 C   0  0  0  0  0  0  0  0  0  0  0  0
   -4.9730   14.8310  -32.5060 C   0  0  0  0  0  0  0  0  0  0  0  0
   -4.6160   14.0120  -31.4310 C   0  0  0  0  0  0  0  0  0  0  0  0
   -3.4240   13.2850  -31.4720 C   0  0  0  0  0  0  0  0  0  0  0  0
   -2.5860   13.3770  -32.5870 C   0  0  0  0  0  0  0  0  0  0  0  0
   -2.9380   14.1940  -33.6650 C   0  0  0  0  0  0  0  0  0  0  0  0
   -2.1080   14.2680  -34.7370 F   0  0  0  0  0  0  0  0  0  0  0  0
   -5.6070   17.9670  -34.2880 C   0  0  0  0  0  0  0  0  0  0  0  0
   -5.5720   19.2930  -33.8270 C   0  0  0  0  0  0  0  0  0  0  0  0
   -6.8260   20.1130  -33.8000 C   0  0  0  0  0  0  0  0  0  0  0  0
   -7.2640   20.3080  -32.3530 C   0  0  0  0  0  0  0  0  0  0  0  0
   -2.0572   22.2263  -27.9743 H   0  0  0  0  0  0  0  0  0  0  0  0
   -3.0988   21.8535  -29.3895 H   0  0  0  0  0  0  0  0  0  0  0  0
   -1.3723   21.3574  -29.3895 H   0  0  0  0  0  0  0  0  0  0  0  0
   -0.6050   23.5479  -29.7476 H   0  0  0  0  0  0  0  0  0  0  0  0
   -2.1174   23.5191  -30.7197 H   0  0  0  0  0  0  0  0  0  0  0  0
   -0.2273   25.1792  -28.8278 H   0  0  0  0  0  0  0  0  0  0  0  0
   -1.4683   26.5026  -29.0976 H   0  0  0  0  0  0  0  0  0  0  0  0
   -1.2721   25.0605  -26.4442 H   0  0  0  0  0  0  0  0  0  0  0  0
   -0.2034   26.4512  -26.8323 H   0  0  0  0  0  0  0  0  0  0  0  0
   -1.9873   26.6619  -26.8323 H   0  0  0  0  0  0  0  0  0  0  0  0
   -2.9759   23.0023  -27.6934 H   0  0  0  0  0  0  0  0  0  0  0  0
   -2.6679   24.5709  -26.8344 H   0  0  0  0  0  0  0  0  0  0  0  0
   -5.1562   23.6990  -27.4336 H   0  0  0  0  0  0  0  0  0  0  0  0
   -4.6973   25.4469  -27.3904 H   0  0  0  0  0  0  0  0  0  0  0  0
   -4.7710   25.5510  -29.7680 H   0  0  0  0  0  0  0  0  0  0  0  0
   -7.3472   23.5908  -29.0795 H   0  0  0  0  0  0  0  0  0  0  0  0
   -8.3133   21.7340  -30.3977 H   0  0  0  0  0  0  0  0  0  0  0  0
   -3.6487   23.2434  -31.2726 H   0  0  0  0  0  0  0  0  0  0  0  0
   -2.2587   19.4669  -32.9944 H   0  0  0  0  0  0  0  0  0  0  0  0
   -2.3308   17.1173  -33.8096 H   0  0  0  0  0  0  0  0  0  0  0  0
   -3.8560   15.6530  -35.5390 H   0  0  0  0  0  0  0  0  0  0  0  0
   -5.4640   15.5760  -35.0680 H   0  0  0  0  0  0  0  0  0  0  0  0
   -5.9114   15.4036  -32.4674 H   0  0  0  0  0  0  0  0  0  0  0  0
   -5.2740   13.9400  -30.5524 H   0  0  0  0  0  0  0  0  0  0  0  0
   -3.1445   12.6396  -30.6262 H   0  0  0  0  0  0  0  0  0  0  0  0
   -1.6470   12.8048  -32.6161 H   0  0  0  0  0  0  0  0  0  0  0  0
   -6.5543   17.5431  -34.6526 H   0  0  0  0  0  0  0  0  0  0  0  0
   -6.6353   21.0928  -34.2623 H   0  0  0  0  0  0  0  0  0  0  0  0
   -7.6188   19.5959  -34.3605 H   0  0  0  0  0  0  0  0  0  0  0  0
   -8.3422   20.5258  -32.3470 H   0  0  0  0  0  0  0  0  0  0  0  0
   -7.0091   19.3791  -31.8217 H   0  0  0  0  0  0  0  0  0  0  0  0
  1  2  1  0
  2  3  1  0
  3  4  1  0
  4  5  1  0
  3  6  1  0
  6  7  1  0
  7  8  1  0
  8  9  1  0
  9 10  2  0
 10 11  1  0
 11 12  2  0
 12 13  1  0
 13 14  2  0
 13 15  1  0
 15 16  2  0
 15 17  1  0
 17 18  2  0
 18 19  1  0
 19 20  2  0
 20 21  1  0
 21 22  1  0
 22 23  2  0
 23 24  1  0
 24 25  2  0
 25 26  1  0
 26 27  2  0
 27 28  1  0
 20 29  1  0
 29 30  2  0
 30 31  1  0
 31 32  1  0
 14  9  1  0
 30 17  1  0
 32 12  1  0
 27 22  1  0
  1 33  1  0
  1 34  1  0
  1 35  1  0
  2 36  1  0
  2 37  1  0
  4 38  1  0
  4 39  1  0
  5 40  1  0
  5 41  1  0
  5 42  1  0
  6 43  1  0
  6 44  1  0
  7 45  1  0
  7 46  1  0
  8 47  1  0
 10 48  1  0
 11 49  1  0
 14 50  1  0
 18 51  1  0
 19 52  1  0
 21 53  1  0
 21 54  1  0
 23 55  1  0
 24 56  1  0
 25 57  1  0
 26 58  1  0
 29 59  1  0
 31 60  1  0
 31 61  1  0
 32 62  1  0
 32 63  1  0
M  CHG  1  21   1
M  END
>  <UniqueID>  (17) 
17

>  <SMILES>  (17) 
CCN(CC)CCNc1ccc2c(c1)C(=O)c1ccc([NH2+]c3ccccc3F)cc1CC2

>  <Energy>  (17) 
86.1018361971222

>  <Genealogy>  (17) 
CCN(CC)CCNc1ccc2c(c1)C(=O)c1ccc([NH2+]c3ccccc3F)cc1CC2 (protonated)
CCN(CC)CCNc1ccc2c(c1)C(=O)c1ccc([NH2+]c3ccccc3F)cc1CC2 (3D coordinates assigned)
CCN(CC)CCNc1ccc2c(c1)C(=O)c1ccc([NH2+]c3ccccc3F)cc1CC2 (nonaromatic ring conformer: 86.1018361971222 kcal/mol)

>  <smiles>  (17) 
CCN(CC)CCNc1ccc2c(c1)C(=O)c1ccc(Nc3ccccc3F)cc1CC2

>  <score_type>  (17) 
oracle

>  <origin>  (17) 
adg

>  <m_score__min__energy>  (17) 
-7.1500000000000004

>  <m_primary>  (17) 
energy

$$$$
17:0
     RDKit          3D

 68 71  0  0  0  0  0  0  0  0999 V2000
   -2.2680   24.7800  -28.6340 C   0  0  0  0  0  0  0  0  0  0  0  0
   -3.7490   24.5490  -28.9280 C   0  0  0  0  0  0  0  0  0  0  0  0
   -4.0250   24.7450  -30.3680 N   0  0  0  0  0  0  0  0  0  0  0  0
   -5.1970   25.6270  -30.5730 C   0  0  0  0  0  0  0  0  0  0  0  0
   -6.1410   25.5370  -29.3780 C   0  0  0  0  0  0  0  0  0  0  0  0
   -4.2050   23.4490  -31.0660 C   0  0  0  0  0  0  0  0  0  0  0  0
   -5.7000   23.1410  -31.2800 C   0  0  0  0  0  0  0  0  0  0  0  0
   -5.9490   22.4800  -32.5610 N   0  0  0  0  0  0  0  0  0  0  0  0
   -5.9230   21.0470  -32.6500 C   0  0  0  0  0  0  0  0  0  0  0  0
   -7.0970   20.3080  -32.4340 C   0  0  0  0  0  0  0  0  0  0  0  0
   -8.3130   20.9600  -32.1330 C   0  0  0  0  0  0  0  0  0  0  0  0
   -9.4900   20.2330  -31.9830 C   0  0  0  0  0  0  0  0  0  0  0  0
   -9.4810   18.8530  -32.1440 C   0  0  0  0  0  0  0  0  0  0  0  0
   -8.2890   18.1860  -32.4260 C   0  0  0  0  0  0  0  0  0  0  0  0
   -7.0640   18.8930  -32.5410 C   0  0  0  0  0  0  0  0  0  0  0  0
   -5.8650   18.2430  -32.7690 N   0  0  0  0  0  0  0  0  0  0  0  0
   -5.7780   16.7730  -32.6060 C   0  0  0  0  0  0  0  0  0  0  0  0
   -4.7380   18.9670  -33.1160 C   0  0  0  0  0  0  0  0  0  0  0  0
   -3.5610   18.3370  -33.5920 C   0  0  0  0  0  0  0  0  0  0  0  0
   -2.4080   19.0710  -33.8680 C   0  0  0  0  0  0  0  0  0  0  0  0
   -2.3900   20.4610  -33.6900 C   0  0  0  0  0  0  0  0  0  0  0  0
   -1.2050   21.2420  -33.9370 N   0  0  0  0  0  0  0  0  0  0  0  0
   -0.0020   21.1700  -33.1040 C   0  0  0  0  0  0  0  0  0  0  0  0
   -0.3760   20.9680  -31.6600 C   0  0  0  0  0  0  0  0  0  0  0  0
   -0.0580   19.7660  -31.0090 C   0  0  0  0  0  0  0  0  0  0  0  0
   -0.4490   19.5550  -29.6840 C   0  0  0  0  0  0  0  0  0  0  0  0
   -1.1770   20.5430  -28.9930 C   0  0  0  0  0  0  0  0  0  0  0  0
   -1.5950   20.3770  -27.6640 O   0  0  0  0  0  0  0  0  0  0  0  0
   -2.0000   19.1360  -27.0970 C   0  0  0  0  0  0  0  0  0  0  0  0
   -1.5050   21.7340  -29.6500 C   0  0  0  0  0  0  0  0  0  0  0  0
   -1.1140   21.9460  -30.9760 C   0  0  0  0  0  0  0  0  0  0  0  0
   -3.5590   21.1050  -33.2730 C   0  0  0  0  0  0  0  0  0  0  0  0
   -4.7400   20.3810  -33.0130 C   0  0  0  0  0  0  0  0  0  0  0  0
   -2.1097   24.8047  -27.5457 H   0  0  0  0  0  0  0  0  0  0  0  0
   -1.6755   23.9634  -29.0723 H   0  0  0  0  0  0  0  0  0  0  0  0
   -1.9523   25.7382  -29.0723 H   0  0  0  0  0  0  0  0  0  0  0  0
   -4.0191   23.5213  -28.6437 H   0  0  0  0  0  0  0  0  0  0  0  0
   -4.3447   25.2700  -28.3489 H   0  0  0  0  0  0  0  0  0  0  0  0
   -4.8541   26.6659  -30.6874 H   0  0  0  0  0  0  0  0  0  0  0  0
   -5.7331   25.3060  -31.4783 H   0  0  0  0  0  0  0  0  0  0  0  0
   -5.5592   25.5925  -28.4461 H   0  0  0  0  0  0  0  0  0  0  0  0
   -6.8575   26.3709  -29.4131 H   0  0  0  0  0  0  0  0  0  0  0  0
   -6.6870   24.5827  -29.4131 H   0  0  0  0  0  0  0  0  0  0  0  0
   -3.7033   23.4942  -32.0439 H   0  0  0  0  0  0  0  0  0  0  0  0
   -3.7680   22.6527  -30.4456 H   0  0  0  0  0  0  0  0  0  0  0  0
   -6.0461   22.4837  -30.4688 H   0  0  0  0  0  0  0  0  0  0  0  0
   -6.2454   24.0963  -31.2807 H   0  0  0  0  0  0  0  0  0  0  0  0
   -5.9460   23.0230  -33.4540 H   0  0  0  0  0  0  0  0  0  0  0  0
   -8.3299   22.0536  -32.0159 H   0  0  0  0  0  0  0  0  0  0  0  0
  -10.4284   20.7514  -31.7367 H   0  0  0  0  0  0  0  0  0  0  0  0
  -10.4177   18.2842  -32.0487 H   0  0  0  0  0  0  0  0  0  0  0  0
   -8.2986   17.0944  -32.5614 H   0  0  0  0  0  0  0  0  0  0  0  0
   -5.7632   16.5231  -31.5349 H   0  0  0  0  0  0  0  0  0  0  0  0
   -6.6497   16.2992  -33.0811 H   0  0  0  0  0  0  0  0  0  0  0  0
   -4.8565   16.4053  -33.0811 H   0  0  0  0  0  0  0  0  0  0  0  0
   -3.5570   17.2479  -33.7467 H   0  0  0  0  0  0  0  0  0  0  0  0
   -1.5057   18.5551  -34.2282 H   0  0  0  0  0  0  0  0  0  0  0  0
   -1.2110   21.8990  -34.7500 H   0  0  0  0  0  0  0  0  0  0  0  0
    0.6208   20.3273  -33.4386 H   0  0  0  0  0  0  0  0  0  0  0  0
    0.5559   22.1132  -33.1999 H   0  0  0  0  0  0  0  0  0  0  0  0
    0.5022   18.9855  -31.5448 H   0  0  0  0  0  0  0  0  0  0  0  0
   -0.1872   18.6136  -29.1788 H   0  0  0  0  0  0  0  0  0  0  0  0
   -1.9762   19.2091  -25.9997 H   0  0  0  0  0  0  0  0  0  0  0  0
   -3.0223   18.8985  -27.4265 H   0  0  0  0  0  0  0  0  0  0  0  0
   -1.3146   18.3412  -27.4265 H   0  0  0  0  0  0  0  0  0  0  0  0
   -2.0754   22.5104  -29.1190 H   0  0  0  0  0  0  0  0  0  0  0  0
   -1.3860   22.8827  -31.4845 H   0  0  0  0  0  0  0  0  0  0  0  0
   -3.5569   22.1976  -33.1454 H   0  0  0  0  0  0  0  0  0  0  0  0
  1  2  1  0
  2  3  1  0
  3  4  1  0
  4  5  1  0
  3  6  1  0
  6  7  1  0
  7  8  1  0
  8  9  1  0
  9 10  2  0
 10 11  1  0
 11 12  2  0
 12 13  1  0
 13 14  2  0
 14 15  1  0
 15 16  2  0
 16 17  1  0
 16 18  1  0
 18 19  2  0
 19 20  1  0
 20 21  2  0
 21 22  1  0
 22 23  1  0
 23 24  1  0
 24 25  2  0
 25 26  1  0
 26 27  2  0
 27 28  1  0
 28 29  1  0
 27 30  1  0
 30 31  2  0
 21 32  1  0
 32 33  2  0
 33  9  1  0
 15 10  1  0
 33 18  1  0
 31 24  1  0
  1 34  1  0
  1 35  1  0
  1 36  1  0
  2 37  1  0
  2 38  1  0
  4 39  1  0
  4 40  1  0
  5 41  1  0
  5 42  1  0
  5 43  1  0
  6 44  1  0
  6 45  1  0
  7 46  1  0
  7 47  1  0
  8 48  1  0
 11 49  1  0
 12 50  1  0
 13 51  1  0
 14 52  1  0
 17 53  1  0
 17 54  1  0
 17 55  1  0
 19 56  1  0
 20 57  1  0
 22 58  1  0
 23 59  1  0
 23 60  1  0
 25 61  1  0
 26 62  1  0
 29 63  1  0
 29 64  1  0
 29 65  1  0
 30 66  1  0
 31 67  1  0
 32 68  1  0
M  CHG  1  16   1
M  END
>  <UniqueID>  (18) 
18

>  <SMILES>  (18) 
CCN(CC)CCNc1c2ccccc2[n+](C)c2ccc(NCc3ccc(OC)cc3)cc12

>  <Energy>  (18) 
94.59868617958779

>  <Genealogy>  (18) 
CCN(CC)CCNc1c2ccccc2[n+](C)c2ccc(NCc3ccc(OC)cc3)cc12 (3D coordinates assigned)
CCN(CC)CCNc1c2ccccc2[n+](C)c2ccc(NCc3ccc(OC)cc3)cc12 (optimized conformer: 94.59868617958779 kcal/mol)

>  <smiles>  (18) 
CCN(CC)CCNc1c2ccccc2[n+](C)c2ccc(NCc3ccc(OC)cc3)cc12

>  <score_type>  (18) 
oracle

>  <origin>  (18) 
adg

>  <m_score__min__energy>  (18) 
-10.26

>  <m_primary>  (18) 
energy

$$$$
18:0
     RDKit          3D

 50 51  0  0  0  0  0  0  0  0999 V2000
   -7.2210   18.0210  -31.6730 C   0  0  0  0  0  0  0  0  0  0  0  0
   -8.3720   19.0240  -31.6650 C   0  0  0  0  0  0  0  0  0  0  0  0
   -8.2250   20.0930  -32.7550 C   0  0  0  0  0  0  0  0  0  0  0  0
   -7.2130   21.0930  -32.4010 N   0  0  0  0  0  0  0  0  0  0  0  0
   -5.9120   20.8820  -32.5190 N   0  0  0  0  0  0  0  0  0  0  0  0
   -5.2560   22.0190  -32.2200 C   0  0  0  0  0  0  0  0  0  0  0  0
   -3.7740   22.1780  -32.3450 C   0  0  0  0  0  0  0  0  0  0  0  0
   -6.1790   22.9960  -31.8620 C   0  0  0  0  0  0  0  0  0  0  0  0
   -5.9340   24.4720  -31.6810 C   0  0  0  0  0  0  0  0  0  0  0  0
   -4.5820   24.7490  -31.1730 N   0  0  0  0  0  0  0  0  0  0  0  0
   -4.5130   24.7840  -29.7020 C   0  0  0  0  0  0  0  0  0  0  0  0
   -3.4640   23.8400  -29.1510 C   0  0  0  0  0  0  0  0  0  0  0  0
   -3.7850   22.4820  -28.9770 C   0  0  0  0  0  0  0  0  0  0  0  0
   -2.8290   21.5840  -28.4990 C   0  0  0  0  0  0  0  0  0  0  0  0
   -1.5460   22.0300  -28.1870 C   0  0  0  0  0  0  0  0  0  0  0  0
   -1.2130   23.3770  -28.3460 C   0  0  0  0  0  0  0  0  0  0  0  0
   -2.1690   24.2960  -28.8230 C   0  0  0  0  0  0  0  0  0  0  0  0
   -1.8690   25.6590  -28.9760 O   0  0  0  0  0  0  0  0  0  0  0  0
   -0.9780   26.3960  -28.1440 C   0  0  0  0  0  0  0  0  0  0  0  0
   -1.3690   26.1910  -26.6920 C   0  0  0  0  0  0  0  0  0  0  0  0
   -7.4160   22.3690  -31.9910 C   0  0  0  0  0  0  0  0  0  0  0  0
   -8.7540   23.0420  -31.8840 C   0  0  0  0  0  0  0  0  0  0  0  0
   -6.9405   17.7765  -30.6378 H   0  0  0  0  0  0  0  0  0  0  0  0
   -7.5367   17.1048  -32.1935 H   0  0  0  0  0  0  0  0  0  0  0  0
   -6.3566   18.4590  -32.1935 H   0  0  0  0  0  0  0  0  0  0  0  0
   -9.3146   18.4810  -31.8279 H   0  0  0  0  0  0  0  0  0  0  0  0
   -8.3639   19.5354  -30.6911 H   0  0  0  0  0  0  0  0  0  0  0  0
   -7.9300   19.6048  -33.6956 H   0  0  0  0  0  0  0  0  0  0  0  0
   -9.1915   20.6069  -32.8637 H   0  0  0  0  0  0  0  0  0  0  0  0
   -5.4810   19.9880  -32.8450 H   0  0  0  0  0  0  0  0  0  0  0  0
   -3.3245   22.2262  -31.3422 H   0  0  0  0  0  0  0  0  0  0  0  0
   -3.3580   21.3193  -32.8924 H   0  0  0  0  0  0  0  0  0  0  0  0
   -3.5496   23.1054  -32.8924 H   0  0  0  0  0  0  0  0  0  0  0  0
   -6.0581   24.9740  -32.6518 H   0  0  0  0  0  0  0  0  0  0  0  0
   -6.6575   24.8479  -30.9426 H   0  0  0  0  0  0  0  0  0  0  0  0
   -4.2640   25.6710  -31.5540 H   0  0  0  0  0  0  0  0  0  0  0  0
   -4.2686   25.8083  -29.3840 H   0  0  0  0  0  0  0  0  0  0  0  0
   -5.4906   24.4637  -29.3124 H   0  0  0  0  0  0  0  0  0  0  0  0
   -4.7968   22.1247  -29.2193 H   0  0  0  0  0  0  0  0  0  0  0  0
   -3.0887   20.5231  -28.3684 H   0  0  0  0  0  0  0  0  0  0  0  0
   -0.7936   21.3192  -27.8145 H   0  0  0  0  0  0  0  0  0  0  0  0
   -0.1987   23.7226  -28.0975 H   0  0  0  0  0  0  0  0  0  0  0  0
    0.0513   26.0414  -28.3017 H   0  0  0  0  0  0  0  0  0  0  0  0
   -1.0357   27.4653  -28.3955 H   0  0  0  0  0  0  0  0  0  0  0  0
   -0.5847   26.6022  -26.0395 H   0  0  0  0  0  0  0  0  0  0  0  0
   -2.3199   26.7065  -26.4920 H   0  0  0  0  0  0  0  0  0  0  0  0
   -1.4858   25.1157  -26.4920 H   0  0  0  0  0  0  0  0  0  0  0  0
   -9.0147   23.1731  -30.8234 H   0  0  0  0  0  0  0  0  0  0  0  0
   -8.7102   24.0253  -32.3751 H   0  0  0  0  0  0  0  0  0  0  0  0
   -9.5173   22.4206  -32.3751 H   0  0  0  0  0  0  0  0  0  0  0  0
  1  2  1  0
  2  3  1  0
  3  4  1  0
  4  5  1  0
  5  6  2  0
  6  7  1  0
  6  8  1  0
  8  9  1  0
  9 10  1  0
 10 11  1  0
 11 12  1  0
 12 13  2  0
 13 14  1  0
 14 15  2  0
 15 16  1  0
 16 17  2  0
 17 18  1  0
 18 19  1  0
 19 20  1  0
  8 21  2  0
 21 22  1  0
 21  4  1  0
 17 12  1  0
  1 23  1  0
  1 24  1  0
  1 25  1  0
  2 26  1  0
  2 27  1  0
  3 28  1  0
  3 29  1  0
  5 30  1  0
  7 31  1  0
  7 32  1  0
  7 33  1  0
  9 34  1  0
  9 35  1  0
 10 36  1  0
 11 37  1  0
 11 38  1  0
 13 39  1  0
 14 40  1  0
 15 41  1  0
 16 42  1  0
 19 43  1  0
 19 44  1  0
 20 45  1  0
 20 46  1  0
 20 47  1  0
 22 48  1  0
 22 49  1  0
 22 50  1  0
M  CHG  1   5   1
M  END
>  <UniqueID>  (19) 
19

>  <SMILES>  (19) 
CCCn1[nH+]c(C)c(CNCc2ccccc2OCC)c1C

>  <Energy>  (19) 
67.92776765760358

>  <Genealogy>  (19) 
CCCn1[nH+]c(C)c(CNCc2ccccc2OCC)c1C (protonated)
CCCn1[nH+]c(C)c(CNCc2ccccc2OCC)c1C (3D coordinates assigned)
CCCn1[nH+]c(C)c(CNCc2ccccc2OCC)c1C (optimized conformer: 67.92776765760358 kcal/mol)

>  <smiles>  (19) 
CCCn1nc(C)c(CNCc2ccccc2OCC)c1C

>  <score_type>  (19) 
oracle

>  <origin>  (19) 
adg

>  <m_score__min__energy>  (19) 
-7.8899999999999997

>  <m_primary>  (19) 
energy

$$$$
19:0
     RDKit          3D

 48 50  0  0  0  0  0  0  0  0999 V2000
   -0.5700   18.0310  -34.9320 C   0  0  0  0  0  0  0  0  0  0  0  0
    0.2240   19.2670  -34.5140 C   0  0  0  0  0  0  0  0  0  0  0  0
   -0.2300   20.5220  -35.2670 C   0  0  0  0  0  0  0  0  0  0  0  0
   -0.5070   21.6130  -34.3220 N   0  0  0  0  0  0  0  0  0  0  0  0
   -0.4410   21.1710  -32.9210 C   0  0  0  0  0  0  0  0  0  0  0  0
   -1.8320   21.0120  -32.2870 C   0  0  0  0  0  0  0  0  0  0  0  0
   -2.8780   21.1310  -33.3020 N   0  0  0  0  0  0  0  0  0  0  0  0
   -4.2210   20.7160  -33.0140 C   0  0  0  0  0  0  0  0  0  0  0  0
   -4.6900   19.4780  -33.4820 C   0  0  0  0  0  0  0  0  0  0  0  0
   -3.8520   18.6310  -34.2390 C   0  0  0  0  0  0  0  0  0  0  0  0
   -4.3360   17.4310  -34.7560 C   0  0  0  0  0  0  0  0  0  0  0  0
   -5.6590   17.0630  -34.5380 C   0  0  0  0  0  0  0  0  0  0  0  0
   -6.4990   17.8770  -33.7770 C   0  0  0  0  0  0  0  0  0  0  0  0
   -6.0240   19.0830  -33.2000 C   0  0  0  0  0  0  0  0  0  0  0  0
   -6.8270   19.8740  -32.3970 N   0  0  0  0  0  0  0  0  0  0  0  0
   -8.1040   19.3390  -31.8750 C   0  0  0  0  0  0  0  0  0  0  0  0
   -6.4210   21.1510  -32.0560 C   0  0  0  0  0  0  0  0  0  0  0  0
   -7.3050   22.0800  -31.4540 C   0  0  0  0  0  0  0  0  0  0  0  0
   -6.8680   23.3430  -31.0580 C   0  0  0  0  0  0  0  0  0  0  0  0
   -5.5400   23.7330  -31.2560 C   0  0  0  0  0  0  0  0  0  0  0  0
   -5.0930   25.0350  -30.8300 N   0  0  0  0  0  0  0  0  0  0  0  0
   -3.8790   25.3280  -30.8410 O   0  0  0  0  0  0  0  0  0  0  0  0
   -5.9980   25.9790  -30.4000 O   0  0  0  0  0  0  0  0  0  0  0  0
   -4.6600   22.8450  -31.8910 C   0  0  0  0  0  0  0  0  0  0  0  0
   -5.0920   21.5720  -32.3200 C   0  0  0  0  0  0  0  0  0  0  0  0
   -0.9140   17.4955  -34.0348 H   0  0  0  0  0  0  0  0  0  0  0  0
   -1.4396   18.3391  -35.5311 H   0  0  0  0  0  0  0  0  0  0  0  0
    0.0717   17.3682  -35.5311 H   0  0  0  0  0  0  0  0  0  0  0  0
    0.0851   19.4303  -33.4351 H   0  0  0  0  0  0  0  0  0  0  0  0
    1.2822   19.0893  -34.7563 H   0  0  0  0  0  0  0  0  0  0  0  0
    0.5640   20.8358  -35.9606 H   0  0  0  0  0  0  0  0  0  0  0  0
   -1.1492   20.2908  -35.8252 H   0  0  0  0  0  0  0  0  0  0  0  0
   -1.4580   22.0040  -34.5190 H   0  0  0  0  0  0  0  0  0  0  0  0
    0.0776   20.2017  -32.8811 H   0  0  0  0  0  0  0  0  0  0  0  0
    0.0988   21.9427  -32.3525 H   0  0  0  0  0  0  0  0  0  0  0  0
   -1.9012   20.0227  -31.8111 H   0  0  0  0  0  0  0  0  0  0  0  0
   -1.9729   21.8056  -31.5385 H   0  0  0  0  0  0  0  0  0  0  0  0
   -2.6800   21.5670  -34.2310 H   0  0  0  0  0  0  0  0  0  0  0  0
   -2.8069   18.9211  -34.4225 H   0  0  0  0  0  0  0  0  0  0  0  0
   -3.6713   16.7746  -35.3368 H   0  0  0  0  0  0  0  0  0  0  0  0
   -6.0450   16.1266  -34.9671 H   0  0  0  0  0  0  0  0  0  0  0  0
   -7.5464   17.5788  -33.6220 H   0  0  0  0  0  0  0  0  0  0  0  0
   -8.0830   19.3478  -30.7752 H   0  0  0  0  0  0  0  0  0  0  0  0
   -8.9362   19.9641  -32.2309 H   0  0  0  0  0  0  0  0  0  0  0  0
   -8.2421   18.3074  -32.2309 H   0  0  0  0  0  0  0  0  0  0  0  0
   -8.3567   21.7992  -31.2960 H   0  0  0  0  0  0  0  0  0  0  0  0
   -7.5752   24.0401  -30.5848 H   0  0  0  0  0  0  0  0  0  0  0  0
   -3.6151   23.1458  -32.0576 H   0  0  0  0  0  0  0  0  0  0  0  0
  1  2  1  0
  2  3  1  0
  3  4  1  0
  4  5  1  0
  5  6  1  0
  6  7  1  0
  7  8  1  0
  8  9  2  0
  9 10  1  0
 10 11  2  0
 11 12  1  0
 12 13  2  0
 13 14  1  0
 14 15  2  0
 15 16  1  0
 15 17  1  0
 17 18  2  0
 18 19  1  0
 19 20  2  0
 20 21  1  0
 21 22  2  0
 21 23  1  0
 20 24  1  0
 24 25  2  0
 25  8  1  0
 14  9  1  0
 25 17  1  0
  1 26  1  0
  1 27  1  0
  1 28  1  0
  2 29  1  0
  2 30  1  0
  3 31  1  0
  3 32  1  0
  4 33  1  0
  5 34  1  0
  5 35  1  0
  6 36  1  0
  6 37  1  0
  7 38  1  0
 10 39  1  0
 11 40  1  0
 12 41  1  0
 13 42  1  0
 16 43  1  0
 16 44  1  0
 16 45  1  0
 18 46  1  0
 19 47  1  0
 24 48  1  0
M  CHG  3  15   1  21   1  23  -1
M  END
>  <UniqueID>  (20) 
20

>  <SMILES>  (20) 
CCCNCCNc1c2ccccc2[n+](C)c2ccc([N+](=O)[O-])cc12

>  <Energy>  (20) 
71.21146796676082

>  <Genealogy>  (20) 
CCCNCCNc1c2ccccc2[n+](C)c2ccc([N+](=O)[O-])cc12 (3D coordinates assigned)
CCCNCCNc1c2ccccc2[n+](C)c2ccc([N+](=O)[O-])cc12 (optimized conformer: 71.21146796676082 kcal/mol)

>  <smiles>  (20) 
CCCNCCNc1c2ccccc2[n+](C)c2ccc([N+](=O)[O-])cc12

>  <score_type>  (20) 
oracle

>  <origin>  (20) 
adg

>  <m_score__min__energy>  (20) 
-9.5299999999999994

>  <m_primary>  (20) 
energy

$$$$
20:0
     RDKit          3D

 56 58  0  0  0  0  0  0  0  0999 V2000
   -6.1470   25.4440  -29.7400 C   0  0  0  0  0  0  0  0  0  0  0  0
   -4.9040   25.0590  -30.5470 C   0  0  0  0  0  0  0  0  0  0  0  0
   -3.8210   24.4700  -29.7280 N   0  0  0  0  0  0  0  0  0  0  0  0
   -4.2220   24.1440  -28.3420 C   0  0  0  0  0  0  0  0  0  0  0  0
   -3.1310   24.5370  -27.3490 C   0  0  0  0  0  0  0  0  0  0  0  0
   -2.9730   23.4770  -30.4380 C   0  0  0  0  0  0  0  0  0  0  0  0
   -3.7460   22.2960  -31.0650 C   0  0  0  0  0  0  0  0  0  0  0  0
   -3.1540   21.9080  -32.4280 C   0  0  0  0  0  0  0  0  0  0  0  0
   -4.1880   21.7430  -33.4710 N   0  0  0  0  0  0  0  0  0  0  0  0
   -5.2980   20.9040  -33.0310 C   0  0  0  0  0  0  0  0  0  0  0  0
   -6.5060   21.4740  -32.5310 C   0  0  0  0  0  0  0  0  0  0  0  0
   -6.6740   22.8750  -32.3690 C   0  0  0  0  0  0  0  0  0  0  0  0
   -7.8350   23.4060  -31.8140 C   0  0  0  0  0  0  0  0  0  0  0  0
   -8.8560   22.5670  -31.4000 C   0  0  0  0  0  0  0  0  0  0  0  0
   -8.7370   21.1910  -31.5670 C   0  0  0  0  0  0  0  0  0  0  0  0
   -7.5850   20.6180  -32.1670 C   0  0  0  0  0  0  0  0  0  0  0  0
   -7.5020   19.2590  -32.3860 N   0  0  0  0  0  0  0  0  0  0  0  0
   -8.7260   18.4250  -32.3290 C   0  0  0  0  0  0  0  0  0  0  0  0
   -6.2880   18.6780  -32.6850 C   0  0  0  0  0  0  0  0  0  0  0  0
   -6.1120   17.2730  -32.6120 C   0  0  0  0  0  0  0  0  0  0  0  0
   -4.9100   16.6740  -32.9750 C   0  0  0  0  0  0  0  0  0  0  0  0
   -3.8470   17.4520  -33.4230 C   0  0  0  0  0  0  0  0  0  0  0  0
   -2.5410   16.8040  -33.7850 C   0  0  0  0  0  0  0  0  0  0  0  0
   -3.9720   18.8440  -33.4420 C   0  0  0  0  0  0  0  0  0  0  0  0
   -5.1790   19.4850  -33.0570 C   0  0  0  0  0  0  0  0  0  0  0  0
   -5.9225   25.3745  -28.6654 H   0  0  0  0  0  0  0  0  0  0  0  0
   -6.4400   26.4750  -29.9874 H   0  0  0  0  0  0  0  0  0  0  0  0
   -6.9715   24.7591  -29.9874 H   0  0  0  0  0  0  0  0  0  0  0  0
   -5.1998   24.3250  -31.3111 H   0  0  0  0  0  0  0  0  0  0  0  0
   -4.5066   25.9858  -30.9864 H   0  0  0  0  0  0  0  0  0  0  0  0
   -5.1449   24.6900  -28.0969 H   0  0  0  0  0  0  0  0  0  0  0  0
   -4.3854   23.0585  -28.2710 H   0  0  0  0  0  0  0  0  0  0  0  0
   -3.5036   24.4028  -26.3228 H   0  0  0  0  0  0  0  0  0  0  0  0
   -2.2473   23.9007  -27.5044 H   0  0  0  0  0  0  0  0  0  0  0  0
   -2.8560   25.5907  -27.5044 H   0  0  0  0  0  0  0  0  0  0  0  0
   -2.4349   23.9995  -31.2426 H   0  0  0  0  0  0  0  0  0  0  0  0
   -2.3046   23.0423  -29.6802 H   0  0  0  0  0  0  0  0  0  0  0  0
   -3.6888   21.4301  -30.3890 H   0  0  0  0  0  0  0  0  0  0  0  0
   -4.7919   22.6028  -31.2133 H   0  0  0  0  0  0  0  0  0  0  0  0
   -2.4556   22.6962  -32.7459 H   0  0  0  0  0  0  0  0  0  0  0  0
   -2.6458   20.9400  -32.3069 H   0  0  0  0  0  0  0  0  0  0  0  0
   -3.7510   21.3190  -34.3200 H   0  0  0  0  0  0  0  0  0  0  0  0
   -4.4940   22.6710  -33.8300 H   0  0  0  0  0  0  0  0  0  0  0  0
   -5.8702   23.5545  -32.6887 H   0  0  0  0  0  0  0  0  0  0  0  0
   -7.9417   24.4953  -31.7040 H   0  0  0  0  0  0  0  0  0  0  0  0
   -9.7613   22.9887  -30.9390 H   0  0  0  0  0  0  0  0  0  0  0  0
   -9.5514   20.5342  -31.2275 H   0  0  0  0  0  0  0  0  0  0  0  0
   -8.9958   18.2411  -31.2786 H   0  0  0  0  0  0  0  0  0  0  0  0
   -9.5510   18.9497  -32.8331 H   0  0  0  0  0  0  0  0  0  0  0  0
   -8.5395   17.4652  -32.8331 H   0  0  0  0  0  0  0  0  0  0  0  0
   -6.9431   16.6436  -32.2611 H   0  0  0  0  0  0  0  0  0  0  0  0
   -4.7996   15.5816  -32.9076 H   0  0  0  0  0  0  0  0  0  0  0  0
   -1.9983   16.5348  -32.8668 H   0  0  0  0  0  0  0  0  0  0  0  0
   -2.7334   15.8968  -34.3766 H   0  0  0  0  0  0  0  0  0  0  0  0
   -1.9350   17.5059  -34.3766 H   0  0  0  0  0  0  0  0  0  0  0  0
   -3.1163   19.4565  -33.7623 H   0  0  0  0  0  0  0  0  0  0  0  0
  1  2  1  0
  2  3  1  0
  3  4  1  0
  4  5  1  0
  3  6  1  0
  6  7  1  0
  7  8  1  0
  8  9  1  0
  9 10  1  0
 10 11  2  0
 11 12  1  0
 12 13  2  0
 13 14  1  0
 14 15  2  0
 15 16  1  0
 16 17  2  0
 17 18  1  0
 17 19  1  0
 19 20  2  0
 20 21  1  0
 21 22  2  0
 22 23  1  0
 22 24  1  0
 24 25  2  0
 25 10  1  0
 16 11  1  0
 25 19  1  0
  1 26  1  0
  1 27  1  0
  1 28  1  0
  2 29  1  0
  2 30  1  0
  4 31  1  0
  4 32  1  0
  5 33  1  0
  5 34  1  0
  5 35  1  0
  6 36  1  0
  6 37  1  0
  7 38  1  0
  7 39  1  0
  8 40  1  0
  8 41  1  0
  9 42  1  0
  9 43  1  0
 12 44  1  0
 13 45  1  0
 14 46  1  0
 15 47  1  0
 18 48  1  0
 18 49  1  0
 18 50  1  0
 20 51  1  0
 21 52  1  0
 23 53  1  0
 23 54  1  0
 23 55  1  0
 24 56  1  0
M  CHG  2   9   1  17   1
M  END
>  <UniqueID>  (21) 
21

>  <SMILES>  (21) 
CCN(CC)CCC[NH2+]c1c2ccccc2[n+](C)c2ccc(C)cc12

>  <Energy>  (21) 
88.11651868170233

>  <Genealogy>  (21) 
CCN(CC)CCC[NH2+]c1c2ccccc2[n+](C)c2ccc(C)cc12 (protonated)
CCN(CC)CCC[NH2+]c1c2ccccc2[n+](C)c2ccc(C)cc12 (3D coordinates assigned)
CCN(CC)CCC[NH2+]c1c2ccccc2[n+](C)c2ccc(C)cc12 (optimized conformer: 88.11651868170233 kcal/mol)

>  <smiles>  (21) 
CCN(CC)CCCNc1c2ccccc2[n+](C)c2ccc(C)cc12

>  <score_type>  (21) 
oracle

>  <origin>  (21) 
adg

>  <m_score__min__energy>  (21) 
-7.71

>  <m_primary>  (21) 
energy

$$$$
21:0
     RDKit          3D

 55 57  0  0  0  0  0  0  0  0999 V2000
    0.4280   19.1210  -28.2930 C   0  0  0  0  0  0  0  0  0  0  0  0
   -0.8290   18.7610  -27.4970 C   0  0  0  0  0  0  0  0  0  0  0  0
   -1.6830   19.9520  -27.2740 N   0  0  0  0  0  0  0  0  0  0  0  0
   -3.1090   19.5800  -27.0680 C   0  0  0  0  0  0  0  0  0  0  0  0
   -3.2100   18.5480  -25.9490 C   0  0  0  0  0  0  0  0  0  0  0  0
   -1.5240   20.9120  -28.3940 C   0  0  0  0  0  0  0  0  0  0  0  0
   -1.6250   22.3610  -27.9000 C   0  0  0  0  0  0  0  0  0  0  0  0
   -2.9770   22.6440  -27.5880 O   0  0  0  0  0  0  0  0  0  0  0  0
   -3.2160   24.0390  -27.5400 C   0  0  0  0  0  0  0  0  0  0  0  0
   -2.3650   24.7690  -28.5880 C   0  0  0  0  0  0  0  0  0  0  0  0
   -3.1050   24.9710  -29.7940 O   0  0  0  0  0  0  0  0  0  0  0  0
   -4.1360   24.1470  -30.2740 C   0  0  0  0  0  0  0  0  0  0  0  0
   -5.4440   24.4500  -29.9010 C   0  0  0  0  0  0  0  0  0  0  0  0
   -6.5180   23.6780  -30.3500 C   0  0  0  0  0  0  0  0  0  0  0  0
   -6.3100   22.5680  -31.2050 C   0  0  0  0  0  0  0  0  0  0  0  0
   -4.9770   22.2650  -31.5840 C   0  0  0  0  0  0  0  0  0  0  0  0
   -3.9050   23.0480  -31.1190 C   0  0  0  0  0  0  0  0  0  0  0  0
   -4.7130   21.1860  -32.4330 C   0  0  0  0  0  0  0  0  0  0  0  0
   -5.7440   20.3860  -32.9310 C   0  0  0  0  0  0  0  0  0  0  0  0
   -5.3870   19.2350  -33.8410 C   0  0  0  0  0  0  0  0  0  0  0  0
   -7.0850   20.6640  -32.5720 C   0  0  0  0  0  0  0  0  0  0  0  0
   -8.1100   19.8910  -33.0540 N   0  0  0  0  0  0  0  0  0  0  0  0
   -9.4050   20.1270  -32.7270 C   0  0  0  0  0  0  0  0  0  0  0  0
   -9.7340   21.1720  -31.8760 C   0  0  0  0  0  0  0  0  0  0  0  0
   -8.7290   21.9820  -31.3610 C   0  0  0  0  0  0  0  0  0  0  0  0
   -7.3770   21.7560  -31.6990 C   0  0  0  0  0  0  0  0  0  0  0  0
    1.2475   19.3557  -27.5978 H   0  0  0  0  0  0  0  0  0  0  0  0
    0.7172   18.2696  -28.9266 H   0  0  0  0  0  0  0  0  0  0  0  0
    0.2226   19.9964  -28.9266 H   0  0  0  0  0  0  0  0  0  0  0  0
   -1.4035   18.0073  -28.0555 H   0  0  0  0  0  0  0  0  0  0  0  0
   -0.5196   18.3666  -26.5179 H   0  0  0  0  0  0  0  0  0  0  0  0
   -3.6854   20.4758  -26.7935 H   0  0  0  0  0  0  0  0  0  0  0  0
   -3.5140   19.1532  -27.9974 H   0  0  0  0  0  0  0  0  0  0  0  0
   -3.1602   19.0570  -24.9751 H   0  0  0  0  0  0  0  0  0  0  0  0
   -4.1652   18.0089  -26.0325 H   0  0  0  0  0  0  0  0  0  0  0  0
   -2.3774   17.8339  -26.0325 H   0  0  0  0  0  0  0  0  0  0  0  0
   -0.5395   20.7596  -28.8605 H   0  0  0  0  0  0  0  0  0  0  0  0
   -2.3293   20.7349  -29.1221 H   0  0  0  0  0  0  0  0  0  0  0  0
   -1.0036   22.4893  -27.0014 H   0  0  0  0  0  0  0  0  0  0  0  0
   -1.2705   23.0480  -28.6825 H   0  0  0  0  0  0  0  0  0  0  0  0
   -4.2803   24.2306  -27.7413 H   0  0  0  0  0  0  0  0  0  0  0  0
   -2.9448   24.4112  -26.5410 H   0  0  0  0  0  0  0  0  0  0  0  0
   -2.0579   25.7457  -28.1859 H   0  0  0  0  0  0  0  0  0  0  0  0
   -1.4826   24.1530  -28.8157 H   0  0  0  0  0  0  0  0  0  0  0  0
   -5.6337   25.3106  -29.2427 H   0  0  0  0  0  0  0  0  0  0  0  0
   -7.5400   23.9357  -30.0351 H   0  0  0  0  0  0  0  0  0  0  0  0
   -2.8768   22.7979  -31.4194 H   0  0  0  0  0  0  0  0  0  0  0  0
   -3.6732   20.9628  -32.7142 H   0  0  0  0  0  0  0  0  0  0  0  0
   -5.1152   18.3586  -33.2343 H   0  0  0  0  0  0  0  0  0  0  0  0
   -6.2507   18.9879  -34.4758 H   0  0  0  0  0  0  0  0  0  0  0  0
   -4.5351   19.5200  -34.4758 H   0  0  0  0  0  0  0  0  0  0  0  0
   -7.9320   19.0880  -33.6960 H   0  0  0  0  0  0  0  0  0  0  0  0
  -10.1987   19.4863  -33.1388 H   0  0  0  0  0  0  0  0  0  0  0  0
  -10.7850   21.3585  -31.6102 H   0  0  0  0  0  0  0  0  0  0  0  0
   -8.9897   22.8079  -30.6829 H   0  0  0  0  0  0  0  0  0  0  0  0
  1  2  1  0
  2  3  1  0
  3  4  1  0
  4  5  1  0
  3  6  1  0
  6  7  1  0
  7  8  1  0
  8  9  1  0
  9 10  1  0
 10 11  1  0
 11 12  1  0
 12 13  2  0
 13 14  1  0
 14 15  2  0
 15 16  1  0
 16 17  2  0
 16 18  1  0
 18 19  2  0
 19 20  1  0
 19 21  1  0
 21 22  2  0
 22 23  1  0
 23 24  2  0
 24 25  1  0
 25 26  2  0
 17 12  1  0
 26 21  1  0
 26 15  1  0
  1 27  1  0
  1 28  1  0
  1 29  1  0
  2 30  1  0
  2 31  1  0
  4 32  1  0
  4 33  1  0
  5 34  1  0
  5 35  1  0
  5 36  1  0
  6 37  1  0
  6 38  1  0
  7 39  1  0
  7 40  1  0
  9 41  1  0
  9 42  1  0
 10 43  1  0
 10 44  1  0
 13 45  1  0
 14 46  1  0
 17 47  1  0
 18 48  1  0
 20 49  1  0
 20 50  1  0
 20 51  1  0
 22 52  1  0
 23 53  1  0
 24 54  1  0
 25 55  1  0
M  CHG  1  22   1
M  END
>  <UniqueID>  (22) 
22

>  <SMILES>  (22) 
CCN(CC)CCOCCOc1ccc2c(c1)cc(C)c1[nH+]cccc12

>  <Energy>  (22) 
69.84525465124682

>  <Genealogy>  (22) 
CCN(CC)CCOCCOc1ccc2c(c1)cc(C)c1[nH+]cccc12 (protonated)
CCN(CC)CCOCCOc1ccc2c(c1)cc(C)c1[nH+]cccc12 (3D coordinates assigned)
CCN(CC)CCOCCOc1ccc2c(c1)cc(C)c1[nH+]cccc12 (optimized conformer: 69.84525465124682 kcal/mol)

>  <smiles>  (22) 
CCN(CC)CCOCCOc1ccc2c(c1)cc(C)c1ncccc12

>  <score_type>  (22) 
oracle

>  <origin>  (22) 
adg

>  <m_score__min__energy>  (22) 
-8.5999999999999996

>  <m_primary>  (22) 
energy

$$$$
22:0
     RDKit          3D

 38 40  0  0  0  0  0  0  0  0999 V2000
   -8.7600   18.7100  -31.9910 C   0  0  0  0  0  0  0  0  0  0  0  0
   -7.7700   19.7940  -32.2540 C   0  0  0  0  0  0  0  0  0  0  0  0
   -7.9520   21.1420  -31.8980 C   0  0  0  0  0  0  0  0  0  0  0  0
   -6.8010   21.8600  -32.1850 C   0  0  0  0  0  0  0  0  0  0  0  0
   -6.2620   23.0970  -31.8940 C   0  0  0  0  0  0  0  0  0  0  0  0
   -6.9020   24.1850  -31.0960 C   0  0  0  0  0  0  0  0  0  0  0  0
   -5.9280   25.2400  -30.8630 N   0  0  0  0  0  0  0  0  0  0  0  0
   -4.7430   25.0500  -30.0890 C   0  0  0  0  0  0  0  0  0  0  0  0
   -3.6090   25.2780  -30.5890 O   0  0  0  0  0  0  0  0  0  0  0  0
   -4.8500   24.5250  -28.6920 C   0  0  0  0  0  0  0  0  0  0  0  0
   -3.8240   23.4430  -28.4620 C   0  0  0  0  0  0  0  0  0  0  0  0
   -3.8980   22.2620  -29.2210 C   0  0  0  0  0  0  0  0  0  0  0  0
   -2.9830   21.2260  -29.0130 C   0  0  0  0  0  0  0  0  0  0  0  0
   -1.9930   21.3530  -28.0380 C   0  0  0  0  0  0  0  0  0  0  0  0
   -1.1070   20.3460  -27.8370 F   0  0  0  0  0  0  0  0  0  0  0  0
   -1.9170   22.5150  -27.2660 C   0  0  0  0  0  0  0  0  0  0  0  0
   -2.8270   23.5600  -27.4660 C   0  0  0  0  0  0  0  0  0  0  0  0
   -2.6850   24.9900  -26.4480 Cl  0  0  0  0  0  0  0  0  0  0  0  0
   -4.9410   23.0510  -32.2220 N   0  0  0  0  0  0  0  0  0  0  0  0
   -4.6560   21.8500  -32.7230 N   0  0  0  0  0  0  0  0  0  0  0  0
   -3.3120   21.3480  -32.9770 C   0  0  0  0  0  0  0  0  0  0  0  0
   -5.7950   21.1430  -32.6990 C   0  0  0  0  0  0  0  0  0  0  0  0
   -6.1760   19.5180  -32.8290 S   0  0  0  0  0  0  0  0  0  0  0  0
   -8.8801   18.5785  -30.9055 H   0  0  0  0  0  0  0  0  0  0  0  0
   -9.7282   18.9817  -32.4368 H   0  0  0  0  0  0  0  0  0  0  0  0
   -8.4019   17.7703  -32.4368 H   0  0  0  0  0  0  0  0  0  0  0  0
   -8.8683   21.5630  -31.4586 H   0  0  0  0  0  0  0  0  0  0  0  0
   -7.7606   24.5921  -31.6502 H   0  0  0  0  0  0  0  0  0  0  0  0
   -7.2503   23.7828  -30.1332 H   0  0  0  0  0  0  0  0  0  0  0  0
   -4.6775   25.3464  -27.9810 H   0  0  0  0  0  0  0  0  0  0  0  0
   -5.8552   24.1040  -28.5428 H   0  0  0  0  0  0  0  0  0  0  0  0
   -4.6822   22.1523  -29.9846 H   0  0  0  0  0  0  0  0  0  0  0  0
   -3.0435   20.3097  -29.6186 H   0  0  0  0  0  0  0  0  0  0  0  0
   -1.1371   22.6094  -26.4960 H   0  0  0  0  0  0  0  0  0  0  0  0
   -4.2340   23.7950  -32.0260 H   0  0  0  0  0  0  0  0  0  0  0  0
   -2.8044   21.1584  -32.0197 H   0  0  0  0  0  0  0  0  0  0  0  0
   -3.3727   20.4119  -33.5515 H   0  0  0  0  0  0  0  0  0  0  0  0
   -2.7442   22.0947  -33.5515 H   0  0  0  0  0  0  0  0  0  0  0  0
  1  2  1  0
  2  3  2  0
  3  4  1  0
  4  5  1  0
  5  6  1  0
  6  7  1  0
  7  8  1  0
  8  9  2  0
  8 10  1  0
 10 11  1  0
 11 12  2  0
 12 13  1  0
 13 14  2  0
 14 15  1  0
 14 16  1  0
 16 17  2  0
 17 18  1  0
  5 19  2  0
 19 20  1  0
 20 21  1  0
 20 22  1  0
 22 23  1  0
 23  2  1  0
 22  4  2  0
 17 11  1  0
  1 24  1  0
  1 25  1  0
  1 26  1  0
  3 27  1  0
  6 28  1  0
  6 29  1  0
 10 30  1  0
 10 31  1  0
 12 32  1  0
 13 33  1  0
 16 34  1  0
 19 35  1  0
 21 36  1  0
 21 37  1  0
 21 38  1  0
M  CHG  2   7  -1  19   1
M  END
>  <UniqueID>  (23) 
23

>  <SMILES>  (23) 
Cc1cc2c(C[N-]C(=O)Cc3ccc(F)cc3Cl)[nH+]n(C)c2s1

>  <Energy>  (23) 
114.88647588312864

>  <Genealogy>  (23) 
Cc1cc2c(C[N-]C(=O)Cc3ccc(F)cc3Cl)[nH+]n(C)c2s1 (protonated)
Cc1cc2c(C[N-]C(=O)Cc3ccc(F)cc3Cl)[nH+]n(C)c2s1 (3D coordinates assigned)
Cc1cc2c(C[N-]C(=O)Cc3ccc(F)cc3Cl)[nH+]n(C)c2s1 (optimized conformer: 114.88647588312864 kcal/mol)

>  <smiles>  (23) 
Cc1cc2c(CNC(=O)Cc3ccc(F)cc3Cl)nn(C)c2s1

>  <score_type>  (23) 
oracle

>  <origin>  (23) 
adg

>  <m_score__min__energy>  (23) 
-9.1400000000000006

>  <m_primary>  (23) 
energy

$$$$
23:0
     RDKit          3D

 64 67  0  0  0  0  0  0  0  0999 V2000
   -1.4110   24.6750  -28.1350 C   0  0  0  0  0  0  0  0  0  0  0  0
   -1.4830   23.7900  -29.3860 C   0  0  0  0  0  0  0  0  0  0  0  0
   -2.7490   23.0290  -29.5210 N   0  0  0  0  0  0  0  0  0  0  0  0
   -2.5700   21.5600  -29.5720 C   0  0  0  0  0  0  0  0  0  0  0  0
   -1.1250   21.1820  -29.8940 C   0  0  0  0  0  0  0  0  0  0  0  0
   -3.7590   23.4300  -28.5150 C   0  0  0  0  0  0  0  0  0  0  0  0
   -4.6350   24.5540  -29.0640 C   0  0  0  0  0  0  0  0  0  0  0  0
   -4.3080   24.7770  -30.4210 O   0  0  0  0  0  0  0  0  0  0  0  0
   -5.4750   25.0120  -31.1850 C   0  0  0  0  0  0  0  0  0  0  0  0
   -5.7610   23.8120  -32.0870 C   0  0  0  0  0  0  0  0  0  0  0  0
   -5.0410   22.6320  -31.6110 N   0  0  0  0  0  0  0  0  0  0  0  0
   -5.2560   21.3360  -32.1940 C   0  0  0  0  0  0  0  0  0  0  0  0
   -4.1810   20.6330  -32.7640 C   0  0  0  0  0  0  0  0  0  0  0  0
   -4.3820   19.3110  -33.2240 C   0  0  0  0  0  0  0  0  0  0  0  0
   -5.6630   18.8170  -33.3630 N   0  0  0  0  0  0  0  0  0  0  0  0
   -5.9250   17.6660  -34.2540 C   0  0  0  0  0  0  0  0  0  0  0  0
   -6.7240   19.4690  -32.7650 C   0  0  0  0  0  0  0  0  0  0  0  0
   -8.0180   18.8920  -32.7170 C   0  0  0  0  0  0  0  0  0  0  0  0
   -9.0910   19.5770  -32.1470 C   0  0  0  0  0  0  0  0  0  0  0  0
   -8.9050   20.8470  -31.6140 C   0  0  0  0  0  0  0  0  0  0  0  0
   -7.6420   21.4330  -31.6300 C   0  0  0  0  0  0  0  0  0  0  0  0
   -6.5350   20.7490  -32.1770 C   0  0  0  0  0  0  0  0  0  0  0  0
   -3.1610   18.5140  -33.5770 C   0  0  0  0  0  0  0  0  0  0  0  0
   -3.1020   17.1620  -33.3750 N   0  0  0  0  0  0  0  0  0  0  0  0
   -1.9930   16.4400  -33.6950 C   0  0  0  0  0  0  0  0  0  0  0  0
   -0.8600   17.0760  -34.2020 C   0  0  0  0  0  0  0  0  0  0  0  0
   -0.8600   18.4640  -34.3380 C   0  0  0  0  0  0  0  0  0  0  0  0
   -2.0020   19.1960  -33.9930 C   0  0  0  0  0  0  0  0  0  0  0  0
   -2.0010   20.6980  -34.0250 C   0  0  0  0  0  0  0  0  0  0  0  0
   -2.7870   21.2380  -32.8230 C   0  0  0  0  0  0  0  0  0  0  0  0
   -1.4624   24.0436  -27.2357 H   0  0  0  0  0  0  0  0  0  0  0  0
   -0.4643   25.2352  -28.1361 H   0  0  0  0  0  0  0  0  0  0  0  0
   -2.2547   25.3808  -28.1361 H   0  0  0  0  0  0  0  0  0  0  0  0
   -1.3717   24.4339  -30.2708 H   0  0  0  0  0  0  0  0  0  0  0  0
   -0.6764   23.0476  -29.2946 H   0  0  0  0  0  0  0  0  0  0  0  0
   -2.8419   21.1328  -28.5955 H   0  0  0  0  0  0  0  0  0  0  0  0
   -3.2162   21.1614  -30.3679 H   0  0  0  0  0  0  0  0  0  0  0  0
   -0.5668   21.0360  -28.9575 H   0  0  0  0  0  0  0  0  0  0  0  0
   -1.1113   20.2500  -30.4782 H   0  0  0  0  0  0  0  0  0  0  0  0
   -0.6567   21.9879  -30.4782 H   0  0  0  0  0  0  0  0  0  0  0  0
   -4.3911   22.5638  -28.2699 H   0  0  0  0  0  0  0  0  0  0  0  0
   -3.2428   23.7868  -27.6115 H   0  0  0  0  0  0  0  0  0  0  0  0
   -5.6941   24.2682  -28.9829 H   0  0  0  0  0  0  0  0  0  0  0  0
   -4.4618   25.4737  -28.4860 H   0  0  0  0  0  0  0  0  0  0  0  0
   -6.3276   25.1701  -30.5081 H   0  0  0  0  0  0  0  0  0  0  0  0
   -5.3234   25.9046  -31.8097 H   0  0  0  0  0  0  0  0  0  0  0  0
   -6.8411   23.6040  -32.0814 H   0  0  0  0  0  0  0  0  0  0  0  0
   -5.4258   24.0460  -33.1082 H   0  0  0  0  0  0  0  0  0  0  0  0
   -4.5230   22.7010  -30.7080 H   0  0  0  0  0  0  0  0  0  0  0  0
   -6.1286   16.7714  -33.6471 H   0  0  0  0  0  0  0  0  0  0  0  0
   -6.7964   17.8846  -34.8888 H   0  0  0  0  0  0  0  0  0  0  0  0
   -5.0449   17.4859  -34.8888 H   0  0  0  0  0  0  0  0  0  0  0  0
   -8.1785   17.8877  -33.1361 H   0  0  0  0  0  0  0  0  0  0  0  0
  -10.0870   19.1109  -32.1193 H   0  0  0  0  0  0  0  0  0  0  0  0
   -9.7569   21.3901  -31.1788 H   0  0  0  0  0  0  0  0  0  0  0  0
   -7.5053   22.4410  -31.2114 H   0  0  0  0  0  0  0  0  0  0  0  0
   -3.9000   16.6560  -32.9340 H   0  0  0  0  0  0  0  0  0  0  0  0
   -1.9905   15.3492  -33.5529 H   0  0  0  0  0  0  0  0  0  0  0  0
    0.0242   16.4891  -34.4915 H   0  0  0  0  0  0  0  0  0  0  0  0
    0.0344   18.9816  -34.7151 H   0  0  0  0  0  0  0  0  0  0  0  0
   -0.9649   21.0646  -33.9797 H   0  0  0  0  0  0  0  0  0  0  0  0
   -2.4732   21.0443  -34.9562 H   0  0  0  0  0  0  0  0  0  0  0  0
   -2.2469   20.9867  -31.8983 H   0  0  0  0  0  0  0  0  0  0  0  0
   -2.8836   22.3285  -32.9301 H   0  0  0  0  0  0  0  0  0  0  0  0
  1  2  1  0
  2  3  1  0
  3  4  1  0
  4  5  1  0
  3  6  1  0
  6  7  1  0
  7  8  1  0
  8  9  1  0
  9 10  1  0
 10 11  1  0
 11 12  1  0
 12 13  2  0
 13 14  1  0
 14 15  2  0
 15 16  1  0
 15 17  1  0
 17 18  2  0
 18 19  1  0
 19 20  2  0
 20 21  1  0
 21 22  2  0
 14 23  1  0
 23 24  2  0
 24 25  1  0
 25 26  2  0
 26 27  1  0
 27 28  2  0
 28 29  1  0
 29 30  1  0
 22 12  1  0
 28 23  1  0
 30 13  1  0
 22 17  1  0
  1 31  1  0
  1 32  1  0
  1 33  1  0
  2 34  1  0
  2 35  1  0
  4 36  1  0
  4 37  1  0
  5 38  1  0
  5 39  1  0
  5 40  1  0
  6 41  1  0
  6 42  1  0
  7 43  1  0
  7 44  1  0
  9 45  1  0
  9 46  1  0
 10 47  1  0
 10 48  1  0
 11 49  1  0
 16 50  1  0
 16 51  1  0
 16 52  1  0
 18 53  1  0
 19 54  1  0
 20 55  1  0
 21 56  1  0
 24 57  1  0
 25 58  1  0
 26 59  1  0
 27 60  1  0
 29 61  1  0
 29 62  1  0
 30 63  1  0
 30 64  1  0
M  CHG  2  15   1  24   1
M  END
>  <UniqueID>  (24) 
24

>  <SMILES>  (24) 
CCN(CC)CCOCCNc1c2c([n+](C)c3ccccc13)-c1[nH+]cccc1CC2

>  <Energy>  (24) 
95.84238699935055

>  <Genealogy>  (24) 
CCN(CC)CCOCCNc1c2c([n+](C)c3ccccc13)-c1[nH+]cccc1CC2 (protonated)
CCN(CC)CCOCCNc1c2c([n+](C)c3ccccc13)-c1[nH+]cccc1CC2 (3D coordinates assigned)
CCN(CC)CCOCCNc1c2c([n+](C)c3ccccc13)-c1[nH+]cccc1CC2 (nonaromatic ring conformer: 95.84238699935055 kcal/mol)

>  <smiles>  (24) 
CCN(CC)CCOCCNc1c2c([n+](C)c3ccccc13)-c1ncccc1CC2

>  <score_type>  (24) 
oracle

>  <origin>  (24) 
adg

>  <m_score__min__energy>  (24) 
-8.2899999999999991

>  <m_primary>  (24) 
energy

$$$$
24:0
     RDKit          3D

 62 63  0  0  0  0  0  0  0  0999 V2000
   -2.3770   23.8600  -29.1090 C   0  0  0  0  0  0  0  0  0  0  0  0
   -3.8310   24.1620  -29.4580 C   0  0  0  0  0  0  0  0  0  0  0  0
   -4.0560   23.9720  -30.9100 N   0  0  0  0  0  0  0  0  0  0  0  0
   -5.4850   24.1540  -31.2590 C   0  0  0  0  0  0  0  0  0  0  0  0
   -6.2010   24.9370  -30.1640 C   0  0  0  0  0  0  0  0  0  0  0  0
   -3.5550   22.6540  -31.3630 C   0  0  0  0  0  0  0  0  0  0  0  0
   -4.1510   22.3010  -32.7260 C   0  0  0  0  0  0  0  0  0  0  0  0
   -3.5030   21.1490  -33.2260 O   0  0  0  0  0  0  0  0  0  0  0  0
   -2.8110   20.4490  -32.2070 C   0  0  0  0  0  0  0  0  0  0  0  0
   -2.2710   19.0950  -32.6990 C   0  0  0  0  0  0  0  0  0  0  0  0
   -2.8670   18.6840  -34.0630 C   0  0  0  0  0  0  0  0  0  0  0  0
   -4.0240   17.7640  -33.9660 N   0  0  0  0  0  0  0  0  0  0  0  0
   -4.9560   17.7880  -35.1120 C   0  0  0  0  0  0  0  0  0  0  0  0
   -6.0850   18.8350  -34.9610 C   0  0  0  0  0  0  0  0  0  0  0  0
   -6.1800   19.3750  -33.5830 N   0  0  0  0  0  0  0  0  0  0  0  0
   -7.4030   20.1970  -33.3370 C   0  0  0  0  0  0  0  0  0  0  0  0
   -8.5180   19.3130  -32.6860 C   0  0  0  0  0  0  0  0  0  0  0  0
   -8.7960   19.6540  -31.2160 C   0  0  0  0  0  0  0  0  0  0  0  0
   -9.2070   21.1260  -31.0420 C   0  0  0  0  0  0  0  0  0  0  0  0
   -8.4360   22.0850  -31.9700 C   0  0  0  0  0  0  0  0  0  0  0  0
   -7.1290   21.4670  -32.4780 C   0  0  0  0  0  0  0  0  0  0  0  0
   -6.0940   18.2480  -32.6340 C   0  0  0  0  0  0  0  0  0  0  0  0
   -4.6680   17.6830  -32.6350 C   0  0  0  0  0  0  0  0  0  0  0  0
   -2.2598   23.8357  -28.0155 H   0  0  0  0  0  0  0  0  0  0  0  0
   -2.0940   22.8839  -29.5299 H   0  0  0  0  0  0  0  0  0  0  0  0
   -1.7287   24.6427  -29.5299 H   0  0  0  0  0  0  0  0  0  0  0  0
   -4.4887   23.4827  -28.8959 H   0  0  0  0  0  0  0  0  0  0  0  0
   -4.0558   25.2055  -29.1923 H   0  0  0  0  0  0  0  0  0  0  0  0
   -5.5595   24.7058  -32.2077 H   0  0  0  0  0  0  0  0  0  0  0  0
   -5.9576   23.1658  -31.3600 H   0  0  0  0  0  0  0  0  0  0  0  0
   -5.8706   24.5756  -29.1790 H   0  0  0  0  0  0  0  0  0  0  0  0
   -5.9617   26.0062  -30.2615 H   0  0  0  0  0  0  0  0  0  0  0  0
   -7.2873   24.7940  -30.2615 H   0  0  0  0  0  0  0  0  0  0  0  0
   -2.4587   22.6908  -31.4446 H   0  0  0  0  0  0  0  0  0  0  0  0
   -3.8524   21.8873  -30.6325 H   0  0  0  0  0  0  0  0  0  0  0  0
   -5.2272   22.1012  -32.6175 H   0  0  0  0  0  0  0  0  0  0  0  0
   -4.0086   23.1400  -33.4229 H   0  0  0  0  0  0  0  0  0  0  0  0
   -1.9661   21.0646  -31.8648 H   0  0  0  0  0  0  0  0  0  0  0  0
   -3.5199   20.2538  -31.3888 H   0  0  0  0  0  0  0  0  0  0  0  0
   -1.1777   19.1656  -32.7981 H   0  0  0  0  0  0  0  0  0  0  0  0
   -2.5605   18.3309  -31.9626 H   0  0  0  0  0  0  0  0  0  0  0  0
   -3.1933   19.5951  -34.5859 H   0  0  0  0  0  0  0  0  0  0  0  0
   -2.0766   18.1430  -34.6040 H   0  0  0  0  0  0  0  0  0  0  0  0
   -4.3840   18.0203  -36.0224 H   0  0  0  0  0  0  0  0  0  0  0  0
   -5.4340   16.7987  -35.1639 H   0  0  0  0  0  0  0  0  0  0  0  0
   -5.8888   19.6673  -35.6530 H   0  0  0  0  0  0  0  0  0  0  0  0
   -7.0373   18.3341  -35.1894 H   0  0  0  0  0  0  0  0  0  0  0  0
   -7.7468   20.5625  -34.3159 H   0  0  0  0  0  0  0  0  0  0  0  0
   -9.4482   19.4515  -33.2565 H   0  0  0  0  0  0  0  0  0  0  0  0
   -8.1601   18.2732  -32.7126 H   0  0  0  0  0  0  0  0  0  0  0  0
   -9.6092   19.0109  -30.8484 H   0  0  0  0  0  0  0  0  0  0  0  0
   -7.8716   19.4859  -30.6440 H   0  0  0  0  0  0  0  0  0  0  0  0
  -10.2814   21.2171  -31.2597 H   0  0  0  0  0  0  0  0  0  0  0  0
   -8.9697   21.4116  -30.0066 H   0  0  0  0  0  0  0  0  0  0  0  0
   -9.0716   22.3308  -32.8335 H   0  0  0  0  0  0  0  0  0  0  0  0
   -8.1831   22.9861  -31.3921 H   0  0  0  0  0  0  0  0  0  0  0  0
   -6.5969   22.2080  -33.0927 H   0  0  0  0  0  0  0  0  0  0  0  0
   -6.5208   21.1752  -31.6091 H   0  0  0  0  0  0  0  0  0  0  0  0
   -6.3476   18.6002  -31.6232 H   0  0  0  0  0  0  0  0  0  0  0  0
   -6.7995   17.4603  -32.9370 H   0  0  0  0  0  0  0  0  0  0  0  0
   -4.0625   18.2536  -31.9154 H   0  0  0  0  0  0  0  0  0  0  0  0
   -4.7308   16.6199  -32.3596 H   0  0  0  0  0  0  0  0  0  0  0  0
  1  2  1  0
  2  3  1  0
  3  4  1  0
  4  5  1  0
  3  6  1  0
  6  7  1  0
  7  8  1  0
  8  9  1  0
  9 10  1  0
 10 11  1  0
 11 12  1  0
 12 13  1  0
 13 14  1  0
 14 15  1  0
 15 16  1  0
 16 17  1  0
 17 18  1  0
 18 19  1  0
 19 20  1  0
 20 21  1  0
 15 22  1  0
 22 23  1  0
 23 12  1  0
 21 16  1  0
  1 24  1  0
  1 25  1  0
  1 26  1  0
  2 27  1  0
  2 28  1  0
  4 29  1  0
  4 30  1  0
  5 31  1  0
  5 32  1  0
  5 33  1  0
  6 34  1  0
  6 35  1  0
  7 36  1  0
  7 37  1  0
  9 38  1  0
  9 39  1  0
 10 40  1  0
 10 41  1  0
 11 42  1  0
 11 43  1  0
 13 44  1  0
 13 45  1  0
 14 46  1  0
 14 47  1  0
 16 48  1  0
 17 49  1  0
 17 50  1  0
 18 51  1  0
 18 52  1  0
 19 53  1  0
 19 54  1  0
 20 55  1  0
 20 56  1  0
 21 57  1  0
 21 58  1  0
 22 59  1  0
 22 60  1  0
 23 61  1  0
 23 62  1  0
M  END
>  <UniqueID>  (25) 
25

>  <SMILES>  (25) 
CCN(CC)CCOCCCN1CCN(C2CCCCC2)CC1

>  <Energy>  (25) 
81.51618426368131

>  <Genealogy>  (25) 
CCN(CC)CCOCCCN1CCN(C2CCCCC2)CC1 (3D coordinates assigned)
CCN(CC)CCOCCCN1CCN(C2CCCCC2)CC1 (nonaromatic ring conformer: 81.51618426368131 kcal/mol)

>  <smiles>  (25) 
CCN(CC)CCOCCCN1CCN(C2CCCCC2)CC1

>  <score_type>  (25) 
oracle

>  <origin>  (25) 
adg

>  <m_score__min__energy>  (25) 
-8.0999999999999996

>  <m_primary>  (25) 
energy

$$$$
25:0
     RDKit          3D

 65 68  0  0  0  0  0  0  0  0999 V2000
   -1.6650   27.5580  -38.6980 C   0  0  0  0  0  0  0  0  0  0  0  0
   -1.8430   27.8840  -37.2170 C   0  0  0  0  0  0  0  0  0  0  0  0
   -0.6920   27.3850  -36.4330 N   0  0  0  0  0  0  0  0  0  0  0  0
   -0.8120   27.6990  -34.9990 C   0  0  0  0  0  0  0  0  0  0  0  0
   -0.3950   25.9550  -36.6860 C   0  0  0  0  0  0  0  0  0  0  0  0
    0.9390   25.6890  -37.4160 C   0  0  0  0  0  0  0  0  0  0  0  0
    1.3810   24.3590  -37.2160 O   0  0  0  0  0  0  0  0  0  0  0  0
    1.2750   23.9930  -35.8550 C   0  0  0  0  0  0  0  0  0  0  0  0
    0.9810   22.4980  -35.7580 C   0  0  0  0  0  0  0  0  0  0  0  0
   -0.1220   22.2640  -34.9010 O   0  0  0  0  0  0  0  0  0  0  0  0
    0.1950   21.3160  -33.8980 C   0  0  0  0  0  0  0  0  0  0  0  0
   -0.9860   21.1420  -32.9440 C   0  0  0  0  0  0  0  0  0  0  0  0
   -2.2480   21.3000  -33.6650 N   0  0  0  0  0  0  0  0  0  0  0  0
   -3.2740   20.2990  -33.5870 C   0  0  0  0  0  0  0  0  0  0  0  0
   -4.5490   20.6460  -33.1490 C   0  0  0  0  0  0  0  0  0  0  0  0
   -5.5660   19.7110  -33.1160 C   0  0  0  0  0  0  0  0  0  0  0  0
   -5.3980   18.4400  -33.6050 N   0  0  0  0  0  0  0  0  0  0  0  0
   -6.5700   17.5850  -33.8620 C   0  0  0  0  0  0  0  0  0  0  0  0
   -4.1130   18.0100  -33.8990 C   0  0  0  0  0  0  0  0  0  0  0  0
   -3.8280   16.6500  -34.1710 C   0  0  0  0  0  0  0  0  0  0  0  0
   -2.5290   16.2350  -34.4650 C   0  0  0  0  0  0  0  0  0  0  0  0
   -1.4830   17.1510  -34.4770 C   0  0  0  0  0  0  0  0  0  0  0  0
   -1.7240   18.4930  -34.1880 C   0  0  0  0  0  0  0  0  0  0  0  0
   -3.0280   18.9440  -33.9040 C   0  0  0  0  0  0  0  0  0  0  0  0
   -6.7570   20.3680  -32.5610 C   0  0  0  0  0  0  0  0  0  0  0  0
   -7.9810   19.8490  -32.1150 C   0  0  0  0  0  0  0  0  0  0  0  0
   -8.9170   20.7270  -31.5450 C   0  0  0  0  0  0  0  0  0  0  0  0
   -8.6100   22.0900  -31.3850 C   0  0  0  0  0  0  0  0  0  0  0  0
   -7.3550   22.5810  -31.7710 C   0  0  0  0  0  0  0  0  0  0  0  0
   -6.4380   21.7000  -32.3460 C   0  0  0  0  0  0  0  0  0  0  0  0
   -5.0190   22.0010  -32.7090 C   0  0  0  0  0  0  0  0  0  0  0  0
   -1.1402   26.5968  -38.8014 H   0  0  0  0  0  0  0  0  0  0  0  0
   -2.6516   27.4907  -39.1798 H   0  0  0  0  0  0  0  0  0  0  0  0
   -1.0750   28.3516  -39.1798 H   0  0  0  0  0  0  0  0  0  0  0  0
   -1.9194   28.9743  -37.0933 H   0  0  0  0  0  0  0  0  0  0  0  0
   -2.7589   27.3952  -36.8534 H   0  0  0  0  0  0  0  0  0  0  0  0
   -0.4814   26.8340  -34.4053 H   0  0  0  0  0  0  0  0  0  0  0  0
   -0.1831   28.5694  -34.7604 H   0  0  0  0  0  0  0  0  0  0  0  0
   -1.8611   27.9281  -34.7604 H   0  0  0  0  0  0  0  0  0  0  0  0
   -0.3640   25.4355  -35.7169 H   0  0  0  0  0  0  0  0  0  0  0  0
   -1.1901   25.5871  -37.3512 H   0  0  0  0  0  0  0  0  0  0  0  0
    0.7980   25.8611  -38.4933 H   0  0  0  0  0  0  0  0  0  0  0  0
    1.6991   26.3715  -37.0079 H   0  0  0  0  0  0  0  0  0  0  0  0
    2.2207   24.2161  -35.3394 H   0  0  0  0  0  0  0  0  0  0  0  0
    0.4603   24.5610  -35.3822 H   0  0  0  0  0  0  0  0  0  0  0  0
    0.7495   22.1088  -36.7605 H   0  0  0  0  0  0  0  0  0  0  0  0
    1.8648   21.9875  -35.3478 H   0  0  0  0  0  0  0  0  0  0  0  0
    0.4254   20.3500  -34.3709 H   0  0  0  0  0  0  0  0  0  0  0  0
    1.0662   21.6730  -33.3292 H   0  0  0  0  0  0  0  0  0  0  0  0
   -0.9466   20.1376  -32.4971 H   0  0  0  0  0  0  0  0  0  0  0  0
   -0.9256   21.9074  -32.1563 H   0  0  0  0  0  0  0  0  0  0  0  0
   -2.2410   21.9300  -34.4990 H   0  0  0  0  0  0  0  0  0  0  0  0
   -7.0078   17.2656  -32.9048 H   0  0  0  0  0  0  0  0  0  0  0  0
   -7.3179   18.1511  -34.4366 H   0  0  0  0  0  0  0  0  0  0  0  0
   -6.2593   16.6999  -34.4366 H   0  0  0  0  0  0  0  0  0  0  0  0
   -4.6421   15.9105  -34.1502 H   0  0  0  0  0  0  0  0  0  0  0  0
   -2.3310   15.1764  -34.6888 H   0  0  0  0  0  0  0  0  0  0  0  0
   -0.4628   16.8157  -34.7152 H   0  0  0  0  0  0  0  0  0  0  0  0
   -0.8875   19.2073  -34.1816 H   0  0  0  0  0  0  0  0  0  0  0  0
   -8.2034   18.7759  -32.2097 H   0  0  0  0  0  0  0  0  0  0  0  0
   -9.8969   20.3461  -31.2215 H   0  0  0  0  0  0  0  0  0  0  0  0
   -9.3573   22.7733  -30.9554 H   0  0  0  0  0  0  0  0  0  0  0  0
   -7.0979   23.6403  -31.6235 H   0  0  0  0  0  0  0  0  0  0  0  0
   -4.9569   22.7359  -33.5251 H   0  0  0  0  0  0  0  0  0  0  0  0
   -4.4259   22.4479  -31.8975 H   0  0  0  0  0  0  0  0  0  0  0  0
  1  2  1  0
  2  3  1  0
  3  4  1  0
  3  5  1  0
  5  6  1  0
  6  7  1  0
  7  8  1  0
  8  9  1  0
  9 10  1  0
 10 11  1  0
 11 12  1  0
 12 13  1  0
 13 14  1  0
 14 15  2  0
 15 16  1  0
 16 17  2  0
 17 18  1  0
 17 19  1  0
 19 20  2  0
 20 21  1  0
 21 22  2  0
 22 23  1  0
 23 24  2  0
 16 25  1  0
 25 26  2  0
 26 27  1  0
 27 28  2  0
 28 29  1  0
 29 30  2  0
 30 31  1  0
 24 14  1  0
 30 25  1  0
 31 15  1  0
 24 19  1  0
  1 32  1  0
  1 33  1  0
  1 34  1  0
  2 35  1  0
  2 36  1  0
  4 37  1  0
  4 38  1  0
  4 39  1  0
  5 40  1  0
  5 41  1  0
  6 42  1  0
  6 43  1  0
  8 44  1  0
  8 45  1  0
  9 46  1  0
  9 47  1  0
 11 48  1  0
 11 49  1  0
 12 50  1  0
 12 51  1  0
 13 52  1  0
 18 53  1  0
 18 54  1  0
 18 55  1  0
 20 56  1  0
 21 57  1  0
 22 58  1  0
 23 59  1  0
 26 60  1  0
 27 61  1  0
 28 62  1  0
 29 63  1  0
 31 64  1  0
 31 65  1  0
M  CHG  1  17   1
M  END
>  <UniqueID>  (26) 
26

>  <SMILES>  (26) 
CCN(C)CCOCCOCCNc1c2c([n+](C)c3ccccc13)-c1ccccc1C2

>  <Energy>  (26) 
111.96660712036002

>  <Genealogy>  (26) 
CCN(C)CCOCCOCCNc1c2c([n+](C)c3ccccc13)-c1ccccc1C2 (3D coordinates assigned)
CCN(C)CCOCCOCCNc1c2c([n+](C)c3ccccc13)-c1ccccc1C2 (nonaromatic ring conformer: 111.96660712036002 kcal/mol)

>  <smiles>  (26) 
CCN(C)CCOCCOCCNc1c2c([n+](C)c3ccccc13)-c1ccccc1C2

>  <score_type>  (26) 
oracle

>  <origin>  (26) 
adg

>  <m_score__min__energy>  (26) 
-9.6500000000000004

>  <m_primary>  (26) 
energy

$$$$
26:0
     RDKit          3D

 54 56  0  0  0  0  0  0  0  0999 V2000
   -3.7590   23.4350  -29.2010 C   0  0  0  0  0  0  0  0  0  0  0  0
   -2.3310   23.3320  -29.7230 C   0  0  0  0  0  0  0  0  0  0  0  0
   -1.9130   21.9130  -29.7540 N   0  0  0  0  0  0  0  0  0  0  0  0
   -1.6590   21.3680  -28.4010 C   0  0  0  0  0  0  0  0  0  0  0  0
   -2.7440   20.3830  -27.9720 C   0  0  0  0  0  0  0  0  0  0  0  0
   -0.8810   21.6070  -30.7780 C   0  0  0  0  0  0  0  0  0  0  0  0
   -1.1840   20.4130  -31.7140 C   0  0  0  0  0  0  0  0  0  0  0  0
   -2.6130   20.0660  -31.7520 N   0  0  0  0  0  0  0  0  0  0  0  0
   -3.2810   20.6080  -32.9500 C   0  0  0  0  0  0  0  0  0  0  0  0
   -4.6480   21.1960  -32.6360 C   0  0  0  0  0  0  0  0  0  0  0  0
   -4.7160   22.5610  -32.3190 C   0  0  0  0  0  0  0  0  0  0  0  0
   -5.9270   23.1590  -31.9850 C   0  0  0  0  0  0  0  0  0  0  0  0
   -7.1060   22.4090  -31.9640 C   0  0  0  0  0  0  0  0  0  0  0  0
   -8.3220   23.0260  -31.6310 C   0  0  0  0  0  0  0  0  0  0  0  0
   -9.5060   22.2880  -31.6180 C   0  0  0  0  0  0  0  0  0  0  0  0
   -9.4890   20.9320  -31.9410 C   0  0  0  0  0  0  0  0  0  0  0  0
   -8.2860   20.3030  -32.2740 C   0  0  0  0  0  0  0  0  0  0  0  0
   -7.0730   21.0270  -32.2860 C   0  0  0  0  0  0  0  0  0  0  0  0
   -5.8350   20.4150  -32.6220 C   0  0  0  0  0  0  0  0  0  0  0  0
   -5.7830   18.9730  -32.9610 C   0  0  0  0  0  0  0  0  0  0  0  0
   -5.7960   18.0060  -31.9440 C   0  0  0  0  0  0  0  0  0  0  0  0
   -5.7450   16.6470  -32.2670 C   0  0  0  0  0  0  0  0  0  0  0  0
   -5.6900   16.2460  -33.6050 C   0  0  0  0  0  0  0  0  0  0  0  0
   -5.6920   17.2050  -34.6230 C   0  0  0  0  0  0  0  0  0  0  0  0
   -5.7420   18.5660  -34.3030 C   0  0  0  0  0  0  0  0  0  0  0  0
   -3.7483   23.4342  -28.1011 H   0  0  0  0  0  0  0  0  0  0  0  0
   -4.2151   24.3684  -29.5626 H   0  0  0  0  0  0  0  0  0  0  0  0
   -4.3444   22.5767  -29.5626 H   0  0  0  0  0  0  0  0  0  0  0  0
   -2.2821   23.7500  -30.7393 H   0  0  0  0  0  0  0  0  0  0  0  0
   -1.6588   23.8956  -29.0593 H   0  0  0  0  0  0  0  0  0  0  0  0
   -0.6886   20.8500  -28.4025 H   0  0  0  0  0  0  0  0  0  0  0  0
   -1.6590   22.2070  -27.6896 H   0  0  0  0  0  0  0  0  0  0  0  0
   -2.7888   20.3423  -26.8737 H   0  0  0  0  0  0  0  0  0  0  0  0
   -3.7161   20.7135  -28.3666 H   0  0  0  0  0  0  0  0  0  0  0  0
   -2.5087   19.3835  -28.3666 H   0  0  0  0  0  0  0  0  0  0  0  0
   -0.7540   22.5018  -31.4050 H   0  0  0  0  0  0  0  0  0  0  0  0
    0.0187   21.3195  -30.2141 H   0  0  0  0  0  0  0  0  0  0  0  0
   -0.8584   20.6732  -32.7320 H   0  0  0  0  0  0  0  0  0  0  0  0
   -0.6417   19.5397  -31.3225 H   0  0  0  0  0  0  0  0  0  0  0  0
   -2.7330   19.0260  -31.7150 H   0  0  0  0  0  0  0  0  0  0  0  0
   -3.0890   20.4880  -30.9250 H   0  0  0  0  0  0  0  0  0  0  0  0
   -2.6475   21.3973  -33.3809 H   0  0  0  0  0  0  0  0  0  0  0  0
   -3.4275   19.7778  -33.6566 H   0  0  0  0  0  0  0  0  0  0  0  0
   -3.7983   23.1674  -32.3348 H   0  0  0  0  0  0  0  0  0  0  0  0
   -5.9567   24.2300  -31.7356 H   0  0  0  0  0  0  0  0  0  0  0  0
   -8.3416   24.0966  -31.3791 H   0  0  0  0  0  0  0  0  0  0  0  0
  -10.4548   22.7771  -31.3523 H   0  0  0  0  0  0  0  0  0  0  0  0
  -10.4255   20.3550  -31.9338 H   0  0  0  0  0  0  0  0  0  0  0  0
   -8.2838   19.2331  -32.5294 H   0  0  0  0  0  0  0  0  0  0  0  0
   -5.8464   18.3182  -30.8904 H   0  0  0  0  0  0  0  0  0  0  0  0
   -5.7481   15.8919  -31.4671 H   0  0  0  0  0  0  0  0  0  0  0  0
   -5.6451   15.1762  -33.8572 H   0  0  0  0  0  0  0  0  0  0  0  0
   -5.6542   16.8890  -35.6759 H   0  0  0  0  0  0  0  0  0  0  0  0
   -5.7492   19.3186  -35.1053 H   0  0  0  0  0  0  0  0  0  0  0  0
  1  2  1  0
  2  3  1  0
  3  4  1  0
  4  5  1  0
  3  6  1  0
  6  7  1  0
  7  8  1  0
  8  9  1  0
  9 10  1  0
 10 11  2  0
 11 12  1  0
 12 13  2  0
 13 14  1  0
 14 15  2  0
 15 16  1  0
 16 17  2  0
 17 18  1  0
 18 19  2  0
 19 20  1  0
 20 21  2  0
 21 22  1  0
 22 23  2  0
 23 24  1  0
 24 25  2  0
 19 10  1  0
 25 20  1  0
 18 13  1  0
  1 26  1  0
  1 27  1  0
  1 28  1  0
  2 29  1  0
  2 30  1  0
  4 31  1  0
  4 32  1  0
  5 33  1  0
  5 34  1  0
  5 35  1  0
  6 36  1  0
  6 37  1  0
  7 38  1  0
  7 39  1  0
  8 40  1  0
  8 41  1  0
  9 42  1  0
  9 43  1  0
 11 44  1  0
 12 45  1  0
 14 46  1  0
 15 47  1  0
 16 48  1  0
 17 49  1  0
 21 50  1  0
 22 51  1  0
 23 52  1  0
 24 53  1  0
 25 54  1  0
M  CHG  1   8   1
M  END
>  <UniqueID>  (27) 
27

>  <SMILES>  (27) 
CCN(CC)CC[NH2+]Cc1ccc2ccccc2c1-c1ccccc1

>  <Energy>  (27) 
71.45098097143263

>  <Genealogy>  (27) 
CCN(CC)CC[NH2+]Cc1ccc2ccccc2c1-c1ccccc1 (protonated)
CCN(CC)CC[NH2+]Cc1ccc2ccccc2c1-c1ccccc1 (3D coordinates assigned)
CCN(CC)CC[NH2+]Cc1ccc2ccccc2c1-c1ccccc1 (optimized conformer: 71.45098097143263 kcal/mol)

>  <smiles>  (27) 
CCN(CC)CCNCc1ccc2ccccc2c1-c1ccccc1

>  <score_type>  (27) 
oracle

>  <origin>  (27) 
adg

>  <m_score__min__energy>  (27) 
-7.71

>  <m_primary>  (27) 
energy

$$$$
27:0
     RDKit          3D

 49 51  0  0  0  0  0  0  0  0999 V2000
   -2.3480   24.9250  -26.9560 C   0  0  0  0  0  0  0  0  0  0  0  0
   -1.6200   25.2940  -28.2390 C   0  0  0  0  0  0  0  0  0  0  0  0
   -2.5430   25.2970  -29.3070 O   0  0  0  0  0  0  0  0  0  0  0  0
   -3.5640   24.3580  -29.0490 C   0  0  0  0  0  0  0  0  0  0  0  0
   -4.8550   24.8180  -29.7190 C   0  0  0  0  0  0  0  0  0  0  0  0
   -4.8290   24.4990  -31.1000 O   0  0  0  0  0  0  0  0  0  0  0  0
   -4.5140   23.1360  -31.3160 C   0  0  0  0  0  0  0  0  0  0  0  0
   -5.0300   22.6740  -32.6810 C   0  0  0  0  0  0  0  0  0  0  0  0
   -5.3310   21.2360  -32.6670 N   0  0  0  0  0  0  0  0  0  0  0  0
   -4.5330   20.1840  -33.0090 C   0  0  0  0  0  0  0  0  0  0  0  0
   -3.1300   20.2960  -33.5200 C   0  0  0  0  0  0  0  0  0  0  0  0
   -2.4110   21.2060  -32.6970 O   0  0  0  0  0  0  0  0  0  0  0  0
   -1.6290   20.8630  -31.5830 C   0  0  0  0  0  0  0  0  0  0  0  0
   -1.1800   19.5370  -31.4960 C   0  0  0  0  0  0  0  0  0  0  0  0
   -0.3860   19.1230  -30.4240 C   0  0  0  0  0  0  0  0  0  0  0  0
   -0.0300   20.0320  -29.4250 C   0  0  0  0  0  0  0  0  0  0  0  0
   -0.4750   21.3530  -29.4950 C   0  0  0  0  0  0  0  0  0  0  0  0
   -1.2720   21.7770  -30.5650 C   0  0  0  0  0  0  0  0  0  0  0  0
   -1.6810   23.0690  -30.5870 F   0  0  0  0  0  0  0  0  0  0  0  0
   -5.1690   18.9830  -32.9500 N   0  0  0  0  0  0  0  0  0  0  0  0
   -6.4070   19.3130  -32.5460 C   0  0  0  0  0  0  0  0  0  0  0  0
   -7.4880   18.4580  -32.3430 C   0  0  0  0  0  0  0  0  0  0  0  0
   -8.7120   19.0290  -31.9500 C   0  0  0  0  0  0  0  0  0  0  0  0
   -8.8260   20.4270  -31.7790 C   0  0  0  0  0  0  0  0  0  0  0  0
   -7.7180   21.2650  -32.0000 C   0  0  0  0  0  0  0  0  0  0  0  0
   -6.5140   20.6630  -32.3810 C   0  0  0  0  0  0  0  0  0  0  0  0
   -1.7430   25.2316  -26.0900 H   0  0  0  0  0  0  0  0  0  0  0  0
   -3.3199   25.4393  -26.9250 H   0  0  0  0  0  0  0  0  0  0  0  0
   -2.5077   23.8371  -26.9250 H   0  0  0  0  0  0  0  0  0  0  0  0
   -1.1732   26.2938  -28.1350 H   0  0  0  0  0  0  0  0  0  0  0  0
   -0.8238   24.5616  -28.4382 H   0  0  0  0  0  0  0  0  0  0  0  0
   -3.2709   23.3770  -29.4512 H   0  0  0  0  0  0  0  0  0  0  0  0
   -3.7221   24.2753  -27.9636 H   0  0  0  0  0  0  0  0  0  0  0  0
   -5.7102   24.3136  -29.2454 H   0  0  0  0  0  0  0  0  0  0  0  0
   -4.9515   25.9077  -29.6035 H   0  0  0  0  0  0  0  0  0  0  0  0
   -3.4222   23.0070  -31.2796 H   0  0  0  0  0  0  0  0  0  0  0  0
   -4.9946   22.5322  -30.5321 H   0  0  0  0  0  0  0  0  0  0  0  0
   -5.9456   23.2315  -32.9277 H   0  0  0  0  0  0  0  0  0  0  0  0
   -4.2510   22.8633  -33.4343 H   0  0  0  0  0  0  0  0  0  0  0  0
   -2.6459   19.3087  -33.4892 H   0  0  0  0  0  0  0  0  0  0  0  0
   -3.1395   20.6600  -34.5580 H   0  0  0  0  0  0  0  0  0  0  0  0
   -1.4559   18.8161  -32.2797 H   0  0  0  0  0  0  0  0  0  0  0  0
   -0.0408   18.0802  -30.3665 H   0  0  0  0  0  0  0  0  0  0  0  0
    0.6003   19.7071  -28.5841 H   0  0  0  0  0  0  0  0  0  0  0  0
   -0.1977   22.0656  -28.7043 H   0  0  0  0  0  0  0  0  0  0  0  0
   -7.3877   17.3719  -32.4854 H   0  0  0  0  0  0  0  0  0  0  0  0
   -9.5853   18.3836  -31.7748 H   0  0  0  0  0  0  0  0  0  0  0  0
   -9.7878   20.8630  -31.4709 H   0  0  0  0  0  0  0  0  0  0  0  0
   -7.7955   22.3554  -31.8775 H   0  0  0  0  0  0  0  0  0  0  0  0
  1  2  1  0
  2  3  1  0
  3  4  1  0
  4  5  1  0
  5  6  1  0
  6  7  1  0
  7  8  1  0
  8  9  1  0
  9 10  1  0
 10 11  1  0
 11 12  1  0
 12 13  1  0
 13 14  2  0
 14 15  1  0
 15 16  2  0
 16 17  1  0
 17 18  2  0
 18 19  1  0
 10 20  2  0
 20 21  1  0
 21 22  2  0
 22 23  1  0
 23 24  2  0
 24 25  1  0
 25 26  2  0
 26  9  1  0
 18 13  1  0
 26 21  1  0
  1 27  1  0
  1 28  1  0
  1 29  1  0
  2 30  1  0
  2 31  1  0
  4 32  1  0
  4 33  1  0
  5 34  1  0
  5 35  1  0
  7 36  1  0
  7 37  1  0
  8 38  1  0
  8 39  1  0
 11 40  1  0
 11 41  1  0
 14 42  1  0
 15 43  1  0
 16 44  1  0
 17 45  1  0
 22 46  1  0
 23 47  1  0
 24 48  1  0
 25 49  1  0
M  END
>  <UniqueID>  (28) 
28

>  <SMILES>  (28) 
CCOCCOCCn1c(COc2ccccc2F)nc2ccccc21

>  <Energy>  (28) 
84.70903991652905

>  <Genealogy>  (28) 
CCOCCOCCn1c(COc2ccccc2F)nc2ccccc21 (3D coordinates assigned)
CCOCCOCCn1c(COc2ccccc2F)nc2ccccc21 (optimized conformer: 84.70903991652905 kcal/mol)

>  <smiles>  (28) 
CCOCCOCCn1c(COc2ccccc2F)nc2ccccc21

>  <score_type>  (28) 
oracle

>  <origin>  (28) 
adg

>  <m_score__min__energy>  (28) 
-7.46

>  <m_primary>  (28) 
energy

$$$$
28:0
     RDKit          3D

 30 31  0  0  0  0  0  0  0  0999 V2000
   -4.2900   23.9445  -26.2887 H   0  0  0  0  0  0  0  0  0  0  0  0
   -3.7720   24.4890  -27.0920 C   0  0  0  0  0  0  0  0  0  0  0  0
   -3.6616   25.5819  -27.0332 H   0  0  0  0  0  0  0  0  0  0  0  0
   -3.2770   23.8230  -28.1390 C   0  0  0  0  0  0  0  0  0  0  0  0
   -3.3936   22.7302  -28.1868 H   0  0  0  0  0  0  0  0  0  0  0  0
   -2.5640   24.5370  -29.2530 C   0  0  0  0  0  0  0  0  0  0  0  0
   -2.0302   25.4058  -28.8404 H   0  0  0  0  0  0  0  0  0  0  0  0
   -1.8557   23.8381  -29.7219 H   0  0  0  0  0  0  0  0  0  0  0  0
   -3.4880   24.9840  -30.2450 O   0  0  0  0  0  0  0  0  0  0  0  0
   -4.7210   24.3780  -30.5370 C   0  0  0  0  0  0  0  0  0  0  0  0
   -5.9630   24.9490  -30.1520 C   0  0  0  0  0  0  0  0  0  0  0  0
   -5.9769   25.9021  -29.6031 H   0  0  0  0  0  0  0  0  0  0  0  0
   -7.1750   24.3090  -30.4650 C   0  0  0  0  0  0  0  0  0  0  0  0
   -8.1360   24.7527  -30.1657 H   0  0  0  0  0  0  0  0  0  0  0  0
   -7.1370   23.1010  -31.1620 C   0  0  0  0  0  0  0  0  0  0  0  0
   -5.9220   22.5490  -31.5380 C   0  0  0  0  0  0  0  0  0  0  0  0
   -6.1950   21.1080  -32.3600 S   0  0  0  0  0  0  0  0  0  0  0  0
   -7.8710   21.2510  -32.1940 C   0  0  0  0  0  0  0  0  0  0  0  0
   -8.7080   20.3740  -32.6650 N   0  0  0  0  0  0  0  0  0  0  0  0
   -9.0470   19.0960  -32.0410 C   0  0  0  0  0  0  0  0  0  0  0  0
   -9.4127   19.2785  -31.0198 H   0  0  0  0  0  0  0  0  0  0  0  0
   -9.8253   18.6040  -32.6428 H   0  0  0  0  0  0  0  0  0  0  0  0
   -7.8250   18.1850  -31.9800 C   0  0  0  0  0  0  0  0  0  0  0  0
   -7.5645   17.9908  -30.9291 H   0  0  0  0  0  0  0  0  0  0  0  0
   -8.0515   17.2336  -32.4835 H   0  0  0  0  0  0  0  0  0  0  0  0
   -6.9778   18.6737  -32.4835 H   0  0  0  0  0  0  0  0  0  0  0  0
   -8.2290   22.3800  -31.5270 N   0  0  0  0  0  0  0  0  0  0  0  0
   -9.2080   22.6770  -31.3180 H   0  0  0  0  0  0  0  0  0  0  0  0
   -4.7090   23.1620  -31.2430 C   0  0  0  0  0  0  0  0  0  0  0  0
   -3.7588   22.7046  -31.5558 H   0  0  0  0  0  0  0  0  0  0  0  0
  1  2  1  0
  2  3  1  0
  2  4  2  0
  4  5  1  0
  4  6  1  0
  6  7  1  0
  6  8  1  0
  6  9  1  0
  9 10  1  0
 10 11  2  0
 11 12  1  0
 11 13  1  0
 13 14  1  0
 13 15  2  0
 15 16  1  0
 16 17  1  0
 17 18  1  0
 18 19  2  0
 19 20  1  0
 20 21  1  0
 20 22  1  0
 20 23  1  0
 23 24  1  0
 23 25  1  0
 23 26  1  0
 18 27  1  0
 27 28  1  0
 16 29  2  0
 29 30  1  0
 29 10  1  0
 27 15  1  0
M  END
>  <UniqueID>  (29) 
29

>  <SMILES>  (29) 
C=CCOc1ccc2[nH]/c(=N\CC)sc2c1

>  <Energy>  (29) 
59.55518435231743

>  <Genealogy>  (29) 
C=CCOc1ccc2[nH]/c(=N\CC)sc2c1 (cis-trans isomerization)
C=CCOc1ccc2[nH]/c(=N\CC)sc2c1 (3D coordinates assigned)
C=CCOc1ccc2[nH]/c(=N\CC)sc2c1 (optimized conformer: 59.55518435231743 kcal/mol)

>  <smiles>  (29) 
C=CCOc1ccc2[nH]c(=NCC)sc2c1

>  <score_type>  (29) 
oracle

>  <origin>  (29) 
adg

>  <m_score__min__energy>  (29) 
-6.3300000000000001

>  <m_primary>  (29) 
energy

$$$$
29:0
     RDKit          3D

 61 63  0  0  0  0  0  0  0  0999 V2000
    0.3310   23.8250  -25.7270 C   0  0  0  0  0  0  0  0  0  0  0  0
   -0.8680   24.4150  -24.9780 C   0  0  0  0  0  0  0  0  0  0  0  0
   -1.5000   25.5890  -25.6380 N   0  0  0  0  0  0  0  0  0  0  0  0
   -1.2460   26.8760  -24.9210 C   0  0  0  0  0  0  0  0  0  0  0  0
   -0.7780   26.7520  -23.4600 C   0  0  0  0  0  0  0  0  0  0  0  0
   -2.9150   25.3310  -26.0160 C   0  0  0  0  0  0  0  0  0  0  0  0
   -3.0280   24.5350  -27.3230 C   0  0  0  0  0  0  0  0  0  0  0  0
   -2.0920   25.0400  -28.2580 O   0  0  0  0  0  0  0  0  0  0  0  0
   -1.8960   24.1230  -29.3180 C   0  0  0  0  0  0  0  0  0  0  0  0
   -3.2250   23.8340  -30.0120 C   0  0  0  0  0  0  0  0  0  0  0  0
   -3.7700   25.0490  -30.4930 O   0  0  0  0  0  0  0  0  0  0  0  0
   -5.1590   25.1350  -30.2340 C   0  0  0  0  0  0  0  0  0  0  0  0
   -5.8570   23.8060  -30.5470 C   0  0  0  0  0  0  0  0  0  0  0  0
   -5.5190   23.3310  -31.8900 N   0  0  0  0  0  0  0  0  0  0  0  0
   -5.7990   21.9880  -32.3200 C   0  0  0  0  0  0  0  0  0  0  0  0
   -7.1110   21.4690  -32.3150 C   0  0  0  0  0  0  0  0  0  0  0  0
   -8.2020   22.2720  -31.9230 C   0  0  0  0  0  0  0  0  0  0  0  0
   -9.4970   21.7590  -31.9180 C   0  0  0  0  0  0  0  0  0  0  0  0
   -9.7330   20.4470  -32.3190 C   0  0  0  0  0  0  0  0  0  0  0  0
   -8.6750   19.6310  -32.7220 C   0  0  0  0  0  0  0  0  0  0  0  0
   -7.3370   20.1070  -32.7040 C   0  0  0  0  0  0  0  0  0  0  0  0
   -6.2670   19.2960  -33.0630 N   0  0  0  0  0  0  0  0  0  0  0  0
   -6.4620   17.8570  -33.3450 C   0  0  0  0  0  0  0  0  0  0  0  0
   -5.0130   19.8550  -33.1680 C   0  0  0  0  0  0  0  0  0  0  0  0
   -3.8520   19.2260  -33.6720 C   0  0  0  0  0  0  0  0  0  0  0  0
   -2.7310   20.0500  -33.6610 C   0  0  0  0  0  0  0  0  0  0  0  0
   -3.1670   21.5550  -33.0460 S   0  0  0  0  0  0  0  0  0  0  0  0
   -4.7810   21.1650  -32.7810 C   0  0  0  0  0  0  0  0  0  0  0  0
    1.0730   23.4599  -25.0016 H   0  0  0  0  0  0  0  0  0  0  0  0
   -0.0060   22.9899  -26.3586 H   0  0  0  0  0  0  0  0  0  0  0  0
    0.7870   24.6016  -26.3586 H   0  0  0  0  0  0  0  0  0  0  0  0
   -1.6297   23.6278  -24.8776 H   0  0  0  0  0  0  0  0  0  0  0  0
   -0.4836   24.7730  -24.0115 H   0  0  0  0  0  0  0  0  0  0  0  0
   -0.9720   25.6690  -26.5400 H   0  0  0  0  0  0  0  0  0  0  0  0
   -0.4715   27.4243  -25.4774 H   0  0  0  0  0  0  0  0  0  0  0  0
   -2.2178   27.3896  -24.8791 H   0  0  0  0  0  0  0  0  0  0  0  0
   -1.6181   26.9746  -22.7857 H   0  0  0  0  0  0  0  0  0  0  0  0
   -0.4207   25.7282  -23.2751 H   0  0  0  0  0  0  0  0  0  0  0  0
    0.0393   27.4646  -23.2751 H   0  0  0  0  0  0  0  0  0  0  0  0
   -3.3988   24.7598  -25.2100 H   0  0  0  0  0  0  0  0  0  0  0  0
   -3.4074   26.3029  -26.1679 H   0  0  0  0  0  0  0  0  0  0  0  0
   -2.8161   23.4736  -27.1269 H   0  0  0  0  0  0  0  0  0  0  0  0
   -4.0457   24.6333  -27.7288 H   0  0  0  0  0  0  0  0  0  0  0  0
   -1.1912   24.5524  -30.0453 H   0  0  0  0  0  0  0  0  0  0  0  0
   -1.4891   23.1848  -28.9128 H   0  0  0  0  0  0  0  0  0  0  0  0
   -3.0589   23.1459  -30.8540 H   0  0  0  0  0  0  0  0  0  0  0  0
   -3.9229   23.3714  -29.2986 H   0  0  0  0  0  0  0  0  0  0  0  0
   -5.3130   25.3816  -29.1731 H   0  0  0  0  0  0  0  0  0  0  0  0
   -5.5887   25.9176  -30.8765 H   0  0  0  0  0  0  0  0  0  0  0  0
   -5.5405   23.0529  -29.8104 H   0  0  0  0  0  0  0  0  0  0  0  0
   -6.9444   23.9650  -30.4984 H   0  0  0  0  0  0  0  0  0  0  0  0
   -5.1940   24.0300  -32.5960 H   0  0  0  0  0  0  0  0  0  0  0  0
   -8.0285   23.3145  -31.6180 H   0  0  0  0  0  0  0  0  0  0  0  0
  -10.3363   22.3930  -31.5960 H   0  0  0  0  0  0  0  0  0  0  0  0
  -10.7593   20.0512  -32.3182 H   0  0  0  0  0  0  0  0  0  0  0  0
   -8.8804   18.6041  -33.0585 H   0  0  0  0  0  0  0  0  0  0  0  0
   -6.5369   17.3044  -32.3968 H   0  0  0  0  0  0  0  0  0  0  0  0
   -7.3871   17.7189  -33.9239 H   0  0  0  0  0  0  0  0  0  0  0  0
   -5.6070   17.4777  -33.9239 H   0  0  0  0  0  0  0  0  0  0  0  0
   -3.8363   18.1883  -34.0366 H   0  0  0  0  0  0  0  0  0  0  0  0
   -1.7239   19.7645  -33.9991 H   0  0  0  0  0  0  0  0  0  0  0  0
  1  2  1  0
  2  3  1  0
  3  4  1  0
  4  5  1  0
  3  6  1  0
  6  7  1  0
  7  8  1  0
  8  9  1  0
  9 10  1  0
 10 11  1  0
 11 12  1  0
 12 13  1  0
 13 14  1  0
 14 15  1  0
 15 16  2  0
 16 17  1  0
 17 18  2  0
 18 19  1  0
 19 20  2  0
 20 21  1  0
 21 22  2  0
 22 23  1  0
 22 24  1  0
 24 25  1  0
 25 26  2  0
 26 27  1  0
 27 28  1  0
 28 15  1  0
 21 16  1  0
 28 24  2  0
  1 29  1  0
  1 30  1  0
  1 31  1  0
  2 32  1  0
  2 33  1  0
  3 34  1  0
  4 35  1  0
  4 36  1  0
  5 37  1  0
  5 38  1  0
  5 39  1  0
  6 40  1  0
  6 41  1  0
  7 42  1  0
  7 43  1  0
  9 44  1  0
  9 45  1  0
 10 46  1  0
 10 47  1  0
 12 48  1  0
 12 49  1  0
 13 50  1  0
 13 51  1  0
 14 52  1  0
 17 53  1  0
 18 54  1  0
 19 55  1  0
 20 56  1  0
 23 57  1  0
 23 58  1  0
 23 59  1  0
 25 60  1  0
 26 61  1  0
M  CHG  2   3   1  22   1
M  END
>  <UniqueID>  (30) 
30

>  <SMILES>  (30) 
CC[NH+](CC)CCOCCOCCNc1c2ccccc2[n+](C)c2ccsc12

>  <Energy>  (30) 
117.24174830062958

>  <Genealogy>  (30) 
CC[NH+](CC)CCOCCOCCNc1c2ccccc2[n+](C)c2ccsc12 (protonated)
CC[NH+](CC)CCOCCOCCNc1c2ccccc2[n+](C)c2ccsc12 (3D coordinates assigned)
CC[NH+](CC)CCOCCOCCNc1c2ccccc2[n+](C)c2ccsc12 (optimized conformer: 117.24174830062958 kcal/mol)

>  <smiles>  (30) 
CCN(CC)CCOCCOCCNc1c2ccccc2[n+](C)c2ccsc12

>  <score_type>  (30) 
oracle

>  <origin>  (30) 
adg

>  <m_score__min__energy>  (30) 
-8.8200000000000003

>  <m_primary>  (30) 
energy

$$$$
30:0
     RDKit          3D

 60 62  0  0  0  0  0  0  0  0999 V2000
   -6.0620   25.3680  -29.4360 C   0  0  0  0  0  0  0  0  0  0  0  0
   -5.1310   25.4720  -30.6470 C   0  0  0  0  0  0  0  0  0  0  0  0
   -3.8600   24.7260  -30.4580 N   0  0  0  0  0  0  0  0  0  0  0  0
   -3.5920   24.5360  -29.0070 C   0  0  0  0  0  0  0  0  0  0  0  0
   -2.1090   24.2760  -28.7790 C   0  0  0  0  0  0  0  0  0  0  0  0
   -3.9030   23.4260  -31.1730 C   0  0  0  0  0  0  0  0  0  0  0  0
   -5.3330   22.8750  -31.3210 C   0  0  0  0  0  0  0  0  0  0  0  0
   -5.5600   22.2640  -32.6350 N   0  0  0  0  0  0  0  0  0  0  0  0
   -5.5930   20.8390  -32.8350 C   0  0  0  0  0  0  0  0  0  0  0  0
   -6.7650   20.1040  -32.5860 C   0  0  0  0  0  0  0  0  0  0  0  0
   -7.8690   20.6940  -31.9350 C   0  0  0  0  0  0  0  0  0  0  0  0
   -9.0220   19.9580  -31.6760 C   0  0  0  0  0  0  0  0  0  0  0  0
   -9.0860   18.6160  -32.0330 C   0  0  0  0  0  0  0  0  0  0  0  0
   -7.9960   18.0010  -32.6480 C   0  0  0  0  0  0  0  0  0  0  0  0
   -6.8170   18.7310  -32.9480 C   0  0  0  0  0  0  0  0  0  0  0  0
   -5.7240   18.1310  -33.5460 N   0  0  0  0  0  0  0  0  0  0  0  0
   -5.8640   16.8050  -34.1850 C   0  0  0  0  0  0  0  0  0  0  0  0
   -4.5030   18.7770  -33.5490 C   0  0  0  0  0  0  0  0  0  0  0  0
   -3.3010   18.0910  -33.8540 C   0  0  0  0  0  0  0  0  0  0  0  0
   -2.0780   18.7610  -33.9060 C   0  0  0  0  0  0  0  0  0  0  0  0
   -0.6220   17.8550  -34.3010 Cl  0  0  0  0  0  0  0  0  0  0  0  0
   -2.0210   20.1340  -33.6520 C   0  0  0  0  0  0  0  0  0  0  0  0
   -0.7740   20.8410  -33.7380 N   0  0  0  0  0  0  0  0  0  0  0  0
   -0.2300   21.1680  -35.0540 C   0  0  0  0  0  0  0  0  0  0  0  0
    0.0710   20.9650  -32.5460 C   0  0  0  0  0  0  0  0  0  0  0  0
   -0.7390   21.4920  -31.3690 C   0  0  0  0  0  0  0  0  0  0  0  0
   -3.1850   20.8220  -33.3010 C   0  0  0  0  0  0  0  0  0  0  0  0
   -4.4270   20.1550  -33.2250 C   0  0  0  0  0  0  0  0  0  0  0  0
   -5.4697   25.4342  -28.5114 H   0  0  0  0  0  0  0  0  0  0  0  0
   -6.7923   26.1902  -29.4633 H   0  0  0  0  0  0  0  0  0  0  0  0
   -6.5929   24.4050  -29.4633 H   0  0  0  0  0  0  0  0  0  0  0  0
   -5.6508   25.0647  -31.5267 H   0  0  0  0  0  0  0  0  0  0  0  0
   -4.8767   26.5338  -30.7807 H   0  0  0  0  0  0  0  0  0  0  0  0
   -3.8909   25.4423  -28.4600 H   0  0  0  0  0  0  0  0  0  0  0  0
   -4.1691   23.6727  -28.6441 H   0  0  0  0  0  0  0  0  0  0  0  0
   -1.9049   24.2402  -27.6987 H   0  0  0  0  0  0  0  0  0  0  0  0
   -1.8305   23.3153  -29.2368 H   0  0  0  0  0  0  0  0  0  0  0  0
   -1.5203   25.0846  -29.2368 H   0  0  0  0  0  0  0  0  0  0  0  0
   -3.4729   23.5620  -32.1763 H   0  0  0  0  0  0  0  0  0  0  0  0
   -3.3280   22.7010  -30.5781 H   0  0  0  0  0  0  0  0  0  0  0  0
   -5.5018   22.1153  -30.5436 H   0  0  0  0  0  0  0  0  0  0  0  0
   -6.0315   23.7183  -31.2164 H   0  0  0  0  0  0  0  0  0  0  0  0
   -5.7500   22.8880  -33.4500 H   0  0  0  0  0  0  0  0  0  0  0  0
   -7.8180   21.7491  -31.6281 H   0  0  0  0  0  0  0  0  0  0  0  0
   -9.8830   20.4387  -31.1885 H   0  0  0  0  0  0  0  0  0  0  0  0
   -9.9992   18.0375  -31.8297 H   0  0  0  0  0  0  0  0  0  0  0  0
   -8.0512   16.9328  -32.9046 H   0  0  0  0  0  0  0  0  0  0  0  0
   -5.9458   16.0305  -33.4082 H   0  0  0  0  0  0  0  0  0  0  0  0
   -6.7684   16.7933  -34.8111 H   0  0  0  0  0  0  0  0  0  0  0  0
   -4.9820   16.6047  -34.8111 H   0  0  0  0  0  0  0  0  0  0  0  0
   -3.3327   17.0097  -34.0536 H   0  0  0  0  0  0  0  0  0  0  0  0
    0.7071   21.7313  -34.9337 H   0  0  0  0  0  0  0  0  0  0  0  0
   -0.0311   20.2397  -35.6095 H   0  0  0  0  0  0  0  0  0  0  0  0
   -0.9565   21.7792  -35.6095 H   0  0  0  0  0  0  0  0  0  0  0  0
    0.4816   19.9773  -32.2893 H   0  0  0  0  0  0  0  0  0  0  0  0
    0.8866   21.6713  -32.7606 H   0  0  0  0  0  0  0  0  0  0  0  0
   -0.2622   21.1818  -30.4275 H   0  0  0  0  0  0  0  0  0  0  0  0
   -0.7802   22.5903  -31.4147 H   0  0  0  0  0  0  0  0  0  0  0  0
   -1.7598   21.0846  -31.4147 H   0  0  0  0  0  0  0  0  0  0  0  0
   -3.1332   21.8985  -33.0807 H   0  0  0  0  0  0  0  0  0  0  0  0
  1  2  1  0
  2  3  1  0
  3  4  1  0
  4  5  1  0
  3  6  1  0
  6  7  1  0
  7  8  1  0
  8  9  1  0
  9 10  2  0
 10 11  1  0
 11 12  2  0
 12 13  1  0
 13 14  2  0
 14 15  1  0
 15 16  2  0
 16 17  1  0
 16 18  1  0
 18 19  2  0
 19 20  1  0
 20 21  1  0
 20 22  2  0
 22 23  1  0
 23 24  1  0
 23 25  1  0
 25 26  1  0
 22 27  1  0
 27 28  2  0
 28  9  1  0
 15 10  1  0
 28 18  1  0
  1 29  1  0
  1 30  1  0
  1 31  1  0
  2 32  1  0
  2 33  1  0
  4 34  1  0
  4 35  1  0
  5 36  1  0
  5 37  1  0
  5 38  1  0
  6 39  1  0
  6 40  1  0
  7 41  1  0
  7 42  1  0
  8 43  1  0
 11 44  1  0
 12 45  1  0
 13 46  1  0
 14 47  1  0
 17 48  1  0
 17 49  1  0
 17 50  1  0
 19 51  1  0
 24 52  1  0
 24 53  1  0
 24 54  1  0
 25 55  1  0
 25 56  1  0
 26 57  1  0
 26 58  1  0
 26 59  1  0
 27 60  1  0
M  CHG  1  16   1
M  END
>  <UniqueID>  (31) 
31

>  <SMILES>  (31) 
CCN(CC)CCNc1c2ccccc2[n+](C)c2cc(Cl)c(N(C)CC)cc12

>  <Energy>  (31) 
83.64347225822982

>  <Genealogy>  (31) 
CCN(CC)CCNc1c2ccccc2[n+](C)c2cc(Cl)c(N(C)CC)cc12 (3D coordinates assigned)
CCN(CC)CCNc1c2ccccc2[n+](C)c2cc(Cl)c(N(C)CC)cc12 (optimized conformer: 83.64347225822982 kcal/mol)

>  <smiles>  (31) 
CCN(CC)CCNc1c2ccccc2[n+](C)c2cc(Cl)c(N(C)CC)cc12

>  <score_type>  (31) 
oracle

>  <origin>  (31) 
adg

>  <m_score__min__energy>  (31) 
-8.75

>  <m_primary>  (31) 
energy

$$$$
31:0
     RDKit          3D

 55 57  0  0  0  0  0  0  0  0999 V2000
   -6.3490   25.2930  -29.6930 C   0  0  0  0  0  0  0  0  0  0  0  0
   -5.3460   25.4430  -30.8310 C   0  0  0  0  0  0  0  0  0  0  0  0
   -4.1850   24.5490  -30.6190 N   0  0  0  0  0  0  0  0  0  0  0  0
   -3.7960   24.4770  -29.1870 C   0  0  0  0  0  0  0  0  0  0  0  0
   -2.2840   24.5790  -28.9360 C   0  0  0  0  0  0  0  0  0  0  0  0
   -4.4020   23.2250  -31.2460 C   0  0  0  0  0  0  0  0  0  0  0  0
   -3.1060   22.3990  -31.3180 C   0  0  0  0  0  0  0  0  0  0  0  0
   -2.7390   22.1360  -32.6600 O   0  0  0  0  0  0  0  0  0  0  0  0
   -2.4080   20.7700  -32.8520 C   0  0  0  0  0  0  0  0  0  0  0  0
   -3.6920   19.9520  -33.0180 C   0  0  0  0  0  0  0  0  0  0  0  0
   -4.8100   20.8150  -33.3960 N   0  0  0  0  0  0  0  0  0  0  0  0
   -6.1710   20.4510  -33.1190 C   0  0  0  0  0  0  0  0  0  0  0  0
   -7.1630   21.2820  -32.6160 C   0  0  0  0  0  0  0  0  0  0  0  0
   -7.2540   22.6630  -32.4360 C   0  0  0  0  0  0  0  0  0  0  0  0
   -8.4340   23.1690  -31.8610 C   0  0  0  0  0  0  0  0  0  0  0  0
   -9.4860   22.2990  -31.4910 C   0  0  0  0  0  0  0  0  0  0  0  0
   -9.3710   20.9130  -31.6960 C   0  0  0  0  0  0  0  0  0  0  0  0
   -8.1920   20.4420  -32.2690 C   0  0  0  0  0  0  0  0  0  0  0  0
   -7.8410   19.1760  -32.5440 N   0  0  0  0  0  0  0  0  0  0  0  0
   -8.6100   18.0550  -32.3240 O   0  0  0  0  0  0  0  0  0  0  0  0
   -6.6190   19.1700  -33.0640 N   0  0  0  0  0  0  0  0  0  0  0  0
   -5.8760   17.9840  -33.3820 C   0  0  0  0  0  0  0  0  0  0  0  0
   -5.6910   16.9890  -32.4100 C   0  0  0  0  0  0  0  0  0  0  0  0
   -4.9740   15.8300  -32.7190 C   0  0  0  0  0  0  0  0  0  0  0  0
   -4.4420   15.6560  -33.9990 C   0  0  0  0  0  0  0  0  0  0  0  0
   -4.6240   16.6430  -34.9720 C   0  0  0  0  0  0  0  0  0  0  0  0
   -5.3400   17.8030  -34.6660 C   0  0  0  0  0  0  0  0  0  0  0  0
   -5.8245   25.3714  -28.7293 H   0  0  0  0  0  0  0  0  0  0  0  0
   -7.1060   26.0879  -29.7643 H   0  0  0  0  0  0  0  0  0  0  0  0
   -6.8403   24.3114  -29.7643 H   0  0  0  0  0  0  0  0  0  0  0  0
   -5.8349   25.1825  -31.7813 H   0  0  0  0  0  0  0  0  0  0  0  0
   -4.9930   26.4844  -30.8596 H   0  0  0  0  0  0  0  0  0  0  0  0
   -4.2900   25.3028  -28.6540 H   0  0  0  0  0  0  0  0  0  0  0  0
   -4.1089   23.4864  -28.8254 H   0  0  0  0  0  0  0  0  0  0  0  0
   -2.0922   24.5919  -27.8529 H   0  0  0  0  0  0  0  0  0  0  0  0
   -1.7781   23.7129  -29.3877 H   0  0  0  0  0  0  0  0  0  0  0  0
   -1.8990   25.5052  -29.3877 H   0  0  0  0  0  0  0  0  0  0  0  0
   -5.1441   22.6695  -30.6538 H   0  0  0  0  0  0  0  0  0  0  0  0
   -4.7552   23.3912  -32.2744 H   0  0  0  0  0  0  0  0  0  0  0  0
   -2.2960   22.9592  -30.8280 H   0  0  0  0  0  0  0  0  0  0  0  0
   -3.2769   21.4386  -30.8096 H   0  0  0  0  0  0  0  0  0  0  0  0
   -1.7880   20.6664  -33.7547 H   0  0  0  0  0  0  0  0  0  0  0  0
   -1.8491   20.4020  -31.9790 H   0  0  0  0  0  0  0  0  0  0  0  0
   -3.5391   19.1953  -33.8016 H   0  0  0  0  0  0  0  0  0  0  0  0
   -3.9284   19.4669  -32.0595 H   0  0  0  0  0  0  0  0  0  0  0  0
   -4.6210   21.5800  -34.0800 H   0  0  0  0  0  0  0  0  0  0  0  0
   -6.4327   23.3317  -32.7330 H   0  0  0  0  0  0  0  0  0  0  0  0
   -8.5395   24.2517  -31.6976 H   0  0  0  0  0  0  0  0  0  0  0  0
  -10.4010   22.7100  -31.0395 H   0  0  0  0  0  0  0  0  0  0  0  0
  -10.1823   20.2257  -31.4142 H   0  0  0  0  0  0  0  0  0  0  0  0
   -6.1114   17.1217  -31.4022 H   0  0  0  0  0  0  0  0  0  0  0  0
   -4.8283   15.0537  -31.9534 H   0  0  0  0  0  0  0  0  0  0  0  0
   -3.8798   14.7421  -34.2412 H   0  0  0  0  0  0  0  0  0  0  0  0
   -4.2033   16.5063  -35.9791 H   0  0  0  0  0  0  0  0  0  0  0  0
   -5.4840   18.5770  -35.4342 H   0  0  0  0  0  0  0  0  0  0  0  0
  1  2  1  0
  2  3  1  0
  3  4  1  0
  4  5  1  0
  3  6  1  0
  6  7  1  0
  7  8  1  0
  8  9  1  0
  9 10  1  0
 10 11  1  0
 11 12  1  0
 12 13  2  0
 13 14  1  0
 14 15  2  0
 15 16  1  0
 16 17  2  0
 17 18  1  0
 18 19  2  0
 19 20  1  0
 19 21  1  0
 21 22  1  0
 22 23  2  0
 23 24  1  0
 24 25  2  0
 25 26  1  0
 26 27  2  0
 21 12  1  0
 27 22  1  0
 18 13  1  0
  1 28  1  0
  1 29  1  0
  1 30  1  0
  2 31  1  0
  2 32  1  0
  4 33  1  0
  4 34  1  0
  5 35  1  0
  5 36  1  0
  5 37  1  0
  6 38  1  0
  6 39  1  0
  7 40  1  0
  7 41  1  0
  9 42  1  0
  9 43  1  0
 10 44  1  0
 10 45  1  0
 11 46  1  0
 14 47  1  0
 15 48  1  0
 16 49  1  0
 17 50  1  0
 23 51  1  0
 24 52  1  0
 25 53  1  0
 26 54  1  0
 27 55  1  0
M  CHG  2  19   1  20  -1
M  END
>  <UniqueID>  (32) 
32

>  <SMILES>  (32) 
CCN(CC)CCOCCNc1c2ccccc2[n+]([O-])n1-c1ccccc1

>  <Energy>  (32) 
105.78006998875472

>  <Genealogy>  (32) 
CCN(CC)CCOCCNc1c2ccccc2[n+]([O-])n1-c1ccccc1 (3D coordinates assigned)
CCN(CC)CCOCCNc1c2ccccc2[n+]([O-])n1-c1ccccc1 (optimized conformer: 105.78006998875472 kcal/mol)

>  <smiles>  (32) 
CCN(CC)CCOCCNc1c2ccccc2[n+]([O-])n1-c1ccccc1

>  <score_type>  (32) 
oracle

>  <origin>  (32) 
adg

>  <m_score__min__energy>  (32) 
-8.3300000000000001

>  <m_primary>  (32) 
energy

$$$$
32:0
     RDKit          3D

 46 48  0  0  0  0  0  0  0  0999 V2000
   -2.4900   21.2680  -33.4700 C   0  0  0  0  0  0  0  0  0  0  0  0
   -3.1430   19.9110  -33.5680 C   0  0  0  0  0  0  0  0  0  0  0  0
   -2.3970   18.9050  -34.1100 N   0  0  0  0  0  0  0  0  0  0  0  0
   -2.9120   17.6830  -34.3730 C   0  0  0  0  0  0  0  0  0  0  0  0
   -4.2340   17.4020  -34.0800 C   0  0  0  0  0  0  0  0  0  0  0  0
   -5.0550   18.3670  -33.4550 C   0  0  0  0  0  0  0  0  0  0  0  0
   -4.5030   19.6560  -33.1860 C   0  0  0  0  0  0  0  0  0  0  0  0
   -5.3400   20.6210  -32.5670 C   0  0  0  0  0  0  0  0  0  0  0  0
   -4.8110   21.8350  -32.0220 N   0  0  0  0  0  0  0  0  0  0  0  0
   -4.4660   21.9050  -30.6010 C   0  0  0  0  0  0  0  0  0  0  0  0
   -4.9390   23.2290  -29.9920 C   0  0  0  0  0  0  0  0  0  0  0  0
   -5.1180   24.2520  -31.0450 N   0  0  0  0  0  0  0  0  0  0  0  0
   -6.4700   24.1590  -31.6190 C   0  0  0  0  0  0  0  0  0  0  0  0
   -4.9090   25.6080  -30.5070 C   0  0  0  0  0  0  0  0  0  0  0  0
   -6.7190   20.3720  -32.4430 C   0  0  0  0  0  0  0  0  0  0  0  0
   -7.5980   21.3820  -31.9910 C   0  0  0  0  0  0  0  0  0  0  0  0
   -8.9690   21.1490  -31.9140 C   0  0  0  0  0  0  0  0  0  0  0  0
   -9.4870   19.9160  -32.2950 C   0  0  0  0  0  0  0  0  0  0  0  0
   -8.6350   18.9000  -32.7250 C   0  0  0  0  0  0  0  0  0  0  0  0
   -7.2300   19.0940  -32.7730 C   0  0  0  0  0  0  0  0  0  0  0  0
   -6.3670   18.0780  -33.1240 N   0  0  0  0  0  0  0  0  0  0  0  0
   -6.8430   16.6770  -33.1260 C   0  0  0  0  0  0  0  0  0  0  0  0
   -2.3605   21.5370  -32.4113 H   0  0  0  0  0  0  0  0  0  0  0  0
   -1.5074   21.2386  -33.9636 H   0  0  0  0  0  0  0  0  0  0  0  0
   -3.1261   22.0175  -33.9636 H   0  0  0  0  0  0  0  0  0  0  0  0
   -1.3990   19.0720  -34.3740 H   0  0  0  0  0  0  0  0  0  0  0  0
   -2.2753   16.9071  -34.8230 H   0  0  0  0  0  0  0  0  0  0  0  0
   -4.6507   16.4168  -34.3363 H   0  0  0  0  0  0  0  0  0  0  0  0
   -4.8880   22.7100  -32.5880 H   0  0  0  0  0  0  0  0  0  0  0  0
   -4.9491   21.0710  -30.0709 H   0  0  0  0  0  0  0  0  0  0  0  0
   -3.3726   21.8404  -30.4996 H   0  0  0  0  0  0  0  0  0  0  0  0
   -5.8979   23.0681  -29.4776 H   0  0  0  0  0  0  0  0  0  0  0  0
   -4.1794   23.5829  -29.2794 H   0  0  0  0  0  0  0  0  0  0  0  0
   -7.2104   24.1081  -30.8070 H   0  0  0  0  0  0  0  0  0  0  0  0
   -6.6667   25.0457  -32.2395 H   0  0  0  0  0  0  0  0  0  0  0  0
   -6.5434   23.2537  -32.2395 H   0  0  0  0  0  0  0  0  0  0  0  0
   -4.9147   25.5712  -29.4076 H   0  0  0  0  0  0  0  0  0  0  0  0
   -3.9405   25.9957  -30.8559 H   0  0  0  0  0  0  0  0  0  0  0  0
   -5.7158   26.2693  -30.8559 H   0  0  0  0  0  0  0  0  0  0  0  0
   -7.1952   22.3624  -31.6969 H   0  0  0  0  0  0  0  0  0  0  0  0
   -9.6419   21.9402  -31.5519 H   0  0  0  0  0  0  0  0  0  0  0  0
  -10.5725   19.7419  -32.2569 H   0  0  0  0  0  0  0  0  0  0  0  0
   -9.0585   17.9323  -33.0320 H   0  0  0  0  0  0  0  0  0  0  0  0
   -6.9614   16.3285  -32.0894 H   0  0  0  0  0  0  0  0  0  0  0  0
   -7.8111   16.6194  -33.6450 H   0  0  0  0  0  0  0  0  0  0  0  0
   -6.1103   16.0416  -33.6450 H   0  0  0  0  0  0  0  0  0  0  0  0
  1  2  1  0
  2  3  2  0
  3  4  1  0
  4  5  2  0
  5  6  1  0
  6  7  2  0
  7  8  1  0
  8  9  1  0
  9 10  1  0
 10 11  1  0
 11 12  1  0
 12 13  1  0
 12 14  1  0
  8 15  2  0
 15 16  1  0
 16 17  2  0
 17 18  1  0
 18 19  2  0
 19 20  1  0
 20 21  2  0
 21 22  1  0
  7  2  1  0
 20 15  1  0
 21  6  1  0
  1 23  1  0
  1 24  1  0
  1 25  1  0
  3 26  1  0
  4 27  1  0
  5 28  1  0
  9 29  1  0
 10 30  1  0
 10 31  1  0
 11 32  1  0
 11 33  1  0
 13 34  1  0
 13 35  1  0
 13 36  1  0
 14 37  1  0
 14 38  1  0
 14 39  1  0
 16 40  1  0
 17 41  1  0
 18 42  1  0
 19 43  1  0
 22 44  1  0
 22 45  1  0
 22 46  1  0
M  CHG  2   3   1  21   1
M  END
>  <UniqueID>  (33) 
33

>  <SMILES>  (33) 
Cc1[nH+]ccc2c1c(NCCN(C)C)c1ccccc1[n+]2C

>  <Energy>  (33) 
79.78011344562412

>  <Genealogy>  (33) 
Cc1[nH+]ccc2c1c(NCCN(C)C)c1ccccc1[n+]2C (protonated)
Cc1[nH+]ccc2c1c(NCCN(C)C)c1ccccc1[n+]2C (3D coordinates assigned)
Cc1[nH+]ccc2c1c(NCCN(C)C)c1ccccc1[n+]2C (optimized conformer: 79.78011344562412 kcal/mol)

>  <smiles>  (33) 
Cc1nccc2c1c(NCCN(C)C)c1ccccc1[n+]2C

>  <score_type>  (33) 
oracle

>  <origin>  (33) 
adg

>  <m_score__min__energy>  (33) 
-7.29

>  <m_primary>  (33) 
energy

$$$$
33:0
     RDKit          3D

 85 89  0  0  0  0  0  0  0  0999 V2000
   -6.4860   26.0120  -29.3120 C   0  0  0  0  0  0  0  0  0  0  0  0
   -5.3920   25.0220  -29.7380 C   0  0  0  0  0  0  0  0  0  0  0  0
   -5.5710   23.6380  -29.2180 N   0  0  0  0  0  0  0  0  0  0  0  0
   -4.2850   22.9420  -28.9370 C   0  0  0  0  0  0  0  0  0  0  0  0
   -3.1310   23.4430  -29.8140 C   0  0  0  0  0  0  0  0  0  0  0  0
   -6.4290   22.8390  -30.1330 C   0  0  0  0  0  0  0  0  0  0  0  0
   -6.8610   23.6220  -31.3910 C   0  0  0  0  0  0  0  0  0  0  0  0
   -6.4080   22.9400  -32.6060 N   0  0  0  0  0  0  0  0  0  0  0  0
   -6.1670   21.5210  -32.6410 C   0  0  0  0  0  0  0  0  0  0  0  0
   -7.2420   20.6250  -32.5300 C   0  0  0  0  0  0  0  0  0  0  0  0
   -8.5590   21.0900  -32.3220 C   0  0  0  0  0  0  0  0  0  0  0  0
   -9.6220   20.1950  -32.2210 C   0  0  0  0  0  0  0  0  0  0  0  0
   -9.3930   18.8270  -32.3210 C   0  0  0  0  0  0  0  0  0  0  0  0
   -8.0980   18.3440  -32.5080 C   0  0  0  0  0  0  0  0  0  0  0  0
   -6.9940   19.2300  -32.5970 C   0  0  0  0  0  0  0  0  0  0  0  0
   -5.7030   18.7590  -32.7380 N   0  0  0  0  0  0  0  0  0  0  0  0
   -5.4100   17.3780  -32.2940 C   0  0  0  0  0  0  0  0  0  0  0  0
   -4.6760   19.6310  -33.0580 C   0  0  0  0  0  0  0  0  0  0  0  0
   -4.8700   21.0240  -32.8540 C   0  0  0  0  0  0  0  0  0  0  0  0
   -3.7570   21.8820  -32.8190 C   0  0  0  0  0  0  0  0  0  0  0  0
   -2.4780   21.4000  -33.0660 C   0  0  0  0  0  0  0  0  0  0  0  0
   -2.2920   20.0780  -33.4730 C   0  0  0  0  0  0  0  0  0  0  0  0
   -1.0120   19.6360  -33.8410 C   0  0  0  0  0  0  0  0  0  0  0  0
   -0.8230   18.3640  -34.3800 C   0  0  0  0  0  0  0  0  0  0  0  0
    0.4860   17.9560  -34.6890 O   0  0  0  0  0  0  0  0  0  0  0  0
    1.0230   16.6570  -34.4390 C   0  0  0  0  0  0  0  0  0  0  0  0
    1.8050   16.6440  -33.1130 C   0  0  0  0  0  0  0  0  0  0  0  0
    0.9990   17.2520  -31.9270 C   0  0  0  0  0  0  0  0  0  0  0  0
    1.6770   18.3320  -31.1260 N   0  0  0  0  0  0  0  0  0  0  0  0
    3.1500   18.2100  -31.2900 C   0  0  0  0  0  0  0  0  0  0  0  0
    1.2560   19.6800  -31.6700 C   0  0  0  0  0  0  0  0  0  0  0  0
    0.2370   20.4470  -30.7980 C   0  0  0  0  0  0  0  0  0  0  0  0
   -0.7960   19.5080  -30.1860 C   0  0  0  0  0  0  0  0  0  0  0  0
   -0.1290   18.4150  -29.3380 C   0  0  0  0  0  0  0  0  0  0  0  0
    1.3700   18.2340  -29.6640 C   0  0  0  0  0  0  0  0  0  0  0  0
   -1.9440   17.5470  -34.6030 C   0  0  0  0  0  0  0  0  0  0  0  0
   -3.2150   17.9690  -34.2110 C   0  0  0  0  0  0  0  0  0  0  0  0
   -3.4020   19.2000  -33.5490 C   0  0  0  0  0  0  0  0  0  0  0  0
   -6.5339   26.0553  -28.2139 H   0  0  0  0  0  0  0  0  0  0  0  0
   -6.2512   27.0108  -29.7085 H   0  0  0  0  0  0  0  0  0  0  0  0
   -7.4565   25.6789  -29.7085 H   0  0  0  0  0  0  0  0  0  0  0  0
   -5.3796   24.9766  -30.8370 H   0  0  0  0  0  0  0  0  0  0  0  0
   -4.4499   25.3959  -29.3107 H   0  0  0  0  0  0  0  0  0  0  0  0
   -6.0820   23.7350  -28.3060 H   0  0  0  0  0  0  0  0  0  0  0  0
   -4.0206   23.1057  -27.8819 H   0  0  0  0  0  0  0  0  0  0  0  0
   -4.4312   21.8752  -29.1617 H   0  0  0  0  0  0  0  0  0  0  0  0
   -2.3111   23.7990  -29.1729 H   0  0  0  0  0  0  0  0  0  0  0  0
   -2.7694   22.6208  -30.4491 H   0  0  0  0  0  0  0  0  0  0  0  0
   -3.4848   24.2686  -30.4491 H   0  0  0  0  0  0  0  0  0  0  0  0
   -5.8682   21.9475  -30.4503 H   0  0  0  0  0  0  0  0  0  0  0  0
   -7.3424   22.5740  -29.5803 H   0  0  0  0  0  0  0  0  0  0  0  0
   -7.9581   23.7004  -31.4086 H   0  0  0  0  0  0  0  0  0  0  0  0
   -6.4074   24.6236  -31.3575 H   0  0  0  0  0  0  0  0  0  0  0  0
   -6.1800   23.5090  -33.4530 H   0  0  0  0  0  0  0  0  0  0  0  0
   -8.7477   22.1705  -32.2388 H   0  0  0  0  0  0  0  0  0  0  0  0
  -10.6435   20.5709  -32.0620 H   0  0  0  0  0  0  0  0  0  0  0  0
  -10.2359   18.1236  -32.2524 H   0  0  0  0  0  0  0  0  0  0  0  0
   -7.9304   17.2598  -32.5876 H   0  0  0  0  0  0  0  0  0  0  0  0
   -5.4020   17.3402  -31.1947 H   0  0  0  0  0  0  0  0  0  0  0  0
   -6.1837   16.6972  -32.6786 H   0  0  0  0  0  0  0  0  0  0  0  0
   -4.4265   17.0701  -32.6786 H   0  0  0  0  0  0  0  0  0  0  0  0
   -3.9009   22.9489  -32.5931 H   0  0  0  0  0  0  0  0  0  0  0  0
   -1.6088   22.0624  -32.9404 H   0  0  0  0  0  0  0  0  0  0  0  0
   -0.1470   20.3013  -33.7025 H   0  0  0  0  0  0  0  0  0  0  0  0
    0.1997   15.9298  -34.3811 H   0  0  0  0  0  0  0  0  0  0  0  0
    1.7068   16.3905  -35.2584 H   0  0  0  0  0  0  0  0  0  0  0  0
    2.0603   15.6028  -32.8665 H   0  0  0  0  0  0  0  0  0  0  0  0
    2.7028   17.2638  -33.2536 H   0  0  0  0  0  0  0  0  0  0  0  0
    0.0711   17.6761  -32.3384 H   0  0  0  0  0  0  0  0  0  0  0  0
    0.8539   16.4201  -31.2221 H   0  0  0  0  0  0  0  0  0  0  0  0
    3.6272   18.1705  -30.2997 H   0  0  0  0  0  0  0  0  0  0  0  0
    3.3821   17.2896  -31.8458 H   0  0  0  0  0  0  0  0  0  0  0  0
    3.5303   19.0797  -31.8458 H   0  0  0  0  0  0  0  0  0  0  0  0
    2.1565   20.3036  -31.7707 H   0  0  0  0  0  0  0  0  0  0  0  0
    0.7528   19.4813  -32.6278 H   0  0  0  0  0  0  0  0  0  0  0  0
    0.7756   20.9616  -29.9886 H   0  0  0  0  0  0  0  0  0  0  0  0
   -0.2906   21.1684  -31.4392 H   0  0  0  0  0  0  0  0  0  0  0  0
   -1.4756   20.0913  -29.5473 H   0  0  0  0  0  0  0  0  0  0  0  0
   -1.3486   19.0220  -31.0036 H   0  0  0  0  0  0  0  0  0  0  0  0
   -0.2274   18.6852  -28.2763 H   0  0  0  0  0  0  0  0  0  0  0  0
   -0.6341   17.4649  -29.5664 H   0  0  0  0  0  0  0  0  0  0  0  0
    1.9383   19.0135  -29.1354 H   0  0  0  0  0  0  0  0  0  0  0  0
    1.6526   17.2214  -29.3402 H   0  0  0  0  0  0  0  0  0  0  0  0
   -1.8190   16.5685  -35.0897 H   0  0  0  0  0  0  0  0  0  0  0  0
   -4.0857   17.3307  -34.4219 H   0  0  0  0  0  0  0  0  0  0  0  0
  1  2  1  0
  2  3  1  0
  3  4  1  0
  4  5  1  0
  3  6  1  0
  6  7  1  0
  7  8  1  0
  8  9  1  0
  9 10  2  0
 10 11  1  0
 11 12  2  0
 12 13  1  0
 13 14  2  0
 14 15  1  0
 15 16  2  0
 16 17  1  0
 16 18  1  0
 18 19  2  0
 19 20  1  0
 20 21  2  0
 21 22  1  0
 22 23  2  0
 23 24  1  0
 24 25  1  0
 25 26  1  0
 26 27  1  0
 27 28  1  0
 28 29  1  0
 29 30  1  0
 29 31  1  0
 31 32  1  0
 32 33  1  0
 33 34  1  0
 34 35  1  0
 24 36  2  0
 36 37  1  0
 37 38  2  0
 19  9  1  0
 38 22  1  0
 15 10  1  0
 38 18  1  0
 35 29  1  0
  1 39  1  0
  1 40  1  0
  1 41  1  0
  2 42  1  0
  2 43  1  0
  3 44  1  0
  4 45  1  0
  4 46  1  0
  5 47  1  0
  5 48  1  0
  5 49  1  0
  6 50  1  0
  6 51  1  0
  7 52  1  0
  7 53  1  0
  8 54  1  0
 11 55  1  0
 12 56  1  0
 13 57  1  0
 14 58  1  0
 17 59  1  0
 17 60  1  0
 17 61  1  0
 20 62  1  0
 21 63  1  0
 23 64  1  0
 26 65  1  0
 26 66  1  0
 27 67  1  0
 27 68  1  0
 28 69  1  0
 28 70  1  0
 30 71  1  0
 30 72  1  0
 30 73  1  0
 31 74  1  0
 31 75  1  0
 32 76  1  0
 32 77  1  0
 33 78  1  0
 33 79  1  0
 34 80  1  0
 34 81  1  0
 35 82  1  0
 35 83  1  0
 36 84  1  0
 37 85  1  0
M  CHG  3   3   1  16   1  29   1
M  END
>  <UniqueID>  (34) 
34

>  <SMILES>  (34) 
CC[NH+](CC)CCNc1c2ccccc2[n+](C)c2c1ccc1cc(OCCC[N+]3(C)CCCCC3)ccc12

>  <Energy>  (34) 
152.12181656789798

>  <Genealogy>  (34) 
CC[NH+](CC)CCNc1c2ccccc2[n+](C)c2c1ccc1cc(OCCC[N+]3(C)CCCCC3)ccc12 (protonated)
CC[NH+](CC)CCNc1c2ccccc2[n+](C)c2c1ccc1cc(OCCC[N+]3(C)CCCCC3)ccc12 (3D coordinates assigned)
CC[NH+](CC)CCNc1c2ccccc2[n+](C)c2c1ccc1cc(OCCC[N+]3(C)CCCCC3)ccc12 (nonaromatic ring conformer: 152.12181656789798 kcal/mol)

>  <smiles>  (34) 
CCN(CC)CCNc1c2ccccc2[n+](C)c2c1ccc1cc(OCCC[N+]3(C)CCCCC3)ccc12

>  <score_type>  (34) 
oracle

>  <origin>  (34) 
adg

>  <m_score__min__energy>  (34) 
-8.5199999999999996

>  <m_primary>  (34) 
energy

$$$$
