0:0
     RDKit          3D

 33 35  0  0  0  0  0  0  0  0999 V2000
   -7.4900   17.6340  -33.2420 O   0  0  0  0  0  0  0  0  0  0  0  0
   -7.6130   18.7690  -32.7050 C   0  0  0  0  0  0  0  0  0  0  0  0
   -8.6630   18.9680  -31.6560 C   0  0  0  0  0  0  0  0  0  0  0  0
   -9.5040   20.5450  -31.9770 S   0  0  0  0  0  0  0  0  0  0  0  0
   -8.0020   21.4990  -31.7340 C   0  0  0  0  0  0  0  0  0  0  0  0
   -8.0380   22.6330  -30.9180 C   0  0  0  0  0  0  0  0  0  0  0  0
   -6.8970   23.4150  -30.7480 C   0  0  0  0  0  0  0  0  0  0  0  0
   -5.6920   23.0640  -31.3810 C   0  0  0  0  0  0  0  0  0  0  0  0
   -4.5100   23.8670  -31.2020 N   0  0  0  0  0  0  0  0  0  0  0  0
   -3.3750   23.3470  -31.2370 O   0  0  0  0  0  0  0  0  0  0  0  0
   -4.6100   25.2220  -30.9840 O   0  0  0  0  0  0  0  0  0  0  0  0
   -5.6530   21.9080  -32.1800 C   0  0  0  0  0  0  0  0  0  0  0  0
   -6.8020   21.1120  -32.3610 C   0  0  0  0  0  0  0  0  0  0  0  0
   -6.7370   19.8560  -33.0840 N   0  0  0  0  0  0  0  0  0  0  0  0
   -5.8160   19.6740  -34.2180 C   0  0  0  0  0  0  0  0  0  0  0  0
   -4.5010   19.0600  -33.7930 C   0  0  0  0  0  0  0  0  0  0  0  0
   -3.3970   19.8530  -33.4250 C   0  0  0  0  0  0  0  0  0  0  0  0
   -2.1820   19.2550  -33.0750 C   0  0  0  0  0  0  0  0  0  0  0  0
   -2.0520   17.8650  -33.1010 C   0  0  0  0  0  0  0  0  0  0  0  0
   -3.1350   17.0690  -33.4820 C   0  0  0  0  0  0  0  0  0  0  0  0
   -4.3510   17.6620  -33.8330 C   0  0  0  0  0  0  0  0  0  0  0  0
   -9.3905   18.1440  -31.6978 H   0  0  0  0  0  0  0  0  0  0  0  0
   -8.2013   18.9828  -30.6577 H   0  0  0  0  0  0  0  0  0  0  0  0
   -8.9720   22.9099  -30.4071 H   0  0  0  0  0  0  0  0  0  0  0  0
   -6.9397   24.3130  -30.1142 H   0  0  0  0  0  0  0  0  0  0  0  0
   -4.7117   21.6204  -32.6713 H   0  0  0  0  0  0  0  0  0  0  0  0
   -6.2920   19.0145  -34.9586 H   0  0  0  0  0  0  0  0  0  0  0  0
   -5.6037   20.6660  -34.6432 H   0  0  0  0  0  0  0  0  0  0  0  0
   -3.4907   20.9489  -33.4127 H   0  0  0  0  0  0  0  0  0  0  0  0
   -1.3273   19.8809  -32.7787 H   0  0  0  0  0  0  0  0  0  0  0  0
   -1.0967   17.3967  -32.8215 H   0  0  0  0  0  0  0  0  0  0  0  0
   -3.0306   15.9742  -33.5058 H   0  0  0  0  0  0  0  0  0  0  0  0
   -5.1969   17.0308  -34.1428 H   0  0  0  0  0  0  0  0  0  0  0  0
  1  2  2  0
  2  3  1  0
  3  4  1  0
  4  5  1  0
  5  6  2  0
  6  7  1  0
  7  8  2  0
  8  9  1  0
  9 10  2  0
  9 11  1  0
  8 12  1  0
 12 13  2  0
 13 14  1  0
 14 15  1  0
 15 16  1  0
 16 17  2  0
 17 18  1  0
 18 19  2  0
 19 20  1  0
 20 21  2  0
 14  2  1  0
 21 16  1  0
 13  5  1  0
  3 22  1  0
  3 23  1  0
  6 24  1  0
  7 25  1  0
 12 26  1  0
 15 27  1  0
 15 28  1  0
 17 29  1  0
 18 30  1  0
 19 31  1  0
 20 32  1  0
 21 33  1  0
M  CHG  2   9   1  11  -1
M  END
>  <UniqueID>  (1) 
1

>  <SMILES>  (1) 
O=C1CSc2ccc([N+](=O)[O-])cc2N1Cc1ccccc1

>  <Energy>  (1) 
43.63432671382745

>  <Genealogy>  (1) 
O=C1CSc2ccc([N+](=O)[O-])cc2N1Cc1ccccc1 (3D coordinates assigned)
O=C1CSc2ccc([N+](=O)[O-])cc2N1Cc1ccccc1 (nonaromatic ring conformer: 43.63432671382745 kcal/mol)

>  <smiles>  (1) 
O=C1CSc2ccc([N+](=O)[O-])cc2N1Cc1ccccc1

>  <score_type>  (1) 
oracle

>  <origin>  (1) 
adg

>  <m_score__min__energy>  (1) 
-8.6999999999999993

>  <m_primary>  (1) 
energy

$$$$
1:0
     RDKit          3D

 41 42  0  0  0  0  0  0  0  0999 V2000
   -4.2570   24.6400  -26.7340 C   0  0  0  0  0  0  0  0  0  0  0  0
   -2.9910   25.2920  -26.1780 C   0  0  0  0  0  0  0  0  0  0  0  0
   -1.7760   24.6950  -26.7690 N   0  0  0  0  0  0  0  0  0  0  0  0
   -0.7400   25.7020  -27.0700 C   0  0  0  0  0  0  0  0  0  0  0  0
   -2.0720   23.8180  -27.9280 C   0  0  0  0  0  0  0  0  0  0  0  0
   -1.9850   24.5130  -29.3080 C   0  0  0  0  0  0  0  0  0  0  0  0
   -3.2860   25.0130  -29.7610 N   0  0  0  0  0  0  0  0  0  0  0  0
   -4.3410   24.1510  -30.2310 C   0  0  0  0  0  0  0  0  0  0  0  0
   -5.6990   24.4960  -30.0940 C   0  0  0  0  0  0  0  0  0  0  0  0
   -6.6990   23.6390  -30.5610 C   0  0  0  0  0  0  0  0  0  0  0  0
   -6.3660   22.4190  -31.1750 C   0  0  0  0  0  0  0  0  0  0  0  0
   -7.4290   21.5070  -31.6710 C   0  0  0  0  0  0  0  0  0  0  0  0
   -7.1000   20.2400  -32.1880 C   0  0  0  0  0  0  0  0  0  0  0  0
   -8.1030   19.3830  -32.6540 C   0  0  0  0  0  0  0  0  0  0  0  0
   -9.4410   19.7800  -32.6080 C   0  0  0  0  0  0  0  0  0  0  0  0
   -9.7800   21.0360  -32.0970 C   0  0  0  0  0  0  0  0  0  0  0  0
   -8.7810   21.8950  -31.6300 C   0  0  0  0  0  0  0  0  0  0  0  0
   -5.0100   22.0780  -31.3130 C   0  0  0  0  0  0  0  0  0  0  0  0
   -4.0100   22.9360  -30.8470 C   0  0  0  0  0  0  0  0  0  0  0  0
   -4.8960   24.3109  -25.9013 H   0  0  0  0  0  0  0  0  0  0  0  0
   -4.8042   25.3684  -27.3504 H   0  0  0  0  0  0  0  0  0  0  0  0
   -3.9818   23.7715  -27.3504 H   0  0  0  0  0  0  0  0  0  0  0  0
   -3.0106   26.3673  -26.4090 H   0  0  0  0  0  0  0  0  0  0  0  0
   -2.9648   25.1280  -25.0906 H   0  0  0  0  0  0  0  0  0  0  0  0
   -0.3309   26.0996  -26.1295 H   0  0  0  0  0  0  0  0  0  0  0  0
    0.0676   25.2344  -27.6524 H   0  0  0  0  0  0  0  0  0  0  0  0
   -1.1844   26.5225  -27.6524 H   0  0  0  0  0  0  0  0  0  0  0  0
   -1.3537   22.9849  -27.9187 H   0  0  0  0  0  0  0  0  0  0  0  0
   -3.1163   23.4928  -27.8109 H   0  0  0  0  0  0  0  0  0  0  0  0
   -1.2866   25.3596  -29.2345 H   0  0  0  0  0  0  0  0  0  0  0  0
   -1.6372   23.7682  -30.0390 H   0  0  0  0  0  0  0  0  0  0  0  0
   -3.4750   26.0390  -29.7310 H   0  0  0  0  0  0  0  0  0  0  0  0
   -5.9749   25.4474  -29.6157 H   0  0  0  0  0  0  0  0  0  0  0  0
   -7.7560   23.9214  -30.4472 H   0  0  0  0  0  0  0  0  0  0  0  0
   -6.0478   19.9215  -32.2259 H   0  0  0  0  0  0  0  0  0  0  0  0
   -7.8371   18.3948  -33.0573 H   0  0  0  0  0  0  0  0  0  0  0  0
  -10.2281   19.1043  -32.9739 H   0  0  0  0  0  0  0  0  0  0  0  0
  -10.8340   21.3488  -32.0623 H   0  0  0  0  0  0  0  0  0  0  0  0
   -9.0538   22.8817  -31.2274 H   0  0  0  0  0  0  0  0  0  0  0  0
   -4.7330   21.1273  -31.7920 H   0  0  0  0  0  0  0  0  0  0  0  0
   -2.9530   22.6552  -30.9647 H   0  0  0  0  0  0  0  0  0  0  0  0
  1  2  1  0
  2  3  1  0
  3  4  1  0
  3  5  1  0
  5  6  1  0
  6  7  1  0
  7  8  1  0
  8  9  2  0
  9 10  1  0
 10 11  2  0
 11 12  1  0
 12 13  2  0
 13 14  1  0
 14 15  2  0
 15 16  1  0
 16 17  2  0
 11 18  1  0
 18 19  2  0
 19  8  1  0
 17 12  1  0
  1 20  1  0
  1 21  1  0
  1 22  1  0
  2 23  1  0
  2 24  1  0
  4 25  1  0
  4 26  1  0
  4 27  1  0
  5 28  1  0
  5 29  1  0
  6 30  1  0
  6 31  1  0
  7 32  1  0
  9 33  1  0
 10 34  1  0
 13 35  1  0
 14 36  1  0
 15 37  1  0
 16 38  1  0
 17 39  1  0
 18 40  1  0
 19 41  1  0
M  END
>  <UniqueID>  (2) 
2

>  <SMILES>  (2) 
CCN(C)CCNc1ccc(-c2ccccc2)cc1

>  <Energy>  (2) 
48.01262263281012

>  <Genealogy>  (2) 
CCN(C)CCNc1ccc(-c2ccccc2)cc1 (3D coordinates assigned)
CCN(C)CCNc1ccc(-c2ccccc2)cc1 (optimized conformer: 48.01262263281012 kcal/mol)

>  <smiles>  (2) 
CCN(C)CCNc1ccc(-c2ccccc2)cc1

>  <score_type>  (2) 
oracle

>  <origin>  (2) 
adg

>  <m_score__min__energy>  (2) 
-7.4900000000000002

>  <m_primary>  (2) 
energy

$$$$
2:0
     RDKit          3D

 40 41  0  0  0  0  0  0  0  0999 V2000
   -0.4850   28.1240  -26.6610 C   0  0  0  0  0  0  0  0  0  0  0  0
   -1.2190   27.6760  -25.4030 C   0  0  0  0  0  0  0  0  0  0  0  0
   -1.2230   26.2120  -25.3040 N   0  0  0  0  0  0  0  0  0  0  0  0
   -0.6510   25.5530  -24.1220 C   0  0  0  0  0  0  0  0  0  0  0  0
   -0.4930   26.5460  -22.9780 C   0  0  0  0  0  0  0  0  0  0  0  0
   -2.0030   25.4450  -26.2400 C   0  0  0  0  0  0  0  0  0  0  0  0
   -3.3790   25.2890  -26.0210 C   0  0  0  0  0  0  0  0  0  0  0  0
   -4.1630   24.5660  -26.9210 C   0  0  0  0  0  0  0  0  0  0  0  0
   -3.5850   23.9750  -28.0520 C   0  0  0  0  0  0  0  0  0  0  0  0
   -4.4200   23.2600  -28.9780 N   0  0  0  0  0  0  0  0  0  0  0  0
   -4.8430   23.7930  -30.2450 C   0  0  0  0  0  0  0  0  0  0  0  0
   -4.2290   24.7670  -30.7590 O   0  0  0  0  0  0  0  0  0  0  0  0
   -5.9660   23.1860  -30.9830 C   0  0  0  0  0  0  0  0  0  0  0  0
   -7.2210   23.7470  -31.2000 C   0  0  0  0  0  0  0  0  0  0  0  0
   -8.0690   22.9280  -31.9560 C   0  0  0  0  0  0  0  0  0  0  0  0
   -7.4900   21.7260  -32.3390 C   0  0  0  0  0  0  0  0  0  0  0  0
   -5.9210   21.6830  -31.7390 S   0  0  0  0  0  0  0  0  0  0  0  0
   -2.2100   24.1470  -28.2870 C   0  0  0  0  0  0  0  0  0  0  0  0
   -1.4070   24.8580  -27.3790 C   0  0  0  0  0  0  0  0  0  0  0  0
    0.0580   25.0230  -27.6780 C   0  0  0  0  0  0  0  0  0  0  0  0
    0.4224   28.6779  -26.3785 H   0  0  0  0  0  0  0  0  0  0  0  0
   -0.2059   27.2421  -27.2563 H   0  0  0  0  0  0  0  0  0  0  0  0
   -1.1417   28.7754  -27.2563 H   0  0  0  0  0  0  0  0  0  0  0  0
   -0.7150   28.0971  -24.5206 H   0  0  0  0  0  0  0  0  0  0  0  0
   -2.2586   28.0320  -25.4520 H   0  0  0  0  0  0  0  0  0  0  0  0
   -1.3183   24.7384  -23.8040 H   0  0  0  0  0  0  0  0  0  0  0  0
    0.3398   25.1533  -24.3838 H   0  0  0  0  0  0  0  0  0  0  0  0
   -0.5774   26.0158  -22.0179 H   0  0  0  0  0  0  0  0  0  0  0  0
    0.4932   27.0286  -23.0449 H   0  0  0  0  0  0  0  0  0  0  0  0
   -1.2807   27.3108  -23.0449 H   0  0  0  0  0  0  0  0  0  0  0  0
   -3.8445   25.7403  -25.1324 H   0  0  0  0  0  0  0  0  0  0  0  0
   -5.2429   24.4594  -26.7410 H   0  0  0  0  0  0  0  0  0  0  0  0
   -4.6410   22.2620  -28.7640 H   0  0  0  0  0  0  0  0  0  0  0  0
   -7.5171   24.7345  -30.8163 H   0  0  0  0  0  0  0  0  0  0  0  0
   -9.0983   23.2110  -32.2216 H   0  0  0  0  0  0  0  0  0  0  0  0
   -7.9748   20.9373  -32.9331 H   0  0  0  0  0  0  0  0  0  0  0  0
   -1.7565   23.7195  -29.1934 H   0  0  0  0  0  0  0  0  0  0  0  0
    0.6199   25.0863  -26.7345 H   0  0  0  0  0  0  0  0  0  0  0  0
    0.4132   24.1592  -28.2591 H   0  0  0  0  0  0  0  0  0  0  0  0
    0.2122   25.9442  -28.2591 H   0  0  0  0  0  0  0  0  0  0  0  0
  1  2  1  0
  2  3  1  0
  3  4  1  0
  4  5  1  0
  3  6  1  0
  6  7  2  0
  7  8  1  0
  8  9  2  0
  9 10  1  0
 10 11  1  0
 11 12  2  0
 11 13  1  0
 13 14  2  0
 14 15  1  0
 15 16  2  0
 16 17  1  0
  9 18  1  0
 18 19  2  0
 19 20  1  0
 19  6  1  0
 17 13  1  0
  1 21  1  0
  1 22  1  0
  1 23  1  0
  2 24  1  0
  2 25  1  0
  4 26  1  0
  4 27  1  0
  5 28  1  0
  5 29  1  0
  5 30  1  0
  7 31  1  0
  8 32  1  0
 10 33  1  0
 14 34  1  0
 15 35  1  0
 16 36  1  0
 18 37  1  0
 20 38  1  0
 20 39  1  0
 20 40  1  0
M  END
>  <UniqueID>  (3) 
3

>  <SMILES>  (3) 
CCN(CC)c1ccc(NC(=O)c2cccs2)cc1C

>  <Energy>  (3) 
66.83138232512076

>  <Genealogy>  (3) 
CCN(CC)c1ccc(NC(=O)c2cccs2)cc1C (3D coordinates assigned)
CCN(CC)c1ccc(NC(=O)c2cccs2)cc1C (optimized conformer: 66.83138232512076 kcal/mol)

>  <smiles>  (3) 
CCN(CC)c1ccc(NC(=O)c2cccs2)cc1C

>  <score_type>  (3) 
oracle

>  <origin>  (3) 
adg

>  <m_score__min__energy>  (3) 
-7.2699999999999996

>  <m_primary>  (3) 
energy

$$$$
3:0
     RDKit          3D

 56 59  0  0  0  0  0  0  0  0999 V2000
   -2.5818   21.6541  -34.3896 H   0  0  0  0  0  0  0  0  0  0  0  0
   -1.9440   20.9990  -33.7780 C   0  0  0  0  0  0  0  0  0  0  0  0
   -1.9080   19.6610  -34.0250 N   0  0  0  0  0  0  0  0  0  0  0  0
   -1.1370   18.8080  -33.2970 C   0  0  0  0  0  0  0  0  0  0  0  0
   -1.1610   17.5410  -33.5930 N   0  0  0  0  0  0  0  0  0  0  0  0
   -1.6030   16.4580  -32.7160 C   0  0  0  0  0  0  0  0  0  0  0  0
   -1.9922   16.8817  -31.7784 H   0  0  0  0  0  0  0  0  0  0  0  0
   -0.7526   15.7960  -32.4955 H   0  0  0  0  0  0  0  0  0  0  0  0
   -2.7050   15.6560  -33.4080 C   0  0  0  0  0  0  0  0  0  0  0  0
   -2.8838   14.7292  -32.8431 H   0  0  0  0  0  0  0  0  0  0  0  0
   -2.3793   15.4266  -34.4333 H   0  0  0  0  0  0  0  0  0  0  0  0
   -4.0110   16.4600  -33.4790 C   0  0  0  0  0  0  0  0  0  0  0  0
   -4.4715   16.4892  -32.4805 H   0  0  0  0  0  0  0  0  0  0  0  0
   -4.6868   15.9731  -34.1975 H   0  0  0  0  0  0  0  0  0  0  0  0
   -3.7520   17.8370  -33.9320 N   0  0  0  0  0  0  0  0  0  0  0  0
   -2.9660   17.8260  -34.6230 H   0  0  0  0  0  0  0  0  0  0  0  0
   -3.4660   18.4320  -33.1180 H   0  0  0  0  0  0  0  0  0  0  0  0
   -4.9270   18.4310  -34.5910 C   0  0  0  0  0  0  0  0  0  0  0  0
   -5.6153   17.6251  -34.8855 H   0  0  0  0  0  0  0  0  0  0  0  0
   -4.5782   18.9938  -35.4694 H   0  0  0  0  0  0  0  0  0  0  0  0
   -5.6550   19.3860  -33.6820 C   0  0  0  0  0  0  0  0  0  0  0  0
   -7.0050   19.2920  -33.5590 N   0  0  0  0  0  0  0  0  0  0  0  0
   -7.7230   20.1490  -32.7880 C   0  0  0  0  0  0  0  0  0  0  0  0
   -9.1130   20.0090  -32.7090 C   0  0  0  0  0  0  0  0  0  0  0  0
   -9.6141   19.1955  -33.2541 H   0  0  0  0  0  0  0  0  0  0  0  0
   -9.8650   20.8980  -31.9410 C   0  0  0  0  0  0  0  0  0  0  0  0
  -10.9565   20.7784  -31.8750 H   0  0  0  0  0  0  0  0  0  0  0  0
   -9.2360   21.9390  -31.2560 C   0  0  0  0  0  0  0  0  0  0  0  0
   -9.8350   22.6420  -30.6585 H   0  0  0  0  0  0  0  0  0  0  0  0
   -7.8480   22.0920  -31.3260 C   0  0  0  0  0  0  0  0  0  0  0  0
   -7.3609   22.9198  -30.7897 H   0  0  0  0  0  0  0  0  0  0  0  0
   -7.0690   21.1900  -32.0810 C   0  0  0  0  0  0  0  0  0  0  0  0
   -5.6610   21.2990  -32.1850 C   0  0  0  0  0  0  0  0  0  0  0  0
   -4.8860   22.3300  -31.4600 C   0  0  0  0  0  0  0  0  0  0  0  0
   -5.3290   23.6620  -31.4310 C   0  0  0  0  0  0  0  0  0  0  0  0
   -6.2482   23.9454  -31.9647 H   0  0  0  0  0  0  0  0  0  0  0  0
   -4.6070   24.6290  -30.7270 C   0  0  0  0  0  0  0  0  0  0  0  0
   -4.9579   25.6715  -30.7172 H   0  0  0  0  0  0  0  0  0  0  0  0
   -3.4410   24.2830  -30.0340 C   0  0  0  0  0  0  0  0  0  0  0  0
   -2.7520   25.2900  -29.3430 O   0  0  0  0  0  0  0  0  0  0  0  0
   -1.9720   25.0730  -28.1720 C   0  0  0  0  0  0  0  0  0  0  0  0
   -2.5929   25.2458  -27.2806 H   0  0  0  0  0  0  0  0  0  0  0  0
   -1.6009   24.0375  -28.1653 H   0  0  0  0  0  0  0  0  0  0  0  0
   -1.1195   25.7681  -28.1653 H   0  0  0  0  0  0  0  0  0  0  0  0
   -3.0030   22.9440  -30.0530 C   0  0  0  0  0  0  0  0  0  0  0  0
   -2.0887   22.6590  -29.5119 H   0  0  0  0  0  0  0  0  0  0  0  0
   -3.7260   21.9760  -30.7570 C   0  0  0  0  0  0  0  0  0  0  0  0
   -3.3826   20.9310  -30.7592 H   0  0  0  0  0  0  0  0  0  0  0  0
   -4.9650   20.3950  -33.0010 C   0  0  0  0  0  0  0  0  0  0  0  0
   -3.8733   20.4795  -33.1059 H   0  0  0  0  0  0  0  0  0  0  0  0
   -0.3440   19.3250  -32.2500 C   0  0  0  0  0  0  0  0  0  0  0  0
    0.2874   18.6541  -31.6490 H   0  0  0  0  0  0  0  0  0  0  0  0
   -0.3680   20.6950  -31.9840 C   0  0  0  0  0  0  0  0  0  0  0  0
    0.2471   21.1083  -31.1711 H   0  0  0  0  0  0  0  0  0  0  0  0
   -1.1720   21.5400  -32.7490 C   0  0  0  0  0  0  0  0  0  0  0  0
   -1.1972   22.6204  -32.5436 H   0  0  0  0  0  0  0  0  0  0  0  0
  1  2  1  0
  2  3  1  0
  3  4  1  0
  4  5  2  0
  5  6  1  0
  6  7  1  0
  6  8  1  0
  6  9  1  0
  9 10  1  0
  9 11  1  0
  9 12  1  0
 12 13  1  0
 12 14  1  0
 12 15  1  0
 15 16  1  0
 15 17  1  0
 15 18  1  0
 18 19  1  0
 18 20  1  0
 18 21  1  0
 21 22  2  0
 22 23  1  0
 23 24  2  0
 24 25  1  0
 24 26  1  0
 26 27  1  0
 26 28  2  0
 28 29  1  0
 28 30  1  0
 30 31  1  0
 30 32  2  0
 32 33  1  0
 33 34  1  0
 34 35  2  0
 35 36  1  0
 35 37  1  0
 37 38  1  0
 37 39  2  0
 39 40  1  0
 40 41  1  0
 41 42  1  0
 41 43  1  0
 41 44  1  0
 39 45  1  0
 45 46  1  0
 45 47  2  0
 47 48  1  0
 33 49  2  0
 49 50  1  0
  4 51  1  0
 51 52  1  0
 51 53  2  0
 53 54  1  0
 53 55  1  0
 55 56  1  0
 55  2  2  0
 49 21  1  0
 32 23  1  0
 47 34  1  0
M  CHG  2   3  -1  15   1
M  END
>  <UniqueID>  (4) 
4

>  <SMILES>  (4) 
COc1ccc(-c2cc(C[NH2+]CCC/N=c3\cccc[n-]3)nc3ccccc23)cc1

>  <Energy>  (4) 
67.65255717671639

>  <Genealogy>  (4) 
COc1ccc(-c2cc(C[NH2+]CCCN=c3cccc[n-]3)nc3ccccc23)cc1 (protonated)
COc1ccc(-c2cc(C[NH2+]CCC/N=c3\cccc[n-]3)nc3ccccc23)cc1 (cis-trans isomerization)
COc1ccc(-c2cc(C[NH2+]CCC/N=c3\cccc[n-]3)nc3ccccc23)cc1 (3D coordinates assigned)
COc1ccc(-c2cc(C[NH2+]CCC/N=c3\cccc[n-]3)nc3ccccc23)cc1 (optimized conformer: 67.65255717671639 kcal/mol)

>  <smiles>  (4) 
COc1ccc(-c2cc(CNCCCN=c3cccc[nH]3)nc3ccccc23)cc1

>  <score_type>  (4) 
oracle

>  <origin>  (4) 
adg

>  <m_score__min__energy>  (4) 
-9.2300000000000004

>  <m_primary>  (4) 
energy

$$$$
4:0
     RDKit          3D

 42 44  0  0  0  0  0  0  0  0999 V2000
   -3.1010   25.6540  -30.8180 H   0  0  0  0  0  0  0  0  0  0  0  0
   -4.1060   25.7410  -30.7310 O   0  0  0  0  0  0  0  0  0  0  0  0
   -4.9240   24.7410  -31.1990 N   0  0  0  0  0  0  0  0  0  0  0  0
   -4.9190   23.5360  -30.7100 C   0  0  0  0  0  0  0  0  0  0  0  0
   -5.7580   22.4850  -31.3440 C   0  0  0  0  0  0  0  0  0  0  0  0
   -5.2580   21.1910  -31.6210 C   0  0  0  0  0  0  0  0  0  0  0  0
   -3.9540   20.8430  -31.2390 O   0  0  0  0  0  0  0  0  0  0  0  0
   -2.8960   20.5710  -32.1190 C   0  0  0  0  0  0  0  0  0  0  0  0
   -1.7100   21.3270  -32.1200 C   0  0  0  0  0  0  0  0  0  0  0  0
   -1.5965   22.1698  -31.4223 H   0  0  0  0  0  0  0  0  0  0  0  0
   -0.6760   21.0110  -33.0040 C   0  0  0  0  0  0  0  0  0  0  0  0
    0.2459   21.6111  -33.0066 H   0  0  0  0  0  0  0  0  0  0  0  0
   -0.8090   19.9350  -33.8850 C   0  0  0  0  0  0  0  0  0  0  0  0
    0.0053   19.6948  -34.5844 H   0  0  0  0  0  0  0  0  0  0  0  0
   -1.9830   19.1570  -33.8800 C   0  0  0  0  0  0  0  0  0  0  0  0
   -2.1620   18.0620  -34.7370 O   0  0  0  0  0  0  0  0  0  0  0  0
   -2.8440   16.8640  -34.3790 C   0  0  0  0  0  0  0  0  0  0  0  0
   -2.8906   16.7821  -33.2830 H   0  0  0  0  0  0  0  0  0  0  0  0
   -3.8646   16.8866  -34.7887 H   0  0  0  0  0  0  0  0  0  0  0  0
   -2.3035   15.9980  -34.7887 H   0  0  0  0  0  0  0  0  0  0  0  0
   -3.0130   19.4810  -32.9890 C   0  0  0  0  0  0  0  0  0  0  0  0
   -3.9276   18.8700  -32.9724 H   0  0  0  0  0  0  0  0  0  0  0  0
   -6.0680   20.2670  -32.2110 N   0  0  0  0  0  0  0  0  0  0  0  0
   -7.3500   20.5460  -32.5620 C   0  0  0  0  0  0  0  0  0  0  0  0
   -7.9684   19.7741  -33.0434 H   0  0  0  0  0  0  0  0  0  0  0  0
   -7.8820   21.8080  -32.3130 C   0  0  0  0  0  0  0  0  0  0  0  0
   -8.9200   22.0392  -32.5944 H   0  0  0  0  0  0  0  0  0  0  0  0
   -7.0850   22.7760  -31.7030 C   0  0  0  0  0  0  0  0  0  0  0  0
   -7.4983   23.7752  -31.5012 H   0  0  0  0  0  0  0  0  0  0  0  0
   -4.1100   23.1980  -29.5660 N   0  0  0  0  0  0  0  0  0  0  0  0
   -3.7010   22.2370  -29.5240 H   0  0  0  0  0  0  0  0  0  0  0  0
   -4.0790   23.9890  -28.3340 C   0  0  0  0  0  0  0  0  0  0  0  0
   -4.8479   24.7737  -28.3888 H   0  0  0  0  0  0  0  0  0  0  0  0
   -4.2746   23.3235  -27.4803 H   0  0  0  0  0  0  0  0  0  0  0  0
   -2.7370   24.6270  -28.1510 C   0  0  0  0  0  0  0  0  0  0  0  0
   -2.1090   25.3010  -29.0850 O   0  0  0  0  0  0  0  0  0  0  0  0
   -0.9820   25.7540  -28.5860 C   0  0  0  0  0  0  0  0  0  0  0  0
   -0.2411   26.3526  -29.1361 H   0  0  0  0  0  0  0  0  0  0  0  0
   -0.8680   25.3650  -27.2660 C   0  0  0  0  0  0  0  0  0  0  0  0
   -0.0385   25.5904  -26.5797 H   0  0  0  0  0  0  0  0  0  0  0  0
   -2.0040   24.6370  -26.9820 C   0  0  0  0  0  0  0  0  0  0  0  0
   -2.2699   24.1639  -26.0252 H   0  0  0  0  0  0  0  0  0  0  0  0
  1  2  1  0
  2  3  1  0
  3  4  2  0
  4  5  1  0
  5  6  1  0
  6  7  1  0
  7  8  1  0
  8  9  2  0
  9 10  1  0
  9 11  1  0
 11 12  1  0
 11 13  2  0
 13 14  1  0
 13 15  1  0
 15 16  1  0
 16 17  1  0
 17 18  1  0
 17 19  1  0
 17 20  1  0
 15 21  2  0
 21 22  1  0
  6 23  2  0
 23 24  1  0
 24 25  1  0
 24 26  2  0
 26 27  1  0
 26 28  1  0
 28 29  1  0
  4 30  1  0
 30 31  1  0
 30 32  1  0
 32 33  1  0
 32 34  1  0
 32 35  1  0
 35 36  1  0
 36 37  1  0
 37 38  1  0
 37 39  2  0
 39 40  1  0
 39 41  1  0
 41 42  1  0
 28  5  2  0
 41 35  2  0
 21  8  1  0
M  END
>  <UniqueID>  (5) 
5

>  <SMILES>  (5) 
COc1cccc(Oc2ncccc2/C(=N/O)NCc2ccco2)c1

>  <Energy>  (5) 
78.94265518050365

>  <Genealogy>  (5) 
COc1cccc(Oc2ncccc2/C(=N/O)NCc2ccco2)c1 (cis-trans isomerization)
COc1cccc(Oc2ncccc2/C(=N/O)NCc2ccco2)c1 (3D coordinates assigned)
COc1cccc(Oc2ncccc2/C(=N/O)NCc2ccco2)c1 (optimized conformer: 78.94265518050365 kcal/mol)

>  <smiles>  (5) 
COc1cccc(Oc2ncccc2C(=NO)NCc2ccco2)c1

>  <score_type>  (5) 
oracle

>  <origin>  (5) 
adg

>  <m_score__min__energy>  (5) 
-9.0800000000000001

>  <m_primary>  (5) 
energy

$$$$
5:0
     RDKit          3D

 37 38  0  0  0  0  0  0  0  0999 V2000
    1.1550   24.1710  -27.8500 C   0  0  0  0  0  0  0  0  0  0  0  0
   -0.0340   24.5880  -28.5130 O   0  0  0  0  0  0  0  0  0  0  0  0
   -1.2840   24.7200  -27.8880 C   0  0  0  0  0  0  0  0  0  0  0  0
   -1.4180   25.1390  -26.5510 C   0  0  0  0  0  0  0  0  0  0  0  0
   -2.6850   25.2450  -25.9720 C   0  0  0  0  0  0  0  0  0  0  0  0
   -3.8270   24.9450  -26.7200 C   0  0  0  0  0  0  0  0  0  0  0  0
   -3.7110   24.5490  -28.0630 C   0  0  0  0  0  0  0  0  0  0  0  0
   -4.8670   24.2120  -28.8490 N   0  0  0  0  0  0  0  0  0  0  0  0
   -5.0800   24.6570  -30.1980 C   0  0  0  0  0  0  0  0  0  0  0  0
   -4.1570   25.2290  -30.8400 O   0  0  0  0  0  0  0  0  0  0  0  0
   -6.3880   24.3890  -30.8750 C   0  0  0  0  0  0  0  0  0  0  0  0
   -7.2380   22.9630  -30.1070 S   0  0  0  0  0  0  0  0  0  0  0  0
   -8.2270   22.4660  -31.5660 C   0  0  0  0  0  0  0  0  0  0  0  0
   -7.8210   21.1030  -32.0560 C   0  0  0  0  0  0  0  0  0  0  0  0
   -8.6490   19.9890  -31.8370 C   0  0  0  0  0  0  0  0  0  0  0  0
   -8.2620   18.7230  -32.2860 C   0  0  0  0  0  0  0  0  0  0  0  0
   -7.0460   18.5600  -32.9580 C   0  0  0  0  0  0  0  0  0  0  0  0
   -6.5180   16.8290  -33.5700 Br  0  0  0  0  0  0  0  0  0  0  0  0
   -6.2180   19.6640  -33.1810 C   0  0  0  0  0  0  0  0  0  0  0  0
   -6.6030   20.9310  -32.7330 C   0  0  0  0  0  0  0  0  0  0  0  0
   -2.4330   24.4210  -28.6300 C   0  0  0  0  0  0  0  0  0  0  0  0
    1.0055   24.2234  -26.7615 H   0  0  0  0  0  0  0  0  0  0  0  0
    1.3918   23.1362  -28.1382 H   0  0  0  0  0  0  0  0  0  0  0  0
    1.9863   24.8312  -28.1382 H   0  0  0  0  0  0  0  0  0  0  0  0
   -0.5228   25.3836  -25.9605 H   0  0  0  0  0  0  0  0  0  0  0  0
   -2.7841   25.5655  -24.9244 H   0  0  0  0  0  0  0  0  0  0  0  0
   -4.8211   25.0193  -26.2550 H   0  0  0  0  0  0  0  0  0  0  0  0
   -5.5500   23.5300  -28.4500 H   0  0  0  0  0  0  0  0  0  0  0  0
   -7.0279   25.2795  -30.7883 H   0  0  0  0  0  0  0  0  0  0  0  0
   -6.1959   24.1565  -31.9329 H   0  0  0  0  0  0  0  0  0  0  0  0
   -9.2913   22.4459  -31.2888 H   0  0  0  0  0  0  0  0  0  0  0  0
   -8.0513   23.1939  -32.3718 H   0  0  0  0  0  0  0  0  0  0  0  0
   -9.6063   20.1138  -31.3097 H   0  0  0  0  0  0  0  0  0  0  0  0
   -8.9140   17.8545  -32.1108 H   0  0  0  0  0  0  0  0  0  0  0  0
   -5.2620   19.5356  -33.7098 H   0  0  0  0  0  0  0  0  0  0  0  0
   -5.9488   21.7971  -32.9117 H   0  0  0  0  0  0  0  0  0  0  0  0
   -2.3331   24.0812  -29.6714 H   0  0  0  0  0  0  0  0  0  0  0  0
  1  2  1  0
  2  3  1  0
  3  4  2  0
  4  5  1  0
  5  6  2  0
  6  7  1  0
  7  8  1  0
  8  9  1  0
  9 10  2  0
  9 11  1  0
 11 12  1  0
 12 13  1  0
 13 14  1  0
 14 15  2  0
 15 16  1  0
 16 17  2  0
 17 18  1  0
 17 19  1  0
 19 20  2  0
  7 21  2  0
 21  3  1  0
 20 14  1  0
  1 22  1  0
  1 23  1  0
  1 24  1  0
  4 25  1  0
  5 26  1  0
  6 27  1  0
  8 28  1  0
 11 29  1  0
 11 30  1  0
 13 31  1  0
 13 32  1  0
 15 33  1  0
 16 34  1  0
 19 35  1  0
 20 36  1  0
 21 37  1  0
M  END
>  <UniqueID>  (6) 
6

>  <SMILES>  (6) 
COc1cccc(NC(=O)CSCc2ccc(Br)cc2)c1

>  <Energy>  (6) 
35.060954910434475

>  <Genealogy>  (6) 
COc1cccc(NC(=O)CSCc2ccc(Br)cc2)c1 (3D coordinates assigned)
COc1cccc(NC(=O)CSCc2ccc(Br)cc2)c1 (optimized conformer: 35.060954910434475 kcal/mol)

>  <smiles>  (6) 
COc1cccc(NC(=O)CSCc2ccc(Br)cc2)c1

>  <score_type>  (6) 
oracle

>  <origin>  (6) 
adg

>  <m_score__min__energy>  (6) 
-9.0700000000000003

>  <m_primary>  (6) 
energy

$$$$
6:0
     RDKit          3D

 44 44  0  0  0  0  0  0  0  0999 V2000
   -6.4950   25.6840  -29.3860 C   0  0  0  0  0  0  0  0  0  0  0  0
   -5.4190   25.6490  -30.4680 C   0  0  0  0  0  0  0  0  0  0  0  0
   -4.7240   24.3520  -30.4800 N   0  0  0  0  0  0  0  0  0  0  0  0
   -3.4730   24.2050  -29.7190 C   0  0  0  0  0  0  0  0  0  0  0  0
   -3.7620   23.9370  -28.2450 C   0  0  0  0  0  0  0  0  0  0  0  0
   -5.2680   23.2400  -31.2300 C   0  0  0  0  0  0  0  0  0  0  0  0
   -6.6480   22.9650  -31.2090 C   0  0  0  0  0  0  0  0  0  0  0  0
   -7.1680   21.8810  -31.9220 C   0  0  0  0  0  0  0  0  0  0  0  0
   -6.3210   21.0510  -32.6700 C   0  0  0  0  0  0  0  0  0  0  0  0
   -6.8750   19.8680  -33.4330 C   0  0  0  0  0  0  0  0  0  0  0  0
   -6.6800   18.5890  -32.7000 N   0  0  0  0  0  0  0  0  0  0  0  0
   -6.3830   17.4910  -33.6600 C   0  0  0  0  0  0  0  0  0  0  0  0
   -5.6810   18.0000  -34.9250 C   0  0  0  0  0  0  0  0  0  0  0  0
   -7.8930   18.2650  -31.8990 C   0  0  0  0  0  0  0  0  0  0  0  0
   -9.1060   19.1040  -32.3180 C   0  0  0  0  0  0  0  0  0  0  0  0
   -4.9460   21.3260  -32.7010 C   0  0  0  0  0  0  0  0  0  0  0  0
   -4.4250   22.4090  -31.9890 C   0  0  0  0  0  0  0  0  0  0  0  0
   -6.0187   25.6685  -28.3946 H   0  0  0  0  0  0  0  0  0  0  0  0
   -7.0917   26.6020  -29.4918 H   0  0  0  0  0  0  0  0  0  0  0  0
   -7.1501   24.8067  -29.4918 H   0  0  0  0  0  0  0  0  0  0  0  0
   -5.8896   25.8139  -31.4485 H   0  0  0  0  0  0  0  0  0  0  0  0
   -4.6831   26.4385  -30.2556 H   0  0  0  0  0  0  0  0  0  0  0  0
   -2.8967   23.3639  -30.1319 H   0  0  0  0  0  0  0  0  0  0  0  0
   -2.8993   25.1400  -29.8008 H   0  0  0  0  0  0  0  0  0  0  0  0
   -3.0968   24.5538  -27.6229 H   0  0  0  0  0  0  0  0  0  0  0  0
   -4.8095   24.1905  -28.0247 H   0  0  0  0  0  0  0  0  0  0  0  0
   -3.5881   22.8734  -28.0247 H   0  0  0  0  0  0  0  0  0  0  0  0
   -7.3234   23.6088  -30.6264 H   0  0  0  0  0  0  0  0  0  0  0  0
   -8.2488   21.6778  -31.8961 H   0  0  0  0  0  0  0  0  0  0  0  0
   -7.9518   20.0233  -33.5952 H   0  0  0  0  0  0  0  0  0  0  0  0
   -6.3338   19.7972  -34.3880 H   0  0  0  0  0  0  0  0  0  0  0  0
   -5.8680   18.6970  -32.0470 H   0  0  0  0  0  0  0  0  0  0  0  0
   -5.7319   16.7550  -33.1656 H   0  0  0  0  0  0  0  0  0  0  0  0
   -7.3395   17.0404  -33.9633 H   0  0  0  0  0  0  0  0  0  0  0  0
   -4.8206   18.6238  -34.6411 H   0  0  0  0  0  0  0  0  0  0  0  0
   -5.3322   17.1435  -35.5206 H   0  0  0  0  0  0  0  0  0  0  0  0
   -6.3866   18.5977  -35.5206 H   0  0  0  0  0  0  0  0  0  0  0  0
   -8.1342   17.2006  -32.0365 H   0  0  0  0  0  0  0  0  0  0  0  0
   -7.6726   18.4933  -30.8458 H   0  0  0  0  0  0  0  0  0  0  0  0
   -9.6292   19.4659  -31.4206 H   0  0  0  0  0  0  0  0  0  0  0  0
   -8.7686   19.9627  -32.9170 H   0  0  0  0  0  0  0  0  0  0  0  0
   -9.7905   18.4854  -32.9170 H   0  0  0  0  0  0  0  0  0  0  0  0
   -4.2736   20.6847  -33.2898 H   0  0  0  0  0  0  0  0  0  0  0  0
   -3.3447   22.6138  -32.0224 H   0  0  0  0  0  0  0  0  0  0  0  0
  1  2  1  0
  2  3  1  0
  3  4  1  0
  4  5  1  0
  3  6  1  0
  6  7  2  0
  7  8  1  0
  8  9  2  0
  9 10  1  0
 10 11  1  0
 11 12  1  0
 12 13  1  0
 11 14  1  0
 14 15  1  0
  9 16  1  0
 16 17  2  0
 17  6  1  0
  1 18  1  0
  1 19  1  0
  1 20  1  0
  2 21  1  0
  2 22  1  0
  4 23  1  0
  4 24  1  0
  5 25  1  0
  5 26  1  0
  5 27  1  0
  7 28  1  0
  8 29  1  0
 10 30  1  0
 10 31  1  0
 11 32  1  0
 12 33  1  0
 12 34  1  0
 13 35  1  0
 13 36  1  0
 13 37  1  0
 14 38  1  0
 14 39  1  0
 15 40  1  0
 15 41  1  0
 15 42  1  0
 16 43  1  0
 17 44  1  0
M  CHG  1  11   1
M  END
>  <UniqueID>  (7) 
7

>  <SMILES>  (7) 
CCN(CC)c1ccc(C[NH+](CC)CC)cc1

>  <Energy>  (7) 
39.772829680706096

>  <Genealogy>  (7) 
CCN(CC)c1ccc(C[NH+](CC)CC)cc1 (protonated)
CCN(CC)c1ccc(C[NH+](CC)CC)cc1 (3D coordinates assigned)
CCN(CC)c1ccc(C[NH+](CC)CC)cc1 (optimized conformer: 39.772829680706096 kcal/mol)

>  <smiles>  (7) 
CCN(CC)Cc1ccc(N(CC)CC)cc1

>  <score_type>  (7) 
oracle

>  <origin>  (7) 
adg

>  <m_score__min__energy>  (7) 
-5.4000000000000004

>  <m_primary>  (7) 
energy

$$$$
7:0
     RDKit          3D

 33 36  0  0  0  0  0  0  0  0999 V2000
   -6.8910   16.7260  -34.0660 O   0  0  0  0  0  0  0  0  0  0  0  0
   -6.4730   17.8130  -33.5860 C   0  0  0  0  0  0  0  0  0  0  0  0
   -5.1290   18.3570  -33.7040 C   0  0  0  0  0  0  0  0  0  0  0  0
   -4.0050   17.8130  -34.3240 C   0  0  0  0  0  0  0  0  0  0  0  0
   -2.7930   18.5150  -34.2350 C   0  0  0  0  0  0  0  0  0  0  0  0
   -2.7240   19.7260  -33.5170 C   0  0  0  0  0  0  0  0  0  0  0  0
   -3.8650   20.2540  -32.8930 C   0  0  0  0  0  0  0  0  0  0  0  0
   -5.0760   19.5620  -33.0190 C   0  0  0  0  0  0  0  0  0  0  0  0
   -6.4140   19.8330  -32.4560 C   0  0  0  0  0  0  0  0  0  0  0  0
   -7.2350   18.7620  -32.7860 C   0  0  0  0  0  0  0  0  0  0  0  0
   -8.5560   18.6860  -32.3550 C   0  0  0  0  0  0  0  0  0  0  0  0
   -9.0600   19.7330  -31.5690 C   0  0  0  0  0  0  0  0  0  0  0  0
   -8.2470   20.8350  -31.2430 C   0  0  0  0  0  0  0  0  0  0  0  0
   -6.9130   20.9090  -31.6950 C   0  0  0  0  0  0  0  0  0  0  0  0
   -6.1180   22.1150  -31.4120 C   0  0  0  0  0  0  0  0  0  0  0  0
   -6.5310   23.3630  -31.9060 C   0  0  0  0  0  0  0  0  0  0  0  0
   -5.7880   24.5120  -31.6190 C   0  0  0  0  0  0  0  0  0  0  0  0
   -4.6370   24.4270  -30.8270 C   0  0  0  0  0  0  0  0  0  0  0  0
   -3.9060   25.5800  -30.5500 O   0  0  0  0  0  0  0  0  0  0  0  0
   -4.2330   23.1850  -30.3200 C   0  0  0  0  0  0  0  0  0  0  0  0
   -4.9730   22.0330  -30.6060 C   0  0  0  0  0  0  0  0  0  0  0  0
   -4.0665   16.8591  -34.8684 H   0  0  0  0  0  0  0  0  0  0  0  0
   -1.8930   18.1184  -34.7277 H   0  0  0  0  0  0  0  0  0  0  0  0
   -1.7665   20.2626  -33.4450 H   0  0  0  0  0  0  0  0  0  0  0  0
   -3.8093   21.1901  -32.3180 H   0  0  0  0  0  0  0  0  0  0  0  0
   -9.1886   17.8272  -32.6237 H   0  0  0  0  0  0  0  0  0  0  0  0
  -10.0973   19.6926  -31.2051 H   0  0  0  0  0  0  0  0  0  0  0  0
   -8.6575   21.6491  -30.6276 H   0  0  0  0  0  0  0  0  0  0  0  0
   -7.4408   23.4367  -32.5199 H   0  0  0  0  0  0  0  0  0  0  0  0
   -6.1090   25.4860  -32.0169 H   0  0  0  0  0  0  0  0  0  0  0  0
   -2.9390   25.6750  -30.8370 H   0  0  0  0  0  0  0  0  0  0  0  0
   -3.3306   23.1155  -29.6948 H   0  0  0  0  0  0  0  0  0  0  0  0
   -4.6566   21.0616  -30.1983 H   0  0  0  0  0  0  0  0  0  0  0  0
  1  2  2  0
  2  3  1  0
  3  4  2  0
  4  5  1  0
  5  6  2  0
  6  7  1  0
  7  8  2  0
  8  9  1  0
  9 10  2  0
 10 11  1  0
 11 12  2  0
 12 13  1  0
 13 14  2  0
 14 15  1  0
 15 16  2  0
 16 17  1  0
 17 18  2  0
 18 19  1  0
 18 20  1  0
 20 21  2  0
 10  2  1  0
 21 15  1  0
  8  3  1  0
 14  9  1  0
  4 22  1  0
  5 23  1  0
  6 24  1  0
  7 25  1  0
 11 26  1  0
 12 27  1  0
 13 28  1  0
 16 29  1  0
 17 30  1  0
 19 31  1  0
 20 32  1  0
 21 33  1  0
M  END
>  <UniqueID>  (8) 
8

>  <SMILES>  (8) 
O=C1c2ccccc2-c2c1cccc2-c1ccc(O)cc1

>  <Energy>  (8) 
79.1866627210129

>  <Genealogy>  (8) 
O=C1c2ccccc2-c2c1cccc2-c1ccc(O)cc1 (3D coordinates assigned)
O=C1c2ccccc2-c2c1cccc2-c1ccc(O)cc1 (nonaromatic ring conformer: 79.1866627210129 kcal/mol)

>  <smiles>  (8) 
O=C1c2ccccc2-c2c1cccc2-c1ccc(O)cc1

>  <score_type>  (8) 
oracle

>  <origin>  (8) 
adg

>  <m_score__min__energy>  (8) 
-10.289999999999999

>  <m_primary>  (8) 
energy

$$$$
8:0
     RDKit          3D

 47 50  0  0  0  0  0  0  0  0999 V2000
   -0.3130   20.5930  -29.5740 C   0  0  0  0  0  0  0  0  0  0  0  0
    0.2990   20.3120  -28.2010 C   0  0  0  0  0  0  0  0  0  0  0  0
   -0.7210   19.7450  -27.2030 C   0  0  0  0  0  0  0  0  0  0  0  0
   -1.2180   20.7990  -26.2030 C   0  0  0  0  0  0  0  0  0  0  0  0
   -1.4280   22.1000  -26.8810 N   0  0  0  0  0  0  0  0  0  0  0  0
   -2.5730   22.2700  -27.6280 C   0  0  0  0  0  0  0  0  0  0  0  0
   -3.4410   21.3520  -27.6780 O   0  0  0  0  0  0  0  0  0  0  0  0
   -2.8110   23.4630  -28.3310 C   0  0  0  0  0  0  0  0  0  0  0  0
   -4.0350   23.6210  -29.1550 C   0  0  0  0  0  0  0  0  0  0  0  0
   -4.6180   24.7860  -29.2170 N   0  0  0  0  0  0  0  0  0  0  0  0
   -6.0410   25.0760  -30.1480 S   0  0  0  0  0  0  0  0  0  0  0  0
   -5.7340   26.0590  -31.2420 O   0  0  0  0  0  0  0  0  0  0  0  0
   -7.1240   25.6100  -29.2550 O   0  0  0  0  0  0  0  0  0  0  0  0
   -6.5440   23.5610  -30.8410 C   0  0  0  0  0  0  0  0  0  0  0  0
   -7.7180   23.4880  -31.6010 C   0  0  0  0  0  0  0  0  0  0  0  0
   -8.1140   22.2720  -32.1610 C   0  0  0  0  0  0  0  0  0  0  0  0
   -7.3360   21.1280  -31.9650 C   0  0  0  0  0  0  0  0  0  0  0  0
   -6.1640   21.2010  -31.2070 C   0  0  0  0  0  0  0  0  0  0  0  0
   -5.7570   22.4180  -30.6350 C   0  0  0  0  0  0  0  0  0  0  0  0
   -4.5460   22.4680  -29.8610 N   0  0  0  0  0  0  0  0  0  0  0  0
   -1.8770   24.5010  -28.2540 C   0  0  0  0  0  0  0  0  0  0  0  0
   -2.0830   25.6730  -28.9790 O   0  0  0  0  0  0  0  0  0  0  0  0
   -0.7350   24.3560  -27.4550 C   0  0  0  0  0  0  0  0  0  0  0  0
    0.1930   25.4080  -27.3470 C   0  0  0  0  0  0  0  0  0  0  0  0
    1.3180   25.2780  -26.5360 C   0  0  0  0  0  0  0  0  0  0  0  0
    1.5280   24.1040  -25.8200 C   0  0  0  0  0  0  0  0  0  0  0  0
    0.6240   23.0460  -25.9180 C   0  0  0  0  0  0  0  0  0  0  0  0
   -0.5240   23.1400  -26.7490 C   0  0  0  0  0  0  0  0  0  0  0  0
   -1.3059   21.0489  -29.4465 H   0  0  0  0  0  0  0  0  0  0  0  0
    0.3381   21.2823  -30.1315 H   0  0  0  0  0  0  0  0  0  0  0  0
   -0.4114   19.6499  -30.1315 H   0  0  0  0  0  0  0  0  0  0  0  0
    1.1153   19.5846  -28.3216 H   0  0  0  0  0  0  0  0  0  0  0  0
    0.6631   21.2683  -27.7972 H   0  0  0  0  0  0  0  0  0  0  0  0
   -1.5841   19.3568  -27.7637 H   0  0  0  0  0  0  0  0  0  0  0  0
   -0.2198   18.9517  -26.6291 H   0  0  0  0  0  0  0  0  0  0  0  0
   -2.1688   20.4618  -25.7644 H   0  0  0  0  0  0  0  0  0  0  0  0
   -0.4609   20.9267  -25.4153 H   0  0  0  0  0  0  0  0  0  0  0  0
   -4.2370   25.5940  -28.6740 H   0  0  0  0  0  0  0  0  0  0  0  0
   -8.3287   24.3896  -31.7569 H   0  0  0  0  0  0  0  0  0  0  0  0
   -9.0375   22.2146  -32.7559 H   0  0  0  0  0  0  0  0  0  0  0  0
   -7.6460   20.1698  -32.4074 H   0  0  0  0  0  0  0  0  0  0  0  0
   -5.5548   20.2975  -31.0569 H   0  0  0  0  0  0  0  0  0  0  0  0
   -3.9820   21.5900  -29.7990 H   0  0  0  0  0  0  0  0  0  0  0  0
    0.0289   26.3403  -27.9073 H   0  0  0  0  0  0  0  0  0  0  0  0
    2.0406   26.1040  -26.4617 H   0  0  0  0  0  0  0  0  0  0  0  0
    2.4122   24.0093  -25.1726 H   0  0  0  0  0  0  0  0  0  0  0  0
    0.8029   22.1254  -25.3432 H   0  0  0  0  0  0  0  0  0  0  0  0
  1  2  1  0
  2  3  1  0
  3  4  1  0
  4  5  1  0
  5  6  1  0
  6  7  2  0
  6  8  1  0
  8  9  1  0
  9 10  2  0
 10 11  1  0
 11 12  2  0
 11 13  2  0
 11 14  1  0
 14 15  2  0
 15 16  1  0
 16 17  2  0
 17 18  1  0
 18 19  2  0
 19 20  1  0
  8 21  2  0
 21 22  1  0
 21 23  1  0
 23 24  2  0
 24 25  1  0
 25 26  2  0
 26 27  1  0
 27 28  2  0
 28  5  1  0
 20  9  1  0
 28 23  1  0
 19 14  1  0
  1 29  1  0
  1 30  1  0
  1 31  1  0
  2 32  1  0
  2 33  1  0
  3 34  1  0
  3 35  1  0
  4 36  1  0
  4 37  1  0
 10 38  1  0
 15 39  1  0
 16 40  1  0
 17 41  1  0
 18 42  1  0
 20 43  1  0
 24 44  1  0
 25 45  1  0
 26 46  1  0
 27 47  1  0
M  CHG  2  10   1  22  -1
M  END
>  <UniqueID>  (9) 
9

>  <SMILES>  (9) 
CCCCn1c(=O)c(C2=[NH+]S(=O)(=O)c3ccccc3N2)c([O-])c2ccccc21

>  <Energy>  (9) 
69.02451663852263

>  <Genealogy>  (9) 
CCCCn1c(=O)c(C2=[NH+]S(=O)(=O)c3ccccc3N2)c([O-])c2ccccc21 (protonated)
CCCCn1c(=O)c(C2=[NH+]S(=O)(=O)c3ccccc3N2)c([O-])c2ccccc21 (3D coordinates assigned)
CCCCn1c(=O)c(C2=[NH+]S(=O)(=O)c3ccccc3N2)c([O-])c2ccccc21 (nonaromatic ring conformer: 69.02451663852263 kcal/mol)

>  <smiles>  (9) 
CCCCn1c(=O)c(C2=NS(=O)(=O)c3ccccc3N2)c(O)c2ccccc21

>  <score_type>  (9) 
oracle

>  <origin>  (9) 
adg

>  <m_score__min__energy>  (9) 
-10.91

>  <m_primary>  (9) 
energy

$$$$
9:0
     RDKit          3D

 43 44  0  0  0  0  0  0  0  0999 V2000
   -6.4030   19.1920  -32.6600 C   0  0  0  0  0  0  0  0  0  0  0  0
   -5.3560   19.8760  -33.5390 C   0  0  0  0  0  0  0  0  0  0  0  0
   -4.1700   20.4300  -32.7310 C   0  0  0  0  0  0  0  0  0  0  0  0
   -3.9100   21.9330  -32.9440 C   0  0  0  0  0  0  0  0  0  0  0  0
   -4.4880   22.7430  -31.8570 N   0  0  0  0  0  0  0  0  0  0  0  0
   -5.7760   23.3660  -32.0250 C   0  0  0  0  0  0  0  0  0  0  0  0
   -7.0070   22.5530  -32.2730 C   0  0  0  0  0  0  0  0  0  0  0  0
   -5.8830   24.6190  -31.9240 O   0  0  0  0  0  0  0  0  0  0  0  0
   -3.8010   22.8420  -30.5880 C   0  0  0  0  0  0  0  0  0  0  0  0
   -3.3820   21.7860  -29.7930 C   0  0  0  0  0  0  0  0  0  0  0  0
   -2.7310   22.3620  -28.7190 C   0  0  0  0  0  0  0  0  0  0  0  0
   -2.1820   21.6500  -27.6590 O   0  0  0  0  0  0  0  0  0  0  0  0
   -2.7150   23.7090  -28.8190 N   0  0  0  0  0  0  0  0  0  0  0  0
   -2.1150   24.6410  -27.9010 C   0  0  0  0  0  0  0  0  0  0  0  0
   -2.6630   24.8380  -26.6240 C   0  0  0  0  0  0  0  0  0  0  0  0
   -2.0780   25.7410  -25.7320 C   0  0  0  0  0  0  0  0  0  0  0  0
   -0.9310   26.4670  -26.1070 C   0  0  0  0  0  0  0  0  0  0  0  0
   -0.3080   27.3860  -25.2500 O   0  0  0  0  0  0  0  0  0  0  0  0
   -0.3000   27.2830  -23.8290 C   0  0  0  0  0  0  0  0  0  0  0  0
   -0.3870   26.2700  -27.3800 C   0  0  0  0  0  0  0  0  0  0  0  0
   -0.9700   25.3650  -28.2720 C   0  0  0  0  0  0  0  0  0  0  0  0
   -3.3580   24.0020  -29.9680 C   0  0  0  0  0  0  0  0  0  0  0  0
   -3.4890   25.2910  -30.4760 O   0  0  0  0  0  0  0  0  0  0  0  0
   -6.1549   19.3541  -31.6007 H   0  0  0  0  0  0  0  0  0  0  0  0
   -7.3950   19.6168  -32.8734 H   0  0  0  0  0  0  0  0  0  0  0  0
   -6.4126   18.1129  -32.8734 H   0  0  0  0  0  0  0  0  0  0  0  0
   -4.9747   19.1438  -34.2660 H   0  0  0  0  0  0  0  0  0  0  0  0
   -5.8450   20.7270  -34.0356 H   0  0  0  0  0  0  0  0  0  0  0  0
   -4.3718   20.2625  -31.6627 H   0  0  0  0  0  0  0  0  0  0  0  0
   -3.2723   19.9003  -33.0825 H   0  0  0  0  0  0  0  0  0  0  0  0
   -2.8243   22.1059  -32.9795 H   0  0  0  0  0  0  0  0  0  0  0  0
   -4.3869   22.2342  -33.8884 H   0  0  0  0  0  0  0  0  0  0  0  0
   -7.4522   22.2590  -31.3110 H   0  0  0  0  0  0  0  0  0  0  0  0
   -7.7320   23.1505  -32.8452 H   0  0  0  0  0  0  0  0  0  0  0  0
   -6.7420   21.6517  -32.8452 H   0  0  0  0  0  0  0  0  0  0  0  0
   -3.5359   20.7128  -29.9788 H   0  0  0  0  0  0  0  0  0  0  0  0
   -3.5601   24.2772  -26.3228 H   0  0  0  0  0  0  0  0  0  0  0  0
   -2.5152   25.8852  -24.7330 H   0  0  0  0  0  0  0  0  0  0  0  0
   -0.3780   28.2877  -23.3881 H   0  0  0  0  0  0  0  0  0  0  0  0
   -1.1533   26.6713  -23.5009 H   0  0  0  0  0  0  0  0  0  0  0  0
    0.6376   26.8104  -23.5009 H   0  0  0  0  0  0  0  0  0  0  0  0
    0.5085   26.8326  -27.6826 H   0  0  0  0  0  0  0  0  0  0  0  0
   -0.5298   25.2192  -29.2695 H   0  0  0  0  0  0  0  0  0  0  0  0
  1  2  1  0
  2  3  1  0
  3  4  1  0
  4  5  1  0
  5  6  1  0
  6  7  1  0
  6  8  2  0
  5  9  1  0
  9 10  1  0
 10 11  2  0
 11 12  1  0
 11 13  1  0
 13 14  1  0
 14 15  2  0
 15 16  1  0
 16 17  2  0
 17 18  1  0
 18 19  1  0
 17 20  1  0
 20 21  2  0
 13 22  1  0
 22 23  1  0
 22  9  2  0
 21 14  1  0
  1 24  1  0
  1 25  1  0
  1 26  1  0
  2 27  1  0
  2 28  1  0
  3 29  1  0
  3 30  1  0
  4 31  1  0
  4 32  1  0
  7 33  1  0
  7 34  1  0
  7 35  1  0
 10 36  1  0
 15 37  1  0
 16 38  1  0
 19 39  1  0
 19 40  1  0
 19 41  1  0
 20 42  1  0
 21 43  1  0
M  CHG  2  12  -1  23  -1
M  END
>  <UniqueID>  (10) 
10

>  <SMILES>  (10) 
CCCCN(C(C)=O)c1cc([O-])n(-c2ccc(OC)cc2)c1[O-]

>  <Energy>  (10) 
75.93444344708867

>  <Genealogy>  (10) 
CCCCN(C(C)=O)c1cc([O-])n(-c2ccc(OC)cc2)c1[O-] (protonated)
CCCCN(C(C)=O)c1cc([O-])n(-c2ccc(OC)cc2)c1[O-] (3D coordinates assigned)
CCCCN(C(C)=O)c1cc([O-])n(-c2ccc(OC)cc2)c1[O-] (optimized conformer: 75.93444344708867 kcal/mol)

>  <smiles>  (10) 
CCCCN(C(C)=O)c1cc(O)n(-c2ccc(OC)cc2)c1O

>  <score_type>  (10) 
oracle

>  <origin>  (10) 
adg

>  <m_score__min__energy>  (10) 
-9.6799999999999997

>  <m_primary>  (10) 
energy

$$$$
10:0
     RDKit          3D

 30 31  0  0  0  0  0  0  0  0999 V2000
   -8.9160   19.4120  -31.9300 C   0  0  0  0  0  0  0  0  0  0  0  0
   -7.5260   19.1270  -31.8940 O   0  0  0  0  0  0  0  0  0  0  0  0
   -6.9990   18.9320  -33.1550 N   0  0  2  0  0  0  0  0  0  0  0  0
   -6.8610   17.5020  -33.5060 C   0  0  0  0  0  0  0  0  0  0  0  0
   -5.7930   19.7140  -33.3680 C   0  0  0  0  0  0  0  0  0  0  0  0
   -4.9560   19.3510  -34.2410 O   0  0  0  0  0  0  0  0  0  0  0  0
   -5.4960   20.9360  -32.5650 C   0  0  0  0  0  0  0  0  0  0  0  0
   -6.4760   21.7450  -32.1190 C   0  0  0  0  0  0  0  0  0  0  0  0
   -6.1690   22.9540  -31.3350 C   0  0  0  0  0  0  0  0  0  0  0  0
   -7.1880   23.7520  -30.7970 C   0  0  0  0  0  0  0  0  0  0  0  0
   -6.8650   24.9230  -30.1020 C   0  0  0  0  0  0  0  0  0  0  0  0
   -5.5260   25.3040  -29.9550 C   0  0  0  0  0  0  0  0  0  0  0  0
   -4.5090   24.5110  -30.4980 C   0  0  0  0  0  0  0  0  0  0  0  0
   -4.8310   23.3340  -31.1790 C   0  0  0  0  0  0  0  0  0  0  0  0
   -3.8260   22.5390  -31.7310 O   0  0  0  0  0  0  0  0  0  0  0  0
   -4.0590   21.1870  -32.1380 C   0  0  0  0  0  0  0  0  0  0  0  0
   -9.3008   19.4909  -30.9025 H   0  0  0  0  0  0  0  0  0  0  0  0
   -9.0818   20.3628  -32.4577 H   0  0  0  0  0  0  0  0  0  0  0  0
   -9.4426   18.6031  -32.4577 H   0  0  0  0  0  0  0  0  0  0  0  0
   -7.7160   19.3000  -33.8230 H   0  0  0  0  0  0  0  0  0  0  0  0
   -6.8031   16.9025  -32.5856 H   0  0  0  0  0  0  0  0  0  0  0  0
   -7.7326   17.1837  -34.0968 H   0  0  0  0  0  0  0  0  0  0  0  0
   -5.9446   17.3562  -34.0968 H   0  0  0  0  0  0  0  0  0  0  0  0
   -7.5242   21.4987  -32.3441 H   0  0  0  0  0  0  0  0  0  0  0  0
   -8.2407   23.4581  -30.9210 H   0  0  0  0  0  0  0  0  0  0  0  0
   -7.6638   25.5444  -29.6710 H   0  0  0  0  0  0  0  0  0  0  0  0
   -5.2733   26.2270  -29.4125 H   0  0  0  0  0  0  0  0  0  0  0  0
   -3.4571   24.8138  -30.3889 H   0  0  0  0  0  0  0  0  0  0  0  0
   -3.3960   20.9564  -32.9849 H   0  0  0  0  0  0  0  0  0  0  0  0
   -3.8554   20.5419  -31.2706 H   0  0  0  0  0  0  0  0  0  0  0  0
  1  2  1  0
  2  3  1  0
  3  4  1  0
  3  5  1  0
  5  6  2  0
  5  7  1  0
  7  8  2  0
  8  9  1  0
  9 10  2  0
 10 11  1  0
 11 12  2  0
 12 13  1  0
 13 14  2  0
 14 15  1  0
 15 16  1  0
 16  7  1  0
 14  9  1  0
  1 17  1  0
  1 18  1  0
  1 19  1  0
  3 20  1  6
  4 21  1  0
  4 22  1  0
  4 23  1  0
  8 24  1  0
 10 25  1  0
 11 26  1  0
 12 27  1  0
 13 28  1  0
 16 29  1  0
 16 30  1  0
M  CHG  1   3   1
M  END
>  <UniqueID>  (11) 
11

>  <SMILES>  (11) 
CO[N@H+](C)C(=O)C1=Cc2ccccc2OC1

>  <Energy>  (11) 
47.768487405924944

>  <Genealogy>  (11) 
CO[NH+](C)C(=O)C1=Cc2ccccc2OC1 (protonated)
CO[N@H+](C)C(=O)C1=Cc2ccccc2OC1 (chirality)
CO[N@H+](C)C(=O)C1=Cc2ccccc2OC1 (3D coordinates assigned)
CO[N@H+](C)C(=O)C1=Cc2ccccc2OC1 (nonaromatic ring conformer: 47.768487405924944 kcal/mol)

>  <smiles>  (11) 
CON(C)C(=O)C1=Cc2ccccc2OC1

>  <score_type>  (11) 
oracle

>  <origin>  (11) 
adg

>  <m_score__min__energy>  (11) 
-6.3700000000000001

>  <m_primary>  (11) 
energy

$$$$
11:0
     RDKit          3D

 42 45  0  0  0  0  0  0  0  0999 V2000
   -0.8640   18.2660  -27.1210 C   0  0  0  0  0  0  0  0  0  0  0  0
   -1.5620   19.4660  -27.6760 C   0  0  0  0  0  0  0  0  0  0  0  0
   -2.5950   20.1560  -27.0720 C   0  0  0  0  0  0  0  0  0  0  0  0
   -2.8900   21.2200  -27.8440 N   0  0  0  0  0  0  0  0  0  0  0  0
   -3.8300   22.2910  -27.5270 C   0  0  0  0  0  0  0  0  0  0  0  0
   -3.2700   23.6110  -27.9790 C   0  0  0  0  0  0  0  0  0  0  0  0
   -3.5320   24.2880  -29.1770 C   0  0  0  0  0  0  0  0  0  0  0  0
   -4.5540   23.9450  -30.1820 C   0  0  0  0  0  0  0  0  0  0  0  0
   -5.8300   24.5290  -30.1460 C   0  0  0  0  0  0  0  0  0  0  0  0
   -6.7890   24.1830  -31.1030 C   0  0  0  0  0  0  0  0  0  0  0  0
   -6.4750   23.2660  -32.1100 C   0  0  0  0  0  0  0  0  0  0  0  0
   -5.1980   22.7010  -32.1660 C   0  0  0  0  0  0  0  0  0  0  0  0
   -4.2370   23.0450  -31.2110 C   0  0  0  0  0  0  0  0  0  0  0  0
   -2.6840   25.2890  -29.3330 O   0  0  0  0  0  0  0  0  0  0  0  0
   -1.8770   25.2940  -28.3010 C   0  0  0  0  0  0  0  0  0  0  0  0
   -0.8170   26.1640  -28.0600 C   0  0  0  0  0  0  0  0  0  0  0  0
   -0.0490   25.9590  -26.9000 C   0  0  0  0  0  0  0  0  0  0  0  0
   -0.3530   24.8970  -26.0190 C   0  0  0  0  0  0  0  0  0  0  0  0
   -1.4310   24.0340  -26.2890 C   0  0  0  0  0  0  0  0  0  0  0  0
   -2.1860   24.2740  -27.4390 C   0  0  0  0  0  0  0  0  0  0  0  0
   -2.0340   21.1810  -28.8860 C   0  0  0  0  0  0  0  0  0  0  0  0
   -1.2220   20.1080  -28.8160 N   0  0  0  0  0  0  0  0  0  0  0  0
   -0.1020   19.8110  -29.7030 C   0  0  0  0  0  0  0  0  0  0  0  0
   -0.8864   18.3045  -26.0219 H   0  0  0  0  0  0  0  0  0  0  0  0
   -1.3724   17.3537  -27.4664 H   0  0  0  0  0  0  0  0  0  0  0  0
    0.1803   18.2569  -27.4664 H   0  0  0  0  0  0  0  0  0  0  0  0
   -3.0894   19.8847  -26.1276 H   0  0  0  0  0  0  0  0  0  0  0  0
   -4.7840   22.1037  -28.0416 H   0  0  0  0  0  0  0  0  0  0  0  0
   -3.9945   22.3196  -26.4397 H   0  0  0  0  0  0  0  0  0  0  0  0
   -6.0762   25.2610  -29.3627 H   0  0  0  0  0  0  0  0  0  0  0  0
   -7.7919   24.6331  -31.0633 H   0  0  0  0  0  0  0  0  0  0  0  0
   -7.2326   22.9892  -32.8580 H   0  0  0  0  0  0  0  0  0  0  0  0
   -4.9488   21.9846  -32.9627 H   0  0  0  0  0  0  0  0  0  0  0  0
   -3.2287   22.6087  -31.2662 H   0  0  0  0  0  0  0  0  0  0  0  0
   -0.5877   26.9854  -28.7548 H   0  0  0  0  0  0  0  0  0  0  0  0
    0.7939   26.6297  -26.6770 H   0  0  0  0  0  0  0  0  0  0  0  0
    0.2569   24.7439  -25.1164 H   0  0  0  0  0  0  0  0  0  0  0  0
   -1.6712   23.1976  -25.6162 H   0  0  0  0  0  0  0  0  0  0  0  0
   -2.0029   21.9302  -29.6908 H   0  0  0  0  0  0  0  0  0  0  0  0
    0.7888   19.5748  -29.1024 H   0  0  0  0  0  0  0  0  0  0  0  0
   -0.3555   18.9490  -30.3376 H   0  0  0  0  0  0  0  0  0  0  0  0
    0.1050   20.6853  -30.3376 H   0  0  0  0  0  0  0  0  0  0  0  0
  1  2  1  0
  2  3  2  0
  3  4  1  0
  4  5  1  0
  5  6  1  0
  6  7  2  0
  7  8  1  0
  8  9  2  0
  9 10  1  0
 10 11  2  0
 11 12  1  0
 12 13  2  0
  7 14  1  0
 14 15  1  0
 15 16  2  0
 16 17  1  0
 17 18  2  0
 18 19  1  0
 19 20  2  0
  4 21  1  0
 21 22  2  0
 22 23  1  0
 22  2  1  0
 20  6  1  0
 13  8  1  0
 20 15  1  0
  1 24  1  0
  1 25  1  0
  1 26  1  0
  3 27  1  0
  5 28  1  0
  5 29  1  0
  9 30  1  0
 10 31  1  0
 11 32  1  0
 12 33  1  0
 13 34  1  0
 16 35  1  0
 17 36  1  0
 18 37  1  0
 19 38  1  0
 21 39  1  0
 23 40  1  0
 23 41  1  0
 23 42  1  0
M  CHG  1  22   1
M  END
>  <UniqueID>  (12) 
12

>  <SMILES>  (12) 
Cc1cn(Cc2c(-c3ccccc3)oc3ccccc23)c[n+]1C

>  <Energy>  (12) 
111.1628904459238

>  <Genealogy>  (12) 
Cc1cn(Cc2c(-c3ccccc3)oc3ccccc23)c[n+]1C (3D coordinates assigned)
Cc1cn(Cc2c(-c3ccccc3)oc3ccccc23)c[n+]1C (optimized conformer: 111.1628904459238 kcal/mol)

>  <smiles>  (12) 
Cc1cn(Cc2c(-c3ccccc3)oc3ccccc23)c[n+]1C

>  <score_type>  (12) 
oracle

>  <origin>  (12) 
adg

>  <m_score__min__energy>  (12) 
-7.0700000000000003

>  <m_primary>  (12) 
energy

$$$$
12:0
     RDKit          3D

 25 26  0  0  0  0  0  0  0  0999 V2000
   -4.5120   25.6820  -30.8990 O   0  0  0  0  0  0  0  0  0  0  0  0
   -4.0590   24.8620  -30.0580 C   0  0  0  0  0  0  0  0  0  0  0  0
   -4.9660   23.8330  -29.4460 C   0  0  0  0  0  0  0  0  0  0  0  0
   -6.2420   23.8530  -30.0800 O   0  0  0  0  0  0  0  0  0  0  0  0
   -6.4520   23.3470  -31.3660 C   0  0  0  0  0  0  0  0  0  0  0  0
   -5.7520   23.7460  -32.3370 O   0  0  0  0  0  0  0  0  0  0  0  0
   -7.4940   22.3420  -31.5910 C   0  0  0  0  0  0  0  0  0  0  0  0
   -8.8350   22.6010  -31.8020 C   0  0  0  0  0  0  0  0  0  0  0  0
   -9.4310   21.3680  -31.9640 C   0  0  0  0  0  0  0  0  0  0  0  0
   -8.4170   20.4410  -31.8410 C   0  0  0  0  0  0  0  0  0  0  0  0
   -8.6210   18.5490  -31.9700 Br  0  0  0  0  0  0  0  0  0  0  0  0
   -7.2740   21.0470  -31.6190 O   0  0  0  0  0  0  0  0  0  0  0  0
   -2.6730   24.9250  -29.7080 N   0  0  0  0  0  0  0  0  0  0  0  0
   -2.1820   24.7440  -28.3480 C   0  0  0  0  0  0  0  0  0  0  0  0
   -1.2160   25.8250  -27.9020 C   0  0  0  0  0  0  0  0  0  0  0  0
   -0.6960   24.4480  -28.2910 C   0  0  0  0  0  0  0  0  0  0  0  0
   -4.5169   22.8363  -29.5675 H   0  0  0  0  0  0  0  0  0  0  0  0
   -5.0955   24.0626  -28.3780 H   0  0  0  0  0  0  0  0  0  0  0  0
   -9.3248   23.5854  -31.8340 H   0  0  0  0  0  0  0  0  0  0  0  0
  -10.4956   21.1655  -32.1525 H   0  0  0  0  0  0  0  0  0  0  0  0
   -3.0886   24.2895  -27.9219 H   0  0  0  0  0  0  0  0  0  0  0  0
   -1.0207   26.6908  -28.5517 H   0  0  0  0  0  0  0  0  0  0  0  0
   -1.1245   26.4701  -27.0158 H   0  0  0  0  0  0  0  0  0  0  0  0
   -0.1246   24.3183  -29.2220 H   0  0  0  0  0  0  0  0  0  0  0  0
   -0.0724   23.6848  -27.8025 H   0  0  0  0  0  0  0  0  0  0  0  0
  1  2  2  0
  2  3  1  0
  3  4  1  0
  4  5  1  0
  5  6  2  0
  5  7  1  0
  7  8  2  0
  8  9  1  0
  9 10  2  0
 10 11  1  0
 10 12  1  0
  2 13  1  0
 13 14  1  0
 14 15  1  0
 15 16  1  0
 12  7  1  0
 16 14  1  0
  3 17  1  0
  3 18  1  0
  8 19  1  0
  9 20  1  0
 14 21  1  0
 15 22  1  0
 15 23  1  0
 16 24  1  0
 16 25  1  0
M  CHG  1  13  -1
M  END
>  <UniqueID>  (13) 
13

>  <SMILES>  (13) 
O=C(COC(=O)c1ccc(Br)o1)[N-]C1CC1

>  <Energy>  (13) 
309.075566324507

>  <Genealogy>  (13) 
O=C(COC(=O)c1ccc(Br)o1)[N-]C1CC1 (protonated)
O=C(COC(=O)c1ccc(Br)o1)[N-]C1CC1 (3D coordinates assigned)
O=C(COC(=O)c1ccc(Br)o1)[N-]C1CC1 (nonaromatic ring conformer: 309.075566324507 kcal/mol)

>  <smiles>  (13) 
O=C(COC(=O)c1ccc(Br)o1)NC1CC1

>  <score_type>  (13) 
oracle

>  <origin>  (13) 
adg

>  <m_score__min__energy>  (13) 
-7.9199999999999999

>  <m_primary>  (13) 
energy

$$$$
13:0
     RDKit          3D

 37 39  0  0  0  0  0  0  0  0999 V2000
   -2.4610   19.1020  -26.6690 C   0  0  0  0  0  0  0  0  0  0  0  0
   -1.4650   19.9890  -27.4080 C   0  0  0  0  0  0  0  0  0  0  0  0
   -1.9990   21.3390  -27.5870 N   0  0  0  0  0  0  0  0  0  0  0  0
   -1.5880   22.4230  -26.7430 C   0  0  0  0  0  0  0  0  0  0  0  0
   -0.7600   22.2240  -25.8130 O   0  0  0  0  0  0  0  0  0  0  0  0
   -2.0980   23.8080  -26.9950 C   0  0  0  0  0  0  0  0  0  0  0  0
   -2.7270   23.8790  -28.3100 N   0  0  0  0  0  0  0  0  0  0  0  0
   -2.4720   24.8490  -29.3160 C   0  0  0  0  0  0  0  0  0  0  0  0
   -1.4510   25.5840  -29.3270 O   0  0  0  0  0  0  0  0  0  0  0  0
   -3.4880   24.9230  -30.3100 N   0  0  0  0  0  0  0  0  0  0  0  0
   -4.5220   23.9570  -29.9330 C   0  0  1  0  0  0  0  0  0  0  0  0
   -5.9040   24.6340  -29.7650 C   0  0  0  0  0  0  0  0  0  0  0  0
   -6.8920   23.8660  -30.6650 C   0  0  0  0  0  0  0  0  0  0  0  0
   -6.0430   22.8990  -31.4010 C   0  0  0  0  0  0  0  0  0  0  0  0
   -6.4630   22.0060  -32.3910 C   0  0  0  0  0  0  0  0  0  0  0  0
   -5.5170   21.1510  -32.9770 C   0  0  0  0  0  0  0  0  0  0  0  0
   -4.1720   21.1990  -32.5680 C   0  0  0  0  0  0  0  0  0  0  0  0
   -3.7700   22.1010  -31.5710 C   0  0  0  0  0  0  0  0  0  0  0  0
   -4.7300   22.9450  -31.0000 C   0  0  0  0  0  0  0  0  0  0  0  0
   -3.9960   23.3500  -28.6630 C   0  0  0  0  0  0  0  0  0  0  0  0
   -4.6020   22.4850  -27.9750 O   0  0  0  0  0  0  0  0  0  0  0  0
   -2.3251   19.2230  -25.5841 H   0  0  0  0  0  0  0  0  0  0  0  0
   -3.4855   19.3923  -26.9449 H   0  0  0  0  0  0  0  0  0  0  0  0
   -2.2909   18.0508  -26.9449 H   0  0  0  0  0  0  0  0  0  0  0  0
   -0.5327   20.0449  -26.8269 H   0  0  0  0  0  0  0  0  0  0  0  0
   -1.2749   19.5525  -28.3996 H   0  0  0  0  0  0  0  0  0  0  0  0
   -2.6880   21.5310  -28.3500 H   0  0  0  0  0  0  0  0  0  0  0  0
   -2.8372   24.0696  -26.2235 H   0  0  0  0  0  0  0  0  0  0  0  0
   -1.2552   24.5140  -26.9603 H   0  0  0  0  0  0  0  0  0  0  0  0
   -6.2272   24.5783  -28.7150 H   0  0  0  0  0  0  0  0  0  0  0  0
   -5.8587   25.6962  -30.0473 H   0  0  0  0  0  0  0  0  0  0  0  0
   -7.6442   23.3408  -30.0581 H   0  0  0  0  0  0  0  0  0  0  0  0
   -7.4508   24.5320  -31.3390 H   0  0  0  0  0  0  0  0  0  0  0  0
   -7.5167   21.9740  -32.7052 H   0  0  0  0  0  0  0  0  0  0  0  0
   -5.8280   20.4416  -33.7580 H   0  0  0  0  0  0  0  0  0  0  0  0
   -3.4335   20.5278  -33.0308 H   0  0  0  0  0  0  0  0  0  0  0  0
   -2.7205   22.1441  -31.2443 H   0  0  0  0  0  0  0  0  0  0  0  0
  1  2  1  0
  2  3  1  0
  3  4  1  0
  4  5  2  0
  4  6  1  0
  6  7  1  0
  7  8  1  0
  8  9  2  0
  8 10  1  0
 11 10  1  6
 11 12  1  0
 12 13  1  0
 13 14  1  0
 14 15  2  0
 15 16  1  0
 16 17  2  0
 17 18  1  0
 18 19  2  0
 11 20  1  0
 20 21  2  0
 20  7  1  0
 19 11  1  0
 19 14  1  0
  1 22  1  0
  1 23  1  0
  1 24  1  0
  2 25  1  0
  2 26  1  0
  3 27  1  0
  6 28  1  0
  6 29  1  0
 12 30  1  0
 12 31  1  0
 13 32  1  0
 13 33  1  0
 15 34  1  0
 16 35  1  0
 17 36  1  0
 18 37  1  0
M  CHG  1  10  -1
M  END
>  <UniqueID>  (14) 
14

>  <SMILES>  (14) 
CCNC(=O)CN1C(=O)[N-][C@]2(CCc3ccccc32)C1=O

>  <Energy>  (14) 
59.3186016756514

>  <Genealogy>  (14) 
CCNC(=O)CN1C(=O)[N-]C2(CCc3ccccc32)C1=O (protonated)
CCNC(=O)CN1C(=O)[N-][C@]2(CCc3ccccc32)C1=O (chirality)
CCNC(=O)CN1C(=O)[N-][C@]2(CCc3ccccc32)C1=O (3D coordinates assigned)
CCNC(=O)CN1C(=O)[N-][C@]2(CCc3ccccc32)C1=O (nonaromatic ring conformer: 59.3186016756514 kcal/mol)

>  <smiles>  (14) 
CCNC(=O)CN1C(=O)NC2(CCc3ccccc32)C1=O

>  <score_type>  (14) 
oracle

>  <origin>  (14) 
adg

>  <m_score__min__energy>  (14) 
-8.4499999999999993

>  <m_primary>  (14) 
energy

$$$$
14:0
     RDKit          3D

 53 55  0  0  0  0  0  0  0  0999 V2000
   -3.6600   19.1200  -33.8350 C   0  0  0  0  0  0  0  0  0  0  0  0
   -3.9340   17.8330  -34.6040 C   0  0  0  0  0  0  0  0  0  0  0  0
   -5.3420   17.7770  -35.0030 N   0  0  0  0  0  0  0  0  0  0  0  0
   -6.2950   17.1370  -33.7000 S   0  0  0  0  0  0  0  0  0  0  0  0
   -7.2390   16.0900  -34.2260 O   0  0  0  0  0  0  0  0  0  0  0  0
   -5.3880   16.4960  -32.6880 O   0  0  0  0  0  0  0  0  0  0  0  0
   -7.1960   18.4350  -32.9180 C   0  0  0  0  0  0  0  0  0  0  0  0
   -8.3990   18.1720  -32.2540 C   0  0  0  0  0  0  0  0  0  0  0  0
   -9.1100   19.2130  -31.6590 C   0  0  0  0  0  0  0  0  0  0  0  0
   -8.6280   20.5240  -31.7230 C   0  0  0  0  0  0  0  0  0  0  0  0
   -7.4150   20.8070  -32.3850 C   0  0  0  0  0  0  0  0  0  0  0  0
   -6.8770   22.1450  -32.4930 N   0  0  0  0  0  0  0  0  0  0  0  0
   -6.0670   22.8650  -31.4990 C   0  0  0  0  0  0  0  0  0  0  0  0
   -4.6340   22.2990  -31.3980 C   0  0  0  0  0  0  0  0  0  0  0  0
   -3.5900   23.4060  -31.1710 C   0  0  0  0  0  0  0  0  0  0  0  0
   -4.0510   24.4340  -30.2070 N   0  0  0  0  0  0  0  0  0  0  0  0
   -4.1220   23.9390  -28.8140 C   0  0  0  0  0  0  0  0  0  0  0  0
   -3.0420   24.5520  -27.9590 C   0  0  0  0  0  0  0  0  0  0  0  0
   -1.7640   24.7760  -28.4960 C   0  0  0  0  0  0  0  0  0  0  0  0
   -0.7540   25.3280  -27.7020 C   0  0  0  0  0  0  0  0  0  0  0  0
   -1.0120   25.6570  -26.3680 C   0  0  0  0  0  0  0  0  0  0  0  0
   -2.2800   25.4330  -25.8260 C   0  0  0  0  0  0  0  0  0  0  0  0
   -3.2930   24.8820  -26.6170 C   0  0  0  0  0  0  0  0  0  0  0  0
   -5.3050   25.1200  -30.6260 C   0  0  0  0  0  0  0  0  0  0  0  0
   -6.1000   24.3860  -31.7260 C   0  0  0  0  0  0  0  0  0  0  0  0
   -6.7140   19.7490  -32.9870 C   0  0  0  0  0  0  0  0  0  0  0  0
   -3.7030   18.9178  -32.7546 H   0  0  0  0  0  0  0  0  0  0  0  0
   -2.6611   19.4985  -34.0977 H   0  0  0  0  0  0  0  0  0  0  0  0
   -4.4181   19.8726  -34.0977 H   0  0  0  0  0  0  0  0  0  0  0  0
   -3.2996   17.8034  -35.5021 H   0  0  0  0  0  0  0  0  0  0  0  0
   -3.7076   16.9718  -33.9582 H   0  0  0  0  0  0  0  0  0  0  0  0
   -5.6750   18.7560  -35.1640 H   0  0  0  0  0  0  0  0  0  0  0  0
   -8.7841   17.1430  -32.2014 H   0  0  0  0  0  0  0  0  0  0  0  0
  -10.0548   19.0021  -31.1366 H   0  0  0  0  0  0  0  0  0  0  0  0
   -9.1982   21.3396  -31.2543 H   0  0  0  0  0  0  0  0  0  0  0  0
   -7.0010   22.6320  -33.4100 H   0  0  0  0  0  0  0  0  0  0  0  0
   -6.5286   22.6929  -30.5155 H   0  0  0  0  0  0  0  0  0  0  0  0
   -4.5902   21.5920  -30.5564 H   0  0  0  0  0  0  0  0  0  0  0  0
   -4.3984   21.8008  -32.3500 H   0  0  0  0  0  0  0  0  0  0  0  0
   -2.6684   22.9473  -30.7833 H   0  0  0  0  0  0  0  0  0  0  0  0
   -3.4188   23.9061  -32.1357 H   0  0  0  0  0  0  0  0  0  0  0  0
   -5.1039   24.1981  -28.3913 H   0  0  0  0  0  0  0  0  0  0  0  0
   -3.9786   22.8484  -28.8254 H   0  0  0  0  0  0  0  0  0  0  0  0
   -1.5567   24.5164  -29.5446 H   0  0  0  0  0  0  0  0  0  0  0  0
    0.2450   25.5036  -28.1277 H   0  0  0  0  0  0  0  0  0  0  0  0
   -0.2166   26.0922  -25.7451 H   0  0  0  0  0  0  0  0  0  0  0  0
   -2.4818   25.6904  -24.7757 H   0  0  0  0  0  0  0  0  0  0  0  0
   -4.2900   24.7064  -26.1867 H   0  0  0  0  0  0  0  0  0  0  0  0
   -5.9531   25.2204  -29.7429 H   0  0  0  0  0  0  0  0  0  0  0  0
   -5.0041   26.0887  -31.0516 H   0  0  0  0  0  0  0  0  0  0  0  0
   -7.1443   24.7311  -31.7077 H   0  0  0  0  0  0  0  0  0  0  0  0
   -5.6413   24.6077  -32.7009 H   0  0  0  0  0  0  0  0  0  0  0  0
   -5.7739   19.9548  -33.5198 H   0  0  0  0  0  0  0  0  0  0  0  0
  1  2  1  0
  2  3  1  0
  3  4  1  0
  4  5  2  0
  4  6  2  0
  4  7  1  0
  7  8  2  0
  8  9  1  0
  9 10  2  0
 10 11  1  0
 11 12  1  0
 12 13  1  0
 13 14  1  0
 14 15  1  0
 15 16  1  0
 16 17  1  0
 17 18  1  0
 18 19  2  0
 19 20  1  0
 20 21  2  0
 21 22  1  0
 22 23  2  0
 16 24  1  0
 24 25  1  0
 11 26  2  0
 26  7  1  0
 25 13  1  0
 23 18  1  0
  1 27  1  0
  1 28  1  0
  1 29  1  0
  2 30  1  0
  2 31  1  0
  3 32  1  0
  8 33  1  0
  9 34  1  0
 10 35  1  0
 12 36  1  0
 13 37  1  0
 14 38  1  0
 14 39  1  0
 15 40  1  0
 15 41  1  0
 17 42  1  0
 17 43  1  0
 19 44  1  0
 20 45  1  0
 21 46  1  0
 22 47  1  0
 23 48  1  0
 24 49  1  0
 24 50  1  0
 25 51  1  0
 25 52  1  0
 26 53  1  0
M  END
>  <UniqueID>  (15) 
15

>  <SMILES>  (15) 
CCNS(=O)(=O)c1cccc(NC2CCN(Cc3ccccc3)CC2)c1

>  <Energy>  (15) 
61.35831730812669

>  <Genealogy>  (15) 
CCNS(=O)(=O)c1cccc(NC2CCN(Cc3ccccc3)CC2)c1 (3D coordinates assigned)
CCNS(=O)(=O)c1cccc(NC2CCN(Cc3ccccc3)CC2)c1 (nonaromatic ring conformer: 61.35831730812669 kcal/mol)

>  <smiles>  (15) 
CCNS(=O)(=O)c1cccc(NC2CCN(Cc3ccccc3)CC2)c1

>  <score_type>  (15) 
oracle

>  <origin>  (15) 
adg

>  <m_score__min__energy>  (15) 
-9.5899999999999999

>  <m_primary>  (15) 
energy

$$$$
15:0
     RDKit          3D

 50 50  0  0  0  0  0  0  0  0999 V2000
   -1.5960   21.1380  -32.7290 C   0  0  0  0  0  0  0  0  0  0  0  0
   -2.4560   20.4320  -33.7780 C   0  0  0  0  0  0  0  0  0  0  0  0
   -3.4510   19.4410  -33.1570 C   0  0  0  0  0  0  0  0  0  0  0  0
   -4.1180   18.5360  -34.2080 C   0  0  0  0  0  0  0  0  0  0  0  0
   -5.6330   18.8030  -34.3270 C   0  0  0  0  0  0  0  0  0  0  0  0
   -6.5010   17.6160  -33.8760 C   0  0  0  0  0  0  0  0  0  0  0  0
   -7.4440   17.9700  -32.7090 C   0  0  0  0  0  0  0  0  0  0  0  0
   -8.3910   19.0390  -33.0740 N   0  0  0  0  0  0  0  0  0  0  0  0
   -8.8150   19.8520  -31.9080 C   0  0  0  0  0  0  0  0  0  0  0  0
   -8.8480   21.3570  -32.2240 C   0  0  0  0  0  0  0  0  0  0  0  0
   -7.5230   22.0160  -31.9320 C   0  0  0  0  0  0  0  0  0  0  0  0
   -6.3280   21.2920  -32.0440 C   0  0  0  0  0  0  0  0  0  0  0  0
   -5.1090   21.8880  -31.7220 C   0  0  0  0  0  0  0  0  0  0  0  0
   -5.0620   23.2230  -31.2780 C   0  0  0  0  0  0  0  0  0  0  0  0
   -3.8550   23.8540  -30.9360 O   0  0  0  0  0  0  0  0  0  0  0  0
   -2.9070   23.3320  -30.0120 C   0  0  0  0  0  0  0  0  0  0  0  0
   -6.2540   23.9560  -31.1640 C   0  0  0  0  0  0  0  0  0  0  0  0
   -6.1790   25.2830  -30.7110 O   0  0  0  0  0  0  0  0  0  0  0  0
   -6.2300   25.6720  -29.3420 C   0  0  0  0  0  0  0  0  0  0  0  0
   -7.4800   23.3500  -31.4990 C   0  0  0  0  0  0  0  0  0  0  0  0
   -1.9397   20.8559  -31.7229 H   0  0  0  0  0  0  0  0  0  0  0  0
   -0.5450   20.8388  -32.8548 H   0  0  0  0  0  0  0  0  0  0  0  0
   -1.6847   22.2272  -32.8548 H   0  0  0  0  0  0  0  0  0  0  0  0
   -3.0195   21.1911  -34.3403 H   0  0  0  0  0  0  0  0  0  0  0  0
   -1.7810   19.8603  -34.4319 H   0  0  0  0  0  0  0  0  0  0  0  0
   -2.9137   18.8072  -32.4362 H   0  0  0  0  0  0  0  0  0  0  0  0
   -4.2444   20.0265  -32.6694 H   0  0  0  0  0  0  0  0  0  0  0  0
   -3.6475   18.7208  -35.1850 H   0  0  0  0  0  0  0  0  0  0  0  0
   -3.9822   17.4916  -33.8906 H   0  0  0  0  0  0  0  0  0  0  0  0
   -5.8833   19.6743  -33.7039 H   0  0  0  0  0  0  0  0  0  0  0  0
   -5.8490   18.9765  -35.3915 H   0  0  0  0  0  0  0  0  0  0  0  0
   -7.1092   17.2820  -34.7295 H   0  0  0  0  0  0  0  0  0  0  0  0
   -5.8216   16.8263  -33.5228 H   0  0  0  0  0  0  0  0  0  0  0  0
   -8.0128   17.0720  -32.4262 H   0  0  0  0  0  0  0  0  0  0  0  0
   -6.8295   18.3298  -31.8706 H   0  0  0  0  0  0  0  0  0  0  0  0
   -7.9770   19.6230  -33.8360 H   0  0  0  0  0  0  0  0  0  0  0  0
   -9.2420   18.5850  -33.4830 H   0  0  0  0  0  0  0  0  0  0  0  0
   -9.8224   19.5330  -31.6024 H   0  0  0  0  0  0  0  0  0  0  0  0
   -8.0811   19.6939  -31.1040 H   0  0  0  0  0  0  0  0  0  0  0  0
   -9.0869   21.4928  -33.2891 H   0  0  0  0  0  0  0  0  0  0  0  0
   -9.6125   21.8252  -31.5865 H   0  0  0  0  0  0  0  0  0  0  0  0
   -6.3519   20.2474  -32.3879 H   0  0  0  0  0  0  0  0  0  0  0  0
   -4.1774   21.3107  -31.8157 H   0  0  0  0  0  0  0  0  0  0  0  0
   -3.2526   23.5223  -28.9852 H   0  0  0  0  0  0  0  0  0  0  0  0
   -2.8010   22.2483  -30.1683 H   0  0  0  0  0  0  0  0  0  0  0  0
   -1.9346   23.8218  -30.1683 H   0  0  0  0  0  0  0  0  0  0  0  0
   -6.1135   24.7837  -28.7038 H   0  0  0  0  0  0  0  0  0  0  0  0
   -5.4174   26.3832  -29.1324 H   0  0  0  0  0  0  0  0  0  0  0  0
   -7.1985   26.1497  -29.1324 H   0  0  0  0  0  0  0  0  0  0  0  0
   -8.4128   23.9277  -31.4205 H   0  0  0  0  0  0  0  0  0  0  0  0
  1  2  1  0
  2  3  1  0
  3  4  1  0
  4  5  1  0
  5  6  1  0
  6  7  1  0
  7  8  1  0
  8  9  1  0
  9 10  1  0
 10 11  1  0
 11 12  2  0
 12 13  1  0
 13 14  2  0
 14 15  1  0
 15 16  1  0
 14 17  1  0
 17 18  1  0
 18 19  1  0
 17 20  2  0
 20 11  1  0
  1 21  1  0
  1 22  1  0
  1 23  1  0
  2 24  1  0
  2 25  1  0
  3 26  1  0
  3 27  1  0
  4 28  1  0
  4 29  1  0
  5 30  1  0
  5 31  1  0
  6 32  1  0
  6 33  1  0
  7 34  1  0
  7 35  1  0
  8 36  1  0
  8 37  1  0
  9 38  1  0
  9 39  1  0
 10 40  1  0
 10 41  1  0
 12 42  1  0
 13 43  1  0
 16 44  1  0
 16 45  1  0
 16 46  1  0
 19 47  1  0
 19 48  1  0
 19 49  1  0
 20 50  1  0
M  CHG  1   8   1
M  END
>  <UniqueID>  (16) 
16

>  <SMILES>  (16) 
CCCCCCC[NH2+]CCc1ccc(OC)c(OC)c1

>  <Energy>  (16) 
36.696739841632905

>  <Genealogy>  (16) 
CCCCCCC[NH2+]CCc1ccc(OC)c(OC)c1 (protonated)
CCCCCCC[NH2+]CCc1ccc(OC)c(OC)c1 (3D coordinates assigned)
CCCCCCC[NH2+]CCc1ccc(OC)c(OC)c1 (optimized conformer: 36.696739841632905 kcal/mol)

>  <smiles>  (16) 
CCCCCCCNCCc1ccc(OC)c(OC)c1

>  <score_type>  (16) 
oracle

>  <origin>  (16) 
adg

>  <m_score__min__energy>  (16) 
-6.8099999999999996

>  <m_primary>  (16) 
energy

$$$$
16:0
     RDKit          3D

 34 36  0  0  0  0  0  0  0  0999 V2000
   -7.6800   21.9270  -31.8500 O   0  0  0  0  0  0  0  0  0  0  0  0
   -6.4690   21.9990  -32.1930 C   0  0  0  0  0  0  0  0  0  0  0  0
   -5.7210   23.1980  -31.9330 N   0  0  0  0  0  0  0  0  0  0  0  0
   -6.1860   24.2380  -31.0080 C   0  0  2  0  0  0  0  0  0  0  0  0
   -5.3690   25.5230  -31.2130 C   0  0  0  0  0  0  0  0  0  0  0  0
   -4.0070   25.3230  -30.8330 O   0  0  0  0  0  0  0  0  0  0  0  0
   -3.6460   24.5340  -29.7340 C   0  0  0  0  0  0  0  0  0  0  0  0
   -2.3530   24.5270  -29.3130 N   0  0  0  0  0  0  0  0  0  0  0  0
   -1.9510   23.7820  -28.2480 C   0  0  0  0  0  0  0  0  0  0  0  0
   -2.8770   23.0050  -27.5490 C   0  0  0  0  0  0  0  0  0  0  0  0
   -4.2100   22.9900  -27.9620 C   0  0  0  0  0  0  0  0  0  0  0  0
   -4.6060   23.7370  -29.0820 C   0  0  0  0  0  0  0  0  0  0  0  0
   -6.0540   23.7730  -29.5360 C   0  0  2  0  0  0  0  0  0  0  0  0
   -6.7010   22.5380  -29.3420 O   0  0  0  0  0  0  0  0  0  0  0  0
   -5.8450   20.8490  -32.8880 C   0  0  0  0  0  0  0  0  0  0  0  0
   -6.6650   19.8490  -33.4420 C   0  0  0  0  0  0  0  0  0  0  0  0
   -6.1000   18.7580  -34.1060 C   0  0  0  0  0  0  0  0  0  0  0  0
   -4.7140   18.6450  -34.2160 C   0  0  0  0  0  0  0  0  0  0  0  0
   -3.8850   19.6210  -33.6550 C   0  0  0  0  0  0  0  0  0  0  0  0
   -2.1410   19.4530  -33.7800 Cl  0  0  0  0  0  0  0  0  0  0  0  0
   -4.4440   20.7210  -32.9870 C   0  0  0  0  0  0  0  0  0  0  0  0
   -3.6190   21.6250  -32.3990 F   0  0  0  0  0  0  0  0  0  0  0  0
   -4.7770   23.3040  -32.3690 H   0  0  0  0  0  0  0  0  0  0  0  0
   -7.2475   24.4341  -31.2198 H   0  0  0  0  0  0  0  0  0  0  0  0
   -5.4091   25.8106  -32.2740 H   0  0  0  0  0  0  0  0  0  0  0  0
   -5.7976   26.3178  -30.5849 H   0  0  0  0  0  0  0  0  0  0  0  0
   -0.8958   23.7917  -27.9373 H   0  0  0  0  0  0  0  0  0  0  0  0
   -2.5586   22.4099  -26.6804 H   0  0  0  0  0  0  0  0  0  0  0  0
   -4.9503   22.3926  -27.4096 H   0  0  0  0  0  0  0  0  0  0  0  0
   -6.5597   24.5159  -28.9016 H   0  0  0  0  0  0  0  0  0  0  0  0
   -7.5340   22.5420  -29.8810 H   0  0  0  0  0  0  0  0  0  0  0  0
   -7.7585   19.9270  -33.3516 H   0  0  0  0  0  0  0  0  0  0  0  0
   -6.7497   17.9857  -34.5435 H   0  0  0  0  0  0  0  0  0  0  0  0
   -4.2729   17.7871  -34.7447 H   0  0  0  0  0  0  0  0  0  0  0  0
  1  2  2  0
  2  3  1  0
  3  4  1  0
  4  5  1  0
  5  6  1  0
  6  7  1  0
  7  8  2  0
  8  9  1  0
  9 10  2  0
 10 11  1  0
 11 12  2  0
 12 13  1  0
 13 14  1  0
  2 15  1  0
 15 16  2  0
 16 17  1  0
 17 18  2  0
 18 19  1  0
 19 20  1  0
 19 21  2  0
 21 22  1  0
 13  4  1  0
 21 15  1  0
 12  7  1  0
  3 23  1  0
  4 24  1  6
  5 25  1  0
  5 26  1  0
  9 27  1  0
 10 28  1  0
 11 29  1  0
 13 30  1  1
 14 31  1  0
 16 32  1  0
 17 33  1  0
 18 34  1  0
M  END
>  <UniqueID>  (17) 
17

>  <SMILES>  (17) 
O=C(N[C@@H]1COc2ncccc2[C@@H]1O)c1cccc(Cl)c1F

>  <Energy>  (17) 
42.806369313679

>  <Genealogy>  (17) 
O=C(N[C@@H]1COc2ncccc2[C@@H]1O)c1cccc(Cl)c1F (chirality)
O=C(N[C@@H]1COc2ncccc2[C@@H]1O)c1cccc(Cl)c1F (3D coordinates assigned)
O=C(N[C@@H]1COc2ncccc2[C@@H]1O)c1cccc(Cl)c1F (nonaromatic ring conformer: 42.806369313679 kcal/mol)

>  <smiles>  (17) 
O=C(NC1COc2ncccc2C1O)c1cccc(Cl)c1F

>  <score_type>  (17) 
oracle

>  <origin>  (17) 
adg

>  <m_score__min__energy>  (17) 
-7.29

>  <m_primary>  (17) 
energy

$$$$
17:0
     RDKit          3D

 56 58  0  0  0  0  0  0  0  0999 V2000
   -7.1020   23.7800  -30.6830 C   0  0  0  0  0  0  0  0  0  0  0  0
   -7.7410   23.3360  -31.9950 C   0  0  0  0  0  0  0  0  0  0  0  0
   -7.0820   22.1830  -32.5170 O   0  0  0  0  0  0  0  0  0  0  0  0
   -7.5270   20.8550  -32.4060 C   0  0  0  0  0  0  0  0  0  0  0  0
   -8.7160   20.5270  -31.7230 C   0  0  0  0  0  0  0  0  0  0  0  0
   -9.1080   19.1950  -31.5810 C   0  0  0  0  0  0  0  0  0  0  0  0
   -8.3210   18.1740  -32.1050 C   0  0  0  0  0  0  0  0  0  0  0  0
   -7.1430   18.4820  -32.7870 C   0  0  0  0  0  0  0  0  0  0  0  0
   -6.7460   19.8200  -32.9700 C   0  0  0  0  0  0  0  0  0  0  0  0
   -5.4630   20.1090  -33.7350 C   0  0  0  0  0  0  0  0  0  0  0  0
   -4.3140   20.4840  -32.8780 N   0  0  0  0  0  0  0  0  0  0  0  0
   -4.4100   20.0360  -31.4690 C   0  0  0  0  0  0  0  0  0  0  0  0
   -4.6060   21.2180  -30.5120 C   0  0  0  0  0  0  0  0  0  0  0  0
   -3.4640   22.1640  -30.5890 N   0  0  0  0  0  0  0  0  0  0  0  0
   -3.8720   23.4680  -30.0980 C   0  0  0  0  0  0  0  0  0  0  0  0
   -3.8600   24.4380  -30.8440 O   0  0  0  0  0  0  0  0  0  0  0  0
   -4.2970   23.6590  -28.6650 C   0  0  0  0  0  0  0  0  0  0  0  0
   -3.0840   23.7050  -27.7730 C   0  0  0  0  0  0  0  0  0  0  0  0
   -2.7600   24.9040  -27.1170 C   0  0  0  0  0  0  0  0  0  0  0  0
   -1.6630   24.9640  -26.2570 C   0  0  0  0  0  0  0  0  0  0  0  0
   -0.8840   23.8280  -26.0340 C   0  0  0  0  0  0  0  0  0  0  0  0
   -1.2020   22.6260  -26.6680 C   0  0  0  0  0  0  0  0  0  0  0  0
   -2.3090   22.5480  -27.5380 C   0  0  0  0  0  0  0  0  0  0  0  0
   -2.6640   21.3480  -28.1760 O   0  0  0  0  0  0  0  0  0  0  0  0
   -2.7340   20.0790  -27.5310 C   0  0  0  0  0  0  0  0  0  0  0  0
   -2.8580   22.2710  -31.9460 C   0  0  0  0  0  0  0  0  0  0  0  0
   -3.8450   21.8790  -33.0550 C   0  0  0  0  0  0  0  0  0  0  0  0
   -7.6809   23.3777  -29.8386 H   0  0  0  0  0  0  0  0  0  0  0  0
   -6.0696   23.4037  -30.6321 H   0  0  0  0  0  0  0  0  0  0  0  0
   -7.0946   24.8788  -30.6321 H   0  0  0  0  0  0  0  0  0  0  0  0
   -8.7997   23.0962  -31.8171 H   0  0  0  0  0  0  0  0  0  0  0  0
   -7.6501   24.1538  -32.7250 H   0  0  0  0  0  0  0  0  0  0  0  0
   -9.3398   21.3274  -31.2986 H   0  0  0  0  0  0  0  0  0  0  0  0
  -10.0419   18.9516  -31.0532 H   0  0  0  0  0  0  0  0  0  0  0  0
   -8.6272   17.1247  -31.9817 H   0  0  0  0  0  0  0  0  0  0  0  0
   -6.5176   17.6699  -33.1861 H   0  0  0  0  0  0  0  0  0  0  0  0
   -5.1897   19.2073  -34.3026 H   0  0  0  0  0  0  0  0  0  0  0  0
   -5.6697   20.9746  -34.3816 H   0  0  0  0  0  0  0  0  0  0  0  0
   -5.2650   19.3511  -31.3698 H   0  0  0  0  0  0  0  0  0  0  0  0
   -3.4691   19.5316  -31.2039 H   0  0  0  0  0  0  0  0  0  0  0  0
   -5.5309   21.7489  -30.7816 H   0  0  0  0  0  0  0  0  0  0  0  0
   -4.6685   20.8290  -29.4850 H   0  0  0  0  0  0  0  0  0  0  0  0
   -2.7150   21.7910  -29.9550 H   0  0  0  0  0  0  0  0  0  0  0  0
   -4.8540   24.6030  -28.5724 H   0  0  0  0  0  0  0  0  0  0  0  0
   -4.9381   22.8181  -28.3619 H   0  0  0  0  0  0  0  0  0  0  0  0
   -3.3748   25.8010  -27.2823 H   0  0  0  0  0  0  0  0  0  0  0  0
   -1.4116   25.9092  -25.7535 H   0  0  0  0  0  0  0  0  0  0  0  0
   -0.0181   23.8799  -25.3576 H   0  0  0  0  0  0  0  0  0  0  0  0
   -0.5849   21.7334  -26.4878 H   0  0  0  0  0  0  0  0  0  0  0  0
   -2.7262   20.2212  -26.4403 H   0  0  0  0  0  0  0  0  0  0  0  0
   -3.6617   19.5677  -27.8275 H   0  0  0  0  0  0  0  0  0  0  0  0
   -1.8682   19.4687  -27.8275 H   0  0  0  0  0  0  0  0  0  0  0  0
   -2.5363   23.3102  -32.1093 H   0  0  0  0  0  0  0  0  0  0  0  0
   -2.0064   21.5762  -31.9911 H   0  0  0  0  0  0  0  0  0  0  0  0
   -4.7108   22.5567  -33.0224 H   0  0  0  0  0  0  0  0  0  0  0  0
   -3.3321   21.9566  -34.0250 H   0  0  0  0  0  0  0  0  0  0  0  0
  1  2  1  0
  2  3  1  0
  3  4  1  0
  4  5  2  0
  5  6  1  0
  6  7  2  0
  7  8  1  0
  8  9  2  0
  9 10  1  0
 10 11  1  0
 11 12  1  0
 12 13  1  0
 13 14  1  0
 14 15  1  0
 15 16  2  0
 15 17  1  0
 17 18  1  0
 18 19  2  0
 19 20  1  0
 20 21  2  0
 21 22  1  0
 22 23  2  0
 23 24  1  0
 24 25  1  0
 14 26  1  0
 26 27  1  0
  9  4  1  0
 27 11  1  0
 23 18  1  0
  1 28  1  0
  1 29  1  0
  1 30  1  0
  2 31  1  0
  2 32  1  0
  5 33  1  0
  6 34  1  0
  7 35  1  0
  8 36  1  0
 10 37  1  0
 10 38  1  0
 12 39  1  0
 12 40  1  0
 13 41  1  0
 13 42  1  0
 14 43  1  0
 17 44  1  0
 17 45  1  0
 19 46  1  0
 20 47  1  0
 21 48  1  0
 22 49  1  0
 25 50  1  0
 25 51  1  0
 25 52  1  0
 26 53  1  0
 26 54  1  0
 27 55  1  0
 27 56  1  0
M  CHG  1  14   1
M  END
>  <UniqueID>  (18) 
18

>  <SMILES>  (18) 
CCOc1ccccc1CN1CC[NH+](C(=O)Cc2ccccc2OC)CC1

>  <Energy>  (18) 
68.95405138733962

>  <Genealogy>  (18) 
CCOc1ccccc1CN1CC[NH+](C(=O)Cc2ccccc2OC)CC1 (protonated)
CCOc1ccccc1CN1CC[NH+](C(=O)Cc2ccccc2OC)CC1 (3D coordinates assigned)
CCOc1ccccc1CN1CC[NH+](C(=O)Cc2ccccc2OC)CC1 (nonaromatic ring conformer: 68.95405138733962 kcal/mol)

>  <smiles>  (18) 
CCOc1ccccc1CN1CCN(C(=O)Cc2ccccc2OC)CC1

>  <score_type>  (18) 
oracle

>  <origin>  (18) 
adg

>  <m_score__min__energy>  (18) 
-8.2100000000000009

>  <m_primary>  (18) 
energy

$$$$
18:0
     RDKit          3D

 62 67  0  0  0  0  0  0  0  0999 V2000
   -7.1510   23.7890  -31.5650 C   0  0  0  0  0  0  0  0  0  0  0  0
   -5.9710   22.8760  -31.5410 C   0  0  0  0  0  0  0  0  0  0  0  0
   -5.9290   21.7850  -32.3630 N   0  0  0  0  0  0  0  0  0  0  0  0
   -4.8550   20.9390  -32.4020 C   0  0  0  0  0  0  0  0  0  0  0  0
   -4.8740   19.7910  -33.2910 N   0  0  0  0  0  0  0  0  0  0  0  0
   -6.1900   19.3170  -33.7650 C   0  0  0  0  0  0  0  0  0  0  0  0
   -6.1140   17.9590  -34.4680 C   0  0  0  0  0  0  0  0  0  0  0  0
   -4.9960   17.8970  -35.3250 O   0  0  0  0  0  0  0  0  0  0  0  0
   -3.8270   17.8870  -34.5370 C   0  0  0  0  0  0  0  0  0  0  0  0
   -3.6240   19.2380  -33.8450 C   0  0  0  0  0  0  0  0  0  0  0  0
   -3.7750   21.2630  -31.5610 C   0  0  0  0  0  0  0  0  0  0  0  0
   -2.6000   20.6150  -31.4240 N   0  0  0  0  0  0  0  0  0  0  0  0
   -1.9310   21.3380  -30.4900 C   0  0  0  0  0  0  0  0  0  0  0  0
   -0.5340   21.0060  -30.0480 C   0  0  0  0  0  0  0  0  0  0  0  0
   -0.5290   19.9100  -29.0130 C   0  0  0  0  0  0  0  0  0  0  0  0
    0.3740   18.8380  -29.1140 C   0  0  0  0  0  0  0  0  0  0  0  0
    0.3740   17.8190  -28.1560 C   0  0  0  0  0  0  0  0  0  0  0  0
   -0.5380   17.8530  -27.0980 C   0  0  0  0  0  0  0  0  0  0  0  0
   -1.4560   18.9020  -27.0000 C   0  0  0  0  0  0  0  0  0  0  0  0
   -1.4580   19.9230  -27.9560 C   0  0  0  0  0  0  0  0  0  0  0  0
   -2.7110   22.4200  -30.0830 C   0  0  0  0  0  0  0  0  0  0  0  0
   -2.3900   23.4640  -29.0930 C   0  0  0  0  0  0  0  0  0  0  0  0
   -1.2020   24.1970  -29.1930 C   0  0  0  0  0  0  0  0  0  0  0  0
   -0.8830   25.1620  -28.2340 C   0  0  0  0  0  0  0  0  0  0  0  0
   -1.7450   25.4060  -27.1480 C   0  0  0  0  0  0  0  0  0  0  0  0
   -1.3960   26.4120  -26.1140 C   0  0  0  0  0  0  0  0  0  0  0  0
   -1.5300   26.2960  -24.7360 C   0  0  0  0  0  0  0  0  0  0  0  0
   -1.0890   27.4250  -24.1460 N   0  0  0  0  0  0  0  0  0  0  0  0
   -0.6710   28.2380  -25.1030 N   0  0  0  0  0  0  0  0  0  0  0  0
   -0.1610   29.5810  -24.8630 C   0  0  0  0  0  0  0  0  0  0  0  0
   -0.8510   27.6700  -26.3080 C   0  0  0  0  0  0  0  0  0  0  0  0
   -2.9350   24.6620  -27.0520 C   0  0  0  0  0  0  0  0  0  0  0  0
   -3.2510   23.6970  -28.0130 C   0  0  0  0  0  0  0  0  0  0  0  0
   -3.8530   22.3480  -30.7810 N   0  0  0  0  0  0  0  0  0  0  0  0
   -4.9060   23.1590  -30.7420 N   0  0  0  0  0  0  0  0  0  0  0  0
   -7.4541   24.0236  -30.5339 H   0  0  0  0  0  0  0  0  0  0  0  0
   -6.8848   24.7186  -32.0894 H   0  0  0  0  0  0  0  0  0  0  0  0
   -7.9840   23.2979  -32.0894 H   0  0  0  0  0  0  0  0  0  0  0  0
   -6.8637   19.2277  -32.9000 H   0  0  0  0  0  0  0  0  0  0  0  0
   -6.5611   20.0487  -34.4977 H   0  0  0  0  0  0  0  0  0  0  0  0
   -6.0314   17.1656  -33.7105 H   0  0  0  0  0  0  0  0  0  0  0  0
   -7.0251   17.8234  -35.0692 H   0  0  0  0  0  0  0  0  0  0  0  0
   -3.9141   17.1004  -33.7731 H   0  0  0  0  0  0  0  0  0  0  0  0
   -2.9637   17.6932  -35.1906 H   0  0  0  0  0  0  0  0  0  0  0  0
   -2.9035   19.1075  -33.0241 H   0  0  0  0  0  0  0  0  0  0  0  0
   -3.2564   19.9457  -34.6026 H   0  0  0  0  0  0  0  0  0  0  0  0
    0.0484   20.6762  -30.9209 H   0  0  0  0  0  0  0  0  0  0  0  0
   -0.0901   21.9070  -29.5995 H   0  0  0  0  0  0  0  0  0  0  0  0
    1.0855   18.8001  -29.9520 H   0  0  0  0  0  0  0  0  0  0  0  0
    1.0927   16.9900  -28.2355 H   0  0  0  0  0  0  0  0  0  0  0  0
   -0.5334   17.0539  -26.3421 H   0  0  0  0  0  0  0  0  0  0  0  0
   -2.1778   18.9248  -26.1702 H   0  0  0  0  0  0  0  0  0  0  0  0
   -2.1899   20.7408  -27.8812 H   0  0  0  0  0  0  0  0  0  0  0  0
   -0.5149   24.0123  -30.0319 H   0  0  0  0  0  0  0  0  0  0  0  0
    0.0504   25.7364  -28.3285 H   0  0  0  0  0  0  0  0  0  0  0  0
   -1.9333   25.4191  -24.2084 H   0  0  0  0  0  0  0  0  0  0  0  0
   -0.0933   29.7593  -23.7797 H   0  0  0  0  0  0  0  0  0  0  0  0
    0.8374   29.6801  -25.3140 H   0  0  0  0  0  0  0  0  0  0  0  0
   -0.8419   30.3178  -25.3140 H   0  0  0  0  0  0  0  0  0  0  0  0
   -0.6076   28.1254  -27.2793 H   0  0  0  0  0  0  0  0  0  0  0  0
   -3.6234   24.8412  -26.2129 H   0  0  0  0  0  0  0  0  0  0  0  0
   -4.1813   23.1173  -27.9204 H   0  0  0  0  0  0  0  0  0  0  0  0
  1  2  1  0
  2  3  1  0
  3  4  2  0
  4  5  1  0
  5  6  1  0
  6  7  1  0
  7  8  1  0
  8  9  1  0
  9 10  1  0
  4 11  1  0
 11 12  2  0
 12 13  1  0
 13 14  1  0
 14 15  1  0
 15 16  2  0
 16 17  1  0
 17 18  2  0
 18 19  1  0
 19 20  2  0
 13 21  2  0
 21 22  1  0
 22 23  2  0
 23 24  1  0
 24 25  2  0
 25 26  1  0
 26 27  1  0
 27 28  2  0
 28 29  1  0
 29 30  1  0
 29 31  1  0
 25 32  1  0
 32 33  2  0
 21 34  1  0
 34 35  1  0
 35  2  2  0
 10  5  1  0
 34 11  1  0
 20 15  1  0
 33 22  1  0
 31 26  2  0
  1 36  1  0
  1 37  1  0
  1 38  1  0
  6 39  1  0
  6 40  1  0
  7 41  1  0
  7 42  1  0
  9 43  1  0
  9 44  1  0
 10 45  1  0
 10 46  1  0
 14 47  1  0
 14 48  1  0
 16 49  1  0
 17 50  1  0
 18 51  1  0
 19 52  1  0
 20 53  1  0
 23 54  1  0
 24 55  1  0
 27 56  1  0
 30 57  1  0
 30 58  1  0
 30 59  1  0
 31 60  1  0
 32 61  1  0
 33 62  1  0
M  END
>  <UniqueID>  (19) 
19

>  <SMILES>  (19) 
Cc1nc(N2CCOCC2)c2nc(Cc3ccccc3)c(-c3ccc(-c4cnn(C)c4)cc3)n2n1

>  <Energy>  (19) 
146.28708077433728

>  <Genealogy>  (19) 
Cc1nc(N2CCOCC2)c2nc(Cc3ccccc3)c(-c3ccc(-c4cnn(C)c4)cc3)n2n1 (3D coordinates assigned)
Cc1nc(N2CCOCC2)c2nc(Cc3ccccc3)c(-c3ccc(-c4cnn(C)c4)cc3)n2n1 (nonaromatic ring conformer: 146.28708077433728 kcal/mol)

>  <smiles>  (19) 
Cc1nc(N2CCOCC2)c2nc(Cc3ccccc3)c(-c3ccc(-c4cnn(C)c4)cc3)n2n1

>  <score_type>  (19) 
oracle

>  <origin>  (19) 
adg

>  <m_score__min__energy>  (19) 
-9.4199999999999999

>  <m_primary>  (19) 
energy

$$$$
19:0
     RDKit          3D

 68 69  0  0  0  0  0  0  0  0999 V2000
   -3.9100   24.0600  -27.4160 C   0  0  0  0  0  0  0  0  0  0  0  0
   -3.0240   23.2400  -28.3540 C   0  0  0  0  0  0  0  0  0  0  0  0
   -3.1320   21.7270  -28.1050 C   0  0  0  0  0  0  0  0  0  0  0  0
   -1.9460   21.1770  -27.2920 C   0  0  0  0  0  0  0  0  0  0  0  0
   -2.1930   19.7520  -26.7720 C   0  0  0  0  0  0  0  0  0  0  0  0
   -1.2420   18.7210  -27.4030 C   0  0  0  0  0  0  0  0  0  0  0  0
   -0.0530   19.3680  -28.1320 C   0  0  0  0  0  0  0  0  0  0  0  0
   -0.1130   19.2430  -29.6710 C   0  0  0  0  0  0  0  0  0  0  0  0
   -0.5880   20.5380  -30.3560 C   0  0  0  0  0  0  0  0  0  0  0  0
   -0.9730   20.3610  -31.8410 C   0  0  0  0  0  0  0  0  0  0  0  0
   -1.6980   21.5420  -32.5550 C   0  0  2  0  0  0  0  0  0  0  0  0
   -2.7260   22.2580  -31.6460 C   0  0  0  0  0  0  0  0  0  0  0  0
   -3.8410   22.6850  -32.3770 O   0  0  0  0  0  0  0  0  0  0  0  0
   -2.2600   21.1420  -33.8680 N   0  0  0  0  0  0  0  0  0  0  0  0
   -2.5560   19.6980  -33.9320 C   0  0  0  0  0  0  0  0  0  0  0  0
   -3.9530   19.4030  -33.4650 C   0  0  0  0  0  0  0  0  0  0  0  0
   -4.4620   18.1690  -33.1200 C   0  0  0  0  0  0  0  0  0  0  0  0
   -5.6870   18.3580  -32.6960 O   0  0  0  0  0  0  0  0  0  0  0  0
   -5.9320   19.6490  -32.7570 C   0  0  0  0  0  0  0  0  0  0  0  0
   -7.2100   20.2740  -32.3390 C   0  0  0  0  0  0  0  0  0  0  0  0
   -8.4260   19.6700  -32.7100 C   0  0  0  0  0  0  0  0  0  0  0  0
   -9.6460   20.2460  -32.3530 C   0  0  0  0  0  0  0  0  0  0  0  0
   -9.6700   21.4320  -31.6210 C   0  0  0  0  0  0  0  0  0  0  0  0
   -8.4750   22.0420  -31.2340 C   0  0  0  0  0  0  0  0  0  0  0  0
   -7.2310   21.4730  -31.5860 C   0  0  0  0  0  0  0  0  0  0  0  0
   -6.0120   22.0560  -31.1920 O   0  0  0  0  0  0  0  0  0  0  0  0
   -5.8410   23.0300  -30.1610 C   0  0  0  0  0  0  0  0  0  0  0  0
   -5.9720   24.4400  -30.7270 C   0  0  0  0  0  0  0  0  0  0  0  0
   -4.8760   20.3510  -33.2240 N   0  0  0  0  0  0  0  0  0  0  0  0
   -3.6555   23.8245  -26.3721 H   0  0  0  0  0  0  0  0  0  0  0  0
   -3.7459   25.1319  -27.6005 H   0  0  0  0  0  0  0  0  0  0  0  0
   -4.9661   23.8136  -27.6005 H   0  0  0  0  0  0  0  0  0  0  0  0
   -3.3242   23.4476  -29.3917 H   0  0  0  0  0  0  0  0  0  0  0  0
   -1.9809   23.5330  -28.1643 H   0  0  0  0  0  0  0  0  0  0  0  0
   -4.0618   21.5259  -27.5526 H   0  0  0  0  0  0  0  0  0  0  0  0
   -3.1268   21.2260  -29.0843 H   0  0  0  0  0  0  0  0  0  0  0  0
   -1.0533   21.1672  -27.9346 H   0  0  0  0  0  0  0  0  0  0  0  0
   -1.8110   21.8308  -26.4178 H   0  0  0  0  0  0  0  0  0  0  0  0
   -2.0480   19.7444  -25.6816 H   0  0  0  0  0  0  0  0  0  0  0  0
   -3.2204   19.4700  -27.0457 H   0  0  0  0  0  0  0  0  0  0  0  0
   -0.8526   18.0698  -26.6066 H   0  0  0  0  0  0  0  0  0  0  0  0
   -1.8183   18.1559  -28.1504 H   0  0  0  0  0  0  0  0  0  0  0  0
   -0.0290   20.4368  -27.8729 H   0  0  0  0  0  0  0  0  0  0  0  0
    0.8498   18.8313  -27.8050 H   0  0  0  0  0  0  0  0  0  0  0  0
    0.8924   18.9967  -30.0432 H   0  0  0  0  0  0  0  0  0  0  0  0
   -0.8412   18.4544  -29.9115 H   0  0  0  0  0  0  0  0  0  0  0  0
   -1.4682   20.9131  -29.8133 H   0  0  0  0  0  0  0  0  0  0  0  0
    0.2585   21.2399  -30.3292 H   0  0  0  0  0  0  0  0  0  0  0  0
   -0.0455   20.1620  -32.3979 H   0  0  0  0  0  0  0  0  0  0  0  0
   -1.7123   19.5465  -31.8379 H   0  0  0  0  0  0  0  0  0  0  0  0
   -0.9262   22.2961  -32.7687 H   0  0  0  0  0  0  0  0  0  0  0  0
   -3.0571   21.5614  -30.8617 H   0  0  0  0  0  0  0  0  0  0  0  0
   -2.2421   23.1411  -31.2033 H   0  0  0  0  0  0  0  0  0  0  0  0
   -4.6080   22.1400  -32.0580 H   0  0  0  0  0  0  0  0  0  0  0  0
   -3.1530   21.6650  -34.0290 H   0  0  0  0  0  0  0  0  0  0  0  0
   -1.6000   21.3800  -34.6370 H   0  0  0  0  0  0  0  0  0  0  0  0
   -2.4467   19.3561  -34.9718 H   0  0  0  0  0  0  0  0  0  0  0  0
   -1.8519   19.1709  -33.2714 H   0  0  0  0  0  0  0  0  0  0  0  0
   -3.9370   17.2048  -33.1881 H   0  0  0  0  0  0  0  0  0  0  0  0
   -8.4146   18.7339  -33.2875 H   0  0  0  0  0  0  0  0  0  0  0  0
  -10.5892   19.7638  -32.6494 H   0  0  0  0  0  0  0  0  0  0  0  0
  -10.6327   21.8885  -31.3475 H   0  0  0  0  0  0  0  0  0  0  0  0
   -8.5027   22.9737  -30.6499 H   0  0  0  0  0  0  0  0  0  0  0  0
   -6.6095   22.8777  -29.3888 H   0  0  0  0  0  0  0  0  0  0  0  0
   -4.8369   22.9142  -29.7270 H   0  0  0  0  0  0  0  0  0  0  0  0
   -6.0391   25.1623  -29.9001 H   0  0  0  0  0  0  0  0  0  0  0  0
   -5.0914   24.6705  -31.3446 H   0  0  0  0  0  0  0  0  0  0  0  0
   -6.8800   24.5043  -31.3446 H   0  0  0  0  0  0  0  0  0  0  0  0
  1  2  1  0
  2  3  1  0
  3  4  1  0
  4  5  1  0
  5  6  1  0
  6  7  1  0
  7  8  1  0
  8  9  1  0
  9 10  1  0
 10 11  1  0
 11 12  1  0
 12 13  1  0
 11 14  1  0
 14 15  1  0
 15 16  1  0
 16 17  2  0
 17 18  1  0
 18 19  1  0
 19 20  1  0
 20 21  2  0
 21 22  1  0
 22 23  2  0
 23 24  1  0
 24 25  2  0
 25 26  1  0
 26 27  1  0
 27 28  1  0
 19 29  2  0
 29 16  1  0
 25 20  1  0
  1 30  1  0
  1 31  1  0
  1 32  1  0
  2 33  1  0
  2 34  1  0
  3 35  1  0
  3 36  1  0
  4 37  1  0
  4 38  1  0
  5 39  1  0
  5 40  1  0
  6 41  1  0
  6 42  1  0
  7 43  1  0
  7 44  1  0
  8 45  1  0
  8 46  1  0
  9 47  1  0
  9 48  1  0
 10 49  1  0
 10 50  1  0
 11 51  1  6
 12 52  1  0
 12 53  1  0
 13 54  1  0
 14 55  1  0
 14 56  1  0
 15 57  1  0
 15 58  1  0
 17 59  1  0
 21 60  1  0
 22 61  1  0
 23 62  1  0
 24 63  1  0
 27 64  1  0
 27 65  1  0
 28 66  1  0
 28 67  1  0
 28 68  1  0
M  CHG  1  14   1
M  END
>  <UniqueID>  (20) 
20

>  <SMILES>  (20) 
CCCCCCCCCC[C@H](CO)[NH2+]Cc1coc(-c2ccccc2OCC)n1

>  <Energy>  (20) 
86.83321729811911

>  <Genealogy>  (20) 
CCCCCCCCCCC(CO)[NH2+]Cc1coc(-c2ccccc2OCC)n1 (protonated)
CCCCCCCCCC[C@H](CO)[NH2+]Cc1coc(-c2ccccc2OCC)n1 (chirality)
CCCCCCCCCC[C@H](CO)[NH2+]Cc1coc(-c2ccccc2OCC)n1 (3D coordinates assigned)
CCCCCCCCCC[C@H](CO)[NH2+]Cc1coc(-c2ccccc2OCC)n1 (optimized conformer: 86.83321729811911 kcal/mol)

>  <smiles>  (20) 
CCCCCCCCCCC(CO)NCc1coc(-c2ccccc2OCC)n1

>  <score_type>  (20) 
oracle

>  <origin>  (20) 
adg

>  <m_score__min__energy>  (20) 
-7.6200000000000001

>  <m_primary>  (20) 
energy

$$$$
20:0
     RDKit          3D

 46 49  0  0  0  0  0  0  0  0999 V2000
    0.2340   22.4940  -35.3390 N   0  0  0  0  0  0  0  0  0  0  0  0
    0.2690   21.1120  -35.8060 C   0  0  0  0  0  0  0  0  0  0  0  0
   -0.0850   20.1570  -34.6560 C   0  0  0  0  0  0  0  0  0  0  0  0
   -0.5590   20.8740  -33.4600 N   0  0  0  0  0  0  0  0  0  0  0  0
   -1.9770   20.6890  -33.2560 C   0  0  0  0  0  0  0  0  0  0  0  0
   -2.6760   19.6930  -33.9610 C   0  0  0  0  0  0  0  0  0  0  0  0
   -4.0390   19.4900  -33.7330 C   0  0  0  0  0  0  0  0  0  0  0  0
   -4.7250   20.2740  -32.7940 C   0  0  0  0  0  0  0  0  0  0  0  0
   -6.1590   20.0360  -32.5300 C   0  0  0  0  0  0  0  0  0  0  0  0
   -6.8610   18.8230  -32.5820 C   0  0  0  0  0  0  0  0  0  0  0  0
   -6.3030   17.4700  -32.7900 C   0  0  0  0  0  0  0  0  0  0  0  0
   -5.5600   16.8630  -31.7650 C   0  0  0  0  0  0  0  0  0  0  0  0
   -5.0190   15.5860  -31.9450 C   0  0  0  0  0  0  0  0  0  0  0  0
   -5.2030   14.9100  -33.1540 C   0  0  0  0  0  0  0  0  0  0  0  0
   -4.4640   13.1660  -33.3970 Br  0  0  0  0  0  0  0  0  0  0  0  0
   -5.9210   15.5160  -34.1890 C   0  0  0  0  0  0  0  0  0  0  0  0
   -6.4620   16.7930  -34.0130 C   0  0  0  0  0  0  0  0  0  0  0  0
   -8.1520   19.0410  -32.4020 O   0  0  0  0  0  0  0  0  0  0  0  0
   -8.3240   20.3280  -32.2250 C   0  0  0  0  0  0  0  0  0  0  0  0
   -9.5260   20.9990  -32.0120 C   0  0  0  0  0  0  0  0  0  0  0  0
   -9.4820   22.4000  -31.8780 C   0  0  0  0  0  0  0  0  0  0  0  0
   -8.2520   23.0880  -31.9660 C   0  0  0  0  0  0  0  0  0  0  0  0
   -7.0540   22.3830  -32.1830 C   0  0  0  0  0  0  0  0  0  0  0  0
   -7.1270   20.9930  -32.2910 C   0  0  0  0  0  0  0  0  0  0  0  0
   -4.0340   21.2780  -32.0980 C   0  0  0  0  0  0  0  0  0  0  0  0
   -2.6700   21.4810  -32.3250 C   0  0  0  0  0  0  0  0  0  0  0  0
   -0.6090   22.9580  -35.7490 H   0  0  0  0  0  0  0  0  0  0  0  0
    1.0660   22.9860  -35.7380 H   0  0  0  0  0  0  0  0  0  0  0  0
   -0.4583   20.9850  -36.6214 H   0  0  0  0  0  0  0  0  0  0  0  0
    1.2814   20.8799  -36.1680 H   0  0  0  0  0  0  0  0  0  0  0  0
   -0.8767   19.4729  -34.9953 H   0  0  0  0  0  0  0  0  0  0  0  0
    0.8282   19.6092  -34.3802 H   0  0  0  0  0  0  0  0  0  0  0  0
   -0.3250   21.8920  -33.5380 H   0  0  0  0  0  0  0  0  0  0  0  0
   -0.0480   20.5060  -32.6240 H   0  0  0  0  0  0  0  0  0  0  0  0
   -2.1461   19.0700  -34.6965 H   0  0  0  0  0  0  0  0  0  0  0  0
   -4.5773   18.7110  -34.2929 H   0  0  0  0  0  0  0  0  0  0  0  0
   -5.4025   17.3948  -30.8151 H   0  0  0  0  0  0  0  0  0  0  0  0
   -4.4474   15.1127  -31.1331 H   0  0  0  0  0  0  0  0  0  0  0  0
   -6.0605   14.9873  -35.1434 H   0  0  0  0  0  0  0  0  0  0  0  0
   -7.0149   17.2710  -34.8351 H   0  0  0  0  0  0  0  0  0  0  0  0
  -10.4785   20.4522  -31.9505 H   0  0  0  0  0  0  0  0  0  0  0  0
  -10.4114   22.9619  -31.7037 H   0  0  0  0  0  0  0  0  0  0  0  0
   -8.2304   24.1831  -31.8642 H   0  0  0  0  0  0  0  0  0  0  0  0
   -6.0917   22.9095  -32.2649 H   0  0  0  0  0  0  0  0  0  0  0  0
   -4.5681   21.9075  -31.3710 H   0  0  0  0  0  0  0  0  0  0  0  0
   -2.1351   22.2664  -31.7709 H   0  0  0  0  0  0  0  0  0  0  0  0
  1  2  1  0
  2  3  1  0
  3  4  1  0
  4  5  1  0
  5  6  2  0
  6  7  1  0
  7  8  2  0
  8  9  1  0
  9 10  2  0
 10 11  1  0
 11 12  2  0
 12 13  1  0
 13 14  2  0
 14 15  1  0
 14 16  1  0
 16 17  2  0
 10 18  1  0
 18 19  1  0
 19 20  2  0
 20 21  1  0
 21 22  2  0
 22 23  1  0
 23 24  2  0
  8 25  1  0
 25 26  2  0
 26  5  1  0
 24  9  1  0
 17 11  1  0
 24 19  1  0
  1 27  1  0
  1 28  1  0
  2 29  1  0
  2 30  1  0
  3 31  1  0
  3 32  1  0
  4 33  1  0
  4 34  1  0
  6 35  1  0
  7 36  1  0
 12 37  1  0
 13 38  1  0
 16 39  1  0
 17 40  1  0
 20 41  1  0
 21 42  1  0
 22 43  1  0
 23 44  1  0
 25 45  1  0
 26 46  1  0
M  CHG  1   4   1
M  END
>  <UniqueID>  (21) 
21

>  <SMILES>  (21) 
NCC[NH2+]c1ccc(-c2c(-c3ccc(Br)cc3)oc3ccccc23)cc1

>  <Energy>  (21) 
90.31392169620712

>  <Genealogy>  (21) 
NCC[NH2+]c1ccc(-c2c(-c3ccc(Br)cc3)oc3ccccc23)cc1 (protonated)
NCC[NH2+]c1ccc(-c2c(-c3ccc(Br)cc3)oc3ccccc23)cc1 (3D coordinates assigned)
NCC[NH2+]c1ccc(-c2c(-c3ccc(Br)cc3)oc3ccccc23)cc1 (optimized conformer: 90.31392169620712 kcal/mol)

>  <smiles>  (21) 
NCCNc1ccc(-c2c(-c3ccc(Br)cc3)oc3ccccc23)cc1

>  <score_type>  (21) 
oracle

>  <origin>  (21) 
adg

>  <m_score__min__energy>  (21) 
-8.3200000000000003

>  <m_primary>  (21) 
energy

$$$$
21:0
     RDKit          3D

 44 47  0  0  0  0  0  0  0  0999 V2000
   -6.9180   13.6760  -34.5790 C   0  0  0  0  0  0  0  0  0  0  0  0
   -7.4930   14.9300  -34.2280 O   0  0  0  0  0  0  0  0  0  0  0  0
   -6.7530   16.0880  -33.9440 C   0  0  0  0  0  0  0  0  0  0  0  0
   -7.2190   17.0870  -33.0710 C   0  0  0  0  0  0  0  0  0  0  0  0
   -6.4440   18.2230  -32.8210 C   0  0  0  0  0  0  0  0  0  0  0  0
   -5.1940   18.3900  -33.4430 C   0  0  0  0  0  0  0  0  0  0  0  0
   -4.3820   19.6010  -33.1570 C   0  0  0  0  0  0  0  0  0  0  0  0
   -3.0380   19.7000  -33.5520 C   0  0  0  0  0  0  0  0  0  0  0  0
   -2.3050   20.8600  -33.2590 C   0  0  0  0  0  0  0  0  0  0  0  0
   -0.8780   20.9710  -33.6580 C   0  0  0  0  0  0  0  0  0  0  0  0
    0.0960   20.1260  -33.0970 C   0  0  0  0  0  0  0  0  0  0  0  0
    1.4320   20.2430  -33.4810 C   0  0  0  0  0  0  0  0  0  0  0  0
    1.7910   21.2040  -34.4260 C   0  0  0  0  0  0  0  0  0  0  0  0
    0.8430   22.0160  -34.9650 N   0  0  0  0  0  0  0  0  0  0  0  0
   -0.4650   21.9250  -34.6060 C   0  0  0  0  0  0  0  0  0  0  0  0
   -2.9400   21.9140  -32.5820 C   0  0  0  0  0  0  0  0  0  0  0  0
   -4.2930   21.8000  -32.2220 C   0  0  0  0  0  0  0  0  0  0  0  0
   -5.0060   22.8920  -31.5100 C   0  0  0  0  0  0  0  0  0  0  0  0
   -4.2720   23.8440  -30.7760 C   0  0  0  0  0  0  0  0  0  0  0  0
   -4.9280   24.8740  -30.0940 C   0  0  0  0  0  0  0  0  0  0  0  0
   -6.3210   24.9610  -30.1280 C   0  0  0  0  0  0  0  0  0  0  0  0
   -7.0620   24.0160  -30.8410 C   0  0  0  0  0  0  0  0  0  0  0  0
   -6.4130   22.9860  -31.5260 C   0  0  0  0  0  0  0  0  0  0  0  0
   -4.9610   20.6520  -32.5150 N   0  0  0  0  0  0  0  0  0  0  0  0
   -4.7290   17.3810  -34.3060 C   0  0  0  0  0  0  0  0  0  0  0  0
   -5.5040   16.2450  -34.5550 C   0  0  0  0  0  0  0  0  0  0  0  0
   -6.6633   13.1205  -33.6643 H   0  0  0  0  0  0  0  0  0  0  0  0
   -7.6396   13.0949  -35.1719 H   0  0  0  0  0  0  0  0  0  0  0  0
   -6.0068   13.8436  -35.1719 H   0  0  0  0  0  0  0  0  0  0  0  0
   -8.1981   16.9739  -32.5825 H   0  0  0  0  0  0  0  0  0  0  0  0
   -6.8158   18.9944  -32.1305 H   0  0  0  0  0  0  0  0  0  0  0  0
   -2.5601   18.8686  -34.0908 H   0  0  0  0  0  0  0  0  0  0  0  0
   -0.1965   19.3704  -32.3530 H   0  0  0  0  0  0  0  0  0  0  0  0
    2.1953   19.5834  -33.0425 H   0  0  0  0  0  0  0  0  0  0  0  0
    2.8418   21.3050  -34.7354 H   0  0  0  0  0  0  0  0  0  0  0  0
   -1.2048   22.6012  -35.0593 H   0  0  0  0  0  0  0  0  0  0  0  0
   -2.3789   22.8271  -32.3341 H   0  0  0  0  0  0  0  0  0  0  0  0
   -3.1747   23.7770  -30.7388 H   0  0  0  0  0  0  0  0  0  0  0  0
   -4.3452   25.6170  -29.5297 H   0  0  0  0  0  0  0  0  0  0  0  0
   -6.8347   25.7736  -29.5934 H   0  0  0  0  0  0  0  0  0  0  0  0
   -8.1597   24.0830  -30.8632 H   0  0  0  0  0  0  0  0  0  0  0  0
   -7.0036   22.2429  -32.0819 H   0  0  0  0  0  0  0  0  0  0  0  0
   -3.7465   17.4871  -34.7892 H   0  0  0  0  0  0  0  0  0  0  0  0
   -5.1290   15.4677  -35.2371 H   0  0  0  0  0  0  0  0  0  0  0  0
  1  2  1  0
  2  3  1  0
  3  4  2  0
  4  5  1  0
  5  6  2  0
  6  7  1  0
  7  8  2  0
  8  9  1  0
  9 10  1  0
 10 11  2  0
 11 12  1  0
 12 13  2  0
 13 14  1  0
 14 15  2  0
  9 16  2  0
 16 17  1  0
 17 18  1  0
 18 19  2  0
 19 20  1  0
 20 21  2  0
 21 22  1  0
 22 23  2  0
 17 24  2  0
  6 25  1  0
 25 26  2  0
 26  3  1  0
 24  7  1  0
 15 10  1  0
 23 18  1  0
  1 27  1  0
  1 28  1  0
  1 29  1  0
  4 30  1  0
  5 31  1  0
  8 32  1  0
 11 33  1  0
 12 34  1  0
 13 35  1  0
 15 36  1  0
 16 37  1  0
 19 38  1  0
 20 39  1  0
 21 40  1  0
 22 41  1  0
 23 42  1  0
 25 43  1  0
 26 44  1  0
M  END
>  <UniqueID>  (22) 
22

>  <SMILES>  (22) 
COc1ccc(-c2cc(-c3cccnc3)cc(-c3ccccc3)n2)cc1

>  <Energy>  (22) 
62.499566522327825

>  <Genealogy>  (22) 
COc1ccc(-c2cc(-c3cccnc3)cc(-c3ccccc3)n2)cc1 (3D coordinates assigned)
COc1ccc(-c2cc(-c3cccnc3)cc(-c3ccccc3)n2)cc1 (optimized conformer: 62.499566522327825 kcal/mol)

>  <smiles>  (22) 
COc1ccc(-c2cc(-c3cccnc3)cc(-c3ccccc3)n2)cc1

>  <score_type>  (22) 
oracle

>  <origin>  (22) 
adg

>  <m_score__min__energy>  (22) 
-7.9699999999999998

>  <m_primary>  (22) 
energy

$$$$
22:0
     RDKit          3D

 31 32  0  0  0  0  0  0  0  0999 V2000
   -8.0430   19.7020  -32.9580 C   0  0  0  0  0  0  0  0  0  0  0  0
   -8.7900   20.8070  -31.7820 S   0  0  0  0  0  0  0  0  0  0  0  0
   -9.0960   20.0620  -30.5140 O   0  0  0  0  0  0  0  0  0  0  0  0
  -10.0750   21.3460  -32.3470 O   0  0  0  0  0  0  0  0  0  0  0  0
   -7.6840   22.1340  -31.4440 C   0  0  0  0  0  0  0  0  0  0  0  0
   -7.4720   22.5560  -30.1250 C   0  0  0  0  0  0  0  0  0  0  0  0
   -6.5840   23.6000  -29.8520 C   0  0  0  0  0  0  0  0  0  0  0  0
   -5.8890   24.2360  -30.8970 C   0  0  0  0  0  0  0  0  0  0  0  0
   -4.9430   25.3410  -30.6110 C   0  0  0  0  0  0  0  0  0  0  0  0
   -5.3720   26.5180  -30.4660 O   0  0  0  0  0  0  0  0  0  0  0  0
   -3.5430   25.0720  -30.4630 N   0  0  0  0  0  0  0  0  0  0  0  0
   -2.9950   24.0930  -29.5700 C   0  0  0  0  0  0  0  0  0  0  0  0
   -2.7680   24.4560  -28.2360 C   0  0  0  0  0  0  0  0  0  0  0  0
   -2.2370   23.5320  -27.3320 C   0  0  0  0  0  0  0  0  0  0  0  0
   -1.9460   22.2320  -27.7510 C   0  0  0  0  0  0  0  0  0  0  0  0
   -2.2010   21.8490  -29.0710 C   0  0  0  0  0  0  0  0  0  0  0  0
   -2.7330   22.7680  -29.9850 C   0  0  0  0  0  0  0  0  0  0  0  0
   -3.1430   22.2000  -31.5980 Cl  0  0  0  0  0  0  0  0  0  0  0  0
   -6.1000   23.8000  -32.2180 C   0  0  0  0  0  0  0  0  0  0  0  0
   -6.9890   22.7560  -32.4880 C   0  0  0  0  0  0  0  0  0  0  0  0
   -7.5048   18.9059  -32.4226 H   0  0  0  0  0  0  0  0  0  0  0  0
   -8.8251   19.2552  -33.5894 H   0  0  0  0  0  0  0  0  0  0  0  0
   -7.3370   20.2613  -33.5894 H   0  0  0  0  0  0  0  0  0  0  0  0
   -8.0072   22.0631  -29.3001 H   0  0  0  0  0  0  0  0  0  0  0  0
   -6.4274   23.9266  -28.8134 H   0  0  0  0  0  0  0  0  0  0  0  0
   -3.0092   25.4746  -27.8981 H   0  0  0  0  0  0  0  0  0  0  0  0
   -2.0481   23.8288  -26.2898 H   0  0  0  0  0  0  0  0  0  0  0  0
   -1.5160   21.5091  -27.0421 H   0  0  0  0  0  0  0  0  0  0  0  0
   -1.9828   20.8204  -29.3939 H   0  0  0  0  0  0  0  0  0  0  0  0
   -5.5608   24.2849  -33.0451 H   0  0  0  0  0  0  0  0  0  0  0  0
   -7.1432   22.4218  -33.5246 H   0  0  0  0  0  0  0  0  0  0  0  0
  1  2  1  0
  2  3  2  0
  2  4  2  0
  2  5  1  0
  5  6  2  0
  6  7  1  0
  7  8  2  0
  8  9  1  0
  9 10  2  0
  9 11  1  0
 11 12  1  0
 12 13  2  0
 13 14  1  0
 14 15  2  0
 15 16  1  0
 16 17  2  0
 17 18  1  0
  8 19  1  0
 19 20  2  0
 20  5  1  0
 17 12  1  0
  1 21  1  0
  1 22  1  0
  1 23  1  0
  6 24  1  0
  7 25  1  0
 13 26  1  0
 14 27  1  0
 15 28  1  0
 16 29  1  0
 19 30  1  0
 20 31  1  0
M  CHG  1  11  -1
M  END
>  <UniqueID>  (23) 
23

>  <SMILES>  (23) 
CS(=O)(=O)c1ccc(C(=O)[N-]c2ccccc2Cl)cc1

>  <Energy>  (23) 
36.72568667726618

>  <Genealogy>  (23) 
CS(=O)(=O)c1ccc(C(=O)[N-]c2ccccc2Cl)cc1 (protonated)
CS(=O)(=O)c1ccc(C(=O)[N-]c2ccccc2Cl)cc1 (3D coordinates assigned)
CS(=O)(=O)c1ccc(C(=O)[N-]c2ccccc2Cl)cc1 (optimized conformer: 36.72568667726618 kcal/mol)

>  <smiles>  (23) 
CS(=O)(=O)c1ccc(C(=O)Nc2ccccc2Cl)cc1

>  <score_type>  (23) 
oracle

>  <origin>  (23) 
adg

>  <m_score__min__energy>  (23) 
-9.4700000000000006

>  <m_primary>  (23) 
energy

$$$$
23:0
     RDKit          3D

 55 57  0  0  0  0  0  0  0  0999 V2000
   -5.7140   16.8910  -32.3260 C   0  0  0  0  0  0  0  0  0  0  0  0
   -6.6310   17.9050  -31.6310 C   0  0  0  0  0  0  0  0  0  0  0  0
   -6.5830   19.2500  -32.2680 N   0  0  0  0  0  0  0  0  0  0  0  0
   -7.9390   19.6930  -32.6860 C   0  0  0  0  0  0  0  0  0  0  0  0
   -9.0620   18.9460  -31.9580 C   0  0  0  0  0  0  0  0  0  0  0  0
   -5.5860   19.2830  -33.3730 C   0  0  0  0  0  0  0  0  0  0  0  0
   -4.6360   20.4980  -33.3400 C   0  0  0  0  0  0  0  0  0  0  0  0
   -4.2970   20.8080  -31.9450 N   0  0  0  0  0  0  0  0  0  0  0  0
   -3.1610   21.7330  -31.8490 C   0  0  0  0  0  0  0  0  0  0  0  0
   -3.3860   22.7900  -30.7980 C   0  0  0  0  0  0  0  0  0  0  0  0
   -2.4220   23.2970  -29.9510 C   0  0  0  0  0  0  0  0  0  0  0  0
   -3.0100   24.1640  -29.0990 N   0  0  0  0  0  0  0  0  0  0  0  0
   -2.3810   24.9030  -28.0300 C   0  0  0  0  0  0  0  0  0  0  0  0
   -1.2000   25.6310  -28.2780 C   0  0  0  0  0  0  0  0  0  0  0  0
   -0.5800   26.3520  -27.2540 C   0  0  0  0  0  0  0  0  0  0  0  0
   -1.1280   26.3590  -25.9690 C   0  0  0  0  0  0  0  0  0  0  0  0
   -2.2970   25.6420  -25.7060 C   0  0  0  0  0  0  0  0  0  0  0  0
   -2.9210   24.9150  -26.7260 C   0  0  0  0  0  0  0  0  0  0  0  0
   -4.3060   24.2320  -29.3670 N   0  0  0  0  0  0  0  0  0  0  0  0
   -4.5640   23.4180  -30.4110 C   0  0  0  0  0  0  0  0  0  0  0  0
   -5.9210   23.2000  -30.9440 C   0  0  0  0  0  0  0  0  0  0  0  0
   -6.2610   23.7070  -32.2080 C   0  0  0  0  0  0  0  0  0  0  0  0
   -7.5560   23.5420  -32.7080 C   0  0  0  0  0  0  0  0  0  0  0  0
   -8.5140   22.8540  -31.9580 C   0  0  0  0  0  0  0  0  0  0  0  0
   -8.1770   22.3250  -30.7100 C   0  0  0  0  0  0  0  0  0  0  0  0
   -9.1040   21.6480  -29.9890 F   0  0  0  0  0  0  0  0  0  0  0  0
   -6.8830   22.4910  -30.2040 C   0  0  0  0  0  0  0  0  0  0  0  0
   -5.1795   16.3000  -31.5677 H   0  0  0  0  0  0  0  0  0  0  0  0
   -6.3185   16.2204  -32.9544 H   0  0  0  0  0  0  0  0  0  0  0  0
   -4.9862   17.4253  -32.9544 H   0  0  0  0  0  0  0  0  0  0  0  0
   -7.6649   17.5318  -31.6730 H   0  0  0  0  0  0  0  0  0  0  0  0
   -6.2814   18.0146  -30.5938 H   0  0  0  0  0  0  0  0  0  0  0  0
   -6.2360   19.9310  -31.5510 H   0  0  0  0  0  0  0  0  0  0  0  0
   -8.0378   20.7679  -32.4741 H   0  0  0  0  0  0  0  0  0  0  0  0
   -8.0405   19.4760  -33.7596 H   0  0  0  0  0  0  0  0  0  0  0  0
   -8.9205   19.0401  -30.8712 H   0  0  0  0  0  0  0  0  0  0  0  0
  -10.0332   19.3787  -32.2402 H   0  0  0  0  0  0  0  0  0  0  0  0
   -9.0383   17.8831  -32.2402 H   0  0  0  0  0  0  0  0  0  0  0  0
   -4.9771   18.3688  -33.3140 H   0  0  0  0  0  0  0  0  0  0  0  0
   -6.1584   19.3582  -34.3093 H   0  0  0  0  0  0  0  0  0  0  0  0
   -3.7179   20.2624  -33.8981 H   0  0  0  0  0  0  0  0  0  0  0  0
   -5.1295   21.3657  -33.8021 H   0  0  0  0  0  0  0  0  0  0  0  0
   -5.1250   21.2780  -31.5090 H   0  0  0  0  0  0  0  0  0  0  0  0
   -2.2573   21.1613  -31.5911 H   0  0  0  0  0  0  0  0  0  0  0  0
   -3.0471   22.2361  -32.8205 H   0  0  0  0  0  0  0  0  0  0  0  0
   -1.3530   23.0382  -29.9671 H   0  0  0  0  0  0  0  0  0  0  0  0
   -0.7621   25.6317  -29.2871 H   0  0  0  0  0  0  0  0  0  0  0  0
    0.3419   26.9155  -27.4603 H   0  0  0  0  0  0  0  0  0  0  0  0
   -0.6391   26.9288  -25.1651 H   0  0  0  0  0  0  0  0  0  0  0  0
   -2.7286   25.6487  -24.6942 H   0  0  0  0  0  0  0  0  0  0  0  0
   -3.8390   24.3488  -26.5099 H   0  0  0  0  0  0  0  0  0  0  0  0
   -5.5056   24.2362  -32.8074 H   0  0  0  0  0  0  0  0  0  0  0  0
   -7.8213   23.9541  -33.6928 H   0  0  0  0  0  0  0  0  0  0  0  0
   -9.5339   22.7291  -32.3508 H   0  0  0  0  0  0  0  0  0  0  0  0
   -6.6180   22.0656  -29.2248 H   0  0  0  0  0  0  0  0  0  0  0  0
  1  2  1  0
  2  3  1  0
  3  4  1  0
  4  5  1  0
  3  6  1  0
  6  7  1  0
  7  8  1  0
  8  9  1  0
  9 10  1  0
 10 11  2  0
 11 12  1  0
 12 13  1  0
 13 14  2  0
 14 15  1  0
 15 16  2  0
 16 17  1  0
 17 18  2  0
 12 19  1  0
 19 20  2  0
 20 21  1  0
 21 22  2  0
 22 23  1  0
 23 24  2  0
 24 25  1  0
 25 26  1  0
 25 27  2  0
 20 10  1  0
 27 21  1  0
 18 13  1  0
  1 28  1  0
  1 29  1  0
  1 30  1  0
  2 31  1  0
  2 32  1  0
  3 33  1  0
  4 34  1  0
  4 35  1  0
  5 36  1  0
  5 37  1  0
  5 38  1  0
  6 39  1  0
  6 40  1  0
  7 41  1  0
  7 42  1  0
  8 43  1  0
  9 44  1  0
  9 45  1  0
 11 46  1  0
 14 47  1  0
 15 48  1  0
 16 49  1  0
 17 50  1  0
 18 51  1  0
 22 52  1  0
 23 53  1  0
 24 54  1  0
 27 55  1  0
M  CHG  1   3   1
M  END
>  <UniqueID>  (24) 
24

>  <SMILES>  (24) 
CC[NH+](CC)CCNCc1cn(-c2ccccc2)nc1-c1cccc(F)c1

>  <Energy>  (24) 
92.1743812824126

>  <Genealogy>  (24) 
CC[NH+](CC)CCNCc1cn(-c2ccccc2)nc1-c1cccc(F)c1 (protonated)
CC[NH+](CC)CCNCc1cn(-c2ccccc2)nc1-c1cccc(F)c1 (3D coordinates assigned)
CC[NH+](CC)CCNCc1cn(-c2ccccc2)nc1-c1cccc(F)c1 (optimized conformer: 92.1743812824126 kcal/mol)

>  <smiles>  (24) 
CCN(CC)CCNCc1cn(-c2ccccc2)nc1-c1cccc(F)c1

>  <score_type>  (24) 
oracle

>  <origin>  (24) 
adg

>  <m_score__min__energy>  (24) 
-7.3799999999999999

>  <m_primary>  (24) 
energy

$$$$
24:0
     RDKit          3D

 50 51  0  0  0  0  0  0  0  0999 V2000
   -6.6270   15.8780  -34.2280 C   0  0  0  0  0  0  0  0  0  0  0  0
   -6.1150   17.3020  -34.4950 C   0  0  0  0  0  0  0  0  0  0  0  0
   -5.8690   18.0950  -33.2650 N   0  0  0  0  0  0  0  0  0  0  0  0
   -4.4350   18.3010  -32.9540 C   0  0  0  0  0  0  0  0  0  0  0  0
   -3.8030   19.3880  -33.8250 C   0  0  0  0  0  0  0  0  0  0  0  0
   -6.6100   17.5580  -32.0960 C   0  0  0  0  0  0  0  0  0  0  0  0
   -7.9140   18.3300  -31.8800 C   0  0  0  0  0  0  0  0  0  0  0  0
   -8.0650   19.3970  -32.8670 N   0  0  0  0  0  0  0  0  0  0  0  0
   -8.2170   20.7620  -32.4680 C   0  0  0  0  0  0  0  0  0  0  0  0
   -9.4220   21.3730  -32.1760 C   0  0  0  0  0  0  0  0  0  0  0  0
   -9.1630   22.5970  -31.6730 N   0  0  0  0  0  0  0  0  0  0  0  0
   -7.8180   22.6910  -31.6540 C   0  0  0  0  0  0  0  0  0  0  0  0
   -7.2090   21.5980  -32.1460 N   0  0  0  0  0  0  0  0  0  0  0  0
   -5.7830   21.3190  -31.9520 C   0  0  0  0  0  0  0  0  0  0  0  0
   -4.9890   22.6400  -31.9330 C   0  0  0  0  0  0  0  0  0  0  0  0
   -5.6060   23.6180  -31.0150 N   0  0  0  0  0  0  0  0  0  0  0  0
   -4.7880   24.2900  -29.9990 C   0  0  0  0  0  0  0  0  0  0  0  0
   -3.3250   23.8640  -30.1230 C   0  0  0  0  0  0  0  0  0  0  0  0
   -2.4880   24.9210  -29.7010 O   0  0  0  0  0  0  0  0  0  0  0  0
   -1.8360   24.5540  -28.5040 C   0  0  0  0  0  0  0  0  0  0  0  0
   -7.0400   23.7570  -31.0230 C   0  0  0  0  0  0  0  0  0  0  0  0
   -7.6100   24.7360  -30.4700 O   0  0  0  0  0  0  0  0  0  0  0  0
   -6.6882   15.7078  -33.1430 H   0  0  0  0  0  0  0  0  0  0  0  0
   -7.6248   15.7573  -34.6749 H   0  0  0  0  0  0  0  0  0  0  0  0
   -5.9345   15.1495  -34.6749 H   0  0  0  0  0  0  0  0  0  0  0  0
   -5.1711   17.2309  -35.0554 H   0  0  0  0  0  0  0  0  0  0  0  0
   -6.9032   17.8235  -35.0578 H   0  0  0  0  0  0  0  0  0  0  0  0
   -4.3405   18.5943  -31.8980 H   0  0  0  0  0  0  0  0  0  0  0  0
   -3.9074   17.3574  -33.1573 H   0  0  0  0  0  0  0  0  0  0  0  0
   -3.3547   20.1591  -33.1813 H   0  0  0  0  0  0  0  0  0  0  0  0
   -3.0235   18.9419  -34.4601 H   0  0  0  0  0  0  0  0  0  0  0  0
   -4.5764   19.8447  -34.4601 H   0  0  0  0  0  0  0  0  0  0  0  0
   -6.8433   16.4976  -32.2726 H   0  0  0  0  0  0  0  0  0  0  0  0
   -5.9822   17.6668  -31.1993 H   0  0  0  0  0  0  0  0  0  0  0  0
   -8.7618   17.6350  -31.9702 H   0  0  0  0  0  0  0  0  0  0  0  0
   -7.8893   18.7829  -30.8779 H   0  0  0  0  0  0  0  0  0  0  0  0
   -7.6670   19.2190  -33.8170 H   0  0  0  0  0  0  0  0  0  0  0  0
  -10.4200   20.9361  -32.3278 H   0  0  0  0  0  0  0  0  0  0  0  0
   -9.8570   23.2860  -31.3080 H   0  0  0  0  0  0  0  0  0  0  0  0
   -5.6406   20.7939  -30.9960 H   0  0  0  0  0  0  0  0  0  0  0  0
   -5.4208   20.6901  -32.7786 H   0  0  0  0  0  0  0  0  0  0  0  0
   -3.9601   22.4360  -31.6018 H   0  0  0  0  0  0  0  0  0  0  0  0
   -4.9916   23.0638  -32.9481 H   0  0  0  0  0  0  0  0  0  0  0  0
   -4.8611   25.3788  -30.1373 H   0  0  0  0  0  0  0  0  0  0  0  0
   -5.1573   24.0092  -29.0016 H   0  0  0  0  0  0  0  0  0  0  0  0
   -3.1459   22.9807  -29.4924 H   0  0  0  0  0  0  0  0  0  0  0  0
   -3.1031   23.6177  -31.1719 H   0  0  0  0  0  0  0  0  0  0  0  0
   -2.4330   24.8900  -27.6434 H   0  0  0  0  0  0  0  0  0  0  0  0
   -1.7240   23.4603  -28.4679 H   0  0  0  0  0  0  0  0  0  0  0  0
   -0.8429   25.0257  -28.4679 H   0  0  0  0  0  0  0  0  0  0  0  0
  1  2  1  0
  2  3  1  0
  3  4  1  0
  4  5  1  0
  3  6  1  0
  6  7  1  0
  7  8  1  0
  8  9  1  0
  9 10  2  0
 10 11  1  0
 11 12  2  0
 12 13  1  0
 13 14  1  0
 14 15  1  0
 15 16  1  0
 16 17  1  0
 17 18  1  0
 18 19  1  0
 19 20  1  0
 16 21  1  0
 21 22  2  0
 13  9  1  0
 21 12  1  0
  1 23  1  0
  1 24  1  0
  1 25  1  0
  2 26  1  0
  2 27  1  0
  4 28  1  0
  4 29  1  0
  5 30  1  0
  5 31  1  0
  5 32  1  0
  6 33  1  0
  6 34  1  0
  7 35  1  0
  7 36  1  0
  8 37  1  0
 10 38  1  0
 11 39  1  0
 14 40  1  0
 14 41  1  0
 15 42  1  0
 15 43  1  0
 17 44  1  0
 17 45  1  0
 18 46  1  0
 18 47  1  0
 20 48  1  0
 20 49  1  0
 20 50  1  0
M  CHG  1  11   1
M  END
>  <UniqueID>  (25) 
25

>  <SMILES>  (25) 
CCN(CC)CCNc1c[nH+]c2n1CCN(CCOC)C2=O

>  <Energy>  (25) 
82.46838210507457

>  <Genealogy>  (25) 
CCN(CC)CCNc1c[nH+]c2n1CCN(CCOC)C2=O (protonated)
CCN(CC)CCNc1c[nH+]c2n1CCN(CCOC)C2=O (3D coordinates assigned)
CCN(CC)CCNc1c[nH+]c2n1CCN(CCOC)C2=O (nonaromatic ring conformer: 82.46838210507457 kcal/mol)

>  <smiles>  (25) 
CCN(CC)CCNc1cnc2n1CCN(CCOC)C2=O

>  <score_type>  (25) 
oracle

>  <origin>  (25) 
adg

>  <m_score__min__energy>  (25) 
-5.9299999999999997

>  <m_primary>  (25) 
energy

$$$$
25:0
     RDKit          3D

 40 42  0  0  0  0  0  0  0  0999 V2000
   -2.0950   17.5970  -34.4290 C   0  0  0  0  0  0  0  0  0  0  0  0
   -2.8600   17.5460  -33.1000 C   0  0  0  0  0  0  0  0  0  0  0  0
   -4.3260   17.7950  -33.1960 N   0  0  0  0  0  0  0  0  0  0  0  0
   -5.1380   16.7890  -32.4510 C   0  0  0  0  0  0  0  0  0  0  0  0
   -6.2160   17.3670  -31.5140 C   0  0  0  0  0  0  0  0  0  0  0  0
   -4.8140   18.0430  -34.5810 C   0  0  0  0  0  0  0  0  0  0  0  0
   -6.1130   18.8740  -34.6460 C   0  0  0  0  0  0  0  0  0  0  0  0
   -6.1570   19.8730  -33.5790 N   0  0  0  0  0  0  0  0  0  0  0  0
   -5.1120   20.6370  -33.2340 N   0  0  0  0  0  0  0  0  0  0  0  0
   -5.5630   21.5140  -32.3050 C   0  0  0  0  0  0  0  0  0  0  0  0
   -4.9450   22.6310  -31.7420 C   0  0  0  0  0  0  0  0  0  0  0  0
   -3.6370   22.9030  -31.9710 F   0  0  0  0  0  0  0  0  0  0  0  0
   -5.7530   23.5010  -30.9610 C   0  0  0  0  0  0  0  0  0  0  0  0
   -7.1500   23.2570  -30.8070 C   0  0  0  0  0  0  0  0  0  0  0  0
   -7.7270   22.1220  -31.4140 C   0  0  0  0  0  0  0  0  0  0  0  0
   -6.8720   21.2880  -32.0850 C   0  0  0  0  0  0  0  0  0  0  0  0
   -7.2380   20.2690  -32.8660 C   0  0  0  0  0  0  0  0  0  0  0  0
   -8.6270   19.9620  -33.0440 N   0  0  0  0  0  0  0  0  0  0  0  0
   -9.5850   20.7640  -32.3000 C   0  0  0  0  0  0  0  0  0  0  0  0
   -9.1760   21.7980  -31.5130 C   0  0  0  0  0  0  0  0  0  0  0  0
   -1.0158   17.6689  -34.2284 H   0  0  0  0  0  0  0  0  0  0  0  0
   -2.3006   16.6832  -35.0057 H   0  0  0  0  0  0  0  0  0  0  0  0
   -2.4201   18.4755  -35.0057 H   0  0  0  0  0  0  0  0  0  0  0  0
   -2.7134   16.5476  -32.6622 H   0  0  0  0  0  0  0  0  0  0  0  0
   -2.4537   18.3626  -32.4851 H   0  0  0  0  0  0  0  0  0  0  0  0
   -4.4740   18.6860  -32.6670 H   0  0  0  0  0  0  0  0  0  0  0  0
   -5.6401   16.1457  -33.1887 H   0  0  0  0  0  0  0  0  0  0  0  0
   -4.4308   16.2521  -31.8017 H   0  0  0  0  0  0  0  0  0  0  0  0
   -5.9167   17.2065  -30.4677 H   0  0  0  0  0  0  0  0  0  0  0  0
   -6.3260   18.4451  -31.7027 H   0  0  0  0  0  0  0  0  0  0  0  0
   -7.1748   16.8620  -31.7027 H   0  0  0  0  0  0  0  0  0  0  0  0
   -4.0300   18.5817  -35.1334 H   0  0  0  0  0  0  0  0  0  0  0  0
   -5.0406   17.0606  -35.0208 H   0  0  0  0  0  0  0  0  0  0  0  0
   -6.1631   19.3856  -35.6185 H   0  0  0  0  0  0  0  0  0  0  0  0
   -6.9680   18.1933  -34.5206 H   0  0  0  0  0  0  0  0  0  0  0  0
   -5.2959   24.3725  -30.4696 H   0  0  0  0  0  0  0  0  0  0  0  0
   -7.7722   23.9483  -30.2197 H   0  0  0  0  0  0  0  0  0  0  0  0
   -8.9470   19.1890  -33.6670 H   0  0  0  0  0  0  0  0  0  0  0  0
  -10.6577   20.5319  -32.3739 H   0  0  0  0  0  0  0  0  0  0  0  0
   -9.9139   22.3911  -30.9529 H   0  0  0  0  0  0  0  0  0  0  0  0
  1  2  1  0
  2  3  1  0
  3  4  1  0
  4  5  1  0
  3  6  1  0
  6  7  1  0
  7  8  1  0
  8  9  1  0
  9 10  2  0
 10 11  1  0
 11 12  1  0
 11 13  2  0
 13 14  1  0
 14 15  2  0
 15 16  1  0
 16 17  2  0
 17 18  1  0
 18 19  1  0
 19 20  2  0
 17  8  1  0
 16 10  1  0
 20 15  1  0
  1 21  1  0
  1 22  1  0
  1 23  1  0
  2 24  1  0
  2 25  1  0
  3 26  1  0
  4 27  1  0
  4 28  1  0
  5 29  1  0
  5 30  1  0
  5 31  1  0
  6 32  1  0
  6 33  1  0
  7 34  1  0
  7 35  1  0
 13 36  1  0
 14 37  1  0
 18 38  1  0
 19 39  1  0
 20 40  1  0
M  CHG  1   3   1
M  END
>  <UniqueID>  (26) 
26

>  <SMILES>  (26) 
CC[NH+](CC)CCn1nc2c(F)ccc3c2c1NC=C3

>  <Energy>  (26) 
102.55277292933546

>  <Genealogy>  (26) 
CC[NH+](CC)CCn1nc2c(F)ccc3c2c1NC=C3 (protonated)
CC[NH+](CC)CCn1nc2c(F)ccc3c2c1NC=C3 (3D coordinates assigned)
CC[NH+](CC)CCn1nc2c(F)ccc3c2c1NC=C3 (nonaromatic ring conformer: 102.55277292933546 kcal/mol)

>  <smiles>  (26) 
CCN(CC)CCn1nc2c(F)ccc3c2c1NC=C3

>  <score_type>  (26) 
oracle

>  <origin>  (26) 
adg

>  <m_score__min__energy>  (26) 
-5.8099999999999996

>  <m_primary>  (26) 
energy

$$$$
26:0
     RDKit          3D

 52 54  0  0  0  0  0  0  0  0999 V2000
   -1.1180   26.2100  -25.0420 C   0  0  0  0  0  0  0  0  0  0  0  0
   -1.3550   25.4750  -26.3300 C   0  0  0  0  0  0  0  0  0  0  0  0
   -1.9880   24.2240  -26.3160 C   0  0  0  0  0  0  0  0  0  0  0  0
   -2.2430   23.5460  -27.5110 C   0  0  0  0  0  0  0  0  0  0  0  0
   -1.8690   24.1080  -28.7430 C   0  0  0  0  0  0  0  0  0  0  0  0
   -2.1390   23.3610  -30.0340 C   0  0  0  0  0  0  0  0  0  0  0  0
   -3.5130   23.5460  -30.5550 N   0  0  0  0  0  0  0  0  0  0  0  0
   -4.2320   22.2820  -30.8420 C   0  0  0  0  0  0  0  0  0  0  0  0
   -5.6260   22.2300  -30.1950 C   0  0  0  0  0  0  0  0  0  0  0  0
   -6.4530   23.4150  -30.5440 N   0  0  2  0  0  0  0  0  0  0  0  0
   -7.0720   23.2300  -31.8850 C   0  0  0  0  0  0  0  0  0  0  0  0
   -7.5150   21.8040  -32.1160 C   0  0  0  0  0  0  0  0  0  0  0  0
   -8.7820   21.3840  -31.6840 C   0  0  0  0  0  0  0  0  0  0  0  0
   -9.2140   20.0810  -31.9310 C   0  0  0  0  0  0  0  0  0  0  0  0
   -8.3850   19.1830  -32.6090 C   0  0  0  0  0  0  0  0  0  0  0  0
   -7.1010   19.5760  -33.0260 C   0  0  0  0  0  0  0  0  0  0  0  0
   -6.2190   18.6320  -33.8040 C   0  0  0  0  0  0  0  0  0  0  0  0
   -4.9470   18.6460  -33.2600 F   0  0  0  0  0  0  0  0  0  0  0  0
   -6.7210   17.3430  -33.7420 F   0  0  0  0  0  0  0  0  0  0  0  0
   -6.1430   19.0030  -35.1350 F   0  0  0  0  0  0  0  0  0  0  0  0
   -6.6810   20.8970  -32.7920 C   0  0  0  0  0  0  0  0  0  0  0  0
   -5.6930   24.7110  -30.4520 C   0  0  1  0  0  0  0  0  0  0  0  0
   -6.4870   25.7760  -29.6730 C   0  0  0  0  0  0  0  0  0  0  0  0
   -4.3010   24.5440  -29.8070 C   0  0  0  0  0  0  0  0  0  0  0  0
   -1.2740   25.3810  -28.7580 C   0  0  0  0  0  0  0  0  0  0  0  0
   -1.0180   26.0600  -27.5620 C   0  0  0  0  0  0  0  0  0  0  0  0
   -0.4480   27.2910  -27.6080 F   0  0  0  0  0  0  0  0  0  0  0  0
   -1.3331   25.5429  -24.1942 H   0  0  0  0  0  0  0  0  0  0  0  0
   -0.0688   26.5371  -24.9942 H   0  0  0  0  0  0  0  0  0  0  0  0
   -1.7785   27.0884  -24.9942 H   0  0  0  0  0  0  0  0  0  0  0  0
   -2.2859   23.7732  -25.3579 H   0  0  0  0  0  0  0  0  0  0  0  0
   -2.7402   22.5651  -27.4868 H   0  0  0  0  0  0  0  0  0  0  0  0
   -1.4287   23.7159  -30.7952 H   0  0  0  0  0  0  0  0  0  0  0  0
   -2.0207   22.2895  -29.8151 H   0  0  0  0  0  0  0  0  0  0  0  0
   -4.3461   22.1820  -31.9315 H   0  0  0  0  0  0  0  0  0  0  0  0
   -3.6384   21.4592  -30.4170 H   0  0  0  0  0  0  0  0  0  0  0  0
   -6.1433   21.3230  -30.5410 H   0  0  0  0  0  0  0  0  0  0  0  0
   -5.4910   22.2228  -29.1033 H   0  0  0  0  0  0  0  0  0  0  0  0
   -7.2320   23.4160  -29.8430 H   0  0  0  0  0  0  0  0  0  0  0  0
   -7.9478   23.8907  -31.9653 H   0  0  0  0  0  0  0  0  0  0  0  0
   -6.3147   23.4761  -32.6439 H   0  0  0  0  0  0  0  0  0  0  0  0
   -9.4379   22.0857  -31.1479 H   0  0  0  0  0  0  0  0  0  0  0  0
  -10.2096   19.7594  -31.5913 H   0  0  0  0  0  0  0  0  0  0  0  0
   -8.7392   18.1627  -32.8176 H   0  0  0  0  0  0  0  0  0  0  0  0
   -5.6904   21.2238  -33.1412 H   0  0  0  0  0  0  0  0  0  0  0  0
   -5.5504   25.0452  -31.4903 H   0  0  0  0  0  0  0  0  0  0  0  0
   -6.3625   25.6090  -28.5929 H   0  0  0  0  0  0  0  0  0  0  0  0
   -6.1128   26.7767  -29.9348 H   0  0  0  0  0  0  0  0  0  0  0  0
   -7.5529   25.7030  -29.9348 H   0  0  0  0  0  0  0  0  0  0  0  0
   -3.7744   25.5096  -29.8227 H   0  0  0  0  0  0  0  0  0  0  0  0
   -4.4236   24.2018  -28.7688 H   0  0  0  0  0  0  0  0  0  0  0  0
   -1.0074   25.8473  -29.7179 H   0  0  0  0  0  0  0  0  0  0  0  0
  1  2  1  0
  2  3  2  0
  3  4  1  0
  4  5  2  0
  5  6  1  0
  6  7  1  0
  7  8  1  0
  8  9  1  0
  9 10  1  0
 10 11  1  0
 11 12  1  0
 12 13  2  0
 13 14  1  0
 14 15  2  0
 15 16  1  0
 16 17  1  0
 17 18  1  0
 17 19  1  0
 17 20  1  0
 16 21  2  0
 10 22  1  0
 22 23  1  0
 22 24  1  0
  5 25  1  0
 25 26  2  0
 26 27  1  0
 26  2  1  0
 24  7  1  0
 21 12  1  0
  1 28  1  0
  1 29  1  0
  1 30  1  0
  3 31  1  0
  4 32  1  0
  6 33  1  0
  6 34  1  0
  8 35  1  0
  8 36  1  0
  9 37  1  0
  9 38  1  0
 10 39  1  1
 11 40  1  0
 11 41  1  0
 13 42  1  0
 14 43  1  0
 15 44  1  0
 21 45  1  0
 22 46  1  6
 23 47  1  0
 23 48  1  0
 23 49  1  0
 24 50  1  0
 24 51  1  0
 25 52  1  0
M  CHG  1  10   1
M  END
>  <UniqueID>  (27) 
27

>  <SMILES>  (27) 
Cc1ccc(CN2CC[N@H+](Cc3cccc(C(F)(F)F)c3)[C@@H](C)C2)cc1F

>  <Energy>  (27) 
69.71859835797488

>  <Genealogy>  (27) 
Cc1ccc(CN2CC[NH+](Cc3cccc(C(F)(F)F)c3)C(C)C2)cc1F (protonated)
Cc1ccc(CN2CC[N@H+](Cc3cccc(C(F)(F)F)c3)[C@@H](C)C2)cc1F (chirality)
Cc1ccc(CN2CC[N@H+](Cc3cccc(C(F)(F)F)c3)[C@@H](C)C2)cc1F (3D coordinates assigned)
Cc1ccc(CN2CC[N@H+](Cc3cccc(C(F)(F)F)c3)[C@@H](C)C2)cc1F (nonaromatic ring conformer: 69.71859835797488 kcal/mol)

>  <smiles>  (27) 
Cc1ccc(CN2CCN(Cc3cccc(C(F)(F)F)c3)C(C)C2)cc1F

>  <score_type>  (27) 
oracle

>  <origin>  (27) 
adg

>  <m_score__min__energy>  (27) 
-7.6200000000000001

>  <m_primary>  (27) 
energy

$$$$
27:0
     RDKit          3D

 46 49  0  0  0  0  0  0  0  0999 V2000
   -3.4780   20.1140  -33.4670 C   0  0  0  0  0  0  0  0  0  0  0  0
   -4.7030   20.6540  -32.8080 C   0  0  0  0  0  0  0  0  0  0  0  0
   -4.5930   21.6320  -31.8720 N   0  0  0  0  0  0  0  0  0  0  0  0
   -5.6800   22.1200  -31.2180 C   0  0  0  0  0  0  0  0  0  0  0  0
   -5.4900   23.1130  -30.1990 N   0  0  0  0  0  0  0  0  0  0  0  0
   -5.0160   22.6800  -28.8750 C   0  0  0  0  0  0  0  0  0  0  0  0
   -4.0890   23.7260  -28.2390 C   0  0  0  0  0  0  0  0  0  0  0  0
   -3.2570   24.3660  -29.2690 N   0  0  0  0  0  0  0  0  0  0  0  0
   -1.8480   24.5560  -29.0510 C   0  0  0  0  0  0  0  0  0  0  0  0
   -1.3250   25.6770  -29.2880 O   0  0  0  0  0  0  0  0  0  0  0  0
   -1.0290   23.4970  -28.5420 N   0  0  0  0  0  0  0  0  0  0  0  0
   -0.9090   22.1980  -29.1360 C   0  0  0  0  0  0  0  0  0  0  0  0
   -0.5260   21.0760  -28.3780 C   0  0  0  0  0  0  0  0  0  0  0  0
   -0.4220   19.8200  -28.9830 C   0  0  0  0  0  0  0  0  0  0  0  0
   -0.7200   19.6710  -30.3400 C   0  0  0  0  0  0  0  0  0  0  0  0
   -1.1300   20.7760  -31.0910 C   0  0  0  0  0  0  0  0  0  0  0  0
   -1.2320   22.0340  -30.4890 C   0  0  0  0  0  0  0  0  0  0  0  0
   -3.8780   24.9380  -30.4710 C   0  0  0  0  0  0  0  0  0  0  0  0
   -5.3470   24.5190  -30.5890 C   0  0  0  0  0  0  0  0  0  0  0  0
   -6.9560   21.6040  -31.5170 C   0  0  0  0  0  0  0  0  0  0  0  0
   -8.1330   22.0860  -30.9150 C   0  0  0  0  0  0  0  0  0  0  0  0
   -9.3710   21.5280  -31.2470 C   0  0  0  0  0  0  0  0  0  0  0  0
   -9.4470   20.4930  -32.1840 C   0  0  0  0  0  0  0  0  0  0  0  0
   -8.2870   20.0170  -32.8000 C   0  0  0  0  0  0  0  0  0  0  0  0
   -7.0430   20.5720  -32.4770 C   0  0  0  0  0  0  0  0  0  0  0  0
   -5.9190   20.1210  -33.0920 N   0  0  0  0  0  0  0  0  0  0  0  0
   -2.7579   19.7966  -32.6985 H   0  0  0  0  0  0  0  0  0  0  0  0
   -3.7488   19.2518  -34.0942 H   0  0  0  0  0  0  0  0  0  0  0  0
   -3.0243   20.8955  -34.0942 H   0  0  0  0  0  0  0  0  0  0  0  0
   -5.8843   22.5251  -28.2176 H   0  0  0  0  0  0  0  0  0  0  0  0
   -4.4480   21.7464  -29.0003 H   0  0  0  0  0  0  0  0  0  0  0  0
   -4.6976   24.4923  -27.7367 H   0  0  0  0  0  0  0  0  0  0  0  0
   -3.4339   23.2266  -27.5100 H   0  0  0  0  0  0  0  0  0  0  0  0
   -0.3077   21.1876  -27.3057 H   0  0  0  0  0  0  0  0  0  0  0  0
   -0.1055   18.9488  -28.3906 H   0  0  0  0  0  0  0  0  0  0  0  0
   -0.6319   18.6838  -30.8172 H   0  0  0  0  0  0  0  0  0  0  0  0
   -1.3728   20.6560  -32.1571 H   0  0  0  0  0  0  0  0  0  0  0  0
   -1.5674   22.8986  -31.0806 H   0  0  0  0  0  0  0  0  0  0  0  0
   -3.8212   26.0352  -30.4166 H   0  0  0  0  0  0  0  0  0  0  0  0
   -3.3375   24.5647  -31.3533 H   0  0  0  0  0  0  0  0  0  0  0  0
   -5.9612   25.1469  -29.9268 H   0  0  0  0  0  0  0  0  0  0  0  0
   -5.6805   24.6453  -31.6296 H   0  0  0  0  0  0  0  0  0  0  0  0
   -8.0788   22.9038  -30.1814 H   0  0  0  0  0  0  0  0  0  0  0  0
  -10.2879   21.9042  -30.7698 H   0  0  0  0  0  0  0  0  0  0  0  0
  -10.4227   20.0524  -32.4368 H   0  0  0  0  0  0  0  0  0  0  0  0
   -8.3511   19.2053  -33.5396 H   0  0  0  0  0  0  0  0  0  0  0  0
  1  2  1  0
  2  3  2  0
  3  4  1  0
  4  5  1  0
  5  6  1  0
  6  7  1  0
  7  8  1  0
  8  9  1  0
  9 10  2  0
  9 11  1  0
 11 12  1  0
 12 13  2  0
 13 14  1  0
 14 15  2  0
 15 16  1  0
 16 17  2  0
  8 18  1  0
 18 19  1  0
  4 20  2  0
 20 21  1  0
 21 22  2  0
 22 23  1  0
 23 24  2  0
 24 25  1  0
 25 26  2  0
 26  2  1  0
 19  5  1  0
 25 20  1  0
 17 12  1  0
  1 27  1  0
  1 28  1  0
  1 29  1  0
  6 30  1  0
  6 31  1  0
  7 32  1  0
  7 33  1  0
 13 34  1  0
 14 35  1  0
 15 36  1  0
 16 37  1  0
 17 38  1  0
 18 39  1  0
 18 40  1  0
 19 41  1  0
 19 42  1  0
 21 43  1  0
 22 44  1  0
 23 45  1  0
 24 46  1  0
M  CHG  1  11  -1
M  END
>  <UniqueID>  (28) 
28

>  <SMILES>  (28) 
Cc1nc(N2CCN(C(=O)[N-]c3ccccc3)CC2)c2ccccc2n1

>  <Energy>  (28) 
62.57961038207657

>  <Genealogy>  (28) 
Cc1nc(N2CCN(C(=O)[N-]c3ccccc3)CC2)c2ccccc2n1 (protonated)
Cc1nc(N2CCN(C(=O)[N-]c3ccccc3)CC2)c2ccccc2n1 (3D coordinates assigned)
Cc1nc(N2CCN(C(=O)[N-]c3ccccc3)CC2)c2ccccc2n1 (nonaromatic ring conformer: 62.57961038207657 kcal/mol)

>  <smiles>  (28) 
Cc1nc(N2CCN(C(=O)Nc3ccccc3)CC2)c2ccccc2n1

>  <score_type>  (28) 
oracle

>  <origin>  (28) 
adg

>  <m_score__min__energy>  (28) 
-9.5399999999999991

>  <m_primary>  (28) 
energy

$$$$
28:0
     RDKit          3D

 45 47  0  0  0  0  0  0  0  0999 V2000
   -3.4360   17.5050  -33.1210 C   0  0  0  0  0  0  0  0  0  0  0  0
   -4.0400   18.8380  -33.0230 N   0  0  0  0  0  0  0  0  0  0  0  0
   -3.1980   20.0020  -33.1520 C   0  0  0  0  0  0  0  0  0  0  0  0
   -2.7540   20.3280  -34.2860 O   0  0  0  0  0  0  0  0  0  0  0  0
   -2.8530   20.8340  -31.9780 C   0  0  0  0  0  0  0  0  0  0  0  0
   -1.7610   20.5020  -31.1640 C   0  0  0  0  0  0  0  0  0  0  0  0
   -1.4590   21.2730  -30.0410 C   0  0  0  0  0  0  0  0  0  0  0  0
   -2.2400   22.3860  -29.7110 C   0  0  0  0  0  0  0  0  0  0  0  0
   -1.7970   23.2850  -28.2640 Cl  0  0  0  0  0  0  0  0  0  0  0  0
   -3.3410   22.7370  -30.5260 C   0  0  0  0  0  0  0  0  0  0  0  0
   -4.4150   24.1000  -30.1510 S   0  0  0  0  0  0  0  0  0  0  0  0
   -3.8790   25.3360  -30.8200 O   0  0  0  0  0  0  0  0  0  0  0  0
   -4.4340   24.3640  -28.6710 O   0  0  0  0  0  0  0  0  0  0  0  0
   -6.0460   23.8170  -30.7120 N   0  0  0  0  0  0  0  0  0  0  0  0
   -6.0920   23.8090  -32.1840 C   0  0  0  0  0  0  0  0  0  0  0  0
   -7.4960   23.4050  -32.6800 C   0  0  0  0  0  0  0  0  0  0  0  0
   -8.4140   23.3110  -31.6090 O   0  0  0  0  0  0  0  0  0  0  0  0
   -7.9960   22.3010  -30.7070 C   0  0  0  0  0  0  0  0  0  0  0  0
   -6.5640   22.5460  -30.1870 C   0  0  0  0  0  0  0  0  0  0  0  0
   -3.6230   21.9630  -31.6630 C   0  0  0  0  0  0  0  0  0  0  0  0
   -5.4500   18.9730  -32.7390 C   0  0  0  0  0  0  0  0  0  0  0  0
   -6.2150   19.9770  -33.3590 C   0  0  0  0  0  0  0  0  0  0  0  0
   -7.5830   20.0900  -33.0940 C   0  0  0  0  0  0  0  0  0  0  0  0
   -8.2010   19.2040  -32.2080 C   0  0  0  0  0  0  0  0  0  0  0  0
   -7.4510   18.2040  -31.5830 C   0  0  0  0  0  0  0  0  0  0  0  0
   -6.0830   18.0890  -31.8440 C   0  0  0  0  0  0  0  0  0  0  0  0
   -3.2564   17.1087  -32.1107 H   0  0  0  0  0  0  0  0  0  0  0  0
   -4.1174   16.8326  -33.6629 H   0  0  0  0  0  0  0  0  0  0  0  0
   -2.4812   17.5740  -33.6629 H   0  0  0  0  0  0  0  0  0  0  0  0
   -1.1391   19.6292  -31.4119 H   0  0  0  0  0  0  0  0  0  0  0  0
   -0.5995   21.0035  -29.4097 H   0  0  0  0  0  0  0  0  0  0  0  0
   -5.8515   24.8148  -32.5589 H   0  0  0  0  0  0  0  0  0  0  0  0
   -5.3594   23.0788  -32.5583 H   0  0  0  0  0  0  0  0  0  0  0  0
   -7.8548   24.1613  -33.3936 H   0  0  0  0  0  0  0  0  0  0  0  0
   -7.4227   22.4184  -33.1608 H   0  0  0  0  0  0  0  0  0  0  0  0
   -8.6862   22.2819  -29.8507 H   0  0  0  0  0  0  0  0  0  0  0  0
   -8.0023   21.3416  -31.2450 H   0  0  0  0  0  0  0  0  0  0  0  0
   -6.5780   22.5852  -29.0878 H   0  0  0  0  0  0  0  0  0  0  0  0
   -5.9135   21.7256  -30.5243 H   0  0  0  0  0  0  0  0  0  0  0  0
   -4.4609   22.2466  -32.3169 H   0  0  0  0  0  0  0  0  0  0  0  0
   -5.7339   20.6779  -34.0570 H   0  0  0  0  0  0  0  0  0  0  0  0
   -8.1739   20.8779  -33.5840 H   0  0  0  0  0  0  0  0  0  0  0  0
   -9.2779   19.2935  -32.0024 H   0  0  0  0  0  0  0  0  0  0  0  0
   -7.9379   17.5069  -30.8851 H   0  0  0  0  0  0  0  0  0  0  0  0
   -5.4964   17.3024  -31.3468 H   0  0  0  0  0  0  0  0  0  0  0  0
  1  2  1  0
  2  3  1  0
  3  4  2  0
  3  5  1  0
  5  6  2  0
  6  7  1  0
  7  8  2  0
  8  9  1  0
  8 10  1  0
 10 11  1  0
 11 12  2  0
 11 13  2  0
 11 14  1  0
 14 15  1  0
 15 16  1  0
 16 17  1  0
 17 18  1  0
 18 19  1  0
 10 20  2  0
  2 21  1  0
 21 22  2  0
 22 23  1  0
 23 24  2  0
 24 25  1  0
 25 26  2  0
 20  5  1  0
 26 21  1  0
 19 14  1  0
  1 27  1  0
  1 28  1  0
  1 29  1  0
  6 30  1  0
  7 31  1  0
 15 32  1  0
 15 33  1  0
 16 34  1  0
 16 35  1  0
 18 36  1  0
 18 37  1  0
 19 38  1  0
 19 39  1  0
 20 40  1  0
 22 41  1  0
 23 42  1  0
 24 43  1  0
 25 44  1  0
 26 45  1  0
M  END
>  <UniqueID>  (29) 
29

>  <SMILES>  (29) 
CN(C(=O)c1ccc(Cl)c(S(=O)(=O)N2CCOCC2)c1)c1ccccc1

>  <Energy>  (29) 
63.99161707027711

>  <Genealogy>  (29) 
CN(C(=O)c1ccc(Cl)c(S(=O)(=O)N2CCOCC2)c1)c1ccccc1 (3D coordinates assigned)
CN(C(=O)c1ccc(Cl)c(S(=O)(=O)N2CCOCC2)c1)c1ccccc1 (nonaromatic ring conformer: 63.99161707027711 kcal/mol)

>  <smiles>  (29) 
CN(C(=O)c1ccc(Cl)c(S(=O)(=O)N2CCOCC2)c1)c1ccccc1

>  <score_type>  (29) 
oracle

>  <origin>  (29) 
adg

>  <m_score__min__energy>  (29) 
-9.2799999999999994

>  <m_primary>  (29) 
energy

$$$$
29:0
     RDKit          3D

100104  0  0  0  0  0  0  0  0999 V2000
    2.0410   18.4760  -30.2890 C   0  0  0  0  0  0  0  0  0  0  0  0
    1.4350   18.8850  -28.9300 C   0  0  0  0  0  0  0  0  0  0  0  0
    2.4840   18.5700  -27.8350 C   0  0  0  0  0  0  0  0  0  0  0  0
    0.1480   18.0290  -28.6810 C   0  0  0  0  0  0  0  0  0  0  0  0
   -0.7790   18.5660  -27.5610 C   0  0  0  0  0  0  0  0  0  0  0  0
   -1.1610   20.0500  -27.8070 C   0  0  1  0  0  0  0  0  0  0  0  0
   -2.0280   20.0530  -29.0640 C   0  0  0  0  0  0  0  0  0  0  0  0
   -3.2780   20.2040  -29.0000 O   0  0  0  0  0  0  0  0  0  0  0  0
   -1.4010   20.0100  -30.3180 O   0  0  0  0  0  0  0  0  0  0  0  0
   -1.8270   20.7730  -31.4460 C   0  0  0  0  0  0  0  0  0  0  0  0
   -2.0120   19.8600  -32.6780 C   0  0  0  0  0  0  0  0  0  0  0  0
   -0.7880   19.1180  -33.1120 N   0  0  0  0  0  0  0  0  0  0  0  0
    0.4410   19.9140  -32.8730 C   0  0  0  0  0  0  0  0  0  0  0  0
   -0.7000   17.8730  -32.3100 C   0  0  0  0  0  0  0  0  0  0  0  0
   -0.8670   18.7440  -34.5450 C   0  0  0  0  0  0  0  0  0  0  0  0
   -1.9740   20.6230  -26.6140 C   0  0  0  0  0  0  0  0  0  0  0  0
   -2.2940   22.1490  -26.7190 C   0  0  0  0  0  0  0  0  0  0  0  0
   -1.3070   23.0450  -27.5810 C   0  0  2  0  0  0  0  0  0  0  0  0
   -1.8200   23.0840  -29.0660 C   0  0  0  0  0  0  0  0  0  0  0  0
    0.0600   22.3530  -27.5720 C   0  0  0  0  0  0  0  0  0  0  0  0
    1.0940   22.9030  -26.9180 C   0  0  0  0  0  0  0  0  0  0  0  0
    0.9030   23.7860  -25.7290 C   0  0  0  0  0  0  0  0  0  0  0  0
   -0.4200   24.6220  -25.6500 C   0  0  1  0  0  0  0  0  0  0  0  0
   -0.1310   26.0870  -25.0650 C   0  0  1  0  0  0  0  0  0  0  0  0
   -1.4620   26.7670  -24.6130 C   0  0  0  0  0  0  0  0  0  0  0  0
    0.7560   25.9900  -23.7530 C   0  0  0  0  0  0  0  0  0  0  0  0
    2.0020   26.8890  -23.7660 C   0  0  0  0  0  0  0  0  0  0  0  0
    1.6540   28.3140  -24.2200 C   0  0  2  0  0  0  0  0  0  0  0  0
    0.6970   28.8640  -23.3440 O   0  0  0  0  0  0  0  0  0  0  0  0
    1.1670   28.3540  -25.7230 C   0  0  2  0  0  0  0  0  0  0  0  0
    2.4200   28.6850  -26.5880 C   0  0  0  0  0  0  0  0  0  0  0  0
    0.1440   29.5230  -25.9130 C   0  0  0  0  0  0  0  0  0  0  0  0
   -0.9060   29.4790  -24.9790 O   0  0  0  0  0  0  0  0  0  0  0  0
    0.6010   26.9350  -26.1780 C   0  0  2  0  0  0  0  0  0  0  0  0
   -0.1900   26.9380  -27.5040 C   0  0  0  0  0  0  0  0  0  0  0  0
   -0.4710   25.5180  -28.0300 C   0  0  0  0  0  0  0  0  0  0  0  0
   -1.2230   24.5680  -27.0220 C   0  0  1  0  0  0  0  0  0  0  0  0
   -2.6980   25.0710  -26.8460 C   0  0  0  0  0  0  0  0  0  0  0  0
    0.1800   20.8460  -27.8370 C   0  0  2  0  0  0  0  0  0  0  0  0
    1.1340   20.4230  -28.9690 C   0  0  0  0  0  0  0  0  0  0  0  0
    2.9420   17.8679  -30.1206 H   0  0  0  0  0  0  0  0  0  0  0  0
    1.3040   17.8898  -30.8576 H   0  0  0  0  0  0  0  0  0  0  0  0
    2.3089   19.3787  -30.8576 H   0  0  0  0  0  0  0  0  0  0  0  0
    2.0301   18.7063  -26.8423 H   0  0  0  0  0  0  0  0  0  0  0  0
    2.8252   17.5298  -27.9425 H   0  0  0  0  0  0  0  0  0  0  0  0
    3.3418   19.2502  -27.9425 H   0  0  0  0  0  0  0  0  0  0  0  0
   -0.4286   17.9966  -29.6172 H   0  0  0  0  0  0  0  0  0  0  0  0
    0.4926   17.0378  -28.3511 H   0  0  0  0  0  0  0  0  0  0  0  0
   -1.6965   17.9597  -27.5341 H   0  0  0  0  0  0  0  0  0  0  0  0
   -0.2405   18.5006  -26.6041 H   0  0  0  0  0  0  0  0  0  0  0  0
   -2.7837   21.2627  -31.2114 H   0  0  0  0  0  0  0  0  0  0  0  0
   -1.0605   21.5281  -31.6747 H   0  0  0  0  0  0  0  0  0  0  0  0
   -2.7910   19.1209  -32.4396 H   0  0  0  0  0  0  0  0  0  0  0  0
   -2.2771   20.5252  -33.5130 H   0  0  0  0  0  0  0  0  0  0  0  0
    0.6045   20.0199  -31.7904 H   0  0  0  0  0  0  0  0  0  0  0  0
    1.3031   19.4023  -33.3257 H   0  0  0  0  0  0  0  0  0  0  0  0
    0.3266   20.9100  -33.3257 H   0  0  0  0  0  0  0  0  0  0  0  0
   -0.7178   18.1245  -31.2393 H   0  0  0  0  0  0  0  0  0  0  0  0
   -1.5544   17.2223  -32.5480 H   0  0  0  0  0  0  0  0  0  0  0  0
    0.2374   17.3490  -32.5480 H   0  0  0  0  0  0  0  0  0  0  0  0
   -1.0936   17.6711  -34.6320 H   0  0  0  0  0  0  0  0  0  0  0  0
   -1.6617   19.3274  -35.0329 H   0  0  0  0  0  0  0  0  0  0  0  0
    0.0958   18.9561  -35.0329 H   0  0  0  0  0  0  0  0  0  0  0  0
   -2.9264   20.0760  -26.5534 H   0  0  0  0  0  0  0  0  0  0  0  0
   -1.3466   20.4965  -25.7194 H   0  0  0  0  0  0  0  0  0  0  0  0
   -3.2973   22.2461  -27.1593 H   0  0  0  0  0  0  0  0  0  0  0  0
   -2.1936   22.5287  -25.6915 H   0  0  0  0  0  0  0  0  0  0  0  0
   -2.9168   23.1674  -29.0730 H   0  0  0  0  0  0  0  0  0  0  0  0
   -1.3830   23.9515  -29.5822 H   0  0  0  0  0  0  0  0  0  0  0  0
   -1.5192   22.1604  -29.5822 H   0  0  0  0  0  0  0  0  0  0  0  0
    2.1159   22.6969  -27.2690 H   0  0  0  0  0  0  0  0  0  0  0  0
    0.9419   23.1465  -24.8348 H   0  0  0  0  0  0  0  0  0  0  0  0
    1.7030   24.5368  -25.8078 H   0  0  0  0  0  0  0  0  0  0  0  0
   -1.1080   24.1639  -24.9242 H   0  0  0  0  0  0  0  0  0  0  0  0
   -1.5072   26.7901  -23.5142 H   0  0  0  0  0  0  0  0  0  0  0  0
   -1.4996   27.7948  -25.0032 H   0  0  0  0  0  0  0  0  0  0  0  0
   -2.3168   26.1952  -25.0032 H   0  0  0  0  0  0  0  0  0  0  0  0
    0.1326   26.2771  -22.8934 H   0  0  0  0  0  0  0  0  0  0  0  0
    1.1160   24.9524  -23.6914 H   0  0  0  0  0  0  0  0  0  0  0  0
    2.4261   26.9291  -22.7518 H   0  0  0  0  0  0  0  0  0  0  0  0
    2.7295   26.4657  -24.4742 H   0  0  0  0  0  0  0  0  0  0  0  0
    2.5657   28.9282  -24.1796 H   0  0  0  0  0  0  0  0  0  0  0  0
   -0.1020   28.2750  -23.3730 H   0  0  0  0  0  0  0  0  0  0  0  0
    3.2715   28.9099  -25.9290 H   0  0  0  0  0  0  0  0  0  0  0  0
    2.6659   27.8210  -27.2229 H   0  0  0  0  0  0  0  0  0  0  0  0
    2.2071   29.5577  -27.2229 H   0  0  0  0  0  0  0  0  0  0  0  0
    0.6763   30.4790  -25.8001 H   0  0  0  0  0  0  0  0  0  0  0  0
   -0.2970   29.4205  -26.9155 H   0  0  0  0  0  0  0  0  0  0  0  0
   -0.5210   29.6920  -24.0890 H   0  0  0  0  0  0  0  0  0  0  0  0
    1.5401   26.3978  -26.3768 H   0  0  0  0  0  0  0  0  0  0  0  0
   -1.1501   27.4493  -27.3402 H   0  0  0  0  0  0  0  0  0  0  0  0
    0.4230   27.4563  -28.2561 H   0  0  0  0  0  0  0  0  0  0  0  0
   -1.0857   25.6064  -28.9380 H   0  0  0  0  0  0  0  0  0  0  0  0
    0.5119   25.0578  -28.2093 H   0  0  0  0  0  0  0  0  0  0  0  0
   -2.9327   25.1510  -25.7743 H   0  0  0  0  0  0  0  0  0  0  0  0
   -2.8080   26.0575  -27.3201 H   0  0  0  0  0  0  0  0  0  0  0  0
   -3.3878   24.3573  -27.3201 H   0  0  0  0  0  0  0  0  0  0  0  0
    0.7107   20.5179  -26.9311 H   0  0  0  0  0  0  0  0  0  0  0  0
    0.6720   20.6713  -29.9359 H   0  0  0  0  0  0  0  0  0  0  0  0
    2.0839   20.9615  -28.8358 H   0  0  0  0  0  0  0  0  0  0  0  0
  1  2  1  0
  2  3  1  0
  2  4  1  0
  4  5  1  0
  5  6  1  0
  6  7  1  6
  7  8  2  0
  7  9  1  0
  9 10  1  0
 10 11  1  0
 11 12  1  0
 12 13  1  0
 12 14  1  0
 12 15  1  0
  6 16  1  0
 16 17  1  0
 17 18  1  0
 18 19  1  6
 18 20  1  0
 20 21  2  0
 21 22  1  0
 22 23  1  0
 23 24  1  0
 24 25  1  1
 24 26  1  0
 26 27  1  0
 27 28  1  0
 28 29  1  0
 28 30  1  0
 30 31  1  6
 30 32  1  0
 32 33  1  0
 30 34  1  0
 34 35  1  0
 35 36  1  0
 36 37  1  0
 37 38  1  1
 20 39  1  0
 39 40  1  0
 40  2  1  0
 39  6  1  0
 37 18  1  0
 37 23  1  0
 34 24  1  0
  1 41  1  0
  1 42  1  0
  1 43  1  0
  3 44  1  0
  3 45  1  0
  3 46  1  0
  4 47  1  0
  4 48  1  0
  5 49  1  0
  5 50  1  0
 10 51  1  0
 10 52  1  0
 11 53  1  0
 11 54  1  0
 13 55  1  0
 13 56  1  0
 13 57  1  0
 14 58  1  0
 14 59  1  0
 14 60  1  0
 15 61  1  0
 15 62  1  0
 15 63  1  0
 16 64  1  0
 16 65  1  0
 17 66  1  0
 17 67  1  0
 19 68  1  0
 19 69  1  0
 19 70  1  0
 21 71  1  0
 22 72  1  0
 22 73  1  0
 23 74  1  1
 25 75  1  0
 25 76  1  0
 25 77  1  0
 26 78  1  0
 26 79  1  0
 27 80  1  0
 27 81  1  0
 28 82  1  6
 29 83  1  0
 31 84  1  0
 31 85  1  0
 31 86  1  0
 32 87  1  0
 32 88  1  0
 33 89  1  0
 34 90  1  6
 35 91  1  0
 35 92  1  0
 36 93  1  0
 36 94  1  0
 38 95  1  0
 38 96  1  0
 38 97  1  0
 39 98  1  1
 40 99  1  0
 40100  1  0
M  CHG  1  12   1
M  END
>  <UniqueID>  (30) 
30

>  <SMILES>  (30) 
CC1(C)CC[C@@]2(C(=O)OCC[N+](C)(C)C)CC[C@]3(C)C(=CCC4C5(C)CCC(O)C(C)(CO)C5CCC43C)C2C1

>  <Energy>  (30) 
193.88455210994002

>  <Genealogy>  (30) 
CC1(C)CC[C@@]2(C(=O)OCC[N+](C)(C)C)CC[C@]3(C)C(=CCC4C5(C)CCC(O)C(C)(CO)C5CCC43C)C2C1 (chirality)
CC1(C)CC[C@@]2(C(=O)OCC[N+](C)(C)C)CC[C@]3(C)C(=CCC4C5(C)CCC(O)C(C)(CO)C5CCC43C)C2C1 (3D coordinates assigned)
CC1(C)CC[C@@]2(C(=O)OCC[N+](C)(C)C)CC[C@]3(C)C(=CCC4C5(C)CCC(O)C(C)(CO)C5CCC43C)C2C1 (nonaromatic ring conformer: 193.88455210994002 kcal/mol)

>  <smiles>  (30) 
CC1(C)CCC2(C(=O)OCC[N+](C)(C)C)CCC3(C)C(=CCC4C5(C)CCC(O)C(C)(CO)C5CCC43C)C2C1

>  <score_type>  (30) 
oracle

>  <origin>  (30) 
adg

>  <m_score__min__energy>  (30) 
-8.7599999999999998

>  <m_primary>  (30) 
energy

$$$$
30:0
     RDKit          3D

 40 41  0  0  0  0  0  0  0  0999 V2000
   -2.6310   23.0720  -30.0470 C   0  0  0  0  0  0  0  0  0  0  0  0
   -3.8540   23.7760  -30.5480 C   0  0  0  0  0  0  0  0  0  0  0  0
   -3.8690   25.0370  -30.5760 O   0  0  0  0  0  0  0  0  0  0  0  0
   -5.0260   23.0060  -31.0180 C   0  0  0  0  0  0  0  0  0  0  0  0
   -4.8460   21.8440  -31.4800 O   0  0  0  0  0  0  0  0  0  0  0  0
   -6.3550   23.5880  -31.0220 N   0  0  0  0  0  0  0  0  0  0  0  0
   -7.1800   23.0730  -29.8960 C   0  0  0  0  0  0  0  0  0  0  0  0
   -8.1040   21.9210  -30.3280 C   0  0  0  0  0  0  0  0  0  0  0  0
   -9.0450   22.3280  -31.4040 N   0  0  0  0  0  0  0  0  0  0  0  0
   -9.4740   21.1720  -32.2240 C   0  0  0  0  0  0  0  0  0  0  0  0
   -9.0020   19.8270  -31.6360 C   0  0  0  0  0  0  0  0  0  0  0  0
   -7.8340   19.2260  -32.3810 C   0  0  0  0  0  0  0  0  0  0  0  0
   -7.0090   20.0370  -33.1810 C   0  0  0  0  0  0  0  0  0  0  0  0
   -5.9330   19.4800  -33.8780 C   0  0  0  0  0  0  0  0  0  0  0  0
   -5.6790   18.1080  -33.7950 C   0  0  0  0  0  0  0  0  0  0  0  0
   -6.5050   17.2910  -33.0190 C   0  0  0  0  0  0  0  0  0  0  0  0
   -7.5830   17.8440  -32.3210 C   0  0  0  0  0  0  0  0  0  0  0  0
   -8.5130   23.4240  -32.2560 C   0  0  0  0  0  0  0  0  0  0  0  0
   -6.9810   23.3840  -32.3510 C   0  0  0  0  0  0  0  0  0  0  0  0
   -2.6323   23.0727  -28.9470 H   0  0  0  0  0  0  0  0  0  0  0  0
   -2.6292   22.0347  -30.4130 H   0  0  0  0  0  0  0  0  0  0  0  0
   -1.7331   23.5915  -30.4130 H   0  0  0  0  0  0  0  0  0  0  0  0
   -6.2660   24.6200  -30.8710 H   0  0  0  0  0  0  0  0  0  0  0  0
   -6.5093   22.7102  -29.1032 H   0  0  0  0  0  0  0  0  0  0  0  0
   -7.8146   23.8976  -29.5393 H   0  0  0  0  0  0  0  0  0  0  0  0
   -7.4849   21.0892  -30.6951 H   0  0  0  0  0  0  0  0  0  0  0  0
   -8.7006   21.6213  -29.4538 H   0  0  0  0  0  0  0  0  0  0  0  0
  -10.5726   21.1670  -32.2801 H   0  0  0  0  0  0  0  0  0  0  0  0
   -9.0201   21.2804  -33.2201 H   0  0  0  0  0  0  0  0  0  0  0  0
   -8.7027   19.9891  -30.5900 H   0  0  0  0  0  0  0  0  0  0  0  0
   -9.8413   19.1213  -31.7225 H   0  0  0  0  0  0  0  0  0  0  0  0
   -7.2116   21.1154  -33.2586 H   0  0  0  0  0  0  0  0  0  0  0  0
   -5.2852   20.1223  -34.4927 H   0  0  0  0  0  0  0  0  0  0  0  0
   -4.8292   17.6717  -34.3404 H   0  0  0  0  0  0  0  0  0  0  0  0
   -6.3069   16.2108  -32.9570 H   0  0  0  0  0  0  0  0  0  0  0  0
   -8.2380   17.1944  -31.7219 H   0  0  0  0  0  0  0  0  0  0  0  0
   -8.9346   23.3248  -33.2671 H   0  0  0  0  0  0  0  0  0  0  0  0
   -8.8010   24.3818  -31.7981 H   0  0  0  0  0  0  0  0  0  0  0  0
   -6.6716   22.4054  -32.7468 H   0  0  0  0  0  0  0  0  0  0  0  0
   -6.6524   24.1942  -33.0185 H   0  0  0  0  0  0  0  0  0  0  0  0
  1  2  1  0
  2  3  2  0
  2  4  1  0
  4  5  2  0
  4  6  1  0
  6  7  1  0
  7  8  1  0
  8  9  1  0
  9 10  1  0
 10 11  1  0
 11 12  1  0
 12 13  2  0
 13 14  1  0
 14 15  2  0
 15 16  1  0
 16 17  2  0
  9 18  1  0
 18 19  1  0
 19  6  1  0
 17 12  1  0
  1 20  1  0
  1 21  1  0
  1 22  1  0
  6 23  1  0
  7 24  1  0
  7 25  1  0
  8 26  1  0
  8 27  1  0
 10 28  1  0
 10 29  1  0
 11 30  1  0
 11 31  1  0
 13 32  1  0
 14 33  1  0
 15 34  1  0
 16 35  1  0
 17 36  1  0
 18 37  1  0
 18 38  1  0
 19 39  1  0
 19 40  1  0
M  CHG  1   6   1
M  END
>  <UniqueID>  (31) 
31

>  <SMILES>  (31) 
CC(=O)C(=O)[NH+]1CCN(CCc2ccccc2)CC1

>  <Energy>  (31) 
52.503239486948196

>  <Genealogy>  (31) 
CC(=O)C(=O)[NH+]1CCN(CCc2ccccc2)CC1 (protonated)
CC(=O)C(=O)[NH+]1CCN(CCc2ccccc2)CC1 (3D coordinates assigned)
CC(=O)C(=O)[NH+]1CCN(CCc2ccccc2)CC1 (nonaromatic ring conformer: 52.503239486948196 kcal/mol)

>  <smiles>  (31) 
CC(=O)C(=O)N1CCN(CCc2ccccc2)CC1

>  <score_type>  (31) 
oracle

>  <origin>  (31) 
adg

>  <m_score__min__energy>  (31) 
-7.21

>  <m_primary>  (31) 
energy

$$$$
31:0
     RDKit          3D

 73 77  0  0  0  0  0  0  0  0999 V2000
   -2.1530   25.2820  -29.3380 O   0  0  0  0  0  0  0  0  0  0  0  0
   -2.9370   24.3400  -29.6330 C   0  0  0  0  0  0  0  0  0  0  0  0
   -3.9120   24.5300  -30.6640 N   0  0  0  0  0  0  0  0  0  0  0  0
   -5.1010   23.6950  -30.8030 C   0  0  1  0  0  0  0  0  0  0  0  0
   -6.2420   24.2940  -29.9680 C   0  0  0  0  0  0  0  0  0  0  0  0
   -7.5240   23.4340  -30.0110 C   0  0  0  0  0  0  0  0  0  0  0  0
   -7.6130   22.5050  -31.2400 C   0  0  2  0  0  0  0  0  0  0  0  0
   -6.9150   21.2870  -30.9540 O   0  0  0  0  0  0  0  0  0  0  0  0
   -6.4650   20.3500  -31.8940 C   0  0  0  0  0  0  0  0  0  0  0  0
   -7.2560   19.2740  -32.3340 C   0  0  0  0  0  0  0  0  0  0  0  0
   -6.7370   18.3770  -33.2700 C   0  0  0  0  0  0  0  0  0  0  0  0
   -5.4440   18.5570  -33.7820 C   0  0  0  0  0  0  0  0  0  0  0  0
   -4.8510   17.5750  -34.7600 C   0  0  0  0  0  0  0  0  0  0  0  0
   -5.1660   16.2740  -34.4050 F   0  0  0  0  0  0  0  0  0  0  0  0
   -3.4760   17.7180  -34.7710 F   0  0  0  0  0  0  0  0  0  0  0  0
   -5.3380   17.8070  -36.0340 F   0  0  0  0  0  0  0  0  0  0  0  0
   -4.6790   19.6280  -33.2950 C   0  0  0  0  0  0  0  0  0  0  0  0
   -5.2040   20.4870  -32.3820 N   0  0  0  0  0  0  0  0  0  0  0  0
   -7.0090   23.2010  -32.4750 C   0  0  0  0  0  0  0  0  0  0  0  0
   -5.5170   23.5480  -32.2870 C   0  0  0  0  0  0  0  0  0  0  0  0
   -2.8240   23.0640  -28.9690 N   0  0  0  0  0  0  0  0  0  0  0  0
   -1.6390   22.7500  -28.1510 C   0  0  0  0  0  0  0  0  0  0  0  0
   -1.1210   21.3270  -28.4510 C   0  0  0  0  0  0  0  0  0  0  0  0
   -1.3240   20.9400  -29.9470 C   0  0  0  0  0  0  0  0  0  0  0  0
   -0.4980   21.9140  -30.8560 C   0  0  0  0  0  0  0  0  0  0  0  0
   -0.0430   21.2760  -32.1800 C   0  0  0  0  0  0  0  0  0  0  0  0
   -0.9770   20.2080  -32.5750 N   0  0  0  0  0  0  0  0  0  0  0  0
   -0.7660   19.7890  -33.9730 C   0  0  0  0  0  0  0  0  0  0  0  0
    0.2640   20.6780  -34.6210 C   0  0  0  0  0  0  0  0  0  0  0  0
    1.6100   20.2890  -34.6400 C   0  0  0  0  0  0  0  0  0  0  0  0
    2.5550   21.1080  -35.2630 C   0  0  0  0  0  0  0  0  0  0  0  0
    2.1680   22.2680  -35.8560 N   0  0  0  0  0  0  0  0  0  0  0  0
    0.8670   22.6650  -35.8620 C   0  0  0  0  0  0  0  0  0  0  0  0
   -0.1100   21.8770  -35.2460 C   0  0  0  0  0  0  0  0  0  0  0  0
   -0.8790   19.0590  -31.6500 C   0  0  0  0  0  0  0  0  0  0  0  0
   -0.7940   19.4980  -30.1690 C   0  0  0  0  0  0  0  0  0  0  0  0
   -2.8560   21.0050  -30.3050 C   0  0  0  0  0  0  0  0  0  0  0  0
   -3.6630   21.9360  -29.3840 C   0  0  0  0  0  0  0  0  0  0  0  0
   -4.8716   22.6855  -30.4311 H   0  0  0  0  0  0  0  0  0  0  0  0
   -6.4762   25.2953  -30.3585 H   0  0  0  0  0  0  0  0  0  0  0  0
   -5.9034   24.3354  -28.9222 H   0  0  0  0  0  0  0  0  0  0  0  0
   -8.3931   24.1082  -30.0229 H   0  0  0  0  0  0  0  0  0  0  0  0
   -7.5039   22.7864  -29.1221 H   0  0  0  0  0  0  0  0  0  0  0  0
   -8.6665   22.2762  -31.4588 H   0  0  0  0  0  0  0  0  0  0  0  0
   -8.2757   19.1398  -31.9439 H   0  0  0  0  0  0  0  0  0  0  0  0
   -7.3455   17.5250  -33.6073 H   0  0  0  0  0  0  0  0  0  0  0  0
   -3.6494   19.7729  -33.6540 H   0  0  0  0  0  0  0  0  0  0  0  0
   -7.5663   24.1304  -32.6639 H   0  0  0  0  0  0  0  0  0  0  0  0
   -7.0859   22.5040  -33.3225 H   0  0  0  0  0  0  0  0  0  0  0  0
   -5.3127   24.4983  -32.8019 H   0  0  0  0  0  0  0  0  0  0  0  0
   -4.9349   22.7139  -32.7058 H   0  0  0  0  0  0  0  0  0  0  0  0
   -0.8443   23.4768  -28.3751 H   0  0  0  0  0  0  0  0  0  0  0  0
   -1.9218   22.8034  -27.0893 H   0  0  0  0  0  0  0  0  0  0  0  0
   -0.0478   21.2815  -28.2140 H   0  0  0  0  0  0  0  0  0  0  0  0
   -1.6928   20.6181  -27.8341 H   0  0  0  0  0  0  0  0  0  0  0  0
   -1.1229   22.7892  -31.0873 H   0  0  0  0  0  0  0  0  0  0  0  0
    0.4099   22.1871  -30.2983 H   0  0  0  0  0  0  0  0  0  0  0  0
   -0.0179   22.0460  -32.9651 H   0  0  0  0  0  0  0  0  0  0  0  0
    0.9602   20.8452  -32.0458 H   0  0  0  0  0  0  0  0  0  0  0  0
   -0.4140   18.7470  -33.9930 H   0  0  0  0  0  0  0  0  0  0  0  0
   -1.7146   19.8697  -34.5241 H   0  0  0  0  0  0  0  0  0  0  0  0
    1.9205   19.3453  -34.1677 H   0  0  0  0  0  0  0  0  0  0  0  0
    3.6147   20.8133  -35.2736 H   0  0  0  0  0  0  0  0  0  0  0  0
    0.5830   23.6078  -36.3524 H   0  0  0  0  0  0  0  0  0  0  0  0
   -1.1632   22.1946  -35.2514 H   0  0  0  0  0  0  0  0  0  0  0  0
   -1.7682   18.4246  -31.7797 H   0  0  0  0  0  0  0  0  0  0  0  0
    0.0451   18.5131  -31.8909 H   0  0  0  0  0  0  0  0  0  0  0  0
   -1.3924   18.8042  -29.5602 H   0  0  0  0  0  0  0  0  0  0  0  0
    0.2659   19.4816  -29.8750 H   0  0  0  0  0  0  0  0  0  0  0  0
   -2.9567   21.3657  -31.3393 H   0  0  0  0  0  0  0  0  0  0  0  0
   -3.2616   19.9908  -30.1752 H   0  0  0  0  0  0  0  0  0  0  0  0
   -4.5430   22.3138  -29.9253 H   0  0  0  0  0  0  0  0  0  0  0  0
   -3.9900   21.3770  -28.4948 H   0  0  0  0  0  0  0  0  0  0  0  0
  1  2  2  0
  2  3  1  0
  3  4  1  0
  4  5  1  0
  5  6  1  0
  6  7  1  0
  7  8  1  0
  8  9  1  0
  9 10  2  0
 10 11  1  0
 11 12  2  0
 12 13  1  0
 13 14  1  0
 13 15  1  0
 13 16  1  0
 12 17  1  0
 17 18  2  0
  7 19  1  0
 19 20  1  0
  2 21  1  0
 21 22  1  0
 22 23  1  0
 23 24  1  0
 24 25  1  0
 25 26  1  0
 26 27  1  0
 27 28  1  0
 28 29  1  0
 29 30  2  0
 30 31  1  0
 31 32  2  0
 32 33  1  0
 33 34  2  0
 27 35  1  0
 35 36  1  0
 24 37  1  0
 37 38  1  0
 20  4  1  0
 38 21  1  0
 18  9  1  0
 36 24  1  0
 34 29  1  0
  4 39  1  1
  5 40  1  0
  5 41  1  0
  6 42  1  0
  6 43  1  0
  7 44  1  6
 10 45  1  0
 11 46  1  0
 17 47  1  0
 19 48  1  0
 19 49  1  0
 20 50  1  0
 20 51  1  0
 22 52  1  0
 22 53  1  0
 23 54  1  0
 23 55  1  0
 25 56  1  0
 25 57  1  0
 26 58  1  0
 26 59  1  0
 28 60  1  0
 28 61  1  0
 30 62  1  0
 31 63  1  0
 33 64  1  0
 34 65  1  0
 35 66  1  0
 35 67  1  0
 36 68  1  0
 36 69  1  0
 37 70  1  0
 37 71  1  0
 38 72  1  0
 38 73  1  0
M  CHG  1   3  -1
M  END
>  <UniqueID>  (32) 
32

>  <SMILES>  (32) 
O=C([N-]C1CCC(Oc2ccc(C(F)(F)F)cn2)CC1)N1CCC2(CCN(Cc3ccncc3)CC2)CC1

>  <Energy>  (32) 
94.08334890032378

>  <Genealogy>  (32) 
O=C([N-]C1CCC(Oc2ccc(C(F)(F)F)cn2)CC1)N1CCC2(CCN(Cc3ccncc3)CC2)CC1 (protonated)
O=C([N-]C1CCC(Oc2ccc(C(F)(F)F)cn2)CC1)N1CCC2(CCN(Cc3ccncc3)CC2)CC1 (3D coordinates assigned)
O=C([N-]C1CCC(Oc2ccc(C(F)(F)F)cn2)CC1)N1CCC2(CCN(Cc3ccncc3)CC2)CC1 (nonaromatic ring conformer: 94.08334890032378 kcal/mol)

>  <smiles>  (32) 
O=C(NC1CCC(Oc2ccc(C(F)(F)F)cn2)CC1)N1CCC2(CCN(Cc3ccncc3)CC2)CC1

>  <score_type>  (32) 
oracle

>  <origin>  (32) 
adg

>  <m_score__min__energy>  (32) 
-10.74

>  <m_primary>  (32) 
energy

$$$$
32:0
     RDKit          3D

 29 31  0  0  0  0  0  0  0  0999 V2000
   -2.8730   19.4540  -33.0330 C   0  0  0  0  0  0  0  0  0  0  0  0
   -3.2870   20.7530  -32.4210 C   0  0  0  0  0  0  0  0  0  0  0  0
   -2.3310   21.7180  -32.0780 C   0  0  0  0  0  0  0  0  0  0  0  0
   -2.7340   22.8970  -31.5380 N   0  0  0  0  0  0  0  0  0  0  0  0
   -4.0500   23.1640  -31.3180 C   0  0  0  0  0  0  0  0  0  0  0  0
   -5.0150   22.1910  -31.6560 C   0  0  0  0  0  0  0  0  0  0  0  0
   -4.6030   21.0170  -32.2080 N   0  0  0  0  0  0  0  0  0  0  0  0
   -6.3790   22.4630  -31.4400 C   0  0  0  0  0  0  0  0  0  0  0  0
   -7.4340   21.4720  -31.7670 C   0  0  0  0  0  0  0  0  0  0  0  0
   -7.1310   20.0990  -31.8370 C   0  0  0  0  0  0  0  0  0  0  0  0
   -8.1320   19.1700  -32.1380 C   0  0  0  0  0  0  0  0  0  0  0  0
   -9.4420   19.5990  -32.3660 C   0  0  0  0  0  0  0  0  0  0  0  0
   -9.7540   20.9590  -32.2890 C   0  0  0  0  0  0  0  0  0  0  0  0
   -8.7580   21.8930  -31.9890 C   0  0  0  0  0  0  0  0  0  0  0  0
   -6.7400   23.7090  -30.9060 C   0  0  0  0  0  0  0  0  0  0  0  0
   -5.7530   24.6460  -30.5830 C   0  0  0  0  0  0  0  0  0  0  0  0
   -6.0900   25.7590  -30.0950 O   0  0  0  0  0  0  0  0  0  0  0  0
   -4.4350   24.3610  -30.7900 N   0  0  0  0  0  0  0  0  0  0  0  0
   -3.4790   25.2990  -30.4660 O   0  0  0  0  0  0  0  0  0  0  0  0
   -2.6425   18.7306  -32.2370 H   0  0  0  0  0  0  0  0  0  0  0  0
   -3.6916   19.0649  -33.6562 H   0  0  0  0  0  0  0  0  0  0  0  0
   -1.9802   19.6103  -33.6562 H   0  0  0  0  0  0  0  0  0  0  0  0
   -1.2615   21.5220  -32.2449 H   0  0  0  0  0  0  0  0  0  0  0  0
   -6.1022   19.7554  -31.6541 H   0  0  0  0  0  0  0  0  0  0  0  0
   -7.8875   18.0991  -32.1954 H   0  0  0  0  0  0  0  0  0  0  0  0
  -10.2271   18.8668  -32.6059 H   0  0  0  0  0  0  0  0  0  0  0  0
  -10.7863   21.2956  -32.4650 H   0  0  0  0  0  0  0  0  0  0  0  0
   -9.0106   22.9618  -31.9262 H   0  0  0  0  0  0  0  0  0  0  0  0
   -7.8007   23.9494  -30.7411 H   0  0  0  0  0  0  0  0  0  0  0  0
  1  2  1  0
  2  3  2  0
  3  4  1  0
  4  5  2  0
  5  6  1  0
  6  7  2  0
  6  8  1  0
  8  9  1  0
  9 10  2  0
 10 11  1  0
 11 12  2  0
 12 13  1  0
 13 14  2  0
  8 15  2  0
 15 16  1  0
 16 17  2  0
 16 18  1  0
 18 19  1  0
  7  2  1  0
 14  9  1  0
 18  5  1  0
  1 20  1  0
  1 21  1  0
  1 22  1  0
  3 23  1  0
 10 24  1  0
 11 25  1  0
 12 26  1  0
 13 27  1  0
 14 28  1  0
 15 29  1  0
M  CHG  1  19  -1
M  END
>  <UniqueID>  (33) 
33

>  <SMILES>  (33) 
Cc1cnc2c(n1)c(-c1ccccc1)cc(=O)n2[O-]

>  <Energy>  (33) 
42.53768198331582

>  <Genealogy>  (33) 
Cc1cnc2c(n1)c(-c1ccccc1)cc(=O)n2[O-] (protonated)
Cc1cnc2c(n1)c(-c1ccccc1)cc(=O)n2[O-] (3D coordinates assigned)
Cc1cnc2c(n1)c(-c1ccccc1)cc(=O)n2[O-] (optimized conformer: 42.53768198331582 kcal/mol)

>  <smiles>  (33) 
Cc1cnc2c(n1)c(-c1ccccc1)cc(=O)n2O

>  <score_type>  (33) 
oracle

>  <origin>  (33) 
adg

>  <m_score__min__energy>  (33) 
-10.75

>  <m_primary>  (33) 
energy

$$$$
33:0
     RDKit          3D

 53 56  0  0  0  0  0  0  0  0999 V2000
   -2.0720   24.9200  -28.4390 C   0  0  0  0  0  0  0  0  0  0  0  0
   -2.9440   25.2870  -29.5030 O   0  0  0  0  0  0  0  0  0  0  0  0
   -3.9940   24.4880  -29.9790 C   0  0  0  0  0  0  0  0  0  0  0  0
   -4.0460   23.1480  -29.5750 C   0  0  0  0  0  0  0  0  0  0  0  0
   -5.0690   22.3100  -30.0250 C   0  0  0  0  0  0  0  0  0  0  0  0
   -6.0540   22.8020  -30.8940 C   0  0  0  0  0  0  0  0  0  0  0  0
   -7.1230   21.9150  -31.3950 C   0  0  0  0  0  0  0  0  0  0  0  0
   -8.4430   22.3940  -31.4100 C   0  0  0  0  0  0  0  0  0  0  0  0
   -9.4820   21.5940  -31.8880 C   0  0  0  0  0  0  0  0  0  0  0  0
   -9.2130   20.3090  -32.3620 C   0  0  0  0  0  0  0  0  0  0  0  0
   -7.9050   19.8220  -32.3660 C   0  0  0  0  0  0  0  0  0  0  0  0
   -6.8450   20.6150  -31.8890 C   0  0  0  0  0  0  0  0  0  0  0  0
   -5.4330   20.0720  -31.9540 C   0  0  0  0  0  0  0  0  0  0  0  0
   -4.8280   20.2920  -33.2890 N   0  0  0  0  0  0  0  0  0  0  0  0
   -3.9540   19.1790  -33.7250 C   0  0  0  0  0  0  0  0  0  0  0  0
   -2.6960   19.0620  -32.8490 C   0  0  0  0  0  0  0  0  0  0  0  0
   -2.2340   20.3900  -32.4310 N   0  0  0  0  0  0  0  0  0  0  0  0
   -1.4220   20.5390  -31.2500 C   0  0  0  0  0  0  0  0  0  0  0  0
   -0.7860   19.4220  -30.6790 C   0  0  0  0  0  0  0  0  0  0  0  0
   -0.0110   19.5650  -29.5230 C   0  0  0  0  0  0  0  0  0  0  0  0
    0.1290   20.8190  -28.9240 C   0  0  0  0  0  0  0  0  0  0  0  0
   -0.5080   21.9330  -29.4770 C   0  0  0  0  0  0  0  0  0  0  0  0
   -1.2830   21.7950  -30.6340 C   0  0  0  0  0  0  0  0  0  0  0  0
   -2.6230   21.5480  -33.2410 C   0  0  0  0  0  0  0  0  0  0  0  0
   -4.1570   21.6140  -33.3880 C   0  0  0  0  0  0  0  0  0  0  0  0
   -6.0150   24.1470  -31.2900 C   0  0  0  0  0  0  0  0  0  0  0  0
   -4.9910   24.9850  -30.8400 C   0  0  0  0  0  0  0  0  0  0  0  0
   -2.5618   25.1261  -27.4759 H   0  0  0  0  0  0  0  0  0  0  0  0
   -1.8387   23.8473  -28.5096 H   0  0  0  0  0  0  0  0  0  0  0  0
   -1.1419   25.5030  -28.5096 H   0  0  0  0  0  0  0  0  0  0  0  0
   -3.2749   22.7522  -28.8977 H   0  0  0  0  0  0  0  0  0  0  0  0
   -5.1022   21.2606  -29.6967 H   0  0  0  0  0  0  0  0  0  0  0  0
   -8.6598   23.4077  -31.0421 H   0  0  0  0  0  0  0  0  0  0  0  0
  -10.5134   21.9764  -31.8912 H   0  0  0  0  0  0  0  0  0  0  0  0
  -10.0342   19.6784  -32.7334 H   0  0  0  0  0  0  0  0  0  0  0  0
   -7.7011   18.8098  -32.7452 H   0  0  0  0  0  0  0  0  0  0  0  0
   -4.8194   20.5798  -31.1953 H   0  0  0  0  0  0  0  0  0  0  0  0
   -5.4705   18.9888  -31.7660 H   0  0  0  0  0  0  0  0  0  0  0  0
   -4.5194   18.2375  -33.6632 H   0  0  0  0  0  0  0  0  0  0  0  0
   -3.6332   19.3814  -34.7575 H   0  0  0  0  0  0  0  0  0  0  0  0
   -2.9310   18.4633  -31.9566 H   0  0  0  0  0  0  0  0  0  0  0  0
   -1.9003   18.5768  -33.4333 H   0  0  0  0  0  0  0  0  0  0  0  0
   -0.8985   18.4313  -31.1435 H   0  0  0  0  0  0  0  0  0  0  0  0
    0.4889   18.6884  -29.0851 H   0  0  0  0  0  0  0  0  0  0  0  0
    0.7409   20.9297  -28.0166 H   0  0  0  0  0  0  0  0  0  0  0  0
   -0.4001   22.9195  -29.0024 H   0  0  0  0  0  0  0  0  0  0  0  0
   -1.7860   22.6738  -31.0637 H   0  0  0  0  0  0  0  0  0  0  0  0
   -2.2663   22.4671  -32.7532 H   0  0  0  0  0  0  0  0  0  0  0  0
   -2.1739   21.4500  -34.2403 H   0  0  0  0  0  0  0  0  0  0  0  0
   -4.5535   22.2641  -32.5942 H   0  0  0  0  0  0  0  0  0  0  0  0
   -4.3651   22.0034  -34.3955 H   0  0  0  0  0  0  0  0  0  0  0  0
   -6.7938   24.5440  -31.9577 H   0  0  0  0  0  0  0  0  0  0  0  0
   -4.9639   26.0371  -31.1598 H   0  0  0  0  0  0  0  0  0  0  0  0
  1  2  1  0
  2  3  1  0
  3  4  2  0
  4  5  1  0
  5  6  2  0
  6  7  1  0
  7  8  2  0
  8  9  1  0
  9 10  2  0
 10 11  1  0
 11 12  2  0
 12 13  1  0
 13 14  1  0
 14 15  1  0
 15 16  1  0
 16 17  1  0
 17 18  1  0
 18 19  2  0
 19 20  1  0
 20 21  2  0
 21 22  1  0
 22 23  2  0
 17 24  1  0
 24 25  1  0
  6 26  1  0
 26 27  2  0
 27  3  1  0
 12  7  1  0
 25 14  1  0
 23 18  1  0
  1 28  1  0
  1 29  1  0
  1 30  1  0
  4 31  1  0
  5 32  1  0
  8 33  1  0
  9 34  1  0
 10 35  1  0
 11 36  1  0
 13 37  1  0
 13 38  1  0
 15 39  1  0
 15 40  1  0
 16 41  1  0
 16 42  1  0
 19 43  1  0
 20 44  1  0
 21 45  1  0
 22 46  1  0
 23 47  1  0
 24 48  1  0
 24 49  1  0
 25 50  1  0
 25 51  1  0
 26 52  1  0
 27 53  1  0
M  END
>  <UniqueID>  (34) 
34

>  <SMILES>  (34) 
COc1ccc(-c2ccccc2CN2CCN(c3ccccc3)CC2)cc1

>  <Energy>  (34) 
75.03696620300325

>  <Genealogy>  (34) 
COc1ccc(-c2ccccc2CN2CCN(c3ccccc3)CC2)cc1 (3D coordinates assigned)
COc1ccc(-c2ccccc2CN2CCN(c3ccccc3)CC2)cc1 (nonaromatic ring conformer: 75.03696620300325 kcal/mol)

>  <smiles>  (34) 
COc1ccc(-c2ccccc2CN2CCN(c3ccccc3)CC2)cc1

>  <score_type>  (34) 
oracle

>  <origin>  (34) 
adg

>  <m_score__min__energy>  (34) 
-8.8599999999999994

>  <m_primary>  (34) 
energy

$$$$
34:0
     RDKit          3D

 70 75  0  0  0  0  0  0  0  0999 V2000
   -9.5907   18.8110  -30.5936 H   0  0  0  0  0  0  0  0  0  0  0  0
   -8.7920   18.9270  -31.3410 C   0  0  0  0  0  0  0  0  0  0  0  0
   -8.2450   17.7990  -31.9560 C   0  0  0  0  0  0  0  0  0  0  0  0
   -8.6096   16.7967  -31.6868 H   0  0  0  0  0  0  0  0  0  0  0  0
   -7.2320   17.9400  -32.9160 C   0  0  0  0  0  0  0  0  0  0  0  0
   -6.6120   16.7280  -33.5450 C   0  0  0  0  0  0  0  0  0  0  0  0
   -6.2623   16.0444  -32.7573 H   0  0  0  0  0  0  0  0  0  0  0  0
   -7.3591   16.2163  -34.1695 H   0  0  0  0  0  0  0  0  0  0  0  0
   -5.7599   17.0343  -34.1695 H   0  0  0  0  0  0  0  0  0  0  0  0
   -6.7540   19.2210  -33.2340 C   0  0  0  0  0  0  0  0  0  0  0  0
   -5.9381   19.3340  -33.9630 H   0  0  0  0  0  0  0  0  0  0  0  0
   -7.3110   20.3610  -32.6270 C   0  0  0  0  0  0  0  0  0  0  0  0
   -6.8000   21.7360  -32.9800 C   0  0  0  0  0  0  0  0  0  0  0  0
   -6.4333   21.7268  -34.0171 H   0  0  0  0  0  0  0  0  0  0  0  0
   -7.6259   22.4535  -32.8659 H   0  0  0  0  0  0  0  0  0  0  0  0
   -5.6650   22.1580  -32.0560 C   0  0  0  0  0  0  0  0  0  0  0  0
   -5.8320   23.2110  -31.1170 C   0  0  0  0  0  0  0  0  0  0  0  0
   -4.7200   23.6160  -30.3490 C   0  0  0  0  0  0  0  0  0  0  0  0
   -3.5350   22.9700  -30.4760 N   0  0  0  0  0  0  0  0  0  0  0  0
   -3.3290   21.9520  -31.3470 C   0  0  0  0  0  0  0  0  0  0  0  0
   -2.0620   21.3120  -31.4610 C   0  0  0  0  0  0  0  0  0  0  0  0
   -1.0170   21.6480  -30.7430 N   0  0  0  0  0  0  0  0  0  0  0  0
   -0.4740   21.0180  -29.5390 C   0  0  0  0  0  0  0  0  0  0  0  0
   -0.4313   19.9290  -29.6884 H   0  0  0  0  0  0  0  0  0  0  0  0
    0.5347   21.4159  -29.3540 H   0  0  0  0  0  0  0  0  0  0  0  0
   -1.3580   21.3260  -28.3250 C   0  0  0  0  0  0  0  0  0  0  0  0
   -2.1132   22.0694  -28.6200 H   0  0  0  0  0  0  0  0  0  0  0  0
   -1.8192   20.3806  -28.0033 H   0  0  0  0  0  0  0  0  0  0  0  0
   -0.5610   21.8820  -27.1310 C   0  0  0  0  0  0  0  0  0  0  0  0
   -0.9939   21.4877  -26.1998 H   0  0  0  0  0  0  0  0  0  0  0  0
    0.4871   21.5682  -27.2447 H   0  0  0  0  0  0  0  0  0  0  0  0
   -0.5950   23.3610  -27.0860 N   0  0  0  0  0  0  0  0  0  0  0  0
   -1.9820   23.8740  -26.9480 C   0  0  0  0  0  0  0  0  0  0  0  0
   -2.6678   23.1985  -27.4803 H   0  0  0  0  0  0  0  0  0  0  0  0
   -2.2294   23.9179  -25.8771 H   0  0  0  0  0  0  0  0  0  0  0  0
   -2.1190   25.2890  -27.5340 C   0  0  0  0  0  0  0  0  0  0  0  0
   -3.1534   25.6308  -27.3818 H   0  0  0  0  0  0  0  0  0  0  0  0
   -1.3895   25.9277  -27.0145 H   0  0  0  0  0  0  0  0  0  0  0  0
   -1.8220   25.3560  -28.9220 O   0  0  0  0  0  0  0  0  0  0  0  0
   -0.8570   24.4020  -29.3460 C   0  0  0  0  0  0  0  0  0  0  0  0
   -1.3880   23.5101  -29.7100 H   0  0  0  0  0  0  0  0  0  0  0  0
   -0.2545   24.8834  -30.1304 H   0  0  0  0  0  0  0  0  0  0  0  0
    0.1180   23.9670  -28.2360 C   0  0  0  0  0  0  0  0  0  0  0  0
    0.8213   23.2286  -28.6486 H   0  0  0  0  0  0  0  0  0  0  0  0
    0.6498   24.8606  -27.8773 H   0  0  0  0  0  0  0  0  0  0  0  0
   -1.9160   20.2650  -32.4020 C   0  0  0  0  0  0  0  0  0  0  0  0
   -0.6940   19.5800  -32.5790 C   0  0  0  0  0  0  0  0  0  0  0  0
    0.1775   19.8527  -31.9658 H   0  0  0  0  0  0  0  0  0  0  0  0
   -0.5820   18.5590  -33.5260 C   0  0  0  0  0  0  0  0  0  0  0  0
    0.3762   18.0346  -33.6559 H   0  0  0  0  0  0  0  0  0  0  0  0
   -1.6820   18.2020  -34.3080 C   0  0  0  0  0  0  0  0  0  0  0  0
   -1.5891   17.3980  -35.0529 H   0  0  0  0  0  0  0  0  0  0  0  0
   -2.9000   18.8650  -34.1450 C   0  0  0  0  0  0  0  0  0  0  0  0
   -3.7660   18.5805  -34.7607 H   0  0  0  0  0  0  0  0  0  0  0  0
   -3.0220   19.8910  -33.2000 C   0  0  0  0  0  0  0  0  0  0  0  0
   -4.2100   20.5240  -33.0550 N   0  0  0  0  0  0  0  0  0  0  0  0
   -4.4020   21.5300  -32.1630 C   0  0  0  0  0  0  0  0  0  0  0  0
   -4.8220   24.7100  -29.3250 C   0  0  0  0  0  0  0  0  0  0  0  0
   -4.8962   24.2571  -28.3253 H   0  0  0  0  0  0  0  0  0  0  0  0
   -3.9244   25.3407  -29.4056 H   0  0  0  0  0  0  0  0  0  0  0  0
   -6.0480   25.5920  -29.5620 C   0  0  0  0  0  0  0  0  0  0  0  0
   -6.2022   26.2404  -28.6869 H   0  0  0  0  0  0  0  0  0  0  0  0
   -5.8787   26.2027  -30.4611 H   0  0  0  0  0  0  0  0  0  0  0  0
   -7.2410   24.7670  -29.7670 N   0  0  0  0  0  0  0  0  0  0  0  0
   -7.3440   24.1030  -28.9630 H   0  0  0  0  0  0  0  0  0  0  0  0
   -7.1340   23.9950  -31.0130 C   0  0  0  0  0  0  0  0  0  0  0  0
   -7.9744   23.2868  -31.0599 H   0  0  0  0  0  0  0  0  0  0  0  0
   -7.1542   24.7118  -31.8472 H   0  0  0  0  0  0  0  0  0  0  0  0
   -8.3280   20.2020  -31.6720 C   0  0  0  0  0  0  0  0  0  0  0  0
   -8.7615   21.0863  -31.1820 H   0  0  0  0  0  0  0  0  0  0  0  0
  1  2  1  0
  2  3  2  0
  3  4  1  0
  3  5  1  0
  5  6  1  0
  6  7  1  0
  6  8  1  0
  6  9  1  0
  5 10  2  0
 10 11  1  0
 10 12  1  0
 12 13  1  0
 13 14  1  0
 13 15  1  0
 13 16  1  0
 16 17  2  0
 17 18  1  0
 18 19  2  0
 19 20  1  0
 20 21  1  0
 21 22  2  0
 22 23  1  0
 23 24  1  0
 23 25  1  0
 23 26  1  0
 26 27  1  0
 26 28  1  0
 26 29  1  0
 29 30  1  0
 29 31  1  0
 29 32  1  0
 32 33  1  0
 33 34  1  0
 33 35  1  0
 33 36  1  0
 36 37  1  0
 36 38  1  0
 36 39  1  0
 39 40  1  0
 40 41  1  0
 40 42  1  0
 40 43  1  0
 43 44  1  0
 43 45  1  0
 21 46  1  0
 46 47  2  0
 47 48  1  0
 47 49  1  0
 49 50  1  0
 49 51  2  0
 51 52  1  0
 51 53  1  0
 53 54  1  0
 53 55  2  0
 55 56  1  0
 56 57  1  0
 18 58  1  0
 58 59  1  0
 58 60  1  0
 58 61  1  0
 61 62  1  0
 61 63  1  0
 61 64  1  0
 64 65  1  0
 64 66  1  0
 66 67  1  0
 66 68  1  0
 12 69  2  0
 69 70  1  0
 69  2  1  0
 57 16  1  0
 66 17  1  0
 57 20  2  0
 43 32  1  0
 55 46  1  0
M  CHG  1  56  -1
M  END
>  <UniqueID>  (35) 
35

>  <SMILES>  (35) 
Cc1cccc(Cc2c3c(nc4/c(=N\CCCN5CCOCC5)c5ccccc5[n-]c24)CCNC3)c1

>  <Energy>  (35) 
102.23123245699563

>  <Genealogy>  (35) 
Cc1cccc(Cc2c3c(nc4c(=NCCCN5CCOCC5)c5ccccc5[n-]c24)CCNC3)c1 (protonated)
Cc1cccc(Cc2c3c(nc4/c(=N\CCCN5CCOCC5)c5ccccc5[n-]c24)CCNC3)c1 (cis-trans isomerization)
Cc1cccc(Cc2c3c(nc4/c(=N\CCCN5CCOCC5)c5ccccc5[n-]c24)CCNC3)c1 (3D coordinates assigned)
Cc1cccc(Cc2c3c(nc4/c(=N\CCCN5CCOCC5)c5ccccc5[n-]c24)CCNC3)c1 (nonaromatic ring conformer: 102.23123245699563 kcal/mol)

>  <smiles>  (35) 
Cc1cccc(Cc2c3c(nc4c(=NCCCN5CCOCC5)c5ccccc5[nH]c24)CCNC3)c1

>  <score_type>  (35) 
oracle

>  <origin>  (35) 
adg

>  <m_score__min__energy>  (35) 
-11.029999999999999

>  <m_primary>  (35) 
energy

$$$$
35:0
     RDKit          3D

 55 57  0  0  0  0  0  0  0  0999 V2000
   -1.1900   26.3460  -27.5490 C   0  0  0  0  0  0  0  0  0  0  0  0
   -1.7440   25.8770  -28.7740 O   0  0  0  0  0  0  0  0  0  0  0  0
   -1.7150   24.5400  -29.1990 C   0  0  0  0  0  0  0  0  0  0  0  0
   -0.7120   23.6460  -28.7820 C   0  0  0  0  0  0  0  0  0  0  0  0
   -0.7100   22.3250  -29.2320 C   0  0  0  0  0  0  0  0  0  0  0  0
   -1.7100   21.8720  -30.1040 C   0  0  0  0  0  0  0  0  0  0  0  0
   -1.6740   20.4640  -30.6380 C   0  0  0  0  0  0  0  0  0  0  0  0
   -0.5570   20.2620  -31.6770 C   0  0  0  0  0  0  0  0  0  0  0  0
   -0.9210   19.2890  -32.7300 N   0  0  0  0  0  0  0  0  0  0  0  0
   -1.7090   19.9100  -33.8070 C   0  0  0  0  0  0  0  0  0  0  0  0
   -3.1600   20.0120  -33.4110 C   0  0  0  0  0  0  0  0  0  0  0  0
   -3.9260   18.8510  -33.2300 C   0  0  0  0  0  0  0  0  0  0  0  0
   -5.2610   18.9420  -32.8280 C   0  0  0  0  0  0  0  0  0  0  0  0
   -5.8510   20.1960  -32.5960 C   0  0  0  0  0  0  0  0  0  0  0  0
   -7.2240   20.2950  -32.1720 N   0  0  0  0  0  0  0  0  0  0  0  0
   -8.0220   19.0830  -31.9440 C   0  0  0  0  0  0  0  0  0  0  0  0
   -9.4940   19.2930  -32.3740 C   0  0  0  0  0  0  0  0  0  0  0  0
   -9.8100   20.6370  -32.7010 O   0  0  0  0  0  0  0  0  0  0  0  0
   -9.3130   21.5070  -31.7070 C   0  0  0  0  0  0  0  0  0  0  0  0
   -7.7930   21.6050  -31.8300 C   0  0  0  0  0  0  0  0  0  0  0  0
   -5.0750   21.3550  -32.7590 C   0  0  0  0  0  0  0  0  0  0  0  0
   -3.7390   21.2640  -33.1600 C   0  0  0  0  0  0  0  0  0  0  0  0
   -2.7140   22.7580  -30.5190 C   0  0  0  0  0  0  0  0  0  0  0  0
   -2.7220   24.0940  -30.0710 C   0  0  0  0  0  0  0  0  0  0  0  0
   -3.7090   25.0080  -30.4710 O   0  0  0  0  0  0  0  0  0  0  0  0
   -5.1080   24.8150  -30.2910 C   0  0  0  0  0  0  0  0  0  0  0  0
   -1.7283   25.8903  -26.7049 H   0  0  0  0  0  0  0  0  0  0  0  0
   -0.1265   26.0695  -27.4979 H   0  0  0  0  0  0  0  0  0  0  0  0
   -1.2872   27.4405  -27.4979 H   0  0  0  0  0  0  0  0  0  0  0  0
    0.0762   23.9906  -28.0964 H   0  0  0  0  0  0  0  0  0  0  0  0
    0.0804   21.6355  -28.9007 H   0  0  0  0  0  0  0  0  0  0  0  0
   -1.5067   19.7718  -29.7996 H   0  0  0  0  0  0  0  0  0  0  0  0
   -2.6355   20.2678  -31.1350 H   0  0  0  0  0  0  0  0  0  0  0  0
   -0.3407   21.2299  -32.1528 H   0  0  0  0  0  0  0  0  0  0  0  0
    0.3198   19.8624  -31.1464 H   0  0  0  0  0  0  0  0  0  0  0  0
   -1.5020   18.5330  -32.2970 H   0  0  0  0  0  0  0  0  0  0  0  0
   -0.0650   18.8340  -33.1290 H   0  0  0  0  0  0  0  0  0  0  0  0
   -1.3170   20.9182  -34.0067 H   0  0  0  0  0  0  0  0  0  0  0  0
   -1.6305   19.2858  -34.7093 H   0  0  0  0  0  0  0  0  0  0  0  0
   -3.4734   17.8639  -33.4054 H   0  0  0  0  0  0  0  0  0  0  0  0
   -5.8542   18.0257  -32.6922 H   0  0  0  0  0  0  0  0  0  0  0  0
   -7.5923   18.2554  -32.5275 H   0  0  0  0  0  0  0  0  0  0  0  0
   -8.0029   18.8505  -30.8690 H   0  0  0  0  0  0  0  0  0  0  0  0
   -9.6901   18.6663  -33.2565 H   0  0  0  0  0  0  0  0  0  0  0  0
  -10.1211   19.0173  -31.5133 H   0  0  0  0  0  0  0  0  0  0  0  0
   -9.7566   22.5050  -31.8380 H   0  0  0  0  0  0  0  0  0  0  0  0
   -9.5761   21.1166  -30.7129 H   0  0  0  0  0  0  0  0  0  0  0  0
   -7.5386   22.3283  -32.6188 H   0  0  0  0  0  0  0  0  0  0  0  0
   -7.3766   21.9357  -30.8671 H   0  0  0  0  0  0  0  0  0  0  0  0
   -5.5219   22.3421  -32.5697 H   0  0  0  0  0  0  0  0  0  0  0  0
   -3.1394   22.1785  -33.2791 H   0  0  0  0  0  0  0  0  0  0  0  0
   -3.5028   22.4071  -31.2006 H   0  0  0  0  0  0  0  0  0  0  0  0
   -5.3384   24.7832  -29.2159 H   0  0  0  0  0  0  0  0  0  0  0  0
   -5.6560   25.6461  -30.7590 H   0  0  0  0  0  0  0  0  0  0  0  0
   -5.4105   23.8666  -30.7590 H   0  0  0  0  0  0  0  0  0  0  0  0
  1  2  1  0
  2  3  1  0
  3  4  2  0
  4  5  1  0
  5  6  2  0
  6  7  1  0
  7  8  1  0
  8  9  1  0
  9 10  1  0
 10 11  1  0
 11 12  2  0
 12 13  1  0
 13 14  2  0
 14 15  1  0
 15 16  1  0
 16 17  1  0
 17 18  1  0
 18 19  1  0
 19 20  1  0
 14 21  1  0
 21 22  2  0
  6 23  1  0
 23 24  2  0
 24 25  1  0
 25 26  1  0
 24  3  1  0
 22 11  1  0
 20 15  1  0
  1 27  1  0
  1 28  1  0
  1 29  1  0
  4 30  1  0
  5 31  1  0
  7 32  1  0
  7 33  1  0
  8 34  1  0
  8 35  1  0
  9 36  1  0
  9 37  1  0
 10 38  1  0
 10 39  1  0
 12 40  1  0
 13 41  1  0
 16 42  1  0
 16 43  1  0
 17 44  1  0
 17 45  1  0
 19 46  1  0
 19 47  1  0
 20 48  1  0
 20 49  1  0
 21 50  1  0
 22 51  1  0
 23 52  1  0
 26 53  1  0
 26 54  1  0
 26 55  1  0
M  CHG  1   9   1
M  END
>  <UniqueID>  (36) 
36

>  <SMILES>  (36) 
COc1ccc(CC[NH2+]Cc2ccc(N3CCOCC3)cc2)cc1OC

>  <Energy>  (36) 
62.91065037630527

>  <Genealogy>  (36) 
COc1ccc(CC[NH2+]Cc2ccc(N3CCOCC3)cc2)cc1OC (protonated)
COc1ccc(CC[NH2+]Cc2ccc(N3CCOCC3)cc2)cc1OC (3D coordinates assigned)
COc1ccc(CC[NH2+]Cc2ccc(N3CCOCC3)cc2)cc1OC (nonaromatic ring conformer: 62.91065037630527 kcal/mol)

>  <smiles>  (36) 
COc1ccc(CCNCc2ccc(N3CCOCC3)cc2)cc1OC

>  <score_type>  (36) 
oracle

>  <origin>  (36) 
adg

>  <m_score__min__energy>  (36) 
-7.54

>  <m_primary>  (36) 
energy

$$$$
37:0
     RDKit          3D

 46 48  0  0  0  0  0  0  0  0999 V2000
   -2.3530   24.7110  -28.4630 C   0  0  0  0  0  0  0  0  0  0  0  0
   -3.0230   24.9880  -29.6880 O   0  0  0  0  0  0  0  0  0  0  0  0
   -4.0680   24.2130  -30.2120 C   0  0  0  0  0  0  0  0  0  0  0  0
   -3.8380   23.0420  -30.9560 C   0  0  0  0  0  0  0  0  0  0  0  0
   -4.9130   22.3130  -31.4750 C   0  0  0  0  0  0  0  0  0  0  0  0
   -6.2370   22.7370  -31.2610 C   0  0  0  0  0  0  0  0  0  0  0  0
   -7.3500   22.0300  -31.8570 N   0  0  0  0  0  0  0  0  0  0  0  0
   -7.1680   21.2560  -33.0890 C   0  0  0  0  0  0  0  0  0  0  0  0
   -8.1040   20.0300  -33.1260 C   0  0  0  0  0  0  0  0  0  0  0  0
   -8.4560   19.5250  -31.7780 N   0  0  0  0  0  0  0  0  0  0  0  0
   -7.5700   18.4780  -31.2230 C   0  0  0  0  0  0  0  0  0  0  0  0
   -6.5000   18.0100  -32.1860 C   0  0  0  0  0  0  0  0  0  0  0  0
   -5.2410   18.6330  -32.2150 C   0  0  0  0  0  0  0  0  0  0  0  0
   -4.2650   18.2170  -33.1250 C   0  0  0  0  0  0  0  0  0  0  0  0
   -4.5380   17.1800  -34.0280 C   0  0  0  0  0  0  0  0  0  0  0  0
   -3.5000   16.7440  -35.0180 C   0  0  0  0  0  0  0  0  0  0  0  0
   -5.7690   16.5110  -33.9570 C   0  0  0  0  0  0  0  0  0  0  0  0
   -6.7370   16.9150  -33.0320 C   0  0  0  0  0  0  0  0  0  0  0  0
   -8.9620   20.5270  -30.8060 C   0  0  0  0  0  0  0  0  0  0  0  0
   -8.6670   21.9720  -31.2230 C   0  0  0  0  0  0  0  0  0  0  0  0
   -6.4580   23.9000  -30.5020 C   0  0  0  0  0  0  0  0  0  0  0  0
   -5.3840   24.6280  -29.9850 C   0  0  0  0  0  0  0  0  0  0  0  0
   -3.0052   24.9806  -27.6192 H   0  0  0  0  0  0  0  0  0  0  0  0
   -2.1112   23.6391  -28.4116 H   0  0  0  0  0  0  0  0  0  0  0  0
   -1.4249   25.2992  -28.4116 H   0  0  0  0  0  0  0  0  0  0  0  0
   -2.8079   22.6978  -31.1306 H   0  0  0  0  0  0  0  0  0  0  0  0
   -4.7211   21.3991  -32.0563 H   0  0  0  0  0  0  0  0  0  0  0  0
   -7.3881   21.9007  -33.9527 H   0  0  0  0  0  0  0  0  0  0  0  0
   -6.1280   20.8992  -33.1237 H   0  0  0  0  0  0  0  0  0  0  0  0
   -9.0308   20.3130  -33.6466 H   0  0  0  0  0  0  0  0  0  0  0  0
   -7.5674   19.2239  -33.6478 H   0  0  0  0  0  0  0  0  0  0  0  0
   -7.0771   18.8805  -30.3258 H   0  0  0  0  0  0  0  0  0  0  0  0
   -8.2037   17.6070  -31.0001 H   0  0  0  0  0  0  0  0  0  0  0  0
   -5.0218   19.4540  -31.5165 H   0  0  0  0  0  0  0  0  0  0  0  0
   -3.2792   18.7050  -33.1326 H   0  0  0  0  0  0  0  0  0  0  0  0
   -2.6147   16.3722  -34.4813 H   0  0  0  0  0  0  0  0  0  0  0  0
   -3.9097   15.9419  -35.6495 H   0  0  0  0  0  0  0  0  0  0  0  0
   -3.2140   17.5980  -35.6495 H   0  0  0  0  0  0  0  0  0  0  0  0
   -5.9735   15.6660  -34.6310 H   0  0  0  0  0  0  0  0  0  0  0  0
   -7.6908   16.3709  -32.9669 H   0  0  0  0  0  0  0  0  0  0  0  0
  -10.0512   20.4051  -30.7126 H   0  0  0  0  0  0  0  0  0  0  0  0
   -8.4442   20.3489  -29.8520 H   0  0  0  0  0  0  0  0  0  0  0  0
   -9.4333   22.3134  -31.9345 H   0  0  0  0  0  0  0  0  0  0  0  0
   -8.6793   22.6226  -30.3361 H   0  0  0  0  0  0  0  0  0  0  0  0
   -7.4871   24.2398  -30.3136 H   0  0  0  0  0  0  0  0  0  0  0  0
   -5.5750   25.5359  -29.3940 H   0  0  0  0  0  0  0  0  0  0  0  0
  1  2  1  0
  2  3  1  0
  3  4  2  0
  4  5  1  0
  5  6  2  0
  6  7  1  0
  7  8  1  0
  8  9  1  0
  9 10  1  0
 10 11  1  0
 11 12  1  0
 12 13  2  0
 13 14  1  0
 14 15  2  0
 15 16  1  0
 15 17  1  0
 17 18  2  0
 10 19  1  0
 19 20  1  0
  6 21  1  0
 21 22  2  0
 22  3  1  0
 20  7  1  0
 18 12  1  0
  1 23  1  0
  1 24  1  0
  1 25  1  0
  4 26  1  0
  5 27  1  0
  8 28  1  0
  8 29  1  0
  9 30  1  0
  9 31  1  0
 11 32  1  0
 11 33  1  0
 13 34  1  0
 14 35  1  0
 16 36  1  0
 16 37  1  0
 16 38  1  0
 17 39  1  0
 18 40  1  0
 19 41  1  0
 19 42  1  0
 20 43  1  0
 20 44  1  0
 21 45  1  0
 22 46  1  0
M  END
>  <UniqueID>  (37) 
37

>  <SMILES>  (37) 
COc1ccc(N2CCN(Cc3ccc(C)cc3)CC2)cc1

>  <Energy>  (37) 
58.30196797458974

>  <Genealogy>  (37) 
COc1ccc(N2CCN(Cc3ccc(C)cc3)CC2)cc1 (3D coordinates assigned)
COc1ccc(N2CCN(Cc3ccc(C)cc3)CC2)cc1 (nonaromatic ring conformer: 58.30196797458974 kcal/mol)

>  <smiles>  (37) 
COc1ccc(N2CCN(Cc3ccc(C)cc3)CC2)cc1

>  <score_type>  (37) 
oracle

>  <origin>  (37) 
adg

>  <m_score__min__energy>  (37) 
-7.7599999999999998

>  <m_primary>  (37) 
energy

$$$$
38:0
     RDKit          3D

 38 41  0  0  0  0  0  0  0  0999 V2000
   -9.3190   21.4780  -31.8140 C   0  0  0  0  0  0  0  0  0  0  0  0
   -7.8250   21.4370  -31.9460 C   0  0  0  0  0  0  0  0  0  0  0  0
   -7.2080   20.4010  -32.6620 C   0  0  0  0  0  0  0  0  0  0  0  0
   -5.8170   20.3430  -32.7550 C   0  0  0  0  0  0  0  0  0  0  0  0
   -5.0290   21.3090  -32.1250 C   0  0  0  0  0  0  0  0  0  0  0  0
   -5.6270   22.3470  -31.3860 C   0  0  0  0  0  0  0  0  0  0  0  0
   -4.8070   23.3780  -30.7010 C   0  0  0  0  0  0  0  0  0  0  0  0
   -4.1860   23.2690  -29.4700 C   0  0  0  0  0  0  0  0  0  0  0  0
   -3.5600   24.4900  -29.2930 C   0  0  0  0  0  0  0  0  0  0  0  0
   -2.7420   24.9190  -28.1320 C   0  0  0  0  0  0  0  0  0  0  0  0
   -1.4180   25.3470  -28.3260 C   0  0  0  0  0  0  0  0  0  0  0  0
   -0.6330   25.7540  -27.2440 C   0  0  0  0  0  0  0  0  0  0  0  0
   -1.1530   25.7430  -25.9370 C   0  0  0  0  0  0  0  0  0  0  0  0
   -0.3590   26.1600  -24.8070 N   0  0  0  0  0  0  0  0  0  0  0  0
    0.8830   25.7560  -24.4660 C   0  0  0  0  0  0  0  0  0  0  0  0
    1.2840   26.3690  -23.3410 N   0  0  0  0  0  0  0  0  0  0  0  0
    0.2440   27.1580  -23.0130 C   0  0  0  0  0  0  0  0  0  0  0  0
   -0.7640   27.0370  -23.8990 N   0  0  0  0  0  0  0  0  0  0  0  0
   -2.4790   25.3180  -25.7440 C   0  0  0  0  0  0  0  0  0  0  0  0
   -3.2640   24.9100  -26.8260 C   0  0  0  0  0  0  0  0  0  0  0  0
   -3.8040   25.2720  -30.3640 N   0  0  0  0  0  0  0  0  0  0  0  0
   -4.5590   24.5980  -31.2170 N   0  0  0  0  0  0  0  0  0  0  0  0
   -7.0320   22.3960  -31.2990 C   0  0  0  0  0  0  0  0  0  0  0  0
   -9.5929   21.4855  -30.7487 H   0  0  0  0  0  0  0  0  0  0  0  0
   -9.7051   22.3871  -32.2983 H   0  0  0  0  0  0  0  0  0  0  0  0
   -9.7544   20.5915  -32.2983 H   0  0  0  0  0  0  0  0  0  0  0  0
   -7.8227   19.6315  -33.1519 H   0  0  0  0  0  0  0  0  0  0  0  0
   -5.3392   19.5336  -33.3265 H   0  0  0  0  0  0  0  0  0  0  0  0
   -3.9332   21.2582  -32.2070 H   0  0  0  0  0  0  0  0  0  0  0  0
   -4.1891   22.4070  -28.7867 H   0  0  0  0  0  0  0  0  0  0  0  0
   -0.9945   25.3619  -29.3411 H   0  0  0  0  0  0  0  0  0  0  0  0
    0.4015   26.0862  -27.4159 H   0  0  0  0  0  0  0  0  0  0  0  0
    1.4825   25.0268  -25.0307 H   0  0  0  0  0  0  0  0  0  0  0  0
    2.1900   26.2570  -22.8350 H   0  0  0  0  0  0  0  0  0  0  0  0
    0.2200   27.8179  -22.1332 H   0  0  0  0  0  0  0  0  0  0  0  0
   -2.9038   25.3064  -24.7294 H   0  0  0  0  0  0  0  0  0  0  0  0
   -4.2989   24.5790  -26.6547 H   0  0  0  0  0  0  0  0  0  0  0  0
   -7.5130   23.1958  -30.7168 H   0  0  0  0  0  0  0  0  0  0  0  0
  1  2  1  0
  2  3  2  0
  3  4  1  0
  4  5  2  0
  5  6  1  0
  6  7  1  0
  7  8  1  0
  8  9  2  0
  9 10  1  0
 10 11  2  0
 11 12  1  0
 12 13  2  0
 13 14  1  0
 14 15  1  0
 15 16  2  0
 16 17  1  0
 17 18  2  0
 13 19  1  0
 19 20  2  0
  9 21  1  0
 21 22  1  0
  6 23  2  0
 23  2  1  0
 22  7  2  0
 20 10  1  0
 18 14  1  0
  1 24  1  0
  1 25  1  0
  1 26  1  0
  3 27  1  0
  4 28  1  0
  5 29  1  0
  8 30  1  0
 11 31  1  0
 12 32  1  0
 15 33  1  0
 16 34  1  0
 17 35  1  0
 19 36  1  0
 20 37  1  0
 23 38  1  0
M  CHG  2  16   1  21  -1
M  END
>  <UniqueID>  (38) 
38

>  <SMILES>  (38) 
Cc1cccc(-c2cc(-c3ccc(-n4c[nH+]cn4)cc3)[n-]n2)c1

>  <Energy>  (38) 
110.84183866549255

>  <Genealogy>  (38) 
Cc1cccc(-c2cc(-c3ccc(-n4c[nH+]cn4)cc3)[n-]n2)c1 (protonated)
Cc1cccc(-c2cc(-c3ccc(-n4c[nH+]cn4)cc3)[n-]n2)c1 (3D coordinates assigned)
Cc1cccc(-c2cc(-c3ccc(-n4c[nH+]cn4)cc3)[n-]n2)c1 (optimized conformer: 110.84183866549255 kcal/mol)

>  <smiles>  (38) 
Cc1cccc(-c2cc(-c3ccc(-n4cncn4)cc3)[nH]n2)c1

>  <score_type>  (38) 
oracle

>  <origin>  (38) 
adg

>  <m_score__min__energy>  (38) 
-11.18

>  <m_primary>  (38) 
energy

$$$$
39:0
     RDKit          3D

 41 42  0  0  0  0  0  0  0  0999 V2000
   -2.0000   19.9890  -33.6410 C   0  0  0  0  0  0  0  0  0  0  0  0
   -2.8660   20.8660  -32.8460 N   0  0  0  0  0  0  0  0  0  0  0  0
   -4.2110   21.2010  -33.3310 C   0  0  0  0  0  0  0  0  0  0  0  0
   -5.1720   20.1190  -32.9490 C   0  0  0  0  0  0  0  0  0  0  0  0
   -5.1640   19.4010  -31.7590 C   0  0  0  0  0  0  0  0  0  0  0  0
   -6.2000   18.5330  -31.6120 N   0  0  0  0  0  0  0  0  0  0  0  0
   -7.0410   18.5550  -32.6710 C   0  0  0  0  0  0  0  0  0  0  0  0
   -6.5330   19.6700  -33.8240 S   0  0  0  0  0  0  0  0  0  0  0  0
   -2.4310   21.2990  -31.5440 C   0  0  0  0  0  0  0  0  0  0  0  0
   -1.8540   20.4890  -30.7680 O   0  0  0  0  0  0  0  0  0  0  0  0
   -2.6380   22.6570  -31.1330 N   0  0  0  0  0  0  0  0  0  0  0  0
   -3.0450   23.0540  -29.7880 C   0  0  0  0  0  0  0  0  0  0  0  0
   -2.9660   24.5740  -29.5940 C   0  0  0  0  0  0  0  0  0  0  0  0
   -3.8760   25.2780  -30.4920 N   0  0  0  0  0  0  0  0  0  0  0  0
   -5.2050   24.8410  -30.7880 C   0  0  0  0  0  0  0  0  0  0  0  0
   -6.1930   25.3370  -30.1810 O   0  0  0  0  0  0  0  0  0  0  0  0
   -5.4150   23.7580  -31.7940 C   0  0  0  0  0  0  0  0  0  0  0  0
   -6.7670   23.1290  -31.6020 C   0  0  0  0  0  0  0  0  0  0  0  0
   -7.8660   23.5550  -32.3710 C   0  0  0  0  0  0  0  0  0  0  0  0
   -9.1190   22.9580  -32.2000 C   0  0  0  0  0  0  0  0  0  0  0  0
   -9.2800   21.9160  -31.2810 C   0  0  0  0  0  0  0  0  0  0  0  0
   -8.1880   21.4730  -30.5280 C   0  0  0  0  0  0  0  0  0  0  0  0
   -6.9350   22.0760  -30.6870 C   0  0  0  0  0  0  0  0  0  0  0  0
   -1.3885   19.3698  -32.9682 H   0  0  0  0  0  0  0  0  0  0  0  0
   -2.6201   19.3387  -34.2755 H   0  0  0  0  0  0  0  0  0  0  0  0
   -1.3419   20.6008  -34.2755 H   0  0  0  0  0  0  0  0  0  0  0  0
   -4.5346   22.1518  -32.8825 H   0  0  0  0  0  0  0  0  0  0  0  0
   -4.1886   21.2966  -34.4266 H   0  0  0  0  0  0  0  0  0  0  0  0
   -4.3812   19.5252  -30.9963 H   0  0  0  0  0  0  0  0  0  0  0  0
   -7.9389   17.9267  -32.7660 H   0  0  0  0  0  0  0  0  0  0  0  0
   -4.0815   22.7268  -29.6185 H   0  0  0  0  0  0  0  0  0  0  0  0
   -2.3588   22.5816  -29.0697 H   0  0  0  0  0  0  0  0  0  0  0  0
   -3.2324   24.8156  -28.5544 H   0  0  0  0  0  0  0  0  0  0  0  0
   -1.9395   24.8971  -29.8216 H   0  0  0  0  0  0  0  0  0  0  0  0
   -5.3527   24.1845  -32.8060 H   0  0  0  0  0  0  0  0  0  0  0  0
   -4.6388   22.9897  -31.6630 H   0  0  0  0  0  0  0  0  0  0  0  0
   -7.7389   24.3605  -33.1093 H   0  0  0  0  0  0  0  0  0  0  0  0
   -9.9793   23.3084  -32.7892 H   0  0  0  0  0  0  0  0  0  0  0  0
  -10.2655   21.4450  -31.1505 H   0  0  0  0  0  0  0  0  0  0  0  0
   -8.3140   20.6495  -29.8097 H   0  0  0  0  0  0  0  0  0  0  0  0
   -6.0784   21.7242  -30.0933 H   0  0  0  0  0  0  0  0  0  0  0  0
  1  2  1  0
  2  3  1  0
  3  4  1  0
  4  5  2  0
  5  6  1  0
  6  7  2  0
  7  8  1  0
  2  9  1  0
  9 10  2  0
  9 11  1  0
 11 12  1  0
 12 13  1  0
 13 14  1  0
 14 15  1  0
 15 16  2  0
 15 17  1  0
 17 18  1  0
 18 19  2  0
 19 20  1  0
 20 21  2  0
 21 22  1  0
 22 23  2  0
  8  4  1  0
 23 18  1  0
  1 24  1  0
  1 25  1  0
  1 26  1  0
  3 27  1  0
  3 28  1  0
  5 29  1  0
  7 30  1  0
 12 31  1  0
 12 32  1  0
 13 33  1  0
 13 34  1  0
 17 35  1  0
 17 36  1  0
 19 37  1  0
 20 38  1  0
 21 39  1  0
 22 40  1  0
 23 41  1  0
M  CHG  2  11  -1  14  -1
M  END
>  <UniqueID>  (39) 
39

>  <SMILES>  (39) 
CN(Cc1cncs1)C(=O)[N-]CC[N-]C(=O)Cc1ccccc1

>  <Energy>  (39) 
55.72450811666907

>  <Genealogy>  (39) 
CN(Cc1cncs1)C(=O)[N-]CC[N-]C(=O)Cc1ccccc1 (protonated)
CN(Cc1cncs1)C(=O)[N-]CC[N-]C(=O)Cc1ccccc1 (3D coordinates assigned)
CN(Cc1cncs1)C(=O)[N-]CC[N-]C(=O)Cc1ccccc1 (optimized conformer: 55.72450811666907 kcal/mol)

>  <smiles>  (39) 
CN(Cc1cncs1)C(=O)NCCNC(=O)Cc1ccccc1

>  <score_type>  (39) 
oracle

>  <origin>  (39) 
adg

>  <m_score__min__energy>  (39) 
-9.5299999999999994

>  <m_primary>  (39) 
energy

$$$$
40:0
     RDKit          3D

 42 44  0  0  0  0  0  0  0  0999 V2000
   -9.6270   21.2080  -32.3230 O   0  0  0  0  0  0  0  0  0  0  0  0
   -8.5020   20.8770  -31.8580 C   0  0  0  0  0  0  0  0  0  0  0  0
   -7.9640   21.6320  -30.6620 C   0  0  0  0  0  0  0  0  0  0  0  0
   -7.7900   23.0780  -30.9580 N   0  0  0  0  0  0  0  0  0  0  0  0
   -7.2670   23.3100  -32.3360 C   0  0  0  0  0  0  0  0  0  0  0  0
   -5.7390   23.5190  -32.4130 C   0  0  0  0  0  0  0  0  0  0  0  0
   -5.0550   22.8990  -31.2750 N   0  0  0  0  0  0  0  0  0  0  0  0
   -3.8270   22.1760  -31.4700 C   0  0  0  0  0  0  0  0  0  0  0  0
   -3.8100   21.0230  -32.2720 C   0  0  0  0  0  0  0  0  0  0  0  0
   -2.6190   20.3200  -32.4750 C   0  0  0  0  0  0  0  0  0  0  0  0
   -1.4360   20.7600  -31.8760 C   0  0  0  0  0  0  0  0  0  0  0  0
   -1.4430   21.9050  -31.0750 C   0  0  0  0  0  0  0  0  0  0  0  0
   -2.6300   22.6140  -30.8700 C   0  0  0  0  0  0  0  0  0  0  0  0
   -2.6200   23.7090  -30.0700 F   0  0  0  0  0  0  0  0  0  0  0  0
   -5.5230   23.1760  -29.9140 C   0  0  0  0  0  0  0  0  0  0  0  0
   -6.9520   23.7410  -29.9330 C   0  0  0  0  0  0  0  0  0  0  0  0
   -7.7370   19.7930  -32.5210 C   0  0  0  0  0  0  0  0  0  0  0  0
   -6.8010   20.0680  -33.5370 C   0  0  0  0  0  0  0  0  0  0  0  0
   -6.0970   19.0280  -34.1520 C   0  0  0  0  0  0  0  0  0  0  0  0
   -6.3130   17.7060  -33.7560 C   0  0  0  0  0  0  0  0  0  0  0  0
   -5.6310   16.6980  -34.3540 F   0  0  0  0  0  0  0  0  0  0  0  0
   -7.2290   17.4230  -32.7390 C   0  0  0  0  0  0  0  0  0  0  0  0
   -7.9330   18.4600  -32.1210 C   0  0  0  0  0  0  0  0  0  0  0  0
   -8.6685   21.5218  -29.8244 H   0  0  0  0  0  0  0  0  0  0  0  0
   -6.9794   21.2132  -30.4065 H   0  0  0  0  0  0  0  0  0  0  0  0
   -8.7330   23.5330  -30.8960 H   0  0  0  0  0  0  0  0  0  0  0  0
   -7.5262   22.4374  -32.9535 H   0  0  0  0  0  0  0  0  0  0  0  0
   -7.7291   24.2419  -32.6938 H   0  0  0  0  0  0  0  0  0  0  0  0
   -5.3631   23.0698  -33.3441 H   0  0  0  0  0  0  0  0  0  0  0  0
   -5.5366   24.6000  -32.3906 H   0  0  0  0  0  0  0  0  0  0  0  0
   -4.7396   20.6711  -32.7432 H   0  0  0  0  0  0  0  0  0  0  0  0
   -2.6132   19.4196  -33.1069 H   0  0  0  0  0  0  0  0  0  0  0  0
   -0.4995   20.2053  -32.0348 H   0  0  0  0  0  0  0  0  0  0  0  0
   -0.5107   22.2497  -30.6039 H   0  0  0  0  0  0  0  0  0  0  0  0
   -5.5118   22.2428  -29.3318 H   0  0  0  0  0  0  0  0  0  0  0  0
   -4.8553   23.9207  -29.4562 H   0  0  0  0  0  0  0  0  0  0  0  0
   -7.4094   23.5868  -28.9445 H   0  0  0  0  0  0  0  0  0  0  0  0
   -6.8939   24.8118  -30.1781 H   0  0  0  0  0  0  0  0  0  0  0  0
   -6.6226   21.1077  -33.8487 H   0  0  0  0  0  0  0  0  0  0  0  0
   -5.3721   19.2513  -34.9487 H   0  0  0  0  0  0  0  0  0  0  0  0
   -7.3961   16.3822  -32.4245 H   0  0  0  0  0  0  0  0  0  0  0  0
   -8.6461   18.2312  -31.3153 H   0  0  0  0  0  0  0  0  0  0  0  0
  1  2  2  0
  2  3  1  0
  3  4  1  0
  4  5  1  0
  5  6  1  0
  6  7  1  0
  7  8  1  0
  8  9  2  0
  9 10  1  0
 10 11  2  0
 11 12  1  0
 12 13  2  0
 13 14  1  0
  7 15  1  0
 15 16  1  0
  2 17  1  0
 17 18  2  0
 18 19  1  0
 19 20  2  0
 20 21  1  0
 20 22  1  0
 22 23  2  0
 16  4  1  0
 23 17  1  0
 13  8  1  0
  3 24  1  0
  3 25  1  0
  4 26  1  0
  5 27  1  0
  5 28  1  0
  6 29  1  0
  6 30  1  0
  9 31  1  0
 10 32  1  0
 11 33  1  0
 12 34  1  0
 15 35  1  0
 15 36  1  0
 16 37  1  0
 16 38  1  0
 18 39  1  0
 19 40  1  0
 22 41  1  0
 23 42  1  0
M  CHG  1   4   1
M  END
>  <UniqueID>  (40) 
40

>  <SMILES>  (40) 
O=C(C[NH+]1CCN(c2ccccc2F)CC1)c1ccc(F)cc1

>  <Energy>  (40) 
60.278136813837754

>  <Genealogy>  (40) 
O=C(C[NH+]1CCN(c2ccccc2F)CC1)c1ccc(F)cc1 (protonated)
O=C(C[NH+]1CCN(c2ccccc2F)CC1)c1ccc(F)cc1 (3D coordinates assigned)
O=C(C[NH+]1CCN(c2ccccc2F)CC1)c1ccc(F)cc1 (nonaromatic ring conformer: 60.278136813837754 kcal/mol)

>  <smiles>  (40) 
O=C(CN1CCN(c2ccccc2F)CC1)c1ccc(F)cc1

>  <score_type>  (40) 
oracle

>  <origin>  (40) 
adg

>  <m_score__min__energy>  (40) 
-6.96

>  <m_primary>  (40) 
energy

$$$$
41:0
     RDKit          3D

 42 44  0  0  1  0  0  0  0  0999 V2000
   -6.4870   17.4860  -31.8280 C   0  0  0  0  0  0  0  0  0  0  0  0
   -6.5660   17.4130  -33.3370 C   0  0  0  0  0  0  0  0  0  0  0  0
   -6.7070   18.7730  -33.8470 N   0  0  0  0  0  0  0  0  0  0  0  0
   -7.1600   19.7520  -33.1680 C   0  0  0  0  0  0  0  0  0  0  0  0
   -6.3320   20.6610  -32.5720 N   0  0  0  0  0  0  0  0  0  0  0  0
   -6.8320   21.6860  -31.8600 C   0  0  0  0  0  0  0  0  0  0  0  0
   -5.8930   22.6200  -31.2510 C   0  0  0  0  0  0  0  0  0  0  0  0
   -4.5460   22.3790  -31.4300 C   0  0  0  0  0  0  0  0  0  0  0  0
   -3.6000   23.2430  -30.8670 C   0  0  0  0  0  0  0  0  0  0  0  0
   -3.9450   24.3350  -30.1340 C   0  0  0  0  0  0  0  0  0  0  0  0
   -3.1090   25.2410  -29.5440 O   0  0  0  0  0  0  0  0  0  0  0  0
   -2.2630   24.8870  -28.5270 C   0  0  0  0  0  0  0  0  0  0  0  0
   -0.9260   24.6770  -28.8880 C   0  0  0  0  0  0  0  0  0  0  0  0
    0.0390   24.3170  -27.9840 C   0  0  0  0  0  0  0  0  0  0  0  0
   -0.2830   24.1450  -26.6490 C   0  0  0  0  0  0  0  0  0  0  0  0
    0.6720   23.7900  -25.7580 F   0  0  0  0  0  0  0  0  0  0  0  0
   -1.5870   24.3490  -26.2920 C   0  0  0  0  0  0  0  0  0  0  0  0
   -2.5700   24.7160  -27.2160 C   0  0  0  0  0  0  0  0  0  0  0  0
   -3.9420   24.9240  -26.7100 C   0  0  0  0  0  0  0  0  0  0  0  0
   -5.3200   24.5580  -29.9660 C   0  0  0  0  0  0  0  0  0  0  0  0
   -6.2620   23.7120  -30.5160 C   0  0  0  0  0  0  0  0  0  0  0  0
   -8.2020   21.8010  -31.7440 C   0  0  0  0  0  0  0  0  0  0  0  0
   -9.0600   20.8880  -32.3410 C   0  0  0  0  0  0  0  0  0  0  0  0
   -8.4970   19.8840  -33.0410 N   0  0  0  0  0  0  0  0  0  0  0  0
   -7.2276   16.8016  -31.3885 H   0  0  0  0  0  0  0  0  0  0  0  0
   -5.4784   17.1951  -31.4991 H   0  0  0  0  0  0  0  0  0  0  0  0
   -6.6975   18.5144  -31.4991 H   0  0  0  0  0  0  0  0  0  0  0  0
   -5.6483   16.9574  -33.7373 H   0  0  0  0  0  0  0  0  0  0  0  0
   -7.4242   16.7980  -33.6456 H   0  0  0  0  0  0  0  0  0  0  0  0
   -4.2160   21.5079  -32.0151 H   0  0  0  0  0  0  0  0  0  0  0  0
   -2.5324   23.0297  -31.0241 H   0  0  0  0  0  0  0  0  0  0  0  0
   -0.6384   24.8065  -29.9418 H   0  0  0  0  0  0  0  0  0  0  0  0
    1.0748   24.1640  -28.3212 H   0  0  0  0  0  0  0  0  0  0  0  0
   -1.8735   24.2195  -25.2379 H   0  0  0  0  0  0  0  0  0  0  0  0
   -3.9313   24.9224  -25.6101 H   0  0  0  0  0  0  0  0  0  0  0  0
   -4.3236   25.8903  -27.0716 H   0  0  0  0  0  0  0  0  0  0  0  0
   -4.5928   24.1143  -27.0716 H   0  0  0  0  0  0  0  0  0  0  0  0
   -5.6554   25.4278  -29.3820 H   0  0  0  0  0  0  0  0  0  0  0  0
   -7.3307   23.9207  -30.3598 H   0  0  0  0  0  0  0  0  0  0  0  0
   -8.6240   22.6356  -31.1649 H   0  0  0  0  0  0  0  0  0  0  0  0
  -10.1521   20.9801  -32.2467 H   0  0  0  0  0  0  0  0  0  0  0  0
   -9.1510   19.2050  -33.4850 H   0  0  0  0  0  0  0  0  0  0  0  0
  1  2  1  0
  2  3  1  0
  3  4  2  0
  4  5  1  0
  5  6  2  0
  6  7  1  0
  7  8  2  0
  8  9  1  0
  9 10  2  0
 10 11  1  0
 11 12  1  0
 12 13  2  0
 13 14  1  0
 14 15  2  0
 15 16  1  0
 15 17  1  0
 17 18  2  0
 18 19  1  0
 10 20  1  0
 20 21  2  0
  6 22  1  0
 22 23  2  0
 23 24  1  0
 24  4  1  0
 21  7  1  0
 18 12  1  0
  1 25  1  0
  1 26  1  0
  1 27  1  0
  2 28  1  0
  2 29  1  0
  8 30  1  0
  9 31  1  0
 13 32  1  0
 14 33  1  0
 17 34  1  0
 19 35  1  0
 19 36  1  0
 19 37  1  0
 20 38  1  0
 21 39  1  0
 22 40  1  0
 23 41  1  0
 24 42  1  0
M  END
>  <smiles>  (41) 
CCN=c1nc(-c2ccc(Oc3ccc(F)cc3C)cc2)cc[nH]1

>  <score_type>  (41) 
oracle

>  <origin>  (41) 
adg

>  <m_score__min__energy>  (41) 
-8.4199999999999999

>  <m_primary>  (41) 
energy

$$$$
42:0
     RDKit          3D

 38 40  0  0  0  0  0  0  0  0999 V2000
   -9.1750   21.5630  -30.8570 C   0  0  0  0  0  0  0  0  0  0  0  0
   -8.4980   22.3430  -31.9790 C   0  0  0  0  0  0  0  0  0  0  0  0
   -7.0750   21.9830  -32.0700 N   0  0  0  0  0  0  0  0  0  0  0  0
   -6.6250   20.9730  -33.0380 C   0  0  0  0  0  0  0  0  0  0  0  0
   -7.3340   19.6450  -32.7910 C   0  0  0  0  0  0  0  0  0  0  0  0
   -6.1170   22.6250  -31.2060 C   0  0  0  0  0  0  0  0  0  0  0  0
   -6.3230   23.9440  -30.7740 C   0  0  0  0  0  0  0  0  0  0  0  0
   -5.3940   24.5680  -29.9360 C   0  0  0  0  0  0  0  0  0  0  0  0
   -4.2420   23.8810  -29.5140 C   0  0  0  0  0  0  0  0  0  0  0  0
   -3.2590   24.5400  -28.6260 C   0  0  0  0  0  0  0  0  0  0  0  0
   -2.2310   25.3000  -29.0950 N   0  0  0  0  0  0  0  0  0  0  0  0
   -1.6120   25.6850  -27.9710 C   0  0  0  0  0  0  0  0  0  0  0  0
   -0.4800   26.4890  -27.8530 C   0  0  0  0  0  0  0  0  0  0  0  0
   -0.0060   26.7610  -26.5550 C   0  0  0  0  0  0  0  0  0  0  0  0
   -0.6690   26.2290  -25.4250 C   0  0  0  0  0  0  0  0  0  0  0  0
   -1.8110   25.4200  -25.5850 C   0  0  0  0  0  0  0  0  0  0  0  0
   -2.2490   25.1730  -26.8850 C   0  0  0  0  0  0  0  0  0  0  0  0
   -3.3030   24.4390  -27.2690 N   0  0  0  0  0  0  0  0  0  0  0  0
   -4.0390   22.5600  -29.9480 C   0  0  0  0  0  0  0  0  0  0  0  0
   -4.9680   21.9380  -30.7860 C   0  0  0  0  0  0  0  0  0  0  0  0
   -8.8376   21.9517  -29.8848 H   0  0  0  0  0  0  0  0  0  0  0  0
  -10.2661   21.6761  -30.9384 H   0  0  0  0  0  0  0  0  0  0  0  0
   -8.9096   20.4986  -30.9384 H   0  0  0  0  0  0  0  0  0  0  0  0
   -8.9927   22.1080  -32.9330 H   0  0  0  0  0  0  0  0  0  0  0  0
   -8.5800   23.4188  -31.7645 H   0  0  0  0  0  0  0  0  0  0  0  0
   -6.8521   21.3209  -34.0565 H   0  0  0  0  0  0  0  0  0  0  0  0
   -5.5412   20.8255  -32.9212 H   0  0  0  0  0  0  0  0  0  0  0  0
   -7.4253   19.4739  -31.7082 H   0  0  0  0  0  0  0  0  0  0  0  0
   -8.3363   19.6747  -33.2433 H   0  0  0  0  0  0  0  0  0  0  0  0
   -6.7517   18.8288  -33.2433 H   0  0  0  0  0  0  0  0  0  0  0  0
   -7.2213   24.4907  -31.0968 H   0  0  0  0  0  0  0  0  0  0  0  0
   -5.5654   25.6028  -29.6047 H   0  0  0  0  0  0  0  0  0  0  0  0
    0.0250   26.8964  -28.7413 H   0  0  0  0  0  0  0  0  0  0  0  0
    0.8854   27.3911  -26.4194 H   0  0  0  0  0  0  0  0  0  0  0  0
   -0.2909   26.4481  -24.4155 H   0  0  0  0  0  0  0  0  0  0  0  0
   -2.3377   24.9987  -24.7160 H   0  0  0  0  0  0  0  0  0  0  0  0
   -3.1418   22.0114  -29.6255 H   0  0  0  0  0  0  0  0  0  0  0  0
   -4.7975   20.9034  -31.1185 H   0  0  0  0  0  0  0  0  0  0  0  0
  1  2  1  0
  2  3  1  0
  3  4  1  0
  4  5  1  0
  3  6  1  0
  6  7  2  0
  7  8  1  0
  8  9  2  0
  9 10  1  0
 10 11  2  0
 11 12  1  0
 12 13  2  0
 13 14  1  0
 14 15  2  0
 15 16  1  0
 16 17  2  0
 17 18  1  0
  9 19  1  0
 19 20  2  0
 20  6  1  0
 18 10  1  0
 17 12  1  0
  1 21  1  0
  1 22  1  0
  1 23  1  0
  2 24  1  0
  2 25  1  0
  4 26  1  0
  4 27  1  0
  5 28  1  0
  5 29  1  0
  5 30  1  0
  7 31  1  0
  8 32  1  0
 13 33  1  0
 14 34  1  0
 15 35  1  0
 16 36  1  0
 19 37  1  0
 20 38  1  0
M  CHG  1  18  -1
M  END
>  <UniqueID>  (42) 
41

>  <SMILES>  (42) 
CCN(CC)c1ccc(-c2nc3ccccc3[n-]2)cc1

>  <Energy>  (42) 
72.97694538365873

>  <Genealogy>  (42) 
CCN(CC)c1ccc(-c2nc3ccccc3[n-]2)cc1 (protonated)
CCN(CC)c1ccc(-c2nc3ccccc3[n-]2)cc1 (3D coordinates assigned)
CCN(CC)c1ccc(-c2nc3ccccc3[n-]2)cc1 (optimized conformer: 72.97694538365873 kcal/mol)

>  <smiles>  (42) 
CCN(CC)c1ccc(-c2nc3ccccc3[nH]2)cc1

>  <score_type>  (42) 
oracle

>  <origin>  (42) 
adg

>  <m_score__min__energy>  (42) 
-7.5599999999999996

>  <m_primary>  (42) 
energy

$$$$
43:0
     RDKit          3D

 46 48  0  0  0  0  0  0  0  0999 V2000
    0.5110   23.3870  -28.1460 C   0  0  0  0  0  0  0  0  0  0  0  0
   -0.8440   23.8940  -28.5310 C   0  0  0  0  0  0  0  0  0  0  0  0
   -1.8480   23.1540  -29.1200 C   0  0  0  0  0  0  0  0  0  0  0  0
   -2.8730   24.0650  -29.3070 C   0  0  0  0  0  0  0  0  0  0  0  0
   -4.1920   23.7770  -29.9740 C   0  0  0  0  0  0  0  0  0  0  0  0
   -5.1600   23.0950  -29.0020 C   0  0  0  0  0  0  0  0  0  0  0  0
   -6.4810   22.7300  -29.7110 C   0  0  0  0  0  0  0  0  0  0  0  0
   -6.9240   23.7200  -30.7300 N   0  0  0  0  0  0  0  0  0  0  0  0
   -6.7720   23.2270  -32.1190 C   0  0  0  0  0  0  0  0  0  0  0  0
   -7.1620   21.7670  -32.2350 C   0  0  0  0  0  0  0  0  0  0  0  0
   -8.5250   21.4350  -32.1190 C   0  0  0  0  0  0  0  0  0  0  0  0
   -8.9480   20.1110  -32.2020 C   0  0  0  0  0  0  0  0  0  0  0  0
   -8.0210   19.0940  -32.4070 C   0  0  0  0  0  0  0  0  0  0  0  0
   -6.6650   19.3960  -32.5300 C   0  0  0  0  0  0  0  0  0  0  0  0
   -6.2070   20.7280  -32.4380 C   0  0  0  0  0  0  0  0  0  0  0  0
   -4.7270   21.0200  -32.6170 C   0  0  0  0  0  0  0  0  0  0  0  0
   -4.0430   20.9580  -31.4150 F   0  0  0  0  0  0  0  0  0  0  0  0
   -4.1690   20.0890  -33.4750 F   0  0  0  0  0  0  0  0  0  0  0  0
   -4.5450   22.2880  -33.1350 F   0  0  0  0  0  0  0  0  0  0  0  0
   -6.3480   25.0670  -30.5160 C   0  0  0  0  0  0  0  0  0  0  0  0
   -4.8060   25.0710  -30.5540 C   0  0  0  0  0  0  0  0  0  0  0  0
   -2.4930   25.2860  -28.8730 N   0  0  0  0  0  0  0  0  0  0  0  0
   -1.2630   25.1690  -28.3990 N   0  0  0  0  0  0  0  0  0  0  0  0
   -0.5000   26.2840  -27.8490 C   0  0  0  0  0  0  0  0  0  0  0  0
    0.5931   23.3563  -27.0495 H   0  0  0  0  0  0  0  0  0  0  0  0
    0.6530   22.3749  -28.5528 H   0  0  0  0  0  0  0  0  0  0  0  0
    1.2825   24.0573  -28.5528 H   0  0  0  0  0  0  0  0  0  0  0  0
   -1.8366   22.0855  -29.3811 H   0  0  0  0  0  0  0  0  0  0  0  0
   -4.0098   23.0836  -30.8083 H   0  0  0  0  0  0  0  0  0  0  0  0
   -4.6940   22.1777  -28.6130 H   0  0  0  0  0  0  0  0  0  0  0  0
   -5.3817   23.7902  -28.1789 H   0  0  0  0  0  0  0  0  0  0  0  0
   -6.3471   21.7588  -30.2099 H   0  0  0  0  0  0  0  0  0  0  0  0
   -7.2595   22.7084  -28.9341 H   0  0  0  0  0  0  0  0  0  0  0  0
   -7.4159   23.8230  -32.7825 H   0  0  0  0  0  0  0  0  0  0  0  0
   -5.7151   23.3263  -32.4072 H   0  0  0  0  0  0  0  0  0  0  0  0
   -9.2660   22.2324  -31.9606 H   0  0  0  0  0  0  0  0  0  0  0  0
  -10.0166   19.8688  -32.1053 H   0  0  0  0  0  0  0  0  0  0  0  0
   -8.3584   18.0491  -32.4722 H   0  0  0  0  0  0  0  0  0  0  0  0
   -5.9422   18.5847  -32.7011 H   0  0  0  0  0  0  0  0  0  0  0  0
   -6.7207   25.7378  -31.3041 H   0  0  0  0  0  0  0  0  0  0  0  0
   -6.6553   25.4032  -29.5148 H   0  0  0  0  0  0  0  0  0  0  0  0
   -4.4800   25.1775  -31.5992 H   0  0  0  0  0  0  0  0  0  0  0  0
   -4.4604   25.9103  -29.9326 H   0  0  0  0  0  0  0  0  0  0  0  0
   -0.5290   26.2416  -26.7502 H   0  0  0  0  0  0  0  0  0  0  0  0
    0.5434   26.2184  -28.1910 H   0  0  0  0  0  0  0  0  0  0  0  0
   -0.9390   27.2328  -28.1910 H   0  0  0  0  0  0  0  0  0  0  0  0
  1  2  1  0
  2  3  2  0
  3  4  1  0
  4  5  1  0
  5  6  1  0
  6  7  1  0
  7  8  1  0
  8  9  1  0
  9 10  1  0
 10 11  2  0
 11 12  1  0
 12 13  2  0
 13 14  1  0
 14 15  2  0
 15 16  1  0
 16 17  1  0
 16 18  1  0
 16 19  1  0
  8 20  1  0
 20 21  1  0
  4 22  2  0
 22 23  1  0
 23 24  1  0
 23  2  1  0
 21  5  1  0
 15 10  1  0
  1 25  1  0
  1 26  1  0
  1 27  1  0
  3 28  1  0
  5 29  1  0
  6 30  1  0
  6 31  1  0
  7 32  1  0
  7 33  1  0
  9 34  1  0
  9 35  1  0
 11 36  1  0
 12 37  1  0
 13 38  1  0
 14 39  1  0
 20 40  1  0
 20 41  1  0
 21 42  1  0
 21 43  1  0
 24 44  1  0
 24 45  1  0
 24 46  1  0
M  END
>  <UniqueID>  (43) 
42

>  <SMILES>  (43) 
Cc1cc(C2CCN(Cc3ccccc3C(F)(F)F)CC2)nn1C

>  <Energy>  (43) 
87.34133877926165

>  <Genealogy>  (43) 
Cc1cc(C2CCN(Cc3ccccc3C(F)(F)F)CC2)nn1C (3D coordinates assigned)
Cc1cc(C2CCN(Cc3ccccc3C(F)(F)F)CC2)nn1C (nonaromatic ring conformer: 87.34133877926165 kcal/mol)

>  <smiles>  (43) 
Cc1cc(C2CCN(Cc3ccccc3C(F)(F)F)CC2)nn1C

>  <score_type>  (43) 
oracle

>  <origin>  (43) 
adg

>  <m_score__min__energy>  (43) 
-8.0299999999999994

>  <m_primary>  (43) 
energy

$$$$
