0:0
     RDKit          3D

 43 45  0  0  0  0  0  0  0  0999 V2000
   -4.0820   22.9120  -29.0980 C   0  0  0  0  0  0  0  0  0  0  0  0
   -3.1000   23.6420  -30.0050 C   0  0  0  0  0  0  0  0  0  0  0  0
   -3.6830   24.9130  -30.4540 N   0  0  0  0  0  0  0  0  0  0  0  0
   -5.1410   24.9440  -30.2520 C   0  0  0  0  0  0  0  0  0  0  0  0
   -5.8680   24.7040  -31.5780 C   0  0  0  0  0  0  0  0  0  0  0  0
   -6.5310   23.3980  -31.5850 N   0  0  0  0  0  0  0  0  0  0  0  0
   -7.8000   23.1580  -31.1780 C   0  0  0  0  0  0  0  0  0  0  0  0
   -8.1390   21.8300  -31.4010 C   0  0  0  0  0  0  0  0  0  0  0  0
   -7.0250   21.2540  -31.9810 C   0  0  0  0  0  0  0  0  0  0  0  0
   -6.8080   19.9490  -32.4440 C   0  0  0  0  0  0  0  0  0  0  0  0
   -5.5350   19.6520  -32.9910 C   0  0  0  0  0  0  0  0  0  0  0  0
   -4.5580   20.6690  -33.1040 C   0  0  0  0  0  0  0  0  0  0  0  0
   -4.8160   21.9700  -32.6420 C   0  0  0  0  0  0  0  0  0  0  0  0
   -6.0660   22.2310  -32.0770 C   0  0  0  0  0  0  0  0  0  0  0  0
   -5.2420   18.2820  -33.5560 C   0  0  0  0  0  0  0  0  0  0  0  0
   -6.1190   17.2290  -32.9970 N   0  0  1  0  0  0  0  0  0  0  0  0
   -5.7190   16.8550  -31.6260 C   0  0  0  0  0  0  0  0  0  0  0  0
   -7.5430   17.6170  -33.0840 C   0  0  0  0  0  0  0  0  0  0  0  0
   -7.8620   18.8870  -32.2790 C   0  0  0  0  0  0  0  0  0  0  0  0
   -3.8228   23.1047  -28.0465 H   0  0  0  0  0  0  0  0  0  0  0  0
   -5.1020   23.2728  -29.2962 H   0  0  0  0  0  0  0  0  0  0  0  0
   -4.0304   21.8312  -29.2962 H   0  0  0  0  0  0  0  0  0  0  0  0
   -2.1714   23.8426  -29.4505 H   0  0  0  0  0  0  0  0  0  0  0  0
   -2.8819   23.0143  -30.8816 H   0  0  0  0  0  0  0  0  0  0  0  0
   -3.4890   25.0090  -31.4800 H   0  0  0  0  0  0  0  0  0  0  0  0
   -5.4246   24.1588  -29.5357 H   0  0  0  0  0  0  0  0  0  0  0  0
   -5.4266   25.9320  -29.8619 H   0  0  0  0  0  0  0  0  0  0  0  0
   -6.6227   25.4912  -31.7219 H   0  0  0  0  0  0  0  0  0  0  0  0
   -5.1282   24.7255  -32.3918 H   0  0  0  0  0  0  0  0  0  0  0  0
   -8.4686   23.9097  -30.7331 H   0  0  0  0  0  0  0  0  0  0  0  0
   -9.0947   21.3391  -31.1652 H   0  0  0  0  0  0  0  0  0  0  0  0
   -3.5838   20.4378  -33.5595 H   0  0  0  0  0  0  0  0  0  0  0  0
   -4.0554   22.7605  -32.7229 H   0  0  0  0  0  0  0  0  0  0  0  0
   -5.3835   18.3144  -34.6464 H   0  0  0  0  0  0  0  0  0  0  0  0
   -4.2067   18.0276  -33.2850 H   0  0  0  0  0  0  0  0  0  0  0  0
   -5.9950   16.3750  -33.5920 H   0  0  0  0  0  0  0  0  0  0  0  0
   -6.3232   17.4199  -30.9008 H   0  0  0  0  0  0  0  0  0  0  0  0
   -5.8813   15.7772  -31.4778 H   0  0  0  0  0  0  0  0  0  0  0  0
   -4.6545   17.0893  -31.4778 H   0  0  0  0  0  0  0  0  0  0  0  0
   -7.7949   17.7969  -34.1396 H   0  0  0  0  0  0  0  0  0  0  0  0
   -8.1378   16.7955  -32.6581 H   0  0  0  0  0  0  0  0  0  0  0  0
   -8.8265   19.2899  -32.6217 H   0  0  0  0  0  0  0  0  0  0  0  0
   -7.8968   18.6105  -31.2149 H   0  0  0  0  0  0  0  0  0  0  0  0
  1  2  1  0
  2  3  1  0
  3  4  1  0
  4  5  1  0
  5  6  1  0
  6  7  1  0
  7  8  2  0
  8  9  1  0
  9 10  2  0
 10 11  1  0
 11 12  2  0
 12 13  1  0
 13 14  2  0
 11 15  1  0
 15 16  1  0
 16 17  1  0
 16 18  1  0
 18 19  1  0
 14  6  1  0
 14  9  1  0
 19 10  1  0
  1 20  1  0
  1 21  1  0
  1 22  1  0
  2 23  1  0
  2 24  1  0
  3 25  1  0
  4 26  1  0
  4 27  1  0
  5 28  1  0
  5 29  1  0
  7 30  1  0
  8 31  1  0
 12 32  1  0
 13 33  1  0
 15 34  1  0
 15 35  1  0
 16 36  1  6
 17 37  1  0
 17 38  1  0
 17 39  1  0
 18 40  1  0
 18 41  1  0
 19 42  1  0
 19 43  1  0
M  CHG  1  16   1
M  END
>  <UniqueID>  (1) 
1

>  <SMILES>  (1) 
CCNCCn1ccc2c3c(ccc21)C[N@@H+](C)CC3

>  <Energy>  (1) 
75.03233208494967

>  <Genealogy>  (1) 
CCNCCn1ccc2c3c(ccc21)C[NH+](C)CC3 (protonated)
CCNCCn1ccc2c3c(ccc21)C[N@@H+](C)CC3 (chirality)
CCNCCn1ccc2c3c(ccc21)C[N@@H+](C)CC3 (3D coordinates assigned)
CCNCCn1ccc2c3c(ccc21)C[N@@H+](C)CC3 (nonaromatic ring conformer: 75.03233208494967 kcal/mol)

>  <smiles>  (1) 
CCNCCn1ccc2c3c(ccc21)CN(C)CC3

>  <score_type>  (1) 
oracle

>  <origin>  (1) 
adg

>  <m_score__min__energy>  (1) 
-7.04

>  <m_primary>  (1) 
energy

$$$$
1:0
     RDKit          3D

 44 46  0  0  0  0  0  0  0  0999 V2000
   -3.6340   22.4140  -28.1250 C   0  0  0  0  0  0  0  0  0  0  0  0
   -3.8310   23.7370  -27.3860 C   0  0  0  0  0  0  0  0  0  0  0  0
   -4.7470   24.6180  -28.1250 N   0  0  0  0  0  0  0  0  0  0  0  0
   -4.4750   24.5520  -29.5690 C   0  0  0  0  0  0  0  0  0  0  0  0
   -5.7450   24.2110  -30.3670 C   0  0  0  0  0  0  0  0  0  0  0  0
   -5.4400   23.7070  -31.7110 N   0  0  0  0  0  0  0  0  0  0  0  0
   -5.6480   22.3410  -32.1250 C   0  0  0  0  0  0  0  0  0  0  0  0
   -6.9450   21.7730  -32.1720 C   0  0  0  0  0  0  0  0  0  0  0  0
   -8.0780   22.5390  -31.8340 C   0  0  0  0  0  0  0  0  0  0  0  0
   -9.3390   21.9610  -31.7890 C   0  0  0  0  0  0  0  0  0  0  0  0
   -9.4890   20.5970  -31.9930 C   0  0  0  0  0  0  0  0  0  0  0  0
   -8.3850   19.7860  -32.2990 C   0  0  0  0  0  0  0  0  0  0  0  0
   -8.5990   18.2950  -32.1970 C   0  0  0  0  0  0  0  0  0  0  0  0
   -7.1060   20.3920  -32.5350 C   0  0  0  0  0  0  0  0  0  0  0  0
   -6.0270   19.7020  -33.0710 N   0  0  0  0  0  0  0  0  0  0  0  0
   -6.2030   18.5220  -33.9390 C   0  0  0  0  0  0  0  0  0  0  0  0
   -4.7670   20.2330  -32.9430 C   0  0  0  0  0  0  0  0  0  0  0  0
   -3.5610   19.5920  -33.2990 C   0  0  0  0  0  0  0  0  0  0  0  0
   -2.4410   20.3950  -33.1310 C   0  0  0  0  0  0  0  0  0  0  0  0
   -2.9380   21.8920  -32.5470 S   0  0  0  0  0  0  0  0  0  0  0  0
   -4.5780   21.5240  -32.4780 C   0  0  0  0  0  0  0  0  0  0  0  0
   -3.5129   21.6005  -27.3946 H   0  0  0  0  0  0  0  0  0  0  0  0
   -4.5120   22.2123  -28.7562 H   0  0  0  0  0  0  0  0  0  0  0  0
   -2.7353   22.4769  -28.7562 H   0  0  0  0  0  0  0  0  0  0  0  0
   -4.2513   23.5343  -26.3899 H   0  0  0  0  0  0  0  0  0  0  0  0
   -2.8561   24.2386  -27.2962 H   0  0  0  0  0  0  0  0  0  0  0  0
   -4.6210   25.6030  -27.7940 H   0  0  0  0  0  0  0  0  0  0  0  0
   -5.7300   24.3140  -27.9410 H   0  0  0  0  0  0  0  0  0  0  0  0
   -4.0924   25.5269  -29.9055 H   0  0  0  0  0  0  0  0  0  0  0  0
   -3.7337   23.7585  -29.7446 H   0  0  0  0  0  0  0  0  0  0  0  0
   -6.3101   23.4416  -29.8205 H   0  0  0  0  0  0  0  0  0  0  0  0
   -6.3302   25.1356  -30.4792 H   0  0  0  0  0  0  0  0  0  0  0  0
   -5.1520   24.4070  -32.4300 H   0  0  0  0  0  0  0  0  0  0  0  0
   -7.9618   23.6082  -31.6029 H   0  0  0  0  0  0  0  0  0  0  0  0
  -10.2221   22.5863  -31.5910 H   0  0  0  0  0  0  0  0  0  0  0  0
  -10.4883   20.1442  -31.9137 H   0  0  0  0  0  0  0  0  0  0  0  0
   -8.6410   18.0022  -31.1375 H   0  0  0  0  0  0  0  0  0  0  0  0
   -9.5450   18.0258  -32.6896 H   0  0  0  0  0  0  0  0  0  0  0  0
   -7.7669   17.7706  -32.6896 H   0  0  0  0  0  0  0  0  0  0  0  0
   -6.3367   17.6253  -33.3161 H   0  0  0  0  0  0  0  0  0  0  0  0
   -7.0901   18.6630  -34.5740 H   0  0  0  0  0  0  0  0  0  0  0  0
   -5.3134   18.3980  -34.5740 H   0  0  0  0  0  0  0  0  0  0  0  0
   -3.5132   18.5585  -33.6726 H   0  0  0  0  0  0  0  0  0  0  0  0
   -1.4025   20.1014  -33.3441 H   0  0  0  0  0  0  0  0  0  0  0  0
  1  2  1  0
  2  3  1  0
  3  4  1  0
  4  5  1  0
  5  6  1  0
  6  7  1  0
  7  8  2  0
  8  9  1  0
  9 10  2  0
 10 11  1  0
 11 12  2  0
 12 13  1  0
 12 14  1  0
 14 15  2  0
 15 16  1  0
 15 17  1  0
 17 18  1  0
 18 19  2  0
 19 20  1  0
 20 21  1  0
 21  7  1  0
 14  8  1  0
 21 17  2  0
  1 22  1  0
  1 23  1  0
  1 24  1  0
  2 25  1  0
  2 26  1  0
  3 27  1  0
  3 28  1  0
  4 29  1  0
  4 30  1  0
  5 31  1  0
  5 32  1  0
  6 33  1  0
  9 34  1  0
 10 35  1  0
 11 36  1  0
 13 37  1  0
 13 38  1  0
 13 39  1  0
 16 40  1  0
 16 41  1  0
 16 42  1  0
 18 43  1  0
 19 44  1  0
M  CHG  2   3   1  15   1
M  END
>  <UniqueID>  (2) 
2

>  <SMILES>  (2) 
CC[NH2+]CCNc1c2cccc(C)c2[n+](C)c2ccsc12

>  <Energy>  (2) 
98.16881458132153

>  <Genealogy>  (2) 
CC[NH2+]CCNc1c2cccc(C)c2[n+](C)c2ccsc12 (protonated)
CC[NH2+]CCNc1c2cccc(C)c2[n+](C)c2ccsc12 (3D coordinates assigned)
CC[NH2+]CCNc1c2cccc(C)c2[n+](C)c2ccsc12 (optimized conformer: 98.16881458132153 kcal/mol)

>  <smiles>  (2) 
CCNCCNc1c2cccc(C)c2[n+](C)c2ccsc12

>  <score_type>  (2) 
oracle

>  <origin>  (2) 
adg

>  <m_score__min__energy>  (2) 
-7.2800000000000002

>  <m_primary>  (2) 
energy

$$$$
2:0
     RDKit          3D

 60 62  0  0  0  0  0  0  0  0999 V2000
   -4.6140   14.7680  -31.9880 C   0  0  0  0  0  0  0  0  0  0  0  0
   -4.6500   13.6040  -32.9870 C   0  0  0  0  0  0  0  0  0  0  0  0
   -5.1670   14.0160  -34.3190 N   0  0  1  0  0  0  0  0  0  0  0  0
   -4.9350   12.9340  -35.2970 C   0  0  0  0  0  0  0  0  0  0  0  0
   -6.6140   14.3500  -34.2370 C   0  0  0  0  0  0  0  0  0  0  0  0
   -6.8880   15.8680  -34.2210 C   0  0  0  0  0  0  0  0  0  0  0  0
   -5.7030   16.6250  -34.4750 O   0  0  0  0  0  0  0  0  0  0  0  0
   -5.4180   17.8960  -33.9500 C   0  0  0  0  0  0  0  0  0  0  0  0
   -6.3620   18.6530  -33.2340 C   0  0  0  0  0  0  0  0  0  0  0  0
   -6.0350   19.9270  -32.7630 C   0  0  0  0  0  0  0  0  0  0  0  0
   -4.7580   20.4640  -32.9870 C   0  0  0  0  0  0  0  0  0  0  0  0
   -4.4060   21.7750  -32.5180 N   0  0  0  0  0  0  0  0  0  0  0  0
   -3.0860   22.0850  -31.9680 C   0  0  0  0  0  0  0  0  0  0  0  0
   -3.1530   22.2970  -30.4750 C   0  0  0  0  0  0  0  0  0  0  0  0
   -2.7740   21.2510  -29.6170 C   0  0  0  0  0  0  0  0  0  0  0  0
   -2.8220   21.4180  -28.2310 C   0  0  0  0  0  0  0  0  0  0  0  0
   -2.3040   19.9870  -27.0770 Br  0  0  0  0  0  0  0  0  0  0  0  0
   -3.2460   22.6320  -27.6890 C   0  0  0  0  0  0  0  0  0  0  0  0
   -3.6270   23.6800  -28.5290 C   0  0  0  0  0  0  0  0  0  0  0  0
   -3.5860   23.5260  -29.9280 C   0  0  0  0  0  0  0  0  0  0  0  0
   -3.9800   24.5570  -30.7950 O   0  0  0  0  0  0  0  0  0  0  0  0
   -5.2800   25.1360  -30.8360 C   0  0  0  0  0  0  0  0  0  0  0  0
   -6.2980   24.0410  -30.9680 C   0  0  0  0  0  0  0  0  0  0  0  0
   -6.8890   23.7840  -32.2160 C   0  0  0  0  0  0  0  0  0  0  0  0
   -7.8660   22.7920  -32.3430 C   0  0  0  0  0  0  0  0  0  0  0  0
   -8.2510   22.0440  -31.2300 C   0  0  0  0  0  0  0  0  0  0  0  0
   -9.1990   21.0840  -31.3540 F   0  0  0  0  0  0  0  0  0  0  0  0
   -7.6670   22.2950  -29.9830 C   0  0  0  0  0  0  0  0  0  0  0  0
   -6.6970   23.2910  -29.8500 C   0  0  0  0  0  0  0  0  0  0  0  0
   -3.8040   19.6910  -33.6630 C   0  0  0  0  0  0  0  0  0  0  0  0
   -4.1370   18.4220  -34.1490 C   0  0  0  0  0  0  0  0  0  0  0  0
   -4.6263   14.3712  -30.9621 H   0  0  0  0  0  0  0  0  0  0  0  0
   -3.6972   15.3559  -32.1428 H   0  0  0  0  0  0  0  0  0  0  0  0
   -5.4927   15.4114  -32.1428 H   0  0  0  0  0  0  0  0  0  0  0  0
   -3.6295   13.2122  -33.1099 H   0  0  0  0  0  0  0  0  0  0  0  0
   -5.3300   12.8383  -32.5855 H   0  0  0  0  0  0  0  0  0  0  0  0
   -4.6310   14.8550  -34.6450 H   0  0  0  0  0  0  0  0  0  0  0  0
   -4.7334   11.9938  -34.7627 H   0  0  0  0  0  0  0  0  0  0  0  0
   -5.8276   12.8128  -35.9284 H   0  0  0  0  0  0  0  0  0  0  0  0
   -4.0712   13.1894  -35.9284 H   0  0  0  0  0  0  0  0  0  0  0  0
   -7.1237   13.9120  -35.1079 H   0  0  0  0  0  0  0  0  0  0  0  0
   -6.9905   13.9401  -33.2882 H   0  0  0  0  0  0  0  0  0  0  0  0
   -7.6333   16.1032  -34.9951 H   0  0  0  0  0  0  0  0  0  0  0  0
   -7.2575   16.1377  -33.2206 H   0  0  0  0  0  0  0  0  0  0  0  0
   -7.3635   18.2399  -33.0436 H   0  0  0  0  0  0  0  0  0  0  0  0
   -6.7846   20.5139  -32.2121 H   0  0  0  0  0  0  0  0  0  0  0  0
   -5.1800   22.4420  -32.3020 H   0  0  0  0  0  0  0  0  0  0  0  0
   -2.4031   21.2495  -32.1815 H   0  0  0  0  0  0  0  0  0  0  0  0
   -2.7227   23.0120  -32.4356 H   0  0  0  0  0  0  0  0  0  0  0  0
   -2.4369   20.2932  -30.0400 H   0  0  0  0  0  0  0  0  0  0  0  0
   -3.2801   22.7635  -26.5974 H   0  0  0  0  0  0  0  0  0  0  0  0
   -3.9618   24.6335  -28.0945 H   0  0  0  0  0  0  0  0  0  0  0  0
   -5.4623   25.6994  -29.9090 H   0  0  0  0  0  0  0  0  0  0  0  0
   -5.3557   25.8196  -31.6944 H   0  0  0  0  0  0  0  0  0  0  0  0
   -6.5818   24.3659  -33.0975 H   0  0  0  0  0  0  0  0  0  0  0  0
   -8.3315   22.6011  -33.3212 H   0  0  0  0  0  0  0  0  0  0  0  0
   -7.9728   21.7063  -29.1055 H   0  0  0  0  0  0  0  0  0  0  0  0
   -6.2445   23.4884  -28.8670 H   0  0  0  0  0  0  0  0  0  0  0  0
   -2.7876   20.0843  -33.8123 H   0  0  0  0  0  0  0  0  0  0  0  0
   -3.3844   17.8322  -34.6928 H   0  0  0  0  0  0  0  0  0  0  0  0
  1  2  1  0
  2  3  1  0
  3  4  1  0
  3  5  1  0
  5  6  1  0
  6  7  1  0
  7  8  1  0
  8  9  2  0
  9 10  1  0
 10 11  2  0
 11 12  1  0
 12 13  1  0
 13 14  1  0
 14 15  2  0
 15 16  1  0
 16 17  1  0
 16 18  2  0
 18 19  1  0
 19 20  2  0
 20 21  1  0
 21 22  1  0
 22 23  1  0
 23 24  2  0
 24 25  1  0
 25 26  2  0
 26 27  1  0
 26 28  1  0
 28 29  2  0
 11 30  1  0
 30 31  2  0
 31  8  1  0
 20 14  1  0
 29 23  1  0
  1 32  1  0
  1 33  1  0
  1 34  1  0
  2 35  1  0
  2 36  1  0
  3 37  1  6
  4 38  1  0
  4 39  1  0
  4 40  1  0
  5 41  1  0
  5 42  1  0
  6 43  1  0
  6 44  1  0
  9 45  1  0
 10 46  1  0
 12 47  1  0
 13 48  1  0
 13 49  1  0
 15 50  1  0
 18 51  1  0
 19 52  1  0
 22 53  1  0
 22 54  1  0
 24 55  1  0
 25 56  1  0
 28 57  1  0
 29 58  1  0
 30 59  1  0
 31 60  1  0
M  CHG  1   3   1
M  END
>  <UniqueID>  (3) 
3

>  <SMILES>  (3) 
CC[N@@H+](C)CCOc1ccc(NCc2cc(Br)ccc2OCc2ccc(F)cc2)cc1

>  <Energy>  (3) 
61.67967853915275

>  <Genealogy>  (3) 
CC[NH+](C)CCOc1ccc(NCc2cc(Br)ccc2OCc2ccc(F)cc2)cc1 (protonated)
CC[N@@H+](C)CCOc1ccc(NCc2cc(Br)ccc2OCc2ccc(F)cc2)cc1 (chirality)
CC[N@@H+](C)CCOc1ccc(NCc2cc(Br)ccc2OCc2ccc(F)cc2)cc1 (3D coordinates assigned)
CC[N@@H+](C)CCOc1ccc(NCc2cc(Br)ccc2OCc2ccc(F)cc2)cc1 (optimized conformer: 61.67967853915275 kcal/mol)

>  <smiles>  (3) 
CCN(C)CCOc1ccc(NCc2cc(Br)ccc2OCc2ccc(F)cc2)cc1

>  <score_type>  (3) 
oracle

>  <origin>  (3) 
adg

>  <m_score__min__energy>  (3) 
-8.4800000000000004

>  <m_primary>  (3) 
energy

$$$$
3:0
     RDKit          3D

 36 37  0  0  0  0  0  0  0  0999 V2000
   -0.7270   24.1000  -28.2390 F   0  0  0  0  0  0  0  0  0  0  0  0
   -1.9240   24.7810  -28.3980 C   0  0  0  0  0  0  0  0  0  0  0  0
   -1.6290   26.0940  -28.7210 F   0  0  0  0  0  0  0  0  0  0  0  0
   -2.7020   24.1450  -29.5610 C   0  0  0  0  0  0  0  0  0  0  0  0
   -3.6950   25.0870  -30.1000 N   0  0  0  0  0  0  0  0  0  0  0  0
   -5.0770   24.7040  -29.7700 C   0  0  0  0  0  0  0  0  0  0  0  0
   -6.0170   24.6680  -30.9920 C   0  0  0  0  0  0  0  0  0  0  0  0
   -6.1190   23.2900  -31.5960 C   0  0  0  0  0  0  0  0  0  0  0  0
   -4.9930   22.6790  -32.1720 C   0  0  0  0  0  0  0  0  0  0  0  0
   -5.0900   21.3940  -32.7170 C   0  0  0  0  0  0  0  0  0  0  0  0
   -6.3080   20.7110  -32.6890 C   0  0  0  0  0  0  0  0  0  0  0  0
   -7.4350   21.3120  -32.1180 C   0  0  0  0  0  0  0  0  0  0  0  0
   -9.1000   20.3770  -32.0800 Br  0  0  0  0  0  0  0  0  0  0  0  0
   -7.3420   22.5980  -31.5740 C   0  0  0  0  0  0  0  0  0  0  0  0
   -2.6950   24.7610  -27.0670 C   0  0  0  0  0  0  0  0  0  0  0  0
   -1.8590   25.2010  -25.9520 N   0  0  0  0  0  0  0  0  0  0  0  0
   -0.9530   24.4660  -25.2830 C   0  0  0  0  0  0  0  0  0  0  0  0
   -0.3910   25.1990  -24.3080 N   0  0  0  0  0  0  0  0  0  0  0  0
   -0.9950   26.3990  -24.4170 C   0  0  0  0  0  0  0  0  0  0  0  0
   -1.8970   26.4110  -25.4190 N   0  0  0  0  0  0  0  0  0  0  0  0
   -1.9967   23.8684  -30.3586 H   0  0  0  0  0  0  0  0  0  0  0  0
   -3.2269   23.2528  -29.1889 H   0  0  0  0  0  0  0  0  0  0  0  0
   -3.5020   26.0460  -29.7260 H   0  0  0  0  0  0  0  0  0  0  0  0
   -5.0609   23.7030  -29.3142 H   0  0  0  0  0  0  0  0  0  0  0  0
   -5.4687   25.4700  -29.0846 H   0  0  0  0  0  0  0  0  0  0  0  0
   -7.0200   24.9908  -30.6762 H   0  0  0  0  0  0  0  0  0  0  0  0
   -5.6004   25.3402  -31.7566 H   0  0  0  0  0  0  0  0  0  0  0  0
   -4.0314   23.2127  -32.1947 H   0  0  0  0  0  0  0  0  0  0  0  0
   -4.2055   20.9208  -33.1683 H   0  0  0  0  0  0  0  0  0  0  0  0
   -6.3812   19.7000  -33.1161 H   0  0  0  0  0  0  0  0  0  0  0  0
   -8.2299   23.0692  -31.1273 H   0  0  0  0  0  0  0  0  0  0  0  0
   -3.5634   25.4314  -27.1478 H   0  0  0  0  0  0  0  0  0  0  0  0
   -3.0129   23.7265  -26.8701 H   0  0  0  0  0  0  0  0  0  0  0  0
   -0.7078   23.4164  -25.5026 H   0  0  0  0  0  0  0  0  0  0  0  0
    0.3410   24.9070  -23.6240 H   0  0  0  0  0  0  0  0  0  0  0  0
   -0.7789   27.2613  -23.7691 H   0  0  0  0  0  0  0  0  0  0  0  0
  1  2  1  0
  2  3  1  0
  2  4  1  0
  4  5  1  0
  5  6  1  0
  6  7  1  0
  7  8  1  0
  8  9  2  0
  9 10  1  0
 10 11  2  0
 11 12  1  0
 12 13  1  0
 12 14  2  0
  2 15  1  0
 15 16  1  0
 16 17  1  0
 17 18  2  0
 18 19  1  0
 19 20  2  0
 14  8  1  0
 20 16  1  0
  4 21  1  0
  4 22  1  0
  5 23  1  0
  6 24  1  0
  6 25  1  0
  7 26  1  0
  7 27  1  0
  9 28  1  0
 10 29  1  0
 11 30  1  0
 14 31  1  0
 15 32  1  0
 15 33  1  0
 17 34  1  0
 18 35  1  0
 19 36  1  0
M  CHG  1  18   1
M  END
>  <UniqueID>  (4) 
4

>  <SMILES>  (4) 
FC(F)(CNCCc1cccc(Br)c1)Cn1c[nH+]cn1

>  <Energy>  (4) 
63.10910023965011

>  <Genealogy>  (4) 
FC(F)(CNCCc1cccc(Br)c1)Cn1c[nH+]cn1 (protonated)
FC(F)(CNCCc1cccc(Br)c1)Cn1c[nH+]cn1 (3D coordinates assigned)
FC(F)(CNCCc1cccc(Br)c1)Cn1c[nH+]cn1 (optimized conformer: 63.10910023965011 kcal/mol)

>  <smiles>  (4) 
FC(F)(CNCCc1cccc(Br)c1)Cn1cncn1

>  <score_type>  (4) 
oracle

>  <origin>  (4) 
adg

>  <m_score__min__energy>  (4) 
-7.6699999999999999

>  <m_primary>  (4) 
energy

$$$$
4:0
     RDKit          3D

 60 63  0  0  0  0  0  0  0  0999 V2000
   -2.9560   21.1660  -29.8710 C   0  0  0  0  0  0  0  0  0  0  0  0
   -1.9850   21.9720  -30.7470 C   0  0  0  0  0  0  0  0  0  0  0  0
   -0.8340   21.1870  -31.2500 N   0  0  0  0  0  0  0  0  0  0  0  0
   -0.7970   19.8280  -30.6780 C   0  0  0  0  0  0  0  0  0  0  0  0
   -0.7560   21.1740  -32.7260 C   0  0  0  0  0  0  0  0  0  0  0  0
   -1.4590   19.9350  -33.2920 C   0  0  0  0  0  0  0  0  0  0  0  0
   -2.7130   20.3060  -33.9490 N   0  0  0  0  0  0  0  0  0  0  0  0
   -3.9500   19.7020  -33.5430 C   0  0  0  0  0  0  0  0  0  0  0  0
   -4.1750   18.3370  -33.7800 C   0  0  0  0  0  0  0  0  0  0  0  0
   -3.2190   17.5510  -34.4490 C   0  0  0  0  0  0  0  0  0  0  0  0
   -3.4360   16.1930  -34.6660 C   0  0  0  0  0  0  0  0  0  0  0  0
   -4.6170   15.5740  -34.2240 C   0  0  0  0  0  0  0  0  0  0  0  0
   -4.8430   14.1600  -34.4590 N   0  0  0  0  0  0  0  0  0  0  0  0
   -6.1880   13.5860  -34.3300 C   0  0  0  0  0  0  0  0  0  0  0  0
   -3.7280   13.2790  -34.8270 C   0  0  0  0  0  0  0  0  0  0  0  0
   -5.5720   16.3570  -33.5490 C   0  0  0  0  0  0  0  0  0  0  0  0
   -5.3680   17.7380  -33.3100 C   0  0  0  0  0  0  0  0  0  0  0  0
   -6.2960   18.4960  -32.6220 N   0  0  0  0  0  0  0  0  0  0  0  0
   -7.2110   17.8070  -31.6860 C   0  0  0  0  0  0  0  0  0  0  0  0
   -6.2060   19.8780  -32.6310 C   0  0  0  0  0  0  0  0  0  0  0  0
   -4.9610   20.4790  -32.9540 C   0  0  0  0  0  0  0  0  0  0  0  0
   -4.7420   21.8370  -32.6600 C   0  0  0  0  0  0  0  0  0  0  0  0
   -5.7600   22.6250  -32.1360 C   0  0  0  0  0  0  0  0  0  0  0  0
   -7.0480   22.1060  -31.9950 C   0  0  0  0  0  0  0  0  0  0  0  0
   -8.0970   22.9540  -31.6050 C   0  0  0  0  0  0  0  0  0  0  0  0
   -9.4100   22.4860  -31.5920 C   0  0  0  0  0  0  0  0  0  0  0  0
   -9.6890   21.1850  -32.0040 C   0  0  0  0  0  0  0  0  0  0  0  0
   -8.6520   20.3270  -32.3770 C   0  0  0  0  0  0  0  0  0  0  0  0
   -7.3030   20.7410  -32.3000 C   0  0  0  0  0  0  0  0  0  0  0  0
   -2.7327   21.3513  -28.8100 H   0  0  0  0  0  0  0  0  0  0  0  0
   -3.9889   21.4758  -30.0879 H   0  0  0  0  0  0  0  0  0  0  0  0
   -2.8416   20.0937  -30.0879 H   0  0  0  0  0  0  0  0  0  0  0  0
   -2.5418   22.3623  -31.6117 H   0  0  0  0  0  0  0  0  0  0  0  0
   -1.5727   22.7708  -30.1131 H   0  0  0  0  0  0  0  0  0  0  0  0
   -0.7987   19.8922  -29.5799 H   0  0  0  0  0  0  0  0  0  0  0  0
   -1.6801   19.2647  -31.0138 H   0  0  0  0  0  0  0  0  0  0  0  0
    0.1155   19.3136  -31.0138 H   0  0  0  0  0  0  0  0  0  0  0  0
   -1.2421   22.0779  -33.1218 H   0  0  0  0  0  0  0  0  0  0  0  0
    0.3022   21.1493  -33.0252 H   0  0  0  0  0  0  0  0  0  0  0  0
   -0.7982   19.4479  -34.0242 H   0  0  0  0  0  0  0  0  0  0  0  0
   -1.6840   19.2471  -32.4637 H   0  0  0  0  0  0  0  0  0  0  0  0
   -2.7520   21.1250  -34.5980 H   0  0  0  0  0  0  0  0  0  0  0  0
   -2.2878   18.0155  -34.8053 H   0  0  0  0  0  0  0  0  0  0  0  0
   -2.6736   15.5977  -35.1898 H   0  0  0  0  0  0  0  0  0  0  0  0
   -6.4401   13.4784  -33.2647 H   0  0  0  0  0  0  0  0  0  0  0  0
   -6.9184   14.2508  -34.8143 H   0  0  0  0  0  0  0  0  0  0  0  0
   -6.2133   12.5987  -34.8143 H   0  0  0  0  0  0  0  0  0  0  0  0
   -3.2455   12.8978  -33.9149 H   0  0  0  0  0  0  0  0  0  0  0  0
   -4.1083   12.4348  -35.4209 H   0  0  0  0  0  0  0  0  0  0  0  0
   -2.9947   13.8442  -35.4209 H   0  0  0  0  0  0  0  0  0  0  0  0
   -6.5010   15.8841  -33.1979 H   0  0  0  0  0  0  0  0  0  0  0  0
   -6.9136   18.0310  -30.6509 H   0  0  0  0  0  0  0  0  0  0  0  0
   -8.2402   18.1563  -31.8555 H   0  0  0  0  0  0  0  0  0  0  0  0
   -7.1597   16.7214  -31.8555 H   0  0  0  0  0  0  0  0  0  0  0  0
   -3.7530   22.2808  -32.8471 H   0  0  0  0  0  0  0  0  0  0  0  0
   -5.5499   23.6609  -31.8315 H   0  0  0  0  0  0  0  0  0  0  0  0
   -7.8819   23.9913  -31.3087 H   0  0  0  0  0  0  0  0  0  0  0  0
  -10.2254   23.1438  -31.2565 H   0  0  0  0  0  0  0  0  0  0  0  0
  -10.7303   20.8319  -32.0357 H   0  0  0  0  0  0  0  0  0  0  0  0
   -8.8887   19.3145  -32.7359 H   0  0  0  0  0  0  0  0  0  0  0  0
  1  2  1  0
  2  3  1  0
  3  4  1  0
  3  5  1  0
  5  6  1  0
  6  7  1  0
  7  8  1  0
  8  9  2  0
  9 10  1  0
 10 11  2  0
 11 12  1  0
 12 13  1  0
 13 14  1  0
 13 15  1  0
 12 16  2  0
 16 17  1  0
 17 18  2  0
 18 19  1  0
 18 20  1  0
 20 21  2  0
 21 22  1  0
 22 23  2  0
 23 24  1  0
 24 25  2  0
 25 26  1  0
 26 27  2  0
 27 28  1  0
 28 29  2  0
 21  8  1  0
 29 24  1  0
 17  9  1  0
 29 20  1  0
  1 30  1  0
  1 31  1  0
  1 32  1  0
  2 33  1  0
  2 34  1  0
  4 35  1  0
  4 36  1  0
  4 37  1  0
  5 38  1  0
  5 39  1  0
  6 40  1  0
  6 41  1  0
  7 42  1  0
 10 43  1  0
 11 44  1  0
 14 45  1  0
 14 46  1  0
 14 47  1  0
 15 48  1  0
 15 49  1  0
 15 50  1  0
 16 51  1  0
 19 52  1  0
 19 53  1  0
 19 54  1  0
 22 55  1  0
 23 56  1  0
 25 57  1  0
 26 58  1  0
 27 59  1  0
 28 60  1  0
M  CHG  1  18   1
M  END
>  <UniqueID>  (5) 
5

>  <SMILES>  (5) 
CCN(C)CCNc1c2ccc(N(C)C)cc2[n+](C)c2c1ccc1ccccc12

>  <Energy>  (5) 
106.3723056621717

>  <Genealogy>  (5) 
CCN(C)CCNc1c2ccc(N(C)C)cc2[n+](C)c2c1ccc1ccccc12 (3D coordinates assigned)
CCN(C)CCNc1c2ccc(N(C)C)cc2[n+](C)c2c1ccc1ccccc12 (optimized conformer: 106.3723056621717 kcal/mol)

>  <smiles>  (5) 
CCN(C)CCNc1c2ccc(N(C)C)cc2[n+](C)c2c1ccc1ccccc12

>  <score_type>  (5) 
oracle

>  <origin>  (5) 
adg

>  <m_score__min__energy>  (5) 
-8.1799999999999997

>  <m_primary>  (5) 
energy

$$$$
5:0
     RDKit          3D

 51 53  0  0  0  0  0  0  0  0999 V2000
   -6.1390   25.6690  -29.7490 C   0  0  0  0  0  0  0  0  0  0  0  0
   -5.1150   25.2700  -30.8110 C   0  0  0  0  0  0  0  0  0  0  0  0
   -5.0270   23.8000  -30.9480 N   0  0  0  0  0  0  0  0  0  0  0  0
   -5.6550   23.1210  -29.7960 C   0  0  0  0  0  0  0  0  0  0  0  0
   -3.6210   23.3530  -31.0950 C   0  0  0  0  0  0  0  0  0  0  0  0
   -3.5370   22.1780  -32.0800 C   0  0  0  0  0  0  0  0  0  0  0  0
   -4.6210   22.2340  -33.0780 N   0  0  0  0  0  0  0  0  0  0  0  0
   -5.5460   21.1230  -32.8980 C   0  0  0  0  0  0  0  0  0  0  0  0
   -6.8770   21.3880  -32.4600 C   0  0  0  0  0  0  0  0  0  0  0  0
   -7.3750   22.7130  -32.3320 C   0  0  0  0  0  0  0  0  0  0  0  0
   -8.6490   22.9630  -31.8300 C   0  0  0  0  0  0  0  0  0  0  0  0
   -9.4560   21.9110  -31.4290 C   0  0  0  0  0  0  0  0  0  0  0  0
   -9.0120   20.6010  -31.5720 C   0  0  0  0  0  0  0  0  0  0  0  0
   -7.7440   20.3100  -32.1410 C   0  0  0  0  0  0  0  0  0  0  0  0
   -7.3480   19.0100  -32.3650 N   0  0  0  0  0  0  0  0  0  0  0  0
   -8.3510   17.9200  -32.3430 C   0  0  0  0  0  0  0  0  0  0  0  0
   -6.0320   18.7240  -32.6690 C   0  0  0  0  0  0  0  0  0  0  0  0
   -5.5550   17.3930  -32.5880 C   0  0  0  0  0  0  0  0  0  0  0  0
   -4.2750   17.0610  -32.9920 C   0  0  0  0  0  0  0  0  0  0  0  0
   -3.4360   18.0300  -33.5070 C   0  0  0  0  0  0  0  0  0  0  0  0
   -3.8420   19.3760  -33.5750 C   0  0  0  0  0  0  0  0  0  0  0  0
   -2.9980   20.3130  -34.1950 O   0  0  0  0  0  0  0  0  0  0  0  0
   -1.5720   20.2550  -34.2070 C   0  0  0  0  0  0  0  0  0  0  0  0
   -5.1270   19.7600  -33.0570 C   0  0  0  0  0  0  0  0  0  0  0  0
   -5.7132   25.5031  -28.7484 H   0  0  0  0  0  0  0  0  0  0  0  0
   -6.3944   26.7324  -29.8671 H   0  0  0  0  0  0  0  0  0  0  0  0
   -7.0465   25.0587  -29.8671 H   0  0  0  0  0  0  0  0  0  0  0  0
   -5.4139   25.7026  -31.7772 H   0  0  0  0  0  0  0  0  0  0  0  0
   -4.1296   25.6493  -30.5026 H   0  0  0  0  0  0  0  0  0  0  0  0
   -5.2618   23.5462  -28.8608 H   0  0  0  0  0  0  0  0  0  0  0  0
   -6.7448   23.2655  -29.8347 H   0  0  0  0  0  0  0  0  0  0  0  0
   -5.4261   22.0458  -29.8347 H   0  0  0  0  0  0  0  0  0  0  0  0
   -3.0122   24.1877  -31.4727 H   0  0  0  0  0  0  0  0  0  0  0  0
   -3.2444   23.0263  -30.1145 H   0  0  0  0  0  0  0  0  0  0  0  0
   -2.5688   22.2160  -32.6007 H   0  0  0  0  0  0  0  0  0  0  0  0
   -3.6379   21.2418  -31.5114 H   0  0  0  0  0  0  0  0  0  0  0  0
   -5.1070   23.1540  -33.0780 H   0  0  0  0  0  0  0  0  0  0  0  0
   -4.2240   22.2140  -34.0420 H   0  0  0  0  0  0  0  0  0  0  0  0
   -6.7404   23.5585  -32.6360 H   0  0  0  0  0  0  0  0  0  0  0  0
   -9.0154   23.9972  -31.7516 H   0  0  0  0  0  0  0  0  0  0  0  0
  -10.4477   22.1118  -30.9976 H   0  0  0  0  0  0  0  0  0  0  0  0
   -9.6557   19.7740  -31.2378 H   0  0  0  0  0  0  0  0  0  0  0  0
   -8.5888   17.6616  -31.3006 H   0  0  0  0  0  0  0  0  0  0  0  0
   -9.2654   18.2527  -32.8560 H   0  0  0  0  0  0  0  0  0  0  0  0
   -7.9436   17.0364  -32.8560 H   0  0  0  0  0  0  0  0  0  0  0  0
   -6.2167   16.6068  -32.1955 H   0  0  0  0  0  0  0  0  0  0  0  0
   -3.9238   16.0224  -32.9030 H   0  0  0  0  0  0  0  0  0  0  0  0
   -2.4369   17.7458  -33.8689 H   0  0  0  0  0  0  0  0  0  0  0  0
   -1.1969   20.2397  -33.1730 H   0  0  0  0  0  0  0  0  0  0  0  0
   -1.2465   19.3429  -34.7286 H   0  0  0  0  0  0  0  0  0  0  0  0
   -1.1735   21.1377  -34.7286 H   0  0  0  0  0  0  0  0  0  0  0  0
  1  2  1  0
  2  3  1  0
  3  4  1  0
  3  5  1  0
  5  6  1  0
  6  7  1  0
  7  8  1  0
  8  9  2  0
  9 10  1  0
 10 11  2  0
 11 12  1  0
 12 13  2  0
 13 14  1  0
 14 15  2  0
 15 16  1  0
 15 17  1  0
 17 18  2  0
 18 19  1  0
 19 20  2  0
 20 21  1  0
 21 22  1  0
 22 23  1  0
 21 24  2  0
 24  8  1  0
 14  9  1  0
 24 17  1  0
  1 25  1  0
  1 26  1  0
  1 27  1  0
  2 28  1  0
  2 29  1  0
  4 30  1  0
  4 31  1  0
  4 32  1  0
  5 33  1  0
  5 34  1  0
  6 35  1  0
  6 36  1  0
  7 37  1  0
  7 38  1  0
 10 39  1  0
 11 40  1  0
 12 41  1  0
 13 42  1  0
 16 43  1  0
 16 44  1  0
 16 45  1  0
 18 46  1  0
 19 47  1  0
 20 48  1  0
 23 49  1  0
 23 50  1  0
 23 51  1  0
M  CHG  2   7   1  15   1
M  END
>  <UniqueID>  (6) 
6

>  <SMILES>  (6) 
CCN(C)CC[NH2+]c1c2ccccc2[n+](C)c2cccc(OC)c12

>  <Energy>  (6) 
86.2775214352934

>  <Genealogy>  (6) 
CCN(C)CC[NH2+]c1c2ccccc2[n+](C)c2cccc(OC)c12 (protonated)
CCN(C)CC[NH2+]c1c2ccccc2[n+](C)c2cccc(OC)c12 (3D coordinates assigned)
CCN(C)CC[NH2+]c1c2ccccc2[n+](C)c2cccc(OC)c12 (optimized conformer: 86.2775214352934 kcal/mol)

>  <smiles>  (6) 
CCN(C)CCNc1c2ccccc2[n+](C)c2cccc(OC)c12

>  <score_type>  (6) 
oracle

>  <origin>  (6) 
adg

>  <m_score__min__energy>  (6) 
-6.9800000000000004

>  <m_primary>  (6) 
energy

$$$$
6:0
     RDKit          3D

 75 78  0  0  0  0  0  0  0  0999 V2000
   -4.1490   23.6570  -28.9530 C   0  0  0  0  0  0  0  0  0  0  0  0
   -3.5210   24.5140  -30.0490 C   0  0  0  0  0  0  0  0  0  0  0  0
   -4.4850   24.7700  -31.1340 N   0  0  0  0  0  0  0  0  0  0  0  0
   -5.8530   24.9160  -30.6110 C   0  0  0  0  0  0  0  0  0  0  0  0
   -6.8030   23.9090  -31.2680 C   0  0  0  0  0  0  0  0  0  0  0  0
   -6.1460   23.1650  -32.3480 N   0  0  0  0  0  0  0  0  0  0  0  0
   -6.0290   21.7310  -32.3450 C   0  0  0  0  0  0  0  0  0  0  0  0
   -7.1760   20.9170  -32.2980 C   0  0  0  0  0  0  0  0  0  0  0  0
   -8.4610   21.4810  -32.1430 C   0  0  0  0  0  0  0  0  0  0  0  0
   -9.6000   20.6800  -32.1800 C   0  0  0  0  0  0  0  0  0  0  0  0
   -9.4800   19.3090  -32.3680 C   0  0  0  0  0  0  0  0  0  0  0  0
   -8.2180   18.7240  -32.4700 C   0  0  0  0  0  0  0  0  0  0  0  0
   -7.0370   19.5060  -32.3810 C   0  0  0  0  0  0  0  0  0  0  0  0
   -5.7810   18.9310  -32.3770 N   0  0  0  0  0  0  0  0  0  0  0  0
   -5.6310   17.4750  -32.1540 C   0  0  0  0  0  0  0  0  0  0  0  0
   -4.6540   19.7210  -32.5170 C   0  0  0  0  0  0  0  0  0  0  0  0
   -3.3750   19.1580  -32.7610 C   0  0  0  0  0  0  0  0  0  0  0  0
   -2.2230   19.9600  -32.8410 C   0  0  0  0  0  0  0  0  0  0  0  0
   -0.9440   19.4330  -33.0940 O   0  0  0  0  0  0  0  0  0  0  0  0
    0.2490   19.7670  -32.3840 C   0  0  0  0  0  0  0  0  0  0  0  0
    0.4660   18.7900  -31.2020 C   0  0  0  0  0  0  0  0  0  0  0  0
    0.3710   19.3800  -29.8230 N   0  0  0  0  0  0  0  0  0  0  0  0
    1.7640   19.4190  -29.2950 C   0  0  0  0  0  0  0  0  0  0  0  0
   -0.4800   18.5370  -28.9330 C   0  0  0  0  0  0  0  0  0  0  0  0
   -0.7440   19.1800  -27.5530 C   0  0  0  0  0  0  0  0  0  0  0  0
   -1.2910   20.5600  -27.6460 N   0  0  0  0  0  0  0  0  0  0  0  0
   -2.6980   20.5430  -28.1250 C   0  0  0  0  0  0  0  0  0  0  0  0
   -1.2910   21.1560  -26.2860 C   0  0  0  0  0  0  0  0  0  0  0  0
   -0.4430   21.4070  -28.5260 C   0  0  0  0  0  0  0  0  0  0  0  0
   -0.1660   20.7680  -29.9040 C   0  0  0  0  0  0  0  0  0  0  0  0
   -2.3430   21.3370  -32.6720 C   0  0  0  0  0  0  0  0  0  0  0  0
   -3.5930   21.9210  -32.4870 C   0  0  0  0  0  0  0  0  0  0  0  0
   -4.7610   21.1340  -32.4420 C   0  0  0  0  0  0  0  0  0  0  0  0
   -3.8597   24.0518  -27.9679 H   0  0  0  0  0  0  0  0  0  0  0  0
   -5.2444   23.6817  -29.0507 H   0  0  0  0  0  0  0  0  0  0  0  0
   -3.7955   22.6199  -29.0507 H   0  0  0  0  0  0  0  0  0  0  0  0
   -3.2018   25.4739  -29.6170 H   0  0  0  0  0  0  0  0  0  0  0  0
   -2.6580   23.9742  -30.4659 H   0  0  0  0  0  0  0  0  0  0  0  0
   -4.2190   25.6790  -31.5820 H   0  0  0  0  0  0  0  0  0  0  0  0
   -5.8428   24.7447  -29.5245 H   0  0  0  0  0  0  0  0  0  0  0  0
   -6.2081   25.9321  -30.8379 H   0  0  0  0  0  0  0  0  0  0  0  0
   -7.1501   23.1968  -30.5049 H   0  0  0  0  0  0  0  0  0  0  0  0
   -7.6464   24.4668  -31.7009 H   0  0  0  0  0  0  0  0  0  0  0  0
   -5.8130   23.6890  -33.1890 H   0  0  0  0  0  0  0  0  0  0  0  0
   -8.5639   22.5656  -31.9913 H   0  0  0  0  0  0  0  0  0  0  0  0
  -10.5950   21.1334  -32.0603 H   0  0  0  0  0  0  0  0  0  0  0  0
  -10.3821   18.6834  -32.4366 H   0  0  0  0  0  0  0  0  0  0  0  0
   -8.1366   17.6376  -32.6221 H   0  0  0  0  0  0  0  0  0  0  0  0
   -5.6099   17.2698  -31.0735 H   0  0  0  0  0  0  0  0  0  0  0  0
   -6.4793   16.9447  -32.6114 H   0  0  0  0  0  0  0  0  0  0  0  0
   -4.6924   17.1288  -32.6114 H   0  0  0  0  0  0  0  0  0  0  0  0
   -3.2825   18.0696  -32.8905 H   0  0  0  0  0  0  0  0  0  0  0  0
    1.1077   19.7039  -33.0685 H   0  0  0  0  0  0  0  0  0  0  0  0
    0.1544   20.7892  -31.9889 H   0  0  0  0  0  0  0  0  0  0  0  0
   -0.2919   17.9966  -31.2798 H   0  0  0  0  0  0  0  0  0  0  0  0
    1.5038   18.4386  -31.2993 H   0  0  0  0  0  0  0  0  0  0  0  0
    1.7394   19.4183  -28.1953 H   0  0  0  0  0  0  0  0  0  0  0  0
    2.3155   18.5359  -29.6500 H   0  0  0  0  0  0  0  0  0  0  0  0
    2.2653   20.3315  -29.6500 H   0  0  0  0  0  0  0  0  0  0  0  0
   -1.4465   18.3689  -29.4307 H   0  0  0  0  0  0  0  0  0  0  0  0
    0.0637   17.5972  -28.7563 H   0  0  0  0  0  0  0  0  0  0  0  0
   -1.4653   18.5538  -27.0075 H   0  0  0  0  0  0  0  0  0  0  0  0
    0.2225   19.2453  -27.0319 H   0  0  0  0  0  0  0  0  0  0  0  0
   -3.3793   20.5348  -27.2614 H   0  0  0  0  0  0  0  0  0  0  0  0
   -2.8888   21.4389  -28.7340 H   0  0  0  0  0  0  0  0  0  0  0  0
   -2.8671   19.6427  -28.7340 H   0  0  0  0  0  0  0  0  0  0  0  0
   -0.2539   21.3032  -25.9502 H   0  0  0  0  0  0  0  0  0  0  0  0
   -1.8095   22.1258  -26.3107 H   0  0  0  0  0  0  0  0  0  0  0  0
   -1.8095   20.4806  -25.5897 H   0  0  0  0  0  0  0  0  0  0  0  0
   -0.9538   22.3685  -28.6831 H   0  0  0  0  0  0  0  0  0  0  0  0
    0.5273   21.5311  -28.0229 H   0  0  0  0  0  0  0  0  0  0  0  0
   -1.1081   20.7434  -30.4712 H   0  0  0  0  0  0  0  0  0  0  0  0
    0.6031   21.3824  -30.3948 H   0  0  0  0  0  0  0  0  0  0  0  0
   -1.4425   21.9686  -32.6848 H   0  0  0  0  0  0  0  0  0  0  0  0
   -3.6701   23.0125  -32.3743 H   0  0  0  0  0  0  0  0  0  0  0  0
  1  2  1  0
  2  3  1  0
  3  4  1  0
  4  5  1  0
  5  6  1  0
  6  7  1  0
  7  8  2  0
  8  9  1  0
  9 10  2  0
 10 11  1  0
 11 12  2  0
 12 13  1  0
 13 14  2  0
 14 15  1  0
 14 16  1  0
 16 17  2  0
 17 18  1  0
 18 19  1  0
 19 20  1  0
 20 21  1  0
 21 22  1  0
 22 23  1  0
 22 24  1  0
 24 25  1  0
 25 26  1  0
 26 27  1  0
 26 28  1  0
 26 29  1  0
 29 30  1  0
 18 31  2  0
 31 32  1  0
 32 33  2  0
 33  7  1  0
 13  8  1  0
 33 16  1  0
 30 22  1  0
  1 34  1  0
  1 35  1  0
  1 36  1  0
  2 37  1  0
  2 38  1  0
  3 39  1  0
  4 40  1  0
  4 41  1  0
  5 42  1  0
  5 43  1  0
  6 44  1  0
  9 45  1  0
 10 46  1  0
 11 47  1  0
 12 48  1  0
 15 49  1  0
 15 50  1  0
 15 51  1  0
 17 52  1  0
 20 53  1  0
 20 54  1  0
 21 55  1  0
 21 56  1  0
 23 57  1  0
 23 58  1  0
 23 59  1  0
 24 60  1  0
 24 61  1  0
 25 62  1  0
 25 63  1  0
 27 64  1  0
 27 65  1  0
 27 66  1  0
 28 67  1  0
 28 68  1  0
 28 69  1  0
 29 70  1  0
 29 71  1  0
 30 72  1  0
 30 73  1  0
 31 74  1  0
 32 75  1  0
M  CHG  3  14   1  22   1  26   1
M  END
>  <UniqueID>  (7) 
7

>  <SMILES>  (7) 
CCNCCNc1c2ccccc2[n+](C)c2cc(OCC[N+]3(C)CC[N+](C)(C)CC3)ccc12

>  <Energy>  (7) 
115.60877344400555

>  <Genealogy>  (7) 
CCNCCNc1c2ccccc2[n+](C)c2cc(OCC[N+]3(C)CC[N+](C)(C)CC3)ccc12 (3D coordinates assigned)
CCNCCNc1c2ccccc2[n+](C)c2cc(OCC[N+]3(C)CC[N+](C)(C)CC3)ccc12 (nonaromatic ring conformer: 115.60877344400555 kcal/mol)

>  <smiles>  (7) 
CCNCCNc1c2ccccc2[n+](C)c2cc(OCC[N+]3(C)CC[N+](C)(C)CC3)ccc12

>  <score_type>  (7) 
oracle

>  <origin>  (7) 
adg

>  <m_score__min__energy>  (7) 
-8.7200000000000006

>  <m_primary>  (7) 
energy

$$$$
7:0
     RDKit          3D

 30 31  0  0  0  0  0  0  0  0999 V2000
   -6.4850   25.6590  -29.3340 C   0  0  0  0  0  0  0  0  0  0  0  0
   -5.5640   25.6730  -30.5460 C   0  0  0  0  0  0  0  0  0  0  0  0
   -4.1230   24.5820  -30.2830 S   0  0  0  0  0  0  0  0  0  0  0  0
   -4.8800   23.1300  -31.0370 C   0  0  0  0  0  0  0  0  0  0  0  0
   -6.2360   23.0310  -30.9960 N   0  0  0  0  0  0  0  0  0  0  0  0
   -6.8420   21.9520  -31.5300 C   0  0  0  0  0  0  0  0  0  0  0  0
   -8.4870   21.6490  -31.5630 S   0  0  0  0  0  0  0  0  0  0  0  0
   -8.3320   20.1600  -32.3520 C   0  0  0  0  0  0  0  0  0  0  0  0
   -9.4910   19.2890  -32.7200 C   0  0  0  0  0  0  0  0  0  0  0  0
   -6.9740   19.8910  -32.5950 C   0  0  0  0  0  0  0  0  0  0  0  0
   -6.4750   18.6490  -33.2810 C   0  0  0  0  0  0  0  0  0  0  0  0
   -6.1380   20.9250  -32.1170 C   0  0  0  0  0  0  0  0  0  0  0  0
   -4.7400   21.0280  -32.1680 C   0  0  0  0  0  0  0  0  0  0  0  0
   -4.0580   20.1030  -32.6890 O   0  0  0  0  0  0  0  0  0  0  0  0
   -4.1240   22.1450  -31.6430 N   0  0  0  0  0  0  0  0  0  0  0  0
   -2.6580   22.2790  -31.6930 C   0  0  0  0  0  0  0  0  0  0  0  0
   -5.8812   25.6682  -28.4146 H   0  0  0  0  0  0  0  0  0  0  0  0
   -7.1333   26.5474  -29.3558 H   0  0  0  0  0  0  0  0  0  0  0  0
   -7.1060   24.7513  -29.3558 H   0  0  0  0  0  0  0  0  0  0  0  0
   -6.1231   25.3249  -31.4271 H   0  0  0  0  0  0  0  0  0  0  0  0
   -5.2030   26.7005  -30.7009 H   0  0  0  0  0  0  0  0  0  0  0  0
   -9.9791   18.9222  -31.8050 H   0  0  0  0  0  0  0  0  0  0  0  0
  -10.2127   19.8701  -33.3128 H   0  0  0  0  0  0  0  0  0  0  0  0
   -9.1335   18.4341  -33.3128 H   0  0  0  0  0  0  0  0  0  0  0  0
   -6.1770   17.9073  -32.5253 H   0  0  0  0  0  0  0  0  0  0  0  0
   -7.2749   18.2308  -33.9097 H   0  0  0  0  0  0  0  0  0  0  0  0
   -5.6081   18.9005  -33.9097 H   0  0  0  0  0  0  0  0  0  0  0  0
   -2.2580   22.3156  -30.6690 H   0  0  0  0  0  0  0  0  0  0  0  0
   -2.2288   21.4163  -32.2237 H   0  0  0  0  0  0  0  0  0  0  0  0
   -2.3923   23.2052  -32.2237 H   0  0  0  0  0  0  0  0  0  0  0  0
  1  2  1  0
  2  3  1  0
  3  4  1  0
  4  5  2  0
  5  6  1  0
  6  7  1  0
  7  8  1  0
  8  9  1  0
  8 10  2  0
 10 11  1  0
 10 12  1  0
 12 13  1  0
 13 14  2  0
 13 15  1  0
 15 16  1  0
 15  4  1  0
 12  6  2  0
  1 17  1  0
  1 18  1  0
  1 19  1  0
  2 20  1  0
  2 21  1  0
  9 22  1  0
  9 23  1  0
  9 24  1  0
 11 25  1  0
 11 26  1  0
 11 27  1  0
 16 28  1  0
 16 29  1  0
 16 30  1  0
M  END
>  <UniqueID>  (8) 
8

>  <SMILES>  (8) 
CCSc1nc2sc(C)c(C)c2c(=O)n1C

>  <Energy>  (8) 
60.62501487481917

>  <Genealogy>  (8) 
CCSc1nc2sc(C)c(C)c2c(=O)n1C (3D coordinates assigned)
CCSc1nc2sc(C)c(C)c2c(=O)n1C (optimized conformer: 60.62501487481917 kcal/mol)

>  <smiles>  (8) 
CCSc1nc2sc(C)c(C)c2c(=O)n1C

>  <score_type>  (8) 
oracle

>  <origin>  (8) 
adg

>  <m_score__min__energy>  (8) 
-6.4400000000000004

>  <m_primary>  (8) 
energy

$$$$
8:0
     RDKit          3D

 58 60  0  0  0  0  0  0  0  0999 V2000
   -5.7830   14.0300  -34.2590 C   0  0  0  0  0  0  0  0  0  0  0  0
   -4.6590   14.9940  -34.6140 C   0  0  0  0  0  0  0  0  0  0  0  0
   -4.7660   16.2110  -33.7770 N   0  0  0  0  0  0  0  0  0  0  0  0
   -6.0480   16.3390  -33.0540 C   0  0  0  0  0  0  0  0  0  0  0  0
   -5.8230   16.7540  -31.6020 C   0  0  0  0  0  0  0  0  0  0  0  0
   -3.5710   16.4740  -32.9350 C   0  0  0  0  0  0  0  0  0  0  0  0
   -2.4300   17.2730  -33.6150 C   0  0  0  0  0  0  0  0  0  0  0  0
   -2.8850   18.5100  -34.4040 C   0  0  0  0  0  0  0  0  0  0  0  0
   -4.2700   18.8760  -34.0940 N   0  0  0  0  0  0  0  0  0  0  0  0
   -4.6490   19.9880  -33.2560 C   0  0  0  0  0  0  0  0  0  0  0  0
   -3.7140   20.9690  -32.9060 C   0  0  0  0  0  0  0  0  0  0  0  0
   -4.0790   22.0290  -32.0890 C   0  0  0  0  0  0  0  0  0  0  0  0
   -5.3890   22.1650  -31.6100 C   0  0  0  0  0  0  0  0  0  0  0  0
   -5.6400   23.2300  -30.6750 N   0  0  0  0  0  0  0  0  0  0  0  0
   -4.9120   23.2230  -29.4020 C   0  0  0  0  0  0  0  0  0  0  0  0
   -3.7700   24.2640  -29.4400 C   0  0  0  0  0  0  0  0  0  0  0  0
   -3.9050   25.2270  -30.4780 O   0  0  0  0  0  0  0  0  0  0  0  0
   -5.2460   25.6590  -30.5900 C   0  0  0  0  0  0  0  0  0  0  0  0
   -6.1090   24.5310  -31.1740 C   0  0  0  0  0  0  0  0  0  0  0  0
   -6.3810   21.2060  -31.9830 C   0  0  0  0  0  0  0  0  0  0  0  0
   -7.7600   21.2730  -31.6040 C   0  0  0  0  0  0  0  0  0  0  0  0
   -8.3710   22.4260  -30.8520 C   0  0  0  0  0  0  0  0  0  0  0  0
   -8.6240   20.2280  -31.9680 C   0  0  0  0  0  0  0  0  0  0  0  0
   -8.1580   19.1640  -32.7260 C   0  0  0  0  0  0  0  0  0  0  0  0
   -6.8670   19.1330  -33.1270 N   0  0  0  0  0  0  0  0  0  0  0  0
   -5.9740   20.1050  -32.7970 C   0  0  0  0  0  0  0  0  0  0  0  0
   -5.8701   13.9553  -33.1650 H   0  0  0  0  0  0  0  0  0  0  0  0
   -6.7301   14.4009  -34.6778 H   0  0  0  0  0  0  0  0  0  0  0  0
   -5.5607   13.0374  -34.6778 H   0  0  0  0  0  0  0  0  0  0  0  0
   -3.6889   14.5084  -34.4318 H   0  0  0  0  0  0  0  0  0  0  0  0
   -4.7377   15.2722  -35.6753 H   0  0  0  0  0  0  0  0  0  0  0  0
   -6.6671   17.0992  -33.5528 H   0  0  0  0  0  0  0  0  0  0  0  0
   -6.5525   15.3616  -33.0631 H   0  0  0  0  0  0  0  0  0  0  0  0
   -6.2391   15.9866  -30.9326 H   0  0  0  0  0  0  0  0  0  0  0  0
   -4.7444   16.8591  -31.4136 H   0  0  0  0  0  0  0  0  0  0  0  0
   -6.3235   17.7153  -31.4136 H   0  0  0  0  0  0  0  0  0  0  0  0
   -3.8990   17.0401  -32.0507 H   0  0  0  0  0  0  0  0  0  0  0  0
   -3.1465   15.4864  -32.7015 H   0  0  0  0  0  0  0  0  0  0  0  0
   -1.7323   17.6051  -32.8321 H   0  0  0  0  0  0  0  0  0  0  0  0
   -1.9720   16.5922  -34.3476 H   0  0  0  0  0  0  0  0  0  0  0  0
   -2.2283   19.3552  -34.1502 H   0  0  0  0  0  0  0  0  0  0  0  0
   -2.8269   18.2713  -35.4762 H   0  0  0  0  0  0  0  0  0  0  0  0
   -5.0220   18.2690  -34.4880 H   0  0  0  0  0  0  0  0  0  0  0  0
   -2.6824   20.8989  -33.2814 H   0  0  0  0  0  0  0  0  0  0  0  0
   -3.3239   22.7790  -31.8111 H   0  0  0  0  0  0  0  0  0  0  0  0
   -5.6049   23.4721  -28.5848 H   0  0  0  0  0  0  0  0  0  0  0  0
   -4.4838   22.2234  -29.2366 H   0  0  0  0  0  0  0  0  0  0  0  0
   -3.7513   24.7935  -28.4760 H   0  0  0  0  0  0  0  0  0  0  0  0
   -2.8392   23.7113  -29.6351 H   0  0  0  0  0  0  0  0  0  0  0  0
   -5.6262   25.9315  -29.5944 H   0  0  0  0  0  0  0  0  0  0  0  0
   -5.2915   26.5331  -31.2563 H   0  0  0  0  0  0  0  0  0  0  0  0
   -7.1564   24.6806  -30.8732 H   0  0  0  0  0  0  0  0  0  0  0  0
   -6.0303   24.5469  -32.2711 H   0  0  0  0  0  0  0  0  0  0  0  0
   -8.2773   22.2491  -29.7704 H   0  0  0  0  0  0  0  0  0  0  0  0
   -7.8474   23.3560  -31.1182 H   0  0  0  0  0  0  0  0  0  0  0  0
   -9.4346   22.5149  -31.1182 H   0  0  0  0  0  0  0  0  0  0  0  0
   -9.6768   20.2532  -31.6502 H   0  0  0  0  0  0  0  0  0  0  0  0
   -8.8389   18.3451  -33.0011 H   0  0  0  0  0  0  0  0  0  0  0  0
  1  2  1  0
  2  3  1  0
  3  4  1  0
  4  5  1  0
  3  6  1  0
  6  7  1  0
  7  8  1  0
  8  9  1  0
  9 10  1  0
 10 11  2  0
 11 12  1  0
 12 13  2  0
 13 14  1  0
 14 15  1  0
 15 16  1  0
 16 17  1  0
 17 18  1  0
 18 19  1  0
 13 20  1  0
 20 21  2  0
 21 22  1  0
 21 23  1  0
 23 24  2  0
 24 25  1  0
 25 26  2  0
 26 10  1  0
 19 14  1  0
 26 20  1  0
  1 27  1  0
  1 28  1  0
  1 29  1  0
  2 30  1  0
  2 31  1  0
  4 32  1  0
  4 33  1  0
  5 34  1  0
  5 35  1  0
  5 36  1  0
  6 37  1  0
  6 38  1  0
  7 39  1  0
  7 40  1  0
  8 41  1  0
  8 42  1  0
  9 43  1  0
 11 44  1  0
 12 45  1  0
 15 46  1  0
 15 47  1  0
 16 48  1  0
 16 49  1  0
 18 50  1  0
 18 51  1  0
 19 52  1  0
 19 53  1  0
 22 54  1  0
 22 55  1  0
 22 56  1  0
 23 57  1  0
 24 58  1  0
M  END
>  <UniqueID>  (9) 
9

>  <SMILES>  (9) 
CCN(CC)CCCNc1ccc(N2CCOCC2)c2c(C)ccnc12

>  <Energy>  (9) 
84.9969030160076

>  <Genealogy>  (9) 
CCN(CC)CCCNc1ccc(N2CCOCC2)c2c(C)ccnc12 (3D coordinates assigned)
CCN(CC)CCCNc1ccc(N2CCOCC2)c2c(C)ccnc12 (nonaromatic ring conformer: 84.9969030160076 kcal/mol)

>  <smiles>  (9) 
CCN(CC)CCCNc1ccc(N2CCOCC2)c2c(C)ccnc12

>  <score_type>  (9) 
oracle

>  <origin>  (9) 
adg

>  <m_score__min__energy>  (9) 
-8.1099999999999994

>  <m_primary>  (9) 
energy

$$$$
9:0
     RDKit          3D

 38 39  0  0  0  0  0  0  0  0999 V2000
   -4.0710   23.3290  -29.0700 C   0  0  0  0  0  0  0  0  0  0  0  0
   -3.3790   24.4000  -29.9190 C   0  0  0  0  0  0  0  0  0  0  0  0
   -4.2770   24.9680  -30.9400 N   0  0  0  0  0  0  0  0  0  0  0  0
   -5.3780   25.7520  -30.3590 C   0  0  0  0  0  0  0  0  0  0  0  0
   -6.6780   24.9420  -30.3710 C   0  0  0  0  0  0  0  0  0  0  0  0
   -6.8100   24.2060  -31.5870 O   0  0  0  0  0  0  0  0  0  0  0  0
   -7.3600   22.9180  -31.7190 C   0  0  0  0  0  0  0  0  0  0  0  0
   -8.7500   22.6890  -31.6750 C   0  0  0  0  0  0  0  0  0  0  0  0
   -9.2620   21.4030  -31.8610 C   0  0  0  0  0  0  0  0  0  0  0  0
   -8.4000   20.3310  -32.0940 C   0  0  0  0  0  0  0  0  0  0  0  0
   -9.0480   18.7210  -32.3420 Cl  0  0  0  0  0  0  0  0  0  0  0  0
   -7.0190   20.5430  -32.1290 C   0  0  0  0  0  0  0  0  0  0  0  0
   -6.4890   21.8240  -31.9170 C   0  0  0  0  0  0  0  0  0  0  0  0
   -5.0650   22.0050  -31.9750 N   0  0  0  0  0  0  0  0  0  0  0  0
   -4.1920   21.1330  -32.7070 C   0  0  0  0  0  0  0  0  0  0  0  0
   -4.6690   20.3170  -33.5430 O   0  0  0  0  0  0  0  0  0  0  0  0
   -2.7340   21.1950  -32.5130 C   0  0  0  0  0  0  0  0  0  0  0  0
   -2.0840   21.5240  -31.3280 C   0  0  0  0  0  0  0  0  0  0  0  0
   -0.6880   21.5200  -31.4410 C   0  0  0  0  0  0  0  0  0  0  0  0
   -0.2320   21.1930  -32.7110 C   0  0  0  0  0  0  0  0  0  0  0  0
   -1.5680   20.9090  -33.6930 S   0  0  0  0  0  0  0  0  0  0  0  0
   -3.9247   23.5554  -28.0035 H   0  0  0  0  0  0  0  0  0  0  0  0
   -5.1470   23.3187  -29.2984 H   0  0  0  0  0  0  0  0  0  0  0  0
   -3.6382   22.3438  -29.2984 H   0  0  0  0  0  0  0  0  0  0  0  0
   -3.0374   25.2100  -29.2578 H   0  0  0  0  0  0  0  0  0  0  0  0
   -2.5345   23.9245  -30.4393 H   0  0  0  0  0  0  0  0  0  0  0  0
   -3.7280   25.5770  -31.5940 H   0  0  0  0  0  0  0  0  0  0  0  0
   -5.1259   26.0165  -29.3215 H   0  0  0  0  0  0  0  0  0  0  0  0
   -5.5210   26.6631  -30.9586 H   0  0  0  0  0  0  0  0  0  0  0  0
   -6.6724   24.2399  -29.5242 H   0  0  0  0  0  0  0  0  0  0  0  0
   -7.5258   25.6380  -30.2884 H   0  0  0  0  0  0  0  0  0  0  0  0
   -9.4364   23.5291  -31.4929 H   0  0  0  0  0  0  0  0  0  0  0  0
  -10.3484   21.2348  -31.8237 H   0  0  0  0  0  0  0  0  0  0  0  0
   -6.3422   19.6981  -32.3244 H   0  0  0  0  0  0  0  0  0  0  0  0
   -4.6710   22.8900  -31.5820 H   0  0  0  0  0  0  0  0  0  0  0  0
   -2.6140   21.7636  -30.3944 H   0  0  0  0  0  0  0  0  0  0  0  0
   -0.0159   21.7540  -30.6022 H   0  0  0  0  0  0  0  0  0  0  0  0
    0.8214   21.1304  -33.0215 H   0  0  0  0  0  0  0  0  0  0  0  0
  1  2  1  0
  2  3  1  0
  3  4  1  0
  4  5  1  0
  5  6  1  0
  6  7  1  0
  7  8  2  0
  8  9  1  0
  9 10  2  0
 10 11  1  0
 10 12  1  0
 12 13  2  0
 13 14  1  0
 14 15  1  0
 15 16  2  0
 15 17  1  0
 17 18  2  0
 18 19  1  0
 19 20  2  0
 20 21  1  0
 13  7  1  0
 21 17  1  0
  1 22  1  0
  1 23  1  0
  1 24  1  0
  2 25  1  0
  2 26  1  0
  3 27  1  0
  4 28  1  0
  4 29  1  0
  5 30  1  0
  5 31  1  0
  8 32  1  0
  9 33  1  0
 12 34  1  0
 14 35  1  0
 18 36  1  0
 19 37  1  0
 20 38  1  0
M  END
>  <UniqueID>  (10) 
10

>  <SMILES>  (10) 
CCNCCOc1ccc(Cl)cc1NC(=O)c1cccs1

>  <Energy>  (10) 
65.80951504055305

>  <Genealogy>  (10) 
CCNCCOc1ccc(Cl)cc1NC(=O)c1cccs1 (3D coordinates assigned)
CCNCCOc1ccc(Cl)cc1NC(=O)c1cccs1 (optimized conformer: 65.80951504055305 kcal/mol)

>  <smiles>  (10) 
CCNCCOc1ccc(Cl)cc1NC(=O)c1cccs1

>  <score_type>  (10) 
oracle

>  <origin>  (10) 
adg

>  <m_score__min__energy>  (10) 
-7.21

>  <m_primary>  (10) 
energy

$$$$
10:0
     RDKit          3D

 46 48  0  0  0  0  0  0  0  0999 V2000
   -4.0070   21.5540  -33.4400 C   0  0  0  0  0  0  0  0  0  0  0  0
   -4.5010   21.2670  -32.0240 C   0  0  0  0  0  0  0  0  0  0  0  0
   -5.9820   21.3190  -31.9620 N   0  0  0  0  0  0  0  0  0  0  0  0
   -6.6170   22.5470  -31.9570 C   0  0  0  0  0  0  0  0  0  0  0  0
   -5.7190   24.1200  -31.9600 S   0  0  0  0  0  0  0  0  0  0  0  0
   -6.2830   24.6560  -30.3010 C   0  0  0  0  0  0  0  0  0  0  0  0
   -5.1210   24.8700  -29.3350 C   0  0  0  0  0  0  0  0  0  0  0  0
   -3.8880   24.8100  -30.0460 O   0  0  0  0  0  0  0  0  0  0  0  0
   -2.7470   24.0760  -29.6760 C   0  0  0  0  0  0  0  0  0  0  0  0
   -2.8020   22.6900  -29.8690 C   0  0  0  0  0  0  0  0  0  0  0  0
   -1.7280   21.8730  -29.5140 C   0  0  0  0  0  0  0  0  0  0  0  0
   -0.5790   22.4350  -28.9620 C   0  0  0  0  0  0  0  0  0  0  0  0
   -0.4980   23.8150  -28.7690 C   0  0  0  0  0  0  0  0  0  0  0  0
   -1.5730   24.6560  -29.1250 C   0  0  0  0  0  0  0  0  0  0  0  0
   -1.4920   26.0460  -28.9490 O   0  0  0  0  0  0  0  0  0  0  0  0
   -0.8390   26.6930  -27.8610 C   0  0  0  0  0  0  0  0  0  0  0  0
   -8.0090   22.6300  -31.9720 C   0  0  0  0  0  0  0  0  0  0  0  0
   -8.7820   21.4810  -31.9520 C   0  0  0  0  0  0  0  0  0  0  0  0
  -10.0400   21.5850  -31.9430 O   0  0  0  0  0  0  0  0  0  0  0  0
   -8.1600   20.2260  -31.9490 C   0  0  0  0  0  0  0  0  0  0  0  0
   -8.9310   19.0480  -31.9380 C   0  0  0  0  0  0  0  0  0  0  0  0
   -8.3150   17.7990  -31.9640 C   0  0  0  0  0  0  0  0  0  0  0  0
   -6.9280   17.7080  -32.0090 C   0  0  0  0  0  0  0  0  0  0  0  0
   -6.1450   18.8630  -32.0170 C   0  0  0  0  0  0  0  0  0  0  0  0
   -6.7370   20.1540  -31.9720 C   0  0  0  0  0  0  0  0  0  0  0  0
   -3.0568   22.1061  -33.3920 H   0  0  0  0  0  0  0  0  0  0  0  0
   -3.8530   20.6048  -33.9741 H   0  0  0  0  0  0  0  0  0  0  0  0
   -4.7554   22.1579  -33.9741 H   0  0  0  0  0  0  0  0  0  0  0  0
   -4.1623   20.2656  -31.7200 H   0  0  0  0  0  0  0  0  0  0  0  0
   -4.0928   22.0314  -31.3465 H   0  0  0  0  0  0  0  0  0  0  0  0
   -6.8361   25.6012  -30.4038 H   0  0  0  0  0  0  0  0  0  0  0  0
   -6.9206   23.8599  -29.8891 H   0  0  0  0  0  0  0  0  0  0  0  0
   -5.2198   25.8558  -28.8569 H   0  0  0  0  0  0  0  0  0  0  0  0
   -5.1368   24.0833  -28.5663 H   0  0  0  0  0  0  0  0  0  0  0  0
   -3.7048   22.2390  -30.3067 H   0  0  0  0  0  0  0  0  0  0  0  0
   -1.7885   20.7858  -29.6699 H   0  0  0  0  0  0  0  0  0  0  0  0
    0.2657   21.7902  -28.6778 H   0  0  0  0  0  0  0  0  0  0  0  0
    0.4137   24.2513  -28.3348 H   0  0  0  0  0  0  0  0  0  0  0  0
   -1.2336   26.3020  -26.9116 H   0  0  0  0  0  0  0  0  0  0  0  0
    0.2426   26.5003  -27.9156 H   0  0  0  0  0  0  0  0  0  0  0  0
   -1.0217   27.7764  -27.9156 H   0  0  0  0  0  0  0  0  0  0  0  0
   -8.4967   23.6156  -31.9999 H   0  0  0  0  0  0  0  0  0  0  0  0
  -10.0286   19.1145  -31.9086 H   0  0  0  0  0  0  0  0  0  0  0  0
   -8.9258   16.8843  -31.9489 H   0  0  0  0  0  0  0  0  0  0  0  0
   -6.4454   16.7199  -32.0385 H   0  0  0  0  0  0  0  0  0  0  0  0
   -5.0495   18.7725  -32.0589 H   0  0  0  0  0  0  0  0  0  0  0  0
  1  2  1  0
  2  3  1  0
  3  4  1  0
  4  5  1  0
  5  6  1  0
  6  7  1  0
  7  8  1  0
  8  9  1  0
  9 10  2  0
 10 11  1  0
 11 12  2  0
 12 13  1  0
 13 14  2  0
 14 15  1  0
 15 16  1  0
  4 17  2  0
 17 18  1  0
 18 19  2  0
 18 20  1  0
 20 21  2  0
 21 22  1  0
 22 23  2  0
 23 24  1  0
 24 25  2  0
 25  3  1  0
 14  9  1  0
 25 20  1  0
  1 26  1  0
  1 27  1  0
  1 28  1  0
  2 29  1  0
  2 30  1  0
  6 31  1  0
  6 32  1  0
  7 33  1  0
  7 34  1  0
 10 35  1  0
 11 36  1  0
 12 37  1  0
 13 38  1  0
 16 39  1  0
 16 40  1  0
 16 41  1  0
 17 42  1  0
 21 43  1  0
 22 44  1  0
 23 45  1  0
 24 46  1  0
M  END
>  <UniqueID>  (11) 
11

>  <SMILES>  (11) 
CCn1c(SCCOc2ccccc2OC)cc(=O)c2ccccc21

>  <Energy>  (11) 
54.422555761422956

>  <Genealogy>  (11) 
CCn1c(SCCOc2ccccc2OC)cc(=O)c2ccccc21 (3D coordinates assigned)
CCn1c(SCCOc2ccccc2OC)cc(=O)c2ccccc21 (optimized conformer: 54.422555761422956 kcal/mol)

>  <smiles>  (11) 
CCn1c(SCCOc2ccccc2OC)cc(=O)c2ccccc21

>  <score_type>  (11) 
oracle

>  <origin>  (11) 
adg

>  <m_score__min__energy>  (11) 
-9.6600000000000001

>  <m_primary>  (11) 
energy

$$$$
11:0
     RDKit          3D

 41 43  0  0  0  0  0  0  0  0999 V2000
   -4.5290   22.5350  -30.1200 C   0  0  0  0  0  0  0  0  0  0  0  0
   -3.4500   22.9360  -31.1180 C   0  0  0  0  0  0  0  0  0  0  0  0
   -3.0700   21.7830  -31.9420 N   0  0  0  0  0  0  0  0  0  0  0  0
   -1.6200   21.5660  -31.8820 C   0  0  0  0  0  0  0  0  0  0  0  0
   -1.0840   21.0580  -33.2310 C   0  0  0  0  0  0  0  0  0  0  0  0
   -2.1370   20.8080  -34.2340 N   0  0  0  0  0  0  0  0  0  0  0  0
   -2.6740   19.4320  -34.2020 C   0  0  0  0  0  0  0  0  0  0  0  0
   -4.1030   19.3950  -33.7400 C   0  0  0  0  0  0  0  0  0  0  0  0
   -4.8880   18.2500  -33.6360 C   0  0  0  0  0  0  0  0  0  0  0  0
   -6.0960   18.7110  -33.1670 C   0  0  0  0  0  0  0  0  0  0  0  0
   -7.2640   18.0260  -32.8440 C   0  0  0  0  0  0  0  0  0  0  0  0
   -8.3540   18.7730  -32.3590 C   0  0  0  0  0  0  0  0  0  0  0  0
   -8.2540   20.1780  -32.2110 C   0  0  0  0  0  0  0  0  0  0  0  0
   -9.3360   20.9270  -31.7240 C   0  0  0  0  0  0  0  0  0  0  0  0
   -9.2210   22.3150  -31.5790 C   0  0  0  0  0  0  0  0  0  0  0  0
   -8.0290   22.9650  -31.9180 C   0  0  0  0  0  0  0  0  0  0  0  0
   -6.9410   22.2350  -32.4060 C   0  0  0  0  0  0  0  0  0  0  0  0
   -7.0450   20.8460  -32.5550 C   0  0  0  0  0  0  0  0  0  0  0  0
   -5.9840   20.0690  -33.0260 C   0  0  0  0  0  0  0  0  0  0  0  0
   -4.7860   20.4670  -33.3790 O   0  0  0  0  0  0  0  0  0  0  0  0
   -4.1519   22.6752  -29.0962 H   0  0  0  0  0  0  0  0  0  0  0  0
   -5.4200   23.1620  -30.2716 H   0  0  0  0  0  0  0  0  0  0  0  0
   -4.7942   21.4783  -30.2716 H   0  0  0  0  0  0  0  0  0  0  0  0
   -3.8347   23.7361  -31.7675 H   0  0  0  0  0  0  0  0  0  0  0  0
   -2.5662   23.2919  -30.5682 H   0  0  0  0  0  0  0  0  0  0  0  0
   -3.3180   21.9980  -32.9380 H   0  0  0  0  0  0  0  0  0  0  0  0
   -1.1239   22.5154  -31.6320 H   0  0  0  0  0  0  0  0  0  0  0  0
   -1.4099   20.8081  -31.1129 H   0  0  0  0  0  0  0  0  0  0  0  0
   -0.3919   21.8114  -33.6351 H   0  0  0  0  0  0  0  0  0  0  0  0
   -0.5906   20.0941  -33.0373 H   0  0  0  0  0  0  0  0  0  0  0  0
   -2.9020   21.5190  -34.1510 H   0  0  0  0  0  0  0  0  0  0  0  0
   -1.7010   20.9520  -35.1740 H   0  0  0  0  0  0  0  0  0  0  0  0
   -2.6171   19.0052  -35.2142 H   0  0  0  0  0  0  0  0  0  0  0  0
   -2.0718   18.8493  -33.4894 H   0  0  0  0  0  0  0  0  0  0  0  0
   -4.6065   17.2137  -33.8744 H   0  0  0  0  0  0  0  0  0  0  0  0
   -7.3330   16.9348  -32.9641 H   0  0  0  0  0  0  0  0  0  0  0  0
   -9.2908   18.2615  -32.0929 H   0  0  0  0  0  0  0  0  0  0  0  0
  -10.2762   20.4230  -31.4557 H   0  0  0  0  0  0  0  0  0  0  0  0
  -10.0722   22.8975  -31.1966 H   0  0  0  0  0  0  0  0  0  0  0  0
   -7.9476   24.0556  -31.8000 H   0  0  0  0  0  0  0  0  0  0  0  0
   -6.0061   22.7499  -32.6722 H   0  0  0  0  0  0  0  0  0  0  0  0
  1  2  1  0
  2  3  1  0
  3  4  1  0
  4  5  1  0
  5  6  1  0
  6  7  1  0
  7  8  1  0
  8  9  2  0
  9 10  1  0
 10 11  2  0
 11 12  1  0
 12 13  2  0
 13 14  1  0
 14 15  2  0
 15 16  1  0
 16 17  2  0
 17 18  1  0
 18 19  2  0
 19 20  1  0
 20  8  1  0
 19 10  1  0
 18 13  1  0
  1 21  1  0
  1 22  1  0
  1 23  1  0
  2 24  1  0
  2 25  1  0
  3 26  1  0
  4 27  1  0
  4 28  1  0
  5 29  1  0
  5 30  1  0
  6 31  1  0
  6 32  1  0
  7 33  1  0
  7 34  1  0
  9 35  1  0
 11 36  1  0
 12 37  1  0
 14 38  1  0
 15 39  1  0
 16 40  1  0
 17 41  1  0
M  CHG  1   6   1
M  END
>  <UniqueID>  (12) 
12

>  <SMILES>  (12) 
CCNCC[NH2+]Cc1cc2ccc3ccccc3c2o1

>  <Energy>  (12) 
71.15753503622389

>  <Genealogy>  (12) 
CCNCC[NH2+]Cc1cc2ccc3ccccc3c2o1 (protonated)
CCNCC[NH2+]Cc1cc2ccc3ccccc3c2o1 (3D coordinates assigned)
CCNCC[NH2+]Cc1cc2ccc3ccccc3c2o1 (optimized conformer: 71.15753503622389 kcal/mol)

>  <smiles>  (12) 
CCNCCNCc1cc2ccc3ccccc3c2o1

>  <score_type>  (12) 
oracle

>  <origin>  (12) 
adg

>  <m_score__min__energy>  (12) 
-7.2300000000000004

>  <m_primary>  (12) 
energy

$$$$
12:0
     RDKit          3D

 37 39  0  0  0  0  0  0  0  0999 V2000
   -6.1200   17.0800  -30.4630 C   0  0  0  0  0  0  0  0  0  0  0  0
   -6.6290   17.6870  -31.6950 N   0  0  0  0  0  0  0  0  0  0  0  0
   -7.8840   18.4560  -31.6680 C   0  0  0  0  0  0  0  0  0  0  0  0
   -7.9320   19.5600  -32.7310 C   0  0  0  0  0  0  0  0  0  0  0  0
   -6.6890   20.4160  -32.6860 C   0  0  0  0  0  0  0  0  0  0  0  0
   -6.7630   21.7260  -32.1830 C   0  0  0  0  0  0  0  0  0  0  0  0
   -5.6260   22.5380  -32.1520 C   0  0  0  0  0  0  0  0  0  0  0  0
   -5.7350   24.1720  -31.5220 S   0  0  0  0  0  0  0  0  0  0  0  0
   -6.8360   24.2740  -30.1290 C   0  0  0  0  0  0  0  0  0  0  0  0
   -4.2140   24.7880  -31.1630 O   0  0  0  0  0  0  0  0  0  0  0  0
   -4.4040   22.0460  -32.6190 C   0  0  0  0  0  0  0  0  0  0  0  0
   -4.3150   20.7420  -33.1100 C   0  0  0  0  0  0  0  0  0  0  0  0
   -5.4490   19.9120  -33.1440 C   0  0  0  0  0  0  0  0  0  0  0  0
   -5.3270   18.5130  -33.6350 C   0  0  0  0  0  0  0  0  0  0  0  0
   -4.6090   18.2400  -34.8130 C   0  0  0  0  0  0  0  0  0  0  0  0
   -4.4890   16.9300  -35.2830 C   0  0  0  0  0  0  0  0  0  0  0  0
   -3.7980   16.6800  -36.4240 F   0  0  0  0  0  0  0  0  0  0  0  0
   -5.0830   15.8790  -34.5840 C   0  0  0  0  0  0  0  0  0  0  0  0
   -5.7950   16.1320  -33.4110 C   0  0  0  0  0  0  0  0  0  0  0  0
   -5.9260   17.4440  -32.9280 C   0  0  0  0  0  0  0  0  0  0  0  0
   -6.5531   17.5965  -29.5937 H   0  0  0  0  0  0  0  0  0  0  0  0
   -6.4005   16.0167  -30.4350 H   0  0  0  0  0  0  0  0  0  0  0  0
   -5.0241   17.1709  -30.4350 H   0  0  0  0  0  0  0  0  0  0  0  0
   -8.7223   17.7653  -31.8416 H   0  0  0  0  0  0  0  0  0  0  0  0
   -7.9509   18.9430  -30.6840 H   0  0  0  0  0  0  0  0  0  0  0  0
   -8.0130   19.0971  -33.7256 H   0  0  0  0  0  0  0  0  0  0  0  0
   -8.8033   20.2003  -32.5289 H   0  0  0  0  0  0  0  0  0  0  0  0
   -7.7224   22.1150  -31.8111 H   0  0  0  0  0  0  0  0  0  0  0  0
   -6.2542   24.2201  -29.1970 H   0  0  0  0  0  0  0  0  0  0  0  0
   -7.3846   25.2268  -30.1642 H   0  0  0  0  0  0  0  0  0  0  0  0
   -7.5503   23.4382  -30.1642 H   0  0  0  0  0  0  0  0  0  0  0  0
   -4.1670   25.6490  -31.6500 H   0  0  0  0  0  0  0  0  0  0  0  0
   -3.5106   22.6874  -32.5997 H   0  0  0  0  0  0  0  0  0  0  0  0
   -3.3492   20.3609  -33.4733 H   0  0  0  0  0  0  0  0  0  0  0  0
   -4.1382   19.0644  -35.3686 H   0  0  0  0  0  0  0  0  0  0  0  0
   -4.9899   14.8488  -34.9583 H   0  0  0  0  0  0  0  0  0  0  0  0
   -6.2566   15.2985  -32.8612 H   0  0  0  0  0  0  0  0  0  0  0  0
  1  2  1  0
  2  3  1  0
  3  4  1  0
  4  5  1  0
  5  6  2  0
  6  7  1  0
  7  8  1  0
  8  9  1  0
  8 10  1  1
  7 11  2  0
 11 12  1  0
 12 13  2  0
 13 14  1  0
 14 15  2  0
 15 16  1  0
 16 17  1  0
 16 18  2  0
 18 19  1  0
 19 20  2  0
 20  2  1  0
 13  5  1  0
 20 14  1  0
  1 21  1  0
  1 22  1  0
  1 23  1  0
  3 24  1  0
  3 25  1  0
  4 26  1  0
  4 27  1  0
  6 28  1  0
  9 29  1  0
  9 30  1  0
  9 31  1  0
 10 32  1  0
 11 33  1  0
 12 34  1  0
 15 35  1  0
 18 36  1  0
 19 37  1  0
M  CHG  1   8   1
M  END
>  <UniqueID>  (13) 
13

>  <SMILES>  (13) 
CN1CCc2cc([S@@+](C)O)ccc2-c2cc(F)ccc21

>  <Energy>  (13) 
47.74272628653372

>  <Genealogy>  (13) 
CN1CCc2cc([S+](C)O)ccc2-c2cc(F)ccc21 (protonated)
CN1CCc2cc([S@@+](C)O)ccc2-c2cc(F)ccc21 (chirality)
CN1CCc2cc([S@@+](C)O)ccc2-c2cc(F)ccc21 (3D coordinates assigned)
CN1CCc2cc([S@@+](C)O)ccc2-c2cc(F)ccc21 (nonaromatic ring conformer: 47.74272628653372 kcal/mol)

>  <smiles>  (13) 
CN1CCc2cc([S+](C)[O-])ccc2-c2cc(F)ccc21

>  <score_type>  (13) 
oracle

>  <origin>  (13) 
adg

>  <m_score__min__energy>  (13) 
-6.04

>  <m_primary>  (13) 
energy

$$$$
13:0
     RDKit          3D

 47 49  0  0  0  0  0  0  0  0999 V2000
   -9.0630   18.2510  -31.7560 C   0  0  0  0  0  0  0  0  0  0  0  0
   -8.0180   19.1360  -32.3170 N   0  0  0  0  0  0  0  0  0  0  0  0
   -8.1530   20.5090  -32.2250 C   0  0  0  0  0  0  0  0  0  0  0  0
   -9.3840   21.1190  -31.8730 C   0  0  0  0  0  0  0  0  0  0  0  0
   -9.4900   22.5020  -31.7340 C   0  0  0  0  0  0  0  0  0  0  0  0
   -8.3840   23.3130  -31.9550 C   0  0  0  0  0  0  0  0  0  0  0  0
   -7.1700   22.7500  -32.3400 C   0  0  0  0  0  0  0  0  0  0  0  0
   -7.0430   21.3530  -32.4980 C   0  0  0  0  0  0  0  0  0  0  0  0
   -5.8300   20.7840  -32.9200 C   0  0  0  0  0  0  0  0  0  0  0  0
   -4.6710   21.6150  -33.1060 N   0  0  0  0  0  0  0  0  0  0  0  0
   -3.6830   21.8070  -32.0450 C   0  0  0  0  0  0  0  0  0  0  0  0
   -4.0280   23.0390  -31.1980 C   0  0  0  0  0  0  0  0  0  0  0  0
   -4.9160   22.6870  -29.9760 C   0  0  0  0  0  0  0  0  0  0  0  0
   -5.2950   23.8390  -29.1180 N   0  0  0  0  0  0  0  0  0  0  0  0
   -4.2500   24.1920  -28.1420 C   0  0  0  0  0  0  0  0  0  0  0  0
   -5.7110   25.0170  -29.9020 C   0  0  0  0  0  0  0  0  0  0  0  0
   -5.7750   19.4100  -33.2060 C   0  0  0  0  0  0  0  0  0  0  0  0
   -4.6310   18.8420  -33.8070 C   0  0  0  0  0  0  0  0  0  0  0  0
   -4.5930   17.4870  -34.1250 C   0  0  0  0  0  0  0  0  0  0  0  0
   -5.6970   16.6800  -33.8720 C   0  0  0  0  0  0  0  0  0  0  0  0
   -5.6660   15.3690  -34.2130 F   0  0  0  0  0  0  0  0  0  0  0  0
   -6.8420   17.2220  -33.2880 C   0  0  0  0  0  0  0  0  0  0  0  0
   -6.9000   18.5910  -32.9200 C   0  0  0  0  0  0  0  0  0  0  0  0
   -9.0219   18.2858  -30.6573 H   0  0  0  0  0  0  0  0  0  0  0  0
  -10.0524   18.5901  -32.0968 H   0  0  0  0  0  0  0  0  0  0  0  0
   -8.8915   17.2193  -32.0968 H   0  0  0  0  0  0  0  0  0  0  0  0
  -10.2708   20.4897  -31.7067 H   0  0  0  0  0  0  0  0  0  0  0  0
  -10.4521   22.9524  -31.4485 H   0  0  0  0  0  0  0  0  0  0  0  0
   -8.4674   24.4022  -31.8256 H   0  0  0  0  0  0  0  0  0  0  0  0
   -6.3017   23.4001  -32.5228 H   0  0  0  0  0  0  0  0  0  0  0  0
   -4.5680   22.1470  -34.0000 H   0  0  0  0  0  0  0  0  0  0  0  0
   -3.6697   20.9169  -31.3988 H   0  0  0  0  0  0  0  0  0  0  0  0
   -2.6956   21.9598  -32.5051 H   0  0  0  0  0  0  0  0  0  0  0  0
   -3.0931   23.4921  -30.8364 H   0  0  0  0  0  0  0  0  0  0  0  0
   -4.5939   23.7354  -31.8342 H   0  0  0  0  0  0  0  0  0  0  0  0
   -5.8403   22.2220  -30.3494 H   0  0  0  0  0  0  0  0  0  0  0  0
   -4.3136   22.0192  -29.3426 H   0  0  0  0  0  0  0  0  0  0  0  0
   -6.1330   23.5350  -28.5660 H   0  0  0  0  0  0  0  0  0  0  0  0
   -4.6410   24.0599  -27.1223 H   0  0  0  0  0  0  0  0  0  0  0  0
   -3.3769   23.5389  -28.2874 H   0  0  0  0  0  0  0  0  0  0  0  0
   -3.9517   25.2408  -28.2874 H   0  0  0  0  0  0  0  0  0  0  0  0
   -5.9980   25.8297  -29.2185 H   0  0  0  0  0  0  0  0  0  0  0  0
   -4.8757   25.3490  -30.5361 H   0  0  0  0  0  0  0  0  0  0  0  0
   -6.5695   24.7509  -30.5361 H   0  0  0  0  0  0  0  0  0  0  0  0
   -3.7599   19.4769  -34.0265 H   0  0  0  0  0  0  0  0  0  0  0  0
   -3.6884   17.0542  -34.5770 H   0  0  0  0  0  0  0  0  0  0  0  0
   -7.7150   16.5769  -33.1097 H   0  0  0  0  0  0  0  0  0  0  0  0
  1  2  1  0
  2  3  2  0
  3  4  1  0
  4  5  2  0
  5  6  1  0
  6  7  2  0
  7  8  1  0
  8  9  2  0
  9 10  1  0
 10 11  1  0
 11 12  1  0
 12 13  1  0
 13 14  1  0
 14 15  1  0
 14 16  1  0
  9 17  1  0
 17 18  2  0
 18 19  1  0
 19 20  2  0
 20 21  1  0
 20 22  1  0
 22 23  2  0
 23  2  1  0
  8  3  1  0
 23 17  1  0
  1 24  1  0
  1 25  1  0
  1 26  1  0
  4 27  1  0
  5 28  1  0
  6 29  1  0
  7 30  1  0
 10 31  1  0
 11 32  1  0
 11 33  1  0
 12 34  1  0
 12 35  1  0
 13 36  1  0
 13 37  1  0
 14 38  1  0
 15 39  1  0
 15 40  1  0
 15 41  1  0
 16 42  1  0
 16 43  1  0
 16 44  1  0
 18 45  1  0
 19 46  1  0
 22 47  1  0
M  CHG  2   2   1  14   1
M  END
>  <UniqueID>  (14) 
14

>  <SMILES>  (14) 
C[n+]1c2ccccc2c(NCCC[NH+](C)C)c2ccc(F)cc21

>  <Energy>  (14) 
76.59381504780356

>  <Genealogy>  (14) 
C[n+]1c2ccccc2c(NCCC[NH+](C)C)c2ccc(F)cc21 (protonated)
C[n+]1c2ccccc2c(NCCC[NH+](C)C)c2ccc(F)cc21 (3D coordinates assigned)
C[n+]1c2ccccc2c(NCCC[NH+](C)C)c2ccc(F)cc21 (optimized conformer: 76.59381504780356 kcal/mol)

>  <smiles>  (14) 
CN(C)CCCNc1c2ccccc2[n+](C)c2cc(F)ccc12

>  <score_type>  (14) 
oracle

>  <origin>  (14) 
adg

>  <m_score__min__energy>  (14) 
-7.0599999999999996

>  <m_primary>  (14) 
energy

$$$$
14:0
     RDKit          3D

 54 56  0  0  0  0  0  0  0  0999 V2000
   -3.8310   18.5480  -26.0470 C   0  0  0  0  0  0  0  0  0  0  0  0
   -2.3330   18.5300  -26.3410 C   0  0  0  0  0  0  0  0  0  0  0  0
   -1.8900   19.8650  -26.8050 N   0  0  0  0  0  0  0  0  0  0  0  0
   -0.6890   19.7680  -27.6600 C   0  0  0  0  0  0  0  0  0  0  0  0
   -0.2750   18.3100  -27.8220 C   0  0  0  0  0  0  0  0  0  0  0  0
   -2.9850   20.5940  -27.4880 C   0  0  0  0  0  0  0  0  0  0  0  0
   -2.4170   21.4970  -28.5910 C   0  0  0  0  0  0  0  0  0  0  0  0
   -3.2400   22.7860  -28.7500 C   0  0  0  0  0  0  0  0  0  0  0  0
   -3.1760   23.2700  -30.1280 N   0  0  0  0  0  0  0  0  0  0  0  0
   -3.8170   22.5480  -31.1930 C   0  0  0  0  0  0  0  0  0  0  0  0
   -3.0660   21.6330  -31.9520 C   0  0  0  0  0  0  0  0  0  0  0  0
   -1.6570   21.6170  -31.8830 C   0  0  0  0  0  0  0  0  0  0  0  0
   -0.9180   20.7330  -32.6680 C   0  0  0  0  0  0  0  0  0  0  0  0
   -1.5670   19.8590  -33.5330 C   0  0  0  0  0  0  0  0  0  0  0  0
   -2.9590   19.8370  -33.5930 C   0  0  0  0  0  0  0  0  0  0  0  0
   -3.7390   20.6940  -32.7740 C   0  0  0  0  0  0  0  0  0  0  0  0
   -5.1180   20.6190  -32.7460 N   0  0  0  0  0  0  0  0  0  0  0  0
   -5.8030   19.4280  -33.2980 C   0  0  0  0  0  0  0  0  0  0  0  0
   -5.8560   21.6430  -32.1790 C   0  0  0  0  0  0  0  0  0  0  0  0
   -7.2610   21.7170  -32.3440 C   0  0  0  0  0  0  0  0  0  0  0  0
   -8.0080   22.7190  -31.7360 C   0  0  0  0  0  0  0  0  0  0  0  0
   -7.3770   23.7150  -31.0080 C   0  0  0  0  0  0  0  0  0  0  0  0
   -5.9850   23.7300  -30.8780 C   0  0  0  0  0  0  0  0  0  0  0  0
   -5.3830   24.9050  -30.3150 N   0  0  0  0  0  0  0  0  0  0  0  0
   -5.7310   25.2940  -29.1830 O   0  0  0  0  0  0  0  0  0  0  0  0
   -4.2320   25.4150  -30.8680 O   0  0  0  0  0  0  0  0  0  0  0  0
   -5.2100   22.6560  -31.4120 C   0  0  0  0  0  0  0  0  0  0  0  0
   -3.9911   18.5499  -24.9587 H   0  0  0  0  0  0  0  0  0  0  0  0
   -4.2798   19.4516  -26.4852 H   0  0  0  0  0  0  0  0  0  0  0  0
   -4.3014   17.6554  -26.4852 H   0  0  0  0  0  0  0  0  0  0  0  0
   -1.7855   18.2629  -25.4251 H   0  0  0  0  0  0  0  0  0  0  0  0
   -2.1291   17.7890  -27.1280 H   0  0  0  0  0  0  0  0  0  0  0  0
   -0.9117   20.1946  -28.6492 H   0  0  0  0  0  0  0  0  0  0  0  0
    0.1339   20.3246  -27.1877 H   0  0  0  0  0  0  0  0  0  0  0  0
   -0.1453   17.8532  -26.8298 H   0  0  0  0  0  0  0  0  0  0  0  0
   -1.0545   17.7670  -28.3766 H   0  0  0  0  0  0  0  0  0  0  0  0
    0.6735   18.2576  -28.3766 H   0  0  0  0  0  0  0  0  0  0  0  0
   -3.6802   19.8684  -27.9353 H   0  0  0  0  0  0  0  0  0  0  0  0
   -3.5132   21.2177  -26.7518 H   0  0  0  0  0  0  0  0  0  0  0  0
   -1.3813   21.7646  -28.3347 H   0  0  0  0  0  0  0  0  0  0  0  0
   -2.4575   20.9446  -29.5414 H   0  0  0  0  0  0  0  0  0  0  0  0
   -4.2882   22.5805  -28.4872 H   0  0  0  0  0  0  0  0  0  0  0  0
   -2.8250   23.5565  -28.0836 H   0  0  0  0  0  0  0  0  0  0  0  0
   -2.5820   24.1020  -30.3480 H   0  0  0  0  0  0  0  0  0  0  0  0
   -1.1367   22.3083  -31.2037 H   0  0  0  0  0  0  0  0  0  0  0  0
    0.1801   20.7270  -32.6029 H   0  0  0  0  0  0  0  0  0  0  0  0
   -0.9798   19.1829  -34.1719 H   0  0  0  0  0  0  0  0  0  0  0  0
   -3.4606   19.1450  -34.2855 H   0  0  0  0  0  0  0  0  0  0  0  0
   -6.1654   18.7979  -32.4724 H   0  0  0  0  0  0  0  0  0  0  0  0
   -6.6548   19.7484  -33.9159 H   0  0  0  0  0  0  0  0  0  0  0  0
   -5.0977   18.8529  -33.9159 H   0  0  0  0  0  0  0  0  0  0  0  0
   -7.7710   20.9664  -32.9658 H   0  0  0  0  0  0  0  0  0  0  0  0
   -9.1037   22.7214  -31.8330 H   0  0  0  0  0  0  0  0  0  0  0  0
   -7.9773   24.5017  -30.5276 H   0  0  0  0  0  0  0  0  0  0  0  0
  1  2  1  0
  2  3  1  0
  3  4  1  0
  4  5  1  0
  3  6  1  0
  6  7  1  0
  7  8  1  0
  8  9  1  0
  9 10  1  0
 10 11  2  0
 11 12  1  0
 12 13  2  0
 13 14  1  0
 14 15  2  0
 15 16  1  0
 16 17  2  0
 17 18  1  0
 17 19  1  0
 19 20  2  0
 20 21  1  0
 21 22  2  0
 22 23  1  0
 23 24  1  0
 24 25  2  0
 24 26  1  0
 23 27  2  0
 27 10  1  0
 16 11  1  0
 27 19  1  0
  1 28  1  0
  1 29  1  0
  1 30  1  0
  2 31  1  0
  2 32  1  0
  4 33  1  0
  4 34  1  0
  5 35  1  0
  5 36  1  0
  5 37  1  0
  6 38  1  0
  6 39  1  0
  7 40  1  0
  7 41  1  0
  8 42  1  0
  8 43  1  0
  9 44  1  0
 12 45  1  0
 13 46  1  0
 14 47  1  0
 15 48  1  0
 18 49  1  0
 18 50  1  0
 18 51  1  0
 20 52  1  0
 21 53  1  0
 22 54  1  0
M  CHG  3  17   1  24   1  26  -1
M  END
>  <UniqueID>  (15) 
15

>  <SMILES>  (15) 
CCN(CC)CCCNc1c2ccccc2[n+](C)c2cccc([N+](=O)[O-])c12

>  <Energy>  (15) 
85.22621812238512

>  <Genealogy>  (15) 
CCN(CC)CCCNc1c2ccccc2[n+](C)c2cccc([N+](=O)[O-])c12 (3D coordinates assigned)
CCN(CC)CCCNc1c2ccccc2[n+](C)c2cccc([N+](=O)[O-])c12 (optimized conformer: 85.22621812238512 kcal/mol)

>  <smiles>  (15) 
CCN(CC)CCCNc1c2ccccc2[n+](C)c2cccc([N+](=O)[O-])c12

>  <score_type>  (15) 
oracle

>  <origin>  (15) 
adg

>  <m_score__min__energy>  (15) 
-8.0800000000000001

>  <m_primary>  (15) 
energy

$$$$
15:0
     RDKit          3D

 24 25  0  0  0  0  0  0  0  0999 V2000
   -2.2300   21.1670  -33.1320 C   0  0  0  0  0  0  0  0  0  0  0  0
   -3.7450   21.3040  -33.2380 C   0  0  0  0  0  0  0  0  0  0  0  0
   -4.3260   21.5250  -31.9530 O   0  0  0  0  0  0  0  0  0  0  0  0
   -4.5800   22.7800  -31.3740 C   0  0  0  0  0  0  0  0  0  0  0  0
   -5.8130   23.4500  -31.5180 C   0  0  0  0  0  0  0  0  0  0  0  0
   -6.0100   24.7000  -30.9250 C   0  0  0  0  0  0  0  0  0  0  0  0
   -4.9850   25.3020  -30.1920 C   0  0  0  0  0  0  0  0  0  0  0  0
   -3.7600   24.6460  -30.0440 C   0  0  0  0  0  0  0  0  0  0  0  0
   -3.5580   23.3860  -30.6280 C   0  0  0  0  0  0  0  0  0  0  0  0
   -2.3200   22.7470  -30.4840 O   0  0  0  0  0  0  0  0  0  0  0  0
   -1.3570   23.1180  -29.4920 C   0  0  0  0  0  0  0  0  0  0  0  0
   -1.4580   24.5750  -29.1370 C   0  0  0  0  0  0  0  0  0  0  0  0
   -0.4850   25.1650  -28.5990 O   0  0  0  0  0  0  0  0  0  0  0  0
   -2.6880   25.2720  -29.3390 N   0  0  0  0  0  0  0  0  0  0  0  0
   -1.9375   21.1405  -32.0719 H   0  0  0  0  0  0  0  0  0  0  0  0
   -1.9107   20.2363  -33.6238 H   0  0  0  0  0  0  0  0  0  0  0  0
   -1.7489   22.0253  -33.6238 H   0  0  0  0  0  0  0  0  0  0  0  0
   -3.9851   22.1543  -33.8932 H   0  0  0  0  0  0  0  0  0  0  0  0
   -4.1547   20.3718  -33.6541 H   0  0  0  0  0  0  0  0  0  0  0  0
   -6.6233   22.9863  -32.0998 H   0  0  0  0  0  0  0  0  0  0  0  0
   -6.9771   25.2122  -31.0361 H   0  0  0  0  0  0  0  0  0  0  0  0
   -5.1414   26.2892  -29.7327 H   0  0  0  0  0  0  0  0  0  0  0  0
   -1.5286   22.5177  -28.5864 H   0  0  0  0  0  0  0  0  0  0  0  0
   -0.3533   22.9338  -29.9026 H   0  0  0  0  0  0  0  0  0  0  0  0
  1  2  1  0
  2  3  1  0
  3  4  1  0
  4  5  2  0
  5  6  1  0
  6  7  2  0
  7  8  1  0
  8  9  2  0
  9 10  1  0
 10 11  1  0
 11 12  1  0
 12 13  2  0
 12 14  1  0
  9  4  1  0
 14  8  1  0
  1 15  1  0
  1 16  1  0
  1 17  1  0
  2 18  1  0
  2 19  1  0
  5 20  1  0
  6 21  1  0
  7 22  1  0
 11 23  1  0
 11 24  1  0
M  CHG  1  14  -1
M  END
>  <UniqueID>  (16) 
16

>  <SMILES>  (16) 
CCOc1cccc2c1OCC(=O)[N-]2

>  <Energy>  (16) 
23.840264529254068

>  <Genealogy>  (16) 
CCOc1cccc2c1OCC(=O)[N-]2 (protonated)
CCOc1cccc2c1OCC(=O)[N-]2 (3D coordinates assigned)
CCOc1cccc2c1OCC(=O)[N-]2 (nonaromatic ring conformer: 23.840264529254068 kcal/mol)

>  <smiles>  (16) 
CCOc1cccc2c1OCC(=O)N2

>  <score_type>  (16) 
oracle

>  <origin>  (16) 
adg

>  <m_score__min__energy>  (16) 
-6.4199999999999999

>  <m_primary>  (16) 
energy

$$$$
16:0
     RDKit          3D

 48 50  0  0  0  0  0  0  0  0999 V2000
   -3.0050   21.2750  -33.4800 C   0  0  0  0  0  0  0  0  0  0  0  0
   -1.6930   21.1670  -32.6910 C   0  0  0  0  0  0  0  0  0  0  0  0
   -1.9220   20.8390  -31.2640 N   0  0  0  0  0  0  0  0  0  0  0  0
   -0.6790   20.8040  -30.4650 C   0  0  0  0  0  0  0  0  0  0  0  0
   -0.3460   22.1540  -29.7980 C   0  0  0  0  0  0  0  0  0  0  0  0
   -1.5330   23.0210  -29.7260 N   0  0  0  0  0  0  0  0  0  0  0  0
   -1.7760   23.5110  -28.3610 C   0  0  0  0  0  0  0  0  0  0  0  0
   -2.4430   24.8870  -28.4320 C   0  0  0  0  0  0  0  0  0  0  0  0
   -3.0190   25.1080  -29.7200 O   0  0  0  0  0  0  0  0  0  0  0  0
   -4.1750   24.4840  -30.2160 C   0  0  0  0  0  0  0  0  0  0  0  0
   -5.3150   25.2690  -30.4060 C   0  0  0  0  0  0  0  0  0  0  0  0
   -6.5000   24.7020  -30.8740 C   0  0  0  0  0  0  0  0  0  0  0  0
   -6.5670   23.3280  -31.1620 C   0  0  0  0  0  0  0  0  0  0  0  0
   -5.4180   22.5250  -30.9900 C   0  0  0  0  0  0  0  0  0  0  0  0
   -4.2260   23.1110  -30.5260 C   0  0  0  0  0  0  0  0  0  0  0  0
   -5.4760   21.0740  -31.2910 C   0  0  0  0  0  0  0  0  0  0  0  0
   -4.4430   20.3590  -31.1620 O   0  0  0  0  0  0  0  0  0  0  0  0
   -6.7460   20.4570  -31.7440 C   0  0  0  0  0  0  0  0  0  0  0  0
   -6.8200   19.0740  -32.0050 C   0  0  0  0  0  0  0  0  0  0  0  0
   -8.0200   18.4960  -32.4260 C   0  0  0  0  0  0  0  0  0  0  0  0
   -9.1560   19.2890  -32.5930 C   0  0  0  0  0  0  0  0  0  0  0  0
   -9.0990   20.6650  -32.3380 C   0  0  0  0  0  0  0  0  0  0  0  0
   -7.8970   21.2610  -31.9110 C   0  0  0  0  0  0  0  0  0  0  0  0
   -7.8310   22.7180  -31.6350 C   0  0  0  0  0  0  0  0  0  0  0  0
   -8.8560   23.4380  -31.7950 O   0  0  0  0  0  0  0  0  0  0  0  0
   -3.8498   21.3445  -32.7789 H   0  0  0  0  0  0  0  0  0  0  0  0
   -2.9791   22.1740  -34.1133 H   0  0  0  0  0  0  0  0  0  0  0  0
   -3.1265   20.3838  -34.1133 H   0  0  0  0  0  0  0  0  0  0  0  0
   -1.0734   20.3772  -33.1408 H   0  0  0  0  0  0  0  0  0  0  0  0
   -1.1911   22.1448  -32.7359 H   0  0  0  0  0  0  0  0  0  0  0  0
   -2.3390   19.8800  -31.2160 H   0  0  0  0  0  0  0  0  0  0  0  0
   -2.6230   21.4810  -30.8210 H   0  0  0  0  0  0  0  0  0  0  0  0
   -0.7908   20.0436  -29.6780 H   0  0  0  0  0  0  0  0  0  0  0  0
    0.1454   20.5682  -31.1540 H   0  0  0  0  0  0  0  0  0  0  0  0
    0.0249   21.9686  -28.7791 H   0  0  0  0  0  0  0  0  0  0  0  0
    0.4190   22.6617  -30.4038 H   0  0  0  0  0  0  0  0  0  0  0  0
   -1.3710   23.8520  -30.3450 H   0  0  0  0  0  0  0  0  0  0  0  0
   -2.4359   22.8091  -27.8301 H   0  0  0  0  0  0  0  0  0  0  0  0
   -0.8209   23.5905  -27.8211 H   0  0  0  0  0  0  0  0  0  0  0  0
   -3.2336   24.9438  -27.6693 H   0  0  0  0  0  0  0  0  0  0  0  0
   -1.6791   25.6577  -28.2516 H   0  0  0  0  0  0  0  0  0  0  0  0
   -5.2774   26.3457  -30.1841 H   0  0  0  0  0  0  0  0  0  0  0  0
   -7.3883   25.3344  -31.0187 H   0  0  0  0  0  0  0  0  0  0  0  0
   -3.3255   22.4911  -30.4042 H   0  0  0  0  0  0  0  0  0  0  0  0
   -5.9266   18.4453  -31.8763 H   0  0  0  0  0  0  0  0  0  0  0  0
   -8.0695   17.4155  -32.6259 H   0  0  0  0  0  0  0  0  0  0  0  0
  -10.0995   18.8319  -32.9260 H   0  0  0  0  0  0  0  0  0  0  0  0
   -9.9986   21.2837  -32.4721 H   0  0  0  0  0  0  0  0  0  0  0  0
  1  2  1  0
  2  3  1  0
  3  4  1  0
  4  5  1  0
  5  6  1  0
  6  7  1  0
  7  8  1  0
  8  9  1  0
  9 10  1  0
 10 11  2  0
 11 12  1  0
 12 13  2  0
 13 14  1  0
 14 15  2  0
 14 16  1  0
 16 17  2  0
 16 18  1  0
 18 19  2  0
 19 20  1  0
 20 21  2  0
 21 22  1  0
 22 23  2  0
 23 24  1  0
 24 25  2  0
 15 10  1  0
 23 18  1  0
 24 13  1  0
  1 26  1  0
  1 27  1  0
  1 28  1  0
  2 29  1  0
  2 30  1  0
  3 31  1  0
  3 32  1  0
  4 33  1  0
  4 34  1  0
  5 35  1  0
  5 36  1  0
  6 37  1  0
  7 38  1  0
  7 39  1  0
  8 40  1  0
  8 41  1  0
 11 42  1  0
 12 43  1  0
 15 44  1  0
 19 45  1  0
 20 46  1  0
 21 47  1  0
 22 48  1  0
M  CHG  1   3   1
M  END
>  <UniqueID>  (17) 
17

>  <SMILES>  (17) 
CC[NH2+]CCNCCOc1ccc2c(c1)C(=O)c1ccccc1C2=O

>  <Energy>  (17) 
52.01682575181304

>  <Genealogy>  (17) 
CC[NH2+]CCNCCOc1ccc2c(c1)C(=O)c1ccccc1C2=O (protonated)
CC[NH2+]CCNCCOc1ccc2c(c1)C(=O)c1ccccc1C2=O (3D coordinates assigned)
CC[NH2+]CCNCCOc1ccc2c(c1)C(=O)c1ccccc1C2=O (nonaromatic ring conformer: 52.01682575181304 kcal/mol)

>  <smiles>  (17) 
CCNCCNCCOc1ccc2c(c1)C(=O)c1ccccc1C2=O

>  <score_type>  (17) 
oracle

>  <origin>  (17) 
adg

>  <m_score__min__energy>  (17) 
-9.2699999999999996

>  <m_primary>  (17) 
energy

$$$$
17:0
     RDKit          3D

 41 43  0  0  0  0  0  0  0  0999 V2000
   -3.4610   22.5670  -28.4390 C   0  0  0  0  0  0  0  0  0  0  0  0
   -3.9750   23.7850  -27.6490 C   0  0  2  0  0  0  0  0  0  0  0  0
   -4.9810   24.5590  -28.4170 N   0  0  0  0  0  0  0  0  0  0  0  0
   -4.7390   24.5650  -29.8730 C   0  0  0  0  0  0  0  0  0  0  0  0
   -5.6200   23.5770  -30.5990 C   0  0  0  0  0  0  0  0  0  0  0  0
   -7.0010   23.5050  -30.4280 C   0  0  0  0  0  0  0  0  0  0  0  0
   -7.4030   22.4220  -31.1750 C   0  0  0  0  0  0  0  0  0  0  0  0
   -8.6710   21.8680  -31.3420 C   0  0  0  0  0  0  0  0  0  0  0  0
   -8.7870   20.7210  -32.1450 C   0  0  0  0  0  0  0  0  0  0  0  0
  -10.0030   20.1520  -32.3330 F   0  0  0  0  0  0  0  0  0  0  0  0
   -7.6450   20.1550  -32.7500 C   0  0  0  0  0  0  0  0  0  0  0  0
   -6.3760   20.7320  -32.5600 C   0  0  0  0  0  0  0  0  0  0  0  0
   -6.2870   21.8810  -31.7650 C   0  0  0  0  0  0  0  0  0  0  0  0
   -5.1860   22.5920  -31.4340 N   0  0  0  0  0  0  0  0  0  0  0  0
   -3.8010   22.2970  -31.8090 C   0  0  0  0  0  0  0  0  0  0  0  0
   -2.8080   24.6740  -27.2590 C   0  0  0  0  0  0  0  0  0  0  0  0
   -2.7660   25.3000  -25.9970 C   0  0  0  0  0  0  0  0  0  0  0  0
   -1.6860   26.1150  -25.6460 C   0  0  0  0  0  0  0  0  0  0  0  0
   -0.6370   26.3140  -26.5470 C   0  0  0  0  0  0  0  0  0  0  0  0
   -0.6660   25.6980  -27.8000 C   0  0  0  0  0  0  0  0  0  0  0  0
   -1.7440   24.8820  -28.1560 C   0  0  0  0  0  0  0  0  0  0  0  0
   -3.1318   21.7869  -27.7368 H   0  0  0  0  0  0  0  0  0  0  0  0
   -4.2695   22.1729  -29.0722 H   0  0  0  0  0  0  0  0  0  0  0  0
   -2.6146   22.8713  -29.0722 H   0  0  0  0  0  0  0  0  0  0  0  0
   -4.4730   23.4137  -26.7412 H   0  0  0  0  0  0  0  0  0  0  0  0
   -4.9930   25.5520  -28.0850 H   0  0  0  0  0  0  0  0  0  0  0  0
   -5.9370   24.1660  -28.2440 H   0  0  0  0  0  0  0  0  0  0  0  0
   -4.9417   25.5737  -30.2621 H   0  0  0  0  0  0  0  0  0  0  0  0
   -3.6919   24.2744  -30.0436 H   0  0  0  0  0  0  0  0  0  0  0  0
   -7.6345   24.1717  -29.8246 H   0  0  0  0  0  0  0  0  0  0  0  0
   -9.5532   22.3148  -30.8602 H   0  0  0  0  0  0  0  0  0  0  0  0
   -7.7476   19.2557  -33.3750 H   0  0  0  0  0  0  0  0  0  0  0  0
   -5.4797   20.2931  -33.0227 H   0  0  0  0  0  0  0  0  0  0  0  0
   -3.1947   22.1679  -30.9003 H   0  0  0  0  0  0  0  0  0  0  0  0
   -3.7713   21.3724  -32.4041 H   0  0  0  0  0  0  0  0  0  0  0  0
   -3.3971   23.1293  -32.4041 H   0  0  0  0  0  0  0  0  0  0  0  0
   -3.5888   25.1462  -25.2833 H   0  0  0  0  0  0  0  0  0  0  0  0
   -1.6620   26.6003  -24.6591 H   0  0  0  0  0  0  0  0  0  0  0  0
    0.2120   26.9560  -26.2694 H   0  0  0  0  0  0  0  0  0  0  0  0
    0.1609   25.8551  -28.5082 H   0  0  0  0  0  0  0  0  0  0  0  0
   -1.7605   24.3992  -29.1442 H   0  0  0  0  0  0  0  0  0  0  0  0
  1  2  1  0
  2  3  1  0
  3  4  1  0
  4  5  1  0
  5  6  2  0
  6  7  1  0
  7  8  2  0
  8  9  1  0
  9 10  1  0
  9 11  2  0
 11 12  1  0
 12 13  2  0
 13 14  1  0
 14 15  1  0
  2 16  1  0
 16 17  2  0
 17 18  1  0
 18 19  2  0
 19 20  1  0
 20 21  2  0
 14  5  1  0
 21 16  1  0
 13  7  1  0
  1 22  1  0
  1 23  1  0
  1 24  1  0
  2 25  1  1
  3 26  1  0
  3 27  1  0
  4 28  1  0
  4 29  1  0
  6 30  1  0
  8 31  1  0
 11 32  1  0
 12 33  1  0
 15 34  1  0
 15 35  1  0
 15 36  1  0
 17 37  1  0
 18 38  1  0
 19 39  1  0
 20 40  1  0
 21 41  1  0
M  CHG  1   3   1
M  END
>  <UniqueID>  (18) 
18

>  <SMILES>  (18) 
C[C@H]([NH2+]Cc1cc2cc(F)ccc2n1C)c1ccccc1

>  <Energy>  (18) 
77.32459905003316

>  <Genealogy>  (18) 
CC([NH2+]Cc1cc2cc(F)ccc2n1C)c1ccccc1 (protonated)
C[C@H]([NH2+]Cc1cc2cc(F)ccc2n1C)c1ccccc1 (chirality)
C[C@H]([NH2+]Cc1cc2cc(F)ccc2n1C)c1ccccc1 (3D coordinates assigned)
C[C@H]([NH2+]Cc1cc2cc(F)ccc2n1C)c1ccccc1 (optimized conformer: 77.32459905003316 kcal/mol)

>  <smiles>  (18) 
CC(NCc1cc2cc(F)ccc2n1C)c1ccccc1

>  <score_type>  (18) 
oracle

>  <origin>  (18) 
adg

>  <m_score__min__energy>  (18) 
-7.2300000000000004

>  <m_primary>  (18) 
energy

$$$$
18:0
     RDKit          3D

 52 54  0  0  0  0  0  0  0  0999 V2000
   -7.9960   18.1750  -31.6690 C   0  0  0  0  0  0  0  0  0  0  0  0
   -8.9860   19.3080  -31.9200 C   0  0  0  0  0  0  0  0  0  0  0  0
   -8.5630   20.1200  -33.0720 N   0  0  0  0  0  0  0  0  0  0  0  0
   -7.1280   19.9830  -33.3750 C   0  0  0  0  0  0  0  0  0  0  0  0
   -6.3000   21.0640  -32.7200 C   0  0  0  0  0  0  0  0  0  0  0  0
   -4.9260   21.1600  -32.9880 C   0  0  0  0  0  0  0  0  0  0  0  0
   -4.1530   22.1520  -32.3780 C   0  0  0  0  0  0  0  0  0  0  0  0
   -4.7480   23.0660  -31.4880 C   0  0  0  0  0  0  0  0  0  0  0  0
   -4.0190   24.0820  -30.8540 O   0  0  0  0  0  0  0  0  0  0  0  0
   -4.0070   24.3110  -29.4480 C   0  0  0  0  0  0  0  0  0  0  0  0
   -3.3080   23.1660  -28.7670 C   0  0  0  0  0  0  0  0  0  0  0  0
   -3.6260   21.8480  -29.1360 C   0  0  0  0  0  0  0  0  0  0  0  0
   -2.9940   20.7660  -28.5190 C   0  0  0  0  0  0  0  0  0  0  0  0
   -2.0450   20.9870  -27.5190 C   0  0  0  0  0  0  0  0  0  0  0  0
   -1.2520   19.6270  -26.7460 Cl  0  0  0  0  0  0  0  0  0  0  0  0
   -1.7320   22.2920  -27.1290 C   0  0  0  0  0  0  0  0  0  0  0  0
   -2.3650   23.3860  -27.7360 C   0  0  0  0  0  0  0  0  0  0  0  0
   -2.0370   24.7140  -27.2990 N   0  0  0  0  0  0  0  0  0  0  0  0
   -2.8440   25.3690  -26.2630 C   0  0  0  0  0  0  0  0  0  0  0  0
   -1.9230   26.0280  -25.2310 C   0  0  0  0  0  0  0  0  0  0  0  0
   -0.8410   26.9310  -25.8690 C   0  0  0  0  0  0  0  0  0  0  0  0
   -0.7840   26.8470  -27.4030 C   0  0  0  0  0  0  0  0  0  0  0  0
   -0.8780   25.3960  -27.8880 C   0  0  0  0  0  0  0  0  0  0  0  0
   -6.1180   22.9680  -31.2220 C   0  0  0  0  0  0  0  0  0  0  0  0
   -6.8910   21.9770  -31.8330 C   0  0  0  0  0  0  0  0  0  0  0  0
   -7.8703   18.0312  -30.5857 H   0  0  0  0  0  0  0  0  0  0  0  0
   -8.3782   17.2474  -32.1201 H   0  0  0  0  0  0  0  0  0  0  0  0
   -7.0256   18.4294  -32.1201 H   0  0  0  0  0  0  0  0  0  0  0  0
   -9.9793   18.8816  -32.1236 H   0  0  0  0  0  0  0  0  0  0  0  0
   -9.0231   19.9505  -31.0279 H   0  0  0  0  0  0  0  0  0  0  0  0
   -9.1220   19.8360  -33.9100 H   0  0  0  0  0  0  0  0  0  0  0  0
   -6.7816   19.0036  -33.0134 H   0  0  0  0  0  0  0  0  0  0  0  0
   -7.0028   20.0752  -34.4639 H   0  0  0  0  0  0  0  0  0  0  0  0
   -4.4540   20.4498  -33.6828 H   0  0  0  0  0  0  0  0  0  0  0  0
   -3.0765   22.2187  -32.5941 H   0  0  0  0  0  0  0  0  0  0  0  0
   -3.4735   25.2485  -29.2323 H   0  0  0  0  0  0  0  0  0  0  0  0
   -5.0397   24.3873  -29.0769 H   0  0  0  0  0  0  0  0  0  0  0  0
   -4.3789   21.6669  -29.9172 H   0  0  0  0  0  0  0  0  0  0  0  0
   -3.2443   19.7384  -28.8213 H   0  0  0  0  0  0  0  0  0  0  0  0
   -0.9840   22.4620  -26.3406 H   0  0  0  0  0  0  0  0  0  0  0  0
   -3.4816   26.1361  -26.7267 H   0  0  0  0  0  0  0  0  0  0  0  0
   -3.4736   24.6184  -25.7628 H   0  0  0  0  0  0  0  0  0  0  0  0
   -2.5372   26.6419  -24.5558 H   0  0  0  0  0  0  0  0  0  0  0  0
   -1.4014   25.2210  -24.6956 H   0  0  0  0  0  0  0  0  0  0  0  0
   -1.0496   27.9735  -25.5868 H   0  0  0  0  0  0  0  0  0  0  0  0
    0.1309   26.5781  -25.4938 H   0  0  0  0  0  0  0  0  0  0  0  0
   -1.6232   27.4201  -27.8242 H   0  0  0  0  0  0  0  0  0  0  0  0
    0.1787   27.2617  -27.7367 H   0  0  0  0  0  0  0  0  0  0  0  0
   -0.9763   25.3894  -28.9836 H   0  0  0  0  0  0  0  0  0  0  0  0
    0.0339   24.8649  -27.5775 H   0  0  0  0  0  0  0  0  0  0  0  0
   -6.5906   23.6768  -30.5262 H   0  0  0  0  0  0  0  0  0  0  0  0
   -7.9678   21.9122  -31.6177 H   0  0  0  0  0  0  0  0  0  0  0  0
  1  2  1  0
  2  3  1  0
  3  4  1  0
  4  5  1  0
  5  6  2  0
  6  7  1  0
  7  8  2  0
  8  9  1  0
  9 10  1  0
 10 11  1  0
 11 12  2  0
 12 13  1  0
 13 14  2  0
 14 15  1  0
 14 16  1  0
 16 17  2  0
 17 18  1  0
 18 19  1  0
 19 20  1  0
 20 21  1  0
 21 22  1  0
 22 23  1  0
  8 24  1  0
 24 25  2  0
 25  5  1  0
 17 11  1  0
 23 18  1  0
  1 26  1  0
  1 27  1  0
  1 28  1  0
  2 29  1  0
  2 30  1  0
  3 31  1  0
  4 32  1  0
  4 33  1  0
  6 34  1  0
  7 35  1  0
 10 36  1  0
 10 37  1  0
 12 38  1  0
 13 39  1  0
 16 40  1  0
 19 41  1  0
 19 42  1  0
 20 43  1  0
 20 44  1  0
 21 45  1  0
 21 46  1  0
 22 47  1  0
 22 48  1  0
 23 49  1  0
 23 50  1  0
 24 51  1  0
 25 52  1  0
M  END
>  <UniqueID>  (19) 
19

>  <SMILES>  (19) 
CCNCc1ccc(OCc2ccc(Cl)cc2N2CCCCC2)cc1

>  <Energy>  (19) 
55.401953734202756

>  <Genealogy>  (19) 
CCNCc1ccc(OCc2ccc(Cl)cc2N2CCCCC2)cc1 (3D coordinates assigned)
CCNCc1ccc(OCc2ccc(Cl)cc2N2CCCCC2)cc1 (nonaromatic ring conformer: 55.401953734202756 kcal/mol)

>  <smiles>  (19) 
CCNCc1ccc(OCc2ccc(Cl)cc2N2CCCCC2)cc1

>  <score_type>  (19) 
oracle

>  <origin>  (19) 
adg

>  <m_score__min__energy>  (19) 
-8.5700000000000003

>  <m_primary>  (19) 
energy

$$$$
19:0
     RDKit          3D

 51 53  0  0  0  0  0  0  0  0999 V2000
   -2.5370   24.9260  -26.8740 C   0  0  0  0  0  0  0  0  0  0  0  0
   -1.5930   25.6300  -27.8410 C   0  0  0  0  0  0  0  0  0  0  0  0
   -1.6620   24.9980  -29.1660 N   0  0  0  0  0  0  0  0  0  0  0  0
   -2.4570   23.7590  -29.1350 C   0  0  0  0  0  0  0  0  0  0  0  0
   -3.2060   23.5650  -30.4550 C   0  0  0  0  0  0  0  0  0  0  0  0
   -3.8470   24.7680  -30.8370 O   0  0  0  0  0  0  0  0  0  0  0  0
   -4.9560   25.0340  -30.0060 C   0  0  0  0  0  0  0  0  0  0  0  0
   -5.9830   23.9050  -30.1220 C   0  0  0  0  0  0  0  0  0  0  0  0
   -6.7030   23.8600  -31.4900 C   0  0  0  0  0  0  0  0  0  0  0  0
   -5.8710   23.3440  -32.5980 N   0  0  0  0  0  0  0  0  0  0  0  0
   -5.8860   21.8910  -32.6780 C   0  0  0  0  0  0  0  0  0  0  0  0
   -4.7250   21.0960  -32.9320 C   0  0  0  0  0  0  0  0  0  0  0  0
   -3.4150   21.6320  -32.8860 C   0  0  0  0  0  0  0  0  0  0  0  0
   -2.3000   20.8360  -33.1320 C   0  0  0  0  0  0  0  0  0  0  0  0
   -2.4520   19.4870  -33.4120 C   0  0  0  0  0  0  0  0  0  0  0  0
   -3.7200   18.9130  -33.4300 C   0  0  0  0  0  0  0  0  0  0  0  0
   -4.8820   19.6900  -33.1990 C   0  0  0  0  0  0  0  0  0  0  0  0
   -6.1420   19.1080  -33.1960 N   0  0  0  0  0  0  0  0  0  0  0  0
   -6.3410   17.7070  -33.6250 C   0  0  0  0  0  0  0  0  0  0  0  0
   -7.2130   19.8450  -32.7570 C   0  0  0  0  0  0  0  0  0  0  0  0
   -8.5100   19.3540  -32.4880 C   0  0  0  0  0  0  0  0  0  0  0  0
   -9.3930   20.3350  -32.0540 C   0  0  0  0  0  0  0  0  0  0  0  0
   -8.5750   21.8030  -31.9890 S   0  0  0  0  0  0  0  0  0  0  0  0
   -7.0930   21.2030  -32.5170 C   0  0  0  0  0  0  0  0  0  0  0  0
   -2.2366   25.1501  -25.8398 H   0  0  0  0  0  0  0  0  0  0  0  0
   -3.5649   25.2798  -27.0421 H   0  0  0  0  0  0  0  0  0  0  0  0
   -2.4910   23.8399  -27.0421 H   0  0  0  0  0  0  0  0  0  0  0  0
   -1.8829   26.6876  -27.9271 H   0  0  0  0  0  0  0  0  0  0  0  0
   -0.5643   25.5532  -27.4592 H   0  0  0  0  0  0  0  0  0  0  0  0
   -2.1360   25.6730  -29.8120 H   0  0  0  0  0  0  0  0  0  0  0  0
   -1.7858   22.9031  -28.9713 H   0  0  0  0  0  0  0  0  0  0  0  0
   -3.1908   23.8295  -28.3186 H   0  0  0  0  0  0  0  0  0  0  0  0
   -2.4916   23.2700  -31.2377 H   0  0  0  0  0  0  0  0  0  0  0  0
   -3.9658   22.7805  -30.3236 H   0  0  0  0  0  0  0  0  0  0  0  0
   -4.6179   25.1125  -28.9622 H   0  0  0  0  0  0  0  0  0  0  0  0
   -5.4229   25.9791  -30.3203 H   0  0  0  0  0  0  0  0  0  0  0  0
   -5.4647   22.9467  -29.9703 H   0  0  0  0  0  0  0  0  0  0  0  0
   -6.7530   24.0901  -29.3586 H   0  0  0  0  0  0  0  0  0  0  0  0
   -7.5873   23.2131  -31.3929 H   0  0  0  0  0  0  0  0  0  0  0  0
   -6.9596   24.8987  -31.7456 H   0  0  0  0  0  0  0  0  0  0  0  0
   -4.8860   23.6510  -32.4290 H   0  0  0  0  0  0  0  0  0  0  0  0
   -6.1530   23.8240  -33.4740 H   0  0  0  0  0  0  0  0  0  0  0  0
   -3.2760   22.6977  -32.6514 H   0  0  0  0  0  0  0  0  0  0  0  0
   -1.2937   21.2794  -33.1041 H   0  0  0  0  0  0  0  0  0  0  0  0
   -1.5672   18.8677  -33.6208 H   0  0  0  0  0  0  0  0  0  0  0  0
   -3.8218   17.8356  -33.6273 H   0  0  0  0  0  0  0  0  0  0  0  0
   -6.4327   17.0617  -32.7389 H   0  0  0  0  0  0  0  0  0  0  0  0
   -7.2584   17.6348  -34.2276 H   0  0  0  0  0  0  0  0  0  0  0  0
   -5.4800   17.3822  -34.2276 H   0  0  0  0  0  0  0  0  0  0  0  0
   -8.7932   18.2981  -32.6102 H   0  0  0  0  0  0  0  0  0  0  0  0
  -10.4507   20.1777  -31.7960 H   0  0  0  0  0  0  0  0  0  0  0  0
  1  2  1  0
  2  3  1  0
  3  4  1  0
  4  5  1  0
  5  6  1  0
  6  7  1  0
  7  8  1  0
  8  9  1  0
  9 10  1  0
 10 11  1  0
 11 12  2  0
 12 13  1  0
 13 14  2  0
 14 15  1  0
 15 16  2  0
 16 17  1  0
 17 18  2  0
 18 19  1  0
 18 20  1  0
 20 21  1  0
 21 22  2  0
 22 23  1  0
 23 24  1  0
 24 11  1  0
 17 12  1  0
 24 20  2  0
  1 25  1  0
  1 26  1  0
  1 27  1  0
  2 28  1  0
  2 29  1  0
  3 30  1  0
  4 31  1  0
  4 32  1  0
  5 33  1  0
  5 34  1  0
  7 35  1  0
  7 36  1  0
  8 37  1  0
  8 38  1  0
  9 39  1  0
  9 40  1  0
 10 41  1  0
 10 42  1  0
 13 43  1  0
 14 44  1  0
 15 45  1  0
 16 46  1  0
 19 47  1  0
 19 48  1  0
 19 49  1  0
 21 50  1  0
 22 51  1  0
M  CHG  2  10   1  18   1
M  END
>  <UniqueID>  (20) 
20

>  <SMILES>  (20) 
CCNCCOCCC[NH2+]c1c2ccccc2[n+](C)c2ccsc12

>  <Energy>  (20) 
96.279960300138

>  <Genealogy>  (20) 
CCNCCOCCC[NH2+]c1c2ccccc2[n+](C)c2ccsc12 (protonated)
CCNCCOCCC[NH2+]c1c2ccccc2[n+](C)c2ccsc12 (3D coordinates assigned)
CCNCCOCCC[NH2+]c1c2ccccc2[n+](C)c2ccsc12 (optimized conformer: 96.279960300138 kcal/mol)

>  <smiles>  (20) 
CCNCCOCCCNc1c2ccccc2[n+](C)c2ccsc12

>  <score_type>  (20) 
oracle

>  <origin>  (20) 
adg

>  <m_score__min__energy>  (20) 
-7.9400000000000004

>  <m_primary>  (20) 
energy

$$$$
20:0
     RDKit          3D

 70 73  0  0  0  0  0  0  0  0999 V2000
   -6.3770   25.5430  -29.6190 C   0  0  0  0  0  0  0  0  0  0  0  0
   -5.0800   25.4610  -30.4210 C   0  0  0  0  0  0  0  0  0  0  0  0
   -5.1130   24.3050  -31.3410 N   0  0  0  0  0  0  0  0  0  0  0  0
   -6.4580   24.1610  -31.9260 C   0  0  0  0  0  0  0  0  0  0  0  0
   -4.7020   23.0560  -30.6580 C   0  0  0  0  0  0  0  0  0  0  0  0
   -3.8780   22.1640  -31.5950 C   0  0  0  0  0  0  0  0  0  0  0  0
   -4.6060   21.8730  -32.8320 N   0  0  0  0  0  0  0  0  0  0  0  0
   -5.0890   20.5440  -33.0870 C   0  0  0  0  0  0  0  0  0  0  0  0
   -6.4230   20.2170  -32.7900 C   0  0  0  0  0  0  0  0  0  0  0  0
   -7.3040   21.1840  -32.2620 C   0  0  0  0  0  0  0  0  0  0  0  0
   -8.6060   20.8410  -31.8980 C   0  0  0  0  0  0  0  0  0  0  0  0
   -9.0470   19.5320  -32.0500 C   0  0  0  0  0  0  0  0  0  0  0  0
   -8.2010   18.5650  -32.5880 C   0  0  0  0  0  0  0  0  0  0  0  0
   -6.8820   18.8900  -33.0000 C   0  0  0  0  0  0  0  0  0  0  0  0
   -6.0420   17.9470  -33.5640 N   0  0  0  0  0  0  0  0  0  0  0  0
   -6.5930   16.6570  -34.0380 C   0  0  0  0  0  0  0  0  0  0  0  0
   -4.6950   18.2190  -33.7100 C   0  0  0  0  0  0  0  0  0  0  0  0
   -3.7610   17.2000  -34.0180 C   0  0  0  0  0  0  0  0  0  0  0  0
   -2.4180   17.4980  -34.2300 C   0  0  0  0  0  0  0  0  0  0  0  0
   -1.9550   18.8140  -34.1390 C   0  0  0  0  0  0  0  0  0  0  0  0
   -0.5800   19.1160  -34.4570 N   0  0  0  0  0  0  0  0  0  0  0  0
    0.0640   19.8590  -33.3490 C   0  0  0  0  0  0  0  0  0  0  0  0
    0.6320   21.2070  -33.8070 C   0  0  0  0  0  0  0  0  0  0  0  0
    0.5160   21.3400  -35.2790 N   0  0  0  0  0  0  0  0  0  0  0  0
    0.2730   22.7270  -35.7430 C   0  0  0  0  0  0  0  0  0  0  0  0
    1.5590   23.5200  -36.0690 C   0  0  0  0  0  0  0  0  0  0  0  0
    2.7950   22.9160  -35.4060 C   0  0  0  0  0  0  0  0  0  0  0  0
    2.9750   21.4420  -35.8000 C   0  0  0  0  0  0  0  0  0  0  0  0
    1.6340   20.7040  -36.0050 C   0  0  0  0  0  0  0  0  0  0  0  0
   -2.8540   19.8320  -33.7990 C   0  0  0  0  0  0  0  0  0  0  0  0
   -4.2090   19.5410  -33.5310 C   0  0  0  0  0  0  0  0  0  0  0  0
   -6.1448   25.5283  -28.5439 H   0  0  0  0  0  0  0  0  0  0  0  0
   -6.9035   26.4762  -29.8677 H   0  0  0  0  0  0  0  0  0  0  0  0
   -7.0169   24.6835  -29.8677 H   0  0  0  0  0  0  0  0  0  0  0  0
   -4.9563   26.3850  -31.0049 H   0  0  0  0  0  0  0  0  0  0  0  0
   -4.2379   25.3374  -29.7242 H   0  0  0  0  0  0  0  0  0  0  0  0
   -7.2020   24.0813  -31.1197 H   0  0  0  0  0  0  0  0  0  0  0  0
   -6.6836   25.0401  -32.5475 H   0  0  0  0  0  0  0  0  0  0  0  0
   -6.4924   23.2540  -32.5475 H   0  0  0  0  0  0  0  0  0  0  0  0
   -4.0945   23.3107  -29.7770 H   0  0  0  0  0  0  0  0  0  0  0  0
   -5.6063   22.5071  -30.3563 H   0  0  0  0  0  0  0  0  0  0  0  0
   -2.9387   22.6789  -31.8451 H   0  0  0  0  0  0  0  0  0  0  0  0
   -3.6765   21.2132  -31.0798 H   0  0  0  0  0  0  0  0  0  0  0  0
   -4.9860   22.6530  -33.4180 H   0  0  0  0  0  0  0  0  0  0  0  0
   -6.9599   22.2212  -32.1358 H   0  0  0  0  0  0  0  0  0  0  0  0
   -9.2833   21.6062  -31.4909 H   0  0  0  0  0  0  0  0  0  0  0  0
  -10.0677   19.2585  -31.7444 H   0  0  0  0  0  0  0  0  0  0  0  0
   -8.5614   17.5313  -32.6955 H   0  0  0  0  0  0  0  0  0  0  0  0
   -6.8599   16.0322  -33.1729 H   0  0  0  0  0  0  0  0  0  0  0  0
   -7.4902   16.8430  -34.6466 H   0  0  0  0  0  0  0  0  0  0  0  0
   -5.8383   16.1374  -34.6466 H   0  0  0  0  0  0  0  0  0  0  0  0
   -4.1022   16.1568  -34.0908 H   0  0  0  0  0  0  0  0  0  0  0  0
   -1.7130   16.6890  -34.4719 H   0  0  0  0  0  0  0  0  0  0  0  0
   -0.0470   18.2320  -34.6380 H   0  0  0  0  0  0  0  0  0  0  0  0
   -0.5650   19.6640  -35.3490 H   0  0  0  0  0  0  0  0  0  0  0  0
   -0.6832   20.0387  -32.5620 H   0  0  0  0  0  0  0  0  0  0  0  0
    0.9006   19.2499  -32.9762 H   0  0  0  0  0  0  0  0  0  0  0  0
    0.0709   22.0204  -33.3237 H   0  0  0  0  0  0  0  0  0  0  0  0
    1.6938   21.2627  -33.5249 H   0  0  0  0  0  0  0  0  0  0  0  0
   -0.3453   22.6835  -36.6518 H   0  0  0  0  0  0  0  0  0  0  0  0
   -0.2230   23.2551  -34.9153 H   0  0  0  0  0  0  0  0  0  0  0  0
    1.7071   23.5215  -37.1590 H   0  0  0  0  0  0  0  0  0  0  0  0
    1.4329   24.5411  -35.6798 H   0  0  0  0  0  0  0  0  0  0  0  0
    3.6837   23.4824  -35.7212 H   0  0  0  0  0  0  0  0  0  0  0  0
    2.6658   22.9707  -34.3150 H   0  0  0  0  0  0  0  0  0  0  0  0
    3.5467   21.3974  -36.7387 H   0  0  0  0  0  0  0  0  0  0  0  0
    3.5024   20.9427  -34.9738 H   0  0  0  0  0  0  0  0  0  0  0  0
    1.3971   20.6967  -37.0792 H   0  0  0  0  0  0  0  0  0  0  0  0
    1.7515   19.6852  -35.6071 H   0  0  0  0  0  0  0  0  0  0  0  0
   -2.4999   20.8718  -33.7400 H   0  0  0  0  0  0  0  0  0  0  0  0
  1  2  1  0
  2  3  1  0
  3  4  1  0
  3  5  1  0
  5  6  1  0
  6  7  1  0
  7  8  1  0
  8  9  2  0
  9 10  1  0
 10 11  2  0
 11 12  1  0
 12 13  2  0
 13 14  1  0
 14 15  2  0
 15 16  1  0
 15 17  1  0
 17 18  2  0
 18 19  1  0
 19 20  2  0
 20 21  1  0
 21 22  1  0
 22 23  1  0
 23 24  1  0
 24 25  1  0
 25 26  1  0
 26 27  1  0
 27 28  1  0
 28 29  1  0
 20 30  1  0
 30 31  2  0
 31  8  1  0
 14  9  1  0
 31 17  1  0
 29 24  1  0
  1 32  1  0
  1 33  1  0
  1 34  1  0
  2 35  1  0
  2 36  1  0
  4 37  1  0
  4 38  1  0
  4 39  1  0
  5 40  1  0
  5 41  1  0
  6 42  1  0
  6 43  1  0
  7 44  1  0
 10 45  1  0
 11 46  1  0
 12 47  1  0
 13 48  1  0
 16 49  1  0
 16 50  1  0
 16 51  1  0
 18 52  1  0
 19 53  1  0
 21 54  1  0
 21 55  1  0
 22 56  1  0
 22 57  1  0
 23 58  1  0
 23 59  1  0
 25 60  1  0
 25 61  1  0
 26 62  1  0
 26 63  1  0
 27 64  1  0
 27 65  1  0
 28 66  1  0
 28 67  1  0
 29 68  1  0
 29 69  1  0
 30 70  1  0
M  CHG  2  15   1  21   1
M  END
>  <UniqueID>  (21) 
21

>  <SMILES>  (21) 
CCN(C)CCNc1c2ccccc2[n+](C)c2ccc([NH2+]CCN3CCCCC3)cc12

>  <Energy>  (21) 
107.83824926182847

>  <Genealogy>  (21) 
CCN(C)CCNc1c2ccccc2[n+](C)c2ccc([NH2+]CCN3CCCCC3)cc12 (protonated)
CCN(C)CCNc1c2ccccc2[n+](C)c2ccc([NH2+]CCN3CCCCC3)cc12 (3D coordinates assigned)
CCN(C)CCNc1c2ccccc2[n+](C)c2ccc([NH2+]CCN3CCCCC3)cc12 (nonaromatic ring conformer: 107.83824926182847 kcal/mol)

>  <smiles>  (21) 
CCN(C)CCNc1c2ccccc2[n+](C)c2ccc(NCCN3CCCCC3)cc12

>  <score_type>  (21) 
oracle

>  <origin>  (21) 
adg

>  <m_score__min__energy>  (21) 
-8.5899999999999999

>  <m_primary>  (21) 
energy

$$$$
21:0
     RDKit          3D

 62 61  0  0  0  0  0  0  0  0999 V2000
   -6.3779   17.8282  -31.4642 H   0  0  0  0  0  0  0  0  0  0  0  0
   -6.9590   17.8100  -32.3980 C   0  0  0  0  0  0  0  0  0  0  0  0
   -6.3070   17.4810  -33.5360 C   0  0  0  0  0  0  0  0  0  0  0  0
   -5.7490   18.5250  -34.4730 C   0  0  0  0  0  0  0  0  0  0  0  0
   -5.3101   19.3462  -33.8874 H   0  0  0  0  0  0  0  0  0  0  0  0
   -4.9731   18.0714  -35.1072 H   0  0  0  0  0  0  0  0  0  0  0  0
   -6.5573   18.9181  -35.1072 H   0  0  0  0  0  0  0  0  0  0  0  0
   -6.1510   16.0210  -33.8750 C   0  0  0  0  0  0  0  0  0  0  0  0
   -6.0883   15.4338  -32.9470 H   0  0  0  0  0  0  0  0  0  0  0  0
   -7.0185   15.6863  -34.4627 H   0  0  0  0  0  0  0  0  0  0  0  0
   -5.2324   15.8772  -34.4627 H   0  0  0  0  0  0  0  0  0  0  0  0
   -8.4260   18.1540  -32.3160 C   0  0  0  0  0  0  0  0  0  0  0  0
   -8.9887   17.2595  -32.0108 H   0  0  0  0  0  0  0  0  0  0  0  0
   -8.7605   18.5008  -33.3049 H   0  0  0  0  0  0  0  0  0  0  0  0
   -8.6720   19.2740  -31.2960 C   0  0  0  0  0  0  0  0  0  0  0  0
   -7.9681   19.1566  -30.4589 H   0  0  0  0  0  0  0  0  0  0  0  0
   -9.7119   19.2002  -30.9450 H   0  0  0  0  0  0  0  0  0  0  0  0
   -7.4230   20.9720  -32.7090 C   0  0  0  0  0  0  0  0  0  0  0  0
   -6.1010   24.7470  -31.2580 C   0  0  0  0  0  0  0  0  0  0  0  0
   -6.8285   25.1865  -31.9563 H   0  0  0  0  0  0  0  0  0  0  0  0
   -5.9860   21.0950  -32.2640 C   0  0  0  0  0  0  0  0  0  0  0  0
   -5.3588   20.4728  -32.9194 H   0  0  0  0  0  0  0  0  0  0  0  0
   -5.9295   20.7620  -31.2171 H   0  0  0  0  0  0  0  0  0  0  0  0
   -5.4760   22.5440  -32.3230 C   0  0  0  0  0  0  0  0  0  0  0  0
   -5.7762   22.9857  -33.2846 H   0  0  0  0  0  0  0  0  0  0  0  0
   -4.3815   22.5200  -32.2160 H   0  0  0  0  0  0  0  0  0  0  0  0
   -6.0340   23.3980  -31.1980 C   0  0  0  0  0  0  0  0  0  0  0  0
   -8.4740   20.6460  -31.9200 C   0  0  0  0  0  0  0  0  0  0  0  0
   -7.6358   21.1647  -33.7709 H   0  0  0  0  0  0  0  0  0  0  0  0
   -5.2580   25.6990  -30.4440 C   0  0  0  0  0  0  0  0  0  0  0  0
   -5.6057   25.6945  -29.4004 H   0  0  0  0  0  0  0  0  0  0  0  0
   -5.3497   26.7133  -30.8596 H   0  0  0  0  0  0  0  0  0  0  0  0
   -3.9010   25.2940  -30.4900 O   0  0  0  0  0  0  0  0  0  0  0  0
   -3.5400   24.5260  -29.3550 C   0  0  0  0  0  0  0  0  0  0  0  0
   -4.2740   23.7173  -29.2234 H   0  0  0  0  0  0  0  0  0  0  0  0
   -3.5270   25.1921  -28.4797 H   0  0  0  0  0  0  0  0  0  0  0  0
   -2.1410   23.9090  -29.5090 C   0  0  0  0  0  0  0  0  0  0  0  0
   -1.5703   24.0780  -28.5839 H   0  0  0  0  0  0  0  0  0  0  0  0
   -1.6416   24.3864  -30.3650 H   0  0  0  0  0  0  0  0  0  0  0  0
   -2.2240   22.4550  -29.7660 N   0  0  0  0  0  0  0  0  0  0  0  0
   -3.2480   21.7910  -28.9240 C   0  0  0  0  0  0  0  0  0  0  0  0
   -4.0058   21.3459  -29.5855 H   0  0  0  0  0  0  0  0  0  0  0  0
   -3.6687   22.5623  -28.2622 H   0  0  0  0  0  0  0  0  0  0  0  0
   -2.6830   20.6840  -28.0200 C   0  0  0  0  0  0  0  0  0  0  0  0
   -2.8255   20.9632  -26.9656 H   0  0  0  0  0  0  0  0  0  0  0  0
   -3.2095   19.7399  -28.2237 H   0  0  0  0  0  0  0  0  0  0  0  0
   -1.6096   20.5565  -28.2237 H   0  0  0  0  0  0  0  0  0  0  0  0
   -2.3570   22.1160  -31.2040 C   0  0  0  0  0  0  0  0  0  0  0  0
   -3.1646   22.7158  -31.6490 H   0  0  0  0  0  0  0  0  0  0  0  0
   -1.4110   22.3339  -31.7212 H   0  0  0  0  0  0  0  0  0  0  0  0
   -2.6850   20.6370  -31.3480 C   0  0  0  0  0  0  0  0  0  0  0  0
   -2.7853   20.1848  -30.3503 H   0  0  0  0  0  0  0  0  0  0  0  0
   -3.6302   20.5230  -31.8989 H   0  0  0  0  0  0  0  0  0  0  0  0
   -1.8766   20.1341  -31.8989 H   0  0  0  0  0  0  0  0  0  0  0  0
   -6.5260   22.7210  -29.9440 C   0  0  0  0  0  0  0  0  0  0  0  0
   -6.1385   23.2542  -29.0633 H   0  0  0  0  0  0  0  0  0  0  0  0
   -7.6258   22.7354  -29.9269 H   0  0  0  0  0  0  0  0  0  0  0  0
   -6.1727   21.6794  -29.9269 H   0  0  0  0  0  0  0  0  0  0  0  0
   -9.4940   21.7180  -31.6310 C   0  0  0  0  0  0  0  0  0  0  0  0
   -9.6050   21.8347  -30.5429 H   0  0  0  0  0  0  0  0  0  0  0  0
   -9.1599   22.6698  -32.0696 H   0  0  0  0  0  0  0  0  0  0  0  0
  -10.4613   21.4316  -32.0696 H   0  0  0  0  0  0  0  0  0  0  0  0
  1  2  1  0
  2  3  2  3
  3  4  1  0
  4  5  1  0
  4  6  1  0
  4  7  1  0
  3  8  1  0
  8  9  1  0
  8 10  1  0
  8 11  1  0
  2 12  1  0
 12 13  1  0
 12 14  1  0
 12 15  1  0
 15 16  1  0
 15 17  1  0
 15 18  1  0
 18 19  2  0
 19 20  1  0
 19 21  1  0
 21 22  1  0
 21 23  1  0
 21 24  1  0
 24 25  1  0
 24 26  1  0
 24 27  1  0
 27 28  2  0
 28 29  1  0
 28 30  1  0
 30 31  1  0
 30 32  1  0
 30 33  1  0
 33 34  1  0
 34 35  1  0
 34 36  1  0
 34 37  1  0
 37 38  1  0
 37 39  1  0
 37 40  1  0
 40 41  1  0
 41 42  1  0
 41 43  1  0
 41 44  1  0
 44 45  1  0
 44 46  1  0
 44 47  1  0
 40 48  1  0
 48 49  1  0
 48 50  1  0
 48 51  1  0
 51 52  1  0
 51 53  1  0
 51 54  1  0
 27 55  1  0
 55 56  1  0
 55 57  1  0
 55 58  1  0
 18 59  1  0
 59 60  1  0
 59 61  1  0
 59 62  1  0
M  END
>  <UniqueID>  (22) 
22

>  <SMILES>  (22) 
CCN(CC)CCOC/C=C(/C)CC/C=C(/C)CCC=C(C)C

>  <Energy>  (22) 
43.67333783739067

>  <Genealogy>  (22) 
CCN(CC)CCOC/C=C(/C)CC/C=C(/C)CCC=C(C)C (cis-trans isomerization)
CCN(CC)CCOC/C=C(/C)CC/C=C(/C)CCC=C(C)C (3D coordinates assigned)
CCN(CC)CCOC/C=C(/C)CC/C=C(/C)CCC=C(C)C (optimized conformer: 43.67333783739067 kcal/mol)

>  <smiles>  (22) 
CCN(CC)CCOCC=C(C)CCC=C(C)CCC=C(C)C

>  <score_type>  (22) 
oracle

>  <origin>  (22) 
adg

>  <m_score__min__energy>  (22) 
-7.1399999999999997

>  <m_primary>  (22) 
energy

$$$$
22:0
     RDKit          3D

 71 73  0  0  0  0  0  0  0  0999 V2000
   -3.2800   23.2160  -28.6580 C   0  0  0  0  0  0  0  0  0  0  0  0
   -3.2120   24.4630  -29.5300 C   0  0  0  0  0  0  0  0  0  0  0  0
   -4.0240   24.2560  -30.7540 N   0  0  0  0  0  0  0  0  0  0  0  0
   -5.1840   25.1690  -30.8500 C   0  0  0  0  0  0  0  0  0  0  0  0
   -6.1080   25.0070  -29.6450 C   0  0  0  0  0  0  0  0  0  0  0  0
   -4.3970   22.8390  -30.9640 C   0  0  0  0  0  0  0  0  0  0  0  0
   -3.6940   22.1960  -32.1750 C   0  0  0  0  0  0  0  0  0  0  0  0
   -4.6700   21.7360  -33.1640 N   0  0  0  0  0  0  0  0  0  0  0  0
   -5.7630   20.8750  -32.8030 C   0  0  0  0  0  0  0  0  0  0  0  0
   -6.9880   21.4510  -32.4200 C   0  0  0  0  0  0  0  0  0  0  0  0
   -7.1110   22.8510  -32.2770 C   0  0  0  0  0  0  0  0  0  0  0  0
   -8.3370   23.4290  -31.9620 C   0  0  0  0  0  0  0  0  0  0  0  0
   -9.4620   22.6300  -31.7990 C   0  0  0  0  0  0  0  0  0  0  0  0
   -9.3610   21.2440  -31.9230 C   0  0  0  0  0  0  0  0  0  0  0  0
   -8.1160   20.6210  -32.2000 C   0  0  0  0  0  0  0  0  0  0  0  0
   -7.9950   19.2480  -32.2890 N   0  0  0  0  0  0  0  0  0  0  0  0
   -9.0920   18.3790  -31.8060 C   0  0  0  0  0  0  0  0  0  0  0  0
   -6.8350   18.6820  -32.7850 C   0  0  0  0  0  0  0  0  0  0  0  0
   -6.7840   17.3170  -33.1550 C   0  0  0  0  0  0  0  0  0  0  0  0
   -5.5920   16.7200  -33.5710 C   0  0  0  0  0  0  0  0  0  0  0  0
   -5.5640   15.2590  -33.9210 C   0  0  0  0  0  0  0  0  0  0  0  0
   -4.4150   17.4620  -33.5700 C   0  0  0  0  0  0  0  0  0  0  0  0
   -4.4260   18.8320  -33.2540 C   0  0  0  0  0  0  0  0  0  0  0  0
   -3.2240   19.5650  -33.1940 O   0  0  0  0  0  0  0  0  0  0  0  0
   -1.9840   19.2030  -33.8030 C   0  0  0  0  0  0  0  0  0  0  0  0
   -0.9580   18.7880  -32.7230 C   0  0  0  0  0  0  0  0  0  0  0  0
   -0.3900   19.9120  -31.9190 N   0  0  0  0  0  0  0  0  0  0  0  0
    0.9790   19.5990  -31.4460 C   0  0  0  0  0  0  0  0  0  0  0  0
   -1.2610   20.1110  -30.7350 C   0  0  0  0  0  0  0  0  0  0  0  0
   -0.3720   21.1730  -32.7000 C   0  0  0  0  0  0  0  0  0  0  0  0
   -5.6620   19.4720  -32.9530 C   0  0  0  0  0  0  0  0  0  0  0  0
   -3.2640   23.5087  -27.5978 H   0  0  0  0  0  0  0  0  0  0  0  0
   -4.2093   22.6683  -28.8732 H   0  0  0  0  0  0  0  0  0  0  0  0
   -2.4157   22.5705  -28.8732 H   0  0  0  0  0  0  0  0  0  0  0  0
   -3.6060   25.3239  -28.9699 H   0  0  0  0  0  0  0  0  0  0  0  0
   -2.1665   24.6562  -29.8122 H   0  0  0  0  0  0  0  0  0  0  0  0
   -4.8226   26.2072  -30.8894 H   0  0  0  0  0  0  0  0  0  0  0  0
   -5.7493   24.9234  -31.7611 H   0  0  0  0  0  0  0  0  0  0  0  0
   -5.5238   25.1094  -28.7186 H   0  0  0  0  0  0  0  0  0  0  0  0
   -6.8880   25.7821  -29.6742 H   0  0  0  0  0  0  0  0  0  0  0  0
   -6.5778   24.0128  -29.6742 H   0  0  0  0  0  0  0  0  0  0  0  0
   -4.1283   22.2700  -30.0618 H   0  0  0  0  0  0  0  0  0  0  0  0
   -5.4784   22.8133  -31.1639 H   0  0  0  0  0  0  0  0  0  0  0  0
   -3.0309   22.9389  -32.6424 H   0  0  0  0  0  0  0  0  0  0  0  0
   -3.1146   21.3291  -31.8246 H   0  0  0  0  0  0  0  0  0  0  0  0
   -4.5390   21.9960  -34.1680 H   0  0  0  0  0  0  0  0  0  0  0  0
   -6.2276   23.4915  -32.4162 H   0  0  0  0  0  0  0  0  0  0  0  0
   -8.4156   24.5196  -31.8419 H   0  0  0  0  0  0  0  0  0  0  0  0
  -10.4344   23.0912  -31.5717 H   0  0  0  0  0  0  0  0  0  0  0  0
  -10.2615   20.6235  -31.8041 H   0  0  0  0  0  0  0  0  0  0  0  0
   -9.0985   18.3739  -30.7060 H   0  0  0  0  0  0  0  0  0  0  0  0
  -10.0540   18.7627  -32.1766 H   0  0  0  0  0  0  0  0  0  0  0  0
   -8.9386   17.3547  -32.1766 H   0  0  0  0  0  0  0  0  0  0  0  0
   -7.7027   16.7134  -33.1141 H   0  0  0  0  0  0  0  0  0  0  0  0
   -5.5525   14.6610  -32.9978 H   0  0  0  0  0  0  0  0  0  0  0  0
   -6.4575   15.0060  -34.5107 H   0  0  0  0  0  0  0  0  0  0  0  0
   -4.6615   15.0405  -34.5107 H   0  0  0  0  0  0  0  0  0  0  0  0
   -3.4632   16.9703  -33.8197 H   0  0  0  0  0  0  0  0  0  0  0  0
   -2.1493   18.3598  -34.4898 H   0  0  0  0  0  0  0  0  0  0  0  0
   -1.5909   20.0681  -34.3571 H   0  0  0  0  0  0  0  0  0  0  0  0
   -1.4550   18.0921  -32.0311 H   0  0  0  0  0  0  0  0  0  0  0  0
   -0.1106   18.3408  -33.2632 H   0  0  0  0  0  0  0  0  0  0  0  0
    0.9950   19.5953  -30.3461 H   0  0  0  0  0  0  0  0  0  0  0  0
    1.2789   18.6091  -31.8204 H   0  0  0  0  0  0  0  0  0  0  0  0
    1.6793   20.3602  -31.8204 H   0  0  0  0  0  0  0  0  0  0  0  0
   -0.6693   19.9758  -29.8176 H   0  0  0  0  0  0  0  0  0  0  0  0
   -1.6798   21.1280  -30.7547 H   0  0  0  0  0  0  0  0  0  0  0  0
   -2.0799   19.3768  -30.7547 H   0  0  0  0  0  0  0  0  0  0  0  0
   -0.3598   22.0307  -32.0113 H   0  0  0  0  0  0  0  0  0  0  0  0
    0.5266   21.1989  -33.3339 H   0  0  0  0  0  0  0  0  0  0  0  0
   -1.2695   21.2245  -33.3339 H   0  0  0  0  0  0  0  0  0  0  0  0
  1  2  1  0
  2  3  1  0
  3  4  1  0
  4  5  1  0
  3  6  1  0
  6  7  1  0
  7  8  1  0
  8  9  1  0
  9 10  2  0
 10 11  1  0
 11 12  2  0
 12 13  1  0
 13 14  2  0
 14 15  1  0
 15 16  2  0
 16 17  1  0
 16 18  1  0
 18 19  2  0
 19 20  1  0
 20 21  1  0
 20 22  2  0
 22 23  1  0
 23 24  1  0
 24 25  1  0
 25 26  1  0
 26 27  1  0
 27 28  1  0
 27 29  1  0
 27 30  1  0
 23 31  2  0
 31  9  1  0
 15 10  1  0
 31 18  1  0
  1 32  1  0
  1 33  1  0
  1 34  1  0
  2 35  1  0
  2 36  1  0
  4 37  1  0
  4 38  1  0
  5 39  1  0
  5 40  1  0
  5 41  1  0
  6 42  1  0
  6 43  1  0
  7 44  1  0
  7 45  1  0
  8 46  1  0
 11 47  1  0
 12 48  1  0
 13 49  1  0
 14 50  1  0
 17 51  1  0
 17 52  1  0
 17 53  1  0
 19 54  1  0
 21 55  1  0
 21 56  1  0
 21 57  1  0
 22 58  1  0
 25 59  1  0
 25 60  1  0
 26 61  1  0
 26 62  1  0
 28 63  1  0
 28 64  1  0
 28 65  1  0
 29 66  1  0
 29 67  1  0
 29 68  1  0
 30 69  1  0
 30 70  1  0
 30 71  1  0
M  CHG  2  16   1  27   1
M  END
>  <UniqueID>  (23) 
23

>  <SMILES>  (23) 
CCN(CC)CCNc1c2ccccc2[n+](C)c2cc(C)cc(OCC[N+](C)(C)C)c12

>  <Energy>  (23) 
104.15696809271765

>  <Genealogy>  (23) 
CCN(CC)CCNc1c2ccccc2[n+](C)c2cc(C)cc(OCC[N+](C)(C)C)c12 (3D coordinates assigned)
CCN(CC)CCNc1c2ccccc2[n+](C)c2cc(C)cc(OCC[N+](C)(C)C)c12 (optimized conformer: 104.15696809271765 kcal/mol)

>  <smiles>  (23) 
CCN(CC)CCNc1c2ccccc2[n+](C)c2cc(C)cc(OCC[N+](C)(C)C)c12

>  <score_type>  (23) 
oracle

>  <origin>  (23) 
adg

>  <m_score__min__energy>  (23) 
-8.2400000000000002

>  <m_primary>  (23) 
energy

$$$$
23:0
     RDKit          3D

 58 61  0  0  0  0  0  0  0  0999 V2000
   -1.9620   24.8730  -28.6780 C   0  0  0  0  0  0  0  0  0  0  0  0
   -2.8670   24.1590  -29.6890 C   0  0  0  0  0  0  0  0  0  0  0  0
   -4.3070   24.4330  -29.4660 N   0  0  2  0  0  0  0  0  0  0  0  0
   -4.9210   23.3260  -28.7070 C   0  0  0  0  0  0  0  0  0  0  0  0
   -5.0770   24.7380  -30.7010 C   0  0  0  0  0  0  0  0  0  0  0  0
   -6.1600   23.6970  -31.0580 C   0  0  0  0  0  0  0  0  0  0  0  0
   -5.8560   23.0350  -32.3280 N   0  0  0  0  0  0  0  0  0  0  0  0
   -5.8270   21.6030  -32.4690 C   0  0  0  0  0  0  0  0  0  0  0  0
   -4.6320   20.9370  -32.7950 C   0  0  0  0  0  0  0  0  0  0  0  0
   -4.6310   19.5240  -32.8950 C   0  0  0  0  0  0  0  0  0  0  0  0
   -5.7710   18.8010  -32.6020 N   0  0  0  0  0  0  0  0  0  0  0  0
   -5.6950   17.3310  -32.4490 C   0  0  0  0  0  0  0  0  0  0  0  0
   -6.9770   19.4500  -32.4200 C   0  0  0  0  0  0  0  0  0  0  0  0
   -8.1980   18.7360  -32.3160 C   0  0  0  0  0  0  0  0  0  0  0  0
   -9.4040   19.4010  -32.0970 C   0  0  0  0  0  0  0  0  0  0  0  0
   -9.4280   20.7850  -31.9850 C   0  0  0  0  0  0  0  0  0  0  0  0
   -8.2490   21.5170  -32.1060 C   0  0  0  0  0  0  0  0  0  0  0  0
   -7.0180   20.8660  -32.3370 C   0  0  0  0  0  0  0  0  0  0  0  0
   -3.3710   18.8440  -33.3330 C   0  0  0  0  0  0  0  0  0  0  0  0
   -3.4060   18.0040  -34.4570 C   0  0  0  0  0  0  0  0  0  0  0  0
   -2.2310   17.4150  -34.9180 C   0  0  0  0  0  0  0  0  0  0  0  0
   -1.0270   17.6810  -34.2730 C   0  0  0  0  0  0  0  0  0  0  0  0
   -1.0130   18.5390  -33.1720 C   0  0  0  0  0  0  0  0  0  0  0  0
   -2.1700   19.1060  -32.7120 N   0  0  0  0  0  0  0  0  0  0  0  0
   -2.1110   20.0260  -31.5650 C   0  0  0  0  0  0  0  0  0  0  0  0
   -2.2660   21.4900  -32.0160 C   0  0  0  0  0  0  0  0  0  0  0  0
   -3.3520   21.7080  -33.0890 C   0  0  0  0  0  0  0  0  0  0  0  0
   -2.2824   24.6202  -27.6565 H   0  0  0  0  0  0  0  0  0  0  0  0
   -0.9208   24.5504  -28.8261 H   0  0  0  0  0  0  0  0  0  0  0  0
   -2.0334   25.9606  -28.8261 H   0  0  0  0  0  0  0  0  0  0  0  0
   -2.5978   24.4962  -30.7009 H   0  0  0  0  0  0  0  0  0  0  0  0
   -2.7129   23.0770  -29.5645 H   0  0  0  0  0  0  0  0  0  0  0  0
   -4.3750   25.2800  -28.8530 H   0  0  0  0  0  0  0  0  0  0  0  0
   -4.8149   23.5174  -27.6290 H   0  0  0  0  0  0  0  0  0  0  0  0
   -5.9883   23.2534  -28.9632 H   0  0  0  0  0  0  0  0  0  0  0  0
   -4.4174   22.3822  -28.9632 H   0  0  0  0  0  0  0  0  0  0  0  0
   -5.5692   25.7125  -30.5663 H   0  0  0  0  0  0  0  0  0  0  0  0
   -4.3530   24.7305  -31.5291 H   0  0  0  0  0  0  0  0  0  0  0  0
   -6.2079   22.9405  -30.2609 H   0  0  0  0  0  0  0  0  0  0  0  0
   -7.1248   24.2161  -31.1566 H   0  0  0  0  0  0  0  0  0  0  0  0
   -5.7780   23.6200  -33.1910 H   0  0  0  0  0  0  0  0  0  0  0  0
   -5.6817   17.0739  -31.3796 H   0  0  0  0  0  0  0  0  0  0  0  0
   -6.5703   16.8669  -32.9269 H   0  0  0  0  0  0  0  0  0  0  0  0
   -4.7765   16.9596  -32.9269 H   0  0  0  0  0  0  0  0  0  0  0  0
   -8.1936   17.6400  -32.4096 H   0  0  0  0  0  0  0  0  0  0  0  0
  -10.3390   18.8277  -32.0127 H   0  0  0  0  0  0  0  0  0  0  0  0
  -10.3800   21.3043  -31.8004 H   0  0  0  0  0  0  0  0  0  0  0  0
   -8.2776   22.6133  -32.0207 H   0  0  0  0  0  0  0  0  0  0  0  0
   -4.3586   17.8114  -34.9723 H   0  0  0  0  0  0  0  0  0  0  0  0
   -2.2547   16.7425  -35.7882 H   0  0  0  0  0  0  0  0  0  0  0  0
   -0.0939   17.2189  -34.6278 H   0  0  0  0  0  0  0  0  0  0  0  0
   -0.0607   18.7618  -32.6684 H   0  0  0  0  0  0  0  0  0  0  0  0
   -2.9224   19.7786  -30.8647 H   0  0  0  0  0  0  0  0  0  0  0  0
   -1.1307   19.9136  -31.0788 H   0  0  0  0  0  0  0  0  0  0  0  0
   -2.5238   22.0970  -31.1356 H   0  0  0  0  0  0  0  0  0  0  0  0
   -1.3084   21.7845  -32.4703 H   0  0  0  0  0  0  0  0  0  0  0  0
   -3.5903   22.7809  -33.1356 H   0  0  0  0  0  0  0  0  0  0  0  0
   -2.9534   21.3378  -34.0451 H   0  0  0  0  0  0  0  0  0  0  0  0
  1  2  1  0
  2  3  1  0
  3  4  1  0
  3  5  1  0
  5  6  1  0
  6  7  1  0
  7  8  1  0
  8  9  2  0
  9 10  1  0
 10 11  2  0
 11 12  1  0
 11 13  1  0
 13 14  2  0
 14 15  1  0
 15 16  2  0
 16 17  1  0
 17 18  2  0
 10 19  1  0
 19 20  2  0
 20 21  1  0
 21 22  2  0
 22 23  1  0
 23 24  2  0
 24 25  1  0
 25 26  1  0
 26 27  1  0
 18  8  1  0
 24 19  1  0
 27  9  1  0
 18 13  1  0
  1 28  1  0
  1 29  1  0
  1 30  1  0
  2 31  1  0
  2 32  1  0
  3 33  1  1
  4 34  1  0
  4 35  1  0
  4 36  1  0
  5 37  1  0
  5 38  1  0
  6 39  1  0
  6 40  1  0
  7 41  1  0
 12 42  1  0
 12 43  1  0
 12 44  1  0
 14 45  1  0
 15 46  1  0
 16 47  1  0
 17 48  1  0
 20 49  1  0
 21 50  1  0
 22 51  1  0
 23 52  1  0
 25 53  1  0
 25 54  1  0
 26 55  1  0
 26 56  1  0
 27 57  1  0
 27 58  1  0
M  CHG  3   3   1  11   1  24   1
M  END
>  <UniqueID>  (24) 
24

>  <SMILES>  (24) 
CC[N@H+](C)CCNc1c2c([n+](C)c3ccccc13)-c1cccc[n+]1CCC2

>  <Energy>  (24) 
93.25184154254562

>  <Genealogy>  (24) 
CC[NH+](C)CCNc1c2c([n+](C)c3ccccc13)-c1cccc[n+]1CCC2 (protonated)
CC[N@H+](C)CCNc1c2c([n+](C)c3ccccc13)-c1cccc[n+]1CCC2 (chirality)
CC[N@H+](C)CCNc1c2c([n+](C)c3ccccc13)-c1cccc[n+]1CCC2 (3D coordinates assigned)
CC[N@H+](C)CCNc1c2c([n+](C)c3ccccc13)-c1cccc[n+]1CCC2 (nonaromatic ring conformer: 93.25184154254562 kcal/mol)

>  <smiles>  (24) 
CCN(C)CCNc1c2c([n+](C)c3ccccc13)-c1cccc[n+]1CCC2

>  <score_type>  (24) 
oracle

>  <origin>  (24) 
adg

>  <m_score__min__energy>  (24) 
-5.4400000000000004

>  <m_primary>  (24) 
energy

$$$$
24:0
     RDKit          3D

 62 63  0  0  0  0  0  0  0  0999 V2000
   -4.4027   20.5734  -33.2529 H   0  0  0  0  0  0  0  0  0  0  0  0
   -5.1130   20.2470  -32.4790 C   0  0  0  0  0  0  0  0  0  0  0  0
   -0.4810   21.6570  -28.9850 N   0  0  0  0  0  0  0  0  0  0  0  0
   -4.2170   21.8810  -30.8550 C   0  0  0  0  0  0  0  0  0  0  0  0
   -4.8260   23.1380  -30.9850 C   0  0  0  0  0  0  0  0  0  0  0  0
   -6.0810   23.2110  -31.6150 O   0  0  0  0  0  0  0  0  0  0  0  0
   -7.2580   23.7340  -31.0100 C   0  0  0  0  0  0  0  0  0  0  0  0
   -7.1583   23.6897  -29.9154 H   0  0  0  0  0  0  0  0  0  0  0  0
   -7.3981   24.7791  -31.3235 H   0  0  0  0  0  0  0  0  0  0  0  0
   -8.1275   23.1375  -31.3235 H   0  0  0  0  0  0  0  0  0  0  0  0
   -4.1780   24.2800  -30.4850 C   0  0  0  0  0  0  0  0  0  0  0  0
   -4.6470   25.2680  -30.6023 H   0  0  0  0  0  0  0  0  0  0  0  0
   -2.9430   24.1720  -29.8400 C   0  0  0  0  0  0  0  0  0  0  0  0
   -2.3620   25.2850  -29.3320 N   0  0  0  0  0  0  0  0  0  0  0  0
   -1.1820   25.2420  -28.6740 C   0  0  0  0  0  0  0  0  0  0  0  0
   -0.7519   26.1700  -28.2692 H   0  0  0  0  0  0  0  0  0  0  0  0
   -0.5000   24.0310  -28.5010 C   0  0  0  0  0  0  0  0  0  0  0  0
    0.7470   24.1080  -27.7810 C   0  0  0  0  0  0  0  0  0  0  0  0
    1.7430   24.1880  -27.1960 N   0  0  0  0  0  0  0  0  0  0  0  0
   -1.0590   22.8330  -29.0400 C   0  0  0  0  0  0  0  0  0  0  0  0
   -4.9520   20.7200  -31.2760 N   0  0  0  0  0  0  0  0  0  0  0  0
   -0.7950   20.4340  -28.2460 C   0  0  0  0  0  0  0  0  0  0  0  0
   -0.4103   20.5245  -27.2194 H   0  0  0  0  0  0  0  0  0  0  0  0
   -1.8867   20.2993  -28.2361 H   0  0  0  0  0  0  0  0  0  0  0  0
   -0.1550   19.2100  -28.9170 C   0  0  0  0  0  0  0  0  0  0  0  0
    0.6678   18.8437  -28.2855 H   0  0  0  0  0  0  0  0  0  0  0  0
   -0.9261   18.4347  -29.0366 H   0  0  0  0  0  0  0  0  0  0  0  0
    0.3750   19.5500  -30.2470 N   0  0  0  0  0  0  0  0  0  0  0  0
    0.0120   20.5010  -30.4990 H   0  0  0  0  0  0  0  0  0  0  0  0
   -0.0830   18.6100  -31.2790 C   0  0  0  0  0  0  0  0  0  0  0  0
    0.7526   18.3721  -31.9536 H   0  0  0  0  0  0  0  0  0  0  0  0
   -0.4435   17.6887  -30.7982 H   0  0  0  0  0  0  0  0  0  0  0  0
   -1.2220   19.2410  -32.0830 C   0  0  0  0  0  0  0  0  0  0  0  0
   -1.3923   18.6495  -32.9946 H   0  0  0  0  0  0  0  0  0  0  0  0
   -2.1304   19.2530  -31.4628 H   0  0  0  0  0  0  0  0  0  0  0  0
   -0.8830   20.6310  -32.4610 N   0  0  0  0  0  0  0  0  0  0  0  0
    0.4330   20.6780  -33.1160 C   0  0  0  0  0  0  0  0  0  0  0  0
    1.2227   20.7062  -32.3507 H   0  0  0  0  0  0  0  0  0  0  0  0
    0.5624   19.7839  -33.7436 H   0  0  0  0  0  0  0  0  0  0  0  0
    0.4982   21.5790  -33.7436 H   0  0  0  0  0  0  0  0  0  0  0  0
   -1.8990   21.1960  -33.3670 C   0  0  0  0  0  0  0  0  0  0  0  0
   -2.7089   21.6464  -32.7744 H   0  0  0  0  0  0  0  0  0  0  0  0
   -1.4367   21.9666  -34.0014 H   0  0  0  0  0  0  0  0  0  0  0  0
   -2.3097   20.3967  -34.0014 H   0  0  0  0  0  0  0  0  0  0  0  0
   -2.3160   22.9150  -29.6970 C   0  0  0  0  0  0  0  0  0  0  0  0
   -2.9810   21.7700  -30.1910 C   0  0  0  0  0  0  0  0  0  0  0  0
   -2.5261   20.7778  -30.0546 H   0  0  0  0  0  0  0  0  0  0  0  0
   -6.1970   19.2880  -32.8900 C   0  0  0  0  0  0  0  0  0  0  0  0
   -5.8517   18.6908  -33.7468 H   0  0  0  0  0  0  0  0  0  0  0  0
   -6.4334   18.6215  -32.0475 H   0  0  0  0  0  0  0  0  0  0  0  0
   -7.4620   20.0760  -33.2900 C   0  0  0  0  0  0  0  0  0  0  0  0
   -7.2399   21.1497  -33.2009 H   0  0  0  0  0  0  0  0  0  0  0  0
   -7.7079   19.7702  -34.3176 H   0  0  0  0  0  0  0  0  0  0  0  0
   -8.6560   19.7820  -32.4680 N   0  0  0  0  0  0  0  0  0  0  0  0
   -8.5140   18.5620  -31.6570 C   0  0  0  0  0  0  0  0  0  0  0  0
   -8.5447   18.8257  -30.5895 H   0  0  0  0  0  0  0  0  0  0  0  0
   -9.3377   17.8704  -31.8877 H   0  0  0  0  0  0  0  0  0  0  0  0
   -7.5535   18.0781  -31.8877 H   0  0  0  0  0  0  0  0  0  0  0  0
   -9.0690   20.9260  -31.6440 C   0  0  0  0  0  0  0  0  0  0  0  0
   -8.9746   20.6644  -30.5797 H   0  0  0  0  0  0  0  0  0  0  0  0
   -8.4261   21.7901  -31.8676 H   0  0  0  0  0  0  0  0  0  0  0  0
  -10.1156   21.1801  -31.8676 H   0  0  0  0  0  0  0  0  0  0  0  0
  1  2  1  0
  2  3  2  0
  3  4  1  0
  4  5  2  0
  5  6  1  0
  6  7  1  0
  7  8  1  0
  7  9  1  0
  7 10  1  0
  5 11  1  0
 11 12  1  0
 11 13  2  0
 13 14  1  0
 14 15  1  0
 15 16  1  0
 15 17  2  0
 17 18  1  0
 18 19  3  0
 17 20  1  0
 20 21  2  0
 21 22  1  0
 22 23  1  0
 22 24  1  0
 22 25  1  0
 25 26  1  0
 25 27  1  0
 25 28  1  0
 28 29  1  0
 28 30  1  0
 30 31  1  0
 30 32  1  0
 30 33  1  0
 33 34  1  0
 33 35  1  0
 33 36  1  0
 36 37  1  0
 37 38  1  0
 37 39  1  0
 37 40  1  0
 36 41  1  0
 41 42  1  0
 41 43  1  0
 41 44  1  0
 20 45  1  0
 45 46  2  0
 46 47  1  0
  2 48  1  0
 48 49  1  0
 48 50  1  0
 48 51  1  0
 51 52  1  0
 51 53  1  0
 51 54  1  0
 54 55  1  0
 55 56  1  0
 55 57  1  0
 55 58  1  0
 54 59  1  0
 59 60  1  0
 59 61  1  0
 59 62  1  0
 46  4  1  0
 45 13  1  0
M  CHG  1  14  -1
M  END
>  <UniqueID>  (25) 
25

>  <SMILES>  (25) 
COc1cc2[n-]cc(C#N)/c(=N\CCNCCN(C)C)c2cc1/N=C\CCN(C)C

>  <Energy>  (25) 
77.82293049991222

>  <Genealogy>  (25) 
COc1cc2[n-]cc(C#N)c(=NCCNCCN(C)C)c2cc1N=CCCN(C)C (protonated)
COc1cc2[n-]cc(C#N)/c(=N\CCNCCN(C)C)c2cc1/N=C\CCN(C)C (cis-trans isomerization)
COc1cc2[n-]cc(C#N)/c(=N\CCNCCN(C)C)c2cc1/N=C\CCN(C)C (3D coordinates assigned)
COc1cc2[n-]cc(C#N)/c(=N\CCNCCN(C)C)c2cc1/N=C\CCN(C)C (optimized conformer: 77.82293049991222 kcal/mol)

>  <smiles>  (25) 
COc1cc2[nH]cc(C#N)c(=NCCNCCN(C)C)c2cc1N=CCCN(C)C

>  <score_type>  (25) 
oracle

>  <origin>  (25) 
adg

>  <m_score__min__energy>  (25) 
-8.1699999999999999

>  <m_primary>  (25) 
energy

$$$$
25:0
     RDKit          3D

 51 53  0  0  0  0  0  0  0  0999 V2000
   -1.0570   20.6040  -31.4660 C   0  0  0  0  0  0  0  0  0  0  0  0
   -0.6370   21.0380  -32.8730 C   0  0  0  0  0  0  0  0  0  0  0  0
   -0.8770   20.0220  -33.9260 N   0  0  0  0  0  0  0  0  0  0  0  0
   -0.2900   20.3540  -35.2480 C   0  0  0  0  0  0  0  0  0  0  0  0
    0.2900   21.7740  -35.3540 C   0  0  0  0  0  0  0  0  0  0  0  0
   -0.7250   18.6080  -33.5130 C   0  0  0  0  0  0  0  0  0  0  0  0
   -1.9270   17.7500  -33.9540 C   0  0  0  0  0  0  0  0  0  0  0  0
   -3.0070   18.5610  -34.5490 N   0  0  0  0  0  0  0  0  0  0  0  0
   -4.1770   18.6150  -33.6930 C   0  0  0  0  0  0  0  0  0  0  0  0
   -4.8570   17.4260  -33.4120 C   0  0  0  0  0  0  0  0  0  0  0  0
   -5.9210   17.4220  -32.5290 C   0  0  0  0  0  0  0  0  0  0  0  0
   -6.3680   18.6210  -31.9860 C   0  0  0  0  0  0  0  0  0  0  0  0
   -5.8150   19.8270  -32.3490 N   0  0  0  0  0  0  0  0  0  0  0  0
   -4.6450   19.8240  -33.0960 C   0  0  0  0  0  0  0  0  0  0  0  0
   -3.8990   21.0100  -33.2060 C   0  0  0  0  0  0  0  0  0  0  0  0
   -4.3010   22.1520  -32.5370 C   0  0  0  0  0  0  0  0  0  0  0  0
   -5.5320   22.1930  -31.8760 C   0  0  0  0  0  0  0  0  0  0  0  0
   -5.9650   23.3660  -31.2050 C   0  0  0  0  0  0  0  0  0  0  0  0
   -5.1760   24.5640  -31.1740 N   0  0  0  0  0  0  0  0  0  0  0  0
   -5.7350   25.6790  -31.1690 O   0  0  0  0  0  0  0  0  0  0  0  0
   -3.8430   24.4900  -30.8430 O   0  0  0  0  0  0  0  0  0  0  0  0
   -7.2030   23.3680  -30.5590 C   0  0  0  0  0  0  0  0  0  0  0  0
   -8.0680   22.2900  -30.6880 C   0  0  0  0  0  0  0  0  0  0  0  0
   -7.6920   21.1500  -31.4080 C   0  0  0  0  0  0  0  0  0  0  0  0
   -8.7320   20.2410  -31.8050 N   0  0  0  0  0  0  0  0  0  0  0  0
   -9.5060   20.5440  -32.7370 O   0  0  0  0  0  0  0  0  0  0  0  0
   -9.0260   19.1450  -31.0280 O   0  0  0  0  0  0  0  0  0  0  0  0
   -6.3460   21.0240  -31.8810 C   0  0  0  0  0  0  0  0  0  0  0  0
   -0.4948   21.1849  -30.7200 H   0  0  0  0  0  0  0  0  0  0  0  0
   -2.1344   20.7822  -31.3336 H   0  0  0  0  0  0  0  0  0  0  0  0
   -0.8435   19.5331  -31.3336 H   0  0  0  0  0  0  0  0  0  0  0  0
   -1.2010   21.9452  -33.1356 H   0  0  0  0  0  0  0  0  0  0  0  0
    0.4500   21.2029  -32.8386 H   0  0  0  0  0  0  0  0  0  0  0  0
    0.5186   19.6372  -35.4538 H   0  0  0  0  0  0  0  0  0  0  0  0
   -1.1125   20.2987  -35.9763 H   0  0  0  0  0  0  0  0  0  0  0  0
    0.4553   22.1788  -34.3447 H   0  0  0  0  0  0  0  0  0  0  0  0
    1.2463   21.7399  -35.8966 H   0  0  0  0  0  0  0  0  0  0  0  0
   -0.4167   22.4192  -35.8966 H   0  0  0  0  0  0  0  0  0  0  0  0
    0.1895   18.2004  -33.9686 H   0  0  0  0  0  0  0  0  0  0  0  0
   -0.6676   18.5770  -32.4149 H   0  0  0  0  0  0  0  0  0  0  0  0
   -1.5838   17.0170  -34.6990 H   0  0  0  0  0  0  0  0  0  0  0  0
   -2.3325   17.2546  -33.0595 H   0  0  0  0  0  0  0  0  0  0  0  0
   -3.2620   18.1700  -35.4860 H   0  0  0  0  0  0  0  0  0  0  0  0
   -2.6590   19.5270  -34.7440 H   0  0  0  0  0  0  0  0  0  0  0  0
   -4.5439   16.4891  -33.8959 H   0  0  0  0  0  0  0  0  0  0  0  0
   -6.4110   16.4753  -32.2577 H   0  0  0  0  0  0  0  0  0  0  0  0
   -7.1837   18.6050  -31.2482 H   0  0  0  0  0  0  0  0  0  0  0  0
   -2.9913   21.0302  -33.8270 H   0  0  0  0  0  0  0  0  0  0  0  0
   -3.6462   23.0358  -32.5250 H   0  0  0  0  0  0  0  0  0  0  0  0
   -7.4952   24.2310  -29.9427 H   0  0  0  0  0  0  0  0  0  0  0  0
   -9.0618   22.3322  -30.2183 H   0  0  0  0  0  0  0  0  0  0  0  0
  1  2  1  0
  2  3  1  0
  3  4  1  0
  4  5  1  0
  3  6  1  0
  6  7  1  0
  7  8  1  0
  8  9  1  0
  9 10  2  0
 10 11  1  0
 11 12  2  0
 12 13  1  0
 13 14  2  0
 14 15  1  0
 15 16  2  0
 16 17  1  0
 17 18  2  0
 18 19  1  0
 19 20  2  0
 19 21  1  0
 18 22  1  0
 22 23  2  0
 23 24  1  0
 24 25  1  0
 25 26  2  0
 25 27  1  0
 24 28  2  0
 14  9  1  0
 28 17  1  0
 28 13  1  0
  1 29  1  0
  1 30  1  0
  1 31  1  0
  2 32  1  0
  2 33  1  0
  4 34  1  0
  4 35  1  0
  5 36  1  0
  5 37  1  0
  5 38  1  0
  6 39  1  0
  6 40  1  0
  7 41  1  0
  7 42  1  0
  8 43  1  0
  8 44  1  0
 10 45  1  0
 11 46  1  0
 12 47  1  0
 15 48  1  0
 16 49  1  0
 22 50  1  0
 23 51  1  0
M  CHG  6   8   1  13   1  19   1  21  -1  25   1  27  -1
M  END
>  <UniqueID>  (26) 
26

>  <SMILES>  (26) 
CCN(CC)CC[NH2+]c1ccc[n+]2c1ccc1c([N+](=O)[O-])ccc([N+](=O)[O-])c12

>  <Energy>  (26) 
98.26341585032522

>  <Genealogy>  (26) 
CCN(CC)CC[NH2+]c1ccc[n+]2c1ccc1c([N+](=O)[O-])ccc([N+](=O)[O-])c12 (protonated)
CCN(CC)CC[NH2+]c1ccc[n+]2c1ccc1c([N+](=O)[O-])ccc([N+](=O)[O-])c12 (3D coordinates assigned)
CCN(CC)CC[NH2+]c1ccc[n+]2c1ccc1c([N+](=O)[O-])ccc([N+](=O)[O-])c12 (optimized conformer: 98.26341585032522 kcal/mol)

>  <smiles>  (26) 
CCN(CC)CCNc1ccc[n+]2c1ccc1c([N+](=O)[O-])ccc([N+](=O)[O-])c12

>  <score_type>  (26) 
oracle

>  <origin>  (26) 
adg

>  <m_score__min__energy>  (26) 
-7.2300000000000004

>  <m_primary>  (26) 
energy

$$$$
26:0
     RDKit          3D

 39 38  0  0  0  0  0  0  0  0999 V2000
   -8.7180   18.5530  -31.5670 C   0  0  0  0  0  0  0  0  0  0  0  0
   -8.8390   19.7070  -32.5580 C   0  0  0  0  0  0  0  0  0  0  0  0
   -7.5600   19.9270  -33.2480 N   0  0  0  0  0  0  0  0  0  0  0  0
   -6.6990   18.7380  -33.1760 C   0  0  0  0  0  0  0  0  0  0  0  0
   -5.3550   19.0050  -33.8640 C   0  0  0  0  0  0  0  0  0  0  0  0
   -4.5390   20.0830  -33.1240 C   0  0  0  0  0  0  0  0  0  0  0  0
   -5.3720   21.2350  -32.7280 N   0  0  0  0  0  0  0  0  0  0  0  0
   -4.5580   22.3500  -32.2070 C   0  0  0  0  0  0  0  0  0  0  0  0
   -5.3770   23.3300  -31.3330 C   0  0  2  0  0  0  0  0  0  0  0  0
   -6.7020   23.7250  -32.0030 C   0  0  0  0  0  0  0  0  0  0  0  0
   -7.4560   22.5620  -32.2970 O   0  0  0  0  0  0  0  0  0  0  0  0
   -8.8150   22.7500  -31.9670 C   0  0  0  0  0  0  0  0  0  0  0  0
   -4.6220   24.5040  -31.0760 O   0  0  0  0  0  0  0  0  0  0  0  0
   -5.4160   25.4820  -30.4410 C   0  0  0  0  0  0  0  0  0  0  0  0
   -8.7592   18.9456  -30.5403 H   0  0  0  0  0  0  0  0  0  0  0  0
   -9.5471   17.8471  -31.7232 H   0  0  0  0  0  0  0  0  0  0  0  0
   -7.7606   18.0344  -31.7232 H   0  0  0  0  0  0  0  0  0  0  0  0
   -9.6146   19.4673  -33.3003 H   0  0  0  0  0  0  0  0  0  0  0  0
   -9.1100   20.6211  -32.0094 H   0  0  0  0  0  0  0  0  0  0  0  0
   -7.7700   20.1040  -34.2590 H   0  0  0  0  0  0  0  0  0  0  0  0
   -6.5211   18.4834  -32.1208 H   0  0  0  0  0  0  0  0  0  0  0  0
   -7.2011   17.9040  -33.6882 H   0  0  0  0  0  0  0  0  0  0  0  0
   -4.7742   18.0711  -33.8860 H   0  0  0  0  0  0  0  0  0  0  0  0
   -5.5577   19.3678  -34.8825 H   0  0  0  0  0  0  0  0  0  0  0  0
   -4.0985   19.6365  -32.2204 H   0  0  0  0  0  0  0  0  0  0  0  0
   -3.7597   20.4480  -33.8092 H   0  0  0  0  0  0  0  0  0  0  0  0
   -5.9540   21.5490  -33.5390 H   0  0  0  0  0  0  0  0  0  0  0  0
   -6.0180   20.9110  -31.9710 H   0  0  0  0  0  0  0  0  0  0  0  0
   -3.7408   21.9349  -31.5989 H   0  0  0  0  0  0  0  0  0  0  0  0
   -4.1763   22.9145  -33.0705 H   0  0  0  0  0  0  0  0  0  0  0  0
   -5.6056   22.8113  -30.3903 H   0  0  0  0  0  0  0  0  0  0  0  0
   -7.2769   24.3708  -31.3230 H   0  0  0  0  0  0  0  0  0  0  0  0
   -6.4898   24.2663  -32.9368 H   0  0  0  0  0  0  0  0  0  0  0  0
   -8.9279   22.7656  -30.8729 H   0  0  0  0  0  0  0  0  0  0  0  0
   -9.1652   23.7051  -32.3854 H   0  0  0  0  0  0  0  0  0  0  0  0
   -9.4113   21.9258  -32.3854 H   0  0  0  0  0  0  0  0  0  0  0  0
   -5.3281   25.3738  -29.3499 H   0  0  0  0  0  0  0  0  0  0  0  0
   -5.0722   26.4835  -30.7390 H   0  0  0  0  0  0  0  0  0  0  0  0
   -6.4668   25.3513  -30.7390 H   0  0  0  0  0  0  0  0  0  0  0  0
  1  2  1  0
  2  3  1  0
  3  4  1  0
  4  5  1  0
  5  6  1  0
  6  7  1  0
  7  8  1  0
  8  9  1  0
  9 10  1  0
 10 11  1  0
 11 12  1  0
  9 13  1  0
 13 14  1  0
  1 15  1  0
  1 16  1  0
  1 17  1  0
  2 18  1  0
  2 19  1  0
  3 20  1  0
  4 21  1  0
  4 22  1  0
  5 23  1  0
  5 24  1  0
  6 25  1  0
  6 26  1  0
  7 27  1  0
  7 28  1  0
  8 29  1  0
  8 30  1  0
  9 31  1  1
 10 32  1  0
 10 33  1  0
 12 34  1  0
 12 35  1  0
 12 36  1  0
 14 37  1  0
 14 38  1  0
 14 39  1  0
M  CHG  1   7   1
M  END
>  <UniqueID>  (27) 
27

>  <SMILES>  (27) 
CCNCCC[NH2+]C[C@H](COC)OC

>  <Energy>  (27) 
30.306473986762317

>  <Genealogy>  (27) 
CCNCCC[NH2+]CC(COC)OC (protonated)
CCNCCC[NH2+]C[C@H](COC)OC (chirality)
CCNCCC[NH2+]C[C@H](COC)OC (3D coordinates assigned)
CCNCCC[NH2+]C[C@H](COC)OC (optimized conformer: 30.306473986762317 kcal/mol)

>  <smiles>  (27) 
CCNCCCNCC(COC)OC

>  <score_type>  (27) 
oracle

>  <origin>  (27) 
adg

>  <m_score__min__energy>  (27) 
-3.6000000000000001

>  <m_primary>  (27) 
energy

$$$$
27:0
     RDKit          3D

 41 43  0  0  0  0  0  0  0  0999 V2000
   -0.9650   25.8270  -28.0250 C   0  0  0  0  0  0  0  0  0  0  0  0
   -1.8790   25.6020  -29.0940 O   0  0  0  0  0  0  0  0  0  0  0  0
   -2.9010   24.6430  -29.0740 C   0  0  0  0  0  0  0  0  0  0  0  0
   -3.0230   23.6930  -28.0420 C   0  0  0  0  0  0  0  0  0  0  0  0
   -4.0580   22.7540  -28.0710 C   0  0  0  0  0  0  0  0  0  0  0  0
   -4.9780   22.7550  -29.1190 C   0  0  0  0  0  0  0  0  0  0  0  0
   -4.8800   23.7030  -30.1550 C   0  0  0  0  0  0  0  0  0  0  0  0
   -5.8670   23.7010  -31.3090 C   0  0  2  0  0  0  0  0  0  0  0  0
   -7.3070   23.4180  -30.8230 C   0  0  0  0  0  0  0  0  0  0  0  0
   -8.1740   22.7070  -31.8820 C   0  0  0  0  0  0  0  0  0  0  0  0
   -7.9680   21.2120  -32.0840 C   0  0  0  0  0  0  0  0  0  0  0  0
   -9.1240   20.4220  -32.2270 C   0  0  0  0  0  0  0  0  0  0  0  0
   -9.0370   19.0340  -32.3500 C   0  0  0  0  0  0  0  0  0  0  0  0
   -7.7920   18.4080  -32.3190 C   0  0  0  0  0  0  0  0  0  0  0  0
   -6.6340   19.1670  -32.1660 C   0  0  0  0  0  0  0  0  0  0  0  0
   -6.7050   20.5650  -32.0490 C   0  0  0  0  0  0  0  0  0  0  0  0
   -5.4880   21.3100  -31.9090 N   0  0  0  0  0  0  0  0  0  0  0  0
   -4.2640   20.6320  -31.4830 C   0  0  0  0  0  0  0  0  0  0  0  0
   -5.4230   22.6930  -32.3940 C   0  0  0  0  0  0  0  0  0  0  0  0
   -3.8290   24.6380  -30.1230 C   0  0  0  0  0  0  0  0  0  0  0  0
   -1.4855   25.6989  -27.0644 H   0  0  0  0  0  0  0  0  0  0  0  0
   -0.1371   25.1058  -28.0925 H   0  0  0  0  0  0  0  0  0  0  0  0
   -0.5665   26.8501  -28.0925 H   0  0  0  0  0  0  0  0  0  0  0  0
   -2.3022   23.6898  -27.2111 H   0  0  0  0  0  0  0  0  0  0  0  0
   -4.1471   22.0116  -27.2642 H   0  0  0  0  0  0  0  0  0  0  0  0
   -5.7865   22.0093  -29.1362 H   0  0  0  0  0  0  0  0  0  0  0  0
   -5.8738   24.7053  -31.7578 H   0  0  0  0  0  0  0  0  0  0  0  0
   -7.2555   22.7811  -29.9276 H   0  0  0  0  0  0  0  0  0  0  0  0
   -7.7785   24.3890  -30.6111 H   0  0  0  0  0  0  0  0  0  0  0  0
   -9.2262   22.8574  -31.5987 H   0  0  0  0  0  0  0  0  0  0  0  0
   -7.8690   23.1592  -32.8372 H   0  0  0  0  0  0  0  0  0  0  0  0
  -10.1118   20.9058  -32.2421 H   0  0  0  0  0  0  0  0  0  0  0  0
   -9.9511   18.4343  -32.4714 H   0  0  0  0  0  0  0  0  0  0  0  0
   -7.7239   17.3144  -32.4154 H   0  0  0  0  0  0  0  0  0  0  0  0
   -5.6547   18.6669  -32.1365 H   0  0  0  0  0  0  0  0  0  0  0  0
   -4.2214   20.6084  -30.3841 H   0  0  0  0  0  0  0  0  0  0  0  0
   -4.2602   19.6032  -31.8723 H   0  0  0  0  0  0  0  0  0  0  0  0
   -3.3898   21.1745  -31.8723 H   0  0  0  0  0  0  0  0  0  0  0  0
   -4.3876   22.9192  -32.6884 H   0  0  0  0  0  0  0  0  0  0  0  0
   -6.1062   22.7884  -33.2508 H   0  0  0  0  0  0  0  0  0  0  0  0
   -3.7349   25.3757  -30.9335 H   0  0  0  0  0  0  0  0  0  0  0  0
  1  2  1  0
  2  3  1  0
  3  4  2  0
  4  5  1  0
  5  6  2  0
  6  7  1  0
  7  8  1  0
  8  9  1  0
  9 10  1  0
 10 11  1  0
 11 12  2  0
 12 13  1  0
 13 14  2  0
 14 15  1  0
 15 16  2  0
 16 17  1  0
 17 18  1  0
 17 19  1  0
  7 20  2  0
 20  3  1  0
 19  8  1  0
 16 11  1  0
  1 21  1  0
  1 22  1  0
  1 23  1  0
  4 24  1  0
  5 25  1  0
  6 26  1  0
  8 27  1  6
  9 28  1  0
  9 29  1  0
 10 30  1  0
 10 31  1  0
 12 32  1  0
 13 33  1  0
 14 34  1  0
 15 35  1  0
 18 36  1  0
 18 37  1  0
 18 38  1  0
 19 39  1  0
 19 40  1  0
 20 41  1  0
M  END
>  <UniqueID>  (28) 
28

>  <SMILES>  (28) 
COc1cccc([C@@H]2CCc3ccccc3N(C)C2)c1

>  <Energy>  (28) 
54.81690590268396

>  <Genealogy>  (28) 
COc1cccc([C@@H]2CCc3ccccc3N(C)C2)c1 (chirality)
COc1cccc([C@@H]2CCc3ccccc3N(C)C2)c1 (3D coordinates assigned)
COc1cccc([C@@H]2CCc3ccccc3N(C)C2)c1 (nonaromatic ring conformer: 54.81690590268396 kcal/mol)

>  <smiles>  (28) 
COc1cccc(C2CCc3ccccc3N(C)C2)c1

>  <score_type>  (28) 
oracle

>  <origin>  (28) 
adg

>  <m_score__min__energy>  (28) 
-6.9000000000000004

>  <m_primary>  (28) 
energy

$$$$
