0:0
     RDKit          3D

 30 30  0  0  0  0  0  0  0  0999 V2000
   -4.6935   21.1200  -33.0899 H   0  0  0  0  0  0  0  0  0  0  0  0
   -5.3720   21.8190  -32.5790 C   0  0  0  0  0  0  0  0  0  0  0  0
   -4.8970   22.9540  -32.1640 N   0  0  0  0  0  0  0  0  0  0  0  0
   -3.6850   23.0560  -31.5180 O   0  0  0  0  0  0  0  0  0  0  0  0
   -3.6080   22.9380  -30.1070 C   0  0  0  0  0  0  0  0  0  0  0  0
   -2.6343   22.5081  -29.8294 H   0  0  0  0  0  0  0  0  0  0  0  0
   -4.4177   22.2828  -29.7533 H   0  0  0  0  0  0  0  0  0  0  0  0
   -3.7560   24.3110  -29.4640 C   0  0  0  0  0  0  0  0  0  0  0  0
   -2.8634   24.5290  -28.8592 H   0  0  0  0  0  0  0  0  0  0  0  0
   -4.6495   24.3167  -28.8224 H   0  0  0  0  0  0  0  0  0  0  0  0
   -3.8960   25.3000  -30.4690 O   0  0  0  0  0  0  0  0  0  0  0  0
   -5.2590   25.5920  -30.6950 C   0  0  0  0  0  0  0  0  0  0  0  0
   -5.6301   24.9870  -31.5354 H   0  0  0  0  0  0  0  0  0  0  0  0
   -5.3724   26.6592  -30.9364 H   0  0  0  0  0  0  0  0  0  0  0  0
   -6.0570   25.2650  -29.4420 C   0  0  0  0  0  0  0  0  0  0  0  0
   -5.4589   25.5101  -28.5520 H   0  0  0  0  0  0  0  0  0  0  0  0
   -6.9852   25.8553  -29.4340 H   0  0  0  0  0  0  0  0  0  0  0  0
   -6.3041   24.1931  -29.4340 H   0  0  0  0  0  0  0  0  0  0  0  0
   -6.7900   21.4240  -32.3940 C   0  0  0  0  0  0  0  0  0  0  0  0
   -7.6610   22.2440  -31.6530 C   0  0  0  0  0  0  0  0  0  0  0  0
   -7.2908   23.1869  -31.2242 H   0  0  0  0  0  0  0  0  0  0  0  0
   -8.9930   21.8690  -31.4580 C   0  0  0  0  0  0  0  0  0  0  0  0
   -9.6694   22.5232  -30.8884 H   0  0  0  0  0  0  0  0  0  0  0  0
   -9.4670   20.6670  -31.9840 C   0  0  0  0  0  0  0  0  0  0  0  0
  -10.5179   20.3783  -31.8345 H   0  0  0  0  0  0  0  0  0  0  0  0
   -8.6090   19.8300  -32.7000 C   0  0  0  0  0  0  0  0  0  0  0  0
   -8.9846   18.8795  -33.1067 H   0  0  0  0  0  0  0  0  0  0  0  0
   -7.2700   20.1960  -32.9030 C   0  0  0  0  0  0  0  0  0  0  0  0
   -6.4160   19.3070  -33.6570 C   0  0  0  0  0  0  0  0  0  0  0  0
   -5.7310   18.5960  -34.2600 N   0  0  0  0  0  0  0  0  0  0  0  0
  1  2  1  0
  2  3  2  0
  3  4  1  0
  4  5  1  0
  5  6  1  0
  5  7  1  0
  5  8  1  0
  8  9  1  0
  8 10  1  0
  8 11  1  0
 11 12  1  0
 12 13  1  0
 12 14  1  0
 12 15  1  0
 15 16  1  0
 15 17  1  0
 15 18  1  0
  2 19  1  0
 19 20  2  0
 20 21  1  0
 20 22  1  0
 22 23  1  0
 22 24  2  0
 24 25  1  0
 24 26  1  0
 26 27  1  0
 26 28  2  0
 28 29  1  0
 29 30  3  0
 28 19  1  0
M  END
>  <UniqueID>  (1) 
1

>  <SMILES>  (1) 
CCOCCO/N=C\c1ccccc1C#N

>  <Energy>  (1) 
25.45495448772353

>  <Genealogy>  (1) 
CCOCCO/N=C\c1ccccc1C#N (cis-trans isomerization)
CCOCCO/N=C\c1ccccc1C#N (3D coordinates assigned)
CCOCCO/N=C\c1ccccc1C#N (optimized conformer: 25.45495448772353 kcal/mol)

>  <smiles>  (1) 
CCOCCON=Cc1ccccc1C#N

>  <score_type>  (1) 
oracle

>  <origin>  (1) 
adg

>  <m_score__min__energy>  (1) 
-6.8499999999999996

>  <m_primary>  (1) 
energy

$$$$
1:0
     RDKit          3D

 78 83  0  0  0  0  0  0  0  0999 V2000
   -9.2120   20.1600  -31.9620 C   0  0  0  0  0  0  0  0  0  0  0  0
   -7.7370   20.1650  -31.9260 N   0  0  0  0  0  0  0  0  0  0  0  0
   -6.9970   19.0910  -32.4070 C   0  0  0  0  0  0  0  0  0  0  0  0
   -7.6150   17.9880  -33.0470 C   0  0  0  0  0  0  0  0  0  0  0  0
   -6.8630   16.8990  -33.4920 C   0  0  0  0  0  0  0  0  0  0  0  0
   -5.4820   16.8820  -33.3210 C   0  0  0  0  0  0  0  0  0  0  0  0
   -4.8360   17.9580  -32.7190 C   0  0  0  0  0  0  0  0  0  0  0  0
   -5.5660   19.0770  -32.2720 C   0  0  0  0  0  0  0  0  0  0  0  0
   -4.9010   20.1930  -31.7160 C   0  0  0  0  0  0  0  0  0  0  0  0
   -3.4850   20.1930  -31.4890 N   0  0  0  0  0  0  0  0  0  0  0  0
   -2.5750   20.2170  -32.6380 C   0  0  0  0  0  0  0  0  0  0  0  0
   -1.0810   20.5250  -32.2990 C   0  0  0  0  0  0  0  0  0  0  0  0
   -0.9450   21.6050  -31.1990 C   0  0  0  0  0  0  0  0  0  0  0  0
   -0.4800   19.2210  -31.7180 C   0  0  0  0  0  0  0  0  0  0  0  0
   -0.2350   20.8830  -33.5670 C   0  0  0  0  0  0  0  0  0  0  0  0
   -0.9810   21.5360  -34.6470 N   0  0  0  0  0  0  0  0  0  0  0  0
   -5.6840   21.2850  -31.3480 C   0  0  0  0  0  0  0  0  0  0  0  0
   -5.3610   22.5180  -30.8180 C   0  0  0  0  0  0  0  0  0  0  0  0
   -4.1410   23.1290  -30.5500 C   0  0  0  0  0  0  0  0  0  0  0  0
   -4.1400   24.4160  -29.9890 C   0  0  0  0  0  0  0  0  0  0  0  0
   -2.8980   25.0140  -29.7490 O   0  0  0  0  0  0  0  0  0  0  0  0
   -2.1550   24.9050  -28.5380 C   0  0  0  0  0  0  0  0  0  0  0  0
   -1.2890   23.6220  -28.5900 C   0  0  0  0  0  0  0  0  0  0  0  0
   -1.5500   22.6550  -27.4850 N   0  0  1  0  0  0  0  0  0  0  0  0
   -1.1730   23.2140  -26.1630 C   0  0  0  0  0  0  0  0  0  0  0  0
   -2.9720   22.1740  -27.4980 C   0  0  0  0  0  0  0  0  0  0  0  0
   -2.9940   20.6930  -27.9210 C   0  0  0  0  0  0  0  0  0  0  0  0
   -1.5690   20.3430  -27.9590 C   0  0  0  0  0  0  0  0  0  0  0  0
   -1.0110   19.0890  -28.2140 C   0  0  0  0  0  0  0  0  0  0  0  0
    0.3840   18.9630  -28.2100 C   0  0  0  0  0  0  0  0  0  0  0  0
    1.1950   20.0880  -27.9790 C   0  0  0  0  0  0  0  0  0  0  0  0
    0.6100   21.3390  -27.7350 C   0  0  0  0  0  0  0  0  0  0  0  0
   -0.7940   21.4490  -27.7270 C   0  0  0  0  0  0  0  0  0  0  0  0
   -5.3760   25.0660  -29.7140 C   0  0  0  0  0  0  0  0  0  0  0  0
   -6.5960   24.4440  -30.0380 C   0  0  0  0  0  0  0  0  0  0  0  0
   -6.5540   23.1650  -30.5940 C   0  0  0  0  0  0  0  0  0  0  0  0
   -7.6040   22.4110  -30.9790 N   0  0  0  0  0  0  0  0  0  0  0  0
   -7.0610   21.2550  -31.4380 C   0  0  0  0  0  0  0  0  0  0  0  0
   -9.6039   20.1587  -30.9342 H   0  0  0  0  0  0  0  0  0  0  0  0
   -9.5690   21.0569  -32.4893 H   0  0  0  0  0  0  0  0  0  0  0  0
   -9.5629   19.2607  -32.4893 H   0  0  0  0  0  0  0  0  0  0  0  0
   -8.7049   17.9898  -33.1956 H   0  0  0  0  0  0  0  0  0  0  0  0
   -7.3646   16.0504  -33.9801 H   0  0  0  0  0  0  0  0  0  0  0  0
   -4.8984   16.0145  -33.6630 H   0  0  0  0  0  0  0  0  0  0  0  0
   -3.7437   17.9344  -32.5909 H   0  0  0  0  0  0  0  0  0  0  0  0
   -3.1480   20.0290  -30.5170 H   0  0  0  0  0  0  0  0  0  0  0  0
   -2.6169   19.2319  -33.1256 H   0  0  0  0  0  0  0  0  0  0  0  0
   -2.9177   21.0412  -33.2808 H   0  0  0  0  0  0  0  0  0  0  0  0
   -1.0049   21.1295  -30.2089 H   0  0  0  0  0  0  0  0  0  0  0  0
    0.0244   22.1144  -31.3031 H   0  0  0  0  0  0  0  0  0  0  0  0
   -1.7578   22.3388  -31.3031 H   0  0  0  0  0  0  0  0  0  0  0  0
   -0.5006   19.2656  -30.6191 H   0  0  0  0  0  0  0  0  0  0  0  0
   -1.0720   18.3597  -32.0611 H   0  0  0  0  0  0  0  0  0  0  0  0
    0.5594   19.1116  -32.0611 H   0  0  0  0  0  0  0  0  0  0  0  0
    0.5761   21.5579  -33.2563 H   0  0  0  0  0  0  0  0  0  0  0  0
    0.1239   19.9271  -33.9763 H   0  0  0  0  0  0  0  0  0  0  0  0
   -1.6300   22.2550  -34.2620 H   0  0  0  0  0  0  0  0  0  0  0  0
   -1.5650   20.8150  -35.1290 H   0  0  0  0  0  0  0  0  0  0  0  0
   -0.3430   21.9550  -35.3570 H   0  0  0  0  0  0  0  0  0  0  0  0
   -3.1950   22.6140  -30.7732 H   0  0  0  0  0  0  0  0  0  0  0  0
   -1.5043   25.7846  -28.4244 H   0  0  0  0  0  0  0  0  0  0  0  0
   -2.8448   24.8527  -27.6828 H   0  0  0  0  0  0  0  0  0  0  0  0
   -1.4854   23.1133  -29.5453 H   0  0  0  0  0  0  0  0  0  0  0  0
   -0.2432   23.9456  -28.4823 H   0  0  0  0  0  0  0  0  0  0  0  0
   -1.5964   22.5862  -25.3652 H   0  0  0  0  0  0  0  0  0  0  0  0
   -0.0769   23.2329  -26.0720 H   0  0  0  0  0  0  0  0  0  0  0  0
   -1.5662   24.2373  -26.0720 H   0  0  0  0  0  0  0  0  0  0  0  0
   -3.4059   22.2773  -26.4925 H   0  0  0  0  0  0  0  0  0  0  0  0
   -3.5616   22.7730  -28.2076 H   0  0  0  0  0  0  0  0  0  0  0  0
   -3.5331   20.0788  -27.1847 H   0  0  0  0  0  0  0  0  0  0  0  0
   -3.5096   20.5215  -28.8774 H   0  0  0  0  0  0  0  0  0  0  0  0
   -1.6531   18.2185  -28.4138 H   0  0  0  0  0  0  0  0  0  0  0  0
    0.8464   17.9809  -28.3881 H   0  0  0  0  0  0  0  0  0  0  0  0
    2.2903   19.9868  -27.9897 H   0  0  0  0  0  0  0  0  0  0  0  0
    1.2393   22.2225  -27.5523 H   0  0  0  0  0  0  0  0  0  0  0  0
   -5.3776   26.0611  -29.2451 H   0  0  0  0  0  0  0  0  0  0  0  0
   -7.5552   24.9515  -29.8581 H   0  0  0  0  0  0  0  0  0  0  0  0
   -8.6060   22.7010  -30.9380 H   0  0  0  0  0  0  0  0  0  0  0  0
  1  2  1  0
  2  3  2  0
  3  4  1  0
  4  5  2  0
  5  6  1  0
  6  7  2  0
  7  8  1  0
  8  9  2  0
  9 10  1  0
 10 11  1  0
 11 12  1  0
 12 13  1  0
 12 14  1  0
 12 15  1  0
 15 16  1  0
  9 17  1  0
 17 18  1  0
 18 19  2  0
 19 20  1  0
 20 21  1  0
 21 22  1  0
 22 23  1  0
 24 23  1  6
 24 25  1  0
 24 26  1  0
 26 27  1  0
 27 28  1  0
 28 29  2  0
 29 30  1  0
 30 31  2  0
 31 32  1  0
 32 33  2  0
 20 34  2  0
 34 35  1  0
 35 36  2  0
 36 37  1  0
 37 38  1  0
 38  2  1  0
  8  3  1  0
 38 17  2  0
 36 18  1  0
 33 24  1  0
 33 28  1  0
  1 39  1  0
  1 40  1  0
  1 41  1  0
  4 42  1  0
  5 43  1  0
  6 44  1  0
  7 45  1  0
 10 46  1  0
 11 47  1  0
 11 48  1  0
 13 49  1  0
 13 50  1  0
 13 51  1  0
 14 52  1  0
 14 53  1  0
 14 54  1  0
 15 55  1  0
 15 56  1  0
 16 57  1  0
 16 58  1  0
 16 59  1  0
 19 60  1  0
 22 61  1  0
 22 62  1  0
 23 63  1  0
 23 64  1  0
 25 65  1  0
 25 66  1  0
 25 67  1  0
 26 68  1  0
 26 69  1  0
 27 70  1  0
 27 71  1  0
 29 72  1  0
 30 73  1  0
 31 74  1  0
 32 75  1  0
 34 76  1  0
 35 77  1  0
 37 78  1  0
M  CHG  3   2   1  16   1  24   1
M  END
>  <UniqueID>  (2) 
2

>  <SMILES>  (2) 
C[n+]1c2ccccc2c(NCC(C)(C)C[NH3+])c2c3cc(OCC[N@@+]4(C)CCc5ccccc54)ccc3[nH]c21

>  <Energy>  (2) 
162.5052989465531

>  <Genealogy>  (2) 
C[n+]1c2ccccc2c(NCC(C)(C)C[NH3+])c2c3cc(OCC[N+]4(C)CCc5ccccc54)ccc3[nH]c21 (protonated)
C[n+]1c2ccccc2c(NCC(C)(C)C[NH3+])c2c3cc(OCC[N@@+]4(C)CCc5ccccc54)ccc3[nH]c21 (chirality)
C[n+]1c2ccccc2c(NCC(C)(C)C[NH3+])c2c3cc(OCC[N@@+]4(C)CCc5ccccc54)ccc3[nH]c21 (3D coordinates assigned)
C[n+]1c2ccccc2c(NCC(C)(C)C[NH3+])c2c3cc(OCC[N@@+]4(C)CCc5ccccc54)ccc3[nH]c21 (nonaromatic ring conformer: 162.5052989465531 kcal/mol)

>  <smiles>  (2) 
C[n+]1c2ccccc2c(NCC(C)(C)CN)c2c3cc(OCC[N+]4(C)CCc5ccccc54)ccc3[nH]c21

>  <score_type>  (2) 
oracle

>  <origin>  (2) 
adg

>  <m_score__min__energy>  (2) 
-8.6699999999999999

>  <m_primary>  (2) 
energy

$$$$
2:0
     RDKit          3D

 42 44  0  0  0  0  0  0  0  0999 V2000
   -2.9010   24.1830  -27.5640 C   0  0  0  0  0  0  0  0  0  0  0  0
   -1.5580   24.1470  -28.2850 C   0  0  0  0  0  0  0  0  0  0  0  0
   -1.7420   24.1840  -29.7010 O   0  0  0  0  0  0  0  0  0  0  0  0
   -2.6670   23.4170  -30.4310 C   0  0  0  0  0  0  0  0  0  0  0  0
   -2.3850   22.1090  -30.8670 C   0  0  0  0  0  0  0  0  0  0  0  0
   -3.3350   21.3760  -31.5930 C   0  0  0  0  0  0  0  0  0  0  0  0
   -3.0550   20.1150  -32.0140 N   0  0  0  0  0  0  0  0  0  0  0  0
   -3.9600   19.3810  -32.7200 C   0  0  0  0  0  0  0  0  0  0  0  0
   -3.5140   17.8710  -33.2100 S   0  0  0  0  0  0  0  0  0  0  0  0
   -5.2030   19.9050  -33.0160 N   0  0  0  0  0  0  0  0  0  0  0  0
   -6.1930   19.1330  -33.7990 C   0  0  0  0  0  0  0  0  0  0  0  0
   -7.4630   18.9750  -33.0220 C   0  0  0  0  0  0  0  0  0  0  0  0
   -7.7120   18.0070  -32.0680 C   0  0  0  0  0  0  0  0  0  0  0  0
   -8.9850   18.2620  -31.6070 C   0  0  0  0  0  0  0  0  0  0  0  0
   -9.4320   19.3670  -32.3050 C   0  0  0  0  0  0  0  0  0  0  0  0
   -8.5020   19.7690  -33.1390 O   0  0  0  0  0  0  0  0  0  0  0  0
   -5.5090   21.1860  -32.6180 C   0  0  0  0  0  0  0  0  0  0  0  0
   -6.6320   21.6900  -32.9090 O   0  0  0  0  0  0  0  0  0  0  0  0
   -4.5800   21.9490  -31.8900 C   0  0  0  0  0  0  0  0  0  0  0  0
   -4.8630   23.2580  -31.4610 C   0  0  0  0  0  0  0  0  0  0  0  0
   -3.9080   23.9970  -30.7350 C   0  0  0  0  0  0  0  0  0  0  0  0
   -4.1500   25.3080  -30.2880 O   0  0  0  0  0  0  0  0  0  0  0  0
   -5.3630   26.0400  -30.4610 C   0  0  0  0  0  0  0  0  0  0  0  0
   -6.4030   25.6170  -29.4310 C   0  0  0  0  0  0  0  0  0  0  0  0
   -2.7337   24.1785  -26.4768 H   0  0  0  0  0  0  0  0  0  0  0  0
   -3.4450   25.0961  -27.8475 H   0  0  0  0  0  0  0  0  0  0  0  0
   -3.4932   23.3004  -27.8475 H   0  0  0  0  0  0  0  0  0  0  0  0
   -0.9593   25.0166  -27.9762 H   0  0  0  0  0  0  0  0  0  0  0  0
   -1.0406   23.2130  -28.0207 H   0  0  0  0  0  0  0  0  0  0  0  0
   -1.4092   21.6568  -30.6359 H   0  0  0  0  0  0  0  0  0  0  0  0
   -2.1200   19.6990  -31.7950 H   0  0  0  0  0  0  0  0  0  0  0  0
   -6.4063   19.6642  -34.7383 H   0  0  0  0  0  0  0  0  0  0  0  0
   -5.7796   18.1366  -34.0143 H   0  0  0  0  0  0  0  0  0  0  0  0
   -7.0359   17.2019  -31.7445 H   0  0  0  0  0  0  0  0  0  0  0  0
   -9.5346   17.6992  -30.8381 H   0  0  0  0  0  0  0  0  0  0  0  0
  -10.4180   19.8385  -32.1806 H   0  0  0  0  0  0  0  0  0  0  0  0
   -5.8388   23.7090  -31.6943 H   0  0  0  0  0  0  0  0  0  0  0  0
   -5.1557   27.1139  -30.3439 H   0  0  0  0  0  0  0  0  0  0  0  0
   -5.7587   25.8333  -31.4663 H   0  0  0  0  0  0  0  0  0  0  0  0
   -6.0038   25.7793  -28.4189 H   0  0  0  0  0  0  0  0  0  0  0  0
   -7.3164   26.2151  -29.5652 H   0  0  0  0  0  0  0  0  0  0  0  0
   -6.6396   24.5512  -29.5652 H   0  0  0  0  0  0  0  0  0  0  0  0
  1  2  1  0
  2  3  1  0
  3  4  1  0
  4  5  2  0
  5  6  1  0
  6  7  1  0
  7  8  1  0
  8  9  2  0
  8 10  1  0
 10 11  1  0
 11 12  1  0
 12 13  2  0
 13 14  1  0
 14 15  2  0
 15 16  1  0
 10 17  1  0
 17 18  2  0
 17 19  1  0
 19 20  1  0
 20 21  2  0
 21 22  1  0
 22 23  1  0
 23 24  1  0
 21  4  1  0
 19  6  2  0
 16 12  1  0
  1 25  1  0
  1 26  1  0
  1 27  1  0
  2 28  1  0
  2 29  1  0
  5 30  1  0
  7 31  1  0
 11 32  1  0
 11 33  1  0
 13 34  1  0
 14 35  1  0
 15 36  1  0
 20 37  1  0
 23 38  1  0
 23 39  1  0
 24 40  1  0
 24 41  1  0
 24 42  1  0
M  END
>  <UniqueID>  (3) 
3

>  <SMILES>  (3) 
CCOc1cc2[nH]c(=S)n(Cc3ccco3)c(=O)c2cc1OCC

>  <Energy>  (3) 
75.75825562764167

>  <Genealogy>  (3) 
CCOc1cc2[nH]c(=S)n(Cc3ccco3)c(=O)c2cc1OCC (3D coordinates assigned)
CCOc1cc2[nH]c(=S)n(Cc3ccco3)c(=O)c2cc1OCC (optimized conformer: 75.75825562764167 kcal/mol)

>  <smiles>  (3) 
CCOc1cc2[nH]c(=S)n(Cc3ccco3)c(=O)c2cc1OCC

>  <score_type>  (3) 
oracle

>  <origin>  (3) 
adg

>  <m_score__min__energy>  (3) 
-7.0999999999999996

>  <m_primary>  (3) 
energy

$$$$
3:0
     RDKit          3D

 47 48  0  0  0  0  0  0  0  0999 V2000
   -0.8910   26.5740  -23.7990 C   0  0  0  0  0  0  0  0  0  0  0  0
   -1.6000   26.4650  -25.1450 C   0  0  0  0  0  0  0  0  0  0  0  0
   -1.3330   25.1040  -25.8030 C   0  0  0  0  0  0  0  0  0  0  0  0
   -2.4710   24.6710  -26.7450 C   0  0  0  0  0  0  0  0  0  0  0  0
   -2.3590   25.2590  -28.0950 N   0  0  0  0  0  0  0  0  0  0  0  0
   -1.4150   24.5180  -28.9400 C   0  0  0  0  0  0  0  0  0  0  0  0
   -2.1490   23.4600  -29.7250 C   0  0  0  0  0  0  0  0  0  0  0  0
   -1.7060   22.1300  -29.6770 C   0  0  0  0  0  0  0  0  0  0  0  0
   -2.3890   21.1320  -30.3730 C   0  0  0  0  0  0  0  0  0  0  0  0
   -3.5290   21.4380  -31.1180 C   0  0  0  0  0  0  0  0  0  0  0  0
   -4.1760   20.3950  -31.8000 O   0  0  0  0  0  0  0  0  0  0  0  0
   -4.8940   20.5510  -33.0220 C   0  0  0  0  0  0  0  0  0  0  0  0
   -6.3520   20.7180  -32.7160 C   0  0  0  0  0  0  0  0  0  0  0  0
   -6.8450   21.9550  -32.2680 C   0  0  0  0  0  0  0  0  0  0  0  0
   -8.1980   22.1000  -31.9480 C   0  0  0  0  0  0  0  0  0  0  0  0
   -9.0660   21.0100  -32.0610 C   0  0  0  0  0  0  0  0  0  0  0  0
  -10.3780   21.1500  -31.7490 F   0  0  0  0  0  0  0  0  0  0  0  0
   -8.5790   19.7710  -32.4900 C   0  0  0  0  0  0  0  0  0  0  0  0
   -7.2260   19.6220  -32.8110 C   0  0  0  0  0  0  0  0  0  0  0  0
   -3.9900   22.7680  -31.1580 C   0  0  0  0  0  0  0  0  0  0  0  0
   -3.3080   23.7840  -30.4580 C   0  0  0  0  0  0  0  0  0  0  0  0
   -3.7550   25.1160  -30.4660 O   0  0  0  0  0  0  0  0  0  0  0  0
   -5.1220   25.5120  -30.4770 C   0  0  0  0  0  0  0  0  0  0  0  0
   -1.6252   26.4611  -22.9877 H   0  0  0  0  0  0  0  0  0  0  0  0
   -0.1318   25.7820  -23.7193 H   0  0  0  0  0  0  0  0  0  0  0  0
   -0.4047   27.5575  -23.7193 H   0  0  0  0  0  0  0  0  0  0  0  0
   -2.6828   26.5831  -24.9911 H   0  0  0  0  0  0  0  0  0  0  0  0
   -1.2146   27.2543  -25.8072 H   0  0  0  0  0  0  0  0  0  0  0  0
   -0.4006   25.1695  -26.3830 H   0  0  0  0  0  0  0  0  0  0  0  0
   -1.2591   24.3542  -25.0016 H   0  0  0  0  0  0  0  0  0  0  0  0
   -2.4514   23.5751  -26.8375 H   0  0  0  0  0  0  0  0  0  0  0  0
   -3.4143   25.0299  -26.3075 H   0  0  0  0  0  0  0  0  0  0  0  0
   -3.2930   25.2920  -28.5680 H   0  0  0  0  0  0  0  0  0  0  0  0
   -0.9248   25.2143  -29.6363 H   0  0  0  0  0  0  0  0  0  0  0  0
   -0.6595   24.0362  -28.3020 H   0  0  0  0  0  0  0  0  0  0  0  0
   -0.8143   21.8721  -29.0868 H   0  0  0  0  0  0  0  0  0  0  0  0
   -2.0257   20.0945  -30.3342 H   0  0  0  0  0  0  0  0  0  0  0  0
   -4.5253   21.4398  -33.5551 H   0  0  0  0  0  0  0  0  0  0  0  0
   -4.7472   19.6629  -33.6542 H   0  0  0  0  0  0  0  0  0  0  0  0
   -6.1636   22.8128  -32.1687 H   0  0  0  0  0  0  0  0  0  0  0  0
   -8.5803   23.0733  -31.6067 H   0  0  0  0  0  0  0  0  0  0  0  0
   -9.2613   18.9124  -32.5750 H   0  0  0  0  0  0  0  0  0  0  0  0
   -6.8448   18.6436  -33.1389 H   0  0  0  0  0  0  0  0  0  0  0  0
   -4.8897   23.0162  -31.7402 H   0  0  0  0  0  0  0  0  0  0  0  0
   -5.4819   25.6162  -29.4428 H   0  0  0  0  0  0  0  0  0  0  0  0
   -5.2204   26.4756  -30.9984 H   0  0  0  0  0  0  0  0  0  0  0  0
   -5.7202   24.7502  -30.9984 H   0  0  0  0  0  0  0  0  0  0  0  0
  1  2  1  0
  2  3  1  0
  3  4  1  0
  4  5  1  0
  5  6  1  0
  6  7  1  0
  7  8  2  0
  8  9  1  0
  9 10  2  0
 10 11  1  0
 11 12  1  0
 12 13  1  0
 13 14  2  0
 14 15  1  0
 15 16  2  0
 16 17  1  0
 16 18  1  0
 18 19  2  0
 10 20  1  0
 20 21  2  0
 21 22  1  0
 22 23  1  0
 21  7  1  0
 19 13  1  0
  1 24  1  0
  1 25  1  0
  1 26  1  0
  2 27  1  0
  2 28  1  0
  3 29  1  0
  3 30  1  0
  4 31  1  0
  4 32  1  0
  5 33  1  0
  6 34  1  0
  6 35  1  0
  8 36  1  0
  9 37  1  0
 12 38  1  0
 12 39  1  0
 14 40  1  0
 15 41  1  0
 18 42  1  0
 19 43  1  0
 20 44  1  0
 23 45  1  0
 23 46  1  0
 23 47  1  0
M  END
>  <UniqueID>  (4) 
4

>  <SMILES>  (4) 
CCCCNCc1ccc(OCc2ccc(F)cc2)cc1OC

>  <Energy>  (4) 
40.85435921135232

>  <Genealogy>  (4) 
CCCCNCc1ccc(OCc2ccc(F)cc2)cc1OC (3D coordinates assigned)
CCCCNCc1ccc(OCc2ccc(F)cc2)cc1OC (optimized conformer: 40.85435921135232 kcal/mol)

>  <smiles>  (4) 
CCCCNCc1ccc(OCc2ccc(F)cc2)cc1OC

>  <score_type>  (4) 
oracle

>  <origin>  (4) 
adg

>  <m_score__min__energy>  (4) 
-7.9100000000000001

>  <m_primary>  (4) 
energy

$$$$
4:0
     RDKit          3D

 51 53  0  0  0  0  0  0  0  0999 V2000
   -6.2090   25.5880  -29.4860 C   0  0  0  0  0  0  0  0  0  0  0  0
   -5.5240   25.7990  -30.8320 C   0  0  0  0  0  0  0  0  0  0  0  0
   -4.1640   25.2420  -30.8080 N   0  0  0  0  0  0  0  0  0  0  0  0
   -3.8870   24.5300  -29.5500 C   0  0  0  0  0  0  0  0  0  0  0  0
   -4.1310   23.0220  -29.7100 C   0  0  0  0  0  0  0  0  0  0  0  0
   -2.9530   22.2790  -30.3510 C   0  0  0  0  0  0  0  0  0  0  0  0
   -2.8090   22.6850  -31.6940 O   0  0  0  0  0  0  0  0  0  0  0  0
   -2.0940   21.7090  -32.4190 C   0  0  0  0  0  0  0  0  0  0  0  0
   -3.0870   20.7510  -33.0810 C   0  0  0  0  0  0  0  0  0  0  0  0
   -4.2960   21.4630  -33.5240 N   0  0  0  0  0  0  0  0  0  0  0  0
   -5.4850   20.7260  -33.1470 C   0  0  0  0  0  0  0  0  0  0  0  0
   -6.5880   21.3370  -32.4920 C   0  0  0  0  0  0  0  0  0  0  0  0
   -6.5700   22.7060  -32.1410 C   0  0  0  0  0  0  0  0  0  0  0  0
   -7.6850   23.3140  -31.5700 C   0  0  0  0  0  0  0  0  0  0  0  0
   -8.8390   22.5780  -31.3360 C   0  0  0  0  0  0  0  0  0  0  0  0
   -8.8780   21.2180  -31.6370 C   0  0  0  0  0  0  0  0  0  0  0  0
   -7.7510   20.5520  -32.1830 C   0  0  0  0  0  0  0  0  0  0  0  0
   -7.7640   19.1860  -32.4220 N   0  0  0  0  0  0  0  0  0  0  0  0
   -8.8900   18.3470  -31.9640 C   0  0  0  0  0  0  0  0  0  0  0  0
   -6.7070   18.6180  -33.0940 C   0  0  0  0  0  0  0  0  0  0  0  0
   -6.6130   17.2750  -33.5270 C   0  0  0  0  0  0  0  0  0  0  0  0
   -5.4140   16.9820  -34.1660 C   0  0  0  0  0  0  0  0  0  0  0  0
   -4.4750   18.3770  -34.2190 S   0  0  0  0  0  0  0  0  0  0  0  0
   -5.5880   19.3640  -33.4300 C   0  0  0  0  0  0  0  0  0  0  0  0
   -5.4989   25.8067  -28.6749 H   0  0  0  0  0  0  0  0  0  0  0  0
   -7.0755   26.2609  -29.4061 H   0  0  0  0  0  0  0  0  0  0  0  0
   -6.5467   24.5442  -29.4061 H   0  0  0  0  0  0  0  0  0  0  0  0
   -6.1073   25.2972  -31.6181 H   0  0  0  0  0  0  0  0  0  0  0  0
   -5.4639   26.8782  -31.0364 H   0  0  0  0  0  0  0  0  0  0  0  0
   -3.5020   26.0500  -30.8600 H   0  0  0  0  0  0  0  0  0  0  0  0
   -2.8378   24.6970  -29.2648 H   0  0  0  0  0  0  0  0  0  0  0  0
   -4.5621   24.9151  -28.7716 H   0  0  0  0  0  0  0  0  0  0  0  0
   -4.3150   22.5911  -28.7148 H   0  0  0  0  0  0  0  0  0  0  0  0
   -4.9943   22.9022  -30.3812 H   0  0  0  0  0  0  0  0  0  0  0  0
   -2.0305   22.5102  -29.7982 H   0  0  0  0  0  0  0  0  0  0  0  0
   -3.1430   21.1961  -30.3162 H   0  0  0  0  0  0  0  0  0  0  0  0
   -1.4828   22.1982  -33.1918 H   0  0  0  0  0  0  0  0  0  0  0  0
   -1.4360   21.1491  -31.7381 H   0  0  0  0  0  0  0  0  0  0  0  0
   -2.6069   20.2819  -33.9525 H   0  0  0  0  0  0  0  0  0  0  0  0
   -3.3809   19.9889  -32.3442 H   0  0  0  0  0  0  0  0  0  0  0  0
   -4.2550   21.5830  -34.5620 H   0  0  0  0  0  0  0  0  0  0  0  0
   -4.3350   22.4340  -33.1410 H   0  0  0  0  0  0  0  0  0  0  0  0
   -5.6619   23.2999  -32.3215 H   0  0  0  0  0  0  0  0  0  0  0  0
   -7.6515   24.3807  -31.3035 H   0  0  0  0  0  0  0  0  0  0  0  0
   -9.7261   23.0706  -30.9112 H   0  0  0  0  0  0  0  0  0  0  0  0
   -9.8007   20.6499  -31.4475 H   0  0  0  0  0  0  0  0  0  0  0  0
   -8.9117   18.3309  -30.8643 H   0  0  0  0  0  0  0  0  0  0  0  0
   -9.8351   18.7628  -32.3433 H   0  0  0  0  0  0  0  0  0  0  0  0
   -8.7618   17.3224  -32.3433 H   0  0  0  0  0  0  0  0  0  0  0  0
   -7.4114   16.5341  -33.3730 H   0  0  0  0  0  0  0  0  0  0  0  0
   -5.1265   16.0002  -34.5703 H   0  0  0  0  0  0  0  0  0  0  0  0
  1  2  1  0
  2  3  1  0
  3  4  1  0
  4  5  1  0
  5  6  1  0
  6  7  1  0
  7  8  1  0
  8  9  1  0
  9 10  1  0
 10 11  1  0
 11 12  2  0
 12 13  1  0
 13 14  2  0
 14 15  1  0
 15 16  2  0
 16 17  1  0
 17 18  2  0
 18 19  1  0
 18 20  1  0
 20 21  1  0
 21 22  2  0
 22 23  1  0
 23 24  1  0
 24 11  1  0
 17 12  1  0
 24 20  2  0
  1 25  1  0
  1 26  1  0
  1 27  1  0
  2 28  1  0
  2 29  1  0
  3 30  1  0
  4 31  1  0
  4 32  1  0
  5 33  1  0
  5 34  1  0
  6 35  1  0
  6 36  1  0
  8 37  1  0
  8 38  1  0
  9 39  1  0
  9 40  1  0
 10 41  1  0
 10 42  1  0
 13 43  1  0
 14 44  1  0
 15 45  1  0
 16 46  1  0
 19 47  1  0
 19 48  1  0
 19 49  1  0
 21 50  1  0
 22 51  1  0
M  CHG  2  10   1  18   1
M  END
>  <UniqueID>  (5) 
5

>  <SMILES>  (5) 
CCNCCCOCC[NH2+]c1c2ccccc2[n+](C)c2ccsc12

>  <Energy>  (5) 
90.33110404323995

>  <Genealogy>  (5) 
CCNCCCOCC[NH2+]c1c2ccccc2[n+](C)c2ccsc12 (protonated)
CCNCCCOCC[NH2+]c1c2ccccc2[n+](C)c2ccsc12 (3D coordinates assigned)
CCNCCCOCC[NH2+]c1c2ccccc2[n+](C)c2ccsc12 (optimized conformer: 90.33110404323995 kcal/mol)

>  <smiles>  (5) 
CCNCCCOCCNc1c2ccccc2[n+](C)c2ccsc12

>  <score_type>  (5) 
oracle

>  <origin>  (5) 
adg

>  <m_score__min__energy>  (5) 
-7.7999999999999998

>  <m_primary>  (5) 
energy

$$$$
5:0
     RDKit          3D

 68 70  0  0  0  0  0  0  0  0999 V2000
   -3.7000   18.5840  -26.0240 C   0  0  0  0  0  0  0  0  0  0  0  0
   -2.4170   19.0150  -26.7210 C   0  0  0  0  0  0  0  0  0  0  0  0
   -2.3730   20.4790  -26.8400 N   0  0  0  0  0  0  0  0  0  0  0  0
   -1.1970   21.0360  -26.1550 C   0  0  0  0  0  0  0  0  0  0  0  0
   -0.8000   22.3790  -26.7790 C   0  0  0  0  0  0  0  0  0  0  0  0
   -0.4370   22.2550  -28.2630 C   0  0  0  0  0  0  0  0  0  0  0  0
   -0.3270   20.8880  -28.6140 O   0  0  0  0  0  0  0  0  0  0  0  0
   -0.8350   20.6530  -29.9150 C   0  0  0  0  0  0  0  0  0  0  0  0
   -1.9920   21.5990  -30.2590 C   0  0  0  0  0  0  0  0  0  0  0  0
   -3.0370   21.4860  -29.3090 O   0  0  0  0  0  0  0  0  0  0  0  0
   -4.0780   22.4090  -29.5690 C   0  0  0  0  0  0  0  0  0  0  0  0
   -3.5320   23.7080  -30.1790 C   0  0  0  0  0  0  0  0  0  0  0  0
   -4.3770   24.1820  -31.2090 O   0  0  0  0  0  0  0  0  0  0  0  0
   -5.6880   24.4470  -30.7410 C   0  0  0  0  0  0  0  0  0  0  0  0
   -6.6640   23.4720  -31.4030 C   0  0  0  0  0  0  0  0  0  0  0  0
   -6.1590   23.0190  -32.7090 N   0  0  0  0  0  0  0  0  0  0  0  0
   -5.9830   21.5750  -32.7100 C   0  0  0  0  0  0  0  0  0  0  0  0
   -7.0920   20.7120  -32.4960 C   0  0  0  0  0  0  0  0  0  0  0  0
   -8.3720   21.2150  -32.1530 C   0  0  0  0  0  0  0  0  0  0  0  0
   -9.4690   20.3660  -32.0350 C   0  0  0  0  0  0  0  0  0  0  0  0
   -9.3230   19.0050  -32.2540 C   0  0  0  0  0  0  0  0  0  0  0  0
   -8.0670   18.4760  -32.5350 C   0  0  0  0  0  0  0  0  0  0  0  0
   -6.9170   19.3040  -32.6000 C   0  0  0  0  0  0  0  0  0  0  0  0
   -5.6550   18.7660  -32.7550 N   0  0  0  0  0  0  0  0  0  0  0  0
   -5.4400   17.3140  -32.5440 C   0  0  0  0  0  0  0  0  0  0  0  0
   -4.5810   19.5820  -33.0440 C   0  0  0  0  0  0  0  0  0  0  0  0
   -3.3290   19.0400  -33.4370 C   0  0  0  0  0  0  0  0  0  0  0  0
   -2.2190   19.8540  -33.6370 C   0  0  0  0  0  0  0  0  0  0  0  0
   -2.3220   21.2250  -33.4560 C   0  0  0  0  0  0  0  0  0  0  0  0
   -3.5480   21.7970  -33.1270 C   0  0  0  0  0  0  0  0  0  0  0  0
   -4.7080   20.9980  -32.9610 C   0  0  0  0  0  0  0  0  0  0  0  0
   -3.5589   18.6314  -24.9341 H   0  0  0  0  0  0  0  0  0  0  0  0
   -4.5201   19.2560  -26.3171 H   0  0  0  0  0  0  0  0  0  0  0  0
   -3.9481   17.5532  -26.3171 H   0  0  0  0  0  0  0  0  0  0  0  0
   -1.5518   18.6717  -26.1349 H   0  0  0  0  0  0  0  0  0  0  0  0
   -2.3880   18.5714  -27.7272 H   0  0  0  0  0  0  0  0  0  0  0  0
   -2.2890   20.7190  -27.8570 H   0  0  0  0  0  0  0  0  0  0  0  0
   -1.4348   21.1868  -25.0917 H   0  0  0  0  0  0  0  0  0  0  0  0
   -0.3576   20.3327  -26.2591 H   0  0  0  0  0  0  0  0  0  0  0  0
   -1.6445   23.0769  -26.6800 H   0  0  0  0  0  0  0  0  0  0  0  0
    0.0915   22.7429  -26.2472 H   0  0  0  0  0  0  0  0  0  0  0  0
   -1.2219   22.7271  -28.8722 H   0  0  0  0  0  0  0  0  0  0  0  0
    0.5245   22.7570  -28.4463 H   0  0  0  0  0  0  0  0  0  0  0  0
   -0.0255   20.8019  -30.6447 H   0  0  0  0  0  0  0  0  0  0  0  0
   -1.2170   19.6220  -29.9497 H   0  0  0  0  0  0  0  0  0  0  0  0
   -1.6210   22.6345  -30.2648 H   0  0  0  0  0  0  0  0  0  0  0  0
   -2.3862   21.3266  -31.2491 H   0  0  0  0  0  0  0  0  0  0  0  0
   -4.7919   21.9553  -30.2722 H   0  0  0  0  0  0  0  0  0  0  0  0
   -4.5716   22.6531  -28.6168 H   0  0  0  0  0  0  0  0  0  0  0  0
   -3.4619   24.4728  -29.3915 H   0  0  0  0  0  0  0  0  0  0  0  0
   -2.5402   23.5023  -30.6081 H   0  0  0  0  0  0  0  0  0  0  0  0
   -5.7223   24.3177  -29.6492 H   0  0  0  0  0  0  0  0  0  0  0  0
   -5.9691   25.4802  -30.9930 H   0  0  0  0  0  0  0  0  0  0  0  0
   -6.7988   22.5988  -30.7478 H   0  0  0  0  0  0  0  0  0  0  0  0
   -7.6215   23.9901  -31.5601 H   0  0  0  0  0  0  0  0  0  0  0  0
   -6.7960   23.3230  -33.4770 H   0  0  0  0  0  0  0  0  0  0  0  0
   -5.2670   23.5080  -32.9420 H   0  0  0  0  0  0  0  0  0  0  0  0
   -8.5006   22.2932  -31.9773 H   0  0  0  0  0  0  0  0  0  0  0  0
  -10.4540   20.7761  -31.7673 H   0  0  0  0  0  0  0  0  0  0  0  0
  -10.2002   18.3430  -32.2056 H   0  0  0  0  0  0  0  0  0  0  0  0
   -7.9639   17.3949  -32.7101 H   0  0  0  0  0  0  0  0  0  0  0  0
   -5.4085   17.1010  -31.4653 H   0  0  0  0  0  0  0  0  0  0  0  0
   -6.2645   16.7504  -33.0051 H   0  0  0  0  0  0  0  0  0  0  0  0
   -4.4876   17.0135  -33.0051 H   0  0  0  0  0  0  0  0  0  0  0  0
   -3.2349   17.9543  -33.5864 H   0  0  0  0  0  0  0  0  0  0  0  0
   -1.2590   19.4100  -33.9389 H   0  0  0  0  0  0  0  0  0  0  0  0
   -1.4329   21.8622  -33.5726 H   0  0  0  0  0  0  0  0  0  0  0  0
   -3.6181   22.8866  -32.9936 H   0  0  0  0  0  0  0  0  0  0  0  0
  1  2  1  0
  2  3  1  0
  3  4  1  0
  4  5  1  0
  5  6  1  0
  6  7  1  0
  7  8  1  0
  8  9  1  0
  9 10  1  0
 10 11  1  0
 11 12  1  0
 12 13  1  0
 13 14  1  0
 14 15  1  0
 15 16  1  0
 16 17  1  0
 17 18  2  0
 18 19  1  0
 19 20  2  0
 20 21  1  0
 21 22  2  0
 22 23  1  0
 23 24  2  0
 24 25  1  0
 24 26  1  0
 26 27  2  0
 27 28  1  0
 28 29  2  0
 29 30  1  0
 30 31  2  0
 31 17  1  0
 23 18  1  0
 31 26  1  0
  1 32  1  0
  1 33  1  0
  1 34  1  0
  2 35  1  0
  2 36  1  0
  3 37  1  0
  4 38  1  0
  4 39  1  0
  5 40  1  0
  5 41  1  0
  6 42  1  0
  6 43  1  0
  8 44  1  0
  8 45  1  0
  9 46  1  0
  9 47  1  0
 11 48  1  0
 11 49  1  0
 12 50  1  0
 12 51  1  0
 14 52  1  0
 14 53  1  0
 15 54  1  0
 15 55  1  0
 16 56  1  0
 16 57  1  0
 19 58  1  0
 20 59  1  0
 21 60  1  0
 22 61  1  0
 25 62  1  0
 25 63  1  0
 25 64  1  0
 27 65  1  0
 28 66  1  0
 29 67  1  0
 30 68  1  0
M  CHG  2  16   1  24   1
M  END
>  <UniqueID>  (6) 
6

>  <SMILES>  (6) 
CCNCCCOCCOCCOCC[NH2+]c1c2ccccc2[n+](C)c2ccccc12

>  <Energy>  (6) 
90.91561908917866

>  <Genealogy>  (6) 
CCNCCCOCCOCCOCC[NH2+]c1c2ccccc2[n+](C)c2ccccc12 (protonated)
CCNCCCOCCOCCOCC[NH2+]c1c2ccccc2[n+](C)c2ccccc12 (3D coordinates assigned)
CCNCCCOCCOCCOCC[NH2+]c1c2ccccc2[n+](C)c2ccccc12 (optimized conformer: 90.91561908917866 kcal/mol)

>  <smiles>  (6) 
CCNCCCOCCOCCOCCNc1c2ccccc2[n+](C)c2ccccc12

>  <score_type>  (6) 
oracle

>  <origin>  (6) 
adg

>  <m_score__min__energy>  (6) 
-9.2599999999999998

>  <m_primary>  (6) 
energy

$$$$
6:0
     RDKit          3D

 30 31  0  0  0  0  0  0  0  0999 V2000
   -6.1140   17.0670  -31.7560 C   0  0  0  0  0  0  0  0  0  0  0  0
   -5.3090   18.0590  -32.5860 C   0  0  0  0  0  0  0  0  0  0  0  0
   -6.3570   18.8450  -33.8610 S   0  0  0  0  0  0  0  0  0  0  0  0
   -6.7050   20.3240  -32.8920 C   0  0  0  0  0  0  0  0  0  0  0  0
   -5.6600   21.1380  -32.5980 N   0  0  0  0  0  0  0  0  0  0  0  0
   -5.8140   22.2630  -31.8640 C   0  0  0  0  0  0  0  0  0  0  0  0
   -4.7100   23.0800  -31.5910 C   0  0  0  0  0  0  0  0  0  0  0  0
   -4.8700   24.2390  -30.8260 C   0  0  0  0  0  0  0  0  0  0  0  0
   -6.1300   24.5840  -30.3320 C   0  0  0  0  0  0  0  0  0  0  0  0
   -7.2370   23.7720  -30.6000 C   0  0  0  0  0  0  0  0  0  0  0  0
   -7.0860   22.6030  -31.3700 C   0  0  0  0  0  0  0  0  0  0  0  0
   -8.1630   21.7500  -31.6660 C   0  0  0  0  0  0  0  0  0  0  0  0
   -9.3110   22.0220  -31.2150 O   0  0  0  0  0  0  0  0  0  0  0  0
   -7.9690   20.6270  -32.4360 N   0  0  0  0  0  0  0  0  0  0  0  0
   -9.1080   19.7250  -32.7090 C   0  0  0  0  0  0  0  0  0  0  0  0
   -9.1120   18.5560  -31.7290 C   0  0  0  0  0  0  0  0  0  0  0  0
   -5.9517   17.2670  -30.6866 H   0  0  0  0  0  0  0  0  0  0  0  0
   -7.1832   17.1748  -31.9911 H   0  0  0  0  0  0  0  0  0  0  0  0
   -5.7884   16.0429  -31.9911 H   0  0  0  0  0  0  0  0  0  0  0  0
   -4.9034   18.8375  -31.9231 H   0  0  0  0  0  0  0  0  0  0  0  0
   -4.4931   17.5174  -33.0869 H   0  0  0  0  0  0  0  0  0  0  0  0
   -3.7167   22.8097  -31.9786 H   0  0  0  0  0  0  0  0  0  0  0  0
   -4.0021   24.8803  -30.6127 H   0  0  0  0  0  0  0  0  0  0  0  0
   -6.2522   25.4968  -29.7305 H   0  0  0  0  0  0  0  0  0  0  0  0
   -8.2274   24.0473  -30.2084 H   0  0  0  0  0  0  0  0  0  0  0  0
  -10.0477   20.2873  -32.6053 H   0  0  0  0  0  0  0  0  0  0  0  0
   -9.0121   19.3311  -33.7315 H   0  0  0  0  0  0  0  0  0  0  0  0
   -9.1107   18.9413  -30.6987 H   0  0  0  0  0  0  0  0  0  0  0  0
  -10.0122   17.9450  -31.8908 H   0  0  0  0  0  0  0  0  0  0  0  0
   -8.2160   17.9388  -31.8908 H   0  0  0  0  0  0  0  0  0  0  0  0
  1  2  1  0
  2  3  1  0
  3  4  1  0
  4  5  2  0
  5  6  1  0
  6  7  2  0
  7  8  1  0
  8  9  2  0
  9 10  1  0
 10 11  2  0
 11 12  1  0
 12 13  2  0
 12 14  1  0
 14 15  1  0
 15 16  1  0
 14  4  1  0
 11  6  1  0
  1 17  1  0
  1 18  1  0
  1 19  1  0
  2 20  1  0
  2 21  1  0
  7 22  1  0
  8 23  1  0
  9 24  1  0
 10 25  1  0
 15 26  1  0
 15 27  1  0
 16 28  1  0
 16 29  1  0
 16 30  1  0
M  END
>  <UniqueID>  (7) 
7

>  <SMILES>  (7) 
CCSc1nc2ccccc2c(=O)n1CC

>  <Energy>  (7) 
29.790700006884908

>  <Genealogy>  (7) 
CCSc1nc2ccccc2c(=O)n1CC (3D coordinates assigned)
CCSc1nc2ccccc2c(=O)n1CC (optimized conformer: 29.790700006884908 kcal/mol)

>  <smiles>  (7) 
CCSc1nc2ccccc2c(=O)n1CC

>  <score_type>  (7) 
oracle

>  <origin>  (7) 
adg

>  <m_score__min__energy>  (7) 
-6.3600000000000003

>  <m_primary>  (7) 
energy

$$$$
7:0
     RDKit          3D

 49 51  0  0  0  0  0  0  0  0999 V2000
   -6.1120   25.2990  -29.3920 C   0  0  0  0  0  0  0  0  0  0  0  0
   -5.7350   25.5820  -30.8440 C   0  0  0  0  0  0  0  0  0  0  0  0
   -4.4670   24.9250  -31.1900 N   0  0  0  0  0  0  0  0  0  0  0  0
   -3.8020   24.3760  -30.0000 C   0  0  0  0  0  0  0  0  0  0  0  0
   -2.8330   23.2610  -30.4140 C   0  0  0  0  0  0  0  0  0  0  0  0
   -3.5620   21.9860  -30.8670 C   0  0  0  0  0  0  0  0  0  0  0  0
   -4.4110   22.2390  -32.0330 N   0  0  0  0  0  0  0  0  0  0  0  0
   -5.4130   21.3010  -32.4570 C   0  0  0  0  0  0  0  0  0  0  0  0
   -6.7690   21.6170  -32.2650 C   0  0  0  0  0  0  0  0  0  0  0  0
   -7.1730   22.9360  -31.9640 C   0  0  0  0  0  0  0  0  0  0  0  0
   -8.5200   23.2460  -31.7960 C   0  0  0  0  0  0  0  0  0  0  0  0
   -9.4850   22.2550  -31.9350 C   0  0  0  0  0  0  0  0  0  0  0  0
   -9.1060   20.9430  -32.2120 C   0  0  0  0  0  0  0  0  0  0  0  0
   -7.7390   20.5880  -32.3430 C   0  0  0  0  0  0  0  0  0  0  0  0
   -7.3390   19.2800  -32.5120 N   0  0  0  0  0  0  0  0  0  0  0  0
   -8.2830   18.1760  -32.2210 C   0  0  0  0  0  0  0  0  0  0  0  0
   -6.0530   18.9990  -32.9360 C   0  0  0  0  0  0  0  0  0  0  0  0
   -5.6960   17.7030  -33.3780 C   0  0  0  0  0  0  0  0  0  0  0  0
   -4.4020   17.4130  -33.7910 C   0  0  0  0  0  0  0  0  0  0  0  0
   -3.4450   18.4140  -33.8470 C   0  0  0  0  0  0  0  0  0  0  0  0
   -3.7620   19.7310  -33.4880 C   0  0  0  0  0  0  0  0  0  0  0  0
   -2.7260   20.7870  -33.7950 C   0  0  0  0  0  0  0  0  0  0  0  0
   -5.0580   20.0240  -32.9520 C   0  0  0  0  0  0  0  0  0  0  0  0
   -5.4137   25.8232  -28.7230 H   0  0  0  0  0  0  0  0  0  0  0  0
   -7.1362   25.6532  -29.2034 H   0  0  0  0  0  0  0  0  0  0  0  0
   -6.0578   24.2166  -29.2034 H   0  0  0  0  0  0  0  0  0  0  0  0
   -6.5296   25.2030  -31.5036 H   0  0  0  0  0  0  0  0  0  0  0  0
   -5.6168   26.6680  -30.9730 H   0  0  0  0  0  0  0  0  0  0  0  0
   -3.8320   25.6530  -31.5960 H   0  0  0  0  0  0  0  0  0  0  0  0
   -3.2429   25.1759  -29.4925 H   0  0  0  0  0  0  0  0  0  0  0  0
   -4.5602   23.9635  -29.3181 H   0  0  0  0  0  0  0  0  0  0  0  0
   -2.2102   23.6252  -31.2443 H   0  0  0  0  0  0  0  0  0  0  0  0
   -2.2243   23.0035  -29.5347 H   0  0  0  0  0  0  0  0  0  0  0  0
   -2.8158   21.2209  -31.1274 H   0  0  0  0  0  0  0  0  0  0  0  0
   -4.2028   21.6429  -30.0414 H   0  0  0  0  0  0  0  0  0  0  0  0
   -4.3660   23.1770  -32.4930 H   0  0  0  0  0  0  0  0  0  0  0  0
   -6.4156   23.7270  -31.8611 H   0  0  0  0  0  0  0  0  0  0  0  0
   -8.8208   24.2758  -31.5531 H   0  0  0  0  0  0  0  0  0  0  0  0
  -10.5502   22.5071  -31.8261 H   0  0  0  0  0  0  0  0  0  0  0  0
   -9.8795   20.1700  -32.3310 H   0  0  0  0  0  0  0  0  0  0  0  0
   -8.3843   18.0576  -31.1321 H   0  0  0  0  0  0  0  0  0  0  0  0
   -9.2655   18.4090  -32.6574 H   0  0  0  0  0  0  0  0  0  0  0  0
   -7.9002   17.2416  -32.6574 H   0  0  0  0  0  0  0  0  0  0  0  0
   -6.4580   16.9099  -33.3948 H   0  0  0  0  0  0  0  0  0  0  0  0
   -4.1355   16.3842  -34.0749 H   0  0  0  0  0  0  0  0  0  0  0  0
   -2.4241   18.1717  -34.1773 H   0  0  0  0  0  0  0  0  0  0  0  0
   -2.3270   21.1937  -32.8540 H   0  0  0  0  0  0  0  0  0  0  0  0
   -1.9072   20.3391  -34.3772 H   0  0  0  0  0  0  0  0  0  0  0  0
   -3.1895   21.5971  -34.3772 H   0  0  0  0  0  0  0  0  0  0  0  0
  1  2  1  0
  2  3  1  0
  3  4  1  0
  4  5  1  0
  5  6  1  0
  6  7  1  0
  7  8  1  0
  8  9  2  0
  9 10  1  0
 10 11  2  0
 11 12  1  0
 12 13  2  0
 13 14  1  0
 14 15  2  0
 15 16  1  0
 15 17  1  0
 17 18  2  0
 18 19  1  0
 19 20  2  0
 20 21  1  0
 21 22  1  0
 21 23  2  0
 23  8  1  0
 14  9  1  0
 23 17  1  0
  1 24  1  0
  1 25  1  0
  1 26  1  0
  2 27  1  0
  2 28  1  0
  3 29  1  0
  4 30  1  0
  4 31  1  0
  5 32  1  0
  5 33  1  0
  6 34  1  0
  6 35  1  0
  7 36  1  0
 10 37  1  0
 11 38  1  0
 12 39  1  0
 13 40  1  0
 16 41  1  0
 16 42  1  0
 16 43  1  0
 18 44  1  0
 19 45  1  0
 20 46  1  0
 22 47  1  0
 22 48  1  0
 22 49  1  0
M  CHG  1  15   1
M  END
>  <UniqueID>  (8) 
8

>  <SMILES>  (8) 
CCNCCCNc1c2ccccc2[n+](C)c2cccc(C)c12

>  <Energy>  (8) 
76.04356153798545

>  <Genealogy>  (8) 
CCNCCCNc1c2ccccc2[n+](C)c2cccc(C)c12 (3D coordinates assigned)
CCNCCCNc1c2ccccc2[n+](C)c2cccc(C)c12 (optimized conformer: 76.04356153798545 kcal/mol)

>  <smiles>  (8) 
CCNCCCNc1c2ccccc2[n+](C)c2cccc(C)c12

>  <score_type>  (8) 
oracle

>  <origin>  (8) 
adg

>  <m_score__min__energy>  (8) 
-8.8100000000000005

>  <m_primary>  (8) 
energy

$$$$
8:0
     RDKit          3D

 73 75  0  0  0  0  0  0  0  0999 V2000
    0.1170   20.1180  -32.0180 C   0  0  0  0  0  0  0  0  0  0  0  0
   -0.8930   19.6700  -30.9450 C   0  0  0  0  0  0  0  0  0  0  0  0
   -1.8120   20.7430  -30.4280 N   0  0  0  0  0  0  0  0  0  0  0  0
   -1.0670   22.0300  -30.4970 C   0  0  0  0  0  0  0  0  0  0  0  0
   -2.1360   20.4310  -28.9940 C   0  0  0  0  0  0  0  0  0  0  0  0
   -1.9180   21.5810  -27.9900 C   0  0  0  0  0  0  0  0  0  0  0  0
   -3.0850   20.8460  -31.2190 C   0  0  0  0  0  0  0  0  0  0  0  0
   -3.0970   21.9350  -32.3240 C   0  0  0  0  0  0  0  0  0  0  0  0
   -3.9080   21.5560  -33.5060 N   0  0  0  0  0  0  0  0  0  0  0  0
   -4.5840   20.2750  -33.3500 C   0  0  0  0  0  0  0  0  0  0  0  0
   -3.9020   19.0670  -33.6910 C   0  0  0  0  0  0  0  0  0  0  0  0
   -2.5360   19.0430  -34.0810 C   0  0  0  0  0  0  0  0  0  0  0  0
   -1.8660   17.8450  -34.3150 C   0  0  0  0  0  0  0  0  0  0  0  0
   -2.5320   16.6390  -34.1790 C   0  0  0  0  0  0  0  0  0  0  0  0
   -3.8840   16.6270  -33.8600 C   0  0  0  0  0  0  0  0  0  0  0  0
   -4.6040   17.8350  -33.6630 C   0  0  0  0  0  0  0  0  0  0  0  0
   -5.9630   17.8180  -33.4600 N   0  0  0  0  0  0  0  0  0  0  0  0
   -6.7460   16.6190  -33.8450 C   0  0  0  0  0  0  0  0  0  0  0  0
   -6.6020   18.9210  -32.9380 C   0  0  0  0  0  0  0  0  0  0  0  0
   -7.9260   18.8020  -32.4450 C   0  0  0  0  0  0  0  0  0  0  0  0
   -8.6260   19.8960  -31.9750 C   0  0  0  0  0  0  0  0  0  0  0  0
   -8.0250   21.1360  -31.9420 C   0  0  0  0  0  0  0  0  0  0  0  0
   -6.7020   21.3120  -32.3600 C   0  0  0  0  0  0  0  0  0  0  0  0
   -6.1540   22.6170  -32.1420 N   0  0  0  0  0  0  0  0  0  0  0  0
   -7.0110   23.8010  -32.0250 C   0  0  0  0  0  0  0  0  0  0  0  0
   -6.7680   24.5480  -30.7000 C   0  0  0  0  0  0  0  0  0  0  0  0
   -5.3290   25.0740  -30.5560 C   0  0  0  0  0  0  0  0  0  0  0  0
   -4.3680   23.9890  -30.2610 N   0  0  0  0  0  0  0  0  0  0  0  0
   -3.1370   24.5450  -29.6790 C   0  0  0  0  0  0  0  0  0  0  0  0
   -4.9490   23.0030  -29.3320 C   0  0  0  0  0  0  0  0  0  0  0  0
   -5.9430   20.1940  -32.8740 C   0  0  0  0  0  0  0  0  0  0  0  0
    1.0179   20.5176  -31.5295 H   0  0  0  0  0  0  0  0  0  0  0  0
    0.3914   19.2572  -32.6454 H   0  0  0  0  0  0  0  0  0  0  0  0
   -0.3369   20.8992  -32.6454 H   0  0  0  0  0  0  0  0  0  0  0  0
   -1.5143   18.8719  -31.3775 H   0  0  0  0  0  0  0  0  0  0  0  0
   -0.2917   19.3478  -30.0821 H   0  0  0  0  0  0  0  0  0  0  0  0
   -0.8594   22.3886  -29.4780 H   0  0  0  0  0  0  0  0  0  0  0  0
   -0.1182   21.8762  -31.0320 H   0  0  0  0  0  0  0  0  0  0  0  0
   -1.6728   22.7762  -31.0320 H   0  0  0  0  0  0  0  0  0  0  0  0
   -3.1944   20.1357  -28.9439 H   0  0  0  0  0  0  0  0  0  0  0  0
   -1.4349   19.6377  -28.6956 H   0  0  0  0  0  0  0  0  0  0  0  0
   -1.9919   21.1910  -26.9641 H   0  0  0  0  0  0  0  0  0  0  0  0
   -0.9209   22.0189  -28.1449 H   0  0  0  0  0  0  0  0  0  0  0  0
   -2.6857   22.3534  -28.1449 H   0  0  0  0  0  0  0  0  0  0  0  0
   -3.2653   19.8731  -31.6997 H   0  0  0  0  0  0  0  0  0  0  0  0
   -3.8654   21.1359  -30.5000 H   0  0  0  0  0  0  0  0  0  0  0  0
   -3.5105   22.8611  -31.8982 H   0  0  0  0  0  0  0  0  0  0  0  0
   -2.0599   22.0660  -32.6664 H   0  0  0  0  0  0  0  0  0  0  0  0
   -3.3450   21.6020  -34.3820 H   0  0  0  0  0  0  0  0  0  0  0  0
   -4.6190   22.2870  -33.7120 H   0  0  0  0  0  0  0  0  0  0  0  0
   -1.9950   19.9932  -34.2009 H   0  0  0  0  0  0  0  0  0  0  0  0
   -0.8059   17.8569  -34.6084 H   0  0  0  0  0  0  0  0  0  0  0  0
   -1.9916   15.6918  -34.3233 H   0  0  0  0  0  0  0  0  0  0  0  0
   -4.4063   15.6643  -33.7582 H   0  0  0  0  0  0  0  0  0  0  0  0
   -7.0868   16.0971  -32.9387 H   0  0  0  0  0  0  0  0  0  0  0  0
   -7.6180   16.9263  -34.4410 H   0  0  0  0  0  0  0  0  0  0  0  0
   -6.1140   15.9442  -34.4410 H   0  0  0  0  0  0  0  0  0  0  0  0
   -8.4080   17.8133  -32.4366 H   0  0  0  0  0  0  0  0  0  0  0  0
   -9.6628   19.7777  -31.6271 H   0  0  0  0  0  0  0  0  0  0  0  0
   -8.5966   22.0034  -31.5801 H   0  0  0  0  0  0  0  0  0  0  0  0
   -5.1800   22.6710  -31.7780 H   0  0  0  0  0  0  0  0  0  0  0  0
   -6.7967   24.4810  -32.8627 H   0  0  0  0  0  0  0  0  0  0  0  0
   -8.0598   23.4701  -32.0461 H   0  0  0  0  0  0  0  0  0  0  0  0
   -7.4593   25.4021  -30.6482 H   0  0  0  0  0  0  0  0  0  0  0  0
   -6.9368   23.8299  -29.8840 H   0  0  0  0  0  0  0  0  0  0  0  0
   -5.0342   25.5633  -31.4961 H   0  0  0  0  0  0  0  0  0  0  0  0
   -5.3094   25.7825  -29.7148 H   0  0  0  0  0  0  0  0  0  0  0  0
   -3.2041   24.5147  -28.5815 H   0  0  0  0  0  0  0  0  0  0  0  0
   -2.2734   23.9495  -30.0101 H   0  0  0  0  0  0  0  0  0  0  0  0
   -3.0128   25.5866  -30.0101 H   0  0  0  0  0  0  0  0  0  0  0  0
   -4.7617   23.3209  -28.2957 H   0  0  0  0  0  0  0  0  0  0  0  0
   -6.0332   22.9321  -29.5035 H   0  0  0  0  0  0  0  0  0  0  0  0
   -4.4856   22.0202  -29.5035 H   0  0  0  0  0  0  0  0  0  0  0  0
  1  2  1  0
  2  3  1  0
  3  4  1  0
  3  5  1  0
  5  6  1  0
  3  7  1  0
  7  8  1  0
  8  9  1  0
  9 10  1  0
 10 11  2  0
 11 12  1  0
 12 13  2  0
 13 14  1  0
 14 15  2  0
 15 16  1  0
 16 17  2  0
 17 18  1  0
 17 19  1  0
 19 20  2  0
 20 21  1  0
 21 22  2  0
 22 23  1  0
 23 24  1  0
 24 25  1  0
 25 26  1  0
 26 27  1  0
 27 28  1  0
 28 29  1  0
 28 30  1  0
 23 31  2  0
 31 10  1  0
 16 11  1  0
 31 19  1  0
  1 32  1  0
  1 33  1  0
  1 34  1  0
  2 35  1  0
  2 36  1  0
  4 37  1  0
  4 38  1  0
  4 39  1  0
  5 40  1  0
  5 41  1  0
  6 42  1  0
  6 43  1  0
  6 44  1  0
  7 45  1  0
  7 46  1  0
  8 47  1  0
  8 48  1  0
  9 49  1  0
  9 50  1  0
 12 51  1  0
 13 52  1  0
 14 53  1  0
 15 54  1  0
 18 55  1  0
 18 56  1  0
 18 57  1  0
 20 58  1  0
 21 59  1  0
 22 60  1  0
 24 61  1  0
 25 62  1  0
 25 63  1  0
 26 64  1  0
 26 65  1  0
 27 66  1  0
 27 67  1  0
 29 68  1  0
 29 69  1  0
 29 70  1  0
 30 71  1  0
 30 72  1  0
 30 73  1  0
M  CHG  3   3   1   9   1  17   1
M  END
>  <UniqueID>  (9) 
9

>  <SMILES>  (9) 
CC[N+](C)(CC)CC[NH2+]c1c2ccccc2[n+](C)c2cccc(NCCCN(C)C)c12

>  <Energy>  (9) 
129.05914361719962

>  <Genealogy>  (9) 
CC[N+](C)(CC)CC[NH2+]c1c2ccccc2[n+](C)c2cccc(NCCCN(C)C)c12 (protonated)
CC[N+](C)(CC)CC[NH2+]c1c2ccccc2[n+](C)c2cccc(NCCCN(C)C)c12 (3D coordinates assigned)
CC[N+](C)(CC)CC[NH2+]c1c2ccccc2[n+](C)c2cccc(NCCCN(C)C)c12 (optimized conformer: 129.05914361719962 kcal/mol)

>  <smiles>  (9) 
CC[N+](C)(CC)CCNc1c2ccccc2[n+](C)c2cccc(NCCCN(C)C)c12

>  <score_type>  (9) 
oracle

>  <origin>  (9) 
adg

>  <m_score__min__energy>  (9) 
-7.4100000000000001

>  <m_primary>  (9) 
energy

$$$$
9:0
     RDKit          3D

 39 41  0  0  0  0  0  0  0  0999 V2000
   -3.3260   21.7630  -31.8660 C   0  0  0  0  0  0  0  0  0  0  0  0
   -4.4350   22.3320  -32.7510 C   0  0  0  0  0  0  0  0  0  0  0  0
   -5.7630   22.1850  -32.1040 N   0  0  0  0  0  0  0  0  0  0  0  0
   -6.3140   23.2520  -31.4120 C   0  0  0  0  0  0  0  0  0  0  0  0
   -5.6040   24.5820  -31.2330 C   0  0  0  0  0  0  0  0  0  0  0  0
   -5.2440   24.7820  -29.8210 N   0  0  0  0  0  0  0  0  0  0  0  0
   -4.4390   23.6650  -29.3030 C   0  0  0  0  0  0  0  0  0  0  0  0
   -3.0160   24.0740  -29.0550 C   0  0  0  0  0  0  0  0  0  0  0  0
   -2.0430   23.2940  -28.4630 C   0  0  0  0  0  0  0  0  0  0  0  0
   -0.9170   24.0870  -28.4070 C   0  0  0  0  0  0  0  0  0  0  0  0
   -1.2730   25.2980  -28.9650 C   0  0  0  0  0  0  0  0  0  0  0  0
   -2.5320   25.2600  -29.3410 O   0  0  0  0  0  0  0  0  0  0  0  0
   -7.6080   23.1610  -30.8840 C   0  0  0  0  0  0  0  0  0  0  0  0
   -8.3340   21.9880  -30.9960 C   0  0  0  0  0  0  0  0  0  0  0  0
   -9.4980   21.9370  -30.5120 O   0  0  0  0  0  0  0  0  0  0  0  0
   -7.7670   20.8780  -31.6320 C   0  0  0  0  0  0  0  0  0  0  0  0
   -8.4820   19.6680  -31.7270 C   0  0  0  0  0  0  0  0  0  0  0  0
   -7.9130   18.5560  -32.3390 C   0  0  0  0  0  0  0  0  0  0  0  0
   -6.6240   18.6280  -32.8580 C   0  0  0  0  0  0  0  0  0  0  0  0
   -5.9070   17.2130  -33.6080 Cl  0  0  0  0  0  0  0  0  0  0  0  0
   -5.8990   19.8200  -32.7780 C   0  0  0  0  0  0  0  0  0  0  0  0
   -6.4550   20.9810  -32.1780 C   0  0  0  0  0  0  0  0  0  0  0  0
   -3.5942   21.9006  -30.8081 H   0  0  0  0  0  0  0  0  0  0  0  0
   -3.2029   20.6904  -32.0765 H   0  0  0  0  0  0  0  0  0  0  0  0
   -2.3829   22.2886  -32.0765 H   0  0  0  0  0  0  0  0  0  0  0  0
   -4.2391   23.3994  -32.9309 H   0  0  0  0  0  0  0  0  0  0  0  0
   -4.4450   21.7757  -33.6999 H   0  0  0  0  0  0  0  0  0  0  0  0
   -4.6902   24.5909  -31.8453 H   0  0  0  0  0  0  0  0  0  0  0  0
   -6.2771   25.3926  -31.5491 H   0  0  0  0  0  0  0  0  0  0  0  0
   -4.7080   25.6740  -29.7040 H   0  0  0  0  0  0  0  0  0  0  0  0
   -4.8797   23.3165  -28.3573 H   0  0  0  0  0  0  0  0  0  0  0  0
   -4.4390   22.8639  -30.0568 H   0  0  0  0  0  0  0  0  0  0  0  0
   -2.1449   22.2572  -28.1100 H   0  0  0  0  0  0  0  0  0  0  0  0
    0.0667   23.8105  -27.9998 H   0  0  0  0  0  0  0  0  0  0  0  0
   -0.6043   26.1641  -29.0780 H   0  0  0  0  0  0  0  0  0  0  0  0
   -8.0514   24.0298  -30.3756 H   0  0  0  0  0  0  0  0  0  0  0  0
   -9.4992   19.6019  -31.3136 H   0  0  0  0  0  0  0  0  0  0  0  0
   -8.4830   17.6181  -32.4128 H   0  0  0  0  0  0  0  0  0  0  0  0
   -4.8788   19.8598  -33.1873 H   0  0  0  0  0  0  0  0  0  0  0  0
  1  2  1  0
  2  3  1  0
  3  4  1  0
  4  5  1  0
  5  6  1  0
  6  7  1  0
  7  8  1  0
  8  9  2  0
  9 10  1  0
 10 11  2  0
 11 12  1  0
  4 13  2  0
 13 14  1  0
 14 15  2  0
 14 16  1  0
 16 17  2  0
 17 18  1  0
 18 19  2  0
 19 20  1  0
 19 21  1  0
 21 22  2  0
 22  3  1  0
 12  8  1  0
 22 16  1  0
  1 23  1  0
  1 24  1  0
  1 25  1  0
  2 26  1  0
  2 27  1  0
  5 28  1  0
  5 29  1  0
  6 30  1  0
  7 31  1  0
  7 32  1  0
  9 33  1  0
 10 34  1  0
 11 35  1  0
 13 36  1  0
 17 37  1  0
 18 38  1  0
 21 39  1  0
M  END
>  <UniqueID>  (10) 
10

>  <SMILES>  (10) 
CCn1c(CNCc2ccco2)cc(=O)c2ccc(Cl)cc21

>  <Energy>  (10) 
77.49027223544238

>  <Genealogy>  (10) 
CCn1c(CNCc2ccco2)cc(=O)c2ccc(Cl)cc21 (3D coordinates assigned)
CCn1c(CNCc2ccco2)cc(=O)c2ccc(Cl)cc21 (optimized conformer: 77.49027223544238 kcal/mol)

>  <smiles>  (10) 
CCn1c(CNCc2ccco2)cc(=O)c2ccc(Cl)cc21

>  <score_type>  (10) 
oracle

>  <origin>  (10) 
adg

>  <m_score__min__energy>  (10) 
-9.1300000000000008

>  <m_primary>  (10) 
energy

$$$$
10:0
     RDKit          3D

 34 35  0  0  0  0  0  0  0  0999 V2000
   -1.9620   21.7670  -31.7760 C   0  0  0  0  0  0  0  0  0  0  0  0
   -2.8400   22.6520  -31.1170 O   0  0  0  0  0  0  0  0  0  0  0  0
   -2.7190   22.5140  -29.7120 C   0  0  0  0  0  0  0  0  0  0  0  0
   -2.0220   23.7320  -29.1090 C   0  0  0  0  0  0  0  0  0  0  0  0
   -2.7550   24.9430  -29.4500 N   0  0  0  0  0  0  0  0  0  0  0  0
   -4.0650   24.9260  -30.0220 C   0  0  0  0  0  0  0  0  0  0  0  0
   -4.2460   25.2800  -31.2180 O   0  0  0  0  0  0  0  0  0  0  0  0
   -5.2180   24.4290  -29.2080 C   0  0  0  0  0  0  0  0  0  0  0  0
   -6.7930   24.6530  -30.1080 S   0  0  0  0  0  0  0  0  0  0  0  0
   -6.7390   23.0480  -30.9080 C   0  0  0  0  0  0  0  0  0  0  0  0
   -7.8110   22.2260  -30.8280 N   0  0  0  0  0  0  0  0  0  0  0  0
   -7.8100   21.0300  -31.4650 C   0  0  0  0  0  0  0  0  0  0  0  0
   -8.9400   20.2100  -31.3810 C   0  0  0  0  0  0  0  0  0  0  0  0
   -8.9500   18.9860  -32.0440 C   0  0  0  0  0  0  0  0  0  0  0  0
   -7.8360   18.5900  -32.7800 C   0  0  0  0  0  0  0  0  0  0  0  0
   -6.7210   19.4280  -32.8470 C   0  0  0  0  0  0  0  0  0  0  0  0
   -6.7130   20.6350  -32.1950 N   0  0  0  0  0  0  0  0  0  0  0  0
   -5.6260   21.4710  -32.2610 C   0  0  0  0  0  0  0  0  0  0  0  0
   -4.5990   21.1460  -32.9210 O   0  0  0  0  0  0  0  0  0  0  0  0
   -5.6470   22.6680  -31.6170 N   0  0  0  0  0  0  0  0  0  0  0  0
   -1.3923   21.1928  -31.0305 H   0  0  0  0  0  0  0  0  0  0  0  0
   -2.5420   21.0764  -32.4058 H   0  0  0  0  0  0  0  0  0  0  0  0
   -1.2668   22.3415  -32.4058 H   0  0  0  0  0  0  0  0  0  0  0  0
   -3.7219   22.4165  -29.2709 H   0  0  0  0  0  0  0  0  0  0  0  0
   -2.1183   21.6185  -29.4946 H   0  0  0  0  0  0  0  0  0  0  0  0
   -1.9832   23.6253  -28.0149 H   0  0  0  0  0  0  0  0  0  0  0  0
   -1.0011   23.8013  -29.5128 H   0  0  0  0  0  0  0  0  0  0  0  0
   -5.0739   23.3597  -28.9941 H   0  0  0  0  0  0  0  0  0  0  0  0
   -5.2623   25.0045  -28.2716 H   0  0  0  0  0  0  0  0  0  0  0  0
   -9.8144   20.5300  -30.7953 H   0  0  0  0  0  0  0  0  0  0  0  0
   -9.8342   18.3342  -31.9868 H   0  0  0  0  0  0  0  0  0  0  0  0
   -7.8344   17.6234  -33.3051 H   0  0  0  0  0  0  0  0  0  0  0  0
   -5.8404   19.1172  -33.4283 H   0  0  0  0  0  0  0  0  0  0  0  0
   -4.8220   23.3080  -31.6790 H   0  0  0  0  0  0  0  0  0  0  0  0
  1  2  1  0
  2  3  1  0
  3  4  1  0
  4  5  1  0
  5  6  1  0
  6  7  2  0
  6  8  1  0
  8  9  1  0
  9 10  1  0
 10 11  1  0
 11 12  2  0
 12 13  1  0
 13 14  2  0
 14 15  1  0
 15 16  2  0
 16 17  1  0
 17 18  1  0
 18 19  2  0
 18 20  1  0
 20 10  2  0
 17 12  1  0
  1 21  1  0
  1 22  1  0
  1 23  1  0
  3 24  1  0
  3 25  1  0
  4 26  1  0
  4 27  1  0
  8 28  1  0
  8 29  1  0
 13 30  1  0
 14 31  1  0
 15 32  1  0
 16 33  1  0
 20 34  1  0
M  CHG  2   5  -1  20   1
M  END
>  <UniqueID>  (11) 
11

>  <SMILES>  (11) 
COCC[N-]C(=O)CSc1nc2ccccn2c(=O)[nH+]1

>  <Energy>  (11) 
29.347107877916834

>  <Genealogy>  (11) 
COCC[N-]C(=O)CSc1nc2ccccn2c(=O)[nH+]1 (protonated)
COCC[N-]C(=O)CSc1nc2ccccn2c(=O)[nH+]1 (3D coordinates assigned)
COCC[N-]C(=O)CSc1nc2ccccn2c(=O)[nH+]1 (optimized conformer: 29.347107877916834 kcal/mol)

>  <smiles>  (11) 
COCCNC(=O)CSc1nc(=O)n2ccccc2n1

>  <score_type>  (11) 
oracle

>  <origin>  (11) 
adg

>  <m_score__min__energy>  (11) 
-8.5399999999999991

>  <m_primary>  (11) 
energy

$$$$
11:0
     RDKit          3D

 44 46  0  0  0  0  0  0  0  0999 V2000
   -3.6750   14.2390  -32.3630 C   0  0  0  0  0  0  0  0  0  0  0  0
   -3.5490   15.2850  -33.3220 O   0  0  0  0  0  0  0  0  0  0  0  0
   -4.3520   16.4360  -33.3540 C   0  0  0  0  0  0  0  0  0  0  0  0
   -3.8060   17.7300  -33.2740 C   0  0  0  0  0  0  0  0  0  0  0  0
   -4.6320   18.8620  -33.3140 C   0  0  0  0  0  0  0  0  0  0  0  0
   -6.0320   18.7030  -33.3890 C   0  0  0  0  0  0  0  0  0  0  0  0
   -6.5710   17.4110  -33.5000 C   0  0  0  0  0  0  0  0  0  0  0  0
   -5.7390   16.2760  -33.4730 C   0  0  0  0  0  0  0  0  0  0  0  0
   -6.2530   14.9720  -33.5650 O   0  0  0  0  0  0  0  0  0  0  0  0
   -7.1580   14.5290  -34.5710 C   0  0  0  0  0  0  0  0  0  0  0  0
   -6.9390   19.9090  -33.4900 C   0  0  1  0  0  0  0  0  0  0  0  0
   -8.1560   19.6670  -32.8320 O   0  0  0  0  0  0  0  0  0  0  0  0
   -6.2540   21.1870  -32.9420 C   0  0  1  0  0  0  0  0  0  0  0  0
   -6.1740   21.2380  -31.3880 C   0  0  0  0  0  0  0  0  0  0  0  0
   -5.2430   22.3140  -30.8820 C   0  0  0  0  0  0  0  0  0  0  0  0
   -3.9980   21.9690  -30.3290 C   0  0  0  0  0  0  0  0  0  0  0  0
   -3.1340   22.9630  -29.8590 C   0  0  0  0  0  0  0  0  0  0  0  0
   -3.5080   24.3080  -29.9340 C   0  0  0  0  0  0  0  0  0  0  0  0
   -2.6480   25.2950  -29.4690 O   0  0  0  0  0  0  0  0  0  0  0  0
   -4.7480   24.6590  -30.4760 C   0  0  0  0  0  0  0  0  0  0  0  0
   -5.6150   23.6680  -30.9450 C   0  0  0  0  0  0  0  0  0  0  0  0
   -4.9150   21.3240  -33.5530 N   0  0  0  0  0  0  0  0  0  0  0  0
   -4.0000   20.2290  -33.1810 C   0  0  0  0  0  0  0  0  0  0  0  0
   -3.6239   14.6629  -31.3492 H   0  0  0  0  0  0  0  0  0  0  0  0
   -4.6409   13.7307  -32.4997 H   0  0  0  0  0  0  0  0  0  0  0  0
   -2.8575   13.5158  -32.4997 H   0  0  0  0  0  0  0  0  0  0  0  0
   -2.7173   17.8552  -33.1789 H   0  0  0  0  0  0  0  0  0  0  0  0
   -7.6582   17.2843  -33.6095 H   0  0  0  0  0  0  0  0  0  0  0  0
   -8.0492   14.0928  -34.0961 H   0  0  0  0  0  0  0  0  0  0  0  0
   -7.4569   15.3827  -35.1970 H   0  0  0  0  0  0  0  0  0  0  0  0
   -6.6671   13.7693  -35.1970 H   0  0  0  0  0  0  0  0  0  0  0  0
   -7.1490   20.0832  -34.5556 H   0  0  0  0  0  0  0  0  0  0  0  0
   -8.7890   19.3260  -33.5160 H   0  0  0  0  0  0  0  0  0  0  0  0
   -6.8847   22.0426  -33.2251 H   0  0  0  0  0  0  0  0  0  0  0  0
   -7.1816   21.4306  -30.9909 H   0  0  0  0  0  0  0  0  0  0  0  0
   -5.7770   20.2708  -31.0462 H   0  0  0  0  0  0  0  0  0  0  0  0
   -3.7016   20.9116  -30.2655 H   0  0  0  0  0  0  0  0  0  0  0  0
   -2.1596   22.6865  -29.4300 H   0  0  0  0  0  0  0  0  0  0  0  0
   -5.0420   25.7174  -30.5335 H   0  0  0  0  0  0  0  0  0  0  0  0
   -6.5921   23.9488  -31.3650 H   0  0  0  0  0  0  0  0  0  0  0  0
   -4.4890   22.2350  -33.2610 H   0  0  0  0  0  0  0  0  0  0  0  0
   -5.0120   21.3470  -34.5950 H   0  0  0  0  0  0  0  0  0  0  0  0
   -3.1168   20.2723  -33.8353 H   0  0  0  0  0  0  0  0  0  0  0  0
   -3.7334   20.3674  -32.1228 H   0  0  0  0  0  0  0  0  0  0  0  0
  1  2  1  0
  2  3  1  0
  3  4  2  0
  4  5  1  0
  5  6  2  0
  6  7  1  0
  7  8  2  0
  8  9  1  0
  9 10  1  0
  6 11  1  0
 11 12  1  0
 11 13  1  0
 13 14  1  0
 14 15  1  0
 15 16  2  0
 16 17  1  0
 17 18  2  0
 18 19  1  0
 18 20  1  0
 20 21  2  0
 13 22  1  0
 22 23  1  0
  8  3  1  0
 21 15  1  0
 23  5  1  0
  1 24  1  0
  1 25  1  0
  1 26  1  0
  4 27  1  0
  7 28  1  0
 10 29  1  0
 10 30  1  0
 10 31  1  0
 11 32  1  6
 12 33  1  0
 13 34  1  6
 14 35  1  0
 14 36  1  0
 16 37  1  0
 17 38  1  0
 20 39  1  0
 21 40  1  0
 22 41  1  0
 22 42  1  0
 23 43  1  0
 23 44  1  0
M  CHG  2  19  -1  22   1
M  END
>  <UniqueID>  (12) 
12

>  <SMILES>  (12) 
COc1cc2c(cc1OC)[C@@H](O)[C@@H](Cc1ccc([O-])cc1)[NH2+]C2

>  <Energy>  (12) 
50.29703658443656

>  <Genealogy>  (12) 
COc1cc2c(cc1OC)C(O)C(Cc1ccc([O-])cc1)[NH2+]C2 (protonated)
COc1cc2c(cc1OC)[C@@H](O)[C@@H](Cc1ccc([O-])cc1)[NH2+]C2 (chirality)
COc1cc2c(cc1OC)[C@@H](O)[C@@H](Cc1ccc([O-])cc1)[NH2+]C2 (3D coordinates assigned)
COc1cc2c(cc1OC)[C@@H](O)[C@@H](Cc1ccc([O-])cc1)[NH2+]C2 (nonaromatic ring conformer: 50.29703658443656 kcal/mol)

>  <smiles>  (12) 
COc1cc2c(cc1OC)C(O)C(Cc1ccc(O)cc1)NC2

>  <score_type>  (12) 
oracle

>  <origin>  (12) 
adg

>  <m_score__min__energy>  (12) 
-9.7300000000000004

>  <m_primary>  (12) 
energy

$$$$
12:0
     RDKit          3D

 84 86  0  0  0  0  0  0  0  0999 V2000
   -3.3827   20.4230  -28.4218 H   0  0  0  0  0  0  0  0  0  0  0  0
   -2.7280   20.4680  -27.5390 C   0  0  0  0  0  0  0  0  0  0  0  0
   -2.4000   19.3020  -26.9410 C   0  0  0  0  0  0  0  0  0  0  0  0
   -3.3280   18.6030  -25.9750 C   0  0  0  0  0  0  0  0  0  0  0  0
   -3.0236   18.8323  -24.9431 H   0  0  0  0  0  0  0  0  0  0  0  0
   -4.3584   18.9513  -26.1393 H   0  0  0  0  0  0  0  0  0  0  0  0
   -3.2776   17.5165  -26.1393 H   0  0  0  0  0  0  0  0  0  0  0  0
   -1.0710   18.6770  -27.2750 C   0  0  0  0  0  0  0  0  0  0  0  0
   -0.5393   18.4270  -26.3450 H   0  0  0  0  0  0  0  0  0  0  0  0
   -1.2337   17.7610  -27.8619 H   0  0  0  0  0  0  0  0  0  0  0  0
   -0.4693   19.3865  -27.8619 H   0  0  0  0  0  0  0  0  0  0  0  0
   -2.2590   21.8310  -27.0810 C   0  0  0  0  0  0  0  0  0  0  0  0
   -1.1660   21.8852  -27.1920 H   0  0  0  0  0  0  0  0  0  0  0  0
   -2.5616   21.9569  -26.0310 H   0  0  0  0  0  0  0  0  0  0  0  0
   -2.8960   22.9680  -27.8950 C   0  0  0  0  0  0  0  0  0  0  0  0
   -3.5214   23.5774  -27.2260 H   0  0  0  0  0  0  0  0  0  0  0  0
   -3.4975   22.5172  -28.6981 H   0  0  0  0  0  0  0  0  0  0  0  0
   -1.8510   23.8580  -28.5340 C   0  0  0  0  0  0  0  0  0  0  0  0
   -1.1340   23.3900  -29.5810 C   0  0  0  0  0  0  0  0  0  0  0  0
   -0.8217   24.1061  -30.3554 H   0  0  0  0  0  0  0  0  0  0  0  0
   -0.7370   21.9440  -29.7500 C   0  0  0  0  0  0  0  0  0  0  0  0
   -1.4177   21.3113  -29.1615 H   0  0  0  0  0  0  0  0  0  0  0  0
    0.2983   21.8178  -29.4004 H   0  0  0  0  0  0  0  0  0  0  0  0
   -0.8080   21.5630  -31.1100 O   0  0  0  0  0  0  0  0  0  0  0  0
   -0.0160   20.4170  -31.3670 C   0  0  0  0  0  0  0  0  0  0  0  0
    0.8292   20.3957  -30.6633 H   0  0  0  0  0  0  0  0  0  0  0  0
    0.3537   20.4645  -32.4019 H   0  0  0  0  0  0  0  0  0  0  0  0
   -0.8450   19.1450  -31.1960 C   0  0  0  0  0  0  0  0  0  0  0  0
   -1.6448   19.3246  -30.4624 H   0  0  0  0  0  0  0  0  0  0  0  0
   -0.1969   18.3304  -30.8404 H   0  0  0  0  0  0  0  0  0  0  0  0
   -1.4420   18.7680  -32.4920 N   0  0  0  0  0  0  0  0  0  0  0  0
   -1.5990   17.3190  -32.7380 C   0  0  0  0  0  0  0  0  0  0  0  0
   -1.3820   16.7818  -31.8029 H   0  0  0  0  0  0  0  0  0  0  0  0
   -0.9016   17.0510  -33.5453 H   0  0  0  0  0  0  0  0  0  0  0  0
   -3.0010   16.9270  -33.2070 C   0  0  0  0  0  0  0  0  0  0  0  0
   -3.6434   16.7474  -32.3323 H   0  0  0  0  0  0  0  0  0  0  0  0
   -3.4258   17.7408  -33.8130 H   0  0  0  0  0  0  0  0  0  0  0  0
   -2.9421   16.0109  -33.8130 H   0  0  0  0  0  0  0  0  0  0  0  0
   -1.1390   19.6180  -33.6640 C   0  0  0  0  0  0  0  0  0  0  0  0
   -0.3713   20.3488  -33.3698 H   0  0  0  0  0  0  0  0  0  0  0  0
   -0.8030   18.9418  -34.4639 H   0  0  0  0  0  0  0  0  0  0  0  0
   -2.3560   20.3930  -34.2230 C   0  0  0  0  0  0  0  0  0  0  0  0
   -2.0606   20.8871  -35.1603 H   0  0  0  0  0  0  0  0  0  0  0  0
   -3.1682   19.6699  -34.3887 H   0  0  0  0  0  0  0  0  0  0  0  0
   -2.8690   21.4600  -33.2420 C   0  0  0  0  0  0  0  0  0  0  0  0
   -2.0321   22.1171  -32.9631 H   0  0  0  0  0  0  0  0  0  0  0  0
   -3.6694   22.0241  -33.7431 H   0  0  0  0  0  0  0  0  0  0  0  0
   -3.4320   20.8630  -32.0190 N   0  0  0  0  0  0  0  0  0  0  0  0
   -3.2930   19.8300  -32.0190 H   0  0  0  0  0  0  0  0  0  0  0  0
   -2.9090   21.1660  -31.1700 H   0  0  0  0  0  0  0  0  0  0  0  0
   -4.8390   21.2030  -31.8910 C   0  0  0  0  0  0  0  0  0  0  0  0
   -5.8410   20.3030  -32.3280 C   0  0  0  0  0  0  0  0  0  0  0  0
   -7.1950   20.5790  -32.0620 C   0  0  0  0  0  0  0  0  0  0  0  0
   -7.5800   21.8170  -31.5980 N   0  0  0  0  0  0  0  0  0  0  0  0
   -9.0090   22.1990  -31.6320 C   0  0  0  0  0  0  0  0  0  0  0  0
   -9.3862   22.2998  -30.6036 H   0  0  0  0  0  0  0  0  0  0  0  0
   -9.1197   23.1583  -32.1588 H   0  0  0  0  0  0  0  0  0  0  0  0
   -9.5836   21.4229  -32.1588 H   0  0  0  0  0  0  0  0  0  0  0  0
   -6.6320   22.7070  -31.1340 C   0  0  0  0  0  0  0  0  0  0  0  0
   -7.0090   23.9020  -30.4670 C   0  0  0  0  0  0  0  0  0  0  0  0
   -8.0738   24.1004  -30.2751 H   0  0  0  0  0  0  0  0  0  0  0  0
   -6.0550   24.8280  -30.0510 C   0  0  0  0  0  0  0  0  0  0  0  0
   -6.3703   25.7498  -29.5403 H   0  0  0  0  0  0  0  0  0  0  0  0
   -4.7080   24.5890  -30.2800 C   0  0  0  0  0  0  0  0  0  0  0  0
   -3.9594   25.3337  -29.9718 H   0  0  0  0  0  0  0  0  0  0  0  0
   -4.3000   23.4110  -30.8980 C   0  0  0  0  0  0  0  0  0  0  0  0
   -3.2286   23.2358  -31.0752 H   0  0  0  0  0  0  0  0  0  0  0  0
   -5.2430   22.4330  -31.3030 C   0  0  0  0  0  0  0  0  0  0  0  0
   -8.2000   19.4660  -32.3380 C   0  0  0  0  0  0  0  0  0  0  0  0
   -9.1109   19.6489  -31.7492 H   0  0  0  0  0  0  0  0  0  0  0  0
   -8.4326   19.4607  -33.4131 H   0  0  0  0  0  0  0  0  0  0  0  0
   -7.6190   18.0960  -31.9540 C   0  0  0  0  0  0  0  0  0  0  0  0
   -7.5456   18.0453  -30.8576 H   0  0  0  0  0  0  0  0  0  0  0  0
   -8.2964   17.3335  -32.3660 H   0  0  0  0  0  0  0  0  0  0  0  0
   -6.2200   17.8240  -32.5490 C   0  0  0  0  0  0  0  0  0  0  0  0
   -5.5693   17.4447  -31.7473 H   0  0  0  0  0  0  0  0  0  0  0  0
   -6.3524   17.0950  -33.3620 H   0  0  0  0  0  0  0  0  0  0  0  0
   -5.5590   19.0660  -33.1630 C   0  0  0  0  0  0  0  0  0  0  0  0
   -4.4718   18.9067  -33.2137 H   0  0  0  0  0  0  0  0  0  0  0  0
   -5.9737   19.2215  -34.1699 H   0  0  0  0  0  0  0  0  0  0  0  0
   -1.6770   25.2650  -28.0160 C   0  0  0  0  0  0  0  0  0  0  0  0
   -1.6784   25.2536  -26.9161 H   0  0  0  0  0  0  0  0  0  0  0  0
   -0.7215   25.6732  -28.3772 H   0  0  0  0  0  0  0  0  0  0  0  0
   -2.5042   25.8936  -28.3772 H   0  0  0  0  0  0  0  0  0  0  0  0
  1  2  1  0
  2  3  2  3
  3  4  1  0
  4  5  1  0
  4  6  1  0
  4  7  1  0
  3  8  1  0
  8  9  1  0
  8 10  1  0
  8 11  1  0
  2 12  1  0
 12 13  1  0
 12 14  1  0
 12 15  1  0
 15 16  1  0
 15 17  1  0
 15 18  1  0
 18 19  2  0
 19 20  1  0
 19 21  1  0
 21 22  1  0
 21 23  1  0
 21 24  1  0
 24 25  1  0
 25 26  1  0
 25 27  1  0
 25 28  1  0
 28 29  1  0
 28 30  1  0
 28 31  1  0
 31 32  1  0
 32 33  1  0
 32 34  1  0
 32 35  1  0
 35 36  1  0
 35 37  1  0
 35 38  1  0
 31 39  1  0
 39 40  1  0
 39 41  1  0
 39 42  1  0
 42 43  1  0
 42 44  1  0
 42 45  1  0
 45 46  1  0
 45 47  1  0
 45 48  1  0
 48 49  1  0
 48 50  1  0
 48 51  1  0
 51 52  2  0
 52 53  1  0
 53 54  2  0
 54 55  1  0
 55 56  1  0
 55 57  1  0
 55 58  1  0
 54 59  1  0
 59 60  2  0
 60 61  1  0
 60 62  1  0
 62 63  1  0
 62 64  2  0
 64 65  1  0
 64 66  1  0
 66 67  1  0
 66 68  2  0
 53 69  1  0
 69 70  1  0
 69 71  1  0
 69 72  1  0
 72 73  1  0
 72 74  1  0
 72 75  1  0
 75 76  1  0
 75 77  1  0
 75 78  1  0
 78 79  1  0
 78 80  1  0
 18 81  1  0
 81 82  1  0
 81 83  1  0
 81 84  1  0
 68 51  1  0
 78 52  1  0
 68 59  1  0
M  CHG  2  48   1  54   1
M  END
>  <UniqueID>  (13) 
13

>  <SMILES>  (13) 
CCN(CCC[NH2+]c1c2c([n+](C)c3ccccc13)CCCC2)CCOC/C=C(\C)CCC=C(C)C

>  <Energy>  (13) 
109.45863768893803

>  <Genealogy>  (13) 
CCN(CCC[NH2+]c1c2c([n+](C)c3ccccc13)CCCC2)CCOCC=C(C)CCC=C(C)C (protonated)
CCN(CCC[NH2+]c1c2c([n+](C)c3ccccc13)CCCC2)CCOC/C=C(\C)CCC=C(C)C (cis-trans isomerization)
CCN(CCC[NH2+]c1c2c([n+](C)c3ccccc13)CCCC2)CCOC/C=C(\C)CCC=C(C)C (3D coordinates assigned)
CCN(CCC[NH2+]c1c2c([n+](C)c3ccccc13)CCCC2)CCOC/C=C(\C)CCC=C(C)C (nonaromatic ring conformer: 109.45863768893803 kcal/mol)

>  <smiles>  (13) 
CCN(CCCNc1c2c([n+](C)c3ccccc13)CCCC2)CCOCC=C(C)CCC=C(C)C

>  <score_type>  (13) 
oracle

>  <origin>  (13) 
adg

>  <m_score__min__energy>  (13) 
-9.2400000000000002

>  <m_primary>  (13) 
energy

$$$$
13:0
     RDKit          3D

 54 57  0  0  0  0  0  0  0  0999 V2000
   -4.5220   24.5380  -28.8320 C   0  0  0  0  0  0  0  0  0  0  0  0
   -4.8310   25.2090  -30.1700 C   0  0  0  0  0  0  0  0  0  0  0  0
   -4.9860   24.1970  -31.2390 N   0  0  0  0  0  0  0  0  0  0  0  0
   -6.4010   24.0570  -31.6500 C   0  0  0  0  0  0  0  0  0  0  0  0
   -7.2330   23.4510  -30.5210 C   0  0  0  0  0  0  0  0  0  0  0  0
   -4.3910   22.8900  -30.8530 C   0  0  0  0  0  0  0  0  0  0  0  0
   -3.6710   22.2640  -32.0530 C   0  0  0  0  0  0  0  0  0  0  0  0
   -4.6120   21.9120  -33.1300 N   0  0  0  0  0  0  0  0  0  0  0  0
   -4.9500   20.5050  -33.0690 C   0  0  0  0  0  0  0  0  0  0  0  0
   -6.2670   20.0610  -32.7430 C   0  0  0  0  0  0  0  0  0  0  0  0
   -7.3420   20.9710  -32.6100 C   0  0  0  0  0  0  0  0  0  0  0  0
   -8.6290   20.5260  -32.3200 C   0  0  0  0  0  0  0  0  0  0  0  0
   -8.8840   19.1710  -32.1720 C   0  0  0  0  0  0  0  0  0  0  0  0
   -7.8530   18.2440  -32.3000 C   0  0  0  0  0  0  0  0  0  0  0  0
   -6.5230   18.6570  -32.5670 C   0  0  0  0  0  0  0  0  0  0  0  0
   -5.4950   17.7370  -32.6720 N   0  0  0  0  0  0  0  0  0  0  0  0
   -5.6970   16.3130  -32.3450 C   0  0  0  0  0  0  0  0  0  0  0  0
   -4.2740   18.1710  -33.1150 C   0  0  0  0  0  0  0  0  0  0  0  0
   -3.2120   17.3840  -33.4130 N   0  0  0  0  0  0  0  0  0  0  0  0
   -2.2450   18.2270  -33.8120 C   0  0  0  0  0  0  0  0  0  0  0  0
   -0.9690   17.8690  -34.2390 C   0  0  0  0  0  0  0  0  0  0  0  0
   -0.0930   18.8850  -34.6540 C   0  0  0  0  0  0  0  0  0  0  0  0
    1.6670   18.3940  -35.2280 Br  0  0  0  0  0  0  0  0  0  0  0  0
   -0.5230   20.2350  -34.6530 C   0  0  0  0  0  0  0  0  0  0  0  0
    0.6360   21.6520  -35.2230 Br  0  0  0  0  0  0  0  0  0  0  0  0
   -1.8230   20.5660  -34.2330 C   0  0  0  0  0  0  0  0  0  0  0  0
   -2.6680   19.5400  -33.7870 C   0  0  0  0  0  0  0  0  0  0  0  0
   -3.9880   19.5100  -33.3260 C   0  0  0  0  0  0  0  0  0  0  0  0
   -4.8276   25.2017  -28.0097 H   0  0  0  0  0  0  0  0  0  0  0  0
   -5.0738   23.5890  -28.7616 H   0  0  0  0  0  0  0  0  0  0  0  0
   -3.4422   24.3404  -28.7616 H   0  0  0  0  0  0  0  0  0  0  0  0
   -5.7644   25.7838  -30.0787 H   0  0  0  0  0  0  0  0  0  0  0  0
   -3.9965   25.8759  -30.4324 H   0  0  0  0  0  0  0  0  0  0  0  0
   -6.8035   25.0490  -31.9030 H   0  0  0  0  0  0  0  0  0  0  0  0
   -6.4515   23.3908  -32.5239 H   0  0  0  0  0  0  0  0  0  0  0  0
   -6.8132   23.7568  -29.5513 H   0  0  0  0  0  0  0  0  0  0  0  0
   -8.2712   23.8059  -30.5994 H   0  0  0  0  0  0  0  0  0  0  0  0
   -7.2136   22.3540  -30.5994 H   0  0  0  0  0  0  0  0  0  0  0  0
   -3.6702   23.0453  -30.0367 H   0  0  0  0  0  0  0  0  0  0  0  0
   -5.1924   22.2136  -30.5210 H   0  0  0  0  0  0  0  0  0  0  0  0
   -2.9361   22.9836  -32.4428 H   0  0  0  0  0  0  0  0  0  0  0  0
   -3.1776   21.3413  -31.7136 H   0  0  0  0  0  0  0  0  0  0  0  0
   -4.2050   22.1530  -34.0610 H   0  0  0  0  0  0  0  0  0  0  0  0
   -5.4810   22.4830  -33.0800 H   0  0  0  0  0  0  0  0  0  0  0  0
   -7.1580   22.0479  -32.7378 H   0  0  0  0  0  0  0  0  0  0  0  0
   -9.4472   21.2526  -32.2078 H   0  0  0  0  0  0  0  0  0  0  0  0
   -9.9055   18.8269  -31.9525 H   0  0  0  0  0  0  0  0  0  0  0  0
   -8.0742   17.1719  -32.1920 H   0  0  0  0  0  0  0  0  0  0  0  0
   -5.7149   16.1867  -31.2524 H   0  0  0  0  0  0  0  0  0  0  0  0
   -6.6526   15.9713  -32.7694 H   0  0  0  0  0  0  0  0  0  0  0  0
   -4.8741   15.7190  -32.7694 H   0  0  0  0  0  0  0  0  0  0  0  0
   -3.1390   16.3430  -33.3940 H   0  0  0  0  0  0  0  0  0  0  0  0
   -0.6545   16.8150  -34.2510 H   0  0  0  0  0  0  0  0  0  0  0  0
   -2.1705   21.6095  -34.2539 H   0  0  0  0  0  0  0  0  0  0  0  0
  1  2  1  0
  2  3  1  0
  3  4  1  0
  4  5  1  0
  3  6  1  0
  6  7  1  0
  7  8  1  0
  8  9  1  0
  9 10  2  0
 10 11  1  0
 11 12  2  0
 12 13  1  0
 13 14  2  0
 14 15  1  0
 15 16  2  0
 16 17  1  0
 16 18  1  0
 18 19  1  0
 19 20  1  0
 20 21  2  0
 21 22  1  0
 22 23  1  0
 22 24  2  0
 24 25  1  0
 24 26  1  0
 26 27  2  0
 27 28  1  0
 28  9  1  0
 15 10  1  0
 28 18  2  0
 27 20  1  0
  1 29  1  0
  1 30  1  0
  1 31  1  0
  2 32  1  0
  2 33  1  0
  4 34  1  0
  4 35  1  0
  5 36  1  0
  5 37  1  0
  5 38  1  0
  6 39  1  0
  6 40  1  0
  7 41  1  0
  7 42  1  0
  8 43  1  0
  8 44  1  0
 11 45  1  0
 12 46  1  0
 13 47  1  0
 14 48  1  0
 17 49  1  0
 17 50  1  0
 17 51  1  0
 19 52  1  0
 21 53  1  0
 26 54  1  0
M  CHG  2   8   1  16   1
M  END
>  <UniqueID>  (14) 
14

>  <SMILES>  (14) 
CCN(CC)CC[NH2+]c1c2ccccc2[n+](C)c2[nH]c3cc(Br)c(Br)cc3c12

>  <Energy>  (14) 
112.53081472499224

>  <Genealogy>  (14) 
CCN(CC)CC[NH2+]c1c2ccccc2[n+](C)c2[nH]c3cc(Br)c(Br)cc3c12 (protonated)
CCN(CC)CC[NH2+]c1c2ccccc2[n+](C)c2[nH]c3cc(Br)c(Br)cc3c12 (3D coordinates assigned)
CCN(CC)CC[NH2+]c1c2ccccc2[n+](C)c2[nH]c3cc(Br)c(Br)cc3c12 (optimized conformer: 112.53081472499224 kcal/mol)

>  <smiles>  (14) 
CCN(CC)CCNc1c2ccccc2[n+](C)c2[nH]c3cc(Br)c(Br)cc3c12

>  <score_type>  (14) 
oracle

>  <origin>  (14) 
adg

>  <m_score__min__energy>  (14) 
-8.9199999999999999

>  <m_primary>  (14) 
energy

$$$$
14:0
     RDKit          3D

 54 55  0  0  0  0  0  0  0  0999 V2000
   -2.7230   19.3090  -26.7910 C   0  0  0  0  0  0  0  0  0  0  0  0
   -2.7950   20.6750  -27.4550 C   0  0  0  0  0  0  0  0  0  0  0  0
   -2.4930   20.5390  -28.8270 O   0  0  0  0  0  0  0  0  0  0  0  0
   -1.1680   20.0740  -29.0050 C   0  0  0  0  0  0  0  0  0  0  0  0
   -0.6090   20.5460  -30.3500 C   0  0  0  0  0  0  0  0  0  0  0  0
   -1.4270   21.5700  -30.8820 O   0  0  0  0  0  0  0  0  0  0  0  0
   -1.5080   21.4760  -32.2890 C   0  0  0  0  0  0  0  0  0  0  0  0
   -2.9720   21.5570  -32.7150 C   0  0  0  0  0  0  0  0  0  0  0  0
   -3.8520   21.2460  -31.5890 N   0  0  0  0  0  0  0  0  0  0  0  0
   -5.0390   22.0180  -31.3720 C   0  0  0  0  0  0  0  0  0  0  0  0
   -5.0560   23.2700  -30.7350 C   0  0  0  0  0  0  0  0  0  0  0  0
   -3.8790   24.0530  -30.3160 C   0  0  0  0  0  0  0  0  0  0  0  0
   -3.8580   25.2960  -30.5210 O   0  0  0  0  0  0  0  0  0  0  0  0
   -2.7740   23.4160  -29.6580 N   0  0  0  0  0  0  0  0  0  0  0  0
   -1.5410   24.1250  -29.3200 C   0  0  0  0  0  0  0  0  0  0  0  0
   -1.3730   24.2350  -27.8000 C   0  0  0  0  0  0  0  0  0  0  0  0
   -2.3410   25.1960  -27.2280 N   0  0  0  0  0  0  0  0  0  0  0  0
   -1.8200   25.7810  -25.9830 C   0  0  0  0  0  0  0  0  0  0  0  0
   -3.6380   24.5480  -26.9660 C   0  0  0  0  0  0  0  0  0  0  0  0
   -6.6620   23.8040  -30.6170 S   0  0  0  0  0  0  0  0  0  0  0  0
   -7.3170   22.4610  -31.3740 C   0  0  0  0  0  0  0  0  0  0  0  0
   -8.6280   22.2210  -31.6210 N   0  0  0  0  0  0  0  0  0  0  0  0
   -8.9920   21.0640  -32.2440 C   0  0  0  0  0  0  0  0  0  0  0  0
   -8.0170   20.1220  -32.6270 C   0  0  0  0  0  0  0  0  0  0  0  0
   -6.6620   20.3770  -32.3670 C   0  0  0  0  0  0  0  0  0  0  0  0
   -6.3190   21.5750  -31.7340 C   0  0  0  0  0  0  0  0  0  0  0  0
   -2.7295   19.4319  -25.6979 H   0  0  0  0  0  0  0  0  0  0  0  0
   -3.5906   18.7062  -27.0974 H   0  0  0  0  0  0  0  0  0  0  0  0
   -1.7968   18.8007  -27.0974 H   0  0  0  0  0  0  0  0  0  0  0  0
   -3.8083   21.0873  -27.3402 H   0  0  0  0  0  0  0  0  0  0  0  0
   -2.0711   21.3551  -26.9822 H   0  0  0  0  0  0  0  0  0  0  0  0
   -0.5357   20.4637  -28.1936 H   0  0  0  0  0  0  0  0  0  0  0  0
   -1.1722   18.9741  -28.9883 H   0  0  0  0  0  0  0  0  0  0  0  0
    0.4105   20.9327  -30.2051 H   0  0  0  0  0  0  0  0  0  0  0  0
   -0.5907   19.6982  -31.0507 H   0  0  0  0  0  0  0  0  0  0  0  0
   -0.9457   22.3037  -32.7459 H   0  0  0  0  0  0  0  0  0  0  0  0
   -1.0795   20.5186  -32.6203 H   0  0  0  0  0  0  0  0  0  0  0  0
   -3.1888   22.5741  -33.0735 H   0  0  0  0  0  0  0  0  0  0  0  0
   -3.1496   20.8258  -33.5173 H   0  0  0  0  0  0  0  0  0  0  0  0
   -3.4190   20.7980  -30.7500 H   0  0  0  0  0  0  0  0  0  0  0  0
   -2.8330   22.4000  -29.4180 H   0  0  0  0  0  0  0  0  0  0  0  0
   -0.6840   23.5769  -29.7385 H   0  0  0  0  0  0  0  0  0  0  0  0
   -1.5914   25.1393  -29.7426 H   0  0  0  0  0  0  0  0  0  0  0  0
   -1.5377   23.2461  -27.3474 H   0  0  0  0  0  0  0  0  0  0  0  0
   -0.3553   24.5926  -27.5848 H   0  0  0  0  0  0  0  0  0  0  0  0
   -2.2739   25.2713  -25.1203 H   0  0  0  0  0  0  0  0  0  0  0  0
   -0.7275   25.6572  -25.9488 H   0  0  0  0  0  0  0  0  0  0  0  0
   -2.0689   26.8519  -25.9488 H   0  0  0  0  0  0  0  0  0  0  0  0
   -3.7958   24.4692  -25.8802 H   0  0  0  0  0  0  0  0  0  0  0  0
   -4.4447   25.1490  -27.4111 H   0  0  0  0  0  0  0  0  0  0  0  0
   -3.6419   23.5421  -27.4111 H   0  0  0  0  0  0  0  0  0  0  0  0
  -10.0542   20.8648  -32.4489 H   0  0  0  0  0  0  0  0  0  0  0  0
   -8.3169   19.1898  -33.1281 H   0  0  0  0  0  0  0  0  0  0  0  0
   -5.8875   19.6508  -32.6547 H   0  0  0  0  0  0  0  0  0  0  0  0
  1  2  1  0
  2  3  1  0
  3  4  1  0
  4  5  1  0
  5  6  1  0
  6  7  1  0
  7  8  1  0
  8  9  1  0
  9 10  1  0
 10 11  2  0
 11 12  1  0
 12 13  2  0
 12 14  1  0
 14 15  1  0
 15 16  1  0
 16 17  1  0
 17 18  1  0
 17 19  1  0
 11 20  1  0
 20 21  1  0
 21 22  2  0
 22 23  1  0
 23 24  2  0
 24 25  1  0
 25 26  2  0
 26 10  1  0
 26 21  1  0
  1 27  1  0
  1 28  1  0
  1 29  1  0
  2 30  1  0
  2 31  1  0
  4 32  1  0
  4 33  1  0
  5 34  1  0
  5 35  1  0
  7 36  1  0
  7 37  1  0
  8 38  1  0
  8 39  1  0
  9 40  1  0
 14 41  1  0
 15 42  1  0
 15 43  1  0
 16 44  1  0
 16 45  1  0
 18 46  1  0
 18 47  1  0
 18 48  1  0
 19 49  1  0
 19 50  1  0
 19 51  1  0
 23 52  1  0
 24 53  1  0
 25 54  1  0
M  END
>  <UniqueID>  (15) 
15

>  <SMILES>  (15) 
CCOCCOCCNc1c(C(=O)NCCN(C)C)sc2ncccc12

>  <Energy>  (15) 
81.8559994697742

>  <Genealogy>  (15) 
CCOCCOCCNc1c(C(=O)NCCN(C)C)sc2ncccc12 (3D coordinates assigned)
CCOCCOCCNc1c(C(=O)NCCN(C)C)sc2ncccc12 (optimized conformer: 81.8559994697742 kcal/mol)

>  <smiles>  (15) 
CCOCCOCCNc1c(C(=O)NCCN(C)C)sc2ncccc12

>  <score_type>  (15) 
oracle

>  <origin>  (15) 
adg

>  <m_score__min__energy>  (15) 
-7.5300000000000002

>  <m_primary>  (15) 
energy

$$$$
15:0
     RDKit          3D

 38 39  0  0  0  0  0  0  0  0999 V2000
   -5.7290   17.4810  -34.4160 C   0  0  0  0  0  0  0  0  0  0  0  0
   -6.7730   17.5160  -33.2950 C   0  0  0  0  0  0  0  0  0  0  0  0
   -7.2330   18.8840  -32.9970 N   0  0  0  0  0  0  0  0  0  0  0  0
   -8.1990   18.9170  -31.8850 C   0  0  0  0  0  0  0  0  0  0  0  0
   -9.1330   20.1280  -32.0150 C   0  0  0  0  0  0  0  0  0  0  0  0
   -8.7050   21.2590  -31.0760 C   0  0  0  0  0  0  0  0  0  0  0  0
   -8.6920   22.8730  -31.9360 S   0  0  0  0  0  0  0  0  0  0  0  0
   -7.0520   23.3650  -31.3610 C   0  0  0  0  0  0  0  0  0  0  0  0
   -6.9920   24.4430  -30.4660 C   0  0  0  0  0  0  0  0  0  0  0  0
   -5.7720   24.8730  -29.9470 C   0  0  0  0  0  0  0  0  0  0  0  0
   -4.5900   24.2370  -30.3190 C   0  0  0  0  0  0  0  0  0  0  0  0
   -4.6180   23.1750  -31.2260 C   0  0  0  0  0  0  0  0  0  0  0  0
   -3.4510   22.5770  -31.5820 N   0  0  0  0  0  0  0  0  0  0  0  0
   -3.4280   21.5460  -32.4610 C   0  0  0  0  0  0  0  0  0  0  0  0
   -2.1270   20.9340  -32.8590 C   0  0  0  0  0  0  0  0  0  0  0  0
   -4.5820   21.1160  -33.0290 N   0  0  0  0  0  0  0  0  0  0  0  0
   -5.7820   21.6700  -32.7160 C   0  0  0  0  0  0  0  0  0  0  0  0
   -6.8120   21.2280  -33.2870 O   0  0  0  0  0  0  0  0  0  0  0  0
   -5.8480   22.7270  -31.7740 C   0  0  0  0  0  0  0  0  0  0  0  0
   -4.7209   17.4472  -33.9772 H   0  0  0  0  0  0  0  0  0  0  0  0
   -5.8884   16.5877  -35.0378 H   0  0  0  0  0  0  0  0  0  0  0  0
   -5.8282   18.3830  -35.0378 H   0  0  0  0  0  0  0  0  0  0  0  0
   -7.6393   16.9108  -33.6003 H   0  0  0  0  0  0  0  0  0  0  0  0
   -6.3014   17.1156  -32.3854 H   0  0  0  0  0  0  0  0  0  0  0  0
   -7.6590   19.3130  -33.8520 H   0  0  0  0  0  0  0  0  0  0  0  0
   -6.3940   19.4520  -32.7310 H   0  0  0  0  0  0  0  0  0  0  0  0
   -8.7987   17.9950  -31.8999 H   0  0  0  0  0  0  0  0  0  0  0  0
   -7.6458   18.9965  -30.9376 H   0  0  0  0  0  0  0  0  0  0  0  0
   -9.1056   20.4929  -33.0524 H   0  0  0  0  0  0  0  0  0  0  0  0
  -10.1512   19.8142  -31.7417 H   0  0  0  0  0  0  0  0  0  0  0  0
   -9.4088   21.3090  -30.2321 H   0  0  0  0  0  0  0  0  0  0  0  0
   -7.6851   21.0475  -30.7223 H   0  0  0  0  0  0  0  0  0  0  0  0
   -7.9192   24.9555  -30.1699 H   0  0  0  0  0  0  0  0  0  0  0  0
   -5.7426   25.7167  -29.2419 H   0  0  0  0  0  0  0  0  0  0  0  0
   -3.6310   24.5722  -29.8971 H   0  0  0  0  0  0  0  0  0  0  0  0
   -1.5569   20.6658  -31.9573 H   0  0  0  0  0  0  0  0  0  0  0  0
   -2.3147   20.0298  -33.4566 H   0  0  0  0  0  0  0  0  0  0  0  0
   -1.5501   21.6552  -33.4566 H   0  0  0  0  0  0  0  0  0  0  0  0
  1  2  1  0
  2  3  1  0
  3  4  1  0
  4  5  1  0
  5  6  1  0
  6  7  1  0
  7  8  1  0
  8  9  2  0
  9 10  1  0
 10 11  2  0
 11 12  1  0
 12 13  1  0
 13 14  1  0
 14 15  1  0
 14 16  2  0
 16 17  1  0
 17 18  2  0
 17 19  1  0
 19  8  1  0
 19 12  2  0
  1 20  1  0
  1 21  1  0
  1 22  1  0
  2 23  1  0
  2 24  1  0
  3 25  1  0
  3 26  1  0
  4 27  1  0
  4 28  1  0
  5 29  1  0
  5 30  1  0
  6 31  1  0
  6 32  1  0
  9 33  1  0
 10 34  1  0
 11 35  1  0
 15 36  1  0
 15 37  1  0
 15 38  1  0
M  CHG  2   3   1  13  -1
M  END
>  <UniqueID>  (16) 
16

>  <SMILES>  (16) 
CC[NH2+]CCCSc1cccc2[n-]c(C)nc(=O)c12

>  <Energy>  (16) 
34.8257076600029

>  <Genealogy>  (16) 
CC[NH2+]CCCSc1cccc2[n-]c(C)nc(=O)c12 (protonated)
CC[NH2+]CCCSc1cccc2[n-]c(C)nc(=O)c12 (3D coordinates assigned)
CC[NH2+]CCCSc1cccc2[n-]c(C)nc(=O)c12 (optimized conformer: 34.8257076600029 kcal/mol)

>  <smiles>  (16) 
CCNCCCSc1cccc2[nH]c(C)nc(=O)c12

>  <score_type>  (16) 
oracle

>  <origin>  (16) 
adg

>  <m_score__min__energy>  (16) 
-7.4000000000000004

>  <m_primary>  (16) 
energy

$$$$
16:0
     RDKit          3D

 34 35  0  0  0  0  0  0  0  0999 V2000
   -8.5020   22.2900  -31.5900 C   0  0  0  0  0  0  0  0  0  0  0  0
   -7.3610   23.2860  -31.7960 C   0  0  0  0  0  0  0  0  0  0  0  0
   -6.0870   22.6190  -32.3550 C   0  0  0  0  0  0  0  0  0  0  0  0
   -4.8600   23.0240  -31.6420 N   0  0  0  0  0  0  0  0  0  0  0  0
   -4.9070   22.7050  -30.2080 C   0  0  0  0  0  0  0  0  0  0  0  0
   -3.7510   23.3740  -29.4780 C   0  0  0  0  0  0  0  0  0  0  0  0
   -2.9870   22.7110  -28.4660 C   0  0  0  0  0  0  0  0  0  0  0  0
   -3.4820   21.4220  -27.8540 C   0  0  0  0  0  0  0  0  0  0  0  0
   -1.7890   23.3350  -28.0220 C   0  0  0  0  0  0  0  0  0  0  0  0
   -0.7490   22.8440  -27.1810 C   0  0  0  0  0  0  0  0  0  0  0  0
   -0.6020   21.4490  -26.6460 C   0  0  0  0  0  0  0  0  0  0  0  0
    0.2440   23.7980  -26.9340 C   0  0  0  0  0  0  0  0  0  0  0  0
   -0.0990   25.2100  -27.7820 S   0  0  0  0  0  0  0  0  0  0  0  0
   -1.5160   24.6270  -28.4510 C   0  0  0  0  0  0  0  0  0  0  0  0
   -2.2910   25.2880  -29.3340 N   0  0  0  0  0  0  0  0  0  0  0  0
   -3.3870   24.6890  -29.8660 C   0  0  0  0  0  0  0  0  0  0  0  0
   -4.0730   25.3190  -30.7140 O   0  0  0  0  0  0  0  0  0  0  0  0
   -8.6704   22.1430  -30.5130 H   0  0  0  0  0  0  0  0  0  0  0  0
   -9.4190   22.6817  -32.0544 H   0  0  0  0  0  0  0  0  0  0  0  0
   -8.2377   21.3285  -32.0544 H   0  0  0  0  0  0  0  0  0  0  0  0
   -7.6926   24.0608  -32.5030 H   0  0  0  0  0  0  0  0  0  0  0  0
   -7.1103   23.7142  -30.8143 H   0  0  0  0  0  0  0  0  0  0  0  0
   -6.1972   21.5278  -32.2699 H   0  0  0  0  0  0  0  0  0  0  0  0
   -5.9799   22.9423  -33.4010 H   0  0  0  0  0  0  0  0  0  0  0  0
   -4.6960   24.0500  -31.7550 H   0  0  0  0  0  0  0  0  0  0  0  0
   -5.8578   23.0644  -29.7876 H   0  0  0  0  0  0  0  0  0  0  0  0
   -4.8262   21.6153  -30.0818 H   0  0  0  0  0  0  0  0  0  0  0  0
   -3.4515   21.5014  -26.7573 H   0  0  0  0  0  0  0  0  0  0  0  0
   -4.5159   21.2349  -28.1795 H   0  0  0  0  0  0  0  0  0  0  0  0
   -2.8391   20.5909  -28.1795 H   0  0  0  0  0  0  0  0  0  0  0  0
   -0.6048   21.4758  -25.5463 H   0  0  0  0  0  0  0  0  0  0  0  0
   -1.4399   20.8304  -26.9998 H   0  0  0  0  0  0  0  0  0  0  0  0
    0.3465   21.0186  -26.9998 H   0  0  0  0  0  0  0  0  0  0  0  0
    1.1179   23.6475  -26.2831 H   0  0  0  0  0  0  0  0  0  0  0  0
  1  2  1  0
  2  3  1  0
  3  4  1  0
  4  5  1  0
  5  6  1  0
  6  7  2  0
  7  8  1  0
  7  9  1  0
  9 10  1  0
 10 11  1  0
 10 12  2  0
 12 13  1  0
 13 14  1  0
 14 15  1  0
 15 16  1  0
 16 17  2  0
 16  6  1  0
 14  9  2  0
  1 18  1  0
  1 19  1  0
  1 20  1  0
  2 21  1  0
  2 22  1  0
  3 23  1  0
  3 24  1  0
  4 25  1  0
  5 26  1  0
  5 27  1  0
  8 28  1  0
  8 29  1  0
  8 30  1  0
 11 31  1  0
 11 32  1  0
 11 33  1  0
 12 34  1  0
M  CHG  1  15  -1
M  END
>  <UniqueID>  (17) 
17

>  <SMILES>  (17) 
CCCNCc1c(C)c2c(C)csc2[n-]c1=O

>  <Energy>  (17) 
74.3785528942452

>  <Genealogy>  (17) 
CCCNCc1c(C)c2c(C)csc2[n-]c1=O (protonated)
CCCNCc1c(C)c2c(C)csc2[n-]c1=O (3D coordinates assigned)
CCCNCc1c(C)c2c(C)csc2[n-]c1=O (optimized conformer: 74.3785528942452 kcal/mol)

>  <smiles>  (17) 
CCCNCc1c(C)c2c(C)csc2[nH]c1=O

>  <score_type>  (17) 
oracle

>  <origin>  (17) 
adg

>  <m_score__min__energy>  (17) 
-8

>  <m_primary>  (17) 
energy

$$$$
17:0
     RDKit          3D

 51 53  0  0  0  0  0  0  0  0999 V2000
   -1.9940   25.9660  -25.9590 C   0  0  0  0  0  0  0  0  0  0  0  0
   -1.9600   24.7280  -26.8530 C   0  0  0  0  0  0  0  0  0  0  0  0
   -1.4080   25.0320  -28.2250 C   0  0  0  0  0  0  0  0  0  0  0  0
   -0.1700   24.9280  -28.4340 O   0  0  0  0  0  0  0  0  0  0  0  0
   -2.2680   25.2950  -29.3410 N   0  0  0  0  0  0  0  0  0  0  0  0
   -3.2650   24.4020  -29.8560 C   0  0  0  0  0  0  0  0  0  0  0  0
   -4.4830   24.9370  -30.2870 C   0  0  0  0  0  0  0  0  0  0  0  0
   -5.4850   24.1070  -30.7900 C   0  0  0  0  0  0  0  0  0  0  0  0
   -5.2930   22.7170  -30.8590 C   0  0  0  0  0  0  0  0  0  0  0  0
   -6.3340   21.8560  -31.3710 N   0  0  0  0  0  0  0  0  0  0  0  0
   -7.7240   22.3220  -31.4310 C   0  0  0  0  0  0  0  0  0  0  0  0
   -8.7020   21.1540  -31.2110 C   0  0  0  0  0  0  0  0  0  0  0  0
   -8.3560   19.9160  -31.9560 N   0  0  0  0  0  0  0  0  0  0  0  0
   -9.5000   19.4290  -32.7410 C   0  0  0  0  0  0  0  0  0  0  0  0
   -7.1570   20.0270  -32.8110 C   0  0  0  0  0  0  0  0  0  0  0  0
   -5.9790   20.5810  -32.0090 C   0  0  0  0  0  0  0  0  0  0  0  0
   -4.0800   22.1760  -30.3930 C   0  0  0  0  0  0  0  0  0  0  0  0
   -3.0660   23.0040  -29.8850 C   0  0  0  0  0  0  0  0  0  0  0  0
   -1.8720   22.4110  -29.3390 N   0  0  0  0  0  0  0  0  0  0  0  0
   -1.9100   21.6880  -28.0670 C   0  0  0  0  0  0  0  0  0  0  0  0
   -1.4440   20.2460  -28.3050 C   0  0  0  0  0  0  0  0  0  0  0  0
   -0.1790   20.2240  -28.9450 O   0  0  0  0  0  0  0  0  0  0  0  0
   -0.2760   20.8010  -30.2360 C   0  0  0  0  0  0  0  0  0  0  0  0
   -0.6510   22.2840  -30.1380 C   0  0  0  0  0  0  0  0  0  0  0  0
   -1.9855   25.6564  -24.9035 H   0  0  0  0  0  0  0  0  0  0  0  0
   -1.1127   26.5912  -26.1648 H   0  0  0  0  0  0  0  0  0  0  0  0
   -2.9083   26.5419  -26.1648 H   0  0  0  0  0  0  0  0  0  0  0  0
   -1.3269   23.9645  -26.3773 H   0  0  0  0  0  0  0  0  0  0  0  0
   -2.9931   24.3707  -26.9755 H   0  0  0  0  0  0  0  0  0  0  0  0
   -4.6525   26.0223  -30.2289 H   0  0  0  0  0  0  0  0  0  0  0  0
   -6.4333   24.5445  -31.1355 H   0  0  0  0  0  0  0  0  0  0  0  0
   -7.8846   23.0790  -30.6492 H   0  0  0  0  0  0  0  0  0  0  0  0
   -7.9085   22.7538  -32.4258 H   0  0  0  0  0  0  0  0  0  0  0  0
   -8.7182   20.9163  -30.1371 H   0  0  0  0  0  0  0  0  0  0  0  0
   -9.6792   21.4866  -31.5910 H   0  0  0  0  0  0  0  0  0  0  0  0
  -10.2947   19.0907  -32.0598 H   0  0  0  0  0  0  0  0  0  0  0  0
   -9.8823   20.2424  -33.3752 H   0  0  0  0  0  0  0  0  0  0  0  0
   -9.1788   18.5896  -33.3752 H   0  0  0  0  0  0  0  0  0  0  0  0
   -6.8951   19.0315  -33.1988 H   0  0  0  0  0  0  0  0  0  0  0  0
   -7.3750   20.7120  -33.6436 H   0  0  0  0  0  0  0  0  0  0  0  0
   -5.6989   19.8548  -31.2317 H   0  0  0  0  0  0  0  0  0  0  0  0
   -5.1363   20.7532  -32.6947 H   0  0  0  0  0  0  0  0  0  0  0  0
   -3.9239   21.0877  -30.4273 H   0  0  0  0  0  0  0  0  0  0  0  0
   -1.2422   22.1778  -27.3431 H   0  0  0  0  0  0  0  0  0  0  0  0
   -2.9345   21.6888  -27.6666 H   0  0  0  0  0  0  0  0  0  0  0  0
   -1.3677   19.7275  -27.3378 H   0  0  0  0  0  0  0  0  0  0  0  0
   -2.1757   19.7419  -28.9535 H   0  0  0  0  0  0  0  0  0  0  0  0
    0.6930   20.7063  -30.7479 H   0  0  0  0  0  0  0  0  0  0  0  0
   -1.0586   20.2742  -30.8017 H   0  0  0  0  0  0  0  0  0  0  0  0
    0.1659   22.8407  -29.6556 H   0  0  0  0  0  0  0  0  0  0  0  0
   -0.8192   22.6940  -31.1448 H   0  0  0  0  0  0  0  0  0  0  0  0
  1  2  1  0
  2  3  1  0
  3  4  2  0
  3  5  1  0
  5  6  1  0
  6  7  2  0
  7  8  1  0
  8  9  2  0
  9 10  1  0
 10 11  1  0
 11 12  1  0
 12 13  1  0
 13 14  1  0
 13 15  1  0
 15 16  1  0
  9 17  1  0
 17 18  2  0
 18 19  1  0
 19 20  1  0
 20 21  1  0
 21 22  1  0
 22 23  1  0
 23 24  1  0
 18  6  1  0
 24 19  1  0
 16 10  1  0
  1 25  1  0
  1 26  1  0
  1 27  1  0
  2 28  1  0
  2 29  1  0
  7 30  1  0
  8 31  1  0
 11 32  1  0
 11 33  1  0
 12 34  1  0
 12 35  1  0
 14 36  1  0
 14 37  1  0
 14 38  1  0
 15 39  1  0
 15 40  1  0
 16 41  1  0
 16 42  1  0
 17 43  1  0
 20 44  1  0
 20 45  1  0
 21 46  1  0
 21 47  1  0
 23 48  1  0
 23 49  1  0
 24 50  1  0
 24 51  1  0
M  CHG  1   5  -1
M  END
>  <UniqueID>  (18) 
18

>  <SMILES>  (18) 
CCC(=O)[N-]c1ccc(N2CCN(C)CC2)cc1N1CCOCC1

>  <Energy>  (18) 
69.71833880510059

>  <Genealogy>  (18) 
CCC(=O)[N-]c1ccc(N2CCN(C)CC2)cc1N1CCOCC1 (protonated)
CCC(=O)[N-]c1ccc(N2CCN(C)CC2)cc1N1CCOCC1 (3D coordinates assigned)
CCC(=O)[N-]c1ccc(N2CCN(C)CC2)cc1N1CCOCC1 (nonaromatic ring conformer: 69.71833880510059 kcal/mol)

>  <smiles>  (18) 
CCC(=O)Nc1ccc(N2CCN(C)CC2)cc1N1CCOCC1

>  <score_type>  (18) 
oracle

>  <origin>  (18) 
adg

>  <m_score__min__energy>  (18) 
-9.4499999999999993

>  <m_primary>  (18) 
energy

$$$$
18:0
     RDKit          3D

 48 50  0  0  0  0  0  0  0  0999 V2000
   -8.9360   18.1950  -31.8590 C   0  0  0  0  0  0  0  0  0  0  0  0
   -7.8980   19.1090  -32.3890 N   0  0  0  0  0  0  0  0  0  0  0  0
   -6.8030   18.5980  -33.0540 C   0  0  0  0  0  0  0  0  0  0  0  0
   -5.6800   19.4270  -33.3280 C   0  0  0  0  0  0  0  0  0  0  0  0
   -5.7470   20.8160  -33.0240 C   0  0  0  0  0  0  0  0  0  0  0  0
   -4.5940   21.6860  -33.2350 N   0  0  0  0  0  0  0  0  0  0  0  0
   -3.4540   21.3350  -32.3610 C   0  0  0  0  0  0  0  0  0  0  0  0
   -3.2350   22.3360  -31.2150 C   0  0  0  0  0  0  0  0  0  0  0  0
   -4.1080   23.5060  -31.3770 N   0  0  0  0  0  0  0  0  0  0  0  0
   -4.9520   23.7490  -30.1960 C   0  0  0  0  0  0  0  0  0  0  0  0
   -5.2710   25.2330  -29.9870 C   0  0  0  0  0  0  0  0  0  0  0  0
   -4.2420   26.0230  -30.4670 F   0  0  0  0  0  0  0  0  0  0  0  0
   -6.9710   21.3490  -32.5350 C   0  0  0  0  0  0  0  0  0  0  0  0
   -7.1510   22.7420  -32.3390 C   0  0  0  0  0  0  0  0  0  0  0  0
   -8.3630   23.2570  -31.8880 C   0  0  0  0  0  0  0  0  0  0  0  0
   -9.4280   22.4050  -31.6340 C   0  0  0  0  0  0  0  0  0  0  0  0
   -9.2820   21.0340  -31.8130 C   0  0  0  0  0  0  0  0  0  0  0  0
   -8.0500   20.4720  -32.2420 C   0  0  0  0  0  0  0  0  0  0  0  0
   -4.4520   18.8600  -34.0390 C   0  0  0  0  0  0  0  0  0  0  0  0
   -4.4060   17.3370  -34.1280 C   0  0  0  0  0  0  0  0  0  0  0  0
   -5.7640   16.8010  -34.5360 C   0  0  0  0  0  0  0  0  0  0  0  0
   -6.7730   17.1220  -33.4430 C   0  0  0  0  0  0  0  0  0  0  0  0
   -8.9144   18.2140  -30.7594 H   0  0  0  0  0  0  0  0  0  0  0  0
   -9.9258   18.5202  -32.2120 H   0  0  0  0  0  0  0  0  0  0  0  0
   -8.7387   17.1720  -32.2120 H   0  0  0  0  0  0  0  0  0  0  0  0
   -4.8730   22.6770  -33.0580 H   0  0  0  0  0  0  0  0  0  0  0  0
   -4.2690   21.7140  -34.2250 H   0  0  0  0  0  0  0  0  0  0  0  0
   -3.6404   20.3419  -31.9262 H   0  0  0  0  0  0  0  0  0  0  0  0
   -2.5483   21.3512  -32.9850 H   0  0  0  0  0  0  0  0  0  0  0  0
   -3.4627   21.8448  -30.2575 H   0  0  0  0  0  0  0  0  0  0  0  0
   -2.1871   22.6703  -31.2314 H   0  0  0  0  0  0  0  0  0  0  0  0
   -3.5230   24.3510  -31.5760 H   0  0  0  0  0  0  0  0  0  0  0  0
   -5.8975   23.2009  -30.3214 H   0  0  0  0  0  0  0  0  0  0  0  0
   -4.3930   23.4038  -29.3138 H   0  0  0  0  0  0  0  0  0  0  0  0
   -6.1988   25.4825  -30.5226 H   0  0  0  0  0  0  0  0  0  0  0  0
   -5.3916   25.4223  -28.9101 H   0  0  0  0  0  0  0  0  0  0  0  0
   -6.3171   23.4284  -32.5473 H   0  0  0  0  0  0  0  0  0  0  0  0
   -8.4764   24.3401  -31.7329 H   0  0  0  0  0  0  0  0  0  0  0  0
  -10.3893   22.8147  -31.2905 H   0  0  0  0  0  0  0  0  0  0  0  0
  -10.1379   20.3710  -31.6185 H   0  0  0  0  0  0  0  0  0  0  0  0
   -4.4337   19.2626  -35.0625 H   0  0  0  0  0  0  0  0  0  0  0  0
   -3.5816   19.1599  -33.4370 H   0  0  0  0  0  0  0  0  0  0  0  0
   -3.6566   17.0381  -34.8757 H   0  0  0  0  0  0  0  0  0  0  0  0
   -4.1357   16.9255  -33.1443 H   0  0  0  0  0  0  0  0  0  0  0  0
   -6.0787   17.2730  -35.4784 H   0  0  0  0  0  0  0  0  0  0  0  0
   -5.7056   15.7119  -34.6792 H   0  0  0  0  0  0  0  0  0  0  0  0
   -7.7738   16.8355  -33.7984 H   0  0  0  0  0  0  0  0  0  0  0  0
   -6.4699   16.5584  -32.5483 H   0  0  0  0  0  0  0  0  0  0  0  0
  1  2  1  0
  2  3  2  0
  3  4  1  0
  4  5  2  0
  5  6  1  0
  6  7  1  0
  7  8  1  0
  8  9  1  0
  9 10  1  0
 10 11  1  0
 11 12  1  0
  5 13  1  0
 13 14  2  0
 14 15  1  0
 15 16  2  0
 16 17  1  0
 17 18  2  0
  4 19  1  0
 19 20  1  0
 20 21  1  0
 21 22  1  0
 18  2  1  0
 22  3  1  0
 18 13  1  0
  1 23  1  0
  1 24  1  0
  1 25  1  0
  6 26  1  0
  6 27  1  0
  7 28  1  0
  7 29  1  0
  8 30  1  0
  8 31  1  0
  9 32  1  0
 10 33  1  0
 10 34  1  0
 11 35  1  0
 11 36  1  0
 14 37  1  0
 15 38  1  0
 16 39  1  0
 17 40  1  0
 19 41  1  0
 19 42  1  0
 20 43  1  0
 20 44  1  0
 21 45  1  0
 21 46  1  0
 22 47  1  0
 22 48  1  0
M  CHG  2   2   1   6   1
M  END
>  <UniqueID>  (19) 
19

>  <SMILES>  (19) 
C[n+]1c2c(c([NH2+]CCNCCF)c3ccccc31)CCCC2

>  <Energy>  (19) 
67.60233032658701

>  <Genealogy>  (19) 
C[n+]1c2c(c([NH2+]CCNCCF)c3ccccc31)CCCC2 (protonated)
C[n+]1c2c(c([NH2+]CCNCCF)c3ccccc31)CCCC2 (3D coordinates assigned)
C[n+]1c2c(c([NH2+]CCNCCF)c3ccccc31)CCCC2 (nonaromatic ring conformer: 67.60233032658701 kcal/mol)

>  <smiles>  (19) 
C[n+]1c2c(c(NCCNCCF)c3ccccc31)CCCC2

>  <score_type>  (19) 
oracle

>  <origin>  (19) 
adg

>  <m_score__min__energy>  (19) 
-7.8700000000000001

>  <m_primary>  (19) 
energy

$$$$
19:0
     RDKit          3D

 70 73  0  0  0  0  0  0  0  0999 V2000
   -0.2790   22.9180  -25.4720 C   0  0  0  0  0  0  0  0  0  0  0  0
    0.1460   23.3230  -26.8810 C   0  0  0  0  0  0  0  0  0  0  0  0
   -0.6110   22.5590  -27.8810 N   0  0  0  0  0  0  0  0  0  0  0  0
   -1.1160   23.2210  -29.0880 C   0  0  0  0  0  0  0  0  0  0  0  0
   -1.1320   24.7410  -28.8970 C   0  0  0  0  0  0  0  0  0  0  0  0
   -2.3700   25.2770  -29.3270 O   0  0  0  0  0  0  0  0  0  0  0  0
   -3.4470   24.4180  -28.9970 C   0  0  0  0  0  0  0  0  0  0  0  0
   -4.5620   24.5360  -30.0420 C   0  0  0  0  0  0  0  0  0  0  0  0
   -4.2080   23.8340  -31.2190 O   0  0  0  0  0  0  0  0  0  0  0  0
   -3.9060   22.4780  -30.9440 C   0  0  0  0  0  0  0  0  0  0  0  0
   -3.4150   21.7630  -32.2090 C   0  0  0  0  0  0  0  0  0  0  0  0
   -4.4740   21.6950  -33.2170 N   0  0  0  0  0  0  0  0  0  0  0  0
   -5.6100   20.8420  -33.0080 C   0  0  0  0  0  0  0  0  0  0  0  0
   -5.5330   19.4750  -33.3190 C   0  0  0  0  0  0  0  0  0  0  0  0
   -4.3620   18.9320  -33.8910 C   0  0  0  0  0  0  0  0  0  0  0  0
   -4.3000   17.5840  -34.2370 C   0  0  0  0  0  0  0  0  0  0  0  0
   -5.4050   16.7630  -34.0400 C   0  0  0  0  0  0  0  0  0  0  0  0
   -6.5720   17.2780  -33.4740 C   0  0  0  0  0  0  0  0  0  0  0  0
   -6.6540   18.6370  -33.0720 C   0  0  0  0  0  0  0  0  0  0  0  0
   -7.7870   19.1540  -32.4690 N   0  0  0  0  0  0  0  0  0  0  0  0
   -8.8360   18.2400  -31.9610 C   0  0  0  0  0  0  0  0  0  0  0  0
   -7.9280   20.5210  -32.3160 C   0  0  0  0  0  0  0  0  0  0  0  0
   -9.1640   21.1090  -31.9380 C   0  0  0  0  0  0  0  0  0  0  0  0
   -9.2720   22.4830  -31.7230 C   0  0  0  0  0  0  0  0  0  0  0  0
   -8.1650   23.3060  -31.8950 C   0  0  0  0  0  0  0  0  0  0  0  0
   -6.9500   22.7660  -32.3120 C   0  0  0  0  0  0  0  0  0  0  0  0
   -6.8230   21.3820  -32.5490 C   0  0  0  0  0  0  0  0  0  0  0  0
   -1.0230   21.2120  -27.5880 C   0  0  0  0  0  0  0  0  0  0  0  0
   -2.3430   20.9760  -27.1730 C   0  0  0  0  0  0  0  0  0  0  0  0
   -2.7870   19.6770  -26.9190 C   0  0  0  0  0  0  0  0  0  0  0  0
   -1.9180   18.5980  -27.0840 C   0  0  0  0  0  0  0  0  0  0  0  0
   -0.6010   18.8170  -27.4950 C   0  0  0  0  0  0  0  0  0  0  0  0
   -0.1340   20.1200  -27.7370 C   0  0  0  0  0  0  0  0  0  0  0  0
    1.2880   20.3060  -28.1910 C   0  0  0  0  0  0  0  0  0  0  0  0
    0.3119   23.4811  -24.7347 H   0  0  0  0  0  0  0  0  0  0  0  0
   -1.3472   23.1407  -25.3330 H   0  0  0  0  0  0  0  0  0  0  0  0
   -0.1080   21.8403  -25.3330 H   0  0  0  0  0  0  0  0  0  0  0  0
   -0.0457   24.3968  -27.0233 H   0  0  0  0  0  0  0  0  0  0  0  0
    1.2183   23.1119  -27.0059 H   0  0  0  0  0  0  0  0  0  0  0  0
   -0.4652   22.9695  -29.9384 H   0  0  0  0  0  0  0  0  0  0  0  0
   -2.1421   22.8751  -29.2817 H   0  0  0  0  0  0  0  0  0  0  0  0
   -0.9857   24.9745  -27.8321 H   0  0  0  0  0  0  0  0  0  0  0  0
   -0.3226   25.1854  -29.4948 H   0  0  0  0  0  0  0  0  0  0  0  0
   -3.0864   23.3792  -28.9670 H   0  0  0  0  0  0  0  0  0  0  0  0
   -3.8465   24.7071  -28.0137 H   0  0  0  0  0  0  0  0  0  0  0  0
   -5.4903   24.1118  -29.6317 H   0  0  0  0  0  0  0  0  0  0  0  0
   -4.7100   25.5976  -30.2892 H   0  0  0  0  0  0  0  0  0  0  0  0
   -3.1203   22.4320  -30.1756 H   0  0  0  0  0  0  0  0  0  0  0  0
   -4.8189   21.9782  -30.5879 H   0  0  0  0  0  0  0  0  0  0  0  0
   -2.5581   22.3139  -32.6240 H   0  0  0  0  0  0  0  0  0  0  0  0
   -3.1203   20.7378  -31.9403 H   0  0  0  0  0  0  0  0  0  0  0  0
   -4.5130   22.3960  -33.9900 H   0  0  0  0  0  0  0  0  0  0  0  0
   -3.4901   19.5797  -34.0651 H   0  0  0  0  0  0  0  0  0  0  0  0
   -3.3763   17.1687  -34.6663 H   0  0  0  0  0  0  0  0  0  0  0  0
   -5.3590   15.7033  -34.3315 H   0  0  0  0  0  0  0  0  0  0  0  0
   -7.4428   16.6200  -33.3371 H   0  0  0  0  0  0  0  0  0  0  0  0
   -8.8275   18.2474  -30.8611 H   0  0  0  0  0  0  0  0  0  0  0  0
   -9.8198   18.5741  -32.3223 H   0  0  0  0  0  0  0  0  0  0  0  0
   -8.6398   17.2197  -32.3223 H   0  0  0  0  0  0  0  0  0  0  0  0
  -10.0509   20.4705  -31.8127 H   0  0  0  0  0  0  0  0  0  0  0  0
  -10.2355   22.9163  -31.4166 H   0  0  0  0  0  0  0  0  0  0  0  0
   -8.2483   24.3856  -31.7015 H   0  0  0  0  0  0  0  0  0  0  0  0
   -6.0819   23.4257  -32.4576 H   0  0  0  0  0  0  0  0  0  0  0  0
   -3.0340   21.8225  -27.0467 H   0  0  0  0  0  0  0  0  0  0  0  0
   -3.8219   19.5042  -26.5888 H   0  0  0  0  0  0  0  0  0  0  0  0
   -2.2702   17.5741  -26.8903 H   0  0  0  0  0  0  0  0  0  0  0  0
    0.0769   17.9614  -27.6305 H   0  0  0  0  0  0  0  0  0  0  0  0
    1.9450   20.3919  -27.3129 H   0  0  0  0  0  0  0  0  0  0  0  0
    1.5959   19.4405  -28.7960 H   0  0  0  0  0  0  0  0  0  0  0  0
    1.3630   21.2216  -28.7960 H   0  0  0  0  0  0  0  0  0  0  0  0
  1  2  1  0
  2  3  1  0
  3  4  1  0
  4  5  1  0
  5  6  1  0
  6  7  1  0
  7  8  1  0
  8  9  1  0
  9 10  1  0
 10 11  1  0
 11 12  1  0
 12 13  1  0
 13 14  1  0
 14 15  2  0
 15 16  1  0
 16 17  2  0
 17 18  1  0
 18 19  2  0
 19 20  1  0
 20 21  1  0
 20 22  2  0
 22 23  1  0
 23 24  2  0
 24 25  1  0
 25 26  2  0
 26 27  1  0
  3 28  1  0
 28 29  2  0
 29 30  1  0
 30 31  2  0
 31 32  1  0
 32 33  2  0
 33 34  1  0
 27 13  2  0
 33 28  1  0
 19 14  1  0
 27 22  1  0
  1 35  1  0
  1 36  1  0
  1 37  1  0
  2 38  1  0
  2 39  1  0
  4 40  1  0
  4 41  1  0
  5 42  1  0
  5 43  1  0
  7 44  1  0
  7 45  1  0
  8 46  1  0
  8 47  1  0
 10 48  1  0
 10 49  1  0
 11 50  1  0
 11 51  1  0
 12 52  1  0
 15 53  1  0
 16 54  1  0
 17 55  1  0
 18 56  1  0
 21 57  1  0
 21 58  1  0
 21 59  1  0
 23 60  1  0
 24 61  1  0
 25 62  1  0
 26 63  1  0
 29 64  1  0
 30 65  1  0
 31 66  1  0
 32 67  1  0
 34 68  1  0
 34 69  1  0
 34 70  1  0
M  CHG  1  20   1
M  END
>  <UniqueID>  (20) 
20

>  <SMILES>  (20) 
CCN(CCOCCOCCNc1c2ccccc2[n+](C)c2ccccc12)c1ccccc1C

>  <Energy>  (20) 
101.6111323251256

>  <Genealogy>  (20) 
CCN(CCOCCOCCNc1c2ccccc2[n+](C)c2ccccc12)c1ccccc1C (3D coordinates assigned)
CCN(CCOCCOCCNc1c2ccccc2[n+](C)c2ccccc12)c1ccccc1C (optimized conformer: 101.6111323251256 kcal/mol)

>  <smiles>  (20) 
CCN(CCOCCOCCNc1c2ccccc2[n+](C)c2ccccc12)c1ccccc1C

>  <score_type>  (20) 
oracle

>  <origin>  (20) 
adg

>  <m_score__min__energy>  (20) 
-10.35

>  <m_primary>  (20) 
energy

$$$$
20:0
     RDKit          3D

 56 59  0  0  0  0  0  0  0  0999 V2000
   -6.4640   25.6960  -29.4080 C   0  0  0  0  0  0  0  0  0  0  0  0
   -5.8880   24.6740  -30.3870 C   0  0  0  0  0  0  0  0  0  0  0  0
   -4.6810   23.9290  -29.8000 C   0  0  0  0  0  0  0  0  0  0  0  0
   -3.4340   24.3230  -30.4710 N   0  0  0  0  0  0  0  0  0  0  0  0
   -2.2840   23.4890  -30.0800 C   0  0  0  0  0  0  0  0  0  0  0  0
   -2.7470   22.0770  -29.7050 C   0  0  0  0  0  0  0  0  0  0  0  0
   -2.6080   21.0590  -30.8530 C   0  0  0  0  0  0  0  0  0  0  0  0
   -1.7600   21.5900  -32.0160 C   0  0  0  0  0  0  0  0  0  0  0  0
   -2.4550   21.3810  -33.2840 N   0  0  0  0  0  0  0  0  0  0  0  0
   -3.4210   20.3320  -33.4390 C   0  0  0  0  0  0  0  0  0  0  0  0
   -4.7630   20.5700  -33.1590 C   0  0  0  0  0  0  0  0  0  0  0  0
   -5.7100   19.5630  -33.2420 C   0  0  0  0  0  0  0  0  0  0  0  0
   -5.3950   18.3180  -33.7270 N   0  0  0  0  0  0  0  0  0  0  0  0
   -6.4690   17.3820  -34.0980 C   0  0  0  0  0  0  0  0  0  0  0  0
   -4.0590   18.0060  -33.9330 C   0  0  0  0  0  0  0  0  0  0  0  0
   -3.6440   16.6870  -34.2380 C   0  0  0  0  0  0  0  0  0  0  0  0
   -2.3060   16.4000  -34.5090 C   0  0  0  0  0  0  0  0  0  0  0  0
   -1.3500   17.4100  -34.4800 C   0  0  0  0  0  0  0  0  0  0  0  0
   -1.7160   18.7120  -34.1440 C   0  0  0  0  0  0  0  0  0  0  0  0
   -3.0540   19.0240  -33.8300 C   0  0  0  0  0  0  0  0  0  0  0  0
   -7.0060   20.1130  -32.7730 C   0  0  0  0  0  0  0  0  0  0  0  0
   -8.2260   19.4930  -32.4590 C   0  0  0  0  0  0  0  0  0  0  0  0
   -9.2700   20.2800  -31.9460 C   0  0  0  0  0  0  0  0  0  0  0  0
   -9.0820   21.6540  -31.7080 C   0  0  0  0  0  0  0  0  0  0  0  0
   -7.8380   22.2510  -31.9600 C   0  0  0  0  0  0  0  0  0  0  0  0
   -6.8190   21.4570  -32.4830 C   0  0  0  0  0  0  0  0  0  0  0  0
   -5.4240   21.7940  -32.7090 C   0  0  0  0  0  0  0  0  0  0  0  0
   -4.8920   22.9210  -32.5300 O   0  0  0  0  0  0  0  0  0  0  0  0
   -6.2760   25.3624  -28.3768 H   0  0  0  0  0  0  0  0  0  0  0  0
   -5.9829   26.6717  -29.5712 H   0  0  0  0  0  0  0  0  0  0  0  0
   -7.5478   25.7897  -29.5712 H   0  0  0  0  0  0  0  0  0  0  0  0
   -6.6700   23.9416  -30.6362 H   0  0  0  0  0  0  0  0  0  0  0  0
   -5.5491   25.2160  -31.2822 H   0  0  0  0  0  0  0  0  0  0  0  0
   -4.6012   24.1638  -28.7283 H   0  0  0  0  0  0  0  0  0  0  0  0
   -4.8313   22.8498  -29.9511 H   0  0  0  0  0  0  0  0  0  0  0  0
   -3.5790   24.2200  -31.5030 H   0  0  0  0  0  0  0  0  0  0  0  0
   -1.5790   23.4270  -30.9221 H   0  0  0  0  0  0  0  0  0  0  0  0
   -1.7939   23.9458  -29.2076 H   0  0  0  0  0  0  0  0  0  0  0  0
   -2.1434   21.7271  -28.8545 H   0  0  0  0  0  0  0  0  0  0  0  0
   -3.8171   22.1424  -29.4586 H   0  0  0  0  0  0  0  0  0  0  0  0
   -2.1343   20.1475  -30.4596 H   0  0  0  0  0  0  0  0  0  0  0  0
   -3.6169   20.8577  -31.2424 H   0  0  0  0  0  0  0  0  0  0  0  0
   -1.5804   22.6658  -31.8731 H   0  0  0  0  0  0  0  0  0  0  0  0
   -0.8025   21.0490  -32.0382 H   0  0  0  0  0  0  0  0  0  0  0  0
   -2.4920   22.1850  -33.9500 H   0  0  0  0  0  0  0  0  0  0  0  0
   -6.9335   16.9772  -33.1868 H   0  0  0  0  0  0  0  0  0  0  0  0
   -7.2281   17.9118  -34.6922 H   0  0  0  0  0  0  0  0  0  0  0  0
   -6.0479   16.5576  -34.6922 H   0  0  0  0  0  0  0  0  0  0  0  0
   -4.3876   15.8767  -34.2616 H   0  0  0  0  0  0  0  0  0  0  0  0
   -2.0052   15.3690  -34.7470 H   0  0  0  0  0  0  0  0  0  0  0  0
   -0.3020   17.1803  -34.7230 H   0  0  0  0  0  0  0  0  0  0  0  0
   -0.9530   19.5041  -34.1237 H   0  0  0  0  0  0  0  0  0  0  0  0
   -8.3614   18.4121  -32.6118 H   0  0  0  0  0  0  0  0  0  0  0  0
  -10.2441   19.8178  -31.7281 H   0  0  0  0  0  0  0  0  0  0  0  0
   -9.9137   22.2622  -31.3229 H   0  0  0  0  0  0  0  0  0  0  0  0
   -7.6711   23.3179  -31.7503 H   0  0  0  0  0  0  0  0  0  0  0  0
  1  2  1  0
  2  3  1  0
  3  4  1  0
  4  5  1  0
  5  6  1  0
  6  7  1  0
  7  8  1  0
  8  9  1  0
  9 10  1  0
 10 11  2  0
 11 12  1  0
 12 13  2  0
 13 14  1  0
 13 15  1  0
 15 16  2  0
 16 17  1  0
 17 18  2  0
 18 19  1  0
 19 20  2  0
 12 21  1  0
 21 22  2  0
 22 23  1  0
 23 24  2  0
 24 25  1  0
 25 26  2  0
 26 27  1  0
 27 28  2  0
 20 10  1  0
 26 21  1  0
 27 11  1  0
 20 15  1  0
  1 29  1  0
  1 30  1  0
  1 31  1  0
  2 32  1  0
  2 33  1  0
  3 34  1  0
  3 35  1  0
  4 36  1  0
  5 37  1  0
  5 38  1  0
  6 39  1  0
  6 40  1  0
  7 41  1  0
  7 42  1  0
  8 43  1  0
  8 44  1  0
  9 45  1  0
 14 46  1  0
 14 47  1  0
 14 48  1  0
 16 49  1  0
 17 50  1  0
 18 51  1  0
 19 52  1  0
 22 53  1  0
 23 54  1  0
 24 55  1  0
 25 56  1  0
M  CHG  1  13   1
M  END
>  <UniqueID>  (21) 
21

>  <SMILES>  (21) 
CCCNCCCCNc1c2c([n+](C)c3ccccc13)-c1ccccc1C2=O

>  <Energy>  (21) 
105.50943646468433

>  <Genealogy>  (21) 
CCCNCCCCNc1c2c([n+](C)c3ccccc13)-c1ccccc1C2=O (3D coordinates assigned)
CCCNCCCCNc1c2c([n+](C)c3ccccc13)-c1ccccc1C2=O (nonaromatic ring conformer: 105.50943646468433 kcal/mol)

>  <smiles>  (21) 
CCCNCCCCNc1c2c([n+](C)c3ccccc13)-c1ccccc1C2=O

>  <score_type>  (21) 
oracle

>  <origin>  (21) 
adg

>  <m_score__min__energy>  (21) 
-9.8499999999999996

>  <m_primary>  (21) 
energy

$$$$
21:0
     RDKit          3D

 47 48  0  0  0  0  0  0  0  0999 V2000
   -6.2280   24.6610  -30.0280 C   0  0  0  0  0  0  0  0  0  0  0  0
   -5.3020   25.6280  -30.7530 C   0  0  0  0  0  0  0  0  0  0  0  0
   -3.9620   25.2870  -30.4670 O   0  0  0  0  0  0  0  0  0  0  0  0
   -3.9150   24.4400  -29.3370 C   0  0  0  0  0  0  0  0  0  0  0  0
   -2.8470   23.3440  -29.5300 C   0  0  0  0  0  0  0  0  0  0  0  0
   -2.7200   22.8280  -30.9120 N   0  0  0  0  0  0  0  0  0  0  0  0
   -1.7010   21.7680  -31.0990 C   0  0  0  0  0  0  0  0  0  0  0  0
   -2.3460   20.4190  -31.4410 C   0  0  0  0  0  0  0  0  0  0  0  0
   -3.1340   20.4970  -32.6950 N   0  0  0  0  0  0  0  0  0  0  0  0
   -4.0890   19.3700  -32.7840 C   0  0  0  0  0  0  0  0  0  0  0  0
   -5.1980   19.6880  -33.7920 C   0  0  0  0  0  0  0  0  0  0  0  0
   -6.5170   19.5360  -33.1600 N   0  0  0  0  0  0  0  0  0  0  0  0
   -7.0510   18.2320  -32.8640 C   0  0  0  0  0  0  0  0  0  0  0  0
   -6.3950   17.1900  -33.1390 O   0  0  0  0  0  0  0  0  0  0  0  0
   -8.3780   18.1030  -32.1670 C   0  0  0  0  0  0  0  0  0  0  0  0
   -9.2380   19.2620  -32.4440 N   0  0  0  0  0  0  0  0  0  0  0  0
   -8.5860   20.5190  -32.0440 C   0  0  0  0  0  0  0  0  0  0  0  0
   -7.2670   20.6930  -32.7470 C   0  0  0  0  0  0  0  0  0  0  0  0
   -6.8080   21.8540  -32.9220 O   0  0  0  0  0  0  0  0  0  0  0  0
   -3.7960   21.8140  -32.9030 C   0  0  0  0  0  0  0  0  0  0  0  0
   -4.0110   22.5760  -31.5880 C   0  0  0  0  0  0  0  0  0  0  0  0
   -6.1094   24.7848  -28.9414 H   0  0  0  0  0  0  0  0  0  0  0  0
   -7.2705   24.8710  -30.3094 H   0  0  0  0  0  0  0  0  0  0  0  0
   -5.9731   23.6286  -30.3094 H   0  0  0  0  0  0  0  0  0  0  0  0
   -5.4757   25.5614  -31.8372 H   0  0  0  0  0  0  0  0  0  0  0  0
   -5.5027   26.6558  -30.4164 H   0  0  0  0  0  0  0  0  0  0  0  0
   -3.6654   25.0365  -28.4471 H   0  0  0  0  0  0  0  0  0  0  0  0
   -4.8973   23.9620  -29.2085 H   0  0  0  0  0  0  0  0  0  0  0  0
   -1.8737   23.7600  -29.2307 H   0  0  0  0  0  0  0  0  0  0  0  0
   -3.1673   22.4917  -28.9127 H   0  0  0  0  0  0  0  0  0  0  0  0
   -1.0283   22.0601  -31.9188 H   0  0  0  0  0  0  0  0  0  0  0  0
   -1.1454   21.6547  -30.1564 H   0  0  0  0  0  0  0  0  0  0  0  0
   -1.5546   19.6647  -31.5622 H   0  0  0  0  0  0  0  0  0  0  0  0
   -3.0264   20.1436  -30.6218 H   0  0  0  0  0  0  0  0  0  0  0  0
   -3.5532   18.4656  -33.1080 H   0  0  0  0  0  0  0  0  0  0  0  0
   -4.5419   19.2071  -31.7949 H   0  0  0  0  0  0  0  0  0  0  0  0
   -5.0817   20.7230  -34.1458 H   0  0  0  0  0  0  0  0  0  0  0  0
   -5.1235   18.9909  -34.6397 H   0  0  0  0  0  0  0  0  0  0  0  0
   -8.8812   17.1904  -32.5191 H   0  0  0  0  0  0  0  0  0  0  0  0
   -8.1989   18.0530  -31.0828 H   0  0  0  0  0  0  0  0  0  0  0  0
   -9.4400   19.3000  -33.4740 H   0  0  0  0  0  0  0  0  0  0  0  0
   -9.2439   21.3624  -32.3007 H   0  0  0  0  0  0  0  0  0  0  0  0
   -8.4025   20.4877  -30.9599 H   0  0  0  0  0  0  0  0  0  0  0  0
   -3.1661   22.4250  -33.5662 H   0  0  0  0  0  0  0  0  0  0  0  0
   -4.7848   21.6256  -33.3465 H   0  0  0  0  0  0  0  0  0  0  0  0
   -4.4992   23.5378  -31.8038 H   0  0  0  0  0  0  0  0  0  0  0  0
   -4.6436   21.9666  -30.9258 H   0  0  0  0  0  0  0  0  0  0  0  0
  1  2  1  0
  2  3  1  0
  3  4  1  0
  4  5  1  0
  5  6  1  0
  6  7  1  0
  7  8  1  0
  8  9  1  0
  9 10  1  0
 10 11  1  0
 11 12  1  0
 12 13  1  0
 13 14  2  0
 13 15  1  0
 15 16  1  0
 16 17  1  0
 17 18  1  0
 18 19  2  0
  9 20  1  0
 20 21  1  0
 21  6  1  0
 18 12  1  0
  1 22  1  0
  1 23  1  0
  1 24  1  0
  2 25  1  0
  2 26  1  0
  4 27  1  0
  4 28  1  0
  5 29  1  0
  5 30  1  0
  7 31  1  0
  7 32  1  0
  8 33  1  0
  8 34  1  0
 10 35  1  0
 10 36  1  0
 11 37  1  0
 11 38  1  0
 15 39  1  0
 15 40  1  0
 16 41  1  0
 17 42  1  0
 17 43  1  0
 20 44  1  0
 20 45  1  0
 21 46  1  0
 21 47  1  0
M  END
>  <UniqueID>  (22) 
22

>  <SMILES>  (22) 
CCOCCN1CCN(CCN2C(=O)CNCC2=O)CC1

>  <Energy>  (22) 
56.801231579407066

>  <Genealogy>  (22) 
CCOCCN1CCN(CCN2C(=O)CNCC2=O)CC1 (3D coordinates assigned)
CCOCCN1CCN(CCN2C(=O)CNCC2=O)CC1 (nonaromatic ring conformer: 56.801231579407066 kcal/mol)

>  <smiles>  (22) 
CCOCCN1CCN(CCN2C(=O)CNCC2=O)CC1

>  <score_type>  (22) 
oracle

>  <origin>  (22) 
adg

>  <m_score__min__energy>  (22) 
-7.1600000000000001

>  <m_primary>  (22) 
energy

$$$$
22:0
     RDKit          3D

 40 41  0  0  0  0  0  0  0  0999 V2000
   -5.8750   25.2710  -29.4270 C   0  0  0  0  0  0  0  0  0  0  0  0
   -4.7750   24.9870  -30.4450 C   0  0  0  0  0  0  0  0  0  0  0  0
   -3.4870   25.2120  -29.8710 O   0  0  0  0  0  0  0  0  0  0  0  0
   -2.5190   24.2270  -29.6060 C   0  0  0  0  0  0  0  0  0  0  0  0
   -2.4620   23.0210  -30.3340 C   0  0  0  0  0  0  0  0  0  0  0  0
   -1.4940   22.0580  -30.0370 C   0  0  0  0  0  0  0  0  0  0  0  0
   -1.4330   20.4260  -31.0280 Br  0  0  0  0  0  0  0  0  0  0  0  0
   -0.5720   22.2860  -29.0130 C   0  0  0  0  0  0  0  0  0  0  0  0
   -0.6140   23.4770  -28.2880 C   0  0  0  0  0  0  0  0  0  0  0  0
   -1.5750   24.4570  -28.5810 C   0  0  0  0  0  0  0  0  0  0  0  0
   -1.6090   25.7170  -27.7480 C   0  0  0  0  0  0  0  0  0  0  0  0
   -0.8290   25.5310  -26.5080 N   0  0  0  0  0  0  0  0  0  0  0  0
   -0.5660   26.8360  -25.8630 C   0  0  0  0  0  0  0  0  0  0  0  0
   -0.1060   26.6840  -24.3940 C   0  0  0  0  0  0  0  0  0  0  0  0
    0.4200   25.3350  -24.0960 N   0  0  0  0  0  0  0  0  0  0  0  0
    1.7090   25.0910  -24.7730 C   0  0  0  0  0  0  0  0  0  0  0  0
   -0.5750   24.2720  -24.3950 C   0  0  0  0  0  0  0  0  0  0  0  0
   -1.5110   24.6230  -25.5700 C   0  0  0  0  0  0  0  0  0  0  0  0
   -5.4693   25.1662  -28.4099 H   0  0  0  0  0  0  0  0  0  0  0  0
   -6.2499   26.2954  -29.5685 H   0  0  0  0  0  0  0  0  0  0  0  0
   -6.6990   24.5561  -29.5685 H   0  0  0  0  0  0  0  0  0  0  0  0
   -4.8469   23.9391  -30.7717 H   0  0  0  0  0  0  0  0  0  0  0  0
   -4.9033   25.6634  -31.3029 H   0  0  0  0  0  0  0  0  0  0  0  0
   -3.1852   22.8367  -31.1421 H   0  0  0  0  0  0  0  0  0  0  0  0
    0.1877   21.5260  -28.7781 H   0  0  0  0  0  0  0  0  0  0  0  0
    0.1121   23.6495  -27.4799 H   0  0  0  0  0  0  0  0  0  0  0  0
   -1.1780   26.5469  -28.3271 H   0  0  0  0  0  0  0  0  0  0  0  0
   -2.6525   25.9444  -27.4844 H   0  0  0  0  0  0  0  0  0  0  0  0
    0.2210   27.3573  -26.4278 H   0  0  0  0  0  0  0  0  0  0  0  0
   -1.5065   27.4066  -25.8633 H   0  0  0  0  0  0  0  0  0  0  0  0
    0.6853   27.4218  -24.1952 H   0  0  0  0  0  0  0  0  0  0  0  0
   -0.9850   26.8463  -23.7528 H   0  0  0  0  0  0  0  0  0  0  0  0
    0.6150   25.3030  -23.0670 H   0  0  0  0  0  0  0  0  0  0  0  0
    2.4964   24.9419  -24.0195 H   0  0  0  0  0  0  0  0  0  0  0  0
    1.6285   24.1922  -25.4020 H   0  0  0  0  0  0  0  0  0  0  0  0
    1.9626   25.9571  -25.4020 H   0  0  0  0  0  0  0  0  0  0  0  0
   -0.0335   23.3476  -24.6445 H   0  0  0  0  0  0  0  0  0  0  0  0
   -1.2052   24.1558  -23.5009 H   0  0  0  0  0  0  0  0  0  0  0  0
   -1.7937   23.7003  -26.0978 H   0  0  0  0  0  0  0  0  0  0  0  0
   -2.4100   25.1206  -25.1773 H   0  0  0  0  0  0  0  0  0  0  0  0
  1  2  1  0
  2  3  1  0
  3  4  1  0
  4  5  2  0
  5  6  1  0
  6  7  1  0
  6  8  2  0
  8  9  1  0
  9 10  2  0
 10 11  1  0
 11 12  1  0
 12 13  1  0
 13 14  1  0
 14 15  1  0
 15 16  1  0
 15 17  1  0
 17 18  1  0
 10  4  1  0
 18 12  1  0
  1 19  1  0
  1 20  1  0
  1 21  1  0
  2 22  1  0
  2 23  1  0
  5 24  1  0
  8 25  1  0
  9 26  1  0
 11 27  1  0
 11 28  1  0
 13 29  1  0
 13 30  1  0
 14 31  1  0
 14 32  1  0
 15 33  1  0
 16 34  1  0
 16 35  1  0
 16 36  1  0
 17 37  1  0
 17 38  1  0
 18 39  1  0
 18 40  1  0
M  CHG  1  15   1
M  END
>  <UniqueID>  (23) 
23

>  <SMILES>  (23) 
CCOc1cc(Br)ccc1CN1CC[NH+](C)CC1

>  <Energy>  (23) 
47.012162526898145

>  <Genealogy>  (23) 
CCOc1cc(Br)ccc1CN1CC[NH+](C)CC1 (protonated)
CCOc1cc(Br)ccc1CN1CC[NH+](C)CC1 (3D coordinates assigned)
CCOc1cc(Br)ccc1CN1CC[NH+](C)CC1 (nonaromatic ring conformer: 47.012162526898145 kcal/mol)

>  <smiles>  (23) 
CCOc1cc(Br)ccc1CN1CCN(C)CC1

>  <score_type>  (23) 
oracle

>  <origin>  (23) 
adg

>  <m_score__min__energy>  (23) 
-6.1900000000000004

>  <m_primary>  (23) 
energy

$$$$
23:0
     RDKit          3D

 42 45  0  0  0  0  0  0  0  0999 V2000
   -0.2250   26.1570  -27.4730 C   0  0  0  0  0  0  0  0  0  0  0  0
   -0.8030   25.0930  -28.2800 N   0  0  0  0  0  0  0  0  0  0  0  0
   -2.1150   24.9010  -28.5080 C   0  0  0  0  0  0  0  0  0  0  0  0
   -2.2480   23.8390  -29.3830 C   0  0  0  0  0  0  0  0  0  0  0  0
   -3.5120   23.2580  -29.8990 C   0  0  0  0  0  0  0  0  0  0  0  0
   -4.5930   24.1040  -30.2090 C   0  0  0  0  0  0  0  0  0  0  0  0
   -5.7930   23.5780  -30.6930 C   0  0  0  0  0  0  0  0  0  0  0  0
   -5.9310   22.1980  -30.8900 C   0  0  0  0  0  0  0  0  0  0  0  0
   -7.2010   21.6380  -31.3960 C   0  0  0  0  0  0  0  0  0  0  0  0
   -8.3990   22.0410  -30.7920 C   0  0  0  0  0  0  0  0  0  0  0  0
   -9.6190   21.5660  -31.2660 C   0  0  0  0  0  0  0  0  0  0  0  0
   -9.6360   20.6880  -32.3470 C   0  0  0  0  0  0  0  0  0  0  0  0
   -8.4710   20.2880  -32.9230 N   0  0  0  0  0  0  0  0  0  0  0  0
   -7.2550   20.7200  -32.4740 C   0  0  0  0  0  0  0  0  0  0  0  0
   -5.7830   20.0950  -33.2420 S   0  0  0  0  0  0  0  0  0  0  0  0
   -4.7630   21.1910  -33.3620 O   0  0  0  0  0  0  0  0  0  0  0  0
   -6.1190   19.5750  -34.6120 O   0  0  0  0  0  0  0  0  0  0  0  0
   -5.0530   18.8050  -32.2300 C   0  0  0  0  0  0  0  0  0  0  0  0
   -5.1680   17.4070  -32.8150 C   0  0  0  0  0  0  0  0  0  0  0  0
   -6.0350   17.8110  -31.6320 C   0  0  0  0  0  0  0  0  0  0  0  0
   -4.8630   21.3470  -30.5750 C   0  0  0  0  0  0  0  0  0  0  0  0
   -3.6600   21.8680  -30.0900 C   0  0  0  0  0  0  0  0  0  0  0  0
   -2.6340   21.0140  -29.8490 F   0  0  0  0  0  0  0  0  0  0  0  0
   -0.9480   23.4340  -29.6490 C   0  0  0  0  0  0  0  0  0  0  0  0
   -0.0880   24.2190  -28.9720 N   0  0  0  0  0  0  0  0  0  0  0  0
   -0.3539   25.9197  -26.4067 H   0  0  0  0  0  0  0  0  0  0  0  0
    0.8471   26.2491  -27.7011 H   0  0  0  0  0  0  0  0  0  0  0  0
   -0.7313   27.1065  -27.7011 H   0  0  0  0  0  0  0  0  0  0  0  0
   -2.9384   25.4870  -28.0738 H   0  0  0  0  0  0  0  0  0  0  0  0
   -4.4919   25.1903  -30.0688 H   0  0  0  0  0  0  0  0  0  0  0  0
   -6.6334   24.2504  -30.9205 H   0  0  0  0  0  0  0  0  0  0  0  0
   -8.3758   22.7358  -29.9395 H   0  0  0  0  0  0  0  0  0  0  0  0
  -10.5600   21.8811  -30.7914 H   0  0  0  0  0  0  0  0  0  0  0  0
  -10.5955   20.3167  -32.7363 H   0  0  0  0  0  0  0  0  0  0  0  0
   -8.5280   19.6290  -33.7300 H   0  0  0  0  0  0  0  0  0  0  0  0
   -4.2368   19.4235  -31.8284 H   0  0  0  0  0  0  0  0  0  0  0  0
   -5.6228   17.2610  -33.8059 H   0  0  0  0  0  0  0  0  0  0  0  0
   -4.4621   16.5883  -33.0185 H   0  0  0  0  0  0  0  0  0  0  0  0
   -7.1168   17.9572  -31.7674 H   0  0  0  0  0  0  0  0  0  0  0  0
   -6.2159   17.4055  -30.6256 H   0  0  0  0  0  0  0  0  0  0  0  0
   -4.9722   20.2609  -30.7104 H   0  0  0  0  0  0  0  0  0  0  0  0
   -0.6639   22.6017  -30.3097 H   0  0  0  0  0  0  0  0  0  0  0  0
  1  2  1  0
  2  3  1  0
  3  4  2  0
  4  5  1  0
  5  6  2  0
  6  7  1  0
  7  8  2  0
  8  9  1  0
  9 10  2  0
 10 11  1  0
 11 12  2  0
 12 13  1  0
 13 14  2  0
 14 15  1  0
 15 16  2  0
 15 17  2  0
 15 18  1  0
 18 19  1  0
 19 20  1  0
  8 21  1  0
 21 22  2  0
 22 23  1  0
  4 24  1  0
 24 25  2  0
 25  2  1  0
 22  5  1  0
 14  9  1  0
 20 18  1  0
  1 26  1  0
  1 27  1  0
  1 28  1  0
  3 29  1  0
  6 30  1  0
  7 31  1  0
 10 32  1  0
 11 33  1  0
 12 34  1  0
 13 35  1  0
 18 36  1  0
 19 37  1  0
 19 38  1  0
 20 39  1  0
 20 40  1  0
 21 41  1  0
 24 42  1  0
M  CHG  1  13   1
M  END
>  <UniqueID>  (24) 
24

>  <SMILES>  (24) 
Cn1cc(-c2ccc(-c3ccc[nH+]c3S(=O)(=O)C3CC3)cc2F)cn1

>  <Energy>  (24) 
349.2671513718401

>  <Genealogy>  (24) 
Cn1cc(-c2ccc(-c3ccc[nH+]c3S(=O)(=O)C3CC3)cc2F)cn1 (protonated)
Cn1cc(-c2ccc(-c3ccc[nH+]c3S(=O)(=O)C3CC3)cc2F)cn1 (3D coordinates assigned)
Cn1cc(-c2ccc(-c3ccc[nH+]c3S(=O)(=O)C3CC3)cc2F)cn1 (nonaromatic ring conformer: 349.2671513718401 kcal/mol)

>  <smiles>  (24) 
Cn1cc(-c2ccc(-c3cccnc3S(=O)(=O)C3CC3)cc2F)cn1

>  <score_type>  (24) 
oracle

>  <origin>  (24) 
adg

>  <m_score__min__energy>  (24) 
-8.2200000000000006

>  <m_primary>  (24) 
energy

$$$$
24:0
     RDKit          3D

 54 56  0  0  0  0  0  0  0  0999 V2000
   -6.0330   24.9150  -29.6210 C   0  0  0  0  0  0  0  0  0  0  0  0
   -5.2620   25.3980  -30.8450 C   0  0  0  0  0  0  0  0  0  0  0  0
   -3.8940   25.0530  -30.7300 O   0  0  0  0  0  0  0  0  0  0  0  0
   -3.7550   23.7090  -30.3170 C   0  0  0  0  0  0  0  0  0  0  0  0
   -3.7810   22.8040  -31.5460 C   0  0  0  0  0  0  0  0  0  0  0  0
   -2.7580   21.8310  -31.4570 O   0  0  0  0  0  0  0  0  0  0  0  0
   -2.2030   21.5720  -32.7340 C   0  0  0  0  0  0  0  0  0  0  0  0
   -1.9850   20.0540  -32.9190 C   0  0  0  0  0  0  0  0  0  0  0  0
   -1.1610   19.4980  -31.7380 C   0  0  0  0  0  0  0  0  0  0  0  0
   -1.2100   19.8020  -34.2270 C   0  0  0  0  0  0  0  0  0  0  0  0
   -3.3270   19.3580  -33.0020 C   0  0  0  0  0  0  0  0  0  0  0  0
   -4.5030   19.9820  -32.7250 N   0  0  0  0  0  0  0  0  0  0  0  0
   -5.4040   19.0010  -32.9170 C   0  0  0  0  0  0  0  0  0  0  0  0
   -6.7960   19.0590  -32.7580 C   0  0  0  0  0  0  0  0  0  0  0  0
   -7.4920   20.3090  -32.3640 C   0  0  0  0  0  0  0  0  0  0  0  0
   -8.8380   20.2730  -31.9560 C   0  0  0  0  0  0  0  0  0  0  0  0
   -9.4970   21.4510  -31.5880 C   0  0  0  0  0  0  0  0  0  0  0  0
   -8.8230   22.6730  -31.6280 C   0  0  0  0  0  0  0  0  0  0  0  0
   -7.4880   22.7220  -32.0380 C   0  0  0  0  0  0  0  0  0  0  0  0
   -6.8240   21.5470  -32.4060 C   0  0  0  0  0  0  0  0  0  0  0  0
   -7.5150   17.8630  -32.9880 C   0  0  0  0  0  0  0  0  0  0  0  0
   -6.8470   16.6770  -33.3670 C   0  0  0  0  0  0  0  0  0  0  0  0
   -5.4400   16.6600  -33.5170 C   0  0  0  0  0  0  0  0  0  0  0  0
   -4.7180   15.5170  -33.8860 O   0  0  0  0  0  0  0  0  0  0  0  0
   -3.6800   14.9420  -33.1000 C   0  0  0  0  0  0  0  0  0  0  0  0
   -4.7650   17.8530  -33.2770 C   0  0  0  0  0  0  0  0  0  0  0  0
   -3.4810   18.0840  -33.3300 O   0  0  0  0  0  0  0  0  0  0  0  0
   -5.5130   25.2408  -28.7080 H   0  0  0  0  0  0  0  0  0  0  0  0
   -7.0479   25.3391  -29.6361 H   0  0  0  0  0  0  0  0  0  0  0  0
   -6.0942   23.8168  -29.6361 H   0  0  0  0  0  0  0  0  0  0  0  0
   -5.6806   24.9274  -31.7468 H   0  0  0  0  0  0  0  0  0  0  0  0
   -5.3509   26.4921  -30.9158 H   0  0  0  0  0  0  0  0  0  0  0  0
   -2.7993   23.5834  -29.7871 H   0  0  0  0  0  0  0  0  0  0  0  0
   -4.5811   23.4413  -29.6419 H   0  0  0  0  0  0  0  0  0  0  0  0
   -4.7572   22.3006  -31.6061 H   0  0  0  0  0  0  0  0  0  0  0  0
   -3.6181   23.4153  -32.4458 H   0  0  0  0  0  0  0  0  0  0  0  0
   -2.8904   21.9383  -33.5107 H   0  0  0  0  0  0  0  0  0  0  0  0
   -1.2351   22.0880  -32.8178 H   0  0  0  0  0  0  0  0  0  0  0  0
   -1.6230   19.8097  -30.7896 H   0  0  0  0  0  0  0  0  0  0  0  0
   -1.1388   18.3995  -31.7914 H   0  0  0  0  0  0  0  0  0  0  0  0
   -0.1340   19.8885  -31.7914 H   0  0  0  0  0  0  0  0  0  0  0  0
   -0.1885   19.4699  -33.9898 H   0  0  0  0  0  0  0  0  0  0  0  0
   -1.7219   19.0240  -34.8124 H   0  0  0  0  0  0  0  0  0  0  0  0
   -1.1664   20.7323  -34.8124 H   0  0  0  0  0  0  0  0  0  0  0  0
   -9.3751   19.3135  -31.9262 H   0  0  0  0  0  0  0  0  0  0  0  0
  -10.5483   21.4143  -31.2665 H   0  0  0  0  0  0  0  0  0  0  0  0
   -9.3430   23.5975  -31.3367 H   0  0  0  0  0  0  0  0  0  0  0  0
   -6.9586   23.6857  -32.0714 H   0  0  0  0  0  0  0  0  0  0  0  0
   -5.7737   21.5910  -32.7301 H   0  0  0  0  0  0  0  0  0  0  0  0
   -8.6087   17.8560  -32.8703 H   0  0  0  0  0  0  0  0  0  0  0  0
   -7.4257   15.7590  -33.5470 H   0  0  0  0  0  0  0  0  0  0  0  0
   -3.9136   15.0714  -32.0329 H   0  0  0  0  0  0  0  0  0  0  0  0
   -3.5973   13.8695  -33.3298 H   0  0  0  0  0  0  0  0  0  0  0  0
   -2.7269   15.4408  -33.3298 H   0  0  0  0  0  0  0  0  0  0  0  0
  1  2  1  0
  2  3  1  0
  3  4  1  0
  4  5  1  0
  5  6  1  0
  6  7  1  0
  7  8  1  0
  8  9  1  0
  8 10  1  0
  8 11  1  0
 11 12  2  0
 12 13  1  0
 13 14  2  0
 14 15  1  0
 15 16  2  0
 16 17  1  0
 17 18  2  0
 18 19  1  0
 19 20  2  0
 14 21  1  0
 21 22  2  0
 22 23  1  0
 23 24  1  0
 24 25  1  0
 23 26  2  0
 26 27  1  0
 27 11  1  0
 26 13  1  0
 20 15  1  0
  1 28  1  0
  1 29  1  0
  1 30  1  0
  2 31  1  0
  2 32  1  0
  4 33  1  0
  4 34  1  0
  5 35  1  0
  5 36  1  0
  7 37  1  0
  7 38  1  0
  9 39  1  0
  9 40  1  0
  9 41  1  0
 10 42  1  0
 10 43  1  0
 10 44  1  0
 16 45  1  0
 17 46  1  0
 18 47  1  0
 19 48  1  0
 20 49  1  0
 21 50  1  0
 22 51  1  0
 25 52  1  0
 25 53  1  0
 25 54  1  0
M  END
>  <UniqueID>  (25) 
25

>  <SMILES>  (25) 
CCOCCOCC(C)(C)c1nc2c(-c3ccccc3)ccc(OC)c2o1

>  <Energy>  (25) 
91.96525773060188

>  <Genealogy>  (25) 
CCOCCOCC(C)(C)c1nc2c(-c3ccccc3)ccc(OC)c2o1 (3D coordinates assigned)
CCOCCOCC(C)(C)c1nc2c(-c3ccccc3)ccc(OC)c2o1 (optimized conformer: 91.96525773060188 kcal/mol)

>  <smiles>  (25) 
CCOCCOCC(C)(C)c1nc2c(-c3ccccc3)ccc(OC)c2o1

>  <score_type>  (25) 
oracle

>  <origin>  (25) 
adg

>  <m_score__min__energy>  (25) 
-8.6099999999999994

>  <m_primary>  (25) 
energy

$$$$
25:0
     RDKit          3D

 56 60  0  0  0  0  0  0  0  0999 V2000
   -2.2280   21.4340  -30.5290 C   0  0  0  0  0  0  0  0  0  0  0  0
   -3.5600   21.7510  -29.8560 C   0  0  0  0  0  0  0  0  0  0  0  0
   -3.9880   23.1180  -30.1740 N   0  0  0  0  0  0  0  0  0  0  0  0
   -4.8310   23.4990  -31.1550 C   0  0  0  0  0  0  0  0  0  0  0  0
   -5.6130   22.3900  -32.3300 S   0  0  0  0  0  0  0  0  0  0  0  0
   -6.9850   22.0030  -31.1930 C   0  0  0  0  0  0  0  0  0  0  0  0
   -8.3150   22.0110  -31.9450 C   0  0  0  0  0  0  0  0  0  0  0  0
   -9.0640   20.6570  -31.9070 C   0  0  0  0  0  0  0  0  0  0  0  0
   -8.3570   19.4780  -32.4610 N   0  0  0  0  0  0  0  0  0  0  0  0
   -8.0170   18.3750  -31.5490 C   0  0  0  0  0  0  0  0  0  0  0  0
   -6.7910   17.6730  -32.1150 C   0  0  1  0  0  0  0  0  0  0  0  0
   -6.8650   17.1960  -33.5600 C   0  0  0  0  0  0  0  0  0  0  0  0
   -6.2780   18.5630  -33.2260 C   0  0  2  0  0  0  0  0  0  0  0  0
   -4.7830   18.7350  -33.3040 C   0  0  0  0  0  0  0  0  0  0  0  0
   -3.9470   17.6100  -33.2470 C   0  0  0  0  0  0  0  0  0  0  0  0
   -2.5600   17.7580  -33.3510 C   0  0  0  0  0  0  0  0  0  0  0  0
   -2.0010   19.0280  -33.5160 C   0  0  0  0  0  0  0  0  0  0  0  0
   -2.8280   20.1520  -33.5860 C   0  0  0  0  0  0  0  0  0  0  0  0
   -4.2150   20.0070  -33.4970 C   0  0  0  0  0  0  0  0  0  0  0  0
   -7.2020   19.7650  -33.3190 C   0  0  0  0  0  0  0  0  0  0  0  0
   -4.9480   24.8370  -31.2210 N   0  0  0  0  0  0  0  0  0  0  0  0
   -4.1650   25.3380  -30.2780 N   0  0  0  0  0  0  0  0  0  0  0  0
   -3.5890   24.2980  -29.6420 C   0  0  0  0  0  0  0  0  0  0  0  0
   -2.5750   24.4820  -28.5810 C   0  0  0  0  0  0  0  0  0  0  0  0
   -1.2140   24.5100  -28.9250 C   0  0  0  0  0  0  0  0  0  0  0  0
   -0.2530   24.6820  -27.9270 C   0  0  0  0  0  0  0  0  0  0  0  0
   -0.6350   24.8420  -26.6330 N   0  0  0  0  0  0  0  0  0  0  0  0
   -1.9460   24.8440  -26.2730 C   0  0  0  0  0  0  0  0  0  0  0  0
   -2.9390   24.6730  -27.2400 C   0  0  0  0  0  0  0  0  0  0  0  0
   -1.4628   21.2519  -29.7600 H   0  0  0  0  0  0  0  0  0  0  0  0
   -2.3383   20.5370  -31.1561 H   0  0  0  0  0  0  0  0  0  0  0  0
   -1.9225   22.2845  -31.1561 H   0  0  0  0  0  0  0  0  0  0  0  0
   -4.3222   21.0419  -30.2113 H   0  0  0  0  0  0  0  0  0  0  0  0
   -3.4362   21.6630  -28.7665 H   0  0  0  0  0  0  0  0  0  0  0  0
   -6.8225   21.0077  -30.7537 H   0  0  0  0  0  0  0  0  0  0  0  0
   -7.0179   22.7642  -30.3996 H   0  0  0  0  0  0  0  0  0  0  0  0
   -8.9627   22.7780  -31.4954 H   0  0  0  0  0  0  0  0  0  0  0  0
   -8.0844   22.2193  -33.0002 H   0  0  0  0  0  0  0  0  0  0  0  0
   -9.2993   20.4380  -30.8550 H   0  0  0  0  0  0  0  0  0  0  0  0
   -9.9381   20.7971  -32.5600 H   0  0  0  0  0  0  0  0  0  0  0  0
   -7.7936   18.7714  -30.5475 H   0  0  0  0  0  0  0  0  0  0  0  0
   -8.8588   17.6725  -31.4608 H   0  0  0  0  0  0  0  0  0  0  0  0
   -6.4345   17.1633  -31.2077 H   0  0  0  0  0  0  0  0  0  0  0  0
   -6.2089   16.3841  -33.9068 H   0  0  0  0  0  0  0  0  0  0  0  0
   -7.6643   16.8301  -34.2213 H   0  0  0  0  0  0  0  0  0  0  0  0
   -4.3836   16.6083  -33.1201 H   0  0  0  0  0  0  0  0  0  0  0  0
   -1.9082   16.8732  -33.3028 H   0  0  0  0  0  0  0  0  0  0  0  0
   -0.9096   19.1429  -33.5908 H   0  0  0  0  0  0  0  0  0  0  0  0
   -2.3869   21.1519  -33.7113 H   0  0  0  0  0  0  0  0  0  0  0  0
   -4.8648   20.8908  -33.5782 H   0  0  0  0  0  0  0  0  0  0  0  0
   -6.6839   20.6692  -32.9670 H   0  0  0  0  0  0  0  0  0  0  0  0
   -7.5162   19.9424  -34.3582 H   0  0  0  0  0  0  0  0  0  0  0  0
   -0.9066   24.3970  -29.9751 H   0  0  0  0  0  0  0  0  0  0  0  0
    0.8154   24.6880  -28.1888 H   0  0  0  0  0  0  0  0  0  0  0  0
   -2.2252   24.9806  -25.2178 H   0  0  0  0  0  0  0  0  0  0  0  0
   -4.0004   24.6880  -26.9516 H   0  0  0  0  0  0  0  0  0  0  0  0
  1  2  1  0
  2  3  1  0
  3  4  1  0
  4  5  1  0
  5  6  1  0
  6  7  1  0
  7  8  1  0
  8  9  1  0
  9 10  1  0
 10 11  1  0
 11 12  1  0
 12 13  1  0
 13 14  1  1
 14 15  2  0
 15 16  1  0
 16 17  2  0
 17 18  1  0
 18 19  2  0
 13 20  1  0
  4 21  2  0
 21 22  1  0
 22 23  2  0
 23 24  1  0
 24 25  2  0
 25 26  1  0
 26 27  2  0
 27 28  1  0
 28 29  2  0
 23  3  1  0
 29 24  1  0
 20  9  1  0
 13 11  1  0
 19 14  1  0
  1 30  1  0
  1 31  1  0
  1 32  1  0
  2 33  1  0
  2 34  1  0
  6 35  1  0
  6 36  1  0
  7 37  1  0
  7 38  1  0
  8 39  1  0
  8 40  1  0
 10 41  1  0
 10 42  1  0
 11 43  1  1
 12 44  1  0
 12 45  1  0
 15 46  1  0
 16 47  1  0
 17 48  1  0
 18 49  1  0
 19 50  1  0
 20 51  1  0
 20 52  1  0
 25 53  1  0
 26 54  1  0
 28 55  1  0
 29 56  1  0
M  END
>  <UniqueID>  (26) 
26

>  <SMILES>  (26) 
CCn1c(SCCCN2C[C@H]3C[C@@]3(c3ccccc3)C2)nnc1-c1ccncc1

>  <Energy>  (26) 
365.645639475614

>  <Genealogy>  (26) 
CCn1c(SCCCN2C[C@H]3C[C@@]3(c3ccccc3)C2)nnc1-c1ccncc1 (chirality)
CCn1c(SCCCN2C[C@H]3C[C@@]3(c3ccccc3)C2)nnc1-c1ccncc1 (3D coordinates assigned)
CCn1c(SCCCN2C[C@H]3C[C@@]3(c3ccccc3)C2)nnc1-c1ccncc1 (nonaromatic ring conformer: 365.645639475614 kcal/mol)

>  <smiles>  (26) 
CCn1c(SCCCN2CC3CC3(c3ccccc3)C2)nnc1-c1ccncc1

>  <score_type>  (26) 
oracle

>  <origin>  (26) 
adg

>  <m_score__min__energy>  (26) 
-10.08

>  <m_primary>  (26) 
energy

$$$$
