0:0
     RDKit          3D

 33 33  0  0  0  0  0  0  0  0999 V2000
   -9.4060   21.4370  -31.9540 C   0  0  0  0  0  0  0  0  0  0  0  0
   -8.5940   20.3160  -31.3720 C   0  0  0  0  0  0  0  0  0  0  0  0
   -8.0980   19.3290  -32.3910 C   0  0  0  0  0  0  0  0  0  0  0  0
   -7.3560   19.9710  -33.4620 N   0  0  0  0  0  0  0  0  0  0  0  0
   -6.1800   19.1960  -33.8260 C   0  0  0  0  0  0  0  0  0  0  0  0
   -4.9020   19.9000  -33.4360 C   0  0  0  0  0  0  0  0  0  0  0  0
   -5.0790   21.1620  -32.7590 C   0  0  0  0  0  0  0  0  0  0  0  0
   -5.2330   22.2620  -32.1690 O   0  0  0  0  0  0  0  0  0  0  0  0
   -5.4040   23.3150  -31.4460 C   0  0  0  0  0  0  0  0  0  0  0  0
   -6.6950   23.5280  -30.8900 C   0  0  0  0  0  0  0  0  0  0  0  0
   -6.9390   24.6300  -30.1090 C   0  0  0  0  0  0  0  0  0  0  0  0
   -5.8430   25.4930  -29.9190 C   0  0  0  0  0  0  0  0  0  0  0  0
   -4.6120   25.2870  -30.4530 C   0  0  0  0  0  0  0  0  0  0  0  0
   -4.4240   24.1990  -31.2040 N   0  0  0  0  0  0  0  0  0  0  0  0
   -9.8401   22.0363  -31.1401 H   0  0  0  0  0  0  0  0  0  0  0  0
   -8.7590   22.0748  -32.5741 H   0  0  0  0  0  0  0  0  0  0  0  0
  -10.2138   21.0211  -32.5741 H   0  0  0  0  0  0  0  0  0  0  0  0
   -7.7236   20.7497  -30.8580 H   0  0  0  0  0  0  0  0  0  0  0  0
   -9.2564   19.7636  -30.6893 H   0  0  0  0  0  0  0  0  0  0  0  0
   -7.4404   18.6033  -31.8902 H   0  0  0  0  0  0  0  0  0  0  0  0
   -8.9741   18.8351  -32.8365 H   0  0  0  0  0  0  0  0  0  0  0  0
   -7.1470   20.9140  -33.1040 H   0  0  0  0  0  0  0  0  0  0  0  0
   -7.9630   20.0450  -34.3080 H   0  0  0  0  0  0  0  0  0  0  0  0
   -6.2216   18.2236  -33.3134 H   0  0  0  0  0  0  0  0  0  0  0  0
   -6.1799   19.0672  -34.9184 H   0  0  0  0  0  0  0  0  0  0  0  0
   -4.3353   19.2328  -32.7699 H   0  0  0  0  0  0  0  0  0  0  0  0
   -4.3794   20.1283  -34.3766 H   0  0  0  0  0  0  0  0  0  0  0  0
    0.0000    0.0000    0.0000 H   0  0  0  0  0  0  0  0  0  0  0  0
   -3.9950   21.3419  -32.8109 H   0  0  0  0  0  0  0  0  0  0  0  0
   -7.5018   22.8066  -31.0866 H   0  0  0  0  0  0  0  0  0  0  0  0
   -7.9247   24.8257  -29.6616 H   0  0  0  0  0  0  0  0  0  0  0  0
   -5.9934   26.3895  -29.2996 H   0  0  0  0  0  0  0  0  0  0  0  0
   -3.7916   25.9971  -30.2719 H   0  0  0  0  0  0  0  0  0  0  0  0
  1  2  1  0
  2  3  1  0
  3  4  1  0
  4  5  1  0
  5  6  1  0
  6  7  1  0
  7  8  1  0
  8  9  1  0
  9 10  2  0
 10 11  1  0
 11 12  2  0
 12 13  1  0
 13 14  2  0
 14  9  1  0
  1 15  1  0
  1 16  1  0
  1 17  1  0
  2 18  1  0
  2 19  1  0
  3 20  1  0
  3 21  1  0
  4 22  1  0
  4 23  1  0
  5 24  1  0
  5 25  1  0
  6 26  1  0
  6 27  1  0
  7 28  1  0
  7 29  1  0
 10 30  1  0
 11 31  1  0
 12 32  1  0
 13 33  1  0
M  CHG  1   4   1
M  END
>  <UniqueID>  (1) 
1

>  <SMILES>  (1) 
CCC[NH2+]CCCOc1ccccn1

>  <Energy>  (1) 
293.1241217498695

>  <Genealogy>  (1) 
CCC[NH2+]CCCOc1ccccn1 (protonated)
CCC[NH2+]CCCOc1ccccn1 (3D coordinates assigned)
CCC[NH2+]CCCOc1ccccn1 (optimized conformer: 293.1241217498695 kcal/mol)

>  <smiles>  (1) 
CCCNCCCOc1ccccn1

>  <score_type>  (1) 
oracle

>  <origin>  (1) 
adg

>  <m_score__min__energy>  (1) 
-4.4900000000000002

>  <m_primary>  (1) 
energy

$$$$
1:0
     RDKit          3D

 34 36  0  0  0  0  0  0  0  0999 V2000
   -3.6829   21.8411  -30.8367 H   0  0  0  0  0  0  0  0  0  0  0  0
   -4.3310   22.6300  -31.2460 C   0  0  0  0  0  0  0  0  0  0  0  0
   -4.3130   23.9680  -30.6140 C   0  0  0  0  0  0  0  0  0  0  0  0
   -4.8330   24.9470  -31.2180 O   0  0  0  0  0  0  0  0  0  0  0  0
   -3.6740   24.1900  -29.2940 C   0  0  0  0  0  0  0  0  0  0  0  0
   -2.2770   24.3280  -29.1690 C   0  0  0  0  0  0  0  0  0  0  0  0
   -1.6408   24.2772  -30.0649 H   0  0  0  0  0  0  0  0  0  0  0  0
   -1.6940   24.5290  -27.9140 C   0  0  0  0  0  0  0  0  0  0  0  0
   -0.6031   24.6410  -27.8275 H   0  0  0  0  0  0  0  0  0  0  0  0
   -2.4930   24.5880  -26.7700 C   0  0  0  0  0  0  0  0  0  0  0  0
   -2.0321   24.7510  -25.7846 H   0  0  0  0  0  0  0  0  0  0  0  0
   -3.8770   24.4400  -26.8780 C   0  0  0  0  0  0  0  0  0  0  0  0
   -4.5056   24.4823  -25.9763 H   0  0  0  0  0  0  0  0  0  0  0  0
   -4.4660   24.2380  -28.1310 C   0  0  0  0  0  0  0  0  0  0  0  0
   -5.5565   24.1157  -28.2080 H   0  0  0  0  0  0  0  0  0  0  0  0
   -5.1080   22.3460  -32.2980 C   0  0  0  0  0  0  0  0  0  0  0  0
   -4.6576   22.3094  -33.3009 H   0  0  0  0  0  0  0  0  0  0  0  0
   -6.5550   22.0800  -32.1500 C   0  0  0  0  0  0  0  0  0  0  0  0
   -7.4070   23.1910  -32.0500 C   0  0  0  0  0  0  0  0  0  0  0  0
   -6.9792   24.2043  -32.0385 H   0  0  0  0  0  0  0  0  0  0  0  0
   -8.7890   23.0260  -31.9650 C   0  0  0  0  0  0  0  0  0  0  0  0
   -9.4423   23.9083  -31.8960 H   0  0  0  0  0  0  0  0  0  0  0  0
   -9.3460   21.7500  -31.9670 C   0  0  0  0  0  0  0  0  0  0  0  0
  -10.4383   21.6294  -31.9197 H   0  0  0  0  0  0  0  0  0  0  0  0
   -8.5210   20.6180  -32.0290 C   0  0  0  0  0  0  0  0  0  0  0  0
   -9.0900   19.3360  -31.9990 C   0  0  0  0  0  0  0  0  0  0  0  0
  -10.1834   19.2228  -31.9588 H   0  0  0  0  0  0  0  0  0  0  0  0
   -8.2740   18.2030  -32.0200 C   0  0  0  0  0  0  0  0  0  0  0  0
   -8.7260   17.2003  -32.0065 H   0  0  0  0  0  0  0  0  0  0  0  0
   -6.8870   18.3410  -32.0580 C   0  0  0  0  0  0  0  0  0  0  0  0
   -6.2480   17.4457  -32.0620 H   0  0  0  0  0  0  0  0  0  0  0  0
   -6.3050   19.6100  -32.0910 C   0  0  0  0  0  0  0  0  0  0  0  0
   -5.2094   19.7065  -32.1078 H   0  0  0  0  0  0  0  0  0  0  0  0
   -7.1090   20.7700  -32.1030 C   0  0  0  0  0  0  0  0  0  0  0  0
  1  2  1  0
  2  3  1  0
  3  4  2  0
  3  5  1  0
  5  6  2  0
  6  7  1  0
  6  8  1  0
  8  9  1  0
  8 10  2  0
 10 11  1  0
 10 12  1  0
 12 13  1  0
 12 14  2  0
 14 15  1  0
  2 16  2  0
 16 17  1  0
 16 18  1  0
 18 19  2  0
 19 20  1  0
 19 21  1  0
 21 22  1  0
 21 23  2  0
 23 24  1  0
 23 25  1  0
 25 26  2  0
 26 27  1  0
 26 28  1  0
 28 29  1  0
 28 30  2  0
 30 31  1  0
 30 32  1  0
 32 33  1  0
 32 34  2  0
 14  5  1  0
 34 18  1  0
 34 25  1  0
M  END
>  <UniqueID>  (2) 
2

>  <SMILES>  (2) 
O=C(/C=C/c1cccc2ccccc12)c1ccccc1

>  <Energy>  (2) 
49.82498415353785

>  <Genealogy>  (2) 
O=C(/C=C/c1cccc2ccccc12)c1ccccc1 (cis-trans isomerization)
O=C(/C=C/c1cccc2ccccc12)c1ccccc1 (3D coordinates assigned)
O=C(/C=C/c1cccc2ccccc12)c1ccccc1 (optimized conformer: 49.82498415353785 kcal/mol)

>  <smiles>  (2) 
O=C(C=Cc1cccc2ccccc12)c1ccccc1

>  <score_type>  (2) 
oracle

>  <origin>  (2) 
adg

>  <m_score__min__energy>  (2) 
-8.9900000000000002

>  <m_primary>  (2) 
energy

$$$$
2:0
     RDKit          3D

 53 57  0  0  0  0  0  0  0  0999 V2000
    3.2420   19.2240  -33.2610 C   0  0  0  0  0  0  0  0  0  0  0  0
    2.4180   19.9110  -34.1650 O   0  0  0  0  0  0  0  0  0  0  0  0
    1.0880   20.1470  -33.8550 C   0  0  0  0  0  0  0  0  0  0  0  0
    0.6800   19.9210  -32.5570 C   0  0  0  0  0  0  0  0  0  0  0  0
   -0.6520   20.1580  -32.2440 C   0  0  0  0  0  0  0  0  0  0  0  0
   -1.5510   20.6060  -33.1940 C   0  0  0  0  0  0  0  0  0  0  0  0
   -2.8880   20.8120  -32.7540 N   0  0  0  0  0  0  0  0  0  0  0  0
   -3.2700   21.9110  -32.0950 N   0  0  0  0  0  0  0  0  0  0  0  0
   -4.5820   21.8330  -31.8080 C   0  0  0  0  0  0  0  0  0  0  0  0
   -5.3980   22.8150  -31.1010 C   0  0  0  0  0  0  0  0  0  0  0  0
   -4.9950   24.1340  -31.1730 C   0  0  0  0  0  0  0  0  0  0  0  0
   -5.7150   25.1240  -30.5290 C   0  0  0  0  0  0  0  0  0  0  0  0
   -6.8400   24.7610  -29.8190 C   0  0  0  0  0  0  0  0  0  0  0  0
   -7.2510   23.4540  -29.7390 C   0  0  0  0  0  0  0  0  0  0  0  0
   -6.5280   22.4810  -30.3820 C   0  0  0  0  0  0  0  0  0  0  0  0
   -5.0130   20.6580  -32.3030 N   0  0  0  0  0  0  0  0  0  0  0  0
   -6.3240   20.0960  -32.2640 C   0  0  0  0  0  0  0  0  0  0  0  0
   -6.4880   18.8690  -31.6460 C   0  0  0  0  0  0  0  0  0  0  0  0
   -7.7150   18.2380  -31.5550 C   0  0  0  0  0  0  0  0  0  0  0  0
   -8.8060   18.8690  -32.1050 C   0  0  0  0  0  0  0  0  0  0  0  0
   -8.6610   20.0960  -32.7270 C   0  0  0  0  0  0  0  0  0  0  0  0
   -7.4190   20.7320  -32.8180 C   0  0  0  0  0  0  0  0  0  0  0  0
   -3.9640   20.0160  -32.8940 C   0  0  0  0  0  0  0  0  0  0  0  0
   -3.9760   18.7160  -33.5570 C   0  0  0  0  0  0  0  0  0  0  0  0
   -4.9120   18.5650  -34.5860 C   0  0  0  0  0  0  0  0  0  0  0  0
   -5.0180   17.3780  -35.2900 C   0  0  0  0  0  0  0  0  0  0  0  0
   -4.1610   16.3440  -34.9350 C   0  0  0  0  0  0  0  0  0  0  0  0
   -3.2420   16.5090  -33.9190 C   0  0  0  0  0  0  0  0  0  0  0  0
   -3.1250   17.6850  -33.2090 C   0  0  0  0  0  0  0  0  0  0  0  0
   -1.1420   20.8330  -34.4950 C   0  0  0  0  0  0  0  0  0  0  0  0
    0.1890   20.5940  -34.7960 C   0  0  0  0  0  0  0  0  0  0  0  0
    2.9441   19.4724  -32.2317 H   0  0  0  0  0  0  0  0  0  0  0  0
    3.1389   18.1406  -33.4213 H   0  0  0  0  0  0  0  0  0  0  0  0
    4.2891   19.5203  -33.4213 H   0  0  0  0  0  0  0  0  0  0  0  0
    1.3874   19.5643  -31.7939 H   0  0  0  0  0  0  0  0  0  0  0  0
   -1.0004   19.9851  -31.2150 H   0  0  0  0  0  0  0  0  0  0  0  0
   -4.0947   24.3992  -31.7468 H   0  0  0  0  0  0  0  0  0  0  0  0
   -5.3977   26.1759  -30.5820 H   0  0  0  0  0  0  0  0  0  0  0  0
   -7.4228   25.5387  -29.3037 H   0  0  0  0  0  0  0  0  0  0  0  0
   -8.1512   23.1890  -29.1650 H   0  0  0  0  0  0  0  0  0  0  0  0
   -6.8501   21.4308  -30.3243 H   0  0  0  0  0  0  0  0  0  0  0  0
   -5.6070   18.3757  -31.2096 H   0  0  0  0  0  0  0  0  0  0  0  0
   -7.8152   17.2617  -31.0582 H   0  0  0  0  0  0  0  0  0  0  0  0
   -9.7977   18.3963  -32.0501 H   0  0  0  0  0  0  0  0  0  0  0  0
   -9.5459   20.5842  -33.1614 H   0  0  0  0  0  0  0  0  0  0  0  0
   -7.3166   21.7080  -33.3150 H   0  0  0  0  0  0  0  0  0  0  0  0
   -5.5756   19.4047  -34.8401 H   0  0  0  0  0  0  0  0  0  0  0  0
   -5.7528   17.2580  -36.0997 H   0  0  0  0  0  0  0  0  0  0  0  0
   -4.2155   15.3840  -35.4692 H   0  0  0  0  0  0  0  0  0  0  0  0
   -2.5772   15.6700  -33.6658 H   0  0  0  0  0  0  0  0  0  0  0  0
   -2.3868   17.7973  -32.4013 H   0  0  0  0  0  0  0  0  0  0  0  0
   -1.8460   21.1895  -35.2613 H   0  0  0  0  0  0  0  0  0  0  0  0
    0.5397   20.7678  -35.8240 H   0  0  0  0  0  0  0  0  0  0  0  0
  1  2  1  0
  2  3  1  0
  3  4  2  0
  4  5  1  0
  5  6  2  0
  6  7  1  0
  7  8  1  0
  8  9  2  0
  9 10  1  0
 10 11  2  0
 11 12  1  0
 12 13  2  0
 13 14  1  0
 14 15  2  0
  9 16  1  0
 16 17  1  0
 17 18  2  0
 18 19  1  0
 19 20  2  0
 20 21  1  0
 21 22  2  0
 16 23  1  0
 23 24  1  0
 24 25  2  0
 25 26  1  0
 26 27  2  0
 27 28  1  0
 28 29  2  0
  6 30  1  0
 30 31  2  0
 31  3  1  0
 23  7  2  0
 29 24  1  0
 15 10  1  0
 22 17  1  0
  1 32  1  0
  1 33  1  0
  1 34  1  0
  4 35  1  0
  5 36  1  0
 11 37  1  0
 12 38  1  0
 13 39  1  0
 14 40  1  0
 15 41  1  0
 18 42  1  0
 19 43  1  0
 20 44  1  0
 21 45  1  0
 22 46  1  0
 25 47  1  0
 26 48  1  0
 27 49  1  0
 28 50  1  0
 29 51  1  0
 30 52  1  0
 31 53  1  0
M  CHG  1   7   1
M  END
>  <smiles>  (3) 
COc1ccc(-[n+]2nc(-c3ccccc3)n(-c3ccccc3)c2-c2ccccc2)cc1

>  <score_type>  (3) 
oracle

>  <origin>  (3) 
adg

>  <m_score__min__energy>  (3) 
-8.5999999999999996

>  <m_primary>  (3) 
energy

$$$$
3:0
     RDKit          3D

 63 65  0  0  0  0  0  0  0  0999 V2000
   -9.0290   18.5620  -31.5090 C   0  0  0  0  0  0  0  0  0  0  0  0
   -7.6080   18.4770  -31.5160 O   0  0  0  0  0  0  0  0  0  0  0  0
   -6.8420   18.0820  -32.6250 C   0  0  0  0  0  0  0  0  0  0  0  0
   -6.8610   16.7610  -33.1160 C   0  0  0  0  0  0  0  0  0  0  0  0
   -6.0900   16.4100  -34.2280 C   0  0  0  0  0  0  0  0  0  0  0  0
   -5.2920   17.3670  -34.8580 C   0  0  0  0  0  0  0  0  0  0  0  0
   -5.2650   18.6790  -34.3780 C   0  0  0  0  0  0  0  0  0  0  0  0
   -6.0340   19.0400  -33.2650 C   0  0  0  0  0  0  0  0  0  0  0  0
   -5.9960   20.3930  -32.7950 N   0  0  0  0  0  0  0  0  0  0  0  0
   -7.2560   21.1090  -32.5810 C   0  0  0  0  0  0  0  0  0  0  0  0
   -7.0710   22.1790  -31.5030 C   0  0  0  0  0  0  0  0  0  0  0  0
   -5.9070   23.0200  -31.8400 N   0  0  0  0  0  0  0  0  0  0  0  0
   -5.8200   24.2580  -31.0320 C   0  0  0  0  0  0  0  0  0  0  0  0
   -4.4890   24.4420  -30.2500 C   0  0  1  0  0  0  0  0  0  0  0  0
   -3.8700   25.6620  -30.5730 O   0  0  0  0  0  0  0  0  0  0  0  0
   -4.7330   24.3520  -28.7320 C   0  0  0  0  0  0  0  0  0  0  0  0
   -3.5420   24.6670  -28.0050 O   0  0  0  0  0  0  0  0  0  0  0  0
   -2.6500   23.7550  -27.4140 C   0  0  0  0  0  0  0  0  0  0  0  0
   -2.7150   22.3710  -27.6780 C   0  0  0  0  0  0  0  0  0  0  0  0
   -1.8080   21.4830  -27.0850 C   0  0  0  0  0  0  0  0  0  0  0  0
   -1.8720   20.0190  -27.4090 C   0  0  0  0  0  0  0  0  0  0  0  0
   -0.8020   21.9800  -26.2500 C   0  0  0  0  0  0  0  0  0  0  0  0
   -0.7180   23.3470  -25.9900 C   0  0  0  0  0  0  0  0  0  0  0  0
   -1.6450   24.2480  -26.5490 C   0  0  0  0  0  0  0  0  0  0  0  0
   -1.5300   25.7370  -26.2530 C   0  0  0  0  0  0  0  0  0  0  0  0
   -0.6850   26.4400  -27.3230 C   0  0  0  0  0  0  0  0  0  0  0  0
   -0.9630   25.9940  -24.8480 C   0  0  0  0  0  0  0  0  0  0  0  0
   -4.6660   22.2270  -31.8620 C   0  0  0  0  0  0  0  0  0  0  0  0
   -4.7600   21.1630  -32.9560 C   0  0  0  0  0  0  0  0  0  0  0  0
   -9.3899   18.5836  -30.4701 H   0  0  0  0  0  0  0  0  0  0  0  0
   -9.3439   19.4806  -32.0257 H   0  0  0  0  0  0  0  0  0  0  0  0
   -9.4512   17.6875  -32.0257 H   0  0  0  0  0  0  0  0  0  0  0  0
   -7.4857   16.0024  -32.6217 H   0  0  0  0  0  0  0  0  0  0  0  0
   -6.1120   15.3778  -34.6075 H   0  0  0  0  0  0  0  0  0  0  0  0
   -4.6848   17.0882  -35.7318 H   0  0  0  0  0  0  0  0  0  0  0  0
   -4.6367   19.4317  -34.8768 H   0  0  0  0  0  0  0  0  0  0  0  0
   -7.5672   21.5883  -33.5209 H   0  0  0  0  0  0  0  0  0  0  0  0
   -8.0268   20.3955  -32.2542 H   0  0  0  0  0  0  0  0  0  0  0  0
   -7.9733   22.8059  -31.4499 H   0  0  0  0  0  0  0  0  0  0  0  0
   -6.9038   21.6942  -30.5299 H   0  0  0  0  0  0  0  0  0  0  0  0
   -5.9388   25.1164  -31.7096 H   0  0  0  0  0  0  0  0  0  0  0  0
   -6.6137   24.1858  -30.2738 H   0  0  0  0  0  0  0  0  0  0  0  0
   -3.8123   23.6275  -30.5480 H   0  0  0  0  0  0  0  0  0  0  0  0
   -3.4930   26.0420  -29.7380 H   0  0  0  0  0  0  0  0  0  0  0  0
   -5.5248   25.0622  -28.4516 H   0  0  0  0  0  0  0  0  0  0  0  0
   -5.0348   23.3236  -28.4845 H   0  0  0  0  0  0  0  0  0  0  0  0
   -3.4878   21.9838  -28.3583 H   0  0  0  0  0  0  0  0  0  0  0  0
   -1.8974   19.4376  -26.4755 H   0  0  0  0  0  0  0  0  0  0  0  0
   -2.7800   19.8124  -27.9945 H   0  0  0  0  0  0  0  0  0  0  0  0
   -0.9855   19.7339  -27.9945 H   0  0  0  0  0  0  0  0  0  0  0  0
   -0.0748   21.2900  -25.7970 H   0  0  0  0  0  0  0  0  0  0  0  0
    0.0833   23.7272  -25.3393 H   0  0  0  0  0  0  0  0  0  0  0  0
   -2.5448   26.1607  -26.2798 H   0  0  0  0  0  0  0  0  0  0  0  0
    0.0731   27.0707  -26.8356 H   0  0  0  0  0  0  0  0  0  0  0  0
   -0.1867   25.6863  -27.9503 H   0  0  0  0  0  0  0  0  0  0  0  0
   -1.3355   27.0672  -27.9503 H   0  0  0  0  0  0  0  0  0  0  0  0
   -1.6913   25.6639  -24.0926 H   0  0  0  0  0  0  0  0  0  0  0  0
   -0.0251   25.4330  -24.7228 H   0  0  0  0  0  0  0  0  0  0  0  0
   -0.7667   27.0691  -24.7228 H   0  0  0  0  0  0  0  0  0  0  0  0
   -3.8116   22.8889  -32.0668 H   0  0  0  0  0  0  0  0  0  0  0  0
   -4.5260   21.7383  -30.8865 H   0  0  0  0  0  0  0  0  0  0  0  0
   -4.7600   21.6516  -33.9415 H   0  0  0  0  0  0  0  0  0  0  0  0
   -3.8972   20.4851  -32.8782 H   0  0  0  0  0  0  0  0  0  0  0  0
  1  2  1  0
  2  3  1  0
  3  4  2  0
  4  5  1  0
  5  6  2  0
  6  7  1  0
  7  8  2  0
  8  9  1  0
  9 10  1  0
 10 11  1  0
 11 12  1  0
 12 13  1  0
 13 14  1  0
 14 15  1  0
 14 16  1  0
 16 17  1  0
 17 18  1  0
 18 19  2  0
 19 20  1  0
 20 21  1  0
 20 22  2  0
 22 23  1  0
 23 24  2  0
 24 25  1  0
 25 26  1  0
 25 27  1  0
 12 28  1  0
 28 29  1  0
  8  3  1  0
 29  9  1  0
 24 18  1  0
  1 30  1  0
  1 31  1  0
  1 32  1  0
  4 33  1  0
  5 34  1  0
  6 35  1  0
  7 36  1  0
 10 37  1  0
 10 38  1  0
 11 39  1  0
 11 40  1  0
 13 41  1  0
 13 42  1  0
 14 43  1  6
 15 44  1  0
 16 45  1  0
 16 46  1  0
 19 47  1  0
 21 48  1  0
 21 49  1  0
 21 50  1  0
 22 51  1  0
 23 52  1  0
 25 53  1  0
 26 54  1  0
 26 55  1  0
 26 56  1  0
 27 57  1  0
 27 58  1  0
 27 59  1  0
 28 60  1  0
 28 61  1  0
 29 62  1  0
 29 63  1  0
M  END
>  <UniqueID>  (4) 
3

>  <SMILES>  (4) 
COc1ccccc1N1CCN(C[C@@H](O)COc2cc(C)ccc2C(C)C)CC1

>  <Energy>  (4) 
69.5561947635273

>  <Genealogy>  (4) 
COc1ccccc1N1CCN(C[C@@H](O)COc2cc(C)ccc2C(C)C)CC1 (chirality)
COc1ccccc1N1CCN(C[C@@H](O)COc2cc(C)ccc2C(C)C)CC1 (3D coordinates assigned)
COc1ccccc1N1CCN(C[C@@H](O)COc2cc(C)ccc2C(C)C)CC1 (nonaromatic ring conformer: 69.5561947635273 kcal/mol)

>  <smiles>  (4) 
COc1ccccc1N1CCN(CC(O)COc2cc(C)ccc2C(C)C)CC1

>  <score_type>  (4) 
oracle

>  <origin>  (4) 
adg

>  <m_score__min__energy>  (4) 
-9.5199999999999996

>  <m_primary>  (4) 
energy

$$$$
4:0
     RDKit          3D

 39 40  0  0  0  0  0  0  0  0999 V2000
   -9.8450   21.2740  -31.9980 C   0  0  0  0  0  0  0  0  0  0  0  0
   -8.6510   20.3610  -32.0630 C   0  0  0  0  0  0  0  0  0  0  0  0
   -8.8480   19.0120  -32.3970 C   0  0  0  0  0  0  0  0  0  0  0  0
   -7.7730   18.1270  -32.4310 C   0  0  0  0  0  0  0  0  0  0  0  0
   -6.4850   18.5760  -32.1480 C   0  0  0  0  0  0  0  0  0  0  0  0
   -6.2510   19.9300  -31.8430 C   0  0  0  0  0  0  0  0  0  0  0  0
   -4.9570   20.4240  -31.5930 O   0  0  0  0  0  0  0  0  0  0  0  0
   -4.0860   21.0130  -32.5590 C   0  0  0  0  0  0  0  0  0  0  0  0
   -3.4260   22.2950  -32.0290 C   0  0  0  0  0  0  0  0  0  0  0  0
   -2.7650   22.0720  -30.7220 N   0  0  0  0  0  0  0  0  0  0  0  0
   -1.4900   21.3610  -30.9240 C   0  0  0  0  0  0  0  0  0  0  0  0
   -2.5430   23.3350  -29.9770 C   0  0  0  0  0  0  0  0  0  0  0  0
   -3.7820   24.1760  -30.0040 C   0  0  0  0  0  0  0  0  0  0  0  0
   -4.9410   23.9070  -29.3060 C   0  0  0  0  0  0  0  0  0  0  0  0
   -5.8140   24.9210  -29.6320 C   0  0  0  0  0  0  0  0  0  0  0  0
   -5.1370   25.7420  -30.5120 C   0  0  0  0  0  0  0  0  0  0  0  0
   -3.9290   25.2690  -30.7160 O   0  0  0  0  0  0  0  0  0  0  0  0
   -7.3400   20.8310  -31.7970 C   0  0  0  0  0  0  0  0  0  0  0  0
   -7.1080   22.2120  -31.4680 N   0  0  0  0  0  0  0  0  0  0  0  0
   -7.5060   22.6760  -30.3800 O   0  0  0  0  0  0  0  0  0  0  0  0
   -6.3960   23.0230  -32.3210 O   0  0  0  0  0  0  0  0  0  0  0  0
  -10.1004   21.4693  -30.9460 H   0  0  0  0  0  0  0  0  0  0  0  0
   -9.6082   22.2236  -32.5002 H   0  0  0  0  0  0  0  0  0  0  0  0
  -10.6994   20.7967  -32.5002 H   0  0  0  0  0  0  0  0  0  0  0  0
   -9.8596   18.6508  -32.6338 H   0  0  0  0  0  0  0  0  0  0  0  0
   -7.9417   17.0695  -32.6823 H   0  0  0  0  0  0  0  0  0  0  0  0
   -5.6443   17.8668  -32.1630 H   0  0  0  0  0  0  0  0  0  0  0  0
   -3.2994   20.2886  -32.8171 H   0  0  0  0  0  0  0  0  0  0  0  0
   -4.6859   21.2784  -33.4420 H   0  0  0  0  0  0  0  0  0  0  0  0
   -2.6733   22.6349  -32.7556 H   0  0  0  0  0  0  0  0  0  0  0  0
   -4.2114   23.0527  -31.8908 H   0  0  0  0  0  0  0  0  0  0  0  0
   -1.0486   21.1149  -29.9470 H   0  0  0  0  0  0  0  0  0  0  0  0
   -1.6723   20.4343  -31.4879 H   0  0  0  0  0  0  0  0  0  0  0  0
   -0.7974   22.0031  -31.4879 H   0  0  0  0  0  0  0  0  0  0  0  0
   -2.2854   23.1009  -28.9335 H   0  0  0  0  0  0  0  0  0  0  0  0
   -1.7210   23.8915  -30.4509 H   0  0  0  0  0  0  0  0  0  0  0  0
   -5.1287   23.0596  -28.6302 H   0  0  0  0  0  0  0  0  0  0  0  0
   -6.8430   25.0507  -29.2654 H   0  0  0  0  0  0  0  0  0  0  0  0
   -5.5470   26.6532  -30.9720 H   0  0  0  0  0  0  0  0  0  0  0  0
  1  2  1  0
  2  3  2  0
  3  4  1  0
  4  5  2  0
  5  6  1  0
  6  7  1  0
  7  8  1  0
  8  9  1  0
  9 10  1  0
 10 11  1  0
 10 12  1  0
 12 13  1  0
 13 14  2  0
 14 15  1  0
 15 16  2  0
 16 17  1  0
  6 18  2  0
 18 19  1  0
 19 20  2  0
 19 21  1  0
 18  2  1  0
 17 13  1  0
  1 22  1  0
  1 23  1  0
  1 24  1  0
  3 25  1  0
  4 26  1  0
  5 27  1  0
  8 28  1  0
  8 29  1  0
  9 30  1  0
  9 31  1  0
 11 32  1  0
 11 33  1  0
 11 34  1  0
 12 35  1  0
 12 36  1  0
 14 37  1  0
 15 38  1  0
 16 39  1  0
M  CHG  2  19   1  21  -1
M  END
>  <UniqueID>  (5) 
4

>  <SMILES>  (5) 
Cc1cccc(OCCN(C)Cc2ccco2)c1[N+](=O)[O-]

>  <Energy>  (5) 
70.72917446401743

>  <Genealogy>  (5) 
Cc1cccc(OCCN(C)Cc2ccco2)c1[N+](=O)[O-] (3D coordinates assigned)
Cc1cccc(OCCN(C)Cc2ccco2)c1[N+](=O)[O-] (optimized conformer: 70.72917446401743 kcal/mol)

>  <smiles>  (5) 
Cc1cccc(OCCN(C)Cc2ccco2)c1[N+](=O)[O-]

>  <score_type>  (5) 
oracle

>  <origin>  (5) 
adg

>  <m_score__min__energy>  (5) 
-7.3799999999999999

>  <m_primary>  (5) 
energy

$$$$
5:0
     RDKit          3D

 43 45  0  0  0  0  0  0  0  0999 V2000
   -0.7930   24.0560  -29.2990 C   0  0  0  0  0  0  0  0  0  0  0  0
   -1.2050   24.7310  -28.0180 C   0  0  0  0  0  0  0  0  0  0  0  0
   -0.2680   25.5250  -27.3350 C   0  0  0  0  0  0  0  0  0  0  0  0
   -0.6320   26.2080  -26.1720 C   0  0  0  0  0  0  0  0  0  0  0  0
   -1.9320   26.1040  -25.6770 C   0  0  0  0  0  0  0  0  0  0  0  0
   -2.8680   25.3000  -26.3320 C   0  0  0  0  0  0  0  0  0  0  0  0
   -2.5100   24.5870  -27.4840 C   0  0  0  0  0  0  0  0  0  0  0  0
   -3.4980   23.7600  -28.1170 N   0  0  0  0  0  0  0  0  0  0  0  0
   -4.0880   24.0950  -29.3820 C   0  0  0  0  0  0  0  0  0  0  0  0
   -3.6700   25.0930  -30.0310 O   0  0  0  0  0  0  0  0  0  0  0  0
   -5.1610   23.2240  -29.9850 C   0  0  0  0  0  0  0  0  0  0  0  0
   -4.7290   22.6460  -31.3590 C   0  0  0  0  0  0  0  0  0  0  0  0
   -5.8930   22.5050  -32.3550 C   0  0  0  0  0  0  0  0  0  0  0  0
   -7.1510   22.1940  -31.6610 N   0  0  0  0  0  0  0  0  0  0  0  0
   -8.0690   21.2380  -32.2170 C   0  0  0  0  0  0  0  0  0  0  0  0
   -9.2830   21.5490  -32.3530 O   0  0  0  0  0  0  0  0  0  0  0  0
   -7.6270   19.8920  -32.6200 C   0  0  0  0  0  0  0  0  0  0  0  0
   -6.6290   19.5890  -33.5410 C   0  0  0  0  0  0  0  0  0  0  0  0
   -6.4190   18.2130  -33.6940 C   0  0  0  0  0  0  0  0  0  0  0  0
   -7.2350   17.4290  -32.8890 C   0  0  0  0  0  0  0  0  0  0  0  0
   -8.2170   18.4500  -31.9840 S   0  0  0  0  0  0  0  0  0  0  0  0
   -7.6070   23.0560  -30.5590 C   0  0  0  0  0  0  0  0  0  0  0  0
   -6.4920   23.9910  -30.0730 C   0  0  0  0  0  0  0  0  0  0  0  0
   -0.2329   23.1383  -29.0662 H   0  0  0  0  0  0  0  0  0  0  0  0
   -1.6892   23.8003  -29.8834 H   0  0  0  0  0  0  0  0  0  0  0  0
   -0.1559   24.7361  -29.8834 H   0  0  0  0  0  0  0  0  0  0  0  0
    0.7594   25.6093  -27.7189 H   0  0  0  0  0  0  0  0  0  0  0  0
    0.1079   26.8289  -25.6456 H   0  0  0  0  0  0  0  0  0  0  0  0
   -2.2204   26.6556  -24.7700 H   0  0  0  0  0  0  0  0  0  0  0  0
   -3.8934   25.2261  -25.9407 H   0  0  0  0  0  0  0  0  0  0  0  0
   -3.6460   22.7990  -27.7360 H   0  0  0  0  0  0  0  0  0  0  0  0
   -5.3142   22.3614  -29.3198 H   0  0  0  0  0  0  0  0  0  0  0  0
   -3.9741   23.3154  -31.7972 H   0  0  0  0  0  0  0  0  0  0  0  0
   -4.3330   21.6361  -31.1768 H   0  0  0  0  0  0  0  0  0  0  0  0
   -6.0109   23.4501  -32.9054 H   0  0  0  0  0  0  0  0  0  0  0  0
   -5.6628   21.6804  -33.0457 H   0  0  0  0  0  0  0  0  0  0  0  0
   -6.0622   20.3532  -34.0931 H   0  0  0  0  0  0  0  0  0  0  0  0
   -5.6763   17.7920  -34.3877 H   0  0  0  0  0  0  0  0  0  0  0  0
   -7.2382   16.3297  -32.8503 H   0  0  0  0  0  0  0  0  0  0  0  0
   -8.4548   23.6634  -30.9086 H   0  0  0  0  0  0  0  0  0  0  0  0
   -7.9048   22.4111  -29.7191 H   0  0  0  0  0  0  0  0  0  0  0  0
   -6.3843   24.8271  -30.7796 H   0  0  0  0  0  0  0  0  0  0  0  0
   -6.7530   24.3755  -29.0760 H   0  0  0  0  0  0  0  0  0  0  0  0
  1  2  1  0
  2  3  2  0
  3  4  1  0
  4  5  2  0
  5  6  1  0
  6  7  2  0
  7  8  1  0
  8  9  1  0
  9 10  2  0
  9 11  1  0
 11 12  1  0
 12 13  1  0
 13 14  1  0
 14 15  1  0
 15 16  2  0
 15 17  1  0
 17 18  2  0
 18 19  1  0
 19 20  2  0
 20 21  1  0
 14 22  1  0
 22 23  1  0
  7  2  1  0
 23 11  1  0
 21 17  1  0
  1 24  1  0
  1 25  1  0
  1 26  1  0
  3 27  1  0
  4 28  1  0
  5 29  1  0
  6 30  1  0
  8 31  1  0
 11 32  1  0
 12 33  1  0
 12 34  1  0
 13 35  1  0
 13 36  1  0
 18 37  1  0
 19 38  1  0
 20 39  1  0
 22 40  1  0
 22 41  1  0
 23 42  1  0
 23 43  1  0
M  END
>  <UniqueID>  (6) 
5

>  <SMILES>  (6) 
Cc1ccccc1NC(=O)C1CCN(C(=O)c2cccs2)CC1

>  <Energy>  (6) 
80.00790758999479

>  <Genealogy>  (6) 
Cc1ccccc1NC(=O)C1CCN(C(=O)c2cccs2)CC1 (3D coordinates assigned)
Cc1ccccc1NC(=O)C1CCN(C(=O)c2cccs2)CC1 (nonaromatic ring conformer: 80.00790758999479 kcal/mol)

>  <smiles>  (6) 
Cc1ccccc1NC(=O)C1CCN(C(=O)c2cccs2)CC1

>  <score_type>  (6) 
oracle

>  <origin>  (6) 
adg

>  <m_score__min__energy>  (6) 
-8.9800000000000004

>  <m_primary>  (6) 
energy

$$$$
6:0
     RDKit          3D

 43 44  0  0  0  0  0  0  0  0999 V2000
   -2.7290   22.6950  -27.5150 C   0  0  0  0  0  0  0  0  0  0  0  0
   -3.0380   24.1900  -27.5260 C   0  0  0  0  0  0  0  0  0  0  0  0
   -2.2570   24.9240  -28.6150 C   0  0  0  0  0  0  0  0  0  0  0  0
   -3.1300   25.2860  -29.6830 O   0  0  0  0  0  0  0  0  0  0  0  0
   -4.2820   24.5720  -30.0430 C   0  0  0  0  0  0  0  0  0  0  0  0
   -5.5750   25.1210  -29.9390 C   0  0  0  0  0  0  0  0  0  0  0  0
   -6.6920   24.3680  -30.3120 C   0  0  0  0  0  0  0  0  0  0  0  0
   -6.5340   23.0630  -30.7960 C   0  0  0  0  0  0  0  0  0  0  0  0
   -7.9510   22.1280  -31.2670 S   0  0  0  0  0  0  0  0  0  0  0  0
   -8.6800   22.8890  -32.3400 O   0  0  0  0  0  0  0  0  0  0  0  0
   -8.8660   21.9490  -30.0870 O   0  0  0  0  0  0  0  0  0  0  0  0
   -7.4550   20.5610  -31.8700 N   0  0  0  0  0  0  0  0  0  0  0  0
   -8.6340   19.6890  -32.1050 C   0  0  0  0  0  0  0  0  0  0  0  0
   -8.4170   18.1870  -31.8060 C   0  0  0  0  0  0  0  0  0  0  0  0
   -7.5140   17.4160  -32.8040 C   0  0  0  0  0  0  0  0  0  0  0  0
   -6.2440   18.1560  -33.2550 C   0  0  0  0  0  0  0  0  0  0  0  0
   -6.5020   19.5110  -33.9480 C   0  0  0  0  0  0  0  0  0  0  0  0
   -6.5520   20.7400  -33.0230 C   0  0  0  0  0  0  0  0  0  0  0  0
   -5.2490   22.5140  -30.8970 C   0  0  0  0  0  0  0  0  0  0  0  0
   -4.1320   23.2660  -30.5230 C   0  0  0  0  0  0  0  0  0  0  0  0
   -2.6563   22.3433  -26.4753 H   0  0  0  0  0  0  0  0  0  0  0  0
   -3.5336   22.1505  -28.0309 H   0  0  0  0  0  0  0  0  0  0  0  0
   -1.7745   22.5141  -28.0309 H   0  0  0  0  0  0  0  0  0  0  0  0
   -4.1144   24.3296  -27.7046 H   0  0  0  0  0  0  0  0  0  0  0  0
   -2.7408   24.6072  -26.5526 H   0  0  0  0  0  0  0  0  0  0  0  0
   -1.8057   25.8326  -28.1898 H   0  0  0  0  0  0  0  0  0  0  0  0
   -1.4689   24.2615  -29.0023 H   0  0  0  0  0  0  0  0  0  0  0  0
   -5.7062   26.1463  -29.5628 H   0  0  0  0  0  0  0  0  0  0  0  0
   -7.6991   24.8019  -30.2251 H   0  0  0  0  0  0  0  0  0  0  0  0
   -9.4543   20.0474  -31.4657 H   0  0  0  0  0  0  0  0  0  0  0  0
   -8.8514   19.7560  -33.1812 H   0  0  0  0  0  0  0  0  0  0  0  0
   -7.9612   18.1054  -30.8082 H   0  0  0  0  0  0  0  0  0  0  0  0
   -9.4110   17.7229  -31.8877 H   0  0  0  0  0  0  0  0  0  0  0  0
   -7.2059   16.4749  -32.3250 H   0  0  0  0  0  0  0  0  0  0  0  0
   -8.1193   17.2741  -33.7115 H   0  0  0  0  0  0  0  0  0  0  0  0
   -5.6194   18.3377  -32.3679 H   0  0  0  0  0  0  0  0  0  0  0  0
   -5.7562   17.5119  -34.0014 H   0  0  0  0  0  0  0  0  0  0  0  0
   -5.6980   19.6732  -34.6809 H   0  0  0  0  0  0  0  0  0  0  0  0
   -7.5050   19.4319  -34.3926 H   0  0  0  0  0  0  0  0  0  0  0  0
   -5.5374   20.9356  -32.6458 H   0  0  0  0  0  0  0  0  0  0  0  0
   -6.9406   21.5810  -33.6161 H   0  0  0  0  0  0  0  0  0  0  0  0
   -5.1189   21.4880  -31.2718 H   0  0  0  0  0  0  0  0  0  0  0  0
   -3.1265   22.8277  -30.6066 H   0  0  0  0  0  0  0  0  0  0  0  0
  1  2  1  0
  2  3  1  0
  3  4  1  0
  4  5  1  0
  5  6  2  0
  6  7  1  0
  7  8  2  0
  8  9  1  0
  9 10  2  0
  9 11  2  0
  9 12  1  0
 12 13  1  0
 13 14  1  0
 14 15  1  0
 15 16  1  0
 16 17  1  0
 17 18  1  0
  8 19  1  0
 19 20  2  0
 20  5  1  0
 18 12  1  0
  1 21  1  0
  1 22  1  0
  1 23  1  0
  2 24  1  0
  2 25  1  0
  3 26  1  0
  3 27  1  0
  6 28  1  0
  7 29  1  0
 13 30  1  0
 13 31  1  0
 14 32  1  0
 14 33  1  0
 15 34  1  0
 15 35  1  0
 16 36  1  0
 16 37  1  0
 17 38  1  0
 17 39  1  0
 18 40  1  0
 18 41  1  0
 19 42  1  0
 20 43  1  0
M  END
>  <UniqueID>  (7) 
6

>  <SMILES>  (7) 
CCCOc1ccc(S(=O)(=O)N2CCCCCC2)cc1

>  <Energy>  (7) 
48.99826150043755

>  <Genealogy>  (7) 
CCCOc1ccc(S(=O)(=O)N2CCCCCC2)cc1 (3D coordinates assigned)
CCCOc1ccc(S(=O)(=O)N2CCCCCC2)cc1 (nonaromatic ring conformer: 48.99826150043755 kcal/mol)

>  <smiles>  (7) 
CCCOc1ccc(S(=O)(=O)N2CCCCCC2)cc1

>  <score_type>  (7) 
oracle

>  <origin>  (7) 
adg

>  <m_score__min__energy>  (7) 
-6.6600000000000001

>  <m_primary>  (7) 
energy

$$$$
7:0
     RDKit          3D

 33 34  0  0  0  0  0  0  0  0999 V2000
   -4.7930   19.9400  -32.7380 C   0  0  0  0  0  0  0  0  0  0  0  0
   -5.6320   20.4890  -31.7270 O   0  0  0  0  0  0  0  0  0  0  0  0
   -7.0320   20.5810  -31.8140 C   0  0  0  0  0  0  0  0  0  0  0  0
   -7.7770   19.7300  -32.6550 C   0  0  0  0  0  0  0  0  0  0  0  0
   -9.1670   19.8430  -32.7240 C   0  0  0  0  0  0  0  0  0  0  0  0
   -9.8310   20.8020  -31.9590 C   0  0  0  0  0  0  0  0  0  0  0  0
   -9.1070   21.6510  -31.1230 C   0  0  0  0  0  0  0  0  0  0  0  0
   -7.7080   21.5500  -31.0390 C   0  0  0  0  0  0  0  0  0  0  0  0
   -6.9530   22.5090  -30.1390 C   0  0  0  0  0  0  0  0  0  0  0  0
   -5.6260   22.8680  -30.6960 N   0  0  0  0  0  0  0  0  0  0  0  0
   -5.7210   24.0720  -31.5660 C   0  0  0  0  0  0  0  0  0  0  0  0
   -5.2240   25.3410  -30.8510 C   0  0  0  0  0  0  0  0  0  0  0  0
   -3.8670   25.2560  -30.4350 O   0  0  0  0  0  0  0  0  0  0  0  0
   -3.4600   23.9400  -30.0800 C   0  0  0  0  0  0  0  0  0  0  0  0
   -4.6160   23.0370  -29.6180 C   0  0  0  0  0  0  0  0  0  0  0  0
   -3.9608   19.3954  -32.2681 H   0  0  0  0  0  0  0  0  0  0  0  0
   -5.3768   19.2487  -33.3635 H   0  0  0  0  0  0  0  0  0  0  0  0
   -4.3933   20.7518  -33.3635 H   0  0  0  0  0  0  0  0  0  0  0  0
   -7.2599   18.9716  -33.2612 H   0  0  0  0  0  0  0  0  0  0  0  0
   -9.7398   19.1742  -33.3832 H   0  0  0  0  0  0  0  0  0  0  0  0
  -10.9262   20.8884  -32.0153 H   0  0  0  0  0  0  0  0  0  0  0  0
   -9.6358   22.4068  -30.5237 H   0  0  0  0  0  0  0  0  0  0  0  0
   -7.5478   23.4266  -30.0198 H   0  0  0  0  0  0  0  0  0  0  0  0
   -6.7912   22.0103  -29.1720 H   0  0  0  0  0  0  0  0  0  0  0  0
   -5.3100   22.0740  -31.3060 H   0  0  0  0  0  0  0  0  0  0  0  0
   -5.1097   23.9090  -32.4659 H   0  0  0  0  0  0  0  0  0  0  0  0
   -6.7795   24.2209  -31.8255 H   0  0  0  0  0  0  0  0  0  0  0  0
   -5.3255   26.1926  -31.5399 H   0  0  0  0  0  0  0  0  0  0  0  0
   -5.8357   25.4660  -29.9453 H   0  0  0  0  0  0  0  0  0  0  0  0
   -2.9857   23.4751  -30.9569 H   0  0  0  0  0  0  0  0  0  0  0  0
   -2.7689   24.0365  -29.2297 H   0  0  0  0  0  0  0  0  0  0  0  0
   -4.2140   22.0504  -29.3443 H   0  0  0  0  0  0  0  0  0  0  0  0
   -5.1040   23.5090  -28.7525 H   0  0  0  0  0  0  0  0  0  0  0  0
  1  2  1  0
  2  3  1  0
  3  4  2  0
  4  5  1  0
  5  6  2  0
  6  7  1  0
  7  8  2  0
  8  9  1  0
  9 10  1  0
 10 11  1  0
 11 12  1  0
 12 13  1  0
 13 14  1  0
 14 15  1  0
  8  3  1  0
 15 10  1  0
  1 16  1  0
  1 17  1  0
  1 18  1  0
  4 19  1  0
  5 20  1  0
  6 21  1  0
  7 22  1  0
  9 23  1  0
  9 24  1  0
 10 25  1  0
 11 26  1  0
 11 27  1  0
 12 28  1  0
 12 29  1  0
 14 30  1  0
 14 31  1  0
 15 32  1  0
 15 33  1  0
M  CHG  1  10   1
M  END
>  <UniqueID>  (8) 
7

>  <SMILES>  (8) 
COc1ccccc1C[NH+]1CCOCC1

>  <Energy>  (8) 
47.06732595909439

>  <Genealogy>  (8) 
COc1ccccc1C[NH+]1CCOCC1 (protonated)
COc1ccccc1C[NH+]1CCOCC1 (3D coordinates assigned)
COc1ccccc1C[NH+]1CCOCC1 (nonaromatic ring conformer: 47.06732595909439 kcal/mol)

>  <smiles>  (8) 
COc1ccccc1CN1CCOCC1

>  <score_type>  (8) 
oracle

>  <origin>  (8) 
adg

>  <m_score__min__energy>  (8) 
-5.1399999999999997

>  <m_primary>  (8) 
energy

$$$$
8:0
     RDKit          3D

 40 42  0  0  0  0  0  0  0  0999 V2000
   -4.4810   20.8590  -32.8010 C   0  0  0  0  0  0  0  0  0  0  0  0
   -4.3550   19.5590  -33.5480 C   0  0  0  0  0  0  0  0  0  0  0  0
   -3.0810   19.0010  -33.7570 C   0  0  0  0  0  0  0  0  0  0  0  0
   -2.9410   17.7940  -34.4450 C   0  0  0  0  0  0  0  0  0  0  0  0
   -4.0680   17.1380  -34.9410 C   0  0  0  0  0  0  0  0  0  0  0  0
   -5.3380   17.6850  -34.7510 C   0  0  0  0  0  0  0  0  0  0  0  0
   -5.4980   18.8930  -34.0490 C   0  0  0  0  0  0  0  0  0  0  0  0
   -6.8060   19.4690  -33.8900 N   0  0  0  0  0  0  0  0  0  0  0  0
   -7.5280   19.4640  -32.6480 C   0  0  0  0  0  0  0  0  0  0  0  0
   -6.9950   19.0150  -31.5970 O   0  0  0  0  0  0  0  0  0  0  0  0
   -8.9110   20.0530  -32.5770 C   0  0  0  0  0  0  0  0  0  0  0  0
   -9.2580   20.4900  -31.2150 N   0  0  0  0  0  0  0  0  0  0  0  0
   -9.3800   21.9510  -31.0950 C   0  0  0  0  0  0  0  0  0  0  0  0
   -8.0260   22.6090  -31.1100 C   0  0  0  0  0  0  0  0  0  0  0  0
   -7.5070   23.1630  -32.3090 C   0  0  0  0  0  0  0  0  0  0  0  0
   -6.2440   23.7830  -32.3210 C   0  0  0  0  0  0  0  0  0  0  0  0
   -5.5310   23.8280  -31.1270 C   0  0  0  0  0  0  0  0  0  0  0  0
   -6.0180   23.2970  -29.9780 C   0  0  0  0  0  0  0  0  0  0  0  0
   -7.2630   22.6750  -29.9220 C   0  0  0  0  0  0  0  0  0  0  0  0
   -5.1030   23.4840  -28.9610 O   0  0  0  0  0  0  0  0  0  0  0  0
   -3.9710   24.1770  -29.5040 C   0  0  0  0  0  0  0  0  0  0  0  0
   -4.2850   24.3760  -30.8890 O   0  0  0  0  0  0  0  0  0  0  0  0
   -4.4620   20.6633  -31.7187 H   0  0  0  0  0  0  0  0  0  0  0  0
   -3.6426   21.5187  -33.0691 H   0  0  0  0  0  0  0  0  0  0  0  0
   -5.4305   21.3454  -33.0691 H   0  0  0  0  0  0  0  0  0  0  0  0
   -2.1886   19.5190  -33.3758 H   0  0  0  0  0  0  0  0  0  0  0  0
   -1.9415   17.3601  -34.5960 H   0  0  0  0  0  0  0  0  0  0  0  0
   -3.9554   16.1875  -35.4831 H   0  0  0  0  0  0  0  0  0  0  0  0
   -6.2209   17.1670  -35.1536 H   0  0  0  0  0  0  0  0  0  0  0  0
   -7.2220   19.9860  -34.6950 H   0  0  0  0  0  0  0  0  0  0  0  0
   -8.9620   20.9204  -33.2515 H   0  0  0  0  0  0  0  0  0  0  0  0
   -9.6269   19.2728  -32.8749 H   0  0  0  0  0  0  0  0  0  0  0  0
   -8.5160   20.1620  -30.5520 H   0  0  0  0  0  0  0  0  0  0  0  0
   -9.9747   22.3327  -31.9380 H   0  0  0  0  0  0  0  0  0  0  0  0
   -9.8721   22.1840  -30.1392 H   0  0  0  0  0  0  0  0  0  0  0  0
   -8.0966   23.1073  -33.2360 H   0  0  0  0  0  0  0  0  0  0  0  0
   -5.8336   24.2180  -33.2443 H   0  0  0  0  0  0  0  0  0  0  0  0
   -7.6411   22.2479  -28.9814 H   0  0  0  0  0  0  0  0  0  0  0  0
   -3.8299   25.1430  -28.9972 H   0  0  0  0  0  0  0  0  0  0  0  0
   -3.0375   23.6108  -29.3699 H   0  0  0  0  0  0  0  0  0  0  0  0
  1  2  1  0
  2  3  2  0
  3  4  1  0
  4  5  2  0
  5  6  1  0
  6  7  2  0
  7  8  1  0
  8  9  1  0
  9 10  2  0
  9 11  1  0
 11 12  1  0
 12 13  1  0
 13 14  1  0
 14 15  2  0
 15 16  1  0
 16 17  2  0
 17 18  1  0
 18 19  2  0
 18 20  1  0
 20 21  1  0
 21 22  1  0
  7  2  1  0
 19 14  1  0
 22 17  1  0
  1 23  1  0
  1 24  1  0
  1 25  1  0
  3 26  1  0
  4 27  1  0
  5 28  1  0
  6 29  1  0
  8 30  1  0
 11 31  1  0
 11 32  1  0
 12 33  1  0
 13 34  1  0
 13 35  1  0
 15 36  1  0
 16 37  1  0
 19 38  1  0
 21 39  1  0
 21 40  1  0
M  END
>  <UniqueID>  (9) 
8

>  <SMILES>  (9) 
Cc1ccccc1NC(=O)CNCc1ccc2c(c1)OCO2

>  <Energy>  (9) 
71.60268480124454

>  <Genealogy>  (9) 
Cc1ccccc1NC(=O)CNCc1ccc2c(c1)OCO2 (3D coordinates assigned)
Cc1ccccc1NC(=O)CNCc1ccc2c(c1)OCO2 (nonaromatic ring conformer: 71.60268480124454 kcal/mol)

>  <smiles>  (9) 
Cc1ccccc1NC(=O)CNCc1ccc2c(c1)OCO2

>  <score_type>  (9) 
oracle

>  <origin>  (9) 
adg

>  <m_score__min__energy>  (9) 
-8.0899999999999999

>  <m_primary>  (9) 
energy

$$$$
9:0
     RDKit          3D

 32 33  0  0  0  0  0  0  0  0999 V2000
   -2.0540   23.3830  -29.7060 C   0  0  0  0  0  0  0  0  0  0  0  0
   -2.8660   24.5220  -29.1010 C   0  0  0  0  0  0  0  0  0  0  0  0
   -3.4840   25.3000  -30.1260 O   0  0  0  0  0  0  0  0  0  0  0  0
   -4.8010   25.1030  -30.5530 C   0  0  0  0  0  0  0  0  0  0  0  0
   -5.5500   26.0850  -30.8120 O   0  0  0  0  0  0  0  0  0  0  0  0
   -5.3370   23.7130  -30.6660 C   0  0  0  0  0  0  0  0  0  0  0  0
   -6.9510   23.7170  -31.5160 S   0  0  0  0  0  0  0  0  0  0  0  0
   -6.8270   22.0180  -32.0680 C   0  0  0  0  0  0  0  0  0  0  0  0
   -5.8290   21.5690  -32.8750 N   0  0  0  0  0  0  0  0  0  0  0  0
   -6.1800   20.2780  -33.0050 C   0  0  0  0  0  0  0  0  0  0  0  0
   -5.5190   19.3510  -33.7390 N   0  0  0  0  0  0  0  0  0  0  0  0
   -6.0100   18.0760  -33.7850 C   0  0  0  0  0  0  0  0  0  0  0  0
   -5.3080   17.0430  -34.6080 C   0  0  0  0  0  0  0  0  0  0  0  0
   -7.1940   17.7420  -33.0890 C   0  0  0  0  0  0  0  0  0  0  0  0
   -7.8390   18.7350  -32.3300 C   0  0  0  0  0  0  0  0  0  0  0  0
   -9.1180   18.4530  -31.6000 C   0  0  0  0  0  0  0  0  0  0  0  0
   -7.2920   19.9770  -32.3340 N   0  0  0  0  0  0  0  0  0  0  0  0
   -7.7260   21.0640  -31.7280 N   0  0  0  0  0  0  0  0  0  0  0  0
   -1.6197   22.7737  -28.8997 H   0  0  0  0  0  0  0  0  0  0  0  0
   -2.7095   22.7552  -30.3275 H   0  0  0  0  0  0  0  0  0  0  0  0
   -1.2468   23.7979  -30.3275 H   0  0  0  0  0  0  0  0  0  0  0  0
   -3.6445   24.1028  -28.4467 H   0  0  0  0  0  0  0  0  0  0  0  0
   -2.1907   25.1702  -28.5232 H   0  0  0  0  0  0  0  0  0  0  0  0
   -4.6279   23.0972  -31.2387 H   0  0  0  0  0  0  0  0  0  0  0  0
   -5.4686   23.2995  -29.6552 H   0  0  0  0  0  0  0  0  0  0  0  0
   -4.8152   16.3178  -33.9438 H   0  0  0  0  0  0  0  0  0  0  0  0
   -6.0391   16.5209  -35.2427 H   0  0  0  0  0  0  0  0  0  0  0  0
   -4.5534   17.5306  -35.2427 H   0  0  0  0  0  0  0  0  0  0  0  0
   -7.6041   16.7226  -33.1401 H   0  0  0  0  0  0  0  0  0  0  0  0
   -8.9377   18.4928  -30.5156 H   0  0  0  0  0  0  0  0  0  0  0  0
   -9.8707   19.2068  -31.8744 H   0  0  0  0  0  0  0  0  0  0  0  0
   -9.4839   17.4526  -31.8744 H   0  0  0  0  0  0  0  0  0  0  0  0
  1  2  1  0
  2  3  1  0
  3  4  1  0
  4  5  2  0
  4  6  1  0
  6  7  1  0
  7  8  1  0
  8  9  1  0
  9 10  2  0
 10 11  1  0
 11 12  2  0
 12 13  1  0
 12 14  1  0
 14 15  2  0
 15 16  1  0
 15 17  1  0
 17 18  1  0
 18  8  2  0
 17 10  1  0
  1 19  1  0
  1 20  1  0
  1 21  1  0
  2 22  1  0
  2 23  1  0
  6 24  1  0
  6 25  1  0
 13 26  1  0
 13 27  1  0
 13 28  1  0
 14 29  1  0
 16 30  1  0
 16 31  1  0
 16 32  1  0
M  END
>  <UniqueID>  (10) 
9

>  <SMILES>  (10) 
CCOC(=O)CSc1nc2nc(C)cc(C)n2n1

>  <Energy>  (10) 
60.38035647152299

>  <Genealogy>  (10) 
CCOC(=O)CSc1nc2nc(C)cc(C)n2n1 (3D coordinates assigned)
CCOC(=O)CSc1nc2nc(C)cc(C)n2n1 (optimized conformer: 60.38035647152299 kcal/mol)

>  <smiles>  (10) 
CCOC(=O)CSc1nc2nc(C)cc(C)n2n1

>  <score_type>  (10) 
oracle

>  <origin>  (10) 
adg

>  <m_score__min__energy>  (10) 
-7.2599999999999998

>  <m_primary>  (10) 
energy

$$$$
10:0
     RDKit          3D

 33 35  0  0  0  0  0  0  0  0999 V2000
   -4.5700   14.9630  -32.3610 C   0  0  0  0  0  0  0  0  0  0  0  0
   -4.0890   16.2440  -32.7540 O   0  0  0  0  0  0  0  0  0  0  0  0
   -4.8560   17.4180  -32.7390 C   0  0  0  0  0  0  0  0  0  0  0  0
   -5.9290   17.6070  -31.8490 C   0  0  0  0  0  0  0  0  0  0  0  0
   -6.6640   18.7950  -31.8720 C   0  0  0  0  0  0  0  0  0  0  0  0
   -6.3460   19.8240  -32.7780 C   0  0  0  0  0  0  0  0  0  0  0  0
   -7.1670   21.0300  -32.8010 N   0  0  1  0  0  0  0  0  0  0  0  0
   -8.4530   20.8590  -32.1470 C   0  0  0  0  0  0  0  0  0  0  0  0
   -9.4900   20.0300  -32.7070 S   0  0  0  0  0  0  0  0  0  0  0  0
   -8.7860   21.8740  -30.6860 S   0  0  0  0  0  0  0  0  0  0  0  0
   -6.9960   22.1020  -30.6270 C   0  0  2  0  0  0  0  0  0  0  0  0
   -6.4430   23.3510  -29.9590 C   0  0  0  0  0  0  0  0  0  0  0  0
   -4.8390   23.5120  -30.7280 S   0  0  0  0  0  0  0  0  0  0  0  0
   -3.7370   23.0730  -29.8060 O   0  0  0  0  0  0  0  0  0  0  0  0
   -4.6000   24.9140  -31.2150 O   0  0  0  0  0  0  0  0  0  0  0  0
   -5.0510   22.3710  -32.0850 C   0  0  0  0  0  0  0  0  0  0  0  0
   -6.5670   22.1700  -32.0820 C   0  0  1  0  0  0  0  0  0  0  0  0
   -5.2720   19.6210  -33.6730 C   0  0  0  0  0  0  0  0  0  0  0  0
   -4.5380   18.4330  -33.6460 C   0  0  0  0  0  0  0  0  0  0  0  0
   -4.5932   14.9011  -31.2630 H   0  0  0  0  0  0  0  0  0  0  0  0
   -5.5850   14.8148  -32.7582 H   0  0  0  0  0  0  0  0  0  0  0  0
   -3.9034   14.1833  -32.7582 H   0  0  0  0  0  0  0  0  0  0  0  0
   -6.1906   16.8155  -31.1314 H   0  0  0  0  0  0  0  0  0  0  0  0
   -7.5025   18.9279  -31.1726 H   0  0  0  0  0  0  0  0  0  0  0  0
   -7.3380   21.3210  -33.7940 H   0  0  0  0  0  0  0  0  0  0  0  0
   -6.6106   21.2760  -30.0112 H   0  0  0  0  0  0  0  0  0  0  0  0
   -7.0746   24.2273  -30.1668 H   0  0  0  0  0  0  0  0  0  0  0  0
   -6.4017   23.2833  -28.8619 H   0  0  0  0  0  0  0  0  0  0  0  0
   -4.7056   22.8070  -33.0340 H   0  0  0  0  0  0  0  0  0  0  0  0
   -4.4754   21.4394  -31.9811 H   0  0  0  0  0  0  0  0  0  0  0  0
   -6.9428   23.0235  -32.6653 H   0  0  0  0  0  0  0  0  0  0  0  0
   -5.0113   20.4060  -34.3981 H   0  0  0  0  0  0  0  0  0  0  0  0
   -3.7008   18.2946  -34.3459 H   0  0  0  0  0  0  0  0  0  0  0  0
  1  2  1  0
  2  3  1  0
  3  4  2  0
  4  5  1  0
  5  6  2  0
  6  7  1  0
  7  8  1  0
  8  9  2  0
  8 10  1  0
 10 11  1  0
 11 12  1  0
 12 13  1  0
 13 14  2  0
 13 15  2  0
 13 16  1  0
 16 17  1  0
  6 18  1  0
 18 19  2  0
 19  3  1  0
 17  7  1  0
 17 11  1  0
  1 20  1  0
  1 21  1  0
  1 22  1  0
  4 23  1  0
  5 24  1  0
  7 25  1  6
 11 26  1  1
 12 27  1  0
 12 28  1  0
 16 29  1  0
 16 30  1  0
 17 31  1  6
 18 32  1  0
 19 33  1  0
M  CHG  1   7   1
M  END
>  <UniqueID>  (11) 
10

>  <SMILES>  (11) 
COc1ccc([N@H+]2C(=S)S[C@@H]3CS(=O)(=O)CC32)cc1

>  <Energy>  (11) 
57.324657688924155

>  <Genealogy>  (11) 
COc1ccc([NH+]2C(=S)SC3CS(=O)(=O)CC32)cc1 (protonated)
COc1ccc([N@H+]2C(=S)S[C@@H]3CS(=O)(=O)CC32)cc1 (chirality)
COc1ccc([N@H+]2C(=S)S[C@@H]3CS(=O)(=O)CC32)cc1 (3D coordinates assigned)
COc1ccc([N@H+]2C(=S)S[C@@H]3CS(=O)(=O)CC32)cc1 (nonaromatic ring conformer: 57.324657688924155 kcal/mol)

>  <smiles>  (11) 
COc1ccc(N2C(=S)SC3CS(=O)(=O)CC32)cc1

>  <score_type>  (11) 
oracle

>  <origin>  (11) 
adg

>  <m_score__min__energy>  (11) 
-7.5999999999999996

>  <m_primary>  (11) 
energy

$$$$
11:0
     RDKit          3D

 46 49  0  0  0  0  0  0  0  0999 V2000
   -3.8380   24.1060  -27.7160 C   0  0  0  0  0  0  0  0  0  0  0  0
   -2.9880   23.0850  -28.4560 C   0  0  0  0  0  0  0  0  0  0  0  0
   -2.9930   23.3850  -29.8480 O   0  0  0  0  0  0  0  0  0  0  0  0
   -4.0160   24.1080  -30.4650 C   0  0  0  0  0  0  0  0  0  0  0  0
   -3.9090   25.3570  -30.6060 O   0  0  0  0  0  0  0  0  0  0  0  0
   -5.2440   23.4310  -30.9260 C   0  0  0  0  0  0  0  0  0  0  0  0
   -6.7750   24.1240  -30.7780 S   0  0  0  0  0  0  0  0  0  0  0  0
   -7.5900   22.8080  -31.4010 C   0  0  0  0  0  0  0  0  0  0  0  0
   -8.9320   22.7090  -31.5430 N   0  0  0  0  0  0  0  0  0  0  0  0
   -9.4570   21.5610  -32.0400 C   0  0  0  0  0  0  0  0  0  0  0  0
   -8.6420   20.5240  -32.3760 N   0  0  0  0  0  0  0  0  0  0  0  0
   -7.2850   20.5930  -32.2440 C   0  0  0  0  0  0  0  0  0  0  0  0
   -6.5130   19.4350  -32.5920 N   0  0  0  0  0  0  0  0  0  0  0  0
   -5.8060   19.5080  -33.8800 C   0  0  0  0  0  0  0  0  0  0  0  0
   -4.7290   18.4180  -34.0580 C   0  0  0  0  0  0  0  0  0  0  0  0
   -5.1720   17.0370  -33.7510 N   0  0  0  0  0  0  0  0  0  0  0  0
   -4.9130   16.6510  -32.3510 C   0  0  0  0  0  0  0  0  0  0  0  0
   -5.8200   17.3960  -31.3570 C   0  0  0  0  0  0  0  0  0  0  0  0
   -6.9730   18.1400  -32.0480 C   0  0  0  0  0  0  0  0  0  0  0  0
   -7.6090   17.2640  -33.1450 C   0  0  0  0  0  0  0  0  0  0  0  0
   -6.5620   16.7330  -34.1540 C   0  0  0  0  0  0  0  0  0  0  0  0
   -6.7140   21.7880  -31.7450 C   0  0  0  0  0  0  0  0  0  0  0  0
   -5.3580   22.1460  -31.5030 C   0  0  0  0  0  0  0  0  0  0  0  0
   -4.1500   21.3030  -31.8070 C   0  0  0  0  0  0  0  0  0  0  0  0
   -3.7201   23.9643  -26.6316 H   0  0  0  0  0  0  0  0  0  0  0  0
   -3.5141   25.1208  -27.9906 H   0  0  0  0  0  0  0  0  0  0  0  0
   -4.8946   23.9715  -27.9906 H   0  0  0  0  0  0  0  0  0  0  0  0
   -1.9563   23.1222  -28.0763 H   0  0  0  0  0  0  0  0  0  0  0  0
   -3.4008   22.0781  -28.2957 H   0  0  0  0  0  0  0  0  0  0  0  0
  -10.5451   21.4680  -32.1719 H   0  0  0  0  0  0  0  0  0  0  0  0
   -6.5446   19.4019  -34.6882 H   0  0  0  0  0  0  0  0  0  0  0  0
   -5.2893   20.4787  -33.9089 H   0  0  0  0  0  0  0  0  0  0  0  0
   -4.3901   18.4420  -35.1042 H   0  0  0  0  0  0  0  0  0  0  0  0
   -3.9351   18.6521  -33.3335 H   0  0  0  0  0  0  0  0  0  0  0  0
   -5.0869   15.5700  -32.2452 H   0  0  0  0  0  0  0  0  0  0  0  0
   -3.8716   16.9180  -32.1179 H   0  0  0  0  0  0  0  0  0  0  0  0
   -6.2447   16.6655  -30.6527 H   0  0  0  0  0  0  0  0  0  0  0  0
   -5.2021   18.1464  -30.8421 H   0  0  0  0  0  0  0  0  0  0  0  0
   -7.7476   18.3506  -31.2960 H   0  0  0  0  0  0  0  0  0  0  0  0
   -8.1074   16.4069  -32.6685 H   0  0  0  0  0  0  0  0  0  0  0  0
   -8.3251   17.8876  -33.7003 H   0  0  0  0  0  0  0  0  0  0  0  0
   -6.6738   15.6417  -34.2348 H   0  0  0  0  0  0  0  0  0  0  0  0
   -6.7451   17.2344  -35.1158 H   0  0  0  0  0  0  0  0  0  0  0  0
   -3.6836   20.9775  -30.8654 H   0  0  0  0  0  0  0  0  0  0  0  0
   -4.4554   20.4209  -32.3890 H   0  0  0  0  0  0  0  0  0  0  0  0
   -3.4275   21.8940  -32.3890 H   0  0  0  0  0  0  0  0  0  0  0  0
  1  2  1  0
  2  3  1  0
  3  4  1  0
  4  5  2  0
  4  6  1  0
  6  7  1  0
  7  8  1  0
  8  9  2  0
  9 10  1  0
 10 11  2  0
 11 12  1  0
 12 13  1  0
 13 14  1  0
 14 15  1  0
 15 16  1  0
 16 17  1  0
 17 18  1  0
 18 19  1  0
 19 20  1  0
 20 21  1  0
 12 22  2  0
 22 23  1  0
 23 24  1  0
 23  6  2  0
 22  8  1  0
 19 13  1  0
 21 16  1  0
  1 25  1  0
  1 26  1  0
  1 27  1  0
  2 28  1  0
  2 29  1  0
 10 30  1  0
 14 31  1  0
 14 32  1  0
 15 33  1  0
 15 34  1  0
 17 35  1  0
 17 36  1  0
 18 37  1  0
 18 38  1  0
 19 39  1  0
 20 40  1  0
 20 41  1  0
 21 42  1  0
 21 43  1  0
 24 44  1  0
 24 45  1  0
 24 46  1  0
M  END
>  <UniqueID>  (12) 
11

>  <SMILES>  (12) 
CCOC(=O)c1sc2ncnc(N3CCN4CCC3CC4)c2c1C

>  <Energy>  (12) 
103.74983551796079

>  <Genealogy>  (12) 
CCOC(=O)c1sc2ncnc(N3CCN4CCC3CC4)c2c1C (3D coordinates assigned)
CCOC(=O)c1sc2ncnc(N3CCN4CCC3CC4)c2c1C (nonaromatic ring conformer: 103.74983551796079 kcal/mol)

>  <smiles>  (12) 
CCOC(=O)c1sc2ncnc(N3CCN4CCC3CC4)c2c1C

>  <score_type>  (12) 
oracle

>  <origin>  (12) 
adg

>  <m_score__min__energy>  (12) 
-7.5999999999999996

>  <m_primary>  (12) 
energy

$$$$
12:0
     RDKit          3D

 41 43  0  0  0  0  0  0  0  0999 V2000
    3.2720   27.4910  -23.1570 C   0  0  0  0  0  0  0  0  0  0  0  0
    3.7370   26.1420  -22.8270 N   0  0  0  0  0  0  0  0  0  0  0  0
    4.4220   25.9150  -21.5530 C   0  0  0  0  0  0  0  0  0  0  0  0
    3.5860   25.0470  -23.7500 C   0  0  0  0  0  0  0  0  0  0  0  0
    4.4860   24.1650  -23.8160 O   0  0  0  0  0  0  0  0  0  0  0  0
    2.3910   24.9200  -24.6170 C   0  0  0  0  0  0  0  0  0  0  0  0
    2.5370   24.5840  -25.9710 C   0  0  0  0  0  0  0  0  0  0  0  0
    1.4070   24.4630  -26.7780 C   0  0  0  0  0  0  0  0  0  0  0  0
    0.1280   24.6640  -26.2380 C   0  0  0  0  0  0  0  0  0  0  0  0
   -1.0840   24.5360  -27.0870 C   0  0  0  0  0  0  0  0  0  0  0  0
   -0.9680   24.2900  -28.4660 C   0  0  0  0  0  0  0  0  0  0  0  0
   -2.1080   24.1710  -29.2660 C   0  0  0  0  0  0  0  0  0  0  0  0
   -3.3910   24.2940  -28.7050 C   0  0  0  0  0  0  0  0  0  0  0  0
   -4.6030   24.1670  -29.5540 C   0  0  0  0  0  0  0  0  0  0  0  0
   -4.6600   23.2120  -30.5840 C   0  0  0  0  0  0  0  0  0  0  0  0
   -5.8100   23.1100  -31.3710 C   0  0  0  0  0  0  0  0  0  0  0  0
   -6.8690   23.9290  -31.1420 N   0  0  0  0  0  0  0  0  0  0  0  0
   -6.8460   24.8620  -30.1540 C   0  0  0  0  0  0  0  0  0  0  0  0
   -5.7170   24.9990  -29.3440 C   0  0  0  0  0  0  0  0  0  0  0  0
   -3.5080   24.5390  -27.3260 C   0  0  0  0  0  0  0  0  0  0  0  0
   -2.3670   24.6600  -26.5260 C   0  0  0  0  0  0  0  0  0  0  0  0
    0.0230   24.9820  -24.8740 C   0  0  0  0  0  0  0  0  0  0  0  0
    1.1390   25.0970  -24.1030 N   0  0  0  0  0  0  0  0  0  0  0  0
    3.0794   28.0497  -22.2292 H   0  0  0  0  0  0  0  0  0  0  0  0
    4.0428   28.0110  -23.7448 H   0  0  0  0  0  0  0  0  0  0  0  0
    2.3445   27.4256  -23.7448 H   0  0  0  0  0  0  0  0  0  0  0  0
    3.7370   26.1420  -20.7228 H   0  0  0  0  0  0  0  0  0  0  0  0
    4.7393   24.8637  -21.4895 H   0  0  0  0  0  0  0  0  0  0  0  0
    5.3044   26.5688  -21.4895 H   0  0  0  0  0  0  0  0  0  0  0  0
    3.5386   24.4168  -26.3940 H   0  0  0  0  0  0  0  0  0  0  0  0
    1.5186   24.2089  -27.8424 H   0  0  0  0  0  0  0  0  0  0  0  0
    0.0291   24.1902  -28.9198 H   0  0  0  0  0  0  0  0  0  0  0  0
   -2.0002   23.9795  -30.3438 H   0  0  0  0  0  0  0  0  0  0  0  0
   -3.8030   22.5479  -30.7696 H   0  0  0  0  0  0  0  0  0  0  0  0
   -5.8578   22.3643  -32.1783 H   0  0  0  0  0  0  0  0  0  0  0  0
   -7.7193   25.5110  -29.9920 H   0  0  0  0  0  0  0  0  0  0  0  0
   -5.6991   25.7547  -28.5449 H   0  0  0  0  0  0  0  0  0  0  0  0
   -4.5052   24.6364  -26.8720 H   0  0  0  0  0  0  0  0  0  0  0  0
   -2.4746   24.8539  -25.4486 H   0  0  0  0  0  0  0  0  0  0  0  0
   -0.9689   25.1394  -24.4252 H   0  0  0  0  0  0  0  0  0  0  0  0
    1.0130   25.3070  -23.0870 H   0  0  0  0  0  0  0  0  0  0  0  0
  1  2  1  0
  2  3  1  0
  2  4  1  0
  4  5  2  0
  4  6  1  0
  6  7  2  0
  7  8  1  0
  8  9  2  0
  9 10  1  0
 10 11  2  0
 11 12  1  0
 12 13  2  0
 13 14  1  0
 14 15  2  0
 15 16  1  0
 16 17  2  0
 17 18  1  0
 18 19  2  0
 13 20  1  0
 20 21  2  0
  9 22  1  0
 22 23  2  0
 23  6  1  0
 21 10  1  0
 19 14  1  0
  1 24  1  0
  1 25  1  0
  1 26  1  0
  3 27  1  0
  3 28  1  0
  3 29  1  0
  7 30  1  0
  8 31  1  0
 11 32  1  0
 12 33  1  0
 15 34  1  0
 16 35  1  0
 18 36  1  0
 19 37  1  0
 20 38  1  0
 21 39  1  0
 22 40  1  0
 23 41  1  0
M  CHG  1  23   1
M  END
>  <UniqueID>  (13) 
12

>  <SMILES>  (13) 
CN(C)C(=O)c1ccc(-c2ccc(-c3ccncc3)cc2)c[nH+]1

>  <Energy>  (13) 
57.66162530704807

>  <Genealogy>  (13) 
CN(C)C(=O)c1ccc(-c2ccc(-c3ccncc3)cc2)c[nH+]1 (protonated)
CN(C)C(=O)c1ccc(-c2ccc(-c3ccncc3)cc2)c[nH+]1 (3D coordinates assigned)
CN(C)C(=O)c1ccc(-c2ccc(-c3ccncc3)cc2)c[nH+]1 (optimized conformer: 57.66162530704807 kcal/mol)

>  <smiles>  (13) 
CN(C)C(=O)c1ccc(-c2ccc(-c3ccncc3)cc2)cn1

>  <score_type>  (13) 
oracle

>  <origin>  (13) 
adg

>  <m_score__min__energy>  (13) 
-6.8600000000000003

>  <m_primary>  (13) 
energy

$$$$
13:0
     RDKit          3D

 31 32  0  0  0  0  0  0  0  0999 V2000
    0.7840   24.7430  -25.5890 C   0  0  0  0  0  0  0  0  0  0  0  0
    0.4300   25.1460  -27.2850 S   0  0  0  0  0  0  0  0  0  0  0  0
    0.5080   26.6350  -27.4770 O   0  0  0  0  0  0  0  0  0  0  0  0
    1.4450   24.4900  -28.1790 O   0  0  0  0  0  0  0  0  0  0  0  0
   -1.1860   24.5790  -27.6920 C   0  0  0  0  0  0  0  0  0  0  0  0
   -1.9220   23.8210  -26.7740 C   0  0  0  0  0  0  0  0  0  0  0  0
   -3.2080   23.3820  -27.0990 C   0  0  0  0  0  0  0  0  0  0  0  0
   -3.7760   23.7140  -28.3320 C   0  0  0  0  0  0  0  0  0  0  0  0
   -4.9970   23.2160  -28.6480 F   0  0  0  0  0  0  0  0  0  0  0  0
   -3.0580   24.5110  -29.2440 C   0  0  0  0  0  0  0  0  0  0  0  0
   -3.6070   24.8890  -30.5150 N   0  0  0  0  0  0  0  0  0  0  0  0
   -5.0020   24.9730  -30.8370 C   0  0  0  0  0  0  0  0  0  0  0  0
   -5.5610   26.1030  -30.8200 O   0  0  0  0  0  0  0  0  0  0  0  0
   -5.8050   23.7760  -31.1700 C   0  0  0  0  0  0  0  0  0  0  0  0
   -7.1890   23.8010  -30.9290 C   0  0  0  0  0  0  0  0  0  0  0  0
   -7.9860   22.7010  -31.2540 C   0  0  0  0  0  0  0  0  0  0  0  0
   -7.4080   21.5580  -31.8090 C   0  0  0  0  0  0  0  0  0  0  0  0
   -6.0300   21.5080  -32.0260 C   0  0  0  0  0  0  0  0  0  0  0  0
   -5.2210   22.6030  -31.7030 C   0  0  0  0  0  0  0  0  0  0  0  0
   -3.4790   22.4290  -31.8950 Cl  0  0  0  0  0  0  0  0  0  0  0  0
   -1.7550   24.9150  -28.9280 C   0  0  0  0  0  0  0  0  0  0  0  0
    0.2044   25.4028  -24.9267 H   0  0  0  0  0  0  0  0  0  0  0  0
    0.5085   23.6957  -25.3958 H   0  0  0  0  0  0  0  0  0  0  0  0
    1.8580   24.8812  -25.3958 H   0  0  0  0  0  0  0  0  0  0  0  0
   -1.4873   23.5705  -25.7951 H   0  0  0  0  0  0  0  0  0  0  0  0
   -3.7760   22.7722  -26.3810 H   0  0  0  0  0  0  0  0  0  0  0  0
   -7.6486   24.6942  -30.4807 H   0  0  0  0  0  0  0  0  0  0  0  0
   -9.0704   22.7354  -31.0724 H   0  0  0  0  0  0  0  0  0  0  0  0
   -8.0384   20.6968  -32.0753 H   0  0  0  0  0  0  0  0  0  0  0  0
   -5.5770   20.6015  -32.4539 H   0  0  0  0  0  0  0  0  0  0  0  0
   -1.1736   25.5005  -29.6554 H   0  0  0  0  0  0  0  0  0  0  0  0
  1  2  1  0
  2  3  2  0
  2  4  2  0
  2  5  1  0
  5  6  2  0
  6  7  1  0
  7  8  2  0
  8  9  1  0
  8 10  1  0
 10 11  1  0
 11 12  1  0
 12 13  2  0
 12 14  1  0
 14 15  2  0
 15 16  1  0
 16 17  2  0
 17 18  1  0
 18 19  2  0
 19 20  1  0
 10 21  2  0
 21  5  1  0
 19 14  1  0
  1 22  1  0
  1 23  1  0
  1 24  1  0
  6 25  1  0
  7 26  1  0
 15 27  1  0
 16 28  1  0
 17 29  1  0
 18 30  1  0
 21 31  1  0
M  CHG  1  11  -1
M  END
>  <UniqueID>  (14) 
13

>  <SMILES>  (14) 
CS(=O)(=O)c1ccc(F)c([N-]C(=O)c2ccccc2Cl)c1

>  <Energy>  (14) 
39.85307298393045

>  <Genealogy>  (14) 
CS(=O)(=O)c1ccc(F)c([N-]C(=O)c2ccccc2Cl)c1 (protonated)
CS(=O)(=O)c1ccc(F)c([N-]C(=O)c2ccccc2Cl)c1 (3D coordinates assigned)
CS(=O)(=O)c1ccc(F)c([N-]C(=O)c2ccccc2Cl)c1 (optimized conformer: 39.85307298393045 kcal/mol)

>  <smiles>  (14) 
CS(=O)(=O)c1ccc(F)c(NC(=O)c2ccccc2Cl)c1

>  <score_type>  (14) 
oracle

>  <origin>  (14) 
adg

>  <m_score__min__energy>  (14) 
-9.0099999999999998

>  <m_primary>  (14) 
energy

$$$$
14:0
     RDKit          3D

 42 44  0  0  0  0  0  0  0  0999 V2000
   -3.8430   25.2890  -30.6100 O   0  0  0  0  0  0  0  0  0  0  0  0
   -4.3950   24.2420  -30.1730 C   0  0  0  0  0  0  0  0  0  0  0  0
   -5.4430   23.5890  -30.9850 C   0  0  0  0  0  0  0  0  0  0  0  0
   -6.7380   23.8600  -30.7730 C   0  0  0  0  0  0  0  0  0  0  0  0
   -7.7840   23.1810  -31.6080 C   0  0  0  0  0  0  0  0  0  0  0  0
   -7.4630   21.6840  -31.7480 C   0  0  0  0  0  0  0  0  0  0  0  0
   -5.9760   21.3970  -32.0880 C   0  0  0  0  0  0  0  0  0  0  0  0
   -5.0860   22.6540  -32.1110 C   0  0  0  0  0  0  0  0  0  0  0  0
   -4.0180   23.7230  -28.8820 N   0  0  0  0  0  0  0  0  0  0  0  0
   -4.1420   22.2710  -28.6920 C   0  0  0  0  0  0  0  0  0  0  0  0
   -2.8960   21.4850  -29.1460 C   0  0  2  0  0  0  0  0  0  0  0  0
   -2.0570   20.9270  -27.9630 C   0  0  0  0  0  0  0  0  0  0  0  0
   -1.8010   21.9140  -26.8120 C   0  0  0  0  0  0  0  0  0  0  0  0
   -1.0280   23.1700  -27.2350 C   0  0  0  0  0  0  0  0  0  0  0  0
   -1.6280   23.9030  -28.3670 N   0  0  0  0  0  0  0  0  0  0  0  0
   -1.2960   23.4620  -29.7320 C   0  0  0  0  0  0  0  0  0  0  0  0
   -2.0730   22.2190  -30.2140 C   0  0  0  0  0  0  0  0  0  0  0  0
   -2.9750   24.4640  -28.1600 C   0  0  0  0  0  0  0  0  0  0  0  0
   -7.0327   24.5759  -29.9916 H   0  0  0  0  0  0  0  0  0  0  0  0
   -8.7659   23.2985  -31.1263 H   0  0  0  0  0  0  0  0  0  0  0  0
   -7.7985   23.6398  -32.6077 H   0  0  0  0  0  0  0  0  0  0  0  0
   -7.7049   21.1860  -30.7975 H   0  0  0  0  0  0  0  0  0  0  0  0
   -8.0652   21.3017  -32.5854 H   0  0  0  0  0  0  0  0  0  0  0  0
   -5.5761   20.7035  -31.3336 H   0  0  0  0  0  0  0  0  0  0  0  0
   -5.9570   20.9743  -33.1034 H   0  0  0  0  0  0  0  0  0  0  0  0
   -4.0335   22.3515  -32.0074 H   0  0  0  0  0  0  0  0  0  0  0  0
   -5.2442   23.1780  -33.0651 H   0  0  0  0  0  0  0  0  0  0  0  0
   -4.3091   22.0723  -27.6231 H   0  0  0  0  0  0  0  0  0  0  0  0
   -4.9835   21.9330  -29.3145 H   0  0  0  0  0  0  0  0  0  0  0  0
   -3.2772   20.5896  -29.6587 H   0  0  0  0  0  0  0  0  0  0  0  0
   -2.5882   20.0562  -27.5513 H   0  0  0  0  0  0  0  0  0  0  0  0
   -1.0683   20.6854  -28.3803 H   0  0  0  0  0  0  0  0  0  0  0  0
   -2.7721   22.2264  -26.4003 H   0  0  0  0  0  0  0  0  0  0  0  0
   -1.1796   21.3891  -26.0715 H   0  0  0  0  0  0  0  0  0  0  0  0
   -0.9785   23.8504  -26.3721 H   0  0  0  0  0  0  0  0  0  0  0  0
   -0.0371   22.8305  -27.5708 H   0  0  0  0  0  0  0  0  0  0  0  0
   -1.5127   24.2907  -30.4222 H   0  0  0  0  0  0  0  0  0  0  0  0
   -0.2333   23.1782  -29.7174 H   0  0  0  0  0  0  0  0  0  0  0  0
   -2.7625   22.5401  -31.0086 H   0  0  0  0  0  0  0  0  0  0  0  0
   -1.3084   21.5009  -30.5452 H   0  0  0  0  0  0  0  0  0  0  0  0
   -3.2054   24.4371  -27.0847 H   0  0  0  0  0  0  0  0  0  0  0  0
   -2.9689   25.4922  -28.5507 H   0  0  0  0  0  0  0  0  0  0  0  0
  1  2  2  0
  2  3  1  0
  3  4  2  0
  4  5  1  0
  5  6  1  0
  6  7  1  0
  7  8  1  0
  2  9  1  0
  9 10  1  0
 10 11  1  0
 11 12  1  0
 12 13  1  0
 13 14  1  0
 15 14  1  0
 15 16  1  0
 16 17  1  0
 15 18  1  0
  8  3  1  0
 18  9  1  0
 17 11  1  0
  4 19  1  0
  5 20  1  0
  5 21  1  0
  6 22  1  0
  6 23  1  0
  7 24  1  0
  7 25  1  0
  8 26  1  0
  8 27  1  0
 10 28  1  0
 10 29  1  0
 11 30  1  6
 12 31  1  0
 12 32  1  0
 13 33  1  0
 13 34  1  0
 14 35  1  0
 14 36  1  0
 16 37  1  0
 16 38  1  0
 17 39  1  0
 17 40  1  0
 18 41  1  0
 18 42  1  0
M  END
>  <UniqueID>  (15) 
14

>  <SMILES>  (15) 
O=C(C1=CCCCC1)N1C[C@@H]2CCC[N@@](CC2)C1

>  <Energy>  (15) 
72.46412062866376

>  <Genealogy>  (15) 
O=C(C1=CCCCC1)N1C[C@@H]2CCC[N@@](CC2)C1 (chirality)
O=C(C1=CCCCC1)N1C[C@@H]2CCC[N@@](CC2)C1 (3D coordinates assigned)
O=C(C1=CCCCC1)N1C[C@@H]2CCC[N@@](CC2)C1 (nonaromatic ring conformer: 72.46412062866376 kcal/mol)

>  <smiles>  (15) 
O=C(C1=CCCCC1)N1CC2CCCN(CC2)C1

>  <score_type>  (15) 
oracle

>  <origin>  (15) 
adg

>  <m_score__min__energy>  (15) 
-3.21

>  <m_primary>  (15) 
energy

$$$$
15:0
     RDKit          3D

 48 51  0  0  1  0  0  0  0  0999 V2000
   -5.4150   25.5160  -30.5050 C   0  0  0  0  0  0  0  0  0  0  0  0
   -5.1140   24.6030  -31.5080 O   0  0  0  0  0  0  0  0  0  0  0  0
   -5.7950   23.4140  -31.6100 C   0  0  0  0  0  0  0  0  0  0  0  0
   -7.1680   23.4590  -31.6870 C   0  0  0  0  0  0  0  0  0  0  0  0
   -7.8170   22.2470  -31.7880 C   0  0  0  0  0  0  0  0  0  0  0  0
   -9.1660   22.3090  -31.8560 N   0  0  0  0  0  0  0  0  0  0  0  0
   -9.8680   21.1740  -31.9520 C   0  0  0  0  0  0  0  0  0  0  0  0
   -9.2270   20.0100  -31.9780 N   0  0  0  0  0  0  0  0  0  0  0  0
   -7.8730   19.9190  -31.9110 C   0  0  0  0  0  0  0  0  0  0  0  0
   -7.3700   18.7920  -31.9600 N   0  0  0  0  0  0  0  0  0  0  0  0
   -7.1690   17.9930  -33.1250 C   0  0  0  0  0  0  0  0  0  0  0  0
   -5.8220   17.4300  -33.5020 C   0  0  0  0  0  0  0  0  0  0  0  0
   -6.1150   18.7380  -34.0380 C   0  0  0  0  0  0  0  0  0  0  0  0
   -7.1180   21.0530  -31.8110 C   0  0  0  0  0  0  0  0  0  0  0  0
   -5.7580   21.0300  -31.7340 C   0  0  0  0  0  0  0  0  0  0  0  0
   -5.0690   22.2620  -31.6290 C   0  0  0  0  0  0  0  0  0  0  0  0
   -3.6260   22.3230  -31.5410 C   0  0  0  0  0  0  0  0  0  0  0  0
   -3.1190   23.2930  -30.9310 O   0  0  0  0  0  0  0  0  0  0  0  0
   -2.7480   21.3590  -32.1000 N   0  0  0  0  0  0  0  0  0  0  0  0
   -1.3200   21.5400  -31.9380 C   0  0  0  0  0  0  0  0  0  0  0  0
   -0.6880   21.5500  -33.2920 C   0  0  0  0  0  0  0  0  0  0  0  0
   -1.2300   20.6330  -34.2370 N   0  0  0  0  0  0  0  0  0  0  0  0
   -0.1520   20.0210  -34.9770 C   0  0  0  0  0  0  0  0  0  0  0  0
   -2.1050   19.6220  -33.6970 C   0  0  0  0  0  0  0  0  0  0  0  0
   -3.1890   20.1920  -32.8290 C   0  0  0  0  0  0  0  0  0  0  0  0
   -5.2600   25.0459  -29.5227 H   0  0  0  0  0  0  0  0  0  0  0  0
   -4.7587   26.3937  -30.5991 H   0  0  0  0  0  0  0  0  0  0  0  0
   -6.4646   25.8313  -30.5991 H   0  0  0  0  0  0  0  0  0  0  0  0
   -7.7184   24.4112  -31.6689 H   0  0  0  0  0  0  0  0  0  0  0  0
   -9.6890   23.2240  -31.8370 H   0  0  0  0  0  0  0  0  0  0  0  0
  -10.9661   21.2040  -32.0089 H   0  0  0  0  0  0  0  0  0  0  0  0
   -8.1670   17.5304  -33.1172 H   0  0  0  0  0  0  0  0  0  0  0  0
   -5.0472   17.3288  -32.7278 H   0  0  0  0  0  0  0  0  0  0  0  0
   -5.5095   16.4831  -33.9665 H   0  0  0  0  0  0  0  0  0  0  0  0
   -5.5826   19.6218  -33.6566 H   0  0  0  0  0  0  0  0  0  0  0  0
   -6.1307   19.1834  -35.0437 H   0  0  0  0  0  0  0  0  0  0  0  0
   -5.2087   20.0772  -31.7530 H   0  0  0  0  0  0  0  0  0  0  0  0
   -1.1222   22.4948  -31.4289 H   0  0  0  0  0  0  0  0  0  0  0  0
   -0.9022   20.7222  -31.3325 H   0  0  0  0  0  0  0  0  0  0  0  0
   -0.7943   22.5634  -33.7063 H   0  0  0  0  0  0  0  0  0  0  0  0
    0.3549   21.2365  -33.1366 H   0  0  0  0  0  0  0  0  0  0  0  0
    0.5841   19.6031  -34.2745 H   0  0  0  0  0  0  0  0  0  0  0  0
   -0.5528   19.2157  -35.6102 H   0  0  0  0  0  0  0  0  0  0  0  0
    0.3341   20.7778  -35.6102 H   0  0  0  0  0  0  0  0  0  0  0  0
   -2.5725   19.0797  -34.5321 H   0  0  0  0  0  0  0  0  0  0  0  0
   -1.4939   18.9572  -33.0689 H   0  0  0  0  0  0  0  0  0  0  0  0
   -4.0412   20.4730  -33.4653 H   0  0  0  0  0  0  0  0  0  0  0  0
   -3.4732   19.4232  -32.0954 H   0  0  0  0  0  0  0  0  0  0  0  0
  1  2  1  0
  2  3  1  0
  3  4  2  0
  4  5  1  0
  5  6  1  0
  6  7  1  0
  7  8  2  0
  8  9  1  0
  9 10  2  0
 10 11  1  0
 11 12  1  0
 12 13  1  0
  9 14  1  0
 14 15  1  0
 15 16  2  0
 16 17  1  0
 17 18  2  0
 17 19  1  0
 19 20  1  0
 20 21  1  0
 21 22  1  0
 22 23  1  0
 22 24  1  0
 24 25  1  0
 16  3  1  0
 25 19  1  0
 14  5  2  0
 13 11  1  0
  1 26  1  0
  1 27  1  0
  1 28  1  0
  4 29  1  0
  6 30  1  0
  7 31  1  0
 11 32  1  0
 12 33  1  0
 12 34  1  0
 13 35  1  0
 13 36  1  0
 15 37  1  0
 20 38  1  0
 20 39  1  0
 21 40  1  0
 21 41  1  0
 23 42  1  0
 23 43  1  0
 23 44  1  0
 24 45  1  0
 24 46  1  0
 25 47  1  0
 25 48  1  0
M  END
>  <smiles>  (16) 
COc1cc2[nH]cnc(=NC3CC3)c2cc1C(=O)N1CCN(C)CC1

>  <score_type>  (16) 
oracle

>  <origin>  (16) 
adg

>  <m_score__min__energy>  (16) 
-8.1799999999999997

>  <m_primary>  (16) 
energy

$$$$
16:0
     RDKit          3D

 39 42  0  0  0  0  0  0  0  0999 V2000
   -0.8940   21.5380  -32.9630 C   0  0  0  0  0  0  0  0  0  0  0  0
   -1.8320   20.6220  -32.2910 N   0  0  0  0  0  0  0  0  0  0  0  0
   -3.0820   21.2740  -31.8900 C   0  0  0  0  0  0  0  0  0  0  0  0
   -2.8850   22.3340  -30.7970 C   0  0  0  0  0  0  0  0  0  0  0  0
   -1.8360   22.0200  -29.8010 N   0  0  0  0  0  0  0  0  0  0  0  0
   -1.6280   22.9390  -28.6810 C   0  0  0  0  0  0  0  0  0  0  0  0
   -1.9620   24.3130  -28.7880 C   0  0  0  0  0  0  0  0  0  0  0  0
   -1.7670   25.1960  -27.7230 C   0  0  0  0  0  0  0  0  0  0  0  0
   -1.2280   24.7360  -26.5190 C   0  0  0  0  0  0  0  0  0  0  0  0
   -0.8760   23.3710  -26.3810 C   0  0  0  0  0  0  0  0  0  0  0  0
   -0.3250   22.9140  -25.1570 C   0  0  0  0  0  0  0  0  0  0  0  0
   -0.1340   23.7780  -24.1150 N   0  0  0  0  0  0  0  0  0  0  0  0
   -0.4770   25.0830  -24.2610 C   0  0  0  0  0  0  0  0  0  0  0  0
   -0.3480   26.0430  -23.3330 N   0  0  0  0  0  0  0  0  0  0  0  0
   -0.8110   27.1720  -23.9150 C   0  0  0  0  0  0  0  0  0  0  0  0
   -1.2330   26.9210  -25.2180 C   0  0  0  0  0  0  0  0  0  0  0  0
   -1.0100   25.5720  -25.4200 C   0  0  0  0  0  0  0  0  0  0  0  0
   -1.0750   22.4910  -27.4550 C   0  0  0  0  0  0  0  0  0  0  0  0
   -0.8940   20.8930  -29.9840 C   0  0  0  0  0  0  0  0  0  0  0  0
   -1.2380   19.9400  -31.1380 C   0  0  0  0  0  0  0  0  0  0  0  0
   -0.3221   22.0965  -32.2073 H   0  0  0  0  0  0  0  0  0  0  0  0
   -0.2023   20.9581  -33.5917 H   0  0  0  0  0  0  0  0  0  0  0  0
   -1.4573   22.2433  -33.5917 H   0  0  0  0  0  0  0  0  0  0  0  0
   -3.5225   21.7596  -32.7732 H   0  0  0  0  0  0  0  0  0  0  0  0
   -3.7400   20.4954  -31.4768 H   0  0  0  0  0  0  0  0  0  0  0  0
   -2.6179   23.2824  -31.2860 H   0  0  0  0  0  0  0  0  0  0  0  0
   -3.8326   22.3804  -30.2403 H   0  0  0  0  0  0  0  0  0  0  0  0
   -2.3840   24.6920  -29.7305 H   0  0  0  0  0  0  0  0  0  0  0  0
   -2.0386   26.2563  -27.8328 H   0  0  0  0  0  0  0  0  0  0  0  0
   -0.0489   21.8551  -25.0450 H   0  0  0  0  0  0  0  0  0  0  0  0
    0.2720   23.4340  -23.2150 H   0  0  0  0  0  0  0  0  0  0  0  0
    0.0300   25.9420  -22.3650 H   0  0  0  0  0  0  0  0  0  0  0  0
   -0.8492   28.1562  -23.4252 H   0  0  0  0  0  0  0  0  0  0  0  0
   -1.6540   27.6424  -25.9338 H   0  0  0  0  0  0  0  0  0  0  0  0
   -0.7965   21.4327  -27.3438 H   0  0  0  0  0  0  0  0  0  0  0  0
    0.1056   21.3112  -30.1733 H   0  0  0  0  0  0  0  0  0  0  0  0
   -0.9496   20.2935  -29.0634 H   0  0  0  0  0  0  0  0  0  0  0  0
   -0.3148   19.4393  -31.4652 H   0  0  0  0  0  0  0  0  0  0  0  0
   -1.9838   19.2249  -30.7607 H   0  0  0  0  0  0  0  0  0  0  0  0
  1  2  1  0
  2  3  1  0
  3  4  1  0
  4  5  1  0
  5  6  1  0
  6  7  2  0
  7  8  1  0
  8  9  2  0
  9 10  1  0
 10 11  1  0
 11 12  2  0
 12 13  1  0
 13 14  1  0
 14 15  1  0
 15 16  2  0
 16 17  1  0
 10 18  2  0
  5 19  1  0
 19 20  1  0
 20  2  1  0
 18  6  1  0
 17  9  1  0
 17 13  2  0
  1 21  1  0
  1 22  1  0
  1 23  1  0
  3 24  1  0
  3 25  1  0
  4 26  1  0
  4 27  1  0
  7 28  1  0
  8 29  1  0
 11 30  1  0
 12 31  1  0
 14 32  1  0
 15 33  1  0
 16 34  1  0
 18 35  1  0
 19 36  1  0
 19 37  1  0
 20 38  1  0
 20 39  1  0
M  CHG  1  12   1
M  END
>  <UniqueID>  (17) 
15

>  <SMILES>  (17) 
CN1CCN(c2ccc3c(c[nH+]c4[nH]ccc43)c2)CC1

>  <Energy>  (17) 
90.23161748077663

>  <Genealogy>  (17) 
CN1CCN(c2ccc3c(c[nH+]c4[nH]ccc43)c2)CC1 (protonated)
CN1CCN(c2ccc3c(c[nH+]c4[nH]ccc43)c2)CC1 (3D coordinates assigned)
CN1CCN(c2ccc3c(c[nH+]c4[nH]ccc43)c2)CC1 (nonaromatic ring conformer: 90.23161748077663 kcal/mol)

>  <smiles>  (17) 
CN1CCN(c2ccc3c(cnc4[nH]ccc43)c2)CC1

>  <score_type>  (17) 
oracle

>  <origin>  (17) 
adg

>  <m_score__min__energy>  (17) 
-6.4400000000000004

>  <m_primary>  (17) 
energy

$$$$
17:0
     RDKit          3D

 31 32  0  0  0  0  0  0  0  0999 V2000
   -6.3420   25.0130  -29.6990 C   0  0  0  0  0  0  0  0  0  0  0  0
   -5.3460   25.8760  -30.4680 C   0  0  0  0  0  0  0  0  0  0  0  0
   -4.0580   25.2630  -30.4820 O   0  0  0  0  0  0  0  0  0  0  0  0
   -3.8310   23.9470  -30.0630 C   0  0  0  0  0  0  0  0  0  0  0  0
   -3.8920   23.6480  -28.8390 O   0  0  0  0  0  0  0  0  0  0  0  0
   -3.5370   22.9100  -31.0680 C   0  0  0  0  0  0  0  0  0  0  0  0
   -2.3180   22.2690  -31.1870 C   0  0  0  0  0  0  0  0  0  0  0  0
   -2.4180   21.4380  -32.2840 C   0  0  0  0  0  0  0  0  0  0  0  0
   -3.6930   21.5930  -32.7870 C   0  0  0  0  0  0  0  0  0  0  0  0
   -4.3800   22.4780  -32.0370 N   0  0  0  0  0  0  0  0  0  0  0  0
   -5.7590   22.8250  -32.2450 C   0  0  0  0  0  0  0  0  0  0  0  0
   -6.0500   24.0110  -32.5560 O   0  0  0  0  0  0  0  0  0  0  0  0
   -6.8370   21.8100  -32.1480 C   0  0  0  0  0  0  0  0  0  0  0  0
   -8.1350   22.1910  -31.7630 C   0  0  0  0  0  0  0  0  0  0  0  0
   -9.1490   21.2340  -31.6500 C   0  0  0  0  0  0  0  0  0  0  0  0
   -8.8800   19.8920  -31.9250 C   0  0  0  0  0  0  0  0  0  0  0  0
   -7.5980   19.5030  -32.3230 C   0  0  0  0  0  0  0  0  0  0  0  0
   -7.2290   17.6670  -32.6990 Br  0  0  0  0  0  0  0  0  0  0  0  0
   -6.5830   20.4580  -32.4430 C   0  0  0  0  0  0  0  0  0  0  0  0
   -6.1863   25.1479  -28.6185 H   0  0  0  0  0  0  0  0  0  0  0  0
   -7.3670   25.3133  -29.9621 H   0  0  0  0  0  0  0  0  0  0  0  0
   -6.1907   23.9557  -29.9621 H   0  0  0  0  0  0  0  0  0  0  0  0
   -5.6986   26.0006  -31.5025 H   0  0  0  0  0  0  0  0  0  0  0  0
   -5.2679   26.8550  -29.9727 H   0  0  0  0  0  0  0  0  0  0  0  0
   -1.4409   22.3963  -30.5354 H   0  0  0  0  0  0  0  0  0  0  0  0
   -1.6321   20.7787  -32.6810 H   0  0  0  0  0  0  0  0  0  0  0  0
   -4.0907   21.0714  -33.6700 H   0  0  0  0  0  0  0  0  0  0  0  0
   -8.3541   23.2476  -31.5495 H   0  0  0  0  0  0  0  0  0  0  0  0
  -10.1604   21.5395  -31.3438 H   0  0  0  0  0  0  0  0  0  0  0  0
   -9.6774   19.1404  -31.8284 H   0  0  0  0  0  0  0  0  0  0  0  0
   -5.5791   20.1498  -32.7703 H   0  0  0  0  0  0  0  0  0  0  0  0
  1  2  1  0
  2  3  1  0
  3  4  1  0
  4  5  2  0
  4  6  1  0
  6  7  2  0
  7  8  1  0
  8  9  2  0
  9 10  1  0
 10 11  1  0
 11 12  2  0
 11 13  1  0
 13 14  2  0
 14 15  1  0
 15 16  2  0
 16 17  1  0
 17 18  1  0
 17 19  2  0
 10  6  1  0
 19 13  1  0
  1 20  1  0
  1 21  1  0
  1 22  1  0
  2 23  1  0
  2 24  1  0
  7 25  1  0
  8 26  1  0
  9 27  1  0
 14 28  1  0
 15 29  1  0
 16 30  1  0
 19 31  1  0
M  END
>  <UniqueID>  (18) 
16

>  <SMILES>  (18) 
CCOC(=O)c1cccn1C(=O)c1cccc(Br)c1

>  <Energy>  (18) 
59.28523311929822

>  <Genealogy>  (18) 
CCOC(=O)c1cccn1C(=O)c1cccc(Br)c1 (3D coordinates assigned)
CCOC(=O)c1cccn1C(=O)c1cccc(Br)c1 (optimized conformer: 59.28523311929822 kcal/mol)

>  <smiles>  (18) 
CCOC(=O)c1cccn1C(=O)c1cccc(Br)c1

>  <score_type>  (18) 
oracle

>  <origin>  (18) 
adg

>  <m_score__min__energy>  (18) 
-7.8600000000000003

>  <m_primary>  (18) 
energy

$$$$
18:0
     RDKit          3D

 37 39  0  0  0  0  0  0  0  0999 V2000
   -0.1480   23.4240  -24.4780 C   0  0  0  0  0  0  0  0  0  0  0  0
    0.0100   22.8110  -25.7540 O   0  0  0  0  0  0  0  0  0  0  0  0
   -1.0640   22.2370  -26.4450 C   0  0  0  0  0  0  0  0  0  0  0  0
   -1.4580   21.0720  -26.1490 O   0  0  0  0  0  0  0  0  0  0  0  0
   -1.7480   23.0050  -27.5080 C   0  0  0  0  0  0  0  0  0  0  0  0
   -1.2070   24.2170  -27.9760 C   0  0  0  0  0  0  0  0  0  0  0  0
   -1.8640   24.9570  -28.9640 C   0  0  0  0  0  0  0  0  0  0  0  0
   -3.0970   24.5120  -29.4780 C   0  0  0  0  0  0  0  0  0  0  0  0
   -3.8390   25.2440  -30.4680 N   0  0  0  0  0  0  0  0  0  0  0  0
   -5.2520   25.2330  -30.7070 C   0  0  0  0  0  0  0  0  0  0  0  0
   -6.0350   25.9600  -30.0400 O   0  0  0  0  0  0  0  0  0  0  0  0
   -5.8150   24.2610  -31.6940 C   0  0  0  0  0  0  0  0  0  0  0  0
   -7.5140   23.7800  -31.2270 S   0  0  0  0  0  0  0  0  0  0  0  0
   -7.3490   22.0830  -31.7860 C   0  0  0  0  0  0  0  0  0  0  0  0
   -6.3950   21.6870  -32.6730 N   0  0  0  0  0  0  0  0  0  0  0  0
   -6.6710   20.3780  -32.8060 C   0  0  0  0  0  0  0  0  0  0  0  0
   -6.0270   19.4460  -33.6150 C   0  0  0  0  0  0  0  0  0  0  0  0
   -6.4990   18.1180  -33.5840 C   0  0  0  0  0  0  0  0  0  0  0  0
   -7.5900   17.7640  -32.7560 C   0  0  0  0  0  0  0  0  0  0  0  0
   -8.2280   18.7380  -31.9620 C   0  0  0  0  0  0  0  0  0  0  0  0
   -7.7310   20.0380  -32.0190 C   0  0  0  0  0  0  0  0  0  0  0  0
   -8.1460   21.1040  -31.3880 O   0  0  0  0  0  0  0  0  0  0  0  0
   -3.6240   23.2940  -29.0310 C   0  0  0  0  0  0  0  0  0  0  0  0
   -2.9550   22.5400  -28.0610 C   0  0  0  0  0  0  0  0  0  0  0  0
    0.0432   22.6822  -23.6886 H   0  0  0  0  0  0  0  0  0  0  0  0
    0.5651   24.2558  -24.3800 H   0  0  0  0  0  0  0  0  0  0  0  0
   -1.1743   23.8074  -24.3800 H   0  0  0  0  0  0  0  0  0  0  0  0
   -0.2577   24.5859  -27.5604 H   0  0  0  0  0  0  0  0  0  0  0  0
   -1.4166   25.8887  -29.3404 H   0  0  0  0  0  0  0  0  0  0  0  0
   -5.8323   24.7269  -32.6903 H   0  0  0  0  0  0  0  0  0  0  0  0
   -5.1825   23.3611  -31.7051 H   0  0  0  0  0  0  0  0  0  0  0  0
   -5.1806   19.7353  -34.2552 H   0  0  0  0  0  0  0  0  0  0  0  0
   -6.0156   17.3518  -34.2079 H   0  0  0  0  0  0  0  0  0  0  0  0
   -7.9425   16.7223  -32.7317 H   0  0  0  0  0  0  0  0  0  0  0  0
   -9.0852   18.4816  -31.3221 H   0  0  0  0  0  0  0  0  0  0  0  0
   -4.5737   22.9264  -29.4469 H   0  0  0  0  0  0  0  0  0  0  0  0
   -3.3748   21.5789  -27.7291 H   0  0  0  0  0  0  0  0  0  0  0  0
  1  2  1  0
  2  3  1  0
  3  4  2  0
  3  5  1  0
  5  6  2  0
  6  7  1  0
  7  8  2  0
  8  9  1  0
  9 10  1  0
 10 11  2  0
 10 12  1  0
 12 13  1  0
 13 14  1  0
 14 15  2  0
 15 16  1  0
 16 17  2  0
 17 18  1  0
 18 19  2  0
 19 20  1  0
 20 21  2  0
 21 22  1  0
  8 23  1  0
 23 24  2  0
 24  5  1  0
 22 14  1  0
 21 16  1  0
  1 25  1  0
  1 26  1  0
  1 27  1  0
  6 28  1  0
  7 29  1  0
 12 30  1  0
 12 31  1  0
 17 32  1  0
 18 33  1  0
 19 34  1  0
 20 35  1  0
 23 36  1  0
 24 37  1  0
M  CHG  1   9  -1
M  END
>  <UniqueID>  (19) 
17

>  <SMILES>  (19) 
COC(=O)c1ccc([N-]C(=O)CSc2nc3ccccc3o2)cc1

>  <Energy>  (19) 
72.92450111511843

>  <Genealogy>  (19) 
COC(=O)c1ccc([N-]C(=O)CSc2nc3ccccc3o2)cc1 (protonated)
COC(=O)c1ccc([N-]C(=O)CSc2nc3ccccc3o2)cc1 (3D coordinates assigned)
COC(=O)c1ccc([N-]C(=O)CSc2nc3ccccc3o2)cc1 (optimized conformer: 72.92450111511843 kcal/mol)

>  <smiles>  (19) 
COC(=O)c1ccc(NC(=O)CSc2nc3ccccc3o2)cc1

>  <score_type>  (19) 
oracle

>  <origin>  (19) 
adg

>  <m_score__min__energy>  (19) 
-9.5399999999999991

>  <m_primary>  (19) 
energy

$$$$
19:0
     RDKit          3D

 48 51  0  0  0  0  0  0  0  0999 V2000
   -5.3390   25.7330  -30.4670 C   0  0  0  0  0  0  0  0  0  0  0  0
   -5.2740   24.2590  -30.5820 N   0  0  0  0  0  0  0  0  0  0  0  0
   -4.6390   23.6870  -29.3690 C   0  0  0  0  0  0  0  0  0  0  0  0
   -3.1700   23.4180  -29.5890 C   0  0  0  0  0  0  0  0  0  0  0  0
   -2.6050   22.4810  -30.4600 C   0  0  0  0  0  0  0  0  0  0  0  0
   -3.3170   21.5490  -31.3590 C   0  0  0  0  0  0  0  0  0  0  0  0
   -3.0850   21.5580  -32.7440 C   0  0  0  0  0  0  0  0  0  0  0  0
   -3.7790   20.6800  -33.5820 C   0  0  0  0  0  0  0  0  0  0  0  0
   -4.6980   19.7750  -33.0420 C   0  0  0  0  0  0  0  0  0  0  0  0
   -5.5680   18.6740  -34.0950 Cl  0  0  0  0  0  0  0  0  0  0  0  0
   -4.9160   19.7430  -31.6620 C   0  0  0  0  0  0  0  0  0  0  0  0
   -4.2240   20.6220  -30.8210 C   0  0  0  0  0  0  0  0  0  0  0  0
   -1.2610   22.4800  -30.2960 N   0  0  0  0  0  0  0  0  0  0  0  0
   -1.0310   23.4120  -29.3550 C   0  0  0  0  0  0  0  0  0  0  0  0
    0.2080   23.7790  -28.8340 C   0  0  0  0  0  0  0  0  0  0  0  0
    0.2350   24.7370  -27.8630 N   0  0  0  0  0  0  0  0  0  0  0  0
   -0.9100   25.3260  -27.4030 C   0  0  0  0  0  0  0  0  0  0  0  0
   -2.1510   24.9440  -27.9350 C   0  0  0  0  0  0  0  0  0  0  0  0
   -2.1560   23.9930  -28.9060 N   0  0  0  0  0  0  0  0  0  0  0  0
   -6.6310   23.7150  -30.9040 C   0  0  0  0  0  0  0  0  0  0  0  0
   -6.6740   23.3060  -32.4160 C   0  0  0  0  0  0  0  0  0  0  0  0
   -7.1210   21.8630  -32.6970 C   0  0  0  0  0  0  0  0  0  0  0  0
   -8.3430   21.5340  -31.8940 C   0  0  0  0  0  0  0  0  0  0  0  0
   -9.2700   20.9270  -32.4070 O   0  0  0  0  0  0  0  0  0  0  0  0
   -8.4110   21.9270  -30.4490 C   0  0  0  0  0  0  0  0  0  0  0  0
   -7.0850   22.5430  -29.9840 C   0  0  0  0  0  0  0  0  0  0  0  0
   -5.3516   26.0177  -29.4046 H   0  0  0  0  0  0  0  0  0  0  0  0
   -4.4596   26.1780  -30.9555 H   0  0  0  0  0  0  0  0  0  0  0  0
   -6.2542   26.0989  -30.9555 H   0  0  0  0  0  0  0  0  0  0  0  0
   -4.7517   24.3980  -28.5373 H   0  0  0  0  0  0  0  0  0  0  0  0
   -5.1341   22.7324  -29.1374 H   0  0  0  0  0  0  0  0  0  0  0  0
   -2.3535   22.2594  -33.1717 H   0  0  0  0  0  0  0  0  0  0  0  0
   -3.6018   20.7012  -34.6674 H   0  0  0  0  0  0  0  0  0  0  0  0
   -5.6328   19.0256  -31.2360 H   0  0  0  0  0  0  0  0  0  0  0  0
   -4.3913   20.5865  -29.7344 H   0  0  0  0  0  0  0  0  0  0  0  0
   -0.5580   21.8830  -30.7860 H   0  0  0  0  0  0  0  0  0  0  0  0
    1.1358   23.3108  -29.1944 H   0  0  0  0  0  0  0  0  0  0  0  0
   -0.8585   26.0961  -26.6192 H   0  0  0  0  0  0  0  0  0  0  0  0
   -3.0872   25.3984  -27.5786 H   0  0  0  0  0  0  0  0  0  0  0  0
   -7.3567   24.5179  -30.7074 H   0  0  0  0  0  0  0  0  0  0  0  0
   -7.3712   23.9834  -32.9309 H   0  0  0  0  0  0  0  0  0  0  0  0
   -5.6380   23.3779  -32.7785 H   0  0  0  0  0  0  0  0  0  0  0  0
   -7.3499   21.7555  -33.7675 H   0  0  0  0  0  0  0  0  0  0  0  0
   -6.3104   21.1748  -32.4153 H   0  0  0  0  0  0  0  0  0  0  0  0
   -9.2168   22.6636  -30.3140 H   0  0  0  0  0  0  0  0  0  0  0  0
   -8.6083   21.0260  -29.8496 H   0  0  0  0  0  0  0  0  0  0  0  0
   -7.2103   22.9238  -28.9597 H   0  0  0  0  0  0  0  0  0  0  0  0
   -6.3136   21.7599  -30.0261 H   0  0  0  0  0  0  0  0  0  0  0  0
  1  2  1  0
  2  3  1  0
  3  4  1  0
  4  5  2  0
  5  6  1  0
  6  7  2  0
  7  8  1  0
  8  9  2  0
  9 10  1  0
  9 11  1  0
 11 12  2  0
  5 13  1  0
 13 14  2  0
 14 15  1  0
 15 16  2  0
 16 17  1  0
 17 18  2  0
 18 19  1  0
  2 20  1  0
 20 21  1  0
 21 22  1  0
 22 23  1  0
 23 24  2  0
 23 25  1  0
 25 26  1  0
 19  4  1  0
 26 20  1  0
 12  6  1  0
 19 14  1  0
  1 27  1  0
  1 28  1  0
  1 29  1  0
  3 30  1  0
  3 31  1  0
  7 32  1  0
  8 33  1  0
 11 34  1  0
 12 35  1  0
 13 36  1  0
 15 37  1  0
 17 38  1  0
 18 39  1  0
 20 40  1  0
 21 41  1  0
 21 42  1  0
 22 43  1  0
 22 44  1  0
 25 45  1  0
 25 46  1  0
 26 47  1  0
 26 48  1  0
M  CHG  1  13   1
M  END
>  <UniqueID>  (20) 
18

>  <SMILES>  (20) 
CN(Cc1c(-c2ccc(Cl)cc2)[nH+]c2cnccn12)C1CCC(=O)CC1

>  <Energy>  (20) 
103.10738936806142

>  <Genealogy>  (20) 
CN(Cc1c(-c2ccc(Cl)cc2)[nH+]c2cnccn12)C1CCC(=O)CC1 (protonated)
CN(Cc1c(-c2ccc(Cl)cc2)[nH+]c2cnccn12)C1CCC(=O)CC1 (3D coordinates assigned)
CN(Cc1c(-c2ccc(Cl)cc2)[nH+]c2cnccn12)C1CCC(=O)CC1 (nonaromatic ring conformer: 103.10738936806142 kcal/mol)

>  <smiles>  (20) 
CN(Cc1c(-c2ccc(Cl)cc2)nc2cnccn12)C1CCC(=O)CC1

>  <score_type>  (20) 
oracle

>  <origin>  (20) 
adg

>  <m_score__min__energy>  (20) 
-8.0500000000000007

>  <m_primary>  (20) 
energy

$$$$
20:0
     RDKit          3D

 50 55  0  0  0  0  0  0  0  0999 V2000
   -1.5590   21.0280  -34.2090 O   0  0  0  0  0  0  0  0  0  0  0  0
   -1.7970   19.5890  -33.8580 S   0  0  0  0  0  0  0  0  0  0  0  0
   -1.1870   18.7250  -34.9230 O   0  0  0  0  0  0  0  0  0  0  0  0
   -1.0620   19.1960  -32.2940 C   0  0  0  0  0  0  0  0  0  0  0  0
   -0.5750   17.8930  -32.0920 C   0  0  0  0  0  0  0  0  0  0  0  0
    0.0700   17.5460  -30.9060 C   0  0  0  0  0  0  0  0  0  0  0  0
    0.2270   18.4860  -29.8890 C   0  0  0  0  0  0  0  0  0  0  0  0
   -0.2550   19.7910  -30.0560 C   0  0  0  0  0  0  0  0  0  0  0  0
   -0.0940   20.7440  -29.0350 C   0  0  0  0  0  0  0  0  0  0  0  0
   -0.5340   22.0190  -29.2150 N   0  0  0  0  0  0  0  0  0  0  0  0
   -1.1320   22.4110  -30.3690 C   0  0  0  0  0  0  0  0  0  0  0  0
   -1.3200   21.5010  -31.4120 C   0  0  0  0  0  0  0  0  0  0  0  0
   -0.8940   20.1650  -31.2680 C   0  0  0  0  0  0  0  0  0  0  0  0
   -3.5280   19.3040  -33.7670 C   0  0  0  0  0  0  0  0  0  0  0  0
   -4.1800   18.2440  -34.3040 N   0  0  0  0  0  0  0  0  0  0  0  0
   -5.4650   18.3630  -33.9740 N   0  0  0  0  0  0  0  0  0  0  0  0
   -5.6390   19.4570  -33.2490 N   0  0  0  0  0  0  0  0  0  0  0  0
   -4.4600   20.0540  -33.1050 C   0  0  0  0  0  0  0  0  0  0  0  0
   -4.3050   21.1870  -32.3880 N   0  0  0  0  0  0  0  0  0  0  0  0
   -5.3930   21.7460  -31.7830 C   0  0  0  0  0  0  0  0  0  0  0  0
   -5.2120   22.9500  -31.0310 N   0  0  0  0  0  0  0  0  0  0  0  0
   -5.7460   24.1890  -31.6090 C   0  0  0  0  0  0  0  0  0  0  0  0
   -5.3190   25.4120  -30.8060 C   0  0  0  0  0  0  0  0  0  0  0  0
   -3.9550   25.3000  -30.4680 O   0  0  0  0  0  0  0  0  0  0  0  0
   -3.8120   24.3280  -29.4530 C   0  0  0  0  0  0  0  0  0  0  0  0
   -4.2240   22.9240  -29.9420 C   0  0  0  0  0  0  0  0  0  0  0  0
   -6.6700   21.1310  -31.9080 C   0  0  0  0  0  0  0  0  0  0  0  0
   -7.8210   21.6520  -31.2890 C   0  0  0  0  0  0  0  0  0  0  0  0
   -9.0520   21.0020  -31.4400 C   0  0  0  0  0  0  0  0  0  0  0  0
   -9.1440   19.8290  -32.1990 C   0  0  0  0  0  0  0  0  0  0  0  0
   -8.0100   19.2950  -32.8160 C   0  0  0  0  0  0  0  0  0  0  0  0
   -6.7720   19.9390  -32.6760 C   0  0  0  0  0  0  0  0  0  0  0  0
   -0.7046   17.1370  -32.8804 H   0  0  0  0  0  0  0  0  0  0  0  0
    0.4571   16.5251  -30.7721 H   0  0  0  0  0  0  0  0  0  0  0  0
    0.7305   18.2027  -28.9530 H   0  0  0  0  0  0  0  0  0  0  0  0
    0.3886   20.4584  -28.0887 H   0  0  0  0  0  0  0  0  0  0  0  0
   -1.4705   23.4514  -30.4834 H   0  0  0  0  0  0  0  0  0  0  0  0
   -1.8007   21.8271  -32.3461 H   0  0  0  0  0  0  0  0  0  0  0  0
   -5.3750   24.2911  -32.6395 H   0  0  0  0  0  0  0  0  0  0  0  0
   -6.8444   24.1317  -31.5909 H   0  0  0  0  0  0  0  0  0  0  0  0
   -5.4740   26.3189  -31.4090 H   0  0  0  0  0  0  0  0  0  0  0  0
   -5.9203   25.4752  -29.8870 H   0  0  0  0  0  0  0  0  0  0  0  0
   -2.7599   24.2991  -29.1333 H   0  0  0  0  0  0  0  0  0  0  0  0
   -4.4715   24.6063  -28.6178 H   0  0  0  0  0  0  0  0  0  0  0  0
   -3.3245   22.4019  -30.3001 H   0  0  0  0  0  0  0  0  0  0  0  0
   -4.6933   22.4091  -29.0908 H   0  0  0  0  0  0  0  0  0  0  0  0
   -7.7539   22.5699  -30.6865 H   0  0  0  0  0  0  0  0  0  0  0  0
   -9.9514   21.4150  -30.9599 H   0  0  0  0  0  0  0  0  0  0  0  0
  -10.1153   19.3247  -32.3102 H   0  0  0  0  0  0  0  0  0  0  0  0
   -8.0879   18.3723  -33.4098 H   0  0  0  0  0  0  0  0  0  0  0  0
  1  2  2  0
  2  3  2  0
  2  4  1  0
  4  5  2  0
  5  6  1  0
  6  7  2  0
  7  8  1  0
  8  9  2  0
  9 10  1  0
 10 11  2  0
 11 12  1  0
 12 13  2  0
  2 14  1  0
 14 15  1  0
 15 16  2  0
 16 17  1  0
 17 18  1  0
 18 19  1  0
 19 20  2  0
 20 21  1  0
 21 22  1  0
 22 23  1  0
 23 24  1  0
 24 25  1  0
 25 26  1  0
 20 27  1  0
 27 28  2  0
 28 29  1  0
 29 30  2  0
 30 31  1  0
 31 32  2  0
 13  4  1  0
 18 14  2  0
 26 21  1  0
 32 27  1  0
 13  8  1  0
 32 17  1  0
  5 33  1  0
  6 34  1  0
  7 35  1  0
  9 36  1  0
 11 37  1  0
 12 38  1  0
 22 39  1  0
 22 40  1  0
 23 41  1  0
 23 42  1  0
 25 43  1  0
 25 44  1  0
 26 45  1  0
 26 46  1  0
 28 47  1  0
 29 48  1  0
 30 49  1  0
 31 50  1  0
M  END
>  <UniqueID>  (21) 
19

>  <SMILES>  (21) 
O=S(=O)(c1cccc2cnccc12)c1nnn2c1nc(N1CCOCC1)c1ccccc12

>  <Energy>  (21) 
121.11877988544872

>  <Genealogy>  (21) 
O=S(=O)(c1cccc2cnccc12)c1nnn2c1nc(N1CCOCC1)c1ccccc12 (3D coordinates assigned)
O=S(=O)(c1cccc2cnccc12)c1nnn2c1nc(N1CCOCC1)c1ccccc12 (nonaromatic ring conformer: 121.11877988544872 kcal/mol)

>  <smiles>  (21) 
O=S(=O)(c1cccc2cnccc12)c1nnn2c1nc(N1CCOCC1)c1ccccc12

>  <score_type>  (21) 
oracle

>  <origin>  (21) 
adg

>  <m_score__min__energy>  (21) 
-11.220000000000001

>  <m_primary>  (21) 
energy

$$$$
21:0
     RDKit          3D

 40 42  0  0  0  0  0  0  0  0999 V2000
   -2.4880   18.6900  -33.8330 C   0  0  0  0  0  0  0  0  0  0  0  0
   -3.5930   17.7940  -33.9130 O   0  0  0  0  0  0  0  0  0  0  0  0
   -4.9040   18.0980  -33.5080 C   0  0  0  0  0  0  0  0  0  0  0  0
   -5.2270   19.3550  -32.9600 C   0  0  0  0  0  0  0  0  0  0  0  0
   -6.5450   19.6330  -32.5720 C   0  0  0  0  0  0  0  0  0  0  0  0
   -6.9420   20.8710  -32.0250 C   0  0  0  0  0  0  0  0  0  0  0  0
   -6.0310   21.9760  -31.9080 N   0  0  0  0  0  0  0  0  0  0  0  0
   -6.4390   23.3170  -32.3420 C   0  0  0  0  0  0  0  0  0  0  0  0
   -6.0680   24.3300  -31.2560 C   0  0  0  0  0  0  0  0  0  0  0  0
   -4.6120   24.3340  -30.9630 N   0  0  0  0  0  0  0  0  0  0  0  0
   -4.3630   24.8010  -29.5910 C   0  0  0  0  0  0  0  0  0  0  0  0
   -3.9170   23.0480  -31.2300 C   0  0  0  0  0  0  0  0  0  0  0  0
   -4.8330   21.8260  -31.0770 C   0  0  0  0  0  0  0  0  0  0  0  0
   -8.2290   21.0330  -31.6110 N   0  0  0  0  0  0  0  0  0  0  0  0
   -9.1450   20.0390  -31.7320 C   0  0  0  0  0  0  0  0  0  0  0  0
   -8.7900   18.8490  -32.2770 N   0  0  0  0  0  0  0  0  0  0  0  0
   -7.5170   18.6250  -32.6970 C   0  0  0  0  0  0  0  0  0  0  0  0
   -7.1660   17.3900  -33.2420 C   0  0  0  0  0  0  0  0  0  0  0  0
   -5.8830   17.1460  -33.6500 N   0  0  0  0  0  0  0  0  0  0  0  0
   -5.5420   15.8350  -34.2140 C   0  0  0  0  0  0  0  0  0  0  0  0
   -2.2489   18.8839  -32.7770 H   0  0  0  0  0  0  0  0  0  0  0  0
   -1.6154   18.2413  -34.3301 H   0  0  0  0  0  0  0  0  0  0  0  0
   -2.7467   19.6365  -34.3301 H   0  0  0  0  0  0  0  0  0  0  0  0
   -4.4448   20.1185  -32.8366 H   0  0  0  0  0  0  0  0  0  0  0  0
   -5.9216   23.5745  -33.2780 H   0  0  0  0  0  0  0  0  0  0  0  0
   -7.5257   23.3368  -32.5113 H   0  0  0  0  0  0  0  0  0  0  0  0
   -6.3638   25.3344  -31.5932 H   0  0  0  0  0  0  0  0  0  0  0  0
   -6.5961   24.0440  -30.3344 H   0  0  0  0  0  0  0  0  0  0  0  0
   -4.7562   24.0636  -28.8757 H   0  0  0  0  0  0  0  0  0  0  0  0
   -3.2808   24.9218  -29.4355 H   0  0  0  0  0  0  0  0  0  0  0  0
   -4.8658   25.7669  -29.4355 H   0  0  0  0  0  0  0  0  0  0  0  0
   -3.5278   23.0673  -32.2587 H   0  0  0  0  0  0  0  0  0  0  0  0
   -3.1118   22.9497  -30.4870 H   0  0  0  0  0  0  0  0  0  0  0  0
   -4.2872   20.9231  -31.3882 H   0  0  0  0  0  0  0  0  0  0  0  0
   -5.1387   21.7398  -30.0239 H   0  0  0  0  0  0  0  0  0  0  0  0
  -10.1773   20.1988  -31.3874 H   0  0  0  0  0  0  0  0  0  0  0  0
   -7.9286   16.6040  -33.3449 H   0  0  0  0  0  0  0  0  0  0  0  0
   -5.3564   15.1216  -33.3975 H   0  0  0  0  0  0  0  0  0  0  0  0
   -6.3762   15.4742  -34.8336 H   0  0  0  0  0  0  0  0  0  0  0  0
   -4.6377   15.9264  -34.8336 H   0  0  0  0  0  0  0  0  0  0  0  0
  1  2  1  0
  2  3  1  0
  3  4  2  0
  4  5  1  0
  5  6  2  0
  6  7  1  0
  7  8  1  0
  8  9  1  0
  9 10  1  0
 10 11  1  0
 10 12  1  0
 12 13  1  0
  6 14  1  0
 14 15  2  0
 15 16  1  0
 16 17  2  0
 17 18  1  0
 18 19  2  0
 19 20  1  0
 19  3  1  0
 17  5  1  0
 13  7  1  0
  1 21  1  0
  1 22  1  0
  1 23  1  0
  4 24  1  0
  8 25  1  0
  8 26  1  0
  9 27  1  0
  9 28  1  0
 11 29  1  0
 11 30  1  0
 11 31  1  0
 12 32  1  0
 12 33  1  0
 13 34  1  0
 13 35  1  0
 15 36  1  0
 18 37  1  0
 20 38  1  0
 20 39  1  0
 20 40  1  0
M  CHG  1  19   1
M  END
>  <UniqueID>  (22) 
20

>  <SMILES>  (22) 
COc1cc2c(N3CCN(C)CC3)ncnc2c[n+]1C

>  <Energy>  (22) 
58.21875896206259

>  <Genealogy>  (22) 
COc1cc2c(N3CCN(C)CC3)ncnc2c[n+]1C (3D coordinates assigned)
COc1cc2c(N3CCN(C)CC3)ncnc2c[n+]1C (nonaromatic ring conformer: 58.21875896206259 kcal/mol)

>  <smiles>  (22) 
COc1cc2c(N3CCN(C)CC3)ncnc2c[n+]1C

>  <score_type>  (22) 
oracle

>  <origin>  (22) 
adg

>  <m_score__min__energy>  (22) 
-6.21

>  <m_primary>  (22) 
energy

$$$$
22:0
     RDKit          3D

 48 50  0  0  0  0  0  0  0  0999 V2000
   -5.9580   25.1880  -30.1150 C   0  0  0  0  0  0  0  0  0  0  0  0
   -4.5680   24.5640  -30.2070 C   0  0  0  0  0  0  0  0  0  0  0  0
   -4.5910   23.1030  -29.7500 C   0  0  0  0  0  0  0  0  0  0  0  0
   -3.2790   22.3920  -30.0870 C   0  0  0  0  0  0  0  0  0  0  0  0
   -3.4050   21.6920  -31.3620 N   0  0  0  0  0  0  0  0  0  0  0  0
   -4.0080   22.1420  -32.4790 C   0  0  0  0  0  0  0  0  0  0  0  0
   -4.0370   21.2140  -33.4590 N   0  0  0  0  0  0  0  0  0  0  0  0
   -3.4420   20.1330  -32.9090 C   0  0  0  0  0  0  0  0  0  0  0  0
   -3.2110   18.8390  -33.6440 C   0  0  0  0  0  0  0  0  0  0  0  0
   -4.3730   17.9200  -33.6530 N   0  0  0  0  0  0  0  0  0  0  0  0
   -5.3760   18.1400  -34.7040 C   0  0  0  0  0  0  0  0  0  0  0  0
   -6.2590   19.3500  -34.4040 C   0  0  0  0  0  0  0  0  0  0  0  0
   -6.5510   19.4970  -32.9680 N   0  0  0  0  0  0  0  0  0  0  0  0
   -7.4050   20.5920  -32.5460 C   0  0  0  0  0  0  0  0  0  0  0  0
   -8.6690   20.3420  -31.9750 C   0  0  0  0  0  0  0  0  0  0  0  0
   -9.4770   21.4080  -31.5800 C   0  0  0  0  0  0  0  0  0  0  0  0
   -9.0360   22.7150  -31.7570 C   0  0  0  0  0  0  0  0  0  0  0  0
   -7.7850   22.9400  -32.3290 C   0  0  0  0  0  0  0  0  0  0  0  0
   -7.0010   21.8920  -32.7040 N   0  0  0  0  0  0  0  0  0  0  0  0
   -6.2450   18.4140  -32.0140 C   0  0  0  0  0  0  0  0  0  0  0  0
   -4.9650   17.6090  -32.3420 C   0  0  0  0  0  0  0  0  0  0  0  0
   -3.0430   20.4270  -31.6210 C   0  0  0  0  0  0  0  0  0  0  0  0
   -6.2349   25.3123  -29.0577 H   0  0  0  0  0  0  0  0  0  0  0  0
   -5.9526   26.1701  -30.6105 H   0  0  0  0  0  0  0  0  0  0  0  0
   -6.6882   24.5313  -30.6105 H   0  0  0  0  0  0  0  0  0  0  0  0
   -4.2218   24.6092  -31.2501 H   0  0  0  0  0  0  0  0  0  0  0  0
   -3.8875   25.1259  -29.5503 H   0  0  0  0  0  0  0  0  0  0  0  0
   -4.7461   23.0709  -28.6615 H   0  0  0  0  0  0  0  0  0  0  0  0
   -5.4086   22.5885  -30.2761 H   0  0  0  0  0  0  0  0  0  0  0  0
   -2.4699   23.1339  -30.1569 H   0  0  0  0  0  0  0  0  0  0  0  0
   -3.0489   21.6634  -29.2957 H   0  0  0  0  0  0  0  0  0  0  0  0
   -4.4298   23.1528  -32.5814 H   0  0  0  0  0  0  0  0  0  0  0  0
   -2.9539   19.0776  -34.6866 H   0  0  0  0  0  0  0  0  0  0  0  0
   -2.4038   18.3164  -33.1099 H   0  0  0  0  0  0  0  0  0  0  0  0
   -4.8585   18.3057  -35.6604 H   0  0  0  0  0  0  0  0  0  0  0  0
   -6.0212   17.2503  -34.7513 H   0  0  0  0  0  0  0  0  0  0  0  0
   -5.7439   20.2570  -34.7533 H   0  0  0  0  0  0  0  0  0  0  0  0
   -7.2164   19.2006  -34.9247 H   0  0  0  0  0  0  0  0  0  0  0  0
   -9.0179   19.3074  -31.8410 H   0  0  0  0  0  0  0  0  0  0  0  0
  -10.4617   21.2152  -31.1291 H   0  0  0  0  0  0  0  0  0  0  0  0
   -9.6673   23.5616  -31.4491 H   0  0  0  0  0  0  0  0  0  0  0  0
   -7.4292   23.9701  -32.4783 H   0  0  0  0  0  0  0  0  0  0  0  0
   -6.0630   22.1170  -33.0960 H   0  0  0  0  0  0  0  0  0  0  0  0
   -6.1233   18.8602  -31.0160 H   0  0  0  0  0  0  0  0  0  0  0  0
   -7.0829   17.7035  -32.0699 H   0  0  0  0  0  0  0  0  0  0  0  0
   -4.2153   17.8229  -31.5660 H   0  0  0  0  0  0  0  0  0  0  0  0
   -5.2586   16.5493  -32.3725 H   0  0  0  0  0  0  0  0  0  0  0  0
   -2.5221   19.7465  -30.9313 H   0  0  0  0  0  0  0  0  0  0  0  0
  1  2  1  0
  2  3  1  0
  3  4  1  0
  4  5  1  0
  5  6  1  0
  6  7  2  0
  7  8  1  0
  8  9  1  0
  9 10  1  0
 10 11  1  0
 11 12  1  0
 12 13  1  0
 13 14  1  0
 14 15  2  0
 15 16  1  0
 16 17  2  0
 17 18  1  0
 18 19  2  0
 13 20  1  0
 20 21  1  0
  8 22  2  0
 22  5  1  0
 21 10  1  0
 19 14  1  0
  1 23  1  0
  1 24  1  0
  1 25  1  0
  2 26  1  0
  2 27  1  0
  3 28  1  0
  3 29  1  0
  4 30  1  0
  4 31  1  0
  6 32  1  0
  9 33  1  0
  9 34  1  0
 11 35  1  0
 11 36  1  0
 12 37  1  0
 12 38  1  0
 15 39  1  0
 16 40  1  0
 17 41  1  0
 18 42  1  0
 19 43  1  0
 20 44  1  0
 20 45  1  0
 21 46  1  0
 21 47  1  0
 22 48  1  0
M  CHG  1  19   1
M  END
>  <UniqueID>  (23) 
21

>  <SMILES>  (23) 
CCCCn1cnc(CN2CCN(c3cccc[nH+]3)CC2)c1

>  <Energy>  (23) 
81.19338635824873

>  <Genealogy>  (23) 
CCCCn1cnc(CN2CCN(c3cccc[nH+]3)CC2)c1 (protonated)
CCCCn1cnc(CN2CCN(c3cccc[nH+]3)CC2)c1 (3D coordinates assigned)
CCCCn1cnc(CN2CCN(c3cccc[nH+]3)CC2)c1 (nonaromatic ring conformer: 81.19338635824873 kcal/mol)

>  <smiles>  (23) 
CCCCn1cnc(CN2CCN(c3ccccn3)CC2)c1

>  <score_type>  (23) 
oracle

>  <origin>  (23) 
adg

>  <m_score__min__energy>  (23) 
-6.4400000000000004

>  <m_primary>  (23) 
energy

$$$$
23:0
     RDKit          3D

 22 23  0  0  0  0  0  0  0  0999 V2000
   -6.5800   23.8330  -30.4700 C   0  0  0  0  0  0  0  0  0  0  0  0
   -6.3400   22.6260  -30.9900 C   0  0  0  0  0  0  0  0  0  0  0  0
   -6.8270   22.2350  -32.3560 C   0  0  0  0  0  0  0  0  0  0  0  0
   -7.3800   20.8730  -32.3200 N   0  0  0  0  0  0  0  0  0  0  0  0
   -8.5270   20.5210  -31.6690 C   0  0  0  0  0  0  0  0  0  0  0  0
   -9.4880   21.5520  -30.8300 S   0  0  0  0  0  0  0  0  0  0  0  0
   -8.8480   18.8670  -31.7830 S   0  0  0  0  0  0  0  0  0  0  0  0
   -7.4650   18.5820  -32.6870 C   0  0  0  0  0  0  0  0  0  0  0  0
   -7.0010   17.3660  -33.1820 C   0  0  0  0  0  0  0  0  0  0  0  0
   -5.7960   17.3580  -33.8960 C   0  0  0  0  0  0  0  0  0  0  0  0
   -5.0810   18.5520  -34.0970 C   0  0  0  0  0  0  0  0  0  0  0  0
   -5.5660   19.7690  -33.5880 C   0  0  0  0  0  0  0  0  0  0  0  0
   -6.7800   19.7760  -32.8790 C   0  0  0  0  0  0  0  0  0  0  0  0
   -6.2071   24.0833  -29.4659 H   0  0  0  0  0  0  0  0  0  0  0  0
   -7.1505   24.5765  -31.0460 H   0  0  0  0  0  0  0  0  0  0  0  0
   -5.7678   21.8956  -30.3992 H   0  0  0  0  0  0  0  0  0  0  0  0
   -7.6092   22.9377  -32.6792 H   0  0  0  0  0  0  0  0  0  0  0  0
   -5.9846   22.2650  -33.0628 H   0  0  0  0  0  0  0  0  0  0  0  0
   -7.5657   16.4366  -33.0167 H   0  0  0  0  0  0  0  0  0  0  0  0
   -5.4069   16.4125  -34.3017 H   0  0  0  0  0  0  0  0  0  0  0  0
   -4.1345   18.5334  -34.6571 H   0  0  0  0  0  0  0  0  0  0  0  0
   -5.0041   20.7020  -33.7421 H   0  0  0  0  0  0  0  0  0  0  0  0
  1  2  2  0
  2  3  1  0
  3  4  1  0
  4  5  1  0
  5  6  2  0
  5  7  1  0
  7  8  1  0
  8  9  2  0
  9 10  1  0
 10 11  2  0
 11 12  1  0
 12 13  2  0
 13  4  1  0
 13  8  1  0
  1 14  1  0
  1 15  1  0
  2 16  1  0
  3 17  1  0
  3 18  1  0
  9 19  1  0
 10 20  1  0
 11 21  1  0
 12 22  1  0
M  END
>  <UniqueID>  (24) 
22

>  <SMILES>  (24) 
C=CCn1c(=S)sc2ccccc21

>  <Energy>  (24) 
57.5254920618977

>  <Genealogy>  (24) 
C=CCn1c(=S)sc2ccccc21 (3D coordinates assigned)
C=CCn1c(=S)sc2ccccc21 (optimized conformer: 57.5254920618977 kcal/mol)

>  <smiles>  (24) 
C=CCn1c(=S)sc2ccccc21

>  <score_type>  (24) 
oracle

>  <origin>  (24) 
adg

>  <m_score__min__energy>  (24) 
-5.9699999999999998

>  <m_primary>  (24) 
energy

$$$$
24:0
     RDKit          3D

 48 50  0  0  0  0  0  0  0  0999 V2000
   -1.6924   21.9551  -30.9141 H   0  0  0  0  0  0  0  0  0  0  0  0
   -2.6270   21.8940  -31.4910 C   0  0  0  0  0  0  0  0  0  0  0  0
   -3.3480   22.7241  -31.4595 H   0  0  0  0  0  0  0  0  0  0  0  0
   -2.8860   20.8130  -32.2290 C   0  0  0  0  0  0  0  0  0  0  0  0
   -2.1554   19.9909  -32.2506 H   0  0  0  0  0  0  0  0  0  0  0  0
   -4.1530   20.6900  -33.0330 C   0  0  0  0  0  0  0  0  0  0  0  0
   -4.1248   21.4178  -33.8573 H   0  0  0  0  0  0  0  0  0  0  0  0
   -4.2172   19.6619  -33.4188 H   0  0  0  0  0  0  0  0  0  0  0  0
   -5.3460   20.9480  -32.2080 N   0  0  0  0  0  0  0  0  0  0  0  0
   -6.3530   19.9560  -31.9610 C   0  0  0  0  0  0  0  0  0  0  0  0
   -6.1270   18.7830  -31.4430 N   0  0  0  0  0  0  0  0  0  0  0  0
   -6.6500   17.5130  -31.9310 C   0  0  0  0  0  0  0  0  0  0  0  0
   -6.8680   16.8526  -31.0788 H   0  0  0  0  0  0  0  0  0  0  0  0
   -7.5751   17.6873  -32.5001 H   0  0  0  0  0  0  0  0  0  0  0  0
   -5.6220   16.8660  -32.8200 C   0  0  0  0  0  0  0  0  0  0  0  0
   -5.3740   17.3190  -34.1390 C   0  0  0  0  0  0  0  0  0  0  0  0
   -6.0880   18.5050  -34.7190 C   0  0  0  0  0  0  0  0  0  0  0  0
   -6.4691   19.1381  -33.9042 H   0  0  0  0  0  0  0  0  0  0  0  0
   -5.3896   19.0863  -35.3390 H   0  0  0  0  0  0  0  0  0  0  0  0
   -6.9285   18.1598  -35.3390 H   0  0  0  0  0  0  0  0  0  0  0  0
   -4.4480   16.6790  -34.9070 N   0  0  0  0  0  0  0  0  0  0  0  0
   -3.7590   15.5970  -34.4590 C   0  0  0  0  0  0  0  0  0  0  0  0
   -3.0185   15.1094  -35.1101 H   0  0  0  0  0  0  0  0  0  0  0  0
   -3.9890   15.1040  -33.1760 C   0  0  0  0  0  0  0  0  0  0  0  0
   -3.4378   14.2246  -32.8116 H   0  0  0  0  0  0  0  0  0  0  0  0
   -4.9250   15.7370  -32.3590 C   0  0  0  0  0  0  0  0  0  0  0  0
   -5.1187   15.3500  -31.3477 H   0  0  0  0  0  0  0  0  0  0  0  0
   -7.6810   20.4470  -32.1390 N   0  0  0  0  0  0  0  0  0  0  0  0
   -8.7740   20.1540  -31.2260 C   0  0  0  0  0  0  0  0  0  0  0  0
   -9.4692   19.4302  -31.6764 H   0  0  0  0  0  0  0  0  0  0  0  0
   -8.4162   19.7079  -30.2863 H   0  0  0  0  0  0  0  0  0  0  0  0
   -9.4710   21.4920  -30.9930 C   0  0  0  0  0  0  0  0  0  0  0  0
  -10.3984   21.5491  -31.5818 H   0  0  0  0  0  0  0  0  0  0  0  0
   -9.7503   21.6261  -29.9375 H   0  0  0  0  0  0  0  0  0  0  0  0
   -8.4790   22.5610  -31.4550 C   0  0  0  0  0  0  0  0  0  0  0  0
   -9.0077   23.4057  -31.9208 H   0  0  0  0  0  0  0  0  0  0  0  0
   -7.8987   22.9796  -30.6196 H   0  0  0  0  0  0  0  0  0  0  0  0
   -7.5930   21.8510  -32.4760 C   0  0  1  0  0  0  0  0  0  0  0  0
   -7.9337   22.1656  -33.4735 H   0  0  0  0  0  0  0  0  0  0  0  0
   -6.1260   22.1440  -32.3520 C   0  0  0  0  0  0  0  0  0  0  0  0
   -5.6440   23.3580  -32.3230 N   0  0  0  0  0  0  0  0  0  0  0  0
   -5.5410   23.8720  -33.2280 H   0  0  0  0  0  0  0  0  0  0  0  0
   -5.3240   24.0920  -31.1310 C   0  0  0  0  0  0  0  0  0  0  0  0
   -4.3330   24.8700  -31.1360 O   0  0  0  0  0  0  0  0  0  0  0  0
   -6.1880   24.0260  -29.9070 C   0  0  0  0  0  0  0  0  0  0  0  0
   -5.5553   24.0743  -29.0085 H   0  0  0  0  0  0  0  0  0  0  0  0
   -6.8897   24.8732  -29.9074 H   0  0  0  0  0  0  0  0  0  0  0  0
   -6.7528   23.0821  -29.9074 H   0  0  0  0  0  0  0  0  0  0  0  0
  1  2  1  0
  2  3  1  0
  2  4  2  0
  4  5  1  0
  4  6  1  0
  6  7  1  0
  6  8  1  0
  6  9  1  0
  9 10  1  0
 10 11  2  3
 11 12  1  0
 12 13  1  0
 12 14  1  0
 12 15  1  0
 15 16  2  0
 16 17  1  0
 17 18  1  0
 17 19  1  0
 17 20  1  0
 16 21  1  0
 21 22  2  0
 22 23  1  0
 22 24  1  0
 24 25  1  0
 24 26  2  0
 26 27  1  0
 10 28  1  0
 28 29  1  0
 29 30  1  0
 29 31  1  0
 29 32  1  0
 32 33  1  0
 32 34  1  0
 32 35  1  0
 35 36  1  0
 35 37  1  0
 35 38  1  0
 38 39  1  6
 38 40  1  0
 40 41  2  0
 41 42  1  0
 41 43  1  0
 43 44  2  0
 43 45  1  0
 45 46  1  0
 45 47  1  0
 45 48  1  0
 40  9  1  0
 26 15  1  0
 38 28  1  0
M  CHG  1  41   1
M  END
>  <UniqueID>  (25) 
23

>  <SMILES>  (25) 
C=CCN1C(=NCc2cccnc2C)N2CCC[C@H]2/C1=[NH+]/C(C)=O

>  <Energy>  (25) 
80.11500420083318

>  <Genealogy>  (25) 
C=CCN1C(=NCc2cccnc2C)N2CCCC2C1=[NH+]C(C)=O (protonated)
C=CCN1C(=NCc2cccnc2C)N2CCC[C@H]2C1=[NH+]C(C)=O (chirality)
C=CCN1C(=NCc2cccnc2C)N2CCC[C@H]2/C1=[NH+]/C(C)=O (cis-trans isomerization)
C=CCN1C(=NCc2cccnc2C)N2CCC[C@H]2/C1=[NH+]/C(C)=O (3D coordinates assigned)
C=CCN1C(=NCc2cccnc2C)N2CCC[C@H]2/C1=[NH+]/C(C)=O (nonaromatic ring conformer: 80.11500420083318 kcal/mol)

>  <smiles>  (25) 
C=CCN1C(=NC(C)=O)C2CCCN2C1=NCc1cccnc1C

>  <score_type>  (25) 
oracle

>  <origin>  (25) 
adg

>  <m_score__min__energy>  (25) 
-7.7300000000000004

>  <m_primary>  (25) 
energy

$$$$
25:0
     RDKit          3D

 35 37  0  0  0  0  0  0  0  0999 V2000
   -2.0420   18.8170  -33.7280 C   0  0  0  0  0  0  0  0  0  0  0  0
   -3.1930   19.5960  -34.0390 O   0  0  0  0  0  0  0  0  0  0  0  0
   -4.1540   20.0120  -33.1010 C   0  0  0  0  0  0  0  0  0  0  0  0
   -4.0220   21.2180  -32.3930 C   0  0  0  0  0  0  0  0  0  0  0  0
   -4.9970   21.6010  -31.4610 C   0  0  0  0  0  0  0  0  0  0  0  0
   -4.8650   22.8360  -30.7350 N   0  0  0  0  0  0  0  0  0  0  0  0
   -3.7750   23.0080  -29.7680 C   0  0  0  0  0  0  0  0  0  0  0  0
   -3.6510   24.4790  -29.3630 C   0  0  0  0  0  0  0  0  0  0  0  0
   -3.8760   25.2950  -30.4920 O   0  0  0  0  0  0  0  0  0  0  0  0
   -5.2530   25.2940  -30.8300 C   0  0  0  0  0  0  0  0  0  0  0  0
   -5.8860   23.8830  -30.8670 C   0  0  0  0  0  0  0  0  0  0  0  0
   -6.0820   20.8000  -31.2510 N   0  0  0  0  0  0  0  0  0  0  0  0
   -6.2450   19.6220  -31.9190 C   0  0  0  0  0  0  0  0  0  0  0  0
   -7.3740   18.8240  -31.6770 C   0  0  0  0  0  0  0  0  0  0  0  0
   -7.5450   17.6170  -32.3600 C   0  0  0  0  0  0  0  0  0  0  0  0
   -6.5920   17.1980  -33.2910 C   0  0  0  0  0  0  0  0  0  0  0  0
   -6.8320   15.5460  -34.2200 Br  0  0  0  0  0  0  0  0  0  0  0  0
   -5.4630   17.9830  -33.5440 C   0  0  0  0  0  0  0  0  0  0  0  0
   -5.2780   19.2020  -32.8620 C   0  0  0  0  0  0  0  0  0  0  0  0
   -1.9332   18.7434  -32.6359 H   0  0  0  0  0  0  0  0  0  0  0  0
   -2.1553   17.8092  -34.1540 H   0  0  0  0  0  0  0  0  0  0  0  0
   -1.1485   19.2968  -34.1540 H   0  0  0  0  0  0  0  0  0  0  0  0
   -3.1500   21.8647  -32.5705 H   0  0  0  0  0  0  0  0  0  0  0  0
   -3.9840   22.4019  -28.8741 H   0  0  0  0  0  0  0  0  0  0  0  0
   -2.8314   22.6837  -30.2311 H   0  0  0  0  0  0  0  0  0  0  0  0
   -4.3964   24.7107  -28.5880 H   0  0  0  0  0  0  0  0  0  0  0  0
   -2.6422   24.6681  -28.9673 H   0  0  0  0  0  0  0  0  0  0  0  0
   -5.7933   25.8970  -30.0854 H   0  0  0  0  0  0  0  0  0  0  0  0
   -5.3337   25.7080  -31.8459 H   0  0  0  0  0  0  0  0  0  0  0  0
   -6.6033   23.7903  -30.0382 H   0  0  0  0  0  0  0  0  0  0  0  0
   -6.3913   23.7547  -31.8356 H   0  0  0  0  0  0  0  0  0  0  0  0
   -6.8170   21.1130  -30.5770 H   0  0  0  0  0  0  0  0  0  0  0  0
   -8.1282   19.1505  -30.9458 H   0  0  0  0  0  0  0  0  0  0  0  0
   -8.4315   16.9959  -32.1641 H   0  0  0  0  0  0  0  0  0  0  0  0
   -4.7161   17.6475  -34.2785 H   0  0  0  0  0  0  0  0  0  0  0  0
  1  2  1  0
  2  3  1  0
  3  4  2  0
  4  5  1  0
  5  6  1  0
  6  7  1  0
  7  8  1  0
  8  9  1  0
  9 10  1  0
 10 11  1  0
  5 12  2  0
 12 13  1  0
 13 14  2  0
 14 15  1  0
 15 16  2  0
 16 17  1  0
 16 18  1  0
 18 19  2  0
 19  3  1  0
 11  6  1  0
 19 13  1  0
  1 20  1  0
  1 21  1  0
  1 22  1  0
  4 23  1  0
  7 24  1  0
  7 25  1  0
  8 26  1  0
  8 27  1  0
 10 28  1  0
 10 29  1  0
 11 30  1  0
 11 31  1  0
 12 32  1  0
 14 33  1  0
 15 34  1  0
 18 35  1  0
M  CHG  1  12   1
M  END
>  <UniqueID>  (26) 
24

>  <SMILES>  (26) 
COc1cc(N2CCOCC2)[nH+]c2ccc(Br)cc12

>  <Energy>  (26) 
49.97969137279518

>  <Genealogy>  (26) 
COc1cc(N2CCOCC2)[nH+]c2ccc(Br)cc12 (protonated)
COc1cc(N2CCOCC2)[nH+]c2ccc(Br)cc12 (3D coordinates assigned)
COc1cc(N2CCOCC2)[nH+]c2ccc(Br)cc12 (nonaromatic ring conformer: 49.97969137279518 kcal/mol)

>  <smiles>  (26) 
COc1cc(N2CCOCC2)nc2ccc(Br)cc12

>  <score_type>  (26) 
oracle

>  <origin>  (26) 
adg

>  <m_score__min__energy>  (26) 
-6.4400000000000004

>  <m_primary>  (26) 
energy

$$$$
26:0
     RDKit          3D

 29 30  0  0  1  0  0  0  0  0999 V2000
   -9.3200   19.4260  -32.9310 N   0  0  0  0  0  0  0  0  0  0  0  0
   -6.2960   21.2700  -32.6880 C   0  0  0  0  0  0  0  0  0  0  0  0
   -8.7750   21.2070  -31.5610 C   0  0  0  0  0  0  0  0  0  0  0  0
   -7.8240   22.1330  -31.1680 C   0  0  0  0  0  0  0  0  0  0  0  0
   -6.5890   22.1670  -31.7270 N   0  0  0  0  0  0  0  0  0  0  0  0
   -5.6680   23.1620  -31.2550 C   0  0  1  0  0  0  0  0  0  0  0  0
   -6.3150   24.4700  -30.8650 C   0  0  0  0  0  0  0  0  0  0  0  0
   -5.1250   25.0740  -30.1010 C   0  0  2  0  0  0  0  0  0  0  0  0
   -4.2430   25.5340  -31.0840 O   0  0  0  0  0  0  0  0  0  0  0  0
   -4.6390   23.8490  -29.3950 C   0  0  2  0  0  0  0  0  0  0  0  0
   -3.1630   23.8290  -29.1100 C   0  0  0  0  0  0  0  0  0  0  0  0
   -2.7390   25.1680  -29.1590 O   0  0  0  0  0  0  0  0  0  0  0  0
   -5.0270   22.7300  -30.1040 O   0  0  0  0  0  0  0  0  0  0  0  0
   -8.4370   20.2920  -32.5600 C   0  0  0  0  0  0  0  0  0  0  0  0
   -5.1400   21.2960  -33.2170 O   0  0  0  0  0  0  0  0  0  0  0  0
   -7.2010   20.3450  -33.1030 N   0  0  0  0  0  0  0  0  0  0  0  0
   -9.5950   19.3400  -33.9290 H   0  0  0  0  0  0  0  0  0  0  0  0
   -9.7725   21.1924  -31.0976 H   0  0  0  0  0  0  0  0  0  0  0  0
   -8.0766   22.8599  -30.3820 H   0  0  0  0  0  0  0  0  0  0  0  0
   -4.9878   23.3173  -32.1054 H   0  0  0  0  0  0  0  0  0  0  0  0
   -6.5980   25.0728  -31.7405 H   0  0  0  0  0  0  0  0  0  0  0  0
   -7.2603   24.3951  -30.3075 H   0  0  0  0  0  0  0  0  0  0  0  0
   -5.2977   25.9125  -29.4103 H   0  0  0  0  0  0  0  0  0  0  0  0
   -3.4900   24.9370  -31.2460 H   0  0  0  0  0  0  0  0  0  0  0  0
   -5.1083   23.8548  -28.4001 H   0  0  0  0  0  0  0  0  0  0  0  0
   -2.9722   23.4043  -28.1134 H   0  0  0  0  0  0  0  0  0  0  0  0
   -2.6211   23.2087  -29.8390 H   0  0  0  0  0  0  0  0  0  0  0  0
   -3.0990   25.6750  -29.9070 H   0  0  0  0  0  0  0  0  0  0  0  0
   -6.9630   19.6420  -33.8600 H   0  0  0  0  0  0  0  0  0  0  0  0
  1  2  2  3
  2  3  1  0
  3  4  2  0
  4  5  1  0
  5  6  1  0
  6  7  1  0
  7  8  1  0
  8  9  1  0
  8 10  1  0
 10 11  1  0
 11 12  1  0
 10 13  1  0
  5 14  1  0
 14 15  2  0
 14 16  1  0
 16  2  1  0
 13  6  1  0
  1 17  1  0
  3 18  1  0
  4 19  1  0
  6 20  1  6
  7 21  1  0
  7 22  1  0
  8 23  1  1
  9 24  1  0
 10 25  1  1
 11 26  1  0
 11 27  1  0
 12 28  1  0
 16 29  1  0
M  END
>  <smiles>  (27) 
N=c1ccn(C2CC(O)C(CO)O2)c(=O)[nH]1

>  <score_type>  (27) 
oracle

>  <origin>  (27) 
adg

>  <m_score__min__energy>  (27) 
-7.4199999999999999

>  <m_primary>  (27) 
energy

$$$$
27:0
     RDKit          3D

 46 48  0  0  0  0  0  0  0  0999 V2000
   -4.2400   24.7570  -26.7160 C   0  0  0  0  0  0  0  0  0  0  0  0
   -2.8440   25.2980  -26.4310 C   0  0  0  0  0  0  0  0  0  0  0  0
   -1.7920   24.4430  -27.0960 C   0  0  0  0  0  0  0  0  0  0  0  0
   -0.9860   23.6050  -26.3060 C   0  0  0  0  0  0  0  0  0  0  0  0
   -0.0140   22.7940  -26.8970 C   0  0  0  0  0  0  0  0  0  0  0  0
    0.1520   22.7980  -28.2810 C   0  0  0  0  0  0  0  0  0  0  0  0
   -0.6530   23.6120  -29.0810 C   0  0  0  0  0  0  0  0  0  0  0  0
   -1.6200   24.4500  -28.4980 C   0  0  0  0  0  0  0  0  0  0  0  0
   -2.4560   25.2850  -29.3160 N   0  0  0  0  0  0  0  0  0  0  0  0
   -3.5080   24.8230  -30.1730 C   0  0  0  0  0  0  0  0  0  0  0  0
   -4.1670   25.6640  -30.8380 O   0  0  0  0  0  0  0  0  0  0  0  0
   -3.8320   23.4320  -30.2900 N   0  0  0  0  0  0  0  0  0  0  0  0
   -3.4020   22.5600  -31.3460 C   0  0  0  0  0  0  0  0  0  0  0  0
   -2.1410   21.9350  -31.2960 C   0  0  0  0  0  0  0  0  0  0  0  0
   -1.7600   21.0330  -32.2920 C   0  0  0  0  0  0  0  0  0  0  0  0
   -2.6280   20.7520  -33.3490 C   0  0  0  0  0  0  0  0  0  0  0  0
   -3.8710   21.3850  -33.4220 C   0  0  0  0  0  0  0  0  0  0  0  0
   -4.2560   22.3080  -32.4410 C   0  0  0  0  0  0  0  0  0  0  0  0
   -5.5160   22.9120  -32.5540 O   0  0  0  0  0  0  0  0  0  0  0  0
   -6.7400   22.2750  -32.3010 C   0  0  0  0  0  0  0  0  0  0  0  0
   -7.8930   22.9940  -31.9410 C   0  0  0  0  0  0  0  0  0  0  0  0
   -9.0940   22.3230  -31.6970 C   0  0  0  0  0  0  0  0  0  0  0  0
   -9.1580   20.9320  -31.8270 C   0  0  0  0  0  0  0  0  0  0  0  0
   -8.0240   20.2070  -32.2200 C   0  0  0  0  0  0  0  0  0  0  0  0
   -8.0840   18.7120  -32.3280 C   0  0  0  0  0  0  0  0  0  0  0  0
   -6.8150   20.8840  -32.4470 C   0  0  0  0  0  0  0  0  0  0  0  0
   -4.7567   24.5568  -25.7658 H   0  0  0  0  0  0  0  0  0  0  0  0
   -4.8100   25.4993  -27.2940 H   0  0  0  0  0  0  0  0  0  0  0  0
   -4.1609   23.8244  -27.2940 H   0  0  0  0  0  0  0  0  0  0  0  0
   -2.7699   26.3257  -26.8161 H   0  0  0  0  0  0  0  0  0  0  0  0
   -2.6751   25.2835  -25.3441 H   0  0  0  0  0  0  0  0  0  0  0  0
   -1.1216   23.5877  -25.2145 H   0  0  0  0  0  0  0  0  0  0  0  0
    0.6211   22.1515  -26.2694 H   0  0  0  0  0  0  0  0  0  0  0  0
    0.9184   22.1589  -28.7439 H   0  0  0  0  0  0  0  0  0  0  0  0
   -0.5298   23.5975  -30.1740 H   0  0  0  0  0  0  0  0  0  0  0  0
   -1.4523   22.1584  -30.4679 H   0  0  0  0  0  0  0  0  0  0  0  0
   -0.7759   20.5439  -32.2437 H   0  0  0  0  0  0  0  0  0  0  0  0
   -2.3325   20.0310  -34.1254 H   0  0  0  0  0  0  0  0  0  0  0  0
   -4.5520   21.1572  -34.2553 H   0  0  0  0  0  0  0  0  0  0  0  0
   -7.8495   24.0895  -31.8510 H   0  0  0  0  0  0  0  0  0  0  0  0
   -9.9899   22.8892  -31.4024 H   0  0  0  0  0  0  0  0  0  0  0  0
  -10.1011   20.4049  -31.6202 H   0  0  0  0  0  0  0  0  0  0  0  0
   -8.1017   18.2720  -31.3200 H   0  0  0  0  0  0  0  0  0  0  0  0
   -8.9946   18.4199  -32.8716 H   0  0  0  0  0  0  0  0  0  0  0  0
   -7.1997   18.3479  -32.8716 H   0  0  0  0  0  0  0  0  0  0  0  0
   -5.9195   20.3173  -32.7419 H   0  0  0  0  0  0  0  0  0  0  0  0
  1  2  1  0
  2  3  1  0
  3  4  2  0
  4  5  1  0
  5  6  2  0
  6  7  1  0
  7  8  2  0
  8  9  1  0
  9 10  1  0
 10 11  2  0
 10 12  1  0
 12 13  1  0
 13 14  2  0
 14 15  1  0
 15 16  2  0
 16 17  1  0
 17 18  2  0
 18 19  1  0
 19 20  1  0
 20 21  2  0
 21 22  1  0
 22 23  2  0
 23 24  1  0
 24 25  1  0
 24 26  2  0
  8  3  1  0
 18 13  1  0
 26 20  1  0
  1 27  1  0
  1 28  1  0
  1 29  1  0
  2 30  1  0
  2 31  1  0
  4 32  1  0
  5 33  1  0
  6 34  1  0
  7 35  1  0
 14 36  1  0
 15 37  1  0
 16 38  1  0
 17 39  1  0
 21 40  1  0
 22 41  1  0
 23 42  1  0
 25 43  1  0
 25 44  1  0
 25 45  1  0
 26 46  1  0
M  CHG  2   9  -1  12  -1
M  END
>  <UniqueID>  (28) 
25

>  <SMILES>  (28) 
CCc1ccccc1[N-]C(=O)[N-]c1ccccc1Oc1cccc(C)c1

>  <Energy>  (28) 
59.31017088556824

>  <Genealogy>  (28) 
CCc1ccccc1[N-]C(=O)[N-]c1ccccc1Oc1cccc(C)c1 (protonated)
CCc1ccccc1[N-]C(=O)[N-]c1ccccc1Oc1cccc(C)c1 (3D coordinates assigned)
CCc1ccccc1[N-]C(=O)[N-]c1ccccc1Oc1cccc(C)c1 (optimized conformer: 59.31017088556824 kcal/mol)

>  <smiles>  (28) 
CCc1ccccc1NC(=O)Nc1ccccc1Oc1cccc(C)c1

>  <score_type>  (28) 
oracle

>  <origin>  (28) 
adg

>  <m_score__min__energy>  (28) 
-11.56

>  <m_primary>  (28) 
energy

$$$$
28:0
     RDKit          3D

 27 29  0  0  0  0  0  0  0  0999 V2000
   -3.4600   21.1690  -27.5620 C   0  0  0  0  0  0  0  0  0  0  0  0
   -2.8150   22.4400  -28.0800 C   0  0  0  0  0  0  0  0  0  0  0  0
   -3.4620   23.2150  -29.0780 C   0  0  0  0  0  0  0  0  0  0  0  0
   -2.9320   24.4590  -29.4550 C   0  0  0  0  0  0  0  0  0  0  0  0
   -1.7300   24.9150  -28.9200 C   0  0  0  0  0  0  0  0  0  0  0  0
   -1.2360   26.1540  -29.3240 O   0  0  0  0  0  0  0  0  0  0  0  0
   -1.0230   24.1270  -27.9960 C   0  0  0  0  0  0  0  0  0  0  0  0
    0.2110   24.5710  -27.4840 C   0  0  0  0  0  0  0  0  0  0  0  0
    0.9320   23.7810  -26.5900 C   0  0  0  0  0  0  0  0  0  0  0  0
    0.4380   22.5390  -26.2020 C   0  0  0  0  0  0  0  0  0  0  0  0
   -0.7860   22.0820  -26.6930 C   0  0  0  0  0  0  0  0  0  0  0  0
   -1.5520   22.8720  -27.5820 C   0  0  0  0  0  0  0  0  0  0  0  0
   -3.6060   25.2410  -30.4010 O   0  0  0  0  0  0  0  0  0  0  0  0
   -4.9750   25.0130  -30.7400 C   0  0  0  0  0  0  0  0  0  0  0  0
   -5.3280   23.5550  -30.6410 C   0  0  0  0  0  0  0  0  0  0  0  0
   -4.6600   22.7410  -29.8190 C   0  0  0  0  0  0  0  0  0  0  0  0
   -3.4556   21.1776  -26.4620 H   0  0  0  0  0  0  0  0  0  0  0  0
   -4.4970   21.1102  -27.9241 H   0  0  0  0  0  0  0  0  0  0  0  0
   -2.8952   20.2973  -27.9241 H   0  0  0  0  0  0  0  0  0  0  0  0
    0.6094   25.5490  -27.7918 H   0  0  0  0  0  0  0  0  0  0  0  0
    1.8923   24.1395  -26.1908 H   0  0  0  0  0  0  0  0  0  0  0  0
    1.0153   21.9142  -25.5046 H   0  0  0  0  0  0  0  0  0  0  0  0
   -1.1599   21.0945  -26.3846 H   0  0  0  0  0  0  0  0  0  0  0  0
   -5.6145   25.5839  -30.0507 H   0  0  0  0  0  0  0  0  0  0  0  0
   -5.1337   25.3384  -31.7787 H   0  0  0  0  0  0  0  0  0  0  0  0
   -6.1480   23.1528  -31.2541 H   0  0  0  0  0  0  0  0  0  0  0  0
   -5.0019   21.7037  -29.6885 H   0  0  0  0  0  0  0  0  0  0  0  0
  1  2  1  0
  2  3  2  0
  3  4  1  0
  4  5  2  0
  5  6  1  0
  5  7  1  0
  7  8  2  0
  8  9  1  0
  9 10  2  0
 10 11  1  0
 11 12  2  0
  4 13  1  0
 13 14  1  0
 14 15  1  0
 15 16  2  0
 12  2  1  0
 16  3  1  0
 12  7  1  0
  1 17  1  0
  1 18  1  0
  1 19  1  0
  8 20  1  0
  9 21  1  0
 10 22  1  0
 11 23  1  0
 14 24  1  0
 14 25  1  0
 15 26  1  0
 16 27  1  0
M  CHG  1   6  -1
M  END
>  <UniqueID>  (29) 
26

>  <SMILES>  (29) 
Cc1c2c(c([O-])c3ccccc13)OCC=C2

>  <Energy>  (29) 
42.435533047921204

>  <Genealogy>  (29) 
Cc1c2c(c([O-])c3ccccc13)OCC=C2 (protonated)
Cc1c2c(c([O-])c3ccccc13)OCC=C2 (3D coordinates assigned)
Cc1c2c(c([O-])c3ccccc13)OCC=C2 (nonaromatic ring conformer: 42.435533047921204 kcal/mol)

>  <smiles>  (29) 
Cc1c2c(c(O)c3ccccc13)OCC=C2

>  <score_type>  (29) 
oracle

>  <origin>  (29) 
adg

>  <m_score__min__energy>  (29) 
-10.050000000000001

>  <m_primary>  (29) 
energy

$$$$
29:0
     RDKit          3D

 37 39  0  0  0  0  0  0  0  0999 V2000
   -9.1000   19.5220  -32.7130 C   0  0  0  0  0  0  0  0  0  0  0  0
   -7.9320   20.4220  -32.3750 C   0  0  0  0  0  0  0  0  0  0  0  0
   -8.0770   21.5330  -31.5020 C   0  0  0  0  0  0  0  0  0  0  0  0
   -9.4120   21.8720  -30.8670 C   0  0  0  0  0  0  0  0  0  0  0  0
   -6.9400   22.3320  -31.2250 C   0  0  0  0  0  0  0  0  0  0  0  0
   -6.9810   23.4510  -30.3670 C   0  0  0  0  0  0  0  0  0  0  0  0
   -5.8300   24.2060  -30.1310 C   0  0  0  0  0  0  0  0  0  0  0  0
   -4.6180   23.8730  -30.7400 C   0  0  0  0  0  0  0  0  0  0  0  0
   -3.4970   24.6750  -30.4700 O   0  0  0  0  0  0  0  0  0  0  0  0
   -2.6570   24.5600  -29.3210 C   0  0  0  0  0  0  0  0  0  0  0  0
   -2.4710   23.1160  -28.9350 C   0  0  0  0  0  0  0  0  0  0  0  0
   -1.4940   22.3380  -29.5770 C   0  0  0  0  0  0  0  0  0  0  0  0
   -1.3110   20.9980  -29.2160 C   0  0  0  0  0  0  0  0  0  0  0  0
   -2.0960   20.4310  -28.2070 C   0  0  0  0  0  0  0  0  0  0  0  0
   -1.9180   19.1330  -27.8600 F   0  0  0  0  0  0  0  0  0  0  0  0
   -3.0630   21.2040  -27.5570 C   0  0  0  0  0  0  0  0  0  0  0  0
   -3.2470   22.5430  -27.9140 C   0  0  0  0  0  0  0  0  0  0  0  0
   -4.5640   22.7550  -31.5910 C   0  0  0  0  0  0  0  0  0  0  0  0
   -5.7110   21.9920  -31.8350 C   0  0  0  0  0  0  0  0  0  0  0  0
   -5.6270   20.9470  -32.6450 O   0  0  0  0  0  0  0  0  0  0  0  0
   -6.6610   20.1690  -32.9320 C   0  0  0  0  0  0  0  0  0  0  0  0
   -6.4830   19.1970  -33.7150 O   0  0  0  0  0  0  0  0  0  0  0  0
   -9.5666   19.1624  -31.7841 H   0  0  0  0  0  0  0  0  0  0  0  0
   -9.8395   20.0860  -33.3004 H   0  0  0  0  0  0  0  0  0  0  0  0
   -8.7431   18.6631  -33.3004 H   0  0  0  0  0  0  0  0  0  0  0  0
   -9.3139   21.8471  -29.7717 H   0  0  0  0  0  0  0  0  0  0  0  0
   -9.7241   22.8779  -31.1844 H   0  0  0  0  0  0  0  0  0  0  0  0
  -10.1662   21.1369  -31.1844 H   0  0  0  0  0  0  0  0  0  0  0  0
   -7.9268   23.7311  -29.8801 H   0  0  0  0  0  0  0  0  0  0  0  0
   -5.8786   25.0739  -29.4569 H   0  0  0  0  0  0  0  0  0  0  0  0
   -1.6753   25.0020  -29.5466 H   0  0  0  0  0  0  0  0  0  0  0  0
   -3.1328   25.0899  -28.4827 H   0  0  0  0  0  0  0  0  0  0  0  0
   -0.8704   22.7831  -30.3663 H   0  0  0  0  0  0  0  0  0  0  0  0
   -0.5491   20.3905  -29.7264 H   0  0  0  0  0  0  0  0  0  0  0  0
   -3.6801   20.7577  -26.7633 H   0  0  0  0  0  0  0  0  0  0  0  0
   -4.0023   23.1501  -27.3934 H   0  0  0  0  0  0  0  0  0  0  0  0
   -3.6126   22.4781  -32.0686 H   0  0  0  0  0  0  0  0  0  0  0  0
  1  2  1  0
  2  3  2  0
  3  4  1  0
  3  5  1  0
  5  6  2  0
  6  7  1  0
  7  8  2  0
  8  9  1  0
  9 10  1  0
 10 11  1  0
 11 12  2  0
 12 13  1  0
 13 14  2  0
 14 15  1  0
 14 16  1  0
 16 17  2  0
  8 18  1  0
 18 19  2  0
 19 20  1  0
 20 21  1  0
 21 22  2  0
 21  2  1  0
 19  5  1  0
 17 11  1  0
  1 23  1  0
  1 24  1  0
  1 25  1  0
  4 26  1  0
  4 27  1  0
  4 28  1  0
  6 29  1  0
  7 30  1  0
 10 31  1  0
 10 32  1  0
 12 33  1  0
 13 34  1  0
 16 35  1  0
 17 36  1  0
 18 37  1  0
M  END
>  <UniqueID>  (30) 
27

>  <SMILES>  (30) 
Cc1c(C)c2ccc(OCc3ccc(F)cc3)cc2oc1=O

>  <Energy>  (30) 
48.614103609875315

>  <Genealogy>  (30) 
Cc1c(C)c2ccc(OCc3ccc(F)cc3)cc2oc1=O (3D coordinates assigned)
Cc1c(C)c2ccc(OCc3ccc(F)cc3)cc2oc1=O (optimized conformer: 48.614103609875315 kcal/mol)

>  <smiles>  (30) 
Cc1c(C)c2ccc(OCc3ccc(F)cc3)cc2oc1=O

>  <score_type>  (30) 
oracle

>  <origin>  (30) 
adg

>  <m_score__min__energy>  (30) 
-7.96

>  <m_primary>  (30) 
energy

$$$$
30:0
     RDKit          3D

 42 44  0  0  0  0  0  0  0  0999 V2000
   -2.6910   24.3370  -28.0880 C   0  0  0  0  0  0  0  0  0  0  0  0
   -4.0100   23.5940  -27.9060 C   0  0  0  0  0  0  0  0  0  0  0  0
   -5.0200   24.1180  -28.8270 N   0  0  0  0  0  0  0  0  0  0  0  0
   -5.6130   25.2890  -28.6530 N   0  0  0  0  0  0  0  0  0  0  0  0
   -6.4290   25.5270  -29.6940 C   0  0  0  0  0  0  0  0  0  0  0  0
   -6.3480   24.4680  -30.5750 C   0  0  0  0  0  0  0  0  0  0  0  0
   -5.4360   23.5890  -30.0040 C   0  0  0  0  0  0  0  0  0  0  0  0
   -5.0090   22.2430  -30.5730 C   0  0  2  0  0  0  0  0  0  0  0  0
   -3.5070   21.9340  -30.3130 C   0  0  0  0  0  0  0  0  0  0  0  0
   -2.6410   22.2670  -31.4500 N   0  0  0  0  0  0  0  0  0  0  0  0
   -2.9780   21.5460  -32.6920 C   0  0  0  0  0  0  0  0  0  0  0  0
   -4.4490   21.0880  -32.7850 C   0  0  0  0  0  0  0  0  0  0  0  0
   -5.4310   22.0600  -32.0770 C   0  0  2  0  0  0  0  0  0  0  0  0
   -5.4170   23.2940  -32.7680 O   0  0  0  0  0  0  0  0  0  0  0  0
   -6.8570   21.4870  -32.1460 C   0  0  0  0  0  0  0  0  0  0  0  0
   -7.9890   22.3130  -31.9400 C   0  0  0  0  0  0  0  0  0  0  0  0
   -9.2790   21.7790  -31.9690 C   0  0  0  0  0  0  0  0  0  0  0  0
   -9.4710   20.4160  -32.1890 C   0  0  0  0  0  0  0  0  0  0  0  0
   -8.3710   19.5800  -32.3750 C   0  0  0  0  0  0  0  0  0  0  0  0
   -7.0760   20.1050  -32.3480 C   0  0  0  0  0  0  0  0  0  0  0  0
   -2.2660   24.5764  -27.1021 H   0  0  0  0  0  0  0  0  0  0  0  0
   -1.9869   23.7028  -28.6466 H   0  0  0  0  0  0  0  0  0  0  0  0
   -2.8685   25.2678  -28.6466 H   0  0  0  0  0  0  0  0  0  0  0  0
   -3.8546   22.5240  -28.1085 H   0  0  0  0  0  0  0  0  0  0  0  0
   -4.3604   23.7352  -26.8729 H   0  0  0  0  0  0  0  0  0  0  0  0
   -5.4560   25.9260  -27.8400 H   0  0  0  0  0  0  0  0  0  0  0  0
   -7.0585   26.4199  -29.8227 H   0  0  0  0  0  0  0  0  0  0  0  0
   -6.8890   24.3460  -31.5249 H   0  0  0  0  0  0  0  0  0  0  0  0
   -5.5692   21.4783  -30.0149 H   0  0  0  0  0  0  0  0  0  0  0  0
   -3.1767   22.5163  -29.4402 H   0  0  0  0  0  0  0  0  0  0  0  0
   -3.4215   20.8503  -30.1445 H   0  0  0  0  0  0  0  0  0  0  0  0
   -2.6410   23.2980  -31.6140 H   0  0  0  0  0  0  0  0  0  0  0  0
   -2.7705   22.2114  -33.5430 H   0  0  0  0  0  0  0  0  0  0  0  0
   -2.3641   20.6333  -32.7012 H   0  0  0  0  0  0  0  0  0  0  0  0
   -4.7284   21.0186  -33.8467 H   0  0  0  0  0  0  0  0  0  0  0  0
   -4.5243   20.1152  -32.2771 H   0  0  0  0  0  0  0  0  0  0  0  0
   -5.0090   23.1740  -33.6600 H   0  0  0  0  0  0  0  0  0  0  0  0
   -7.8503   23.3884  -31.7549 H   0  0  0  0  0  0  0  0  0  0  0  0
  -10.1475   22.4369  -31.8176 H   0  0  0  0  0  0  0  0  0  0  0  0
  -10.4892   20.0006  -32.2158 H   0  0  0  0  0  0  0  0  0  0  0  0
   -8.5228   18.5036  -32.5436 H   0  0  0  0  0  0  0  0  0  0  0  0
   -6.2155   19.4338  -32.4858 H   0  0  0  0  0  0  0  0  0  0  0  0
  1  2  1  0
  2  3  1  0
  3  4  1  0
  4  5  2  0
  5  6  1  0
  6  7  2  0
  7  8  1  0
  8  9  1  0
  9 10  1  0
 10 11  1  0
 11 12  1  0
 12 13  1  0
 13 14  1  6
 13 15  1  0
 15 16  2  0
 16 17  1  0
 17 18  2  0
 18 19  1  0
 19 20  2  0
  7  3  1  0
 13  8  1  0
 20 15  1  0
  1 21  1  0
  1 22  1  0
  1 23  1  0
  2 24  1  0
  2 25  1  0
  4 26  1  0
  5 27  1  0
  6 28  1  0
  8 29  1  1
  9 30  1  0
  9 31  1  0
 10 32  1  0
 11 33  1  0
 11 34  1  0
 12 35  1  0
 12 36  1  0
 14 37  1  0
 16 38  1  0
 17 39  1  0
 18 40  1  0
 19 41  1  0
 20 42  1  0
M  CHG  1   4   1
M  END
>  <UniqueID>  (31) 
28

>  <SMILES>  (31) 
CCn1[nH+]ccc1[C@@H]1CNCC[C@@]1(O)c1ccccc1

>  <Energy>  (31) 
86.12269370687162

>  <Genealogy>  (31) 
CCn1[nH+]ccc1C1CNCCC1(O)c1ccccc1 (protonated)
CCn1[nH+]ccc1[C@@H]1CNCC[C@@]1(O)c1ccccc1 (chirality)
CCn1[nH+]ccc1[C@@H]1CNCC[C@@]1(O)c1ccccc1 (3D coordinates assigned)
CCn1[nH+]ccc1[C@@H]1CNCC[C@@]1(O)c1ccccc1 (nonaromatic ring conformer: 86.12269370687162 kcal/mol)

>  <smiles>  (31) 
CCn1nccc1C1CNCCC1(O)c1ccccc1

>  <score_type>  (31) 
oracle

>  <origin>  (31) 
adg

>  <m_score__min__energy>  (31) 
-7.6100000000000003

>  <m_primary>  (31) 
energy

$$$$
31:0
     RDKit          3D

 32 33  0  0  0  0  0  0  0  0999 V2000
   -6.6962   24.9934  -29.4245 H   0  0  0  0  0  0  0  0  0  0  0  0
   -6.0840   24.5990  -30.2490 C   0  0  0  0  0  0  0  0  0  0  0  0
   -3.7870   23.9510  -27.8120 C   0  0  0  0  0  0  0  0  0  0  0  0
   -4.6180   24.5360  -30.0820 C   0  0  0  0  0  0  0  0  0  0  0  0
   -3.8670   25.2990  -30.7530 O   0  0  0  0  0  0  0  0  0  0  0  0
   -6.6940   24.1920  -31.3710 C   0  0  0  0  0  0  0  0  0  0  0  0
   -4.4316   23.4955  -27.0458 H   0  0  0  0  0  0  0  0  0  0  0  0
   -4.0210   23.6080  -29.0940 C   0  0  0  0  0  0  0  0  0  0  0  0
   -6.8864   24.9339  -32.1601 H   0  0  0  0  0  0  0  0  0  0  0  0
   -7.1220   22.7920  -31.6010 C   0  0  0  0  0  0  0  0  0  0  0  0
   -8.3550   22.2940  -31.1280 C   0  0  0  0  0  0  0  0  0  0  0  0
   -9.0359   22.9566  -30.5737 H   0  0  0  0  0  0  0  0  0  0  0  0
   -8.7160   20.9630  -31.3600 C   0  0  0  0  0  0  0  0  0  0  0  0
   -9.6792   20.5829  -30.9888 H   0  0  0  0  0  0  0  0  0  0  0  0
   -7.8550   20.1140  -32.0630 C   0  0  0  0  0  0  0  0  0  0  0  0
   -8.3140   18.4470  -32.3570 Cl  0  0  0  0  0  0  0  0  0  0  0  0
   -6.6210   20.5930  -32.5210 C   0  0  0  0  0  0  0  0  0  0  0  0
   -5.9397   19.9239  -33.0671 H   0  0  0  0  0  0  0  0  0  0  0  0
   -6.2550   21.9220  -32.2840 C   0  0  0  0  0  0  0  0  0  0  0  0
   -5.2796   22.2896  -32.6354 H   0  0  0  0  0  0  0  0  0  0  0  0
   -3.7270   22.1940  -29.5180 C   0  0  0  0  0  0  0  0  0  0  0  0
   -3.5959   21.5635  -28.6262 H   0  0  0  0  0  0  0  0  0  0  0  0
   -4.5645   21.8097  -30.1188 H   0  0  0  0  0  0  0  0  0  0  0  0
   -2.8058   22.1754  -30.1188 H   0  0  0  0  0  0  0  0  0  0  0  0
   -2.7400   24.8860  -27.3430 C   0  0  0  0  0  0  0  0  0  0  0  0
   -1.4030   25.4490  -28.2080 S   0  0  0  0  0  0  0  0  0  0  0  0
   -0.6970   26.2960  -26.9420 C   0  0  0  0  0  0  0  0  0  0  0  0
    0.2289   26.8872  -26.9982 H   0  0  0  0  0  0  0  0  0  0  0  0
   -1.4840   26.1210  -25.8120 C   0  0  0  0  0  0  0  0  0  0  0  0
   -1.2405   26.5644  -24.8352 H   0  0  0  0  0  0  0  0  0  0  0  0
   -2.6160   25.3280  -26.0310 C   0  0  0  0  0  0  0  0  0  0  0  0
   -3.3388   25.0783  -25.2403 H   0  0  0  0  0  0  0  0  0  0  0  0
  1  2  1  0
  2  3  2  0
  3  4  1  0
  4  5  2  0
  4  6  1  0
  6  7  1  0
  6  8  2  0
  8  9  1  0
  8 10  1  0
 10 11  2  0
 11 12  1  0
 11 13  1  0
 13 14  1  0
 13 15  2  0
 15 16  1  0
 15 17  1  0
 17 18  1  0
 17 19  2  0
 19 20  1  0
  3 21  1  0
 21 22  1  0
 21 23  1  0
 21 24  1  0
  2 25  1  0
 25 26  1  0
 26 27  1  0
 27 28  1  0
 27 29  2  0
 29 30  1  0
 29 31  1  0
 31 32  1  0
 19 10  1  0
 31 25  2  0
M  END
>  <UniqueID>  (32) 
29

>  <SMILES>  (32) 
C/C(=C/c1cccs1)C(=O)/C=C/c1ccc(Cl)cc1

>  <Energy>  (32) 
67.60570289545235

>  <Genealogy>  (32) 
C/C(=C/c1cccs1)C(=O)/C=C/c1ccc(Cl)cc1 (cis-trans isomerization)
C/C(=C/c1cccs1)C(=O)/C=C/c1ccc(Cl)cc1 (3D coordinates assigned)
C/C(=C/c1cccs1)C(=O)/C=C/c1ccc(Cl)cc1 (optimized conformer: 67.60570289545235 kcal/mol)

>  <smiles>  (32) 
CC(=Cc1cccs1)C(=O)C=Cc1ccc(Cl)cc1

>  <score_type>  (32) 
oracle

>  <origin>  (32) 
adg

>  <m_score__min__energy>  (32) 
-8.6300000000000008

>  <m_primary>  (32) 
energy

$$$$
32:0
     RDKit          3D

 45 48  0  0  0  0  0  0  0  0999 V2000
   -2.1710   22.0150  -28.6360 C   0  0  0  0  0  0  0  0  0  0  0  0
   -1.9300   22.9740  -29.7960 C   0  0  0  0  0  0  0  0  0  0  0  0
   -3.1040   23.0210  -30.6700 N   0  0  0  0  0  0  0  0  0  0  0  0
   -3.3100   22.3550  -31.8410 C   0  0  0  0  0  0  0  0  0  0  0  0
   -2.2840   21.4940  -32.5190 C   0  0  0  0  0  0  0  0  0  0  0  0
   -2.7530   21.0590  -33.8420 N   0  0  0  0  0  0  0  0  0  0  0  0
   -2.9810   19.6050  -33.9280 C   0  0  0  0  0  0  0  0  0  0  0  0
   -4.3760   19.2180  -33.4980 C   0  0  0  0  0  0  0  0  0  0  0  0
   -4.7170   17.8660  -33.3620 C   0  0  0  0  0  0  0  0  0  0  0  0
   -5.9980   17.5130  -32.9410 C   0  0  0  0  0  0  0  0  0  0  0  0
   -6.9350   18.5110  -32.6530 C   0  0  0  0  0  0  0  0  0  0  0  0
   -8.2310   18.1850  -32.2240 C   0  0  0  0  0  0  0  0  0  0  0  0
   -9.1490   19.2010  -31.9390 C   0  0  0  0  0  0  0  0  0  0  0  0
   -8.7800   20.5420  -32.0780 C   0  0  0  0  0  0  0  0  0  0  0  0
   -7.4910   20.8760  -32.5040 C   0  0  0  0  0  0  0  0  0  0  0  0
   -6.5600   19.8670  -32.7940 C   0  0  0  0  0  0  0  0  0  0  0  0
   -5.2980   20.1840  -33.2100 N   0  0  0  0  0  0  0  0  0  0  0  0
   -4.5430   22.5690  -32.3720 N   0  0  0  0  0  0  0  0  0  0  0  0
   -5.1220   23.3900  -31.4790 C   0  0  0  0  0  0  0  0  0  0  0  0
   -6.4100   23.9170  -31.5210 C   0  0  0  0  0  0  0  0  0  0  0  0
   -6.8150   24.7470  -30.4590 C   0  0  0  0  0  0  0  0  0  0  0  0
   -5.9320   25.0220  -29.3910 C   0  0  0  0  0  0  0  0  0  0  0  0
   -4.6360   24.4740  -29.3770 C   0  0  0  0  0  0  0  0  0  0  0  0
   -4.2660   23.6600  -30.4500 C   0  0  0  0  0  0  0  0  0  0  0  0
   -2.0366   22.5498  -27.6842 H   0  0  0  0  0  0  0  0  0  0  0  0
   -3.1962   21.6205  -28.6933 H   0  0  0  0  0  0  0  0  0  0  0  0
   -1.4541   21.1827  -28.6933 H   0  0  0  0  0  0  0  0  0  0  0  0
   -1.7326   23.9808  -29.3993 H   0  0  0  0  0  0  0  0  0  0  0  0
   -1.0654   22.6215  -30.3775 H   0  0  0  0  0  0  0  0  0  0  0  0
   -1.3539   22.0690  -32.6382 H   0  0  0  0  0  0  0  0  0  0  0  0
   -2.1091   20.6027  -31.8986 H   0  0  0  0  0  0  0  0  0  0  0  0
   -2.0340   21.3330  -34.5540 H   0  0  0  0  0  0  0  0  0  0  0  0
   -2.8298   19.2840  -34.9692 H   0  0  0  0  0  0  0  0  0  0  0  0
   -2.2701   19.1118  -33.2488 H   0  0  0  0  0  0  0  0  0  0  0  0
   -3.9757   17.0850  -33.5869 H   0  0  0  0  0  0  0  0  0  0  0  0
   -6.2714   16.4527  -32.8355 H   0  0  0  0  0  0  0  0  0  0  0  0
   -8.5246   17.1308  -32.1120 H   0  0  0  0  0  0  0  0  0  0  0  0
  -10.1648   18.9439  -31.6043 H   0  0  0  0  0  0  0  0  0  0  0  0
   -9.5059   21.3368  -31.8515 H   0  0  0  0  0  0  0  0  0  0  0  0
   -7.2058   21.9329  -32.6122 H   0  0  0  0  0  0  0  0  0  0  0  0
   -5.0300   21.1900  -33.3090 H   0  0  0  0  0  0  0  0  0  0  0  0
   -7.0888   23.6920  -32.3568 H   0  0  0  0  0  0  0  0  0  0  0  0
   -7.8245   25.1840  -30.4605 H   0  0  0  0  0  0  0  0  0  0  0  0
   -6.2600   25.6693  -28.5643 H   0  0  0  0  0  0  0  0  0  0  0  0
   -3.9394   24.6793  -28.5508 H   0  0  0  0  0  0  0  0  0  0  0  0
  1  2  1  0
  2  3  1  0
  3  4  1  0
  4  5  1  0
  5  6  1  0
  6  7  1  0
  7  8  1  0
  8  9  2  0
  9 10  1  0
 10 11  2  0
 11 12  1  0
 12 13  2  0
 13 14  1  0
 14 15  2  0
 15 16  1  0
 16 17  2  0
  4 18  2  0
 18 19  1  0
 19 20  2  0
 20 21  1  0
 21 22  2  0
 22 23  1  0
 23 24  2  0
 24  3  1  0
 17  8  1  0
 24 19  1  0
 16 11  1  0
  1 25  1  0
  1 26  1  0
  1 27  1  0
  2 28  1  0
  2 29  1  0
  5 30  1  0
  5 31  1  0
  6 32  1  0
  7 33  1  0
  7 34  1  0
  9 35  1  0
 10 36  1  0
 12 37  1  0
 13 38  1  0
 14 39  1  0
 15 40  1  0
 17 41  1  0
 20 42  1  0
 21 43  1  0
 22 44  1  0
 23 45  1  0
M  CHG  1  17   1
M  END
>  <UniqueID>  (33) 
30

>  <SMILES>  (33) 
CCn1c(CNCc2ccc3ccccc3[nH+]2)nc2ccccc21

>  <Energy>  (33) 
85.11552220208307

>  <Genealogy>  (33) 
CCn1c(CNCc2ccc3ccccc3[nH+]2)nc2ccccc21 (protonated)
CCn1c(CNCc2ccc3ccccc3[nH+]2)nc2ccccc21 (3D coordinates assigned)
CCn1c(CNCc2ccc3ccccc3[nH+]2)nc2ccccc21 (optimized conformer: 85.11552220208307 kcal/mol)

>  <smiles>  (33) 
CCn1c(CNCc2ccc3ccccc3n2)nc2ccccc21

>  <score_type>  (33) 
oracle

>  <origin>  (33) 
adg

>  <m_score__min__energy>  (33) 
-7.9400000000000004

>  <m_primary>  (33) 
energy

$$$$
33:0
     RDKit          3D

 39 41  0  0  0  0  0  0  0  0999 V2000
   -1.1790   24.6430  -27.0740 C   0  0  0  0  0  0  0  0  0  0  0  0
   -1.4820   24.9150  -28.5150 C   0  0  0  0  0  0  0  0  0  0  0  0
   -1.2330   26.0600  -28.9800 O   0  0  0  0  0  0  0  0  0  0  0  0
   -2.0080   23.9000  -29.3860 N   0  0  0  0  0  0  0  0  0  0  0  0
   -1.1900   22.8100  -29.9190 C   0  0  0  0  0  0  0  0  0  0  0  0
   -2.1750   21.8190  -30.5820 C   0  0  0  0  0  0  0  0  0  0  0  0
   -3.4920   22.4960  -30.4380 C   0  0  0  0  0  0  0  0  0  0  0  0
   -4.7220   22.0710  -30.9320 C   0  0  0  0  0  0  0  0  0  0  0  0
   -5.8570   22.8850  -30.7460 C   0  0  0  0  0  0  0  0  0  0  0  0
   -7.4200   22.3120  -31.3540 S   0  0  0  0  0  0  0  0  0  0  0  0
   -8.4090   22.2970  -30.2220 O   0  0  0  0  0  0  0  0  0  0  0  0
   -7.9360   23.2310  -32.4250 O   0  0  0  0  0  0  0  0  0  0  0  0
   -7.2430   20.7050  -32.0520 C   0  0  0  0  0  0  0  0  0  0  0  0
   -6.3230   20.4680  -33.0850 C   0  0  0  0  0  0  0  0  0  0  0  0
   -6.2040   19.1890  -33.6380 C   0  0  0  0  0  0  0  0  0  0  0  0
   -6.9980   18.1430  -33.1620 C   0  0  0  0  0  0  0  0  0  0  0  0
   -7.9140   18.3730  -32.1310 C   0  0  0  0  0  0  0  0  0  0  0  0
   -8.0360   19.6500  -31.5760 C   0  0  0  0  0  0  0  0  0  0  0  0
   -5.7170   24.1420  -30.0880 C   0  0  0  0  0  0  0  0  0  0  0  0
   -6.8910   25.0580  -29.8630 C   0  0  0  0  0  0  0  0  0  0  0  0
   -4.4520   24.5340  -29.5960 C   0  0  0  0  0  0  0  0  0  0  0  0
   -3.3620   23.6740  -29.7610 C   0  0  0  0  0  0  0  0  0  0  0  0
   -1.8475   25.2431  -26.4391 H   0  0  0  0  0  0  0  0  0  0  0  0
   -1.3334   23.5747  -26.8621 H   0  0  0  0  0  0  0  0  0  0  0  0
   -0.1335   24.9114  -26.8621 H   0  0  0  0  0  0  0  0  0  0  0  0
   -0.4779   23.1959  -30.6633 H   0  0  0  0  0  0  0  0  0  0  0  0
   -0.6031   22.3233  -29.1261 H   0  0  0  0  0  0  0  0  0  0  0  0
   -1.9251   21.6651  -31.6421 H   0  0  0  0  0  0  0  0  0  0  0  0
   -2.1530   20.8193  -30.1237 H   0  0  0  0  0  0  0  0  0  0  0  0
   -4.8070   21.1106  -31.4616 H   0  0  0  0  0  0  0  0  0  0  0  0
   -5.6947   21.2893  -33.4602 H   0  0  0  0  0  0  0  0  0  0  0  0
   -5.4839   19.0064  -34.4492 H   0  0  0  0  0  0  0  0  0  0  0  0
   -6.9026   17.1378  -33.5985 H   0  0  0  0  0  0  0  0  0  0  0  0
   -8.5388   17.5487  -31.7566 H   0  0  0  0  0  0  0  0  0  0  0  0
   -8.7559   19.8284  -30.7636 H   0  0  0  0  0  0  0  0  0  0  0  0
   -7.0547   25.1857  -28.7828 H   0  0  0  0  0  0  0  0  0  0  0  0
   -6.6854   26.0368  -30.3209 H   0  0  0  0  0  0  0  0  0  0  0  0
   -7.7904   24.6206  -30.3209 H   0  0  0  0  0  0  0  0  0  0  0  0
   -4.3263   25.5026  -29.0900 H   0  0  0  0  0  0  0  0  0  0  0  0
  1  2  1  0
  2  3  2  0
  2  4  1  0
  4  5  1  0
  5  6  1  0
  6  7  1  0
  7  8  2  0
  8  9  1  0
  9 10  1  0
 10 11  2  0
 10 12  2  0
 10 13  1  0
 13 14  2  0
 14 15  1  0
 15 16  2  0
 16 17  1  0
 17 18  2  0
  9 19  2  0
 19 20  1  0
 19 21  1  0
 21 22  2  0
 22  4  1  0
 22  7  1  0
 18 13  1  0
  1 23  1  0
  1 24  1  0
  1 25  1  0
  5 26  1  0
  5 27  1  0
  6 28  1  0
  6 29  1  0
  8 30  1  0
 14 31  1  0
 15 32  1  0
 16 33  1  0
 17 34  1  0
 18 35  1  0
 20 36  1  0
 20 37  1  0
 20 38  1  0
 21 39  1  0
M  END
>  <UniqueID>  (34) 
31

>  <SMILES>  (34) 
CC(=O)N1CCc2cc(S(=O)(=O)c3ccccc3)c(C)cc21

>  <Energy>  (34) 
60.308454876273345

>  <Genealogy>  (34) 
CC(=O)N1CCc2cc(S(=O)(=O)c3ccccc3)c(C)cc21 (3D coordinates assigned)
CC(=O)N1CCc2cc(S(=O)(=O)c3ccccc3)c(C)cc21 (nonaromatic ring conformer: 60.308454876273345 kcal/mol)

>  <smiles>  (34) 
CC(=O)N1CCc2cc(S(=O)(=O)c3ccccc3)c(C)cc21

>  <score_type>  (34) 
oracle

>  <origin>  (34) 
adg

>  <m_score__min__energy>  (34) 
-8.9299999999999997

>  <m_primary>  (34) 
energy

$$$$
34:0
     RDKit          3D

 30 32  0  0  0  0  0  0  0  0999 V2000
   -5.5690   25.6730  -30.2090 C   0  0  0  0  0  0  0  0  0  0  0  0
   -4.5710   24.8800  -30.8430 O   0  0  0  0  0  0  0  0  0  0  0  0
   -4.6920   23.5070  -31.1010 C   0  0  0  0  0  0  0  0  0  0  0  0
   -3.5750   22.6530  -31.1380 C   0  0  0  0  0  0  0  0  0  0  0  0
   -3.7560   21.2960  -31.4060 C   0  0  0  0  0  0  0  0  0  0  0  0
   -5.0370   20.7970  -31.6280 C   0  0  0  0  0  0  0  0  0  0  0  0
   -6.1370   21.6640  -31.5670 C   0  0  0  0  0  0  0  0  0  0  0  0
   -7.4650   21.1740  -31.8140 N   0  0  0  0  0  0  0  0  0  0  0  0
   -8.5980   21.7980  -31.4480 C   0  0  0  0  0  0  0  0  0  0  0  0
   -9.6620   21.1030  -31.9740 C   0  0  0  0  0  0  0  0  0  0  0  0
   -9.2090   20.0370  -32.6630 N   0  0  0  0  0  0  0  0  0  0  0  0
   -7.8650   20.1030  -32.5430 C   0  0  0  0  0  0  0  0  0  0  0  0
   -6.9790   19.0590  -33.0980 C   0  0  0  0  0  0  0  0  0  0  0  0
   -6.1490   19.2850  -34.2080 C   0  0  0  0  0  0  0  0  0  0  0  0
   -5.4260   18.1680  -34.6010 C   0  0  0  0  0  0  0  0  0  0  0  0
   -5.8370   16.8970  -33.5830 S   0  0  0  0  0  0  0  0  0  0  0  0
   -6.9300   17.7480  -32.6310 C   0  0  0  0  0  0  0  0  0  0  0  0
   -5.9340   22.9920  -31.3220 N   0  0  0  0  0  0  0  0  0  0  0  0
   -5.4644   25.5899  -29.1171 H   0  0  0  0  0  0  0  0  0  0  0  0
   -5.4481   26.7241  -30.5100 H   0  0  0  0  0  0  0  0  0  0  0  0
   -6.5656   25.3177  -30.5100 H   0  0  0  0  0  0  0  0  0  0  0  0
   -2.5661   23.0522  -30.9569 H   0  0  0  0  0  0  0  0  0  0  0  0
   -2.8881   20.6211  -31.4419 H   0  0  0  0  0  0  0  0  0  0  0  0
   -5.1848   19.7298  -31.8497 H   0  0  0  0  0  0  0  0  0  0  0  0
   -8.6630   22.7080  -30.8335 H   0  0  0  0  0  0  0  0  0  0  0  0
  -10.7206   21.3755  -31.8511 H   0  0  0  0  0  0  0  0  0  0  0  0
   -6.0787   20.2569  -34.7183 H   0  0  0  0  0  0  0  0  0  0  0  0
   -4.7089   18.1227  -35.4339 H   0  0  0  0  0  0  0  0  0  0  0  0
   -7.5058   17.3407  -31.7869 H   0  0  0  0  0  0  0  0  0  0  0  0
   -6.7570   23.6350  -31.2870 H   0  0  0  0  0  0  0  0  0  0  0  0
  1  2  1  0
  2  3  1  0
  3  4  2  0
  4  5  1  0
  5  6  2  0
  6  7  1  0
  7  8  1  0
  8  9  1  0
  9 10  2  0
 10 11  1  0
 11 12  2  0
 12 13  1  0
 13 14  1  0
 14 15  2  0
 15 16  1  0
 16 17  1  0
  7 18  2  0
 18  3  1  0
 12  8  1  0
 17 13  2  0
  1 19  1  0
  1 20  1  0
  1 21  1  0
  4 22  1  0
  5 23  1  0
  6 24  1  0
  9 25  1  0
 10 26  1  0
 14 27  1  0
 15 28  1  0
 17 29  1  0
 18 30  1  0
M  CHG  1  18   1
M  END
>  <UniqueID>  (35) 
32

>  <SMILES>  (35) 
COc1cccc(-n2ccnc2-c2ccsc2)[nH+]1

>  <Energy>  (35) 
94.64871624979983

>  <Genealogy>  (35) 
COc1cccc(-n2ccnc2-c2ccsc2)[nH+]1 (protonated)
COc1cccc(-n2ccnc2-c2ccsc2)[nH+]1 (3D coordinates assigned)
COc1cccc(-n2ccnc2-c2ccsc2)[nH+]1 (optimized conformer: 94.64871624979983 kcal/mol)

>  <smiles>  (35) 
COc1cccc(-n2ccnc2-c2ccsc2)n1

>  <score_type>  (35) 
oracle

>  <origin>  (35) 
adg

>  <m_score__min__energy>  (35) 
-6.2999999999999998

>  <m_primary>  (35) 
energy

$$$$
35:0
     RDKit          3D

 59 62  0  0  0  0  0  0  0  0999 V2000
   -7.0040   22.8910  -30.2050 C   0  0  0  0  0  0  0  0  0  0  0  0
   -7.5570   21.8020  -31.0830 C   0  0  0  0  0  0  0  0  0  0  0  0
   -8.9430   21.5730  -31.1060 C   0  0  0  0  0  0  0  0  0  0  0  0
   -9.4850   20.5830  -31.9300 C   0  0  0  0  0  0  0  0  0  0  0  0
   -8.6500   19.8160  -32.7450 C   0  0  0  0  0  0  0  0  0  0  0  0
   -7.2720   20.0430  -32.7450 C   0  0  0  0  0  0  0  0  0  0  0  0
   -6.7190   21.0400  -31.9300 C   0  0  0  0  0  0  0  0  0  0  0  0
   -5.3020   21.2610  -31.9650 N   0  0  0  0  0  0  0  0  0  0  0  0
   -4.7760   22.5730  -32.3460 C   0  0  0  0  0  0  0  0  0  0  0  0
   -3.6560   23.0070  -31.3820 C   0  0  0  0  0  0  0  0  0  0  0  0
   -2.7750   21.8880  -30.9320 N   0  0  0  0  0  0  0  0  0  0  0  0
   -1.3520   22.2950  -30.7700 C   0  0  0  0  0  0  0  0  0  0  0  0
   -0.7340   22.1030  -29.3590 C   0  0  0  0  0  0  0  0  0  0  0  0
   -1.0660   23.2030  -28.4380 N   0  0  0  0  0  0  0  0  0  0  0  0
   -2.3410   23.2150  -27.7630 C   0  0  0  0  0  0  0  0  0  0  0  0
   -3.1130   22.2190  -27.8390 O   0  0  0  0  0  0  0  0  0  0  0  0
   -2.7950   24.4310  -27.0060 C   0  0  0  0  0  0  0  0  0  0  0  0
   -1.6060   25.1500  -26.3300 C   0  0  0  0  0  0  0  0  0  0  0  0
   -1.0100   24.3200  -25.1760 C   0  0  0  0  0  0  0  0  0  0  0  0
   -0.4360   25.3270  -24.1830 C   0  0  0  0  0  0  0  0  0  0  0  0
   -1.0990   26.6700  -24.4820 C   0  0  0  0  0  0  0  0  0  0  0  0
   -2.0710   26.4370  -25.6330 C   0  0  0  0  0  0  0  0  0  0  0  0
   -0.5330   25.4800  -27.4000 C   0  0  0  0  0  0  0  0  0  0  0  0
   -0.1160   24.2550  -28.1620 C   0  0  0  0  0  0  0  0  0  0  0  0
    1.0720   24.1750  -28.5790 O   0  0  0  0  0  0  0  0  0  0  0  0
   -2.9360   20.6360  -31.7060 C   0  0  0  0  0  0  0  0  0  0  0  0
   -4.3910   20.1590  -31.6500 C   0  0  0  0  0  0  0  0  0  0  0  0
   -7.1433   22.6167  -29.1489 H   0  0  0  0  0  0  0  0  0  0  0  0
   -5.9313   23.0197  -30.4120 H   0  0  0  0  0  0  0  0  0  0  0  0
   -7.5330   23.8330  -30.4120 H   0  0  0  0  0  0  0  0  0  0  0  0
   -9.6067   22.1777  -30.4705 H   0  0  0  0  0  0  0  0  0  0  0  0
  -10.5709   20.4077  -31.9366 H   0  0  0  0  0  0  0  0  0  0  0  0
   -9.0779   19.0324  -33.3875 H   0  0  0  0  0  0  0  0  0  0  0  0
   -6.6174   19.4362  -33.3879 H   0  0  0  0  0  0  0  0  0  0  0  0
   -4.3727   22.5182  -33.3679 H   0  0  0  0  0  0  0  0  0  0  0  0
   -5.5911   23.3101  -32.2984 H   0  0  0  0  0  0  0  0  0  0  0  0
   -3.0315   23.7555  -31.8917 H   0  0  0  0  0  0  0  0  0  0  0  0
   -4.1471   23.4071  -30.4827 H   0  0  0  0  0  0  0  0  0  0  0  0
   -3.0920   21.6530  -29.9590 H   0  0  0  0  0  0  0  0  0  0  0  0
   -0.7529   21.7064  -31.4804 H   0  0  0  0  0  0  0  0  0  0  0  0
   -1.3369   23.3801  -30.9497 H   0  0  0  0  0  0  0  0  0  0  0  0
   -1.1130   21.1619  -28.9340 H   0  0  0  0  0  0  0  0  0  0  0  0
    0.3597   22.0859  -29.4751 H   0  0  0  0  0  0  0  0  0  0  0  0
   -3.2833   25.1261  -27.7048 H   0  0  0  0  0  0  0  0  0  0  0  0
   -3.4964   24.1092  -26.2221 H   0  0  0  0  0  0  0  0  0  0  0  0
   -1.7936   23.7151  -24.6964 H   0  0  0  0  0  0  0  0  0  0  0  0
   -0.2365   23.6264  -25.5375 H   0  0  0  0  0  0  0  0  0  0  0  0
   -0.6624   25.0141  -23.1530 H   0  0  0  0  0  0  0  0  0  0  0  0
    0.6575   25.3968  -24.2798 H   0  0  0  0  0  0  0  0  0  0  0  0
   -1.6417   27.0297  -23.5954 H   0  0  0  0  0  0  0  0  0  0  0  0
   -0.3487   27.4292  -24.7476 H   0  0  0  0  0  0  0  0  0  0  0  0
   -3.0946   26.3148  -25.2493 H   0  0  0  0  0  0  0  0  0  0  0  0
   -2.0815   27.2891  -26.3285 H   0  0  0  0  0  0  0  0  0  0  0  0
   -0.9470   26.2154  -28.1056 H   0  0  0  0  0  0  0  0  0  0  0  0
    0.3522   25.8831  -26.8862 H   0  0  0  0  0  0  0  0  0  0  0  0
   -2.6540   20.8183  -32.7535 H   0  0  0  0  0  0  0  0  0  0  0  0
   -2.2885   19.8607  -31.2706 H   0  0  0  0  0  0  0  0  0  0  0  0
   -4.5353   19.3494  -32.3805 H   0  0  0  0  0  0  0  0  0  0  0  0
   -4.6084   19.7955  -30.6348 H   0  0  0  0  0  0  0  0  0  0  0  0
  1  2  1  0
  2  3  2  0
  3  4  1  0
  4  5  2  0
  5  6  1  0
  6  7  2  0
  7  8  1  0
  8  9  1  0
  9 10  1  0
 10 11  1  0
 11 12  1  0
 12 13  1  0
 13 14  1  0
 14 15  1  0
 15 16  2  0
 15 17  1  0
 17 18  1  0
 18 19  1  0
 19 20  1  0
 20 21  1  0
 21 22  1  0
 18 23  1  0
 23 24  1  0
 24 25  2  0
 11 26  1  0
 26 27  1  0
  7  2  1  0
 27  8  1  0
 24 14  1  0
 22 18  1  0
  1 28  1  0
  1 29  1  0
  1 30  1  0
  3 31  1  0
  4 32  1  0
  5 33  1  0
  6 34  1  0
  9 35  1  0
  9 36  1  0
 10 37  1  0
 10 38  1  0
 11 39  1  0
 12 40  1  0
 12 41  1  0
 13 42  1  0
 13 43  1  0
 17 44  1  0
 17 45  1  0
 19 46  1  0
 19 47  1  0
 20 48  1  0
 20 49  1  0
 21 50  1  0
 21 51  1  0
 22 52  1  0
 22 53  1  0
 23 54  1  0
 23 55  1  0
 26 56  1  0
 26 57  1  0
 27 58  1  0
 27 59  1  0
M  CHG  1  11   1
M  END
>  <UniqueID>  (36) 
33

>  <SMILES>  (36) 
Cc1ccccc1N1CC[NH+](CCN2C(=O)CC3(CCCC3)CC2=O)CC1

>  <Energy>  (36) 
77.13607792977183

>  <Genealogy>  (36) 
Cc1ccccc1N1CC[NH+](CCN2C(=O)CC3(CCCC3)CC2=O)CC1 (protonated)
Cc1ccccc1N1CC[NH+](CCN2C(=O)CC3(CCCC3)CC2=O)CC1 (3D coordinates assigned)
Cc1ccccc1N1CC[NH+](CCN2C(=O)CC3(CCCC3)CC2=O)CC1 (nonaromatic ring conformer: 77.13607792977183 kcal/mol)

>  <smiles>  (36) 
Cc1ccccc1N1CCN(CCN2C(=O)CC3(CCCC3)CC2=O)CC1

>  <score_type>  (36) 
oracle

>  <origin>  (36) 
adg

>  <m_score__min__energy>  (36) 
-8.4700000000000006

>  <m_primary>  (36) 
energy

$$$$
36:0
     RDKit          3D

 52 56  0  0  0  0  0  0  0  0999 V2000
   -2.7440   25.1960  -26.3310 C   0  0  0  0  0  0  0  0  0  0  0  0
   -1.6560   25.2810  -27.2050 C   0  0  0  0  0  0  0  0  0  0  0  0
   -1.7410   24.7280  -28.4860 C   0  0  0  0  0  0  0  0  0  0  0  0
   -2.9190   24.0850  -28.9020 C   0  0  0  0  0  0  0  0  0  0  0  0
   -3.0250   23.5000  -30.2860 C   0  0  0  0  0  0  0  0  0  0  0  0
   -2.3270   22.1970  -30.3670 N   0  0  0  0  0  0  0  0  0  0  0  0
   -3.1290   21.0780  -29.8260 C   0  0  0  0  0  0  0  0  0  0  0  0
   -4.2440   20.6400  -30.7940 C   0  0  0  0  0  0  0  0  0  0  0  0
   -3.7950   20.5030  -32.2040 N   0  0  0  0  0  0  0  0  0  0  0  0
   -4.5580   21.3750  -33.1230 C   0  0  0  0  0  0  0  0  0  0  0  0
   -5.8250   21.8670  -32.4820 C   0  0  0  0  0  0  0  0  0  0  0  0
   -6.0100   23.1910  -32.0480 C   0  0  0  0  0  0  0  0  0  0  0  0
   -7.6370   23.4160  -31.5600 S   0  0  0  0  0  0  0  0  0  0  0  0
   -7.9970   21.8180  -31.9060 C   0  0  0  0  0  0  0  0  0  0  0  0
   -9.1490   21.1260  -31.9130 N   0  0  0  0  0  0  0  0  0  0  0  0
   -8.8060   19.9320  -32.3920 N   0  0  0  0  0  0  0  0  0  0  0  0
   -7.4760   19.9320  -32.6630 C   0  0  0  0  0  0  0  0  0  0  0  0
   -6.7390   18.7740  -33.1900 C   0  0  0  0  0  0  0  0  0  0  0  0
   -6.7600   17.5480  -32.5060 C   0  0  0  0  0  0  0  0  0  0  0  0
   -6.0770   16.4430  -33.0240 C   0  0  0  0  0  0  0  0  0  0  0  0
   -5.3820   16.5530  -34.2310 C   0  0  0  0  0  0  0  0  0  0  0  0
   -5.3750   17.7650  -34.9270 C   0  0  0  0  0  0  0  0  0  0  0  0
   -6.0590   18.8720  -34.4130 C   0  0  0  0  0  0  0  0  0  0  0  0
   -6.9630   21.1380  -32.3610 N   0  0  0  0  0  0  0  0  0  0  0  0
   -2.3300   20.6340  -32.3640 C   0  0  0  0  0  0  0  0  0  0  0  0
   -1.7910   21.9290  -31.7270 C   0  0  0  0  0  0  0  0  0  0  0  0
   -4.0090   24.0070  -28.0190 C   0  0  0  0  0  0  0  0  0  0  0  0
   -3.9200   24.5600  -26.7380 C   0  0  0  0  0  0  0  0  0  0  0  0
   -2.6743   25.6299  -25.3226 H   0  0  0  0  0  0  0  0  0  0  0  0
   -0.7318   25.7838  -26.8841 H   0  0  0  0  0  0  0  0  0  0  0  0
   -0.8828   24.7965  -29.1707 H   0  0  0  0  0  0  0  0  0  0  0  0
   -4.0867   23.3553  -30.5348 H   0  0  0  0  0  0  0  0  0  0  0  0
   -2.5534   24.1946  -30.9967 H   0  0  0  0  0  0  0  0  0  0  0  0
   -2.4634   20.2218  -29.6416 H   0  0  0  0  0  0  0  0  0  0  0  0
   -3.6052   21.4225  -28.8961 H   0  0  0  0  0  0  0  0  0  0  0  0
   -4.6328   19.6674  -30.4578 H   0  0  0  0  0  0  0  0  0  0  0  0
   -5.0107   21.4286  -30.7773 H   0  0  0  0  0  0  0  0  0  0  0  0
   -3.9354   22.2397  -33.3963 H   0  0  0  0  0  0  0  0  0  0  0  0
   -4.8246   20.7901  -34.0157 H   0  0  0  0  0  0  0  0  0  0  0  0
   -5.2289   23.9652  -32.0251 H   0  0  0  0  0  0  0  0  0  0  0  0
   -9.4680   19.1360  -32.5240 H   0  0  0  0  0  0  0  0  0  0  0  0
   -7.3149   17.4564  -31.5606 H   0  0  0  0  0  0  0  0  0  0  0  0
   -6.0870   15.4866  -32.4807 H   0  0  0  0  0  0  0  0  0  0  0  0
   -4.8398   15.6849  -34.6339 H   0  0  0  0  0  0  0  0  0  0  0  0
   -4.8313   17.8486  -35.8796 H   0  0  0  0  0  0  0  0  0  0  0  0
   -6.0635   19.8211  -34.9690 H   0  0  0  0  0  0  0  0  0  0  0  0
   -1.8423   19.7729  -31.8838 H   0  0  0  0  0  0  0  0  0  0  0  0
   -2.1086   20.6686  -33.4409 H   0  0  0  0  0  0  0  0  0  0  0  0
   -0.6958   21.8523  -31.6592 H   0  0  0  0  0  0  0  0  0  0  0  0
   -2.1160   22.7610  -32.3690 H   0  0  0  0  0  0  0  0  0  0  0  0
   -4.9366   23.5086  -28.3370 H   0  0  0  0  0  0  0  0  0  0  0  0
   -4.7759   24.4945  -26.0502 H   0  0  0  0  0  0  0  0  0  0  0  0
  1  2  2  0
  2  3  1  0
  3  4  2  0
  4  5  1  0
  5  6  1  0
  6  7  1  0
  7  8  1  0
  8  9  1  0
  9 10  1  0
 10 11  1  0
 11 12  2  0
 12 13  1  0
 13 14  1  0
 14 15  2  0
 15 16  1  0
 16 17  2  0
 17 18  1  0
 18 19  2  0
 19 20  1  0
 20 21  2  0
 21 22  1  0
 22 23  2  0
 17 24  1  0
  9 25  1  0
 25 26  1  0
  4 27  1  0
 27 28  2  0
 28  1  1  0
 26  6  1  0
 24 11  1  0
 24 14  1  0
 23 18  1  0
  1 29  1  0
  2 30  1  0
  3 31  1  0
  5 32  1  0
  5 33  1  0
  7 34  1  0
  7 35  1  0
  8 36  1  0
  8 37  1  0
 10 38  1  0
 10 39  1  0
 12 40  1  0
 16 41  1  0
 19 42  1  0
 20 43  1  0
 21 44  1  0
 22 45  1  0
 23 46  1  0
 25 47  1  0
 25 48  1  0
 26 49  1  0
 26 50  1  0
 27 51  1  0
 28 52  1  0
M  CHG  1  16   1
M  END
>  <UniqueID>  (37) 
34

>  <SMILES>  (37) 
c1ccc(CN2CCN(Cc3csc4n[nH+]c(-c5ccccc5)n34)CC2)cc1

>  <Energy>  (37) 
162.8986139939738

>  <Genealogy>  (37) 
c1ccc(CN2CCN(Cc3csc4n[nH+]c(-c5ccccc5)n34)CC2)cc1 (protonated)
c1ccc(CN2CCN(Cc3csc4n[nH+]c(-c5ccccc5)n34)CC2)cc1 (3D coordinates assigned)
c1ccc(CN2CCN(Cc3csc4n[nH+]c(-c5ccccc5)n34)CC2)cc1 (nonaromatic ring conformer: 162.8986139939738 kcal/mol)

>  <smiles>  (37) 
c1ccc(CN2CCN(Cc3csc4nnc(-c5ccccc5)n34)CC2)cc1

>  <score_type>  (37) 
oracle

>  <origin>  (37) 
adg

>  <m_score__min__energy>  (37) 
-8.6600000000000001

>  <m_primary>  (37) 
energy

$$$$
37:0
     RDKit          3D

 33 35  0  0  0  0  0  0  0  0999 V2000
    2.1370   24.8840  -27.2770 C   0  0  0  0  0  0  0  0  0  0  0  0
    1.0320   24.9210  -28.1730 O   0  0  0  0  0  0  0  0  0  0  0  0
   -0.3130   24.9410  -27.7720 C   0  0  0  0  0  0  0  0  0  0  0  0
   -0.7270   25.4970  -26.5470 C   0  0  0  0  0  0  0  0  0  0  0  0
   -2.0780   25.4880  -26.1920 C   0  0  0  0  0  0  0  0  0  0  0  0
   -3.0260   24.9280  -27.0510 C   0  0  0  0  0  0  0  0  0  0  0  0
   -2.6310   24.3710  -28.2770 C   0  0  0  0  0  0  0  0  0  0  0  0
   -3.6070   23.7930  -29.1630 N   0  0  0  0  0  0  0  0  0  0  0  0
   -4.1660   22.5660  -29.0740 C   0  0  0  0  0  0  0  0  0  0  0  0
   -3.8520   21.6330  -28.0920 O   0  0  0  0  0  0  0  0  0  0  0  0
   -5.0670   22.3490  -30.0990 C   0  0  0  0  0  0  0  0  0  0  0  0
   -5.0560   23.5070  -30.8510 C   0  0  0  0  0  0  0  0  0  0  0  0
   -6.0310   23.8290  -32.3170 S   0  0  0  0  0  0  0  0  0  0  0  0
   -7.2080   22.5360  -31.9240 C   0  0  0  0  0  0  0  0  0  0  0  0
   -8.3120   22.7200  -31.1790 N   0  0  0  0  0  0  0  0  0  0  0  0
   -8.8820   21.5230  -31.1110 N   0  0  0  0  0  0  0  0  0  0  0  0
   -8.1610   20.6360  -31.7830 N   0  0  0  0  0  0  0  0  0  0  0  0
   -7.1190   21.2530  -32.3100 N   0  0  0  0  0  0  0  0  0  0  0  0
   -6.0480   20.5980  -33.0490 C   0  0  0  0  0  0  0  0  0  0  0  0
   -4.1550   24.3650  -30.2560 C   0  0  0  0  0  0  0  0  0  0  0  0
   -3.8690   25.6530  -30.6960 O   0  0  0  0  0  0  0  0  0  0  0  0
   -1.2710   24.3830  -28.6280 C   0  0  0  0  0  0  0  0  0  0  0  0
    1.7691   24.8963  -26.2404 H   0  0  0  0  0  0  0  0  0  0  0  0
    2.7180   23.9659  -27.4490 H   0  0  0  0  0  0  0  0  0  0  0  0
    2.7781   25.7612  -27.4490 H   0  0  0  0  0  0  0  0  0  0  0  0
    0.0156   25.9400  -25.8671 H   0  0  0  0  0  0  0  0  0  0  0  0
   -2.3960   25.9232  -25.2331 H   0  0  0  0  0  0  0  0  0  0  0  0
   -4.0882   24.9235  -26.7651 H   0  0  0  0  0  0  0  0  0  0  0  0
   -5.6666   21.4444  -30.2781 H   0  0  0  0  0  0  0  0  0  0  0  0
   -5.3296   20.1587  -32.3413 H   0  0  0  0  0  0  0  0  0  0  0  0
   -6.4714   19.8042  -33.6819 H   0  0  0  0  0  0  0  0  0  0  0  0
   -5.5342   21.3366  -33.6819 H   0  0  0  0  0  0  0  0  0  0  0  0
   -0.9542   23.9485  -29.5876 H   0  0  0  0  0  0  0  0  0  0  0  0
  1  2  1  0
  2  3  1  0
  3  4  2  0
  4  5  1  0
  5  6  2  0
  6  7  1  0
  7  8  1  0
  8  9  1  0
  9 10  1  0
  9 11  2  0
 11 12  1  0
 12 13  1  0
 13 14  1  0
 14 15  2  0
 15 16  1  0
 16 17  2  0
 17 18  1  0
 18 19  1  0
 12 20  2  0
 20 21  1  0
  7 22  2  0
 22  3  1  0
 20  8  1  0
 18 14  1  0
  1 23  1  0
  1 24  1  0
  1 25  1  0
  4 26  1  0
  5 27  1  0
  6 28  1  0
 11 29  1  0
 19 30  1  0
 19 31  1  0
 19 32  1  0
 22 33  1  0
M  CHG  2  10  -1  21  -1
M  END
>  <UniqueID>  (38) 
35

>  <SMILES>  (38) 
COc1cccc(-n2c([O-])cc(Sc3nnnn3C)c2[O-])c1

>  <Energy>  (38) 
103.99189069190176

>  <Genealogy>  (38) 
COc1cccc(-n2c([O-])cc(Sc3nnnn3C)c2[O-])c1 (protonated)
COc1cccc(-n2c([O-])cc(Sc3nnnn3C)c2[O-])c1 (3D coordinates assigned)
COc1cccc(-n2c([O-])cc(Sc3nnnn3C)c2[O-])c1 (optimized conformer: 103.99189069190176 kcal/mol)

>  <smiles>  (38) 
COc1cccc(-n2c(O)cc(Sc3nnnn3C)c2O)c1

>  <score_type>  (38) 
oracle

>  <origin>  (38) 
adg

>  <m_score__min__energy>  (38) 
-10.220000000000001

>  <m_primary>  (38) 
energy

$$$$
38:0
     RDKit          3D

 44 45  0  0  0  0  0  0  0  0999 V2000
   -3.5850   17.1210  -33.1410 C   0  0  0  0  0  0  0  0  0  0  0  0
   -5.0690   17.2780  -33.0920 C   0  0  0  0  0  0  0  0  0  0  0  0
   -5.9920   16.7650  -33.9820 C   0  0  0  0  0  0  0  0  0  0  0  0
   -7.2340   17.0570  -33.5470 N   0  0  0  0  0  0  0  0  0  0  0  0
   -7.1120   17.7210  -32.4070 N   0  0  0  0  0  0  0  0  0  0  0  0
   -8.2450   18.2190  -31.6300 C   0  0  0  0  0  0  0  0  0  0  0  0
   -8.8260   19.4980  -32.2580 C   0  0  0  0  0  0  0  0  0  0  0  0
   -8.0500   19.9680  -33.4230 N   0  0  0  0  0  0  0  0  0  0  0  0
   -7.0120   20.9630  -33.0700 C   0  0  0  0  0  0  0  0  0  0  0  0
   -7.5190   22.0370  -32.0880 C   0  0  0  0  0  0  0  0  0  0  0  0
   -6.3870   22.7870  -31.4300 C   0  0  0  0  0  0  0  0  0  0  0  0
   -6.4890   24.1730  -31.2400 C   0  0  0  0  0  0  0  0  0  0  0  0
   -5.4330   24.8920  -30.6730 C   0  0  0  0  0  0  0  0  0  0  0  0
   -4.2500   24.2330  -30.2920 C   0  0  0  0  0  0  0  0  0  0  0  0
   -3.1530   24.9000  -29.7200 O   0  0  0  0  0  0  0  0  0  0  0  0
   -2.5250   24.5720  -28.4800 C   0  0  0  0  0  0  0  0  0  0  0  0
   -1.1580   25.2470  -28.3600 C   0  0  0  0  0  0  0  0  0  0  0  0
   -0.8410   25.4270  -27.0260 F   0  0  0  0  0  0  0  0  0  0  0  0
   -1.2000   26.4820  -28.9810 F   0  0  0  0  0  0  0  0  0  0  0  0
   -0.1790   24.4780  -28.9590 F   0  0  0  0  0  0  0  0  0  0  0  0
   -4.1530   22.8490  -30.4740 C   0  0  0  0  0  0  0  0  0  0  0  0
   -5.2070   22.1270  -31.0420 C   0  0  0  0  0  0  0  0  0  0  0  0
   -5.0700   20.7880  -31.2140 F   0  0  0  0  0  0  0  0  0  0  0  0
   -5.8100   17.8680  -32.0940 C   0  0  0  0  0  0  0  0  0  0  0  0
   -3.1867   17.0789  -32.1165 H   0  0  0  0  0  0  0  0  0  0  0  0
   -3.3320   16.1911  -33.6713 H   0  0  0  0  0  0  0  0  0  0  0  0
   -3.1430   17.9774  -33.6713 H   0  0  0  0  0  0  0  0  0  0  0  0
   -5.7520   16.2073  -34.8992 H   0  0  0  0  0  0  0  0  0  0  0  0
   -9.0272   17.4462  -31.5992 H   0  0  0  0  0  0  0  0  0  0  0  0
   -7.8958   18.4553  -30.6140 H   0  0  0  0  0  0  0  0  0  0  0  0
   -9.8570   19.2931  -32.5822 H   0  0  0  0  0  0  0  0  0  0  0  0
   -8.7874   20.2886  -31.4941 H   0  0  0  0  0  0  0  0  0  0  0  0
   -8.7150   20.3700  -34.1250 H   0  0  0  0  0  0  0  0  0  0  0  0
   -7.5960   19.1530  -33.8960 H   0  0  0  0  0  0  0  0  0  0  0  0
   -6.1643   20.4365  -32.6071 H   0  0  0  0  0  0  0  0  0  0  0  0
   -6.7184   21.4764  -33.9975 H   0  0  0  0  0  0  0  0  0  0  0  0
   -8.1457   22.7536  -32.6392 H   0  0  0  0  0  0  0  0  0  0  0  0
   -8.0920   21.5292  -31.2982 H   0  0  0  0  0  0  0  0  0  0  0  0
   -7.4077   24.6985  -31.5397 H   0  0  0  0  0  0  0  0  0  0  0  0
   -5.5274   25.9778  -30.5241 H   0  0  0  0  0  0  0  0  0  0  0  0
   -3.1662   24.9093  -27.6523 H   0  0  0  0  0  0  0  0  0  0  0  0
   -2.3815   23.4822  -28.4384 H   0  0  0  0  0  0  0  0  0  0  0  0
   -3.2371   22.3231  -30.1667 H   0  0  0  0  0  0  0  0  0  0  0  0
   -5.4107   18.3700  -31.2004 H   0  0  0  0  0  0  0  0  0  0  0  0
  1  2  1  0
  2  3  1  0
  3  4  2  0
  4  5  1  0
  5  6  1  0
  6  7  1  0
  7  8  1  0
  8  9  1  0
  9 10  1  0
 10 11  1  0
 11 12  2  0
 12 13  1  0
 13 14  2  0
 14 15  1  0
 15 16  1  0
 16 17  1  0
 17 18  1  0
 17 19  1  0
 17 20  1  0
 14 21  1  0
 21 22  2  0
 22 23  1  0
  5 24  1  0
 24  2  2  0
 22 11  1  0
  1 25  1  0
  1 26  1  0
  1 27  1  0
  3 28  1  0
  6 29  1  0
  6 30  1  0
  7 31  1  0
  7 32  1  0
  8 33  1  0
  8 34  1  0
  9 35  1  0
  9 36  1  0
 10 37  1  0
 10 38  1  0
 12 39  1  0
 13 40  1  0
 16 41  1  0
 16 42  1  0
 21 43  1  0
 24 44  1  0
M  CHG  1   8   1
M  END
>  <UniqueID>  (39) 
36

>  <SMILES>  (39) 
Cc1cnn(CC[NH2+]CCc2ccc(OCC(F)(F)F)cc2F)c1

>  <Energy>  (39) 
69.72059369378255

>  <Genealogy>  (39) 
Cc1cnn(CC[NH2+]CCc2ccc(OCC(F)(F)F)cc2F)c1 (protonated)
Cc1cnn(CC[NH2+]CCc2ccc(OCC(F)(F)F)cc2F)c1 (3D coordinates assigned)
Cc1cnn(CC[NH2+]CCc2ccc(OCC(F)(F)F)cc2F)c1 (optimized conformer: 69.72059369378255 kcal/mol)

>  <smiles>  (39) 
Cc1cnn(CCNCCc2ccc(OCC(F)(F)F)cc2F)c1

>  <score_type>  (39) 
oracle

>  <origin>  (39) 
adg

>  <m_score__min__energy>  (39) 
-6.1200000000000001

>  <m_primary>  (39) 
energy

$$$$
39:0
     RDKit          3D

 37 39  0  0  0  0  0  0  0  0999 V2000
   -1.5000   25.3620  -27.8210 C   0  0  0  0  0  0  0  0  0  0  0  0
   -1.9960   25.3060  -29.1550 O   0  0  0  0  0  0  0  0  0  0  0  0
   -2.6390   24.1920  -29.7180 C   0  0  0  0  0  0  0  0  0  0  0  0
   -2.1040   22.8950  -29.6230 C   0  0  0  0  0  0  0  0  0  0  0  0
   -2.7720   21.8110  -30.1960 C   0  0  0  0  0  0  0  0  0  0  0  0
   -3.9840   21.9970  -30.8770 C   0  0  0  0  0  0  0  0  0  0  0  0
   -4.6710   20.8270  -31.4760 C   0  0  0  0  0  0  0  0  0  0  0  0
   -4.0690   19.6650  -31.9670 C   0  0  0  0  0  0  0  0  0  0  0  0
   -5.1190   18.8950  -32.4090 C   0  0  0  0  0  0  0  0  0  0  0  0
   -5.1370   17.6330  -32.9960 C   0  0  0  0  0  0  0  0  0  0  0  0
   -6.3870   17.0920  -33.3480 C   0  0  0  0  0  0  0  0  0  0  0  0
   -6.4770   15.3650  -34.1570 Br  0  0  0  0  0  0  0  0  0  0  0  0
   -7.5760   17.8190  -33.1050 C   0  0  0  0  0  0  0  0  0  0  0  0
   -7.5230   19.1020  -32.5050 C   0  0  0  0  0  0  0  0  0  0  0  0
   -8.6650   19.8710  -32.2390 O   0  0  0  0  0  0  0  0  0  0  0  0
   -8.7720   20.7930  -31.1610 C   0  0  0  0  0  0  0  0  0  0  0  0
   -6.2650   19.6020  -32.1720 C   0  0  0  0  0  0  0  0  0  0  0  0
   -5.9840   20.7540  -31.6150 O   0  0  0  0  0  0  0  0  0  0  0  0
   -4.5190   23.2940  -30.9730 C   0  0  0  0  0  0  0  0  0  0  0  0
   -3.8500   24.3930  -30.3970 C   0  0  0  0  0  0  0  0  0  0  0  0
   -4.3590   25.7000  -30.4750 O   0  0  0  0  0  0  0  0  0  0  0  0
   -5.7050   26.0630  -30.1860 C   0  0  0  0  0  0  0  0  0  0  0  0
   -2.3375   25.2674  -27.1141 H   0  0  0  0  0  0  0  0  0  0  0  0
   -0.7890   24.5384  -27.6593 H   0  0  0  0  0  0  0  0  0  0  0  0
   -0.9905   26.3234  -27.6593 H   0  0  0  0  0  0  0  0  0  0  0  0
   -1.1532   22.7334  -29.0939 H   0  0  0  0  0  0  0  0  0  0  0  0
   -2.3436   20.8013  -30.1125 H   0  0  0  0  0  0  0  0  0  0  0  0
   -2.9967   19.4214  -31.9938 H   0  0  0  0  0  0  0  0  0  0  0  0
   -4.2053   17.0775  -33.1785 H   0  0  0  0  0  0  0  0  0  0  0  0
   -8.5480   17.3857  -33.3835 H   0  0  0  0  0  0  0  0  0  0  0  0
   -8.7090   20.2500  -30.2065 H   0  0  0  0  0  0  0  0  0  0  0  0
   -7.9527   21.5245  -31.2215 H   0  0  0  0  0  0  0  0  0  0  0  0
   -9.7370   21.3174  -31.2215 H   0  0  0  0  0  0  0  0  0  0  0  0
   -5.4696   23.4526  -31.5032 H   0  0  0  0  0  0  0  0  0  0  0  0
   -5.8484   26.1017  -29.0961 H   0  0  0  0  0  0  0  0  0  0  0  0
   -5.9194   27.0511  -30.6193 H   0  0  0  0  0  0  0  0  0  0  0  0
   -6.3871   25.3167  -30.6193 H   0  0  0  0  0  0  0  0  0  0  0  0
  1  2  1  0
  2  3  1  0
  3  4  2  0
  4  5  1  0
  5  6  2  0
  6  7  1  0
  7  8  2  0
  8  9  1  0
  9 10  2  0
 10 11  1  0
 11 12  1  0
 11 13  2  0
 13 14  1  0
 14 15  1  0
 15 16  1  0
 14 17  2  0
 17 18  1  0
  6 19  1  0
 19 20  2  0
 20 21  1  0
 21 22  1  0
 20  3  1  0
 18  7  1  0
 17  9  1  0
  1 23  1  0
  1 24  1  0
  1 25  1  0
  4 26  1  0
  5 27  1  0
  8 28  1  0
 10 29  1  0
 13 30  1  0
 16 31  1  0
 16 32  1  0
 16 33  1  0
 19 34  1  0
 22 35  1  0
 22 36  1  0
 22 37  1  0
M  END
>  <UniqueID>  (40) 
37

>  <SMILES>  (40) 
COc1ccc(-c2cc3cc(Br)cc(OC)c3o2)cc1OC

>  <Energy>  (40) 
71.86405672754039

>  <Genealogy>  (40) 
COc1ccc(-c2cc3cc(Br)cc(OC)c3o2)cc1OC (3D coordinates assigned)
COc1ccc(-c2cc3cc(Br)cc(OC)c3o2)cc1OC (optimized conformer: 71.86405672754039 kcal/mol)

>  <smiles>  (40) 
COc1ccc(-c2cc3cc(Br)cc(OC)c3o2)cc1OC

>  <score_type>  (40) 
oracle

>  <origin>  (40) 
adg

>  <m_score__min__energy>  (40) 
-7.8099999999999996

>  <m_primary>  (40) 
energy

$$$$
40:0
     RDKit          3D

 46 47  0  0  0  0  0  0  0  0999 V2000
   -6.0260   18.8260  -34.3970 C   0  0  0  0  0  0  0  0  0  0  0  0
   -6.3060   18.8400  -32.8960 C   0  0  0  0  0  0  0  0  0  0  0  0
   -7.2780   19.8940  -32.5520 N   0  0  0  0  0  0  0  0  0  0  0  0
   -8.7080   19.5520  -32.6470 C   0  0  0  0  0  0  0  0  0  0  0  0
   -9.0890   18.5180  -31.5880 C   0  0  0  0  0  0  0  0  0  0  0  0
   -6.8420   21.2220  -32.1400 C   0  0  0  0  0  0  0  0  0  0  0  0
   -5.5310   21.6770  -32.4070 C   0  0  0  0  0  0  0  0  0  0  0  0
   -5.1110   22.9470  -32.0010 C   0  0  0  0  0  0  0  0  0  0  0  0
   -5.9880   23.8000  -31.3180 C   0  0  0  0  0  0  0  0  0  0  0  0
   -5.5200   25.1610  -30.8520 C   0  0  0  0  0  0  0  0  0  0  0  0
   -4.1080   25.1500  -30.4280 N   0  0  0  0  0  0  0  0  0  0  0  0
   -3.8420   24.1790  -29.3560 C   0  0  0  0  0  0  0  0  0  0  0  0
   -2.3340   24.0420  -29.1170 C   0  0  0  0  0  0  0  0  0  0  0  0
   -1.8850   24.9950  -28.0480 C   0  0  0  0  0  0  0  0  0  0  0  0
   -2.3680   24.8740  -26.7340 C   0  0  0  0  0  0  0  0  0  0  0  0
   -1.9050   25.7540  -25.7530 C   0  0  0  0  0  0  0  0  0  0  0  0
   -0.9580   26.7270  -26.0830 C   0  0  0  0  0  0  0  0  0  0  0  0
   -0.4930   26.8110  -27.3980 C   0  0  0  0  0  0  0  0  0  0  0  0
   -0.9570   25.9480  -28.3420 N   0  0  0  0  0  0  0  0  0  0  0  0
   -7.2950   23.3660  -31.0530 C   0  0  0  0  0  0  0  0  0  0  0  0
   -7.7180   22.0970  -31.4590 C   0  0  0  0  0  0  0  0  0  0  0  0
   -4.9406   18.7717  -34.5670 H   0  0  0  0  0  0  0  0  0  0  0  0
   -6.5127   17.9511  -34.8526 H   0  0  0  0  0  0  0  0  0  0  0  0
   -6.4230   19.7451  -34.8526 H   0  0  0  0  0  0  0  0  0  0  0  0
   -6.7131   17.8630  -32.5964 H   0  0  0  0  0  0  0  0  0  0  0  0
   -5.3645   19.0432  -32.3647 H   0  0  0  0  0  0  0  0  0  0  0  0
   -9.3075   20.4617  -32.4952 H   0  0  0  0  0  0  0  0  0  0  0  0
   -8.9040   19.1267  -33.6423 H   0  0  0  0  0  0  0  0  0  0  0  0
   -8.9319   18.9442  -30.5862 H   0  0  0  0  0  0  0  0  0  0  0  0
  -10.1474   18.2433  -31.7078 H   0  0  0  0  0  0  0  0  0  0  0  0
   -8.4619   17.6222  -31.7078 H   0  0  0  0  0  0  0  0  0  0  0  0
   -4.8294   21.0210  -32.9432 H   0  0  0  0  0  0  0  0  0  0  0  0
   -4.0852   23.2789  -32.2192 H   0  0  0  0  0  0  0  0  0  0  0  0
   -5.6360   25.8775  -31.6785 H   0  0  0  0  0  0  0  0  0  0  0  0
   -6.1308   25.4487  -29.9836 H   0  0  0  0  0  0  0  0  0  0  0  0
   -3.5030   24.9220  -31.2520 H   0  0  0  0  0  0  0  0  0  0  0  0
   -4.3256   24.5215  -28.4293 H   0  0  0  0  0  0  0  0  0  0  0  0
   -4.2450   23.2001  -29.6550 H   0  0  0  0  0  0  0  0  0  0  0  0
   -2.1090   23.0123  -28.8024 H   0  0  0  0  0  0  0  0  0  0  0  0
   -1.8020   24.2768  -30.0507 H   0  0  0  0  0  0  0  0  0  0  0  0
   -3.1024   24.0951  -26.4808 H   0  0  0  0  0  0  0  0  0  0  0  0
   -2.2849   25.6812  -24.7233 H   0  0  0  0  0  0  0  0  0  0  0  0
   -0.5824   27.4197  -25.3155 H   0  0  0  0  0  0  0  0  0  0  0  0
    0.2492   27.5759  -27.6704 H   0  0  0  0  0  0  0  0  0  0  0  0
   -7.9929   24.0295  -30.5214 H   0  0  0  0  0  0  0  0  0  0  0  0
   -8.7478   21.7749  -31.2452 H   0  0  0  0  0  0  0  0  0  0  0  0
  1  2  1  0
  2  3  1  0
  3  4  1  0
  4  5  1  0
  3  6  1  0
  6  7  2  0
  7  8  1  0
  8  9  2  0
  9 10  1  0
 10 11  1  0
 11 12  1  0
 12 13  1  0
 13 14  1  0
 14 15  2  0
 15 16  1  0
 16 17  2  0
 17 18  1  0
 18 19  2  0
  9 20  1  0
 20 21  2  0
 21  6  1  0
 19 14  1  0
  1 22  1  0
  1 23  1  0
  1 24  1  0
  2 25  1  0
  2 26  1  0
  4 27  1  0
  4 28  1  0
  5 29  1  0
  5 30  1  0
  5 31  1  0
  7 32  1  0
  8 33  1  0
 10 34  1  0
 10 35  1  0
 11 36  1  0
 12 37  1  0
 12 38  1  0
 13 39  1  0
 13 40  1  0
 15 41  1  0
 16 42  1  0
 17 43  1  0
 18 44  1  0
 20 45  1  0
 21 46  1  0
M  END
>  <UniqueID>  (41) 
38

>  <SMILES>  (41) 
CCN(CC)c1ccc(CNCCc2ccccn2)cc1

>  <Energy>  (41) 
43.12459541427826

>  <Genealogy>  (41) 
CCN(CC)c1ccc(CNCCc2ccccn2)cc1 (3D coordinates assigned)
CCN(CC)c1ccc(CNCCc2ccccn2)cc1 (optimized conformer: 43.12459541427826 kcal/mol)

>  <smiles>  (41) 
CCN(CC)c1ccc(CNCCc2ccccn2)cc1

>  <score_type>  (41) 
oracle

>  <origin>  (41) 
adg

>  <m_score__min__energy>  (41) 
-8.2599999999999998

>  <m_primary>  (41) 
energy

$$$$
41:0
     RDKit          3D

 45 48  0  0  0  0  0  0  0  0999 V2000
   -9.7402   20.3972  -32.6609 H   0  0  0  0  0  0  0  0  0  0  0  0
   -8.9010   21.0040  -32.2900 C   0  0  0  0  0  0  0  0  0  0  0  0
   -4.0500   24.8050  -30.8280 N   0  0  0  0  0  0  0  0  0  0  0  0
   -4.1530   24.1660  -29.6480 C   0  0  0  0  0  0  0  0  0  0  0  0
   -3.4180   24.4080  -28.6030 N   0  0  0  0  0  0  0  0  0  0  0  0
   -4.3850   21.1260  -33.0830 C   0  0  0  0  0  0  0  0  0  0  0  0
   -4.3714   20.3522  -33.8647 H   0  0  0  0  0  0  0  0  0  0  0  0
   -4.6768   22.0944  -33.5155 H   0  0  0  0  0  0  0  0  0  0  0  0
   -3.0100   21.2520  -32.4860 C   0  0  0  0  0  0  0  0  0  0  0  0
   -1.9410   20.4980  -32.9940 C   0  0  0  0  0  0  0  0  0  0  0  0
   -2.1037   19.7944  -33.8238 H   0  0  0  0  0  0  0  0  0  0  0  0
   -0.6700   20.6480  -32.4380 C   0  0  0  0  0  0  0  0  0  0  0  0
    0.1747   20.0603  -32.8268 H   0  0  0  0  0  0  0  0  0  0  0  0
   -0.4730   21.5450  -31.3880 C   0  0  0  0  0  0  0  0  0  0  0  0
    0.5253   21.6694  -30.9431 H   0  0  0  0  0  0  0  0  0  0  0  0
   -1.5560   22.2830  -30.9080 C   0  0  0  0  0  0  0  0  0  0  0  0
   -1.4114   22.9933  -30.0807 H   0  0  0  0  0  0  0  0  0  0  0  0
   -2.7910   22.1270  -31.4600 N   0  0  0  0  0  0  0  0  0  0  0  0
   -3.5830   22.6960  -31.0840 H   0  0  0  0  0  0  0  0  0  0  0  0
   -6.7530   22.5220  -31.3600 C   0  0  0  0  0  0  0  0  0  0  0  0
   -5.6260   23.3500  -30.8650 C   0  0  0  0  0  0  0  0  0  0  0  0
   -4.9870   24.2820  -31.6040 N   0  0  0  0  0  0  0  0  0  0  0  0
   -7.6300   20.5350  -32.3830 N   0  0  0  0  0  0  0  0  0  0  0  0
   -6.5550   21.2470  -31.9410 C   0  0  0  0  0  0  0  0  0  0  0  0
   -5.3550   20.7540  -32.0530 N   0  0  0  0  0  0  0  0  0  0  0  0
   -2.3280   23.6070  -28.1160 C   0  0  0  0  0  0  0  0  0  0  0  0
   -2.5380   22.3250  -27.5720 C   0  0  0  0  0  0  0  0  0  0  0  0
   -3.5546   21.9064  -27.5352 H   0  0  0  0  0  0  0  0  0  0  0  0
   -1.4630   21.5820  -27.0790 C   0  0  0  0  0  0  0  0  0  0  0  0
   -1.6331   20.5762  -26.6674 H   0  0  0  0  0  0  0  0  0  0  0  0
   -0.1740   22.1140  -27.1080 C   0  0  0  0  0  0  0  0  0  0  0  0
    0.6728   21.5228  -26.7294 H   0  0  0  0  0  0  0  0  0  0  0  0
    0.0430   23.3960  -27.6170 C   0  0  0  0  0  0  0  0  0  0  0  0
    1.0600   23.8151  -27.6277 H   0  0  0  0  0  0  0  0  0  0  0  0
   -1.0330   24.1560  -28.1170 C   0  0  0  0  0  0  0  0  0  0  0  0
   -0.8550   25.4510  -28.6290 O   0  0  0  0  0  0  0  0  0  0  0  0
   -0.8060   26.6330  -27.8360 C   0  0  0  0  0  0  0  0  0  0  0  0
   -0.8173   26.3603  -26.7704 H   0  0  0  0  0  0  0  0  0  0  0  0
    0.1159   27.1886  -28.0626 H   0  0  0  0  0  0  0  0  0  0  0  0
   -1.6788   27.2630  -28.0626 H   0  0  0  0  0  0  0  0  0  0  0  0
   -5.1160   23.2790  -29.6570 O   0  0  0  0  0  0  0  0  0  0  0  0
   -8.0680   23.0110  -31.2600 C   0  0  0  0  0  0  0  0  0  0  0  0
   -8.2508   23.9987  -30.8116 H   0  0  0  0  0  0  0  0  0  0  0  0
   -9.1410   22.2530  -31.7250 C   0  0  0  0  0  0  0  0  0  0  0  0
  -10.1683   22.6384  -31.6462 H   0  0  0  0  0  0  0  0  0  0  0  0
  1  2  1  0
  2  3  1  0
  3  4  1  0
  4  5  2  0
  5  6  1  0
  6  7  1  0
  6  8  1  0
  6  9  1  0
  9 10  2  0
 10 11  1  0
 10 12  1  0
 12 13  1  0
 12 14  2  0
 14 15  1  0
 14 16  1  0
 16 17  1  0
 16 18  2  0
 18 19  1  0
  4 20  1  0
 20 21  1  0
 21 22  2  0
 22 23  1  0
 23 24  1  0
 24 25  2  0
 25 26  1  0
 26 27  2  0
 27 28  1  0
 27 29  1  0
 29 30  1  0
 29 31  2  0
 31 32  1  0
 31 33  1  0
 33 34  1  0
 33 35  2  0
 35 36  1  0
 36 37  1  0
 37 38  1  0
 37 39  1  0
 37 40  1  0
 24 41  1  0
 20 42  2  0
 42 43  1  0
 42 44  1  0
 44 45  1  0
 44  2  2  0
 18  9  1  0
 41 21  1  0
 35 26  1  0
M  CHG  3   3  -1  18   1  23  -1
M  END
>  <UniqueID>  (42) 
39

>  <SMILES>  (42) 
COc1ccccc1/N=c1\[n-]nc(-c2ccc[n-]/c2=N\Cc2cccc[nH+]2)o1

>  <Energy>  (42) 
92.23632761765077

>  <Genealogy>  (42) 
COc1ccccc1N=c1[n-]nc(-c2ccc[n-]c2=NCc2cccc[nH+]2)o1 (protonated)
COc1ccccc1/N=c1\[n-]nc(-c2ccc[n-]/c2=N\Cc2cccc[nH+]2)o1 (cis-trans isomerization)
COc1ccccc1/N=c1\[n-]nc(-c2ccc[n-]/c2=N\Cc2cccc[nH+]2)o1 (3D coordinates assigned)
COc1ccccc1/N=c1\[n-]nc(-c2ccc[n-]/c2=N\Cc2cccc[nH+]2)o1 (optimized conformer: 92.23632761765077 kcal/mol)

>  <smiles>  (42) 
COc1ccccc1N=c1[nH]nc(-c2ccc[nH]c2=NCc2ccccn2)o1

>  <score_type>  (42) 
oracle

>  <origin>  (42) 
adg

>  <m_score__min__energy>  (42) 
-9.4399999999999995

>  <m_primary>  (42) 
energy

$$$$
42:0
     RDKit          3D

 51 53  0  0  0  0  0  0  0  0999 V2000
   -5.8650   18.5790  -34.9780 C   0  0  0  0  0  0  0  0  0  0  0  0
   -4.5540   17.7960  -34.8090 C   0  0  0  0  0  0  0  0  0  0  0  0
   -4.1120   17.6050  -33.4030 N   0  0  0  0  0  0  0  0  0  0  0  0
   -2.6730   17.7920  -33.1200 C   0  0  0  0  0  0  0  0  0  0  0  0
   -2.2940   19.2710  -33.1790 C   0  0  0  0  0  0  0  0  0  0  0  0
   -4.7210   16.4480  -32.7120 C   0  0  0  0  0  0  0  0  0  0  0  0
   -6.0430   16.7790  -32.0020 C   0  0  0  0  0  0  0  0  0  0  0  0
   -6.2670   18.2240  -31.9950 N   0  0  0  0  0  0  0  0  0  0  0  0
   -7.5790   18.8000  -31.8900 C   0  0  0  0  0  0  0  0  0  0  0  0
   -8.5930   18.0490  -31.9030 O   0  0  0  0  0  0  0  0  0  0  0  0
   -7.7680   20.2670  -31.7820 C   0  0  0  0  0  0  0  0  0  0  0  0
   -9.0250   20.8330  -32.0560 C   0  0  0  0  0  0  0  0  0  0  0  0
   -9.2180   22.2120  -31.9550 C   0  0  0  0  0  0  0  0  0  0  0  0
   -8.1650   23.0430  -31.5740 C   0  0  0  0  0  0  0  0  0  0  0  0
   -6.9040   22.5000  -31.2830 C   0  0  0  0  0  0  0  0  0  0  0  0
   -5.7970   23.3840  -30.8680 C   0  0  0  0  0  0  0  0  0  0  0  0
   -5.3700   24.4550  -31.5670 N   0  0  0  0  0  0  0  0  0  0  0  0
   -4.3730   24.9810  -30.8730 N   0  0  0  0  0  0  0  0  0  0  0  0
   -4.2270   24.2130  -29.7760 C   0  0  0  0  0  0  0  0  0  0  0  0
   -3.2210   24.4430  -28.7210 C   0  0  0  0  0  0  0  0  0  0  0  0
   -1.8540   24.5340  -29.0410 C   0  0  0  0  0  0  0  0  0  0  0  0
   -0.9080   24.7520  -28.0350 C   0  0  0  0  0  0  0  0  0  0  0  0
   -1.3150   24.8790  -26.7050 C   0  0  0  0  0  0  0  0  0  0  0  0
   -2.6710   24.7880  -26.3780 C   0  0  0  0  0  0  0  0  0  0  0  0
   -3.6220   24.5710  -27.3800 C   0  0  0  0  0  0  0  0  0  0  0  0
   -5.0990   23.2320  -29.7680 O   0  0  0  0  0  0  0  0  0  0  0  0
   -6.7120   21.1110  -31.3850 C   0  0  0  0  0  0  0  0  0  0  0  0
   -6.2758   18.8244  -33.9875 H   0  0  0  0  0  0  0  0  0  0  0  0
   -5.6684   19.5077  -35.5337 H   0  0  0  0  0  0  0  0  0  0  0  0
   -6.5894   17.9655  -35.5337 H   0  0  0  0  0  0  0  0  0  0  0  0
   -4.6892   16.8027  -35.2619 H   0  0  0  0  0  0  0  0  0  0  0  0
   -3.7726   18.3967  -35.2975 H   0  0  0  0  0  0  0  0  0  0  0  0
   -2.4498   17.4027  -32.1157 H   0  0  0  0  0  0  0  0  0  0  0  0
   -2.0917   17.2494  -33.8800 H   0  0  0  0  0  0  0  0  0  0  0  0
   -2.1931   19.6647  -32.1568 H   0  0  0  0  0  0  0  0  0  0  0  0
   -1.3380   19.3836  -33.7113 H   0  0  0  0  0  0  0  0  0  0  0  0
   -3.0781   19.8295  -33.7113 H   0  0  0  0  0  0  0  0  0  0  0  0
   -4.9138   15.6611  -33.4561 H   0  0  0  0  0  0  0  0  0  0  0  0
   -4.0108   16.1265  -31.9360 H   0  0  0  0  0  0  0  0  0  0  0  0
   -6.8722   16.2858  -32.5304 H   0  0  0  0  0  0  0  0  0  0  0  0
   -5.9913   16.4198  -30.9636 H   0  0  0  0  0  0  0  0  0  0  0  0
   -5.4310   18.8420  -32.0880 H   0  0  0  0  0  0  0  0  0  0  0  0
   -9.8628   20.1847  -32.3522 H   0  0  0  0  0  0  0  0  0  0  0  0
  -10.2047   22.6447  -32.1769 H   0  0  0  0  0  0  0  0  0  0  0  0
   -8.3234   24.1291  -31.5012 H   0  0  0  0  0  0  0  0  0  0  0  0
   -1.5283   24.4332  -30.0868 H   0  0  0  0  0  0  0  0  0  0  0  0
    0.1593   24.8237  -28.2915 H   0  0  0  0  0  0  0  0  0  0  0  0
   -0.5688   25.0506  -25.9152 H   0  0  0  0  0  0  0  0  0  0  0  0
   -2.9907   24.8873  -25.3302 H   0  0  0  0  0  0  0  0  0  0  0  0
   -4.6879   24.5002  -27.1177 H   0  0  0  0  0  0  0  0  0  0  0  0
   -5.7275   20.6789  -31.1525 H   0  0  0  0  0  0  0  0  0  0  0  0
  1  2  1  0
  2  3  1  0
  3  4  1  0
  4  5  1  0
  3  6  1  0
  6  7  1  0
  7  8  1  0
  8  9  1  0
  9 10  2  0
  9 11  1  0
 11 12  2  0
 12 13  1  0
 13 14  2  0
 14 15  1  0
 15 16  1  0
 16 17  2  0
 17 18  1  0
 18 19  2  0
 19 20  1  0
 20 21  2  0
 21 22  1  0
 22 23  2  0
 23 24  1  0
 24 25  2  0
 19 26  1  0
 15 27  2  0
 27 11  1  0
 26 16  1  0
 25 20  1  0
  1 28  1  0
  1 29  1  0
  1 30  1  0
  2 31  1  0
  2 32  1  0
  4 33  1  0
  4 34  1  0
  5 35  1  0
  5 36  1  0
  5 37  1  0
  6 38  1  0
  6 39  1  0
  7 40  1  0
  7 41  1  0
  8 42  1  0
 12 43  1  0
 13 44  1  0
 14 45  1  0
 21 46  1  0
 22 47  1  0
 23 48  1  0
 24 49  1  0
 25 50  1  0
 27 51  1  0
M  END
>  <UniqueID>  (43) 
40

>  <SMILES>  (43) 
CCN(CC)CCNC(=O)c1cccc(-c2nnc(-c3ccccc3)o2)c1

>  <Energy>  (43) 
92.83007125470549

>  <Genealogy>  (43) 
CCN(CC)CCNC(=O)c1cccc(-c2nnc(-c3ccccc3)o2)c1 (3D coordinates assigned)
CCN(CC)CCNC(=O)c1cccc(-c2nnc(-c3ccccc3)o2)c1 (optimized conformer: 92.83007125470549 kcal/mol)

>  <smiles>  (43) 
CCN(CC)CCNC(=O)c1cccc(-c2nnc(-c3ccccc3)o2)c1

>  <score_type>  (43) 
oracle

>  <origin>  (43) 
adg

>  <m_score__min__energy>  (43) 
-8.5899999999999999

>  <m_primary>  (43) 
energy

$$$$
43:0
     RDKit          3D

 58 61  0  0  0  0  0  0  0  0999 V2000
   -4.2120   23.9920  -27.9900 C   0  0  0  0  0  0  0  0  0  0  0  0
   -2.8140   24.2630  -28.0050 O   0  0  0  0  0  0  0  0  0  0  0  0
   -2.0080   24.3610  -26.8590 C   0  0  0  0  0  0  0  0  0  0  0  0
   -1.9960   25.5160  -26.0520 C   0  0  0  0  0  0  0  0  0  0  0  0
   -1.1590   25.5910  -24.9370 C   0  0  0  0  0  0  0  0  0  0  0  0
   -0.3260   24.5200  -24.6130 C   0  0  0  0  0  0  0  0  0  0  0  0
   -0.3300   23.3670  -25.4010 C   0  0  0  0  0  0  0  0  0  0  0  0
   -1.1740   23.2740  -26.5200 C   0  0  0  0  0  0  0  0  0  0  0  0
   -1.1690   22.0810  -27.3260 N   0  0  0  0  0  0  0  0  0  0  0  0
   -2.3410   21.2020  -27.3650 C   0  0  0  0  0  0  0  0  0  0  0  0
   -2.6940   20.8240  -28.8190 C   0  0  0  0  0  0  0  0  0  0  0  0
   -1.5390   20.8700  -29.7560 N   0  0  0  0  0  0  0  0  0  0  0  0
   -1.5000   22.1210  -30.5480 C   0  0  0  0  0  0  0  0  0  0  0  0
   -2.1650   21.9200  -31.9170 C   0  0  0  0  0  0  0  0  0  0  0  0
   -3.6380   21.9820  -31.8060 N   0  0  0  0  0  0  0  0  0  0  0  0
   -4.4430   20.9430  -32.2640 C   0  0  0  0  0  0  0  0  0  0  0  0
   -3.7650   19.4250  -32.9550 S   0  0  0  0  0  0  0  0  0  0  0  0
   -5.3020   19.0010  -33.8320 C   0  0  0  0  0  0  0  0  0  0  0  0
   -5.8060   21.0390  -32.2020 N   0  0  0  0  0  0  0  0  0  0  0  0
   -6.3520   22.1530  -31.6760 C   0  0  0  0  0  0  0  0  0  0  0  0
   -7.6670   22.5170  -31.5040 C   0  0  0  0  0  0  0  0  0  0  0  0
   -8.8750   21.7490  -31.9280 C   0  0  0  0  0  0  0  0  0  0  0  0
   -7.6940   23.7600  -30.9630 N   0  0  0  0  0  0  0  0  0  0  0  0
   -6.4370   24.1550  -30.7800 N   0  0  0  0  0  0  0  0  0  0  0  0
   -6.0670   25.4530  -30.2270 C   0  0  0  0  0  0  0  0  0  0  0  0
   -5.6090   23.1810  -31.2150 C   0  0  0  0  0  0  0  0  0  0  0  0
   -4.2210   23.1150  -31.2750 C   0  0  0  0  0  0  0  0  0  0  0  0
   -3.5200   24.0770  -30.8540 O   0  0  0  0  0  0  0  0  0  0  0  0
   -0.2550   20.5990  -29.0770 C   0  0  0  0  0  0  0  0  0  0  0  0
    0.0560   21.6680  -28.0160 C   0  0  0  0  0  0  0  0  0  0  0  0
   -4.5612   23.9243  -26.9491 H   0  0  0  0  0  0  0  0  0  0  0  0
   -4.7482   24.8029  -28.5047 H   0  0  0  0  0  0  0  0  0  0  0  0
   -4.4064   23.0395  -28.5047 H   0  0  0  0  0  0  0  0  0  0  0  0
   -2.6503   26.3641  -26.3021 H   0  0  0  0  0  0  0  0  0  0  0  0
   -1.1564   26.4966  -24.3127 H   0  0  0  0  0  0  0  0  0  0  0  0
    0.3347   24.5837  -23.7359 H   0  0  0  0  0  0  0  0  0  0  0  0
    0.3317   22.5267  -25.1439 H   0  0  0  0  0  0  0  0  0  0  0  0
   -2.1236   20.2856  -26.7967 H   0  0  0  0  0  0  0  0  0  0  0  0
   -3.1956   21.7338  -26.9214 H   0  0  0  0  0  0  0  0  0  0  0  0
   -3.1002   19.8018  -28.8213 H   0  0  0  0  0  0  0  0  0  0  0  0
   -3.4201   21.5704  -29.1735 H   0  0  0  0  0  0  0  0  0  0  0  0
   -2.0339   22.9115  -30.0002 H   0  0  0  0  0  0  0  0  0  0  0  0
   -0.4494   22.4067  -30.7047 H   0  0  0  0  0  0  0  0  0  0  0  0
   -1.8226   22.7093  -32.6024 H   0  0  0  0  0  0  0  0  0  0  0  0
   -1.8844   20.9278  -32.3001 H   0  0  0  0  0  0  0  0  0  0  0  0
   -6.0935   18.7826  -33.1000 H   0  0  0  0  0  0  0  0  0  0  0  0
   -5.6096   19.8478  -34.4631 H   0  0  0  0  0  0  0  0  0  0  0  0
   -5.1319   18.1162  -34.4631 H   0  0  0  0  0  0  0  0  0  0  0  0
   -9.4202   21.4024  -31.0377 H   0  0  0  0  0  0  0  0  0  0  0  0
   -9.5293   22.3973  -32.5293 H   0  0  0  0  0  0  0  0  0  0  0  0
   -8.5655   20.8815  -32.5293 H   0  0  0  0  0  0  0  0  0  0  0  0
   -6.0818   25.4012  -29.1283 H   0  0  0  0  0  0  0  0  0  0  0  0
   -5.0564   25.7221  -30.5678 H   0  0  0  0  0  0  0  0  0  0  0  0
   -6.7838   26.2146  -30.5678 H   0  0  0  0  0  0  0  0  0  0  0  0
   -0.3094   19.6150  -28.5883 H   0  0  0  0  0  0  0  0  0  0  0  0
    0.5456   20.6169  -29.8311 H   0  0  0  0  0  0  0  0  0  0  0  0
    0.7625   21.2538  -27.2817 H   0  0  0  0  0  0  0  0  0  0  0  0
    0.4955   22.5448  -28.5140 H   0  0  0  0  0  0  0  0  0  0  0  0
  1  2  1  0
  2  3  1  0
  3  4  2  0
  4  5  1  0
  5  6  2  0
  6  7  1  0
  7  8  2  0
  8  9  1  0
  9 10  1  0
 10 11  1  0
 11 12  1  0
 12 13  1  0
 13 14  1  0
 14 15  1  0
 15 16  1  0
 16 17  1  0
 17 18  1  0
 16 19  2  0
 19 20  1  0
 20 21  1  0
 21 22  1  0
 21 23  2  0
 23 24  1  0
 24 25  1  0
 24 26  1  0
 26 27  1  0
 27 28  2  0
 12 29  1  0
 29 30  1  0
  8  3  1  0
 30  9  1  0
 27 15  1  0
 26 20  2  0
  1 31  1  0
  1 32  1  0
  1 33  1  0
  4 34  1  0
  5 35  1  0
  6 36  1  0
  7 37  1  0
 10 38  1  0
 10 39  1  0
 11 40  1  0
 11 41  1  0
 13 42  1  0
 13 43  1  0
 14 44  1  0
 14 45  1  0
 18 46  1  0
 18 47  1  0
 18 48  1  0
 22 49  1  0
 22 50  1  0
 22 51  1  0
 25 52  1  0
 25 53  1  0
 25 54  1  0
 29 55  1  0
 29 56  1  0
 30 57  1  0
 30 58  1  0
M  END
>  <UniqueID>  (44) 
41

>  <SMILES>  (44) 
COc1ccccc1N1CCN(CCn2c(SC)nc3c(C)nn(C)c3c2=O)CC1

>  <Energy>  (44) 
111.85697992982776

>  <Genealogy>  (44) 
COc1ccccc1N1CCN(CCn2c(SC)nc3c(C)nn(C)c3c2=O)CC1 (3D coordinates assigned)
COc1ccccc1N1CCN(CCn2c(SC)nc3c(C)nn(C)c3c2=O)CC1 (nonaromatic ring conformer: 111.85697992982776 kcal/mol)

>  <smiles>  (44) 
COc1ccccc1N1CCN(CCn2c(SC)nc3c(C)nn(C)c3c2=O)CC1

>  <score_type>  (44) 
oracle

>  <origin>  (44) 
adg

>  <m_score__min__energy>  (44) 
-8.6999999999999993

>  <m_primary>  (44) 
energy

$$$$
44:0
     RDKit          3D

 39 41  0  0  0  0  0  0  0  0999 V2000
   -6.4040   16.8810  -34.2070 C   0  0  0  0  0  0  0  0  0  0  0  0
   -6.8630   17.0920  -32.7640 C   0  0  0  0  0  0  0  0  0  0  0  0
   -7.0330   18.5280  -32.4580 N   0  0  0  0  0  0  0  0  0  0  0  0
   -8.4690   18.9040  -32.3790 C   0  0  0  0  0  0  0  0  0  0  0  0
   -8.7310   20.4070  -32.6180 C   0  0  0  0  0  0  0  0  0  0  0  0
   -7.5310   21.2100  -32.3600 N   0  0  0  0  0  0  0  0  0  0  0  0
   -7.6760   22.5540  -31.8720 C   0  0  0  0  0  0  0  0  0  0  0  0
   -8.6230   23.2690  -32.2980 O   0  0  0  0  0  0  0  0  0  0  0  0
   -6.7400   23.1100  -30.8700 C   0  0  0  0  0  0  0  0  0  0  0  0
   -6.8710   24.4440  -30.4420 C   0  0  0  0  0  0  0  0  0  0  0  0
   -5.9990   24.9740  -29.4860 C   0  0  0  0  0  0  0  0  0  0  0  0
   -4.9880   24.1730  -28.9370 C   0  0  0  0  0  0  0  0  0  0  0  0
   -4.1260   24.6680  -28.0040 N   0  0  0  0  0  0  0  0  0  0  0  0
   -3.1500   23.8850  -27.4690 C   0  0  0  0  0  0  0  0  0  0  0  0
   -3.0290   22.5550  -27.8780 C   0  0  0  0  0  0  0  0  0  0  0  0
   -3.8850   22.0560  -28.8080 N   0  0  0  0  0  0  0  0  0  0  0  0
   -4.8610   22.8310  -29.3490 C   0  0  0  0  0  0  0  0  0  0  0  0
   -5.7360   22.3020  -30.3050 C   0  0  0  0  0  0  0  0  0  0  0  0
   -6.2450   20.7920  -32.9330 C   0  0  0  0  0  0  0  0  0  0  0  0
   -6.3170   19.3530  -33.4470 C   0  0  0  0  0  0  0  0  0  0  0  0
   -5.4045   16.4216  -34.2104 H   0  0  0  0  0  0  0  0  0  0  0  0
   -7.1137   16.2188  -34.7244 H   0  0  0  0  0  0  0  0  0  0  0  0
   -6.3635   17.8509  -34.7244 H   0  0  0  0  0  0  0  0  0  0  0  0
   -7.8240   16.5779  -32.6151 H   0  0  0  0  0  0  0  0  0  0  0  0
   -6.0940   16.6830  -32.0922 H   0  0  0  0  0  0  0  0  0  0  0  0
   -9.0205   18.3303  -33.1384 H   0  0  0  0  0  0  0  0  0  0  0  0
   -8.8049   18.6777  -31.3563 H   0  0  0  0  0  0  0  0  0  0  0  0
   -9.0414   20.5539  -33.6630 H   0  0  0  0  0  0  0  0  0  0  0  0
   -9.5203   20.7340  -31.9252 H   0  0  0  0  0  0  0  0  0  0  0  0
   -7.6668   25.0758  -30.8634 H   0  0  0  0  0  0  0  0  0  0  0  0
   -6.1064   26.0204  -29.1644 H   0  0  0  0  0  0  0  0  0  0  0  0
   -4.2040   25.6610  -27.6850 H   0  0  0  0  0  0  0  0  0  0  0  0
   -2.4599   24.2974  -26.7183 H   0  0  0  0  0  0  0  0  0  0  0  0
   -2.2443   21.9143  -27.4492 H   0  0  0  0  0  0  0  0  0  0  0  0
   -5.6384   21.2513  -30.6156 H   0  0  0  0  0  0  0  0  0  0  0  0
   -5.9890   21.4602  -33.7684 H   0  0  0  0  0  0  0  0  0  0  0  0
   -5.4767   20.8461  -32.1476 H   0  0  0  0  0  0  0  0  0  0  0  0
   -6.8553   19.3300  -34.4060 H   0  0  0  0  0  0  0  0  0  0  0  0
   -5.3007   18.9590  -33.5952 H   0  0  0  0  0  0  0  0  0  0  0  0
  1  2  1  0
  2  3  1  0
  3  4  1  0
  4  5  1  0
  5  6  1  0
  6  7  1  0
  7  8  2  0
  7  9  1  0
  9 10  2  0
 10 11  1  0
 11 12  2  0
 12 13  1  0
 13 14  2  0
 14 15  1  0
 15 16  2  0
 16 17  1  0
 17 18  2  0
  6 19  1  0
 19 20  1  0
 20  3  1  0
 18  9  1  0
 17 12  1  0
  1 21  1  0
  1 22  1  0
  1 23  1  0
  2 24  1  0
  2 25  1  0
  4 26  1  0
  4 27  1  0
  5 28  1  0
  5 29  1  0
 10 30  1  0
 11 31  1  0
 13 32  1  0
 14 33  1  0
 15 34  1  0
 18 35  1  0
 19 36  1  0
 19 37  1  0
 20 38  1  0
 20 39  1  0
M  CHG  1  13   1
M  END
>  <UniqueID>  (45) 
42

>  <SMILES>  (45) 
CCN1CCN(C(=O)c2ccc3[nH+]ccnc3c2)CC1

>  <Energy>  (45) 
52.78020476033079

>  <Genealogy>  (45) 
CCN1CCN(C(=O)c2ccc3[nH+]ccnc3c2)CC1 (protonated)
CCN1CCN(C(=O)c2ccc3[nH+]ccnc3c2)CC1 (3D coordinates assigned)
CCN1CCN(C(=O)c2ccc3[nH+]ccnc3c2)CC1 (nonaromatic ring conformer: 52.78020476033079 kcal/mol)

>  <smiles>  (45) 
CCN1CCN(C(=O)c2ccc3nccnc3c2)CC1

>  <score_type>  (45) 
oracle

>  <origin>  (45) 
adg

>  <m_score__min__energy>  (45) 
-6.9500000000000002

>  <m_primary>  (45) 
energy

$$$$
45:0
     RDKit          3D

 57 60  0  0  0  0  0  0  0  0999 V2000
    1.8420   24.8400  -24.6390 C   0  0  0  0  0  0  0  0  0  0  0  0
    0.5290   25.2740  -24.1210 N   0  0  0  0  0  0  0  0  0  0  0  0
   -0.4880   24.2590  -24.4500 C   0  0  0  0  0  0  0  0  0  0  0  0
    0.1360   26.5910  -24.6830 C   0  0  0  0  0  0  0  0  0  0  0  0
   -0.8150   26.4500  -25.8850 C   0  0  0  0  0  0  0  0  0  0  0  0
   -0.0490   26.5600  -27.2070 C   0  0  0  0  0  0  0  0  0  0  0  0
    0.1890   25.2640  -27.7580 O   0  0  0  0  0  0  0  0  0  0  0  0
   -0.7530   24.4870  -28.4530 C   0  0  0  0  0  0  0  0  0  0  0  0
   -0.3980   23.3570  -29.2170 C   0  0  0  0  0  0  0  0  0  0  0  0
   -1.3760   22.6360  -29.9080 C   0  0  0  0  0  0  0  0  0  0  0  0
   -2.7240   23.0230  -29.8460 C   0  0  0  0  0  0  0  0  0  0  0  0
   -3.7480   22.2730  -30.5990 C   0  0  0  0  0  0  0  0  0  0  0  0
   -5.0690   22.5540  -30.5560 N   0  0  0  0  0  0  0  0  0  0  0  0
   -5.6160   21.6440  -31.3840 C   0  0  0  0  0  0  0  0  0  0  0  0
   -7.0760   21.5140  -31.5780 C   0  0  0  0  0  0  0  0  0  0  0  0
   -7.6700   20.2400  -31.5730 C   0  0  0  0  0  0  0  0  0  0  0  0
   -9.0470   20.1020  -31.7700 C   0  0  0  0  0  0  0  0  0  0  0  0
   -9.8410   21.2320  -31.9890 C   0  0  0  0  0  0  0  0  0  0  0  0
   -9.2560   22.5010  -32.0200 C   0  0  0  0  0  0  0  0  0  0  0  0
   -7.8790   22.6430  -31.8230 C   0  0  0  0  0  0  0  0  0  0  0  0
   -4.6040   20.8550  -31.9130 C   0  0  0  0  0  0  0  0  0  0  0  0
   -4.6960   19.7750  -32.9160 C   0  0  0  0  0  0  0  0  0  0  0  0
   -3.6620   18.8310  -33.0150 C   0  0  0  0  0  0  0  0  0  0  0  0
   -3.7250   17.8150  -33.9730 C   0  0  0  0  0  0  0  0  0  0  0  0
   -4.8100   17.7460  -34.8510 C   0  0  0  0  0  0  0  0  0  0  0  0
   -5.8310   18.6950  -34.7760 C   0  0  0  0  0  0  0  0  0  0  0  0
   -5.7720   19.7120  -33.8170 C   0  0  0  0  0  0  0  0  0  0  0  0
   -3.4730   21.2640  -31.3960 O   0  0  0  0  0  0  0  0  0  0  0  0
   -3.0770   24.1420  -29.0750 C   0  0  0  0  0  0  0  0  0  0  0  0
   -2.0990   24.8650  -28.3860 C   0  0  0  0  0  0  0  0  0  0  0  0
    2.5134   24.6181  -23.7964 H   0  0  0  0  0  0  0  0  0  0  0  0
    1.7134   23.9366  -25.2532 H   0  0  0  0  0  0  0  0  0  0  0  0
    2.2772   25.6421  -25.2532 H   0  0  0  0  0  0  0  0  0  0  0  0
    0.5880   25.3380  -23.0770 H   0  0  0  0  0  0  0  0  0  0  0  0
   -0.9048   23.8430  -23.5209 H   0  0  0  0  0  0  0  0  0  0  0  0
   -1.2935   24.7240  -25.0373 H   0  0  0  0  0  0  0  0  0  0  0  0
   -0.0246   23.4526  -25.0373 H   0  0  0  0  0  0  0  0  0  0  0  0
   -0.3685   27.1745  -23.8987 H   0  0  0  0  0  0  0  0  0  0  0  0
    1.0492   27.0951  -25.0323 H   0  0  0  0  0  0  0  0  0  0  0  0
   -1.3117   25.4697  -25.8376 H   0  0  0  0  0  0  0  0  0  0  0  0
   -1.5572   27.2607  -25.8416 H   0  0  0  0  0  0  0  0  0  0  0  0
   -0.6409   27.1530  -27.9198 H   0  0  0  0  0  0  0  0  0  0  0  0
    0.9182   27.0485  -27.0175 H   0  0  0  0  0  0  0  0  0  0  0  0
    0.6543   23.0408  -29.2697 H   0  0  0  0  0  0  0  0  0  0  0  0
   -1.0871   21.7585  -30.5051 H   0  0  0  0  0  0  0  0  0  0  0  0
   -7.0480   19.3469  -31.4132 H   0  0  0  0  0  0  0  0  0  0  0  0
   -9.5067   19.1028  -31.7527 H   0  0  0  0  0  0  0  0  0  0  0  0
  -10.9255   21.1223  -32.1368 H   0  0  0  0  0  0  0  0  0  0  0  0
   -9.8797   23.3891  -32.1996 H   0  0  0  0  0  0  0  0  0  0  0  0
   -7.4212   23.6425  -31.8598 H   0  0  0  0  0  0  0  0  0  0  0  0
   -2.7986   18.8909  -32.3360 H   0  0  0  0  0  0  0  0  0  0  0  0
   -2.9193   17.0687  -34.0358 H   0  0  0  0  0  0  0  0  0  0  0  0
   -4.8595   16.9434  -35.6016 H   0  0  0  0  0  0  0  0  0  0  0  0
   -6.6821   18.6432  -35.4710 H   0  0  0  0  0  0  0  0  0  0  0  0
   -6.5718   20.4657  -33.7683 H   0  0  0  0  0  0  0  0  0  0  0  0
   -4.1306   24.4519  -29.0127 H   0  0  0  0  0  0  0  0  0  0  0  0
   -2.3900   25.7394  -27.7854 H   0  0  0  0  0  0  0  0  0  0  0  0
  1  2  1  0
  2  3  1  0
  2  4  1  0
  4  5  1  0
  5  6  1  0
  6  7  1  0
  7  8  1  0
  8  9  2  0
  9 10  1  0
 10 11  2  0
 11 12  1  0
 12 13  2  0
 13 14  1  0
 14 15  1  0
 15 16  2  0
 16 17  1  0
 17 18  2  0
 18 19  1  0
 19 20  2  0
 14 21  2  0
 21 22  1  0
 22 23  2  0
 23 24  1  0
 24 25  2  0
 25 26  1  0
 26 27  2  0
 21 28  1  0
 11 29  1  0
 29 30  2  0
 30  8  1  0
 28 12  1  0
 20 15  1  0
 27 22  1  0
  1 31  1  0
  1 32  1  0
  1 33  1  0
  2 34  1  0
  3 35  1  0
  3 36  1  0
  3 37  1  0
  4 38  1  0
  4 39  1  0
  5 40  1  0
  5 41  1  0
  6 42  1  0
  6 43  1  0
  9 44  1  0
 10 45  1  0
 16 46  1  0
 17 47  1  0
 18 48  1  0
 19 49  1  0
 20 50  1  0
 23 51  1  0
 24 52  1  0
 25 53  1  0
 26 54  1  0
 27 55  1  0
 29 56  1  0
 30 57  1  0
M  CHG  1   2   1
M  END
>  <UniqueID>  (46) 
43

>  <SMILES>  (46) 
C[NH+](C)CCCOc1ccc(-c2nc(-c3ccccc3)c(-c3ccccc3)o2)cc1

>  <Energy>  (46) 
96.76198930043763

>  <Genealogy>  (46) 
C[NH+](C)CCCOc1ccc(-c2nc(-c3ccccc3)c(-c3ccccc3)o2)cc1 (protonated)
C[NH+](C)CCCOc1ccc(-c2nc(-c3ccccc3)c(-c3ccccc3)o2)cc1 (3D coordinates assigned)
C[NH+](C)CCCOc1ccc(-c2nc(-c3ccccc3)c(-c3ccccc3)o2)cc1 (optimized conformer: 96.76198930043763 kcal/mol)

>  <smiles>  (46) 
CN(C)CCCOc1ccc(-c2nc(-c3ccccc3)c(-c3ccccc3)o2)cc1

>  <score_type>  (46) 
oracle

>  <origin>  (46) 
adg

>  <m_score__min__energy>  (46) 
-9.1500000000000004

>  <m_primary>  (46) 
energy

$$$$
46:0
     RDKit          3D

 76 79  0  0  0  0  0  0  0  0999 V2000
   -8.8840   21.4220  -31.5780 C   0  0  0  0  0  0  0  0  0  0  0  0
   -7.8150   21.2760  -32.5070 O   0  0  0  0  0  0  0  0  0  0  0  0
   -6.5070   21.7420  -32.2920 C   0  0  0  0  0  0  0  0  0  0  0  0
   -6.2350   22.9730  -31.6680 C   0  0  0  0  0  0  0  0  0  0  0  0
   -4.9070   23.3910  -31.4670 C   0  0  0  0  0  0  0  0  0  0  0  0
   -4.5860   24.6080  -30.8480 O   0  0  0  0  0  0  0  0  0  0  0  0
   -5.4910   25.3830  -30.0690 C   0  0  0  0  0  0  0  0  0  0  0  0
   -3.8570   22.5720  -31.8940 C   0  0  0  0  0  0  0  0  0  0  0  0
   -4.1110   21.3420  -32.5290 C   0  0  0  0  0  0  0  0  0  0  0  0
   -3.0180   20.4990  -32.9660 N   0  0  0  0  0  0  0  0  0  0  0  0
   -1.7030   20.5890  -32.3060 C   0  0  0  0  0  0  0  0  0  0  0  0
   -1.7580   20.0520  -30.8550 C   0  0  0  0  0  0  0  0  0  0  0  0
   -1.5730   21.0930  -29.8130 N   0  0  0  0  0  0  0  0  0  0  0  0
   -2.8150   21.3600  -29.0540 C   0  0  0  0  0  0  0  0  0  0  0  0
   -2.5150   22.2740  -27.8620 C   0  0  0  0  0  0  0  0  0  0  0  0
   -1.7200   23.4340  -28.2860 N   0  0  0  0  0  0  0  0  0  0  0  0
   -1.5140   24.5130  -27.3580 C   0  0  0  0  0  0  0  0  0  0  0  0
   -2.5550   24.9030  -26.5020 C   0  0  0  0  0  0  0  0  0  0  0  0
   -2.3620   25.9320  -25.5790 C   0  0  0  0  0  0  0  0  0  0  0  0
   -1.1300   26.5810  -25.5040 C   0  0  0  0  0  0  0  0  0  0  0  0
   -0.0900   26.2110  -26.3590 C   0  0  0  0  0  0  0  0  0  0  0  0
   -0.2730   25.1760  -27.2960 C   0  0  0  0  0  0  0  0  0  0  0  0
    0.7430   24.7940  -28.1870 O   0  0  0  0  0  0  0  0  0  0  0  0
    2.0910   24.5320  -27.8110 C   0  0  0  0  0  0  0  0  0  0  0  0
   -1.4200   23.6320  -29.7080 C   0  0  0  0  0  0  0  0  0  0  0  0
   -0.9260   22.3230  -30.3560 C   0  0  0  0  0  0  0  0  0  0  0  0
   -3.1960   19.5880  -34.1090 C   0  0  0  0  0  0  0  0  0  0  0  0
   -2.9520   18.1640  -33.7080 C   0  0  0  0  0  0  0  0  0  0  0  0
   -2.4730   17.9100  -32.5680 O   0  0  0  0  0  0  0  0  0  0  0  0
   -3.2640   17.1010  -34.6150 N   0  0  0  0  0  0  0  0  0  0  0  0
   -4.5280   16.3730  -34.5980 C   0  0  0  0  0  0  0  0  0  0  0  0
   -5.4440   16.9420  -33.5480 C   0  0  0  0  0  0  0  0  0  0  0  0
   -6.4640   17.8350  -33.9180 C   0  0  0  0  0  0  0  0  0  0  0  0
   -7.3070   18.3840  -32.9470 C   0  0  0  0  0  0  0  0  0  0  0  0
   -7.1370   18.0480  -31.6010 C   0  0  0  0  0  0  0  0  0  0  0  0
   -6.1220   17.1640  -31.2240 C   0  0  0  0  0  0  0  0  0  0  0  0
   -5.2750   16.6140  -32.1920 C   0  0  0  0  0  0  0  0  0  0  0  0
   -5.4430   20.9390  -32.7160 C   0  0  0  0  0  0  0  0  0  0  0  0
   -8.4888   21.3680  -30.5529 H   0  0  0  0  0  0  0  0  0  0  0  0
   -9.3730   22.3953  -31.7317 H   0  0  0  0  0  0  0  0  0  0  0  0
   -9.6161   20.6155  -31.7317 H   0  0  0  0  0  0  0  0  0  0  0  0
   -7.0658   23.6126  -31.3352 H   0  0  0  0  0  0  0  0  0  0  0  0
   -5.2930   25.2135  -29.0003 H   0  0  0  0  0  0  0  0  0  0  0  0
   -5.3554   26.4494  -30.3024 H   0  0  0  0  0  0  0  0  0  0  0  0
   -6.5238   25.0850  -30.3024 H   0  0  0  0  0  0  0  0  0  0  0  0
   -2.8178   22.8937  -31.7312 H   0  0  0  0  0  0  0  0  0  0  0  0
   -0.9743   19.9967  -32.8789 H   0  0  0  0  0  0  0  0  0  0  0  0
   -1.4064   21.6477  -32.2710 H   0  0  0  0  0  0  0  0  0  0  0  0
   -2.7387   19.5787  -30.6994 H   0  0  0  0  0  0  0  0  0  0  0  0
   -0.9217   19.3455  -30.7477 H   0  0  0  0  0  0  0  0  0  0  0  0
   -0.8970   20.6780  -29.1260 H   0  0  0  0  0  0  0  0  0  0  0  0
   -3.5466   21.8498  -29.7134 H   0  0  0  0  0  0  0  0  0  0  0  0
   -3.2239   20.4079  -28.6847 H   0  0  0  0  0  0  0  0  0  0  0  0
   -3.4630   22.6248  -27.4281 H   0  0  0  0  0  0  0  0  0  0  0  0
   -1.9414   21.7054  -27.1152 H   0  0  0  0  0  0  0  0  0  0  0  0
   -3.5289   24.3948  -26.5587 H   0  0  0  0  0  0  0  0  0  0  0  0
   -3.1824   26.2313  -24.9102 H   0  0  0  0  0  0  0  0  0  0  0  0
   -0.9772   27.3859  -24.7699 H   0  0  0  0  0  0  0  0  0  0  0  0
    0.8776   26.7309  -26.3003 H   0  0  0  0  0  0  0  0  0  0  0  0
    2.1693   24.5168  -26.7139 H   0  0  0  0  0  0  0  0  0  0  0  0
    2.4012   23.5568  -28.2143 H   0  0  0  0  0  0  0  0  0  0  0  0
    2.7439   25.3200  -28.2143 H   0  0  0  0  0  0  0  0  0  0  0  0
   -2.3314   23.9675  -30.2246 H   0  0  0  0  0  0  0  0  0  0  0  0
   -0.6262   24.3883  -29.7967 H   0  0  0  0  0  0  0  0  0  0  0  0
   -1.1307   22.3732  -31.4356 H   0  0  0  0  0  0  0  0  0  0  0  0
    0.1477   22.2428  -30.1307 H   0  0  0  0  0  0  0  0  0  0  0  0
   -4.2244   19.6834  -34.4875 H   0  0  0  0  0  0  0  0  0  0  0  0
   -2.4698   19.8604  -34.8890 H   0  0  0  0  0  0  0  0  0  0  0  0
   -5.0089   16.4577  -35.5837 H   0  0  0  0  0  0  0  0  0  0  0  0
   -4.3294   15.3164  -34.3653 H   0  0  0  0  0  0  0  0  0  0  0  0
   -6.5998   18.1033  -34.9761 H   0  0  0  0  0  0  0  0  0  0  0  0
   -8.1049   19.0811  -33.2427 H   0  0  0  0  0  0  0  0  0  0  0  0
   -7.8020   18.4793  -30.8383 H   0  0  0  0  0  0  0  0  0  0  0  0
   -5.9890   16.9004  -30.1644 H   0  0  0  0  0  0  0  0  0  0  0  0
   -4.4742   15.9226  -31.8908 H   0  0  0  0  0  0  0  0  0  0  0  0
   -5.6533   19.9759  -33.2040 H   0  0  0  0  0  0  0  0  0  0  0  0
  1  2  1  0
  2  3  1  0
  3  4  2  0
  4  5  1  0
  5  6  1  0
  6  7  1  0
  5  8  2  0
  8  9  1  0
  9 10  1  0
 10 11  1  0
 11 12  1  0
 12 13  1  0
 13 14  1  0
 14 15  1  0
 15 16  1  0
 16 17  1  0
 17 18  2  0
 18 19  1  0
 19 20  2  0
 20 21  1  0
 21 22  2  0
 22 23  1  0
 23 24  1  0
 16 25  1  0
 25 26  1  0
 10 27  1  0
 27 28  1  0
 28 29  2  0
 28 30  1  0
 30 31  1  0
 31 32  1  0
 32 33  2  0
 33 34  1  0
 34 35  2  0
 35 36  1  0
 36 37  2  0
  9 38  2  0
 38  3  1  0
 26 13  1  0
 37 32  1  0
 22 17  1  0
  1 39  1  0
  1 40  1  0
  1 41  1  0
  4 42  1  0
  7 43  1  0
  7 44  1  0
  7 45  1  0
  8 46  1  0
 11 47  1  0
 11 48  1  0
 12 49  1  0
 12 50  1  0
 13 51  1  0
 14 52  1  0
 14 53  1  0
 15 54  1  0
 15 55  1  0
 18 56  1  0
 19 57  1  0
 20 58  1  0
 21 59  1  0
 24 60  1  0
 24 61  1  0
 24 62  1  0
 25 63  1  0
 25 64  1  0
 26 65  1  0
 26 66  1  0
 27 67  1  0
 27 68  1  0
 31 69  1  0
 31 70  1  0
 33 71  1  0
 34 72  1  0
 35 73  1  0
 36 74  1  0
 37 75  1  0
 38 76  1  0
M  CHG  2  13   1  30  -1
M  END
>  <UniqueID>  (47) 
44

>  <SMILES>  (47) 
COc1cc(OC)cc(N(CC[NH+]2CCN(c3ccccc3OC)CC2)CC(=O)[N-]Cc2ccccc2)c1

>  <Energy>  (47) 
90.72076724297324

>  <Genealogy>  (47) 
COc1cc(OC)cc(N(CC[NH+]2CCN(c3ccccc3OC)CC2)CC(=O)[N-]Cc2ccccc2)c1 (protonated)
COc1cc(OC)cc(N(CC[NH+]2CCN(c3ccccc3OC)CC2)CC(=O)[N-]Cc2ccccc2)c1 (3D coordinates assigned)
COc1cc(OC)cc(N(CC[NH+]2CCN(c3ccccc3OC)CC2)CC(=O)[N-]Cc2ccccc2)c1 (nonaromatic ring conformer: 90.72076724297324 kcal/mol)

>  <smiles>  (47) 
COc1cc(OC)cc(N(CCN2CCN(c3ccccc3OC)CC2)CC(=O)NCc2ccccc2)c1

>  <score_type>  (47) 
oracle

>  <origin>  (47) 
adg

>  <m_score__min__energy>  (47) 
-10.07

>  <m_primary>  (47) 
energy

$$$$
