0:0
     RDKit          3D

 44 46  0  0  0  0  0  0  0  0999 V2000
   -3.1150   18.9890  -26.6620 C   0  0  0  0  0  0  0  0  0  0  0  0
   -2.2350   19.9660  -27.4340 C   0  0  0  0  0  0  0  0  0  0  0  0
   -3.0140   20.7090  -28.3520 O   0  0  0  0  0  0  0  0  0  0  0  0
   -3.2420   22.0160  -27.8690 C   0  0  0  0  0  0  0  0  0  0  0  0
   -2.1030   22.9240  -28.3340 C   0  0  0  0  0  0  0  0  0  0  0  0
   -2.5000   24.4070  -28.3310 C   0  0  0  0  0  0  0  0  0  0  0  0
   -2.7340   24.9090  -29.6850 N   0  0  0  0  0  0  0  0  0  0  0  0
   -3.9040   24.6770  -30.4800 C   0  0  0  0  0  0  0  0  0  0  0  0
   -4.6280   25.6580  -30.7920 O   0  0  0  0  0  0  0  0  0  0  0  0
   -4.2750   23.3330  -30.9640 C   0  0  0  0  0  0  0  0  0  0  0  0
   -5.5730   22.8410  -30.7820 C   0  0  0  0  0  0  0  0  0  0  0  0
   -5.9190   21.5680  -31.2440 C   0  0  0  0  0  0  0  0  0  0  0  0
   -4.9710   20.7720  -31.9060 C   0  0  0  0  0  0  0  0  0  0  0  0
   -5.3090   19.5280  -32.3520 N   0  0  0  0  0  0  0  0  0  0  0  0
   -4.4160   18.7260  -33.0080 C   0  0  0  0  0  0  0  0  0  0  0  0
   -4.8290   17.3770  -33.4740 C   0  0  0  0  0  0  0  0  0  0  0  0
   -3.9900   16.3380  -33.8860 C   0  0  0  0  0  0  0  0  0  0  0  0
   -4.6780   15.1800  -34.2730 C   0  0  0  0  0  0  0  0  0  0  0  0
   -6.0540   15.3020  -34.1700 C   0  0  0  0  0  0  0  0  0  0  0  0
   -7.2260   14.0630  -34.5690 Cl  0  0  0  0  0  0  0  0  0  0  0  0
   -6.4240   16.8370  -33.6020 S   0  0  0  0  0  0  0  0  0  0  0  0
   -3.1080   19.1900  -33.2250 C   0  0  0  0  0  0  0  0  0  0  0  0
   -2.7310   20.4580  -32.7800 C   0  0  0  0  0  0  0  0  0  0  0  0
   -1.5520   20.8570  -32.9820 O   0  0  0  0  0  0  0  0  0  0  0  0
   -3.6640   21.2690  -32.1130 C   0  0  0  0  0  0  0  0  0  0  0  0
   -3.3270   22.5530  -31.6460 C   0  0  0  0  0  0  0  0  0  0  0  0
   -2.9752   19.1442  -25.5820 H   0  0  0  0  0  0  0  0  0  0  0  0
   -4.1697   19.1601  -26.9235 H   0  0  0  0  0  0  0  0  0  0  0  0
   -2.8350   17.9579  -26.9235 H   0  0  0  0  0  0  0  0  0  0  0  0
   -1.7517   20.6559  -26.7266 H   0  0  0  0  0  0  0  0  0  0  0  0
   -1.4725   19.3993  -27.9885 H   0  0  0  0  0  0  0  0  0  0  0  0
   -4.1979   22.3928  -28.2617 H   0  0  0  0  0  0  0  0  0  0  0  0
   -3.2830   22.0043  -26.7698 H   0  0  0  0  0  0  0  0  0  0  0  0
   -1.2441   22.7866  -27.6607 H   0  0  0  0  0  0  0  0  0  0  0  0
   -1.8522   22.6455  -29.3682 H   0  0  0  0  0  0  0  0  0  0  0  0
   -3.4212   24.5279  -27.7422 H   0  0  0  0  0  0  0  0  0  0  0  0
   -1.6717   24.9820  -27.8913 H   0  0  0  0  0  0  0  0  0  0  0  0
   -6.3255   23.4604  -30.2720 H   0  0  0  0  0  0  0  0  0  0  0  0
   -6.9394   21.1880  -31.0880 H   0  0  0  0  0  0  0  0  0  0  0  0
   -6.2850   19.1880  -32.1950 H   0  0  0  0  0  0  0  0  0  0  0  0
   -2.8933   16.4213  -33.9048 H   0  0  0  0  0  0  0  0  0  0  0  0
   -4.1759   14.2661  -34.6233 H   0  0  0  0  0  0  0  0  0  0  0  0
   -2.3792   18.5525  -33.7469 H   0  0  0  0  0  0  0  0  0  0  0  0
   -2.3147   22.9482  -31.8162 H   0  0  0  0  0  0  0  0  0  0  0  0
  1  2  1  0
  2  3  1  0
  3  4  1  0
  4  5  1  0
  5  6  1  0
  6  7  1  0
  7  8  1  0
  8  9  2  0
  8 10  1  0
 10 11  2  0
 11 12  1  0
 12 13  2  0
 13 14  1  0
 14 15  1  0
 15 16  1  0
 16 17  2  0
 17 18  1  0
 18 19  2  0
 19 20  1  0
 19 21  1  0
 15 22  2  0
 22 23  1  0
 23 24  2  0
 23 25  1  0
 25 26  2  0
 26 10  1  0
 25 13  1  0
 21 16  1  0
  1 27  1  0
  1 28  1  0
  1 29  1  0
  2 30  1  0
  2 31  1  0
  4 32  1  0
  4 33  1  0
  5 34  1  0
  5 35  1  0
  6 36  1  0
  6 37  1  0
 11 38  1  0
 12 39  1  0
 14 40  1  0
 17 41  1  0
 18 42  1  0
 22 43  1  0
 26 44  1  0
M  CHG  1   7  -1
M  END
>  <UniqueID>  (1) 
1

>  <SMILES>  (1) 
CCOCCC[N-]C(=O)c1ccc2[nH]c(-c3ccc(Cl)s3)cc(=O)c2c1

>  <Energy>  (1) 
78.69048460803815

>  <Genealogy>  (1) 
CCOCCC[N-]C(=O)c1ccc2[nH]c(-c3ccc(Cl)s3)cc(=O)c2c1 (protonated)
CCOCCC[N-]C(=O)c1ccc2[nH]c(-c3ccc(Cl)s3)cc(=O)c2c1 (3D coordinates assigned)
CCOCCC[N-]C(=O)c1ccc2[nH]c(-c3ccc(Cl)s3)cc(=O)c2c1 (optimized conformer: 78.69048460803815 kcal/mol)

>  <smiles>  (1) 
CCOCCCNC(=O)c1ccc2[nH]c(-c3ccc(Cl)s3)cc(=O)c2c1

>  <score_type>  (1) 
oracle

>  <origin>  (1) 
adg

>  <m_score__min__energy>  (1) 
-9.5299999999999994

>  <m_primary>  (1) 
energy

$$$$
1:0
     RDKit          3D

 53 55  0  0  0  0  0  0  0  0999 V2000
   -5.4010   25.6700  -30.8410 C   0  0  0  0  0  0  0  0  0  0  0  0
   -4.2720   24.8880  -30.4760 O   0  0  0  0  0  0  0  0  0  0  0  0
   -4.6640   23.8860  -29.5680 C   0  0  0  0  0  0  0  0  0  0  0  0
   -4.3660   22.4910  -30.1700 C   0  0  1  0  0  0  0  0  0  0  0  0
   -4.6010   22.4520  -31.7020 C   0  0  0  0  0  0  0  0  0  0  0  0
   -4.1330   21.1850  -32.3250 N   0  0  0  0  0  0  0  0  0  0  0  0
   -4.9920   20.7490  -33.4640 C   0  0  0  0  0  0  0  0  0  0  0  0
   -6.3520   20.2040  -33.0230 C   0  0  0  0  0  0  0  0  0  0  0  0
   -6.6060   18.8110  -33.0040 C   0  0  0  0  0  0  0  0  0  0  0  0
   -7.8140   18.3320  -32.4700 C   0  0  0  0  0  0  0  0  0  0  0  0
   -8.7620   19.2360  -31.9670 C   0  0  0  0  0  0  0  0  0  0  0  0
   -8.4840   20.6130  -32.0060 C   0  0  0  0  0  0  0  0  0  0  0  0
   -7.2970   21.0540  -32.5200 N   0  0  0  0  0  0  0  0  0  0  0  0
   -3.8760   20.1070  -31.3500 C   0  0  0  0  0  0  0  0  0  0  0  0
   -2.8210   20.5430  -30.3150 C   0  0  0  0  0  0  0  0  0  0  0  0
   -3.0390   21.9210  -29.7730 N   0  0  1  0  0  0  0  0  0  0  0  0
   -1.8330   22.8090  -29.8890 C   0  0  0  0  0  0  0  0  0  0  0  0
   -1.5250   23.7220  -28.7030 C   0  0  0  0  0  0  0  0  0  0  0  0
   -1.2340   25.0860  -28.9530 C   0  0  0  0  0  0  0  0  0  0  0  0
   -0.8640   25.9280  -27.8970 C   0  0  0  0  0  0  0  0  0  0  0  0
   -0.8630   25.4610  -26.5750 C   0  0  0  0  0  0  0  0  0  0  0  0
   -1.2650   24.1430  -26.2990 C   0  0  0  0  0  0  0  0  0  0  0  0
   -1.6180   23.2730  -27.3560 C   0  0  0  0  0  0  0  0  0  0  0  0
   -2.0670   21.9720  -27.1000 O   0  0  0  0  0  0  0  0  0  0  0  0
   -1.3110   20.9610  -26.4190 C   0  0  0  0  0  0  0  0  0  0  0  0
   -5.9113   26.0234  -29.9329 H   0  0  0  0  0  0  0  0  0  0  0  0
   -5.0714   26.5343  -31.4363 H   0  0  0  0  0  0  0  0  0  0  0  0
   -6.0942   25.0576  -31.4363 H   0  0  0  0  0  0  0  0  0  0  0  0
   -4.1054   24.0055  -28.6279 H   0  0  0  0  0  0  0  0  0  0  0  0
   -5.7425   23.9748  -29.3706 H   0  0  0  0  0  0  0  0  0  0  0  0
   -5.1050   21.8156  -29.7142 H   0  0  0  0  0  0  0  0  0  0  0  0
   -5.6783   22.5616  -31.8952 H   0  0  0  0  0  0  0  0  0  0  0  0
   -4.0209   23.2738  -32.1470 H   0  0  0  0  0  0  0  0  0  0  0  0
   -5.1595   21.6120  -34.1252 H   0  0  0  0  0  0  0  0  0  0  0  0
   -4.4638   19.9309  -33.9756 H   0  0  0  0  0  0  0  0  0  0  0  0
   -5.8614   18.1077  -33.4052 H   0  0  0  0  0  0  0  0  0  0  0  0
   -8.0161   17.2510  -32.4463 H   0  0  0  0  0  0  0  0  0  0  0  0
   -9.7111   18.8713  -31.5473 H   0  0  0  0  0  0  0  0  0  0  0  0
   -9.2207   21.3347  -31.6234 H   0  0  0  0  0  0  0  0  0  0  0  0
   -4.8129   19.8622  -30.8283 H   0  0  0  0  0  0  0  0  0  0  0  0
   -3.4963   19.2272  -31.8902 H   0  0  0  0  0  0  0  0  0  0  0  0
   -2.8446   19.8325  -29.4755 H   0  0  0  0  0  0  0  0  0  0  0  0
   -1.8501   20.5523  -30.8320 H   0  0  0  0  0  0  0  0  0  0  0  0
   -3.1300   21.7710  -28.7370 H   0  0  0  0  0  0  0  0  0  0  0  0
   -0.9579   22.1609  -30.0445 H   0  0  0  0  0  0  0  0  0  0  0  0
   -2.0602   23.4907  -30.7218 H   0  0  0  0  0  0  0  0  0  0  0  0
   -1.2987   25.4835  -29.9766 H   0  0  0  0  0  0  0  0  0  0  0  0
   -0.5709   26.9672  -28.1070 H   0  0  0  0  0  0  0  0  0  0  0  0
   -0.5484   26.1245  -25.7560 H   0  0  0  0  0  0  0  0  0  0  0  0
   -1.3051   23.7876  -25.2588 H   0  0  0  0  0  0  0  0  0  0  0  0
   -1.4126   21.0969  -25.3322 H   0  0  0  0  0  0  0  0  0  0  0  0
   -1.6896   19.9675  -26.7013 H   0  0  0  0  0  0  0  0  0  0  0  0
   -0.2510   21.0433  -26.7013 H   0  0  0  0  0  0  0  0  0  0  0  0
  1  2  1  0
  2  3  1  0
  3  4  1  0
  4  5  1  0
  5  6  1  0
  6  7  1  0
  7  8  1  0
  8  9  2  0
  9 10  1  0
 10 11  2  0
 11 12  1  0
 12 13  2  0
  6 14  1  0
 14 15  1  0
 15 16  1  0
 16 17  1  0
 17 18  1  0
 18 19  2  0
 19 20  1  0
 20 21  2  0
 21 22  1  0
 22 23  2  0
 23 24  1  0
 24 25  1  0
 16  4  1  0
 23 18  1  0
 13  8  1  0
  1 26  1  0
  1 27  1  0
  1 28  1  0
  3 29  1  0
  3 30  1  0
  4 31  1  1
  5 32  1  0
  5 33  1  0
  7 34  1  0
  7 35  1  0
  9 36  1  0
 10 37  1  0
 11 38  1  0
 12 39  1  0
 14 40  1  0
 14 41  1  0
 15 42  1  0
 15 43  1  0
 16 44  1  1
 17 45  1  0
 17 46  1  0
 19 47  1  0
 20 48  1  0
 21 49  1  0
 22 50  1  0
 25 51  1  0
 25 52  1  0
 25 53  1  0
M  CHG  1  16   1
M  END
>  <UniqueID>  (2) 
2

>  <SMILES>  (2) 
COC[C@H]1CN(Cc2ccccn2)CC[N@H+]1Cc1ccccc1OC

>  <Energy>  (2) 
86.83841816163776

>  <Genealogy>  (2) 
COCC1CN(Cc2ccccn2)CC[NH+]1Cc1ccccc1OC (protonated)
COC[C@H]1CN(Cc2ccccn2)CC[N@H+]1Cc1ccccc1OC (chirality)
COC[C@H]1CN(Cc2ccccn2)CC[N@H+]1Cc1ccccc1OC (3D coordinates assigned)
COC[C@H]1CN(Cc2ccccn2)CC[N@H+]1Cc1ccccc1OC (nonaromatic ring conformer: 86.83841816163776 kcal/mol)

>  <smiles>  (2) 
COCC1CN(Cc2ccccn2)CCN1Cc1ccccc1OC

>  <score_type>  (2) 
oracle

>  <origin>  (2) 
adg

>  <m_score__min__energy>  (2) 
-6.9199999999999999

>  <m_primary>  (2) 
energy

$$$$
2:0
     RDKit          3D

 22 23  0  0  0  0  0  0  0  0999 V2000
   -1.1980   26.1600  -28.8110 O   0  0  0  0  0  0  0  0  0  0  0  0
   -1.6920   25.3040  -28.0270 C   0  0  0  0  0  0  0  0  0  0  0  0
   -1.1660   25.2070  -26.6460 C   0  0  0  0  0  0  0  0  0  0  0  0
   -0.7600   23.9660  -26.1330 C   0  0  0  0  0  0  0  0  0  0  0  0
   -0.2470   23.8890  -24.8350 C   0  0  0  0  0  0  0  0  0  0  0  0
   -0.1300   25.0120  -24.0760 N   0  0  0  0  0  0  0  0  0  0  0  0
   -0.4990   26.2310  -24.5560 C   0  0  0  0  0  0  0  0  0  0  0  0
   -1.0170   26.3520  -25.8480 C   0  0  0  0  0  0  0  0  0  0  0  0
   -2.7480   24.4490  -28.4980 N   0  0  0  0  0  0  0  0  0  0  0  0
   -3.8860   24.1270  -27.8470 C   0  0  0  0  0  0  0  0  0  0  0  0
   -4.6180   23.2300  -28.5990 C   0  0  0  0  0  0  0  0  0  0  0  0
   -3.8880   22.9900  -29.7470 C   0  0  0  0  0  0  0  0  0  0  0  0
   -2.7390   23.7490  -29.6500 C   0  0  0  0  0  0  0  0  0  0  0  0
   -0.8449   23.0585  -26.7488 H   0  0  0  0  0  0  0  0  0  0  0  0
    0.0634   22.9164  -24.4255 H   0  0  0  0  0  0  0  0  0  0  0  0
    0.2560   24.9390  -23.1090 H   0  0  0  0  0  0  0  0  0  0  0  0
   -0.3890   27.1247  -23.9241 H   0  0  0  0  0  0  0  0  0  0  0  0
   -1.3064   27.3391  -26.2376 H   0  0  0  0  0  0  0  0  0  0  0  0
   -4.1853   24.5205  -26.8643 H   0  0  0  0  0  0  0  0  0  0  0  0
   -5.5921   22.7920  -28.3356 H   0  0  0  0  0  0  0  0  0  0  0  0
   -4.1677   22.3240  -30.5766 H   0  0  0  0  0  0  0  0  0  0  0  0
   -1.9357   23.7782  -30.4009 H   0  0  0  0  0  0  0  0  0  0  0  0
  1  2  2  0
  2  3  1  0
  3  4  2  0
  4  5  1  0
  5  6  2  0
  6  7  1  0
  7  8  2  0
  2  9  1  0
  9 10  1  0
 10 11  2  0
 11 12  1  0
 12 13  2  0
  8  3  1  0
 13  9  1  0
  4 14  1  0
  5 15  1  0
  6 16  1  0
  7 17  1  0
  8 18  1  0
 10 19  1  0
 11 20  1  0
 12 21  1  0
 13 22  1  0
M  CHG  1   6   1
M  END
>  <UniqueID>  (3) 
3

>  <SMILES>  (3) 
O=C(c1cc[nH+]cc1)n1cccc1

>  <Energy>  (3) 
52.91620132160987

>  <Genealogy>  (3) 
O=C(c1cc[nH+]cc1)n1cccc1 (protonated)
O=C(c1cc[nH+]cc1)n1cccc1 (3D coordinates assigned)
O=C(c1cc[nH+]cc1)n1cccc1 (optimized conformer: 52.91620132160987 kcal/mol)

>  <smiles>  (3) 
O=C(c1ccncc1)n1cccc1

>  <score_type>  (3) 
oracle

>  <origin>  (3) 
adg

>  <m_score__min__energy>  (3) 
-5.0599999999999996

>  <m_primary>  (3) 
energy

$$$$
3:0
     RDKit          3D

 31 32  0  0  0  0  0  0  0  0999 V2000
   -1.5690   25.7890  -28.9560 N   0  0  0  0  0  0  0  0  0  0  0  0
   -1.7930   24.4220  -28.6150 C   0  0  0  0  0  0  0  0  0  0  0  0
   -1.3570   23.9810  -27.5190 O   0  0  0  0  0  0  0  0  0  0  0  0
   -2.4820   23.5230  -29.5700 C   0  0  0  0  0  0  0  0  0  0  0  0
   -2.0880   22.1760  -29.6180 C   0  0  0  0  0  0  0  0  0  0  0  0
   -2.7550   21.2690  -30.4380 C   0  0  0  0  0  0  0  0  0  0  0  0
   -3.8220   21.6890  -31.2270 C   0  0  0  0  0  0  0  0  0  0  0  0
   -4.2230   23.0370  -31.2230 C   0  0  0  0  0  0  0  0  0  0  0  0
   -5.2810   23.4970  -32.0300 O   0  0  0  0  0  0  0  0  0  0  0  0
   -6.6460   23.6100  -31.6260 C   0  0  0  0  0  0  0  0  0  0  0  0
   -7.4040   22.3480  -31.9420 C   0  0  0  0  0  0  0  0  0  0  0  0
   -8.7650   22.2320  -31.6150 C   0  0  0  0  0  0  0  0  0  0  0  0
   -9.4640   21.0590  -31.9180 C   0  0  0  0  0  0  0  0  0  0  0  0
   -8.8140   20.0000  -32.5580 C   0  0  0  0  0  0  0  0  0  0  0  0
   -7.4640   20.1130  -32.8990 C   0  0  0  0  0  0  0  0  0  0  0  0
   -6.7600   21.2840  -32.5970 C   0  0  0  0  0  0  0  0  0  0  0  0
   -3.5460   23.9640  -30.4010 C   0  0  0  0  0  0  0  0  0  0  0  0
   -3.9060   25.3540  -30.4710 N   0  0  0  0  0  0  0  0  0  0  0  0
   -1.2270   26.0560  -29.9050 H   0  0  0  0  0  0  0  0  0  0  0  0
   -1.2438   21.8336  -29.0015 H   0  0  0  0  0  0  0  0  0  0  0  0
   -2.4372   20.2162  -30.4622 H   0  0  0  0  0  0  0  0  0  0  0  0
   -4.3549   20.9621  -31.8576 H   0  0  0  0  0  0  0  0  0  0  0  0
   -6.6872   23.7935  -30.5422 H   0  0  0  0  0  0  0  0  0  0  0  0
   -7.1076   24.4448  -32.1738 H   0  0  0  0  0  0  0  0  0  0  0  0
   -9.2828   23.0662  -31.1191 H   0  0  0  0  0  0  0  0  0  0  0  0
  -10.5276   20.9697  -31.6520 H   0  0  0  0  0  0  0  0  0  0  0  0
   -9.3654   19.0777  -32.7931 H   0  0  0  0  0  0  0  0  0  0  0  0
   -6.9538   19.2805  -33.4055 H   0  0  0  0  0  0  0  0  0  0  0  0
   -5.6989   21.3722  -32.8731 H   0  0  0  0  0  0  0  0  0  0  0  0
   -3.5160   26.0480  -29.7970 H   0  0  0  0  0  0  0  0  0  0  0  0
   -4.6550   25.6960  -31.1120 H   0  0  0  0  0  0  0  0  0  0  0  0
  1  2  1  0
  2  3  2  0
  2  4  1  0
  4  5  2  0
  5  6  1  0
  6  7  2  0
  7  8  1  0
  8  9  1  0
  9 10  1  0
 10 11  1  0
 11 12  2  0
 12 13  1  0
 13 14  2  0
 14 15  1  0
 15 16  2  0
  8 17  2  0
 17 18  1  0
 17  4  1  0
 16 11  1  0
  1 19  1  0
  5 20  1  0
  6 21  1  0
  7 22  1  0
 10 23  1  0
 10 24  1  0
 12 25  1  0
 13 26  1  0
 14 27  1  0
 15 28  1  0
 16 29  1  0
 18 30  1  0
 18 31  1  0
M  CHG  1   1  -1
M  END
>  <UniqueID>  (4) 
4

>  <SMILES>  (4) 
[NH-]C(=O)c1cccc(OCc2ccccc2)c1N

>  <Energy>  (4) 
37.022310155129695

>  <Genealogy>  (4) 
[NH-]C(=O)c1cccc(OCc2ccccc2)c1N (protonated)
[NH-]C(=O)c1cccc(OCc2ccccc2)c1N (3D coordinates assigned)
[NH-]C(=O)c1cccc(OCc2ccccc2)c1N (optimized conformer: 37.022310155129695 kcal/mol)

>  <smiles>  (4) 
NC(=O)c1cccc(OCc2ccccc2)c1N

>  <score_type>  (4) 
oracle

>  <origin>  (4) 
adg

>  <m_score__min__energy>  (4) 
-9.9299999999999997

>  <m_primary>  (4) 
energy

$$$$
4:0
     RDKit          3D

 46 48  0  0  0  0  0  0  0  0999 V2000
   -4.2180   14.1220  -32.1420 C   0  0  0  0  0  0  0  0  0  0  0  0
   -3.5310   15.0970  -33.0940 C   0  0  0  0  0  0  0  0  0  0  0  0
   -4.1700   16.4310  -33.0150 N   0  0  0  0  0  0  0  0  0  0  0  0
   -4.0410   17.1650  -34.2940 C   0  0  0  0  0  0  0  0  0  0  0  0
   -3.1440   18.3870  -34.1110 C   0  0  0  0  0  0  0  0  0  0  0  0
   -5.5870   16.3210  -32.5950 C   0  0  0  0  0  0  0  0  0  0  0  0
   -6.5310   16.5710  -33.7790 C   0  0  0  0  0  0  0  0  0  0  0  0
   -7.4930   17.5810  -33.4670 O   0  0  0  0  0  0  0  0  0  0  0  0
   -7.2030   18.8420  -32.9230 C   0  0  0  0  0  0  0  0  0  0  0  0
   -7.9440   19.2650  -31.8130 C   0  0  0  0  0  0  0  0  0  0  0  0
   -7.7090   20.5160  -31.2370 C   0  0  0  0  0  0  0  0  0  0  0  0
   -6.7280   21.3670  -31.7680 C   0  0  0  0  0  0  0  0  0  0  0  0
   -6.4540   22.6690  -31.1360 C   0  0  0  0  0  0  0  0  0  0  0  0
   -7.4670   23.5330  -30.6760 C   0  0  0  0  0  0  0  0  0  0  0  0
   -6.8030   25.0320  -30.1840 S   0  0  0  0  0  0  0  0  0  0  0  0
   -5.2520   24.5350  -30.5540 C   0  0  0  0  0  0  0  0  0  0  0  0
   -4.0470   25.1080  -30.4650 N   0  0  0  0  0  0  0  0  0  0  0  0
   -3.1820   24.1790  -30.8770 N   0  0  0  0  0  0  0  0  0  0  0  0
   -3.8560   23.0480  -31.2180 C   0  0  0  0  0  0  0  0  0  0  0  0
   -3.1900   21.7860  -31.5840 C   0  0  0  0  0  0  0  0  0  0  0  0
   -2.7240   21.5760  -32.9170 N   0  0  0  0  0  0  0  0  0  0  0  0
   -2.9840   20.9010  -30.7120 O   0  0  0  0  0  0  0  0  0  0  0  0
   -5.2050   23.2840  -31.0230 C   0  0  0  0  0  0  0  0  0  0  0  0
   -5.9620   20.9350  -32.8590 C   0  0  0  0  0  0  0  0  0  0  0  0
   -6.2000   19.6840  -33.4390 C   0  0  0  0  0  0  0  0  0  0  0  0
   -4.0104   14.4166  -31.1027 H   0  0  0  0  0  0  0  0  0  0  0  0
   -5.3036   14.1406  -32.3185 H   0  0  0  0  0  0  0  0  0  0  0  0
   -3.8352   13.1060  -32.3185 H   0  0  0  0  0  0  0  0  0  0  0  0
   -2.4699   15.1863  -32.8182 H   0  0  0  0  0  0  0  0  0  0  0  0
   -3.6230   14.7171  -34.1222 H   0  0  0  0  0  0  0  0  0  0  0  0
   -3.6001   16.5005  -35.0517 H   0  0  0  0  0  0  0  0  0  0  0  0
   -5.0378   17.4964  -34.6204 H   0  0  0  0  0  0  0  0  0  0  0  0
   -3.0021   18.5802  -33.0374 H   0  0  0  0  0  0  0  0  0  0  0  0
   -2.1678   18.1991  -34.5819 H   0  0  0  0  0  0  0  0  0  0  0  0
   -3.6158   19.2620  -34.5819 H   0  0  0  0  0  0  0  0  0  0  0  0
   -5.7674   15.3112  -32.1978 H   0  0  0  0  0  0  0  0  0  0  0  0
   -5.7841   17.0790  -31.8227 H   0  0  0  0  0  0  0  0  0  0  0  0
   -5.9392   16.8949  -34.6479 H   0  0  0  0  0  0  0  0  0  0  0  0
   -7.0663   15.6362  -34.0019 H   0  0  0  0  0  0  0  0  0  0  0  0
   -8.7177   18.6069  -31.3908 H   0  0  0  0  0  0  0  0  0  0  0  0
   -8.2958   20.8352  -30.3631 H   0  0  0  0  0  0  0  0  0  0  0  0
   -8.5367   23.2795  -30.6382 H   0  0  0  0  0  0  0  0  0  0  0  0
   -2.2280   20.6920  -33.1660 H   0  0  0  0  0  0  0  0  0  0  0  0
   -2.8810   22.2910  -33.6600 H   0  0  0  0  0  0  0  0  0  0  0  0
   -5.1694   21.5828  -33.2616 H   0  0  0  0  0  0  0  0  0  0  0  0
   -5.6008   19.3573  -34.3017 H   0  0  0  0  0  0  0  0  0  0  0  0
  1  2  1  0
  2  3  1  0
  3  4  1  0
  4  5  1  0
  3  6  1  0
  6  7  1  0
  7  8  1  0
  8  9  1  0
  9 10  2  0
 10 11  1  0
 11 12  2  0
 12 13  1  0
 13 14  2  0
 14 15  1  0
 15 16  1  0
 16 17  1  0
 17 18  1  0
 18 19  2  0
 19 20  1  0
 20 21  1  0
 20 22  2  0
 19 23  1  0
 12 24  1  0
 24 25  2  0
 25  9  1  0
 23 13  1  0
 23 16  2  0
  1 26  1  0
  1 27  1  0
  1 28  1  0
  2 29  1  0
  2 30  1  0
  4 31  1  0
  4 32  1  0
  5 33  1  0
  5 34  1  0
  5 35  1  0
  6 36  1  0
  6 37  1  0
  7 38  1  0
  7 39  1  0
 10 40  1  0
 11 41  1  0
 14 42  1  0
 21 43  1  0
 21 44  1  0
 24 45  1  0
 25 46  1  0
M  CHG  1  17  -1
M  END
>  <UniqueID>  (5) 
5

>  <SMILES>  (5) 
CCN(CC)CCOc1ccc(-c2csc3[n-]nc(C(N)=O)c23)cc1

>  <Energy>  (5) 
129.75918427485698

>  <Genealogy>  (5) 
CCN(CC)CCOc1ccc(-c2csc3[n-]nc(C(N)=O)c23)cc1 (protonated)
CCN(CC)CCOc1ccc(-c2csc3[n-]nc(C(N)=O)c23)cc1 (3D coordinates assigned)
CCN(CC)CCOc1ccc(-c2csc3[n-]nc(C(N)=O)c23)cc1 (optimized conformer: 129.75918427485698 kcal/mol)

>  <smiles>  (5) 
CCN(CC)CCOc1ccc(-c2csc3[nH]nc(C(N)=O)c23)cc1

>  <score_type>  (5) 
oracle

>  <origin>  (5) 
adg

>  <m_score__min__energy>  (5) 
-8.4900000000000002

>  <m_primary>  (5) 
energy

$$$$
5:0
     RDKit          3D

 44 47  0  0  0  0  0  0  0  0999 V2000
   -6.1200   26.0120  -29.6420 C   0  0  0  0  0  0  0  0  0  0  0  0
   -6.0980   25.4470  -30.9490 O   0  0  0  0  0  0  0  0  0  0  0  0
   -6.1660   24.0710  -31.2230 C   0  0  0  0  0  0  0  0  0  0  0  0
   -7.3780   23.4280  -31.5210 C   0  0  0  0  0  0  0  0  0  0  0  0
   -7.4160   22.0520  -31.7880 C   0  0  0  0  0  0  0  0  0  0  0  0
   -6.2150   21.3080  -31.8250 C   0  0  0  0  0  0  0  0  0  0  0  0
   -5.0140   21.9500  -31.4710 C   0  0  0  0  0  0  0  0  0  0  0  0
   -4.9810   23.3280  -31.1860 C   0  0  0  0  0  0  0  0  0  0  0  0
   -3.7880   23.9930  -30.8590 O   0  0  0  0  0  0  0  0  0  0  0  0
   -2.8790   23.5760  -29.8450 C   0  0  0  0  0  0  0  0  0  0  0  0
   -6.2360   19.7990  -32.1010 C   0  0  2  0  0  0  0  0  0  0  0  0
   -5.0980   19.3870  -33.0680 C   0  0  0  0  0  0  0  0  0  0  0  0
   -5.2340   17.9630  -33.5430 C   0  0  0  0  0  0  0  0  0  0  0  0
   -4.1550   17.3560  -34.2070 C   0  0  0  0  0  0  0  0  0  0  0  0
   -4.2640   16.0470  -34.6880 C   0  0  0  0  0  0  0  0  0  0  0  0
   -2.9080   15.2970  -35.5080 Cl  0  0  0  0  0  0  0  0  0  0  0  0
   -5.4550   15.3370  -34.5140 C   0  0  0  0  0  0  0  0  0  0  0  0
   -6.5380   15.9340  -33.8660 C   0  0  0  0  0  0  0  0  0  0  0  0
   -6.4440   17.2530  -33.3950 C   0  0  0  0  0  0  0  0  0  0  0  0
   -7.6080   17.8660  -32.6560 C   0  0  0  0  0  0  0  0  0  0  0  0
   -7.5380   19.3440  -32.6580 N   0  0  1  0  0  0  0  0  0  0  0  0
   -8.6700   19.8940  -31.8890 C   0  0  0  0  0  0  0  0  0  0  0  0
   -8.7420   21.4070  -32.0730 C   0  0  0  0  0  0  0  0  0  0  0  0
   -6.0886   25.2064  -28.8937 H   0  0  0  0  0  0  0  0  0  0  0  0
   -5.2467   26.6680  -29.5114 H   0  0  0  0  0  0  0  0  0  0  0  0
   -7.0416   26.5981  -29.5114 H   0  0  0  0  0  0  0  0  0  0  0  0
   -8.3102   24.0115  -31.5453 H   0  0  0  0  0  0  0  0  0  0  0  0
   -4.0844   21.3646  -31.4160 H   0  0  0  0  0  0  0  0  0  0  0  0
   -3.3161   23.7765  -28.8557 H   0  0  0  0  0  0  0  0  0  0  0  0
   -2.6839   22.4984  -29.9481 H   0  0  0  0  0  0  0  0  0  0  0  0
   -1.9349   24.1310  -29.9481 H   0  0  0  0  0  0  0  0  0  0  0  0
   -6.0850   19.3095  -31.1276 H   0  0  0  0  0  0  0  0  0  0  0  0
   -5.1185   20.0543  -33.9422 H   0  0  0  0  0  0  0  0  0  0  0  0
   -4.1473   19.4683  -32.5206 H   0  0  0  0  0  0  0  0  0  0  0  0
   -3.2178   17.9140  -34.3497 H   0  0  0  0  0  0  0  0  0  0  0  0
   -5.5394   14.3061  -34.8882 H   0  0  0  0  0  0  0  0  0  0  0  0
   -7.4702   15.3676  -33.7237 H   0  0  0  0  0  0  0  0  0  0  0  0
   -8.5439   17.5524  -33.1415 H   0  0  0  0  0  0  0  0  0  0  0  0
   -7.5720   17.5216  -31.6119 H   0  0  0  0  0  0  0  0  0  0  0  0
   -7.6280   19.6690  -33.6520 H   0  0  0  0  0  0  0  0  0  0  0  0
   -9.6065   19.4392  -32.2442 H   0  0  0  0  0  0  0  0  0  0  0  0
   -8.5252   19.6672  -30.8224 H   0  0  0  0  0  0  0  0  0  0  0  0
   -9.0335   21.6289  -33.1102 H   0  0  0  0  0  0  0  0  0  0  0  0
   -9.4839   21.8090  -31.3674 H   0  0  0  0  0  0  0  0  0  0  0  0
  1  2  1  0
  2  3  1  0
  3  4  2  0
  4  5  1  0
  5  6  2  0
  6  7  1  0
  7  8  2  0
  8  9  1  0
  9 10  1  0
  6 11  1  0
 11 12  1  0
 12 13  1  0
 13 14  2  0
 14 15  1  0
 15 16  1  0
 15 17  2  0
 17 18  1  0
 18 19  2  0
 19 20  1  0
 20 21  1  0
 21 22  1  0
 22 23  1  0
  8  3  1  0
 21 11  1  0
 23  5  1  0
 19 13  1  0
  1 24  1  0
  1 25  1  0
  1 26  1  0
  4 27  1  0
  7 28  1  0
 10 29  1  0
 10 30  1  0
 10 31  1  0
 11 32  1  1
 12 33  1  0
 12 34  1  0
 14 35  1  0
 17 36  1  0
 18 37  1  0
 20 38  1  0
 20 39  1  0
 21 40  1  6
 22 41  1  0
 22 42  1  0
 23 43  1  0
 23 44  1  0
M  CHG  1  21   1
M  END
>  <UniqueID>  (6) 
6

>  <SMILES>  (6) 
COc1cc2c(cc1OC)[C@@H]1Cc3cc(Cl)ccc3C[N@H+]1CC2

>  <Energy>  (6) 
55.11957616779531

>  <Genealogy>  (6) 
COc1cc2c(cc1OC)C1Cc3cc(Cl)ccc3C[NH+]1CC2 (protonated)
COc1cc2c(cc1OC)[C@@H]1Cc3cc(Cl)ccc3C[N@H+]1CC2 (chirality)
COc1cc2c(cc1OC)[C@@H]1Cc3cc(Cl)ccc3C[N@H+]1CC2 (3D coordinates assigned)
COc1cc2c(cc1OC)[C@@H]1Cc3cc(Cl)ccc3C[N@H+]1CC2 (nonaromatic ring conformer: 55.11957616779531 kcal/mol)

>  <smiles>  (6) 
COc1cc2c(cc1OC)C1Cc3cc(Cl)ccc3CN1CC2

>  <score_type>  (6) 
oracle

>  <origin>  (6) 
adg

>  <m_score__min__energy>  (6) 
-8.3100000000000005

>  <m_primary>  (6) 
energy

$$$$
6:0
     RDKit          3D

 45 47  0  0  0  0  0  0  0  0999 V2000
   -5.8050   26.0470  -30.8070 O   0  0  0  0  0  0  0  0  0  0  0  0
   -5.1710   24.8240  -30.2050 S   0  0  0  0  0  0  0  0  0  0  0  0
   -5.5150   24.7850  -28.7410 O   0  0  0  0  0  0  0  0  0  0  0  0
   -3.4450   24.9140  -30.3840 N   0  0  0  0  0  0  0  0  0  0  0  0
   -2.8370   23.6560  -29.9430 C   0  0  0  0  0  0  0  0  0  0  0  0
   -2.6970   23.6510  -28.4100 C   0  0  0  0  0  0  0  0  0  0  0  0
   -2.4870   24.9930  -27.8220 N   0  0  0  0  0  0  0  0  0  0  0  0
   -1.1160   25.5190  -28.0270 C   0  0  0  0  0  0  0  0  0  0  0  0
   -0.8630   26.7590  -27.1650 C   0  0  0  0  0  0  0  0  0  0  0  0
   -0.9660   26.4110  -25.6620 C   0  0  0  0  0  0  0  0  0  0  0  0
   -1.3040   27.5550  -24.9160 O   0  0  0  0  0  0  0  0  0  0  0  0
   -1.9510   25.2520  -25.3790 C   0  0  0  0  0  0  0  0  0  0  0  0
   -3.0450   25.1650  -26.4550 C   0  0  0  0  0  0  0  0  0  0  0  0
   -5.8020   23.3780  -30.9910 C   0  0  0  0  0  0  0  0  0  0  0  0
   -4.9920   22.6440  -31.8670 C   0  0  0  0  0  0  0  0  0  0  0  0
   -5.5000   21.5250  -32.5320 C   0  0  0  0  0  0  0  0  0  0  0  0
   -6.8320   21.1330  -32.3350 C   0  0  0  0  0  0  0  0  0  0  0  0
   -7.3570   20.0180  -33.0050 C   0  0  0  0  0  0  0  0  0  0  0  0
   -8.6900   19.6440  -32.8080 C   0  0  0  0  0  0  0  0  0  0  0  0
   -9.5060   20.3780  -31.9420 C   0  0  0  0  0  0  0  0  0  0  0  0
   -8.9950   21.4900  -31.2680 C   0  0  0  0  0  0  0  0  0  0  0  0
   -7.6580   21.8750  -31.4560 C   0  0  0  0  0  0  0  0  0  0  0  0
   -7.1350   22.9920  -30.7870 C   0  0  0  0  0  0  0  0  0  0  0  0
   -3.1140   25.6760  -29.7470 H   0  0  0  0  0  0  0  0  0  0  0  0
   -3.4736   22.8145  -30.2539 H   0  0  0  0  0  0  0  0  0  0  0  0
   -1.8405   23.5562  -30.3980 H   0  0  0  0  0  0  0  0  0  0  0  0
   -3.6151   23.2243  -27.9799 H   0  0  0  0  0  0  0  0  0  0  0  0
   -1.8030   23.0555  -28.1732 H   0  0  0  0  0  0  0  0  0  0  0  0
   -0.3886   24.7395  -27.7562 H   0  0  0  0  0  0  0  0  0  0  0  0
   -1.0064   25.8020  -29.0843 H   0  0  0  0  0  0  0  0  0  0  0  0
    0.1441   27.1469  -27.3775 H   0  0  0  0  0  0  0  0  0  0  0  0
   -1.6229   27.5172  -27.4050 H   0  0  0  0  0  0  0  0  0  0  0  0
    0.0261   26.0571  -25.3450 H   0  0  0  0  0  0  0  0  0  0  0  0
   -2.1220   27.3420  -24.3970 H   0  0  0  0  0  0  0  0  0  0  0  0
   -1.3921   24.3048  -25.3605 H   0  0  0  0  0  0  0  0  0  0  0  0
   -2.4355   25.4407  -24.4096 H   0  0  0  0  0  0  0  0  0  0  0  0
   -3.6948   24.3068  -26.2287 H   0  0  0  0  0  0  0  0  0  0  0  0
   -3.6050   26.1117  -26.4394 H   0  0  0  0  0  0  0  0  0  0  0  0
   -3.9487   22.9507  -32.0326 H   0  0  0  0  0  0  0  0  0  0  0  0
   -4.8536   20.9502  -33.2116 H   0  0  0  0  0  0  0  0  0  0  0  0
   -6.7188   19.4367  -33.6868 H   0  0  0  0  0  0  0  0  0  0  0  0
   -9.0978   18.7695  -33.3361 H   0  0  0  0  0  0  0  0  0  0  0  0
  -10.5537   20.0790  -31.7908 H   0  0  0  0  0  0  0  0  0  0  0  0
   -9.6415   22.0650  -30.5887 H   0  0  0  0  0  0  0  0  0  0  0  0
   -7.7729   23.5673  -30.0998 H   0  0  0  0  0  0  0  0  0  0  0  0
  1  2  2  0
  2  3  2  0
  2  4  1  0
  4  5  1  0
  5  6  1  0
  6  7  1  0
  7  8  1  0
  8  9  1  0
  9 10  1  0
 10 11  1  0
 10 12  1  0
 12 13  1  0
  2 14  1  0
 14 15  2  0
 15 16  1  0
 16 17  2  0
 17 18  1  0
 18 19  2  0
 19 20  1  0
 20 21  2  0
 21 22  1  0
 22 23  2  0
 13  7  1  0
 23 14  1  0
 22 17  1  0
  4 24  1  0
  5 25  1  0
  5 26  1  0
  6 27  1  0
  6 28  1  0
  8 29  1  0
  8 30  1  0
  9 31  1  0
  9 32  1  0
 10 33  1  0
 11 34  1  0
 12 35  1  0
 12 36  1  0
 13 37  1  0
 13 38  1  0
 15 39  1  0
 16 40  1  0
 18 41  1  0
 19 42  1  0
 20 43  1  0
 21 44  1  0
 23 45  1  0
M  END
>  <UniqueID>  (7) 
7

>  <SMILES>  (7) 
O=S(=O)(NCCN1CCC(O)CC1)c1ccc2ccccc2c1

>  <Energy>  (7) 
55.22385476185752

>  <Genealogy>  (7) 
O=S(=O)(NCCN1CCC(O)CC1)c1ccc2ccccc2c1 (3D coordinates assigned)
O=S(=O)(NCCN1CCC(O)CC1)c1ccc2ccccc2c1 (nonaromatic ring conformer: 55.22385476185752 kcal/mol)

>  <smiles>  (7) 
O=S(=O)(NCCN1CCC(O)CC1)c1ccc2ccccc2c1

>  <score_type>  (7) 
oracle

>  <origin>  (7) 
adg

>  <m_score__min__energy>  (7) 
-9.9900000000000002

>  <m_primary>  (7) 
energy

$$$$
7:0
     RDKit          3D

 50 52  0  0  0  0  0  0  0  0999 V2000
   -5.7060   26.5270  -30.2180 O   0  0  0  0  0  0  0  0  0  0  0  0
   -5.2000   25.4060  -30.4870 C   0  0  0  0  0  0  0  0  0  0  0  0
   -3.7730   25.2730  -30.4760 N   0  0  0  0  0  0  0  0  0  0  0  0
   -3.0040   24.3290  -29.6680 C   0  0  0  0  0  0  0  0  0  0  0  0
   -3.1120   22.9010  -30.2140 C   0  0  0  0  0  0  0  0  0  0  0  0
   -2.0060   22.5970  -31.0660 O   0  0  0  0  0  0  0  0  0  0  0  0
   -1.5000   21.3140  -31.3380 C   0  0  0  0  0  0  0  0  0  0  0  0
   -0.6130   20.6520  -30.4670 C   0  0  0  0  0  0  0  0  0  0  0  0
   -0.1320   19.3810  -30.7820 C   0  0  0  0  0  0  0  0  0  0  0  0
   -0.5430   18.7490  -31.9550 C   0  0  0  0  0  0  0  0  0  0  0  0
   -1.4350   19.3870  -32.8190 C   0  0  0  0  0  0  0  0  0  0  0  0
   -1.9190   20.6750  -32.5160 C   0  0  0  0  0  0  0  0  0  0  0  0
   -2.8060   21.3550  -33.3650 O   0  0  0  0  0  0  0  0  0  0  0  0
   -4.1570   21.6740  -33.0360 C   0  0  0  0  0  0  0  0  0  0  0  0
   -4.7600   20.5390  -32.2100 C   0  0  0  0  0  0  0  0  0  0  0  0
   -5.8540   19.8730  -32.9440 N   0  0  0  0  0  0  0  0  0  0  0  0
   -6.6610   18.9980  -32.0820 C   0  0  0  0  0  0  0  0  0  0  0  0
   -7.1720   17.8770  -32.9600 C   0  0  0  0  0  0  0  0  0  0  0  0
   -6.0760   17.6900  -33.9840 C   0  0  0  0  0  0  0  0  0  0  0  0
   -5.3440   19.0280  -34.0370 C   0  0  0  0  0  0  0  0  0  0  0  0
   -6.0960   24.2740  -30.7670 C   0  0  0  0  0  0  0  0  0  0  0  0
   -6.4220   23.9150  -32.0840 C   0  0  0  0  0  0  0  0  0  0  0  0
   -7.3030   22.8550  -32.3060 C   0  0  0  0  0  0  0  0  0  0  0  0
   -7.8620   22.1760  -31.2220 C   0  0  0  0  0  0  0  0  0  0  0  0
   -7.5340   22.5730  -29.9250 C   0  0  0  0  0  0  0  0  0  0  0  0
   -6.6730   23.6070  -29.7280 N   0  0  0  0  0  0  0  0  0  0  0  0
   -1.9471   24.6338  -29.6720 H   0  0  0  0  0  0  0  0  0  0  0  0
   -3.4115   24.3386  -28.6463 H   0  0  0  0  0  0  0  0  0  0  0  0
   -3.1235   22.1932  -29.3721 H   0  0  0  0  0  0  0  0  0  0  0  0
   -4.0400   22.8170  -30.7985 H   0  0  0  0  0  0  0  0  0  0  0  0
   -0.2977   21.1400  -29.5330 H   0  0  0  0  0  0  0  0  0  0  0  0
    0.5724   18.8767  -30.1042 H   0  0  0  0  0  0  0  0  0  0  0  0
   -0.1638   17.7459  -32.2001 H   0  0  0  0  0  0  0  0  0  0  0  0
   -1.7613   18.8820  -33.7401 H   0  0  0  0  0  0  0  0  0  0  0  0
   -4.1823   22.6061  -32.4524 H   0  0  0  0  0  0  0  0  0  0  0  0
   -4.7390   21.8050  -33.9602 H   0  0  0  0  0  0  0  0  0  0  0  0
   -3.9756   19.8010  -31.9863 H   0  0  0  0  0  0  0  0  0  0  0  0
   -5.1686   20.9615  -31.2802 H   0  0  0  0  0  0  0  0  0  0  0  0
   -6.0420   18.5910  -31.2688 H   0  0  0  0  0  0  0  0  0  0  0  0
   -7.4927   19.5521  -31.6224 H   0  0  0  0  0  0  0  0  0  0  0  0
   -7.3215   16.9580  -32.3742 H   0  0  0  0  0  0  0  0  0  0  0  0
   -8.1458   18.1062  -33.4174 H   0  0  0  0  0  0  0  0  0  0  0  0
   -5.3907   16.8877  -33.6732 H   0  0  0  0  0  0  0  0  0  0  0  0
   -6.4771   17.4020  -34.9670 H   0  0  0  0  0  0  0  0  0  0  0  0
   -4.2633   18.8669  -33.9103 H   0  0  0  0  0  0  0  0  0  0  0  0
   -5.5143   19.5170  -35.0075 H   0  0  0  0  0  0  0  0  0  0  0  0
   -5.9877   24.4634  -32.9329 H   0  0  0  0  0  0  0  0  0  0  0  0
   -7.5563   22.5553  -33.3336 H   0  0  0  0  0  0  0  0  0  0  0  0
   -8.5536   21.3370  -31.3884 H   0  0  0  0  0  0  0  0  0  0  0  0
   -7.9718   22.0497  -29.0622 H   0  0  0  0  0  0  0  0  0  0  0  0
  1  2  2  0
  2  3  1  0
  3  4  1  0
  4  5  1  0
  5  6  1  0
  6  7  1  0
  7  8  2  0
  8  9  1  0
  9 10  2  0
 10 11  1  0
 11 12  2  0
 12 13  1  0
 13 14  1  0
 14 15  1  0
 15 16  1  0
 16 17  1  0
 17 18  1  0
 18 19  1  0
 19 20  1  0
  2 21  1  0
 21 22  2  0
 22 23  1  0
 23 24  2  0
 24 25  1  0
 25 26  2  0
 12  7  1  0
 20 16  1  0
 26 21  1  0
  4 27  1  0
  4 28  1  0
  5 29  1  0
  5 30  1  0
  8 31  1  0
  9 32  1  0
 10 33  1  0
 11 34  1  0
 14 35  1  0
 14 36  1  0
 15 37  1  0
 15 38  1  0
 17 39  1  0
 17 40  1  0
 18 41  1  0
 18 42  1  0
 19 43  1  0
 19 44  1  0
 20 45  1  0
 20 46  1  0
 22 47  1  0
 23 48  1  0
 24 49  1  0
 25 50  1  0
M  CHG  1   3  -1
M  END
>  <UniqueID>  (8) 
8

>  <SMILES>  (8) 
O=C([N-]CCOc1ccccc1OCCN1CCCC1)c1ccccn1

>  <Energy>  (8) 
55.53602070657737

>  <Genealogy>  (8) 
O=C([N-]CCOc1ccccc1OCCN1CCCC1)c1ccccn1 (protonated)
O=C([N-]CCOc1ccccc1OCCN1CCCC1)c1ccccn1 (3D coordinates assigned)
O=C([N-]CCOc1ccccc1OCCN1CCCC1)c1ccccn1 (nonaromatic ring conformer: 55.53602070657737 kcal/mol)

>  <smiles>  (8) 
O=C(NCCOc1ccccc1OCCN1CCCC1)c1ccccn1

>  <score_type>  (8) 
oracle

>  <origin>  (8) 
adg

>  <m_score__min__energy>  (8) 
-9.7400000000000002

>  <m_primary>  (8) 
energy

$$$$
8:0
     RDKit          3D

 40 42  0  0  0  0  0  0  0  0999 V2000
   -3.9230   24.1280  -28.0170 C   0  0  0  0  0  0  0  0  0  0  0  0
   -3.3390   24.5590  -29.3690 C   0  0  0  0  0  0  0  0  0  0  0  0
   -4.2960   24.5060  -30.5030 N   0  0  0  0  0  0  0  0  0  0  0  0
   -5.2430   25.6350  -30.4710 C   0  0  0  0  0  0  0  0  0  0  0  0
   -5.0210   23.2240  -30.6470 C   0  0  0  0  0  0  0  0  0  0  0  0
   -4.2580   22.2300  -31.5550 C   0  0  0  0  0  0  0  0  0  0  0  0
   -4.9550   21.9180  -32.8250 N   0  0  0  0  0  0  0  0  0  0  0  0
   -4.5850   20.6070  -33.3160 C   0  0  0  0  0  0  0  0  0  0  0  0
   -3.4600   20.4500  -33.8670 O   0  0  0  0  0  0  0  0  0  0  0  0
   -5.4790   19.4380  -33.1350 C   0  0  0  0  0  0  0  0  0  0  0  0
   -5.0140   18.1300  -33.3550 C   0  0  0  0  0  0  0  0  0  0  0  0
   -5.8650   17.0380  -33.1720 C   0  0  0  0  0  0  0  0  0  0  0  0
   -7.1890   17.2340  -32.7770 C   0  0  0  0  0  0  0  0  0  0  0  0
   -7.6740   18.5320  -32.5610 C   0  0  0  0  0  0  0  0  0  0  0  0
   -9.0080   18.7380  -32.1810 C   0  0  0  0  0  0  0  0  0  0  0  0
   -9.4870   20.0350  -31.9830 C   0  0  0  0  0  0  0  0  0  0  0  0
   -8.6420   21.1330  -32.1590 C   0  0  0  0  0  0  0  0  0  0  0  0
   -7.3000   20.9470  -32.5330 C   0  0  0  0  0  0  0  0  0  0  0  0
   -6.8130   19.6420  -32.7360 C   0  0  0  0  0  0  0  0  0  0  0  0
   -6.3870   22.1020  -32.7030 C   0  0  0  0  0  0  0  0  0  0  0  0
   -6.8600   23.2730  -32.7020 O   0  0  0  0  0  0  0  0  0  0  0  0
   -3.3273   24.5676  -27.2034 H   0  0  0  0  0  0  0  0  0  0  0  0
   -4.9635   24.4764  -27.9392 H   0  0  0  0  0  0  0  0  0  0  0  0
   -3.8968   23.0311  -27.9392 H   0  0  0  0  0  0  0  0  0  0  0  0
   -2.9789   25.5939  -29.2725 H   0  0  0  0  0  0  0  0  0  0  0  0
   -2.5382   23.8425  -29.6043 H   0  0  0  0  0  0  0  0  0  0  0  0
   -5.4641   25.8986  -29.4262 H   0  0  0  0  0  0  0  0  0  0  0  0
   -4.7977   26.5017  -30.9815 H   0  0  0  0  0  0  0  0  0  0  0  0
   -6.1739   25.3473  -30.9815 H   0  0  0  0  0  0  0  0  0  0  0  0
   -5.1467   22.7725  -29.6518 H   0  0  0  0  0  0  0  0  0  0  0  0
   -5.9954   23.4331  -31.1127 H   0  0  0  0  0  0  0  0  0  0  0  0
   -3.2769   22.6649  -31.7965 H   0  0  0  0  0  0  0  0  0  0  0  0
   -4.1764   21.2861  -30.9961 H   0  0  0  0  0  0  0  0  0  0  0  0
   -4.6240   22.6120  -33.5370 H   0  0  0  0  0  0  0  0  0  0  0  0
   -3.9739   17.9656  -33.6731 H   0  0  0  0  0  0  0  0  0  0  0  0
   -5.4896   16.0178  -33.3401 H   0  0  0  0  0  0  0  0  0  0  0  0
   -7.8534   16.3689  -32.6348 H   0  0  0  0  0  0  0  0  0  0  0  0
   -9.6779   17.8772  -32.0387 H   0  0  0  0  0  0  0  0  0  0  0  0
  -10.5347   20.1924  -31.6871 H   0  0  0  0  0  0  0  0  0  0  0  0
   -9.0296   22.1507  -32.0038 H   0  0  0  0  0  0  0  0  0  0  0  0
  1  2  1  0
  2  3  1  0
  3  4  1  0
  3  5  1  0
  5  6  1  0
  6  7  1  0
  7  8  1  0
  8  9  2  0
  8 10  1  0
 10 11  1  0
 11 12  2  0
 12 13  1  0
 13 14  2  0
 14 15  1  0
 15 16  2  0
 16 17  1  0
 17 18  2  0
 18 19  1  0
 18 20  1  0
 20 21  2  0
 20  7  1  0
 19 10  2  0
 19 14  1  0
  1 22  1  0
  1 23  1  0
  1 24  1  0
  2 25  1  0
  2 26  1  0
  4 27  1  0
  4 28  1  0
  4 29  1  0
  5 30  1  0
  5 31  1  0
  6 32  1  0
  6 33  1  0
  7 34  1  0
 11 35  1  0
 12 36  1  0
 13 37  1  0
 15 38  1  0
 16 39  1  0
 17 40  1  0
M  CHG  1   7   1
M  END
>  <UniqueID>  (9) 
9

>  <SMILES>  (9) 
CCN(C)CC[NH+]1C(=O)c2cccc3cccc(c23)C1=O

>  <Energy>  (9) 
55.610774797094116

>  <Genealogy>  (9) 
CCN(C)CC[NH+]1C(=O)c2cccc3cccc(c23)C1=O (protonated)
CCN(C)CC[NH+]1C(=O)c2cccc3cccc(c23)C1=O (3D coordinates assigned)
CCN(C)CC[NH+]1C(=O)c2cccc3cccc(c23)C1=O (nonaromatic ring conformer: 55.610774797094116 kcal/mol)

>  <smiles>  (9) 
CCN(C)CCN1C(=O)c2cccc3cccc(c23)C1=O

>  <score_type>  (9) 
oracle

>  <origin>  (9) 
adg

>  <m_score__min__energy>  (9) 
-8.0899999999999999

>  <m_primary>  (9) 
energy

$$$$
9:0
     RDKit          3D

 47 49  0  0  0  0  0  0  0  0999 V2000
   -6.3170   17.3670  -33.7040 C   0  0  0  0  0  0  0  0  0  0  0  0
   -6.3340   18.7960  -33.2440 C   0  0  0  0  0  0  0  0  0  0  0  0
   -5.1770   19.5670  -33.3050 C   0  0  0  0  0  0  0  0  0  0  0  0
   -5.1600   20.8950  -32.8480 C   0  0  0  0  0  0  0  0  0  0  0  0
   -3.8930   21.6800  -33.0770 C   0  0  0  0  0  0  0  0  0  0  0  0
   -6.3390   21.4660  -32.2790 C   0  0  0  0  0  0  0  0  0  0  0  0
   -6.3280   23.1400  -31.6080 S   0  0  0  0  0  0  0  0  0  0  0  0
   -6.2170   24.1420  -32.7230 O   0  0  0  0  0  0  0  0  0  0  0  0
   -7.6320   23.4310  -30.9210 O   0  0  0  0  0  0  0  0  0  0  0  0
   -5.0340   23.4170  -30.4550 N   0  0  0  0  0  0  0  0  0  0  0  0
   -4.6430   22.1820  -29.7620 C   0  0  0  0  0  0  0  0  0  0  0  0
   -3.3070   22.4070  -29.0380 C   0  0  0  0  0  0  0  0  0  0  0  0
   -3.2080   23.7880  -28.5470 N   0  0  0  0  0  0  0  0  0  0  0  0
   -1.9480   24.4860  -28.5600 C   0  0  0  0  0  0  0  0  0  0  0  0
   -1.9040   25.6840  -28.9450 O   0  0  0  0  0  0  0  0  0  0  0  0
   -0.6910   23.8340  -28.1490 C   0  0  0  0  0  0  0  0  0  0  0  0
   -0.5560   22.5900  -27.5600 C   0  0  0  0  0  0  0  0  0  0  0  0
    0.7950   22.4270  -27.3410 C   0  0  0  0  0  0  0  0  0  0  0  0
    1.3990   23.5780  -27.8000 C   0  0  0  0  0  0  0  0  0  0  0  0
    0.4880   24.3980  -28.2720 O   0  0  0  0  0  0  0  0  0  0  0  0
   -4.4510   24.5150  -28.2700 C   0  0  0  0  0  0  0  0  0  0  0  0
   -5.3830   24.4900  -29.4990 C   0  0  0  0  0  0  0  0  0  0  0  0
   -7.5270   20.6710  -32.2430 C   0  0  0  0  0  0  0  0  0  0  0  0
   -8.8640   21.2040  -31.7900 C   0  0  0  0  0  0  0  0  0  0  0  0
   -7.4980   19.3480  -32.7140 C   0  0  0  0  0  0  0  0  0  0  0  0
   -6.3091   16.7003  -32.8291 H   0  0  0  0  0  0  0  0  0  0  0  0
   -7.2128   17.1662  -34.3100 H   0  0  0  0  0  0  0  0  0  0  0  0
   -5.4167   17.1875  -34.3100 H   0  0  0  0  0  0  0  0  0  0  0  0
   -4.2576   19.1276  -33.7193 H   0  0  0  0  0  0  0  0  0  0  0  0
   -3.4510   21.9538  -32.1076 H   0  0  0  0  0  0  0  0  0  0  0  0
   -3.1788   21.0659  -33.6452 H   0  0  0  0  0  0  0  0  0  0  0  0
   -4.1249   22.5929  -33.6452 H   0  0  0  0  0  0  0  0  0  0  0  0
   -5.4171   21.9112  -29.0289 H   0  0  0  0  0  0  0  0  0  0  0  0
   -4.5330   21.3680  -30.4937 H   0  0  0  0  0  0  0  0  0  0  0  0
   -3.2372   21.7150  -28.1858 H   0  0  0  0  0  0  0  0  0  0  0  0
   -2.4858   22.2242  -29.7467 H   0  0  0  0  0  0  0  0  0  0  0  0
   -1.3593   21.8789  -27.3170 H   0  0  0  0  0  0  0  0  0  0  0  0
    1.2911   21.5545  -26.8908 H   0  0  0  0  0  0  0  0  0  0  0  0
    2.4801   23.7792  -27.7748 H   0  0  0  0  0  0  0  0  0  0  0  0
   -4.9633   24.0430  -27.4187 H   0  0  0  0  0  0  0  0  0  0  0  0
   -4.2040   25.5608  -28.0348 H   0  0  0  0  0  0  0  0  0  0  0  0
   -6.4159   24.3331  -29.1548 H   0  0  0  0  0  0  0  0  0  0  0  0
   -5.2714   25.4515  -30.0216 H   0  0  0  0  0  0  0  0  0  0  0  0
   -8.8997   21.2182  -30.6907 H   0  0  0  0  0  0  0  0  0  0  0  0
   -9.0009   22.2255  -32.1745 H   0  0  0  0  0  0  0  0  0  0  0  0
   -9.6661   20.5569  -32.1745 H   0  0  0  0  0  0  0  0  0  0  0  0
   -8.4111   18.7367  -32.6634 H   0  0  0  0  0  0  0  0  0  0  0  0
  1  2  1  0
  2  3  2  0
  3  4  1  0
  4  5  1  0
  4  6  2  0
  6  7  1  0
  7  8  2  0
  7  9  2  0
  7 10  1  0
 10 11  1  0
 11 12  1  0
 12 13  1  0
 13 14  1  0
 14 15  2  0
 14 16  1  0
 16 17  2  0
 17 18  1  0
 18 19  2  0
 19 20  1  0
 13 21  1  0
 21 22  1  0
  6 23  1  0
 23 24  1  0
 23 25  2  0
 25  2  1  0
 22 10  1  0
 20 16  1  0
  1 26  1  0
  1 27  1  0
  1 28  1  0
  3 29  1  0
  5 30  1  0
  5 31  1  0
  5 32  1  0
 11 33  1  0
 11 34  1  0
 12 35  1  0
 12 36  1  0
 17 37  1  0
 18 38  1  0
 19 39  1  0
 21 40  1  0
 21 41  1  0
 22 42  1  0
 22 43  1  0
 24 44  1  0
 24 45  1  0
 24 46  1  0
 25 47  1  0
M  END
>  <UniqueID>  (10) 
10

>  <SMILES>  (10) 
Cc1cc(C)c(S(=O)(=O)N2CCN(C(=O)c3ccco3)CC2)c(C)c1

>  <Energy>  (10) 
90.4948656476076

>  <Genealogy>  (10) 
Cc1cc(C)c(S(=O)(=O)N2CCN(C(=O)c3ccco3)CC2)c(C)c1 (3D coordinates assigned)
Cc1cc(C)c(S(=O)(=O)N2CCN(C(=O)c3ccco3)CC2)c(C)c1 (nonaromatic ring conformer: 90.4948656476076 kcal/mol)

>  <smiles>  (10) 
Cc1cc(C)c(S(=O)(=O)N2CCN(C(=O)c3ccco3)CC2)c(C)c1

>  <score_type>  (10) 
oracle

>  <origin>  (10) 
adg

>  <m_score__min__energy>  (10) 
-9.0999999999999996

>  <m_primary>  (10) 
energy

$$$$
10:0
     RDKit          3D

 36 38  0  0  0  0  0  0  0  0999 V2000
   -4.5650   25.1130  -30.8460 N   0  0  0  0  0  0  0  0  0  0  0  0
   -4.1200   24.1390  -30.4070 C   0  0  0  0  0  0  0  0  0  0  0  0
   -3.5620   22.9260  -29.8590 C   0  0  0  0  0  0  0  0  0  0  0  0
   -3.5690   22.7610  -28.4670 C   0  0  0  0  0  0  0  0  0  0  0  0
   -3.0550   21.5980  -27.8910 C   0  0  0  0  0  0  0  0  0  0  0  0
   -2.5280   20.5920  -28.7000 C   0  0  0  0  0  0  0  0  0  0  0  0
   -2.5150   20.7420  -30.0890 C   0  0  0  0  0  0  0  0  0  0  0  0
   -3.0310   21.9050  -30.6870 C   0  0  0  0  0  0  0  0  0  0  0  0
   -3.0490   21.9940  -32.1970 C   0  0  0  0  0  0  0  0  0  0  0  0
   -2.4290   20.4480  -32.9570 S   0  0  0  0  0  0  0  0  0  0  0  0
   -4.0310   19.6450  -32.9860 C   0  0  0  0  0  0  0  0  0  0  0  0
   -5.1320   20.3420  -32.6110 N   0  0  0  0  0  0  0  0  0  0  0  0
   -6.3750   19.8010  -32.6780 C   0  0  0  0  0  0  0  0  0  0  0  0
   -7.5360   20.6400  -32.3130 C   0  0  0  0  0  0  0  0  0  0  0  0
   -7.5290   21.9800  -31.9270 C   0  0  0  0  0  0  0  0  0  0  0  0
   -8.8040   22.4780  -31.6320 C   0  0  0  0  0  0  0  0  0  0  0  0
   -9.8200   21.5430  -31.7800 C   0  0  0  0  0  0  0  0  0  0  0  0
   -9.1300   20.0970  -32.2790 S   0  0  0  0  0  0  0  0  0  0  0  0
   -6.5190   18.4810  -33.1280 C   0  0  0  0  0  0  0  0  0  0  0  0
   -5.3720   17.7550  -33.4820 C   0  0  0  0  0  0  0  0  0  0  0  0
   -5.4970   16.3550  -34.0250 C   0  0  0  0  0  0  0  0  0  0  0  0
   -4.5370   16.1210  -34.9920 F   0  0  0  0  0  0  0  0  0  0  0  0
   -5.3310   15.4220  -33.0150 F   0  0  0  0  0  0  0  0  0  0  0  0
   -6.7500   16.1940  -34.5860 F   0  0  0  0  0  0  0  0  0  0  0  0
   -4.1530   18.3640  -33.4270 N   0  0  0  0  0  0  0  0  0  0  0  0
   -3.9820   23.5527  -27.8247 H   0  0  0  0  0  0  0  0  0  0  0  0
   -3.0657   21.4750  -26.7979 H   0  0  0  0  0  0  0  0  0  0  0  0
   -2.1213   19.6776  -28.2433 H   0  0  0  0  0  0  0  0  0  0  0  0
   -2.0976   19.9435  -30.7199 H   0  0  0  0  0  0  0  0  0  0  0  0
   -4.0810   22.1710  -32.5340 H   0  0  0  0  0  0  0  0  0  0  0  0
   -2.3936   22.8218  -32.5056 H   0  0  0  0  0  0  0  0  0  0  0  0
   -6.6130   22.5855  -31.8609 H   0  0  0  0  0  0  0  0  0  0  0  0
   -8.9843   23.5150  -31.3123 H   0  0  0  0  0  0  0  0  0  0  0  0
  -10.8909   21.7195  -31.6012 H   0  0  0  0  0  0  0  0  0  0  0  0
   -7.5158   18.0218  -33.2023 H   0  0  0  0  0  0  0  0  0  0  0  0
   -3.2940   17.8540  -33.7360 H   0  0  0  0  0  0  0  0  0  0  0  0
  1  2  3  0
  2  3  1  0
  3  4  2  0
  4  5  1  0
  5  6  2  0
  6  7  1  0
  7  8  2  0
  8  9  1  0
  9 10  1  0
 10 11  1  0
 11 12  2  0
 12 13  1  0
 13 14  1  0
 14 15  2  0
 15 16  1  0
 16 17  2  0
 17 18  1  0
 13 19  2  0
 19 20  1  0
 20 21  1  0
 21 22  1  0
 21 23  1  0
 21 24  1  0
 20 25  2  0
  8  3  1  0
 25 11  1  0
 18 14  1  0
  4 26  1  0
  5 27  1  0
  6 28  1  0
  7 29  1  0
  9 30  1  0
  9 31  1  0
 15 32  1  0
 16 33  1  0
 17 34  1  0
 19 35  1  0
 25 36  1  0
M  CHG  1  25   1
M  END
>  <UniqueID>  (11) 
11

>  <SMILES>  (11) 
N#Cc1ccccc1CSc1nc(-c2cccs2)cc(C(F)(F)F)[nH+]1

>  <Energy>  (11) 
59.5484083695594

>  <Genealogy>  (11) 
N#Cc1ccccc1CSc1nc(-c2cccs2)cc(C(F)(F)F)[nH+]1 (protonated)
N#Cc1ccccc1CSc1nc(-c2cccs2)cc(C(F)(F)F)[nH+]1 (3D coordinates assigned)
N#Cc1ccccc1CSc1nc(-c2cccs2)cc(C(F)(F)F)[nH+]1 (optimized conformer: 59.5484083695594 kcal/mol)

>  <smiles>  (11) 
N#Cc1ccccc1CSc1nc(-c2cccs2)cc(C(F)(F)F)n1

>  <score_type>  (11) 
oracle

>  <origin>  (11) 
adg

>  <m_score__min__energy>  (11) 
-7.1200000000000001

>  <m_primary>  (11) 
energy

$$$$
11:0
     RDKit          3D

 52 54  0  0  0  0  0  0  0  0999 V2000
   -9.1360   23.2750  -31.9690 C   0  0  0  0  0  0  0  0  0  0  0  0
   -8.6270   21.8610  -32.0570 C   0  0  0  0  0  0  0  0  0  0  0  0
   -9.5430   20.8210  -32.2740 C   0  0  0  0  0  0  0  0  0  0  0  0
   -9.1040   19.5030  -32.3610 C   0  0  0  0  0  0  0  0  0  0  0  0
   -7.7420   19.2190  -32.2200 C   0  0  0  0  0  0  0  0  0  0  0  0
   -7.2590   17.8000  -32.3520 C   0  0  0  0  0  0  0  0  0  0  0  0
   -5.7860   17.7760  -32.4810 N   0  0  0  0  0  0  0  0  0  0  0  0
   -5.2720   16.4110  -32.2720 C   0  0  0  0  0  0  0  0  0  0  0  0
   -5.3580   18.2810  -33.8020 C   0  0  0  0  0  0  0  0  0  0  0  0
   -4.1170   19.1230  -33.6630 C   0  0  0  0  0  0  0  0  0  0  0  0
   -4.2280   20.4990  -33.3990 C   0  0  0  0  0  0  0  0  0  0  0  0
   -3.0800   21.2900  -33.2880 C   0  0  0  0  0  0  0  0  0  0  0  0
   -1.8160   20.7140  -33.4370 C   0  0  0  0  0  0  0  0  0  0  0  0
   -1.6970   19.3460  -33.6990 C   0  0  0  0  0  0  0  0  0  0  0  0
   -2.8420   18.5510  -33.8120 C   0  0  0  0  0  0  0  0  0  0  0  0
   -6.8570   20.2350  -32.0140 N   0  0  0  0  0  0  0  0  0  0  0  0
   -7.2510   21.5410  -31.9350 C   0  0  0  0  0  0  0  0  0  0  0  0
   -6.1860   22.5960  -31.7280 C   0  0  0  0  0  0  0  0  0  0  0  0
   -6.1330   22.9970  -30.3030 N   0  0  0  0  0  0  0  0  0  0  0  0
   -4.8120   22.7440  -29.6910 C   0  0  0  0  0  0  0  0  0  0  0  0
   -3.7490   23.7780  -30.1340 C   0  0  0  0  0  0  0  0  0  0  0  0
   -4.3040   24.8590  -30.8590 O   0  0  0  0  0  0  0  0  0  0  0  0
   -5.3940   25.4000  -30.1480 C   0  0  0  0  0  0  0  0  0  0  0  0
   -6.5640   24.3980  -30.0860 C   0  0  0  0  0  0  0  0  0  0  0  0
   -9.2394   23.5624  -30.9122 H   0  0  0  0  0  0  0  0  0  0  0  0
   -8.4252   23.9521  -32.4652 H   0  0  0  0  0  0  0  0  0  0  0  0
  -10.1153   23.3437  -32.4652 H   0  0  0  0  0  0  0  0  0  0  0  0
  -10.6144   21.0484  -32.3760 H   0  0  0  0  0  0  0  0  0  0  0  0
   -9.8235   18.6903  -32.5395 H   0  0  0  0  0  0  0  0  0  0  0  0
   -7.5556   17.2299  -31.4593 H   0  0  0  0  0  0  0  0  0  0  0  0
   -7.7070   17.3485  -33.2495 H   0  0  0  0  0  0  0  0  0  0  0  0
   -5.1959   16.2090  -31.1934 H   0  0  0  0  0  0  0  0  0  0  0  0
   -5.9587   15.6860  -32.7333 H   0  0  0  0  0  0  0  0  0  0  0  0
   -4.2776   16.3190  -32.7333 H   0  0  0  0  0  0  0  0  0  0  0  0
   -5.1461   17.4291  -34.4648 H   0  0  0  0  0  0  0  0  0  0  0  0
   -6.1632   18.8982  -34.2271 H   0  0  0  0  0  0  0  0  0  0  0  0
   -5.2216   20.9555  -33.2792 H   0  0  0  0  0  0  0  0  0  0  0  0
   -3.1724   22.3668  -33.0832 H   0  0  0  0  0  0  0  0  0  0  0  0
   -0.9139   21.3372  -33.3481 H   0  0  0  0  0  0  0  0  0  0  0  0
   -0.7010   18.8941  -33.8165 H   0  0  0  0  0  0  0  0  0  0  0  0
   -2.7444   17.4749  -34.0181 H   0  0  0  0  0  0  0  0  0  0  0  0
   -5.8410   20.0080  -31.9230 H   0  0  0  0  0  0  0  0  0  0  0  0
   -5.2088   22.1894  -32.0276 H   0  0  0  0  0  0  0  0  0  0  0  0
   -6.4299   23.4770  -32.3398 H   0  0  0  0  0  0  0  0  0  0  0  0
   -4.9150   22.7898  -28.5968 H   0  0  0  0  0  0  0  0  0  0  0  0
   -4.4732   21.7514  -30.0226 H   0  0  0  0  0  0  0  0  0  0  0  0
   -3.2502   24.1752  -29.2377 H   0  0  0  0  0  0  0  0  0  0  0  0
   -3.0418   23.2614  -30.7995 H   0  0  0  0  0  0  0  0  0  0  0  0
   -5.0719   25.6410  -29.1242 H   0  0  0  0  0  0  0  0  0  0  0  0
   -5.7362   26.3072  -30.6674 H   0  0  0  0  0  0  0  0  0  0  0  0
   -7.0368   24.4707  -29.0954 H   0  0  0  0  0  0  0  0  0  0  0  0
   -7.2650   24.6574  -30.8931 H   0  0  0  0  0  0  0  0  0  0  0  0
  1  2  1  0
  2  3  2  0
  3  4  1  0
  4  5  2  0
  5  6  1  0
  6  7  1  0
  7  8  1  0
  7  9  1  0
  9 10  1  0
 10 11  2  0
 11 12  1  0
 12 13  2  0
 13 14  1  0
 14 15  2  0
  5 16  1  0
 16 17  2  0
 17 18  1  0
 18 19  1  0
 19 20  1  0
 20 21  1  0
 21 22  1  0
 22 23  1  0
 23 24  1  0
 17  2  1  0
 24 19  1  0
 15 10  1  0
  1 25  1  0
  1 26  1  0
  1 27  1  0
  3 28  1  0
  4 29  1  0
  6 30  1  0
  6 31  1  0
  8 32  1  0
  8 33  1  0
  8 34  1  0
  9 35  1  0
  9 36  1  0
 11 37  1  0
 12 38  1  0
 13 39  1  0
 14 40  1  0
 15 41  1  0
 16 42  1  0
 18 43  1  0
 18 44  1  0
 20 45  1  0
 20 46  1  0
 21 47  1  0
 21 48  1  0
 23 49  1  0
 23 50  1  0
 24 51  1  0
 24 52  1  0
M  CHG  1  16   1
M  END
>  <UniqueID>  (12) 
12

>  <SMILES>  (12) 
Cc1ccc(CN(C)Cc2ccccc2)[nH+]c1CN1CCOCC1

>  <Energy>  (12) 
65.78292618682869

>  <Genealogy>  (12) 
Cc1ccc(CN(C)Cc2ccccc2)[nH+]c1CN1CCOCC1 (protonated)
Cc1ccc(CN(C)Cc2ccccc2)[nH+]c1CN1CCOCC1 (3D coordinates assigned)
Cc1ccc(CN(C)Cc2ccccc2)[nH+]c1CN1CCOCC1 (nonaromatic ring conformer: 65.78292618682869 kcal/mol)

>  <smiles>  (12) 
Cc1ccc(CN(C)Cc2ccccc2)nc1CN1CCOCC1

>  <score_type>  (12) 
oracle

>  <origin>  (12) 
adg

>  <m_score__min__energy>  (12) 
-8.3200000000000003

>  <m_primary>  (12) 
energy

$$$$
12:0
     RDKit          3D

 77 81  0  0  0  0  0  0  0  0999 V2000
   -4.6470   23.8150  -32.3690 H   0  0  0  0  0  0  0  0  0  0  0  0
   -4.5210   22.9050  -32.8010 O   0  0  0  0  0  0  0  0  0  0  0  0
   -3.6050   21.9630  -32.3240 C   0  0  0  0  0  0  0  0  0  0  0  0
   -3.6270   20.6510  -32.8550 C   0  0  0  0  0  0  0  0  0  0  0  0
   -4.8130   20.1230  -33.4500 C   0  0  0  0  0  0  0  0  0  0  0  0
   -6.0960   20.7370  -33.1850 N   0  0  0  0  0  0  0  0  0  0  0  0
   -6.1040   21.6880  -32.7560 H   0  0  0  0  0  0  0  0  0  0  0  0
   -7.3950   20.0640  -33.2040 C   0  0  0  0  0  0  0  0  0  0  0  0
   -8.0574   20.5905  -33.9069 H   0  0  0  0  0  0  0  0  0  0  0  0
   -7.2327   19.0214  -33.5148 H   0  0  0  0  0  0  0  0  0  0  0  0
   -8.0560   20.0480  -31.8170 C   0  0  0  0  0  0  0  0  0  0  0  0
   -8.4441   19.0367  -31.6253 H   0  0  0  0  0  0  0  0  0  0  0  0
   -7.2895   20.3395  -31.0838 H   0  0  0  0  0  0  0  0  0  0  0  0
   -9.2140   21.0480  -31.6930 C   0  0  0  0  0  0  0  0  0  0  0  0
   -9.6446   21.2322  -32.6883 H   0  0  0  0  0  0  0  0  0  0  0  0
   -9.9825   20.6303  -31.0260 H   0  0  0  0  0  0  0  0  0  0  0  0
   -8.7220   22.3220  -31.1290 N   0  0  0  0  0  0  0  0  0  0  0  0
   -7.4820   22.1120  -30.3550 C   0  0  0  0  0  0  0  0  0  0  0  0
   -7.7212   21.5774  -29.4239 H   0  0  0  0  0  0  0  0  0  0  0  0
   -6.7786   21.5197  -30.9587 H   0  0  0  0  0  0  0  0  0  0  0  0
   -6.8350   23.4600  -30.0130 C   0  0  0  0  0  0  0  0  0  0  0  0
   -7.5469   24.0516  -29.4187 H   0  0  0  0  0  0  0  0  0  0  0  0
   -5.9114   23.2531  -29.4525 H   0  0  0  0  0  0  0  0  0  0  0  0
   -6.4640   24.2350  -31.2160 N   0  0  0  0  0  0  0  0  0  0  0  0
   -5.4310   24.1510  -31.3660 H   0  0  0  0  0  0  0  0  0  0  0  0
   -7.1400   23.7850  -32.4440 C   0  0  0  0  0  0  0  0  0  0  0  0
   -7.1279   24.6026  -33.1797 H   0  0  0  0  0  0  0  0  0  0  0  0
   -6.6061   22.9047  -32.8312 H   0  0  0  0  0  0  0  0  0  0  0  0
   -8.5980   23.3840  -32.1650 C   0  0  0  0  0  0  0  0  0  0  0  0
   -9.1466   24.2737  -31.8222 H   0  0  0  0  0  0  0  0  0  0  0  0
   -9.0127   22.9805  -33.1005 H   0  0  0  0  0  0  0  0  0  0  0  0
   -4.7440   18.8890  -34.1220 C   0  0  0  0  0  0  0  0  0  0  0  0
   -5.6353   18.5015  -34.6372 H   0  0  0  0  0  0  0  0  0  0  0  0
   -3.5710   18.1560  -34.1440 C   0  0  0  0  0  0  0  0  0  0  0  0
   -3.5309   17.2159  -34.7138 H   0  0  0  0  0  0  0  0  0  0  0  0
   -2.4380   18.5900  -33.4550 C   0  0  0  0  0  0  0  0  0  0  0  0
   -1.4050   17.6170  -33.2670 N   0  0  0  0  0  0  0  0  0  0  0  0
   -1.2070   17.0450  -32.1180 C   0  0  0  0  0  0  0  0  0  0  0  0
   -2.0202   17.0189  -31.3777 H   0  0  0  0  0  0  0  0  0  0  0  0
    0.1100   16.4220  -31.7880 C   0  0  0  0  0  0  0  0  0  0  0  0
   -0.0609   15.4517  -31.2988 H   0  0  0  0  0  0  0  0  0  0  0  0
    0.6807   16.2822  -32.7179 H   0  0  0  0  0  0  0  0  0  0  0  0
    0.9090   17.3260  -30.8480 C   0  0  0  0  0  0  0  0  0  0  0  0
    1.6683   16.7287  -30.3221 H   0  0  0  0  0  0  0  0  0  0  0  0
    1.4043   18.1161  -31.4315 H   0  0  0  0  0  0  0  0  0  0  0  0
   -0.0030   17.9390  -29.8640 N   0  0  0  0  0  0  0  0  0  0  0  0
   -0.0650   18.9690  -30.0520 H   0  0  0  0  0  0  0  0  0  0  0  0
    0.4110   17.7360  -28.4670 C   0  0  0  0  0  0  0  0  0  0  0  0
    0.3751   16.6645  -28.2209 H   0  0  0  0  0  0  0  0  0  0  0  0
    1.4393   18.0985  -28.3212 H   0  0  0  0  0  0  0  0  0  0  0  0
   -0.5480   18.5040  -27.5640 C   0  0  0  0  0  0  0  0  0  0  0  0
   -1.2695   17.8034  -27.1184 H   0  0  0  0  0  0  0  0  0  0  0  0
    0.0248   19.0035  -26.7688 H   0  0  0  0  0  0  0  0  0  0  0  0
   -1.2380   19.4690  -28.3120 O   0  0  0  0  0  0  0  0  0  0  0  0
   -0.5820   19.8180  -28.9720 H   0  0  0  0  0  0  0  0  0  0  0  0
   -2.4430   19.8670  -32.8110 C   0  0  0  0  0  0  0  0  0  0  0  0
   -1.3010   20.3980  -32.1370 C   0  0  0  0  0  0  0  0  0  0  0  0
    0.0960   19.9570  -32.5000 C   0  0  0  0  0  0  0  0  0  0  0  0
    0.6733   19.7748  -31.5815 H   0  0  0  0  0  0  0  0  0  0  0  0
    0.0461   19.0309  -33.0915 H   0  0  0  0  0  0  0  0  0  0  0  0
    0.5868   20.7439  -33.0915 H   0  0  0  0  0  0  0  0  0  0  0  0
   -1.4810   21.4740  -31.2260 C   0  0  0  0  0  0  0  0  0  0  0  0
   -0.5700   21.7190  -30.1640 C   0  0  0  0  0  0  0  0  0  0  0  0
    0.5080   20.8680  -29.9310 O   0  0  0  0  0  0  0  0  0  0  0  0
   -0.7930   22.7750  -29.2670 C   0  0  0  0  0  0  0  0  0  0  0  0
    0.0520   22.9590  -28.1540 C   0  0  0  0  0  0  0  0  0  0  0  0
    0.9139   22.2914  -28.0072 H   0  0  0  0  0  0  0  0  0  0  0  0
   -0.1960   23.9820  -27.2360 C   0  0  0  0  0  0  0  0  0  0  0  0
    0.4563   24.1047  -26.3588 H   0  0  0  0  0  0  0  0  0  0  0  0
   -1.2730   24.8490  -27.4330 C   0  0  0  0  0  0  0  0  0  0  0  0
   -1.4561   25.6642  -26.7175 H   0  0  0  0  0  0  0  0  0  0  0  0
   -2.1180   24.6880  -28.5310 C   0  0  0  0  0  0  0  0  0  0  0  0
   -2.9585   25.3814  -28.6819 H   0  0  0  0  0  0  0  0  0  0  0  0
   -1.8990   23.6400  -29.4480 C   0  0  0  0  0  0  0  0  0  0  0  0
   -2.8100   23.4050  -30.4880 C   0  0  0  0  0  0  0  0  0  0  0  0
   -3.9300   24.2260  -30.5920 O   0  0  0  0  0  0  0  0  0  0  0  0
   -2.6230   22.3080  -31.3660 C   0  0  0  0  0  0  0  0  0  0  0  0
  1  2  1  0
  2  3  1  0
  3  4  2  0
  4  5  1  0
  5  6  1  0
  6  7  1  0
  6  8  1  0
  8  9  1  0
  8 10  1  0
  8 11  1  0
 11 12  1  0
 11 13  1  0
 11 14  1  0
 14 15  1  0
 14 16  1  0
 14 17  1  0
 17 18  1  0
 18 19  1  0
 18 20  1  0
 18 21  1  0
 21 22  1  0
 21 23  1  0
 21 24  1  0
 24 25  1  0
 24 26  1  0
 26 27  1  0
 26 28  1  0
 26 29  1  0
 29 30  1  0
 29 31  1  0
  5 32  2  0
 32 33  1  0
 32 34  1  0
 34 35  1  0
 34 36  2  0
 36 37  1  0
 37 38  2  0
 38 39  1  0
 38 40  1  0
 40 41  1  0
 40 42  1  0
 40 43  1  0
 43 44  1  0
 43 45  1  0
 43 46  1  0
 46 47  1  0
 46 48  1  0
 48 49  1  0
 48 50  1  0
 48 51  1  0
 51 52  1  0
 51 53  1  0
 51 54  1  0
 54 55  1  0
 36 56  1  0
 56 57  2  0
 57 58  1  0
 58 59  1  0
 58 60  1  0
 58 61  1  0
 57 62  1  0
 62 63  2  0
 63 64  1  0
 63 65  1  0
 65 66  2  0
 66 67  1  0
 66 68  1  0
 68 69  1  0
 68 70  2  0
 70 71  1  0
 70 72  1  0
 72 73  1  0
 72 74  2  0
 74 75  1  0
 75 76  1  0
 75 77  2  0
 77  3  1  0
 56  4  1  0
 77 62  1  0
 29 17  1  0
 74 65  1  0
M  CHG  2  64  -1  76  -1
M  END
>  <UniqueID>  (13) 
13

>  <SMILES>  (13) 
Cc1c2c(/N=C/CCNCCO)ccc(NCCCN3CCNCC3)c2c(O)c2c([O-])c3ccccc3c([O-])c12

>  <Energy>  (13) 
147.24577624335157

>  <Genealogy>  (13) 
Cc1c2c(N=CCCNCCO)ccc(NCCCN3CCNCC3)c2c(O)c2c([O-])c3ccccc3c([O-])c12 (protonated)
Cc1c2c(/N=C/CCNCCO)ccc(NCCCN3CCNCC3)c2c(O)c2c([O-])c3ccccc3c([O-])c12 (cis-trans isomerization)
Cc1c2c(/N=C/CCNCCO)ccc(NCCCN3CCNCC3)c2c(O)c2c([O-])c3ccccc3c([O-])c12 (3D coordinates assigned)
Cc1c2c(/N=C/CCNCCO)ccc(NCCCN3CCNCC3)c2c(O)c2c([O-])c3ccccc3c([O-])c12 (nonaromatic ring conformer: 147.24577624335157 kcal/mol)

>  <smiles>  (13) 
Cc1c2c(N=CCCNCCO)ccc(NCCCN3CCNCC3)c2c(O)c2c(O)c3ccccc3c(O)c12

>  <score_type>  (13) 
oracle

>  <origin>  (13) 
adg

>  <m_score__min__energy>  (13) 
-11.880000000000001

>  <m_primary>  (13) 
energy

$$$$
13:0
     RDKit          3D

 67 71  0  0  0  0  0  0  0  0999 V2000
   -0.4770   26.8040  -22.9870 C   0  0  0  0  0  0  0  0  0  0  0  0
   -1.5670   26.7090  -23.8970 O   0  0  0  0  0  0  0  0  0  0  0  0
   -1.4300   26.5110  -25.2790 C   0  0  0  0  0  0  0  0  0  0  0  0
   -0.6740   27.4330  -26.0100 C   0  0  0  0  0  0  0  0  0  0  0  0
   -0.4940   27.2700  -27.3860 C   0  0  0  0  0  0  0  0  0  0  0  0
   -1.0760   26.1850  -28.0460 C   0  0  0  0  0  0  0  0  0  0  0  0
   -1.8510   25.2550  -27.3350 C   0  0  0  0  0  0  0  0  0  0  0  0
   -2.4380   24.1250  -28.0100 N   0  0  0  0  0  0  0  0  0  0  0  0
   -3.6990   24.2760  -28.7460 C   0  0  0  0  0  0  0  0  0  0  0  0
   -3.8800   23.1330  -29.7500 C   0  0  0  0  0  0  0  0  0  0  0  0
   -2.5780   22.8200  -30.3720 N   0  0  0  0  0  0  0  0  0  0  0  0
   -2.7650   21.9300  -31.5390 C   0  0  0  0  0  0  0  0  0  0  0  0
   -4.0050   22.3290  -32.3520 C   0  0  0  0  0  0  0  0  0  0  0  0
   -4.9750   21.2190  -32.3920 N   0  0  0  0  0  0  0  0  0  0  0  0
   -4.5080   19.8750  -32.6320 C   0  0  0  0  0  0  0  0  0  0  0  0
   -3.2730   19.6480  -32.7660 O   0  0  0  0  0  0  0  0  0  0  0  0
   -5.5170   18.7480  -32.8030 C   0  0  0  0  0  0  0  0  0  0  0  0
   -6.0480   18.7600  -34.2830 C   0  0  0  0  0  0  0  0  0  0  0  0
   -6.1130   17.3730  -34.9490 C   0  0  0  0  0  0  0  0  0  0  0  0
   -6.6360   16.3110  -33.9800 C   0  0  0  0  0  0  0  0  0  0  0  0
   -5.7470   16.1720  -32.7280 C   0  0  0  0  0  0  0  0  0  0  0  0
   -4.8260   17.3840  -32.4900 C   0  0  0  0  0  0  0  0  0  0  0  0
   -6.6300   18.9560  -31.8400 N   0  0  0  0  0  0  0  0  0  0  0  0
   -7.2080   20.2810  -31.9080 C   0  0  0  0  0  0  0  0  0  0  0  0
   -8.5790   20.4550  -31.6460 C   0  0  0  0  0  0  0  0  0  0  0  0
   -9.1410   21.7290  -31.6210 C   0  0  0  0  0  0  0  0  0  0  0  0
   -8.3390   22.8480  -31.8340 C   0  0  0  0  0  0  0  0  0  0  0  0
   -6.9730   22.6980  -32.0770 C   0  0  0  0  0  0  0  0  0  0  0  0
   -6.3860   21.4130  -32.1190 C   0  0  0  0  0  0  0  0  0  0  0  0
   -1.6290   22.2380  -29.3860 C   0  0  0  0  0  0  0  0  0  0  0  0
   -1.8070   22.8020  -27.9630 C   0  0  0  0  0  0  0  0  0  0  0  0
   -2.0190   25.4190  -25.9480 C   0  0  0  0  0  0  0  0  0  0  0  0
   -0.8568   26.7709  -21.9552 H   0  0  0  0  0  0  0  0  0  0  0  0
    0.2122   25.9625  -23.1512 H   0  0  0  0  0  0  0  0  0  0  0  0
    0.0562   27.7520  -23.1512 H   0  0  0  0  0  0  0  0  0  0  0  0
   -0.2177   28.2929  -25.4979 H   0  0  0  0  0  0  0  0  0  0  0  0
    0.1073   27.9976  -27.9508 H   0  0  0  0  0  0  0  0  0  0  0  0
   -0.9263   26.0587  -29.1284 H   0  0  0  0  0  0  0  0  0  0  0  0
   -4.5366   24.2665  -28.0331 H   0  0  0  0  0  0  0  0  0  0  0  0
   -3.6762   25.2289  -29.2951 H   0  0  0  0  0  0  0  0  0  0  0  0
   -4.2618   22.2428  -29.2286 H   0  0  0  0  0  0  0  0  0  0  0  0
   -4.5970   23.4352  -30.5275 H   0  0  0  0  0  0  0  0  0  0  0  0
   -1.8770   21.9947  -32.1849 H   0  0  0  0  0  0  0  0  0  0  0  0
   -2.9059   20.9023  -31.1728 H   0  0  0  0  0  0  0  0  0  0  0  0
   -4.4773   23.2059  -31.8851 H   0  0  0  0  0  0  0  0  0  0  0  0
   -3.6949   22.5679  -33.3800 H   0  0  0  0  0  0  0  0  0  0  0  0
   -7.0613   19.1881  -34.2811 H   0  0  0  0  0  0  0  0  0  0  0  0
   -5.3311   19.3548  -34.8680 H   0  0  0  0  0  0  0  0  0  0  0  0
   -6.7843   17.4251  -35.8189 H   0  0  0  0  0  0  0  0  0  0  0  0
   -5.0957   17.0893  -35.2566 H   0  0  0  0  0  0  0  0  0  0  0  0
   -7.6516   16.5907  -33.6633 H   0  0  0  0  0  0  0  0  0  0  0  0
   -6.6306   15.3446  -34.5053 H   0  0  0  0  0  0  0  0  0  0  0  0
   -6.3986   16.0523  -31.8499 H   0  0  0  0  0  0  0  0  0  0  0  0
   -5.0975   15.2988  -32.8880 H   0  0  0  0  0  0  0  0  0  0  0  0
   -4.5126   17.3840  -31.4356 H   0  0  0  0  0  0  0  0  0  0  0  0
   -3.9700   17.2851  -33.1737 H   0  0  0  0  0  0  0  0  0  0  0  0
   -6.2840   18.8210  -30.8600 H   0  0  0  0  0  0  0  0  0  0  0  0
   -7.3780   18.2440  -32.0100 H   0  0  0  0  0  0  0  0  0  0  0  0
   -9.2135   19.5761  -31.4590 H   0  0  0  0  0  0  0  0  0  0  0  0
  -10.2179   21.8517  -31.4331 H   0  0  0  0  0  0  0  0  0  0  0  0
   -8.7842   23.8536  -31.8106 H   0  0  0  0  0  0  0  0  0  0  0  0
   -6.3472   23.5883  -32.2374 H   0  0  0  0  0  0  0  0  0  0  0  0
   -1.7844   21.1496  -29.3522 H   0  0  0  0  0  0  0  0  0  0  0  0
   -0.6134   22.5014  -29.7164 H   0  0  0  0  0  0  0  0  0  0  0  0
   -2.4417   22.1188  -27.3796 H   0  0  0  0  0  0  0  0  0  0  0  0
   -0.8177   22.8963  -27.4914 H   0  0  0  0  0  0  0  0  0  0  0  0
   -2.6150   24.6889  -25.3807 H   0  0  0  0  0  0  0  0  0  0  0  0
  1  2  1  0
  2  3  1  0
  3  4  2  0
  4  5  1  0
  5  6  2  0
  6  7  1  0
  7  8  1  0
  8  9  1  0
  9 10  1  0
 10 11  1  0
 11 12  1  0
 12 13  1  0
 13 14  1  0
 14 15  1  0
 15 16  2  0
 15 17  1  0
 17 18  1  0
 18 19  1  0
 19 20  1  0
 20 21  1  0
 21 22  1  0
 17 23  1  0
 23 24  1  0
 24 25  2  0
 25 26  1  0
 26 27  2  0
 27 28  1  0
 28 29  2  0
 11 30  1  0
 30 31  1  0
  7 32  2  0
 32  3  1  0
 31  8  1  0
 29 14  1  0
 22 17  1  0
 29 24  1  0
  1 33  1  0
  1 34  1  0
  1 35  1  0
  4 36  1  0
  5 37  1  0
  6 38  1  0
  9 39  1  0
  9 40  1  0
 10 41  1  0
 10 42  1  0
 12 43  1  0
 12 44  1  0
 13 45  1  0
 13 46  1  0
 18 47  1  0
 18 48  1  0
 19 49  1  0
 19 50  1  0
 20 51  1  0
 20 52  1  0
 21 53  1  0
 21 54  1  0
 22 55  1  0
 22 56  1  0
 23 57  1  0
 23 58  1  0
 25 59  1  0
 26 60  1  0
 27 61  1  0
 28 62  1  0
 30 63  1  0
 30 64  1  0
 31 65  1  0
 31 66  1  0
 32 67  1  0
M  CHG  1  23   1
M  END
>  <UniqueID>  (14) 
14

>  <SMILES>  (14) 
COc1cccc(N2CCN(CCN3C(=O)C4(CCCCC4)[NH2+]c4ccccc43)CC2)c1

>  <Energy>  (14) 
94.18415390148084

>  <Genealogy>  (14) 
COc1cccc(N2CCN(CCN3C(=O)C4(CCCCC4)[NH2+]c4ccccc43)CC2)c1 (protonated)
COc1cccc(N2CCN(CCN3C(=O)C4(CCCCC4)[NH2+]c4ccccc43)CC2)c1 (3D coordinates assigned)
COc1cccc(N2CCN(CCN3C(=O)C4(CCCCC4)[NH2+]c4ccccc43)CC2)c1 (nonaromatic ring conformer: 94.18415390148084 kcal/mol)

>  <smiles>  (14) 
COc1cccc(N2CCN(CCN3C(=O)C4(CCCCC4)Nc4ccccc43)CC2)c1

>  <score_type>  (14) 
oracle

>  <origin>  (14) 
adg

>  <m_score__min__energy>  (14) 
-9.3000000000000007

>  <m_primary>  (14) 
energy

$$$$
14:0
     RDKit          3D

 38 40  0  0  0  0  0  0  0  0999 V2000
   -0.1574   25.6223  -28.0871 H   0  0  0  0  0  0  0  0  0  0  0  0
   -0.9670   24.9260  -28.3510 C   0  0  0  0  0  0  0  0  0  0  0  0
   -1.9130   25.2940  -29.2530 N   0  0  0  0  0  0  0  0  0  0  0  0
   -2.9290   24.4530  -29.5930 C   0  0  0  0  0  0  0  0  0  0  0  0
   -3.8280   24.7920  -30.4690 N   0  0  0  0  0  0  0  0  0  0  0  0
   -5.0530   24.1040  -30.7730 C   0  0  0  0  0  0  0  0  0  0  0  0
   -6.2600   24.3650  -30.1590 C   0  0  0  0  0  0  0  0  0  0  0  0
   -6.4444   25.0680  -29.3333 H   0  0  0  0  0  0  0  0  0  0  0  0
   -7.1900   23.5640  -30.7920 C   0  0  0  0  0  0  0  0  0  0  0  0
   -8.2617   23.5277  -30.5466 H   0  0  0  0  0  0  0  0  0  0  0  0
   -6.5920   22.8320  -31.7560 N   0  0  0  0  0  0  0  0  0  0  0  0
   -7.2740   21.9530  -32.7070 C   0  0  0  0  0  0  0  0  0  0  0  0
   -8.3423   21.9052  -32.4493 H   0  0  0  0  0  0  0  0  0  0  0  0
   -7.1379   22.3614  -33.7193 H   0  0  0  0  0  0  0  0  0  0  0  0
   -6.6930   20.5530  -32.6710 C   0  0  0  0  0  0  0  0  0  0  0  0
   -5.3380   20.3940  -33.0190 C   0  0  0  0  0  0  0  0  0  0  0  0
   -4.7496   21.2721  -33.3236 H   0  0  0  0  0  0  0  0  0  0  0  0
   -4.7320   19.1400  -32.9830 C   0  0  0  0  0  0  0  0  0  0  0  0
   -3.6719   19.0337  -33.2567 H   0  0  0  0  0  0  0  0  0  0  0  0
   -5.4670   18.0220  -32.6010 C   0  0  0  0  0  0  0  0  0  0  0  0
   -4.9881   17.0320  -32.5781 H   0  0  0  0  0  0  0  0  0  0  0  0
   -6.8100   18.1540  -32.2470 C   0  0  0  0  0  0  0  0  0  0  0  0
   -7.3824   17.2625  -31.9510 H   0  0  0  0  0  0  0  0  0  0  0  0
   -7.4450   19.4140  -32.2630 C   0  0  0  0  0  0  0  0  0  0  0  0
   -8.9130   19.5120  -31.8910 C   0  0  0  0  0  0  0  0  0  0  0  0
   -9.1100   20.3260  -30.7890 F   0  0  0  0  0  0  0  0  0  0  0  0
   -9.6360   20.0460  -32.9400 F   0  0  0  0  0  0  0  0  0  0  0  0
   -9.4000   18.2540  -31.5890 F   0  0  0  0  0  0  0  0  0  0  0  0
   -5.2880   23.1770  -31.7730 C   0  0  0  0  0  0  0  0  0  0  0  0
   -4.5328   22.7844  -32.4699 H   0  0  0  0  0  0  0  0  0  0  0  0
   -2.9900   23.2170  -29.0290 N   0  0  0  0  0  0  0  0  0  0  0  0
   -2.0660   22.8070  -28.1190 C   0  0  0  0  0  0  0  0  0  0  0  0
   -2.1610   21.4380  -27.5230 C   0  0  0  0  0  0  0  0  0  0  0  0
   -2.1557   21.5146  -26.4257 H   0  0  0  0  0  0  0  0  0  0  0  0
   -3.0946   20.9586  -27.8526 H   0  0  0  0  0  0  0  0  0  0  0  0
   -1.3026   20.8342  -27.8526 H   0  0  0  0  0  0  0  0  0  0  0  0
   -1.0230   23.6650  -27.7600 C   0  0  0  0  0  0  0  0  0  0  0  0
   -0.2638   23.3524  -27.0279 H   0  0  0  0  0  0  0  0  0  0  0  0
  1  2  1  0
  2  3  1  0
  3  4  1  0
  4  5  2  0
  5  6  1  0
  6  7  1  0
  7  8  1  0
  7  9  2  0
  9 10  1  0
  9 11  1  0
 11 12  1  0
 12 13  1  0
 12 14  1  0
 12 15  1  0
 15 16  2  0
 16 17  1  0
 16 18  1  0
 18 19  1  0
 18 20  2  0
 20 21  1  0
 20 22  1  0
 22 23  1  0
 22 24  2  0
 24 25  1  0
 25 26  1  0
 25 27  1  0
 25 28  1  0
 11 29  1  0
 29 30  1  0
  4 31  1  0
 31 32  2  0
 32 33  1  0
 33 34  1  0
 33 35  1  0
 33 36  1  0
 32 37  1  0
 37 38  1  0
 37  2  2  0
 29  6  2  0
 24 15  1  0
M  CHG  1   3  -1
M  END
>  <UniqueID>  (15) 
15

>  <SMILES>  (15) 
Cc1cc[n-]/c(=N\c2ccn(Cc3ccccc3C(F)(F)F)c2)n1

>  <Energy>  (15) 
73.70013309341607

>  <Genealogy>  (15) 
Cc1cc[n-]c(=Nc2ccn(Cc3ccccc3C(F)(F)F)c2)n1 (protonated)
Cc1cc[n-]/c(=N\c2ccn(Cc3ccccc3C(F)(F)F)c2)n1 (cis-trans isomerization)
Cc1cc[n-]/c(=N\c2ccn(Cc3ccccc3C(F)(F)F)c2)n1 (3D coordinates assigned)
Cc1cc[n-]/c(=N\c2ccn(Cc3ccccc3C(F)(F)F)c2)n1 (optimized conformer: 73.70013309341607 kcal/mol)

>  <smiles>  (15) 
Cc1cc[nH]c(=Nc2ccn(Cc3ccccc3C(F)(F)F)c2)n1

>  <score_type>  (15) 
oracle

>  <origin>  (15) 
adg

>  <m_score__min__energy>  (15) 
-9.1600000000000001

>  <m_primary>  (15) 
energy

$$$$
15:0
     RDKit          3D

 40 42  0  0  0  0  0  0  0  0999 V2000
   -5.7290   25.6040  -30.0910 C   0  0  0  0  0  0  0  0  0  0  0  0
   -4.8730   24.9150  -30.9950 O   0  0  0  0  0  0  0  0  0  0  0  0
   -4.7470   23.5220  -30.9640 C   0  0  0  0  0  0  0  0  0  0  0  0
   -5.7630   22.7110  -31.5230 C   0  0  0  0  0  0  0  0  0  0  0  0
   -7.0120   23.3440  -32.0880 C   0  0  0  0  0  0  0  0  0  0  0  0
   -5.5970   21.3090  -31.5570 C   0  0  0  0  0  0  0  0  0  0  0  0
   -6.5680   20.4520  -32.1780 N   0  0  0  0  0  0  0  0  0  0  0  0
   -7.9080   20.3190  -31.6080 C   0  0  0  0  0  0  0  0  0  0  0  0
   -8.3740   18.8650  -31.7420 C   0  0  0  0  0  0  0  0  0  0  0  0
   -8.2380   18.4120  -33.0770 O   0  0  0  0  0  0  0  0  0  0  0  0
   -6.8700   18.3850  -33.4420 C   0  0  0  0  0  0  0  0  0  0  0  0
   -6.2850   19.8000  -33.4580 C   0  0  0  0  0  0  0  0  0  0  0  0
   -4.4660   20.7280  -30.9770 C   0  0  0  0  0  0  0  0  0  0  0  0
   -3.4850   21.5180  -30.3800 C   0  0  0  0  0  0  0  0  0  0  0  0
   -2.4040   20.9260  -29.8190 N   0  0  0  0  0  0  0  0  0  0  0  0
   -1.4230   21.6530  -29.2330 C   0  0  0  0  0  0  0  0  0  0  0  0
   -1.5000   23.0160  -29.1930 N   0  0  0  0  0  0  0  0  0  0  0  0
   -0.4310   23.7830  -28.5440 C   0  0  0  0  0  0  0  0  0  0  0  0
   -2.5780   23.6620  -29.7410 C   0  0  0  0  0  0  0  0  0  0  0  0
   -2.6450   24.9220  -29.6810 O   0  0  0  0  0  0  0  0  0  0  0  0
   -3.6110   22.9210  -30.3640 C   0  0  0  0  0  0  0  0  0  0  0  0
   -5.4363   25.3684  -29.0572 H   0  0  0  0  0  0  0  0  0  0  0  0
   -5.6431   26.6878  -30.2585 H   0  0  0  0  0  0  0  0  0  0  0  0
   -6.7694   25.2885  -30.2585 H   0  0  0  0  0  0  0  0  0  0  0  0
   -7.6614   23.6731  -31.2635 H   0  0  0  0  0  0  0  0  0  0  0  0
   -6.7362   24.2111  -32.7061 H   0  0  0  0  0  0  0  0  0  0  0  0
   -7.5482   22.6089  -32.7061 H   0  0  0  0  0  0  0  0  0  0  0  0
   -7.8847   20.6008  -30.5450 H   0  0  0  0  0  0  0  0  0  0  0  0
   -8.6041   20.9798  -32.1454 H   0  0  0  0  0  0  0  0  0  0  0  0
   -7.7652   18.2294  -31.0822 H   0  0  0  0  0  0  0  0  0  0  0  0
   -9.4352   18.8083  -31.4579 H   0  0  0  0  0  0  0  0  0  0  0  0
   -6.3147   17.7731  -32.7159 H   0  0  0  0  0  0  0  0  0  0  0  0
   -6.7820   17.9550  -34.4506 H   0  0  0  0  0  0  0  0  0  0  0  0
   -5.1970   19.7467  -33.6112 H   0  0  0  0  0  0  0  0  0  0  0  0
   -6.7390   20.3786  -34.2760 H   0  0  0  0  0  0  0  0  0  0  0  0
   -4.3486   19.6344  -30.9918 H   0  0  0  0  0  0  0  0  0  0  0  0
   -0.5577   21.1418  -28.7859 H   0  0  0  0  0  0  0  0  0  0  0  0
   -0.5366   23.7072  -27.4517 H   0  0  0  0  0  0  0  0  0  0  0  0
    0.5461   23.3787  -28.8468 H   0  0  0  0  0  0  0  0  0  0  0  0
   -0.5010   24.8382  -28.8468 H   0  0  0  0  0  0  0  0  0  0  0  0
  1  2  1  0
  2  3  1  0
  3  4  2  0
  4  5  1  0
  4  6  1  0
  6  7  1  0
  7  8  1  0
  8  9  1  0
  9 10  1  0
 10 11  1  0
 11 12  1  0
  6 13  2  0
 13 14  1  0
 14 15  1  0
 15 16  2  0
 16 17  1  0
 17 18  1  0
 17 19  1  0
 19 20  2  0
 19 21  1  0
 21  3  1  0
 12  7  1  0
 21 14  2  0
  1 22  1  0
  1 23  1  0
  1 24  1  0
  5 25  1  0
  5 26  1  0
  5 27  1  0
  8 28  1  0
  8 29  1  0
  9 30  1  0
  9 31  1  0
 11 32  1  0
 11 33  1  0
 12 34  1  0
 12 35  1  0
 13 36  1  0
 16 37  1  0
 18 38  1  0
 18 39  1  0
 18 40  1  0
M  END
>  <UniqueID>  (16) 
16

>  <SMILES>  (16) 
COc1c(C)c(N2CCOCC2)cc2ncn(C)c(=O)c12

>  <Energy>  (16) 
62.396320003814566

>  <Genealogy>  (16) 
COc1c(C)c(N2CCOCC2)cc2ncn(C)c(=O)c12 (3D coordinates assigned)
COc1c(C)c(N2CCOCC2)cc2ncn(C)c(=O)c12 (nonaromatic ring conformer: 62.396320003814566 kcal/mol)

>  <smiles>  (16) 
COc1c(C)c(N2CCOCC2)cc2ncn(C)c(=O)c12

>  <score_type>  (16) 
oracle

>  <origin>  (16) 
adg

>  <m_score__min__energy>  (16) 
-7.3899999999999997

>  <m_primary>  (16) 
energy

$$$$
16:0
     RDKit          3D

 39 40  0  0  0  0  0  0  0  0999 V2000
   -3.4530   20.9310  -33.0140 C   0  0  0  0  0  0  0  0  0  0  0  0
   -3.6160   21.0010  -31.4900 C   0  0  0  0  0  0  0  0  0  0  0  0
   -2.8680   22.0930  -30.8060 N   0  0  0  0  0  0  0  0  0  0  0  0
   -1.3890   22.0810  -30.9870 C   0  0  0  0  0  0  0  0  0  0  0  0
   -0.6540   20.8670  -30.4020 C   0  0  0  0  0  0  0  0  0  0  0  0
   -3.3510   22.4520  -29.4410 C   0  0  0  0  0  0  0  0  0  0  0  0
   -2.5010   23.4970  -28.6860 C   0  0  0  0  0  0  0  0  0  0  0  0
   -2.7830   24.9190  -29.1790 C   0  0  0  0  0  0  0  0  0  0  0  0
   -3.4760   24.8850  -30.4660 N   0  0  0  0  0  0  0  0  0  0  0  0
   -4.8720   25.1410  -30.6550 C   0  0  0  0  0  0  0  0  0  0  0  0
   -5.2930   26.3210  -30.5290 O   0  0  0  0  0  0  0  0  0  0  0  0
   -5.8360   24.0660  -30.9520 C   0  0  0  0  0  0  0  0  0  0  0  0
   -5.7570   23.1690  -32.0310 C   0  0  0  0  0  0  0  0  0  0  0  0
   -6.7890   22.2380  -31.9820 C   0  0  0  0  0  0  0  0  0  0  0  0
   -7.1200   21.1670  -32.8060 C   0  0  0  0  0  0  0  0  0  0  0  0
   -8.2520   20.4910  -32.3300 C   0  0  0  0  0  0  0  0  0  0  0  0
   -8.8180   21.2280  -30.8970 S   0  0  0  0  0  0  0  0  0  0  0  0
   -7.6160   22.3880  -30.9220 C   0  0  0  0  0  0  0  0  0  0  0  0
   -7.1580   23.6660  -29.9450 S   0  0  0  0  0  0  0  0  0  0  0  0
   -2.4675   20.5078  -33.2583 H   0  0  0  0  0  0  0  0  0  0  0  0
   -4.2417   20.2923  -33.4382 H   0  0  0  0  0  0  0  0  0  0  0  0
   -3.5329   21.9428  -33.4382 H   0  0  0  0  0  0  0  0  0  0  0  0
   -4.6855   21.1364  -31.2711 H   0  0  0  0  0  0  0  0  0  0  0  0
   -3.1943   20.0622  -31.1017 H   0  0  0  0  0  0  0  0  0  0  0  0
   -3.1500   22.9340  -31.3670 H   0  0  0  0  0  0  0  0  0  0  0  0
   -1.1809   22.1134  -32.0666 H   0  0  0  0  0  0  0  0  0  0  0  0
   -1.0132   22.9534  -30.4324 H   0  0  0  0  0  0  0  0  0  0  0  0
   -0.6831   20.9151  -29.3034 H   0  0  0  0  0  0  0  0  0  0  0  0
   -1.1444   19.9428  -30.7417 H   0  0  0  0  0  0  0  0  0  0  0  0
    0.3922   20.8731  -30.7417 H   0  0  0  0  0  0  0  0  0  0  0  0
   -4.3714   22.8514  -29.5372 H   0  0  0  0  0  0  0  0  0  0  0  0
   -3.2892   21.5281  -28.8472 H   0  0  0  0  0  0  0  0  0  0  0  0
   -2.7350   23.4388  -27.6128 H   0  0  0  0  0  0  0  0  0  0  0  0
   -1.4398   23.2741  -28.8706 H   0  0  0  0  0  0  0  0  0  0  0  0
   -3.4123   25.4397  -28.4423 H   0  0  0  0  0  0  0  0  0  0  0  0
   -1.8274   25.4495  -29.3026 H   0  0  0  0  0  0  0  0  0  0  0  0
   -4.9818   23.1993  -32.8108 H   0  0  0  0  0  0  0  0  0  0  0  0
   -6.5652   20.8869  -33.7136 H   0  0  0  0  0  0  0  0  0  0  0  0
   -8.7094   19.6132  -32.8098 H   0  0  0  0  0  0  0  0  0  0  0  0
  1  2  1  0
  2  3  1  0
  3  4  1  0
  4  5  1  0
  3  6  1  0
  6  7  1  0
  7  8  1  0
  8  9  1  0
  9 10  1  0
 10 11  2  0
 10 12  1  0
 12 13  2  0
 13 14  1  0
 14 15  1  0
 15 16  2  0
 16 17  1  0
 17 18  1  0
 18 19  1  0
 19 12  1  0
 18 14  2  0
  1 20  1  0
  1 21  1  0
  1 22  1  0
  2 23  1  0
  2 24  1  0
  3 25  1  0
  4 26  1  0
  4 27  1  0
  5 28  1  0
  5 29  1  0
  5 30  1  0
  6 31  1  0
  6 32  1  0
  7 33  1  0
  7 34  1  0
  8 35  1  0
  8 36  1  0
 13 37  1  0
 15 38  1  0
 16 39  1  0
M  CHG  2   3   1   9  -1
M  END
>  <UniqueID>  (17) 
17

>  <SMILES>  (17) 
CC[NH+](CC)CCC[N-]C(=O)c1cc2ccsc2s1

>  <Energy>  (17) 
123.10856697959758

>  <Genealogy>  (17) 
CC[NH+](CC)CCC[N-]C(=O)c1cc2ccsc2s1 (protonated)
CC[NH+](CC)CCC[N-]C(=O)c1cc2ccsc2s1 (3D coordinates assigned)
CC[NH+](CC)CCC[N-]C(=O)c1cc2ccsc2s1 (optimized conformer: 123.10856697959758 kcal/mol)

>  <smiles>  (17) 
CCN(CC)CCCNC(=O)c1cc2ccsc2s1

>  <score_type>  (17) 
oracle

>  <origin>  (17) 
adg

>  <m_score__min__energy>  (17) 
-7.2999999999999998

>  <m_primary>  (17) 
energy

$$$$
17:0
     RDKit          3D

 48 51  0  0  0  0  0  0  0  0999 V2000
   -4.5530   24.8720  -29.8910 C   0  0  0  0  0  0  0  0  0  0  0  0
   -3.1340   24.8790  -30.0030 O   0  0  0  0  0  0  0  0  0  0  0  0
   -2.3120   24.0010  -29.2880 C   0  0  0  0  0  0  0  0  0  0  0  0
   -1.7290   24.4040  -28.1240 N   0  0  0  0  0  0  0  0  0  0  0  0
   -0.9440   23.5760  -27.3850 C   0  0  0  0  0  0  0  0  0  0  0  0
   -0.7170   22.2680  -27.8090 C   0  0  0  0  0  0  0  0  0  0  0  0
   -1.2970   21.8250  -28.9970 C   0  0  0  0  0  0  0  0  0  0  0  0
   -2.0980   22.6890  -29.7590 C   0  0  0  0  0  0  0  0  0  0  0  0
   -2.6990   22.2130  -31.0280 C   0  0  0  0  0  0  0  0  0  0  0  0
   -1.8890   21.9410  -32.1450 C   0  0  0  0  0  0  0  0  0  0  0  0
   -2.4570   21.4640  -33.3290 C   0  0  0  0  0  0  0  0  0  0  0  0
   -3.8340   21.2390  -33.4080 C   0  0  0  0  0  0  0  0  0  0  0  0
   -4.6510   21.4860  -32.2960 C   0  0  0  0  0  0  0  0  0  0  0  0
   -6.1080   21.2460  -32.3750 C   0  0  0  0  0  0  0  0  0  0  0  0
   -6.9380   22.3720  -32.3640 C   0  0  0  0  0  0  0  0  0  0  0  0
   -8.2960   22.2560  -32.3510 N   0  0  0  0  0  0  0  0  0  0  0  0
   -9.1210   23.4720  -32.3150 C   0  0  0  0  0  0  0  0  0  0  0  0
   -8.8910   21.0250  -32.3120 C   0  0  0  0  0  0  0  0  0  0  0  0
  -10.1520   20.9390  -32.2530 O   0  0  0  0  0  0  0  0  0  0  0  0
   -8.1090   19.8520  -32.3390 C   0  0  0  0  0  0  0  0  0  0  0  0
   -8.7230   18.5860  -32.3090 C   0  0  0  0  0  0  0  0  0  0  0  0
   -7.9590   17.4270  -32.3560 C   0  0  0  0  0  0  0  0  0  0  0  0
   -6.5750   17.5040  -32.4540 C   0  0  0  0  0  0  0  0  0  0  0  0
   -5.9220   18.7510  -32.4960 C   0  0  0  0  0  0  0  0  0  0  0  0
   -4.5280   18.8160  -32.6570 O   0  0  0  0  0  0  0  0  0  0  0  0
   -3.7440   17.9080  -33.4250 C   0  0  0  0  0  0  0  0  0  0  0  0
   -6.6910   19.9490  -32.3980 C   0  0  0  0  0  0  0  0  0  0  0  0
   -4.0830   21.9910  -31.1150 C   0  0  0  0  0  0  0  0  0  0  0  0
   -4.8369   24.8706  -28.8283 H   0  0  0  0  0  0  0  0  0  0  0  0
   -4.9638   25.7681  -30.3791 H   0  0  0  0  0  0  0  0  0  0  0  0
   -4.9549   23.9719  -30.3791 H   0  0  0  0  0  0  0  0  0  0  0  0
   -0.4878   23.9385  -26.4520 H   0  0  0  0  0  0  0  0  0  0  0  0
   -0.0867   21.5920  -27.2125 H   0  0  0  0  0  0  0  0  0  0  0  0
   -1.1258   20.7934  -29.3384 H   0  0  0  0  0  0  0  0  0  0  0  0
   -0.8028   22.1046  -32.0862 H   0  0  0  0  0  0  0  0  0  0  0  0
   -1.8181   21.2649  -34.2020 H   0  0  0  0  0  0  0  0  0  0  0  0
   -4.2772   20.8677  -34.3438 H   0  0  0  0  0  0  0  0  0  0  0  0
   -6.4843   23.3741  -32.3659 H   0  0  0  0  0  0  0  0  0  0  0  0
   -9.3125   23.7543  -31.2692 H   0  0  0  0  0  0  0  0  0  0  0  0
   -8.5907   24.2901  -32.8244 H   0  0  0  0  0  0  0  0  0  0  0  0
  -10.0772   23.2816  -32.8244 H   0  0  0  0  0  0  0  0  0  0  0  0
   -9.8189   18.5137  -32.2477 H   0  0  0  0  0  0  0  0  0  0  0  0
   -8.4515   16.4442  -32.3155 H   0  0  0  0  0  0  0  0  0  0  0  0
   -5.9817   16.5788  -32.4994 H   0  0  0  0  0  0  0  0  0  0  0  0
   -3.1768   17.2510  -32.7493 H   0  0  0  0  0  0  0  0  0  0  0  0
   -4.4047   17.2989  -34.0594 H   0  0  0  0  0  0  0  0  0  0  0  0
   -3.0451   18.4728  -34.0594 H   0  0  0  0  0  0  0  0  0  0  0  0
   -4.7270   22.2143  -30.2516 H   0  0  0  0  0  0  0  0  0  0  0  0
  1  2  1  0
  2  3  1  0
  3  4  2  0
  4  5  1  0
  5  6  2  0
  6  7  1  0
  7  8  2  0
  8  9  1  0
  9 10  2  0
 10 11  1  0
 11 12  2  0
 12 13  1  0
 13 14  1  0
 14 15  2  0
 15 16  1  0
 16 17  1  0
 16 18  1  0
 18 19  2  0
 18 20  1  0
 20 21  2  0
 21 22  1  0
 22 23  2  0
 23 24  1  0
 24 25  1  0
 25 26  1  0
 24 27  2  0
 13 28  2  0
  8  3  1  0
 28  9  1  0
 27 14  1  0
 27 20  1  0
  1 29  1  0
  1 30  1  0
  1 31  1  0
  5 32  1  0
  6 33  1  0
  7 34  1  0
 10 35  1  0
 11 36  1  0
 12 37  1  0
 15 38  1  0
 17 39  1  0
 17 40  1  0
 17 41  1  0
 21 42  1  0
 22 43  1  0
 23 44  1  0
 26 45  1  0
 26 46  1  0
 26 47  1  0
 28 48  1  0
M  END
>  <UniqueID>  (18) 
18

>  <SMILES>  (18) 
COc1ncccc1-c1cccc(-c2cn(C)c(=O)c3cccc(OC)c23)c1

>  <Energy>  (18) 
74.72003684395116

>  <Genealogy>  (18) 
COc1ncccc1-c1cccc(-c2cn(C)c(=O)c3cccc(OC)c23)c1 (3D coordinates assigned)
COc1ncccc1-c1cccc(-c2cn(C)c(=O)c3cccc(OC)c23)c1 (optimized conformer: 74.72003684395116 kcal/mol)

>  <smiles>  (18) 
COc1ncccc1-c1cccc(-c2cn(C)c(=O)c3cccc(OC)c23)c1

>  <score_type>  (18) 
oracle

>  <origin>  (18) 
adg

>  <m_score__min__energy>  (18) 
-8.9399999999999995

>  <m_primary>  (18) 
energy

$$$$
18:0
     RDKit          3D

 52 54  0  0  0  0  0  0  0  0999 V2000
   -5.8820   17.6780  -32.0530 C   0  0  0  0  0  0  0  0  0  0  0  0
   -5.4010   19.0130  -32.1580 O   0  0  0  0  0  0  0  0  0  0  0  0
   -6.1920   20.1640  -32.0070 C   0  0  0  0  0  0  0  0  0  0  0  0
   -7.5980   20.1050  -32.0430 C   0  0  0  0  0  0  0  0  0  0  0  0
   -8.3660   21.2650  -31.8970 C   0  0  0  0  0  0  0  0  0  0  0  0
   -9.8630   21.1930  -31.9890 C   0  0  0  0  0  0  0  0  0  0  0  0
   -7.7290   22.5000  -31.7330 C   0  0  0  0  0  0  0  0  0  0  0  0
   -6.3290   22.5830  -31.6690 C   0  0  0  0  0  0  0  0  0  0  0  0
   -5.6910   23.9320  -31.4540 C   0  0  0  0  0  0  0  0  0  0  0  0
   -5.5560   21.4080  -31.8300 C   0  0  0  0  0  0  0  0  0  0  0  0
   -4.0810   21.4640  -31.8150 C   0  0  0  0  0  0  0  0  0  0  0  0
   -3.3230   22.1830  -30.8780 C   0  0  0  0  0  0  0  0  0  0  0  0
   -1.6590   21.9760  -31.2300 S   0  0  0  0  0  0  0  0  0  0  0  0
   -1.9960   20.9860  -32.5450 C   0  0  0  0  0  0  0  0  0  0  0  0
   -1.3190   20.2460  -33.4960 C   0  0  0  0  0  0  0  0  0  0  0  0
    0.1050   20.1090  -33.6840 N   0  0  0  0  0  0  0  0  0  0  0  0
    0.9710   19.8300  -32.5350 C   0  0  0  0  0  0  0  0  0  0  0  0
    0.6950   20.2500  -35.0240 C   0  0  0  0  0  0  0  0  0  0  0  0
    0.2060   21.5350  -35.7080 C   0  0  0  0  0  0  0  0  0  0  0  0
    1.0160   22.7020  -35.2930 N   0  0  0  0  0  0  0  0  0  0  0  0
    2.4550   22.4250  -35.4360 C   0  0  0  0  0  0  0  0  0  0  0  0
    0.6610   23.8800  -36.1000 C   0  0  0  0  0  0  0  0  0  0  0  0
   -2.3500   19.6220  -34.2200 C   0  0  0  0  0  0  0  0  0  0  0  0
   -3.5480   19.9970  -33.7050 N   0  0  0  0  0  0  0  0  0  0  0  0
   -3.2920   20.8230  -32.7100 N   0  0  0  0  0  0  0  0  0  0  0  0
   -5.9800   17.4060  -30.9917 H   0  0  0  0  0  0  0  0  0  0  0  0
   -6.8639   17.6024  -32.5431 H   0  0  0  0  0  0  0  0  0  0  0  0
   -5.1739   16.9935  -32.5431 H   0  0  0  0  0  0  0  0  0  0  0  0
   -8.0982   19.1360  -32.1875 H   0  0  0  0  0  0  0  0  0  0  0  0
  -10.2920   21.1724  -30.9763 H   0  0  0  0  0  0  0  0  0  0  0  0
  -10.2400   22.0741  -32.5290 H   0  0  0  0  0  0  0  0  0  0  0  0
  -10.1537   20.2798  -32.5290 H   0  0  0  0  0  0  0  0  0  0  0  0
   -8.3321   23.4164  -31.6533 H   0  0  0  0  0  0  0  0  0  0  0  0
   -5.5991   24.1264  -30.3752 H   0  0  0  0  0  0  0  0  0  0  0  0
   -4.6923   23.9429  -31.9150 H   0  0  0  0  0  0  0  0  0  0  0  0
   -6.3161   24.7109  -31.9150 H   0  0  0  0  0  0  0  0  0  0  0  0
   -3.7312   22.7826  -30.0511 H   0  0  0  0  0  0  0  0  0  0  0  0
    0.4138   20.0095  -31.6037 H   0  0  0  0  0  0  0  0  0  0  0  0
    1.2992   18.7807  -32.5694 H   0  0  0  0  0  0  0  0  0  0  0  0
    1.8500   20.4904  -32.5694 H   0  0  0  0  0  0  0  0  0  0  0  0
    1.7906   20.2856  -34.9327 H   0  0  0  0  0  0  0  0  0  0  0  0
    0.3870   19.3887  -35.6350 H   0  0  0  0  0  0  0  0  0  0  0  0
    0.2839   21.4133  -36.7985 H   0  0  0  0  0  0  0  0  0  0  0  0
   -0.8385   21.7121  -35.4119 H   0  0  0  0  0  0  0  0  0  0  0  0
    2.9123   22.3370  -34.4394 H   0  0  0  0  0  0  0  0  0  0  0  0
    2.5941   21.4836  -35.9877 H   0  0  0  0  0  0  0  0  0  0  0  0
    2.9337   23.2475  -35.9877 H   0  0  0  0  0  0  0  0  0  0  0  0
    0.4084   24.7182  -35.4339 H   0  0  0  0  0  0  0  0  0  0  0  0
    1.5145   24.1604  -36.7347 H   0  0  0  0  0  0  0  0  0  0  0  0
   -0.2053   23.6421  -36.7347 H   0  0  0  0  0  0  0  0  0  0  0  0
   -2.2079   18.9379  -35.0696 H   0  0  0  0  0  0  0  0  0  0  0  0
   -4.4960   19.6780  -34.0080 H   0  0  0  0  0  0  0  0  0  0  0  0
  1  2  1  0
  2  3  1  0
  3  4  2  0
  4  5  1  0
  5  6  1  0
  5  7  2  0
  7  8  1  0
  8  9  1  0
  8 10  2  0
 10 11  1  0
 11 12  2  0
 12 13  1  0
 13 14  1  0
 14 15  2  0
 15 16  1  0
 16 17  1  0
 16 18  1  0
 18 19  1  0
 19 20  1  0
 20 21  1  0
 20 22  1  0
 15 23  1  0
 23 24  2  0
 24 25  1  0
 10  3  1  0
 25 11  1  0
 25 14  1  0
  1 26  1  0
  1 27  1  0
  1 28  1  0
  4 29  1  0
  6 30  1  0
  6 31  1  0
  6 32  1  0
  7 33  1  0
  9 34  1  0
  9 35  1  0
  9 36  1  0
 12 37  1  0
 17 38  1  0
 17 39  1  0
 17 40  1  0
 18 41  1  0
 18 42  1  0
 19 43  1  0
 19 44  1  0
 21 45  1  0
 21 46  1  0
 21 47  1  0
 22 48  1  0
 22 49  1  0
 22 50  1  0
 23 51  1  0
 24 52  1  0
M  CHG  1  24   1
M  END
>  <UniqueID>  (19) 
19

>  <SMILES>  (19) 
COc1cc(C)cc(C)c1-c1csc2c(N(C)CCN(C)C)c[nH+]n12

>  <Energy>  (19) 
137.05494640002055

>  <Genealogy>  (19) 
COc1cc(C)cc(C)c1-c1csc2c(N(C)CCN(C)C)c[nH+]n12 (protonated)
COc1cc(C)cc(C)c1-c1csc2c(N(C)CCN(C)C)c[nH+]n12 (3D coordinates assigned)
COc1cc(C)cc(C)c1-c1csc2c(N(C)CCN(C)C)c[nH+]n12 (optimized conformer: 137.05494640002055 kcal/mol)

>  <smiles>  (19) 
COc1cc(C)cc(C)c1-c1csc2c(N(C)CCN(C)C)cnn12

>  <score_type>  (19) 
oracle

>  <origin>  (19) 
adg

>  <m_score__min__energy>  (19) 
-7.8600000000000003

>  <m_primary>  (19) 
energy

$$$$
19:0
     RDKit          3D

 45 48  0  0  0  0  0  0  0  0999 V2000
   -5.4380   25.3200  -30.8510 C   0  0  0  0  0  0  0  0  0  0  0  0
   -6.2970   24.1010  -30.8420 C   0  0  0  0  0  0  0  0  0  0  0  0
   -6.9090   23.5480  -29.7240 C   0  0  0  0  0  0  0  0  0  0  0  0
   -7.5950   22.3600  -30.0000 C   0  0  0  0  0  0  0  0  0  0  0  0
   -7.5060   21.9670  -31.3350 C   0  0  0  0  0  0  0  0  0  0  0  0
   -8.1180   20.7760  -31.9520 C   0  0  0  0  0  0  0  0  0  0  0  0
   -9.3740   20.7210  -32.0470 O   0  0  0  0  0  0  0  0  0  0  0  0
   -7.2840   19.6010  -32.4030 C   0  0  0  0  0  0  0  0  0  0  0  0
   -6.8060   19.7250  -33.8560 C   0  0  0  0  0  0  0  0  0  0  0  0
   -5.5290   18.9740  -34.0820 C   0  0  0  0  0  0  0  0  0  0  0  0
   -5.5720   17.7700  -34.4530 O   0  0  0  0  0  0  0  0  0  0  0  0
   -4.2780   19.6040  -33.7820 N   0  0  0  0  0  0  0  0  0  0  0  0
   -4.0090   20.4810  -32.6780 C   0  0  0  0  0  0  0  0  0  0  0  0
   -4.1610   20.0630  -31.3450 C   0  0  0  0  0  0  0  0  0  0  0  0
   -3.8570   20.9360  -30.2950 C   0  0  0  0  0  0  0  0  0  0  0  0
   -3.3860   22.2340  -30.5570 C   0  0  0  0  0  0  0  0  0  0  0  0
   -3.0550   23.1460  -29.4370 C   0  0  0  0  0  0  0  0  0  0  0  0
   -1.9850   23.9830  -29.4530 N   0  0  0  0  0  0  0  0  0  0  0  0
   -1.9150   24.7190  -28.3150 C   0  0  0  0  0  0  0  0  0  0  0  0
   -0.9250   25.6660  -28.0480 C   0  0  0  0  0  0  0  0  0  0  0  0
   -0.9720   26.3670  -26.8300 C   0  0  0  0  0  0  0  0  0  0  0  0
   -2.0010   26.1160  -25.9000 C   0  0  0  0  0  0  0  0  0  0  0  0
   -2.9910   25.1600  -26.1790 C   0  0  0  0  0  0  0  0  0  0  0  0
   -2.9200   24.4790  -27.3920 C   0  0  0  0  0  0  0  0  0  0  0  0
   -3.9490   23.3040  -27.9990 S   0  0  0  0  0  0  0  0  0  0  0  0
   -3.2210   22.6380  -31.8930 C   0  0  0  0  0  0  0  0  0  0  0  0
   -3.5210   21.7640  -32.9410 C   0  0  0  0  0  0  0  0  0  0  0  0
   -6.5800   23.1040  -32.1640 S   0  0  0  0  0  0  0  0  0  0  0  0
   -5.2232   25.6248  -29.8161 H   0  0  0  0  0  0  0  0  0  0  0  0
   -4.4944   25.0998  -31.3717 H   0  0  0  0  0  0  0  0  0  0  0  0
   -5.9628   26.1345  -31.3717 H   0  0  0  0  0  0  0  0  0  0  0  0
   -6.8593   23.9990  -28.7219 H   0  0  0  0  0  0  0  0  0  0  0  0
   -8.1499   21.7920  -29.2388 H   0  0  0  0  0  0  0  0  0  0  0  0
   -6.4023   19.5260  -31.7495 H   0  0  0  0  0  0  0  0  0  0  0  0
   -7.9191   18.7050  -32.3418 H   0  0  0  0  0  0  0  0  0  0  0  0
   -7.5814   19.3198  -34.5228 H   0  0  0  0  0  0  0  0  0  0  0  0
   -6.6222   20.7885  -34.0684 H   0  0  0  0  0  0  0  0  0  0  0  0
   -4.5200   19.0465  -31.1266 H   0  0  0  0  0  0  0  0  0  0  0  0
   -3.9878   20.6035  -29.2547 H   0  0  0  0  0  0  0  0  0  0  0  0
   -0.1237   25.8601  -28.7762 H   0  0  0  0  0  0  0  0  0  0  0  0
   -0.2002   27.1167  -26.6013 H   0  0  0  0  0  0  0  0  0  0  0  0
   -2.0287   26.6717  -24.9511 H   0  0  0  0  0  0  0  0  0  0  0  0
   -3.7987   24.9550  -25.4609 H   0  0  0  0  0  0  0  0  0  0  0  0
   -2.8527   23.6504  -32.1153 H   0  0  0  0  0  0  0  0  0  0  0  0
   -3.3719   22.0883  -33.9815 H   0  0  0  0  0  0  0  0  0  0  0  0
  1  2  1  0
  2  3  2  0
  3  4  1  0
  4  5  2  0
  5  6  1  0
  6  7  2  0
  6  8  1  0
  8  9  1  0
  9 10  1  0
 10 11  2  0
 10 12  1  0
 12 13  1  0
 13 14  2  0
 14 15  1  0
 15 16  2  0
 16 17  1  0
 17 18  2  0
 18 19  1  0
 19 20  2  0
 20 21  1  0
 21 22  2  0
 22 23  1  0
 23 24  2  0
 24 25  1  0
 16 26  1  0
 26 27  2  0
  5 28  1  0
 28  2  1  0
 27 13  1  0
 25 17  1  0
 24 19  1  0
  1 29  1  0
  1 30  1  0
  1 31  1  0
  3 32  1  0
  4 33  1  0
  8 34  1  0
  8 35  1  0
  9 36  1  0
  9 37  1  0
 14 38  1  0
 15 39  1  0
 20 40  1  0
 21 41  1  0
 22 42  1  0
 23 43  1  0
 26 44  1  0
 27 45  1  0
M  CHG  1  12  -1
M  END
>  <UniqueID>  (20) 
20

>  <SMILES>  (20) 
Cc1ccc(C(=O)CCC(=O)[N-]c2ccc(-c3nc4ccccc4s3)cc2)s1

>  <Energy>  (20) 
110.08858357635441

>  <Genealogy>  (20) 
Cc1ccc(C(=O)CCC(=O)[N-]c2ccc(-c3nc4ccccc4s3)cc2)s1 (protonated)
Cc1ccc(C(=O)CCC(=O)[N-]c2ccc(-c3nc4ccccc4s3)cc2)s1 (3D coordinates assigned)
Cc1ccc(C(=O)CCC(=O)[N-]c2ccc(-c3nc4ccccc4s3)cc2)s1 (optimized conformer: 110.08858357635441 kcal/mol)

>  <smiles>  (20) 
Cc1ccc(C(=O)CCC(=O)Nc2ccc(-c3nc4ccccc4s3)cc2)s1

>  <score_type>  (20) 
oracle

>  <origin>  (20) 
adg

>  <m_score__min__energy>  (20) 
-10.81

>  <m_primary>  (20) 
energy

$$$$
20:0
     RDKit          3D

 63 64  0  0  0  0  0  0  0  0999 V2000
   -0.5160   17.9760  -32.0110 C   0  0  0  0  0  0  0  0  0  0  0  0
   -1.7080   17.8920  -32.7610 O   0  0  0  0  0  0  0  0  0  0  0  0
   -2.0390   19.1540  -33.3130 C   0  0  0  0  0  0  0  0  0  0  0  0
   -3.3320   19.0560  -34.1320 C   0  0  0  0  0  0  0  0  0  0  0  0
   -3.9100   17.7060  -34.0530 N   0  0  0  0  0  0  0  0  0  0  0  0
   -5.3480   17.7620  -34.1320 C   0  0  0  0  0  0  0  0  0  0  0  0
   -6.0840   18.8940  -35.0740 S   0  0  0  0  0  0  0  0  0  0  0  0
   -6.1480   16.8710  -33.3350 N   0  0  0  0  0  0  0  0  0  0  0  0
   -6.4650   15.5280  -33.8420 C   0  0  0  0  0  0  0  0  0  0  0  0
   -5.3180   14.5540  -33.5470 C   0  0  0  0  0  0  0  0  0  0  0  0
   -4.0130   15.1860  -33.8430 N   0  0  0  0  0  0  0  0  0  0  0  0
   -3.0250   14.8710  -32.7980 C   0  0  0  0  0  0  0  0  0  0  0  0
   -3.5000   14.7610  -35.1550 C   0  0  0  0  0  0  0  0  0  0  0  0
   -6.4920   17.2310  -31.9540 C   0  0  0  0  0  0  0  0  0  0  0  0
   -6.5920   18.7320  -31.8080 C   0  0  0  0  0  0  0  0  0  0  0  0
   -5.4410   19.4800  -31.5730 C   0  0  0  0  0  0  0  0  0  0  0  0
   -5.5130   20.8670  -31.4680 C   0  0  0  0  0  0  0  0  0  0  0  0
   -4.3490   21.6080  -31.2180 C   0  0  0  0  0  0  0  0  0  0  0  0
   -4.4000   23.0060  -31.1060 C   0  0  0  0  0  0  0  0  0  0  0  0
   -3.2560   23.7770  -30.8460 O   0  0  0  0  0  0  0  0  0  0  0  0
   -2.4190   23.6180  -29.7050 C   0  0  0  0  0  0  0  0  0  0  0  0
   -5.6240   23.6660  -31.2540 C   0  0  0  0  0  0  0  0  0  0  0  0
   -5.6360   25.0670  -31.1450 O   0  0  0  0  0  0  0  0  0  0  0  0
   -6.0700   25.7890  -29.9960 C   0  0  0  0  0  0  0  0  0  0  0  0
   -6.7960   22.9250  -31.5020 C   0  0  0  0  0  0  0  0  0  0  0  0
   -6.7630   21.5140  -31.6110 C   0  0  0  0  0  0  0  0  0  0  0  0
   -7.9030   20.7670  -31.8480 N   0  0  0  0  0  0  0  0  0  0  0  0
   -9.2200   21.4270  -31.9650 C   0  0  0  0  0  0  0  0  0  0  0  0
   -7.8230   19.3930  -31.9490 C   0  0  0  0  0  0  0  0  0  0  0  0
   -8.8580   18.7060  -32.1740 O   0  0  0  0  0  0  0  0  0  0  0  0
   -0.7562   17.9591  -30.9377 H   0  0  0  0  0  0  0  0  0  0  0  0
    0.1319   17.1213  -32.2553 H   0  0  0  0  0  0  0  0  0  0  0  0
    0.0056   18.9131  -32.2553 H   0  0  0  0  0  0  0  0  0  0  0  0
   -2.1797   19.8802  -32.4989 H   0  0  0  0  0  0  0  0  0  0  0  0
   -1.2220   19.4804  -33.9732 H   0  0  0  0  0  0  0  0  0  0  0  0
   -4.0604   19.7817  -33.7410 H   0  0  0  0  0  0  0  0  0  0  0  0
   -3.0954   19.2728  -35.1841 H   0  0  0  0  0  0  0  0  0  0  0  0
   -3.5460   17.1320  -34.8470 H   0  0  0  0  0  0  0  0  0  0  0  0
   -3.6380   17.2490  -33.1500 H   0  0  0  0  0  0  0  0  0  0  0  0
   -7.3818   15.1649  -33.3545 H   0  0  0  0  0  0  0  0  0  0  0  0
   -6.6096   15.5855  -34.9309 H   0  0  0  0  0  0  0  0  0  0  0  0
   -5.3495   14.2685  -32.4852 H   0  0  0  0  0  0  0  0  0  0  0  0
   -5.4347   13.6637  -34.1824 H   0  0  0  0  0  0  0  0  0  0  0  0
   -3.4803   15.0162  -31.8072 H   0  0  0  0  0  0  0  0  0  0  0  0
   -2.7011   13.8250  -32.9030 H   0  0  0  0  0  0  0  0  0  0  0  0
   -2.1554   15.5364  -32.9030 H   0  0  0  0  0  0  0  0  0  0  0  0
   -2.6601   14.0652  -35.0124 H   0  0  0  0  0  0  0  0  0  0  0  0
   -4.3012   14.2584  -35.7167 H   0  0  0  0  0  0  0  0  0  0  0  0
   -3.1552   15.6417  -35.7167 H   0  0  0  0  0  0  0  0  0  0  0  0
   -7.4587   16.7765  -31.6914 H   0  0  0  0  0  0  0  0  0  0  0  0
   -5.7038   16.8598  -31.2825 H   0  0  0  0  0  0  0  0  0  0  0  0
   -4.4703   18.9729  -31.4698 H   0  0  0  0  0  0  0  0  0  0  0  0
   -3.3859   21.0880  -31.1085 H   0  0  0  0  0  0  0  0  0  0  0  0
   -3.0199   23.7321  -28.7907 H   0  0  0  0  0  0  0  0  0  0  0  0
   -1.9629   22.6171  -29.7214 H   0  0  0  0  0  0  0  0  0  0  0  0
   -1.6277   24.3819  -29.7214 H   0  0  0  0  0  0  0  0  0  0  0  0
   -5.7508   25.2580  -29.0871 H   0  0  0  0  0  0  0  0  0  0  0  0
   -5.6274   26.7960  -30.0069 H   0  0  0  0  0  0  0  0  0  0  0  0
   -7.1669   25.8705  -30.0069 H   0  0  0  0  0  0  0  0  0  0  0  0
   -7.7548   23.4526  -31.6130 H   0  0  0  0  0  0  0  0  0  0  0  0
   -9.6202   21.6275  -30.9602 H   0  0  0  0  0  0  0  0  0  0  0  0
   -9.1077   22.3753  -32.5109 H   0  0  0  0  0  0  0  0  0  0  0  0
   -9.9125   20.7694  -32.5109 H   0  0  0  0  0  0  0  0  0  0  0  0
  1  2  1  0
  2  3  1  0
  3  4  1  0
  4  5  1  0
  5  6  1  0
  6  7  2  0
  6  8  1  0
  8  9  1  0
  9 10  1  0
 10 11  1  0
 11 12  1  0
 11 13  1  0
  8 14  1  0
 14 15  1  0
 15 16  2  0
 16 17  1  0
 17 18  2  0
 18 19  1  0
 19 20  1  0
 20 21  1  0
 19 22  2  0
 22 23  1  0
 23 24  1  0
 22 25  1  0
 25 26  2  0
 26 27  1  0
 27 28  1  0
 27 29  1  0
 29 30  2  0
 29 15  1  0
 26 17  1  0
  1 31  1  0
  1 32  1  0
  1 33  1  0
  3 34  1  0
  3 35  1  0
  4 36  1  0
  4 37  1  0
  5 38  1  0
  5 39  1  0
  9 40  1  0
  9 41  1  0
 10 42  1  0
 10 43  1  0
 12 44  1  0
 12 45  1  0
 12 46  1  0
 13 47  1  0
 13 48  1  0
 13 49  1  0
 14 50  1  0
 14 51  1  0
 16 52  1  0
 18 53  1  0
 21 54  1  0
 21 55  1  0
 21 56  1  0
 24 57  1  0
 24 58  1  0
 24 59  1  0
 25 60  1  0
 28 61  1  0
 28 62  1  0
 28 63  1  0
M  CHG  1   5   1
M  END
>  <UniqueID>  (21) 
21

>  <SMILES>  (21) 
COCC[NH2+]C(=S)N(CCN(C)C)Cc1cc2cc(OC)c(OC)cc2n(C)c1=O

>  <Energy>  (21) 
69.79514178994907

>  <Genealogy>  (21) 
COCC[NH2+]C(=S)N(CCN(C)C)Cc1cc2cc(OC)c(OC)cc2n(C)c1=O (protonated)
COCC[NH2+]C(=S)N(CCN(C)C)Cc1cc2cc(OC)c(OC)cc2n(C)c1=O (3D coordinates assigned)
COCC[NH2+]C(=S)N(CCN(C)C)Cc1cc2cc(OC)c(OC)cc2n(C)c1=O (optimized conformer: 69.79514178994907 kcal/mol)

>  <smiles>  (21) 
COCCNC(=S)N(CCN(C)C)Cc1cc2cc(OC)c(OC)cc2n(C)c1=O

>  <score_type>  (21) 
oracle

>  <origin>  (21) 
adg

>  <m_score__min__energy>  (21) 
-6.4400000000000004

>  <m_primary>  (21) 
energy

$$$$
21:0
     RDKit          3D

 36 36  0  0  0  0  0  0  0  0999 V2000
   -8.2570   18.3850  -31.9810 C   0  0  0  0  0  0  0  0  0  0  0  0
   -8.9080   19.6310  -31.7520 O   0  0  0  0  0  0  0  0  0  0  0  0
   -8.3010   20.8850  -31.9210 C   0  0  0  0  0  0  0  0  0  0  0  0
   -9.1070   22.0270  -31.8400 C   0  0  0  0  0  0  0  0  0  0  0  0
   -8.5480   23.2980  -31.9860 C   0  0  0  0  0  0  0  0  0  0  0  0
   -7.1800   23.4400  -32.2230 C   0  0  0  0  0  0  0  0  0  0  0  0
   -6.3580   22.3100  -32.3320 C   0  0  0  0  0  0  0  0  0  0  0  0
   -4.9470   22.4820  -32.5530 N   0  0  0  0  0  0  0  0  0  0  0  0
   -4.0500   21.4070  -32.8680 C   0  0  0  0  0  0  0  0  0  0  0  0
   -4.4940   20.2970  -33.2710 O   0  0  0  0  0  0  0  0  0  0  0  0
   -2.5680   21.5930  -32.7180 C   0  0  0  0  0  0  0  0  0  0  0  0
   -2.1760   21.8630  -31.2590 C   0  0  0  0  0  0  0  0  0  0  0  0
   -3.1650   21.2370  -30.2630 C   0  0  0  0  0  0  0  0  0  0  0  0
   -4.2130   22.1950  -29.8750 N   0  0  0  0  0  0  0  0  0  0  0  0
   -3.7170   23.2520  -28.9790 C   0  0  0  0  0  0  0  0  0  0  0  0
   -3.3370   24.4610  -29.7730 C   0  0  0  0  0  0  0  0  0  0  0  0
   -3.9530   24.7410  -30.8360 O   0  0  0  0  0  0  0  0  0  0  0  0
   -2.3250   25.3000  -29.3240 O   0  0  0  0  0  0  0  0  0  0  0  0
   -6.9210   21.0310  -32.1610 C   0  0  0  0  0  0  0  0  0  0  0  0
   -8.0122   17.9165  -31.0164 H   0  0  0  0  0  0  0  0  0  0  0  0
   -8.9241   17.7222  -32.5518 H   0  0  0  0  0  0  0  0  0  0  0  0
   -7.3320   18.5540  -32.5518 H   0  0  0  0  0  0  0  0  0  0  0  0
  -10.1871   21.9222  -31.6603 H   0  0  0  0  0  0  0  0  0  0  0  0
   -9.1876   24.1900  -31.9140 H   0  0  0  0  0  0  0  0  0  0  0  0
   -6.7443   24.4449  -32.3249 H   0  0  0  0  0  0  0  0  0  0  0  0
   -4.5620   23.4530  -32.5330 H   0  0  0  0  0  0  0  0  0  0  0  0
   -2.0574   20.6813  -33.0617 H   0  0  0  0  0  0  0  0  0  0  0  0
   -2.2682   22.4629  -33.3208 H   0  0  0  0  0  0  0  0  0  0  0  0
   -1.1766   21.4409  -31.0775 H   0  0  0  0  0  0  0  0  0  0  0  0
   -2.1869   22.9520  -31.1040 H   0  0  0  0  0  0  0  0  0  0  0  0
   -3.6367   20.3598  -30.7300 H   0  0  0  0  0  0  0  0  0  0  0  0
   -2.6095   20.9458  -29.3593 H   0  0  0  0  0  0  0  0  0  0  0  0
   -4.5470   22.6540  -30.7540 H   0  0  0  0  0  0  0  0  0  0  0  0
   -4.5062   23.5210  -28.2615 H   0  0  0  0  0  0  0  0  0  0  0  0
   -2.8323   22.8820  -28.4402 H   0  0  0  0  0  0  0  0  0  0  0  0
   -6.2786   20.1397  -32.2152 H   0  0  0  0  0  0  0  0  0  0  0  0
  1  2  1  0
  2  3  1  0
  3  4  2  0
  4  5  1  0
  5  6  2  0
  6  7  1  0
  7  8  1  0
  8  9  1  0
  9 10  2  0
  9 11  1  0
 11 12  1  0
 12 13  1  0
 13 14  1  0
 14 15  1  0
 15 16  1  0
 16 17  2  0
 16 18  1  0
  7 19  2  0
 19  3  1  0
  1 20  1  0
  1 21  1  0
  1 22  1  0
  4 23  1  0
  5 24  1  0
  6 25  1  0
  8 26  1  0
 11 27  1  0
 11 28  1  0
 12 29  1  0
 12 30  1  0
 13 31  1  0
 13 32  1  0
 14 33  1  0
 15 34  1  0
 15 35  1  0
 19 36  1  0
M  CHG  1  18  -1
M  END
>  <UniqueID>  (22) 
22

>  <SMILES>  (22) 
COc1cccc(NC(=O)CCCNCC(=O)[O-])c1

>  <Energy>  (22) 
31.707844422979406

>  <Genealogy>  (22) 
COc1cccc(NC(=O)CCCNCC(=O)[O-])c1 (3D coordinates assigned)
COc1cccc(NC(=O)CCCNCC(=O)[O-])c1 (optimized conformer: 31.707844422979406 kcal/mol)

>  <smiles>  (22) 
COc1cccc(NC(=O)CCCNCC(=O)[O-])c1

>  <score_type>  (22) 
oracle

>  <origin>  (22) 
adg

>  <m_score__min__energy>  (22) 
-8.5899999999999999

>  <m_primary>  (22) 
energy

$$$$
22:0
     RDKit          3D

 33 34  0  0  0  0  0  0  0  0999 V2000
   -2.4050   23.4170  -29.6230 C   0  0  0  0  0  0  0  0  0  0  0  0
   -3.7080   23.0310  -28.9220 C   0  0  0  0  0  0  0  0  0  0  0  0
   -4.5660   24.2610  -28.5540 C   0  0  0  0  0  0  0  0  0  0  0  0
   -5.2830   24.8990  -29.7630 C   0  0  2  0  0  0  0  0  0  0  0  0
   -6.5400   25.6800  -29.3590 C   0  0  0  0  0  0  0  0  0  0  0  0
   -5.6480   23.8340  -30.7580 C   0  0  0  0  0  0  0  0  0  0  0  0
   -6.5420   22.8470  -30.5220 N   0  0  0  0  0  0  0  0  0  0  0  0
   -6.5190   22.1680  -31.6890 C   0  0  0  0  0  0  0  0  0  0  0  0
   -7.3210   20.9470  -31.9380 C   0  0  0  0  0  0  0  0  0  0  0  0
   -6.6740   19.7010  -32.0060 C   0  0  0  0  0  0  0  0  0  0  0  0
   -7.4040   18.5330  -32.2450 C   0  0  0  0  0  0  0  0  0  0  0  0
   -8.7880   18.5940  -32.4090 C   0  0  0  0  0  0  0  0  0  0  0  0
   -9.4460   19.8240  -32.3290 C   0  0  0  0  0  0  0  0  0  0  0  0
   -8.7230   20.9980  -32.0910 C   0  0  0  0  0  0  0  0  0  0  0  0
   -9.4050   22.1630  -31.9660 F   0  0  0  0  0  0  0  0  0  0  0  0
   -5.6490   22.7170  -32.5600 N   0  0  0  0  0  0  0  0  0  0  0  0
   -5.1300   23.7410  -31.9580 O   0  0  0  0  0  0  0  0  0  0  0  0
   -1.6367   23.6446  -28.8694 H   0  0  0  0  0  0  0  0  0  0  0  0
   -2.0654   22.5809  -30.2519 H   0  0  0  0  0  0  0  0  0  0  0  0
   -2.5756   24.3032  -30.2519 H   0  0  0  0  0  0  0  0  0  0  0  0
   -4.2906   22.3818  -29.5921 H   0  0  0  0  0  0  0  0  0  0  0  0
   -3.4452   22.5140  -27.9873 H   0  0  0  0  0  0  0  0  0  0  0  0
   -5.3270   23.9482  -27.8239 H   0  0  0  0  0  0  0  0  0  0  0  0
   -3.8825   25.0207  -28.1469 H   0  0  0  0  0  0  0  0  0  0  0  0
   -4.5823   25.6174  -30.2134 H   0  0  0  0  0  0  0  0  0  0  0  0
   -6.6085   25.7225  -28.2620 H   0  0  0  0  0  0  0  0  0  0  0  0
   -6.4825   26.7016  -29.7627 H   0  0  0  0  0  0  0  0  0  0  0  0
   -7.4304   25.1759  -29.7627 H   0  0  0  0  0  0  0  0  0  0  0  0
   -5.5839   19.6445  -31.8700 H   0  0  0  0  0  0  0  0  0  0  0  0
   -6.8863   17.5643  -32.3038 H   0  0  0  0  0  0  0  0  0  0  0  0
   -9.3607   17.6747  -32.6011 H   0  0  0  0  0  0  0  0  0  0  0  0
  -10.5380   19.8696  -32.4538 H   0  0  0  0  0  0  0  0  0  0  0  0
   -5.3850   22.3900  -33.5150 H   0  0  0  0  0  0  0  0  0  0  0  0
  1  2  1  0
  2  3  1  0
  3  4  1  0
  4  5  1  0
  4  6  1  0
  6  7  2  0
  7  8  1  0
  8  9  1  0
  9 10  2  0
 10 11  1  0
 11 12  2  0
 12 13  1  0
 13 14  2  0
 14 15  1  0
  8 16  2  0
 16 17  1  0
 17  6  1  0
 14  9  1  0
  1 18  1  0
  1 19  1  0
  1 20  1  0
  2 21  1  0
  2 22  1  0
  3 23  1  0
  3 24  1  0
  4 25  1  6
  5 26  1  0
  5 27  1  0
  5 28  1  0
 10 29  1  0
 11 30  1  0
 12 31  1  0
 13 32  1  0
 16 33  1  0
M  CHG  1  16   1
M  END
>  <UniqueID>  (23) 
23

>  <SMILES>  (23) 
CCC[C@H](C)c1nc(-c2ccccc2F)[nH+]o1

>  <Energy>  (23) 
64.71962265718628

>  <Genealogy>  (23) 
CCCC(C)c1nc(-c2ccccc2F)[nH+]o1 (protonated)
CCC[C@H](C)c1nc(-c2ccccc2F)[nH+]o1 (chirality)
CCC[C@H](C)c1nc(-c2ccccc2F)[nH+]o1 (3D coordinates assigned)
CCC[C@H](C)c1nc(-c2ccccc2F)[nH+]o1 (optimized conformer: 64.71962265718628 kcal/mol)

>  <smiles>  (23) 
CCCC(C)c1nc(-c2ccccc2F)no1

>  <score_type>  (23) 
oracle

>  <origin>  (23) 
adg

>  <m_score__min__energy>  (23) 
-6.5300000000000002

>  <m_primary>  (23) 
energy

$$$$
23:0
     RDKit          3D

 45 48  0  0  0  0  0  0  0  0999 V2000
   -4.0430   23.4020  -28.3080 C   0  0  0  0  0  0  0  0  0  0  0  0
   -3.1710   23.8150  -29.4990 C   0  0  0  0  0  0  0  0  0  0  0  0
   -3.9810   23.8820  -30.7510 N   0  0  0  0  0  0  0  0  0  0  0  0
   -5.4190   24.1510  -30.4940 C   0  0  0  0  0  0  0  0  0  0  0  0
   -5.7360   25.6440  -30.4590 C   0  0  0  0  0  0  0  0  0  0  0  0
   -3.8380   22.6610  -31.5870 C   0  0  0  0  0  0  0  0  0  0  0  0
   -4.8820   22.6760  -32.7080 C   0  0  0  0  0  0  0  0  0  0  0  0
   -5.7860   21.5310  -32.5770 N   0  0  0  0  0  0  0  0  0  0  0  0
   -7.1240   21.5150  -32.2990 C   0  0  0  0  0  0  0  0  0  0  0  0
   -7.9490   22.5940  -31.9530 C   0  0  0  0  0  0  0  0  0  0  0  0
   -9.3230   22.3490  -31.7740 C   0  0  0  0  0  0  0  0  0  0  0  0
   -9.8560   21.0530  -31.9620 C   0  0  0  0  0  0  0  0  0  0  0  0
   -9.0230   19.9780  -32.3320 C   0  0  0  0  0  0  0  0  0  0  0  0
   -7.6660   20.2400  -32.4760 C   0  0  0  0  0  0  0  0  0  0  0  0
   -6.6140   19.4630  -32.8880 C   0  0  0  0  0  0  0  0  0  0  0  0
   -6.2060   18.2390  -33.3430 C   0  0  0  0  0  0  0  0  0  0  0  0
   -6.8690   17.0370  -33.5580 C   0  0  0  0  0  0  0  0  0  0  0  0
   -6.1140   15.9630  -34.0670 C   0  0  0  0  0  0  0  0  0  0  0  0
   -4.7360   16.1180  -34.3440 C   0  0  0  0  0  0  0  0  0  0  0  0
   -4.0930   17.3540  -34.1260 C   0  0  0  0  0  0  0  0  0  0  0  0
   -4.8550   18.4100  -33.6260 C   0  0  0  0  0  0  0  0  0  0  0  0
   -4.4550   19.6520  -33.3780 O   0  0  0  0  0  0  0  0  0  0  0  0
   -5.5380   20.2540  -32.9360 C   0  0  0  0  0  0  0  0  0  0  0  0
   -3.5233   23.6481  -27.3703 H   0  0  0  0  0  0  0  0  0  0  0  0
   -5.0002   23.9424  -28.3495 H   0  0  0  0  0  0  0  0  0  0  0  0
   -4.2313   22.3190  -28.3495 H   0  0  0  0  0  0  0  0  0  0  0  0
   -2.7330   24.8041  -29.2995 H   0  0  0  0  0  0  0  0  0  0  0  0
   -2.3776   23.0647  -29.6321 H   0  0  0  0  0  0  0  0  0  0  0  0
   -6.0139   23.6824  -31.2919 H   0  0  0  0  0  0  0  0  0  0  0  0
   -5.6667   23.7329  -29.5071 H   0  0  0  0  0  0  0  0  0  0  0  0
   -5.8072   25.9793  -29.4138 H   0  0  0  0  0  0  0  0  0  0  0  0
   -4.9360   26.2007  -30.9690 H   0  0  0  0  0  0  0  0  0  0  0  0
   -6.6932   25.8277  -30.9690 H   0  0  0  0  0  0  0  0  0  0  0  0
   -2.8300   22.6352  -32.0267 H   0  0  0  0  0  0  0  0  0  0  0  0
   -3.9909   21.7706  -30.9595 H   0  0  0  0  0  0  0  0  0  0  0  0
   -5.4648   23.6070  -32.6485 H   0  0  0  0  0  0  0  0  0  0  0  0
   -4.3663   22.6152  -33.6777 H   0  0  0  0  0  0  0  0  0  0  0  0
   -7.5338   23.6045  -31.8249 H   0  0  0  0  0  0  0  0  0  0  0  0
   -9.9897   23.1747  -31.4847 H   0  0  0  0  0  0  0  0  0  0  0  0
  -10.9330   20.8818  -31.8179 H   0  0  0  0  0  0  0  0  0  0  0  0
   -9.4313   18.9705  -32.5003 H   0  0  0  0  0  0  0  0  0  0  0  0
   -7.9416   16.9287  -33.3392 H   0  0  0  0  0  0  0  0  0  0  0  0
   -6.6009   14.9939  -34.2510 H   0  0  0  0  0  0  0  0  0  0  0  0
   -4.1598   15.2658  -34.7335 H   0  0  0  0  0  0  0  0  0  0  0  0
   -3.0223   17.4816  -34.3438 H   0  0  0  0  0  0  0  0  0  0  0  0
  1  2  1  0
  2  3  1  0
  3  4  1  0
  4  5  1  0
  3  6  1  0
  6  7  1  0
  7  8  1  0
  8  9  1  0
  9 10  2  0
 10 11  1  0
 11 12  2  0
 12 13  1  0
 13 14  2  0
 14 15  1  0
 15 16  1  0
 16 17  2  0
 17 18  1  0
 18 19  2  0
 19 20  1  0
 20 21  2  0
 21 22  1  0
 22 23  1  0
 23  8  1  0
 14  9  1  0
 23 15  2  0
 21 16  1  0
  1 24  1  0
  1 25  1  0
  1 26  1  0
  2 27  1  0
  2 28  1  0
  4 29  1  0
  4 30  1  0
  5 31  1  0
  5 32  1  0
  5 33  1  0
  6 34  1  0
  6 35  1  0
  7 36  1  0
  7 37  1  0
 10 38  1  0
 11 39  1  0
 12 40  1  0
 13 41  1  0
 17 42  1  0
 18 43  1  0
 19 44  1  0
 20 45  1  0
M  END
>  <UniqueID>  (24) 
24

>  <SMILES>  (24) 
CCN(CC)CCn1c2ccccc2c2c3ccccc3oc21

>  <Energy>  (24) 
147.2338870927055

>  <Genealogy>  (24) 
CCN(CC)CCn1c2ccccc2c2c3ccccc3oc21 (3D coordinates assigned)
CCN(CC)CCn1c2ccccc2c2c3ccccc3oc21 (optimized conformer: 147.2338870927055 kcal/mol)

>  <smiles>  (24) 
CCN(CC)CCn1c2ccccc2c2c3ccccc3oc21

>  <score_type>  (24) 
oracle

>  <origin>  (24) 
adg

>  <m_score__min__energy>  (24) 
-8.7899999999999991

>  <m_primary>  (24) 
energy

$$$$
24:0
     RDKit          3D

 37 37  0  0  0  0  0  0  0  0999 V2000
   -6.6270   17.8500  -31.2830 C   0  0  0  0  0  0  0  0  0  0  0  0
   -7.9530   18.0080  -32.0260 C   0  0  0  0  0  0  0  0  0  0  0  0
   -8.0540   19.3240  -32.7000 N   0  0  0  0  0  0  0  0  0  0  0  0
   -6.7230   19.8990  -32.9950 C   0  0  0  0  0  0  0  0  0  0  0  0
   -6.1180   19.2210  -34.2200 C   0  0  0  0  0  0  0  0  0  0  0  0
   -8.9940   20.2900  -32.0700 C   0  0  0  0  0  0  0  0  0  0  0  0
   -8.3500   21.3750  -31.1840 C   0  0  0  0  0  0  0  0  0  0  0  0
   -8.5410   23.0530  -31.8780 S   0  0  0  0  0  0  0  0  0  0  0  0
   -6.9340   23.6050  -31.3050 C   0  0  0  0  0  0  0  0  0  0  0  0
   -5.7780   22.9180  -31.6900 C   0  0  0  0  0  0  0  0  0  0  0  0
   -4.5240   23.3490  -31.2450 C   0  0  0  0  0  0  0  0  0  0  0  0
   -4.4180   24.4740  -30.4040 C   0  0  0  0  0  0  0  0  0  0  0  0
   -3.1860   24.9460  -29.9300 O   0  0  0  0  0  0  0  0  0  0  0  0
   -2.4330   24.3280  -28.8900 C   0  0  0  0  0  0  0  0  0  0  0  0
   -5.5820   25.1520  -30.0220 C   0  0  0  0  0  0  0  0  0  0  0  0
   -6.8350   24.7210  -30.4680 C   0  0  0  0  0  0  0  0  0  0  0  0
   -6.8095   17.8718  -30.1985 H   0  0  0  0  0  0  0  0  0  0  0  0
   -6.1648   16.8904  -31.5579 H   0  0  0  0  0  0  0  0  0  0  0  0
   -5.9522   18.6741  -31.5579 H   0  0  0  0  0  0  0  0  0  0  0  0
   -8.0339   17.2136  -32.7825 H   0  0  0  0  0  0  0  0  0  0  0  0
   -8.7673   17.9380  -31.2898 H   0  0  0  0  0  0  0  0  0  0  0  0
   -6.8275   20.9765  -33.1902 H   0  0  0  0  0  0  0  0  0  0  0  0
   -6.0617   19.7371  -32.1310 H   0  0  0  0  0  0  0  0  0  0  0  0
   -5.4180   18.4365  -33.8966 H   0  0  0  0  0  0  0  0  0  0  0  0
   -6.9200   18.7708  -34.8234 H   0  0  0  0  0  0  0  0  0  0  0  0
   -5.5797   19.9667  -34.8234 H   0  0  0  0  0  0  0  0  0  0  0  0
   -9.5468   20.7964  -32.8750 H   0  0  0  0  0  0  0  0  0  0  0  0
   -9.6278   19.6935  -31.3973 H   0  0  0  0  0  0  0  0  0  0  0  0
   -8.8251   21.3478  -30.1923 H   0  0  0  0  0  0  0  0  0  0  0  0
   -7.2729   21.1600  -31.1239 H   0  0  0  0  0  0  0  0  0  0  0  0
   -5.8553   22.0370  -32.3441 H   0  0  0  0  0  0  0  0  0  0  0  0
   -3.6174   22.8075  -31.5529 H   0  0  0  0  0  0  0  0  0  0  0  0
   -2.8243   24.6492  -27.9134 H   0  0  0  0  0  0  0  0  0  0  0  0
   -2.5165   23.2346  -28.9769 H   0  0  0  0  0  0  0  0  0  0  0  0
   -1.3769   24.6231  -28.9769 H   0  0  0  0  0  0  0  0  0  0  0  0
   -5.5100   26.0315  -29.3652 H   0  0  0  0  0  0  0  0  0  0  0  0
   -7.7433   25.2599  -30.1604 H   0  0  0  0  0  0  0  0  0  0  0  0
  1  2  1  0
  2  3  1  0
  3  4  1  0
  4  5  1  0
  3  6  1  0
  6  7  1  0
  7  8  1  0
  8  9  1  0
  9 10  2  0
 10 11  1  0
 11 12  2  0
 12 13  1  0
 13 14  1  0
 12 15  1  0
 15 16  2  0
 16  9  1  0
  1 17  1  0
  1 18  1  0
  1 19  1  0
  2 20  1  0
  2 21  1  0
  4 22  1  0
  4 23  1  0
  5 24  1  0
  5 25  1  0
  5 26  1  0
  6 27  1  0
  6 28  1  0
  7 29  1  0
  7 30  1  0
 10 31  1  0
 11 32  1  0
 14 33  1  0
 14 34  1  0
 14 35  1  0
 15 36  1  0
 16 37  1  0
M  END
>  <UniqueID>  (25) 
25

>  <SMILES>  (25) 
CCN(CC)CCSc1ccc(OC)cc1

>  <Energy>  (25) 
32.2724717016237

>  <Genealogy>  (25) 
CCN(CC)CCSc1ccc(OC)cc1 (3D coordinates assigned)
CCN(CC)CCSc1ccc(OC)cc1 (optimized conformer: 32.2724717016237 kcal/mol)

>  <smiles>  (25) 
CCN(CC)CCSc1ccc(OC)cc1

>  <score_type>  (25) 
oracle

>  <origin>  (25) 
adg

>  <m_score__min__energy>  (25) 
-6.5800000000000001

>  <m_primary>  (25) 
energy

$$$$
25:0
     RDKit          3D

 28 29  0  0  0  0  0  0  0  0999 V2000
   -5.9910   25.3300  -29.3940 C   0  0  0  0  0  0  0  0  0  0  0  0
   -5.0990   25.0330  -30.5500 C   0  0  0  0  0  0  0  0  0  0  0  0
   -3.8670   25.2930  -30.4650 O   0  0  0  0  0  0  0  0  0  0  0  0
   -5.6600   24.5720  -31.7480 O   0  0  0  0  0  0  0  0  0  0  0  0
   -5.7420   23.2280  -32.1420 C   0  0  0  0  0  0  0  0  0  0  0  0
   -4.6310   22.5160  -32.6290 C   0  0  0  0  0  0  0  0  0  0  0  0
   -4.7580   21.1740  -32.9990 C   0  0  0  0  0  0  0  0  0  0  0  0
   -5.9950   20.5140  -32.8780 C   0  0  0  0  0  0  0  0  0  0  0  0
   -6.1320   19.0880  -33.2720 C   0  0  0  0  0  0  0  0  0  0  0  0
   -7.1100   18.2710  -32.6750 C   0  0  0  0  0  0  0  0  0  0  0  0
   -7.2370   16.9300  -33.0480 C   0  0  0  0  0  0  0  0  0  0  0  0
   -6.3900   16.3880  -34.0180 C   0  0  0  0  0  0  0  0  0  0  0  0
   -6.5150   15.0870  -34.3780 F   0  0  0  0  0  0  0  0  0  0  0  0
   -5.4140   17.1880  -34.6170 C   0  0  0  0  0  0  0  0  0  0  0  0
   -5.2840   18.5320  -34.2480 C   0  0  0  0  0  0  0  0  0  0  0  0
   -7.0970   21.2250  -32.3730 C   0  0  0  0  0  0  0  0  0  0  0  0
   -6.9660   22.5660  -32.0030 C   0  0  0  0  0  0  0  0  0  0  0  0
   -5.4471   25.1489  -28.4552 H   0  0  0  0  0  0  0  0  0  0  0  0
   -6.3085   26.3823  -29.4367 H   0  0  0  0  0  0  0  0  0  0  0  0
   -6.8759   24.6780  -29.4367 H   0  0  0  0  0  0  0  0  0  0  0  0
   -3.6565   23.0182  -32.7192 H   0  0  0  0  0  0  0  0  0  0  0  0
   -3.8846   20.6298  -33.3876 H   0  0  0  0  0  0  0  0  0  0  0  0
   -7.7792   18.6907  -31.9095 H   0  0  0  0  0  0  0  0  0  0  0  0
   -8.0056   16.2998  -32.5767 H   0  0  0  0  0  0  0  0  0  0  0  0
   -4.7465   16.7611  -35.3800 H   0  0  0  0  0  0  0  0  0  0  0  0
   -4.5143   19.1575  -34.7238 H   0  0  0  0  0  0  0  0  0  0  0  0
   -8.0697   20.7222  -32.2683 H   0  0  0  0  0  0  0  0  0  0  0  0
   -7.8344   23.1065  -31.5983 H   0  0  0  0  0  0  0  0  0  0  0  0
  1  2  1  0
  2  3  2  0
  2  4  1  0
  4  5  1  0
  5  6  2  0
  6  7  1  0
  7  8  2  0
  8  9  1  0
  9 10  2  0
 10 11  1  0
 11 12  2  0
 12 13  1  0
 12 14  1  0
 14 15  2  0
  8 16  1  0
 16 17  2  0
 17  5  1  0
 15  9  1  0
  1 18  1  0
  1 19  1  0
  1 20  1  0
  6 21  1  0
  7 22  1  0
 10 23  1  0
 11 24  1  0
 14 25  1  0
 15 26  1  0
 16 27  1  0
 17 28  1  0
M  END
>  <UniqueID>  (26) 
26

>  <SMILES>  (26) 
CC(=O)Oc1ccc(-c2ccc(F)cc2)cc1

>  <Energy>  (26) 
36.63118755322486

>  <Genealogy>  (26) 
CC(=O)Oc1ccc(-c2ccc(F)cc2)cc1 (3D coordinates assigned)
CC(=O)Oc1ccc(-c2ccc(F)cc2)cc1 (optimized conformer: 36.63118755322486 kcal/mol)

>  <smiles>  (26) 
CC(=O)Oc1ccc(-c2ccc(F)cc2)cc1

>  <score_type>  (26) 
oracle

>  <origin>  (26) 
adg

>  <m_score__min__energy>  (26) 
-7.4100000000000001

>  <m_primary>  (26) 
energy

$$$$
26:0
     RDKit          3D

 64 67  0  0  0  0  0  0  0  0999 V2000
    1.5520   19.6980  -28.2210 C   0  0  0  0  0  0  0  0  0  0  0  0
    0.2920   20.5790  -28.2420 C   0  0  0  0  0  0  0  0  0  0  0  0
    0.3010   21.6490  -27.2190 N   0  0  0  0  0  0  0  0  0  0  0  0
   -0.8320   21.5550  -26.2680 C   0  0  0  0  0  0  0  0  0  0  0  0
   -1.6330   20.2870  -26.5380 C   0  0  0  0  0  0  0  0  0  0  0  0
    0.4590   22.9940  -27.8120 C   0  0  0  0  0  0  0  0  0  0  0  0
   -0.8820   23.6070  -28.0960 C   0  0  0  0  0  0  0  0  0  0  0  0
   -1.8130   23.0810  -28.9720 C   0  0  0  0  0  0  0  0  0  0  0  0
   -2.9200   23.9130  -28.9130 C   0  0  0  0  0  0  0  0  0  0  0  0
   -4.1700   23.7790  -29.7000 C   0  0  0  0  0  0  0  0  0  0  0  0
   -4.8740   22.5610  -29.7190 C   0  0  0  0  0  0  0  0  0  0  0  0
   -6.0350   22.4230  -30.4830 C   0  0  0  0  0  0  0  0  0  0  0  0
   -6.5230   23.5040  -31.2320 C   0  0  0  0  0  0  0  0  0  0  0  0
   -7.7400   23.3350  -32.1120 C   0  0  0  0  0  0  0  0  0  0  0  0
   -8.6610   22.3130  -31.5840 N   0  0  0  0  0  0  0  0  0  0  0  0
   -8.2780   20.9860  -32.0080 C   0  0  0  0  0  0  0  0  0  0  0  0
   -8.9090   19.8520  -31.4700 C   0  0  0  0  0  0  0  0  0  0  0  0
   -8.5130   18.6040  -31.8350 N   0  0  0  0  0  0  0  0  0  0  0  0
   -7.5030   18.4040  -32.7230 C   0  0  0  0  0  0  0  0  0  0  0  0
   -7.1170   17.1040  -33.0660 C   0  0  0  0  0  0  0  0  0  0  0  0
   -6.0650   16.9000  -33.9660 C   0  0  0  0  0  0  0  0  0  0  0  0
   -5.3960   17.9950  -34.5250 C   0  0  0  0  0  0  0  0  0  0  0  0
   -5.7720   19.2990  -34.1850 C   0  0  0  0  0  0  0  0  0  0  0  0
   -6.8280   19.5110  -33.2840 C   0  0  0  0  0  0  0  0  0  0  0  0
   -7.2260   20.8040  -32.9210 C   0  0  0  0  0  0  0  0  0  0  0  0
   -5.8300   24.7230  -31.2120 C   0  0  0  0  0  0  0  0  0  0  0  0
   -4.6630   24.8590  -30.4530 C   0  0  0  0  0  0  0  0  0  0  0  0
   -2.6180   24.9090  -27.9970 C   0  0  0  0  0  0  0  0  0  0  0  0
   -1.3760   24.7230  -27.5090 N   0  0  0  0  0  0  0  0  0  0  0  0
   -0.7280   25.5820  -26.5130 C   0  0  0  0  0  0  0  0  0  0  0  0
   -1.6600   25.8360  -25.3330 C   0  0  0  0  0  0  0  0  0  0  0  0
    1.8409   19.4960  -27.1790 H   0  0  0  0  0  0  0  0  0  0  0  0
    1.3436   18.7478  -28.7345 H   0  0  0  0  0  0  0  0  0  0  0  0
    2.3729   20.2199  -28.7345 H   0  0  0  0  0  0  0  0  0  0  0  0
    0.2111   21.0469  -29.2342 H   0  0  0  0  0  0  0  0  0  0  0  0
   -0.5633   19.9248  -28.0176 H   0  0  0  0  0  0  0  0  0  0  0  0
   -0.4433   21.5286  -25.2393 H   0  0  0  0  0  0  0  0  0  0  0  0
   -1.4858   22.4302  -26.3965 H   0  0  0  0  0  0  0  0  0  0  0  0
   -1.9239   19.8266  -25.5823 H   0  0  0  0  0  0  0  0  0  0  0  0
   -2.5360   20.5393  -27.1133 H   0  0  0  0  0  0  0  0  0  0  0  0
   -1.0173   19.5799  -27.1133 H   0  0  0  0  0  0  0  0  0  0  0  0
    1.0088   23.6369  -27.1088 H   0  0  0  0  0  0  0  0  0  0  0  0
    1.0143   22.9020  -28.7571 H   0  0  0  0  0  0  0  0  0  0  0  0
   -1.6981   22.1804  -29.5930 H   0  0  0  0  0  0  0  0  0  0  0  0
   -4.5067   21.7098  -29.1269 H   0  0  0  0  0  0  0  0  0  0  0  0
   -6.5695   21.4617  -30.4974 H   0  0  0  0  0  0  0  0  0  0  0  0
   -8.2717   24.2961  -32.1723 H   0  0  0  0  0  0  0  0  0  0  0  0
   -7.4000   23.0075  -33.1055 H   0  0  0  0  0  0  0  0  0  0  0  0
   -9.6410   22.5260  -31.8840 H   0  0  0  0  0  0  0  0  0  0  0  0
   -8.6430   22.3550  -30.5370 H   0  0  0  0  0  0  0  0  0  0  0  0
   -9.7297   19.9750  -30.7480 H   0  0  0  0  0  0  0  0  0  0  0  0
   -7.6407   16.2415  -32.6280 H   0  0  0  0  0  0  0  0  0  0  0  0
   -5.7632   15.8769  -34.2347 H   0  0  0  0  0  0  0  0  0  0  0  0
   -4.5716   17.8297  -35.2342 H   0  0  0  0  0  0  0  0  0  0  0  0
   -5.2411   20.1571  -34.6229 H   0  0  0  0  0  0  0  0  0  0  0  0
   -6.7144   21.6776  -33.3512 H   0  0  0  0  0  0  0  0  0  0  0  0
   -6.2059   25.5761  -31.7959 H   0  0  0  0  0  0  0  0  0  0  0  0
   -4.1264   25.8192  -30.4452 H   0  0  0  0  0  0  0  0  0  0  0  0
   -3.2925   25.7295  -27.7110 H   0  0  0  0  0  0  0  0  0  0  0  0
    0.1866   25.0893  -26.1514 H   0  0  0  0  0  0  0  0  0  0  0  0
   -0.4817   26.5455  -26.9832 H   0  0  0  0  0  0  0  0  0  0  0  0
   -1.1098   25.6861  -24.3923 H   0  0  0  0  0  0  0  0  0  0  0  0
   -2.0351   26.8691  -25.3777 H   0  0  0  0  0  0  0  0  0  0  0  0
   -2.5074   25.1360  -25.3777 H   0  0  0  0  0  0  0  0  0  0  0  0
  1  2  1  0
  2  3  1  0
  3  4  1  0
  4  5  1  0
  3  6  1  0
  6  7  1  0
  7  8  2  0
  8  9  1  0
  9 10  1  0
 10 11  2  0
 11 12  1  0
 12 13  2  0
 13 14  1  0
 14 15  1  0
 15 16  1  0
 16 17  2  0
 17 18  1  0
 18 19  2  0
 19 20  1  0
 20 21  2  0
 21 22  1  0
 22 23  2  0
 23 24  1  0
 24 25  2  0
 13 26  1  0
 26 27  2  0
  9 28  2  0
 28 29  1  0
 29 30  1  0
 30 31  1  0
 29  7  1  0
 27 10  1  0
 25 16  1  0
 24 19  1  0
  1 32  1  0
  1 33  1  0
  1 34  1  0
  2 35  1  0
  2 36  1  0
  4 37  1  0
  4 38  1  0
  5 39  1  0
  5 40  1  0
  5 41  1  0
  6 42  1  0
  6 43  1  0
  8 44  1  0
 11 45  1  0
 12 46  1  0
 14 47  1  0
 14 48  1  0
 15 49  1  0
 15 50  1  0
 17 51  1  0
 20 52  1  0
 21 53  1  0
 22 54  1  0
 23 55  1  0
 25 56  1  0
 26 57  1  0
 27 58  1  0
 28 59  1  0
 30 60  1  0
 30 61  1  0
 31 62  1  0
 31 63  1  0
 31 64  1  0
M  CHG  1  15   1
M  END
>  <UniqueID>  (27) 
27

>  <SMILES>  (27) 
CCN(CC)Cc1cc(-c2ccc(C[NH2+]c3cnc4ccccc4c3)cc2)cn1CC

>  <Energy>  (27) 
94.29742399677934

>  <Genealogy>  (27) 
CCN(CC)Cc1cc(-c2ccc(C[NH2+]c3cnc4ccccc4c3)cc2)cn1CC (protonated)
CCN(CC)Cc1cc(-c2ccc(C[NH2+]c3cnc4ccccc4c3)cc2)cn1CC (3D coordinates assigned)
CCN(CC)Cc1cc(-c2ccc(C[NH2+]c3cnc4ccccc4c3)cc2)cn1CC (optimized conformer: 94.29742399677934 kcal/mol)

>  <smiles>  (27) 
CCN(CC)Cc1cc(-c2ccc(CNc3cnc4ccccc4c3)cc2)cn1CC

>  <score_type>  (27) 
oracle

>  <origin>  (27) 
adg

>  <m_score__min__energy>  (27) 
-8.7899999999999991

>  <m_primary>  (27) 
energy

$$$$
27:0
     RDKit          3D

 45 49  0  0  0  0  0  0  0  0999 V2000
    1.9160   25.8480  -24.0650 C   0  0  0  0  0  0  0  0  0  0  0  0
    1.3860   24.7660  -24.8250 O   0  0  0  0  0  0  0  0  0  0  0  0
    0.1500   24.7970  -25.4860 C   0  0  0  0  0  0  0  0  0  0  0  0
   -0.8600   25.6380  -24.9730 C   0  0  0  0  0  0  0  0  0  0  0  0
   -2.1200   25.7130  -25.5910 C   0  0  0  0  0  0  0  0  0  0  0  0
   -2.3580   24.9390  -26.7290 C   0  0  0  0  0  0  0  0  0  0  0  0
   -3.5280   24.9140  -27.4200 N   0  0  0  0  0  0  0  0  0  0  0  0
   -3.4750   24.0640  -28.4800 C   0  0  0  0  0  0  0  0  0  0  0  0
   -4.5990   23.8250  -29.4200 C   0  0  0  0  0  0  0  0  0  0  0  0
   -4.7120   24.5830  -30.6010 C   0  0  0  0  0  0  0  0  0  0  0  0
   -5.7690   24.3650  -31.4870 C   0  0  0  0  0  0  0  0  0  0  0  0
   -6.7350   23.3940  -31.2040 C   0  0  0  0  0  0  0  0  0  0  0  0
   -8.0970   23.1280  -32.3410 S   0  0  0  0  0  0  0  0  0  0  0  0
   -7.9970   21.3350  -32.2000 C   0  0  0  0  0  0  0  0  0  0  0  0
   -9.1300   20.6420  -31.7510 C   0  0  0  0  0  0  0  0  0  0  0  0
   -9.1010   19.2560  -31.5970 C   0  0  0  0  0  0  0  0  0  0  0  0
   -7.9420   18.5390  -31.8960 C   0  0  0  0  0  0  0  0  0  0  0  0
   -6.8040   19.2070  -32.3580 C   0  0  0  0  0  0  0  0  0  0  0  0
   -5.6810   18.4990  -32.6560 N   0  0  0  0  0  0  0  0  0  0  0  0
   -4.5540   19.1010  -33.1160 C   0  0  0  0  0  0  0  0  0  0  0  0
   -4.5260   20.4830  -33.3040 C   0  0  0  0  0  0  0  0  0  0  0  0
   -5.6610   21.2410  -33.0100 C   0  0  0  0  0  0  0  0  0  0  0  0
   -6.8220   20.6150  -32.5230 C   0  0  0  0  0  0  0  0  0  0  0  0
   -6.6320   22.6330  -30.0360 C   0  0  0  0  0  0  0  0  0  0  0  0
   -5.5740   22.8480  -29.1470 C   0  0  0  0  0  0  0  0  0  0  0  0
   -1.9540   23.3140  -28.5810 S   0  0  0  0  0  0  0  0  0  0  0  0
   -1.3660   24.1130  -27.2280 C   0  0  0  0  0  0  0  0  0  0  0  0
   -0.1090   24.0180  -26.6370 C   0  0  0  0  0  0  0  0  0  0  0  0
    1.8090   25.6296  -22.9922 H   0  0  0  0  0  0  0  0  0  0  0  0
    2.9807   25.9799  -24.3080 H   0  0  0  0  0  0  0  0  0  0  0  0
    1.3675   26.7700  -24.3080 H   0  0  0  0  0  0  0  0  0  0  0  0
   -0.6585   26.2434  -24.0769 H   0  0  0  0  0  0  0  0  0  0  0  0
   -2.9044   26.3692  -25.1859 H   0  0  0  0  0  0  0  0  0  0  0  0
   -4.3660   25.4680  -27.1400 H   0  0  0  0  0  0  0  0  0  0  0  0
   -3.9608   25.3539  -30.8278 H   0  0  0  0  0  0  0  0  0  0  0  0
   -5.8421   24.9586  -32.4102 H   0  0  0  0  0  0  0  0  0  0  0  0
  -10.0508   21.1967  -31.5179 H   0  0  0  0  0  0  0  0  0  0  0  0
   -9.9957   18.7260  -31.2383 H   0  0  0  0  0  0  0  0  0  0  0  0
   -7.9236   17.4466  -31.7681 H   0  0  0  0  0  0  0  0  0  0  0  0
   -3.6619   18.4980  -33.3407 H   0  0  0  0  0  0  0  0  0  0  0  0
   -3.6159   20.9722  -33.6813 H   0  0  0  0  0  0  0  0  0  0  0  0
   -5.6469   22.3307  -33.1597 H   0  0  0  0  0  0  0  0  0  0  0  0
   -7.3855   21.8626  -29.8154 H   0  0  0  0  0  0  0  0  0  0  0  0
   -5.5036   22.2487  -28.2273 H   0  0  0  0  0  0  0  0  0  0  0  0
    0.6624   23.3543  -27.0546 H   0  0  0  0  0  0  0  0  0  0  0  0
  1  2  1  0
  2  3  1  0
  3  4  2  0
  4  5  1  0
  5  6  2  0
  6  7  1  0
  7  8  2  0
  8  9  1  0
  9 10  2  0
 10 11  1  0
 11 12  2  0
 12 13  1  0
 13 14  1  0
 14 15  2  0
 15 16  1  0
 16 17  2  0
 17 18  1  0
 18 19  2  0
 19 20  1  0
 20 21  2  0
 21 22  1  0
 22 23  2  0
 12 24  1  0
 24 25  2  0
  8 26  1  0
 26 27  1  0
 27 28  2  0
 28  3  1  0
 27  6  1  0
 25  9  1  0
 23 14  1  0
 23 18  1  0
  1 29  1  0
  1 30  1  0
  1 31  1  0
  4 32  1  0
  5 33  1  0
  7 34  1  0
 10 35  1  0
 11 36  1  0
 15 37  1  0
 16 38  1  0
 17 39  1  0
 20 40  1  0
 21 41  1  0
 22 42  1  0
 24 43  1  0
 25 44  1  0
 28 45  1  0
M  CHG  1   7   1
M  END
>  <UniqueID>  (28) 
28

>  <SMILES>  (28) 
COc1ccc2[nH+]c(-c3ccc(Sc4cccc5ncccc45)cc3)sc2c1

>  <Energy>  (28) 
87.96006372495026

>  <Genealogy>  (28) 
COc1ccc2[nH+]c(-c3ccc(Sc4cccc5ncccc45)cc3)sc2c1 (protonated)
COc1ccc2[nH+]c(-c3ccc(Sc4cccc5ncccc45)cc3)sc2c1 (3D coordinates assigned)
COc1ccc2[nH+]c(-c3ccc(Sc4cccc5ncccc45)cc3)sc2c1 (optimized conformer: 87.96006372495026 kcal/mol)

>  <smiles>  (28) 
COc1ccc2nc(-c3ccc(Sc4cccc5ncccc45)cc3)sc2c1

>  <score_type>  (28) 
oracle

>  <origin>  (28) 
adg

>  <m_score__min__energy>  (28) 
-8.9600000000000009

>  <m_primary>  (28) 
energy

$$$$
28:0
     RDKit          3D

 23 24  0  0  0  0  0  0  0  0999 V2000
   -1.9530   25.0930  -28.1170 C   0  0  0  0  0  0  0  0  0  0  0  0
   -2.6730   25.2960  -29.3280 O   0  0  0  0  0  0  0  0  0  0  0  0
   -3.4750   24.3230  -29.9450 C   0  0  0  0  0  0  0  0  0  0  0  0
   -4.6640   24.6450  -30.6250 C   0  0  0  0  0  0  0  0  0  0  0  0
   -5.4280   23.6400  -31.2230 C   0  0  0  0  0  0  0  0  0  0  0  0
   -5.0280   22.2970  -31.1420 C   0  0  0  0  0  0  0  0  0  0  0  0
   -5.8150   21.2760  -31.7770 N   0  0  0  0  0  0  0  0  0  0  0  0
   -5.3110   20.4170  -32.6520 N   0  0  0  0  0  0  0  0  0  0  0  0
   -6.3150   19.6190  -33.0660 C   0  0  0  0  0  0  0  0  0  0  0  0
   -6.1230   18.3370  -34.2440 Cl  0  0  0  0  0  0  0  0  0  0  0  0
   -7.4890   19.9890  -32.4450 C   0  0  0  0  0  0  0  0  0  0  0  0
   -9.0870   19.3060  -32.6870 Cl  0  0  0  0  0  0  0  0  0  0  0  0
   -7.1400   21.0460  -31.6330 C   0  0  0  0  0  0  0  0  0  0  0  0
   -8.2650   22.0250  -30.7010 Cl  0  0  0  0  0  0  0  0  0  0  0  0
   -3.8310   21.9800  -30.4790 C   0  0  0  0  0  0  0  0  0  0  0  0
   -3.0660   22.9860  -29.8810 C   0  0  0  0  0  0  0  0  0  0  0  0
   -2.6167   25.2801  -27.2600 H   0  0  0  0  0  0  0  0  0  0  0  0
   -1.5866   24.0565  -28.0776 H   0  0  0  0  0  0  0  0  0  0  0  0
   -1.0992   25.7854  -28.0776 H   0  0  0  0  0  0  0  0  0  0  0  0
   -4.9934   25.6928  -30.6860 H   0  0  0  0  0  0  0  0  0  0  0  0
   -6.3503   23.9031  -31.7616 H   0  0  0  0  0  0  0  0  0  0  0  0
   -3.4935   20.9342  -30.4300 H   0  0  0  0  0  0  0  0  0  0  0  0
   -2.1353   22.7246  -29.3561 H   0  0  0  0  0  0  0  0  0  0  0  0
  1  2  1  0
  2  3  1  0
  3  4  2  0
  4  5  1  0
  5  6  2  0
  6  7  1  0
  7  8  1  0
  8  9  2  0
  9 10  1  0
  9 11  1  0
 11 12  1  0
 11 13  2  0
 13 14  1  0
  6 15  1  0
 15 16  2  0
 16  3  1  0
 13  7  1  0
  1 17  1  0
  1 18  1  0
  1 19  1  0
  4 20  1  0
  5 21  1  0
 15 22  1  0
 16 23  1  0
M  END
>  <UniqueID>  (29) 
29

>  <SMILES>  (29) 
COc1ccc(-n2nc(Cl)c(Cl)c2Cl)cc1

>  <Energy>  (29) 
59.57252673942536

>  <Genealogy>  (29) 
COc1ccc(-n2nc(Cl)c(Cl)c2Cl)cc1 (3D coordinates assigned)
COc1ccc(-n2nc(Cl)c(Cl)c2Cl)cc1 (optimized conformer: 59.57252673942536 kcal/mol)

>  <smiles>  (29) 
COc1ccc(-n2nc(Cl)c(Cl)c2Cl)cc1

>  <score_type>  (29) 
oracle

>  <origin>  (29) 
adg

>  <m_score__min__energy>  (29) 
-7.1100000000000003

>  <m_primary>  (29) 
energy

$$$$
29:0
     RDKit          3D

 46 49  0  0  1  0  0  0  0  0999 V2000
   -6.8030   15.5780  -34.2720 C   0  0  0  0  0  0  0  0  0  0  0  0
   -6.5450   16.9220  -33.7140 C   0  0  0  0  0  0  0  0  0  0  0  0
   -5.7630   17.8680  -34.3390 C   0  0  0  0  0  0  0  0  0  0  0  0
   -5.5620   19.1120  -33.7550 C   0  0  0  0  0  0  0  0  0  0  0  0
   -6.1300   19.4500  -32.5430 C   0  0  0  0  0  0  0  0  0  0  0  0
   -5.9020   20.7630  -31.9580 C   0  0  0  0  0  0  0  0  0  0  0  0
   -6.5540   21.8260  -32.4600 N   0  0  0  0  0  0  0  0  0  0  0  0
   -6.4070   23.0780  -31.9850 C   0  0  0  0  0  0  0  0  0  0  0  0
   -7.0460   24.0230  -32.4980 O   0  0  0  0  0  0  0  0  0  0  0  0
   -5.5440   23.2840  -30.9290 C   0  0  0  0  0  0  0  0  0  0  0  0
   -4.8660   22.2100  -30.4000 C   0  0  0  0  0  0  0  0  0  0  0  0
   -5.0680   20.9910  -30.9310 N   0  0  0  0  0  0  0  0  0  0  0  0
   -3.9110   22.3630  -29.2510 C   0  0  0  0  0  0  0  0  0  0  0  0
   -3.7890   23.7810  -28.9420 N   0  0  0  0  0  0  0  0  0  0  0  0
   -2.5110   24.2840  -28.6650 C   0  0  0  0  0  0  0  0  0  0  0  0
   -2.1300   25.2920  -29.3520 O   0  0  0  0  0  0  0  0  0  0  0  0
   -1.5780   23.7460  -27.6480 C   0  0  1  0  0  0  0  0  0  0  0  0
   -0.7530   22.5960  -28.1080 C   0  0  0  0  0  0  0  0  0  0  0  0
    0.6580   23.0100  -27.7890 C   0  0  0  0  0  0  0  0  0  0  0  0
    0.6570   24.3770  -27.7290 O   0  0  0  0  0  0  0  0  0  0  0  0
   -0.5750   24.7780  -27.2300 C   0  0  0  0  0  0  0  0  0  0  0  0
   -5.0110   24.5560  -28.9490 C   0  0  0  0  0  0  0  0  0  0  0  0
   -5.4010   24.6750  -30.4250 C   0  0  0  0  0  0  0  0  0  0  0  0
   -6.9100   18.4880  -31.9370 C   0  0  0  0  0  0  0  0  0  0  0  0
   -7.1260   17.2360  -32.4990 C   0  0  0  0  0  0  0  0  0  0  0  0
   -6.9408   14.8600  -33.4501 H   0  0  0  0  0  0  0  0  0  0  0  0
   -7.7121   15.6061  -34.8906 H   0  0  0  0  0  0  0  0  0  0  0  0
   -5.9481   15.2675  -34.8906 H   0  0  0  0  0  0  0  0  0  0  0  0
   -5.2946   17.6367  -35.3070 H   0  0  0  0  0  0  0  0  0  0  0  0
   -4.9317   19.8496  -34.2734 H   0  0  0  0  0  0  0  0  0  0  0  0
   -4.5370   20.2010  -30.5060 H   0  0  0  0  0  0  0  0  0  0  0  0
   -4.2959   21.8231  -28.3733 H   0  0  0  0  0  0  0  0  0  0  0  0
   -2.9280   21.9479  -29.5180 H   0  0  0  0  0  0  0  0  0  0  0  0
   -2.2502   23.4301  -26.8366 H   0  0  0  0  0  0  0  0  0  0  0  0
   -1.0236   21.6785  -27.5648 H   0  0  0  0  0  0  0  0  0  0  0  0
   -0.8974   22.3712  -29.1751 H   0  0  0  0  0  0  0  0  0  0  0  0
    0.9688   22.5873  -26.8222 H   0  0  0  0  0  0  0  0  0  0  0  0
    1.3619   22.6455  -28.5517 H   0  0  0  0  0  0  0  0  0  0  0  0
   -0.5347   24.8420  -26.1326 H   0  0  0  0  0  0  0  0  0  0  0  0
   -0.8498   25.7700  -27.6177 H   0  0  0  0  0  0  0  0  0  0  0  0
   -5.7992   24.0390  -28.3820 H   0  0  0  0  0  0  0  0  0  0  0  0
   -4.8765   25.5410  -28.4781 H   0  0  0  0  0  0  0  0  0  0  0  0
   -6.3530   25.2168  -30.5255 H   0  0  0  0  0  0  0  0  0  0  0  0
   -4.6442   25.2327  -30.9961 H   0  0  0  0  0  0  0  0  0  0  0  0
   -7.3799   18.7211  -30.9701 H   0  0  0  0  0  0  0  0  0  0  0  0
   -7.7559   16.4983  -31.9803 H   0  0  0  0  0  0  0  0  0  0  0  0
  1  2  1  0
  2  3  2  0
  3  4  1  0
  4  5  2  0
  5  6  1  0
  6  7  2  0
  7  8  1  0
  8  9  2  0
  8 10  1  0
 10 11  2  0
 11 12  1  0
 11 13  1  0
 13 14  1  0
 14 15  1  0
 15 16  2  0
 15 17  1  0
 17 18  1  0
 18 19  1  0
 19 20  1  0
 20 21  1  0
 14 22  1  0
 22 23  1  0
  5 24  1  0
 24 25  2  0
 25  2  1  0
 12  6  1  0
 21 17  1  0
 23 10  1  0
  1 26  1  0
  1 27  1  0
  1 28  1  0
  3 29  1  0
  4 30  1  0
 12 31  1  0
 13 32  1  0
 13 33  1  0
 17 34  1  1
 18 35  1  0
 18 36  1  0
 19 37  1  0
 19 38  1  0
 21 39  1  0
 21 40  1  0
 22 41  1  0
 22 42  1  0
 23 43  1  0
 23 44  1  0
 24 45  1  0
 25 46  1  0
M  END
>  <smiles>  (30) 
Cc1ccc(-c2nc(=O)c3c([nH]2)CN(C(=O)C2CCOC2)CC3)cc1

>  <score_type>  (30) 
oracle

>  <origin>  (30) 
adg

>  <m_score__min__energy>  (30) 
-8.8599999999999994

>  <m_primary>  (30) 
energy

$$$$
30:0
     RDKit          3D

 33 34  0  0  0  0  0  0  0  0999 V2000
   -4.4170   20.7090  -31.2420 O   0  0  0  0  0  0  0  0  0  0  0  0
   -4.0030   21.6630  -30.5290 C   0  0  0  0  0  0  0  0  0  0  0  0
   -3.1460   21.3680  -29.3320 C   0  0  0  0  0  0  0  0  0  0  0  0
   -1.9800   22.3560  -29.2480 C   0  0  0  0  0  0  0  0  0  0  0  0
   -2.4600   23.7770  -29.3510 C   0  0  0  0  0  0  0  0  0  0  0  0
   -1.5600   24.9780  -28.6900 S   0  0  0  0  0  0  0  0  0  0  0  0
   -3.5930   24.0930  -30.2470 C   0  0  0  0  0  0  0  0  0  0  0  0
   -3.8730   25.2960  -30.5030 O   0  0  0  0  0  0  0  0  0  0  0  0
   -4.3630   23.0240  -30.8360 N   0  0  0  0  0  0  0  0  0  0  0  0
   -5.4930   23.3220  -31.7310 C   0  0  0  0  0  0  0  0  0  0  0  0
   -6.8480   23.0960  -31.0370 C   0  0  0  0  0  0  0  0  0  0  0  0
   -7.9350   22.5190  -31.9610 C   0  0  0  0  0  0  0  0  0  0  0  0
   -7.8380   21.0210  -32.1180 C   0  0  0  0  0  0  0  0  0  0  0  0
   -8.7420   20.1770  -31.4530 C   0  0  0  0  0  0  0  0  0  0  0  0
   -8.6560   18.7890  -31.6050 C   0  0  0  0  0  0  0  0  0  0  0  0
   -7.6760   18.2350  -32.4320 C   0  0  0  0  0  0  0  0  0  0  0  0
   -6.7860   19.0680  -33.1160 C   0  0  0  0  0  0  0  0  0  0  0  0
   -6.8680   20.4560  -32.9650 C   0  0  0  0  0  0  0  0  0  0  0  0
   -3.7566   21.4510  -28.4208 H   0  0  0  0  0  0  0  0  0  0  0  0
   -2.7418   20.3494  -29.4275 H   0  0  0  0  0  0  0  0  0  0  0  0
   -1.4643   22.2208  -28.2858 H   0  0  0  0  0  0  0  0  0  0  0  0
   -1.2964   22.1586  -30.0869 H   0  0  0  0  0  0  0  0  0  0  0  0
   -5.4272   24.3728  -32.0495 H   0  0  0  0  0  0  0  0  0  0  0  0
   -5.4337   22.6424  -32.5939 H   0  0  0  0  0  0  0  0  0  0  0  0
   -6.6966   22.3963  -30.2018 H   0  0  0  0  0  0  0  0  0  0  0  0
   -7.2037   24.0821  -30.7037 H   0  0  0  0  0  0  0  0  0  0  0  0
   -8.9208   22.7646  -31.5392 H   0  0  0  0  0  0  0  0  0  0  0  0
   -7.7929   22.9651  -32.9564 H   0  0  0  0  0  0  0  0  0  0  0  0
   -9.5219   20.6095  -30.8091 H   0  0  0  0  0  0  0  0  0  0  0  0
   -9.3608   18.1332  -31.0728 H   0  0  0  0  0  0  0  0  0  0  0  0
   -7.6047   17.1431  -32.5450 H   0  0  0  0  0  0  0  0  0  0  0  0
   -6.0202   18.6313  -33.7739 H   0  0  0  0  0  0  0  0  0  0  0  0
   -6.1708   21.1085  -33.5111 H   0  0  0  0  0  0  0  0  0  0  0  0
  1  2  2  0
  2  3  1  0
  3  4  1  0
  4  5  1  0
  5  6  2  0
  5  7  1  0
  7  8  2  0
  7  9  1  0
  9 10  1  0
 10 11  1  0
 11 12  1  0
 12 13  1  0
 13 14  2  0
 14 15  1  0
 15 16  2  0
 16 17  1  0
 17 18  2  0
  9  2  1  0
 18 13  1  0
  3 19  1  0
  3 20  1  0
  4 21  1  0
  4 22  1  0
 10 23  1  0
 10 24  1  0
 11 25  1  0
 11 26  1  0
 12 27  1  0
 12 28  1  0
 14 29  1  0
 15 30  1  0
 16 31  1  0
 17 32  1  0
 18 33  1  0
M  END
>  <UniqueID>  (31) 
30

>  <SMILES>  (31) 
O=C1CCC(=S)C(=O)N1CCCc1ccccc1

>  <Energy>  (31) 
28.243532438511732

>  <Genealogy>  (31) 
O=C1CCC(=S)C(=O)N1CCCc1ccccc1 (3D coordinates assigned)
O=C1CCC(=S)C(=O)N1CCCc1ccccc1 (nonaromatic ring conformer: 28.243532438511732 kcal/mol)

>  <smiles>  (31) 
O=C1CCC(=S)C(=O)N1CCCc1ccccc1

>  <score_type>  (31) 
oracle

>  <origin>  (31) 
adg

>  <m_score__min__energy>  (31) 
-7.4400000000000004

>  <m_primary>  (31) 
energy

$$$$
31:0
     RDKit          3D

 27 29  0  0  0  0  0  0  0  0999 V2000
   -4.3550   21.1120  -32.9940 C   0  0  0  0  0  0  0  0  0  0  0  0
   -5.5510   21.5060  -32.2360 N   0  0  0  0  0  0  0  0  0  0  0  0
   -6.7480   20.6900  -32.2740 C   0  0  0  0  0  0  0  0  0  0  0  0
   -6.7130   19.3330  -32.6550 C   0  0  0  0  0  0  0  0  0  0  0  0
   -7.8900   18.5830  -32.7170 C   0  0  0  0  0  0  0  0  0  0  0  0
   -9.1140   19.1700  -32.3930 C   0  0  0  0  0  0  0  0  0  0  0  0
   -9.1630   20.5050  -31.9860 C   0  0  0  0  0  0  0  0  0  0  0  0
   -7.9850   21.2630  -31.9130 C   0  0  0  0  0  0  0  0  0  0  0  0
   -8.0300   22.6150  -31.4390 N   0  0  0  0  0  0  0  0  0  0  0  0
   -6.8190   23.3190  -31.1420 C   0  0  0  0  0  0  0  0  0  0  0  0
   -6.8680   24.5480  -30.4690 C   0  0  0  0  0  0  0  0  0  0  0  0
   -5.6870   25.2090  -30.1260 C   0  0  0  0  0  0  0  0  0  0  0  0
   -4.4530   24.6420  -30.4430 C   0  0  0  0  0  0  0  0  0  0  0  0
   -4.3920   23.4210  -31.1210 C   0  0  0  0  0  0  0  0  0  0  0  0
   -5.5770   22.7550  -31.5000 C   0  0  0  0  0  0  0  0  0  0  0  0
   -3.5486   20.8464  -32.2946 H   0  0  0  0  0  0  0  0  0  0  0  0
   -4.5917   20.2443  -33.6274 H   0  0  0  0  0  0  0  0  0  0  0  0
   -4.0296   21.9504  -33.6274 H   0  0  0  0  0  0  0  0  0  0  0  0
   -5.7514   18.8611  -32.9054 H   0  0  0  0  0  0  0  0  0  0  0  0
   -7.8519   17.5268  -33.0220 H   0  0  0  0  0  0  0  0  0  0  0  0
  -10.0406   18.5808  -32.4582 H   0  0  0  0  0  0  0  0  0  0  0  0
  -10.1276   20.9632  -31.7221 H   0  0  0  0  0  0  0  0  0  0  0  0
   -8.9530   23.0540  -31.2150 H   0  0  0  0  0  0  0  0  0  0  0  0
   -7.8402   24.9929  -30.2104 H   0  0  0  0  0  0  0  0  0  0  0  0
   -5.7299   26.1772  -29.6056 H   0  0  0  0  0  0  0  0  0  0  0  0
   -3.5239   25.1576  -30.1584 H   0  0  0  0  0  0  0  0  0  0  0  0
   -3.4146   22.9768  -31.3605 H   0  0  0  0  0  0  0  0  0  0  0  0
  1  2  1  0
  2  3  1  0
  3  4  2  0
  4  5  1  0
  5  6  2  0
  6  7  1  0
  7  8  2  0
  8  9  1  0
  9 10  1  0
 10 11  2  0
 11 12  1  0
 12 13  2  0
 13 14  1  0
 14 15  2  0
 15  2  1  0
  8  3  1  0
 15 10  1  0
  1 16  1  0
  1 17  1  0
  1 18  1  0
  4 19  1  0
  5 20  1  0
  6 21  1  0
  7 22  1  0
  9 23  1  0
 11 24  1  0
 12 25  1  0
 13 26  1  0
 14 27  1  0
M  END
>  <UniqueID>  (32) 
31

>  <SMILES>  (32) 
CN1c2ccccc2Nc2ccccc21

>  <Energy>  (32) 
36.68462701812067

>  <Genealogy>  (32) 
CN1c2ccccc2Nc2ccccc21 (3D coordinates assigned)
CN1c2ccccc2Nc2ccccc21 (nonaromatic ring conformer: 36.68462701812067 kcal/mol)

>  <smiles>  (32) 
CN1c2ccccc2Nc2ccccc21

>  <score_type>  (32) 
oracle

>  <origin>  (32) 
adg

>  <m_score__min__energy>  (32) 
-6.6100000000000003

>  <m_primary>  (32) 
energy

$$$$
32:0
     RDKit          3D

 47 49  0  0  0  0  0  0  0  0999 V2000
   -2.7360   20.8940  -28.5540 C   0  0  0  0  0  0  0  0  0  0  0  0
   -2.8000   21.3010  -29.9910 C   0  0  0  0  0  0  0  0  0  0  0  0
   -2.6200   20.4680  -31.0310 N   0  0  0  0  0  0  0  0  0  0  0  0
   -2.7410   21.2560  -32.1190 C   0  0  0  0  0  0  0  0  0  0  0  0
   -2.6340   20.7560  -33.5320 C   0  0  0  0  0  0  0  0  0  0  0  0
   -1.1800   20.8280  -34.0050 C   0  0  0  0  0  0  0  0  0  0  0  0
   -3.1720   19.3260  -33.6330 C   0  0  0  0  0  0  0  0  0  0  0  0
   -2.9820   22.5100  -31.7990 O   0  0  0  0  0  0  0  0  0  0  0  0
   -3.0260   22.5710  -30.4880 C   0  0  0  0  0  0  0  0  0  0  0  0
   -3.2520   23.8240  -29.7060 C   0  0  0  0  0  0  0  0  0  0  0  0
   -3.6150   24.9130  -30.6250 N   0  0  0  0  0  0  0  0  0  0  0  0
   -5.0660   25.1160  -30.8400 C   0  0  2  0  0  0  0  0  0  0  0  0
   -5.8210   25.4310  -29.5610 C   0  0  0  0  0  0  0  0  0  0  0  0
   -7.2320   24.9420  -29.8390 C   0  0  0  0  0  0  0  0  0  0  0  0
   -7.1530   23.8870  -30.8650 N   0  0  0  0  0  0  0  0  0  0  0  0
   -7.5390   22.5430  -30.3760 C   0  0  0  0  0  0  0  0  0  0  0  0
   -7.3800   21.4490  -31.4010 C   0  0  0  0  0  0  0  0  0  0  0  0
   -6.1930   20.9040  -31.7460 N   0  0  0  0  0  0  0  0  0  0  0  0
   -6.3340   19.9280  -32.6810 C   0  0  0  0  0  0  0  0  0  0  0  0
   -7.6400   19.6800  -33.0840 C   0  0  0  0  0  0  0  0  0  0  0  0
   -8.6490   20.7200  -32.2320 S   0  0  0  0  0  0  0  0  0  0  0  0
   -5.8160   23.9440  -31.4850 C   0  0  0  0  0  0  0  0  0  0  0  0
   -2.8752   21.7790  -27.9157 H   0  0  0  0  0  0  0  0  0  0  0  0
   -3.5301   20.1622  -28.3444 H   0  0  0  0  0  0  0  0  0  0  0  0
   -1.7556   20.4413  -28.3444 H   0  0  0  0  0  0  0  0  0  0  0  0
   -2.4280   19.4420  -31.0010 H   0  0  0  0  0  0  0  0  0  0  0  0
   -3.2438   21.3968  -34.1858 H   0  0  0  0  0  0  0  0  0  0  0  0
   -0.5116   20.8611  -33.1320 H   0  0  0  0  0  0  0  0  0  0  0  0
   -0.9473   19.9403  -34.6115 H   0  0  0  0  0  0  0  0  0  0  0  0
   -1.0362   21.7344  -34.6115 H   0  0  0  0  0  0  0  0  0  0  0  0
   -3.3249   18.9195  -32.6224 H   0  0  0  0  0  0  0  0  0  0  0  0
   -4.1294   19.3318  -34.1746 H   0  0  0  0  0  0  0  0  0  0  0  0
   -2.4482   18.6993  -34.1746 H   0  0  0  0  0  0  0  0  0  0  0  0
   -4.0673   23.6648  -28.9849 H   0  0  0  0  0  0  0  0  0  0  0  0
   -2.3324   24.0907  -29.1644 H   0  0  0  0  0  0  0  0  0  0  0  0
   -3.1720   24.7160  -31.5540 H   0  0  0  0  0  0  0  0  0  0  0  0
   -5.0581   25.9677  -31.5361 H   0  0  0  0  0  0  0  0  0  0  0  0
   -5.3827   24.8955  -28.7059 H   0  0  0  0  0  0  0  0  0  0  0  0
   -5.7861   26.4991  -29.3002 H   0  0  0  0  0  0  0  0  0  0  0  0
   -7.6745   24.5349  -28.9179 H   0  0  0  0  0  0  0  0  0  0  0  0
   -7.8622   25.7719  -30.1912 H   0  0  0  0  0  0  0  0  0  0  0  0
   -6.9105   22.2972  -29.5073 H   0  0  0  0  0  0  0  0  0  0  0  0
   -8.6088   22.5908  -30.1246 H   0  0  0  0  0  0  0  0  0  0  0  0
   -5.4757   19.3742  -33.0893 H   0  0  0  0  0  0  0  0  0  0  0  0
   -7.9576   18.9352  -33.8286 H   0  0  0  0  0  0  0  0  0  0  0  0
   -5.2752   23.0039  -31.3015 H   0  0  0  0  0  0  0  0  0  0  0  0
   -5.8961   24.0834  -32.5732 H   0  0  0  0  0  0  0  0  0  0  0  0
  1  2  1  0
  2  3  1  0
  3  4  2  0
  4  5  1  0
  5  6  1  0
  5  7  1  0
  4  8  1  0
  8  9  1  0
  9 10  1  0
 10 11  1  0
 11 12  1  0
 12 13  1  0
 13 14  1  0
 14 15  1  0
 15 16  1  0
 16 17  1  0
 17 18  2  0
 18 19  1  0
 19 20  2  0
 20 21  1  0
 15 22  1  0
  9  2  2  0
 22 12  1  0
 21 17  1  0
  1 23  1  0
  1 24  1  0
  1 25  1  0
  3 26  1  0
  5 27  1  0
  6 28  1  0
  6 29  1  0
  6 30  1  0
  7 31  1  0
  7 32  1  0
  7 33  1  0
 10 34  1  0
 10 35  1  0
 11 36  1  0
 12 37  1  6
 13 38  1  0
 13 39  1  0
 14 40  1  0
 14 41  1  0
 16 42  1  0
 16 43  1  0
 19 44  1  0
 20 45  1  0
 22 46  1  0
 22 47  1  0
M  CHG  1   3   1
M  END
>  <UniqueID>  (33) 
32

>  <SMILES>  (33) 
Cc1[nH+]c(C(C)C)oc1CN[C@@H]1CCN(Cc2nccs2)C1

>  <Energy>  (33) 
108.2225472428349

>  <Genealogy>  (33) 
Cc1[nH+]c(C(C)C)oc1CNC1CCN(Cc2nccs2)C1 (protonated)
Cc1[nH+]c(C(C)C)oc1CN[C@@H]1CCN(Cc2nccs2)C1 (chirality)
Cc1[nH+]c(C(C)C)oc1CN[C@@H]1CCN(Cc2nccs2)C1 (3D coordinates assigned)
Cc1[nH+]c(C(C)C)oc1CN[C@@H]1CCN(Cc2nccs2)C1 (nonaromatic ring conformer: 108.2225472428349 kcal/mol)

>  <smiles>  (33) 
Cc1nc(C(C)C)oc1CNC1CCN(Cc2nccs2)C1

>  <score_type>  (33) 
oracle

>  <origin>  (33) 
adg

>  <m_score__min__energy>  (33) 
-7.7599999999999998

>  <m_primary>  (33) 
energy

$$$$
33:0
     RDKit          3D

 46 48  0  0  0  0  0  0  0  0999 V2000
   -3.1030   20.5380  -27.5140 C   0  0  0  0  0  0  0  0  0  0  0  0
   -2.8260   21.5810  -28.6010 C   0  0  0  0  0  0  0  0  0  0  0  0
   -1.7000   22.5910  -28.3050 C   0  0  0  0  0  0  0  0  0  0  0  0
   -4.0620   22.0450  -29.3850 C   0  0  1  0  0  0  0  0  0  0  0  0
   -4.1250   23.4860  -29.8270 C   0  0  0  0  0  0  0  0  0  0  0  0
   -5.2170   24.0000  -30.4100 C   0  0  0  0  0  0  0  0  0  0  0  0
   -6.0950   25.2990  -29.6180 Cl  0  0  0  0  0  0  0  0  0  0  0  0
   -5.8020   23.4270  -31.9700 Cl  0  0  0  0  0  0  0  0  0  0  0  0
   -3.0380   21.0940  -30.0460 C   0  0  1  0  0  0  0  0  0  0  0  0
   -2.0240   21.5810  -31.0810 C   0  0  0  0  0  0  0  0  0  0  0  0
   -1.5010   22.6780  -30.9460 O   0  0  0  0  0  0  0  0  0  0  0  0
   -1.7310   20.8210  -32.2900 N   0  0  0  0  0  0  0  0  0  0  0  0
   -1.9540   19.3480  -32.1650 C   0  0  0  0  0  0  0  0  0  0  0  0
   -3.1240   18.8170  -33.0130 C   0  0  0  0  0  0  0  0  0  0  0  0
   -4.2200   19.7900  -33.0330 N   0  0  0  0  0  0  0  0  0  0  0  0
   -5.5600   19.4200  -32.6430 C   0  0  0  0  0  0  0  0  0  0  0  0
   -5.8200   18.1490  -32.0980 C   0  0  0  0  0  0  0  0  0  0  0  0
   -7.1220   17.7840  -31.7440 C   0  0  0  0  0  0  0  0  0  0  0  0
   -8.1790   18.6770  -31.9350 C   0  0  0  0  0  0  0  0  0  0  0  0
   -9.4410   18.3170  -31.5920 F   0  0  0  0  0  0  0  0  0  0  0  0
   -7.9340   19.9390  -32.4830 C   0  0  0  0  0  0  0  0  0  0  0  0
   -8.9600   20.8040  -32.6820 F   0  0  0  0  0  0  0  0  0  0  0  0
   -6.6330   20.3090  -32.8350 C   0  0  0  0  0  0  0  0  0  0  0  0
   -3.9250   21.1680  -33.4450 C   0  0  0  0  0  0  0  0  0  0  0  0
   -2.4100   21.4280  -33.4590 C   0  0  0  0  0  0  0  0  0  0  0  0
   -2.9804   20.9997  -26.5231 H   0  0  0  0  0  0  0  0  0  0  0  0
   -4.1318   20.1632  -27.6191 H   0  0  0  0  0  0  0  0  0  0  0  0
   -2.3957   19.7021  -27.6191 H   0  0  0  0  0  0  0  0  0  0  0  0
   -1.5804   22.6983  -27.2168 H   0  0  0  0  0  0  0  0  0  0  0  0
   -0.7583   22.2292  -28.7435 H   0  0  0  0  0  0  0  0  0  0  0  0
   -1.9577   23.5664  -28.7435 H   0  0  0  0  0  0  0  0  0  0  0  0
   -5.1499   22.0161  -29.2248 H   0  0  0  0  0  0  0  0  0  0  0  0
   -3.2501   24.1331  -29.6663 H   0  0  0  0  0  0  0  0  0  0  0  0
   -3.1444   20.1352  -30.5745 H   0  0  0  0  0  0  0  0  0  0  0  0
   -0.7030   20.9430  -32.4620 H   0  0  0  0  0  0  0  0  0  0  0  0
   -1.0357   18.8312  -32.4807 H   0  0  0  0  0  0  0  0  0  0  0  0
   -2.2097   19.1533  -31.1130 H   0  0  0  0  0  0  0  0  0  0  0  0
   -2.7761   18.6410  -34.0416 H   0  0  0  0  0  0  0  0  0  0  0  0
   -3.4878   17.8771  -32.5723 H   0  0  0  0  0  0  0  0  0  0  0  0
   -4.9936   17.4383  -31.9496 H   0  0  0  0  0  0  0  0  0  0  0  0
   -7.3149   16.7903  -31.3136 H   0  0  0  0  0  0  0  0  0  0  0  0
   -6.4466   21.3038  -33.2658 H   0  0  0  0  0  0  0  0  0  0  0  0
   -4.3278   21.3353  -34.4549 H   0  0  0  0  0  0  0  0  0  0  0  0
   -4.3914   21.8560  -32.7245 H   0  0  0  0  0  0  0  0  0  0  0  0
   -1.9848   20.9995  -34.3785 H   0  0  0  0  0  0  0  0  0  0  0  0
   -2.2519   22.5157  -33.4163 H   0  0  0  0  0  0  0  0  0  0  0  0
  1  2  1  0
  2  3  1  0
  2  4  1  0
  4  5  1  0
  5  6  2  3
  6  7  1  0
  6  8  1  0
  4  9  1  0
  9 10  1  0
 10 11  2  0
 10 12  1  0
 12 13  1  0
 13 14  1  0
 14 15  1  0
 15 16  1  0
 16 17  2  0
 17 18  1  0
 18 19  2  0
 19 20  1  0
 19 21  1  0
 21 22  1  0
 21 23  2  0
 15 24  1  0
 24 25  1  0
  9  2  1  0
 25 12  1  0
 23 16  1  0
  1 26  1  0
  1 27  1  0
  1 28  1  0
  3 29  1  0
  3 30  1  0
  3 31  1  0
  4 32  1  1
  5 33  1  0
  9 34  1  1
 12 35  1  0
 13 36  1  0
 13 37  1  0
 14 38  1  0
 14 39  1  0
 17 40  1  0
 18 41  1  0
 23 42  1  0
 24 43  1  0
 24 44  1  0
 25 45  1  0
 25 46  1  0
M  CHG  1  12   1
M  END
>  <UniqueID>  (34) 
33

>  <SMILES>  (34) 
CC1(C)[C@H](C(=O)[NH+]2CCN(c3ccc(F)c(F)c3)CC2)[C@@H]1C=C(Cl)Cl

>  <Energy>  (34) 
334.18703549355536

>  <Genealogy>  (34) 
CC1(C)C(C=C(Cl)Cl)C1C(=O)[NH+]1CCN(c2ccc(F)c(F)c2)CC1 (protonated)
CC1(C)[C@H](C(=O)[NH+]2CCN(c3ccc(F)c(F)c3)CC2)[C@@H]1C=C(Cl)Cl (chirality)
CC1(C)[C@H](C(=O)[NH+]2CCN(c3ccc(F)c(F)c3)CC2)[C@@H]1C=C(Cl)Cl (3D coordinates assigned)
CC1(C)[C@H](C(=O)[NH+]2CCN(c3ccc(F)c(F)c3)CC2)[C@@H]1C=C(Cl)Cl (nonaromatic ring conformer: 334.18703549355536 kcal/mol)

>  <smiles>  (34) 
CC1(C)C(C=C(Cl)Cl)C1C(=O)N1CCN(c2ccc(F)c(F)c2)CC1

>  <score_type>  (34) 
oracle

>  <origin>  (34) 
adg

>  <m_score__min__energy>  (34) 
-7.2999999999999998

>  <m_primary>  (34) 
energy

$$$$
34:0
     RDKit          3D

 27 28  0  0  0  0  0  0  0  0999 V2000
   -5.5010   25.6630  -30.3060 C   0  0  0  0  0  0  0  0  0  0  0  0
   -4.9900   24.6960  -31.2180 O   0  0  0  0  0  0  0  0  0  0  0  0
   -5.6520   23.5120  -31.5800 C   0  0  0  0  0  0  0  0  0  0  0  0
   -7.0490   23.3810  -31.4850 C   0  0  0  0  0  0  0  0  0  0  0  0
   -7.6790   22.1850  -31.8560 C   0  0  0  0  0  0  0  0  0  0  0  0
   -9.0710   22.0560  -31.7600 C   0  0  0  0  0  0  0  0  0  0  0  0
   -9.6790   20.8950  -32.1210 N   0  0  0  0  0  0  0  0  0  0  0  0
   -8.9680   19.8300  -32.5800 C   0  0  0  0  0  0  0  0  0  0  0  0
   -7.5750   19.9020  -32.6970 C   0  0  0  0  0  0  0  0  0  0  0  0
   -6.8640   18.7450  -33.1900 C   0  0  0  0  0  0  0  0  0  0  0  0
   -6.2940   17.8180  -33.5840 N   0  0  0  0  0  0  0  0  0  0  0  0
   -6.9120   21.0960  -32.3310 C   0  0  0  0  0  0  0  0  0  0  0  0
   -5.5140   21.2350  -32.4230 C   0  0  0  0  0  0  0  0  0  0  0  0
   -4.8830   22.4380  -32.0500 C   0  0  0  0  0  0  0  0  0  0  0  0
   -3.4910   22.6050  -32.1320 O   0  0  0  0  0  0  0  0  0  0  0  0
   -2.5580   21.5480  -32.3300 C   0  0  0  0  0  0  0  0  0  0  0  0
   -5.3223   25.3248  -29.2747 H   0  0  0  0  0  0  0  0  0  0  0  0
   -4.9936   26.6252  -30.4694 H   0  0  0  0  0  0  0  0  0  0  0  0
   -6.5818   25.7860  -30.4694 H   0  0  0  0  0  0  0  0  0  0  0  0
   -7.6522   24.2239  -31.1166 H   0  0  0  0  0  0  0  0  0  0  0  0
   -9.6746   22.8982  -31.3908 H   0  0  0  0  0  0  0  0  0  0  0  0
  -10.7180   20.8180  -32.0430 H   0  0  0  0  0  0  0  0  0  0  0  0
   -9.4920   18.9047  -32.8615 H   0  0  0  0  0  0  0  0  0  0  0  0
   -4.9073   20.3943  -32.7905 H   0  0  0  0  0  0  0  0  0  0  0  0
   -2.2223   21.1676  -31.3540 H   0  0  0  0  0  0  0  0  0  0  0  0
   -3.0388   20.7355  -32.8945 H   0  0  0  0  0  0  0  0  0  0  0  0
   -1.6921   21.9242  -32.8945 H   0  0  0  0  0  0  0  0  0  0  0  0
  1  2  1  0
  2  3  1  0
  3  4  2  0
  4  5  1  0
  5  6  2  0
  6  7  1  0
  7  8  2  0
  8  9  1  0
  9 10  1  0
 10 11  3  0
  9 12  2  0
 12 13  1  0
 13 14  2  0
 14 15  1  0
 15 16  1  0
 14  3  1  0
 12  5  1  0
  1 17  1  0
  1 18  1  0
  1 19  1  0
  4 20  1  0
  6 21  1  0
  7 22  1  0
  8 23  1  0
 13 24  1  0
 16 25  1  0
 16 26  1  0
 16 27  1  0
M  CHG  1   7   1
M  END
>  <UniqueID>  (35) 
34

>  <SMILES>  (35) 
COc1cc2c[nH+]cc(C#N)c2cc1OC

>  <Energy>  (35) 
30.854369696133595

>  <Genealogy>  (35) 
COc1cc2c[nH+]cc(C#N)c2cc1OC (protonated)
COc1cc2c[nH+]cc(C#N)c2cc1OC (3D coordinates assigned)
COc1cc2c[nH+]cc(C#N)c2cc1OC (optimized conformer: 30.854369696133595 kcal/mol)

>  <smiles>  (35) 
COc1cc2cncc(C#N)c2cc1OC

>  <score_type>  (35) 
oracle

>  <origin>  (35) 
adg

>  <m_score__min__energy>  (35) 
-5.4299999999999997

>  <m_primary>  (35) 
energy

$$$$
35:0
     RDKit          3D

 46 48  0  0  0  0  0  0  0  0999 V2000
   -5.0200   14.9800  -34.5200 C   0  0  0  0  0  0  0  0  0  0  0  0
   -5.5440   16.2980  -34.0340 C   0  0  0  0  0  0  0  0  0  0  0  0
   -6.0840   16.4110  -32.7450 C   0  0  0  0  0  0  0  0  0  0  0  0
   -6.6120   17.6300  -32.3050 C   0  0  0  0  0  0  0  0  0  0  0  0
   -6.6160   18.7470  -33.1540 C   0  0  0  0  0  0  0  0  0  0  0  0
   -7.1780   20.0570  -32.6710 C   0  0  0  0  0  0  0  0  0  0  0  0
   -6.1370   20.8540  -32.0270 N   0  0  0  0  0  0  0  0  0  0  0  0
   -6.1650   22.2900  -32.0160 C   0  0  0  0  0  0  0  0  0  0  0  0
   -7.0430   22.9010  -32.6860 O   0  0  0  0  0  0  0  0  0  0  0  0
   -5.1720   23.0710  -31.2400 C   0  0  0  0  0  0  0  0  0  0  0  0
   -3.8130   22.7090  -31.2260 C   0  0  0  0  0  0  0  0  0  0  0  0
   -2.8900   23.4510  -30.4830 C   0  0  0  0  0  0  0  0  0  0  0  0
   -3.3030   24.5590  -29.7370 C   0  0  0  0  0  0  0  0  0  0  0  0
   -2.3180   25.2930  -28.9980 N   0  0  0  0  0  0  0  0  0  0  0  0
   -1.1640   24.6000  -27.9050 S   0  0  0  0  0  0  0  0  0  0  0  0
    0.1760   24.5440  -28.5840 O   0  0  0  0  0  0  0  0  0  0  0  0
   -1.5990   23.2020  -27.5600 O   0  0  0  0  0  0  0  0  0  0  0  0
   -1.0220   25.5860  -26.4490 C   0  0  0  0  0  0  0  0  0  0  0  0
   -1.0330   26.9850  -26.5480 C   0  0  0  0  0  0  0  0  0  0  0  0
   -0.9160   27.7740  -25.3990 C   0  0  0  0  0  0  0  0  0  0  0  0
   -0.7820   27.1700  -24.1460 C   0  0  0  0  0  0  0  0  0  0  0  0
   -0.7630   25.7770  -24.0400 C   0  0  0  0  0  0  0  0  0  0  0  0
   -0.8800   24.9830  -25.1860 C   0  0  0  0  0  0  0  0  0  0  0  0
   -0.8450   23.6320  -25.0640 F   0  0  0  0  0  0  0  0  0  0  0  0
   -4.6630   24.9170  -29.7360 C   0  0  0  0  0  0  0  0  0  0  0  0
   -5.5870   24.1760  -30.4760 C   0  0  0  0  0  0  0  0  0  0  0  0
   -6.0870   18.6310  -34.4500 C   0  0  0  0  0  0  0  0  0  0  0  0
   -5.5620   17.4110  -34.8890 C   0  0  0  0  0  0  0  0  0  0  0  0
   -4.7677   14.3453  -33.6578 H   0  0  0  0  0  0  0  0  0  0  0  0
   -5.7886   14.4820  -35.1294 H   0  0  0  0  0  0  0  0  0  0  0  0
   -4.1193   15.1457  -35.1294 H   0  0  0  0  0  0  0  0  0  0  0  0
   -6.0927   15.5375  -32.0765 H   0  0  0  0  0  0  0  0  0  0  0  0
   -7.0257   17.7128  -31.2891 H   0  0  0  0  0  0  0  0  0  0  0  0
   -7.5830   20.6151  -33.5280 H   0  0  0  0  0  0  0  0  0  0  0  0
   -7.9744   19.8544  -31.9398 H   0  0  0  0  0  0  0  0  0  0  0  0
   -5.3320   20.3440  -31.5990 H   0  0  0  0  0  0  0  0  0  0  0  0
   -3.4741   21.8363  -31.8035 H   0  0  0  0  0  0  0  0  0  0  0  0
   -1.8291   23.1604  -30.4854 H   0  0  0  0  0  0  0  0  0  0  0  0
   -1.1340   27.4637  -27.5332 H   0  0  0  0  0  0  0  0  0  0  0  0
   -0.9295   28.8708  -25.4818 H   0  0  0  0  0  0  0  0  0  0  0  0
   -0.6915   27.7914  -23.2429 H   0  0  0  0  0  0  0  0  0  0  0  0
   -0.6558   25.3033  -23.0530 H   0  0  0  0  0  0  0  0  0  0  0  0
   -5.0005   25.7845  -29.1498 H   0  0  0  0  0  0  0  0  0  0  0  0
   -6.6497   24.4596  -30.4610 H   0  0  0  0  0  0  0  0  0  0  0  0
   -6.0856   19.5021  -35.1217 H   0  0  0  0  0  0  0  0  0  0  0  0
   -5.1612   17.3234  -35.9096 H   0  0  0  0  0  0  0  0  0  0  0  0
  1  2  1  0
  2  3  2  0
  3  4  1  0
  4  5  2  0
  5  6  1  0
  6  7  1  0
  7  8  1  0
  8  9  2  0
  8 10  1  0
 10 11  2  0
 11 12  1  0
 12 13  2  0
 13 14  1  0
 14 15  1  0
 15 16  2  0
 15 17  2  0
 15 18  1  0
 18 19  2  0
 19 20  1  0
 20 21  2  0
 21 22  1  0
 22 23  2  0
 23 24  1  0
 13 25  1  0
 25 26  2  0
  5 27  1  0
 27 28  2  0
 28  2  1  0
 26 10  1  0
 23 18  1  0
  1 29  1  0
  1 30  1  0
  1 31  1  0
  3 32  1  0
  4 33  1  0
  6 34  1  0
  6 35  1  0
  7 36  1  0
 11 37  1  0
 12 38  1  0
 19 39  1  0
 20 40  1  0
 21 41  1  0
 22 42  1  0
 25 43  1  0
 26 44  1  0
 27 45  1  0
 28 46  1  0
M  CHG  1  14  -1
M  END
>  <UniqueID>  (36) 
35

>  <SMILES>  (36) 
Cc1ccc(CNC(=O)c2ccc([N-]S(=O)(=O)c3ccccc3F)cc2)cc1

>  <Energy>  (36) 
51.66407761186113

>  <Genealogy>  (36) 
Cc1ccc(CNC(=O)c2ccc([N-]S(=O)(=O)c3ccccc3F)cc2)cc1 (protonated)
Cc1ccc(CNC(=O)c2ccc([N-]S(=O)(=O)c3ccccc3F)cc2)cc1 (3D coordinates assigned)
Cc1ccc(CNC(=O)c2ccc([N-]S(=O)(=O)c3ccccc3F)cc2)cc1 (optimized conformer: 51.66407761186113 kcal/mol)

>  <smiles>  (36) 
Cc1ccc(CNC(=O)c2ccc(NS(=O)(=O)c3ccccc3F)cc2)cc1

>  <score_type>  (36) 
oracle

>  <origin>  (36) 
adg

>  <m_score__min__energy>  (36) 
-10.789999999999999

>  <m_primary>  (36) 
energy

$$$$
36:0
     RDKit          3D

 50 53  0  0  0  0  0  0  0  0999 V2000
   -5.6910   25.0150  -31.2220 C   0  0  0  0  0  0  0  0  0  0  0  0
   -6.0530   23.8000  -30.4950 N   0  0  0  0  0  0  0  0  0  0  0  0
   -5.1690   23.3440  -29.4240 C   0  0  0  0  0  0  0  0  0  0  0  0
   -6.9070   22.8450  -31.1380 C   0  0  0  0  0  0  0  0  0  0  0  0
   -8.2510   23.0420  -31.1290 N   0  0  0  0  0  0  0  0  0  0  0  0
   -9.0940   22.1740  -31.7420 C   0  0  0  0  0  0  0  0  0  0  0  0
   -8.6000   21.0760  -32.3680 N   0  0  0  0  0  0  0  0  0  0  0  0
   -7.2660   20.8200  -32.4030 C   0  0  0  0  0  0  0  0  0  0  0  0
   -6.8020   19.5780  -33.0540 C   0  0  0  0  0  0  0  0  0  0  0  0
   -5.7660   19.6350  -34.0000 C   0  0  0  0  0  0  0  0  0  0  0  0
   -5.3150   18.4710  -34.6280 C   0  0  0  0  0  0  0  0  0  0  0  0
   -5.8910   17.2390  -34.3100 C   0  0  0  0  0  0  0  0  0  0  0  0
   -6.9160   17.1680  -33.3650 C   0  0  0  0  0  0  0  0  0  0  0  0
   -7.3740   18.3290  -32.7300 C   0  0  0  0  0  0  0  0  0  0  0  0
   -8.6980   18.1920  -31.5770 Cl  0  0  0  0  0  0  0  0  0  0  0  0
   -6.3700   21.7170  -31.7840 C   0  0  0  0  0  0  0  0  0  0  0  0
   -4.9480   21.4940  -31.8050 N   0  0  0  0  0  0  0  0  0  0  0  0
   -4.3600   20.4500  -30.9520 C   0  0  0  0  0  0  0  0  0  0  0  0
   -2.8440   20.3430  -31.1570 C   0  0  0  0  0  0  0  0  0  0  0  0
   -2.5170   20.3750  -32.5930 N   0  0  0  0  0  0  0  0  0  0  0  0
   -1.5180   19.4950  -33.1470 C   0  0  0  0  0  0  0  0  0  0  0  0
   -0.2380   19.5350  -32.6830 N   0  0  0  0  0  0  0  0  0  0  0  0
    0.7200   18.7150  -33.1880 C   0  0  0  0  0  0  0  0  0  0  0  0
    0.4000   17.8120  -34.1990 C   0  0  0  0  0  0  0  0  0  0  0  0
   -0.9120   17.7790  -34.6660 C   0  0  0  0  0  0  0  0  0  0  0  0
   -1.8410   18.6140  -34.1360 N   0  0  0  0  0  0  0  0  0  0  0  0
   -3.1390   21.3890  -33.4610 C   0  0  0  0  0  0  0  0  0  0  0  0
   -4.0930   22.2990  -32.6840 C   0  0  0  0  0  0  0  0  0  0  0  0
   -5.4529   25.8143  -30.5047 H   0  0  0  0  0  0  0  0  0  0  0  0
   -4.8131   24.8162  -31.8542 H   0  0  0  0  0  0  0  0  0  0  0  0
   -6.5346   25.3291  -31.8542 H   0  0  0  0  0  0  0  0  0  0  0  0
   -5.6226   23.5780  -28.4496 H   0  0  0  0  0  0  0  0  0  0  0  0
   -5.0213   22.2572  -29.5082 H   0  0  0  0  0  0  0  0  0  0  0  0
   -4.1978   23.8536  -29.5082 H   0  0  0  0  0  0  0  0  0  0  0  0
  -10.1781   22.3601  -31.7317 H   0  0  0  0  0  0  0  0  0  0  0  0
   -5.3061   20.6028  -34.2485 H   0  0  0  0  0  0  0  0  0  0  0  0
   -4.5069   18.5250  -35.3723 H   0  0  0  0  0  0  0  0  0  0  0  0
   -5.5363   16.3230  -34.8051 H   0  0  0  0  0  0  0  0  0  0  0  0
   -7.3662   16.1952  -33.1179 H   0  0  0  0  0  0  0  0  0  0  0  0
   -4.5617   20.6939  -29.8985 H   0  0  0  0  0  0  0  0  0  0  0  0
   -4.8136   19.4858  -31.2251 H   0  0  0  0  0  0  0  0  0  0  0  0
   -2.3496   21.1870  -30.6537 H   0  0  0  0  0  0  0  0  0  0  0  0
   -2.4925   19.3913  -30.7319 H   0  0  0  0  0  0  0  0  0  0  0  0
    1.7477   18.7641  -32.7988 H   0  0  0  0  0  0  0  0  0  0  0  0
    1.1645   17.1414  -34.6184 H   0  0  0  0  0  0  0  0  0  0  0  0
   -1.1947   17.0765  -35.4639 H   0  0  0  0  0  0  0  0  0  0  0  0
   -2.3471   22.0057  -33.9111 H   0  0  0  0  0  0  0  0  0  0  0  0
   -3.7214   20.8652  -34.2333 H   0  0  0  0  0  0  0  0  0  0  0  0
   -3.5087   23.0058  -32.0766 H   0  0  0  0  0  0  0  0  0  0  0  0
   -4.7244   22.8521  -33.3949 H   0  0  0  0  0  0  0  0  0  0  0  0
  1  2  1  0
  2  3  1  0
  2  4  1  0
  4  5  2  0
  5  6  1  0
  6  7  2  0
  7  8  1  0
  8  9  1  0
  9 10  2  0
 10 11  1  0
 11 12  2  0
 12 13  1  0
 13 14  2  0
 14 15  1  0
  8 16  2  0
 16 17  1  0
 17 18  1  0
 18 19  1  0
 19 20  1  0
 20 21  1  0
 21 22  2  0
 22 23  1  0
 23 24  2  0
 24 25  1  0
 25 26  2  0
 20 27  1  0
 27 28  1  0
 16  4  1  0
 28 17  1  0
 14  9  1  0
 26 21  1  0
  1 29  1  0
  1 30  1  0
  1 31  1  0
  3 32  1  0
  3 33  1  0
  3 34  1  0
  6 35  1  0
 10 36  1  0
 11 37  1  0
 12 38  1  0
 13 39  1  0
 18 40  1  0
 18 41  1  0
 19 42  1  0
 19 43  1  0
 23 44  1  0
 24 45  1  0
 25 46  1  0
 27 47  1  0
 27 48  1  0
 28 49  1  0
 28 50  1  0
M  END
>  <UniqueID>  (37) 
36

>  <SMILES>  (37) 
CN(C)c1ncnc(-c2ccccc2Cl)c1N1CCN(c2ncccn2)CC1

>  <Energy>  (37) 
70.19270606168654

>  <Genealogy>  (37) 
CN(C)c1ncnc(-c2ccccc2Cl)c1N1CCN(c2ncccn2)CC1 (3D coordinates assigned)
CN(C)c1ncnc(-c2ccccc2Cl)c1N1CCN(c2ncccn2)CC1 (nonaromatic ring conformer: 70.19270606168654 kcal/mol)

>  <smiles>  (37) 
CN(C)c1ncnc(-c2ccccc2Cl)c1N1CCN(c2ncccn2)CC1

>  <score_type>  (37) 
oracle

>  <origin>  (37) 
adg

>  <m_score__min__energy>  (37) 
-7.5

>  <m_primary>  (37) 
energy

$$$$
37:0
     RDKit          3D

 57 60  0  0  0  0  0  0  0  0999 V2000
    1.7840   25.6640  -26.8380 C   0  0  0  0  0  0  0  0  0  0  0  0
    1.3530   24.9150  -27.9710 O   0  0  0  0  0  0  0  0  0  0  0  0
    0.3680   23.9140  -27.9360 C   0  0  0  0  0  0  0  0  0  0  0  0
    0.4490   22.9360  -26.9340 C   0  0  0  0  0  0  0  0  0  0  0  0
   -0.5170   21.9310  -26.8420 C   0  0  0  0  0  0  0  0  0  0  0  0
   -1.5690   21.8860  -27.7610 C   0  0  0  0  0  0  0  0  0  0  0  0
   -1.6550   22.8420  -28.7950 C   0  0  0  0  0  0  0  0  0  0  0  0
   -2.7680   22.8100  -29.7780 C   0  0  0  0  0  0  0  0  0  0  0  0
   -3.9060   23.4820  -29.4910 N   0  0  0  0  0  0  0  0  0  0  0  0
   -4.9640   23.4830  -30.3330 C   0  0  0  0  0  0  0  0  0  0  0  0
   -6.1250   24.1670  -29.9840 C   0  0  0  0  0  0  0  0  0  0  0  0
   -7.2280   24.1400  -30.8320 C   0  0  0  0  0  0  0  0  0  0  0  0
   -7.1510   23.4240  -32.0260 C   0  0  0  0  0  0  0  0  0  0  0  0
   -6.0100   22.7660  -32.3640 N   0  0  0  0  0  0  0  0  0  0  0  0
   -4.8980   22.7770  -31.5560 C   0  0  0  0  0  0  0  0  0  0  0  0
   -3.7250   22.1190  -31.8900 N   0  0  0  0  0  0  0  0  0  0  0  0
   -3.5760   21.3570  -33.1500 C   0  0  0  0  0  0  0  0  0  0  0  0
   -3.2360   19.8900  -32.8680 C   0  0  0  0  0  0  0  0  0  0  0  0
   -3.5040   19.0670  -34.0730 N   0  0  0  0  0  0  0  0  0  0  0  0
   -2.3830   18.1370  -34.3220 C   0  0  0  0  0  0  0  0  0  0  0  0
   -4.8110   18.3640  -34.0120 C   0  0  0  0  0  0  0  0  0  0  0  0
   -5.3640   18.3070  -32.5770 C   0  0  0  0  0  0  0  0  0  0  0  0
   -6.7580   18.8570  -32.4490 C   0  0  0  0  0  0  0  0  0  0  0  0
   -7.8160   18.0410  -32.0170 C   0  0  0  0  0  0  0  0  0  0  0  0
   -9.1080   18.5740  -31.9450 C   0  0  0  0  0  0  0  0  0  0  0  0
   -9.3300   19.9130  -32.2940 C   0  0  0  0  0  0  0  0  0  0  0  0
   -8.2530   20.6980  -32.7120 C   0  0  0  0  0  0  0  0  0  0  0  0
   -7.0030   20.1600  -32.7830 N   0  0  0  0  0  0  0  0  0  0  0  0
   -2.6690   22.1280  -31.0060 C   0  0  0  0  0  0  0  0  0  0  0  0
   -1.5920   21.5410  -31.3010 O   0  0  0  0  0  0  0  0  0  0  0  0
   -0.6920   23.8640  -28.8650 C   0  0  0  0  0  0  0  0  0  0  0  0
    1.4836   25.1420  -25.9175 H   0  0  0  0  0  0  0  0  0  0  0  0
    2.8790   25.7661  -26.8609 H   0  0  0  0  0  0  0  0  0  0  0  0
    1.3221   26.6621  -26.8609 H   0  0  0  0  0  0  0  0  0  0  0  0
    1.2805   22.9605  -26.2142 H   0  0  0  0  0  0  0  0  0  0  0  0
   -0.4496   21.1748  -26.0460 H   0  0  0  0  0  0  0  0  0  0  0  0
   -2.3345   21.1005  -27.6776 H   0  0  0  0  0  0  0  0  0  0  0  0
   -6.1705   24.7282  -29.0390 H   0  0  0  0  0  0  0  0  0  0  0  0
   -8.1497   24.6771  -30.5636 H   0  0  0  0  0  0  0  0  0  0  0  0
   -8.0199   23.3912  -32.6997 H   0  0  0  0  0  0  0  0  0  0  0  0
   -6.0470   22.2400  -33.2610 H   0  0  0  0  0  0  0  0  0  0  0  0
   -4.5195   21.4056  -33.7134 H   0  0  0  0  0  0  0  0  0  0  0  0
   -2.7555   21.8009  -33.7329 H   0  0  0  0  0  0  0  0  0  0  0  0
   -2.1724   19.8075  -32.5996 H   0  0  0  0  0  0  0  0  0  0  0  0
   -3.8593   19.5279  -32.0371 H   0  0  0  0  0  0  0  0  0  0  0  0
   -1.9703   17.7947  -33.3615 H   0  0  0  0  0  0  0  0  0  0  0  0
   -2.7455   17.2708  -34.8949 H   0  0  0  0  0  0  0  0  0  0  0  0
   -1.5986   18.6533  -34.8949 H   0  0  0  0  0  0  0  0  0  0  0  0
   -5.5316   18.8964  -34.6502 H   0  0  0  0  0  0  0  0  0  0  0  0
   -4.6602   17.3318  -34.3611 H   0  0  0  0  0  0  0  0  0  0  0  0
   -5.3724   17.2572  -32.2485 H   0  0  0  0  0  0  0  0  0  0  0  0
   -4.7102   18.9341  -31.9531 H   0  0  0  0  0  0  0  0  0  0  0  0
   -7.6311   16.9932  -31.7379 H   0  0  0  0  0  0  0  0  0  0  0  0
   -9.9470   17.9436  -31.6154 H   0  0  0  0  0  0  0  0  0  0  0  0
  -10.3417   20.3412  -32.2393 H   0  0  0  0  0  0  0  0  0  0  0  0
   -8.4140   21.7516  -32.9842 H   0  0  0  0  0  0  0  0  0  0  0  0
   -0.7659   24.6306  -29.6504 H   0  0  0  0  0  0  0  0  0  0  0  0
  1  2  1  0
  2  3  1  0
  3  4  2  0
  4  5  1  0
  5  6  2  0
  6  7  1  0
  7  8  1  0
  8  9  2  0
  9 10  1  0
 10 11  2  0
 11 12  1  0
 12 13  2  0
 13 14  1  0
 14 15  2  0
 15 16  1  0
 16 17  1  0
 17 18  1  0
 18 19  1  0
 19 20  1  0
 19 21  1  0
 21 22  1  0
 22 23  1  0
 23 24  2  0
 24 25  1  0
 25 26  2  0
 26 27  1  0
 27 28  2  0
 16 29  1  0
 29 30  2  0
  7 31  2  0
 31  3  1  0
 29  8  1  0
 15 10  1  0
 28 23  1  0
  1 32  1  0
  1 33  1  0
  1 34  1  0
  4 35  1  0
  5 36  1  0
  6 37  1  0
 11 38  1  0
 12 39  1  0
 13 40  1  0
 14 41  1  0
 17 42  1  0
 17 43  1  0
 18 44  1  0
 18 45  1  0
 20 46  1  0
 20 47  1  0
 20 48  1  0
 21 49  1  0
 21 50  1  0
 22 51  1  0
 22 52  1  0
 24 53  1  0
 25 54  1  0
 26 55  1  0
 27 56  1  0
 31 57  1  0
M  CHG  1  14   1
M  END
>  <UniqueID>  (38) 
37

>  <SMILES>  (38) 
COc1cccc(-c2nc3ccc[nH+]c3n(CCN(C)CCc3ccccn3)c2=O)c1

>  <Energy>  (38) 
77.63180864360689

>  <Genealogy>  (38) 
COc1cccc(-c2nc3ccc[nH+]c3n(CCN(C)CCc3ccccn3)c2=O)c1 (protonated)
COc1cccc(-c2nc3ccc[nH+]c3n(CCN(C)CCc3ccccn3)c2=O)c1 (3D coordinates assigned)
COc1cccc(-c2nc3ccc[nH+]c3n(CCN(C)CCc3ccccn3)c2=O)c1 (optimized conformer: 77.63180864360689 kcal/mol)

>  <smiles>  (38) 
COc1cccc(-c2nc3cccnc3n(CCN(C)CCc3ccccn3)c2=O)c1

>  <score_type>  (38) 
oracle

>  <origin>  (38) 
adg

>  <m_score__min__energy>  (38) 
-8.3499999999999996

>  <m_primary>  (38) 
energy

$$$$
38:0
     RDKit          3D

 42 44  0  0  0  0  0  0  0  0999 V2000
   -6.2860   25.7040  -29.3530 C   0  0  0  0  0  0  0  0  0  0  0  0
   -7.1710   24.6790  -30.0560 C   0  0  0  0  0  0  0  0  0  0  0  0
   -6.3680   23.5810  -30.6160 N   0  0  0  0  0  0  0  0  0  0  0  0
   -4.9270   23.6020  -30.4670 C   0  0  0  0  0  0  0  0  0  0  0  0
   -4.2340   24.3470  -31.2130 O   0  0  0  0  0  0  0  0  0  0  0  0
   -4.2030   22.7220  -29.4820 C   0  0  0  0  0  0  0  0  0  0  0  0
   -2.4820   22.4240  -30.0120 S   0  0  0  0  0  0  0  0  0  0  0  0
   -2.9510   21.5150  -31.4790 C   0  0  0  0  0  0  0  0  0  0  0  0
   -2.6250   21.8860  -32.7310 N   0  0  0  0  0  0  0  0  0  0  0  0
   -3.1720   20.9770  -33.5190 N   0  0  0  0  0  0  0  0  0  0  0  0
   -3.8180   20.0920  -32.7330 C   0  0  0  0  0  0  0  0  0  0  0  0
   -4.6210   18.9420  -33.2020 C   0  0  0  0  0  0  0  0  0  0  0  0
   -5.4280   18.2420  -32.2880 C   0  0  0  0  0  0  0  0  0  0  0  0
   -6.2210   17.1740  -32.7140 C   0  0  0  0  0  0  0  0  0  0  0  0
   -6.2150   16.7900  -34.0570 C   0  0  0  0  0  0  0  0  0  0  0  0
   -5.4150   17.4740  -34.9740 C   0  0  0  0  0  0  0  0  0  0  0  0
   -4.6220   18.5470  -34.5530 C   0  0  0  0  0  0  0  0  0  0  0  0
   -3.6730   20.4180  -31.4700 O   0  0  0  0  0  0  0  0  0  0  0  0
   -7.0480   22.4550  -31.2040 C   0  0  0  0  0  0  0  0  0  0  0  0
   -8.2070   21.9300  -30.6040 C   0  0  0  0  0  0  0  0  0  0  0  0
   -8.8630   20.8350  -31.1730 C   0  0  0  0  0  0  0  0  0  0  0  0
   -8.3770   20.2630  -32.3530 C   0  0  0  0  0  0  0  0  0  0  0  0
   -7.2450   20.7950  -32.9710 C   0  0  0  0  0  0  0  0  0  0  0  0
   -6.5870   21.8920  -32.4060 C   0  0  0  0  0  0  0  0  0  0  0  0
   -6.3856   25.5886  -28.2636 H   0  0  0  0  0  0  0  0  0  0  0  0
   -5.2374   25.5442  -29.6443 H   0  0  0  0  0  0  0  0  0  0  0  0
   -6.5970   26.7181  -29.6443 H   0  0  0  0  0  0  0  0  0  0  0  0
   -7.8880   24.2662  -29.3311 H   0  0  0  0  0  0  0  0  0  0  0  0
   -7.6996   25.1806  -30.8800 H   0  0  0  0  0  0  0  0  0  0  0  0
   -4.1962   23.2135  -28.4979 H   0  0  0  0  0  0  0  0  0  0  0  0
   -4.7248   21.7552  -29.4266 H   0  0  0  0  0  0  0  0  0  0  0  0
   -3.1170   20.9970  -34.5610 H   0  0  0  0  0  0  0  0  0  0  0  0
   -5.4349   18.5379  -31.2286 H   0  0  0  0  0  0  0  0  0  0  0  0
   -6.8509   16.6348  -31.9912 H   0  0  0  0  0  0  0  0  0  0  0  0
   -6.8402   15.9492  -34.3918 H   0  0  0  0  0  0  0  0  0  0  0  0
   -5.4081   17.1685  -36.0307 H   0  0  0  0  0  0  0  0  0  0  0  0
   -3.9965   19.0843  -35.2810 H   0  0  0  0  0  0  0  0  0  0  0  0
   -8.5991   22.3838  -29.6819 H   0  0  0  0  0  0  0  0  0  0  0  0
   -9.7624   20.4227  -30.6923 H   0  0  0  0  0  0  0  0  0  0  0  0
   -8.8872   19.3938  -32.7938 H   0  0  0  0  0  0  0  0  0  0  0  0
   -6.8693   20.3507  -33.9045 H   0  0  0  0  0  0  0  0  0  0  0  0
   -5.7036   22.3165  -32.9054 H   0  0  0  0  0  0  0  0  0  0  0  0
  1  2  1  0
  2  3  1  0
  3  4  1  0
  4  5  2  0
  4  6  1  0
  6  7  1  0
  7  8  1  0
  8  9  2  0
  9 10  1  0
 10 11  2  0
 11 12  1  0
 12 13  2  0
 13 14  1  0
 14 15  2  0
 15 16  1  0
 16 17  2  0
 11 18  1  0
  3 19  1  0
 19 20  2  0
 20 21  1  0
 21 22  2  0
 22 23  1  0
 23 24  2  0
 18  8  1  0
 24 19  1  0
 17 12  1  0
  1 25  1  0
  1 26  1  0
  1 27  1  0
  2 28  1  0
  2 29  1  0
  6 30  1  0
  6 31  1  0
 10 32  1  0
 13 33  1  0
 14 34  1  0
 15 35  1  0
 16 36  1  0
 17 37  1  0
 20 38  1  0
 21 39  1  0
 22 40  1  0
 23 41  1  0
 24 42  1  0
M  CHG  1  10   1
M  END
>  <UniqueID>  (39) 
38

>  <SMILES>  (39) 
CCN(C(=O)CSc1n[nH+]c(-c2ccccc2)o1)c1ccccc1

>  <Energy>  (39) 
76.19054620759738

>  <Genealogy>  (39) 
CCN(C(=O)CSc1n[nH+]c(-c2ccccc2)o1)c1ccccc1 (protonated)
CCN(C(=O)CSc1n[nH+]c(-c2ccccc2)o1)c1ccccc1 (3D coordinates assigned)
CCN(C(=O)CSc1n[nH+]c(-c2ccccc2)o1)c1ccccc1 (optimized conformer: 76.19054620759738 kcal/mol)

>  <smiles>  (39) 
CCN(C(=O)CSc1nnc(-c2ccccc2)o1)c1ccccc1

>  <score_type>  (39) 
oracle

>  <origin>  (39) 
adg

>  <m_score__min__energy>  (39) 
-8.6199999999999992

>  <m_primary>  (39) 
energy

$$$$
39:0
     RDKit          3D

 41 43  0  0  0  0  0  0  0  0999 V2000
   -0.7790   24.0750  -26.6110 C   0  0  0  0  0  0  0  0  0  0  0  0
   -1.8940   23.9460  -27.5570 N   0  0  0  0  0  0  0  0  0  0  0  0
   -3.1520   23.3360  -27.0940 C   0  0  0  0  0  0  0  0  0  0  0  0
   -4.2640   24.3810  -27.0060 C   0  0  0  0  0  0  0  0  0  0  0  0
   -4.5930   24.8390  -28.2880 O   0  0  0  0  0  0  0  0  0  0  0  0
   -1.6890   24.3670  -28.9260 C   0  0  0  0  0  0  0  0  0  0  0  0
   -1.6060   25.5980  -29.1900 O   0  0  0  0  0  0  0  0  0  0  0  0
   -1.5830   23.3910  -30.0760 C   0  0  0  0  0  0  0  0  0  0  0  0
   -2.9080   22.9220  -30.5170 N   0  0  0  0  0  0  0  0  0  0  0  0
   -3.1250   21.5630  -30.6500 C   0  0  0  0  0  0  0  0  0  0  0  0
   -4.3360   21.0780  -31.0560 N   0  0  0  0  0  0  0  0  0  0  0  0
   -5.3150   21.9610  -31.3580 C   0  0  0  0  0  0  0  0  0  0  0  0
   -5.1340   23.2960  -31.2520 C   0  0  0  0  0  0  0  0  0  0  0  0
   -6.3460   23.8630  -31.5830 C   0  0  0  0  0  0  0  0  0  0  0  0
   -7.2160   22.8610  -31.8660 N   0  0  0  0  0  0  0  0  0  0  0  0
   -6.5810   21.6980  -31.7350 N   0  0  0  0  0  0  0  0  0  0  0  0
   -7.2080   20.4170  -31.9400 C   0  0  0  0  0  0  0  0  0  0  0  0
   -6.4890   19.3800  -32.5590 C   0  0  0  0  0  0  0  0  0  0  0  0
   -7.0800   18.1280  -32.7590 C   0  0  0  0  0  0  0  0  0  0  0  0
   -8.3910   17.8980  -32.3330 C   0  0  0  0  0  0  0  0  0  0  0  0
   -9.1090   18.9160  -31.7030 C   0  0  0  0  0  0  0  0  0  0  0  0
   -8.5230   20.1690  -31.5020 C   0  0  0  0  0  0  0  0  0  0  0  0
   -3.9130   23.8110  -30.8410 C   0  0  0  0  0  0  0  0  0  0  0  0
   -3.7440   25.0580  -30.7680 O   0  0  0  0  0  0  0  0  0  0  0  0
   -1.1644   24.0304  -25.5817 H   0  0  0  0  0  0  0  0  0  0  0  0
   -0.0653   23.2534  -26.7712 H   0  0  0  0  0  0  0  0  0  0  0  0
   -0.2717   25.0378  -26.7712 H   0  0  0  0  0  0  0  0  0  0  0  0
   -3.4524   22.5489  -27.8013 H   0  0  0  0  0  0  0  0  0  0  0  0
   -2.9890   22.9106  -26.0928 H   0  0  0  0  0  0  0  0  0  0  0  0
   -5.1527   23.9291  -26.5413 H   0  0  0  0  0  0  0  0  0  0  0  0
   -3.9157   25.2288  -26.3979 H   0  0  0  0  0  0  0  0  0  0  0  0
   -3.7860   25.3050  -28.6290 H   0  0  0  0  0  0  0  0  0  0  0  0
   -1.0817   23.8876  -30.9198 H   0  0  0  0  0  0  0  0  0  0  0  0
   -1.0073   22.5186  -29.7332 H   0  0  0  0  0  0  0  0  0  0  0  0
   -2.3089   20.8605  -30.4252 H   0  0  0  0  0  0  0  0  0  0  0  0
   -6.5690   24.9398  -31.6126 H   0  0  0  0  0  0  0  0  0  0  0  0
   -5.4541   19.5542  -32.8885 H   0  0  0  0  0  0  0  0  0  0  0  0
   -6.5128   17.3245  -33.2516 H   0  0  0  0  0  0  0  0  0  0  0  0
   -8.8571   16.9148  -32.4941 H   0  0  0  0  0  0  0  0  0  0  0  0
  -10.1390   18.7316  -31.3637 H   0  0  0  0  0  0  0  0  0  0  0  0
   -9.0918   20.9651  -30.9993 H   0  0  0  0  0  0  0  0  0  0  0  0
  1  2  1  0
  2  3  1  0
  3  4  1  0
  4  5  1  0
  2  6  1  0
  6  7  2  0
  6  8  1  0
  8  9  1  0
  9 10  1  0
 10 11  2  0
 11 12  1  0
 12 13  2  0
 13 14  1  0
 14 15  2  0
 15 16  1  0
 16 17  1  0
 17 18  2  0
 18 19  1  0
 19 20  2  0
 20 21  1  0
 21 22  2  0
 13 23  1  0
 23 24  2  0
 23  9  1  0
 16 12  1  0
 22 17  1  0
  1 25  1  0
  1 26  1  0
  1 27  1  0
  3 28  1  0
  3 29  1  0
  4 30  1  0
  4 31  1  0
  5 32  1  0
  8 33  1  0
  8 34  1  0
 10 35  1  0
 14 36  1  0
 18 37  1  0
 19 38  1  0
 20 39  1  0
 21 40  1  0
 22 41  1  0
M  END
>  <UniqueID>  (40) 
39

>  <SMILES>  (40) 
CN(CCO)C(=O)Cn1cnc2c(cnn2-c2ccccc2)c1=O

>  <Energy>  (40) 
87.4660687217474

>  <Genealogy>  (40) 
CN(CCO)C(=O)Cn1cnc2c(cnn2-c2ccccc2)c1=O (3D coordinates assigned)
CN(CCO)C(=O)Cn1cnc2c(cnn2-c2ccccc2)c1=O (optimized conformer: 87.4660687217474 kcal/mol)

>  <smiles>  (40) 
CN(CCO)C(=O)Cn1cnc2c(cnn2-c2ccccc2)c1=O

>  <score_type>  (40) 
oracle

>  <origin>  (40) 
adg

>  <m_score__min__energy>  (40) 
-8.6099999999999994

>  <m_primary>  (40) 
energy

$$$$
40:0
     RDKit          3D

 34 36  0  0  0  0  0  0  0  0999 V2000
   -6.5930   19.6680  -33.4470 C   0  0  0  0  0  0  0  0  0  0  0  0
   -6.9410   20.8590  -32.6050 C   0  0  0  0  0  0  0  0  0  0  0  0
   -8.2770   21.1470  -32.2970 C   0  0  0  0  0  0  0  0  0  0  0  0
   -8.5810   22.2070  -31.5020 N   0  0  0  0  0  0  0  0  0  0  0  0
   -7.6190   23.0080  -30.9750 C   0  0  0  0  0  0  0  0  0  0  0  0
   -6.2640   22.7530  -31.2350 C   0  0  0  0  0  0  0  0  0  0  0  0
   -5.2080   23.6120  -30.6590 C   0  0  0  0  0  0  0  0  0  0  0  0
   -4.7890   24.7650  -31.2180 N   0  0  0  0  0  0  0  0  0  0  0  0
   -3.8630   25.2070  -30.4230 O   0  0  0  0  0  0  0  0  0  0  0  0
   -3.7120   24.3780  -29.4220 C   0  0  0  0  0  0  0  0  0  0  0  0
   -2.7100   24.5600  -28.3150 C   0  0  0  0  0  0  0  0  0  0  0  0
   -1.4170   25.1100  -28.7760 N   0  0  0  0  0  0  0  0  0  0  0  0
   -0.4170   24.0530  -28.9990 C   0  0  0  0  0  0  0  0  0  0  0  0
   -0.8910   26.1150  -27.8380 C   0  0  0  0  0  0  0  0  0  0  0  0
   -1.5310   26.0380  -26.4620 C   0  0  0  0  0  0  0  0  0  0  0  0
   -0.1180   25.5210  -26.6730 C   0  0  0  0  0  0  0  0  0  0  0  0
   -4.5500   23.3280  -29.5140 N   0  0  0  0  0  0  0  0  0  0  0  0
   -5.9320   21.6610  -32.0540 C   0  0  0  0  0  0  0  0  0  0  0  0
   -6.3446   18.8178  -32.7947 H   0  0  0  0  0  0  0  0  0  0  0  0
   -7.4517   19.4044  -34.0820 H   0  0  0  0  0  0  0  0  0  0  0  0
   -5.7275   19.9082  -34.0820 H   0  0  0  0  0  0  0  0  0  0  0  0
   -9.0817   20.5141  -32.6993 H   0  0  0  0  0  0  0  0  0  0  0  0
   -7.9036   23.8608  -30.3412 H   0  0  0  0  0  0  0  0  0  0  0  0
   -3.1354   25.2481  -27.5696 H   0  0  0  0  0  0  0  0  0  0  0  0
   -2.5071   23.5640  -27.8945 H   0  0  0  0  0  0  0  0  0  0  0  0
   -0.0599   23.6756  -28.0294 H   0  0  0  0  0  0  0  0  0  0  0  0
   -0.8743   23.2295  -29.5671 H   0  0  0  0  0  0  0  0  0  0  0  0
    0.4305   24.4640  -29.5671 H   0  0  0  0  0  0  0  0  0  0  0  0
   -0.6999   26.9120  -28.5717 H   0  0  0  0  0  0  0  0  0  0  0  0
   -1.6995   26.9571  -25.8815 H   0  0  0  0  0  0  0  0  0  0  0  0
   -2.4628   25.6134  -26.0601 H   0  0  0  0  0  0  0  0  0  0  0  0
    0.7365   26.0657  -26.2452 H   0  0  0  0  0  0  0  0  0  0  0  0
    0.3970   24.5669  -26.4870 H   0  0  0  0  0  0  0  0  0  0  0  0
   -4.8762   21.4344  -32.2637 H   0  0  0  0  0  0  0  0  0  0  0  0
  1  2  1  0
  2  3  2  0
  3  4  1  0
  4  5  2  0
  5  6  1  0
  6  7  1  0
  7  8  2  0
  8  9  1  0
  9 10  1  0
 10 11  1  0
 11 12  1  0
 12 13  1  0
 12 14  1  0
 14 15  1  0
 15 16  1  0
 10 17  2  0
  6 18  2  0
 18  2  1  0
 17  7  1  0
 16 14  1  0
  1 19  1  0
  1 20  1  0
  1 21  1  0
  3 22  1  0
  5 23  1  0
 11 24  1  0
 11 25  1  0
 13 26  1  0
 13 27  1  0
 13 28  1  0
 14 29  1  0
 15 30  1  0
 15 31  1  0
 16 32  1  0
 16 33  1  0
 18 34  1  0
M  END
>  <UniqueID>  (41) 
40

>  <SMILES>  (41) 
Cc1cncc(-c2noc(CN(C)C3CC3)n2)c1

>  <Energy>  (41) 
332.85800594102625

>  <Genealogy>  (41) 
Cc1cncc(-c2noc(CN(C)C3CC3)n2)c1 (3D coordinates assigned)
Cc1cncc(-c2noc(CN(C)C3CC3)n2)c1 (nonaromatic ring conformer: 332.85800594102625 kcal/mol)

>  <smiles>  (41) 
Cc1cncc(-c2noc(CN(C)C3CC3)n2)c1

>  <score_type>  (41) 
oracle

>  <origin>  (41) 
adg

>  <m_score__min__energy>  (41) 
-7.46

>  <m_primary>  (41) 
energy

$$$$
41:0
     RDKit          3D

 43 44  0  0  0  0  0  0  0  0999 V2000
   -3.2040   24.1870  -28.0730 C   0  0  0  0  0  0  0  0  0  0  0  0
   -2.5100   24.6500  -29.3480 C   0  0  0  0  0  0  0  0  0  0  0  0
   -3.4920   24.9320  -30.3880 N   0  0  0  0  0  0  0  0  0  0  0  0
   -4.8920   24.6670  -30.2530 C   0  0  0  0  0  0  0  0  0  0  0  0
   -5.6950   25.6150  -30.0440 O   0  0  0  0  0  0  0  0  0  0  0  0
   -5.4250   23.2630  -30.4140 C   0  0  0  0  0  0  0  0  0  0  0  0
   -4.7450   22.4540  -31.4730 N   0  0  2  0  0  0  0  0  0  0  0  0
   -5.5880   22.2950  -32.6930 C   0  0  0  0  0  0  0  0  0  0  0  0
   -6.8120   21.4270  -32.4750 C   0  0  0  0  0  0  0  0  0  0  0  0
   -7.9560   21.9550  -31.8530 C   0  0  0  0  0  0  0  0  0  0  0  0
   -9.0770   21.1480  -31.6340 C   0  0  0  0  0  0  0  0  0  0  0  0
   -9.0590   19.8050  -32.0170 C   0  0  0  0  0  0  0  0  0  0  0  0
   -7.9160   19.2630  -32.6110 C   0  0  0  0  0  0  0  0  0  0  0  0
   -6.7930   20.0660  -32.8320 C   0  0  0  0  0  0  0  0  0  0  0  0
   -4.2080   21.1650  -30.9050 C   0  0  2  0  0  0  0  0  0  0  0  0
   -3.0170   21.4350  -29.9420 C   0  0  0  0  0  0  0  0  0  0  0  0
   -1.7330   21.5990  -30.7620 C   0  0  0  0  0  0  0  0  0  0  0  0
   -1.9880   20.6540  -32.2340 S   0  0  0  0  0  0  0  0  0  0  0  0
   -1.8770   21.5070  -33.4650 O   0  0  0  0  0  0  0  0  0  0  0  0
   -1.0580   19.4770  -32.3110 O   0  0  0  0  0  0  0  0  0  0  0  0
   -3.6530   20.1520  -31.9350 C   0  0  0  0  0  0  0  0  0  0  0  0
   -2.6491   24.5572  -27.1983 H   0  0  0  0  0  0  0  0  0  0  0  0
   -4.2304   24.5819  -28.0501 H   0  0  0  0  0  0  0  0  0  0  0  0
   -3.2335   23.0876  -28.0501 H   0  0  0  0  0  0  0  0  0  0  0  0
   -1.9343   25.5630  -29.1361 H   0  0  0  0  0  0  0  0  0  0  0  0
   -1.8386   23.8523  -29.6984 H   0  0  0  0  0  0  0  0  0  0  0  0
   -5.3067   22.7394  -29.4539 H   0  0  0  0  0  0  0  0  0  0  0  0
   -6.4751   23.3631  -30.7257 H   0  0  0  0  0  0  0  0  0  0  0  0
   -3.9180   23.0190  -31.7780 H   0  0  0  0  0  0  0  0  0  0  0  0
   -5.9216   23.2916  -33.0177 H   0  0  0  0  0  0  0  0  0  0  0  0
   -4.9679   21.7943  -33.4511 H   0  0  0  0  0  0  0  0  0  0  0  0
   -7.9699   23.0085  -31.5367 H   0  0  0  0  0  0  0  0  0  0  0  0
   -9.9743   21.5717  -31.1593 H   0  0  0  0  0  0  0  0  0  0  0  0
   -9.9445   19.1739  -31.8511 H   0  0  0  0  0  0  0  0  0  0  0  0
   -7.8998   18.2032  -32.9051 H   0  0  0  0  0  0  0  0  0  0  0  0
   -5.8905   19.6319  -33.2870 H   0  0  0  0  0  0  0  0  0  0  0  0
   -5.0942   20.7334  -30.4169 H   0  0  0  0  0  0  0  0  0  0  0  0
   -3.2079   22.3547  -29.3696 H   0  0  0  0  0  0  0  0  0  0  0  0
   -2.9057   20.5904  -29.2462 H   0  0  0  0  0  0  0  0  0  0  0  0
   -1.5674   22.6580  -31.0090 H   0  0  0  0  0  0  0  0  0  0  0  0
   -0.8475   21.2571  -30.2061 H   0  0  0  0  0  0  0  0  0  0  0  0
   -4.2391   20.1885  -32.8652 H   0  0  0  0  0  0  0  0  0  0  0  0
   -3.7085   19.1182  -31.5633 H   0  0  0  0  0  0  0  0  0  0  0  0
  1  2  1  0
  2  3  1  0
  3  4  1  0
  4  5  2  0
  4  6  1  0
  6  7  1  0
  7  8  1  0
  8  9  1  0
  9 10  2  0
 10 11  1  0
 11 12  2  0
 12 13  1  0
 13 14  2  0
  7 15  1  0
 15 16  1  0
 16 17  1  0
 17 18  1  0
 18 19  2  0
 18 20  2  0
 18 21  1  0
 14  9  1  0
 21 15  1  0
  1 22  1  0
  1 23  1  0
  1 24  1  0
  2 25  1  0
  2 26  1  0
  6 27  1  0
  6 28  1  0
  7 29  1  6
  8 30  1  0
  8 31  1  0
 10 32  1  0
 11 33  1  0
 12 34  1  0
 13 35  1  0
 14 36  1  0
 15 37  1  1
 16 38  1  0
 16 39  1  0
 17 40  1  0
 17 41  1  0
 21 42  1  0
 21 43  1  0
M  CHG  2   3  -1   7   1
M  END
>  <UniqueID>  (42) 
41

>  <SMILES>  (42) 
CC[N-]C(=O)C[N@H+](Cc1ccccc1)[C@@H]1CCS(=O)(=O)C1

>  <Energy>  (42) 
51.305352152229126

>  <Genealogy>  (42) 
CC[N-]C(=O)C[NH+](Cc1ccccc1)C1CCS(=O)(=O)C1 (protonated)
CC[N-]C(=O)C[N@H+](Cc1ccccc1)[C@@H]1CCS(=O)(=O)C1 (chirality)
CC[N-]C(=O)C[N@H+](Cc1ccccc1)[C@@H]1CCS(=O)(=O)C1 (3D coordinates assigned)
CC[N-]C(=O)C[N@H+](Cc1ccccc1)[C@@H]1CCS(=O)(=O)C1 (nonaromatic ring conformer: 51.305352152229126 kcal/mol)

>  <smiles>  (42) 
CCNC(=O)CN(Cc1ccccc1)C1CCS(=O)(=O)C1

>  <score_type>  (42) 
oracle

>  <origin>  (42) 
adg

>  <m_score__min__energy>  (42) 
-8.2799999999999994

>  <m_primary>  (42) 
energy

$$$$
42:0
     RDKit          3D

 42 45  0  0  0  0  0  0  0  0999 V2000
   -5.3500   25.2860  -30.0910 C   0  0  0  0  0  0  0  0  0  0  0  0
   -4.1590   24.6680  -30.5660 O   0  0  0  0  0  0  0  0  0  0  0  0
   -4.1140   23.4190  -31.2010 C   0  0  0  0  0  0  0  0  0  0  0  0
   -3.0520   22.5140  -31.0120 C   0  0  0  0  0  0  0  0  0  0  0  0
   -3.0530   21.2790  -31.6650 C   0  0  0  0  0  0  0  0  0  0  0  0
   -4.1210   20.9200  -32.5050 C   0  0  0  0  0  0  0  0  0  0  0  0
   -4.1260   19.6600  -33.1950 N   0  0  0  0  0  0  0  0  0  0  0  0
   -3.0590   19.1640  -33.7970 N   0  0  0  0  0  0  0  0  0  0  0  0
   -3.4130   17.9390  -34.2350 C   0  0  0  0  0  0  0  0  0  0  0  0
   -2.5030   17.0330  -34.9670 C   0  0  0  0  0  0  0  0  0  0  0  0
   -3.0110   15.9250  -35.6700 C   0  0  0  0  0  0  0  0  0  0  0  0
   -2.1460   15.0710  -36.3620 C   0  0  0  0  0  0  0  0  0  0  0  0
   -0.7700   15.3130  -36.3590 C   0  0  0  0  0  0  0  0  0  0  0  0
   -0.2560   16.4110  -35.6640 C   0  0  0  0  0  0  0  0  0  0  0  0
   -1.1160   17.2690  -34.9700 C   0  0  0  0  0  0  0  0  0  0  0  0
   -4.6930   17.6320  -33.9280 N   0  0  0  0  0  0  0  0  0  0  0  0
   -5.1120   18.7370  -33.2800 C   0  0  0  0  0  0  0  0  0  0  0  0
   -6.5080   18.9070  -32.8190 C   0  0  0  0  0  0  0  0  0  0  0  0
   -7.0150   18.1480  -31.7490 C   0  0  0  0  0  0  0  0  0  0  0  0
   -8.3310   18.3350  -31.3160 C   0  0  0  0  0  0  0  0  0  0  0  0
   -9.1450   19.2870  -31.9340 C   0  0  0  0  0  0  0  0  0  0  0  0
   -8.6410   20.0610  -32.9820 C   0  0  0  0  0  0  0  0  0  0  0  0
   -7.3250   19.8780  -33.4190 C   0  0  0  0  0  0  0  0  0  0  0  0
   -5.1670   21.8310  -32.7090 C   0  0  0  0  0  0  0  0  0  0  0  0
   -5.1650   23.0670  -32.0560 C   0  0  0  0  0  0  0  0  0  0  0  0
   -5.3496   25.2858  -28.9910 H   0  0  0  0  0  0  0  0  0  0  0  0
   -5.3967   26.3221  -30.4575 H   0  0  0  0  0  0  0  0  0  0  0  0
   -6.2241   24.7277  -30.4575 H   0  0  0  0  0  0  0  0  0  0  0  0
   -2.2174   22.7807  -30.3469 H   0  0  0  0  0  0  0  0  0  0  0  0
   -2.2130   20.5835  -31.5209 H   0  0  0  0  0  0  0  0  0  0  0  0
   -4.0935   15.7295  -35.6754 H   0  0  0  0  0  0  0  0  0  0  0  0
   -2.5500   14.2069  -36.9098 H   0  0  0  0  0  0  0  0  0  0  0  0
   -0.0916   14.6396  -36.9034 H   0  0  0  0  0  0  0  0  0  0  0  0
    0.8274   16.6012  -35.6626 H   0  0  0  0  0  0  0  0  0  0  0  0
   -0.7060   18.1317  -34.4244 H   0  0  0  0  0  0  0  0  0  0  0  0
   -6.3742   17.4051  -31.2514 H   0  0  0  0  0  0  0  0  0  0  0  0
   -8.7265   17.7307  -30.4863 H   0  0  0  0  0  0  0  0  0  0  0  0
  -10.1823   19.4272  -31.5957 H   0  0  0  0  0  0  0  0  0  0  0  0
   -9.2800   20.8154  -33.4642 H   0  0  0  0  0  0  0  0  0  0  0  0
   -6.9284   20.4979  -34.2366 H   0  0  0  0  0  0  0  0  0  0  0  0
   -5.9938   21.5717  -33.3866 H   0  0  0  0  0  0  0  0  0  0  0  0
   -5.9966   23.7692  -32.2154 H   0  0  0  0  0  0  0  0  0  0  0  0
  1  2  1  0
  2  3  1  0
  3  4  2  0
  4  5  1  0
  5  6  2  0
  6  7  1  0
  7  8  1  0
  8  9  2  0
  9 10  1  0
 10 11  2  0
 11 12  1  0
 12 13  2  0
 13 14  1  0
 14 15  2  0
  9 16  1  0
 16 17  2  0
 17 18  1  0
 18 19  2  0
 19 20  1  0
 20 21  2  0
 21 22  1  0
 22 23  2  0
  6 24  1  0
 24 25  2  0
 25  3  1  0
 17  7  1  0
 23 18  1  0
 15 10  1  0
  1 26  1  0
  1 27  1  0
  1 28  1  0
  4 29  1  0
  5 30  1  0
 11 31  1  0
 12 32  1  0
 13 33  1  0
 14 34  1  0
 15 35  1  0
 19 36  1  0
 20 37  1  0
 21 38  1  0
 22 39  1  0
 23 40  1  0
 24 41  1  0
 25 42  1  0
M  END
>  <UniqueID>  (43) 
42

>  <SMILES>  (43) 
COc1ccc(-n2nc(-c3ccccc3)nc2-c2ccccc2)cc1

>  <Energy>  (43) 
88.33559574726542

>  <Genealogy>  (43) 
COc1ccc(-n2nc(-c3ccccc3)nc2-c2ccccc2)cc1 (3D coordinates assigned)
COc1ccc(-n2nc(-c3ccccc3)nc2-c2ccccc2)cc1 (optimized conformer: 88.33559574726542 kcal/mol)

>  <smiles>  (43) 
COc1ccc(-n2nc(-c3ccccc3)nc2-c2ccccc2)cc1

>  <score_type>  (43) 
oracle

>  <origin>  (43) 
adg

>  <m_score__min__energy>  (43) 
-7.7300000000000004

>  <m_primary>  (43) 
energy

$$$$
43:0
     RDKit          3D

 56 58  0  0  0  0  0  0  0  0999 V2000
   -2.3690   24.9230  -26.9600 C   0  0  0  0  0  0  0  0  0  0  0  0
   -2.2990   25.1850  -28.3580 O   0  0  0  0  0  0  0  0  0  0  0  0
   -2.5760   24.2360  -29.3550 C   0  0  0  0  0  0  0  0  0  0  0  0
   -3.8080   24.1960  -30.0350 C   0  0  0  0  0  0  0  0  0  0  0  0
   -4.0390   23.2290  -31.0180 C   0  0  0  0  0  0  0  0  0  0  0  0
   -3.0470   22.2890  -31.3420 C   0  0  0  0  0  0  0  0  0  0  0  0
   -3.2920   21.2820  -32.3440 N   0  0  0  0  0  0  0  0  0  0  0  0
   -2.1970   20.3880  -32.7420 C   0  0  0  0  0  0  0  0  0  0  0  0
   -2.6540   19.4100  -33.8290 C   0  0  0  0  0  0  0  0  0  0  0  0
   -3.9890   18.8810  -33.4910 N   0  0  0  0  0  0  0  0  0  0  0  0
   -4.3340   17.7950  -34.3890 C   0  0  0  0  0  0  0  0  0  0  0  0
   -3.4910   16.9600  -34.6950 O   0  0  0  0  0  0  0  0  0  0  0  0
   -5.7270   17.6610  -34.9520 C   0  0  0  0  0  0  0  0  0  0  0  0
   -6.6910   17.1470  -33.8830 C   0  0  0  0  0  0  0  0  0  0  0  0
   -5.7710   16.6640  -32.3770 S   0  0  0  0  0  0  0  0  0  0  0  0
   -6.6060   17.8260  -31.2300 C   0  0  0  0  0  0  0  0  0  0  0  0
   -7.9810   18.2540  -31.7540 C   0  0  0  0  0  0  0  0  0  0  0  0
   -8.1620   19.7490  -31.6940 C   0  0  0  0  0  0  0  0  0  0  0  0
   -9.3620   20.3370  -32.1280 C   0  0  0  0  0  0  0  0  0  0  0  0
   -9.5180   21.7260  -32.0910 C   0  0  0  0  0  0  0  0  0  0  0  0
   -8.4780   22.5370  -31.6270 C   0  0  0  0  0  0  0  0  0  0  0  0
   -7.2770   21.9590  -31.2050 C   0  0  0  0  0  0  0  0  0  0  0  0
   -7.1170   20.5710  -31.2410 C   0  0  0  0  0  0  0  0  0  0  0  0
   -5.0360   19.9340  -33.5180 C   0  0  0  0  0  0  0  0  0  0  0  0
   -4.5140   21.3420  -33.1560 C   0  0  0  0  0  0  0  0  0  0  0  0
   -1.8180   22.3320  -30.6630 C   0  0  0  0  0  0  0  0  0  0  0  0
   -1.5880   23.3000  -29.6800 C   0  0  0  0  0  0  0  0  0  0  0  0
   -2.1242   25.8392  -26.4025 H   0  0  0  0  0  0  0  0  0  0  0  0
   -3.3861   24.5956  -26.6988 H   0  0  0  0  0  0  0  0  0  0  0  0
   -1.6507   24.1319  -26.6988 H   0  0  0  0  0  0  0  0  0  0  0  0
   -4.5919   24.9284  -29.7920 H   0  0  0  0  0  0  0  0  0  0  0  0
   -5.0058   23.2042  -31.5421 H   0  0  0  0  0  0  0  0  0  0  0  0
   -1.3626   20.9914  -33.1288 H   0  0  0  0  0  0  0  0  0  0  0  0
   -1.8791   19.8099  -31.8618 H   0  0  0  0  0  0  0  0  0  0  0  0
   -2.7018   19.9333  -34.7954 H   0  0  0  0  0  0  0  0  0  0  0  0
   -1.9379   18.5777  -33.8953 H   0  0  0  0  0  0  0  0  0  0  0  0
   -3.9400   18.5070  -32.5130 H   0  0  0  0  0  0  0  0  0  0  0  0
   -6.0702   18.6443  -35.3059 H   0  0  0  0  0  0  0  0  0  0  0  0
   -5.7056   16.9434  -35.7855 H   0  0  0  0  0  0  0  0  0  0  0  0
   -7.4093   17.9408  -33.6304 H   0  0  0  0  0  0  0  0  0  0  0  0
   -7.2232   16.2675  -34.2745 H   0  0  0  0  0  0  0  0  0  0  0  0
   -6.7342   17.3332  -30.2550 H   0  0  0  0  0  0  0  0  0  0  0  0
   -5.9797   18.7257  -31.1392 H   0  0  0  0  0  0  0  0  0  0  0  0
   -8.0823   17.9247  -32.7986 H   0  0  0  0  0  0  0  0  0  0  0  0
   -8.7491   17.7907  -31.1173 H   0  0  0  0  0  0  0  0  0  0  0  0
  -10.1811   19.7028  -32.4979 H   0  0  0  0  0  0  0  0  0  0  0  0
  -10.4609   22.1816  -32.4277 H   0  0  0  0  0  0  0  0  0  0  0  0
   -8.6046   23.6292  -31.5940 H   0  0  0  0  0  0  0  0  0  0  0  0
   -6.4570   22.5974  -30.8442 H   0  0  0  0  0  0  0  0  0  0  0  0
   -6.1686   20.1204  -30.9132 H   0  0  0  0  0  0  0  0  0  0  0  0
   -5.4631   19.9724  -34.5310 H   0  0  0  0  0  0  0  0  0  0  0  0
   -5.7820   19.6634  -32.7563 H   0  0  0  0  0  0  0  0  0  0  0  0
   -4.2971   21.8903  -34.0846 H   0  0  0  0  0  0  0  0  0  0  0  0
   -5.2901   21.8515  -32.5660 H   0  0  0  0  0  0  0  0  0  0  0  0
   -1.0328   21.6009  -30.9056 H   0  0  0  0  0  0  0  0  0  0  0  0
   -0.6206   23.3257  -29.1571 H   0  0  0  0  0  0  0  0  0  0  0  0
  1  2  1  0
  2  3  1  0
  3  4  2  0
  4  5  1  0
  5  6  2  0
  6  7  1  0
  7  8  1  0
  8  9  1  0
  9 10  1  0
 10 11  1  0
 11 12  2  0
 11 13  1  0
 13 14  1  0
 14 15  1  0
 15 16  1  0
 16 17  1  0
 17 18  1  0
 18 19  2  0
 19 20  1  0
 20 21  2  0
 21 22  1  0
 22 23  2  0
 10 24  1  0
 24 25  1  0
  6 26  1  0
 26 27  2  0
 27  3  1  0
 25  7  1  0
 23 18  1  0
  1 28  1  0
  1 29  1  0
  1 30  1  0
  4 31  1  0
  5 32  1  0
  8 33  1  0
  8 34  1  0
  9 35  1  0
  9 36  1  0
 10 37  1  0
 13 38  1  0
 13 39  1  0
 14 40  1  0
 14 41  1  0
 16 42  1  0
 16 43  1  0
 17 44  1  0
 17 45  1  0
 19 46  1  0
 20 47  1  0
 21 48  1  0
 22 49  1  0
 23 50  1  0
 24 51  1  0
 24 52  1  0
 25 53  1  0
 25 54  1  0
 26 55  1  0
 27 56  1  0
M  CHG  1  10   1
M  END
>  <UniqueID>  (44) 
43

>  <SMILES>  (44) 
COc1ccc(N2CC[NH+](C(=O)CCSCCc3ccccc3)CC2)cc1

>  <Energy>  (44) 
58.76283808806294

>  <Genealogy>  (44) 
COc1ccc(N2CC[NH+](C(=O)CCSCCc3ccccc3)CC2)cc1 (protonated)
COc1ccc(N2CC[NH+](C(=O)CCSCCc3ccccc3)CC2)cc1 (3D coordinates assigned)
COc1ccc(N2CC[NH+](C(=O)CCSCCc3ccccc3)CC2)cc1 (nonaromatic ring conformer: 58.76283808806294 kcal/mol)

>  <smiles>  (44) 
COc1ccc(N2CCN(C(=O)CCSCCc3ccccc3)CC2)cc1

>  <score_type>  (44) 
oracle

>  <origin>  (44) 
adg

>  <m_score__min__energy>  (44) 
-7.6500000000000004

>  <m_primary>  (44) 
energy

$$$$
44:0
     RDKit          3D

 50 53  0  0  0  0  0  0  0  0999 V2000
   -2.5440   24.4250  -27.2680 C   0  0  0  0  0  0  0  0  0  0  0  0
   -1.9810   24.9290  -28.8790 S   0  0  0  0  0  0  0  0  0  0  0  0
   -1.3160   26.2750  -28.8060 O   0  0  0  0  0  0  0  0  0  0  0  0
   -0.9820   23.9240  -29.3760 O   0  0  0  0  0  0  0  0  0  0  0  0
   -3.3150   24.9840  -29.9870 N   0  0  0  0  0  0  0  0  0  0  0  0
   -3.9970   23.8480  -30.5360 C   0  0  0  0  0  0  0  0  0  0  0  0
   -3.3830   22.5970  -30.6710 C   0  0  0  0  0  0  0  0  0  0  0  0
   -4.0870   21.5230  -31.2140 C   0  0  0  0  0  0  0  0  0  0  0  0
   -5.4260   21.6600  -31.6290 C   0  0  0  0  0  0  0  0  0  0  0  0
   -6.0470   22.9250  -31.4920 C   0  0  0  0  0  0  0  0  0  0  0  0
   -5.3240   24.0020  -30.9460 C   0  0  0  0  0  0  0  0  0  0  0  0
   -7.4790   23.1390  -31.8810 C   0  0  0  0  0  0  0  0  0  0  0  0
   -8.3690   22.1880  -31.0850 C   0  0  0  0  0  0  0  0  0  0  0  0
   -8.6280   20.8980  -31.8550 C   0  0  0  0  0  0  0  0  0  0  0  0
   -7.4220   20.1990  -32.3250 N   0  0  0  0  0  0  0  0  0  0  0  0
   -7.5020   19.0220  -32.9740 C   0  0  0  0  0  0  0  0  0  0  0  0
   -6.2300   18.6000  -33.2800 C   0  0  0  0  0  0  0  0  0  0  0  0
   -5.8440   17.3690  -33.9930 C   0  0  0  0  0  0  0  0  0  0  0  0
   -6.5790   16.9550  -34.9310 O   0  0  0  0  0  0  0  0  0  0  0  0
   -4.6570   16.6430  -33.6400 N   0  0  0  0  0  0  0  0  0  0  0  0
   -4.3170   15.3590  -34.2530 C   0  0  0  0  0  0  0  0  0  0  0  0
   -3.7730   14.4160  -33.2140 C   0  0  0  0  0  0  0  0  0  0  0  0
   -4.5690   14.0060  -32.1330 C   0  0  0  0  0  0  0  0  0  0  0  0
   -4.0460   13.1490  -31.1590 C   0  0  0  0  0  0  0  0  0  0  0  0
   -2.7260   12.7000  -31.2570 C   0  0  0  0  0  0  0  0  0  0  0  0
   -1.9260   13.1080  -32.3270 C   0  0  0  0  0  0  0  0  0  0  0  0
   -2.4460   13.9660  -33.3030 C   0  0  0  0  0  0  0  0  0  0  0  0
   -5.3420   19.5040  -32.8320 N   0  0  0  0  0  0  0  0  0  0  0  0
   -6.0870   20.4750  -32.2550 C   0  0  0  0  0  0  0  0  0  0  0  0
   -1.9604   24.9474  -26.4956 H   0  0  0  0  0  0  0  0  0  0  0  0
   -3.6089   24.6772  -27.1562 H   0  0  0  0  0  0  0  0  0  0  0  0
   -2.4107   23.3388  -27.1562 H   0  0  0  0  0  0  0  0  0  0  0  0
   -2.3406   22.4609  -30.3472 H   0  0  0  0  0  0  0  0  0  0  0  0
   -3.5867   20.5492  -31.3204 H   0  0  0  0  0  0  0  0  0  0  0  0
   -5.8120   24.9821  -30.8401 H   0  0  0  0  0  0  0  0  0  0  0  0
   -7.7666   24.1784  -31.6643 H   0  0  0  0  0  0  0  0  0  0  0  0
   -7.6007   22.9420  -32.9564 H   0  0  0  0  0  0  0  0  0  0  0  0
   -7.8729   21.9443  -30.1340 H   0  0  0  0  0  0  0  0  0  0  0  0
   -9.3338   22.6845  -30.9042 H   0  0  0  0  0  0  0  0  0  0  0  0
   -9.1836   20.2139  -31.1967 H   0  0  0  0  0  0  0  0  0  0  0  0
   -9.1861   21.1869  -32.7578 H   0  0  0  0  0  0  0  0  0  0  0  0
   -8.4313   18.4868  -33.2188 H   0  0  0  0  0  0  0  0  0  0  0  0
   -3.9980   17.0300  -32.9300 H   0  0  0  0  0  0  0  0  0  0  0  0
   -5.2196   14.9212  -34.7042 H   0  0  0  0  0  0  0  0  0  0  0  0
   -3.5520   15.5215  -35.0265 H   0  0  0  0  0  0  0  0  0  0  0  0
   -5.6074   14.3598  -32.0515 H   0  0  0  0  0  0  0  0  0  0  0  0
   -4.6742   12.8281  -30.3150 H   0  0  0  0  0  0  0  0  0  0  0  0
   -2.3168   12.0249  -30.4910 H   0  0  0  0  0  0  0  0  0  0  0  0
   -0.8870   12.7549  -32.4026 H   0  0  0  0  0  0  0  0  0  0  0  0
   -1.8129   14.2888  -34.1426 H   0  0  0  0  0  0  0  0  0  0  0  0
  1  2  1  0
  2  3  2  0
  2  4  2  0
  2  5  1  0
  5  6  1  0
  6  7  2  0
  7  8  1  0
  8  9  2  0
  9 10  1  0
 10 11  2  0
 10 12  1  0
 12 13  1  0
 13 14  1  0
 14 15  1  0
 15 16  1  0
 16 17  2  0
 17 18  1  0
 18 19  2  0
 18 20  1  0
 20 21  1  0
 21 22  1  0
 22 23  2  0
 23 24  1  0
 24 25  2  0
 25 26  1  0
 26 27  2  0
 17 28  1  0
 28 29  2  0
 11  6  1  0
 29 15  1  0
 29  9  1  0
 27 22  1  0
  1 30  1  0
  1 31  1  0
  1 32  1  0
  7 33  1  0
  8 34  1  0
 11 35  1  0
 12 36  1  0
 12 37  1  0
 13 38  1  0
 13 39  1  0
 14 40  1  0
 14 41  1  0
 16 42  1  0
 20 43  1  0
 21 44  1  0
 21 45  1  0
 23 46  1  0
 24 47  1  0
 25 48  1  0
 26 49  1  0
 27 50  1  0
M  CHG  1   5  -1
M  END
>  <UniqueID>  (45) 
44

>  <SMILES>  (45) 
CS(=O)(=O)[N-]c1ccc2c(c1)CCCn1cc(C(=O)NCc3ccccc3)nc1-2

>  <Energy>  (45) 
90.1059120532307

>  <Genealogy>  (45) 
CS(=O)(=O)[N-]c1ccc2c(c1)CCCn1cc(C(=O)NCc3ccccc3)nc1-2 (protonated)
CS(=O)(=O)[N-]c1ccc2c(c1)CCCn1cc(C(=O)NCc3ccccc3)nc1-2 (3D coordinates assigned)
CS(=O)(=O)[N-]c1ccc2c(c1)CCCn1cc(C(=O)NCc3ccccc3)nc1-2 (nonaromatic ring conformer: 90.1059120532307 kcal/mol)

>  <smiles>  (45) 
CS(=O)(=O)Nc1ccc2c(c1)CCCn1cc(C(=O)NCc3ccccc3)nc1-2

>  <score_type>  (45) 
oracle

>  <origin>  (45) 
adg

>  <m_score__min__energy>  (45) 
-9.4000000000000004

>  <m_primary>  (45) 
energy

$$$$
45:0
     RDKit          3D

 34 36  0  0  1  0  0  0  0  0999 V2000
   -8.3520   18.1000  -32.1160 C   0  0  0  0  0  0  0  0  0  0  0  0
   -6.9370   17.9830  -32.6230 C   0  0  1  0  0  0  0  0  0  0  0  0
   -6.7670   16.7420  -33.4210 C   0  0  0  0  0  0  0  0  0  0  0  0
   -5.7710   17.1130  -34.4820 C   0  0  0  0  0  0  0  0  0  0  0  0
   -5.6690   18.6360  -34.4500 C   0  0  0  0  0  0  0  0  0  0  0  0
   -6.5110   19.1110  -33.4280 N   0  0  0  0  0  0  0  0  0  0  0  0
   -5.9970   20.0620  -32.4930 C   0  0  0  0  0  0  0  0  0  0  0  0
   -6.7910   21.2020  -32.1060 C   0  0  0  0  0  0  0  0  0  0  0  0
   -8.1610   21.3030  -32.0770 C   0  0  0  0  0  0  0  0  0  0  0  0
   -8.8500   22.4220  -31.6660 C   0  0  0  0  0  0  0  0  0  0  0  0
   -8.1500   23.5050  -31.2630 N   0  0  0  0  0  0  0  0  0  0  0  0
   -6.7980   23.4740  -31.2670 C   0  0  0  0  0  0  0  0  0  0  0  0
   -6.1750   24.6110  -30.8460 N   0  0  0  0  0  0  0  0  0  0  0  0
   -4.8400   24.6220  -30.8380 C   0  0  0  0  0  0  0  0  0  0  0  0
   -4.2550   25.6770  -30.4470 O   0  0  0  0  0  0  0  0  0  0  0  0
   -4.0920   23.5480  -31.2300 N   0  0  0  0  0  0  0  0  0  0  0  0
   -4.7340   22.4190  -31.6500 C   0  0  0  0  0  0  0  0  0  0  0  0
   -6.1050   22.3550  -31.6770 C   0  0  0  0  0  0  0  0  0  0  0  0
   -8.3486   18.0997  -31.0160 H   0  0  0  0  0  0  0  0  0  0  0  0
   -8.7959   19.0379  -32.4810 H   0  0  0  0  0  0  0  0  0  0  0  0
   -8.9439   17.2477  -32.4810 H   0  0  0  0  0  0  0  0  0  0  0  0
   -6.3056   17.9591  -31.7225 H   0  0  0  0  0  0  0  0  0  0  0  0
   -6.3808   15.9255  -32.7932 H   0  0  0  0  0  0  0  0  0  0  0  0
   -7.7165   16.3829  -33.8447 H   0  0  0  0  0  0  0  0  0  0  0  0
   -4.7929   16.6598  -34.2631 H   0  0  0  0  0  0  0  0  0  0  0  0
   -6.0840   16.7511  -35.4725 H   0  0  0  0  0  0  0  0  0  0  0  0
   -4.6304   18.9355  -34.2462 H   0  0  0  0  0  0  0  0  0  0  0  0
   -5.9725   19.0578  -35.4195 H   0  0  0  0  0  0  0  0  0  0  0  0
   -5.7689   19.5075  -31.5708 H   0  0  0  0  0  0  0  0  0  0  0  0
   -5.1547   20.5162  -33.0354 H   0  0  0  0  0  0  0  0  0  0  0  0
   -8.7467   20.4313  -32.4041 H   0  0  0  0  0  0  0  0  0  0  0  0
   -9.9499   22.4340  -31.6658 H   0  0  0  0  0  0  0  0  0  0  0  0
   -6.7460   25.4350  -30.5400 H   0  0  0  0  0  0  0  0  0  0  0  0
   -4.1443   21.5479  -31.9715 H   0  0  0  0  0  0  0  0  0  0  0  0
  1  2  1  0
  2  3  1  0
  3  4  1  0
  4  5  1  0
  5  6  1  0
  6  7  1  0
  7  8  1  0
  8  9  2  0
  9 10  1  0
 10 11  2  0
 11 12  1  0
 12 13  1  0
 13 14  1  0
 14 15  2  0
 14 16  1  0
 16 17  2  0
 17 18  1  0
  6  2  1  0
 18  8  1  0
 18 12  2  0
  1 19  1  0
  1 20  1  0
  1 21  1  0
  2 22  1  1
  3 23  1  0
  3 24  1  0
  4 25  1  0
  4 26  1  0
  5 27  1  0
  5 28  1  0
  7 29  1  0
  7 30  1  0
  9 31  1  0
 10 32  1  0
 13 33  1  0
 17 34  1  0
M  END
>  <smiles>  (46) 
CC1CCCN1Cc1ccnc2[nH]c(=O)ncc12

>  <score_type>  (46) 
oracle

>  <origin>  (46) 
adg

>  <m_score__min__energy>  (46) 
-7.8799999999999999

>  <m_primary>  (46) 
energy

$$$$
46:0
     RDKit          3D

 58 60  0  0  0  0  0  0  0  0999 V2000
   -3.7640   17.0340  -34.6450 C   0  0  0  0  0  0  0  0  0  0  0  0
   -3.9340   18.4430  -34.5420 O   0  0  0  0  0  0  0  0  0  0  0  0
   -4.9340   19.0690  -33.7810 C   0  0  0  0  0  0  0  0  0  0  0  0
   -6.2660   19.1620  -34.2270 C   0  0  0  0  0  0  0  0  0  0  0  0
   -7.2330   19.7920  -33.4420 C   0  0  0  0  0  0  0  0  0  0  0  0
   -6.8900   20.3350  -32.1980 C   0  0  0  0  0  0  0  0  0  0  0  0
   -7.9360   21.0410  -31.3720 C   0  0  0  0  0  0  0  0  0  0  0  0
   -7.5770   22.4600  -31.1680 N   0  0  0  0  0  0  0  0  0  0  0  0
   -6.8450   22.6600  -29.8910 C   0  0  0  0  0  0  0  0  0  0  0  0
   -5.3210   22.7120  -30.0920 C   0  0  0  0  0  0  0  0  0  0  0  0
   -4.9050   23.7900  -31.0290 N   0  0  0  0  0  0  0  0  0  0  0  0
   -4.3340   24.9590  -30.3260 C   0  0  0  0  0  0  0  0  0  0  0  0
   -3.5280   24.5060  -29.1040 C   0  0  0  0  0  0  0  0  0  0  0  0
   -2.3600   25.3110  -28.9430 O   0  0  0  0  0  0  0  0  0  0  0  0
   -1.5570   25.3740  -27.7920 C   0  0  0  0  0  0  0  0  0  0  0  0
   -1.9680   26.0410  -26.6190 C   0  0  0  0  0  0  0  0  0  0  0  0
   -1.1340   26.0780  -25.5000 C   0  0  0  0  0  0  0  0  0  0  0  0
    0.1140   25.4560  -25.5350 C   0  0  0  0  0  0  0  0  0  0  0  0
    0.5350   24.7960  -26.6910 C   0  0  0  0  0  0  0  0  0  0  0  0
   -0.2970   24.7510  -27.8270 C   0  0  0  0  0  0  0  0  0  0  0  0
    0.0890   24.0980  -29.0080 O   0  0  0  0  0  0  0  0  0  0  0  0
   -0.5070   22.9000  -29.4990 C   0  0  0  0  0  0  0  0  0  0  0  0
   -5.9800   24.2060  -31.9580 C   0  0  0  0  0  0  0  0  0  0  0  0
   -6.8620   23.0150  -32.3450 C   0  0  0  0  0  0  0  0  0  0  0  0
   -5.5630   20.2520  -31.7510 C   0  0  0  0  0  0  0  0  0  0  0  0
   -4.5810   19.6190  -32.5370 C   0  0  0  0  0  0  0  0  0  0  0  0
   -3.2440   19.5180  -32.1210 O   0  0  0  0  0  0  0  0  0  0  0  0
   -2.2200   20.4470  -32.4620 C   0  0  0  0  0  0  0  0  0  0  0  0
   -3.7112   16.5964  -33.6372 H   0  0  0  0  0  0  0  0  0  0  0  0
   -4.6164   16.6006  -35.1887 H   0  0  0  0  0  0  0  0  0  0  0  0
   -2.8330   16.8158  -35.1887 H   0  0  0  0  0  0  0  0  0  0  0  0
   -6.5467   18.7351  -35.2011 H   0  0  0  0  0  0  0  0  0  0  0  0
   -8.2698   19.8622  -33.8026 H   0  0  0  0  0  0  0  0  0  0  0  0
   -8.9037   20.9854  -31.8921 H   0  0  0  0  0  0  0  0  0  0  0  0
   -7.9992   20.5496  -30.3899 H   0  0  0  0  0  0  0  0  0  0  0  0
   -7.1745   23.6073  -29.4393 H   0  0  0  0  0  0  0  0  0  0  0  0
   -7.0686   21.8035  -29.2380 H   0  0  0  0  0  0  0  0  0  0  0  0
   -4.8427   22.8883  -29.1172 H   0  0  0  0  0  0  0  0  0  0  0  0
   -5.0091   21.7517  -30.5286 H   0  0  0  0  0  0  0  0  0  0  0  0
   -3.6731   25.5078  -31.0130 H   0  0  0  0  0  0  0  0  0  0  0  0
   -5.1550   25.6098  -29.9907 H   0  0  0  0  0  0  0  0  0  0  0  0
   -4.1549   24.5954  -28.2046 H   0  0  0  0  0  0  0  0  0  0  0  0
   -3.2193   23.4606  -29.2518 H   0  0  0  0  0  0  0  0  0  0  0  0
   -2.9505   26.5345  -26.5858 H   0  0  0  0  0  0  0  0  0  0  0  0
   -1.4619   26.5990  -24.5884 H   0  0  0  0  0  0  0  0  0  0  0  0
    0.7674   25.4855  -24.6506 H   0  0  0  0  0  0  0  0  0  0  0  0
    1.5210   24.3088  -26.7149 H   0  0  0  0  0  0  0  0  0  0  0  0
   -0.8195   22.2719  -28.6517 H   0  0  0  0  0  0  0  0  0  0  0  0
   -1.3849   23.1518  -30.1121 H   0  0  0  0  0  0  0  0  0  0  0  0
    0.2234   22.3517  -30.1121 H   0  0  0  0  0  0  0  0  0  0  0  0
   -6.6019   24.9705  -31.4693 H   0  0  0  0  0  0  0  0  0  0  0  0
   -5.5177   24.6109  -32.8703 H   0  0  0  0  0  0  0  0  0  0  0  0
   -7.6017   23.3453  -33.0891 H   0  0  0  0  0  0  0  0  0  0  0  0
   -6.2149   22.2271  -32.7579 H   0  0  0  0  0  0  0  0  0  0  0  0
   -5.2872   20.6851  -30.7782 H   0  0  0  0  0  0  0  0  0  0  0  0
   -1.7724   20.8531  -31.5429 H   0  0  0  0  0  0  0  0  0  0  0  0
   -1.4448   19.9376  -33.0533 H   0  0  0  0  0  0  0  0  0  0  0  0
   -2.6518   21.2680  -33.0533 H   0  0  0  0  0  0  0  0  0  0  0  0
  1  2  1  0
  2  3  1  0
  3  4  2  0
  4  5  1  0
  5  6  2  0
  6  7  1  0
  7  8  1  0
  8  9  1  0
  9 10  1  0
 10 11  1  0
 11 12  1  0
 12 13  1  0
 13 14  1  0
 14 15  1  0
 15 16  2  0
 16 17  1  0
 17 18  2  0
 18 19  1  0
 19 20  2  0
 20 21  1  0
 21 22  1  0
 11 23  1  0
 23 24  1  0
  6 25  1  0
 25 26  2  0
 26 27  1  0
 27 28  1  0
 26  3  1  0
 24  8  1  0
 20 15  1  0
  1 29  1  0
  1 30  1  0
  1 31  1  0
  4 32  1  0
  5 33  1  0
  7 34  1  0
  7 35  1  0
  9 36  1  0
  9 37  1  0
 10 38  1  0
 10 39  1  0
 12 40  1  0
 12 41  1  0
 13 42  1  0
 13 43  1  0
 16 44  1  0
 17 45  1  0
 18 46  1  0
 19 47  1  0
 22 48  1  0
 22 49  1  0
 22 50  1  0
 23 51  1  0
 23 52  1  0
 24 53  1  0
 24 54  1  0
 25 55  1  0
 28 56  1  0
 28 57  1  0
 28 58  1  0
M  END
>  <UniqueID>  (47) 
45

>  <SMILES>  (47) 
COc1ccc(CN2CCN(CCOc3ccccc3OC)CC2)cc1OC

>  <Energy>  (47) 
69.92388063699211

>  <Genealogy>  (47) 
COc1ccc(CN2CCN(CCOc3ccccc3OC)CC2)cc1OC (3D coordinates assigned)
COc1ccc(CN2CCN(CCOc3ccccc3OC)CC2)cc1OC (nonaromatic ring conformer: 69.92388063699211 kcal/mol)

>  <smiles>  (47) 
COc1ccc(CN2CCN(CCOc3ccccc3OC)CC2)cc1OC

>  <score_type>  (47) 
oracle

>  <origin>  (47) 
adg

>  <m_score__min__energy>  (47) 
-8.8200000000000003

>  <m_primary>  (47) 
energy

$$$$
47:0
     RDKit          3D

 31 33  0  0  0  0  0  0  0  0999 V2000
   -2.2870   24.8540  -28.6390 C   0  0  0  0  0  0  0  0  0  0  0  0
   -3.1220   25.2860  -29.7080 O   0  0  0  0  0  0  0  0  0  0  0  0
   -4.2700   24.6070  -30.1420 C   0  0  0  0  0  0  0  0  0  0  0  0
   -5.5180   25.2040  -29.9190 C   0  0  0  0  0  0  0  0  0  0  0  0
   -6.6940   24.5710  -30.3320 C   0  0  0  0  0  0  0  0  0  0  0  0
   -6.6360   23.3300  -30.9730 C   0  0  0  0  0  0  0  0  0  0  0  0
   -7.7570   22.7330  -31.3650 O   0  0  0  0  0  0  0  0  0  0  0  0
   -7.7690   21.5530  -31.9790 C   0  0  0  0  0  0  0  0  0  0  0  0
   -8.8740   21.0660  -32.3400 O   0  0  0  0  0  0  0  0  0  0  0  0
   -6.5620   20.8690  -32.2370 C   0  0  0  0  0  0  0  0  0  0  0  0
   -6.5380   19.5450  -32.9100 C   0  0  0  0  0  0  0  0  0  0  0  0
   -7.2620   18.4610  -32.3830 C   0  0  0  0  0  0  0  0  0  0  0  0
   -7.2260   17.2140  -33.0170 C   0  0  0  0  0  0  0  0  0  0  0  0
   -6.4650   17.0380  -34.1760 C   0  0  0  0  0  0  0  0  0  0  0  0
   -5.7380   18.1070  -34.7030 C   0  0  0  0  0  0  0  0  0  0  0  0
   -5.7700   19.3560  -34.0730 C   0  0  0  0  0  0  0  0  0  0  0  0
   -5.3620   21.4780  -31.8440 C   0  0  0  0  0  0  0  0  0  0  0  0
   -5.3880   22.7200  -31.2040 C   0  0  0  0  0  0  0  0  0  0  0  0
   -4.2090   23.3560  -30.7890 C   0  0  0  0  0  0  0  0  0  0  0  0
   -2.7636   25.1006  -27.6788 H   0  0  0  0  0  0  0  0  0  0  0  0
   -2.1388   23.7661  -28.7061 H   0  0  0  0  0  0  0  0  0  0  0  0
   -1.3134   25.3615  -28.7061 H   0  0  0  0  0  0  0  0  0  0  0  0
   -5.5728   26.1798  -29.4143 H   0  0  0  0  0  0  0  0  0  0  0  0
   -7.6675   25.0506  -30.1522 H   0  0  0  0  0  0  0  0  0  0  0  0
   -7.8591   18.5937  -31.4687 H   0  0  0  0  0  0  0  0  0  0  0  0
   -7.7977   16.3707  -32.6024 H   0  0  0  0  0  0  0  0  0  0  0  0
   -6.4389   16.0570  -34.6730 H   0  0  0  0  0  0  0  0  0  0  0  0
   -5.1390   17.9672  -35.6150 H   0  0  0  0  0  0  0  0  0  0  0  0
   -5.1918   20.1940  -34.4893 H   0  0  0  0  0  0  0  0  0  0  0  0
   -4.4013   20.9789  -32.0391 H   0  0  0  0  0  0  0  0  0  0  0  0
   -3.2348   22.8778  -30.9687 H   0  0  0  0  0  0  0  0  0  0  0  0
  1  2  1  0
  2  3  1  0
  3  4  2  0
  4  5  1  0
  5  6  2  0
  6  7  1  0
  7  8  1  0
  8  9  2  0
  8 10  1  0
 10 11  1  0
 11 12  2  0
 12 13  1  0
 13 14  2  0
 14 15  1  0
 15 16  2  0
 10 17  2  0
 17 18  1  0
 18 19  2  0
 19  3  1  0
 18  6  1  0
 16 11  1  0
  1 20  1  0
  1 21  1  0
  1 22  1  0
  4 23  1  0
  5 24  1  0
 12 25  1  0
 13 26  1  0
 14 27  1  0
 15 28  1  0
 16 29  1  0
 17 30  1  0
 19 31  1  0
M  END
>  <UniqueID>  (48) 
46

>  <SMILES>  (48) 
COc1ccc2oc(=O)c(-c3ccccc3)cc2c1

>  <Energy>  (48) 
43.934212193814645

>  <Genealogy>  (48) 
COc1ccc2oc(=O)c(-c3ccccc3)cc2c1 (3D coordinates assigned)
COc1ccc2oc(=O)c(-c3ccccc3)cc2c1 (optimized conformer: 43.934212193814645 kcal/mol)

>  <smiles>  (48) 
COc1ccc2oc(=O)c(-c3ccccc3)cc2c1

>  <score_type>  (48) 
oracle

>  <origin>  (48) 
adg

>  <m_score__min__energy>  (48) 
-8.1999999999999993

>  <m_primary>  (48) 
energy

$$$$
