0:0
     RDKit          3D

 52 55  0  0  0  0  0  0  0  0999 V2000
   -1.2240   26.1650  -27.3950 C   0  0  0  0  0  0  0  0  0  0  0  0
   -1.9900   25.6950  -28.4990 O   0  0  0  0  0  0  0  0  0  0  0  0
   -1.7970   24.4550  -29.1290 C   0  0  0  0  0  0  0  0  0  0  0  0
   -0.5950   23.7310  -29.0040 C   0  0  0  0  0  0  0  0  0  0  0  0
   -0.4420   22.4980  -29.6450 C   0  0  0  0  0  0  0  0  0  0  0  0
   -1.4900   21.9600  -30.4100 C   0  0  0  0  0  0  0  0  0  0  0  0
   -1.3480   20.7050  -31.0990 N   0  0  0  0  0  0  0  0  0  0  0  0
   -1.0970   20.5870  -32.5080 C   0  0  0  0  0  0  0  0  0  0  0  0
   -0.7020   21.5850  -33.1710 O   0  0  0  0  0  0  0  0  0  0  0  0
   -1.2150   19.2430  -33.1810 C   0  0  2  0  0  0  0  0  0  0  0  0
   -0.1070   19.0670  -34.2430 C   0  0  0  0  0  0  0  0  0  0  0  0
   -0.3820   17.9220  -35.2420 C   0  0  0  0  0  0  0  0  0  0  0  0
   -1.4920   16.9750  -34.7740 C   0  0  0  0  0  0  0  0  0  0  0  0
   -2.7110   17.7410  -34.4740 N   0  0  0  0  0  0  0  0  0  0  0  0
   -3.9950   17.3020  -34.9550 C   0  0  0  0  0  0  0  0  0  0  0  0
   -4.0640   16.6540  -36.0350 O   0  0  0  0  0  0  0  0  0  0  0  0
   -5.2440   17.5850  -34.2190 C   0  0  0  0  0  0  0  0  0  0  0  0
   -6.0820   16.5490  -33.7730 C   0  0  0  0  0  0  0  0  0  0  0  0
   -7.2460   16.8560  -33.0660 C   0  0  0  0  0  0  0  0  0  0  0  0
   -7.5640   18.1920  -32.7930 C   0  0  0  0  0  0  0  0  0  0  0  0
   -8.7240   18.5350  -32.0840 C   0  0  0  0  0  0  0  0  0  0  0  0
   -9.0100   19.8780  -31.8210 C   0  0  0  0  0  0  0  0  0  0  0  0
   -8.1410   20.8820  -32.2600 C   0  0  0  0  0  0  0  0  0  0  0  0
   -6.9810   20.5480  -32.9680 C   0  0  0  0  0  0  0  0  0  0  0  0
   -6.6880   19.2060  -33.2370 C   0  0  0  0  0  0  0  0  0  0  0  0
   -5.5630   18.8770  -33.9250 N   0  0  0  0  0  0  0  0  0  0  0  0
   -2.6140   19.0400  -33.7910 C   0  0  0  0  0  0  0  0  0  0  0  0
   -2.6770   22.6910  -30.5510 C   0  0  0  0  0  0  0  0  0  0  0  0
   -2.8340   23.9260  -29.9110 C   0  0  0  0  0  0  0  0  0  0  0  0
   -4.3440   24.8040  -30.1000 Cl  0  0  0  0  0  0  0  0  0  0  0  0
   -1.7122   25.8654  -26.4559 H   0  0  0  0  0  0  0  0  0  0  0  0
   -0.2142   25.7308  -27.4380 H   0  0  0  0  0  0  0  0  0  0  0  0
   -1.1536   27.2619  -27.4380 H   0  0  0  0  0  0  0  0  0  0  0  0
    0.2281   24.1382  -28.3984 H   0  0  0  0  0  0  0  0  0  0  0  0
    0.5047   21.9460  -29.5497 H   0  0  0  0  0  0  0  0  0  0  0  0
   -1.3440   19.8300  -30.5280 H   0  0  0  0  0  0  0  0  0  0  0  0
   -1.0789   18.4661  -32.4142 H   0  0  0  0  0  0  0  0  0  0  0  0
   -0.0149   20.0063  -34.8079 H   0  0  0  0  0  0  0  0  0  0  0  0
    0.8169   18.8093  -33.7045 H   0  0  0  0  0  0  0  0  0  0  0  0
   -0.6787   18.3611  -36.2059 H   0  0  0  0  0  0  0  0  0  0  0  0
    0.5415   17.3306  -35.3281 H   0  0  0  0  0  0  0  0  0  0  0  0
   -1.7066   16.2444  -35.5678 H   0  0  0  0  0  0  0  0  0  0  0  0
   -1.1612   16.4509  -33.8652 H   0  0  0  0  0  0  0  0  0  0  0  0
   -5.8219   15.5004  -33.9801 H   0  0  0  0  0  0  0  0  0  0  0  0
   -7.9119   16.0500  -32.7241 H   0  0  0  0  0  0  0  0  0  0  0  0
   -9.4086   17.7479  -31.7349 H   0  0  0  0  0  0  0  0  0  0  0  0
   -9.9217   20.1459  -31.2669 H   0  0  0  0  0  0  0  0  0  0  0  0
   -8.3699   21.9369  -32.0482 H   0  0  0  0  0  0  0  0  0  0  0  0
   -6.2998   21.3398  -33.3130 H   0  0  0  0  0  0  0  0  0  0  0  0
   -2.8092   19.8430  -34.5170 H   0  0  0  0  0  0  0  0  0  0  0  0
   -3.3557   19.0638  -32.9791 H   0  0  0  0  0  0  0  0  0  0  0  0
   -3.4931   22.2907  -31.1704 H   0  0  0  0  0  0  0  0  0  0  0  0
  1  2  1  0
  2  3  1  0
  3  4  2  0
  4  5  1  0
  5  6  2  0
  6  7  1  0
  7  8  1  0
  8  9  2  0
  8 10  1  0
 10 11  1  0
 11 12  1  0
 12 13  1  0
 13 14  1  0
 14 15  1  0
 15 16  2  0
 15 17  1  0
 17 18  2  0
 18 19  1  0
 19 20  2  0
 20 21  1  0
 21 22  2  0
 22 23  1  0
 23 24  2  0
 24 25  1  0
 25 26  2  0
 14 27  1  0
  6 28  1  0
 28 29  2  0
 29 30  1  0
 29  3  1  0
 27 10  1  0
 26 17  1  0
 25 20  1  0
  1 31  1  0
  1 32  1  0
  1 33  1  0
  4 34  1  0
  5 35  1  0
  7 36  1  0
 10 37  1  1
 11 38  1  0
 11 39  1  0
 12 40  1  0
 12 41  1  0
 13 42  1  0
 13 43  1  0
 18 44  1  0
 19 45  1  0
 21 46  1  0
 22 47  1  0
 23 48  1  0
 24 49  1  0
 27 50  1  0
 27 51  1  0
 28 52  1  0
M  END
>  <UniqueID>  (1) 
1

>  <SMILES>  (1) 
COc1ccc(NC(=O)[C@@H]2CCCN(C(=O)c3ccc4ccccc4n3)C2)cc1Cl

>  <Energy>  (1) 
66.77852617670916

>  <Genealogy>  (1) 
COc1ccc(NC(=O)[C@@H]2CCCN(C(=O)c3ccc4ccccc4n3)C2)cc1Cl (chirality)
COc1ccc(NC(=O)[C@@H]2CCCN(C(=O)c3ccc4ccccc4n3)C2)cc1Cl (3D coordinates assigned)
COc1ccc(NC(=O)[C@@H]2CCCN(C(=O)c3ccc4ccccc4n3)C2)cc1Cl (nonaromatic ring conformer: 66.77852617670916 kcal/mol)

>  <smiles>  (1) 
COc1ccc(NC(=O)C2CCCN(C(=O)c3ccc4ccccc4n3)C2)cc1Cl

>  <score_type>  (1) 
oracle

>  <origin>  (1) 
adg

>  <m_score__min__energy>  (1) 
-9.6500000000000004

>  <m_primary>  (1) 
energy

$$$$
1:0
     RDKit          3D

 25 26  0  0  0  0  0  0  0  0999 V2000
   -2.6160   24.5430  -29.3620 C   0  0  0  0  0  0  0  0  0  0  0  0
   -3.4900   24.8990  -30.4290 O   0  0  0  0  0  0  0  0  0  0  0  0
   -4.6840   24.2290  -30.7370 C   0  0  0  0  0  0  0  0  0  0  0  0
   -5.8860   24.8020  -30.3150 C   0  0  0  0  0  0  0  0  0  0  0  0
   -7.1040   24.1820  -30.5920 C   0  0  0  0  0  0  0  0  0  0  0  0
   -7.1370   22.9730  -31.3000 C   0  0  0  0  0  0  0  0  0  0  0  0
   -8.3590   22.3560  -31.5760 C   0  0  0  0  0  0  0  0  0  0  0  0
   -8.3860   21.1580  -32.2780 C   0  0  0  0  0  0  0  0  0  0  0  0
   -7.1900   20.5810  -32.7020 C   0  0  0  0  0  0  0  0  0  0  0  0
   -5.9840   21.1750  -32.4390 N   0  0  0  0  0  0  0  0  0  0  0  0
   -4.7630   20.5070  -32.9180 C   0  0  0  0  0  0  0  0  0  0  0  0
   -5.9320   22.3670  -31.7430 C   0  0  0  0  0  0  0  0  0  0  0  0
   -4.7080   23.0140  -31.4490 C   0  0  0  0  0  0  0  0  0  0  0  0
   -3.1105   24.7444  -28.4003 H   0  0  0  0  0  0  0  0  0  0  0  0
   -2.3701   23.4730  -29.4309 H   0  0  0  0  0  0  0  0  0  0  0  0
   -1.6925   25.1366  -29.4309 H   0  0  0  0  0  0  0  0  0  0  0  0
   -5.8717   25.7511  -29.7590 H   0  0  0  0  0  0  0  0  0  0  0  0
   -8.0431   24.6440  -30.2533 H   0  0  0  0  0  0  0  0  0  0  0  0
   -9.2983   22.8180  -31.2380 H   0  0  0  0  0  0  0  0  0  0  0  0
   -9.3456   20.6673  -32.4981 H   0  0  0  0  0  0  0  0  0  0  0  0
   -7.2151   19.6319  -33.2576 H   0  0  0  0  0  0  0  0  0  0  0  0
   -4.1628   20.1786  -32.0567 H   0  0  0  0  0  0  0  0  0  0  0  0
   -5.0379   19.6337  -33.5276 H   0  0  0  0  0  0  0  0  0  0  0  0
   -4.1758   21.2095  -33.5276 H   0  0  0  0  0  0  0  0  0  0  0  0
   -3.7620   22.5615  -31.7813 H   0  0  0  0  0  0  0  0  0  0  0  0
  1  2  1  0
  2  3  1  0
  3  4  2  0
  4  5  1  0
  5  6  2  0
  6  7  1  0
  7  8  2  0
  8  9  1  0
  9 10  2  0
 10 11  1  0
 10 12  1  0
 12 13  2  0
 13  3  1  0
 12  6  1  0
  1 14  1  0
  1 15  1  0
  1 16  1  0
  4 17  1  0
  5 18  1  0
  7 19  1  0
  8 20  1  0
  9 21  1  0
 11 22  1  0
 11 23  1  0
 11 24  1  0
 13 25  1  0
M  CHG  1  10   1
M  END
>  <UniqueID>  (2) 
2

>  <SMILES>  (2) 
COc1ccc2ccc[n+](C)c2c1

>  <Energy>  (2) 
31.74592979382185

>  <Genealogy>  (2) 
COc1ccc2ccc[n+](C)c2c1 (3D coordinates assigned)
COc1ccc2ccc[n+](C)c2c1 (optimized conformer: 31.74592979382185 kcal/mol)

>  <smiles>  (2) 
COc1ccc2ccc[n+](C)c2c1

>  <score_type>  (2) 
oracle

>  <origin>  (2) 
adg

>  <m_score__min__energy>  (2) 
-5.4299999999999997

>  <m_primary>  (2) 
energy

$$$$
2:0
     RDKit          3D

 43 45  0  0  0  0  0  0  0  0999 V2000
   -3.8960   19.9600  -32.2270 C   0  0  0  0  0  0  0  0  0  0  0  0
   -3.4080   21.1360  -31.5030 N   0  0  0  0  0  0  0  0  0  0  0  0
   -3.9600   22.3790  -31.4870 C   0  0  0  0  0  0  0  0  0  0  0  0
   -5.2280   22.7330  -32.2280 C   0  0  0  0  0  0  0  0  0  0  0  0
   -6.4110   22.3380  -31.4360 N   0  0  0  0  0  0  0  0  0  0  0  0
   -7.4100   23.4380  -31.3330 C   0  0  0  0  0  0  0  0  0  0  0  0
   -8.6050   23.2480  -32.2770 C   0  0  0  0  0  0  0  0  0  0  0  0
   -9.3450   21.9300  -31.9860 C   0  0  0  0  0  0  0  0  0  0  0  0
   -8.4050   20.8340  -31.4300 C   0  0  1  0  0  0  0  0  0  0  0  0
   -8.9190   19.4190  -31.7540 C   0  0  0  0  0  0  0  0  0  0  0  0
   -9.5460   19.3750  -33.0110 O   0  0  0  0  0  0  0  0  0  0  0  0
   -6.9640   21.0540  -31.9280 C   0  0  0  0  0  0  0  0  0  0  0  0
   -3.2550   23.2120  -30.6020 C   0  0  0  0  0  0  0  0  0  0  0  0
   -3.5080   24.6320  -30.2840 C   0  0  0  0  0  0  0  0  0  0  0  0
   -4.4490   25.2500  -30.8470 O   0  0  0  0  0  0  0  0  0  0  0  0
   -2.7380   25.2960  -29.3390 O   0  0  0  0  0  0  0  0  0  0  0  0
   -2.2640   22.4090  -30.0560 C   0  0  0  0  0  0  0  0  0  0  0  0
   -1.2670   22.6910  -29.1170 C   0  0  0  0  0  0  0  0  0  0  0  0
   -0.3980   21.6510  -28.7410 C   0  0  0  0  0  0  0  0  0  0  0  0
    0.9780   21.9820  -27.4600 Br  0  0  0  0  0  0  0  0  0  0  0  0
   -0.5400   20.3650  -29.3030 C   0  0  0  0  0  0  0  0  0  0  0  0
   -1.5440   20.1090  -30.2510 C   0  0  0  0  0  0  0  0  0  0  0  0
   -2.3900   21.1620  -30.6170 C   0  0  0  0  0  0  0  0  0  0  0  0
   -4.2146   19.1921  -31.5067 H   0  0  0  0  0  0  0  0  0  0  0  0
   -4.7495   20.2466  -32.8590 H   0  0  0  0  0  0  0  0  0  0  0  0
   -3.0904   19.5581  -32.8590 H   0  0  0  0  0  0  0  0  0  0  0  0
   -5.2547   23.8185  -32.4038 H   0  0  0  0  0  0  0  0  0  0  0  0
   -5.2438   22.1958  -33.1878 H   0  0  0  0  0  0  0  0  0  0  0  0
   -7.7824   23.4786  -30.2987 H   0  0  0  0  0  0  0  0  0  0  0  0
   -6.9051   24.3714  -31.6225 H   0  0  0  0  0  0  0  0  0  0  0  0
   -9.3032   24.0876  -32.1443 H   0  0  0  0  0  0  0  0  0  0  0  0
   -8.2287   23.2136  -33.3101 H   0  0  0  0  0  0  0  0  0  0  0  0
  -10.1358   22.1251  -31.2467 H   0  0  0  0  0  0  0  0  0  0  0  0
   -9.7615   21.5633  -32.9358 H   0  0  0  0  0  0  0  0  0  0  0  0
   -8.3978   20.9171  -30.3332 H   0  0  0  0  0  0  0  0  0  0  0  0
   -8.0689   18.7210  -31.7538 H   0  0  0  0  0  0  0  0  0  0  0  0
   -9.6575   19.1361  -30.9894 H   0  0  0  0  0  0  0  0  0  0  0  0
   -8.8250   19.3290  -33.6900 H   0  0  0  0  0  0  0  0  0  0  0  0
   -6.3310   20.2301  -31.5668 H   0  0  0  0  0  0  0  0  0  0  0  0
   -6.9787   21.0825  -33.0275 H   0  0  0  0  0  0  0  0  0  0  0  0
   -1.1653   23.6974  -28.6848 H   0  0  0  0  0  0  0  0  0  0  0  0
    0.1405   19.5569  -28.9965 H   0  0  0  0  0  0  0  0  0  0  0  0
   -1.6621   19.1089  -30.6934 H   0  0  0  0  0  0  0  0  0  0  0  0
  1  2  1  0
  2  3  1  0
  3  4  1  0
  4  5  1  0
  5  6  1  0
  6  7  1  0
  7  8  1  0
  8  9  1  0
  9 10  1  0
 10 11  1  0
  9 12  1  0
  3 13  2  0
 13 14  1  0
 14 15  2  0
 14 16  1  0
 13 17  1  0
 17 18  2  0
 18 19  1  0
 19 20  1  0
 19 21  2  0
 21 22  1  0
 22 23  2  0
 23  2  1  0
 12  5  1  0
 23 17  1  0
  1 24  1  0
  1 25  1  0
  1 26  1  0
  4 27  1  0
  4 28  1  0
  6 29  1  0
  6 30  1  0
  7 31  1  0
  7 32  1  0
  8 33  1  0
  8 34  1  0
  9 35  1  1
 10 36  1  0
 10 37  1  0
 11 38  1  0
 12 39  1  0
 12 40  1  0
 18 41  1  0
 21 42  1  0
 22 43  1  0
M  CHG  1  16  -1
M  END
>  <UniqueID>  (3) 
3

>  <SMILES>  (3) 
Cn1c(CN2CCC[C@@H](CO)C2)c(C(=O)[O-])c2cc(Br)ccc21

>  <Energy>  (3) 
87.66539226825292

>  <Genealogy>  (3) 
Cn1c(CN2CCCC(CO)C2)c(C(=O)[O-])c2cc(Br)ccc21 (protonated)
Cn1c(CN2CCC[C@@H](CO)C2)c(C(=O)[O-])c2cc(Br)ccc21 (chirality)
Cn1c(CN2CCC[C@@H](CO)C2)c(C(=O)[O-])c2cc(Br)ccc21 (3D coordinates assigned)
Cn1c(CN2CCC[C@@H](CO)C2)c(C(=O)[O-])c2cc(Br)ccc21 (nonaromatic ring conformer: 87.66539226825292 kcal/mol)

>  <smiles>  (3) 
Cn1c(CN2CCCC(CO)C2)c(C(=O)O)c2cc(Br)ccc21

>  <score_type>  (3) 
oracle

>  <origin>  (3) 
adg

>  <m_score__min__energy>  (3) 
-10.140000000000001

>  <m_primary>  (3) 
energy

$$$$
3:0
     RDKit          3D

 33 35  0  0  0  0  0  0  0  0999 V2000
   -8.5770   22.4770  -31.9100 C   0  0  0  0  0  0  0  0  0  0  0  0
   -7.5730   21.4310  -32.3120 C   0  0  0  0  0  0  0  0  0  0  0  0
   -7.9880   20.1370  -32.3020 N   0  0  0  0  0  0  0  0  0  0  0  0
   -7.1810   19.1210  -32.6840 C   0  0  0  0  0  0  0  0  0  0  0  0
   -7.6500   17.8030  -32.6510 C   0  0  0  0  0  0  0  0  0  0  0  0
   -6.8180   16.7540  -33.0520 C   0  0  0  0  0  0  0  0  0  0  0  0
   -5.5180   17.0200  -33.4890 C   0  0  0  0  0  0  0  0  0  0  0  0
   -5.0440   18.3360  -33.5260 C   0  0  0  0  0  0  0  0  0  0  0  0
   -5.8750   19.3970  -33.1210 C   0  0  0  0  0  0  0  0  0  0  0  0
   -5.4490   20.7360  -33.1370 C   0  0  0  0  0  0  0  0  0  0  0  0
   -4.2840   21.0120  -33.5380 O   0  0  0  0  0  0  0  0  0  0  0  0
   -6.2880   21.7440  -32.7170 N   0  0  0  0  0  0  0  0  0  0  0  0
   -5.8120   23.0860  -32.7210 N   0  0  0  0  0  0  0  0  0  0  0  0
   -5.4290   23.4820  -31.3840 C   0  0  0  0  0  0  0  0  0  0  0  0
   -4.3490   22.8510  -30.7370 C   0  0  0  0  0  0  0  0  0  0  0  0
   -3.9670   23.2430  -29.4510 C   0  0  0  0  0  0  0  0  0  0  0  0
   -4.6510   24.2710  -28.7990 C   0  0  0  0  0  0  0  0  0  0  0  0
   -5.7180   24.9110  -29.4340 C   0  0  0  0  0  0  0  0  0  0  0  0
   -6.1040   24.5240  -30.7210 C   0  0  0  0  0  0  0  0  0  0  0  0
   -8.6298   22.5320  -30.8126 H   0  0  0  0  0  0  0  0  0  0  0  0
   -8.2697   23.4538  -32.3117 H   0  0  0  0  0  0  0  0  0  0  0  0
   -9.5656   22.2099  -32.3117 H   0  0  0  0  0  0  0  0  0  0  0  0
   -8.6741   17.5924  -32.3092 H   0  0  0  0  0  0  0  0  0  0  0  0
   -7.1871   15.7182  -33.0235 H   0  0  0  0  0  0  0  0  0  0  0  0
   -4.8654   16.1928  -33.8048 H   0  0  0  0  0  0  0  0  0  0  0  0
   -4.0203   18.5415  -33.8722 H   0  0  0  0  0  0  0  0  0  0  0  0
   -6.5240   23.7630  -33.0740 H   0  0  0  0  0  0  0  0  0  0  0  0
   -5.0020   23.1490  -33.3820 H   0  0  0  0  0  0  0  0  0  0  0  0
   -3.8024   22.0442  -31.2472 H   0  0  0  0  0  0  0  0  0  0  0  0
   -3.1256   22.7406  -28.9514 H   0  0  0  0  0  0  0  0  0  0  0  0
   -4.3499   24.5766  -27.7861 H   0  0  0  0  0  0  0  0  0  0  0  0
   -6.2559   25.7214  -28.9203 H   0  0  0  0  0  0  0  0  0  0  0  0
   -6.9403   25.0371  -31.2183 H   0  0  0  0  0  0  0  0  0  0  0  0
  1  2  1  0
  2  3  2  0
  3  4  1  0
  4  5  2  0
  5  6  1  0
  6  7  2  0
  7  8  1  0
  8  9  2  0
  9 10  1  0
 10 11  2  0
 10 12  1  0
 12 13  1  0
 13 14  1  0
 14 15  2  0
 15 16  1  0
 16 17  2  0
 17 18  1  0
 18 19  2  0
 12  2  1  0
 19 14  1  0
  9  4  1  0
  1 20  1  0
  1 21  1  0
  1 22  1  0
  5 23  1  0
  6 24  1  0
  7 25  1  0
  8 26  1  0
 13 27  1  0
 13 28  1  0
 15 29  1  0
 16 30  1  0
 17 31  1  0
 18 32  1  0
 19 33  1  0
M  CHG  1  13   1
M  END
>  <UniqueID>  (4) 
4

>  <SMILES>  (4) 
Cc1nc2ccccc2c(=O)n1[NH2+]c1ccccc1

>  <Energy>  (4) 
47.949099398429055

>  <Genealogy>  (4) 
Cc1nc2ccccc2c(=O)n1[NH2+]c1ccccc1 (protonated)
Cc1nc2ccccc2c(=O)n1[NH2+]c1ccccc1 (3D coordinates assigned)
Cc1nc2ccccc2c(=O)n1[NH2+]c1ccccc1 (optimized conformer: 47.949099398429055 kcal/mol)

>  <smiles>  (4) 
Cc1nc2ccccc2c(=O)n1Nc1ccccc1

>  <score_type>  (4) 
oracle

>  <origin>  (4) 
adg

>  <m_score__min__energy>  (4) 
-7.0300000000000002

>  <m_primary>  (4) 
energy

$$$$
4:0
     RDKit          3D

 33 35  0  0  0  0  0  0  0  0999 V2000
   -5.4152   26.7968  -30.7892 H   0  0  0  0  0  0  0  0  0  0  0  0
   -5.1660   25.7740  -30.4700 C   0  0  0  0  0  0  0  0  0  0  0  0
   -3.8920   25.2980  -30.4810 N   0  0  0  0  0  0  0  0  0  0  0  0
   -3.8300   24.0210  -30.0460 C   0  0  0  0  0  0  0  0  0  0  0  0
   -2.7040   23.3730  -29.9760 N   0  0  0  0  0  0  0  0  0  0  0  0
   -2.4690   21.9860  -30.2710 C   0  0  0  0  0  0  0  0  0  0  0  0
   -2.6000   21.0990  -29.3850 O   0  0  0  0  0  0  0  0  0  0  0  0
   -2.0690   21.5990  -31.6310 C   0  0  0  0  0  0  0  0  0  0  0  0
   -0.8320   21.1240  -32.0370 C   0  0  0  0  0  0  0  0  0  0  0  0
    0.0441   20.9715  -31.3895 H   0  0  0  0  0  0  0  0  0  0  0  0
   -0.8870   20.8810  -33.3620 N   0  0  0  0  0  0  0  0  0  0  0  0
    0.2200   20.4300  -34.1950 C   0  0  0  0  0  0  0  0  0  0  0  0
    1.0477   20.0928  -33.5538 H   0  0  0  0  0  0  0  0  0  0  0  0
   -0.1148   19.5966  -34.8301 H   0  0  0  0  0  0  0  0  0  0  0  0
    0.5629   21.2601  -34.8301 H   0  0  0  0  0  0  0  0  0  0  0  0
   -2.0880   21.1970  -33.8220 N   0  0  0  0  0  0  0  0  0  0  0  0
   -2.3920   21.0960  -34.8170 H   0  0  0  0  0  0  0  0  0  0  0  0
   -2.8290   21.6390  -32.7870 C   0  0  0  0  0  0  0  0  0  0  0  0
   -4.1690   22.0360  -32.8650 O   0  0  0  0  0  0  0  0  0  0  0  0
   -5.2580   21.1580  -32.8010 C   0  0  0  0  0  0  0  0  0  0  0  0
   -6.4730   21.6320  -32.2910 C   0  0  0  0  0  0  0  0  0  0  0  0
   -6.5532   22.6740  -31.9477 H   0  0  0  0  0  0  0  0  0  0  0  0
   -7.5850   20.7870  -32.2160 C   0  0  0  0  0  0  0  0  0  0  0  0
   -8.5325   21.1616  -31.8013 H   0  0  0  0  0  0  0  0  0  0  0  0
   -7.4940   19.4680  -32.6670 C   0  0  0  0  0  0  0  0  0  0  0  0
   -8.3676   18.8027  -32.6017 H   0  0  0  0  0  0  0  0  0  0  0  0
   -6.2930   18.9940  -33.2010 C   0  0  0  0  0  0  0  0  0  0  0  0
   -6.2248   17.9572  -33.5620 H   0  0  0  0  0  0  0  0  0  0  0  0
   -5.1770   19.8340  -33.2780 C   0  0  0  0  0  0  0  0  0  0  0  0
   -4.0410   19.3720  -33.8570 F   0  0  0  0  0  0  0  0  0  0  0  0
   -5.3590   23.4350  -29.6320 S   0  0  0  0  0  0  0  0  0  0  0  0
   -6.1310   24.8770  -30.0270 C   0  0  0  0  0  0  0  0  0  0  0  0
   -7.2102   25.0751  -29.9484 H   0  0  0  0  0  0  0  0  0  0  0  0
  1  2  1  0
  2  3  1  0
  3  4  1  0
  4  5  2  0
  5  6  1  0
  6  7  2  0
  6  8  1  0
  8  9  2  0
  9 10  1  0
  9 11  1  0
 11 12  1  0
 12 13  1  0
 12 14  1  0
 12 15  1  0
 11 16  1  0
 16 17  1  0
 16 18  2  0
 18 19  1  0
 19 20  1  0
 20 21  2  0
 21 22  1  0
 21 23  1  0
 23 24  1  0
 23 25  2  0
 25 26  1  0
 25 27  1  0
 27 28  1  0
 27 29  2  0
 29 30  1  0
  4 31  1  0
 31 32  1  0
 32 33  1  0
 32  2  2  0
 18  8  1  0
 29 20  1  0
M  CHG  2   3  -1  16   1
M  END
>  <UniqueID>  (5) 
5

>  <SMILES>  (5) 
Cn1cc(C(=O)/N=c2/[n-]ccs2)c(Oc2ccccc2F)[nH+]1

>  <Energy>  (5) 
104.7529702440974

>  <Genealogy>  (5) 
Cn1cc(C(=O)N=c2[n-]ccs2)c(Oc2ccccc2F)[nH+]1 (protonated)
Cn1cc(C(=O)/N=c2/[n-]ccs2)c(Oc2ccccc2F)[nH+]1 (cis-trans isomerization)
Cn1cc(C(=O)/N=c2/[n-]ccs2)c(Oc2ccccc2F)[nH+]1 (3D coordinates assigned)
Cn1cc(C(=O)/N=c2/[n-]ccs2)c(Oc2ccccc2F)[nH+]1 (optimized conformer: 104.7529702440974 kcal/mol)

>  <smiles>  (5) 
Cn1cc(C(=O)N=c2[nH]ccs2)c(Oc2ccccc2F)n1

>  <score_type>  (5) 
oracle

>  <origin>  (5) 
adg

>  <m_score__min__energy>  (5) 
-8.5399999999999991

>  <m_primary>  (5) 
energy

$$$$
5:0
     RDKit          3D

 33 35  0  0  0  0  0  0  0  0999 V2000
   -6.8170   17.7200  -33.4600 C   0  0  0  0  0  0  0  0  0  0  0  0
   -6.7920   19.1110  -32.8820 C   0  0  0  0  0  0  0  0  0  0  0  0
   -5.7400   19.9770  -33.2190 C   0  0  0  0  0  0  0  0  0  0  0  0
   -5.6910   21.2730  -32.7030 C   0  0  0  0  0  0  0  0  0  0  0  0
   -6.6900   21.7280  -31.8290 C   0  0  0  0  0  0  0  0  0  0  0  0
   -6.6480   23.1040  -31.2850 C   0  0  0  0  0  0  0  0  0  0  0  0
   -7.7170   23.7690  -31.2140 O   0  0  0  0  0  0  0  0  0  0  0  0
   -5.3910   23.7390  -30.8430 C   0  0  0  0  0  0  0  0  0  0  0  0
   -5.0870   25.0950  -30.9290 C   0  0  0  0  0  0  0  0  0  0  0  0
   -3.8880   25.3250  -30.4240 O   0  0  0  0  0  0  0  0  0  0  0  0
   -3.4050   24.1810  -30.0010 C   0  0  0  0  0  0  0  0  0  0  0  0
   -2.1770   23.9590  -29.3810 C   0  0  0  0  0  0  0  0  0  0  0  0
   -1.8750   22.6490  -28.9710 C   0  0  0  0  0  0  0  0  0  0  0  0
   -2.8000   21.6030  -29.1780 C   0  0  0  0  0  0  0  0  0  0  0  0
   -4.0330   21.8560  -29.8080 C   0  0  0  0  0  0  0  0  0  0  0  0
   -4.2950   23.1630  -30.2280 C   0  0  0  0  0  0  0  0  0  0  0  0
   -7.7570   20.8760  -31.5080 C   0  0  0  0  0  0  0  0  0  0  0  0
   -7.8220   19.5710  -32.0270 C   0  0  0  0  0  0  0  0  0  0  0  0
   -8.9750   18.6800  -31.6430 C   0  0  0  0  0  0  0  0  0  0  0  0
   -6.8302   16.9836  -32.6430 H   0  0  0  0  0  0  0  0  0  0  0  0
   -7.7175   17.5965  -34.0795 H   0  0  0  0  0  0  0  0  0  0  0  0
   -5.9215   17.5642  -34.0795 H   0  0  0  0  0  0  0  0  0  0  0  0
   -4.9459   19.6307  -33.8968 H   0  0  0  0  0  0  0  0  0  0  0  0
   -4.8640   21.9419  -32.9833 H   0  0  0  0  0  0  0  0  0  0  0  0
   -5.7489   25.8632  -31.3554 H   0  0  0  0  0  0  0  0  0  0  0  0
   -1.4666   24.7828  -29.2176 H   0  0  0  0  0  0  0  0  0  0  0  0
   -0.9110   22.4373  -28.4854 H   0  0  0  0  0  0  0  0  0  0  0  0
   -2.5556   20.5836  -28.8448 H   0  0  0  0  0  0  0  0  0  0  0  0
   -4.7664   21.0513  -29.9647 H   0  0  0  0  0  0  0  0  0  0  0  0
   -8.5546   21.2341  -30.8404 H   0  0  0  0  0  0  0  0  0  0  0  0
   -9.0464   18.6248  -30.5467 H   0  0  0  0  0  0  0  0  0  0  0  0
   -9.9093   19.0931  -32.0510 H   0  0  0  0  0  0  0  0  0  0  0  0
   -8.8109   17.6717  -32.0510 H   0  0  0  0  0  0  0  0  0  0  0  0
  1  2  1  0
  2  3  2  0
  3  4  1  0
  4  5  2  0
  5  6  1  0
  6  7  2  0
  6  8  1  0
  8  9  2  0
  9 10  1  0
 10 11  1  0
 11 12  2  0
 12 13  1  0
 13 14  2  0
 14 15  1  0
 15 16  2  0
  5 17  1  0
 17 18  2  0
 18 19  1  0
 18  2  1  0
 16  8  1  0
 16 11  1  0
  1 20  1  0
  1 21  1  0
  1 22  1  0
  3 23  1  0
  4 24  1  0
  9 25  1  0
 12 26  1  0
 13 27  1  0
 14 28  1  0
 15 29  1  0
 17 30  1  0
 19 31  1  0
 19 32  1  0
 19 33  1  0
M  END
>  <UniqueID>  (6) 
6

>  <SMILES>  (6) 
Cc1ccc(C(=O)c2coc3ccccc23)cc1C

>  <Energy>  (6) 
75.39530212567776

>  <Genealogy>  (6) 
Cc1ccc(C(=O)c2coc3ccccc23)cc1C (3D coordinates assigned)
Cc1ccc(C(=O)c2coc3ccccc23)cc1C (optimized conformer: 75.39530212567776 kcal/mol)

>  <smiles>  (6) 
Cc1ccc(C(=O)c2coc3ccccc23)cc1C

>  <score_type>  (6) 
oracle

>  <origin>  (6) 
adg

>  <m_score__min__energy>  (6) 
-8.2699999999999996

>  <m_primary>  (6) 
energy

$$$$
6:0
     RDKit          3D

 44 47  0  0  0  0  0  0  0  0999 V2000
   -1.3660   21.5880  -26.5570 C   0  0  0  0  0  0  0  0  0  0  0  0
   -1.6830   22.7680  -27.4410 C   0  0  0  0  0  0  0  0  0  0  0  0
   -2.5410   22.5880  -28.5370 C   0  0  0  0  0  0  0  0  0  0  0  0
   -2.8500   23.6680  -29.3780 C   0  0  0  0  0  0  0  0  0  0  0  0
   -3.7430   23.5070  -30.4960 N   0  0  0  0  0  0  0  0  0  0  0  0
   -5.0000   24.2710  -30.5160 C   0  0  0  0  0  0  0  0  0  0  0  0
   -5.8500   23.9220  -31.7430 C   0  0  0  0  0  0  0  0  0  0  0  0
   -5.8390   22.4670  -31.9560 N   0  0  0  0  0  0  0  0  0  0  0  0
   -7.0730   21.7290  -32.0470 C   0  0  0  0  0  0  0  0  0  0  0  0
   -7.0930   20.4420  -32.6140 C   0  0  0  0  0  0  0  0  0  0  0  0
   -8.2930   19.7310  -32.7150 C   0  0  0  0  0  0  0  0  0  0  0  0
   -9.4840   20.3000  -32.2550 C   0  0  0  0  0  0  0  0  0  0  0  0
   -9.4760   21.5810  -31.6970 C   0  0  0  0  0  0  0  0  0  0  0  0
   -8.2780   22.2950  -31.5950 C   0  0  0  0  0  0  0  0  0  0  0  0
   -4.5560   21.7480  -32.0070 C   0  0  0  0  0  0  0  0  0  0  0  0
   -3.3840   22.6700  -31.6500 C   0  0  0  0  0  0  0  0  0  0  0  0
   -2.3360   24.8950  -29.1030 N   0  0  0  0  0  0  0  0  0  0  0  0
   -1.5040   25.1180  -28.0530 C   0  0  0  0  0  0  0  0  0  0  0  0
   -1.0020   26.4050  -27.8310 C   0  0  0  0  0  0  0  0  0  0  0  0
   -0.1440   26.6480  -26.7560 C   0  0  0  0  0  0  0  0  0  0  0  0
    0.2160   25.6070  -25.8990 C   0  0  0  0  0  0  0  0  0  0  0  0
   -0.2790   24.3170  -26.1080 C   0  0  0  0  0  0  0  0  0  0  0  0
   -1.1470   24.0540  -27.1890 C   0  0  0  0  0  0  0  0  0  0  0  0
   -1.4466   21.8882  -25.5018 H   0  0  0  0  0  0  0  0  0  0  0  0
   -2.0775   20.7745  -26.7622 H   0  0  0  0  0  0  0  0  0  0  0  0
   -0.3427   21.2406  -26.7622 H   0  0  0  0  0  0  0  0  0  0  0  0
   -2.9729   21.5964  -28.7375 H   0  0  0  0  0  0  0  0  0  0  0  0
   -5.5735   24.0395  -29.6063 H   0  0  0  0  0  0  0  0  0  0  0  0
   -4.7524   25.3418  -30.5609 H   0  0  0  0  0  0  0  0  0  0  0  0
   -6.8840   24.2598  -31.5796 H   0  0  0  0  0  0  0  0  0  0  0  0
   -5.4334   24.4231  -32.6292 H   0  0  0  0  0  0  0  0  0  0  0  0
   -6.1586   19.9918  -32.9804 H   0  0  0  0  0  0  0  0  0  0  0  0
   -8.2996   18.7236  -33.1566 H   0  0  0  0  0  0  0  0  0  0  0  0
  -10.4273   19.7395  -32.3323 H   0  0  0  0  0  0  0  0  0  0  0  0
  -10.4141   22.0288  -31.3372 H   0  0  0  0  0  0  0  0  0  0  0  0
   -8.2784   23.3048  -31.1588 H   0  0  0  0  0  0  0  0  0  0  0  0
   -4.5851   20.9127  -31.2919 H   0  0  0  0  0  0  0  0  0  0  0  0
   -4.4064   21.3787  -33.0323 H   0  0  0  0  0  0  0  0  0  0  0  0
   -2.5031   22.0607  -31.3993 H   0  0  0  0  0  0  0  0  0  0  0  0
   -3.1549   23.3161  -32.5102 H   0  0  0  0  0  0  0  0  0  0  0  0
   -1.2838   27.2275  -28.5048 H   0  0  0  0  0  0  0  0  0  0  0  0
    0.2485   27.6612  -26.5846 H   0  0  0  0  0  0  0  0  0  0  0  0
    0.8930   25.8030  -25.0545 H   0  0  0  0  0  0  0  0  0  0  0  0
    0.0093   23.5029  -25.4267 H   0  0  0  0  0  0  0  0  0  0  0  0
  1  2  1  0
  2  3  2  0
  3  4  1  0
  4  5  1  0
  5  6  1  0
  6  7  1  0
  7  8  1  0
  8  9  1  0
  9 10  2  0
 10 11  1  0
 11 12  2  0
 12 13  1  0
 13 14  2  0
  8 15  1  0
 15 16  1  0
  4 17  2  0
 17 18  1  0
 18 19  2  0
 19 20  1  0
 20 21  2  0
 21 22  1  0
 22 23  2  0
 23  2  1  0
 16  5  1  0
 23 18  1  0
 14  9  1  0
  1 24  1  0
  1 25  1  0
  1 26  1  0
  3 27  1  0
  6 28  1  0
  6 29  1  0
  7 30  1  0
  7 31  1  0
 10 32  1  0
 11 33  1  0
 12 34  1  0
 13 35  1  0
 14 36  1  0
 15 37  1  0
 15 38  1  0
 16 39  1  0
 16 40  1  0
 19 41  1  0
 20 42  1  0
 21 43  1  0
 22 44  1  0
M  END
>  <UniqueID>  (7) 
7

>  <SMILES>  (7) 
Cc1cc(N2CCN(c3ccccc3)CC2)nc2ccccc12

>  <Energy>  (7) 
60.06350052835067

>  <Genealogy>  (7) 
Cc1cc(N2CCN(c3ccccc3)CC2)nc2ccccc12 (3D coordinates assigned)
Cc1cc(N2CCN(c3ccccc3)CC2)nc2ccccc12 (nonaromatic ring conformer: 60.06350052835067 kcal/mol)

>  <smiles>  (7) 
Cc1cc(N2CCN(c3ccccc3)CC2)nc2ccccc12

>  <score_type>  (7) 
oracle

>  <origin>  (7) 
adg

>  <m_score__min__energy>  (7) 
-8.0099999999999998

>  <m_primary>  (7) 
energy

$$$$
7:0
     RDKit          3D

 43 44  0  0  0  0  0  0  0  0999 V2000
   -1.0019   26.5315  -28.0558 H   0  0  0  0  0  0  0  0  0  0  0  0
   -0.7480   25.6720  -27.4180 C   0  0  0  0  0  0  0  0  0  0  0  0
   -0.1750   25.8800  -26.2070 N   0  0  0  0  0  0  0  0  0  0  0  0
    0.1520   24.8540  -25.3760 C   0  0  0  0  0  0  0  0  0  0  0  0
    0.7950   25.1310  -24.1170 N   0  0  0  0  0  0  0  0  0  0  0  0
    1.8230   24.9620  -24.2140 H   0  0  0  0  0  0  0  0  0  0  0  0
    0.4350   24.4780  -23.3810 H   0  0  0  0  0  0  0  0  0  0  0  0
    0.5780   26.5260  -23.6990 C   0  0  0  0  0  0  0  0  0  0  0  0
    0.8597   27.1914  -24.5284 H   0  0  0  0  0  0  0  0  0  0  0  0
    1.1962   26.7096  -22.8079 H   0  0  0  0  0  0  0  0  0  0  0  0
   -0.8810   26.8010  -23.3210 C   0  0  0  0  0  0  0  0  0  0  0  0
   -0.9787   26.8194  -22.2255 H   0  0  0  0  0  0  0  0  0  0  0  0
   -1.1896   27.7731  -23.7330 H   0  0  0  0  0  0  0  0  0  0  0  0
   -1.5223   26.0079  -23.7330 H   0  0  0  0  0  0  0  0  0  0  0  0
   -0.1110   23.5350  -25.7710 C   0  0  0  0  0  0  0  0  0  0  0  0
    0.1458   22.6997  -25.1030 H   0  0  0  0  0  0  0  0  0  0  0  0
   -0.7050   23.2780  -27.0250 C   0  0  0  0  0  0  0  0  0  0  0  0
   -0.9390   22.0620  -27.4440 N   0  0  0  0  0  0  0  0  0  0  0  0
   -2.1070   21.2190  -27.1700 C   0  0  0  0  0  0  0  0  0  0  0  0
   -2.8455   21.7880  -26.5861 H   0  0  0  0  0  0  0  0  0  0  0  0
   -1.6540   19.9940  -26.3770 C   0  0  0  0  0  0  0  0  0  0  0  0
   -1.7320   20.2049  -25.3002 H   0  0  0  0  0  0  0  0  0  0  0  0
   -2.2943   19.1361  -26.6299 H   0  0  0  0  0  0  0  0  0  0  0  0
   -0.6096   19.7591  -26.6299 H   0  0  0  0  0  0  0  0  0  0  0  0
   -2.7650   20.7820  -28.4850 C   0  0  0  0  0  0  0  0  0  0  0  0
   -3.6629   20.1857  -28.2653 H   0  0  0  0  0  0  0  0  0  0  0  0
   -3.0489   21.6716  -29.0663 H   0  0  0  0  0  0  0  0  0  0  0  0
   -2.0551   20.1753  -29.0663 H   0  0  0  0  0  0  0  0  0  0  0  0
   -1.0200   24.3700  -27.8650 C   0  0  0  0  0  0  0  0  0  0  0  0
   -1.6350   24.1740  -29.2030 C   0  0  0  0  0  0  0  0  0  0  0  0
   -1.1870   23.2800  -29.9680 O   0  0  0  0  0  0  0  0  0  0  0  0
   -2.7760   24.9330  -29.6270 N   0  0  0  0  0  0  0  0  0  0  0  0
   -3.9980   24.4000  -30.1600 C   0  0  0  0  0  0  0  0  0  0  0  0
   -4.0510   23.1250  -30.7550 C   0  0  0  0  0  0  0  0  0  0  0  0
   -3.1390   22.5143  -30.8275 H   0  0  0  0  0  0  0  0  0  0  0  0
   -5.2620   22.6340  -31.2540 C   0  0  0  0  0  0  0  0  0  0  0  0
   -5.2983   21.6426  -31.7292 H   0  0  0  0  0  0  0  0  0  0  0  0
   -6.4250   23.4000  -31.1500 C   0  0  0  0  0  0  0  0  0  0  0  0
   -7.3744   23.0155  -31.5510 H   0  0  0  0  0  0  0  0  0  0  0  0
   -6.3830   24.6540  -30.5370 C   0  0  0  0  0  0  0  0  0  0  0  0
   -7.3016   25.2524  -30.4464 H   0  0  0  0  0  0  0  0  0  0  0  0
   -5.1740   25.1500  -30.0380 C   0  0  0  0  0  0  0  0  0  0  0  0
   -5.1471   26.1341  -29.5473 H   0  0  0  0  0  0  0  0  0  0  0  0
  1  2  1  0
  2  3  1  0
  3  4  1  0
  4  5  1  0
  5  6  1  0
  5  7  1  0
  5  8  1  0
  8  9  1  0
  8 10  1  0
  8 11  1  0
 11 12  1  0
 11 13  1  0
 11 14  1  0
  4 15  2  0
 15 16  1  0
 15 17  1  0
 17 18  2  0
 18 19  1  0
 19 20  1  0
 19 21  1  0
 21 22  1  0
 21 23  1  0
 21 24  1  0
 19 25  1  0
 25 26  1  0
 25 27  1  0
 25 28  1  0
 17 29  1  0
 29 30  1  0
 30 31  2  0
 30 32  1  0
 32 33  1  0
 33 34  2  0
 34 35  1  0
 34 36  1  0
 36 37  1  0
 36 38  2  0
 38 39  1  0
 38 40  1  0
 40 41  1  0
 40 42  2  0
 42 43  1  0
 29  2  2  0
 42 33  1  0
M  CHG  3   3  -1   5   1  32  -1
M  END
>  <UniqueID>  (8) 
8

>  <SMILES>  (8) 
CC[NH2+]c1c/c(=N\C(C)C)c(C(=O)[N-]c2ccccc2)c[n-]1

>  <Energy>  (8) 
48.21691424540908

>  <Genealogy>  (8) 
CC[NH2+]c1cc(=NC(C)C)c(C(=O)[N-]c2ccccc2)c[n-]1 (protonated)
CC[NH2+]c1c/c(=N\C(C)C)c(C(=O)[N-]c2ccccc2)c[n-]1 (cis-trans isomerization)
CC[NH2+]c1c/c(=N\C(C)C)c(C(=O)[N-]c2ccccc2)c[n-]1 (3D coordinates assigned)
CC[NH2+]c1c/c(=N\C(C)C)c(C(=O)[N-]c2ccccc2)c[n-]1 (optimized conformer: 48.21691424540908 kcal/mol)

>  <smiles>  (8) 
CCNc1cc(=NC(C)C)c(C(=O)Nc2ccccc2)c[nH]1

>  <score_type>  (8) 
oracle

>  <origin>  (8) 
adg

>  <m_score__min__energy>  (8) 
-8.5199999999999996

>  <m_primary>  (8) 
energy

$$$$
8:0
     RDKit          3D

 59 63  0  0  0  0  0  0  0  0999 V2000
   -3.9860   24.4540  -26.5400 O   0  0  0  0  0  0  0  0  0  0  0  0
   -2.9470   25.1480  -26.4190 C   0  0  0  0  0  0  0  0  0  0  0  0
   -2.7450   26.0430  -25.3040 N   0  0  0  0  0  0  0  0  0  0  0  0
   -1.5330   26.1400  -24.8570 C   0  0  0  0  0  0  0  0  0  0  0  0
   -0.5580   25.2640  -25.1770 N   0  0  0  0  0  0  0  0  0  0  0  0
    0.6970   25.3280  -24.7370 C   0  0  0  0  0  0  0  0  0  0  0  0
    1.0620   26.3590  -23.8840 C   0  0  0  0  0  0  0  0  0  0  0  0
    0.0930   27.2600  -23.5440 C   0  0  0  0  0  0  0  0  0  0  0  0
   -1.1550   27.1460  -24.0180 N   0  0  0  0  0  0  0  0  0  0  0  0
   -1.8810   25.0980  -27.3910 N   0  0  0  0  0  0  0  0  0  0  0  0
   -2.0560   24.2300  -28.4920 C   0  0  0  0  0  0  0  0  0  0  0  0
   -3.1860   24.3560  -29.2710 C   0  0  0  0  0  0  0  0  0  0  0  0
   -3.3890   23.5270  -30.3500 C   0  0  0  0  0  0  0  0  0  0  0  0
   -2.4410   22.5690  -30.6370 C   0  0  0  0  0  0  0  0  0  0  0  0
   -2.6750   21.7060  -31.7850 C   0  0  0  0  0  0  0  0  0  0  0  0
   -1.6720   21.3660  -32.6450 N   0  0  0  0  0  0  0  0  0  0  0  0
   -1.8920   20.5670  -33.7020 C   0  0  0  0  0  0  0  0  0  0  0  0
   -0.8810   20.1860  -34.6230 N   0  0  0  0  0  0  0  0  0  0  0  0
   -0.1240   21.1930  -35.3820 C   0  0  0  0  0  0  0  0  0  0  0  0
    1.3610   20.9090  -35.2930 C   0  0  0  0  0  0  0  0  0  0  0  0
    1.5550   19.6230  -35.7810 O   0  0  0  0  0  0  0  0  0  0  0  0
    0.9690   18.6330  -35.0370 C   0  0  0  0  0  0  0  0  0  0  0  0
   -0.5240   18.8080  -34.8780 C   0  0  0  0  0  0  0  0  0  0  0  0
   -3.1500   20.0840  -33.9230 N   0  0  0  0  0  0  0  0  0  0  0  0
   -4.1660   20.4010  -33.0910 C   0  0  0  0  0  0  0  0  0  0  0  0
   -5.4700   19.8910  -33.3280 N   0  0  0  0  0  0  0  0  0  0  0  0
   -6.6630   20.4820  -32.7010 C   0  0  0  0  0  0  0  0  0  0  0  0
   -7.5350   19.3880  -32.1100 C   0  0  0  0  0  0  0  0  0  0  0  0
   -7.6690   18.3130  -32.9780 O   0  0  0  0  0  0  0  0  0  0  0  0
   -6.4750   17.7430  -33.3600 C   0  0  0  0  0  0  0  0  0  0  0  0
   -5.7160   18.7570  -34.1970 C   0  0  0  0  0  0  0  0  0  0  0  0
   -3.8850   21.1940  -32.0640 N   0  0  0  0  0  0  0  0  0  0  0  0
   -1.3310   22.4600  -29.8560 C   0  0  0  0  0  0  0  0  0  0  0  0
   -1.0740   23.2690  -28.7530 C   0  0  0  0  0  0  0  0  0  0  0  0
    1.4349   24.5730  -25.0460 H   0  0  0  0  0  0  0  0  0  0  0  0
    2.0881   26.4474  -23.4977 H   0  0  0  0  0  0  0  0  0  0  0  0
    0.3415   28.0929  -22.8699 H   0  0  0  0  0  0  0  0  0  0  0  0
   -1.8860   27.8400  -23.7520 H   0  0  0  0  0  0  0  0  0  0  0  0
   -1.0280   25.6980  -27.2490 H   0  0  0  0  0  0  0  0  0  0  0  0
   -3.9324   25.1265  -29.0278 H   0  0  0  0  0  0  0  0  0  0  0  0
   -4.2909   23.6270  -30.9718 H   0  0  0  0  0  0  0  0  0  0  0  0
   -0.4368   21.1640  -36.4362 H   0  0  0  0  0  0  0  0  0  0  0  0
   -0.3249   22.1877  -34.9574 H   0  0  0  0  0  0  0  0  0  0  0  0
    1.9220   21.6334  -35.9017 H   0  0  0  0  0  0  0  0  0  0  0  0
    1.7172   20.9948  -34.2558 H   0  0  0  0  0  0  0  0  0  0  0  0
    1.1567   17.6680  -35.5305 H   0  0  0  0  0  0  0  0  0  0  0  0
    1.4110   18.6772  -34.0307 H   0  0  0  0  0  0  0  0  0  0  0  0
   -1.0213   18.4768  -35.8016 H   0  0  0  0  0  0  0  0  0  0  0  0
   -0.8480   18.2066  -34.0158 H   0  0  0  0  0  0  0  0  0  0  0  0
   -6.3512   21.1708  -31.9020 H   0  0  0  0  0  0  0  0  0  0  0  0
   -7.2374   21.0297  -33.4626 H   0  0  0  0  0  0  0  0  0  0  0  0
   -7.0785   19.0352  -31.1735 H   0  0  0  0  0  0  0  0  0  0  0  0
   -8.5352   19.8079  -31.9273 H   0  0  0  0  0  0  0  0  0  0  0  0
   -5.8860   17.4787  -32.4694 H   0  0  0  0  0  0  0  0  0  0  0  0
   -6.6581   16.8280  -33.9425 H   0  0  0  0  0  0  0  0  0  0  0  0
   -4.7643   18.3291  -34.5451 H   0  0  0  0  0  0  0  0  0  0  0  0
   -6.2881   19.0508  -35.0894 H   0  0  0  0  0  0  0  0  0  0  0  0
   -0.5928   21.6858  -30.1123 H   0  0  0  0  0  0  0  0  0  0  0  0
   -0.1701   23.1611  -28.1355 H   0  0  0  0  0  0  0  0  0  0  0  0
  1  2  2  0
  2  3  1  0
  3  4  2  3
  4  5  1  0
  5  6  2  0
  6  7  1  0
  7  8  2  0
  8  9  1  0
  2 10  1  0
 10 11  1  0
 11 12  2  0
 12 13  1  0
 13 14  2  0
 14 15  1  0
 15 16  2  0
 16 17  1  0
 17 18  1  0
 18 19  1  0
 19 20  1  0
 20 21  1  0
 21 22  1  0
 22 23  1  0
 17 24  2  0
 24 25  1  0
 25 26  1  0
 26 27  1  0
 27 28  1  0
 28 29  1  0
 29 30  1  0
 30 31  1  0
 25 32  2  0
 14 33  1  0
 33 34  2  0
  9  4  1  0
 34 11  1  0
 32 15  1  0
 23 18  1  0
 31 26  1  0
  6 35  1  0
  7 36  1  0
  8 37  1  0
  9 38  1  0
 10 39  1  0
 12 40  1  0
 13 41  1  0
 19 42  1  0
 19 43  1  0
 20 44  1  0
 20 45  1  0
 22 46  1  0
 22 47  1  0
 23 48  1  0
 23 49  1  0
 27 50  1  0
 27 51  1  0
 28 52  1  0
 28 53  1  0
 30 54  1  0
 30 55  1  0
 31 56  1  0
 31 57  1  0
 33 58  1  0
 34 59  1  0
M  END
>  <smiles>  (9) 
O=C(N=c1nccc[nH]1)Nc1ccc(-c2nc(N3CCOCC3)nc(N3CCOCC3)n2)cc1

>  <score_type>  (9) 
oracle

>  <origin>  (9) 
adg

>  <m_score__min__energy>  (9) 
-8.3000000000000007

>  <m_primary>  (9) 
energy

$$$$
9:0
     RDKit          3D

 39 42  0  0  0  0  0  0  0  0999 V2000
   -1.7952   21.7506  -28.8633 H   0  0  0  0  0  0  0  0  0  0  0  0
   -2.4750   22.1390  -29.6360 C   0  0  0  0  0  0  0  0  0  0  0  0
   -2.8260   23.4960  -29.6340 C   0  0  0  0  0  0  0  0  0  0  0  0
   -2.2370   24.3930  -28.6110 C   0  0  0  0  0  0  0  0  0  0  0  0
   -2.1970   24.1600  -27.2470 C   0  0  0  0  0  0  0  0  0  0  0  0
   -2.5635   23.2667  -26.7201 H   0  0  0  0  0  0  0  0  0  0  0  0
   -1.6060   25.2710  -26.6790 C   0  0  0  0  0  0  0  0  0  0  0  0
   -1.4029   25.4338  -25.6102 H   0  0  0  0  0  0  0  0  0  0  0  0
   -1.3200   26.1370  -27.7140 C   0  0  0  0  0  0  0  0  0  0  0  0
   -0.8419   27.1209  -27.5983 H   0  0  0  0  0  0  0  0  0  0  0  0
   -1.7110   25.6030  -28.8860 N   0  0  0  0  0  0  0  0  0  0  0  0
   -1.6100   26.0470  -29.8250 H   0  0  0  0  0  0  0  0  0  0  0  0
   -3.7110   23.9640  -30.6300 C   0  0  0  0  0  0  0  0  0  0  0  0
   -4.2050   25.3140  -30.6070 N   0  0  0  0  0  0  0  0  0  0  0  0
   -3.5310   26.0750  -30.8440 H   0  0  0  0  0  0  0  0  0  0  0  0
   -5.6170   25.7120  -30.5190 C   0  0  0  0  0  0  0  0  0  0  0  0
   -5.5540   26.4603  -31.3228 H   0  0  0  0  0  0  0  0  0  0  0  0
   -6.1810   25.6360  -29.1100 C   0  0  0  0  0  0  0  0  0  0  0  0
   -5.5439   25.2955  -28.2804 H   0  0  0  0  0  0  0  0  0  0  0  0
   -6.6829   26.3442  -28.4343 H   0  0  0  0  0  0  0  0  0  0  0  0
   -6.6460   24.6450  -30.1690 C   0  0  0  0  0  0  0  0  0  0  0  0
   -6.3442   23.5892  -30.1051 H   0  0  0  0  0  0  0  0  0  0  0  0
   -7.6216   24.3408  -30.5759 H   0  0  0  0  0  0  0  0  0  0  0  0
   -4.1970   23.0920  -31.5560 N   0  0  0  0  0  0  0  0  0  0  0  0
   -3.8540   21.7780  -31.5900 C   0  0  0  0  0  0  0  0  0  0  0  0
   -4.3630   21.0280  -32.5270 N   0  0  0  0  0  0  0  0  0  0  0  0
   -5.7490   21.0100  -32.9970 C   0  0  0  0  0  0  0  0  0  0  0  0
   -5.9586   21.9403  -33.5453 H   0  0  0  0  0  0  0  0  0  0  0  0
   -5.8918   20.1430  -33.6587 H   0  0  0  0  0  0  0  0  0  0  0  0
   -6.7130   20.8950  -31.8060 C   0  0  0  0  0  0  0  0  0  0  0  0
   -5.9427   20.6196  -31.0706 H   0  0  0  0  0  0  0  0  0  0  0  0
   -7.8860   21.8630  -31.8290 C   0  0  0  0  0  0  0  0  0  0  0  0
   -8.2673   22.2877  -30.8887 H   0  0  0  0  0  0  0  0  0  0  0  0
   -8.1033   22.8101  -32.3446 H   0  0  0  0  0  0  0  0  0  0  0  0
   -8.1070   20.3900  -32.1440 C   0  0  0  0  0  0  0  0  0  0  0  0
   -8.6481   19.7502  -31.4313 H   0  0  0  0  0  0  0  0  0  0  0  0
   -8.5503   19.8316  -32.9817 H   0  0  0  0  0  0  0  0  0  0  0  0
   -2.9800   21.2770  -30.6090 C   0  0  0  0  0  0  0  0  0  0  0  0
   -2.6970   20.2140  -30.6091 H   0  0  0  0  0  0  0  0  0  0  0  0
  1  2  1  0
  2  3  1  0
  3  4  1  0
  4  5  2  0
  5  6  1  0
  5  7  1  0
  7  8  1  0
  7  9  2  0
  9 10  1  0
  9 11  1  0
 11 12  1  0
  3 13  2  0
 13 14  1  0
 14 15  1  0
 14 16  1  0
 16 17  1  0
 16 18  1  0
 18 19  1  0
 18 20  1  0
 18 21  1  0
 21 22  1  0
 21 23  1  0
 13 24  1  0
 24 25  1  0
 25 26  2  0
 26 27  1  0
 27 28  1  0
 27 29  1  0
 27 30  1  0
 30 31  1  0
 30 32  1  0
 32 33  1  0
 32 34  1  0
 32 35  1  0
 35 36  1  0
 35 37  1  0
 25 38  1  0
 38 39  1  0
 38  2  2  0
 11  4  1  0
 21 16  1  0
 35 30  1  0
M  CHG  1  24  -1
M  END
>  <UniqueID>  (10) 
9

>  <SMILES>  (10) 
c1c[nH]c(-c2cc/c(=N\CC3CC3)[n-]c2NC2CC2)c1

>  <Energy>  (10) 
608.2255562151058

>  <Genealogy>  (10) 
c1c[nH]c(-c2ccc(=NCC3CC3)[n-]c2NC2CC2)c1 (protonated)
c1c[nH]c(-c2cc/c(=N\CC3CC3)[n-]c2NC2CC2)c1 (cis-trans isomerization)
c1c[nH]c(-c2cc/c(=N\CC3CC3)[n-]c2NC2CC2)c1 (3D coordinates assigned)
c1c[nH]c(-c2cc/c(=N\CC3CC3)[n-]c2NC2CC2)c1 (nonaromatic ring conformer: 608.2255562151058 kcal/mol)

>  <smiles>  (10) 
c1c[nH]c(-c2ccc(=NCC3CC3)[nH]c2NC2CC2)c1

>  <score_type>  (10) 
oracle

>  <origin>  (10) 
adg

>  <m_score__min__energy>  (10) 
-9

>  <m_primary>  (10) 
energy

$$$$
10:0
     RDKit          3D

 53 55  0  0  0  0  0  0  0  0999 V2000
   -1.6050   20.4440  -26.3550 C   0  0  0  0  0  0  0  0  0  0  0  0
   -1.4140   21.5180  -27.2710 O   0  0  0  0  0  0  0  0  0  0  0  0
   -1.7740   21.4800  -28.6280 C   0  0  0  0  0  0  0  0  0  0  0  0
   -2.6130   20.4750  -29.1510 C   0  0  0  0  0  0  0  0  0  0  0  0
   -2.9490   20.4710  -30.5060 C   0  0  0  0  0  0  0  0  0  0  0  0
   -2.4530   21.4630  -31.3510 C   0  0  0  0  0  0  0  0  0  0  0  0
   -1.6220   22.4650  -30.8460 C   0  0  0  0  0  0  0  0  0  0  0  0
   -1.2790   22.4830  -29.4780 C   0  0  0  0  0  0  0  0  0  0  0  0
   -0.4450   23.4680  -28.9230 O   0  0  0  0  0  0  0  0  0  0  0  0
   -0.8160   24.8200  -28.6520 C   0  0  0  0  0  0  0  0  0  0  0  0
   -2.2890   24.9130  -28.2400 C   0  0  0  0  0  0  0  0  0  0  0  0
   -3.1050   25.2900  -29.3490 O   0  0  0  0  0  0  0  0  0  0  0  0
   -4.0840   24.4630  -29.9100 C   0  0  0  0  0  0  0  0  0  0  0  0
   -4.6700   23.4670  -29.1260 C   0  0  0  0  0  0  0  0  0  0  0  0
   -5.6480   22.6420  -29.6800 C   0  0  0  0  0  0  0  0  0  0  0  0
   -6.0500   22.8180  -31.0130 C   0  0  0  0  0  0  0  0  0  0  0  0
   -7.0520   21.9640  -31.6010 N   0  0  0  0  0  0  0  0  0  0  0  0
   -8.4800   22.0850  -31.4020 C   0  0  0  0  0  0  0  0  0  0  0  0
   -9.0860   20.8510  -32.0920 C   0  0  0  0  0  0  0  0  0  0  0  0
   -8.0090   20.1440  -32.8400 N   0  0  2  0  0  0  0  0  0  0  0  0
   -7.8990   18.7080  -32.4480 C   0  0  0  0  0  0  0  0  0  0  0  0
   -9.0760   18.2450  -31.5630 C   0  0  0  0  0  0  0  0  0  0  0  0
   -6.5880   18.4550  -31.6730 C   0  0  0  0  0  0  0  0  0  0  0  0
   -6.8400   20.9090  -32.5170 C   0  0  0  0  0  0  0  0  0  0  0  0
   -5.7550   20.7810  -33.1500 O   0  0  0  0  0  0  0  0  0  0  0  0
   -5.4220   23.8230  -31.7700 C   0  0  0  0  0  0  0  0  0  0  0  0
   -4.4680   24.6110  -31.2080 N   0  0  0  0  0  0  0  0  0  0  0  0
   -1.5374   20.8242  -25.3250 H   0  0  0  0  0  0  0  0  0  0  0  0
   -2.5968   19.9965  -26.5163 H   0  0  0  0  0  0  0  0  0  0  0  0
   -0.8283   19.6820  -26.5163 H   0  0  0  0  0  0  0  0  0  0  0  0
   -3.0050   19.6898  -28.4879 H   0  0  0  0  0  0  0  0  0  0  0  0
   -3.6054   19.6848  -30.9072 H   0  0  0  0  0  0  0  0  0  0  0  0
   -2.7172   21.4562  -32.4188 H   0  0  0  0  0  0  0  0  0  0  0  0
   -1.2330   23.2440  -31.5182 H   0  0  0  0  0  0  0  0  0  0  0  0
   -0.1890   25.2084  -27.8359 H   0  0  0  0  0  0  0  0  0  0  0  0
   -0.6696   25.4137  -29.5664 H   0  0  0  0  0  0  0  0  0  0  0  0
   -2.6207   23.9335  -27.8652 H   0  0  0  0  0  0  0  0  0  0  0  0
   -2.3870   25.6777  -27.4554 H   0  0  0  0  0  0  0  0  0  0  0  0
   -4.3621   23.3342  -28.0784 H   0  0  0  0  0  0  0  0  0  0  0  0
   -6.1064   21.8499  -29.0697 H   0  0  0  0  0  0  0  0  0  0  0  0
   -8.7218   22.0853  -30.3289 H   0  0  0  0  0  0  0  0  0  0  0  0
   -8.8758   23.0245  -31.8151 H   0  0  0  0  0  0  0  0  0  0  0  0
   -9.5146   20.1773  -31.3355 H   0  0  0  0  0  0  0  0  0  0  0  0
   -9.8811   21.1624  -32.7854 H   0  0  0  0  0  0  0  0  0  0  0  0
   -8.1830   20.2270  -33.8710 H   0  0  0  0  0  0  0  0  0  0  0  0
   -7.9140   18.1331  -33.3857 H   0  0  0  0  0  0  0  0  0  0  0  0
   -8.8023   18.3527  -30.5031 H   0  0  0  0  0  0  0  0  0  0  0  0
   -9.9610   18.8620  -31.7776 H   0  0  0  0  0  0  0  0  0  0  0  0
   -9.3034   17.1904  -31.7776 H   0  0  0  0  0  0  0  0  0  0  0  0
   -6.7878   18.4936  -30.5920 H   0  0  0  0  0  0  0  0  0  0  0  0
   -6.1912   17.4637  -31.9374 H   0  0  0  0  0  0  0  0  0  0  0  0
   -5.8508   19.2275  -31.9374 H   0  0  0  0  0  0  0  0  0  0  0  0
   -5.7044   23.9721  -32.8226 H   0  0  0  0  0  0  0  0  0  0  0  0
  1  2  1  0
  2  3  1  0
  3  4  2  0
  4  5  1  0
  5  6  2  0
  6  7  1  0
  7  8  2  0
  8  9  1  0
  9 10  1  0
 10 11  1  0
 11 12  1  0
 12 13  1  0
 13 14  2  0
 14 15  1  0
 15 16  2  0
 16 17  1  0
 17 18  1  0
 18 19  1  0
 19 20  1  0
 20 21  1  0
 21 22  1  0
 21 23  1  0
 20 24  1  0
 24 25  2  0
 16 26  1  0
 26 27  2  0
  8  3  1  0
 27 13  1  0
 24 17  1  0
  1 28  1  0
  1 29  1  0
  1 30  1  0
  4 31  1  0
  5 32  1  0
  6 33  1  0
  7 34  1  0
 10 35  1  0
 10 36  1  0
 11 37  1  0
 11 38  1  0
 14 39  1  0
 15 40  1  0
 18 41  1  0
 18 42  1  0
 19 43  1  0
 19 44  1  0
 20 45  1  6
 21 46  1  0
 22 47  1  0
 22 48  1  0
 22 49  1  0
 23 50  1  0
 23 51  1  0
 23 52  1  0
 26 53  1  0
M  CHG  1  20   1
M  END
>  <UniqueID>  (11) 
10

>  <SMILES>  (11) 
COc1ccccc1OCCOc1ccc(N2CC[N@H+](C(C)C)C2=O)cn1

>  <Energy>  (11) 
67.473034946781

>  <Genealogy>  (11) 
COc1ccccc1OCCOc1ccc(N2CC[NH+](C(C)C)C2=O)cn1 (protonated)
COc1ccccc1OCCOc1ccc(N2CC[N@H+](C(C)C)C2=O)cn1 (chirality)
COc1ccccc1OCCOc1ccc(N2CC[N@H+](C(C)C)C2=O)cn1 (3D coordinates assigned)
COc1ccccc1OCCOc1ccc(N2CC[N@H+](C(C)C)C2=O)cn1 (nonaromatic ring conformer: 67.473034946781 kcal/mol)

>  <smiles>  (11) 
COc1ccccc1OCCOc1ccc(N2CCN(C(C)C)C2=O)cn1

>  <score_type>  (11) 
oracle

>  <origin>  (11) 
adg

>  <m_score__min__energy>  (11) 
-8.9199999999999999

>  <m_primary>  (11) 
energy

$$$$
11:0
     RDKit          3D

 52 54  0  0  0  0  0  0  0  0999 V2000
   -2.4806   25.0970  -29.2775 H   0  0  0  0  0  0  0  0  0  0  0  0
   -3.3460   24.5450  -29.6730 C   0  0  0  0  0  0  0  0  0  0  0  0
   -4.0900   25.0780  -30.6780 N   0  0  0  0  0  0  0  0  0  0  0  0
   -5.1690   24.4280  -31.1910 C   0  0  0  0  0  0  0  0  0  0  0  0
   -5.7503   24.8900  -32.0025 H   0  0  0  0  0  0  0  0  0  0  0  0
   -5.5460   23.1700  -30.6910 C   0  0  0  0  0  0  0  0  0  0  0  0
   -6.7260   22.4530  -31.2360 C   0  0  0  0  0  0  0  0  0  0  0  0
   -8.0150   22.9990  -31.1020 C   0  0  0  0  0  0  0  0  0  0  0  0
   -8.1492   23.9666  -30.5964 H   0  0  0  0  0  0  0  0  0  0  0  0
   -9.1250   22.3200  -31.6070 C   0  0  0  0  0  0  0  0  0  0  0  0
  -10.1308   22.7495  -31.4888 H   0  0  0  0  0  0  0  0  0  0  0  0
   -8.9630   21.0970  -32.2620 C   0  0  0  0  0  0  0  0  0  0  0  0
   -9.8438   20.5633  -32.6484 H   0  0  0  0  0  0  0  0  0  0  0  0
   -7.6870   20.5460  -32.4300 C   0  0  0  0  0  0  0  0  0  0  0  0
   -7.5500   19.2810  -33.0980 N   0  0  0  0  0  0  0  0  0  0  0  0
   -7.6180   19.2690  -34.1410 H   0  0  0  0  0  0  0  0  0  0  0  0
   -7.1900   18.0540  -32.4420 C   0  0  0  0  0  0  0  0  0  0  0  0
   -6.7830   18.0590  -31.2490 O   0  0  0  0  0  0  0  0  0  0  0  0
   -7.2040   16.7640  -33.2040 C   0  0  0  0  0  0  0  0  0  0  0  0
   -7.9349   16.8347  -34.0230 H   0  0  0  0  0  0  0  0  0  0  0  0
   -7.4808   15.9483  -32.5198 H   0  0  0  0  0  0  0  0  0  0  0  0
   -5.8180   16.4740  -33.7880 C   0  0  0  0  0  0  0  0  0  0  0  0
   -5.8257   15.4771  -34.2528 H   0  0  0  0  0  0  0  0  0  0  0  0
   -5.0804   16.5156  -32.9730 H   0  0  0  0  0  0  0  0  0  0  0  0
   -5.4340   17.5160  -34.8450 C   0  0  0  0  0  0  0  0  0  0  0  0
   -6.1697   18.3335  -34.8231 H   0  0  0  0  0  0  0  0  0  0  0  0
   -5.4239   17.0201  -35.8268 H   0  0  0  0  0  0  0  0  0  0  0  0
   -4.0360   18.0980  -34.5890 C   0  0  0  0  0  0  0  0  0  0  0  0
   -3.5244   18.2396  -35.5524 H   0  0  0  0  0  0  0  0  0  0  0  0
   -3.4776   17.3957  -33.9527 H   0  0  0  0  0  0  0  0  0  0  0  0
   -4.1170   19.3870  -33.8970 N   0  0  0  0  0  0  0  0  0  0  0  0
   -3.1380   20.0720  -33.3780 C   0  0  0  0  0  0  0  0  0  0  0  0
   -3.2570   20.4950  -32.0900 N   0  0  0  0  0  0  0  0  0  0  0  0
   -2.2900   21.2200  -31.4710 C   0  0  0  0  0  0  0  0  0  0  0  0
   -2.4278   21.5408  -30.4279 H   0  0  0  0  0  0  0  0  0  0  0  0
   -1.1220   21.5590  -32.1550 C   0  0  0  0  0  0  0  0  0  0  0  0
   -0.3408   22.1530  -31.6582 H   0  0  0  0  0  0  0  0  0  0  0  0
   -0.9530   21.1370  -33.4780 C   0  0  0  0  0  0  0  0  0  0  0  0
    0.2800   21.5320  -34.2460 C   0  0  0  0  0  0  0  0  0  0  0  0
    0.7625   20.6298  -34.6500 H   0  0  0  0  0  0  0  0  0  0  0  0
    0.9741   22.0551  -33.5718 H   0  0  0  0  0  0  0  0  0  0  0  0
   -0.0820   22.4200  -35.3450 N   0  0  0  0  0  0  0  0  0  0  0  0
   -0.8700   23.0310  -35.0280 H   0  0  0  0  0  0  0  0  0  0  0  0
   -0.4630   21.8250  -36.1160 H   0  0  0  0  0  0  0  0  0  0  0  0
   -1.9700   20.4000  -34.1000 C   0  0  0  0  0  0  0  0  0  0  0  0
   -1.8586   20.0786  -35.1461 H   0  0  0  0  0  0  0  0  0  0  0  0
   -6.5730   21.2190  -31.8950 C   0  0  0  0  0  0  0  0  0  0  0  0
   -5.5712   20.7755  -31.9930 H   0  0  0  0  0  0  0  0  0  0  0  0
   -4.7800   22.6100  -29.6540 C   0  0  0  0  0  0  0  0  0  0  0  0
   -5.0492   21.6255  -29.2438 H   0  0  0  0  0  0  0  0  0  0  0  0
   -3.6790   23.2990  -29.1430 C   0  0  0  0  0  0  0  0  0  0  0  0
   -3.0797   22.8633  -28.3300 H   0  0  0  0  0  0  0  0  0  0  0  0
  1  2  1  0
  2  3  2  0
  3  4  1  0
  4  5  1  0
  4  6  2  0
  6  7  1  0
  7  8  2  0
  8  9  1  0
  8 10  1  0
 10 11  1  0
 10 12  2  0
 12 13  1  0
 12 14  1  0
 14 15  1  0
 15 16  1  0
 15 17  1  0
 17 18  2  0
 17 19  1  0
 19 20  1  0
 19 21  1  0
 19 22  1  0
 22 23  1  0
 22 24  1  0
 22 25  1  0
 25 26  1  0
 25 27  1  0
 25 28  1  0
 28 29  1  0
 28 30  1  0
 28 31  1  0
 31 32  2  0
 32 33  1  0
 33 34  1  0
 34 35  1  0
 34 36  2  0
 36 37  1  0
 36 38  1  0
 38 39  1  0
 39 40  1  0
 39 41  1  0
 39 42  1  0
 42 43  1  0
 42 44  1  0
 38 45  2  0
 45 46  1  0
 14 47  2  0
 47 48  1  0
  6 49  1  0
 49 50  1  0
 49 51  2  0
 51 52  1  0
 51  2  1  0
 47  7  1  0
 45 32  1  0
M  CHG  1  33  -1
M  END
>  <UniqueID>  (12) 
11

>  <SMILES>  (12) 
NCc1cc[n-]/c(=N/CCCCC(=O)Nc2cccc(-c3cccnc3)c2)c1

>  <Energy>  (12) 
57.30418340400124

>  <Genealogy>  (12) 
NCc1cc[n-]c(=NCCCCC(=O)Nc2cccc(-c3cccnc3)c2)c1 (protonated)
NCc1cc[n-]/c(=N/CCCCC(=O)Nc2cccc(-c3cccnc3)c2)c1 (cis-trans isomerization)
NCc1cc[n-]/c(=N/CCCCC(=O)Nc2cccc(-c3cccnc3)c2)c1 (3D coordinates assigned)
NCc1cc[n-]/c(=N/CCCCC(=O)Nc2cccc(-c3cccnc3)c2)c1 (optimized conformer: 57.30418340400124 kcal/mol)

>  <smiles>  (12) 
NCc1cc[nH]c(=NCCCCC(=O)Nc2cccc(-c3cccnc3)c2)c1

>  <score_type>  (12) 
oracle

>  <origin>  (12) 
adg

>  <m_score__min__energy>  (12) 
-10.94

>  <m_primary>  (12) 
energy

$$$$
12:0
     RDKit          3D

 38 41  0  0  0  0  0  0  0  0999 V2000
   -4.6200   13.2010  -35.4770 N   0  0  0  0  0  0  0  0  0  0  0  0
   -4.2720   14.2280  -35.0740 C   0  0  0  0  0  0  0  0  0  0  0  0
   -3.8400   15.5060  -34.5720 C   0  0  0  0  0  0  0  0  0  0  0  0
   -2.4800   15.8690  -34.6300 C   0  0  0  0  0  0  0  0  0  0  0  0
   -2.0540   17.1080  -34.1250 C   0  0  0  0  0  0  0  0  0  0  0  0
   -0.3560   17.5540  -34.1730 Cl  0  0  0  0  0  0  0  0  0  0  0  0
   -3.0230   17.9540  -33.5810 C   0  0  0  0  0  0  0  0  0  0  0  0
   -2.8070   19.1600  -33.0190 N   0  0  0  0  0  0  0  0  0  0  0  0
   -4.0290   19.5870  -32.6260 C   0  0  0  0  0  0  0  0  0  0  0  0
   -4.2680   20.9060  -32.0020 C   0  0  0  0  0  0  0  0  0  0  0  0
   -5.1280   21.8410  -32.6010 C   0  0  0  0  0  0  0  0  0  0  0  0
   -5.3370   23.0900  -32.0110 C   0  0  0  0  0  0  0  0  0  0  0  0
   -4.6860   23.4250  -30.8140 C   0  0  0  0  0  0  0  0  0  0  0  0
   -4.8820   24.7820  -30.1970 C   0  0  0  0  0  0  0  0  0  0  0  0
   -3.8720   25.6540  -30.6230 O   0  0  0  0  0  0  0  0  0  0  0  0
   -3.7990   22.5070  -30.2330 C   0  0  0  0  0  0  0  0  0  0  0  0
   -3.5910   21.2560  -30.8240 C   0  0  0  0  0  0  0  0  0  0  0  0
   -4.9770   18.6160  -32.9580 C   0  0  0  0  0  0  0  0  0  0  0  0
   -6.4150   18.6270  -32.6300 C   0  0  0  0  0  0  0  0  0  0  0  0
   -7.3520   19.5440  -33.0890 C   0  0  0  0  0  0  0  0  0  0  0  0
   -8.6430   19.3040  -32.6070 C   0  0  0  0  0  0  0  0  0  0  0  0
   -8.7290   18.1990  -31.7680 C   0  0  0  0  0  0  0  0  0  0  0  0
   -7.1960   17.5240  -31.6270 S   0  0  0  0  0  0  0  0  0  0  0  0
   -4.3210   17.5990  -33.5550 N   0  0  0  0  0  0  0  0  0  0  0  0
   -4.7690   16.3970  -34.0120 C   0  0  0  0  0  0  0  0  0  0  0  0
   -1.7478   15.1780  -35.0733 H   0  0  0  0  0  0  0  0  0  0  0  0
   -1.8980   19.6660  -32.9260 H   0  0  0  0  0  0  0  0  0  0  0  0
   -5.6404   21.5882  -33.5410 H   0  0  0  0  0  0  0  0  0  0  0  0
   -6.0148   23.8139  -32.4869 H   0  0  0  0  0  0  0  0  0  0  0  0
   -5.8605   25.1822  -30.5010 H   0  0  0  0  0  0  0  0  0  0  0  0
   -4.8399   24.6894  -29.1017 H   0  0  0  0  0  0  0  0  0  0  0  0
   -3.9290   25.6930  -31.6140 H   0  0  0  0  0  0  0  0  0  0  0  0
   -3.2646   22.7717  -29.3087 H   0  0  0  0  0  0  0  0  0  0  0  0
   -2.8925   20.5426  -30.3623 H   0  0  0  0  0  0  0  0  0  0  0  0
   -7.1035   20.3760  -33.7643 H   0  0  0  0  0  0  0  0  0  0  0  0
   -9.5087   19.9307  -32.8674 H   0  0  0  0  0  0  0  0  0  0  0  0
   -9.6432   17.8298  -31.2802 H   0  0  0  0  0  0  0  0  0  0  0  0
   -5.8340   16.1305  -33.9439 H   0  0  0  0  0  0  0  0  0  0  0  0
  1  2  3  0
  2  3  1  0
  3  4  1  0
  4  5  2  0
  5  6  1  0
  5  7  1  0
  7  8  2  0
  8  9  1  0
  9 10  1  0
 10 11  2  0
 11 12  1  0
 12 13  2  0
 13 14  1  0
 14 15  1  0
 13 16  1  0
 16 17  2  0
  9 18  2  0
 18 19  1  0
 19 20  2  0
 20 21  1  0
 21 22  2  0
 22 23  1  0
 18 24  1  0
 24 25  1  0
 25  3  2  0
 24  7  1  0
 17 10  1  0
 23 19  1  0
  4 26  1  0
  8 27  1  0
 11 28  1  0
 12 29  1  0
 14 30  1  0
 14 31  1  0
 15 32  1  0
 16 33  1  0
 17 34  1  0
 20 35  1  0
 21 36  1  0
 22 37  1  0
 25 38  1  0
M  CHG  1   8   1
M  END
>  <UniqueID>  (13) 
12

>  <SMILES>  (13) 
N#Cc1cc(Cl)c2[nH+]c(-c3ccc(CO)cc3)c(-c3cccs3)n2c1

>  <Energy>  (13) 
111.8418211899941

>  <Genealogy>  (13) 
N#Cc1cc(Cl)c2[nH+]c(-c3ccc(CO)cc3)c(-c3cccs3)n2c1 (protonated)
N#Cc1cc(Cl)c2[nH+]c(-c3ccc(CO)cc3)c(-c3cccs3)n2c1 (3D coordinates assigned)
N#Cc1cc(Cl)c2[nH+]c(-c3ccc(CO)cc3)c(-c3cccs3)n2c1 (optimized conformer: 111.8418211899941 kcal/mol)

>  <smiles>  (13) 
N#Cc1cc(Cl)c2nc(-c3ccc(CO)cc3)c(-c3cccs3)n2c1

>  <score_type>  (13) 
oracle

>  <origin>  (13) 
adg

>  <m_score__min__energy>  (13) 
-8.3699999999999992

>  <m_primary>  (13) 
energy

$$$$
13:0
     RDKit          3D

 40 43  0  0  0  0  0  0  0  0999 V2000
   -5.7370   18.8820  -34.9840 C   0  0  0  0  0  0  0  0  0  0  0  0
   -5.5820   17.9150  -33.8410 C   0  0  0  0  0  0  0  0  0  0  0  0
   -5.0690   16.6300  -34.0840 C   0  0  0  0  0  0  0  0  0  0  0  0
   -4.9230   15.7150  -33.0380 C   0  0  0  0  0  0  0  0  0  0  0  0
   -5.2920   16.0700  -31.7400 C   0  0  0  0  0  0  0  0  0  0  0  0
   -5.8150   17.3390  -31.4830 C   0  0  0  0  0  0  0  0  0  0  0  0
   -5.9730   18.2650  -32.5260 C   0  0  0  0  0  0  0  0  0  0  0  0
   -6.5450   19.5960  -32.2180 C   0  0  0  0  0  0  0  0  0  0  0  0
   -7.9220   19.7720  -32.3790 C   0  0  0  0  0  0  0  0  0  0  0  0
   -8.5180   20.9980  -32.0950 C   0  0  0  0  0  0  0  0  0  0  0  0
  -10.2480   21.1990  -32.3100 Cl  0  0  0  0  0  0  0  0  0  0  0  0
   -7.7450   22.0660  -31.6410 C   0  0  0  0  0  0  0  0  0  0  0  0
   -6.3510   21.9280  -31.4610 C   0  0  0  0  0  0  0  0  0  0  0  0
   -5.5470   23.0060  -30.9910 C   0  0  0  0  0  0  0  0  0  0  0  0
   -4.1450   22.8440  -30.9150 C   0  0  0  0  0  0  0  0  0  0  0  0
   -3.5660   21.6100  -31.2230 C   0  0  0  0  0  0  0  0  0  0  0  0
   -4.3480   20.5420  -31.6450 C   0  0  0  0  0  0  0  0  0  0  0  0
   -5.7420   20.6780  -31.7730 C   0  0  0  0  0  0  0  0  0  0  0  0
   -3.2500   23.9590  -30.4240 C   0  0  0  0  0  0  0  0  0  0  0  0
   -3.8750   25.2780  -30.5710 N   0  0  0  0  0  0  0  0  0  0  0  0
   -5.1880   25.2900  -29.9230 C   0  0  0  0  0  0  0  0  0  0  0  0
   -6.1650   24.3480  -30.6390 C   0  0  0  0  0  0  0  0  0  0  0  0
   -5.8994   19.8952  -34.5877 H   0  0  0  0  0  0  0  0  0  0  0  0
   -4.8256   18.8709  -35.5998 H   0  0  0  0  0  0  0  0  0  0  0  0
   -6.5993   18.5866  -35.5998 H   0  0  0  0  0  0  0  0  0  0  0  0
   -4.7800   16.3419  -35.1055 H   0  0  0  0  0  0  0  0  0  0  0  0
   -4.5163   14.7128  -33.2383 H   0  0  0  0  0  0  0  0  0  0  0  0
   -5.1707   15.3492  -30.9180 H   0  0  0  0  0  0  0  0  0  0  0  0
   -6.1046   17.6143  -30.4581 H   0  0  0  0  0  0  0  0  0  0  0  0
   -8.5407   18.9344  -32.7333 H   0  0  0  0  0  0  0  0  0  0  0  0
   -8.2276   23.0294  -31.4200 H   0  0  0  0  0  0  0  0  0  0  0  0
   -2.4774   21.4826  -31.1301 H   0  0  0  0  0  0  0  0  0  0  0  0
   -3.8715   19.5792  -31.8817 H   0  0  0  0  0  0  0  0  0  0  0  0
   -3.0252   23.7903  -29.3605 H   0  0  0  0  0  0  0  0  0  0  0  0
   -2.3344   23.9498  -31.0336 H   0  0  0  0  0  0  0  0  0  0  0  0
   -3.9910   25.4890  -31.5900 H   0  0  0  0  0  0  0  0  0  0  0  0
   -5.0761   24.9651  -28.8780 H   0  0  0  0  0  0  0  0  0  0  0  0
   -5.5912   26.3124  -29.9685 H   0  0  0  0  0  0  0  0  0  0  0  0
   -7.0293   24.1739  -29.9813 H   0  0  0  0  0  0  0  0  0  0  0  0
   -6.4570   24.8327  -31.5823 H   0  0  0  0  0  0  0  0  0  0  0  0
  1  2  1  0
  2  3  2  0
  3  4  1  0
  4  5  2  0
  5  6  1  0
  6  7  2  0
  7  8  1  0
  8  9  2  0
  9 10  1  0
 10 11  1  0
 10 12  2  0
 12 13  1  0
 13 14  2  0
 14 15  1  0
 15 16  2  0
 16 17  1  0
 17 18  2  0
 15 19  1  0
 19 20  1  0
 20 21  1  0
 21 22  1  0
  7  2  1  0
 18  8  1  0
 18 13  1  0
 22 14  1  0
  1 23  1  0
  1 24  1  0
  1 25  1  0
  3 26  1  0
  4 27  1  0
  5 28  1  0
  6 29  1  0
  9 30  1  0
 12 31  1  0
 16 32  1  0
 17 33  1  0
 19 34  1  0
 19 35  1  0
 20 36  1  0
 21 37  1  0
 21 38  1  0
 22 39  1  0
 22 40  1  0
M  END
>  <UniqueID>  (14) 
13

>  <SMILES>  (14) 
Cc1ccccc1-c1cc(Cl)cc2c3c(ccc12)CNCC3

>  <Energy>  (14) 
60.783185400226195

>  <Genealogy>  (14) 
Cc1ccccc1-c1cc(Cl)cc2c3c(ccc12)CNCC3 (3D coordinates assigned)
Cc1ccccc1-c1cc(Cl)cc2c3c(ccc12)CNCC3 (nonaromatic ring conformer: 60.783185400226195 kcal/mol)

>  <smiles>  (14) 
Cc1ccccc1-c1cc(Cl)cc2c3c(ccc12)CNCC3

>  <score_type>  (14) 
oracle

>  <origin>  (14) 
adg

>  <m_score__min__energy>  (14) 
-9.6699999999999999

>  <m_primary>  (14) 
energy

$$$$
14:0
     RDKit          3D

 55 60  0  0  0  0  0  0  0  0999 V2000
   -5.4700   18.0920  -32.1440 C   0  0  0  0  0  0  0  0  0  0  0  0
   -6.4930   17.8090  -31.2320 C   0  0  0  0  0  0  0  0  0  0  0  0
   -7.7870   18.3020  -31.4540 C   0  0  0  0  0  0  0  0  0  0  0  0
   -8.0590   19.0870  -32.5860 C   0  0  0  0  0  0  0  0  0  0  0  0
   -9.4460   19.6400  -32.8050 C   0  0  0  0  0  0  0  0  0  0  0  0
   -9.5390   20.9820  -32.3320 O   0  0  0  0  0  0  0  0  0  0  0  0
   -8.5010   21.6870  -31.7030 C   0  0  0  0  0  0  0  0  0  0  0  0
   -8.6260   21.9870  -30.3430 C   0  0  0  0  0  0  0  0  0  0  0  0
   -7.5830   22.6180  -29.6580 C   0  0  0  0  0  0  0  0  0  0  0  0
   -6.4060   22.9640  -30.3290 C   0  0  0  0  0  0  0  0  0  0  0  0
   -6.2800   22.7010  -31.7010 C   0  0  0  0  0  0  0  0  0  0  0  0
   -4.9910   22.9600  -32.4240 C   0  0  0  0  0  0  0  0  0  0  0  0
   -4.3680   21.7030  -32.6780 O   0  0  0  0  0  0  0  0  0  0  0  0
   -3.0170   21.4180  -32.4480 C   0  0  0  0  0  0  0  0  0  0  0  0
   -2.2840   20.4640  -33.1940 C   0  0  0  0  0  0  0  0  0  0  0  0
   -0.9260   20.2120  -32.8970 C   0  0  0  0  0  0  0  0  0  0  0  0
   -0.2810   20.9080  -31.8580 C   0  0  0  0  0  0  0  0  0  0  0  0
   -1.0240   21.8430  -31.1430 C   0  0  0  0  0  0  0  0  0  0  0  0
   -0.6200   22.5990  -30.1520 O   0  0  0  0  0  0  0  0  0  0  0  0
   -1.6470   23.3400  -29.7760 C   0  0  0  0  0  0  0  0  0  0  0  0
   -1.5810   24.3420  -28.7060 C   0  0  0  0  0  0  0  0  0  0  0  0
   -1.2170   25.6330  -28.9240 N   0  0  0  0  0  0  0  0  0  0  0  0
   -1.2140   26.1380  -27.6830 C   0  0  0  0  0  0  0  0  0  0  0  0
   -0.8460   27.3930  -27.3180 N   0  0  0  0  0  0  0  0  0  0  0  0
   -0.8220   27.7180  -25.9900 C   0  0  0  0  0  0  0  0  0  0  0  0
   -1.1660   26.7530  -25.0140 C   0  0  0  0  0  0  0  0  0  0  0  0
   -1.5120   25.4450  -25.4130 C   0  0  0  0  0  0  0  0  0  0  0  0
   -1.5240   25.1780  -26.7750 C   0  0  0  0  0  0  0  0  0  0  0  0
   -1.7540   24.0100  -27.3930 N   0  0  0  0  0  0  0  0  0  0  0  0
   -2.7700   23.0530  -30.5480 C   0  0  0  0  0  0  0  0  0  0  0  0
   -2.3410   22.0860  -31.4280 C   0  0  0  0  0  0  0  0  0  0  0  0
   -7.3330   22.0770  -32.3850 C   0  0  0  0  0  0  0  0  0  0  0  0
   -7.0300   19.3540  -33.5060 C   0  0  0  0  0  0  0  0  0  0  0  0
   -5.7380   18.8630  -33.2810 C   0  0  0  0  0  0  0  0  0  0  0  0
   -4.4544   17.7082  -31.9671 H   0  0  0  0  0  0  0  0  0  0  0  0
   -6.2821   17.1997  -30.3408 H   0  0  0  0  0  0  0  0  0  0  0  0
   -8.5912   18.0731  -30.7393 H   0  0  0  0  0  0  0  0  0  0  0  0
   -9.6759   19.6204  -33.8805 H   0  0  0  0  0  0  0  0  0  0  0  0
  -10.1637   19.0202  -32.2475 H   0  0  0  0  0  0  0  0  0  0  0  0
   -9.5510   21.7249  -29.8085 H   0  0  0  0  0  0  0  0  0  0  0  0
   -7.6889   22.8432  -28.5865 H   0  0  0  0  0  0  0  0  0  0  0  0
   -5.5801   23.4418  -29.7817 H   0  0  0  0  0  0  0  0  0  0  0  0
   -5.1932   23.4753  -33.3746 H   0  0  0  0  0  0  0  0  0  0  0  0
   -4.3325   23.5967  -31.8149 H   0  0  0  0  0  0  0  0  0  0  0  0
   -2.7753   19.9150  -34.0108 H   0  0  0  0  0  0  0  0  0  0  0  0
   -0.3686   19.4660  -33.4825 H   0  0  0  0  0  0  0  0  0  0  0  0
    0.7759   20.7193  -31.6186 H   0  0  0  0  0  0  0  0  0  0  0  0
   -0.5450   28.0900  -28.0360 H   0  0  0  0  0  0  0  0  0  0  0  0
   -0.5342   28.7332  -25.6793 H   0  0  0  0  0  0  0  0  0  0  0  0
   -1.1636   27.0220  -23.9474 H   0  0  0  0  0  0  0  0  0  0  0  0
   -1.7620   24.6685  -24.6751 H   0  0  0  0  0  0  0  0  0  0  0  0
   -3.7729   23.4985  -30.4716 H   0  0  0  0  0  0  0  0  0  0  0  0
   -7.2455   21.8903  -33.4655 H   0  0  0  0  0  0  0  0  0  0  0  0
   -7.2405   19.9507  -34.4058 H   0  0  0  0  0  0  0  0  0  0  0  0
   -4.9335   19.0833  -33.9981 H   0  0  0  0  0  0  0  0  0  0  0  0
  1  2  2  0
  2  3  1  0
  3  4  2  0
  4  5  1  0
  5  6  1  0
  6  7  1  0
  7  8  2  0
  8  9  1  0
  9 10  2  0
 10 11  1  0
 11 12  1  0
 12 13  1  0
 13 14  1  0
 14 15  2  0
 15 16  1  0
 16 17  2  0
 17 18  1  0
 18 19  1  0
 19 20  1  0
 20 21  1  0
 21 22  2  0
 22 23  1  0
 23 24  2  0
 24 25  1  0
 25 26  2  0
 26 27  1  0
 27 28  2  0
 28 29  1  0
 20 30  2  0
 30 31  1  0
 11 32  2  0
  4 33  1  0
 33 34  2  0
 34  1  1  0
 32  7  1  0
 31 14  1  0
 31 18  2  0
 29 21  1  0
 28 23  1  0
  1 35  1  0
  2 36  1  0
  3 37  1  0
  5 38  1  0
  5 39  1  0
  8 40  1  0
  9 41  1  0
 10 42  1  0
 12 43  1  0
 12 44  1  0
 15 45  1  0
 16 46  1  0
 17 47  1  0
 24 48  1  0
 25 49  1  0
 26 50  1  0
 27 51  1  0
 30 52  1  0
 32 53  1  0
 33 54  1  0
 34 55  1  0
M  CHG  2  24   1  29  -1
M  END
>  <UniqueID>  (15) 
14

>  <SMILES>  (15) 
c1ccc(COc2cccc(COc3cccc4oc(-c5nc6[nH+]cccc6[n-]5)cc34)c2)cc1

>  <Energy>  (15) 
129.1803421438664

>  <Genealogy>  (15) 
c1ccc(COc2cccc(COc3cccc4oc(-c5nc6[nH+]cccc6[n-]5)cc34)c2)cc1 (protonated)
c1ccc(COc2cccc(COc3cccc4oc(-c5nc6[nH+]cccc6[n-]5)cc34)c2)cc1 (3D coordinates assigned)
c1ccc(COc2cccc(COc3cccc4oc(-c5nc6[nH+]cccc6[n-]5)cc34)c2)cc1 (optimized conformer: 129.1803421438664 kcal/mol)

>  <smiles>  (15) 
c1ccc(COc2cccc(COc3cccc4oc(-c5nc6ncccc6[nH]5)cc34)c2)cc1

>  <score_type>  (15) 
oracle

>  <origin>  (15) 
adg

>  <m_score__min__energy>  (15) 
-10.529999999999999

>  <m_primary>  (15) 
energy

$$$$
15:0
     RDKit          3D

 34 36  0  0  0  0  0  0  0  0999 V2000
   -6.4780   25.6200  -29.7090 C   0  0  0  0  0  0  0  0  0  0  0  0
   -5.5790   24.7110  -30.4950 C   0  0  0  0  0  0  0  0  0  0  0  0
   -4.4550   25.1520  -30.8570 O   0  0  0  0  0  0  0  0  0  0  0  0
   -5.9830   23.3670  -30.8530 N   0  0  0  0  0  0  0  0  0  0  0  0
   -5.0290   22.2480  -30.6680 C   0  0  0  0  0  0  0  0  0  0  0  0
   -5.1280   21.2250  -31.8110 C   0  0  0  0  0  0  0  0  0  0  0  0
   -6.5640   20.8730  -32.0420 C   0  0  0  0  0  0  0  0  0  0  0  0
   -7.5840   21.7490  -31.7740 C   0  0  0  0  0  0  0  0  0  0  0  0
   -8.7150   21.1960  -32.3400 C   0  0  0  0  0  0  0  0  0  0  0  0
   -8.3590   20.0410  -32.9390 N   0  0  0  0  0  0  0  0  0  0  0  0
   -7.0580   19.8440  -32.7640 N   0  0  0  0  0  0  0  0  0  0  0  0
   -6.3320   18.7450  -33.3350 C   0  0  0  0  0  0  0  0  0  0  0  0
   -5.7320   18.8640  -34.5990 C   0  0  0  0  0  0  0  0  0  0  0  0
   -5.0110   17.7960  -35.1410 C   0  0  0  0  0  0  0  0  0  0  0  0
   -4.8730   16.6070  -34.4190 C   0  0  0  0  0  0  0  0  0  0  0  0
   -5.4510   16.4870  -33.1510 C   0  0  0  0  0  0  0  0  0  0  0  0
   -5.3110   15.3370  -32.4480 F   0  0  0  0  0  0  0  0  0  0  0  0
   -6.1730   17.5550  -32.6080 C   0  0  0  0  0  0  0  0  0  0  0  0
   -7.4100   23.0800  -31.1160 C   0  0  0  0  0  0  0  0  0  0  0  0
   -6.3157   25.4559  -28.6335 H   0  0  0  0  0  0  0  0  0  0  0  0
   -6.2500   26.6667  -29.9587 H   0  0  0  0  0  0  0  0  0  0  0  0
   -7.5272   25.4036  -29.9587 H   0  0  0  0  0  0  0  0  0  0  0  0
   -4.0063   22.6520  -30.6382 H   0  0  0  0  0  0  0  0  0  0  0  0
   -5.2771   21.7366  -29.7262 H   0  0  0  0  0  0  0  0  0  0  0  0
   -4.7045   21.6586  -32.7289 H   0  0  0  0  0  0  0  0  0  0  0  0
   -4.5669   20.3182  -31.5412 H   0  0  0  0  0  0  0  0  0  0  0  0
   -9.7285   21.6223  -32.3082 H   0  0  0  0  0  0  0  0  0  0  0  0
   -8.9950   19.4080  -33.4730 H   0  0  0  0  0  0  0  0  0  0  0  0
   -5.8298   19.8020  -35.1653 H   0  0  0  0  0  0  0  0  0  0  0  0
   -4.5520   17.8913  -36.1361 H   0  0  0  0  0  0  0  0  0  0  0  0
   -4.3096   15.7654  -34.8483 H   0  0  0  0  0  0  0  0  0  0  0  0
   -6.6183   17.4617  -31.6065 H   0  0  0  0  0  0  0  0  0  0  0  0
   -7.8172   23.8613  -31.7746 H   0  0  0  0  0  0  0  0  0  0  0  0
   -7.9440   23.0644  -30.1544 H   0  0  0  0  0  0  0  0  0  0  0  0
  1  2  1  0
  2  3  2  0
  2  4  1  0
  4  5  1  0
  5  6  1  0
  6  7  1  0
  7  8  2  0
  8  9  1  0
  9 10  2  0
 10 11  1  0
 11 12  1  0
 12 13  2  0
 13 14  1  0
 14 15  2  0
 15 16  1  0
 16 17  1  0
 16 18  2  0
  8 19  1  0
 19  4  1  0
 11  7  1  0
 18 12  1  0
  1 20  1  0
  1 21  1  0
  1 22  1  0
  5 23  1  0
  5 24  1  0
  6 25  1  0
  6 26  1  0
  9 27  1  0
 10 28  1  0
 13 29  1  0
 14 30  1  0
 15 31  1  0
 18 32  1  0
 19 33  1  0
 19 34  1  0
M  CHG  1  10   1
M  END
>  <UniqueID>  (16) 
15

>  <SMILES>  (16) 
CC(=O)N1CCc2c(c[nH+]n2-c2cccc(F)c2)C1

>  <Energy>  (16) 
75.08990621007351

>  <Genealogy>  (16) 
CC(=O)N1CCc2c(c[nH+]n2-c2cccc(F)c2)C1 (protonated)
CC(=O)N1CCc2c(c[nH+]n2-c2cccc(F)c2)C1 (3D coordinates assigned)
CC(=O)N1CCc2c(c[nH+]n2-c2cccc(F)c2)C1 (nonaromatic ring conformer: 75.08990621007351 kcal/mol)

>  <smiles>  (16) 
CC(=O)N1CCc2c(cnn2-c2cccc(F)c2)C1

>  <score_type>  (16) 
oracle

>  <origin>  (16) 
adg

>  <m_score__min__energy>  (16) 
-7.7400000000000002

>  <m_primary>  (16) 
energy

$$$$
16:0
     RDKit          3D

 47 49  0  0  0  0  0  0  0  0999 V2000
   -2.8320   22.3080  -32.1460 H   0  0  0  0  0  0  0  0  0  0  0  0
   -3.6060   21.8370  -32.6510 N   0  0  0  0  0  0  0  0  0  0  0  0
   -4.8740   21.8220  -32.3510 C   0  0  0  0  0  0  0  0  0  0  0  0
   -5.3750   22.9290  -31.6320 C   0  0  0  0  0  0  0  0  0  0  0  0
   -4.5260   24.0090  -31.1840 N   0  0  0  0  0  0  0  0  0  0  0  0
   -3.3410   23.8060  -30.8460 O   0  0  0  0  0  0  0  0  0  0  0  0
   -4.9850   25.3060  -31.2170 O   0  0  0  0  0  0  0  0  0  0  0  0
   -6.7370   23.0140  -31.3970 C   0  0  0  0  0  0  0  0  0  0  0  0
   -7.1461   23.9009  -30.8910 H   0  0  0  0  0  0  0  0  0  0  0  0
   -7.5920   21.9960  -31.7910 C   0  0  0  0  0  0  0  0  0  0  0  0
   -8.9690   22.1760  -31.6020 C   0  0  0  0  0  0  0  0  0  0  0  0
   -9.3422   23.1108  -31.1584 H   0  0  0  0  0  0  0  0  0  0  0  0
   -9.8620   21.1850  -31.9700 C   0  0  0  0  0  0  0  0  0  0  0  0
  -10.9449   21.3636  -31.8965 H   0  0  0  0  0  0  0  0  0  0  0  0
   -9.3890   19.9680  -32.4310 C   0  0  0  0  0  0  0  0  0  0  0  0
  -10.1059   19.1779  -32.6988 H   0  0  0  0  0  0  0  0  0  0  0  0
   -8.0090   19.7210  -32.5640 C   0  0  0  0  0  0  0  0  0  0  0  0
   -7.6540   18.2650  -32.7370 C   0  0  0  0  0  0  0  0  0  0  0  0
   -7.5395   17.7956  -31.7488 H   0  0  0  0  0  0  0  0  0  0  0  0
   -8.4544   17.7561  -33.2942 H   0  0  0  0  0  0  0  0  0  0  0  0
   -6.7092   18.1816  -33.2942 H   0  0  0  0  0  0  0  0  0  0  0  0
   -7.0680   20.8060  -32.3760 C   0  0  0  0  0  0  0  0  0  0  0  0
   -5.7160   20.7810  -32.7440 N   0  0  0  0  0  0  0  0  0  0  0  0
   -5.1930   19.7770  -33.7070 C   0  0  0  0  0  0  0  0  0  0  0  0
   -6.0184   19.4475  -34.3552 H   0  0  0  0  0  0  0  0  0  0  0  0
   -4.3896   20.2571  -34.2849 H   0  0  0  0  0  0  0  0  0  0  0  0
   -4.5880   18.5360  -33.0050 C   0  0  0  0  0  0  0  0  0  0  0  0
   -4.7210   18.6400  -31.9180 H   0  0  0  0  0  0  0  0  0  0  0  0
   -5.1065   17.6410  -33.3793 H   0  0  0  0  0  0  0  0  0  0  0  0
   -3.0790   18.3880  -33.3150 C   0  0  0  0  0  0  0  0  0  0  0  0
   -2.6878   17.5527  -32.7156 H   0  0  0  0  0  0  0  0  0  0  0  0
   -3.0030   18.2206  -34.3995 H   0  0  0  0  0  0  0  0  0  0  0  0
   -2.2570   19.5900  -33.0220 N   0  0  0  0  0  0  0  0  0  0  0  0
   -2.9410   20.3420  -32.7630 H   0  0  0  0  0  0  0  0  0  0  0  0
   -1.5180   20.0760  -34.2120 C   0  0  0  0  0  0  0  0  0  0  0  0
   -1.0103   19.2256  -34.6905 H   0  0  0  0  0  0  0  0  0  0  0  0
   -2.2382   20.5382  -34.9032 H   0  0  0  0  0  0  0  0  0  0  0  0
   -0.4660   21.1360  -33.8240 C   0  0  0  0  0  0  0  0  0  0  0  0
    0.5226   20.6574  -33.7641 H   0  0  0  0  0  0  0  0  0  0  0  0
   -0.4641   21.9263  -34.5892 H   0  0  0  0  0  0  0  0  0  0  0  0
   -0.7750   21.7180  -32.5740 O   0  0  0  0  0  0  0  0  0  0  0  0
   -0.6420   20.7550  -31.5410 C   0  0  0  0  0  0  0  0  0  0  0  0
    0.4282   20.5575  -31.3805 H   0  0  0  0  0  0  0  0  0  0  0  0
   -1.1208   21.1674  -30.6407 H   0  0  0  0  0  0  0  0  0  0  0  0
   -1.3470   19.4180  -31.8720 C   0  0  0  0  0  0  0  0  0  0  0  0
   -0.5894   18.6596  -32.1189 H   0  0  0  0  0  0  0  0  0  0  0  0
   -1.9317   19.0956  -30.9978 H   0  0  0  0  0  0  0  0  0  0  0  0
  1  2  1  0
  2  3  2  0
  3  4  1  0
  4  5  1  0
  5  6  2  0
  5  7  1  0
  4  8  2  0
  8  9  1  0
  8 10  1  0
 10 11  2  0
 11 12  1  0
 11 13  1  0
 13 14  1  0
 13 15  2  0
 15 16  1  0
 15 17  1  0
 17 18  1  0
 18 19  1  0
 18 20  1  0
 18 21  1  0
 17 22  2  0
 22 23  1  0
 23 24  1  0
 24 25  1  0
 24 26  1  0
 24 27  1  0
 27 28  1  0
 27 29  1  0
 27 30  1  0
 30 31  1  0
 30 32  1  0
 30 33  1  0
 33 34  1  0
 33 35  1  0
 35 36  1  0
 35 37  1  0
 35 38  1  0
 38 39  1  0
 38 40  1  0
 38 41  1  0
 41 42  1  0
 42 43  1  0
 42 44  1  0
 42 45  1  0
 45 46  1  0
 45 47  1  0
 23  3  1  0
 45 33  1  0
 22 10  1  0
M  CHG  3   5   1   7  -1  33   1
M  END
>  <UniqueID>  (17) 
16

>  <SMILES>  (17) 
[H]/N=c1/c([N+](=O)[O-])cc2cccc(C)c2n1CCC[NH+]1CCOCC1

>  <Energy>  (17) 
96.1033105943521

>  <Genealogy>  (17) 
Cc1cccc2cc([N+](=O)[O-])c(=N)n(CCC[NH+]3CCOCC3)c12 (protonated)
[H]/N=c1/c([N+](=O)[O-])cc2cccc(C)c2n1CCC[NH+]1CCOCC1 (cis-trans isomerization)
[H]/N=c1/c([N+](=O)[O-])cc2cccc(C)c2n1CCC[NH+]1CCOCC1 (3D coordinates assigned)
[H]/N=c1/c([N+](=O)[O-])cc2cccc(C)c2n1CCC[NH+]1CCOCC1 (nonaromatic ring conformer: 96.1033105943521 kcal/mol)

>  <smiles>  (17) 
Cc1cccc2cc([N+](=O)[O-])c(=N)n(CCCN3CCOCC3)c12

>  <score_type>  (17) 
oracle

>  <origin>  (17) 
adg

>  <m_score__min__energy>  (17) 
-7.54

>  <m_primary>  (17) 
energy

$$$$
17:0
     RDKit          3D

 27 28  0  0  0  0  0  0  0  0999 V2000
   -6.5040   25.5520  -29.4830 C   0  0  0  0  0  0  0  0  0  0  0  0
   -4.9650   24.7770  -29.9210 S   0  0  0  0  0  0  0  0  0  0  0  0
   -4.1460   24.5480  -28.6810 O   0  0  0  0  0  0  0  0  0  0  0  0
   -4.1940   25.6740  -30.8480 O   0  0  0  0  0  0  0  0  0  0  0  0
   -5.2900   23.2390  -30.7120 C   0  0  0  0  0  0  0  0  0  0  0  0
   -4.2470   22.5110  -31.2950 C   0  0  0  0  0  0  0  0  0  0  0  0
   -4.5020   21.2820  -31.9100 C   0  0  0  0  0  0  0  0  0  0  0  0
   -5.8070   20.7600  -31.9540 C   0  0  0  0  0  0  0  0  0  0  0  0
   -6.0570   19.4490  -32.6060 C   0  0  0  0  0  0  0  0  0  0  0  0
   -6.2000   18.2640  -31.8650 C   0  0  0  0  0  0  0  0  0  0  0  0
   -6.4370   17.0650  -32.5320 C   0  0  0  0  0  0  0  0  0  0  0  0
   -6.5350   17.0660  -33.9220 C   0  0  0  0  0  0  0  0  0  0  0  0
   -6.7490   15.9920  -34.5430 O   0  0  0  0  0  0  0  0  0  0  0  0
   -6.3990   18.2370  -34.6020 N   0  0  0  0  0  0  0  0  0  0  0  0
   -6.1710   19.3850  -33.9620 N   0  0  0  0  0  0  0  0  0  0  0  0
   -6.8490   21.4890  -31.3480 C   0  0  0  0  0  0  0  0  0  0  0  0
   -6.5910   22.7180  -30.7330 C   0  0  0  0  0  0  0  0  0  0  0  0
   -6.5932   25.5969  -28.3875 H   0  0  0  0  0  0  0  0  0  0  0  0
   -6.5315   26.5715  -29.8952 H   0  0  0  0  0  0  0  0  0  0  0  0
   -7.3394   24.9671  -29.8952 H   0  0  0  0  0  0  0  0  0  0  0  0
   -3.2214   22.9078  -31.2692 H   0  0  0  0  0  0  0  0  0  0  0  0
   -3.6740   20.7178  -32.3639 H   0  0  0  0  0  0  0  0  0  0  0  0
   -6.1254   18.2832  -30.7677 H   0  0  0  0  0  0  0  0  0  0  0  0
   -6.5457   16.1270  -31.9677 H   0  0  0  0  0  0  0  0  0  0  0  0
   -6.4750   18.2440  -35.6440 H   0  0  0  0  0  0  0  0  0  0  0  0
   -7.8734   21.0884  -31.3587 H   0  0  0  0  0  0  0  0  0  0  0  0
   -7.4129   23.2785  -30.2635 H   0  0  0  0  0  0  0  0  0  0  0  0
  1  2  1  0
  2  3  2  0
  2  4  2  0
  2  5  1  0
  5  6  2  0
  6  7  1  0
  7  8  2  0
  8  9  1  0
  9 10  1  0
 10 11  2  0
 11 12  1  0
 12 13  2  0
 12 14  1  0
 14 15  1  0
  8 16  1  0
 16 17  2  0
 17  5  1  0
 15  9  2  0
  1 18  1  0
  1 19  1  0
  1 20  1  0
  6 21  1  0
  7 22  1  0
 10 23  1  0
 11 24  1  0
 14 25  1  0
 16 26  1  0
 17 27  1  0
M  END
>  <UniqueID>  (18) 
17

>  <SMILES>  (18) 
CS(=O)(=O)c1ccc(-c2ccc(=O)[nH]n2)cc1

>  <Energy>  (18) 
29.555649824434596

>  <Genealogy>  (18) 
CS(=O)(=O)c1ccc(-c2ccc(=O)[nH]n2)cc1 (3D coordinates assigned)
CS(=O)(=O)c1ccc(-c2ccc(=O)[nH]n2)cc1 (optimized conformer: 29.555649824434596 kcal/mol)

>  <smiles>  (18) 
CS(=O)(=O)c1ccc(-c2ccc(=O)[nH]n2)cc1

>  <score_type>  (18) 
oracle

>  <origin>  (18) 
adg

>  <m_score__min__energy>  (18) 
-7.46

>  <m_primary>  (18) 
energy

$$$$
18:0
     RDKit          3D

 27 28  0  0  0  0  0  0  0  0999 V2000
   -5.3460   26.4840  -30.4610 O   0  0  0  0  0  0  0  0  0  0  0  0
   -4.9560   25.2880  -30.5640 C   0  0  0  0  0  0  0  0  0  0  0  0
   -3.5580   24.9870  -30.4660 N   0  0  0  0  0  0  0  0  0  0  0  0
   -2.9960   24.0700  -29.5210 C   0  0  0  0  0  0  0  0  0  0  0  0
   -2.5820   24.5600  -28.2750 C   0  0  0  0  0  0  0  0  0  0  0  0
   -2.0310   23.6980  -27.3240 C   0  0  0  0  0  0  0  0  0  0  0  0
   -1.8700   22.3430  -27.6190 C   0  0  0  0  0  0  0  0  0  0  0  0
   -2.2490   21.8490  -28.8700 C   0  0  0  0  0  0  0  0  0  0  0  0
   -2.8040   22.7060  -29.8300 C   0  0  0  0  0  0  0  0  0  0  0  0
   -3.1800   21.9900  -31.5680 Br  0  0  0  0  0  0  0  0  0  0  0  0
   -5.9370   24.2060  -30.8130 C   0  0  0  0  0  0  0  0  0  0  0  0
   -6.5790   23.5600  -29.7420 C   0  0  0  0  0  0  0  0  0  0  0  0
   -7.5060   22.5420  -29.9790 C   0  0  0  0  0  0  0  0  0  0  0  0
   -7.8130   22.1460  -31.2900 C   0  0  0  0  0  0  0  0  0  0  0  0
   -8.7690   21.0960  -31.5290 N   0  0  0  0  0  0  0  0  0  0  0  0
   -9.9150   21.3610  -31.9490 O   0  0  0  0  0  0  0  0  0  0  0  0
   -8.4360   19.7810  -31.2980 O   0  0  0  0  0  0  0  0  0  0  0  0
   -7.1730   22.7920  -32.3620 C   0  0  0  0  0  0  0  0  0  0  0  0
   -6.2450   23.8100  -32.1260 C   0  0  0  0  0  0  0  0  0  0  0  0
   -2.6916   25.6300  -28.0445 H   0  0  0  0  0  0  0  0  0  0  0  0
   -1.7238   24.0870  -26.3420 H   0  0  0  0  0  0  0  0  0  0  0  0
   -1.4444   21.6635  -26.8659 H   0  0  0  0  0  0  0  0  0  0  0  0
   -2.1111   20.7827  -29.1023 H   0  0  0  0  0  0  0  0  0  0  0  0
   -6.3495   23.8587  -28.7085 H   0  0  0  0  0  0  0  0  0  0  0  0
   -7.9998   22.0463  -29.1303 H   0  0  0  0  0  0  0  0  0  0  0  0
   -7.4045   22.4938  -33.3952 H   0  0  0  0  0  0  0  0  0  0  0  0
   -5.7514   24.3055  -32.9750 H   0  0  0  0  0  0  0  0  0  0  0  0
  1  2  2  0
  2  3  1  0
  3  4  1  0
  4  5  2  0
  5  6  1  0
  6  7  2  0
  7  8  1  0
  8  9  2  0
  9 10  1  0
  2 11  1  0
 11 12  2  0
 12 13  1  0
 13 14  2  0
 14 15  1  0
 15 16  2  0
 15 17  1  0
 14 18  1  0
 18 19  2  0
  9  4  1  0
 19 11  1  0
  5 20  1  0
  6 21  1  0
  7 22  1  0
  8 23  1  0
 12 24  1  0
 13 25  1  0
 18 26  1  0
 19 27  1  0
M  CHG  3   3  -1  15   1  17  -1
M  END
>  <UniqueID>  (19) 
18

>  <SMILES>  (19) 
O=C([N-]c1ccccc1Br)c1ccc([N+](=O)[O-])cc1

>  <Energy>  (19) 
37.17536039098489

>  <Genealogy>  (19) 
O=C([N-]c1ccccc1Br)c1ccc([N+](=O)[O-])cc1 (protonated)
O=C([N-]c1ccccc1Br)c1ccc([N+](=O)[O-])cc1 (3D coordinates assigned)
O=C([N-]c1ccccc1Br)c1ccc([N+](=O)[O-])cc1 (optimized conformer: 37.17536039098489 kcal/mol)

>  <smiles>  (19) 
O=C(Nc1ccccc1Br)c1ccc([N+](=O)[O-])cc1

>  <score_type>  (19) 
oracle

>  <origin>  (19) 
adg

>  <m_score__min__energy>  (19) 
-8.8100000000000005

>  <m_primary>  (19) 
energy

$$$$
19:0
     RDKit          3D

 39 41  0  0  0  0  0  0  0  0999 V2000
   -6.1350   25.3760  -30.1190 C   0  0  0  0  0  0  0  0  0  0  0  0
   -4.9700   24.4400  -30.0580 C   0  0  0  0  0  0  0  0  0  0  0  0
   -4.2970   24.2300  -28.8520 C   0  0  0  0  0  0  0  0  0  0  0  0
   -3.2040   23.3490  -28.7950 C   0  0  0  0  0  0  0  0  0  0  0  0
   -2.5130   23.1590  -27.4680 C   0  0  0  0  0  0  0  0  0  0  0  0
   -2.7960   22.6790  -29.9830 C   0  0  0  0  0  0  0  0  0  0  0  0
   -1.7130   21.7680  -30.0680 C   0  0  0  0  0  0  0  0  0  0  0  0
   -1.0110   21.4790  -29.0660 O   0  0  0  0  0  0  0  0  0  0  0  0
   -1.4130   21.1850  -31.2570 N   0  0  0  0  0  0  0  0  0  0  0  0
   -2.1260   21.4490  -32.3790 C   0  0  0  0  0  0  0  0  0  0  0  0
   -1.6940   20.6530  -33.9210 S   0  0  0  0  0  0  0  0  0  0  0  0
   -2.0770   18.9840  -33.3000 C   0  0  0  0  0  0  0  0  0  0  0  0
   -3.5590   18.8350  -33.1660 C   0  0  0  0  0  0  0  0  0  0  0  0
   -4.1470   17.9080  -33.7870 O   0  0  0  0  0  0  0  0  0  0  0  0
   -4.2970   19.7420  -32.3310 N   0  0  0  0  0  0  0  0  0  0  0  0
   -5.7320   19.8310  -32.3090 C   0  0  0  0  0  0  0  0  0  0  0  0
   -6.3420   21.0970  -32.2960 C   0  0  0  0  0  0  0  0  0  0  0  0
   -7.7360   21.2110  -32.2980 C   0  0  0  0  0  0  0  0  0  0  0  0
   -8.5320   20.0620  -32.3300 C   0  0  0  0  0  0  0  0  0  0  0  0
   -9.8840   20.1740  -32.3350 F   0  0  0  0  0  0  0  0  0  0  0  0
   -7.9350   18.7990  -32.3670 C   0  0  0  0  0  0  0  0  0  0  0  0
   -6.5410   18.6810  -32.3640 C   0  0  0  0  0  0  0  0  0  0  0  0
   -3.1660   22.3150  -32.3330 N   0  0  0  0  0  0  0  0  0  0  0  0
   -3.5160   22.9310  -31.1770 C   0  0  0  0  0  0  0  0  0  0  0  0
   -4.5670   23.7910  -31.1790 N   0  0  0  0  0  0  0  0  0  0  0  0
   -6.4536   25.6319  -29.0977 H   0  0  0  0  0  0  0  0  0  0  0  0
   -5.8416   26.2924  -30.6521 H   0  0  0  0  0  0  0  0  0  0  0  0
   -6.9666   24.8921  -30.6521 H   0  0  0  0  0  0  0  0  0  0  0  0
   -4.6241   24.7565  -27.9433 H   0  0  0  0  0  0  0  0  0  0  0  0
   -3.2249   23.3547  -26.6526 H   0  0  0  0  0  0  0  0  0  0  0  0
   -2.1432   22.1258  -27.3918 H   0  0  0  0  0  0  0  0  0  0  0  0
   -1.6669   23.8578  -27.3918 H   0  0  0  0  0  0  0  0  0  0  0  0
   -1.6944   18.2323  -34.0061 H   0  0  0  0  0  0  0  0  0  0  0  0
   -1.6015   18.8376  -32.3189 H   0  0  0  0  0  0  0  0  0  0  0  0
   -3.7590   20.3160  -31.6430 H   0  0  0  0  0  0  0  0  0  0  0  0
   -5.7194   22.0037  -32.2842 H   0  0  0  0  0  0  0  0  0  0  0  0
   -8.2063   22.2051  -32.2744 H   0  0  0  0  0  0  0  0  0  0  0  0
   -8.5623   17.8960  -32.3985 H   0  0  0  0  0  0  0  0  0  0  0  0
   -6.0755   17.6852  -32.4048 H   0  0  0  0  0  0  0  0  0  0  0  0
  1  2  1  0
  2  3  2  0
  3  4  1  0
  4  5  1  0
  4  6  2  0
  6  7  1  0
  7  8  2  0
  7  9  1  0
  9 10  2  0
 10 11  1  0
 11 12  1  0
 12 13  1  0
 13 14  2  0
 13 15  1  0
 15 16  1  0
 16 17  2  0
 17 18  1  0
 18 19  2  0
 19 20  1  0
 19 21  1  0
 21 22  2  0
 10 23  1  0
 23 24  1  0
 24 25  2  0
 25  2  1  0
 24  6  1  0
 22 16  1  0
  1 26  1  0
  1 27  1  0
  1 28  1  0
  3 29  1  0
  5 30  1  0
  5 31  1  0
  5 32  1  0
 12 33  1  0
 12 34  1  0
 15 35  1  0
 17 36  1  0
 18 37  1  0
 21 38  1  0
 22 39  1  0
M  CHG  1  23  -1
M  END
>  <UniqueID>  (20) 
19

>  <SMILES>  (20) 
Cc1cc(C)c2c(=O)nc(SCC(=O)Nc3ccc(F)cc3)[n-]c2n1

>  <Energy>  (20) 
46.98949906687842

>  <Genealogy>  (20) 
Cc1cc(C)c2c(=O)nc(SCC(=O)Nc3ccc(F)cc3)[n-]c2n1 (protonated)
Cc1cc(C)c2c(=O)nc(SCC(=O)Nc3ccc(F)cc3)[n-]c2n1 (3D coordinates assigned)
Cc1cc(C)c2c(=O)nc(SCC(=O)Nc3ccc(F)cc3)[n-]c2n1 (optimized conformer: 46.98949906687842 kcal/mol)

>  <smiles>  (20) 
Cc1cc(C)c2c(=O)nc(SCC(=O)Nc3ccc(F)cc3)[nH]c2n1

>  <score_type>  (20) 
oracle

>  <origin>  (20) 
adg

>  <m_score__min__energy>  (20) 
-9.3699999999999992

>  <m_primary>  (20) 
energy

$$$$
20:0
     RDKit          3D

 46 48  0  0  0  0  0  0  0  0999 V2000
   -1.2270   25.8870  -28.1700 C   0  0  0  0  0  0  0  0  0  0  0  0
   -2.0390   25.1530  -29.0820 O   0  0  0  0  0  0  0  0  0  0  0  0
   -1.9640   23.7620  -29.2820 C   0  0  0  0  0  0  0  0  0  0  0  0
   -0.7590   23.1340  -29.6600 C   0  0  0  0  0  0  0  0  0  0  0  0
   -0.7080   21.7480  -29.8400 C   0  0  0  0  0  0  0  0  0  0  0  0
   -1.8550   20.9740  -29.6510 C   0  0  0  0  0  0  0  0  0  0  0  0
   -3.0570   21.5830  -29.2860 C   0  0  0  0  0  0  0  0  0  0  0  0
   -3.1250   22.9750  -29.1020 C   0  0  0  0  0  0  0  0  0  0  0  0
   -4.4310   23.5950  -28.6590 C   0  0  0  0  0  0  0  0  0  0  0  0
   -5.3870   23.6150  -29.7810 N   0  0  0  0  0  0  0  0  0  0  0  0
   -6.3980   22.6930  -29.7860 C   0  0  0  0  0  0  0  0  0  0  0  0
   -7.2780   22.5870  -30.8770 C   0  0  0  0  0  0  0  0  0  0  0  0
   -8.3160   21.5260  -30.9180 C   0  0  0  0  0  0  0  0  0  0  0  0
   -9.2770   21.5550  -30.1010 O   0  0  0  0  0  0  0  0  0  0  0  0
   -8.2320   20.4400  -31.8580 N   0  0  0  0  0  0  0  0  0  0  0  0
   -9.4790   20.0190  -32.5070 C   0  0  0  0  0  0  0  0  0  0  0  0
   -6.9520   19.8450  -32.2180 C   0  0  0  0  0  0  0  0  0  0  0  0
   -6.6810   18.4820  -31.9510 C   0  0  0  0  0  0  0  0  0  0  0  0
   -5.4470   17.9160  -32.2870 C   0  0  0  0  0  0  0  0  0  0  0  0
   -4.4580   18.6950  -32.8880 C   0  0  0  0  0  0  0  0  0  0  0  0
   -4.7050   20.0390  -33.1680 C   0  0  0  0  0  0  0  0  0  0  0  0
   -5.9410   20.6080  -32.8480 C   0  0  0  0  0  0  0  0  0  0  0  0
   -7.1270   23.4820  -31.9450 C   0  0  0  0  0  0  0  0  0  0  0  0
   -6.1100   24.4320  -31.9220 C   0  0  0  0  0  0  0  0  0  0  0  0
   -5.2330   24.4820  -30.8360 C   0  0  0  0  0  0  0  0  0  0  0  0
   -4.2970   25.3280  -30.8480 O   0  0  0  0  0  0  0  0  0  0  0  0
   -1.5105   25.6307  -27.1385 H   0  0  0  0  0  0  0  0  0  0  0  0
   -0.1695   25.6322  -28.3337 H   0  0  0  0  0  0  0  0  0  0  0  0
   -1.3741   26.9648  -28.3337 H   0  0  0  0  0  0  0  0  0  0  0  0
    0.1470   23.7385  -29.8143 H   0  0  0  0  0  0  0  0  0  0  0  0
    0.2373   21.2666  -30.1310 H   0  0  0  0  0  0  0  0  0  0  0  0
   -1.8113   19.8837  -29.7898 H   0  0  0  0  0  0  0  0  0  0  0  0
   -3.9580   20.9688  -29.1412 H   0  0  0  0  0  0  0  0  0  0  0  0
   -4.8524   23.0045  -27.8321 H   0  0  0  0  0  0  0  0  0  0  0  0
   -4.2455   24.6265  -28.3248 H   0  0  0  0  0  0  0  0  0  0  0  0
   -6.5242   22.0238  -28.9221 H   0  0  0  0  0  0  0  0  0  0  0  0
  -10.2251   19.7671  -31.7390 H   0  0  0  0  0  0  0  0  0  0  0  0
   -9.8606   20.8381  -33.1342 H   0  0  0  0  0  0  0  0  0  0  0  0
   -9.2860   19.1362  -33.1342 H   0  0  0  0  0  0  0  0  0  0  0  0
   -7.4513   17.8592  -31.4727 H   0  0  0  0  0  0  0  0  0  0  0  0
   -5.2557   16.8534  -32.0767 H   0  0  0  0  0  0  0  0  0  0  0  0
   -3.4844   18.2498  -33.1408 H   0  0  0  0  0  0  0  0  0  0  0  0
   -3.9249   20.6528  -33.6420 H   0  0  0  0  0  0  0  0  0  0  0  0
   -6.1303   21.6643  -33.0895 H   0  0  0  0  0  0  0  0  0  0  0  0
   -7.8136   23.4335  -32.8031 H   0  0  0  0  0  0  0  0  0  0  0  0
   -5.9974   25.1406  -32.7558 H   0  0  0  0  0  0  0  0  0  0  0  0
  1  2  1  0
  2  3  1  0
  3  4  2  0
  4  5  1  0
  5  6  2  0
  6  7  1  0
  7  8  2  0
  8  9  1  0
  9 10  1  0
 10 11  1  0
 11 12  2  0
 12 13  1  0
 13 14  2  0
 13 15  1  0
 15 16  1  0
 15 17  1  0
 17 18  2  0
 18 19  1  0
 19 20  2  0
 20 21  1  0
 21 22  2  0
 12 23  1  0
 23 24  2  0
 24 25  1  0
 25 26  2  0
  8  3  1  0
 25 10  1  0
 22 17  1  0
  1 27  1  0
  1 28  1  0
  1 29  1  0
  4 30  1  0
  5 31  1  0
  6 32  1  0
  7 33  1  0
  9 34  1  0
  9 35  1  0
 11 36  1  0
 16 37  1  0
 16 38  1  0
 16 39  1  0
 18 40  1  0
 19 41  1  0
 20 42  1  0
 21 43  1  0
 22 44  1  0
 23 45  1  0
 24 46  1  0
M  END
>  <UniqueID>  (21) 
20

>  <SMILES>  (21) 
COc1ccccc1Cn1cc(C(=O)N(C)c2ccccc2)ccc1=O

>  <Energy>  (21) 
57.14192469429542

>  <Genealogy>  (21) 
COc1ccccc1Cn1cc(C(=O)N(C)c2ccccc2)ccc1=O (3D coordinates assigned)
COc1ccccc1Cn1cc(C(=O)N(C)c2ccccc2)ccc1=O (optimized conformer: 57.14192469429542 kcal/mol)

>  <smiles>  (21) 
COc1ccccc1Cn1cc(C(=O)N(C)c2ccccc2)ccc1=O

>  <score_type>  (21) 
oracle

>  <origin>  (21) 
adg

>  <m_score__min__energy>  (21) 
-8.8399999999999999

>  <m_primary>  (21) 
energy

$$$$
21:0
     RDKit          3D

 48 48  0  0  0  0  0  0  0  0999 V2000
   -1.6250   26.4070  -25.1450 C   0  0  0  0  0  0  0  0  0  0  0  0
   -0.6850   25.7630  -26.1640 C   0  0  0  0  0  0  0  0  0  0  0  0
   -0.8290   26.3800  -27.5600 C   0  0  0  0  0  0  0  0  0  0  0  0
   -1.0830   25.3340  -28.6020 C   0  0  0  0  0  0  0  0  0  0  0  0
   -0.1780   24.5070  -28.8930 O   0  0  0  0  0  0  0  0  0  0  0  0
   -2.3640   25.2560  -29.2330 N   0  0  0  0  0  0  0  0  0  0  0  0
   -3.4860   24.5290  -28.6550 C   0  0  0  0  0  0  0  0  0  0  0  0
   -3.0980   23.0650  -28.4150 C   0  0  0  0  0  0  0  0  0  0  0  0
   -1.9410   22.6490  -29.2450 N   0  0  0  0  0  0  0  0  0  0  0  0
   -2.1970   21.4300  -30.0380 C   0  0  0  0  0  0  0  0  0  0  0  0
   -2.6570   21.7400  -31.4820 C   0  0  2  0  0  0  0  0  0  0  0  0
   -3.0870   23.0730  -31.6070 O   0  0  0  0  0  0  0  0  0  0  0  0
   -3.7440   20.7700  -31.9860 C   0  0  0  0  0  0  0  0  0  0  0  0
   -4.7650   21.4460  -32.7250 O   0  0  0  0  0  0  0  0  0  0  0  0
   -6.1170   21.5790  -32.3630 C   0  0  0  0  0  0  0  0  0  0  0  0
   -7.0640   20.5490  -32.5430 C   0  0  0  0  0  0  0  0  0  0  0  0
   -8.3950   20.7400  -32.1650 C   0  0  0  0  0  0  0  0  0  0  0  0
   -8.7980   21.9530  -31.6090 C   0  0  0  0  0  0  0  0  0  0  0  0
   -7.8730   22.9830  -31.4310 C   0  0  0  0  0  0  0  0  0  0  0  0
   -6.5270   22.8040  -31.8080 C   0  0  0  0  0  0  0  0  0  0  0  0
   -5.5680   23.8160  -31.6470 O   0  0  0  0  0  0  0  0  0  0  0  0
   -5.7510   24.9810  -30.8500 C   0  0  0  0  0  0  0  0  0  0  0  0
   -1.2801   26.1707  -24.1275 H   0  0  0  0  0  0  0  0  0  0  0  0
   -1.6280   27.4978  -25.2871 H   0  0  0  0  0  0  0  0  0  0  0  0
   -2.6433   26.0159  -25.2871 H   0  0  0  0  0  0  0  0  0  0  0  0
    0.3521   25.8977  -25.8230 H   0  0  0  0  0  0  0  0  0  0  0  0
   -0.9484   24.6976  -26.2383 H   0  0  0  0  0  0  0  0  0  0  0  0
   -1.6709   27.0879  -27.5522 H   0  0  0  0  0  0  0  0  0  0  0  0
    0.1124   26.8917  -27.8087 H   0  0  0  0  0  0  0  0  0  0  0  0
   -3.7656   24.9929  -27.6976 H   0  0  0  0  0  0  0  0  0  0  0  0
   -4.3365   24.5664  -29.3517 H   0  0  0  0  0  0  0  0  0  0  0  0
   -2.8372   22.9369  -27.3541 H   0  0  0  0  0  0  0  0  0  0  0  0
   -3.9572   22.4376  -28.6945 H   0  0  0  0  0  0  0  0  0  0  0  0
   -1.7350   23.4200  -29.9230 H   0  0  0  0  0  0  0  0  0  0  0  0
   -1.0740   22.5210  -28.6720 H   0  0  0  0  0  0  0  0  0  0  0  0
   -1.2702   20.8392  -30.0835 H   0  0  0  0  0  0  0  0  0  0  0  0
   -3.0092   20.8774  -29.5431 H   0  0  0  0  0  0  0  0  0  0  0  0
   -1.7746   21.5937  -32.1222 H   0  0  0  0  0  0  0  0  0  0  0  0
   -4.0600   23.0600  -31.8040 H   0  0  0  0  0  0  0  0  0  0  0  0
   -3.2743   20.0173  -32.6363 H   0  0  0  0  0  0  0  0  0  0  0  0
   -4.2137   20.3010  -31.1089 H   0  0  0  0  0  0  0  0  0  0  0  0
   -6.7525   19.5903  -32.9834 H   0  0  0  0  0  0  0  0  0  0  0  0
   -9.1270   19.9312  -32.3064 H   0  0  0  0  0  0  0  0  0  0  0  0
   -9.8465   22.0987  -31.3101 H   0  0  0  0  0  0  0  0  0  0  0  0
   -8.1963   23.9394  -30.9942 H   0  0  0  0  0  0  0  0  0  0  0  0
   -5.7080   24.7074  -29.7854 H   0  0  0  0  0  0  0  0  0  0  0  0
   -4.9559   25.7073  -31.0743 H   0  0  0  0  0  0  0  0  0  0  0  0
   -6.7305   25.4286  -31.0743 H   0  0  0  0  0  0  0  0  0  0  0  0
  1  2  1  0
  2  3  1  0
  3  4  1  0
  4  5  2  0
  4  6  1  0
  6  7  1  0
  7  8  1  0
  8  9  1  0
  9 10  1  0
 10 11  1  0
 11 12  1  0
 11 13  1  0
 13 14  1  0
 14 15  1  0
 15 16  2  0
 16 17  1  0
 17 18  2  0
 18 19  1  0
 19 20  2  0
 20 21  1  0
 21 22  1  0
 20 15  1  0
  1 23  1  0
  1 24  1  0
  1 25  1  0
  2 26  1  0
  2 27  1  0
  3 28  1  0
  3 29  1  0
  7 30  1  0
  7 31  1  0
  8 32  1  0
  8 33  1  0
  9 34  1  0
  9 35  1  0
 10 36  1  0
 10 37  1  0
 11 38  1  6
 12 39  1  0
 13 40  1  0
 13 41  1  0
 16 42  1  0
 17 43  1  0
 18 44  1  0
 19 45  1  0
 22 46  1  0
 22 47  1  0
 22 48  1  0
M  CHG  2   6  -1   9   1
M  END
>  <UniqueID>  (22) 
21

>  <SMILES>  (22) 
CCCC(=O)[N-]CC[NH2+]C[C@H](O)COc1ccccc1OC

>  <Energy>  (22) 
38.89910422500482

>  <Genealogy>  (22) 
CCCC(=O)[N-]CC[NH2+]CC(O)COc1ccccc1OC (protonated)
CCCC(=O)[N-]CC[NH2+]C[C@H](O)COc1ccccc1OC (chirality)
CCCC(=O)[N-]CC[NH2+]C[C@H](O)COc1ccccc1OC (3D coordinates assigned)
CCCC(=O)[N-]CC[NH2+]C[C@H](O)COc1ccccc1OC (optimized conformer: 38.89910422500482 kcal/mol)

>  <smiles>  (22) 
CCCC(=O)NCCNCC(O)COc1ccccc1OC

>  <score_type>  (22) 
oracle

>  <origin>  (22) 
adg

>  <m_score__min__energy>  (22) 
-6.29

>  <m_primary>  (22) 
energy

$$$$
22:0
     RDKit          3D

 58 62  0  0  0  0  0  0  0  0999 V2000
   -8.7590   20.5870  -31.7070 C   0  0  0  0  0  0  0  0  0  0  0  0
   -7.7420   19.4370  -31.6470 C   0  0  0  0  0  0  0  0  0  0  0  0
   -6.7790   19.3760  -32.8840 C   0  0  2  0  0  0  0  0  0  0  0  0
   -7.2760   20.1860  -33.9240 O   0  0  0  0  0  0  0  0  0  0  0  0
   -6.6640   17.9470  -33.4090 C   0  0  0  0  0  0  0  0  0  0  0  0
   -7.5730   17.0970  -33.2130 O   0  0  0  0  0  0  0  0  0  0  0  0
   -5.5600   17.5820  -34.1830 O   0  0  0  0  0  0  0  0  0  0  0  0
   -4.5820   18.5380  -34.5780 C   0  0  0  0  0  0  0  0  0  0  0  0
   -4.2870   19.4720  -33.4330 C   0  0  0  0  0  0  0  0  0  0  0  0
   -5.3510   19.8590  -32.5650 C   0  0  0  0  0  0  0  0  0  0  0  0
   -5.0550   20.7290  -31.4880 C   0  0  0  0  0  0  0  0  0  0  0  0
   -3.7500   21.1780  -31.3290 C   0  0  0  0  0  0  0  0  0  0  0  0
   -2.7640   20.8170  -32.1780 N   0  0  0  0  0  0  0  0  0  0  0  0
   -2.9860   19.9840  -33.2270 C   0  0  0  0  0  0  0  0  0  0  0  0
   -2.0390   19.6760  -34.0010 O   0  0  0  0  0  0  0  0  0  0  0  0
   -1.4910   21.4410  -31.7910 C   0  0  0  0  0  0  0  0  0  0  0  0
   -1.8810   22.2300  -30.5760 C   0  0  0  0  0  0  0  0  0  0  0  0
   -1.1070   23.0440  -29.7550 C   0  0  0  0  0  0  0  0  0  0  0  0
   -1.7370   23.6820  -28.6620 C   0  0  0  0  0  0  0  0  0  0  0  0
   -1.0200   24.5280  -27.7940 C   0  0  0  0  0  0  0  0  0  0  0  0
    0.3400   24.7590  -28.0220 O   0  0  0  0  0  0  0  0  0  0  0  0
    1.3420   24.1240  -27.2360 C   0  0  0  0  0  0  0  0  0  0  0  0
   -1.6730   25.1400  -26.7000 C   0  0  0  0  0  0  0  0  0  0  0  0
   -0.9140   25.9440  -25.7750 N   0  0  0  0  0  0  0  0  0  0  0  0
   -1.4550   27.0800  -25.0260 C   0  0  0  0  0  0  0  0  0  0  0  0
   -0.4150   28.2030  -24.9200 C   0  0  0  0  0  0  0  0  0  0  0  0
    0.6480   27.9020  -23.8600 C   0  0  0  0  0  0  0  0  0  0  0  0
    0.8630   26.5210  -23.7500 O   0  0  0  0  0  0  0  0  0  0  0  0
   -3.0510   24.9180  -26.5100 C   0  0  0  0  0  0  0  0  0  0  0  0
   -3.7700   24.0950  -27.3770 C   0  0  0  0  0  0  0  0  0  0  0  0
   -3.1320   23.4700  -28.4480 C   0  0  0  0  0  0  0  0  0  0  0  0
   -3.8470   22.6610  -29.2840 N   0  0  0  0  0  0  0  0  0  0  0  0
   -3.2160   22.0600  -30.3220 C   0  0  0  0  0  0  0  0  0  0  0  0
   -9.0285   20.8918  -30.6850 H   0  0  0  0  0  0  0  0  0  0  0  0
   -8.3155   21.4413  -32.2395 H   0  0  0  0  0  0  0  0  0  0  0  0
   -9.6611   20.2513  -32.2395 H   0  0  0  0  0  0  0  0  0  0  0  0
   -7.1328   19.5601  -30.7394 H   0  0  0  0  0  0  0  0  0  0  0  0
   -8.3186   18.5002  -31.6442 H   0  0  0  0  0  0  0  0  0  0  0  0
   -7.2090   19.6680  -34.7700 H   0  0  0  0  0  0  0  0  0  0  0  0
   -3.6588   18.0161  -34.8703 H   0  0  0  0  0  0  0  0  0  0  0  0
   -4.9661   19.1187  -35.4297 H   0  0  0  0  0  0  0  0  0  0  0  0
   -5.8443   21.0438  -30.7895 H   0  0  0  0  0  0  0  0  0  0  0  0
   -0.7328   20.6822  -31.5473 H   0  0  0  0  0  0  0  0  0  0  0  0
   -1.0383   22.0508  -32.5868 H   0  0  0  0  0  0  0  0  0  0  0  0
   -0.0341   23.1872  -29.9510 H   0  0  0  0  0  0  0  0  0  0  0  0
    1.1163   24.2670  -26.1689 H   0  0  0  0  0  0  0  0  0  0  0  0
    1.3613   23.0484  -27.4657 H   0  0  0  0  0  0  0  0  0  0  0  0
    2.3229   24.5657  -27.4657 H   0  0  0  0  0  0  0  0  0  0  0  0
    0.0970   25.7240  -25.6300 H   0  0  0  0  0  0  0  0  0  0  0  0
   -2.3475   27.4618  -25.5434 H   0  0  0  0  0  0  0  0  0  0  0  0
   -1.7171   26.7432  -24.0122 H   0  0  0  0  0  0  0  0  0  0  0  0
    0.0797   28.3221  -25.8952 H   0  0  0  0  0  0  0  0  0  0  0  0
   -0.9385   29.1241  -24.6243 H   0  0  0  0  0  0  0  0  0  0  0  0
    1.5906   28.3923  -24.1448 H   0  0  0  0  0  0  0  0  0  0  0  0
    0.2968   28.2830  -22.8897 H   0  0  0  0  0  0  0  0  0  0  0  0
    1.0970   26.3390  -22.8020 H   0  0  0  0  0  0  0  0  0  0  0  0
   -3.5671   25.4001  -25.6666 H   0  0  0  0  0  0  0  0  0  0  0  0
   -4.8466   23.9381  -27.2149 H   0  0  0  0  0  0  0  0  0  0  0  0
  1  2  1  0
  2  3  1  0
  3  4  1  6
  3  5  1  0
  5  6  2  0
  5  7  1  0
  7  8  1  0
  8  9  1  0
  9 10  2  0
 10 11  1  0
 11 12  2  0
 12 13  1  0
 13 14  1  0
 14 15  2  0
 13 16  1  0
 16 17  1  0
 17 18  2  0
 18 19  1  0
 19 20  2  0
 20 21  1  0
 21 22  1  0
 20 23  1  0
 23 24  1  0
 24 25  1  0
 25 26  1  0
 26 27  1  0
 27 28  1  0
 23 29  2  0
 29 30  1  0
 30 31  2  0
 31 32  1  0
 32 33  2  0
 10  3  1  0
 33 12  1  0
 14  9  1  0
 33 17  1  0
 31 19  1  0
  1 34  1  0
  1 35  1  0
  1 36  1  0
  2 37  1  0
  2 38  1  0
  4 39  1  0
  8 40  1  0
  8 41  1  0
 11 42  1  0
 16 43  1  0
 16 44  1  0
 18 45  1  0
 22 46  1  0
 22 47  1  0
 22 48  1  0
 24 49  1  0
 25 50  1  0
 25 51  1  0
 26 52  1  0
 26 53  1  0
 27 54  1  0
 27 55  1  0
 28 56  1  0
 29 57  1  0
 30 58  1  0
M  END
>  <UniqueID>  (23) 
22

>  <SMILES>  (23) 
CC[C@]1(O)C(=O)OCc2c1cc1n(c2=O)Cc2cc3c(OC)c(NCCCO)ccc3nc2-1

>  <Energy>  (23) 
106.80706990417346

>  <Genealogy>  (23) 
CC[C@]1(O)C(=O)OCc2c1cc1n(c2=O)Cc2cc3c(OC)c(NCCCO)ccc3nc2-1 (chirality)
CC[C@]1(O)C(=O)OCc2c1cc1n(c2=O)Cc2cc3c(OC)c(NCCCO)ccc3nc2-1 (3D coordinates assigned)
CC[C@]1(O)C(=O)OCc2c1cc1n(c2=O)Cc2cc3c(OC)c(NCCCO)ccc3nc2-1 (nonaromatic ring conformer: 106.80706990417346 kcal/mol)

>  <smiles>  (23) 
CCC1(O)C(=O)OCc2c1cc1n(c2=O)Cc2cc3c(OC)c(NCCCO)ccc3nc2-1

>  <score_type>  (23) 
oracle

>  <origin>  (23) 
adg

>  <m_score__min__energy>  (23) 
-9.0299999999999994

>  <m_primary>  (23) 
energy

$$$$
23:0
     RDKit          3D

 38 40  0  0  0  0  0  0  0  0999 V2000
   -8.7320   20.6090  -32.4860 C   0  0  0  0  0  0  0  0  0  0  0  0
   -7.7040   21.4700  -31.8130 C   0  0  0  0  0  0  0  0  0  0  0  0
   -6.4150   21.5850  -32.3530 C   0  0  0  0  0  0  0  0  0  0  0  0
   -5.4680   22.4160  -31.7450 C   0  0  0  0  0  0  0  0  0  0  0  0
   -5.8050   23.1500  -30.6000 C   0  0  0  0  0  0  0  0  0  0  0  0
   -4.6150   24.1800  -29.8080 S   0  0  0  0  0  0  0  0  0  0  0  0
   -5.3440   25.1370  -28.9060 O   0  0  0  0  0  0  0  0  0  0  0  0
   -3.8650   24.9810  -30.8370 O   0  0  0  0  0  0  0  0  0  0  0  0
   -3.5070   23.2190  -28.8510 N   0  0  0  0  0  0  0  0  0  0  0  0
   -2.0880   23.4340  -29.2370 C   0  0  0  0  0  0  0  0  0  0  0  0
   -1.5600   24.8470  -28.8970 C   0  0  0  0  0  0  0  0  0  0  0  0
   -2.0370   25.2550  -27.5410 C   0  0  0  0  0  0  0  0  0  0  0  0
   -3.0700   24.6350  -26.8920 C   0  0  0  0  0  0  0  0  0  0  0  0
   -3.2190   25.3100  -25.6960 C   0  0  0  0  0  0  0  0  0  0  0  0
   -2.3190   26.3170  -25.6710 N   0  0  0  0  0  0  0  0  0  0  0  0
   -1.6150   26.2940  -26.7950 N   0  0  0  0  0  0  0  0  0  0  0  0
   -0.5170   27.2020  -27.1040 C   0  0  0  0  0  0  0  0  0  0  0  0
   -3.7450   23.4020  -27.4000 C   0  0  0  0  0  0  0  0  0  0  0  0
   -7.0970   23.0460  -30.0670 C   0  0  0  0  0  0  0  0  0  0  0  0
   -8.0440   22.2170  -30.6740 C   0  0  0  0  0  0  0  0  0  0  0  0
   -9.3399   20.0999  -31.7236 H   0  0  0  0  0  0  0  0  0  0  0  0
   -9.3816   21.2365  -33.1139 H   0  0  0  0  0  0  0  0  0  0  0  0
   -8.2282   19.8594  -33.1139 H   0  0  0  0  0  0  0  0  0  0  0  0
   -6.1475   21.0197  -33.2580 H   0  0  0  0  0  0  0  0  0  0  0  0
   -4.4552   22.4935  -32.1673 H   0  0  0  0  0  0  0  0  0  0  0  0
   -1.4682   22.6949  -28.7083 H   0  0  0  0  0  0  0  0  0  0  0  0
   -2.0312   23.3234  -30.3299 H   0  0  0  0  0  0  0  0  0  0  0  0
   -0.4601   24.8382  -28.9095 H   0  0  0  0  0  0  0  0  0  0  0  0
   -1.9344   25.5630  -29.6434 H   0  0  0  0  0  0  0  0  0  0  0  0
   -3.9431   25.0698  -24.9035 H   0  0  0  0  0  0  0  0  0  0  0  0
   -2.1830   27.0000  -24.8930 H   0  0  0  0  0  0  0  0  0  0  0  0
   -0.0715   27.5704  -26.1682 H   0  0  0  0  0  0  0  0  0  0  0  0
    0.2468   26.6682  -27.6885 H   0  0  0  0  0  0  0  0  0  0  0  0
   -0.8979   28.0525  -27.6885 H   0  0  0  0  0  0  0  0  0  0  0  0
   -3.3513   22.5289  -26.8591 H   0  0  0  0  0  0  0  0  0  0  0  0
   -4.8277   23.5050  -27.2353 H   0  0  0  0  0  0  0  0  0  0  0  0
   -7.3665   23.6190  -29.1676 H   0  0  0  0  0  0  0  0  0  0  0  0
   -9.0600   22.1494  -30.2577 H   0  0  0  0  0  0  0  0  0  0  0  0
  1  2  1  0
  2  3  2  0
  3  4  1  0
  4  5  2  0
  5  6  1  0
  6  7  2  0
  6  8  2  0
  6  9  1  0
  9 10  1  0
 10 11  1  0
 11 12  1  0
 12 13  2  0
 13 14  1  0
 14 15  2  0
 15 16  1  0
 16 17  1  0
 13 18  1  0
  5 19  1  0
 19 20  2  0
 20  2  1  0
 18  9  1  0
 16 12  1  0
  1 21  1  0
  1 22  1  0
  1 23  1  0
  3 24  1  0
  4 25  1  0
 10 26  1  0
 10 27  1  0
 11 28  1  0
 11 29  1  0
 14 30  1  0
 15 31  1  0
 17 32  1  0
 17 33  1  0
 17 34  1  0
 18 35  1  0
 18 36  1  0
 19 37  1  0
 20 38  1  0
M  CHG  1  15   1
M  END
>  <UniqueID>  (24) 
23

>  <SMILES>  (24) 
Cc1ccc(S(=O)(=O)N2CCc3c(c[nH+]n3C)C2)cc1

>  <Energy>  (24) 
74.64430851963051

>  <Genealogy>  (24) 
Cc1ccc(S(=O)(=O)N2CCc3c(c[nH+]n3C)C2)cc1 (protonated)
Cc1ccc(S(=O)(=O)N2CCc3c(c[nH+]n3C)C2)cc1 (3D coordinates assigned)
Cc1ccc(S(=O)(=O)N2CCc3c(c[nH+]n3C)C2)cc1 (nonaromatic ring conformer: 74.64430851963051 kcal/mol)

>  <smiles>  (24) 
Cc1ccc(S(=O)(=O)N2CCc3c(cnn3C)C2)cc1

>  <score_type>  (24) 
oracle

>  <origin>  (24) 
adg

>  <m_score__min__energy>  (24) 
-7.3300000000000001

>  <m_primary>  (24) 
energy

$$$$
24:0
     RDKit          3D

 34 35  0  0  0  0  0  0  0  0999 V2000
   -3.0720   18.9240  -25.9660 C   0  0  0  0  0  0  0  0  0  0  0  0
   -2.7650   19.4560  -27.3640 C   0  0  0  0  0  0  0  0  0  0  0  0
   -2.5290   20.9090  -27.3290 N   0  0  0  0  0  0  0  0  0  0  0  0
   -1.3700   21.4340  -26.5970 C   0  0  0  0  0  0  0  0  0  0  0  0
   -3.3920   21.7900  -28.0860 C   0  0  0  0  0  0  0  0  0  0  0  0
   -4.1780   22.5670  -27.4740 O   0  0  0  0  0  0  0  0  0  0  0  0
   -3.4500   21.7690  -29.5930 C   0  0  0  0  0  0  0  0  0  0  0  0
   -3.8100   23.0900  -30.1210 N   0  0  0  0  0  0  0  0  0  0  0  0
   -4.8890   23.4360  -30.8600 C   0  0  0  0  0  0  0  0  0  0  0  0
   -5.9060   22.5030  -31.3740 C   0  0  0  0  0  0  0  0  0  0  0  0
   -7.2430   22.6310  -30.9710 C   0  0  0  0  0  0  0  0  0  0  0  0
   -8.2090   21.7350  -31.4470 C   0  0  0  0  0  0  0  0  0  0  0  0
   -7.8470   20.7240  -32.3410 C   0  0  0  0  0  0  0  0  0  0  0  0
   -6.5210   20.6110  -32.7660 C   0  0  0  0  0  0  0  0  0  0  0  0
   -5.5530   21.4990  -32.2870 C   0  0  0  0  0  0  0  0  0  0  0  0
   -4.9410   24.7690  -31.0640 N   0  0  0  0  0  0  0  0  0  0  0  0
   -3.8790   25.2960  -30.4680 N   0  0  0  0  0  0  0  0  0  0  0  0
   -3.2040   24.2780  -29.9030 C   0  0  0  0  0  0  0  0  0  0  0  0
   -1.8260   24.4890  -29.0390 S   0  0  0  0  0  0  0  0  0  0  0  0
   -2.6711   19.6186  -25.2131 H   0  0  0  0  0  0  0  0  0  0  0  0
   -4.1609   18.8340  -25.8389 H   0  0  0  0  0  0  0  0  0  0  0  0
   -2.6051   17.9362  -25.8389 H   0  0  0  0  0  0  0  0  0  0  0  0
   -1.8666   18.9537  -27.7520 H   0  0  0  0  0  0  0  0  0  0  0  0
   -3.6276   19.2539  -28.0160 H   0  0  0  0  0  0  0  0  0  0  0  0
   -1.5516   21.3517  -25.5152 H   0  0  0  0  0  0  0  0  0  0  0  0
   -0.4744   20.8537  -26.8636 H   0  0  0  0  0  0  0  0  0  0  0  0
   -1.2155   22.4900  -26.8636 H   0  0  0  0  0  0  0  0  0  0  0  0
   -2.4648   21.4796  -29.9875 H   0  0  0  0  0  0  0  0  0  0  0  0
   -4.2165   21.0445  -29.9054 H   0  0  0  0  0  0  0  0  0  0  0  0
   -7.5337   23.4361  -30.2801 H   0  0  0  0  0  0  0  0  0  0  0  0
   -9.2541   21.8275  -31.1165 H   0  0  0  0  0  0  0  0  0  0  0  0
   -8.6054   20.0177  -32.7098 H   0  0  0  0  0  0  0  0  0  0  0  0
   -6.2380   19.8222  -33.4786 H   0  0  0  0  0  0  0  0  0  0  0  0
   -4.5109   21.4097  -32.6276 H   0  0  0  0  0  0  0  0  0  0  0  0
  1  2  1  0
  2  3  1  0
  3  4  1  0
  3  5  1  0
  5  6  2  0
  5  7  1  0
  7  8  1  0
  8  9  1  0
  9 10  1  0
 10 11  2  0
 11 12  1  0
 12 13  2  0
 13 14  1  0
 14 15  2  0
  9 16  2  0
 16 17  1  0
 17 18  1  0
 18 19  2  0
 18  8  1  0
 15 10  1  0
  1 20  1  0
  1 21  1  0
  1 22  1  0
  2 23  1  0
  2 24  1  0
  4 25  1  0
  4 26  1  0
  4 27  1  0
  7 28  1  0
  7 29  1  0
 11 30  1  0
 12 31  1  0
 13 32  1  0
 14 33  1  0
 15 34  1  0
M  CHG  1  17  -1
M  END
>  <UniqueID>  (25) 
24

>  <SMILES>  (25) 
CCN(C)C(=O)Cn1c(-c2ccccc2)n[n-]c1=S

>  <Energy>  (25) 
69.84745798671429

>  <Genealogy>  (25) 
CCN(C)C(=O)Cn1c(-c2ccccc2)n[n-]c1=S (protonated)
CCN(C)C(=O)Cn1c(-c2ccccc2)n[n-]c1=S (3D coordinates assigned)
CCN(C)C(=O)Cn1c(-c2ccccc2)n[n-]c1=S (optimized conformer: 69.84745798671429 kcal/mol)

>  <smiles>  (25) 
CCN(C)C(=O)Cn1c(-c2ccccc2)n[nH]c1=S

>  <score_type>  (25) 
oracle

>  <origin>  (25) 
adg

>  <m_score__min__energy>  (25) 
-8.1300000000000008

>  <m_primary>  (25) 
energy

$$$$
25:0
     RDKit          3D

 38 41  0  0  1  0  0  0  0  0999 V2000
   -6.5030   16.5770  -34.5250 C   0  0  0  0  0  0  0  0  0  0  0  0
   -6.5750   17.6330  -33.4760 C   0  0  0  0  0  0  0  0  0  0  0  0
   -7.3270   17.5110  -32.3560 N   0  0  0  0  0  0  0  0  0  0  0  0
   -7.1480   18.6460  -31.6470 C   0  0  0  0  0  0  0  0  0  0  0  0
   -6.3040   19.4670  -32.3000 N   0  0  0  0  0  0  0  0  0  0  0  0
   -5.8900   20.7520  -31.8420 C   0  0  0  0  0  0  0  0  0  0  0  0
   -4.5500   20.9340  -31.5960 C   0  0  0  0  0  0  0  0  0  0  0  0
   -4.0180   22.1310  -31.1480 C   0  0  0  0  0  0  0  0  0  0  0  0
   -4.9220   23.1800  -30.9500 C   0  0  0  0  0  0  0  0  0  0  0  0
   -4.3520   24.4010  -30.4900 N   0  0  0  0  0  0  0  0  0  0  0  0
   -3.7170   24.5340  -29.3750 C   0  0  0  0  0  0  0  0  0  0  0  0
   -4.4260   24.5010  -28.2280 N   0  0  0  0  0  0  0  0  0  0  0  0
   -3.8410   24.6330  -27.0140 C   0  0  0  0  0  0  0  0  0  0  0  0
   -4.5960   24.5860  -25.9950 N   0  0  0  0  0  0  0  0  0  0  0  0
   -2.4780   24.8040  -27.0080 C   0  0  0  0  0  0  0  0  0  0  0  0
   -1.8270   24.9430  -25.8050 C   0  0  0  0  0  0  0  0  0  0  0  0
   -0.4590   25.1130  -25.8460 C   0  0  0  0  0  0  0  0  0  0  0  0
    0.2500   25.1450  -27.0270 C   0  0  0  0  0  0  0  0  0  0  0  0
   -0.4160   25.0060  -28.1930 N   0  0  0  0  0  0  0  0  0  0  0  0
   -1.7680   24.8350  -28.2110 C   0  0  0  0  0  0  0  0  0  0  0  0
   -2.3800   24.7000  -29.4030 N   0  0  0  0  0  0  0  0  0  0  0  0
   -6.2530   22.9980  -31.1960 C   0  0  0  0  0  0  0  0  0  0  0  0
   -6.7710   21.7970  -31.6420 C   0  0  0  0  0  0  0  0  0  0  0  0
   -8.4770   21.5600  -31.9580 Cl  0  0  0  0  0  0  0  0  0  0  0  0
   -5.9760   18.8210  -33.4070 N   0  0  0  0  0  0  0  0  0  0  0  0
   -6.4356   15.5888  -34.0465 H   0  0  0  0  0  0  0  0  0  0  0  0
   -7.4062   16.6202  -35.1514 H   0  0  0  0  0  0  0  0  0  0  0  0
   -5.6140   16.7424  -35.1514 H   0  0  0  0  0  0  0  0  0  0  0  0
   -7.6216   18.8672  -30.6791 H   0  0  0  0  0  0  0  0  0  0  0  0
   -3.8674   20.0878  -31.7632 H   0  0  0  0  0  0  0  0  0  0  0  0
   -2.9412   22.2509  -30.9578 H   0  0  0  0  0  0  0  0  0  0  0  0
   -5.4660   24.3670  -28.2870 H   0  0  0  0  0  0  0  0  0  0  0  0
   -4.8100   25.3900  -25.3960 H   0  0  0  0  0  0  0  0  0  0  0  0
   -2.3738   24.9196  -24.8508 H   0  0  0  0  0  0  0  0  0  0  0  0
    0.0877   25.2276  -24.8984 H   0  0  0  0  0  0  0  0  0  0  0  0
    1.3415   25.2816  -27.0199 H   0  0  0  0  0  0  0  0  0  0  0  0
   -1.8490   24.7240  -30.3080 H   0  0  0  0  0  0  0  0  0  0  0  0
   -6.9402   23.8412  -31.0326 H   0  0  0  0  0  0  0  0  0  0  0  0
  1  2  1  0
  2  3  1  0
  3  4  2  0
  4  5  1  0
  5  6  1  0
  6  7  2  0
  7  8  1  0
  8  9  2  0
  9 10  1  0
 10 11  2  0
 11 12  1  0
 12 13  1  0
 13 14  2  3
 13 15  1  0
 15 16  2  0
 16 17  1  0
 17 18  2  0
 18 19  1  0
 19 20  2  0
 20 21  1  0
  9 22  1  0
 22 23  2  0
 23 24  1  0
  5 25  1  0
 25  2  2  0
 23  6  1  0
 21 11  1  0
 20 15  1  0
  1 26  1  0
  1 27  1  0
  1 28  1  0
  4 29  1  0
  7 30  1  0
  8 31  1  0
 12 32  1  0
 14 33  1  0
 16 34  1  0
 17 35  1  0
 18 36  1  0
 21 37  1  0
 22 38  1  0
M  END
>  <smiles>  (26) 
Cc1ncn(-c2ccc(N=c3[nH]c(=N)c4cccnc4[nH]3)cc2Cl)n1

>  <score_type>  (26) 
oracle

>  <origin>  (26) 
adg

>  <m_score__min__energy>  (26) 
-8.6899999999999995

>  <m_primary>  (26) 
energy

$$$$
26:0
     RDKit          3D

 37 40  0  0  0  0  0  0  0  0999 V2000
   -4.6100   15.8440  -33.9750 C   0  0  0  0  0  0  0  0  0  0  0  0
   -4.8990   17.2350  -33.5930 N   0  0  0  0  0  0  0  0  0  0  0  0
   -3.7100   18.0820  -33.7870 C   0  0  0  0  0  0  0  0  0  0  0  0
   -3.9560   19.4280  -33.1070 C   0  0  0  0  0  0  0  0  0  0  0  0
   -5.3040   19.9270  -33.4070 N   0  0  0  0  0  0  0  0  0  0  0  0
   -5.8230   21.0340  -32.6510 C   0  0  0  0  0  0  0  0  0  0  0  0
   -4.9900   22.0540  -32.2900 N   0  0  0  0  0  0  0  0  0  0  0  0
   -5.4280   23.1200  -31.5610 C   0  0  0  0  0  0  0  0  0  0  0  0
   -4.5660   24.1130  -31.2170 N   0  0  0  0  0  0  0  0  0  0  0  0
   -4.9730   25.1890  -30.4920 C   0  0  0  0  0  0  0  0  0  0  0  0
   -6.3040   25.2980  -30.0790 C   0  0  0  0  0  0  0  0  0  0  0  0
   -7.2160   24.2950  -30.4160 C   0  0  0  0  0  0  0  0  0  0  0  0
   -6.7830   23.1890  -31.1650 C   0  0  0  0  0  0  0  0  0  0  0  0
   -7.6080   22.1710  -31.5440 N   0  0  0  0  0  0  0  0  0  0  0  0
   -8.9310   22.0010  -31.3430 C   0  0  0  0  0  0  0  0  0  0  0  0
   -9.3390   20.8290  -31.9570 C   0  0  0  0  0  0  0  0  0  0  0  0
   -8.2210   20.2670  -32.5520 C   0  0  0  0  0  0  0  0  0  0  0  0
   -7.1710   21.1200  -32.2650 C   0  0  0  0  0  0  0  0  0  0  0  0
   -6.1050   19.2870  -34.4600 C   0  0  0  0  0  0  0  0  0  0  0  0
   -6.0730   17.7480  -34.3390 C   0  0  0  0  0  0  0  0  0  0  0  0
   -4.4832   15.2337  -33.0687 H   0  0  0  0  0  0  0  0  0  0  0  0
   -5.4447   15.4464  -34.5710 H   0  0  0  0  0  0  0  0  0  0  0  0
   -3.6860   15.8118  -34.5710 H   0  0  0  0  0  0  0  0  0  0  0  0
   -2.8310   17.5954  -33.3392 H   0  0  0  0  0  0  0  0  0  0  0  0
   -3.5252   18.2311  -34.8611 H   0  0  0  0  0  0  0  0  0  0  0  0
   -3.8507   19.3065  -32.0188 H   0  0  0  0  0  0  0  0  0  0  0  0
   -3.2202   20.1530  -33.4852 H   0  0  0  0  0  0  0  0  0  0  0  0
   -4.2518   25.9770  -30.2294 H   0  0  0  0  0  0  0  0  0  0  0  0
   -6.6314   26.1687  -29.4919 H   0  0  0  0  0  0  0  0  0  0  0  0
   -8.2659   24.3711  -30.0969 H   0  0  0  0  0  0  0  0  0  0  0  0
   -9.5828   22.6854  -30.7802 H   0  0  0  0  0  0  0  0  0  0  0  0
  -10.3602   20.4203  -31.9700 H   0  0  0  0  0  0  0  0  0  0  0  0
   -8.1775   19.3341  -33.1332 H   0  0  0  0  0  0  0  0  0  0  0  0
   -7.1465   19.6306  -34.3754 H   0  0  0  0  0  0  0  0  0  0  0  0
   -5.6787   19.5654  -35.4351 H   0  0  0  0  0  0  0  0  0  0  0  0
   -6.9854   17.4211  -33.8188 H   0  0  0  0  0  0  0  0  0  0  0  0
   -6.0066   17.3457  -35.3606 H   0  0  0  0  0  0  0  0  0  0  0  0
  1  2  1  0
  2  3  1  0
  3  4  1  0
  4  5  1  0
  5  6  1  0
  6  7  2  0
  7  8  1  0
  8  9  2  0
  9 10  1  0
 10 11  2  0
 11 12  1  0
 12 13  2  0
 13 14  1  0
 14 15  1  0
 15 16  2  0
 16 17  1  0
 17 18  2  0
  5 19  1  0
 19 20  1  0
 20  2  1  0
 18  6  1  0
 13  8  1  0
 18 14  1  0
  1 21  1  0
  1 22  1  0
  1 23  1  0
  3 24  1  0
  3 25  1  0
  4 26  1  0
  4 27  1  0
 10 28  1  0
 11 29  1  0
 12 30  1  0
 15 31  1  0
 16 32  1  0
 17 33  1  0
 19 34  1  0
 19 35  1  0
 20 36  1  0
 20 37  1  0
M  END
>  <UniqueID>  (27) 
25

>  <SMILES>  (27) 
CN1CCN(c2nc3ncccc3n3cccc23)CC1

>  <Energy>  (27) 
86.58235035681524

>  <Genealogy>  (27) 
CN1CCN(c2nc3ncccc3n3cccc23)CC1 (3D coordinates assigned)
CN1CCN(c2nc3ncccc3n3cccc23)CC1 (nonaromatic ring conformer: 86.58235035681524 kcal/mol)

>  <smiles>  (27) 
CN1CCN(c2nc3ncccc3n3cccc23)CC1

>  <score_type>  (27) 
oracle

>  <origin>  (27) 
adg

>  <m_score__min__energy>  (27) 
-7.8300000000000001

>  <m_primary>  (27) 
energy

$$$$
27:0
     RDKit          3D

 27 29  0  0  0  0  0  0  0  0999 V2000
   -2.4090   19.1290  -33.8540 C   0  0  0  0  0  0  0  0  0  0  0  0
   -3.8810   19.3570  -33.7260 C   0  0  0  0  0  0  0  0  0  0  0  0
   -4.3740   20.4460  -32.9860 C   0  0  0  0  0  0  0  0  0  0  0  0
   -5.7230   20.5910  -32.8930 N   0  0  0  0  0  0  0  0  0  0  0  0
   -6.4880   21.4960  -32.2450 C   0  0  0  0  0  0  0  0  0  0  0  0
   -6.0090   22.6780  -31.4970 C   0  0  0  0  0  0  0  0  0  0  0  0
   -4.6570   23.0550  -31.5240 C   0  0  0  0  0  0  0  0  0  0  0  0
   -4.2400   24.1590  -30.8470 N   0  0  0  0  0  0  0  0  0  0  0  0
   -5.1040   24.9290  -30.1340 C   0  0  0  0  0  0  0  0  0  0  0  0
   -6.4600   24.6040  -30.0940 C   0  0  0  0  0  0  0  0  0  0  0  0
   -7.3270   25.3730  -29.3920 F   0  0  0  0  0  0  0  0  0  0  0  0
   -6.9140   23.4780  -30.7850 C   0  0  0  0  0  0  0  0  0  0  0  0
   -7.8170   21.1220  -32.4110 C   0  0  0  0  0  0  0  0  0  0  0  0
   -7.8680   20.0040  -33.1670 N   0  0  0  0  0  0  0  0  0  0  0  0
   -6.5820   19.7130  -33.4380 C   0  0  0  0  0  0  0  0  0  0  0  0
   -6.1120   18.6240  -34.1640 C   0  0  0  0  0  0  0  0  0  0  0  0
   -4.7620   18.4730  -34.2890 N   0  0  0  0  0  0  0  0  0  0  0  0
   -1.9602   19.0595  -32.8521 H   0  0  0  0  0  0  0  0  0  0  0  0
   -2.2293   18.1923  -34.4020 H   0  0  0  0  0  0  0  0  0  0  0  0
   -1.9544   19.9674  -34.4020 H   0  0  0  0  0  0  0  0  0  0  0  0
   -3.6911   21.1573  -32.4983 H   0  0  0  0  0  0  0  0  0  0  0  0
   -3.9322   22.4557  -32.0945 H   0  0  0  0  0  0  0  0  0  0  0  0
   -4.7336   25.8092  -29.5881 H   0  0  0  0  0  0  0  0  0  0  0  0
   -7.9829   23.2186  -30.7705 H   0  0  0  0  0  0  0  0  0  0  0  0
   -8.6864   21.6513  -31.9939 H   0  0  0  0  0  0  0  0  0  0  0  0
   -8.7200   19.4790  -33.4650 H   0  0  0  0  0  0  0  0  0  0  0  0
   -6.8076   17.9063  -34.6234 H   0  0  0  0  0  0  0  0  0  0  0  0
  1  2  1  0
  2  3  2  0
  3  4  1  0
  4  5  1  0
  5  6  1  0
  6  7  2  0
  7  8  1  0
  8  9  2  0
  9 10  1  0
 10 11  1  0
 10 12  2  0
  5 13  2  0
 13 14  1  0
 14 15  2  0
 15 16  1  0
 16 17  2  0
 17  2  1  0
 15  4  1  0
 12  6  1  0
  1 18  1  0
  1 19  1  0
  1 20  1  0
  3 21  1  0
  7 22  1  0
  9 23  1  0
 12 24  1  0
 13 25  1  0
 14 26  1  0
 16 27  1  0
M  CHG  1  14   1
M  END
>  <UniqueID>  (28) 
26

>  <SMILES>  (28) 
Cc1cn2c(-c3cncc(F)c3)c[nH+]c2cn1

>  <Energy>  (28) 
72.37991600885398

>  <Genealogy>  (28) 
Cc1cn2c(-c3cncc(F)c3)c[nH+]c2cn1 (protonated)
Cc1cn2c(-c3cncc(F)c3)c[nH+]c2cn1 (3D coordinates assigned)
Cc1cn2c(-c3cncc(F)c3)c[nH+]c2cn1 (optimized conformer: 72.37991600885398 kcal/mol)

>  <smiles>  (28) 
Cc1cn2c(-c3cncc(F)c3)cnc2cn1

>  <score_type>  (28) 
oracle

>  <origin>  (28) 
adg

>  <m_score__min__energy>  (28) 
-6.1399999999999997

>  <m_primary>  (28) 
energy

$$$$
28:0
     RDKit          3D

 36 37  0  0  0  0  0  0  0  0999 V2000
   -6.1360   25.6760  -29.6890 C   0  0  0  0  0  0  0  0  0  0  0  0
   -5.2120   25.2820  -30.8340 C   0  0  0  0  0  0  0  0  0  0  0  0
   -5.6310   23.9630  -31.3760 N   0  0  0  0  0  0  0  0  0  0  0  0
   -7.0980   23.7910  -31.3390 C   0  0  0  0  0  0  0  0  0  0  0  0
   -7.4680   22.3790  -31.6880 C   0  0  0  0  0  0  0  0  0  0  0  0
   -8.4320   21.6910  -30.9370 C   0  0  0  0  0  0  0  0  0  0  0  0
   -8.7390   20.3690  -31.2640 C   0  0  0  0  0  0  0  0  0  0  0  0
   -8.0850   19.7470  -32.3280 C   0  0  0  0  0  0  0  0  0  0  0  0
   -7.1290   20.4620  -33.0530 C   0  0  0  0  0  0  0  0  0  0  0  0
   -6.8420   21.7480  -32.7190 N   0  0  0  0  0  0  0  0  0  0  0  0
   -4.9560   22.8450  -30.6870 C   0  0  0  0  0  0  0  0  0  0  0  0
   -4.0210   22.1380  -31.6280 C   0  0  0  0  0  0  0  0  0  0  0  0
   -4.2050   22.0910  -32.9630 N   0  0  0  0  0  0  0  0  0  0  0  0
   -3.2100   21.3170  -33.4360 C   0  0  0  0  0  0  0  0  0  0  0  0
   -2.4320   20.8990  -32.3760 C   0  0  0  0  0  0  0  0  0  0  0  0
   -2.9380   21.4270  -31.2450 N   0  0  0  0  0  0  0  0  0  0  0  0
   -2.4820   21.1530  -29.8850 C   0  0  0  0  0  0  0  0  0  0  0  0
   -5.6413   25.4651  -28.7294 H   0  0  0  0  0  0  0  0  0  0  0  0
   -6.3647   26.7499  -29.7553 H   0  0  0  0  0  0  0  0  0  0  0  0
   -7.0693   25.0976  -29.7553 H   0  0  0  0  0  0  0  0  0  0  0  0
   -5.2691   26.0402  -31.6289 H   0  0  0  0  0  0  0  0  0  0  0  0
   -4.1779   25.2155  -30.4649 H   0  0  0  0  0  0  0  0  0  0  0  0
   -7.4647   24.0225  -30.3281 H   0  0  0  0  0  0  0  0  0  0  0  0
   -7.5557   24.4715  -32.0721 H   0  0  0  0  0  0  0  0  0  0  0  0
   -8.9413   22.1882  -30.0983 H   0  0  0  0  0  0  0  0  0  0  0  0
   -9.4948   19.8190  -30.6841 H   0  0  0  0  0  0  0  0  0  0  0  0
   -8.3196   18.7055  -32.5928 H   0  0  0  0  0  0  0  0  0  0  0  0
   -6.6077   19.9838  -33.8954 H   0  0  0  0  0  0  0  0  0  0  0  0
   -4.3833   23.2377  -29.8339 H   0  0  0  0  0  0  0  0  0  0  0  0
   -5.7158   22.1314  -30.3356 H   0  0  0  0  0  0  0  0  0  0  0  0
   -4.9700   22.5380  -33.5150 H   0  0  0  0  0  0  0  0  0  0  0  0
   -3.0447   21.0603  -34.4928 H   0  0  0  0  0  0  0  0  0  0  0  0
   -1.5493   20.2461  -32.4431 H   0  0  0  0  0  0  0  0  0  0  0  0
   -3.1954   21.5817  -29.1657 H   0  0  0  0  0  0  0  0  0  0  0  0
   -2.4162   20.0656  -29.7324 H   0  0  0  0  0  0  0  0  0  0  0  0
   -1.4910   21.6053  -29.7324 H   0  0  0  0  0  0  0  0  0  0  0  0
  1  2  1  0
  2  3  1  0
  3  4  1  0
  4  5  1  0
  5  6  2  0
  6  7  1  0
  7  8  2  0
  8  9  1  0
  9 10  2  0
  3 11  1  0
 11 12  1  0
 12 13  2  0
 13 14  1  0
 14 15  2  0
 15 16  1  0
 16 17  1  0
 10  5  1  0
 16 12  1  0
  1 18  1  0
  1 19  1  0
  1 20  1  0
  2 21  1  0
  2 22  1  0
  4 23  1  0
  4 24  1  0
  6 25  1  0
  7 26  1  0
  8 27  1  0
  9 28  1  0
 11 29  1  0
 11 30  1  0
 13 31  1  0
 14 32  1  0
 15 33  1  0
 17 34  1  0
 17 35  1  0
 17 36  1  0
M  CHG  1  13   1
M  END
>  <UniqueID>  (29) 
27

>  <SMILES>  (29) 
CCN(Cc1ccccn1)Cc1[nH+]ccn1C

>  <Energy>  (29) 
64.11485862505961

>  <Genealogy>  (29) 
CCN(Cc1ccccn1)Cc1[nH+]ccn1C (protonated)
CCN(Cc1ccccn1)Cc1[nH+]ccn1C (3D coordinates assigned)
CCN(Cc1ccccn1)Cc1[nH+]ccn1C (optimized conformer: 64.11485862505961 kcal/mol)

>  <smiles>  (29) 
CCN(Cc1ccccn1)Cc1nccn1C

>  <score_type>  (29) 
oracle

>  <origin>  (29) 
adg

>  <m_score__min__energy>  (29) 
-5.25

>  <m_primary>  (29) 
energy

$$$$
29:0
     RDKit          3D

 37 39  0  0  0  0  0  0  0  0999 V2000
   -7.6395   23.8439  -32.0891 H   0  0  0  0  0  0  0  0  0  0  0  0
   -7.1250   22.9680  -31.6670 C   0  0  0  0  0  0  0  0  0  0  0  0
   -6.7380   23.0300  -30.2410 C   0  0  0  0  0  0  0  0  0  0  0  0
   -7.6050   22.7270  -29.3780 O   0  0  0  0  0  0  0  0  0  0  0  0
   -5.3940   23.4730  -29.7860 C   0  0  0  0  0  0  0  0  0  0  0  0
   -4.7430   22.7750  -28.7600 C   0  0  0  0  0  0  0  0  0  0  0  0
   -5.2448   21.9249  -28.2747 H   0  0  0  0  0  0  0  0  0  0  0  0
   -3.4970   23.1400  -28.3600 N   0  0  0  0  0  0  0  0  0  0  0  0
   -3.0520   22.5980  -27.5880 H   0  0  0  0  0  0  0  0  0  0  0  0
   -2.8550   24.1970  -28.9370 C   0  0  0  0  0  0  0  0  0  0  0  0
   -1.5220   24.5740  -28.5290 N   0  0  0  0  0  0  0  0  0  0  0  0
   -0.3940   23.6860  -28.8370 C   0  0  0  0  0  0  0  0  0  0  0  0
   -0.7340   22.6405  -28.7997 H   0  0  0  0  0  0  0  0  0  0  0  0
   -0.0155   23.9224  -29.8424 H   0  0  0  0  0  0  0  0  0  0  0  0
    0.7310   23.8880  -27.8200 C   0  0  0  0  0  0  0  0  0  0  0  0
    0.4024   23.5126  -26.8396 H   0  0  0  0  0  0  0  0  0  0  0  0
    1.6192   23.3373  -28.1632 H   0  0  0  0  0  0  0  0  0  0  0  0
    1.0640   25.2570  -27.7040 O   0  0  0  0  0  0  0  0  0  0  0  0
   -0.0290   25.9640  -27.1530 C   0  0  0  0  0  0  0  0  0  0  0  0
   -0.3190   25.4939  -26.2017 H   0  0  0  0  0  0  0  0  0  0  0  0
    0.2752   27.0083  -26.9891 H   0  0  0  0  0  0  0  0  0  0  0  0
   -1.2280   25.9480  -28.1060 C   0  0  0  0  0  0  0  0  0  0  0  0
   -2.1062   26.3655  -27.5918 H   0  0  0  0  0  0  0  0  0  0  0  0
   -0.9889   26.5528  -28.9931 H   0  0  0  0  0  0  0  0  0  0  0  0
   -3.4870   24.9090  -29.9090 N   0  0  0  0  0  0  0  0  0  0  0  0
   -4.7310   24.5820  -30.3400 C   0  0  0  0  0  0  0  0  0  0  0  0
   -5.2800   25.2920  -31.2230 O   0  0  0  0  0  0  0  0  0  0  0  0
   -6.9000   21.9310  -32.4880 C   0  0  0  0  0  0  0  0  0  0  0  0
   -6.1886   22.0838  -33.3129 H   0  0  0  0  0  0  0  0  0  0  0  0
   -7.5300   20.6030  -32.3730 C   0  0  0  0  0  0  0  0  0  0  0  0
   -9.1400   20.3510  -31.9660 S   0  0  0  0  0  0  0  0  0  0  0  0
   -9.0710   18.6710  -31.9550 C   0  0  0  0  0  0  0  0  0  0  0  0
   -9.9124   17.9927  -31.7502 H   0  0  0  0  0  0  0  0  0  0  0  0
   -7.7690   18.2870  -32.2490 C   0  0  0  0  0  0  0  0  0  0  0  0
   -7.4493   17.2359  -32.3045 H   0  0  0  0  0  0  0  0  0  0  0  0
   -6.9020   19.3640  -32.4680 C   0  0  0  0  0  0  0  0  0  0  0  0
   -5.8319   19.2435  -32.6926 H   0  0  0  0  0  0  0  0  0  0  0  0
  1  2  1  0
  2  3  1  0
  3  4  2  0
  3  5  1  0
  5  6  2  0
  6  7  1  0
  6  8  1  0
  8  9  1  0
  8 10  1  0
 10 11  1  0
 11 12  1  0
 12 13  1  0
 12 14  1  0
 12 15  1  0
 15 16  1  0
 15 17  1  0
 15 18  1  0
 18 19  1  0
 19 20  1  0
 19 21  1  0
 19 22  1  0
 22 23  1  0
 22 24  1  0
 10 25  2  0
 25 26  1  0
 26 27  2  0
  2 28  2  0
 28 29  1  0
 28 30  1  0
 30 31  1  0
 31 32  1  0
 32 33  1  0
 32 34  2  0
 34 35  1  0
 34 36  1  0
 36 37  1  0
 26  5  1  0
 36 30  2  0
 22 11  1  0
M  END
>  <UniqueID>  (30) 
28

>  <SMILES>  (30) 
O=C(/C=C\c1cccs1)c1c[nH]c(N2CCOCC2)nc1=O

>  <Energy>  (30) 
79.13475503469334

>  <Genealogy>  (30) 
O=C(/C=C\c1cccs1)c1c[nH]c(N2CCOCC2)nc1=O (cis-trans isomerization)
O=C(/C=C\c1cccs1)c1c[nH]c(N2CCOCC2)nc1=O (3D coordinates assigned)
O=C(/C=C\c1cccs1)c1c[nH]c(N2CCOCC2)nc1=O (nonaromatic ring conformer: 79.13475503469334 kcal/mol)

>  <smiles>  (30) 
O=C(C=Cc1cccs1)c1c[nH]c(N2CCOCC2)nc1=O

>  <score_type>  (30) 
oracle

>  <origin>  (30) 
adg

>  <m_score__min__energy>  (30) 
-7.96

>  <m_primary>  (30) 
energy

$$$$
30:0
     RDKit          3D

 40 43  0  0  0  0  0  0  0  0999 V2000
   -8.4400   22.8910  -31.2200 O   0  0  0  0  0  0  0  0  0  0  0  0
   -7.2560   22.5000  -31.3820 C   0  0  0  0  0  0  0  0  0  0  0  0
   -7.0510   21.2380  -31.9420 C   0  0  0  0  0  0  0  0  0  0  0  0
   -5.7460   20.7440  -32.0800 C   0  0  0  0  0  0  0  0  0  0  0  0
   -5.4710   19.4110  -32.6730 C   0  0  0  0  0  0  0  0  0  0  0  0
   -4.1880   19.0530  -33.1300 C   0  0  0  0  0  0  0  0  0  0  0  0
   -3.9600   17.7930  -33.6910 C   0  0  0  0  0  0  0  0  0  0  0  0
   -5.0070   16.8620  -33.7990 C   0  0  0  0  0  0  0  0  0  0  0  0
   -4.8000   15.5720  -34.3990 N   0  0  0  0  0  0  0  0  0  0  0  0
   -4.7140   14.3390  -33.6650 C   0  0  0  0  0  0  0  0  0  0  0  0
   -4.5860   14.3740  -32.2680 C   0  0  0  0  0  0  0  0  0  0  0  0
   -4.4730   13.1870  -31.5370 C   0  0  0  0  0  0  0  0  0  0  0  0
   -4.4710   11.9560  -32.1980 C   0  0  0  0  0  0  0  0  0  0  0  0
   -4.5760   11.9100  -33.5910 C   0  0  0  0  0  0  0  0  0  0  0  0
   -4.6890   13.0940  -34.3240 C   0  0  0  0  0  0  0  0  0  0  0  0
   -6.2920   17.2300  -33.3790 C   0  0  0  0  0  0  0  0  0  0  0  0
   -6.5220   18.4890  -32.8190 C   0  0  0  0  0  0  0  0  0  0  0  0
   -4.7220   21.4880  -31.6770 O   0  0  0  0  0  0  0  0  0  0  0  0
   -4.8600   22.6970  -31.1440 C   0  0  0  0  0  0  0  0  0  0  0  0
   -3.7140   23.3770  -30.7250 C   0  0  0  0  0  0  0  0  0  0  0  0
   -3.8150   24.6380  -30.1440 C   0  0  0  0  0  0  0  0  0  0  0  0
   -2.6710   25.2990  -29.7150 O   0  0  0  0  0  0  0  0  0  0  0  0
   -5.0640   25.2390  -29.9990 C   0  0  0  0  0  0  0  0  0  0  0  0
   -6.2300   24.6000  -30.4390 C   0  0  0  0  0  0  0  0  0  0  0  0
   -7.4190   25.3250  -30.3220 O   0  0  0  0  0  0  0  0  0  0  0  0
   -6.1450   23.2860  -30.9900 C   0  0  0  0  0  0  0  0  0  0  0  0
   -7.9087   20.6342  -32.2733 H   0  0  0  0  0  0  0  0  0  0  0  0
   -3.3586   19.7705  -33.0449 H   0  0  0  0  0  0  0  0  0  0  0  0
   -2.9545   17.5286  -34.0502 H   0  0  0  0  0  0  0  0  0  0  0  0
   -4.7080   15.5270  -35.4400 H   0  0  0  0  0  0  0  0  0  0  0  0
   -4.5745   15.3413  -31.7444 H   0  0  0  0  0  0  0  0  0  0  0  0
   -4.3856   13.2226  -30.4411 H   0  0  0  0  0  0  0  0  0  0  0  0
   -4.3868   11.0227  -31.6219 H   0  0  0  0  0  0  0  0  0  0  0  0
   -4.5697   10.9405  -34.1107 H   0  0  0  0  0  0  0  0  0  0  0  0
   -4.7588   13.0540  -35.4211 H   0  0  0  0  0  0  0  0  0  0  0  0
   -7.1263   16.5220  -33.4911 H   0  0  0  0  0  0  0  0  0  0  0  0
   -7.5354   18.7615  -32.4891 H   0  0  0  0  0  0  0  0  0  0  0  0
   -2.7252   22.9130  -30.8550 H   0  0  0  0  0  0  0  0  0  0  0  0
   -5.1352   26.2320  -29.5311 H   0  0  0  0  0  0  0  0  0  0  0  0
   -8.3120   25.0390  -30.6930 H   0  0  0  0  0  0  0  0  0  0  0  0
  1  2  2  0
  2  3  1  0
  3  4  2  0
  4  5  1  0
  5  6  2  0
  6  7  1  0
  7  8  2  0
  8  9  1  0
  9 10  1  0
 10 11  2  0
 11 12  1  0
 12 13  2  0
 13 14  1  0
 14 15  2  0
  8 16  1  0
 16 17  2  0
  4 18  1  0
 18 19  1  0
 19 20  2  0
 20 21  1  0
 21 22  1  0
 21 23  2  0
 23 24  1  0
 24 25  1  0
 24 26  2  0
 26  2  1  0
 17  5  1  0
 26 19  1  0
 15 10  1  0
  3 27  1  0
  6 28  1  0
  7 29  1  0
  9 30  1  0
 11 31  1  0
 12 32  1  0
 13 33  1  0
 14 34  1  0
 15 35  1  0
 16 36  1  0
 17 37  1  0
 20 38  1  0
 23 39  1  0
 25 40  1  0
M  CHG  1  22  -1
M  END
>  <UniqueID>  (31) 
29

>  <SMILES>  (31) 
O=c1cc(-c2ccc(Nc3ccccc3)cc2)oc2cc([O-])cc(O)c12

>  <Energy>  (31) 
65.53794453864889

>  <Genealogy>  (31) 
O=c1cc(-c2ccc(Nc3ccccc3)cc2)oc2cc([O-])cc(O)c12 (protonated)
O=c1cc(-c2ccc(Nc3ccccc3)cc2)oc2cc([O-])cc(O)c12 (3D coordinates assigned)
O=c1cc(-c2ccc(Nc3ccccc3)cc2)oc2cc([O-])cc(O)c12 (optimized conformer: 65.53794453864889 kcal/mol)

>  <smiles>  (31) 
O=c1cc(-c2ccc(Nc3ccccc3)cc2)oc2cc(O)cc(O)c12

>  <score_type>  (31) 
oracle

>  <origin>  (31) 
adg

>  <m_score__min__energy>  (31) 
-9.8300000000000001

>  <m_primary>  (31) 
energy

$$$$
31:0
     RDKit          3D

 45 47  0  0  0  0  0  0  0  0999 V2000
   -6.7630   25.1060  -29.7780 C   0  0  0  0  0  0  0  0  0  0  0  0
   -5.6340   24.3520  -30.3930 C   0  0  0  0  0  0  0  0  0  0  0  0
   -4.3870   24.8520  -30.5360 N   0  0  0  0  0  0  0  0  0  0  0  0
   -3.5300   23.9850  -31.0710 N   0  0  0  0  0  0  0  0  0  0  0  0
   -4.0870   22.7840  -31.3510 C   0  0  0  0  0  0  0  0  0  0  0  0
   -3.3650   21.6870  -31.9380 N   0  0  0  0  0  0  0  0  0  0  0  0
   -3.1770   21.6030  -33.3890 C   0  0  0  0  0  0  0  0  0  0  0  0
   -3.3890   20.1560  -33.8400 C   0  0  0  0  0  0  0  0  0  0  0  0
   -2.5040   19.2040  -33.1280 N   0  0  0  0  0  0  0  0  0  0  0  0
   -3.0560   17.8320  -33.0510 C   0  0  0  0  0  0  0  0  0  0  0  0
   -4.4060   17.6730  -33.7790 C   0  0  0  0  0  0  0  0  0  0  0  0
   -5.4380   16.9630  -32.8920 C   0  0  0  0  0  0  0  0  0  0  0  0
   -6.8730   17.2070  -33.3780 C   0  0  0  0  0  0  0  0  0  0  0  0
   -7.4290   18.4370  -32.8030 N   0  0  0  0  0  0  0  0  0  0  0  0
   -8.4430   18.4160  -31.7630 C   0  0  0  0  0  0  0  0  0  0  0  0
   -8.7680   20.1360  -31.2310 S   0  0  0  0  0  0  0  0  0  0  0  0
   -7.7640   20.8620  -32.5710 C   0  0  0  0  0  0  0  0  0  0  0  0
   -7.0960   19.7400  -33.2610 C   0  0  0  0  0  0  0  0  0  0  0  0
   -6.2930   19.9300  -34.2140 O   0  0  0  0  0  0  0  0  0  0  0  0
   -1.8800   19.6920  -31.8730 C   0  0  0  0  0  0  0  0  0  0  0  0
   -2.7910   20.6440  -31.0780 C   0  0  0  0  0  0  0  0  0  0  0  0
   -5.7220   22.7570  -30.9250 S   0  0  0  0  0  0  0  0  0  0  0  0
   -6.6849   25.0538  -28.6820 H   0  0  0  0  0  0  0  0  0  0  0  0
   -6.7199   26.1572  -30.0990 H   0  0  0  0  0  0  0  0  0  0  0  0
   -7.7175   24.6634  -30.0990 H   0  0  0  0  0  0  0  0  0  0  0  0
   -3.9048   22.2560  -33.8929 H   0  0  0  0  0  0  0  0  0  0  0  0
   -2.1583   21.9262  -33.6494 H   0  0  0  0  0  0  0  0  0  0  0  0
   -4.4353   19.8763  -33.6477 H   0  0  0  0  0  0  0  0  0  0  0  0
   -3.1459   20.1009  -34.9114 H   0  0  0  0  0  0  0  0  0  0  0  0
   -2.3318   17.1389  -33.5041 H   0  0  0  0  0  0  0  0  0  0  0  0
   -3.2327   17.6124  -31.9877 H   0  0  0  0  0  0  0  0  0  0  0  0
   -4.7883   18.6691  -34.0464 H   0  0  0  0  0  0  0  0  0  0  0  0
   -4.2447   17.0631  -34.6801 H   0  0  0  0  0  0  0  0  0  0  0  0
   -5.2362   15.8818  -32.9070 H   0  0  0  0  0  0  0  0  0  0  0  0
   -5.3490   17.3683  -31.8733 H   0  0  0  0  0  0  0  0  0  0  0  0
   -6.8700   17.2936  -34.4746 H   0  0  0  0  0  0  0  0  0  0  0  0
   -7.4971   16.3604  -33.0560 H   0  0  0  0  0  0  0  0  0  0  0  0
   -9.3678   17.9685  -32.1560 H   0  0  0  0  0  0  0  0  0  0  0  0
   -8.0932   17.8179  -30.9087 H   0  0  0  0  0  0  0  0  0  0  0  0
   -8.4097   21.4083  -33.2743 H   0  0  0  0  0  0  0  0  0  0  0  0
   -7.0269   21.5734  -32.1702 H   0  0  0  0  0  0  0  0  0  0  0  0
   -1.6420   18.8246  -31.2398 H   0  0  0  0  0  0  0  0  0  0  0  0
   -0.9784   20.2569  -32.1523 H   0  0  0  0  0  0  0  0  0  0  0  0
   -3.6090   20.0624  -30.6279 H   0  0  0  0  0  0  0  0  0  0  0  0
   -2.1837   21.1334  -30.3023 H   0  0  0  0  0  0  0  0  0  0  0  0
  1  2  1  0
  2  3  2  0
  3  4  1  0
  4  5  2  0
  5  6  1  0
  6  7  1  0
  7  8  1  0
  8  9  1  0
  9 10  1  0
 10 11  1  0
 11 12  1  0
 12 13  1  0
 13 14  1  0
 14 15  1  0
 15 16  1  0
 16 17  1  0
 17 18  1  0
 18 19  2  0
  9 20  1  0
 20 21  1  0
  5 22  1  0
 22  2  1  0
 21  6  1  0
 18 14  1  0
  1 23  1  0
  1 24  1  0
  1 25  1  0
  7 26  1  0
  7 27  1  0
  8 28  1  0
  8 29  1  0
 10 30  1  0
 10 31  1  0
 11 32  1  0
 11 33  1  0
 12 34  1  0
 12 35  1  0
 13 36  1  0
 13 37  1  0
 15 38  1  0
 15 39  1  0
 17 40  1  0
 17 41  1  0
 20 42  1  0
 20 43  1  0
 21 44  1  0
 21 45  1  0
M  END
>  <UniqueID>  (32) 
30

>  <SMILES>  (32) 
Cc1nnc(N2CCN(CCCCN3CSCC3=O)CC2)s1

>  <Energy>  (32) 
76.87542764696899

>  <Genealogy>  (32) 
Cc1nnc(N2CCN(CCCCN3CSCC3=O)CC2)s1 (3D coordinates assigned)
Cc1nnc(N2CCN(CCCCN3CSCC3=O)CC2)s1 (nonaromatic ring conformer: 76.87542764696899 kcal/mol)

>  <smiles>  (32) 
Cc1nnc(N2CCN(CCCCN3CSCC3=O)CC2)s1

>  <score_type>  (32) 
oracle

>  <origin>  (32) 
adg

>  <m_score__min__energy>  (32) 
-7.8899999999999997

>  <m_primary>  (32) 
energy

$$$$
32:0
     RDKit          3D

 24 24  0  0  0  0  0  0  0  0999 V2000
   -6.1400   25.6270  -29.5390 C   0  0  0  0  0  0  0  0  0  0  0  0
   -5.2610   25.6700  -30.7850 C   0  0  0  0  0  0  0  0  0  0  0  0
   -3.9340   25.1210  -30.5070 N   0  0  0  0  0  0  0  0  0  0  0  0
   -3.7120   23.9410  -29.7170 C   0  0  0  0  0  0  0  0  0  0  0  0
   -2.3060   23.7840  -28.8940 S   0  0  0  0  0  0  0  0  0  0  0  0
   -4.7370   22.9550  -29.5380 N   0  0  0  0  0  0  0  0  0  0  0  0
   -5.4660   22.3560  -30.6230 C   0  0  0  0  0  0  0  0  0  0  0  0
   -4.8090   21.6480  -31.6480 C   0  0  0  0  0  0  0  0  0  0  0  0
   -5.5450   21.0640  -32.6840 C   0  0  0  0  0  0  0  0  0  0  0  0
   -6.9370   21.1710  -32.7030 C   0  0  0  0  0  0  0  0  0  0  0  0
   -7.5980   21.8590  -31.6820 C   0  0  0  0  0  0  0  0  0  0  0  0
   -6.8670   22.4440  -30.6430 C   0  0  0  0  0  0  0  0  0  0  0  0
   -5.5052   25.6581  -28.6412 H   0  0  0  0  0  0  0  0  0  0  0  0
   -6.8182   26.4930  -29.5387 H   0  0  0  0  0  0  0  0  0  0  0  0
   -6.7304   24.6989  -29.5387 H   0  0  0  0  0  0  0  0  0  0  0  0
   -5.7360   25.0782  -31.5814 H   0  0  0  0  0  0  0  0  0  0  0  0
   -5.1488   26.7180  -31.0999 H   0  0  0  0  0  0  0  0  0  0  0  0
   -3.1040   25.6800  -30.8080 H   0  0  0  0  0  0  0  0  0  0  0  0
   -4.8930   22.5840  -28.5730 H   0  0  0  0  0  0  0  0  0  0  0  0
   -3.7131   21.5540  -31.6337 H   0  0  0  0  0  0  0  0  0  0  0  0
   -5.0258   20.5189  -33.4860 H   0  0  0  0  0  0  0  0  0  0  0  0
   -7.5130   20.7140  -33.5212 H   0  0  0  0  0  0  0  0  0  0  0  0
   -8.6949   21.9406  -31.6955 H   0  0  0  0  0  0  0  0  0  0  0  0
   -7.3929   22.9762  -29.8367 H   0  0  0  0  0  0  0  0  0  0  0  0
  1  2  1  0
  2  3  1  0
  3  4  1  0
  4  5  2  0
  4  6  1  0
  6  7  1  0
  7  8  2  0
  8  9  1  0
  9 10  2  0
 10 11  1  0
 11 12  2  0
 12  7  1  0
  1 13  1  0
  1 14  1  0
  1 15  1  0
  2 16  1  0
  2 17  1  0
  3 18  1  0
  6 19  1  0
  8 20  1  0
  9 21  1  0
 10 22  1  0
 11 23  1  0
 12 24  1  0
M  END
>  <UniqueID>  (33) 
31

>  <SMILES>  (33) 
CCNC(=S)Nc1ccccc1

>  <Energy>  (33) 
22.855118799307245

>  <Genealogy>  (33) 
CCNC(=S)Nc1ccccc1 (3D coordinates assigned)
CCNC(=S)Nc1ccccc1 (optimized conformer: 22.855118799307245 kcal/mol)

>  <smiles>  (33) 
CCNC(=S)Nc1ccccc1

>  <score_type>  (33) 
oracle

>  <origin>  (33) 
adg

>  <m_score__min__energy>  (33) 
-5.2999999999999998

>  <m_primary>  (33) 
energy

$$$$
33:0
     RDKit          3D

119125  0  0  0  0  0  0  0  0999 V2000
    0.1200   24.7000  -24.6320 C   0  0  0  0  0  0  0  0  0  0  0  0
   -0.5360   26.0330  -24.3770 C   0  0  0  0  0  0  0  0  0  0  0  0
   -0.1330   26.8390  -23.1660 C   0  0  0  0  0  0  0  0  0  0  0  0
   -1.4750   26.4660  -25.2490 C   0  0  0  0  0  0  0  0  0  0  0  0
   -2.7360   25.7160  -25.6240 C   0  0  0  0  0  0  0  0  0  0  0  0
   -2.6470   25.1590  -27.0570 C   0  0  0  0  0  0  0  0  0  0  0  0
   -3.5070   23.8800  -27.2650 C   0  0  1  0  0  0  0  0  0  0  0  0
   -4.5800   24.0970  -28.3540 C   0  0  0  0  0  0  0  0  0  0  0  0
   -2.7520   22.5100  -27.4620 C   0  0  2  0  0  0  0  0  0  0  0  0
   -1.4800   22.3220  -26.6000 C   0  0  0  0  0  0  0  0  0  0  0  0
   -0.5190   21.4610  -27.4270 C   0  0  0  0  0  0  0  0  0  0  0  0
   -0.8340   21.8090  -28.8950 C   0  0  1  0  0  0  0  0  0  0  0  0
   -0.1310   23.1820  -29.1700 C   0  0  0  0  0  0  0  0  0  0  0  0
   -0.3010   20.8270  -30.0090 C   0  0  1  0  0  0  0  0  0  0  0  0
   -0.0820   19.3750  -29.5190 C   0  0  0  0  0  0  0  0  0  0  0  0
    0.3420   18.4540  -30.6550 C   0  0  0  0  0  0  0  0  0  0  0  0
   -0.8040   18.3100  -31.6800 C   0  0  2  0  0  0  0  0  0  0  0  0
   -0.5110   17.3120  -32.8770 C   0  0  0  0  0  0  0  0  0  0  0  0
    0.9570   17.4040  -33.3560 C   0  0  0  0  0  0  0  0  0  0  0  0
   -0.7500   15.8630  -32.3730 C   0  0  0  0  0  0  0  0  0  0  0  0
   -1.4460   17.6200  -34.1140 C   0  0  1  0  0  0  0  0  0  0  0  0
   -1.6550   16.4490  -34.8930 O   0  0  0  0  0  0  0  0  0  0  0  0
   -3.0280   16.1620  -35.1140 C   0  0  1  0  0  0  0  0  0  0  0  0
   -3.1580   15.5400  -36.5140 C   0  0  0  0  0  0  0  0  0  0  0  0
   -2.5170   14.1440  -36.5930 C   0  0  0  0  0  0  0  0  0  0  0  0
   -2.8960   13.2210  -35.4150 C   0  0  0  0  0  0  0  0  0  0  0  0
   -3.9750   13.8160  -34.5030 C   0  0  0  0  0  0  0  0  0  0  0  0
   -3.5490   15.2100  -33.9860 C   0  0  2  0  0  0  0  0  0  0  0  0
   -4.6480   15.8580  -33.1150 C   0  0  0  0  0  0  0  0  0  0  0  0
   -5.7950   16.4250  -33.9020 C   0  0  0  0  0  0  0  0  0  0  0  0
   -6.9200   15.8550  -33.8730 O   0  0  0  0  0  0  0  0  0  0  0  0
   -5.5960   17.5670  -34.6850 O   0  0  0  0  0  0  0  0  0  0  0  0
   -6.0630   18.8640  -34.3160 C   0  0  0  0  0  0  0  0  0  0  0  0
   -6.2020   19.0090  -32.7950 C   0  0  0  0  0  0  0  0  0  0  0  0
   -6.5130   20.4270  -32.3890 C   0  0  0  0  0  0  0  0  0  0  0  0
   -7.8250   20.7960  -32.0440 C   0  0  0  0  0  0  0  0  0  0  0  0
   -8.1140   22.1170  -31.6870 C   0  0  0  0  0  0  0  0  0  0  0  0
   -7.0950   23.0730  -31.6610 C   0  0  0  0  0  0  0  0  0  0  0  0
   -5.7820   22.7080  -31.9790 C   0  0  0  0  0  0  0  0  0  0  0  0
   -5.4910   21.3870  -32.3300 C   0  0  0  0  0  0  0  0  0  0  0  0
   -2.8160   18.1560  -33.6670 C   0  0  0  0  0  0  0  0  0  0  0  0
   -2.6830   19.5440  -33.0190 C   0  0  0  0  0  0  0  0  0  0  0  0
   -1.3880   19.6620  -32.1740 C   0  0  2  0  0  0  0  0  0  0  0  0
   -0.3900   20.7260  -32.6200 C   0  0  0  0  0  0  0  0  0  0  0  0
   -1.1840   20.9380  -31.3110 C   0  0  2  0  0  0  0  0  0  0  0  0
   -2.1700   22.1550  -31.4640 C   0  0  0  0  0  0  0  0  0  0  0  0
   -2.8600   22.6600  -30.1620 C   0  0  0  0  0  0  0  0  0  0  0  0
   -2.4040   21.9040  -28.8890 C   0  0  2  0  0  0  0  0  0  0  0  0
   -3.1170   20.5060  -28.9310 C   0  0  0  0  0  0  0  0  0  0  0  0
    0.3570   24.2183  -23.6719 H   0  0  0  0  0  0  0  0  0  0  0  0
   -0.5650   24.0579  -25.2051 H   0  0  0  0  0  0  0  0  0  0  0  0
    1.0467   24.8510  -25.2051 H   0  0  0  0  0  0  0  0  0  0  0  0
   -0.4072   26.2906  -22.2527 H   0  0  0  0  0  0  0  0  0  0  0  0
    0.9543   27.0052  -23.1814 H   0  0  0  0  0  0  0  0  0  0  0  0
   -0.6524   27.8085  -23.1814 H   0  0  0  0  0  0  0  0  0  0  0  0
   -1.3089   27.4436  -25.7251 H   0  0  0  0  0  0  0  0  0  0  0  0
   -2.8788   24.8808  -24.9226 H   0  0  0  0  0  0  0  0  0  0  0  0
   -3.5846   26.4141  -25.5736 H   0  0  0  0  0  0  0  0  0  0  0  0
   -2.9950   25.9333  -27.7565 H   0  0  0  0  0  0  0  0  0  0  0  0
   -1.5977   24.8838  -27.2390 H   0  0  0  0  0  0  0  0  0  0  0  0
   -3.9826   23.7474  -26.2820 H   0  0  0  0  0  0  0  0  0  0  0  0
   -5.5517   24.2935  -27.8773 H   0  0  0  0  0  0  0  0  0  0  0  0
   -4.2983   24.9564  -28.9802 H   0  0  0  0  0  0  0  0  0  0  0  0
   -4.6544   23.1957  -28.9802 H   0  0  0  0  0  0  0  0  0  0  0  0
   -3.6291   21.9385  -27.1243 H   0  0  0  0  0  0  0  0  0  0  0  0
   -1.0225   23.2977  -26.3795 H   0  0  0  0  0  0  0  0  0  0  0  0
   -1.7174   21.8428  -25.6388 H   0  0  0  0  0  0  0  0  0  0  0  0
    0.5256   21.7081  -27.1867 H   0  0  0  0  0  0  0  0  0  0  0  0
   -0.6443   20.3878  -27.2208 H   0  0  0  0  0  0  0  0  0  0  0  0
    0.1165   23.6653  -28.2134 H   0  0  0  0  0  0  0  0  0  0  0  0
    0.7915   23.0130  -29.7449 H   0  0  0  0  0  0  0  0  0  0  0  0
   -0.8074   23.8316  -29.7449 H   0  0  0  0  0  0  0  0  0  0  0  0
    0.7146   21.1563  -30.2736 H   0  0  0  0  0  0  0  0  0  0  0  0
    0.7023   19.3737  -28.7477 H   0  0  0  0  0  0  0  0  0  0  0  0
   -1.0346   19.0029  -29.1139 H   0  0  0  0  0  0  0  0  0  0  0  0
    1.2259   18.8768  -31.1550 H   0  0  0  0  0  0  0  0  0  0  0  0
    0.5822   17.4627  -30.2431 H   0  0  0  0  0  0  0  0  0  0  0  0
   -1.5980   17.8283  -31.0904 H   0  0  0  0  0  0  0  0  0  0  0  0
    1.6255   17.4459  -32.4834 H   0  0  0  0  0  0  0  0  0  0  0  0
    1.2009   16.5194  -33.9626 H   0  0  0  0  0  0  0  0  0  0  0  0
    1.0885   18.3121  -33.9626 H   0  0  0  0  0  0  0  0  0  0  0  0
   -0.7517   15.8530  -31.2730 H   0  0  0  0  0  0  0  0  0  0  0  0
   -1.7200   15.5009  -32.7444 H   0  0  0  0  0  0  0  0  0  0  0  0
    0.0523   15.2086  -32.7444 H   0  0  0  0  0  0  0  0  0  0  0  0
   -0.9349   18.3864  -34.7151 H   0  0  0  0  0  0  0  0  0  0  0  0
   -3.6448   17.0720  -35.0755 H   0  0  0  0  0  0  0  0  0  0  0  0
   -4.2254   15.4541  -36.7655 H   0  0  0  0  0  0  0  0  0  0  0  0
   -2.6301   16.1939  -37.2237 H   0  0  0  0  0  0  0  0  0  0  0  0
   -2.8418   13.6649  -37.5284 H   0  0  0  0  0  0  0  0  0  0  0  0
   -1.4271   14.2873  -36.5521 H   0  0  0  0  0  0  0  0  0  0  0  0
   -3.2686   12.2696  -35.8225 H   0  0  0  0  0  0  0  0  0  0  0  0
   -1.9917   13.0836  -34.8040 H   0  0  0  0  0  0  0  0  0  0  0  0
   -4.9130   13.9125  -35.0694 H   0  0  0  0  0  0  0  0  0  0  0  0
   -4.1157   13.1478  -33.6406 H   0  0  0  0  0  0  0  0  0  0  0  0
   -2.6797   15.0421  -33.3333 H   0  0  0  0  0  0  0  0  0  0  0  0
   -5.0428   15.0930  -32.4302 H   0  0  0  0  0  0  0  0  0  0  0  0
   -4.1790   16.6995  -32.5841 H   0  0  0  0  0  0  0  0  0  0  0  0
   -5.3489   19.6167  -34.6815 H   0  0  0  0  0  0  0  0  0  0  0  0
   -7.0564   19.0099  -34.7652 H   0  0  0  0  0  0  0  0  0  0  0  0
   -7.0150   18.3540  -32.4486 H   0  0  0  0  0  0  0  0  0  0  0  0
   -5.2420   18.7274  -32.3377 H   0  0  0  0  0  0  0  0  0  0  0  0
   -8.6270   20.0432  -32.0549 H   0  0  0  0  0  0  0  0  0  0  0  0
   -9.1436   22.4036  -31.4266 H   0  0  0  0  0  0  0  0  0  0  0  0
   -7.3253   24.1140  -31.3902 H   0  0  0  0  0  0  0  0  0  0  0  0
   -4.9798   23.4602  -31.9527 H   0  0  0  0  0  0  0  0  0  0  0  0
   -4.4551   21.0980  -32.5613 H   0  0  0  0  0  0  0  0  0  0  0  0
   -3.4760   18.2307  -34.5438 H   0  0  0  0  0  0  0  0  0  0  0  0
   -3.2369   17.4626  -32.9240 H   0  0  0  0  0  0  0  0  0  0  0  0
   -2.6621   20.3066  -33.8114 H   0  0  0  0  0  0  0  0  0  0  0  0
   -3.5433   19.6934  -32.3500 H   0  0  0  0  0  0  0  0  0  0  0  0
    0.6891   20.5167  -32.5784 H   0  0  0  0  0  0  0  0  0  0  0  0
   -0.2440   21.3122  -33.5393 H   0  0  0  0  0  0  0  0  0  0  0  0
   -1.6002   22.9952  -31.8875 H   0  0  0  0  0  0  0  0  0  0  0  0
   -2.9872   21.7883  -32.1025 H   0  0  0  0  0  0  0  0  0  0  0  0
   -2.6266   23.7275  -30.0356 H   0  0  0  0  0  0  0  0  0  0  0  0
   -3.9391   22.4801  -30.2765 H   0  0  0  0  0  0  0  0  0  0  0  0
   -3.2961   20.1548  -27.9041 H   0  0  0  0  0  0  0  0  0  0  0  0
   -4.0773   20.5999  -29.4592 H   0  0  0  0  0  0  0  0  0  0  0  0
   -2.4771   19.7838  -29.4592 H   0  0  0  0  0  0  0  0  0  0  0  0
  1  2  1  0
  2  3  1  0
  2  4  2  3
  4  5  1  0
  5  6  1  0
  6  7  1  0
  7  8  1  0
  7  9  1  0
  9 10  1  0
 10 11  1  0
 11 12  1  0
 12 13  1  6
 12 14  1  0
 14 15  1  0
 15 16  1  0
 16 17  1  0
 17 18  1  0
 18 19  1  0
 18 20  1  0
 18 21  1  0
 21 22  1  0
 22 23  1  0
 23 24  1  0
 24 25  1  0
 25 26  1  0
 26 27  1  0
 27 28  1  0
 28 29  1  0
 29 30  1  0
 30 31  2  0
 30 32  1  0
 32 33  1  0
 33 34  1  0
 34 35  1  0
 35 36  2  0
 36 37  1  0
 37 38  2  0
 38 39  1  0
 39 40  2  0
 21 41  1  0
 41 42  1  0
 43 42  1  6
 43 44  1  0
 45 44  1  6
 45 46  1  0
 46 47  1  0
 47 48  1  0
 48 49  1  1
 48  9  1  0
 48 12  1  0
 45 14  1  0
 43 17  1  0
 28 23  1  0
 40 35  1  0
 45 43  1  0
  1 50  1  0
  1 51  1  0
  1 52  1  0
  3 53  1  0
  3 54  1  0
  3 55  1  0
  4 56  1  0
  5 57  1  0
  5 58  1  0
  6 59  1  0
  6 60  1  0
  7 61  1  1
  8 62  1  0
  8 63  1  0
  8 64  1  0
  9 65  1  1
 10 66  1  0
 10 67  1  0
 11 68  1  0
 11 69  1  0
 13 70  1  0
 13 71  1  0
 13 72  1  0
 14 73  1  6
 15 74  1  0
 15 75  1  0
 16 76  1  0
 16 77  1  0
 17 78  1  1
 19 79  1  0
 19 80  1  0
 19 81  1  0
 20 82  1  0
 20 83  1  0
 20 84  1  0
 21 85  1  6
 23 86  1  6
 24 87  1  0
 24 88  1  0
 25 89  1  0
 25 90  1  0
 26 91  1  0
 26 92  1  0
 27 93  1  0
 27 94  1  0
 28 95  1  1
 29 96  1  0
 29 97  1  0
 33 98  1  0
 33 99  1  0
 34100  1  0
 34101  1  0
 36102  1  0
 37103  1  0
 38104  1  0
 39105  1  0
 40106  1  0
 41107  1  0
 41108  1  0
 42109  1  0
 42110  1  0
 44111  1  0
 44112  1  0
 46113  1  0
 46114  1  0
 47115  1  0
 47116  1  0
 49117  1  0
 49118  1  0
 49119  1  0
M  END
>  <UniqueID>  (34) 
32

>  <SMILES>  (34) 
CC(C)=CCC[C@@H](C)[C@@H]1CCC2(C)C3CCC4C(C)(C)C(OC5CCCCC5CC(=O)OCCc5ccccc5)CCC45CC35CCC12C

>  <Energy>  (34) 
449.9293565204521

>  <Genealogy>  (34) 
CC(C)=CCC[C@@H](C)[C@@H]1CCC2(C)C3CCC4C(C)(C)C(OC5CCCCC5CC(=O)OCCc5ccccc5)CCC45CC35CCC12C (chirality)
CC(C)=CCC[C@@H](C)[C@@H]1CCC2(C)C3CCC4C(C)(C)C(OC5CCCCC5CC(=O)OCCc5ccccc5)CCC45CC35CCC12C (3D coordinates assigned)
CC(C)=CCC[C@@H](C)[C@@H]1CCC2(C)C3CCC4C(C)(C)C(OC5CCCCC5CC(=O)OCCc5ccccc5)CCC45CC35CCC12C (nonaromatic ring conformer: 449.9293565204521 kcal/mol)

>  <smiles>  (34) 
CC(C)=CCCC(C)C1CCC2(C)C3CCC4C(C)(C)C(OC5CCCCC5CC(=O)OCCc5ccccc5)CCC45CC35CCC12C

>  <score_type>  (34) 
oracle

>  <origin>  (34) 
adg

>  <m_score__min__energy>  (34) 
-11.210000000000001

>  <m_primary>  (34) 
energy

$$$$
34:0
     RDKit          3D

 30 32  0  0  0  0  0  0  0  0999 V2000
   -1.3340   25.1390  -28.0380 C   0  0  0  0  0  0  0  0  0  0  0  0
   -2.0400   25.3000  -29.2640 O   0  0  0  0  0  0  0  0  0  0  0  0
   -3.0490   24.4360  -29.7160 C   0  0  0  0  0  0  0  0  0  0  0  0
   -4.3970   24.8290  -29.8000 C   0  0  0  0  0  0  0  0  0  0  0  0
   -5.3660   23.9310  -30.2560 C   0  0  0  0  0  0  0  0  0  0  0  0
   -5.0080   22.6260  -30.6400 C   0  0  0  0  0  0  0  0  0  0  0  0
   -6.0060   21.6990  -31.1110 N   0  0  0  0  0  0  0  0  0  0  0  0
   -7.2710   22.0110  -31.4950 C   0  0  0  0  0  0  0  0  0  0  0  0
   -7.8910   20.8390  -31.8710 C   0  0  0  0  0  0  0  0  0  0  0  0
   -9.1730   20.5710  -32.3420 C   0  0  0  0  0  0  0  0  0  0  0  0
   -9.4870   19.2310  -32.6430 C   0  0  0  0  0  0  0  0  0  0  0  0
   -8.5230   18.2100  -32.4680 C   0  0  0  0  0  0  0  0  0  0  0  0
   -7.2350   18.5190  -31.9890 C   0  0  0  0  0  0  0  0  0  0  0  0
   -6.9580   19.8530  -31.6990 C   0  0  0  0  0  0  0  0  0  0  0  0
   -5.8170   20.3860  -31.2350 N   0  0  0  0  0  0  0  0  0  0  0  0
   -3.6600   22.2400  -30.5530 C   0  0  0  0  0  0  0  0  0  0  0  0
   -2.6920   23.1390  -30.0950 C   0  0  0  0  0  0  0  0  0  0  0  0
   -2.0228   25.2961  -27.1949 H   0  0  0  0  0  0  0  0  0  0  0  0
   -0.9166   24.1226  -27.9860 H   0  0  0  0  0  0  0  0  0  0  0  0
   -0.5172   25.8739  -27.9860 H   0  0  0  0  0  0  0  0  0  0  0  0
   -4.6898   25.8476  -29.5055 H   0  0  0  0  0  0  0  0  0  0  0  0
   -6.4178   24.2475  -30.3151 H   0  0  0  0  0  0  0  0  0  0  0  0
   -7.7188   23.0157  -31.5042 H   0  0  0  0  0  0  0  0  0  0  0  0
   -9.9125   21.3745  -32.4741 H   0  0  0  0  0  0  0  0  0  0  0  0
  -10.4896   18.9764  -33.0171 H   0  0  0  0  0  0  0  0  0  0  0  0
   -8.7813   17.1680  -32.7077 H   0  0  0  0  0  0  0  0  0  0  0  0
   -6.4756   17.7356  -31.8490 H   0  0  0  0  0  0  0  0  0  0  0  0
   -4.9310   19.8730  -31.0340 H   0  0  0  0  0  0  0  0  0  0  0  0
   -3.3637   21.2224  -30.8475 H   0  0  0  0  0  0  0  0  0  0  0  0
   -1.6403   22.8227  -30.0324 H   0  0  0  0  0  0  0  0  0  0  0  0
  1  2  1  0
  2  3  1  0
  3  4  2  0
  4  5  1  0
  5  6  2  0
  6  7  1  0
  7  8  1  0
  8  9  2  0
  9 10  1  0
 10 11  2  0
 11 12  1  0
 12 13  2  0
 13 14  1  0
 14 15  2  0
  6 16  1  0
 16 17  2  0
 17  3  1  0
 15  7  1  0
 14  9  1  0
  1 18  1  0
  1 19  1  0
  1 20  1  0
  4 21  1  0
  5 22  1  0
  8 23  1  0
 10 24  1  0
 11 25  1  0
 12 26  1  0
 13 27  1  0
 15 28  1  0
 16 29  1  0
 17 30  1  0
M  CHG  1  15   1
M  END
>  <UniqueID>  (35) 
33

>  <SMILES>  (35) 
COc1ccc(-n2cc3ccccc3[nH+]2)cc1

>  <Energy>  (35) 
74.44086871418706

>  <Genealogy>  (35) 
COc1ccc(-n2cc3ccccc3[nH+]2)cc1 (protonated)
COc1ccc(-n2cc3ccccc3[nH+]2)cc1 (3D coordinates assigned)
COc1ccc(-n2cc3ccccc3[nH+]2)cc1 (optimized conformer: 74.44086871418706 kcal/mol)

>  <smiles>  (35) 
COc1ccc(-n2cc3ccccc3n2)cc1

>  <score_type>  (35) 
oracle

>  <origin>  (35) 
adg

>  <m_score__min__energy>  (35) 
-6.3700000000000001

>  <m_primary>  (35) 
energy

$$$$
35:0
     RDKit          3D

 32 34  0  0  0  0  0  0  0  0999 V2000
   -9.5944   19.6439  -31.0296 H   0  0  0  0  0  0  0  0  0  0  0  0
   -8.7320   19.3990  -31.6670 C   0  0  0  0  0  0  0  0  0  0  0  0
   -8.0640   18.1840  -31.5000 C   0  0  0  0  0  0  0  0  0  0  0  0
   -8.3994   17.4736  -30.7300 H   0  0  0  0  0  0  0  0  0  0  0  0
   -6.9690   17.8700  -32.3110 C   0  0  0  0  0  0  0  0  0  0  0  0
   -6.4419   16.9144  -32.1735 H   0  0  0  0  0  0  0  0  0  0  0  0
   -6.5390   18.7700  -33.3010 C   0  0  0  0  0  0  0  0  0  0  0  0
   -5.3580   18.4260  -34.1710 C   0  0  0  0  0  0  0  0  0  0  0  0
   -5.4955   18.8828  -35.1622 H   0  0  0  0  0  0  0  0  0  0  0  0
   -5.2926   17.3314  -34.2584 H   0  0  0  0  0  0  0  0  0  0  0  0
   -4.1150   18.9230  -33.5830 N   0  0  0  0  0  0  0  0  0  0  0  0
   -3.9660   20.0780  -33.0060 C   0  0  0  0  0  0  0  0  0  0  0  0
   -3.1280   20.2300  -31.4140 S   0  0  0  0  0  0  0  0  0  0  0  0
   -4.2760   21.6120  -31.1530 C   0  0  1  0  0  0  0  0  0  0  0  0
   -5.1829   21.1389  -30.7483 H   0  0  0  0  0  0  0  0  0  0  0  0
   -3.9640   22.6870  -30.1290 C   0  0  0  0  0  0  0  0  0  0  0  0
   -4.2489   22.3709  -29.1147 H   0  0  0  0  0  0  0  0  0  0  0  0
   -2.8955   22.9367  -30.0514 H   0  0  0  0  0  0  0  0  0  0  0  0
   -4.9890   24.0350  -30.7060 S   0  0  0  0  0  0  0  0  0  0  0  0
   -6.2280   24.1870  -29.8680 O   0  0  0  0  0  0  0  0  0  0  0  0
   -4.2220   25.3260  -30.7610 O   0  0  0  0  0  0  0  0  0  0  0  0
   -5.3760   23.4260  -32.3430 C   0  0  0  0  0  0  0  0  0  0  0  0
   -6.4024   23.0338  -32.3952 H   0  0  0  0  0  0  0  0  0  0  0  0
   -5.3349   24.1919  -33.1315 H   0  0  0  0  0  0  0  0  0  0  0  0
   -4.3480   22.3180  -32.4950 C   0  0  2  0  0  0  0  0  0  0  0  0
   -3.4410   22.8298  -32.8490 H   0  0  0  0  0  0  0  0  0  0  0  0
   -4.6110   21.2740  -33.4600 N   0  0  0  0  0  0  0  0  0  0  0  0
   -5.3620   21.3220  -34.1820 H   0  0  0  0  0  0  0  0  0  0  0  0
   -7.2110   19.9930  -33.4570 C   0  0  0  0  0  0  0  0  0  0  0  0
   -6.8756   20.7091  -34.2217 H   0  0  0  0  0  0  0  0  0  0  0  0
   -8.3060   20.3040  -32.6430 C   0  0  0  0  0  0  0  0  0  0  0  0
   -8.8319   21.2616  -32.7715 H   0  0  0  0  0  0  0  0  0  0  0  0
  1  2  1  0
  2  3  2  0
  3  4  1  0
  3  5  1  0
  5  6  1  0
  5  7  2  0
  7  8  1  0
  8  9  1  0
  8 10  1  0
  8 11  1  0
 11 12  2  0
 12 13  1  0
 13 14  1  0
 14 15  1  1
 14 16  1  0
 16 17  1  0
 16 18  1  0
 16 19  1  0
 19 20  2  0
 19 21  2  0
 19 22  1  0
 22 23  1  0
 22 24  1  0
 22 25  1  0
 25 26  1  6
 25 27  1  0
 27 28  1  0
  7 29  1  0
 29 30  1  0
 29 31  2  0
 31 32  1  0
 31  2  1  0
 27 12  1  0
 25 14  1  0
M  END
>  <UniqueID>  (36) 
34

>  <SMILES>  (36) 
O=S1(=O)C[C@@H]2N/C(=N\Cc3ccccc3)S[C@H]2C1

>  <Energy>  (36) 
51.90250923816782

>  <Genealogy>  (36) 
O=S1(=O)C[C@@H]2NC(=NCc3ccccc3)S[C@H]2C1 (chirality)
O=S1(=O)C[C@@H]2N/C(=N\Cc3ccccc3)S[C@H]2C1 (cis-trans isomerization)
O=S1(=O)C[C@@H]2N/C(=N\Cc3ccccc3)S[C@H]2C1 (3D coordinates assigned)
O=S1(=O)C[C@@H]2N/C(=N\Cc3ccccc3)S[C@H]2C1 (nonaromatic ring conformer: 51.90250923816782 kcal/mol)

>  <smiles>  (36) 
O=S1(=O)CC2NC(=NCc3ccccc3)SC2C1

>  <score_type>  (36) 
oracle

>  <origin>  (36) 
adg

>  <m_score__min__energy>  (36) 
-7.8700000000000001

>  <m_primary>  (36) 
energy

$$$$
36:0
     RDKit          3D

 32 33  0  0  0  0  0  0  0  0999 V2000
   -7.7825   18.9502  -31.3129 H   0  0  0  0  0  0  0  0  0  0  0  0
   -7.2040   18.6440  -32.1970 C   0  0  0  0  0  0  0  0  0  0  0  0
   -7.2360   17.3120  -32.6200 C   0  0  0  0  0  0  0  0  0  0  0  0
   -7.8453   16.5785  -32.0716 H   0  0  0  0  0  0  0  0  0  0  0  0
   -6.4960   16.9060  -33.7390 C   0  0  0  0  0  0  0  0  0  0  0  0
   -6.5640   15.4860  -34.2160 C   0  0  0  0  0  0  0  0  0  0  0  0
   -6.5964   14.8093  -33.3494 H   0  0  0  0  0  0  0  0  0  0  0  0
   -7.4699   15.3465  -34.8242 H   0  0  0  0  0  0  0  0  0  0  0  0
   -5.6756   15.2606  -34.8242 H   0  0  0  0  0  0  0  0  0  0  0  0
   -5.7460   17.8540  -34.4490 C   0  0  0  0  0  0  0  0  0  0  0  0
   -5.1827   17.5478  -35.3429 H   0  0  0  0  0  0  0  0  0  0  0  0
   -5.7100   19.1870  -34.0270 C   0  0  0  0  0  0  0  0  0  0  0  0
   -5.1092   19.9205  -34.5847 H   0  0  0  0  0  0  0  0  0  0  0  0
   -6.4370   19.5960  -32.8940 C   0  0  0  0  0  0  0  0  0  0  0  0
   -6.4000   21.0130  -32.4460 C   0  0  0  0  0  0  0  0  0  0  0  0
   -7.5550   21.6470  -31.9690 C   0  0  0  0  0  0  0  0  0  0  0  0
   -8.5045   21.0936  -31.9225 H   0  0  0  0  0  0  0  0  0  0  0  0
   -7.5050   22.9770  -31.5530 C   0  0  0  0  0  0  0  0  0  0  0  0
   -8.4107   23.4686  -31.1683 H   0  0  0  0  0  0  0  0  0  0  0  0
   -6.3000   23.6850  -31.6260 C   0  0  0  0  0  0  0  0  0  0  0  0
   -6.2880   24.9280  -31.2300 N   0  0  0  0  0  0  0  0  0  0  0  0
   -5.2100   25.6560  -30.6270 C   0  0  0  0  0  0  0  0  0  0  0  0
   -5.4450   26.7810  -30.1110 O   0  0  0  0  0  0  0  0  0  0  0  0
   -3.8640   25.1730  -30.7040 N   0  0  0  0  0  0  0  0  0  0  0  0
   -3.2900   24.2780  -29.7110 C   0  0  0  0  0  0  0  0  0  0  0  0
   -3.5275   24.6483  -28.7028 H   0  0  0  0  0  0  0  0  0  0  0  0
   -3.7103   23.2696  -29.8397 H   0  0  0  0  0  0  0  0  0  0  0  0
   -2.1982   24.2394  -29.8397 H   0  0  0  0  0  0  0  0  0  0  0  0
   -5.1730   23.0450  -32.0680 N   0  0  0  0  0  0  0  0  0  0  0  0
   -4.2410   23.5110  -32.0590 H   0  0  0  0  0  0  0  0  0  0  0  0
   -5.2030   21.7470  -32.4790 C   0  0  0  0  0  0  0  0  0  0  0  0
   -4.2807   21.2687  -32.8404 H   0  0  0  0  0  0  0  0  0  0  0  0
  1  2  1  0
  2  3  2  0
  3  4  1  0
  3  5  1  0
  5  6  1  0
  6  7  1  0
  6  8  1  0
  6  9  1  0
  5 10  2  0
 10 11  1  0
 10 12  1  0
 12 13  1  0
 12 14  2  0
 14 15  1  0
 15 16  1  0
 16 17  1  0
 16 18  2  0
 18 19  1  0
 18 20  1  0
 20 21  2  0
 21 22  1  0
 22 23  2  0
 22 24  1  0
 24 25  1  0
 25 26  1  0
 25 27  1  0
 25 28  1  0
 20 29  1  0
 29 30  1  0
 29 31  1  0
 31 32  1  0
 14  2  1  0
 31 15  2  0
M  CHG  1  24  -1
M  END
>  <UniqueID>  (37) 
35

>  <SMILES>  (37) 
C[N-]C(=O)/N=c1/ccc(-c2ccc(C)cc2)c[nH]1

>  <Energy>  (37) 
41.64695314956917

>  <Genealogy>  (37) 
C[N-]C(=O)N=c1ccc(-c2ccc(C)cc2)c[nH]1 (protonated)
C[N-]C(=O)/N=c1/ccc(-c2ccc(C)cc2)c[nH]1 (cis-trans isomerization)
C[N-]C(=O)/N=c1/ccc(-c2ccc(C)cc2)c[nH]1 (3D coordinates assigned)
C[N-]C(=O)/N=c1/ccc(-c2ccc(C)cc2)c[nH]1 (optimized conformer: 41.64695314956917 kcal/mol)

>  <smiles>  (37) 
CNC(=O)N=c1ccc(-c2ccc(C)cc2)c[nH]1

>  <score_type>  (37) 
oracle

>  <origin>  (37) 
adg

>  <m_score__min__energy>  (37) 
-8.0700000000000003

>  <m_primary>  (37) 
energy

$$$$
37:0
     RDKit          3D

 37 39  0  0  0  0  0  0  0  0999 V2000
   -6.1060   25.4460  -29.5990 C   0  0  0  0  0  0  0  0  0  0  0  0
   -5.0350   24.6390  -30.2570 C   0  0  0  0  0  0  0  0  0  0  0  0
   -4.0810   25.2260  -30.8380 O   0  0  0  0  0  0  0  0  0  0  0  0
   -5.1130   23.2090  -30.2530 N   0  0  0  0  0  0  0  0  0  0  0  0
   -4.0870   22.3880  -30.8980 C   0  0  0  0  0  0  0  0  0  0  0  0
   -4.6360   21.0160  -31.3210 C   0  0  0  0  0  0  0  0  0  0  0  0
   -5.4710   21.0220  -32.6290 C   0  0  0  0  0  0  0  0  0  0  0  0
   -6.8970   21.4820  -32.3700 C   0  0  0  0  0  0  0  0  0  0  0  0
   -7.2150   22.8500  -32.3270 C   0  0  0  0  0  0  0  0  0  0  0  0
   -8.5020   23.2650  -31.9730 C   0  0  0  0  0  0  0  0  0  0  0  0
   -9.4830   22.3180  -31.6650 C   0  0  0  0  0  0  0  0  0  0  0  0
   -9.1870   20.9540  -31.7390 C   0  0  0  0  0  0  0  0  0  0  0  0
   -7.9080   20.5330  -32.1160 C   0  0  0  0  0  0  0  0  0  0  0  0
   -7.6540   19.1700  -32.2930 O   0  0  0  0  0  0  0  0  0  0  0  0
   -6.4960   18.7230  -32.9370 C   0  0  0  0  0  0  0  0  0  0  0  0
   -6.4010   17.3880  -33.3390 C   0  0  0  0  0  0  0  0  0  0  0  0
   -5.2750   16.9440  -34.0370 C   0  0  0  0  0  0  0  0  0  0  0  0
   -4.2380   17.8340  -34.3300 C   0  0  0  0  0  0  0  0  0  0  0  0
   -4.3180   19.1660  -33.9140 C   0  0  0  0  0  0  0  0  0  0  0  0
   -5.4460   19.6220  -33.2130 C   0  0  0  0  0  0  0  0  0  0  0  0
   -6.0040   25.3692  -28.5064 H   0  0  0  0  0  0  0  0  0  0  0  0
   -6.0108   26.4989  -29.9030 H   0  0  0  0  0  0  0  0  0  0  0  0
   -7.0918   25.0642  -29.9030 H   0  0  0  0  0  0  0  0  0  0  0  0
   -5.9370   22.7580  -29.7970 H   0  0  0  0  0  0  0  0  0  0  0  0
   -3.7188   22.9147  -31.7907 H   0  0  0  0  0  0  0  0  0  0  0  0
   -3.2759   22.2230  -30.1735 H   0  0  0  0  0  0  0  0  0  0  0  0
   -3.7834   20.3356  -31.4629 H   0  0  0  0  0  0  0  0  0  0  0  0
   -5.3190   20.6965  -30.5201 H   0  0  0  0  0  0  0  0  0  0  0  0
   -5.0341   21.7335  -33.3452 H   0  0  0  0  0  0  0  0  0  0  0  0
   -6.4472   23.5982  -32.5732 H   0  0  0  0  0  0  0  0  0  0  0  0
   -8.7430   24.3377  -31.9368 H   0  0  0  0  0  0  0  0  0  0  0  0
  -10.4888   22.6465  -31.3641 H   0  0  0  0  0  0  0  0  0  0  0  0
   -9.9616   20.2104  -31.5002 H   0  0  0  0  0  0  0  0  0  0  0  0
   -7.2144   16.6853  -33.1054 H   0  0  0  0  0  0  0  0  0  0  0  0
   -5.2047   15.8936  -34.3560 H   0  0  0  0  0  0  0  0  0  0  0  0
   -3.3571   17.4855  -34.8891 H   0  0  0  0  0  0  0  0  0  0  0  0
   -3.4940   19.8598  -34.1367 H   0  0  0  0  0  0  0  0  0  0  0  0
  1  2  1  0
  2  3  2  0
  2  4  1  0
  4  5  1  0
  5  6  1  0
  6  7  1  0
  7  8  1  0
  8  9  2  0
  9 10  1  0
 10 11  2  0
 11 12  1  0
 12 13  2  0
 13 14  1  0
 14 15  1  0
 15 16  2  0
 16 17  1  0
 17 18  2  0
 18 19  1  0
 19 20  2  0
 20  7  1  0
 13  8  1  0
 20 15  1  0
  1 21  1  0
  1 22  1  0
  1 23  1  0
  4 24  1  0
  5 25  1  0
  5 26  1  0
  6 27  1  0
  6 28  1  0
  7 29  1  0
  9 30  1  0
 10 31  1  0
 11 32  1  0
 12 33  1  0
 16 34  1  0
 17 35  1  0
 18 36  1  0
 19 37  1  0
M  END
>  <UniqueID>  (38) 
36

>  <SMILES>  (38) 
CC(=O)NCCC1c2ccccc2Oc2ccccc21

>  <Energy>  (38) 
37.617055951052826

>  <Genealogy>  (38) 
CC(=O)NCCC1c2ccccc2Oc2ccccc21 (3D coordinates assigned)
CC(=O)NCCC1c2ccccc2Oc2ccccc21 (nonaromatic ring conformer: 37.617055951052826 kcal/mol)

>  <smiles>  (38) 
CC(=O)NCCC1c2ccccc2Oc2ccccc21

>  <score_type>  (38) 
oracle

>  <origin>  (38) 
adg

>  <m_score__min__energy>  (38) 
-8.5099999999999998

>  <m_primary>  (38) 
energy

$$$$
38:0
     RDKit          3D

 66 69  0  0  0  0  0  0  0  0999 V2000
   -0.0270   21.2280  -35.7530 C   0  0  0  0  0  0  0  0  0  0  0  0
    0.5550   21.4860  -34.3840 C   0  0  0  0  0  0  0  0  0  0  0  0
    0.0440   20.5770  -33.3170 C   0  0  0  0  0  0  0  0  0  0  0  0
   -1.3470   20.2640  -33.3710 N   0  0  0  0  0  0  0  0  0  0  0  0
   -2.2880   21.0690  -32.8430 C   0  0  0  0  0  0  0  0  0  0  0  0
   -1.9810   22.1470  -32.2740 O   0  0  0  0  0  0  0  0  0  0  0  0
   -3.6230   20.7360  -32.9120 C   0  0  0  0  0  0  0  0  0  0  0  0
   -4.7790   21.2920  -32.5020 N   0  0  0  0  0  0  0  0  0  0  0  0
   -5.8340   20.5040  -32.8450 C   0  0  0  0  0  0  0  0  0  0  0  0
   -7.2110   20.8370  -32.5320 C   0  0  0  0  0  0  0  0  0  0  0  0
   -8.1550   19.8030  -32.5260 C   0  0  0  0  0  0  0  0  0  0  0  0
   -9.4810   20.0000  -32.2400 C   0  0  0  0  0  0  0  0  0  0  0  0
   -9.8950   21.2730  -31.9470 C   0  0  0  0  0  0  0  0  0  0  0  0
   -8.9700   22.2920  -31.9520 C   0  0  0  0  0  0  0  0  0  0  0  0
   -7.6340   22.1320  -32.2340 C   0  0  0  0  0  0  0  0  0  0  0  0
   -6.7770   23.2400  -32.2460 N   0  0  0  0  0  0  0  0  0  0  0  0
   -6.4980   24.1730  -31.2030 C   0  0  0  0  0  0  0  0  0  0  0  0
   -5.2720   23.9340  -30.4250 C   0  0  0  0  0  0  0  0  0  0  0  0
   -5.1490   22.6840  -29.8260 C   0  0  0  0  0  0  0  0  0  0  0  0
   -4.0490   22.3140  -29.0980 C   0  0  0  0  0  0  0  0  0  0  0  0
   -3.0070   23.1890  -28.9310 C   0  0  0  0  0  0  0  0  0  0  0  0
   -1.8560   22.8590  -28.1920 O   0  0  0  0  0  0  0  0  0  0  0  0
   -1.5290   21.4860  -28.0410 C   0  0  0  0  0  0  0  0  0  0  0  0
   -3.1000   24.4420  -29.5160 C   0  0  0  0  0  0  0  0  0  0  0  0
   -2.0370   25.3010  -29.3320 O   0  0  0  0  0  0  0  0  0  0  0  0
   -1.4800   25.6310  -28.0950 C   0  0  0  0  0  0  0  0  0  0  0  0
   -4.2260   24.7940  -30.2510 C   0  0  0  0  0  0  0  0  0  0  0  0
   -5.2710   19.4650  -33.4700 N   0  0  0  0  0  0  0  0  0  0  0  0
   -3.9500   19.5530  -33.5380 C   0  0  0  0  0  0  0  0  0  0  0  0
   -3.0030   18.7420  -34.0690 N   0  0  0  0  0  0  0  0  0  0  0  0
   -3.4640   17.5340  -34.7020 C   0  0  0  0  0  0  0  0  0  0  0  0
   -4.2050   16.6370  -33.7490 C   0  0  0  0  0  0  0  0  0  0  0  0
   -5.6460   16.4610  -34.1350 C   0  0  0  0  0  0  0  0  0  0  0  0
   -1.7280   19.1200  -33.9720 C   0  0  0  0  0  0  0  0  0  0  0  0
   -0.8300   18.3620  -34.4700 O   0  0  0  0  0  0  0  0  0  0  0  0
   -1.0280   20.7842  -35.6482 H   0  0  0  0  0  0  0  0  0  0  0  0
   -0.1025   22.1770  -36.3041 H   0  0  0  0  0  0  0  0  0  0  0  0
    0.6255   20.5348  -36.3041 H   0  0  0  0  0  0  0  0  0  0  0  0
    1.6466   21.3651  -34.4456 H   0  0  0  0  0  0  0  0  0  0  0  0
    0.2524   22.5049  -34.1006 H   0  0  0  0  0  0  0  0  0  0  0  0
    0.6037   19.6324  -33.3840 H   0  0  0  0  0  0  0  0  0  0  0  0
    0.1875   21.1213  -32.3720 H   0  0  0  0  0  0  0  0  0  0  0  0
   -4.7810   22.2090  -31.9940 H   0  0  0  0  0  0  0  0  0  0  0  0
   -7.8162   18.7835  -32.7622 H   0  0  0  0  0  0  0  0  0  0  0  0
  -10.1920   19.1607  -32.2455 H   0  0  0  0  0  0  0  0  0  0  0  0
  -10.9499   21.4772  -31.7115 H   0  0  0  0  0  0  0  0  0  0  0  0
   -9.3245   23.3057  -31.7136 H   0  0  0  0  0  0  0  0  0  0  0  0
   -6.2530   23.4260  -33.1570 H   0  0  0  0  0  0  0  0  0  0  0  0
   -6.4164   25.1708  -31.6589 H   0  0  0  0  0  0  0  0  0  0  0  0
   -7.3255   24.0674  -30.4860 H   0  0  0  0  0  0  0  0  0  0  0  0
   -5.9705   21.9617  -29.9420 H   0  0  0  0  0  0  0  0  0  0  0  0
   -4.0018   21.3121  -28.6463 H   0  0  0  0  0  0  0  0  0  0  0  0
   -1.4701   21.2387  -26.9708 H   0  0  0  0  0  0  0  0  0  0  0  0
   -2.3055   20.8696  -28.5176 H   0  0  0  0  0  0  0  0  0  0  0  0
   -0.5580   21.2858  -28.5176 H   0  0  0  0  0  0  0  0  0  0  0  0
   -2.1242   25.2493  -27.2892 H   0  0  0  0  0  0  0  0  0  0  0  0
   -0.4807   25.1791  -28.0106 H   0  0  0  0  0  0  0  0  0  0  0  0
   -1.3963   26.7246  -28.0106 H   0  0  0  0  0  0  0  0  0  0  0  0
   -4.2758   25.7944  -30.7056 H   0  0  0  0  0  0  0  0  0  0  0  0
   -4.1365   17.8029  -35.5299 H   0  0  0  0  0  0  0  0  0  0  0  0
   -2.5815   16.9855  -35.0631 H   0  0  0  0  0  0  0  0  0  0  0  0
   -3.7181   15.6507  -33.7406 H   0  0  0  0  0  0  0  0  0  0  0  0
   -4.1780   17.1070  -32.7548 H   0  0  0  0  0  0  0  0  0  0  0  0
   -6.2623   16.3857  -33.2270 H   0  0  0  0  0  0  0  0  0  0  0  0
   -5.9744   17.3257  -34.7304 H   0  0  0  0  0  0  0  0  0  0  0  0
   -5.7566   15.5427  -34.7304 H   0  0  0  0  0  0  0  0  0  0  0  0
  1  2  1  0
  2  3  1  0
  3  4  1  0
  4  5  1  0
  5  6  2  0
  5  7  1  0
  7  8  1  0
  8  9  1  0
  9 10  1  0
 10 11  2  0
 11 12  1  0
 12 13  2  0
 13 14  1  0
 14 15  2  0
 15 16  1  0
 16 17  1  0
 17 18  1  0
 18 19  2  0
 19 20  1  0
 20 21  2  0
 21 22  1  0
 22 23  1  0
 21 24  1  0
 24 25  1  0
 25 26  1  0
 24 27  2  0
  9 28  2  0
 28 29  1  0
 29 30  1  0
 30 31  1  0
 31 32  1  0
 32 33  1  0
 30 34  1  0
 34 35  2  0
 34  4  1  0
 29  7  2  0
 15 10  1  0
 27 18  1  0
  1 36  1  0
  1 37  1  0
  1 38  1  0
  2 39  1  0
  2 40  1  0
  3 41  1  0
  3 42  1  0
  8 43  1  0
 11 44  1  0
 12 45  1  0
 13 46  1  0
 14 47  1  0
 16 48  1  0
 17 49  1  0
 17 50  1  0
 19 51  1  0
 20 52  1  0
 23 53  1  0
 23 54  1  0
 23 55  1  0
 26 56  1  0
 26 57  1  0
 26 58  1  0
 27 59  1  0
 31 60  1  0
 31 61  1  0
 32 62  1  0
 32 63  1  0
 33 64  1  0
 33 65  1  0
 33 66  1  0
M  END
>  <smiles>  (39) 
CCCn1c(=O)c2[nH]c(-c3ccccc3NCc3ccc(OC)c(OC)c3)nc2n(CCC)c1=O

>  <score_type>  (39) 
oracle

>  <origin>  (39) 
adg

>  <m_score__min__energy>  (39) 
-10.140000000000001

>  <m_primary>  (39) 
energy

$$$$
39:0
     RDKit          3D

 40 41  0  0  0  0  0  0  0  0999 V2000
   -2.2910   25.7790  -25.5870 C   0  0  0  0  0  0  0  0  0  0  0  0
   -3.6050   25.2890  -26.1860 C   0  0  0  0  0  0  0  0  0  0  0  0
   -3.3630   24.1430  -27.1770 C   0  0  0  0  0  0  0  0  0  0  0  0
   -1.8920   23.7060  -27.2300 C   0  0  0  0  0  0  0  0  0  0  0  0
   -1.0960   24.0790  -28.7960 S   0  0  0  0  0  0  0  0  0  0  0  0
    0.3920   24.1360  -28.6000 O   0  0  0  0  0  0  0  0  0  0  0  0
   -1.5570   25.4430  -29.2320 O   0  0  0  0  0  0  0  0  0  0  0  0
   -1.4790   22.8860  -30.0590 C   0  0  0  0  0  0  0  0  0  0  0  0
   -0.4960   21.9390  -30.3990 C   0  0  0  0  0  0  0  0  0  0  0  0
   -0.7060   21.0310  -31.4360 C   0  0  0  0  0  0  0  0  0  0  0  0
   -1.8930   21.0630  -32.1640 C   0  0  0  0  0  0  0  0  0  0  0  0
   -2.8820   21.9910  -31.8430 C   0  0  0  0  0  0  0  0  0  0  0  0
   -2.7060   22.8930  -30.7770 C   0  0  0  0  0  0  0  0  0  0  0  0
   -3.8110   23.8230  -30.4710 C   0  0  0  0  0  0  0  0  0  0  0  0
   -3.6160   25.0690  -30.4770 O   0  0  0  0  0  0  0  0  0  0  0  0
   -5.0990   23.3070  -30.1300 N   0  0  0  0  0  0  0  0  0  0  0  0
   -6.4790   23.5240  -31.1500 S   0  0  0  0  0  0  0  0  0  0  0  0
   -7.4690   24.4220  -30.4680 O   0  0  0  0  0  0  0  0  0  0  0  0
   -6.0580   24.1630  -32.4440 O   0  0  0  0  0  0  0  0  0  0  0  0
   -7.2260   21.9710  -31.4590 C   0  0  0  0  0  0  0  0  0  0  0  0
   -6.6030   20.8760  -32.0350 C   0  0  0  0  0  0  0  0  0  0  0  0
   -7.4710   19.7960  -32.2260 C   0  0  0  0  0  0  0  0  0  0  0  0
   -8.7730   20.0480  -31.8150 C   0  0  0  0  0  0  0  0  0  0  0  0
   -8.8450   21.6130  -31.2060 S   0  0  0  0  0  0  0  0  0  0  0  0
   -2.3568   25.7545  -24.4892 H   0  0  0  0  0  0  0  0  0  0  0  0
   -1.4704   25.1264  -25.9198 H   0  0  0  0  0  0  0  0  0  0  0  0
   -2.0980   26.8095  -25.9198 H   0  0  0  0  0  0  0  0  0  0  0  0
   -4.2588   24.9326  -25.3764 H   0  0  0  0  0  0  0  0  0  0  0  0
   -4.0783   26.1238  -26.7238 H   0  0  0  0  0  0  0  0  0  0  0  0
   -3.9755   23.2809  -26.8744 H   0  0  0  0  0  0  0  0  0  0  0  0
   -3.6380   24.5060  -28.1783 H   0  0  0  0  0  0  0  0  0  0  0  0
   -1.3449   24.2236  -26.4283 H   0  0  0  0  0  0  0  0  0  0  0  0
   -1.8722   22.6131  -27.1067 H   0  0  0  0  0  0  0  0  0  0  0  0
    0.4507   21.9145  -29.8394 H   0  0  0  0  0  0  0  0  0  0  0  0
    0.0674   20.2878  -31.6797 H   0  0  0  0  0  0  0  0  0  0  0  0
   -2.0498   20.3561  -32.9920 H   0  0  0  0  0  0  0  0  0  0  0  0
   -3.8118   22.0188  -32.4301 H   0  0  0  0  0  0  0  0  0  0  0  0
   -5.5388   20.8578  -32.3127 H   0  0  0  0  0  0  0  0  0  0  0  0
   -7.1521   18.8373  -32.6609 H   0  0  0  0  0  0  0  0  0  0  0  0
   -9.6149   19.3428  -31.8774 H   0  0  0  0  0  0  0  0  0  0  0  0
  1  2  1  0
  2  3  1  0
  3  4  1  0
  4  5  1  0
  5  6  2  0
  5  7  2  0
  5  8  1  0
  8  9  2  0
  9 10  1  0
 10 11  2  0
 11 12  1  0
 12 13  2  0
 13 14  1  0
 14 15  2  0
 14 16  1  0
 16 17  1  0
 17 18  2  0
 17 19  2  0
 17 20  1  0
 20 21  2  0
 21 22  1  0
 22 23  2  0
 23 24  1  0
 13  8  1  0
 24 20  1  0
  1 25  1  0
  1 26  1  0
  1 27  1  0
  2 28  1  0
  2 29  1  0
  3 30  1  0
  3 31  1  0
  4 32  1  0
  4 33  1  0
  9 34  1  0
 10 35  1  0
 11 36  1  0
 12 37  1  0
 21 38  1  0
 22 39  1  0
 23 40  1  0
M  CHG  1  16  -1
M  END
>  <UniqueID>  (40) 
37

>  <SMILES>  (40) 
CCCCS(=O)(=O)c1ccccc1C(=O)[N-]S(=O)(=O)c1cccs1

>  <Energy>  (40) 
63.15530917215259

>  <Genealogy>  (40) 
CCCCS(=O)(=O)c1ccccc1C(=O)[N-]S(=O)(=O)c1cccs1 (protonated)
CCCCS(=O)(=O)c1ccccc1C(=O)[N-]S(=O)(=O)c1cccs1 (3D coordinates assigned)
CCCCS(=O)(=O)c1ccccc1C(=O)[N-]S(=O)(=O)c1cccs1 (optimized conformer: 63.15530917215259 kcal/mol)

>  <smiles>  (40) 
CCCCS(=O)(=O)c1ccccc1C(=O)NS(=O)(=O)c1cccs1

>  <score_type>  (40) 
oracle

>  <origin>  (40) 
adg

>  <m_score__min__energy>  (40) 
-10.33

>  <m_primary>  (40) 
energy

$$$$
40:0
     RDKit          3D

 47 49  0  0  0  0  0  0  0  0999 V2000
   -3.3580   18.8550  -26.3290 C   0  0  0  0  0  0  0  0  0  0  0  0
   -1.9650   18.7460  -26.9430 C   0  0  0  0  0  0  0  0  0  0  0  0
   -1.6750   19.9090  -27.7900 N   0  0  0  0  0  0  0  0  0  0  0  0
   -1.0540   19.7080  -29.1110 C   0  0  0  0  0  0  0  0  0  0  0  0
    0.4680   19.7820  -29.0190 C   0  0  0  0  0  0  0  0  0  0  0  0
   -1.8640   21.2370  -27.2570 C   0  0  0  0  0  0  0  0  0  0  0  0
   -1.6050   21.4600  -26.0440 O   0  0  0  0  0  0  0  0  0  0  0  0
   -2.3530   22.3450  -28.1020 C   0  0  0  0  0  0  0  0  0  0  0  0
   -1.7650   23.6330  -28.0100 C   0  0  0  0  0  0  0  0  0  0  0  0
   -2.2260   24.6930  -28.8110 C   0  0  0  0  0  0  0  0  0  0  0  0
   -3.2580   24.4280  -29.7050 C   0  0  0  0  0  0  0  0  0  0  0  0
   -3.8570   25.3000  -30.5360 N   0  0  0  0  0  0  0  0  0  0  0  0
   -4.7960   24.6330  -31.1980 N   0  0  0  0  0  0  0  0  0  0  0  0
   -4.7910   23.3410  -30.7930 C   0  0  0  0  0  0  0  0  0  0  0  0
   -5.6880   22.3440  -31.3210 N   0  0  0  0  0  0  0  0  0  0  0  0
   -7.1390   22.5650  -31.3550 C   0  0  0  0  0  0  0  0  0  0  0  0
   -7.8810   21.2300  -31.2420 C   0  0  0  0  0  0  0  0  0  0  0  0
   -7.4940   20.2970  -32.3230 N   0  0  0  0  0  0  0  0  0  0  0  0
   -7.9370   18.9320  -31.9980 C   0  0  0  0  0  0  0  0  0  0  0  0
   -6.0520   20.3280  -32.6860 C   0  0  0  0  0  0  0  0  0  0  0  0
   -5.1670   21.0080  -31.6320 C   0  0  0  0  0  0  0  0  0  0  0  0
   -3.8120   23.1840  -29.8260 C   0  0  0  0  0  0  0  0  0  0  0  0
   -3.3910   22.1140  -29.0340 C   0  0  0  0  0  0  0  0  0  0  0  0
   -3.2767   18.8486  -25.2320 H   0  0  0  0  0  0  0  0  0  0  0  0
   -3.8306   19.7929  -26.6562 H   0  0  0  0  0  0  0  0  0  0  0  0
   -3.9707   18.0021  -26.6562 H   0  0  0  0  0  0  0  0  0  0  0  0
   -1.2188   18.6925  -26.1365 H   0  0  0  0  0  0  0  0  0  0  0  0
   -1.9241   17.8391  -27.5642 H   0  0  0  0  0  0  0  0  0  0  0  0
   -1.3430   18.7195  -29.4973 H   0  0  0  0  0  0  0  0  0  0  0  0
   -1.4026   20.5036  -29.7860 H   0  0  0  0  0  0  0  0  0  0  0  0
    0.7711   19.7967  -27.9617 H   0  0  0  0  0  0  0  0  0  0  0  0
    0.9084   18.9042  -29.5145 H   0  0  0  0  0  0  0  0  0  0  0  0
    0.8212   20.6984  -29.5145 H   0  0  0  0  0  0  0  0  0  0  0  0
   -0.9390   23.8044  -27.3040 H   0  0  0  0  0  0  0  0  0  0  0  0
   -1.7853   25.6978  -28.7331 H   0  0  0  0  0  0  0  0  0  0  0  0
   -7.4275   23.2131  -30.5143 H   0  0  0  0  0  0  0  0  0  0  0  0
   -7.4065   23.0443  -32.3083 H   0  0  0  0  0  0  0  0  0  0  0  0
   -7.6423   20.7703  -30.2716 H   0  0  0  0  0  0  0  0  0  0  0  0
   -8.9595   21.4281  -31.3291 H   0  0  0  0  0  0  0  0  0  0  0  0
   -7.9767   18.8097  -30.9055 H   0  0  0  0  0  0  0  0  0  0  0  0
   -8.9370   18.7602  -32.4227 H   0  0  0  0  0  0  0  0  0  0  0  0
   -7.2285   18.2057  -32.4227 H   0  0  0  0  0  0  0  0  0  0  0  0
   -5.7040   19.2927  -32.8166 H   0  0  0  0  0  0  0  0  0  0  0  0
   -5.9647   20.9186  -33.6099 H   0  0  0  0  0  0  0  0  0  0  0  0
   -5.1586   20.3987  -30.7162 H   0  0  0  0  0  0  0  0  0  0  0  0
   -4.1451   21.1036  -32.0278 H   0  0  0  0  0  0  0  0  0  0  0  0
   -3.8532   21.1206  -29.1322 H   0  0  0  0  0  0  0  0  0  0  0  0
  1  2  1  0
  2  3  1  0
  3  4  1  0
  4  5  1  0
  3  6  1  0
  6  7  2  0
  6  8  1  0
  8  9  2  0
  9 10  1  0
 10 11  2  0
 11 12  1  0
 12 13  1  0
 13 14  2  0
 14 15  1  0
 15 16  1  0
 16 17  1  0
 17 18  1  0
 18 19  1  0
 18 20  1  0
 20 21  1  0
 14 22  1  0
 22 23  2  0
 23  8  1  0
 22 11  1  0
 21 15  1  0
  1 24  1  0
  1 25  1  0
  1 26  1  0
  2 27  1  0
  2 28  1  0
  4 29  1  0
  4 30  1  0
  5 31  1  0
  5 32  1  0
  5 33  1  0
  9 34  1  0
 10 35  1  0
 16 36  1  0
 16 37  1  0
 17 38  1  0
 17 39  1  0
 19 40  1  0
 19 41  1  0
 19 42  1  0
 20 43  1  0
 20 44  1  0
 21 45  1  0
 21 46  1  0
 23 47  1  0
M  CHG  1  12  -1
M  END
>  <UniqueID>  (41) 
38

>  <SMILES>  (41) 
CCN(CC)C(=O)c1ccc2[n-]nc(N3CCN(C)CC3)c2c1

>  <Energy>  (41) 
93.22811376831096

>  <Genealogy>  (41) 
CCN(CC)C(=O)c1ccc2[n-]nc(N3CCN(C)CC3)c2c1 (protonated)
CCN(CC)C(=O)c1ccc2[n-]nc(N3CCN(C)CC3)c2c1 (3D coordinates assigned)
CCN(CC)C(=O)c1ccc2[n-]nc(N3CCN(C)CC3)c2c1 (nonaromatic ring conformer: 93.22811376831096 kcal/mol)

>  <smiles>  (41) 
CCN(CC)C(=O)c1ccc2[nH]nc(N3CCN(C)CC3)c2c1

>  <score_type>  (41) 
oracle

>  <origin>  (41) 
adg

>  <m_score__min__energy>  (41) 
-9.75

>  <m_primary>  (41) 
energy

$$$$
41:0
     RDKit          3D

 36 38  0  0  1  0  0  0  0  0999 V2000
   -2.2810   24.8680  -28.0260 C   0  0  0  0  0  0  0  0  0  0  0  0
   -2.7660   25.3000  -29.2770 O   0  0  0  0  0  0  0  0  0  0  0  0
   -3.5050   24.4740  -30.1220 C   0  0  0  0  0  0  0  0  0  0  0  0
   -4.7800   24.8350  -30.4730 C   0  0  0  0  0  0  0  0  0  0  0  0
   -5.5280   24.0340  -31.3060 C   0  0  0  0  0  0  0  0  0  0  0  0
   -4.9800   22.8270  -31.8050 C   0  0  0  0  0  0  0  0  0  0  0  0
   -5.6440   22.0620  -32.7130 N   0  0  0  0  0  0  0  0  0  0  0  0
   -5.8110   20.8520  -32.8610 C   0  0  0  0  0  0  0  0  0  0  0  0
   -4.8210   20.1330  -33.4650 N   0  0  0  0  0  0  0  0  0  0  0  0
   -4.8910   18.8140  -33.6810 C   0  0  0  0  0  0  0  0  0  0  0  0
   -6.0060   18.1820  -33.2700 N   0  0  0  0  0  0  0  0  0  0  0  0
   -7.0060   18.8620  -32.6680 C   0  0  0  0  0  0  0  0  0  0  0  0
   -8.1020   18.1660  -32.2790 C   0  0  0  0  0  0  0  0  0  0  0  0
   -9.1190   18.8410  -31.6690 C   0  0  0  0  0  0  0  0  0  0  0  0
   -9.1090   20.1810  -31.4220 C   0  0  0  0  0  0  0  0  0  0  0  0
   -7.9670   20.8920  -31.8300 C   0  0  0  0  0  0  0  0  0  0  0  0
   -6.9440   20.2280  -32.4400 C   0  0  0  0  0  0  0  0  0  0  0  0
   -3.6590   22.4770  -31.4260 C   0  0  0  0  0  0  0  0  0  0  0  0
   -3.1400   21.2900  -31.9250 O   0  0  0  0  0  0  0  0  0  0  0  0
   -1.8020   21.2470  -32.3800 C   0  0  0  0  0  0  0  0  0  0  0  0
   -2.9610   23.3190  -30.5900 C   0  0  0  0  0  0  0  0  0  0  0  0
   -2.8422   25.3678  -27.2227 H   0  0  0  0  0  0  0  0  0  0  0  0
   -2.4086   23.7788  -27.9395 H   0  0  0  0  0  0  0  0  0  0  0  0
   -1.2138   25.1202  -27.9395 H   0  0  0  0  0  0  0  0  0  0  0  0
   -5.2085   25.7714  -30.0863 H   0  0  0  0  0  0  0  0  0  0  0  0
   -6.5501   24.3310  -31.5838 H   0  0  0  0  0  0  0  0  0  0  0  0
   -3.9500   20.6100  -33.7890 H   0  0  0  0  0  0  0  0  0  0  0  0
   -4.0719   18.2695  -34.1736 H   0  0  0  0  0  0  0  0  0  0  0  0
   -8.1701   17.0817  -32.4511 H   0  0  0  0  0  0  0  0  0  0  0  0
  -10.0036   18.2666  -31.3566 H   0  0  0  0  0  0  0  0  0  0  0  0
   -9.9539   20.6823  -30.9272 H   0  0  0  0  0  0  0  0  0  0  0  0
   -7.8991   21.9764  -31.6584 H   0  0  0  0  0  0  0  0  0  0  0  0
   -1.1215   21.2251  -31.5161 H   0  0  0  0  0  0  0  0  0  0  0  0
   -1.6507   20.3435  -32.9890 H   0  0  0  0  0  0  0  0  0  0  0  0
   -1.5929   22.1389  -32.9890 H   0  0  0  0  0  0  0  0  0  0  0  0
   -1.9365   23.0505  -30.2928 H   0  0  0  0  0  0  0  0  0  0  0  0
  1  2  1  0
  2  3  1  0
  3  4  2  0
  4  5  1  0
  5  6  2  0
  6  7  1  0
  7  8  2  0
  8  9  1  0
  9 10  1  0
 10 11  2  0
 11 12  1  0
 12 13  2  0
 13 14  1  0
 14 15  2  0
 15 16  1  0
 16 17  2  0
  6 18  1  0
 18 19  1  0
 19 20  1  0
 18 21  2  0
 21  3  1  0
 17  8  1  0
 17 12  1  0
  1 22  1  0
  1 23  1  0
  1 24  1  0
  4 25  1  0
  5 26  1  0
  9 27  1  0
 10 28  1  0
 13 29  1  0
 14 30  1  0
 15 31  1  0
 16 32  1  0
 20 33  1  0
 20 34  1  0
 20 35  1  0
 21 36  1  0
M  END
>  <smiles>  (42) 
COc1ccc(N=c2[nH]cnc3ccccc23)c(OC)c1

>  <score_type>  (42) 
oracle

>  <origin>  (42) 
adg

>  <m_score__min__energy>  (42) 
-7.54

>  <m_primary>  (42) 
energy

$$$$
42:0
     RDKit          3D

 47 49  0  0  0  0  0  0  0  0999 V2000
   -5.5290   15.5500  -30.2540 H   0  0  0  0  0  0  0  0  0  0  0  0
   -5.3680   15.7240  -31.2700 N   0  0  0  0  0  0  0  0  0  0  0  0
   -5.8060   16.7820  -31.9310 N   0  0  0  0  0  0  0  0  0  0  0  0
   -5.3940   16.6270  -33.2070 C   0  0  0  0  0  0  0  0  0  0  0  0
   -5.7250   17.6010  -34.3010 C   0  0  0  0  0  0  0  0  0  0  0  0
   -4.8169   18.1565  -34.5783 H   0  0  0  0  0  0  0  0  0  0  0  0
   -6.1087   17.0447  -35.1690 H   0  0  0  0  0  0  0  0  0  0  0  0
   -6.7470   18.5430  -33.8540 N   0  0  0  0  0  0  0  0  0  0  0  0
   -6.4960   19.6740  -33.2610 C   0  0  0  0  0  0  0  0  0  0  0  0
   -5.2420   20.1740  -33.1120 N   0  0  0  0  0  0  0  0  0  0  0  0
   -5.4620   21.3080  -32.4190 C   0  0  0  0  0  0  0  0  0  0  0  0
   -6.7840   21.4730  -32.1640 C   0  0  0  0  0  0  0  0  0  0  0  0
   -7.2230   22.5670  -31.4250 C   0  0  0  0  0  0  0  0  0  0  0  0
   -8.4440   22.7070  -31.1480 O   0  0  0  0  0  0  0  0  0  0  0  0
   -6.2890   23.4850  -31.0020 N   0  0  0  0  0  0  0  0  0  0  0  0
   -6.7130   24.6500  -30.2070 C   0  0  0  0  0  0  0  0  0  0  0  0
   -6.6271   24.4140  -29.1361 H   0  0  0  0  0  0  0  0  0  0  0  0
   -6.0703   25.5102  -30.4456 H   0  0  0  0  0  0  0  0  0  0  0  0
   -7.7583   24.8959  -30.4456 H   0  0  0  0  0  0  0  0  0  0  0  0
   -4.9430   23.2830  -31.2610 C   0  0  0  0  0  0  0  0  0  0  0  0
   -4.0910   24.1180  -30.8450 O   0  0  0  0  0  0  0  0  0  0  0  0
   -4.5190   22.1780  -31.9660 N   0  0  0  0  0  0  0  0  0  0  0  0
   -3.0970   21.9720  -32.2710 C   0  0  0  0  0  0  0  0  0  0  0  0
   -2.5289   21.8897  -31.3326 H   0  0  0  0  0  0  0  0  0  0  0  0
   -2.9774   21.0471  -32.8544 H   0  0  0  0  0  0  0  0  0  0  0  0
   -2.7198   22.8249  -32.8544 H   0  0  0  0  0  0  0  0  0  0  0  0
   -7.4660   20.4440  -32.7060 N   0  0  0  0  0  0  0  0  0  0  0  0
   -8.8960   20.1330  -32.6150 C   0  0  0  0  0  0  0  0  0  0  0  0
   -9.4152   20.9590  -32.1069 H   0  0  0  0  0  0  0  0  0  0  0  0
   -9.2986   20.0020  -33.6302 H   0  0  0  0  0  0  0  0  0  0  0  0
   -9.1090   18.8460  -31.8280 C   0  0  0  0  0  0  0  0  0  0  0  0
   -9.0728   19.0648  -30.7506 H   0  0  0  0  0  0  0  0  0  0  0  0
  -10.0901   18.4186  -32.0826 H   0  0  0  0  0  0  0  0  0  0  0  0
   -8.3179   18.1253  -32.0826 H   0  0  0  0  0  0  0  0  0  0  0  0
   -4.7120   15.4690  -33.3720 N   0  0  0  0  0  0  0  0  0  0  0  0
   -4.0710   14.9540  -34.5850 C   0  0  0  0  0  0  0  0  0  0  0  0
   -4.8087   14.9252  -35.4005 H   0  0  0  0  0  0  0  0  0  0  0  0
   -3.6893   13.9420  -34.3848 H   0  0  0  0  0  0  0  0  0  0  0  0
   -2.9070   15.8500  -34.9920 C   0  0  0  0  0  0  0  0  0  0  0  0
   -2.4076   16.2344  -34.0905 H   0  0  0  0  0  0  0  0  0  0  0  0
   -2.1889   15.2694  -35.5896 H   0  0  0  0  0  0  0  0  0  0  0  0
   -3.2846   16.6928  -35.5896 H   0  0  0  0  0  0  0  0  0  0  0  0
   -4.7020   14.9350  -32.1330 C   0  0  0  0  0  0  0  0  0  0  0  0
   -4.0810   13.6240  -31.7640 C   0  0  0  0  0  0  0  0  0  0  0  0
   -4.0383   13.5339  -30.6685 H   0  0  0  0  0  0  0  0  0  0  0  0
   -4.6858   12.8028  -32.1762 H   0  0  0  0  0  0  0  0  0  0  0  0
   -3.0625   13.5718  -32.1762 H   0  0  0  0  0  0  0  0  0  0  0  0
  1  2  1  0
  2  3  1  0
  3  4  2  0
  4  5  1  0
  5  6  1  0
  5  7  1  0
  5  8  1  0
  8  9  2  0
  9 10  1  0
 10 11  1  0
 11 12  2  0
 12 13  1  0
 13 14  2  0
 13 15  1  0
 15 16  1  0
 16 17  1  0
 16 18  1  0
 16 19  1  0
 15 20  1  0
 20 21  2  0
 20 22  1  0
 22 23  1  0
 23 24  1  0
 23 25  1  0
 23 26  1  0
 12 27  1  0
 27 28  1  0
 28 29  1  0
 28 30  1  0
 28 31  1  0
 31 32  1  0
 31 33  1  0
 31 34  1  0
  4 35  1  0
 35 36  1  0
 36 37  1  0
 36 38  1  0
 36 39  1  0
 39 40  1  0
 39 41  1  0
 39 42  1  0
 35 43  1  0
 43 44  1  0
 44 45  1  0
 44 46  1  0
 44 47  1  0
 43  2  2  0
 27  9  1  0
 22 11  1  0
M  CHG  2   2   1  10  -1
M  END
>  <UniqueID>  (43) 
39

>  <SMILES>  (43) 
CCn1c(C/N=c2\[n-]c3c(c(=O)n(C)c(=O)n3C)n2CC)n[nH+]c1C

>  <Energy>  (43) 
119.76911801964054

>  <Genealogy>  (43) 
CCn1c(CN=c2[n-]c3c(c(=O)n(C)c(=O)n3C)n2CC)n[nH+]c1C (protonated)
CCn1c(C/N=c2\[n-]c3c(c(=O)n(C)c(=O)n3C)n2CC)n[nH+]c1C (cis-trans isomerization)
CCn1c(C/N=c2\[n-]c3c(c(=O)n(C)c(=O)n3C)n2CC)n[nH+]c1C (3D coordinates assigned)
CCn1c(C/N=c2\[n-]c3c(c(=O)n(C)c(=O)n3C)n2CC)n[nH+]c1C (optimized conformer: 119.76911801964054 kcal/mol)

>  <smiles>  (43) 
CCn1c(C)nnc1CN=c1[nH]c2c(c(=O)n(C)c(=O)n2C)n1CC

>  <score_type>  (43) 
oracle

>  <origin>  (43) 
adg

>  <m_score__min__energy>  (43) 
-7.7800000000000002

>  <m_primary>  (43) 
energy

$$$$
43:0
     RDKit          3D

 56 58  0  0  0  0  0  0  0  0999 V2000
   -6.8550   23.7240  -31.0530 C   0  0  0  0  0  0  0  0  0  0  0  0
   -6.9430   23.0270  -32.4050 C   0  0  0  0  0  0  0  0  0  0  0  0
   -7.5890   21.7060  -32.2730 N   0  0  0  0  0  0  0  0  0  0  0  0
   -8.2960   21.5270  -30.9870 C   0  0  0  0  0  0  0  0  0  0  0  0
   -9.8240   21.6050  -31.0980 C   0  0  0  0  0  0  0  0  0  0  0  0
   -6.5310   20.3600  -32.6750 S   0  0  0  0  0  0  0  0  0  0  0  0
   -7.0340   19.1050  -32.0130 O   0  0  0  0  0  0  0  0  0  0  0  0
   -6.5800   20.1340  -34.1600 O   0  0  0  0  0  0  0  0  0  0  0  0
   -4.8420   20.6150  -32.2090 C   0  0  0  0  0  0  0  0  0  0  0  0
   -3.8030   20.2380  -33.0620 C   0  0  0  0  0  0  0  0  0  0  0  0
   -2.4770   20.4460  -32.6880 C   0  0  0  0  0  0  0  0  0  0  0  0
   -2.1500   21.0370  -31.4530 C   0  0  0  0  0  0  0  0  0  0  0  0
   -3.2080   21.4780  -30.6000 C   0  0  0  0  0  0  0  0  0  0  0  0
   -4.5390   21.2610  -31.0060 C   0  0  0  0  0  0  0  0  0  0  0  0
   -2.9630   22.1360  -29.3330 N   0  0  0  0  0  0  0  0  0  0  0  0
   -3.6860   23.3570  -28.9490 C   0  0  0  0  0  0  0  0  0  0  0  0
   -3.1790   24.5460  -29.7080 C   0  0  0  0  0  0  0  0  0  0  0  0
   -3.8010   24.9470  -30.7300 O   0  0  0  0  0  0  0  0  0  0  0  0
   -2.0290   25.2540  -29.2320 N   0  0  0  0  0  0  0  0  0  0  0  0
   -1.4130   25.0830  -27.9480 C   0  0  0  0  0  0  0  0  0  0  0  0
   -2.1510   25.4060  -26.8000 C   0  0  0  0  0  0  0  0  0  0  0  0
   -1.5880   25.2500  -25.5300 C   0  0  0  0  0  0  0  0  0  0  0  0
   -0.2880   24.7550  -25.3970 C   0  0  0  0  0  0  0  0  0  0  0  0
    0.4470   24.4030  -26.5340 C   0  0  0  0  0  0  0  0  0  0  0  0
   -0.1130   24.5560  -27.8080 C   0  0  0  0  0  0  0  0  0  0  0  0
    0.5940   24.1340  -28.8880 F   0  0  0  0  0  0  0  0  0  0  0  0
   -2.0640   21.5580  -28.3820 C   0  0  0  0  0  0  0  0  0  0  0  0
   -2.5150   20.9850  -27.3550 O   0  0  0  0  0  0  0  0  0  0  0  0
   -0.5920   21.5740  -28.6410 C   0  0  0  0  0  0  0  0  0  0  0  0
   -0.2260   20.6430  -29.8010 C   0  0  0  0  0  0  0  0  0  0  0  0
   -0.6710   21.2230  -31.1560 C   0  0  0  0  0  0  0  0  0  0  0  0
   -6.9491   22.9787  -30.2494 H   0  0  0  0  0  0  0  0  0  0  0  0
   -5.8851   24.2357  -30.9667 H   0  0  0  0  0  0  0  0  0  0  0  0
   -7.6673   24.4607  -30.9667 H   0  0  0  0  0  0  0  0  0  0  0  0
   -7.5327   23.6496  -33.0939 H   0  0  0  0  0  0  0  0  0  0  0  0
   -5.9244   22.8839  -32.7948 H   0  0  0  0  0  0  0  0  0  0  0  0
   -8.0288   20.5406  -30.5799 H   0  0  0  0  0  0  0  0  0  0  0  0
   -7.9821   22.3545  -30.3338 H   0  0  0  0  0  0  0  0  0  0  0  0
  -10.2642   21.6275  -30.0902 H   0  0  0  0  0  0  0  0  0  0  0  0
  -10.1060   22.5187  -31.6417 H   0  0  0  0  0  0  0  0  0  0  0  0
  -10.1975   20.7248  -31.6417 H   0  0  0  0  0  0  0  0  0  0  0  0
   -4.0321   19.7750  -34.0331 H   0  0  0  0  0  0  0  0  0  0  0  0
   -1.6700   20.1425  -33.3711 H   0  0  0  0  0  0  0  0  0  0  0  0
   -5.3601   21.6079  -30.3615 H   0  0  0  0  0  0  0  0  0  0  0  0
   -4.7564   23.2233  -29.1641 H   0  0  0  0  0  0  0  0  0  0  0  0
   -3.5265   23.5342  -27.8751 H   0  0  0  0  0  0  0  0  0  0  0  0
   -3.1791   25.7844  -26.8995 H   0  0  0  0  0  0  0  0  0  0  0  0
   -2.1687   25.5171  -24.6348 H   0  0  0  0  0  0  0  0  0  0  0  0
    0.1576   24.6421  -24.3977 H   0  0  0  0  0  0  0  0  0  0  0  0
    1.4669   24.0052  -26.4269 H   0  0  0  0  0  0  0  0  0  0  0  0
   -0.2825   22.5993  -28.8919 H   0  0  0  0  0  0  0  0  0  0  0  0
   -0.0742   21.2244  -27.7357 H   0  0  0  0  0  0  0  0  0  0  0  0
    0.8648   20.5013  -29.8144 H   0  0  0  0  0  0  0  0  0  0  0  0
   -0.7451   19.6850  -29.6499 H   0  0  0  0  0  0  0  0  0  0  0  0
   -0.4503   22.3006  -31.1601 H   0  0  0  0  0  0  0  0  0  0  0  0
   -0.1191   20.6743  -31.9334 H   0  0  0  0  0  0  0  0  0  0  0  0
  1  2  1  0
  2  3  1  0
  3  4  1  0
  4  5  1  0
  3  6  1  0
  6  7  2  0
  6  8  2  0
  6  9  1  0
  9 10  2  0
 10 11  1  0
 11 12  2  0
 12 13  1  0
 13 14  2  0
 13 15  1  0
 15 16  1  0
 16 17  1  0
 17 18  2  0
 17 19  1  0
 19 20  1  0
 20 21  2  0
 21 22  1  0
 22 23  2  0
 23 24  1  0
 24 25  2  0
 25 26  1  0
 15 27  1  0
 27 28  2  0
 27 29  1  0
 29 30  1  0
 30 31  1  0
 14  9  1  0
 25 20  1  0
 31 12  1  0
  1 32  1  0
  1 33  1  0
  1 34  1  0
  2 35  1  0
  2 36  1  0
  4 37  1  0
  4 38  1  0
  5 39  1  0
  5 40  1  0
  5 41  1  0
 10 42  1  0
 11 43  1  0
 14 44  1  0
 16 45  1  0
 16 46  1  0
 21 47  1  0
 22 48  1  0
 23 49  1  0
 24 50  1  0
 29 51  1  0
 29 52  1  0
 30 53  1  0
 30 54  1  0
 31 55  1  0
 31 56  1  0
M  CHG  1  19  -1
M  END
>  <UniqueID>  (44) 
40

>  <SMILES>  (44) 
CCN(CC)S(=O)(=O)c1ccc2c(c1)N(CC(=O)[N-]c1ccccc1F)C(=O)CCC2

>  <Energy>  (44) 
75.22470749914456

>  <Genealogy>  (44) 
CCN(CC)S(=O)(=O)c1ccc2c(c1)N(CC(=O)[N-]c1ccccc1F)C(=O)CCC2 (protonated)
CCN(CC)S(=O)(=O)c1ccc2c(c1)N(CC(=O)[N-]c1ccccc1F)C(=O)CCC2 (3D coordinates assigned)
CCN(CC)S(=O)(=O)c1ccc2c(c1)N(CC(=O)[N-]c1ccccc1F)C(=O)CCC2 (nonaromatic ring conformer: 75.22470749914456 kcal/mol)

>  <smiles>  (44) 
CCN(CC)S(=O)(=O)c1ccc2c(c1)N(CC(=O)Nc1ccccc1F)C(=O)CCC2

>  <score_type>  (44) 
oracle

>  <origin>  (44) 
adg

>  <m_score__min__energy>  (44) 
-8.5099999999999998

>  <m_primary>  (44) 
energy

$$$$
44:0
     RDKit          3D

 44 46  0  0  0  0  0  0  0  0999 V2000
   -3.4870   15.8500  -33.0670 C   0  0  0  0  0  0  0  0  0  0  0  0
   -4.1250   17.1420  -33.3870 N   0  0  1  0  0  0  0  0  0  0  0  0
   -3.3530   17.9140  -34.3970 C   0  0  0  0  0  0  0  0  0  0  0  0
   -2.6120   19.1610  -33.8620 C   0  0  0  0  0  0  0  0  0  0  0  0
   -2.9990   19.4790  -32.5240 O   0  0  0  0  0  0  0  0  0  0  0  0
   -3.5830   20.6850  -32.1030 C   0  0  0  0  0  0  0  0  0  0  0  0
   -4.2550   21.4570  -33.0570 C   0  0  0  0  0  0  0  0  0  0  0  0
   -4.8540   22.6680  -32.7060 C   0  0  0  0  0  0  0  0  0  0  0  0
   -4.7910   23.1280  -31.3840 C   0  0  0  0  0  0  0  0  0  0  0  0
   -5.3890   24.3450  -31.0200 C   0  0  0  0  0  0  0  0  0  0  0  0
   -5.3190   24.7920  -29.6970 C   0  0  0  0  0  0  0  0  0  0  0  0
   -4.6550   24.0300  -28.7320 C   0  0  0  0  0  0  0  0  0  0  0  0
   -4.0570   22.8160  -29.0820 C   0  0  0  0  0  0  0  0  0  0  0  0
   -4.1190   22.3560  -30.4060 C   0  0  0  0  0  0  0  0  0  0  0  0
   -3.5200   21.1390  -30.7700 C   0  0  0  0  0  0  0  0  0  0  0  0
   -5.5540   16.9380  -33.7320 C   0  0  0  0  0  0  0  0  0  0  0  0
   -6.4340   18.0560  -33.2230 C   0  0  0  0  0  0  0  0  0  0  0  0
   -7.2340   17.8620  -32.0850 C   0  0  0  0  0  0  0  0  0  0  0  0
   -8.0330   18.9020  -31.5990 C   0  0  0  0  0  0  0  0  0  0  0  0
   -8.0370   20.1430  -32.2440 C   0  0  0  0  0  0  0  0  0  0  0  0
   -9.1260   21.5630  -31.5760 Br  0  0  0  0  0  0  0  0  0  0  0  0
   -7.2410   20.3440  -33.3760 C   0  0  0  0  0  0  0  0  0  0  0  0
   -6.4430   19.3060  -33.8650 C   0  0  0  0  0  0  0  0  0  0  0  0
   -3.4281   15.7307  -31.9751 H   0  0  0  0  0  0  0  0  0  0  0  0
   -4.0840   15.0306  -33.4937 H   0  0  0  0  0  0  0  0  0  0  0  0
   -2.4734   15.8259  -33.4937 H   0  0  0  0  0  0  0  0  0  0  0  0
   -4.0960   17.7020  -32.5020 H   0  0  0  0  0  0  0  0  0  0  0  0
   -2.6048   17.2395  -34.8388 H   0  0  0  0  0  0  0  0  0  0  0  0
   -4.0936   18.2906  -35.1179 H   0  0  0  0  0  0  0  0  0  0  0  0
   -1.5294   18.9670  -33.8822 H   0  0  0  0  0  0  0  0  0  0  0  0
   -2.8747   20.0146  -34.5042 H   0  0  0  0  0  0  0  0  0  0  0  0
   -4.3121   21.1049  -34.0976 H   0  0  0  0  0  0  0  0  0  0  0  0
   -5.3769   23.2628  -33.4694 H   0  0  0  0  0  0  0  0  0  0  0  0
   -5.9132   24.9475  -31.7765 H   0  0  0  0  0  0  0  0  0  0  0  0
   -5.7880   25.7462  -29.4150 H   0  0  0  0  0  0  0  0  0  0  0  0
   -4.6027   24.3869  -27.6928 H   0  0  0  0  0  0  0  0  0  0  0  0
   -3.5367   22.2200  -28.3177 H   0  0  0  0  0  0  0  0  0  0  0  0
   -2.9990   20.5370  -30.0110 H   0  0  0  0  0  0  0  0  0  0  0  0
   -5.6491   16.8839  -34.8265 H   0  0  0  0  0  0  0  0  0  0  0  0
   -5.8853   16.0051  -33.2524 H   0  0  0  0  0  0  0  0  0  0  0  0
   -7.2321   16.8880  -31.5738 H   0  0  0  0  0  0  0  0  0  0  0  0
   -8.6590   18.7437  -30.7084 H   0  0  0  0  0  0  0  0  0  0  0  0
   -7.2429   21.3205  -33.8824 H   0  0  0  0  0  0  0  0  0  0  0  0
   -5.8192   19.4682  -34.7564 H   0  0  0  0  0  0  0  0  0  0  0  0
  1  2  1  0
  2  3  1  0
  3  4  1  0
  4  5  1  0
  5  6  1  0
  6  7  2  0
  7  8  1  0
  8  9  2  0
  9 10  1  0
 10 11  2  0
 11 12  1  0
 12 13  2  0
 13 14  1  0
 14 15  2  0
  2 16  1  0
 16 17  1  0
 17 18  2  0
 18 19  1  0
 19 20  2  0
 20 21  1  0
 20 22  1  0
 22 23  2  0
 15  6  1  0
 23 17  1  0
 14  9  1  0
  1 24  1  0
  1 25  1  0
  1 26  1  0
  2 27  1  1
  3 28  1  0
  3 29  1  0
  4 30  1  0
  4 31  1  0
  7 32  1  0
  8 33  1  0
 10 34  1  0
 11 35  1  0
 12 36  1  0
 13 37  1  0
 15 38  1  0
 16 39  1  0
 16 40  1  0
 18 41  1  0
 19 42  1  0
 22 43  1  0
 23 44  1  0
M  CHG  1   2   1
M  END
>  <UniqueID>  (45) 
41

>  <SMILES>  (45) 
C[N@@H+](CCOc1ccc2ccccc2c1)Cc1ccc(Br)cc1

>  <Energy>  (45) 
53.477866077169764

>  <Genealogy>  (45) 
C[NH+](CCOc1ccc2ccccc2c1)Cc1ccc(Br)cc1 (protonated)
C[N@@H+](CCOc1ccc2ccccc2c1)Cc1ccc(Br)cc1 (chirality)
C[N@@H+](CCOc1ccc2ccccc2c1)Cc1ccc(Br)cc1 (3D coordinates assigned)
C[N@@H+](CCOc1ccc2ccccc2c1)Cc1ccc(Br)cc1 (optimized conformer: 53.477866077169764 kcal/mol)

>  <smiles>  (45) 
CN(CCOc1ccc2ccccc2c1)Cc1ccc(Br)cc1

>  <score_type>  (45) 
oracle

>  <origin>  (45) 
adg

>  <m_score__min__energy>  (45) 
-7.4100000000000001

>  <m_primary>  (45) 
energy

$$$$
45:0
     RDKit          3D

 24 26  0  0  0  0  0  0  0  0999 V2000
   -6.1050   17.2660  -33.9700 C   0  0  0  0  0  0  0  0  0  0  0  0
   -6.9090   17.2080  -32.8290 C   0  0  0  0  0  0  0  0  0  0  0  0
   -7.3570   18.3870  -32.2260 C   0  0  0  0  0  0  0  0  0  0  0  0
   -7.0090   19.6360  -32.7660 C   0  0  0  0  0  0  0  0  0  0  0  0
   -7.4500   20.8550  -32.1450 N   0  0  0  0  0  0  0  0  0  0  0  0
   -8.6900   21.0860  -31.7180 N   0  0  0  0  0  0  0  0  0  0  0  0
   -8.8160   22.3000  -31.1870 N   0  0  0  0  0  0  0  0  0  0  0  0
   -7.5930   22.8540  -31.2820 C   0  0  0  0  0  0  0  0  0  0  0  0
   -7.1650   24.1000  -30.8410 C   0  0  0  0  0  0  0  0  0  0  0  0
   -5.8010   24.4010  -31.0230 C   0  0  0  0  0  0  0  0  0  0  0  0
   -4.9550   23.4830  -31.5950 N   0  0  0  0  0  0  0  0  0  0  0  0
   -5.3920   22.2600  -32.0220 C   0  0  0  0  0  0  0  0  0  0  0  0
   -6.7460   21.9670  -31.8690 C   0  0  0  0  0  0  0  0  0  0  0  0
   -6.1860   19.6870  -33.9040 C   0  0  0  0  0  0  0  0  0  0  0  0
   -5.7410   18.5050  -34.5060 C   0  0  0  0  0  0  0  0  0  0  0  0
   -5.7584   16.3372  -34.4466 H   0  0  0  0  0  0  0  0  0  0  0  0
   -7.1900   16.2330  -32.4043 H   0  0  0  0  0  0  0  0  0  0  0  0
   -7.9850   18.3363  -31.3243 H   0  0  0  0  0  0  0  0  0  0  0  0
   -9.4800   20.4080  -31.8010 H   0  0  0  0  0  0  0  0  0  0  0  0
   -7.8568   24.8158  -30.3730 H   0  0  0  0  0  0  0  0  0  0  0  0
   -5.4106   25.3788  -30.7045 H   0  0  0  0  0  0  0  0  0  0  0  0
   -4.6993   21.5327  -32.4706 H   0  0  0  0  0  0  0  0  0  0  0  0
   -5.8905   20.6601  -34.3231 H   0  0  0  0  0  0  0  0  0  0  0  0
   -5.1042   18.5505  -35.4018 H   0  0  0  0  0  0  0  0  0  0  0  0
  1  2  2  0
  2  3  1  0
  3  4  2  0
  4  5  1  0
  5  6  1  0
  6  7  2  0
  7  8  1  0
  8  9  2  0
  9 10  1  0
 10 11  2  0
 11 12  1  0
 12 13  2  0
  4 14  1  0
 14 15  2  0
 15  1  1  0
 13  5  1  0
 13  8  1  0
  1 16  1  0
  2 17  1  0
  3 18  1  0
  6 19  1  0
  9 20  1  0
 10 21  1  0
 12 22  1  0
 14 23  1  0
 15 24  1  0
M  CHG  1   6   1
M  END
>  <UniqueID>  (46) 
42

>  <SMILES>  (46) 
c1ccc(-n2[nH+]nc3ccncc32)cc1

>  <Energy>  (46) 
78.42836550490418

>  <Genealogy>  (46) 
c1ccc(-n2[nH+]nc3ccncc32)cc1 (protonated)
c1ccc(-n2[nH+]nc3ccncc32)cc1 (3D coordinates assigned)
c1ccc(-n2[nH+]nc3ccncc32)cc1 (optimized conformer: 78.42836550490418 kcal/mol)

>  <smiles>  (46) 
c1ccc(-n2nnc3ccncc32)cc1

>  <score_type>  (46) 
oracle

>  <origin>  (46) 
adg

>  <m_score__min__energy>  (46) 
-6.3600000000000003

>  <m_primary>  (46) 
energy

$$$$
46:0
     RDKit          3D

 34 36  0  0  0  0  0  0  0  0999 V2000
   -3.9850   16.4460  -33.7030 F   0  0  0  0  0  0  0  0  0  0  0  0
   -5.3560   16.3630  -33.5330 C   0  0  0  0  0  0  0  0  0  0  0  0
   -5.6550   16.5400  -32.1950 F   0  0  0  0  0  0  0  0  0  0  0  0
   -6.0560   17.4420  -34.3580 C   0  0  0  0  0  0  0  0  0  0  0  0
   -6.7260   18.4470  -33.4680 C   0  0  0  0  0  0  0  0  0  0  0  0
   -7.9790   18.3040  -32.9800 N   0  0  0  0  0  0  0  0  0  0  0  0
   -8.2190   19.3480  -32.1900 N   0  0  0  0  0  0  0  0  0  0  0  0
   -7.1040   20.1010  -32.2090 C   0  0  0  0  0  0  0  0  0  0  0  0
   -6.8820   21.2910  -31.5180 C   0  0  0  0  0  0  0  0  0  0  0  0
   -8.1190   21.9580  -30.4600 Cl  0  0  0  0  0  0  0  0  0  0  0  0
   -5.6210   21.9090  -31.6720 C   0  0  0  0  0  0  0  0  0  0  0  0
   -5.3230   23.1360  -30.9940 N   0  0  0  0  0  0  0  0  0  0  0  0
   -4.3290   23.1230  -29.9150 C   0  0  0  0  0  0  0  0  0  0  0  0
   -4.1430   24.5230  -29.3330 C   0  0  0  0  0  0  0  0  0  0  0  0
   -4.1310   25.4960  -30.4270 N   0  0  0  0  0  0  0  0  0  0  0  0
   -5.4600   25.6240  -31.0500 C   0  0  0  0  0  0  0  0  0  0  0  0
   -6.2220   24.2840  -31.1590 C   0  0  0  0  0  0  0  0  0  0  0  0
   -4.6390   21.3110  -32.4960 C   0  0  0  0  0  0  0  0  0  0  0  0
   -4.9260   20.1120  -33.1640 C   0  0  0  0  0  0  0  0  0  0  0  0
   -6.1560   19.5660  -32.9890 N   0  0  0  0  0  0  0  0  0  0  0  0
   -5.7051   15.3758  -33.8699 H   0  0  0  0  0  0  0  0  0  0  0  0
   -5.3119   17.9555  -34.9846 H   0  0  0  0  0  0  0  0  0  0  0  0
   -6.8220   16.9627  -34.9853 H   0  0  0  0  0  0  0  0  0  0  0  0
   -4.6691   22.4438  -29.1194 H   0  0  0  0  0  0  0  0  0  0  0  0
   -3.3674   22.7807  -30.3251 H   0  0  0  0  0  0  0  0  0  0  0  0
   -4.9719   24.7501  -28.6464 H   0  0  0  0  0  0  0  0  0  0  0  0
   -3.1930   24.5728  -28.7807 H   0  0  0  0  0  0  0  0  0  0  0  0
   -3.8660   26.4290  -30.0310 H   0  0  0  0  0  0  0  0  0  0  0  0
   -6.0621   26.3187  -30.4459 H   0  0  0  0  0  0  0  0  0  0  0  0
   -5.3026   25.9907  -32.0751 H   0  0  0  0  0  0  0  0  0  0  0  0
   -6.9943   24.2479  -30.3765 H   0  0  0  0  0  0  0  0  0  0  0  0
   -6.6739   24.2258  -32.1602 H   0  0  0  0  0  0  0  0  0  0  0  0
   -3.6533   21.7851  -32.6124 H   0  0  0  0  0  0  0  0  0  0  0  0
   -4.1776   19.6291  -33.8096 H   0  0  0  0  0  0  0  0  0  0  0  0
  1  2  1  0
  2  3  1  0
  2  4  1  0
  4  5  1  0
  5  6  2  0
  6  7  1  0
  7  8  2  0
  8  9  1  0
  9 10  1  0
  9 11  2  0
 11 12  1  0
 12 13  1  0
 13 14  1  0
 14 15  1  0
 15 16  1  0
 16 17  1  0
 11 18  1  0
 18 19  2  0
 19 20  1  0
 20  5  1  0
 20  8  1  0
 17 12  1  0
  2 21  1  0
  4 22  1  0
  4 23  1  0
 13 24  1  0
 13 25  1  0
 14 26  1  0
 14 27  1  0
 15 28  1  0
 16 29  1  0
 16 30  1  0
 17 31  1  0
 17 32  1  0
 18 33  1  0
 19 34  1  0
M  END
>  <UniqueID>  (47) 
43

>  <SMILES>  (47) 
FC(F)Cc1nnc2c(Cl)c(N3CCNCC3)ccn12

>  <Energy>  (47) 
81.52561028609881

>  <Genealogy>  (47) 
FC(F)Cc1nnc2c(Cl)c(N3CCNCC3)ccn12 (3D coordinates assigned)
FC(F)Cc1nnc2c(Cl)c(N3CCNCC3)ccn12 (nonaromatic ring conformer: 81.52561028609881 kcal/mol)

>  <smiles>  (47) 
FC(F)Cc1nnc2c(Cl)c(N3CCNCC3)ccn12

>  <score_type>  (47) 
oracle

>  <origin>  (47) 
adg

>  <m_score__min__energy>  (47) 
-7.21

>  <m_primary>  (47) 
energy

$$$$
47:0
     RDKit          3D

 54 56  0  0  0  0  0  0  0  0999 V2000
   -4.6620   14.9170  -32.3170 C   0  0  0  0  0  0  0  0  0  0  0  0
   -3.9860   15.0520  -33.6760 C   0  0  0  0  0  0  0  0  0  0  0  0
   -3.5830   16.4400  -33.9100 N   0  0  0  0  0  0  0  0  0  0  0  0
   -2.3460   16.9390  -33.7430 C   0  0  0  0  0  0  0  0  0  0  0  0
   -2.3860   18.2850  -34.0240 C   0  0  0  0  0  0  0  0  0  0  0  0
   -3.6430   18.6410  -34.3590 N   0  0  0  0  0  0  0  0  0  0  0  0
   -4.3530   17.4950  -34.2610 C   0  0  0  0  0  0  0  0  0  0  0  0
   -5.8180   17.4150  -34.5910 C   0  0  0  0  0  0  0  0  0  0  0  0
   -6.5100   18.6240  -34.1500 N   0  0  0  0  0  0  0  0  0  0  0  0
   -6.6620   18.9490  -32.7580 C   0  0  0  0  0  0  0  0  0  0  0  0
   -6.1820   18.1780  -31.8820 O   0  0  0  0  0  0  0  0  0  0  0  0
   -7.3380   20.1560  -32.3490 N   0  0  0  0  0  0  0  0  0  0  0  0
   -8.8090   20.2140  -32.3240 C   0  0  0  0  0  0  0  0  0  0  0  0
   -9.3010   21.2800  -31.3380 C   0  0  0  0  0  0  0  0  0  0  0  0
   -8.7020   22.6710  -31.6190 C   0  0  0  0  0  0  0  0  0  0  0  0
   -7.2940   22.6230  -32.2660 C   0  0  1  0  0  0  0  0  0  0  0  0
   -6.4530   23.8970  -31.9960 C   0  0  0  0  0  0  0  0  0  0  0  0
   -5.3940   23.7410  -30.9220 C   0  0  0  0  0  0  0  0  0  0  0  0
   -5.6190   24.2830  -29.6440 C   0  0  0  0  0  0  0  0  0  0  0  0
   -4.6650   24.1430  -28.6340 C   0  0  0  0  0  0  0  0  0  0  0  0
   -3.4720   23.4690  -28.8890 C   0  0  0  0  0  0  0  0  0  0  0  0
   -3.2190   22.9460  -30.1590 C   0  0  0  0  0  0  0  0  0  0  0  0
   -4.1690   23.0860  -31.1910 C   0  0  0  0  0  0  0  0  0  0  0  0
   -3.9250   22.6000  -32.4860 O   0  0  0  0  0  0  0  0  0  0  0  0
   -3.2250   21.3960  -32.7820 C   0  0  0  0  0  0  0  0  0  0  0  0
   -6.5500   21.3200  -31.9190 C   0  0  0  0  0  0  0  0  0  0  0  0
   -3.9177   15.0656  -31.5208 H   0  0  0  0  0  0  0  0  0  0  0  0
   -5.4540   15.6747  -32.2246 H   0  0  0  0  0  0  0  0  0  0  0  0
   -5.1023   13.9132  -32.2246 H   0  0  0  0  0  0  0  0  0  0  0  0
   -3.0957   14.4065  -33.7037 H   0  0  0  0  0  0  0  0  0  0  0  0
   -4.6965   14.7498  -34.4595 H   0  0  0  0  0  0  0  0  0  0  0  0
   -1.4564   16.3699  -33.4352 H   0  0  0  0  0  0  0  0  0  0  0  0
   -1.5240   18.9671  -33.9819 H   0  0  0  0  0  0  0  0  0  0  0  0
   -5.9383   17.3058  -35.6789 H   0  0  0  0  0  0  0  0  0  0  0  0
   -6.2522   16.5479  -34.0718 H   0  0  0  0  0  0  0  0  0  0  0  0
   -6.8550   19.2830  -34.8820 H   0  0  0  0  0  0  0  0  0  0  0  0
   -9.1763   20.4592  -33.3314 H   0  0  0  0  0  0  0  0  0  0  0  0
   -9.1925   19.2349  -32.0012 H   0  0  0  0  0  0  0  0  0  0  0  0
  -10.3965   21.3474  -31.4103 H   0  0  0  0  0  0  0  0  0  0  0  0
   -8.9778   20.9761  -30.3314 H   0  0  0  0  0  0  0  0  0  0  0  0
   -9.3785   23.2098  -32.2987 H   0  0  0  0  0  0  0  0  0  0  0  0
   -8.5931   23.1766  -30.6482 H   0  0  0  0  0  0  0  0  0  0  0  0
   -7.4505   22.6141  -33.3548 H   0  0  0  0  0  0  0  0  0  0  0  0
   -5.9517   24.1816  -32.9328 H   0  0  0  0  0  0  0  0  0  0  0  0
   -7.1551   24.6614  -31.6315 H   0  0  0  0  0  0  0  0  0  0  0  0
   -6.5553   24.8223  -29.4381 H   0  0  0  0  0  0  0  0  0  0  0  0
   -4.8552   24.5651  -27.6362 H   0  0  0  0  0  0  0  0  0  0  0  0
   -2.7278   23.3487  -28.0879 H   0  0  0  0  0  0  0  0  0  0  0  0
   -2.2723   22.4214  -30.3553 H   0  0  0  0  0  0  0  0  0  0  0  0
   -2.9364   20.8996  -31.8438 H   0  0  0  0  0  0  0  0  0  0  0  0
   -3.8754   20.7277  -33.3654 H   0  0  0  0  0  0  0  0  0  0  0  0
   -2.3225   21.6306  -33.3654 H   0  0  0  0  0  0  0  0  0  0  0  0
   -5.5769   21.3096  -32.4317 H   0  0  0  0  0  0  0  0  0  0  0  0
   -6.4012   21.2705  -30.8302 H   0  0  0  0  0  0  0  0  0  0  0  0
  1  2  1  0
  2  3  1  0
  3  4  1  0
  4  5  2  0
  5  6  1  0
  6  7  2  0
  7  8  1  0
  8  9  1  0
  9 10  1  0
 10 11  2  0
 10 12  1  0
 12 13  1  0
 13 14  1  0
 14 15  1  0
 15 16  1  0
 16 17  1  0
 17 18  1  0
 18 19  2  0
 19 20  1  0
 20 21  2  0
 21 22  1  0
 22 23  2  0
 23 24  1  0
 24 25  1  0
 16 26  1  0
  7  3  1  0
 26 12  1  0
 23 18  1  0
  1 27  1  0
  1 28  1  0
  1 29  1  0
  2 30  1  0
  2 31  1  0
  4 32  1  0
  5 33  1  0
  8 34  1  0
  8 35  1  0
  9 36  1  0
 13 37  1  0
 13 38  1  0
 14 39  1  0
 14 40  1  0
 15 41  1  0
 15 42  1  0
 16 43  1  6
 17 44  1  0
 17 45  1  0
 19 46  1  0
 20 47  1  0
 21 48  1  0
 22 49  1  0
 25 50  1  0
 25 51  1  0
 25 52  1  0
 26 53  1  0
 26 54  1  0
M  END
>  <UniqueID>  (48) 
44

>  <SMILES>  (48) 
CCn1ccnc1CNC(=O)N1CCC[C@@H](Cc2ccccc2OC)C1

>  <Energy>  (48) 
79.946342636283

>  <Genealogy>  (48) 
CCn1ccnc1CNC(=O)N1CCC[C@@H](Cc2ccccc2OC)C1 (chirality)
CCn1ccnc1CNC(=O)N1CCC[C@@H](Cc2ccccc2OC)C1 (3D coordinates assigned)
CCn1ccnc1CNC(=O)N1CCC[C@@H](Cc2ccccc2OC)C1 (nonaromatic ring conformer: 79.946342636283 kcal/mol)

>  <smiles>  (48) 
CCn1ccnc1CNC(=O)N1CCCC(Cc2ccccc2OC)C1

>  <score_type>  (48) 
oracle

>  <origin>  (48) 
adg

>  <m_score__min__energy>  (48) 
-8.4000000000000004

>  <m_primary>  (48) 
energy

$$$$
48:0
     RDKit          3D

 48 52  0  0  0  0  0  0  0  0999 V2000
    5.0750   13.6880  -25.9200 C   0  0  0  0  0  0  0  0  0  0  0  0
    3.5990   13.8100  -26.1540 C   0  0  0  0  0  0  0  0  0  0  0  0
    2.7160   12.8750  -25.5960 C   0  0  0  0  0  0  0  0  0  0  0  0
    1.3460   12.9700  -25.8430 C   0  0  0  0  0  0  0  0  0  0  0  0
    0.8450   13.9870  -26.6590 C   0  0  0  0  0  0  0  0  0  0  0  0
    1.7170   14.9240  -27.2500 C   0  0  0  0  0  0  0  0  0  0  0  0
    1.2100   16.0120  -28.1280 C   0  0  0  0  0  0  0  0  0  0  0  0
    0.9240   15.8590  -29.4900 C   0  0  0  0  0  0  0  0  0  0  0  0
    0.3900   17.3390  -30.0870 S   0  0  0  0  0  0  0  0  0  0  0  0
    0.5430   18.1060  -28.6030 C   0  0  0  0  0  0  0  0  0  0  0  0
    0.2400   19.4810  -28.3600 N   0  0  0  0  0  0  0  0  0  0  0  0
   -0.6820   20.1610  -29.0230 N   0  0  0  0  0  0  0  0  0  0  0  0
   -0.6670   21.4080  -28.5140 C   0  0  0  0  0  0  0  0  0  0  0  0
   -1.4920   22.5110  -29.0470 C   0  0  0  0  0  0  0  0  0  0  0  0
   -2.4200   22.2900  -30.0800 C   0  0  0  0  0  0  0  0  0  0  0  0
   -3.2050   23.3420  -30.5600 C   0  0  0  0  0  0  0  0  0  0  0  0
   -3.0840   24.6180  -30.0030 C   0  0  0  0  0  0  0  0  0  0  0  0
   -3.8660   25.6630  -30.4820 O   0  0  0  0  0  0  0  0  0  0  0  0
   -2.1810   24.8420  -28.9600 C   0  0  0  0  0  0  0  0  0  0  0  0
   -1.3930   23.7910  -28.4790 C   0  0  0  0  0  0  0  0  0  0  0  0
    0.2990   21.4400  -27.5140 C   0  0  0  0  0  0  0  0  0  0  0  0
    0.6440   22.5400  -26.5900 C   0  0  0  0  0  0  0  0  0  0  0  0
   -0.0760   22.6970  -25.3940 C   0  0  0  0  0  0  0  0  0  0  0  0
    0.2280   23.7440  -24.5190 C   0  0  0  0  0  0  0  0  0  0  0  0
    1.2440   24.6550  -24.8360 C   0  0  0  0  0  0  0  0  0  0  0  0
    1.5570   25.7010  -23.9710 O   0  0  0  0  0  0  0  0  0  0  0  0
    1.9480   24.5180  -26.0360 C   0  0  0  0  0  0  0  0  0  0  0  0
    1.6460   23.4720  -26.9140 C   0  0  0  0  0  0  0  0  0  0  0  0
    0.8540   20.2160  -27.4450 N   0  0  0  0  0  0  0  0  0  0  0  0
    0.9960   17.2690  -27.6470 N   0  0  0  0  0  0  0  0  0  0  0  0
    3.0970   14.8220  -26.9890 C   0  0  0  0  0  0  0  0  0  0  0  0
    5.2746   13.6715  -24.8384 H   0  0  0  0  0  0  0  0  0  0  0  0
    5.4426   12.7564  -26.3750 H   0  0  0  0  0  0  0  0  0  0  0  0
    5.5906   14.5466  -26.3750 H   0  0  0  0  0  0  0  0  0  0  0  0
    3.1042   12.0644  -24.9618 H   0  0  0  0  0  0  0  0  0  0  0  0
    0.6569   12.2403  -25.3928 H   0  0  0  0  0  0  0  0  0  0  0  0
   -0.2374   14.0573  -26.8418 H   0  0  0  0  0  0  0  0  0  0  0  0
    1.0301   14.9306  -30.0703 H   0  0  0  0  0  0  0  0  0  0  0  0
   -2.5287   21.2844  -30.5124 H   0  0  0  0  0  0  0  0  0  0  0  0
   -3.9193   23.1653  -31.3776 H   0  0  0  0  0  0  0  0  0  0  0  0
   -2.0899   25.8449  -28.5173 H   0  0  0  0  0  0  0  0  0  0  0  0
   -0.6914   23.9686  -27.6506 H   0  0  0  0  0  0  0  0  0  0  0  0
   -0.8831   21.9925  -25.1447 H   0  0  0  0  0  0  0  0  0  0  0  0
   -0.3323   23.8529  -23.5787 H   0  0  0  0  0  0  0  0  0  0  0  0
    1.4280   25.6160  -22.9690 H   0  0  0  0  0  0  0  0  0  0  0  0
    2.7422   25.2353  -26.2906 H   0  0  0  0  0  0  0  0  0  0  0  0
    2.1949   23.3779  -27.8626 H   0  0  0  0  0  0  0  0  0  0  0  0
    3.7907   15.5439  -27.4447 H   0  0  0  0  0  0  0  0  0  0  0  0
  1  2  1  0
  2  3  2  0
  3  4  1  0
  4  5  2  0
  5  6  1  0
  6  7  1  0
  7  8  2  0
  8  9  1  0
  9 10  1  0
 10 11  1  0
 11 12  1  0
 12 13  2  0
 13 14  1  0
 14 15  2  0
 15 16  1  0
 16 17  2  0
 17 18  1  0
 17 19  1  0
 19 20  2  0
 13 21  1  0
 21 22  1  0
 22 23  2  0
 23 24  1  0
 24 25  2  0
 25 26  1  0
 25 27  1  0
 27 28  2  0
 21 29  2  0
 10 30  2  0
  6 31  2  0
 31  2  1  0
 30  7  1  0
 29 11  1  0
 20 14  1  0
 28 22  1  0
  1 32  1  0
  1 33  1  0
  1 34  1  0
  3 35  1  0
  4 36  1  0
  5 37  1  0
  8 38  1  0
 15 39  1  0
 16 40  1  0
 19 41  1  0
 20 42  1  0
 23 43  1  0
 24 44  1  0
 26 45  1  0
 27 46  1  0
 28 47  1  0
 31 48  1  0
M  CHG  1  18  -1
M  END
>  <UniqueID>  (49) 
45

>  <SMILES>  (49) 
Cc1cccc(-c2csc(-n3nc(-c4ccc([O-])cc4)c(-c4ccc(O)cc4)n3)n2)c1

>  <Energy>  (49) 
127.00666166406502

>  <Genealogy>  (49) 
Cc1cccc(-c2csc(-n3nc(-c4ccc([O-])cc4)c(-c4ccc(O)cc4)n3)n2)c1 (protonated)
Cc1cccc(-c2csc(-n3nc(-c4ccc([O-])cc4)c(-c4ccc(O)cc4)n3)n2)c1 (3D coordinates assigned)
Cc1cccc(-c2csc(-n3nc(-c4ccc([O-])cc4)c(-c4ccc(O)cc4)n3)n2)c1 (optimized conformer: 127.00666166406502 kcal/mol)

>  <smiles>  (49) 
Cc1cccc(-c2csc(-n3nc(-c4ccc(O)cc4)c(-c4ccc(O)cc4)n3)n2)c1

>  <score_type>  (49) 
oracle

>  <origin>  (49) 
adg

>  <m_score__min__energy>  (49) 
-9.8100000000000005

>  <m_primary>  (49) 
energy

$$$$
49:0
     RDKit          3D

 31 32  0  0  0  0  0  0  0  0999 V2000
   -6.6090   16.8490  -33.4830 Cl  0  0  0  0  0  0  0  0  0  0  0  0
   -7.1310   18.4270  -32.9230 C   0  0  0  0  0  0  0  0  0  0  0  0
   -8.3060   18.5510  -32.1730 C   0  0  0  0  0  0  0  0  0  0  0  0
   -8.7220   19.8080  -31.7250 C   0  0  0  0  0  0  0  0  0  0  0  0
   -7.9670   20.9540  -32.0280 C   0  0  0  0  0  0  0  0  0  0  0  0
   -8.3970   22.3080  -31.5290 C   0  0  0  0  0  0  0  0  0  0  0  0
   -7.6040   22.7070  -30.3580 N   0  0  0  0  0  0  0  0  0  0  0  0
   -6.4300   23.5320  -30.7070 C   0  0  0  0  0  0  0  0  0  0  0  0
   -6.6030   24.9360  -30.1150 C   0  0  0  0  0  0  0  0  0  0  0  0
   -5.3690   25.8210  -30.4100 C   0  0  0  0  0  0  0  0  0  0  0  0
   -4.2380   25.0850  -30.8520 O   0  0  0  0  0  0  0  0  0  0  0  0
   -4.0150   23.9770  -30.0040 C   0  0  0  0  0  0  0  0  0  0  0  0
   -5.1010   22.9060  -30.2140 C   0  0  0  0  0  0  0  0  0  0  0  0
   -6.7860   20.8210  -32.7770 C   0  0  0  0  0  0  0  0  0  0  0  0
   -6.3720   19.5630  -33.2240 C   0  0  0  0  0  0  0  0  0  0  0  0
   -8.9030   17.6581  -31.9357 H   0  0  0  0  0  0  0  0  0  0  0  0
   -9.6443   19.9006  -31.1327 H   0  0  0  0  0  0  0  0  0  0  0  0
   -8.2563   23.0491  -32.3296 H   0  0  0  0  0  0  0  0  0  0  0  0
   -9.4564   22.2569  -31.2374 H   0  0  0  0  0  0  0  0  0  0  0  0
   -7.2880   21.8430  -29.8580 H   0  0  0  0  0  0  0  0  0  0  0  0
   -6.3715   23.5869  -31.8041 H   0  0  0  0  0  0  0  0  0  0  0  0
   -7.4949   25.4046  -30.5565 H   0  0  0  0  0  0  0  0  0  0  0  0
   -6.7141   24.8440  -29.0245 H   0  0  0  0  0  0  0  0  0  0  0  0
   -5.6395   26.5466  -31.1912 H   0  0  0  0  0  0  0  0  0  0  0  0
   -5.0882   26.3106  -29.4658 H   0  0  0  0  0  0  0  0  0  0  0  0
   -3.0301   23.5420  -30.2292 H   0  0  0  0  0  0  0  0  0  0  0  0
   -4.0508   24.3178  -28.9587 H   0  0  0  0  0  0  0  0  0  0  0  0
   -4.7481   22.1814  -30.9627 H   0  0  0  0  0  0  0  0  0  0  0  0
   -5.2896   22.4127  -29.2491 H   0  0  0  0  0  0  0  0  0  0  0  0
   -6.1842   21.7111  -33.0128 H   0  0  0  0  0  0  0  0  0  0  0  0
   -5.4482   19.4661  -33.8132 H   0  0  0  0  0  0  0  0  0  0  0  0
  1  2  1  0
  2  3  2  0
  3  4  1  0
  4  5  2  0
  5  6  1  0
  6  7  1  0
  7  8  1  0
  8  9  1  0
  9 10  1  0
 10 11  1  0
 11 12  1  0
 12 13  1  0
  5 14  1  0
 14 15  2  0
 15  2  1  0
 13  8  1  0
  3 16  1  0
  4 17  1  0
  6 18  1  0
  6 19  1  0
  7 20  1  0
  8 21  1  0
  9 22  1  0
  9 23  1  0
 10 24  1  0
 10 25  1  0
 12 26  1  0
 12 27  1  0
 13 28  1  0
 13 29  1  0
 14 30  1  0
 15 31  1  0
M  END
>  <UniqueID>  (50) 
46

>  <SMILES>  (50) 
Clc1ccc(CNC2CCOCC2)cc1

>  <Energy>  (50) 
36.60196432509732

>  <Genealogy>  (50) 
Clc1ccc(CNC2CCOCC2)cc1 (3D coordinates assigned)
Clc1ccc(CNC2CCOCC2)cc1 (nonaromatic ring conformer: 36.60196432509732 kcal/mol)

>  <smiles>  (50) 
Clc1ccc(CNC2CCOCC2)cc1

>  <score_type>  (50) 
oracle

>  <origin>  (50) 
adg

>  <m_score__min__energy>  (50) 
-7.5300000000000002

>  <m_primary>  (50) 
energy

$$$$
