0:0
     RDKit          3D

 61 63  0  0  0  0  0  0  0  0999 V2000
   -3.1060   21.0210  -27.8320 C   0  0  0  0  0  0  0  0  0  0  0  0
   -2.6080   22.2300  -28.6080 C   0  0  0  0  0  0  0  0  0  0  0  0
   -3.2240   22.2550  -29.8920 O   0  0  0  0  0  0  0  0  0  0  0  0
   -4.3490   23.0240  -30.2390 C   0  0  0  0  0  0  0  0  0  0  0  0
   -4.3960   24.3930  -29.9290 C   0  0  0  0  0  0  0  0  0  0  0  0
   -5.5390   25.1360  -30.1810 C   0  0  0  0  0  0  0  0  0  0  0  0
   -6.6540   24.5380  -30.7550 C   0  0  0  0  0  0  0  0  0  0  0  0
   -6.6390   23.1740  -31.1340 C   0  0  0  0  0  0  0  0  0  0  0  0
   -5.4660   22.4070  -30.8710 C   0  0  0  0  0  0  0  0  0  0  0  0
   -5.4610   21.0380  -31.2250 C   0  0  0  0  0  0  0  0  0  0  0  0
   -4.2270   20.2990  -31.2840 N   0  0  0  0  0  0  0  0  0  0  0  0
   -3.8500   19.5700  -32.4980 C   0  0  0  0  0  0  0  0  0  0  0  0
   -3.5470   20.5430  -33.6540 C   0  0  0  0  0  0  0  0  0  0  0  0
   -2.6260   21.5480  -33.2640 O   0  0  0  0  0  0  0  0  0  0  0  0
   -1.2930   21.1600  -33.5540 C   0  0  0  0  0  0  0  0  0  0  0  0
   -0.4320   21.1420  -32.2740 C   0  0  0  0  0  0  0  0  0  0  0  0
   -1.2490   21.0090  -31.0440 N   0  0  0  0  0  0  0  0  0  0  0  0
   -0.8230   19.9020  -30.1590 C   0  0  0  0  0  0  0  0  0  0  0  0
    0.1810   20.3740  -29.0950 C   0  0  0  0  0  0  0  0  0  0  0  0
   -0.1940   18.7770  -30.9970 C   0  0  0  0  0  0  0  0  0  0  0  0
   -6.6680   20.4150  -31.5970 C   0  0  0  0  0  0  0  0  0  0  0  0
   -6.7420   19.0180  -31.7900 C   0  0  0  0  0  0  0  0  0  0  0  0
   -7.9410   18.4120  -32.1590 C   0  0  0  0  0  0  0  0  0  0  0  0
   -9.0870   19.1780  -32.3240 C   0  0  0  0  0  0  0  0  0  0  0  0
   -9.0370   20.5600  -32.1480 C   0  0  0  0  0  0  0  0  0  0  0  0
   -7.8220   21.2120  -31.8180 C   0  0  0  0  0  0  0  0  0  0  0  0
   -7.7370   22.5860  -31.7320 N   0  0  0  0  0  0  0  0  0  0  0  0
   -8.8110   23.4270  -32.3060 C   0  0  0  0  0  0  0  0  0  0  0  0
   -3.0245   21.2189  -26.7530 H   0  0  0  0  0  0  0  0  0  0  0  0
   -4.1573   20.8268  -28.0908 H   0  0  0  0  0  0  0  0  0  0  0  0
   -2.4964   20.1427  -28.0908 H   0  0  0  0  0  0  0  0  0  0  0  0
   -2.8644   23.1487  -28.0601 H   0  0  0  0  0  0  0  0  0  0  0  0
   -1.5161   22.1666  -28.7256 H   0  0  0  0  0  0  0  0  0  0  0  0
   -3.5172   24.8805  -29.4818 H   0  0  0  0  0  0  0  0  0  0  0  0
   -5.5633   26.2055  -29.9249 H   0  0  0  0  0  0  0  0  0  0  0  0
   -7.5638   25.1344  -30.9177 H   0  0  0  0  0  0  0  0  0  0  0  0
   -3.7150   20.0820  -30.4000 H   0  0  0  0  0  0  0  0  0  0  0  0
   -2.9539   18.9663  -32.2916 H   0  0  0  0  0  0  0  0  0  0  0  0
   -4.6896   18.9240  -32.7942 H   0  0  0  0  0  0  0  0  0  0  0  0
   -3.1214   19.9761  -34.4952 H   0  0  0  0  0  0  0  0  0  0  0  0
   -4.4874   21.0334  -33.9457 H   0  0  0  0  0  0  0  0  0  0  0  0
   -1.2996   20.1533  -33.9973 H   0  0  0  0  0  0  0  0  0  0  0  0
   -0.8611   21.8876  -34.2569 H   0  0  0  0  0  0  0  0  0  0  0  0
    0.2644   20.2923  -32.3289 H   0  0  0  0  0  0  0  0  0  0  0  0
    0.1046   22.1006  -32.2177 H   0  0  0  0  0  0  0  0  0  0  0  0
   -2.2660   20.9060  -31.2670 H   0  0  0  0  0  0  0  0  0  0  0  0
   -1.1530   21.9040  -30.5100 H   0  0  0  0  0  0  0  0  0  0  0  0
   -1.7172   19.5287  -29.6384 H   0  0  0  0  0  0  0  0  0  0  0  0
   -0.2292   20.1812  -28.0927 H   0  0  0  0  0  0  0  0  0  0  0  0
    1.1274   19.8265  -29.2154 H   0  0  0  0  0  0  0  0  0  0  0  0
    0.3632   21.4521  -29.2154 H   0  0  0  0  0  0  0  0  0  0  0  0
    0.2319   18.0153  -30.3274 H   0  0  0  0  0  0  0  0  0  0  0  0
   -0.9659   18.3171  -31.6316 H   0  0  0  0  0  0  0  0  0  0  0  0
    0.6020   19.1937  -31.6316 H   0  0  0  0  0  0  0  0  0  0  0  0
   -5.8425   18.4011  -31.6473 H   0  0  0  0  0  0  0  0  0  0  0  0
   -7.9797   17.3245  -32.3199 H   0  0  0  0  0  0  0  0  0  0  0  0
  -10.0368   18.6933  -32.5943 H   0  0  0  0  0  0  0  0  0  0  0  0
   -9.9550   21.1542  -32.2671 H   0  0  0  0  0  0  0  0  0  0  0  0
   -9.3938   23.8834  -31.4923 H   0  0  0  0  0  0  0  0  0  0  0  0
   -8.3650   24.2185  -32.9262 H   0  0  0  0  0  0  0  0  0  0  0  0
   -9.4725   22.8042  -32.9262 H   0  0  0  0  0  0  0  0  0  0  0  0
  1  2  1  0
  2  3  1  0
  3  4  1  0
  4  5  2  0
  5  6  1  0
  6  7  2  0
  7  8  1  0
  8  9  2  0
  9 10  1  0
 10 11  1  0
 11 12  1  0
 12 13  1  0
 13 14  1  0
 14 15  1  0
 15 16  1  0
 16 17  1  0
 17 18  1  0
 18 19  1  0
 18 20  1  0
 10 21  2  0
 21 22  1  0
 22 23  2  0
 23 24  1  0
 24 25  2  0
 25 26  1  0
 26 27  2  0
 27 28  1  0
  9  4  1  0
 26 21  1  0
 27  8  1  0
  1 29  1  0
  1 30  1  0
  1 31  1  0
  2 32  1  0
  2 33  1  0
  5 34  1  0
  6 35  1  0
  7 36  1  0
 11 37  1  0
 12 38  1  0
 12 39  1  0
 13 40  1  0
 13 41  1  0
 15 42  1  0
 15 43  1  0
 16 44  1  0
 16 45  1  0
 17 46  1  0
 17 47  1  0
 18 48  1  0
 19 49  1  0
 19 50  1  0
 19 51  1  0
 20 52  1  0
 20 53  1  0
 20 54  1  0
 22 55  1  0
 23 56  1  0
 24 57  1  0
 25 58  1  0
 28 59  1  0
 28 60  1  0
 28 61  1  0
M  CHG  2  17   1  27   1
M  END
>  <UniqueID>  (1) 
1

>  <SMILES>  (1) 
CCOc1cccc2c1c(NCCOCC[NH2+]C(C)C)c1ccccc1[n+]2C

>  <Energy>  (1) 
87.22739480068942

>  <Genealogy>  (1) 
CCOc1cccc2c1c(NCCOCC[NH2+]C(C)C)c1ccccc1[n+]2C (protonated)
CCOc1cccc2c1c(NCCOCC[NH2+]C(C)C)c1ccccc1[n+]2C (3D coordinates assigned)
CCOc1cccc2c1c(NCCOCC[NH2+]C(C)C)c1ccccc1[n+]2C (optimized conformer: 87.22739480068942 kcal/mol)

>  <smiles>  (1) 
CCOc1cccc2c1c(NCCOCCNC(C)C)c1ccccc1[n+]2C

>  <score_type>  (1) 
oracle

>  <origin>  (1) 
adg

>  <m_score__min__energy>  (1) 
-7.0199999999999996

>  <m_primary>  (1) 
energy

$$$$
1:0
     RDKit          3D

 41 41  0  0  0  0  0  0  0  0999 V2000
   -3.6140   24.8630  -26.6400 C   0  0  0  0  0  0  0  0  0  0  0  0
   -2.3380   25.5280  -26.2120 C   0  0  0  0  0  0  0  0  0  0  0  0
   -2.3230   26.2040  -25.0300 N   0  0  0  0  0  0  0  0  0  0  0  0
   -1.2100   26.8340  -24.5680 C   0  0  0  0  0  0  0  0  0  0  0  0
   -0.0320   26.8030  -25.3110 C   0  0  0  0  0  0  0  0  0  0  0  0
   -0.0090   26.1210  -26.5260 C   0  0  0  0  0  0  0  0  0  0  0  0
   -1.1600   25.4630  -26.9950 C   0  0  0  0  0  0  0  0  0  0  0  0
   -1.0980   24.7010  -28.3000 C   0  0  0  0  0  0  0  0  0  0  0  0
   -1.9860   25.2940  -29.2980 N   0  0  0  0  0  0  0  0  0  0  0  0
   -3.1130   24.6180  -29.8620 C   0  0  0  0  0  0  0  0  0  0  0  0
   -3.3410   23.4220  -29.5410 O   0  0  0  0  0  0  0  0  0  0  0  0
   -3.9660   25.2910  -30.7920 N   0  0  0  0  0  0  0  0  0  0  0  0
   -5.3510   25.6390  -30.5080 C   0  0  0  0  0  0  0  0  0  0  0  0
   -6.2870   24.6000  -31.1250 C   0  0  0  0  0  0  0  0  0  0  0  0
   -5.5210   23.4950  -31.7140 N   0  0  0  0  0  0  0  0  0  0  0  0
   -6.0860   22.2040  -31.2970 C   0  0  0  0  0  0  0  0  0  0  0  0
   -7.3650   21.8570  -32.0880 C   0  0  0  0  0  0  0  0  0  0  0  0
   -8.6220   21.9090  -31.2080 C   0  0  0  0  0  0  0  0  0  0  0  0
   -7.2440   20.4970  -32.7870 C   0  0  0  0  0  0  0  0  0  0  0  0
   -4.1879   24.5639  -25.7505 H   0  0  0  0  0  0  0  0  0  0  0  0
   -4.2096   25.5654  -27.2416 H   0  0  0  0  0  0  0  0  0  0  0  0
   -3.3795   23.9724  -27.2416 H   0  0  0  0  0  0  0  0  0  0  0  0
   -1.2398   27.3684  -23.6070 H   0  0  0  0  0  0  0  0  0  0  0  0
    0.8709   27.3117  -24.9423 H   0  0  0  0  0  0  0  0  0  0  0  0
    0.9153   26.0972  -27.1220 H   0  0  0  0  0  0  0  0  0  0  0  0
   -0.0658   24.7221  -28.6797 H   0  0  0  0  0  0  0  0  0  0  0  0
   -1.4210   23.6657  -28.1159 H   0  0  0  0  0  0  0  0  0  0  0  0
   -5.5040   25.6663  -29.4190 H   0  0  0  0  0  0  0  0  0  0  0  0
   -5.5716   26.6262  -30.9401 H   0  0  0  0  0  0  0  0  0  0  0  0
   -6.9507   24.2025  -30.3430 H   0  0  0  0  0  0  0  0  0  0  0  0
   -6.8771   25.0828  -31.9179 H   0  0  0  0  0  0  0  0  0  0  0  0
   -4.5470   23.5500  -31.3380 H   0  0  0  0  0  0  0  0  0  0  0  0
   -5.3374   21.4161  -31.4666 H   0  0  0  0  0  0  0  0  0  0  0  0
   -6.3508   22.2743  -30.2317 H   0  0  0  0  0  0  0  0  0  0  0  0
   -7.4744   22.6297  -32.8632 H   0  0  0  0  0  0  0  0  0  0  0  0
   -8.3283   21.8968  -30.1480 H   0  0  0  0  0  0  0  0  0  0  0  0
   -9.1820   22.8311  -31.4227 H   0  0  0  0  0  0  0  0  0  0  0  0
   -9.2563   21.0363  -31.4227 H   0  0  0  0  0  0  0  0  0  0  0  0
   -7.1732   19.7012  -32.0309 H   0  0  0  0  0  0  0  0  0  0  0  0
   -8.1306   20.3277  -33.4157 H   0  0  0  0  0  0  0  0  0  0  0  0
   -6.3414   20.4869  -33.4157 H   0  0  0  0  0  0  0  0  0  0  0  0
  1  2  1  0
  2  3  2  0
  3  4  1  0
  4  5  2  0
  5  6  1  0
  6  7  2  0
  7  8  1  0
  8  9  1  0
  9 10  1  0
 10 11  2  0
 10 12  1  0
 12 13  1  0
 13 14  1  0
 14 15  1  0
 15 16  1  0
 16 17  1  0
 17 18  1  0
 17 19  1  0
  7  2  1  0
  1 20  1  0
  1 21  1  0
  1 22  1  0
  4 23  1  0
  5 24  1  0
  6 25  1  0
  8 26  1  0
  8 27  1  0
 13 28  1  0
 13 29  1  0
 14 30  1  0
 14 31  1  0
 15 32  1  0
 16 33  1  0
 16 34  1  0
 17 35  1  0
 18 36  1  0
 18 37  1  0
 18 38  1  0
 19 39  1  0
 19 40  1  0
 19 41  1  0
M  CHG  2   9  -1  12  -1
M  END
>  <UniqueID>  (2) 
2

>  <SMILES>  (2) 
Cc1ncccc1C[N-]C(=O)[N-]CCNCC(C)C

>  <Energy>  (2) 
24.409244417639073

>  <Genealogy>  (2) 
Cc1ncccc1C[N-]C(=O)[N-]CCNCC(C)C (protonated)
Cc1ncccc1C[N-]C(=O)[N-]CCNCC(C)C (3D coordinates assigned)
Cc1ncccc1C[N-]C(=O)[N-]CCNCC(C)C (optimized conformer: 24.409244417639073 kcal/mol)

>  <smiles>  (2) 
Cc1ncccc1CNC(=O)NCCNCC(C)C

>  <score_type>  (2) 
oracle

>  <origin>  (2) 
adg

>  <m_score__min__energy>  (2) 
-9.4000000000000004

>  <m_primary>  (2) 
energy

$$$$
2:0
     RDKit          3D

 75 78  0  0  0  0  0  0  0  0999 V2000
   -1.9430   25.3220  -26.5330 C   0  0  0  0  0  0  0  0  0  0  0  0
   -1.3280   25.0310  -27.8960 C   0  0  0  0  0  0  0  0  0  0  0  0
   -2.3500   25.1810  -28.9400 N   0  0  0  0  0  0  0  0  0  0  0  0
   -2.6440   23.9280  -29.6670 C   0  0  2  0  0  0  0  0  0  0  0  0
   -4.1060   23.9670  -30.1510 C   0  0  0  0  0  0  0  0  0  0  0  0
   -4.9400   24.7160  -29.1970 N   0  0  0  0  0  0  0  0  0  0  0  0
   -6.2890   24.9600  -29.7250 C   0  0  0  0  0  0  0  0  0  0  0  0
   -6.7530   23.7700  -30.5220 C   0  0  0  0  0  0  0  0  0  0  0  0
   -6.6240   23.7640  -31.9200 C   0  0  0  0  0  0  0  0  0  0  0  0
   -7.0500   22.6590  -32.6630 C   0  0  0  0  0  0  0  0  0  0  0  0
   -7.6380   21.5590  -32.0230 C   0  0  0  0  0  0  0  0  0  0  0  0
   -8.0460   20.3580  -32.8300 C   0  0  0  0  0  0  0  0  0  0  0  0
   -7.0490   19.2790  -32.6470 N   0  0  0  0  0  0  0  0  0  0  0  0
   -7.6150   18.1440  -31.8840 C   0  0  0  0  0  0  0  0  0  0  0  0
   -9.1010   18.3670  -31.6120 C   0  0  0  0  0  0  0  0  0  0  0  0
   -6.4880   18.8430  -33.9450 C   0  0  0  0  0  0  0  0  0  0  0  0
   -5.7520   17.5410  -33.7680 C   0  0  0  0  0  0  0  0  0  0  0  0
   -4.4530   17.5390  -33.2310 C   0  0  0  0  0  0  0  0  0  0  0  0
   -3.7480   16.3400  -33.0920 C   0  0  0  0  0  0  0  0  0  0  0  0
   -4.3380   15.1340  -33.4780 C   0  0  0  0  0  0  0  0  0  0  0  0
   -5.6350   15.1250  -33.9990 C   0  0  0  0  0  0  0  0  0  0  0  0
   -6.3410   16.3230  -34.1440 C   0  0  0  0  0  0  0  0  0  0  0  0
   -7.7840   21.5730  -30.6270 C   0  0  0  0  0  0  0  0  0  0  0  0
   -7.3470   22.6720  -29.8830 C   0  0  0  0  0  0  0  0  0  0  0  0
   -2.4110   22.6750  -28.7840 C   0  0  0  0  0  0  0  0  0  0  0  0
   -3.0110   21.4710  -29.3670 N   0  0  0  0  0  0  0  0  0  0  0  0
   -2.8880   21.1330  -30.7660 C   0  0  0  0  0  0  0  0  0  0  0  0
   -3.9790   21.2770  -31.6490 C   0  0  0  0  0  0  0  0  0  0  0  0
   -3.8500   20.9610  -33.0050 C   0  0  0  0  0  0  0  0  0  0  0  0
   -4.9100   21.1080  -33.8380 F   0  0  0  0  0  0  0  0  0  0  0  0
   -2.6320   20.4990  -33.5050 C   0  0  0  0  0  0  0  0  0  0  0  0
   -1.5340   20.3470  -32.6500 C   0  0  0  0  0  0  0  0  0  0  0  0
   -0.3060   19.8780  -33.1320 C   0  0  0  0  0  0  0  0  0  0  0  0
    0.7710   19.7250  -32.2580 C   0  0  0  0  0  0  0  0  0  0  0  0
    0.6100   20.0420  -30.9090 C   0  0  0  0  0  0  0  0  0  0  0  0
   -0.5860   20.4980  -30.4530 N   0  0  0  0  0  0  0  0  0  0  0  0
   -1.6590   20.6640  -31.2760 C   0  0  0  0  0  0  0  0  0  0  0  0
   -1.2523   24.9952  -25.7418 H   0  0  0  0  0  0  0  0  0  0  0  0
   -2.1263   26.4023  -26.4365 H   0  0  0  0  0  0  0  0  0  0  0  0
   -2.8945   24.7786  -26.4365 H   0  0  0  0  0  0  0  0  0  0  0  0
   -0.5056   25.7367  -28.0847 H   0  0  0  0  0  0  0  0  0  0  0  0
   -0.9404   24.0016  -27.9095 H   0  0  0  0  0  0  0  0  0  0  0  0
   -3.2280   25.5670  -28.5140 H   0  0  0  0  0  0  0  0  0  0  0  0
   -1.9569   23.8537  -30.5228 H   0  0  0  0  0  0  0  0  0  0  0  0
   -4.1497   24.4578  -31.1345 H   0  0  0  0  0  0  0  0  0  0  0  0
   -4.4855   22.9373  -30.2266 H   0  0  0  0  0  0  0  0  0  0  0  0
   -4.4940   25.6490  -29.0250 H   0  0  0  0  0  0  0  0  0  0  0  0
   -6.9823   25.1308  -28.8882 H   0  0  0  0  0  0  0  0  0  0  0  0
   -6.2667   25.8452  -30.3776 H   0  0  0  0  0  0  0  0  0  0  0  0
   -6.1857   24.6327  -32.4331 H   0  0  0  0  0  0  0  0  0  0  0  0
   -6.9231   22.6527  -33.7556 H   0  0  0  0  0  0  0  0  0  0  0  0
   -9.0323   20.0071  -32.4923 H   0  0  0  0  0  0  0  0  0  0  0  0
   -8.0990   20.6318  -33.8941 H   0  0  0  0  0  0  0  0  0  0  0  0
   -7.4888   17.2188  -32.4654 H   0  0  0  0  0  0  0  0  0  0  0  0
   -7.0865   18.0643  -30.9226 H   0  0  0  0  0  0  0  0  0  0  0  0
   -9.2751   18.3931  -30.5262 H   0  0  0  0  0  0  0  0  0  0  0  0
   -9.4159   19.3225  -32.0569 H   0  0  0  0  0  0  0  0  0  0  0  0
   -9.6824   17.5461  -32.0569 H   0  0  0  0  0  0  0  0  0  0  0  0
   -7.3048   18.7058  -34.6689 H   0  0  0  0  0  0  0  0  0  0  0  0
   -5.7904   19.6084  -34.3160 H   0  0  0  0  0  0  0  0  0  0  0  0
   -3.9888   18.4860  -32.9185 H   0  0  0  0  0  0  0  0  0  0  0  0
   -2.7286   16.3461  -32.6787 H   0  0  0  0  0  0  0  0  0  0  0  0
   -3.7816   14.1910  -33.3719 H   0  0  0  0  0  0  0  0  0  0  0  0
   -6.1010   14.1737  -34.2954 H   0  0  0  0  0  0  0  0  0  0  0  0
   -7.3616   16.3114  -34.5541 H   0  0  0  0  0  0  0  0  0  0  0  0
   -8.2447   20.7146  -30.1162 H   0  0  0  0  0  0  0  0  0  0  0  0
   -7.4696   22.6760  -28.7899 H   0  0  0  0  0  0  0  0  0  0  0  0
   -1.3283   22.5145  -28.6744 H   0  0  0  0  0  0  0  0  0  0  0  0
   -2.8883   22.8537  -27.8092 H   0  0  0  0  0  0  0  0  0  0  0  0
   -3.5390   20.8220  -28.7440 H   0  0  0  0  0  0  0  0  0  0  0  0
   -4.9432   21.6425  -31.2659 H   0  0  0  0  0  0  0  0  0  0  0  0
   -2.5344   20.2538  -34.5729 H   0  0  0  0  0  0  0  0  0  0  0  0
   -0.1904   19.6306  -34.1976 H   0  0  0  0  0  0  0  0  0  0  0  0
    1.7389   19.3575  -32.6296 H   0  0  0  0  0  0  0  0  0  0  0  0
    1.4533   19.9225  -30.2128 H   0  0  0  0  0  0  0  0  0  0  0  0
  1  2  1  0
  2  3  1  0
  3  4  1  0
  4  5  1  0
  5  6  1  0
  6  7  1  0
  7  8  1  0
  8  9  2  0
  9 10  1  0
 10 11  2  0
 11 12  1  0
 12 13  1  0
 13 14  1  0
 14 15  1  0
 13 16  1  0
 16 17  1  0
 17 18  2  0
 18 19  1  0
 19 20  2  0
 20 21  1  0
 21 22  2  0
 11 23  1  0
 23 24  2  0
  4 25  1  0
 25 26  1  0
 26 27  1  0
 27 28  2  0
 28 29  1  0
 29 30  1  0
 29 31  2  0
 31 32  1  0
 32 33  2  0
 33 34  1  0
 34 35  2  0
 35 36  1  0
 36 37  2  0
 24  8  1  0
 37 27  1  0
 22 17  1  0
 37 32  1  0
  1 38  1  0
  1 39  1  0
  1 40  1  0
  2 41  1  0
  2 42  1  0
  3 43  1  0
  4 44  1  6
  5 45  1  0
  5 46  1  0
  6 47  1  0
  7 48  1  0
  7 49  1  0
  9 50  1  0
 10 51  1  0
 12 52  1  0
 12 53  1  0
 14 54  1  0
 14 55  1  0
 15 56  1  0
 15 57  1  0
 15 58  1  0
 16 59  1  0
 16 60  1  0
 18 61  1  0
 19 62  1  0
 20 63  1  0
 21 64  1  0
 22 65  1  0
 23 66  1  0
 24 67  1  0
 25 68  1  0
 25 69  1  0
 26 70  1  0
 28 71  1  0
 31 72  1  0
 33 73  1  0
 34 74  1  0
 35 75  1  0
M  END
>  <UniqueID>  (3) 
3

>  <SMILES>  (3) 
CCN[C@H](CNCc1ccc(CN(CC)Cc2ccccc2)cc1)CNc1cc(F)cc2cccnc12

>  <Energy>  (3) 
78.15535879174729

>  <Genealogy>  (3) 
CCN[C@H](CNCc1ccc(CN(CC)Cc2ccccc2)cc1)CNc1cc(F)cc2cccnc12 (chirality)
CCN[C@H](CNCc1ccc(CN(CC)Cc2ccccc2)cc1)CNc1cc(F)cc2cccnc12 (3D coordinates assigned)
CCN[C@H](CNCc1ccc(CN(CC)Cc2ccccc2)cc1)CNc1cc(F)cc2cccnc12 (optimized conformer: 78.15535879174729 kcal/mol)

>  <smiles>  (3) 
CCNC(CNCc1ccc(CN(CC)Cc2ccccc2)cc1)CNc1cc(F)cc2cccnc12

>  <score_type>  (3) 
oracle

>  <origin>  (3) 
adg

>  <m_score__min__energy>  (3) 
-10.56

>  <m_primary>  (3) 
energy

$$$$
3:0
     RDKit          3D

 73 76  0  0  0  0  0  0  0  0999 V2000
   -2.8180   19.1150  -26.5920 C   0  0  0  0  0  0  0  0  0  0  0  0
   -1.7060   20.1580  -26.7270 C   0  0  0  0  0  0  0  0  0  0  0  0
   -2.0730   21.1930  -27.7100 N   0  0  0  0  0  0  0  0  0  0  0  0
   -2.0640   20.8070  -29.1320 C   0  0  0  0  0  0  0  0  0  0  0  0
   -3.4900   20.7960  -29.7170 C   0  0  0  0  0  0  0  0  0  0  0  0
   -3.4770   20.9550  -31.1850 N   0  0  0  0  0  0  0  0  0  0  0  0
   -4.7470   21.4760  -31.6880 C   0  0  0  0  0  0  0  0  0  0  0  0
   -5.2180   22.7320  -31.2220 C   0  0  0  0  0  0  0  0  0  0  0  0
   -4.3190   23.7660  -30.8430 C   0  0  0  0  0  0  0  0  0  0  0  0
   -4.7860   24.9400  -30.2690 C   0  0  0  0  0  0  0  0  0  0  0  0
   -6.1430   25.1180  -30.0530 C   0  0  0  0  0  0  0  0  0  0  0  0
   -7.0510   24.1470  -30.4600 C   0  0  0  0  0  0  0  0  0  0  0  0
   -6.6180   22.9590  -31.1070 C   0  0  0  0  0  0  0  0  0  0  0  0
   -7.5160   22.0080  -31.5460 N   0  0  0  0  0  0  0  0  0  0  0  0
   -8.9650   22.3290  -31.5850 C   0  0  0  0  0  0  0  0  0  0  0  0
   -7.0670   20.7970  -32.0410 C   0  0  0  0  0  0  0  0  0  0  0  0
   -7.9590   19.7220  -32.2800 C   0  0  0  0  0  0  0  0  0  0  0  0
   -7.5330   18.5680  -32.9200 C   0  0  0  0  0  0  0  0  0  0  0  0
   -6.2290   18.4700  -33.3720 C   0  0  0  0  0  0  0  0  0  0  0  0
   -5.2810   19.4560  -33.0620 C   0  0  0  0  0  0  0  0  0  0  0  0
   -4.0140   19.4330  -33.7400 N   0  0  0  0  0  0  0  0  0  0  0  0
   -3.3910   18.2180  -34.2830 C   0  0  0  0  0  0  0  0  0  0  0  0
   -1.8730   18.2260  -34.0720 C   0  0  0  0  0  0  0  0  0  0  0  0
   -1.4520   18.9180  -32.7630 C   0  0  0  0  0  0  0  0  0  0  0  0
   -1.5040   20.3890  -32.9010 N   0  0  0  0  0  0  0  0  0  0  0  0
   -0.5120   21.0280  -32.0200 C   0  0  0  0  0  0  0  0  0  0  0  0
   -1.2350   20.7960  -34.2930 C   0  0  0  0  0  0  0  0  0  0  0  0
   -5.6850   20.5890  -32.2840 C   0  0  0  0  0  0  0  0  0  0  0  0
   -2.3310   22.5640  -27.2960 C   0  0  0  0  0  0  0  0  0  0  0  0
   -1.3160   23.3510  -26.7010 C   0  0  0  0  0  0  0  0  0  0  0  0
   -1.5710   24.6720  -26.3140 C   0  0  0  0  0  0  0  0  0  0  0  0
   -2.8420   25.2220  -26.4900 C   0  0  0  0  0  0  0  0  0  0  0  0
   -3.8620   24.4540  -27.0550 C   0  0  0  0  0  0  0  0  0  0  0  0
   -3.6070   23.1510  -27.4790 C   0  0  0  0  0  0  0  0  0  0  0  0
   -3.0177   18.9277  -25.5266 H   0  0  0  0  0  0  0  0  0  0  0  0
   -3.7322   19.4889  -27.0762 H   0  0  0  0  0  0  0  0  0  0  0  0
   -2.5033   18.1788  -27.0762 H   0  0  0  0  0  0  0  0  0  0  0  0
   -1.5373   20.6333  -25.7494 H   0  0  0  0  0  0  0  0  0  0  0  0
   -0.7911   19.6540  -27.0719 H   0  0  0  0  0  0  0  0  0  0  0  0
   -1.4510   21.5263  -29.6949 H   0  0  0  0  0  0  0  0  0  0  0  0
   -1.6465   19.7926  -29.2144 H   0  0  0  0  0  0  0  0  0  0  0  0
   -3.9714   19.8393  -29.4659 H   0  0  0  0  0  0  0  0  0  0  0  0
   -4.0456   21.6411  -29.2845 H   0  0  0  0  0  0  0  0  0  0  0  0
   -3.2460   20.0440  -31.6260 H   0  0  0  0  0  0  0  0  0  0  0  0
   -2.6530   21.5470  -31.4240 H   0  0  0  0  0  0  0  0  0  0  0  0
   -3.2393   23.6338  -31.0068 H   0  0  0  0  0  0  0  0  0  0  0  0
   -4.0769   25.7314  -29.9847 H   0  0  0  0  0  0  0  0  0  0  0  0
   -6.5035   26.0315  -29.5574 H   0  0  0  0  0  0  0  0  0  0  0  0
   -8.1247   24.3017  -30.2776 H   0  0  0  0  0  0  0  0  0  0  0  0
   -9.3495   22.4142  -30.5579 H   0  0  0  0  0  0  0  0  0  0  0  0
   -9.1153   23.2822  -32.1130 H   0  0  0  0  0  0  0  0  0  0  0  0
   -9.5038   21.5284  -32.1130 H   0  0  0  0  0  0  0  0  0  0  0  0
   -9.0059   19.8044  -31.9526 H   0  0  0  0  0  0  0  0  0  0  0  0
   -8.2313   17.7311  -33.0682 H   0  0  0  0  0  0  0  0  0  0  0  0
   -5.9313   17.6056  -33.9838 H   0  0  0  0  0  0  0  0  0  0  0  0
   -3.5090   20.3400  -33.8770 H   0  0  0  0  0  0  0  0  0  0  0  0
   -3.8181   17.3398  -33.7767 H   0  0  0  0  0  0  0  0  0  0  0  0
   -3.5901   18.1803  -35.3642 H   0  0  0  0  0  0  0  0  0  0  0  0
   -1.5167   17.1856  -34.0489 H   0  0  0  0  0  0  0  0  0  0  0  0
   -1.4281   18.7937  -34.9025 H   0  0  0  0  0  0  0  0  0  0  0  0
   -2.1333   18.6080  -31.9570 H   0  0  0  0  0  0  0  0  0  0  0  0
   -0.4183   18.6243  -32.5280 H   0  0  0  0  0  0  0  0  0  0  0  0
   -0.7866   20.8511  -30.9696 H   0  0  0  0  0  0  0  0  0  0  0  0
    0.4822   20.6000  -32.2161 H   0  0  0  0  0  0  0  0  0  0  0  0
   -0.4906   22.1102  -32.2161 H   0  0  0  0  0  0  0  0  0  0  0  0
   -0.6285   21.7137  -34.2960 H   0  0  0  0  0  0  0  0  0  0  0  0
   -0.6887   19.9937  -34.8105 H   0  0  0  0  0  0  0  0  0  0  0  0
   -2.1872   20.9841  -34.8105 H   0  0  0  0  0  0  0  0  0  0  0  0
   -0.3166   22.9202  -26.5411 H   0  0  0  0  0  0  0  0  0  0  0  0
   -0.7677   25.2783  -25.8700 H   0  0  0  0  0  0  0  0  0  0  0  0
   -3.0398   26.2598  -26.1837 H   0  0  0  0  0  0  0  0  0  0  0  0
   -4.8706   24.8789  -27.1659 H   0  0  0  0  0  0  0  0  0  0  0  0
   -4.4071   22.5709  -27.9620 H   0  0  0  0  0  0  0  0  0  0  0  0
  1  2  1  0
  2  3  1  0
  3  4  1  0
  4  5  1  0
  5  6  1  0
  6  7  1  0
  7  8  1  0
  8  9  2  0
  9 10  1  0
 10 11  2  0
 11 12  1  0
 12 13  2  0
 13 14  1  0
 14 15  1  0
 14 16  2  0
 16 17  1  0
 17 18  2  0
 18 19  1  0
 19 20  2  0
 20 21  1  0
 21 22  1  0
 22 23  1  0
 23 24  1  0
 24 25  1  0
 25 26  1  0
 25 27  1  0
 20 28  1  0
  3 29  1  0
 29 30  2  0
 30 31  1  0
 31 32  2  0
 32 33  1  0
 33 34  2  0
 28  7  2  0
 34 29  1  0
 13  8  1  0
 28 16  1  0
  1 35  1  0
  1 36  1  0
  1 37  1  0
  2 38  1  0
  2 39  1  0
  4 40  1  0
  4 41  1  0
  5 42  1  0
  5 43  1  0
  6 44  1  0
  6 45  1  0
  9 46  1  0
 10 47  1  0
 11 48  1  0
 12 49  1  0
 15 50  1  0
 15 51  1  0
 15 52  1  0
 17 53  1  0
 18 54  1  0
 19 55  1  0
 21 56  1  0
 22 57  1  0
 22 58  1  0
 23 59  1  0
 23 60  1  0
 24 61  1  0
 24 62  1  0
 26 63  1  0
 26 64  1  0
 26 65  1  0
 27 66  1  0
 27 67  1  0
 27 68  1  0
 30 69  1  0
 31 70  1  0
 32 71  1  0
 33 72  1  0
 34 73  1  0
M  CHG  2   6   1  14   1
M  END
>  <UniqueID>  (4) 
4

>  <SMILES>  (4) 
CCN(CC[NH2+]c1c2ccccc2[n+](C)c2cccc(NCCCN(C)C)c12)c1ccccc1

>  <Energy>  (4) 
118.16670127945005

>  <Genealogy>  (4) 
CCN(CC[NH2+]c1c2ccccc2[n+](C)c2cccc(NCCCN(C)C)c12)c1ccccc1 (protonated)
CCN(CC[NH2+]c1c2ccccc2[n+](C)c2cccc(NCCCN(C)C)c12)c1ccccc1 (3D coordinates assigned)
CCN(CC[NH2+]c1c2ccccc2[n+](C)c2cccc(NCCCN(C)C)c12)c1ccccc1 (optimized conformer: 118.16670127945005 kcal/mol)

>  <smiles>  (4) 
CCN(CCNc1c2ccccc2[n+](C)c2cccc(NCCCN(C)C)c12)c1ccccc1

>  <score_type>  (4) 
oracle

>  <origin>  (4) 
adg

>  <m_score__min__energy>  (4) 
-7.8099999999999996

>  <m_primary>  (4) 
energy

$$$$
4:0
     RDKit          3D

 56 58  0  0  0  0  0  0  0  0999 V2000
   -1.5300   26.4150  -24.8540 C   0  0  0  0  0  0  0  0  0  0  0  0
   -2.0400   25.6730  -26.0880 C   0  0  0  0  0  0  0  0  0  0  0  0
   -1.2420   26.0060  -27.3610 C   0  0  0  0  0  0  0  0  0  0  0  0
   -1.3650   24.9380  -28.4540 C   0  0  0  0  0  0  0  0  0  0  0  0
   -2.4180   25.2780  -29.3300 O   0  0  0  0  0  0  0  0  0  0  0  0
   -3.3810   24.2490  -29.3490 C   0  0  0  0  0  0  0  0  0  0  0  0
   -4.4520   24.5780  -30.3870 C   0  0  0  0  0  0  0  0  0  0  0  0
   -4.4810   23.5800  -31.3920 O   0  0  0  0  0  0  0  0  0  0  0  0
   -3.4130   22.6690  -31.2250 C   0  0  0  0  0  0  0  0  0  0  0  0
   -3.4660   21.6260  -32.3440 C   0  0  0  0  0  0  0  0  0  0  0  0
   -4.5810   21.8550  -33.2870 N   0  0  0  0  0  0  0  0  0  0  0  0
   -5.7160   20.9730  -33.0330 C   0  0  0  0  0  0  0  0  0  0  0  0
   -6.9580   21.4820  -32.5520 C   0  0  0  0  0  0  0  0  0  0  0  0
   -7.1840   22.8680  -32.3510 C   0  0  0  0  0  0  0  0  0  0  0  0
   -8.4280   23.3490  -31.9560 C   0  0  0  0  0  0  0  0  0  0  0  0
   -9.4830   22.4730  -31.7570 C   0  0  0  0  0  0  0  0  0  0  0  0
   -9.2900   21.1050  -31.9170 C   0  0  0  0  0  0  0  0  0  0  0  0
   -8.0230   20.5760  -32.2720 C   0  0  0  0  0  0  0  0  0  0  0  0
   -7.8240   19.2150  -32.3640 N   0  0  0  0  0  0  0  0  0  0  0  0
   -8.8030   18.2830  -31.7600 C   0  0  0  0  0  0  0  0  0  0  0  0
   -6.7040   18.7190  -32.9970 C   0  0  0  0  0  0  0  0  0  0  0  0
   -6.6180   17.3530  -33.3700 C   0  0  0  0  0  0  0  0  0  0  0  0
   -5.4710   16.8370  -33.9670 C   0  0  0  0  0  0  0  0  0  0  0  0
   -4.3880   17.6650  -34.2210 C   0  0  0  0  0  0  0  0  0  0  0  0
   -2.9470   17.0090  -34.9780 Cl  0  0  0  0  0  0  0  0  0  0  0  0
   -4.4560   19.0200  -33.9050 C   0  0  0  0  0  0  0  0  0  0  0  0
   -5.6160   19.5800  -33.3110 C   0  0  0  0  0  0  0  0  0  0  0  0
   -1.8821   25.9027  -23.9465 H   0  0  0  0  0  0  0  0  0  0  0  0
   -0.4301   26.4296  -24.8634 H   0  0  0  0  0  0  0  0  0  0  0  0
   -1.9105   27.4471  -24.8634 H   0  0  0  0  0  0  0  0  0  0  0  0
   -1.9677   24.5913  -25.9016 H   0  0  0  0  0  0  0  0  0  0  0  0
   -3.0792   25.9913  -26.2578 H   0  0  0  0  0  0  0  0  0  0  0  0
   -1.6106   26.9610  -27.7637 H   0  0  0  0  0  0  0  0  0  0  0  0
   -0.1811   26.0570  -27.0750 H   0  0  0  0  0  0  0  0  0  0  0  0
   -0.4226   24.8814  -29.0186 H   0  0  0  0  0  0  0  0  0  0  0  0
   -1.5750   23.9627  -27.9906 H   0  0  0  0  0  0  0  0  0  0  0  0
   -2.8961   23.2969  -29.6106 H   0  0  0  0  0  0  0  0  0  0  0  0
   -3.8456   24.1612  -28.3558 H   0  0  0  0  0  0  0  0  0  0  0  0
   -5.4340   24.6257  -29.8936 H   0  0  0  0  0  0  0  0  0  0  0  0
   -4.2175   25.5477  -30.8503 H   0  0  0  0  0  0  0  0  0  0  0  0
   -2.4564   23.2102  -31.2707 H   0  0  0  0  0  0  0  0  0  0  0  0
   -3.5001   22.1702  -30.2485 H   0  0  0  0  0  0  0  0  0  0  0  0
   -2.5195   21.6619  -32.9033 H   0  0  0  0  0  0  0  0  0  0  0  0
   -3.6251   20.6440  -31.8747 H   0  0  0  0  0  0  0  0  0  0  0  0
   -4.2440   21.8140  -34.2710 H   0  0  0  0  0  0  0  0  0  0  0  0
   -4.8940   22.8480  -33.2090 H   0  0  0  0  0  0  0  0  0  0  0  0
   -6.3584   23.5771  -32.5108 H   0  0  0  0  0  0  0  0  0  0  0  0
   -8.5747   24.4281  -31.8011 H   0  0  0  0  0  0  0  0  0  0  0  0
  -10.4728   22.8594  -31.4726 H   0  0  0  0  0  0  0  0  0  0  0  0
  -10.1370   20.4197  -31.7652 H   0  0  0  0  0  0  0  0  0  0  0  0
   -8.7390   18.3439  -30.6636 H   0  0  0  0  0  0  0  0  0  0  0  0
   -9.8180   18.5568  -32.0838 H   0  0  0  0  0  0  0  0  0  0  0  0
   -8.5794   17.2558  -32.0838 H   0  0  0  0  0  0  0  0  0  0  0  0
   -7.4745   16.6884  -33.1838 H   0  0  0  0  0  0  0  0  0  0  0  0
   -5.4238   15.7718  -34.2374 H   0  0  0  0  0  0  0  0  0  0  0  0
   -3.5936   19.6681  -34.1202 H   0  0  0  0  0  0  0  0  0  0  0  0
  1  2  1  0
  2  3  1  0
  3  4  1  0
  4  5  1  0
  5  6  1  0
  6  7  1  0
  7  8  1  0
  8  9  1  0
  9 10  1  0
 10 11  1  0
 11 12  1  0
 12 13  2  0
 13 14  1  0
 14 15  2  0
 15 16  1  0
 16 17  2  0
 17 18  1  0
 18 19  2  0
 19 20  1  0
 19 21  1  0
 21 22  2  0
 22 23  1  0
 23 24  2  0
 24 25  1  0
 24 26  1  0
 26 27  2  0
 27 12  1  0
 18 13  1  0
 27 21  1  0
  1 28  1  0
  1 29  1  0
  1 30  1  0
  2 31  1  0
  2 32  1  0
  3 33  1  0
  3 34  1  0
  4 35  1  0
  4 36  1  0
  6 37  1  0
  6 38  1  0
  7 39  1  0
  7 40  1  0
  9 41  1  0
  9 42  1  0
 10 43  1  0
 10 44  1  0
 11 45  1  0
 11 46  1  0
 14 47  1  0
 15 48  1  0
 16 49  1  0
 17 50  1  0
 20 51  1  0
 20 52  1  0
 20 53  1  0
 22 54  1  0
 23 55  1  0
 26 56  1  0
M  CHG  2  11   1  19   1
M  END
>  <UniqueID>  (5) 
5

>  <SMILES>  (5) 
CCCCOCCOCC[NH2+]c1c2ccccc2[n+](C)c2ccc(Cl)cc12

>  <Energy>  (5) 
74.50839652152767

>  <Genealogy>  (5) 
CCCCOCCOCC[NH2+]c1c2ccccc2[n+](C)c2ccc(Cl)cc12 (protonated)
CCCCOCCOCC[NH2+]c1c2ccccc2[n+](C)c2ccc(Cl)cc12 (3D coordinates assigned)
CCCCOCCOCC[NH2+]c1c2ccccc2[n+](C)c2ccc(Cl)cc12 (optimized conformer: 74.50839652152767 kcal/mol)

>  <smiles>  (5) 
CCCCOCCOCCNc1c2ccccc2[n+](C)c2ccc(Cl)cc12

>  <score_type>  (5) 
oracle

>  <origin>  (5) 
adg

>  <m_score__min__energy>  (5) 
-8.6199999999999992

>  <m_primary>  (5) 
energy

$$$$
5:0
     RDKit          3D

 43 44  0  0  0  0  0  0  0  0999 V2000
   -0.0170   25.4070  -27.3800 C   0  0  0  0  0  0  0  0  0  0  0  0
   -0.8960   26.3640  -28.1710 C   0  0  0  0  0  0  0  0  0  0  0  0
   -1.6120   25.6290  -29.2030 N   0  0  0  0  0  0  0  0  0  0  0  0
   -2.4230   24.4850  -28.9250 C   0  0  0  0  0  0  0  0  0  0  0  0
   -2.8900   24.2960  -27.7690 O   0  0  0  0  0  0  0  0  0  0  0  0
   -2.7320   23.5190  -30.0250 C   0  0  0  0  0  0  0  0  0  0  0  0
   -4.1890   23.4070  -30.1890 N   0  0  0  0  0  0  0  0  0  0  0  0
   -4.8220   22.0780  -30.1600 C   0  0  0  0  0  0  0  0  0  0  0  0
   -5.7470   21.8780  -31.3690 C   0  0  0  0  0  0  0  0  0  0  0  0
   -7.1160   22.4100  -31.1520 N   0  0  0  0  0  0  0  0  0  0  0  0
   -8.0970   21.7290  -32.0290 C   0  0  0  0  0  0  0  0  0  0  0  0
   -7.6150   20.3540  -32.4130 C   0  0  0  0  0  0  0  0  0  0  0  0
   -7.9430   19.2460  -31.6140 C   0  0  0  0  0  0  0  0  0  0  0  0
   -7.4740   17.9720  -31.9500 C   0  0  0  0  0  0  0  0  0  0  0  0
   -6.6700   17.7950  -33.0800 C   0  0  0  0  0  0  0  0  0  0  0  0
   -6.0810   16.1970  -33.4970 Cl  0  0  0  0  0  0  0  0  0  0  0  0
   -6.3330   18.8960  -33.8760 C   0  0  0  0  0  0  0  0  0  0  0  0
   -6.8010   20.1710  -33.5430 C   0  0  0  0  0  0  0  0  0  0  0  0
   -7.2320   23.8880  -31.2590 C   0  0  0  0  0  0  0  0  0  0  0  0
   -6.4480   24.6540  -30.1810 C   0  0  0  0  0  0  0  0  0  0  0  0
   -4.9630   24.6070  -30.4050 C   0  0  0  0  0  0  0  0  0  0  0  0
   -4.4010   25.6330  -30.8750 O   0  0  0  0  0  0  0  0  0  0  0  0
   -0.1699   25.5735  -26.3035 H   0  0  0  0  0  0  0  0  0  0  0  0
   -0.2842   24.3702  -27.6323 H   0  0  0  0  0  0  0  0  0  0  0  0
    1.0387   25.5853  -27.6323 H   0  0  0  0  0  0  0  0  0  0  0  0
   -1.6189   26.8420  -27.4935 H   0  0  0  0  0  0  0  0  0  0  0  0
   -0.2669   27.1344  -28.6408 H   0  0  0  0  0  0  0  0  0  0  0  0
   -2.2846   23.8778  -30.9636 H   0  0  0  0  0  0  0  0  0  0  0  0
   -2.3162   22.5325  -29.7721 H   0  0  0  0  0  0  0  0  0  0  0  0
   -4.0380   21.3066  -30.1764 H   0  0  0  0  0  0  0  0  0  0  0  0
   -5.4245   21.9987  -29.2431 H   0  0  0  0  0  0  0  0  0  0  0  0
   -5.3056   22.3917  -32.2358 H   0  0  0  0  0  0  0  0  0  0  0  0
   -5.8396   20.7944  -31.5341 H   0  0  0  0  0  0  0  0  0  0  0  0
   -9.0545   21.6384  -31.4952 H   0  0  0  0  0  0  0  0  0  0  0  0
   -8.2212   22.3252  -32.9450 H   0  0  0  0  0  0  0  0  0  0  0  0
   -8.5709   19.3810  -30.7210 H   0  0  0  0  0  0  0  0  0  0  0  0
   -7.7383   17.1072  -31.3237 H   0  0  0  0  0  0  0  0  0  0  0  0
   -5.6993   18.7581  -34.7645 H   0  0  0  0  0  0  0  0  0  0  0  0
   -6.5305   21.0343  -34.1687 H   0  0  0  0  0  0  0  0  0  0  0  0
   -6.8542   24.1946  -32.2455 H   0  0  0  0  0  0  0  0  0  0  0  0
   -8.2944   24.1360  -31.1179 H   0  0  0  0  0  0  0  0  0  0  0  0
   -6.7726   25.7050  -30.1890 H   0  0  0  0  0  0  0  0  0  0  0  0
   -6.6548   24.1734  -29.2134 H   0  0  0  0  0  0  0  0  0  0  0  0
  1  2  1  0
  2  3  1  0
  3  4  1  0
  4  5  2  0
  4  6  1  0
  6  7  1  0
  7  8  1  0
  8  9  1  0
  9 10  1  0
 10 11  1  0
 11 12  1  0
 12 13  2  0
 13 14  1  0
 14 15  2  0
 15 16  1  0
 15 17  1  0
 17 18  2  0
 10 19  1  0
 19 20  1  0
 20 21  1  0
 21 22  2  0
 21  7  1  0
 18 12  1  0
  1 23  1  0
  1 24  1  0
  1 25  1  0
  2 26  1  0
  2 27  1  0
  6 28  1  0
  6 29  1  0
  8 30  1  0
  8 31  1  0
  9 32  1  0
  9 33  1  0
 11 34  1  0
 11 35  1  0
 13 36  1  0
 14 37  1  0
 17 38  1  0
 18 39  1  0
 19 40  1  0
 19 41  1  0
 20 42  1  0
 20 43  1  0
M  CHG  1   3  -1
M  END
>  <UniqueID>  (6) 
6

>  <SMILES>  (6) 
CC[N-]C(=O)CN1CCN(Cc2ccc(Cl)cc2)CCC1=O

>  <Energy>  (6) 
44.27298725025218

>  <Genealogy>  (6) 
CC[N-]C(=O)CN1CCN(Cc2ccc(Cl)cc2)CCC1=O (protonated)
CC[N-]C(=O)CN1CCN(Cc2ccc(Cl)cc2)CCC1=O (3D coordinates assigned)
CC[N-]C(=O)CN1CCN(Cc2ccc(Cl)cc2)CCC1=O (nonaromatic ring conformer: 44.27298725025218 kcal/mol)

>  <smiles>  (6) 
CCNC(=O)CN1CCN(Cc2ccc(Cl)cc2)CCC1=O

>  <score_type>  (6) 
oracle

>  <origin>  (6) 
adg

>  <m_score__min__energy>  (6) 
-7.7000000000000002

>  <m_primary>  (6) 
energy

$$$$
6:0
     RDKit          3D

 65 67  0  0  0  0  0  0  0  0999 V2000
   -1.5610   26.4390  -24.9250 C   0  0  0  0  0  0  0  0  0  0  0  0
   -0.3270   26.2330  -24.0370 C   0  0  0  0  0  0  0  0  0  0  0  0
    0.4250   24.9760  -24.2920 N   0  0  0  0  0  0  0  0  0  0  0  0
   -0.4520   23.8280  -24.6630 C   0  0  0  0  0  0  0  0  0  0  0  0
   -0.3960   22.6090  -23.7250 C   0  0  0  0  0  0  0  0  0  0  0  0
    1.6070   25.1910  -25.1660 C   0  0  0  0  0  0  0  0  0  0  0  0
    1.6850   24.1520  -26.3040 C   0  0  0  0  0  0  0  0  0  0  0  0
    1.6540   24.7980  -27.6940 C   0  0  0  0  0  0  0  0  0  0  0  0
    0.5500   24.2440  -28.4880 N   0  0  0  0  0  0  0  0  0  0  0  0
    0.2300   22.8710  -28.0820 C   0  0  0  0  0  0  0  0  0  0  0  0
   -0.5430   22.1570  -29.1950 C   0  0  0  0  0  0  0  0  0  0  0  0
   -1.2670   23.1110  -30.0430 N   0  0  0  0  0  0  0  0  0  0  0  0
   -2.3550   22.7040  -30.8920 C   0  0  0  0  0  0  0  0  0  0  0  0
   -2.1650   21.6460  -31.7980 C   0  0  0  0  0  0  0  0  0  0  0  0
   -0.8790   21.1090  -32.0250 C   0  0  0  0  0  0  0  0  0  0  0  0
   -0.6860   20.0830  -32.9460 C   0  0  0  0  0  0  0  0  0  0  0  0
   -1.7640   19.5890  -33.6710 C   0  0  0  0  0  0  0  0  0  0  0  0
   -3.0410   20.1080  -33.4690 C   0  0  0  0  0  0  0  0  0  0  0  0
   -3.2760   21.1280  -32.5120 C   0  0  0  0  0  0  0  0  0  0  0  0
   -4.5410   21.6290  -32.2780 N   0  0  0  0  0  0  0  0  0  0  0  0
   -5.7260   20.8960  -32.7770 C   0  0  0  0  0  0  0  0  0  0  0  0
   -4.7000   22.8060  -31.5720 C   0  0  0  0  0  0  0  0  0  0  0  0
   -5.9370   23.4930  -31.5650 C   0  0  0  0  0  0  0  0  0  0  0  0
   -6.1190   24.6420  -30.8080 C   0  0  0  0  0  0  0  0  0  0  0  0
   -5.0740   25.1590  -30.0590 C   0  0  0  0  0  0  0  0  0  0  0  0
   -3.8100   24.5490  -30.0720 C   0  0  0  0  0  0  0  0  0  0  0  0
   -2.7460   25.1120  -29.3470 O   0  0  0  0  0  0  0  0  0  0  0  0
   -2.5000   24.9080  -27.9580 C   0  0  0  0  0  0  0  0  0  0  0  0
   -3.6080   23.3630  -30.8400 C   0  0  0  0  0  0  0  0  0  0  0  0
   -2.4480   26.5871  -24.2915 H   0  0  0  0  0  0  0  0  0  0  0  0
   -1.4120   27.3247  -25.5601 H   0  0  0  0  0  0  0  0  0  0  0  0
   -1.7078   25.5529  -25.5601 H   0  0  0  0  0  0  0  0  0  0  0  0
    0.3566   27.0792  -24.2003 H   0  0  0  0  0  0  0  0  0  0  0  0
   -0.6982   26.1662  -23.0037 H   0  0  0  0  0  0  0  0  0  0  0  0
    0.8120   24.7320  -23.3480 H   0  0  0  0  0  0  0  0  0  0  0  0
   -1.4905   24.1901  -24.6836 H   0  0  0  0  0  0  0  0  0  0  0  0
   -0.0815   23.4725  -25.6358 H   0  0  0  0  0  0  0  0  0  0  0  0
   -0.4117   22.9500  -22.6793 H   0  0  0  0  0  0  0  0  0  0  0  0
   -1.2654   21.9617  -23.9127 H   0  0  0  0  0  0  0  0  0  0  0  0
    0.5290   22.0441  -23.9127 H   0  0  0  0  0  0  0  0  0  0  0  0
    1.5432   26.1964  -25.6076 H   0  0  0  0  0  0  0  0  0  0  0  0
    2.5098   25.0832  -24.5468 H   0  0  0  0  0  0  0  0  0  0  0  0
    2.6217   23.5847  -26.1998 H   0  0  0  0  0  0  0  0  0  0  0  0
    0.8041   23.4986  -26.2201 H   0  0  0  0  0  0  0  0  0  0  0  0
    1.5148   25.8839  -27.5866 H   0  0  0  0  0  0  0  0  0  0  0  0
    2.6043   24.5893  -28.2072 H   0  0  0  0  0  0  0  0  0  0  0  0
   -0.3010   24.8310  -28.3180 H   0  0  0  0  0  0  0  0  0  0  0  0
    1.1633   22.3250  -27.8798 H   0  0  0  0  0  0  0  0  0  0  0  0
   -0.3918   22.9005  -27.1751 H   0  0  0  0  0  0  0  0  0  0  0  0
    0.1665   21.5920  -29.8175 H   0  0  0  0  0  0  0  0  0  0  0  0
   -1.2768   21.4832  -28.7286 H   0  0  0  0  0  0  0  0  0  0  0  0
   -0.9120   24.0900  -30.1230 H   0  0  0  0  0  0  0  0  0  0  0  0
   -0.0185   21.5065  -31.4669 H   0  0  0  0  0  0  0  0  0  0  0  0
    0.3192   19.6635  -33.0998 H   0  0  0  0  0  0  0  0  0  0  0  0
   -1.6084   18.7859  -34.4064 H   0  0  0  0  0  0  0  0  0  0  0  0
   -3.8820   19.7198  -34.0623 H   0  0  0  0  0  0  0  0  0  0  0  0
   -6.3169   20.5305  -31.9243 H   0  0  0  0  0  0  0  0  0  0  0  0
   -6.3434   21.5702  -33.3888 H   0  0  0  0  0  0  0  0  0  0  0  0
   -5.3984   20.0425  -33.3888 H   0  0  0  0  0  0  0  0  0  0  0  0
   -6.7706   23.1090  -32.1713 H   0  0  0  0  0  0  0  0  0  0  0  0
   -7.0974   25.1446  -30.8026 H   0  0  0  0  0  0  0  0  0  0  0  0
   -5.2371   26.0583  -29.4469 H   0  0  0  0  0  0  0  0  0  0  0  0
   -3.2147   25.5007  -27.3681 H   0  0  0  0  0  0  0  0  0  0  0  0
   -2.6210   23.8416  -27.7169 H   0  0  0  0  0  0  0  0  0  0  0  0
   -1.4744   25.2243  -27.7169 H   0  0  0  0  0  0  0  0  0  0  0  0
  1  2  1  0
  2  3  1  0
  3  4  1  0
  4  5  1  0
  3  6  1  0
  6  7  1  0
  7  8  1  0
  8  9  1  0
  9 10  1  0
 10 11  1  0
 11 12  1  0
 12 13  1  0
 13 14  2  0
 14 15  1  0
 15 16  2  0
 16 17  1  0
 17 18  2  0
 18 19  1  0
 19 20  2  0
 20 21  1  0
 20 22  1  0
 22 23  2  0
 23 24  1  0
 24 25  2  0
 25 26  1  0
 26 27  1  0
 27 28  1  0
 26 29  2  0
 29 13  1  0
 19 14  1  0
 29 22  1  0
  1 30  1  0
  1 31  1  0
  1 32  1  0
  2 33  1  0
  2 34  1  0
  3 35  1  0
  4 36  1  0
  4 37  1  0
  5 38  1  0
  5 39  1  0
  5 40  1  0
  6 41  1  0
  6 42  1  0
  7 43  1  0
  7 44  1  0
  8 45  1  0
  8 46  1  0
  9 47  1  0
 10 48  1  0
 10 49  1  0
 11 50  1  0
 11 51  1  0
 12 52  1  0
 15 53  1  0
 16 54  1  0
 17 55  1  0
 18 56  1  0
 21 57  1  0
 21 58  1  0
 21 59  1  0
 23 60  1  0
 24 61  1  0
 25 62  1  0
 28 63  1  0
 28 64  1  0
 28 65  1  0
M  CHG  2   3   1  20   1
M  END
>  <UniqueID>  (7) 
7

>  <SMILES>  (7) 
CC[NH+](CC)CCCNCCNc1c2ccccc2[n+](C)c2cccc(OC)c12

>  <Energy>  (7) 
91.05851096323929

>  <Genealogy>  (7) 
CC[NH+](CC)CCCNCCNc1c2ccccc2[n+](C)c2cccc(OC)c12 (protonated)
CC[NH+](CC)CCCNCCNc1c2ccccc2[n+](C)c2cccc(OC)c12 (3D coordinates assigned)
CC[NH+](CC)CCCNCCNc1c2ccccc2[n+](C)c2cccc(OC)c12 (optimized conformer: 91.05851096323929 kcal/mol)

>  <smiles>  (7) 
CCN(CC)CCCNCCNc1c2ccccc2[n+](C)c2cccc(OC)c12

>  <score_type>  (7) 
oracle

>  <origin>  (7) 
adg

>  <m_score__min__energy>  (7) 
-7.5800000000000001

>  <m_primary>  (7) 
energy

$$$$
7:0
     RDKit          3D

 69 71  0  0  0  0  0  0  0  0999 V2000
   -9.1220   21.5170  -31.1250 C   0  0  0  0  0  0  0  0  0  0  0  0
   -9.8100   20.8600  -32.3150 C   0  0  0  0  0  0  0  0  0  0  0  0
   -8.9190   19.8630  -32.9250 N   0  0  0  0  0  0  0  0  0  0  0  0
   -8.9440   18.5960  -32.1790 C   0  0  0  0  0  0  0  0  0  0  0  0
   -7.7200   18.4850  -31.2620 C   0  0  0  0  0  0  0  0  0  0  0  0
   -6.5820   17.7280  -31.9600 C   0  0  0  0  0  0  0  0  0  0  0  0
   -6.8330   17.5300  -33.4630 C   0  0  0  0  0  0  0  0  0  0  0  0
   -6.4860   18.7300  -34.2470 N   0  0  0  0  0  0  0  0  0  0  0  0
   -5.1880   19.2520  -33.8500 C   0  0  0  0  0  0  0  0  0  0  0  0
   -4.0110   18.4840  -34.0490 C   0  0  0  0  0  0  0  0  0  0  0  0
   -4.0670   17.1280  -34.4590 C   0  0  0  0  0  0  0  0  0  0  0  0
   -2.9040   16.3790  -34.6240 C   0  0  0  0  0  0  0  0  0  0  0  0
   -1.6660   16.9500  -34.3680 C   0  0  0  0  0  0  0  0  0  0  0  0
   -1.5790   18.2790  -33.9600 C   0  0  0  0  0  0  0  0  0  0  0  0
   -2.7410   19.0790  -33.8140 C   0  0  0  0  0  0  0  0  0  0  0  0
   -2.6550   20.4030  -33.4370 N   0  0  0  0  0  0  0  0  0  0  0  0
   -1.3580   21.1130  -33.5180 C   0  0  0  0  0  0  0  0  0  0  0  0
   -3.7790   21.0680  -32.9920 C   0  0  0  0  0  0  0  0  0  0  0  0
   -3.6770   22.2940  -32.2860 C   0  0  0  0  0  0  0  0  0  0  0  0
   -4.8070   22.9860  -31.8540 C   0  0  0  0  0  0  0  0  0  0  0  0
   -4.6220   24.1870  -31.1510 O   0  0  0  0  0  0  0  0  0  0  0  0
   -5.1800   24.4700  -29.8690 C   0  0  0  0  0  0  0  0  0  0  0  0
   -4.9510   23.2780  -28.9150 C   0  0  0  0  0  0  0  0  0  0  0  0
   -3.6460   23.2710  -28.1830 N   0  0  0  0  0  0  0  0  0  0  0  0
   -2.5320   23.6800  -29.0750 C   0  0  0  0  0  0  0  0  0  0  0  0
   -3.7380   24.2560  -27.0780 C   0  0  0  0  0  0  0  0  0  0  0  0
   -3.3530   21.9410  -27.5990 C   0  0  0  0  0  0  0  0  0  0  0  0
   -6.0750   22.4600  -32.1210 C   0  0  0  0  0  0  0  0  0  0  0  0
   -6.2060   21.2420  -32.7820 C   0  0  0  0  0  0  0  0  0  0  0  0
   -5.0710   20.5170  -33.2150 C   0  0  0  0  0  0  0  0  0  0  0  0
   -9.5423   21.1157  -30.1910 H   0  0  0  0  0  0  0  0  0  0  0  0
   -8.0432   21.3053  -31.1624 H   0  0  0  0  0  0  0  0  0  0  0  0
   -9.2838   22.6044  -31.1624 H   0  0  0  0  0  0  0  0  0  0  0  0
  -10.7316   20.3649  -31.9749 H   0  0  0  0  0  0  0  0  0  0  0  0
  -10.0532   21.6306  -33.0613 H   0  0  0  0  0  0  0  0  0  0  0  0
   -9.2840   19.6650  -33.8880 H   0  0  0  0  0  0  0  0  0  0  0  0
   -9.8580   18.5540  -31.5685 H   0  0  0  0  0  0  0  0  0  0  0  0
   -8.9265   17.7620  -32.8961 H   0  0  0  0  0  0  0  0  0  0  0  0
   -7.3732   19.4954  -30.9998 H   0  0  0  0  0  0  0  0  0  0  0  0
   -8.0076   17.9314  -30.3560 H   0  0  0  0  0  0  0  0  0  0  0  0
   -5.6500   18.2979  -31.8313 H   0  0  0  0  0  0  0  0  0  0  0  0
   -6.5170   16.7306  -31.5007 H   0  0  0  0  0  0  0  0  0  0  0  0
   -6.2217   16.6866  -33.8165 H   0  0  0  0  0  0  0  0  0  0  0  0
   -7.9059   17.3324  -33.6038 H   0  0  0  0  0  0  0  0  0  0  0  0
   -6.4950   18.5240  -35.2710 H   0  0  0  0  0  0  0  0  0  0  0  0
   -7.2230   19.4610  -34.1380 H   0  0  0  0  0  0  0  0  0  0  0  0
   -5.0440   16.6600  -34.6498 H   0  0  0  0  0  0  0  0  0  0  0  0
   -2.9675   15.3328  -34.9579 H   0  0  0  0  0  0  0  0  0  0  0  0
   -0.7507   16.3518  -34.4875 H   0  0  0  0  0  0  0  0  0  0  0  0
   -0.5920   18.7156  -33.7474 H   0  0  0  0  0  0  0  0  0  0  0  0
   -0.9871   21.3160  -32.5025 H   0  0  0  0  0  0  0  0  0  0  0  0
   -0.6305   20.4874  -34.0558 H   0  0  0  0  0  0  0  0  0  0  0  0
   -1.4930   22.0630  -34.0558 H   0  0  0  0  0  0  0  0  0  0  0  0
   -2.6807   22.7092  -32.0741 H   0  0  0  0  0  0  0  0  0  0  0  0
   -4.6981   25.3669  -29.4526 H   0  0  0  0  0  0  0  0  0  0  0  0
   -6.2611   24.6416  -29.9772 H   0  0  0  0  0  0  0  0  0  0  0  0
   -5.7575   23.2847  -28.1670 H   0  0  0  0  0  0  0  0  0  0  0  0
   -4.9402   22.3823  -29.5534 H   0  0  0  0  0  0  0  0  0  0  0  0
   -1.6719   23.9958  -28.4663 H   0  0  0  0  0  0  0  0  0  0  0  0
   -2.2398   22.8305  -29.7098 H   0  0  0  0  0  0  0  0  0  0  0  0
   -2.8589   24.5168  -29.7098 H   0  0  0  0  0  0  0  0  0  0  0  0
   -3.6889   23.7302  -26.1131 H   0  0  0  0  0  0  0  0  0  0  0  0
   -2.9024   24.9677  -27.1507 H   0  0  0  0  0  0  0  0  0  0  0  0
   -4.6909   24.8007  -27.1507 H   0  0  0  0  0  0  0  0  0  0  0  0
   -3.3684   22.0111  -26.5013 H   0  0  0  0  0  0  0  0  0  0  0  0
   -4.1136   21.2191  -27.9311 H   0  0  0  0  0  0  0  0  0  0  0  0
   -2.3594   21.6056  -27.9311 H   0  0  0  0  0  0  0  0  0  0  0  0
   -6.9734   23.0116  -31.8071 H   0  0  0  0  0  0  0  0  0  0  0  0
   -7.2106   20.8357  -32.9712 H   0  0  0  0  0  0  0  0  0  0  0  0
  1  2  1  0
  2  3  1  0
  3  4  1  0
  4  5  1  0
  5  6  1  0
  6  7  1  0
  7  8  1  0
  8  9  1  0
  9 10  2  0
 10 11  1  0
 11 12  2  0
 12 13  1  0
 13 14  2  0
 14 15  1  0
 15 16  2  0
 16 17  1  0
 16 18  1  0
 18 19  2  0
 19 20  1  0
 20 21  1  0
 21 22  1  0
 22 23  1  0
 23 24  1  0
 24 25  1  0
 24 26  1  0
 24 27  1  0
 20 28  2  0
 28 29  1  0
 29 30  2  0
 30  9  1  0
 15 10  1  0
 30 18  1  0
  1 31  1  0
  1 32  1  0
  1 33  1  0
  2 34  1  0
  2 35  1  0
  3 36  1  0
  4 37  1  0
  4 38  1  0
  5 39  1  0
  5 40  1  0
  6 41  1  0
  6 42  1  0
  7 43  1  0
  7 44  1  0
  8 45  1  0
  8 46  1  0
 11 47  1  0
 12 48  1  0
 13 49  1  0
 14 50  1  0
 17 51  1  0
 17 52  1  0
 17 53  1  0
 19 54  1  0
 22 55  1  0
 22 56  1  0
 23 57  1  0
 23 58  1  0
 25 59  1  0
 25 60  1  0
 25 61  1  0
 26 62  1  0
 26 63  1  0
 26 64  1  0
 27 65  1  0
 27 66  1  0
 27 67  1  0
 28 68  1  0
 29 69  1  0
M  CHG  3   8   1  16   1  24   1
M  END
>  <UniqueID>  (8) 
8

>  <SMILES>  (8) 
CCNCCCC[NH2+]c1c2ccccc2[n+](C)c2cc(OCC[N+](C)(C)C)ccc12

>  <Energy>  (8) 
94.1250075273559

>  <Genealogy>  (8) 
CCNCCCC[NH2+]c1c2ccccc2[n+](C)c2cc(OCC[N+](C)(C)C)ccc12 (protonated)
CCNCCCC[NH2+]c1c2ccccc2[n+](C)c2cc(OCC[N+](C)(C)C)ccc12 (3D coordinates assigned)
CCNCCCC[NH2+]c1c2ccccc2[n+](C)c2cc(OCC[N+](C)(C)C)ccc12 (optimized conformer: 94.1250075273559 kcal/mol)

>  <smiles>  (8) 
CCNCCCCNc1c2ccccc2[n+](C)c2cc(OCC[N+](C)(C)C)ccc12

>  <score_type>  (8) 
oracle

>  <origin>  (8) 
adg

>  <m_score__min__energy>  (8) 
-7.7000000000000002

>  <m_primary>  (8) 
energy

$$$$
8:0
     RDKit          3D

 58 61  0  0  0  0  0  0  0  0999 V2000
   -5.6340   25.3200  -30.7970 C   0  0  0  0  0  0  0  0  0  0  0  0
   -5.0810   24.2480  -31.5500 O   0  0  0  0  0  0  0  0  0  0  0  0
   -5.6960   23.0090  -31.8100 C   0  0  0  0  0  0  0  0  0  0  0  0
   -7.0880   22.9470  -31.6320 C   0  0  0  0  0  0  0  0  0  0  0  0
   -7.7660   21.7630  -31.9100 C   0  0  0  0  0  0  0  0  0  0  0  0
   -7.0990   20.6530  -32.3470 C   0  0  0  0  0  0  0  0  0  0  0  0
   -5.7160   20.6610  -32.5080 C   0  0  0  0  0  0  0  0  0  0  0  0
   -4.9910   21.8410  -32.2300 C   0  0  0  0  0  0  0  0  0  0  0  0
   -3.5980   21.8830  -32.3970 O   0  0  0  0  0  0  0  0  0  0  0  0
   -2.8690   21.2490  -33.4480 C   0  0  0  0  0  0  0  0  0  0  0  0
   -1.3550   21.3860  -33.2280 C   0  0  0  0  0  0  0  0  0  0  0  0
   -0.9650   21.3100  -31.8100 N   0  0  0  0  0  0  0  0  0  0  0  0
   -0.1480   20.1240  -31.5160 C   0  0  0  0  0  0  0  0  0  0  0  0
    0.2920   20.1230  -30.0390 C   0  0  2  0  0  0  0  0  0  0  0  0
    1.5240   19.2270  -29.8410 C   0  0  0  0  0  0  0  0  0  0  0  0
   -0.8470   19.6640  -29.1060 C   0  0  0  0  0  0  0  0  0  0  0  0
   -1.9480   20.5740  -29.1470 O   0  0  0  0  0  0  0  0  0  0  0  0
   -1.8830   21.9720  -29.0110 C   0  0  0  0  0  0  0  0  0  0  0  0
   -2.9570   22.7340  -29.5300 C   0  0  0  0  0  0  0  0  0  0  0  0
   -2.9480   24.1390  -29.4520 C   0  0  0  0  0  0  0  0  0  0  0  0
   -1.8640   24.7470  -28.8310 C   0  0  0  0  0  0  0  0  0  0  0  0
   -0.8350   24.0280  -28.3190 C   0  0  0  0  0  0  0  0  0  0  0  0
   -0.7960   22.6380  -28.3890 C   0  0  0  0  0  0  0  0  0  0  0  0
    0.0920   24.8860  -27.7580 O   0  0  0  0  0  0  0  0  0  0  0  0
   -0.3860   26.2270  -27.9310 C   0  0  0  0  0  0  0  0  0  0  0  0
   -1.6370   26.0920  -28.6180 O   0  0  0  0  0  0  0  0  0  0  0  0
   -8.0150   19.5230  -32.6230 C   0  0  0  0  0  0  0  0  0  0  0  0
   -9.4150   20.1050  -32.3550 C   0  0  0  0  0  0  0  0  0  0  0  0
   -9.2250   21.5340  -31.8130 C   0  0  0  0  0  0  0  0  0  0  0  0
   -5.5248   25.1083  -29.7231 H   0  0  0  0  0  0  0  0  0  0  0  0
   -5.1043   26.2522  -31.0427 H   0  0  0  0  0  0  0  0  0  0  0  0
   -6.7007   25.4287  -31.0427 H   0  0  0  0  0  0  0  0  0  0  0  0
   -7.6395   23.8292  -31.2749 H   0  0  0  0  0  0  0  0  0  0  0  0
   -5.1922   19.7558  -32.8489 H   0  0  0  0  0  0  0  0  0  0  0  0
   -3.1333   20.1816  -33.4761 H   0  0  0  0  0  0  0  0  0  0  0  0
   -3.1305   21.7358  -34.3991 H   0  0  0  0  0  0  0  0  0  0  0  0
   -0.8479   20.5767  -33.7738 H   0  0  0  0  0  0  0  0  0  0  0  0
   -1.0603   22.3802  -33.5950 H   0  0  0  0  0  0  0  0  0  0  0  0
   -1.8180   21.3080  -31.2030 H   0  0  0  0  0  0  0  0  0  0  0  0
   -0.7389   19.2185  -31.7181 H   0  0  0  0  0  0  0  0  0  0  0  0
    0.7481   20.1429  -32.1537 H   0  0  0  0  0  0  0  0  0  0  0  0
    0.5532   21.1584  -29.7749 H   0  0  0  0  0  0  0  0  0  0  0  0
    1.7100   19.0918  -28.7653 H   0  0  0  0  0  0  0  0  0  0  0  0
    1.3439   18.2475  -30.3080 H   0  0  0  0  0  0  0  0  0  0  0  0
    2.4004   19.7002  -30.3080 H   0  0  0  0  0  0  0  0  0  0  0  0
   -1.1920   18.6690  -29.4238 H   0  0  0  0  0  0  0  0  0  0  0  0
   -0.4613   19.6306  -28.0764 H   0  0  0  0  0  0  0  0  0  0  0  0
   -3.8093   22.2215  -30.0001 H   0  0  0  0  0  0  0  0  0  0  0  0
   -3.7722   24.7363  -29.8690 H   0  0  0  0  0  0  0  0  0  0  0  0
    0.0521   22.0734  -27.9745 H   0  0  0  0  0  0  0  0  0  0  0  0
   -0.5318   26.7139  -26.9554 H   0  0  0  0  0  0  0  0  0  0  0  0
    0.3269   26.8495  -28.4916 H   0  0  0  0  0  0  0  0  0  0  0  0
   -7.9229   19.1911  -33.6677 H   0  0  0  0  0  0  0  0  0  0  0  0
   -7.7975   18.6404  -32.0035 H   0  0  0  0  0  0  0  0  0  0  0  0
   -9.9960   20.1314  -33.2887 H   0  0  0  0  0  0  0  0  0  0  0  0
   -9.9607   19.4842  -31.6292 H   0  0  0  0  0  0  0  0  0  0  0  0
   -9.7766   22.2614  -32.4267 H   0  0  0  0  0  0  0  0  0  0  0  0
   -9.6046   21.6516  -30.7873 H   0  0  0  0  0  0  0  0  0  0  0  0
  1  2  1  0
  2  3  1  0
  3  4  2  0
  4  5  1  0
  5  6  2  0
  6  7  1  0
  7  8  2  0
  8  9  1  0
  9 10  1  0
 10 11  1  0
 11 12  1  0
 12 13  1  0
 13 14  1  0
 14 15  1  0
 14 16  1  0
 16 17  1  0
 17 18  1  0
 18 19  2  0
 19 20  1  0
 20 21  2  0
 21 22  1  0
 22 23  2  0
 22 24  1  0
 24 25  1  0
 25 26  1  0
  6 27  1  0
 27 28  1  0
 28 29  1  0
  8  3  1  0
 23 18  1  0
 29  5  1  0
 26 21  1  0
  1 30  1  0
  1 31  1  0
  1 32  1  0
  4 33  1  0
  7 34  1  0
 10 35  1  0
 10 36  1  0
 11 37  1  0
 11 38  1  0
 12 39  1  0
 13 40  1  0
 13 41  1  0
 14 42  1  1
 15 43  1  0
 15 44  1  0
 15 45  1  0
 16 46  1  0
 16 47  1  0
 19 48  1  0
 20 49  1  0
 23 50  1  0
 25 51  1  0
 25 52  1  0
 27 53  1  0
 27 54  1  0
 28 55  1  0
 28 56  1  0
 29 57  1  0
 29 58  1  0
M  END
>  <UniqueID>  (9) 
9

>  <SMILES>  (9) 
COc1cc2c(cc1OCCNC[C@H](C)COc1ccc3c(c1)OCO3)CCC2

>  <Energy>  (9) 
89.71073889277477

>  <Genealogy>  (9) 
COc1cc2c(cc1OCCNC[C@H](C)COc1ccc3c(c1)OCO3)CCC2 (chirality)
COc1cc2c(cc1OCCNC[C@H](C)COc1ccc3c(c1)OCO3)CCC2 (3D coordinates assigned)
COc1cc2c(cc1OCCNC[C@H](C)COc1ccc3c(c1)OCO3)CCC2 (nonaromatic ring conformer: 89.71073889277477 kcal/mol)

>  <smiles>  (9) 
COc1cc2c(cc1OCCNCC(C)COc1ccc3c(c1)OCO3)CCC2

>  <score_type>  (9) 
oracle

>  <origin>  (9) 
adg

>  <m_score__min__energy>  (9) 
-9.2899999999999991

>  <m_primary>  (9) 
energy

$$$$
9:0
     RDKit          3D

 39 40  0  0  0  0  0  0  0  0999 V2000
   -8.5870   18.4960  -31.3860 C   0  0  0  0  0  0  0  0  0  0  0  0
   -7.8600   18.7250  -32.7080 C   0  0  0  0  0  0  0  0  0  0  0  0
   -8.0740   20.1000  -33.1830 N   0  0  0  0  0  0  0  0  0  0  0  0
   -8.3870   21.0080  -32.0710 C   0  0  0  0  0  0  0  0  0  0  0  0
   -7.6560   22.3400  -32.2620 C   0  0  0  0  0  0  0  0  0  0  0  0
   -6.7230   22.6000  -31.1530 N   0  0  0  0  0  0  0  0  0  0  0  0
   -7.2310   23.1130  -29.8790 C   0  0  0  0  0  0  0  0  0  0  0  0
   -6.8450   24.5730  -29.7080 C   0  0  0  0  0  0  0  0  0  0  0  0
   -5.4180   24.7090  -29.4530 N   0  0  0  0  0  0  0  0  0  0  0  0
   -4.4210   24.3660  -30.4210 C   0  0  0  0  0  0  0  0  0  0  0  0
   -3.5690   25.2380  -30.7410 O   0  0  0  0  0  0  0  0  0  0  0  0
   -4.2640   22.9790  -30.9270 C   0  0  0  0  0  0  0  0  0  0  0  0
   -2.9560   22.4890  -31.1060 C   0  0  0  0  0  0  0  0  0  0  0  0
   -2.7270   21.1820  -31.5570 C   0  0  0  0  0  0  0  0  0  0  0  0
   -1.3250   20.6640  -31.6920 C   0  0  0  0  0  0  0  0  0  0  0  0
   -3.8150   20.3390  -31.8020 C   0  0  0  0  0  0  0  0  0  0  0  0
   -5.1170   20.8120  -31.6480 C   0  0  0  0  0  0  0  0  0  0  0  0
   -5.3620   22.1330  -31.2310 C   0  0  0  0  0  0  0  0  0  0  0  0
   -7.9047   18.7109  -30.5503 H   0  0  0  0  0  0  0  0  0  0  0  0
   -9.4600   19.1627  -31.3274 H   0  0  0  0  0  0  0  0  0  0  0  0
   -8.9203   17.4494  -31.3274 H   0  0  0  0  0  0  0  0  0  0  0  0
   -6.7828   18.5560  -32.5626 H   0  0  0  0  0  0  0  0  0  0  0  0
   -8.2565   18.0243  -33.4576 H   0  0  0  0  0  0  0  0  0  0  0  0
   -8.9040   20.0880  -33.8220 H   0  0  0  0  0  0  0  0  0  0  0  0
   -9.4717   21.1885  -32.0421 H   0  0  0  0  0  0  0  0  0  0  0  0
   -8.0604   20.5487  -31.1264 H   0  0  0  0  0  0  0  0  0  0  0  0
   -7.0914   22.3072  -33.2055 H   0  0  0  0  0  0  0  0  0  0  0  0
   -8.4032   23.1469  -32.2845 H   0  0  0  0  0  0  0  0  0  0  0  0
   -8.3272   23.0229  -29.8625 H   0  0  0  0  0  0  0  0  0  0  0  0
   -6.7930   22.5279  -29.0569 H   0  0  0  0  0  0  0  0  0  0  0  0
   -7.1003   25.1225  -30.6261 H   0  0  0  0  0  0  0  0  0  0  0  0
   -7.3953   24.9826  -28.8481 H   0  0  0  0  0  0  0  0  0  0  0  0
   -5.1300   25.3260  -28.6610 H   0  0  0  0  0  0  0  0  0  0  0  0
   -2.0991   23.1434  -30.8881 H   0  0  0  0  0  0  0  0  0  0  0  0
   -0.8949   20.5051  -30.6921 H   0  0  0  0  0  0  0  0  0  0  0  0
   -1.3375   19.7111  -32.2414 H   0  0  0  0  0  0  0  0  0  0  0  0
   -0.7149   21.3961  -32.2414 H   0  0  0  0  0  0  0  0  0  0  0  0
   -3.6430   19.2993  -32.1173 H   0  0  0  0  0  0  0  0  0  0  0  0
   -5.9650   20.1428  -31.8555 H   0  0  0  0  0  0  0  0  0  0  0  0
  1  2  1  0
  2  3  1  0
  3  4  1  0
  4  5  1  0
  5  6  1  0
  6  7  1  0
  7  8  1  0
  8  9  1  0
  9 10  1  0
 10 11  2  0
 10 12  1  0
 12 13  2  0
 13 14  1  0
 14 15  1  0
 14 16  2  0
 16 17  1  0
 17 18  2  0
 18  6  1  0
 18 12  1  0
  1 19  1  0
  1 20  1  0
  1 21  1  0
  2 22  1  0
  2 23  1  0
  3 24  1  0
  4 25  1  0
  4 26  1  0
  5 27  1  0
  5 28  1  0
  7 29  1  0
  7 30  1  0
  8 31  1  0
  8 32  1  0
  9 33  1  0
 13 34  1  0
 15 35  1  0
 15 36  1  0
 15 37  1  0
 16 38  1  0
 17 39  1  0
M  END
>  <UniqueID>  (10) 
10

>  <SMILES>  (10) 
CCNCCN1CCNC(=O)c2cc(C)ccc21

>  <Energy>  (10) 
45.07916225632969

>  <Genealogy>  (10) 
CCNCCN1CCNC(=O)c2cc(C)ccc21 (3D coordinates assigned)
CCNCCN1CCNC(=O)c2cc(C)ccc21 (nonaromatic ring conformer: 45.07916225632969 kcal/mol)

>  <smiles>  (10) 
CCNCCN1CCNC(=O)c2cc(C)ccc21

>  <score_type>  (10) 
oracle

>  <origin>  (10) 
adg

>  <m_score__min__energy>  (10) 
-6.0800000000000001

>  <m_primary>  (10) 
energy

$$$$
10:0
     RDKit          3D

 79 82  0  0  0  0  0  0  0  0999 V2000
    0.8580   22.4950  -36.0290 C   0  0  0  0  0  0  0  0  0  0  0  0
    0.2490   21.1810  -35.5460 C   0  0  0  0  0  0  0  0  0  0  0  0
   -0.1060   21.2190  -34.0530 C   0  0  0  0  0  0  0  0  0  0  0  0
   -1.5640   21.1950  -33.8520 N   0  0  0  0  0  0  0  0  0  0  0  0
   -1.9290   21.5520  -32.4710 C   0  0  0  0  0  0  0  0  0  0  0  0
   -3.4340   21.8200  -32.3160 C   0  0  0  0  0  0  0  0  0  0  0  0
   -4.2500   21.3860  -33.4740 N   0  0  0  0  0  0  0  0  0  0  0  0
   -5.4080   20.5830  -33.0920 C   0  0  0  0  0  0  0  0  0  0  0  0
   -6.5640   21.2470  -32.5720 C   0  0  0  0  0  0  0  0  0  0  0  0
   -6.6080   22.6590  -32.4040 C   0  0  0  0  0  0  0  0  0  0  0  0
   -7.7410   23.2980  -31.9100 C   0  0  0  0  0  0  0  0  0  0  0  0
   -8.8710   22.5630  -31.5900 C   0  0  0  0  0  0  0  0  0  0  0  0
   -8.8660   21.1820  -31.7490 C   0  0  0  0  0  0  0  0  0  0  0  0
   -7.7150   20.4940  -32.2170 C   0  0  0  0  0  0  0  0  0  0  0  0
   -7.7190   19.1280  -32.3600 N   0  0  0  0  0  0  0  0  0  0  0  0
   -8.7740   18.3210  -31.7060 C   0  0  0  0  0  0  0  0  0  0  0  0
   -6.7280   18.5040  -33.0830 C   0  0  0  0  0  0  0  0  0  0  0  0
   -6.9280   17.1900  -33.5660 C   0  0  0  0  0  0  0  0  0  0  0  0
   -5.9160   16.4910  -34.1920 C   0  0  0  0  0  0  0  0  0  0  0  0
   -4.6620   17.0580  -34.3160 C   0  0  0  0  0  0  0  0  0  0  0  0
   -4.4120   18.3720  -33.8810 C   0  0  0  0  0  0  0  0  0  0  0  0
   -3.0940   18.8580  -33.9120 O   0  0  0  0  0  0  0  0  0  0  0  0
   -1.9000   18.0950  -34.1020 C   0  0  0  0  0  0  0  0  0  0  0  0
   -1.4830   17.4130  -32.7750 C   0  0  0  0  0  0  0  0  0  0  0  0
   -0.0620   17.6320  -32.3470 N   0  0  0  0  0  0  0  0  0  0  0  0
    0.8390   17.5840  -33.5300 C   0  0  0  0  0  0  0  0  0  0  0  0
    0.0940   18.9620  -31.6670 C   0  0  0  0  0  0  0  0  0  0  0  0
   -0.1240   18.8760  -30.1430 C   0  0  0  0  0  0  0  0  0  0  0  0
    0.8920   18.0010  -29.4760 N   0  0  0  0  0  0  0  0  0  0  0  0
    2.0500   18.8240  -29.0440 C   0  0  0  0  0  0  0  0  0  0  0  0
    0.2850   17.3980  -28.2630 C   0  0  0  0  0  0  0  0  0  0  0  0
    1.3780   16.9170  -30.3870 C   0  0  0  0  0  0  0  0  0  0  0  0
    0.3120   16.5070  -31.4230 C   0  0  0  0  0  0  0  0  0  0  0  0
   -5.4900   19.1690  -33.3560 C   0  0  0  0  0  0  0  0  0  0  0  0
    1.1422   23.1083  -35.1612 H   0  0  0  0  0  0  0  0  0  0  0  0
    1.7502   22.2841  -36.6369 H   0  0  0  0  0  0  0  0  0  0  0  0
    0.1204   23.0394  -36.6369 H   0  0  0  0  0  0  0  0  0  0  0  0
   -0.6664   20.9820  -36.1226 H   0  0  0  0  0  0  0  0  0  0  0  0
    0.9968   20.3881  -35.6946 H   0  0  0  0  0  0  0  0  0  0  0  0
    0.3392   20.3445  -33.5559 H   0  0  0  0  0  0  0  0  0  0  0  0
    0.2895   22.1517  -33.6245 H   0  0  0  0  0  0  0  0  0  0  0  0
   -1.9840   21.9220  -34.4760 H   0  0  0  0  0  0  0  0  0  0  0  0
   -1.6469   20.7231  -31.8051 H   0  0  0  0  0  0  0  0  0  0  0  0
   -1.3940   22.4770  -32.2101 H   0  0  0  0  0  0  0  0  0  0  0  0
   -3.7897   21.2848  -31.4233 H   0  0  0  0  0  0  0  0  0  0  0  0
   -3.5545   22.9104  -32.2350 H   0  0  0  0  0  0  0  0  0  0  0  0
   -3.6580   20.9770  -34.2190 H   0  0  0  0  0  0  0  0  0  0  0  0
   -4.5940   22.2380  -33.9710 H   0  0  0  0  0  0  0  0  0  0  0  0
   -5.7259   23.2595  -32.6708 H   0  0  0  0  0  0  0  0  0  0  0  0
   -7.7395   24.3895  -31.7732 H   0  0  0  0  0  0  0  0  0  0  0  0
   -9.7700   23.0710  -31.2110 H   0  0  0  0  0  0  0  0  0  0  0  0
   -9.7735   20.6094  -31.5070 H   0  0  0  0  0  0  0  0  0  0  0  0
   -8.6714   18.3995  -30.6136 H   0  0  0  0  0  0  0  0  0  0  0  0
   -9.7629   18.6953  -32.0092 H   0  0  0  0  0  0  0  0  0  0  0  0
   -8.6715   17.2686  -32.0092 H   0  0  0  0  0  0  0  0  0  0  0  0
   -7.9119   16.7146  -33.4400 H   0  0  0  0  0  0  0  0  0  0  0  0
   -6.1073   15.4842  -34.5916 H   0  0  0  0  0  0  0  0  0  0  0  0
   -3.8453   16.4717  -34.7625 H   0  0  0  0  0  0  0  0  0  0  0  0
   -2.0793   17.3241  -34.8659 H   0  0  0  0  0  0  0  0  0  0  0  0
   -1.0930   18.7674  -34.4286 H   0  0  0  0  0  0  0  0  0  0  0  0
   -2.1382   17.7955  -31.9785 H   0  0  0  0  0  0  0  0  0  0  0  0
   -1.5785   16.3315  -32.9520 H   0  0  0  0  0  0  0  0  0  0  0  0
    1.8845   17.5283  -33.1926 H   0  0  0  0  0  0  0  0  0  0  0  0
    0.6015   16.6972  -34.1360 H   0  0  0  0  0  0  0  0  0  0  0  0
    0.6971   18.4910  -34.1360 H   0  0  0  0  0  0  0  0  0  0  0  0
    1.1100   19.3383  -31.8572 H   0  0  0  0  0  0  0  0  0  0  0  0
   -0.6712   19.6380  -32.0762 H   0  0  0  0  0  0  0  0  0  0  0  0
   -0.0545   19.8879  -29.7173 H   0  0  0  0  0  0  0  0  0  0  0  0
   -1.1168   18.4359  -29.9676 H   0  0  0  0  0  0  0  0  0  0  0  0
    2.0900   18.8524  -27.9451 H   0  0  0  0  0  0  0  0  0  0  0  0
    2.9792   18.3825  -29.4334 H   0  0  0  0  0  0  0  0  0  0  0  0
    1.9386   19.8467  -29.4334 H   0  0  0  0  0  0  0  0  0  0  0  0
    0.7363   17.8463  -27.3656 H   0  0  0  0  0  0  0  0  0  0  0  0
   -0.7985   17.5876  -28.2623 H   0  0  0  0  0  0  0  0  0  0  0  0
    0.4674   16.3132  -28.2623 H   0  0  0  0  0  0  0  0  0  0  0  0
    2.2708   17.2757  -30.9201 H   0  0  0  0  0  0  0  0  0  0  0  0
    1.6077   16.0351  -29.7709 H   0  0  0  0  0  0  0  0  0  0  0  0
    0.7071   15.6747  -32.0239 H   0  0  0  0  0  0  0  0  0  0  0  0
   -0.5935   16.2159  -30.8705 H   0  0  0  0  0  0  0  0  0  0  0  0
  1  2  1  0
  2  3  1  0
  3  4  1  0
  4  5  1  0
  5  6  1  0
  6  7  1  0
  7  8  1  0
  8  9  2  0
  9 10  1  0
 10 11  2  0
 11 12  1  0
 12 13  2  0
 13 14  1  0
 14 15  2  0
 15 16  1  0
 15 17  1  0
 17 18  2  0
 18 19  1  0
 19 20  2  0
 20 21  1  0
 21 22  1  0
 22 23  1  0
 23 24  1  0
 24 25  1  0
 25 26  1  0
 25 27  1  0
 27 28  1  0
 28 29  1  0
 29 30  1  0
 29 31  1  0
 29 32  1  0
 32 33  1  0
 21 34  2  0
 34  8  1  0
 14  9  1  0
 34 17  1  0
 33 25  1  0
  1 35  1  0
  1 36  1  0
  1 37  1  0
  2 38  1  0
  2 39  1  0
  3 40  1  0
  3 41  1  0
  4 42  1  0
  5 43  1  0
  5 44  1  0
  6 45  1  0
  6 46  1  0
  7 47  1  0
  7 48  1  0
 10 49  1  0
 11 50  1  0
 12 51  1  0
 13 52  1  0
 16 53  1  0
 16 54  1  0
 16 55  1  0
 18 56  1  0
 19 57  1  0
 20 58  1  0
 23 59  1  0
 23 60  1  0
 24 61  1  0
 24 62  1  0
 26 63  1  0
 26 64  1  0
 26 65  1  0
 27 66  1  0
 27 67  1  0
 28 68  1  0
 28 69  1  0
 30 70  1  0
 30 71  1  0
 30 72  1  0
 31 73  1  0
 31 74  1  0
 31 75  1  0
 32 76  1  0
 32 77  1  0
 33 78  1  0
 33 79  1  0
M  CHG  4   7   1  15   1  25   1  29   1
M  END
>  <UniqueID>  (11) 
11

>  <SMILES>  (11) 
CCCNCC[NH2+]c1c2ccccc2[n+](C)c2cccc(OCC[N+]3(C)CC[N+](C)(C)CC3)c12

>  <Energy>  (11) 
137.41510611742652

>  <Genealogy>  (11) 
CCCNCC[NH2+]c1c2ccccc2[n+](C)c2cccc(OCC[N+]3(C)CC[N+](C)(C)CC3)c12 (protonated)
CCCNCC[NH2+]c1c2ccccc2[n+](C)c2cccc(OCC[N+]3(C)CC[N+](C)(C)CC3)c12 (3D coordinates assigned)
CCCNCC[NH2+]c1c2ccccc2[n+](C)c2cccc(OCC[N+]3(C)CC[N+](C)(C)CC3)c12 (nonaromatic ring conformer: 137.41510611742652 kcal/mol)

>  <smiles>  (11) 
CCCNCCNc1c2ccccc2[n+](C)c2cccc(OCC[N+]3(C)CC[N+](C)(C)CC3)c12

>  <score_type>  (11) 
oracle

>  <origin>  (11) 
adg

>  <m_score__min__energy>  (11) 
-7.0099999999999998

>  <m_primary>  (11) 
energy

$$$$
11:0
     RDKit          3D

 50 54  0  0  0  0  0  0  0  0999 V2000
   -4.5710   15.8690  -32.9990 C   0  0  0  0  0  0  0  0  0  0  0  0
   -3.2200   16.4510  -33.4090 C   0  0  0  0  0  0  0  0  0  0  0  0
   -3.4070   17.6840  -34.1890 N   0  0  0  0  0  0  0  0  0  0  0  0
   -4.6800   17.6950  -34.9320 C   0  0  0  0  0  0  0  0  0  0  0  0
   -5.7120   18.6470  -34.3060 C   0  0  0  0  0  0  0  0  0  0  0  0
   -5.3520   18.9410  -32.9200 N   0  0  0  0  0  0  0  0  0  0  0  0
   -5.7760   20.1620  -32.2960 C   0  0  0  0  0  0  0  0  0  0  0  0
   -4.8410   21.0150  -31.7160 C   0  0  0  0  0  0  0  0  0  0  0  0
   -5.2170   22.2270  -31.1630 C   0  0  0  0  0  0  0  0  0  0  0  0
   -6.5070   22.6880  -31.2500 N   0  0  0  0  0  0  0  0  0  0  0  0
   -6.8070   24.0980  -30.9590 C   0  0  0  0  0  0  0  0  0  0  0  0
   -7.4940   21.8100  -31.6740 C   0  0  0  0  0  0  0  0  0  0  0  0
   -8.8690   22.1260  -31.5530 C   0  0  0  0  0  0  0  0  0  0  0  0
   -9.8510   21.2370  -31.9910 C   0  0  0  0  0  0  0  0  0  0  0  0
   -9.4940   20.0090  -32.5400 C   0  0  0  0  0  0  0  0  0  0  0  0
   -8.1500   19.6520  -32.6460 C   0  0  0  0  0  0  0  0  0  0  0  0
   -7.1370   20.5340  -32.2220 C   0  0  0  0  0  0  0  0  0  0  0  0
   -4.0060   22.8710  -30.5940 C   0  0  0  0  0  0  0  0  0  0  0  0
   -3.8460   23.9980  -29.7610 C   0  0  0  0  0  0  0  0  0  0  0  0
   -2.5440   24.2800  -29.3330 C   0  0  0  0  0  0  0  0  0  0  0  0
   -1.4770   23.4890  -29.6600 C   0  0  0  0  0  0  0  0  0  0  0  0
   -1.6130   22.3360  -30.4360 C   0  0  0  0  0  0  0  0  0  0  0  0
   -2.9100   22.0460  -30.8850 C   0  0  0  0  0  0  0  0  0  0  0  0
   -3.3900   20.8720  -31.5940 C   0  0  0  0  0  0  0  0  0  0  0  0
   -2.6860   19.9120  -32.0020 O   0  0  0  0  0  0  0  0  0  0  0  0
   -0.3320   24.0070  -29.0860 O   0  0  0  0  0  0  0  0  0  0  0  0
   -0.6920   25.1940  -28.3660 C   0  0  0  0  0  0  0  0  0  0  0  0
   -2.1110   25.3220  -28.5360 O   0  0  0  0  0  0  0  0  0  0  0  0
   -4.6397   15.8394  -31.9015 H   0  0  0  0  0  0  0  0  0  0  0  0
   -5.3786   16.4990  -33.4001 H   0  0  0  0  0  0  0  0  0  0  0  0
   -4.6679   14.8493  -33.4001 H   0  0  0  0  0  0  0  0  0  0  0  0
   -2.6347   16.6789  -32.5060 H   0  0  0  0  0  0  0  0  0  0  0  0
   -2.6881   15.7144  -34.0290 H   0  0  0  0  0  0  0  0  0  0  0  0
   -3.3740   18.5060  -33.5420 H   0  0  0  0  0  0  0  0  0  0  0  0
   -4.4837   18.0161  -35.9656 H   0  0  0  0  0  0  0  0  0  0  0  0
   -5.0974   16.6778  -34.9001 H   0  0  0  0  0  0  0  0  0  0  0  0
   -5.7377   19.5842  -34.8814 H   0  0  0  0  0  0  0  0  0  0  0  0
   -6.7015   18.1669  -34.3257 H   0  0  0  0  0  0  0  0  0  0  0  0
   -4.5220   18.4510  -32.5270 H   0  0  0  0  0  0  0  0  0  0  0  0
   -6.8391   24.2488  -29.8699 H   0  0  0  0  0  0  0  0  0  0  0  0
   -6.0247   24.7368  -31.3947 H   0  0  0  0  0  0  0  0  0  0  0  0
   -7.7816   24.3630  -31.3947 H   0  0  0  0  0  0  0  0  0  0  0  0
   -9.1672   23.0864  -31.1072 H   0  0  0  0  0  0  0  0  0  0  0  0
  -10.9133   21.5082  -31.9019 H   0  0  0  0  0  0  0  0  0  0  0  0
  -10.2743   19.3179  -32.8914 H   0  0  0  0  0  0  0  0  0  0  0  0
   -7.8784   18.6718  -33.0649 H   0  0  0  0  0  0  0  0  0  0  0  0
   -4.7008   24.6230  -29.4632 H   0  0  0  0  0  0  0  0  0  0  0  0
   -0.7543   21.6935  -30.6806 H   0  0  0  0  0  0  0  0  0  0  0  0
   -0.4391   25.0904  -27.3005 H   0  0  0  0  0  0  0  0  0  0  0  0
   -0.1524   26.0784  -28.7358 H   0  0  0  0  0  0  0  0  0  0  0  0
  1  2  1  0
  2  3  1  0
  3  4  1  0
  4  5  1  0
  5  6  1  0
  6  7  1  0
  7  8  2  0
  8  9  1  0
  9 10  2  0
 10 11  1  0
 10 12  1  0
 12 13  2  0
 13 14  1  0
 14 15  2  0
 15 16  1  0
 16 17  2  0
  9 18  1  0
 18 19  2  0
 19 20  1  0
 20 21  2  0
 21 22  1  0
 22 23  2  0
 23 24  1  0
 24 25  2  0
 21 26  1  0
 26 27  1  0
 27 28  1  0
 17  7  1  0
 23 18  1  0
 24  8  1  0
 17 12  1  0
 28 20  1  0
  1 29  1  0
  1 30  1  0
  1 31  1  0
  2 32  1  0
  2 33  1  0
  3 34  1  0
  4 35  1  0
  4 36  1  0
  5 37  1  0
  5 38  1  0
  6 39  1  0
 11 40  1  0
 11 41  1  0
 11 42  1  0
 13 43  1  0
 14 44  1  0
 15 45  1  0
 16 46  1  0
 19 47  1  0
 22 48  1  0
 27 49  1  0
 27 50  1  0
M  CHG  1  10   1
M  END
>  <UniqueID>  (12) 
12

>  <SMILES>  (12) 
CCNCCNc1c2c([n+](C)c3ccccc13)-c1cc3c(cc1C2=O)OCO3

>  <Energy>  (12) 
133.0815706381716

>  <Genealogy>  (12) 
CCNCCNc1c2c([n+](C)c3ccccc13)-c1cc3c(cc1C2=O)OCO3 (3D coordinates assigned)
CCNCCNc1c2c([n+](C)c3ccccc13)-c1cc3c(cc1C2=O)OCO3 (nonaromatic ring conformer: 133.0815706381716 kcal/mol)

>  <smiles>  (12) 
CCNCCNc1c2c([n+](C)c3ccccc13)-c1cc3c(cc1C2=O)OCO3

>  <score_type>  (12) 
oracle

>  <origin>  (12) 
adg

>  <m_score__min__energy>  (12) 
-9.4199999999999999

>  <m_primary>  (12) 
energy

$$$$
12:0
     RDKit          3D

 61 62  0  0  0  0  0  0  0  0999 V2000
   -2.4100   19.7440  -33.5780 C   0  0  0  0  0  0  0  0  0  0  0  0
   -2.3370   21.2340  -33.2550 C   0  0  0  0  0  0  0  0  0  0  0  0
   -2.1180   21.4640  -31.8110 N   0  0  0  0  0  0  0  0  0  0  0  0
   -2.9880   20.6100  -30.9760 C   0  0  0  0  0  0  0  0  0  0  0  0
   -0.7120   21.5500  -31.3340 C   0  0  0  0  0  0  0  0  0  0  0  0
   -0.4980   22.0470  -29.8820 C   0  0  0  0  0  0  0  0  0  0  0  0
   -0.9060   23.3930  -29.7350 O   0  0  0  0  0  0  0  0  0  0  0  0
   -1.0380   23.7480  -28.3660 C   0  0  0  0  0  0  0  0  0  0  0  0
   -2.3440   24.5080  -28.1730 C   0  0  0  0  0  0  0  0  0  0  0  0
   -2.6340   25.2780  -29.3220 O   0  0  0  0  0  0  0  0  0  0  0  0
   -3.3180   24.4620  -30.1720 N   0  0  0  0  0  0  0  0  0  0  0  0
   -4.7470   24.5000  -30.2280 C   0  0  0  0  0  0  0  0  0  0  0  0
   -5.4310   25.3110  -29.5050 N   0  0  0  0  0  0  0  0  0  0  0  0
   -6.8480   25.1680  -29.8240 C   0  0  0  0  0  0  0  0  0  0  0  0
   -6.9040   24.1160  -30.9490 C   0  0  0  0  0  0  0  0  0  0  0  0
   -5.5150   23.7540  -31.1580 N   0  0  0  0  0  0  0  0  0  0  0  0
   -5.0620   22.7160  -32.0820 C   0  0  0  0  0  0  0  0  0  0  0  0
   -6.0500   21.5380  -32.1510 C   0  0  0  0  0  0  0  0  0  0  0  0
   -5.7060   20.5100  -33.2460 C   0  0  0  0  0  0  0  0  0  0  0  0
   -6.8660   19.6530  -33.5860 N   0  0  0  0  0  0  0  0  0  0  0  0
   -6.4650   18.2350  -33.7440 C   0  0  0  0  0  0  0  0  0  0  0  0
   -6.2670   17.5250  -32.3880 C   0  0  0  0  0  0  0  0  0  0  0  0
   -7.3100   17.8440  -31.3880 N   0  0  0  0  0  0  0  0  0  0  0  0
   -8.4610   18.5420  -31.9700 C   0  0  0  0  0  0  0  0  0  0  0  0
   -8.0110   19.8400  -32.6610 C   0  0  0  0  0  0  0  0  0  0  0  0
   -2.4383   19.1669  -32.6420 H   0  0  0  0  0  0  0  0  0  0  0  0
   -3.3192   19.5396  -34.1624 H   0  0  0  0  0  0  0  0  0  0  0  0
   -1.5251   19.4517  -34.1624 H   0  0  0  0  0  0  0  0  0  0  0  0
   -1.5053   21.6819  -33.8187 H   0  0  0  0  0  0  0  0  0  0  0  0
   -3.2944   21.6963  -33.5374 H   0  0  0  0  0  0  0  0  0  0  0  0
   -2.7857   20.8086  -29.9132 H   0  0  0  0  0  0  0  0  0  0  0  0
   -4.0422   20.8338  -31.1966 H   0  0  0  0  0  0  0  0  0  0  0  0
   -2.7838   19.5519  -31.1966 H   0  0  0  0  0  0  0  0  0  0  0  0
   -0.2723   20.5446  -31.4102 H   0  0  0  0  0  0  0  0  0  0  0  0
   -0.2366   22.3095  -31.9721 H   0  0  0  0  0  0  0  0  0  0  0  0
   -1.0855   21.4176  -29.1974 H   0  0  0  0  0  0  0  0  0  0  0  0
    0.5745   21.9813  -29.6467 H   0  0  0  0  0  0  0  0  0  0  0  0
   -1.0465   22.8378  -27.7484 H   0  0  0  0  0  0  0  0  0  0  0  0
   -0.1915   24.3822  -28.0638 H   0  0  0  0  0  0  0  0  0  0  0  0
   -3.1600   23.7907  -28.0007 H   0  0  0  0  0  0  0  0  0  0  0  0
   -2.2448   25.1786  -27.3067 H   0  0  0  0  0  0  0  0  0  0  0  0
   -2.7750   23.8170  -30.7910 H   0  0  0  0  0  0  0  0  0  0  0  0
   -7.4087   24.8214  -28.9434 H   0  0  0  0  0  0  0  0  0  0  0  0
   -7.2990   26.1231  -30.1311 H   0  0  0  0  0  0  0  0  0  0  0  0
   -7.4938   23.2412  -30.6377 H   0  0  0  0  0  0  0  0  0  0  0  0
   -7.3850   24.4967  -31.8621 H   0  0  0  0  0  0  0  0  0  0  0  0
   -4.9597   23.1536  -33.0860 H   0  0  0  0  0  0  0  0  0  0  0  0
   -4.0982   22.3316  -31.7169 H   0  0  0  0  0  0  0  0  0  0  0  0
   -6.0477   21.0244  -31.1783 H   0  0  0  0  0  0  0  0  0  0  0  0
   -7.0362   21.9572  -32.3994 H   0  0  0  0  0  0  0  0  0  0  0  0
   -5.3847   21.0480  -34.1500 H   0  0  0  0  0  0  0  0  0  0  0  0
   -4.9043   19.8611  -32.8635 H   0  0  0  0  0  0  0  0  0  0  0  0
   -7.2481   17.7072  -34.3081 H   0  0  0  0  0  0  0  0  0  0  0  0
   -5.5025   18.2159  -34.2763 H   0  0  0  0  0  0  0  0  0  0  0  0
   -6.2735   16.4387  -32.5613 H   0  0  0  0  0  0  0  0  0  0  0  0
   -5.3105   17.8805  -31.9773 H   0  0  0  0  0  0  0  0  0  0  0  0
   -6.8910   18.4610  -30.6430 H   0  0  0  0  0  0  0  0  0  0  0  0
   -8.9452   17.8873  -32.7096 H   0  0  0  0  0  0  0  0  0  0  0  0
   -9.1680   18.7939  -31.1658 H   0  0  0  0  0  0  0  0  0  0  0  0
   -8.8597   20.2412  -33.2344 H   0  0  0  0  0  0  0  0  0  0  0  0
   -7.6784   20.5285  -31.8702 H   0  0  0  0  0  0  0  0  0  0  0  0
  1  2  1  0
  2  3  1  0
  3  4  1  0
  3  5  1  0
  5  6  1  0
  6  7  1  0
  7  8  1  0
  8  9  1  0
  9 10  1  0
 10 11  1  0
 11 12  1  0
 12 13  2  0
 13 14  1  0
 14 15  1  0
 15 16  1  0
 16 17  1  0
 17 18  1  0
 18 19  1  0
 19 20  1  0
 20 21  1  0
 21 22  1  0
 22 23  1  0
 23 24  1  0
 24 25  1  0
 16 12  1  0
 25 20  1  0
  1 26  1  0
  1 27  1  0
  1 28  1  0
  2 29  1  0
  2 30  1  0
  4 31  1  0
  4 32  1  0
  4 33  1  0
  5 34  1  0
  5 35  1  0
  6 36  1  0
  6 37  1  0
  8 38  1  0
  8 39  1  0
  9 40  1  0
  9 41  1  0
 11 42  1  0
 14 43  1  0
 14 44  1  0
 15 45  1  0
 15 46  1  0
 17 47  1  0
 17 48  1  0
 18 49  1  0
 18 50  1  0
 19 51  1  0
 19 52  1  0
 21 53  1  0
 21 54  1  0
 22 55  1  0
 22 56  1  0
 23 57  1  0
 24 58  1  0
 24 59  1  0
 25 60  1  0
 25 61  1  0
M  END
>  <UniqueID>  (13) 
13

>  <SMILES>  (13) 
CCN(C)CCOCCONC1=NCCN1CCCN1CCNCC1

>  <Energy>  (13) 
85.07954238826362

>  <Genealogy>  (13) 
CCN(C)CCOCCONC1=NCCN1CCCN1CCNCC1 (3D coordinates assigned)
CCN(C)CCOCCONC1=NCCN1CCCN1CCNCC1 (nonaromatic ring conformer: 85.07954238826362 kcal/mol)

>  <smiles>  (13) 
CCN(C)CCOCCONC1=NCCN1CCCN1CCNCC1

>  <score_type>  (13) 
oracle

>  <origin>  (13) 
adg

>  <m_score__min__energy>  (13) 
-7.5499999999999998

>  <m_primary>  (13) 
energy

$$$$
13:0
     RDKit          3D

 34 35  0  0  0  0  0  0  0  0999 V2000
   -1.1260   20.9130  -33.1270 C   0  0  0  0  0  0  0  0  0  0  0  0
   -2.5480   20.6140  -32.7560 C   0  0  0  0  0  0  0  0  0  0  0  0
   -3.1180   21.2000  -31.6180 C   0  0  0  0  0  0  0  0  0  0  0  0
   -4.4530   20.9480  -31.2900 C   0  0  0  0  0  0  0  0  0  0  0  0
   -5.2290   20.0920  -32.0820 C   0  0  0  0  0  0  0  0  0  0  0  0
   -6.9490   19.7920  -31.6340 S   0  0  0  0  0  0  0  0  0  0  0  0
   -7.6020   21.5200  -31.6800 C   0  0  2  0  0  0  0  0  0  0  0  0
   -6.8640   22.3970  -32.7150 C   0  0  0  0  0  0  0  0  0  0  0  0
   -6.5660   23.8010  -32.1800 C   0  0  0  0  0  0  0  0  0  0  0  0
   -5.8180   23.7100  -30.9130 N   0  0  1  0  0  0  0  0  0  0  0  0
   -5.3690   25.0220  -30.5070 C   0  0  0  0  0  0  0  0  0  0  0  0
   -4.2620   25.4350  -30.8250 O   0  0  0  0  0  0  0  0  0  0  0  0
   -6.5850   23.0510  -29.8190 C   0  0  0  0  0  0  0  0  0  0  0  0
   -7.7770   22.1880  -30.2960 C   0  0  0  0  0  0  0  0  0  0  0  0
   -4.6820   19.5610  -33.2670 C   0  0  0  0  0  0  0  0  0  0  0  0
   -5.7290   18.5300  -34.4990 Br  0  0  0  0  0  0  0  0  0  0  0  0
   -3.3450   19.8190  -33.5920 C   0  0  0  0  0  0  0  0  0  0  0  0
   -0.5273   21.0389  -32.2128 H   0  0  0  0  0  0  0  0  0  0  0  0
   -0.7191   20.0808  -33.7201 H   0  0  0  0  0  0  0  0  0  0  0  0
   -1.0887   21.8386  -33.7201 H   0  0  0  0  0  0  0  0  0  0  0  0
   -2.5125   21.8609  -30.9804 H   0  0  0  0  0  0  0  0  0  0  0  0
   -4.8973   21.4250  -30.4040 H   0  0  0  0  0  0  0  0  0  0  0  0
   -8.6373   21.4268  -32.0397 H   0  0  0  0  0  0  0  0  0  0  0  0
   -5.9136   21.9096  -32.9782 H   0  0  0  0  0  0  0  0  0  0  0  0
   -7.5177   22.5032  -33.5933 H   0  0  0  0  0  0  0  0  0  0  0  0
   -5.9656   24.3523  -32.9186 H   0  0  0  0  0  0  0  0  0  0  0  0
   -7.5148   24.3282  -32.0018 H   0  0  0  0  0  0  0  0  0  0  0  0
   -4.9540   23.1450  -31.0920 H   0  0  0  0  0  0  0  0  0  0  0  0
   -6.0321   25.6589  -29.9032 H   0  0  0  0  0  0  0  0  0  0  0  0
   -5.8950   22.4029  -29.2587 H   0  0  0  0  0  0  0  0  0  0  0  0
   -7.0113   23.8595  -29.2070 H   0  0  0  0  0  0  0  0  0  0  0  0
   -7.9384   21.3926  -29.5535 H   0  0  0  0  0  0  0  0  0  0  0  0
   -8.6280   22.8775  -30.3982 H   0  0  0  0  0  0  0  0  0  0  0  0
   -2.9158   19.3942  -34.5115 H   0  0  0  0  0  0  0  0  0  0  0  0
  1  2  1  0
  2  3  2  0
  3  4  1  0
  4  5  2  0
  5  6  1  0
  6  7  1  0
  7  8  1  0
  8  9  1  0
  9 10  1  0
 10 11  1  0
 11 12  2  0
 10 13  1  0
 13 14  1  0
  5 15  1  0
 15 16  1  0
 15 17  2  0
 17  2  1  0
 14  7  1  0
  1 18  1  0
  1 19  1  0
  1 20  1  0
  3 21  1  0
  4 22  1  0
  7 23  1  6
  8 24  1  0
  8 25  1  0
  9 26  1  0
  9 27  1  0
 10 28  1  6
 11 29  1  0
 13 30  1  0
 13 31  1  0
 14 32  1  0
 14 33  1  0
 17 34  1  0
M  CHG  1  10   1
M  END
>  <UniqueID>  (14) 
14

>  <SMILES>  (14) 
Cc1ccc(SC2CC[NH+](C=O)CC2)c(Br)c1

>  <Energy>  (14) 
43.020090467411926

>  <Genealogy>  (14) 
Cc1ccc(SC2CC[NH+](C=O)CC2)c(Br)c1 (protonated)
Cc1ccc(SC2CC[NH+](C=O)CC2)c(Br)c1 (3D coordinates assigned)
Cc1ccc(SC2CC[NH+](C=O)CC2)c(Br)c1 (nonaromatic ring conformer: 43.020090467411926 kcal/mol)

>  <smiles>  (14) 
Cc1ccc(SC2CCN(C=O)CC2)c(Br)c1

>  <score_type>  (14) 
oracle

>  <origin>  (14) 
adg

>  <m_score__min__energy>  (14) 
-6.6200000000000001

>  <m_primary>  (14) 
energy

$$$$
14:0
     RDKit          3D

 56 58  0  0  0  0  0  0  0  0999 V2000
    0.5330   24.8420  -36.1080 C   0  0  0  0  0  0  0  0  0  0  0  0
    0.9800   23.4270  -35.7350 C   0  0  0  0  0  0  0  0  0  0  0  0
   -0.1080   22.4350  -35.8240 N   0  0  0  0  0  0  0  0  0  0  0  0
    0.3340   21.0380  -36.0050 C   0  0  0  0  0  0  0  0  0  0  0  0
   -0.2220   20.0690  -34.9480 C   0  0  0  0  0  0  0  0  0  0  0  0
   -1.4420   20.6100  -34.3330 N   0  0  0  0  0  0  0  0  0  0  0  0
   -1.1670   21.1700  -33.0010 C   0  0  0  0  0  0  0  0  0  0  0  0
   -2.4710   21.5450  -32.2920 C   0  0  0  0  0  0  0  0  0  0  0  0
   -3.5820   21.5920  -33.2430 N   0  0  0  0  0  0  0  0  0  0  0  0
   -4.9230   21.2490  -32.8520 C   0  0  0  0  0  0  0  0  0  0  0  0
   -5.6870   22.1400  -32.0780 C   0  0  0  0  0  0  0  0  0  0  0  0
   -5.1480   23.3720  -31.6450 C   0  0  0  0  0  0  0  0  0  0  0  0
   -5.8980   24.2380  -30.8550 C   0  0  0  0  0  0  0  0  0  0  0  0
   -7.1870   23.8900  -30.4700 C   0  0  0  0  0  0  0  0  0  0  0  0
   -7.7470   22.6880  -30.8980 C   0  0  0  0  0  0  0  0  0  0  0  0
   -7.0260   21.8040  -31.7420 C   0  0  0  0  0  0  0  0  0  0  0  0
   -7.5920   20.6410  -32.2300 N   0  0  0  0  0  0  0  0  0  0  0  0
   -9.0570   20.4420  -32.1450 C   0  0  0  0  0  0  0  0  0  0  0  0
   -6.7960   19.6820  -32.8290 C   0  0  0  0  0  0  0  0  0  0  0  0
   -7.2790   18.3740  -33.0960 C   0  0  0  0  0  0  0  0  0  0  0  0
   -6.4760   17.4180  -33.7420 C   0  0  0  0  0  0  0  0  0  0  0  0
   -6.9320   16.1230  -34.0350 O   0  0  0  0  0  0  0  0  0  0  0  0
   -6.0900   14.9900  -34.2170 C   0  0  0  0  0  0  0  0  0  0  0  0
   -5.1750   17.7520  -34.1030 C   0  0  0  0  0  0  0  0  0  0  0  0
   -4.6610   19.0130  -33.8140 C   0  0  0  0  0  0  0  0  0  0  0  0
   -5.4540   19.9870  -33.1770 C   0  0  0  0  0  0  0  0  0  0  0  0
    0.3497   25.4222  -35.1916 H   0  0  0  0  0  0  0  0  0  0  0  0
    1.3204   25.3311  -36.7003 H   0  0  0  0  0  0  0  0  0  0  0  0
   -0.3925   24.7900  -36.7003 H   0  0  0  0  0  0  0  0  0  0  0  0
    1.7874   23.1234  -36.4176 H   0  0  0  0  0  0  0  0  0  0  0  0
    1.3150   23.4539  -34.6876 H   0  0  0  0  0  0  0  0  0  0  0  0
   -0.6800   22.4880  -34.9480 H   0  0  0  0  0  0  0  0  0  0  0  0
   -0.7390   22.7010  -36.6140 H   0  0  0  0  0  0  0  0  0  0  0  0
    0.0041   20.6957  -36.9970 H   0  0  0  0  0  0  0  0  0  0  0  0
    1.4290   21.0324  -35.9003 H   0  0  0  0  0  0  0  0  0  0  0  0
   -0.4563   19.1075  -35.4283 H   0  0  0  0  0  0  0  0  0  0  0  0
    0.5364   19.9309  -34.1633 H   0  0  0  0  0  0  0  0  0  0  0  0
   -1.7860   21.3880  -34.9440 H   0  0  0  0  0  0  0  0  0  0  0  0
   -0.6306   20.4221  -32.3986 H   0  0  0  0  0  0  0  0  0  0  0  0
   -0.5547   22.0763  -33.1179 H   0  0  0  0  0  0  0  0  0  0  0  0
   -2.6898   20.7947  -31.5180 H   0  0  0  0  0  0  0  0  0  0  0  0
   -2.3527   22.5395  -31.8371 H   0  0  0  0  0  0  0  0  0  0  0  0
   -3.3540   21.6540  -34.2610 H   0  0  0  0  0  0  0  0  0  0  0  0
   -4.1241   23.6498  -31.9355 H   0  0  0  0  0  0  0  0  0  0  0  0
   -5.4698   25.1994  -30.5349 H   0  0  0  0  0  0  0  0  0  0  0  0
   -7.7675   24.5659  -29.8249 H   0  0  0  0  0  0  0  0  0  0  0  0
   -8.7643   22.4201  -30.5765 H   0  0  0  0  0  0  0  0  0  0  0  0
   -9.3607   20.4007  -31.0886 H   0  0  0  0  0  0  0  0  0  0  0  0
   -9.5701   21.2787  -32.6416 H   0  0  0  0  0  0  0  0  0  0  0  0
   -9.3283   19.4987  -32.6416 H   0  0  0  0  0  0  0  0  0  0  0  0
   -8.3009   18.1035  -32.7916 H   0  0  0  0  0  0  0  0  0  0  0  0
   -5.7940   14.5917  -33.2353 H   0  0  0  0  0  0  0  0  0  0  0  0
   -6.6335   14.2156  -34.7782 H   0  0  0  0  0  0  0  0  0  0  0  0
   -5.1918   15.2871  -34.7782 H   0  0  0  0  0  0  0  0  0  0  0  0
   -4.5465   17.0130  -34.6216 H   0  0  0  0  0  0  0  0  0  0  0  0
   -3.6224   19.2517  -34.0866 H   0  0  0  0  0  0  0  0  0  0  0  0
  1  2  1  0
  2  3  1  0
  3  4  1  0
  4  5  1  0
  5  6  1  0
  6  7  1  0
  7  8  1  0
  8  9  1  0
  9 10  1  0
 10 11  2  0
 11 12  1  0
 12 13  2  0
 13 14  1  0
 14 15  2  0
 15 16  1  0
 16 17  2  0
 17 18  1  0
 17 19  1  0
 19 20  2  0
 20 21  1  0
 21 22  1  0
 22 23  1  0
 21 24  2  0
 24 25  1  0
 25 26  2  0
 26 10  1  0
 16 11  1  0
 26 19  1  0
  1 27  1  0
  1 28  1  0
  1 29  1  0
  2 30  1  0
  2 31  1  0
  3 32  1  0
  3 33  1  0
  4 34  1  0
  4 35  1  0
  5 36  1  0
  5 37  1  0
  6 38  1  0
  7 39  1  0
  7 40  1  0
  8 41  1  0
  8 42  1  0
  9 43  1  0
 12 44  1  0
 13 45  1  0
 14 46  1  0
 15 47  1  0
 18 48  1  0
 18 49  1  0
 18 50  1  0
 20 51  1  0
 23 52  1  0
 23 53  1  0
 23 54  1  0
 24 55  1  0
 25 56  1  0
M  CHG  2   3   1  17   1
M  END
>  <UniqueID>  (15) 
15

>  <SMILES>  (15) 
CC[NH2+]CCNCCNc1c2ccccc2[n+](C)c2cc(OC)ccc12

>  <Energy>  (15) 
73.16067690825157

>  <Genealogy>  (15) 
CC[NH2+]CCNCCNc1c2ccccc2[n+](C)c2cc(OC)ccc12 (protonated)
CC[NH2+]CCNCCNc1c2ccccc2[n+](C)c2cc(OC)ccc12 (3D coordinates assigned)
CC[NH2+]CCNCCNc1c2ccccc2[n+](C)c2cc(OC)ccc12 (optimized conformer: 73.16067690825157 kcal/mol)

>  <smiles>  (15) 
CCNCCNCCNc1c2ccccc2[n+](C)c2cc(OC)ccc12

>  <score_type>  (15) 
oracle

>  <origin>  (15) 
adg

>  <m_score__min__energy>  (15) 
-8.5

>  <m_primary>  (15) 
energy

$$$$
15:0
     RDKit          3D

 33 35  0  0  0  0  0  0  0  0999 V2000
   -5.7940   19.8640  -33.3150 C   0  0  0  0  0  0  0  0  0  0  0  0
   -6.8610   20.6650  -32.6320 C   0  0  0  0  0  0  0  0  0  0  0  0
   -8.2210   20.2910  -32.7030 C   0  0  0  0  0  0  0  0  0  0  0  0
   -9.2070   21.0350  -32.0190 C   0  0  0  0  0  0  0  0  0  0  0  0
   -8.8490   22.1540  -31.2460 C   0  0  0  0  0  0  0  0  0  0  0  0
   -7.5000   22.4910  -31.1810 C   0  0  0  0  0  0  0  0  0  0  0  0
   -6.8580   23.5050  -30.5060 C   0  0  0  0  0  0  0  0  0  0  0  0
   -5.5110   23.3220  -30.8150 C   0  0  0  0  0  0  0  0  0  0  0  0
   -4.4050   24.1690  -30.3400 C   0  0  0  0  0  0  0  0  0  0  0  0
   -4.2440   25.3150  -30.8430 O   0  0  0  0  0  0  0  0  0  0  0  0
   -3.4830   23.6930  -29.3450 N   0  0  0  0  0  0  0  0  0  0  0  0
   -2.0850   24.1260  -29.3950 C   0  0  0  0  0  0  0  0  0  0  0  0
   -1.2000   23.0910  -28.6910 C   0  0  0  0  0  0  0  0  0  0  0  0
   -1.6820   22.8180  -27.3890 O   0  0  0  0  0  0  0  0  0  0  0  0
   -2.9580   22.2100  -27.4670 C   0  0  0  0  0  0  0  0  0  0  0  0
   -3.9830   23.1780  -28.0660 C   0  0  0  0  0  0  0  0  0  0  0  0
   -5.3530   22.2850  -31.6170 O   0  0  0  0  0  0  0  0  0  0  0  0
   -6.5390   21.7750  -31.8440 C   0  0  0  0  0  0  0  0  0  0  0  0
   -5.1550   19.3843  -32.5589 H   0  0  0  0  0  0  0  0  0  0  0  0
   -6.2612   19.0916  -33.9437 H   0  0  0  0  0  0  0  0  0  0  0  0
   -5.1827   20.5282  -33.9437 H   0  0  0  0  0  0  0  0  0  0  0  0
   -8.5147   19.4125  -33.2963 H   0  0  0  0  0  0  0  0  0  0  0  0
  -10.2634   20.7371  -32.0913 H   0  0  0  0  0  0  0  0  0  0  0  0
   -9.6089   22.7427  -30.7112 H   0  0  0  0  0  0  0  0  0  0  0  0
   -7.3056   24.2818  -29.8687 H   0  0  0  0  0  0  0  0  0  0  0  0
   -1.7696   24.2241  -30.4442 H   0  0  0  0  0  0  0  0  0  0  0  0
   -1.9852   25.0970  -28.8879 H   0  0  0  0  0  0  0  0  0  0  0  0
   -1.1982   22.1602  -29.2771 H   0  0  0  0  0  0  0  0  0  0  0  0
   -0.1804   23.4960  -28.6110 H   0  0  0  0  0  0  0  0  0  0  0  0
   -2.8930   21.3143  -28.1022 H   0  0  0  0  0  0  0  0  0  0  0  0
   -3.2817   21.9354  -26.4522 H   0  0  0  0  0  0  0  0  0  0  0  0
   -4.9335   22.6494  -28.2304 H   0  0  0  0  0  0  0  0  0  0  0  0
   -4.1437   24.0161  -27.3719 H   0  0  0  0  0  0  0  0  0  0  0  0
  1  2  1  0
  2  3  2  0
  3  4  1  0
  4  5  2  0
  5  6  1  0
  6  7  1  0
  7  8  2  0
  8  9  1  0
  9 10  2  0
  9 11  1  0
 11 12  1  0
 12 13  1  0
 13 14  1  0
 14 15  1  0
 15 16  1  0
  8 17  1  0
 17 18  1  0
 18  2  1  0
 18  6  2  0
 16 11  1  0
  1 19  1  0
  1 20  1  0
  1 21  1  0
  3 22  1  0
  4 23  1  0
  5 24  1  0
  7 25  1  0
 12 26  1  0
 12 27  1  0
 13 28  1  0
 13 29  1  0
 15 30  1  0
 15 31  1  0
 16 32  1  0
 16 33  1  0
M  END
>  <UniqueID>  (16) 
16

>  <SMILES>  (16) 
Cc1cccc2cc(C(=O)N3CCOCC3)oc12

>  <Energy>  (16) 
70.01638686759833

>  <Genealogy>  (16) 
Cc1cccc2cc(C(=O)N3CCOCC3)oc12 (3D coordinates assigned)
Cc1cccc2cc(C(=O)N3CCOCC3)oc12 (nonaromatic ring conformer: 70.01638686759833 kcal/mol)

>  <smiles>  (16) 
Cc1cccc2cc(C(=O)N3CCOCC3)oc12

>  <score_type>  (16) 
oracle

>  <origin>  (16) 
adg

>  <m_score__min__energy>  (16) 
-7.1200000000000001

>  <m_primary>  (16) 
energy

$$$$
16:0
     RDKit          3D

 38 38  0  0  0  0  0  0  0  0999 V2000
   -3.1000   18.6990  -26.0010 C   0  0  0  0  0  0  0  0  0  0  0  0
   -1.9910   19.6850  -26.3380 C   0  0  0  0  0  0  0  0  0  0  0  0
   -2.1890   20.2880  -28.0550 S   0  0  0  0  0  0  0  0  0  0  0  0
   -2.4430   22.0600  -27.6620 C   0  0  0  0  0  0  0  0  0  0  0  0
   -3.6950   22.6520  -28.3330 C   0  0  0  0  0  0  0  0  0  0  0  0
   -3.8090   24.1810  -28.2160 C   0  0  0  0  0  0  0  0  0  0  0  0
   -3.0960   24.8810  -29.3310 C   0  0  0  0  0  0  0  0  0  0  0  0
   -1.8670   25.1390  -29.2290 O   0  0  0  0  0  0  0  0  0  0  0  0
   -3.8320   25.2960  -30.4870 N   0  0  0  0  0  0  0  0  0  0  0  0
   -5.2880   25.3380  -30.5370 C   0  0  0  0  0  0  0  0  0  0  0  0
   -5.8140   24.0420  -31.0890 C   0  0  0  0  0  0  0  0  0  0  0  0
   -4.9470   23.1110  -31.6800 C   0  0  0  0  0  0  0  0  0  0  0  0
   -5.4500   21.9370  -32.2460 C   0  0  0  0  0  0  0  0  0  0  0  0
   -6.8350   21.6800  -32.2350 C   0  0  0  0  0  0  0  0  0  0  0  0
   -7.3890   20.5190  -32.7940 O   0  0  0  0  0  0  0  0  0  0  0  0
   -8.4110   19.7390  -32.1800 C   0  0  0  0  0  0  0  0  0  0  0  0
   -7.6970   22.6140  -31.6500 C   0  0  0  0  0  0  0  0  0  0  0  0
   -7.1940   23.7870  -31.0830 C   0  0  0  0  0  0  0  0  0  0  0  0
   -3.1956   18.6140  -24.9085 H   0  0  0  0  0  0  0  0  0  0  0  0
   -4.0498   19.0563  -26.4255 H   0  0  0  0  0  0  0  0  0  0  0  0
   -2.8563   17.7139  -26.4255 H   0  0  0  0  0  0  0  0  0  0  0  0
   -2.0388   20.5377  -25.6448 H   0  0  0  0  0  0  0  0  0  0  0  0
   -1.0182   19.1804  -26.2427 H   0  0  0  0  0  0  0  0  0  0  0  0
   -2.5464   22.1658  -26.5720 H   0  0  0  0  0  0  0  0  0  0  0  0
   -1.5721   22.6103  -28.0476 H   0  0  0  0  0  0  0  0  0  0  0  0
   -3.6715   22.3884  -29.4007 H   0  0  0  0  0  0  0  0  0  0  0  0
   -4.5647   22.2290  -27.8089 H   0  0  0  0  0  0  0  0  0  0  0  0
   -4.8723   24.4614  -28.2424 H   0  0  0  0  0  0  0  0  0  0  0  0
   -3.3419   24.4861  -27.2680 H   0  0  0  0  0  0  0  0  0  0  0  0
   -5.6844   25.4909  -29.5224 H   0  0  0  0  0  0  0  0  0  0  0  0
   -5.6063   26.1665  -31.1868 H   0  0  0  0  0  0  0  0  0  0  0  0
   -3.8647   23.3065  -31.6979 H   0  0  0  0  0  0  0  0  0  0  0  0
   -4.7617   21.2103  -32.7021 H   0  0  0  0  0  0  0  0  0  0  0  0
   -8.3187   19.8094  -31.0861 H   0  0  0  0  0  0  0  0  0  0  0  0
   -9.3966   20.1166  -32.4899 H   0  0  0  0  0  0  0  0  0  0  0  0
   -8.3068   18.6887  -32.4899 H   0  0  0  0  0  0  0  0  0  0  0  0
   -8.7802   22.4228  -31.6366 H   0  0  0  0  0  0  0  0  0  0  0  0
   -7.8830   24.5147  -30.6294 H   0  0  0  0  0  0  0  0  0  0  0  0
  1  2  1  0
  2  3  1  0
  3  4  1  0
  4  5  1  0
  5  6  1  0
  6  7  1  0
  7  8  2  0
  7  9  1  0
  9 10  1  0
 10 11  1  0
 11 12  2  0
 12 13  1  0
 13 14  2  0
 14 15  1  0
 15 16  1  0
 14 17  1  0
 17 18  2  0
 18 11  1  0
  1 19  1  0
  1 20  1  0
  1 21  1  0
  2 22  1  0
  2 23  1  0
  4 24  1  0
  4 25  1  0
  5 26  1  0
  5 27  1  0
  6 28  1  0
  6 29  1  0
 10 30  1  0
 10 31  1  0
 12 32  1  0
 13 33  1  0
 16 34  1  0
 16 35  1  0
 16 36  1  0
 17 37  1  0
 18 38  1  0
M  CHG  1   9  -1
M  END
>  <UniqueID>  (17) 
17

>  <SMILES>  (17) 
CCSCCCC(=O)[N-]Cc1ccc(OC)cc1

>  <Energy>  (17) 
22.26911951902247

>  <Genealogy>  (17) 
CCSCCCC(=O)[N-]Cc1ccc(OC)cc1 (protonated)
CCSCCCC(=O)[N-]Cc1ccc(OC)cc1 (3D coordinates assigned)
CCSCCCC(=O)[N-]Cc1ccc(OC)cc1 (optimized conformer: 22.26911951902247 kcal/mol)

>  <smiles>  (17) 
CCSCCCC(=O)NCc1ccc(OC)cc1

>  <score_type>  (17) 
oracle

>  <origin>  (17) 
adg

>  <m_score__min__energy>  (17) 
-8.0899999999999999

>  <m_primary>  (17) 
energy

$$$$
17:0
     RDKit          3D

 35 37  0  0  0  0  0  0  0  0999 V2000
   -9.4480   18.5190  -31.9530 C   0  0  0  0  0  0  0  0  0  0  0  0
   -8.2670   19.3680  -32.0530 N   0  0  0  0  0  0  0  0  0  0  0  0
   -8.1430   20.5420  -31.4480 N   0  0  0  0  0  0  0  0  0  0  0  0
   -6.9160   21.0390  -31.7430 C   0  0  0  0  0  0  0  0  0  0  0  0
   -6.4380   22.3050  -31.2520 N   0  0  0  0  0  0  0  0  0  0  0  0
   -6.1930   22.5180  -29.8170 C   0  0  0  0  0  0  0  0  0  0  0  0
   -5.0100   23.4670  -29.6070 C   0  0  0  0  0  0  0  0  0  0  0  0
   -5.2310   24.8300  -30.3000 C   0  0  0  0  0  0  0  0  0  0  0  0
   -3.9360   25.4590  -30.5670 N   0  0  0  0  0  0  0  0  0  0  0  0
   -6.0840   24.7250  -31.5930 C   0  0  0  0  0  0  0  0  0  0  0  0
   -6.0270   23.3300  -32.2240 C   0  0  0  0  0  0  0  0  0  0  0  0
   -6.2440   20.1310  -32.5520 C   0  0  0  0  0  0  0  0  0  0  0  0
   -4.9570   20.0880  -33.0960 C   0  0  0  0  0  0  0  0  0  0  0  0
   -4.6060   18.9580  -33.8570 C   0  0  0  0  0  0  0  0  0  0  0  0
   -5.5270   17.9030  -34.0460 C   0  0  0  0  0  0  0  0  0  0  0  0
   -6.8070   17.9640  -33.4690 C   0  0  0  0  0  0  0  0  0  0  0  0
   -7.1300   19.0990  -32.7240 C   0  0  0  0  0  0  0  0  0  0  0  0
   -9.6873   18.3470  -30.8932 H   0  0  0  0  0  0  0  0  0  0  0  0
  -10.2982   19.0140  -32.4452 H   0  0  0  0  0  0  0  0  0  0  0  0
   -9.2496   17.5555  -32.4452 H   0  0  0  0  0  0  0  0  0  0  0  0
   -7.0923   22.9542  -29.3576 H   0  0  0  0  0  0  0  0  0  0  0  0
   -5.9583   21.5501  -29.3500 H   0  0  0  0  0  0  0  0  0  0  0  0
   -4.8765   23.6347  -28.5281 H   0  0  0  0  0  0  0  0  0  0  0  0
   -4.1178   23.0010  -30.0508 H   0  0  0  0  0  0  0  0  0  0  0  0
   -5.8116   25.4619  -29.6118 H   0  0  0  0  0  0  0  0  0  0  0  0
   -3.8630   25.6760  -31.5880 H   0  0  0  0  0  0  0  0  0  0  0  0
   -3.8920   26.3670  -30.0510 H   0  0  0  0  0  0  0  0  0  0  0  0
   -7.1302   24.9571  -31.3448 H   0  0  0  0  0  0  0  0  0  0  0  0
   -5.6727   25.4381  -32.3226 H   0  0  0  0  0  0  0  0  0  0  0  0
   -6.7029   23.2976  -33.0912 H   0  0  0  0  0  0  0  0  0  0  0  0
   -4.9933   23.1254  -32.5395 H   0  0  0  0  0  0  0  0  0  0  0  0
   -4.2433   20.9094  -32.9346 H   0  0  0  0  0  0  0  0  0  0  0  0
   -3.6052   18.8951  -34.3092 H   0  0  0  0  0  0  0  0  0  0  0  0
   -5.2402   17.0285  -34.6485 H   0  0  0  0  0  0  0  0  0  0  0  0
   -7.5296   17.1451  -33.6001 H   0  0  0  0  0  0  0  0  0  0  0  0
  1  2  1  0
  2  3  1  0
  3  4  2  0
  4  5  1  0
  5  6  1  0
  6  7  1  0
  7  8  1  0
  8  9  1  0
  8 10  1  0
 10 11  1  0
  4 12  1  0
 12 13  2  0
 13 14  1  0
 14 15  2  0
 15 16  1  0
 16 17  2  0
 17  2  1  0
 11  5  1  0
 17 12  1  0
  1 18  1  0
  1 19  1  0
  1 20  1  0
  6 21  1  0
  6 22  1  0
  7 23  1  0
  7 24  1  0
  8 25  1  0
  9 26  1  0
  9 27  1  0
 10 28  1  0
 10 29  1  0
 11 30  1  0
 11 31  1  0
 13 32  1  0
 14 33  1  0
 15 34  1  0
 16 35  1  0
M  END
>  <UniqueID>  (18) 
18

>  <SMILES>  (18) 
Cn1nc(N2CCC(N)CC2)c2ccccc21

>  <Energy>  (18) 
78.65884600237706

>  <Genealogy>  (18) 
Cn1nc(N2CCC(N)CC2)c2ccccc21 (3D coordinates assigned)
Cn1nc(N2CCC(N)CC2)c2ccccc21 (nonaromatic ring conformer: 78.65884600237706 kcal/mol)

>  <smiles>  (18) 
Cn1nc(N2CCC(N)CC2)c2ccccc21

>  <score_type>  (18) 
oracle

>  <origin>  (18) 
adg

>  <m_score__min__energy>  (18) 
-7.8600000000000003

>  <m_primary>  (18) 
energy

$$$$
18:0
     RDKit          3D

 50 53  0  0  0  0  0  0  0  0999 V2000
   -0.5625   22.1220  -27.3093 H   0  0  0  0  0  0  0  0  0  0  0  0
   -1.2110   22.7160  -27.9700 C   0  0  0  0  0  0  0  0  0  0  0  0
   -1.6390   23.9890  -27.5770 C   0  0  0  0  0  0  0  0  0  0  0  0
   -1.2260   24.5810  -26.2890 C   0  0  0  0  0  0  0  0  0  0  0  0
   -1.4760   25.8580  -25.8100 C   0  0  0  0  0  0  0  0  0  0  0  0
   -2.0421   26.6443  -26.3307 H   0  0  0  0  0  0  0  0  0  0  0  0
   -0.9040   25.9670  -24.5950 N   0  0  0  0  0  0  0  0  0  0  0  0
   -0.8550   27.1720  -23.7770 C   0  0  0  0  0  0  0  0  0  0  0  0
   -0.8663   26.8935  -22.7129 H   0  0  0  0  0  0  0  0  0  0  0  0
    0.0666   27.7295  -24.0003 H   0  0  0  0  0  0  0  0  0  0  0  0
   -1.7282   27.8025  -24.0003 H   0  0  0  0  0  0  0  0  0  0  0  0
   -0.2910   24.8330  -24.2940 N   0  0  0  0  0  0  0  0  0  0  0  0
    0.2520   24.6600  -23.4190 H   0  0  0  0  0  0  0  0  0  0  0  0
   -0.4740   23.9620  -25.3020 C   0  0  0  0  0  0  0  0  0  0  0  0
   -0.0913   22.9313  -25.3376 H   0  0  0  0  0  0  0  0  0  0  0  0
   -2.4460   24.7040  -28.4050 N   0  0  0  0  0  0  0  0  0  0  0  0
   -2.8690   24.2420  -29.6150 C   0  0  0  0  0  0  0  0  0  0  0  0
   -3.6480   24.9770  -30.3560 N   0  0  0  0  0  0  0  0  0  0  0  0
   -5.0590   25.2580  -30.0850 C   0  0  0  0  0  0  0  0  0  0  0  0
   -5.3444   24.7893  -29.1317 H   0  0  0  0  0  0  0  0  0  0  0  0
   -5.1997   26.3476  -30.0302 H   0  0  0  0  0  0  0  0  0  0  0  0
   -5.9440   24.7010  -31.2050 C   0  0  0  0  0  0  0  0  0  0  0  0
   -6.3910   25.5379  -31.7615 H   0  0  0  0  0  0  0  0  0  0  0  0
   -5.3227   24.0860  -31.8727 H   0  0  0  0  0  0  0  0  0  0  0  0
   -7.0250   23.8550  -30.6490 N   0  0  0  0  0  0  0  0  0  0  0  0
   -6.5010   22.6930  -29.9060 C   0  0  0  0  0  0  0  0  0  0  0  0
   -5.7317   23.0385  -29.1998 H   0  0  0  0  0  0  0  0  0  0  0  0
   -7.3390   22.2190  -29.3739 H   0  0  0  0  0  0  0  0  0  0  0  0
   -5.8760   21.6440  -30.8550 C   0  0  0  0  0  0  0  0  0  0  0  0
   -4.7810   21.6998  -30.7661 H   0  0  0  0  0  0  0  0  0  0  0  0
   -6.2637   20.6589  -30.5562 H   0  0  0  0  0  0  0  0  0  0  0  0
   -6.2290   21.8430  -32.2130 O   0  0  0  0  0  0  0  0  0  0  0  0
   -7.6170   22.0750  -32.3230 C   0  0  0  0  0  0  0  0  0  0  0  0
   -7.8972   22.0906  -33.3866 H   0  0  0  0  0  0  0  0  0  0  0  0
   -8.1525   21.2698  -31.7987 H   0  0  0  0  0  0  0  0  0  0  0  0
   -7.9980   23.4250  -31.6790 C   0  0  0  0  0  0  0  0  0  0  0  0
   -8.0409   24.1921  -32.4662 H   0  0  0  0  0  0  0  0  0  0  0  0
   -8.9731   23.2975  -31.1860 H   0  0  0  0  0  0  0  0  0  0  0  0
   -2.4470   22.9600  -30.0540 C   0  0  0  0  0  0  0  0  0  0  0  0
   -2.8190   22.3810  -31.2920 C   0  0  0  0  0  0  0  0  0  0  0  0
   -3.5670   23.0080  -32.0920 O   0  0  0  0  0  0  0  0  0  0  0  0
   -2.3660   21.1320  -31.6300 N   0  0  0  0  0  0  0  0  0  0  0  0
   -2.7500   20.5300  -32.9140 C   0  0  0  0  0  0  0  0  0  0  0  0
   -3.3333   19.6156  -32.7304 H   0  0  0  0  0  0  0  0  0  0  0  0
   -3.3593   21.2448  -33.4865 H   0  0  0  0  0  0  0  0  0  0  0  0
   -1.8449   20.2788  -33.4865 H   0  0  0  0  0  0  0  0  0  0  0  0
   -1.5570   20.4390  -30.7760 C   0  0  0  0  0  0  0  0  0  0  0  0
   -1.1985   19.4376  -31.0565 H   0  0  0  0  0  0  0  0  0  0  0  0
   -1.1920   20.9740  -29.5860 N   0  0  0  0  0  0  0  0  0  0  0  0
   -1.6120   22.2040  -29.2060 C   0  0  0  0  0  0  0  0  0  0  0  0
  1  2  1  0
  2  3  2  0
  3  4  1  0
  4  5  2  0
  5  6  1  0
  5  7  1  0
  7  8  1  0
  8  9  1  0
  8 10  1  0
  8 11  1  0
  7 12  1  0
 12 13  1  0
 12 14  2  0
 14 15  1  0
  3 16  1  0
 16 17  1  0
 17 18  2  0
 18 19  1  0
 19 20  1  0
 19 21  1  0
 19 22  1  0
 22 23  1  0
 22 24  1  0
 22 25  1  0
 25 26  1  0
 26 27  1  0
 26 28  1  0
 26 29  1  0
 29 30  1  0
 29 31  1  0
 29 32  1  0
 32 33  1  0
 33 34  1  0
 33 35  1  0
 33 36  1  0
 36 37  1  0
 36 38  1  0
 17 39  1  0
 39 40  1  0
 40 41  2  0
 40 42  1  0
 42 43  1  0
 43 44  1  0
 43 45  1  0
 43 46  1  0
 42 47  1  0
 47 48  1  0
 47 49  2  0
 49 50  1  0
 50  2  1  0
 14  4  1  0
 36 25  1  0
 50 39  2  0
M  CHG  2  12   1  16  -1
M  END
>  <UniqueID>  (19) 
19

>  <SMILES>  (19) 
Cn1cc(-c2cc3ncn(C)c(=O)c3/c(=N/CCN3CCOCC3)[n-]2)c[nH+]1

>  <Energy>  (19) 
101.36535712836331

>  <Genealogy>  (19) 
Cn1cc(-c2cc3ncn(C)c(=O)c3c(=NCCN3CCOCC3)[n-]2)c[nH+]1 (protonated)
Cn1cc(-c2cc3ncn(C)c(=O)c3/c(=N/CCN3CCOCC3)[n-]2)c[nH+]1 (cis-trans isomerization)
Cn1cc(-c2cc3ncn(C)c(=O)c3/c(=N/CCN3CCOCC3)[n-]2)c[nH+]1 (3D coordinates assigned)
Cn1cc(-c2cc3ncn(C)c(=O)c3/c(=N/CCN3CCOCC3)[n-]2)c[nH+]1 (nonaromatic ring conformer: 101.36535712836331 kcal/mol)

>  <smiles>  (19) 
Cn1cc(-c2cc3ncn(C)c(=O)c3c(=NCCN3CCOCC3)[nH]2)cn1

>  <score_type>  (19) 
oracle

>  <origin>  (19) 
adg

>  <m_score__min__energy>  (19) 
-9.4399999999999995

>  <m_primary>  (19) 
energy

$$$$
19:0
     RDKit          3D

 54 55  0  0  0  0  0  0  0  0999 V2000
   -6.4070   25.2380  -29.7360 C   0  0  0  0  0  0  0  0  0  0  0  0
   -5.3690   25.4400  -30.8340 C   0  0  0  0  0  0  0  0  0  0  0  0
   -4.2140   24.5390  -30.5980 N   0  0  0  0  0  0  0  0  0  0  0  0
   -3.8020   24.4810  -29.1770 C   0  0  0  0  0  0  0  0  0  0  0  0
   -2.2840   24.5860  -28.9690 C   0  0  0  0  0  0  0  0  0  0  0  0
   -4.3830   23.1950  -31.1930 C   0  0  0  0  0  0  0  0  0  0  0  0
   -3.9810   22.0930  -30.2100 C   0  0  0  0  0  0  0  0  0  0  0  0
   -3.1460   21.1580  -30.8650 O   0  0  0  0  0  0  0  0  0  0  0  0
   -1.8360   21.6700  -31.0410 C   0  0  0  0  0  0  0  0  0  0  0  0
   -1.0170   20.7060  -31.9050 C   0  0  0  0  0  0  0  0  0  0  0  0
   -1.2690   20.9340  -33.4020 C   0  0  0  0  0  0  0  0  0  0  0  0
   -2.7100   20.9640  -33.7010 N   0  0  0  0  0  0  0  0  0  0  0  0
   -3.2850   19.6100  -33.7670 C   0  0  0  0  0  0  0  0  0  0  0  0
   -4.7680   19.6110  -33.4730 C   0  0  0  0  0  0  0  0  0  0  0  0
   -5.5000   18.4150  -33.5350 C   0  0  0  0  0  0  0  0  0  0  0  0
   -6.8520   18.3920  -33.1800 C   0  0  0  0  0  0  0  0  0  0  0  0
   -7.4900   19.5640  -32.7540 C   0  0  0  0  0  0  0  0  0  0  0  0
   -8.8440   19.5480  -32.3820 C   0  0  0  0  0  0  0  0  0  0  0  0
   -9.4690   20.7240  -31.9580 C   0  0  0  0  0  0  0  0  0  0  0  0
   -8.7510   21.9220  -31.9030 C   0  0  0  0  0  0  0  0  0  0  0  0
   -7.4010   21.9500  -32.2630 C   0  0  0  0  0  0  0  0  0  0  0  0
   -6.7620   20.7770  -32.6930 C   0  0  0  0  0  0  0  0  0  0  0  0
   -5.4070   20.7920  -33.0540 C   0  0  0  0  0  0  0  0  0  0  0  0
   -5.9234   25.3321  -28.7525 H   0  0  0  0  0  0  0  0  0  0  0  0
   -7.1949   25.9997  -29.8316 H   0  0  0  0  0  0  0  0  0  0  0  0
   -6.8517   24.2365  -29.8316 H   0  0  0  0  0  0  0  0  0  0  0  0
   -5.8195   25.2097  -31.8107 H   0  0  0  0  0  0  0  0  0  0  0  0
   -5.0254   26.4849  -30.8245 H   0  0  0  0  0  0  0  0  0  0  0  0
   -4.2841   25.3122  -28.6415 H   0  0  0  0  0  0  0  0  0  0  0  0
   -4.1117   23.4980  -28.7926 H   0  0  0  0  0  0  0  0  0  0  0  0
   -2.0617   24.6014  -27.8918 H   0  0  0  0  0  0  0  0  0  0  0  0
   -1.7895   23.7199  -29.4331 H   0  0  0  0  0  0  0  0  0  0  0  0
   -1.9135   25.5119  -29.4331 H   0  0  0  0  0  0  0  0  0  0  0  0
   -5.4380   23.0576  -31.4723 H   0  0  0  0  0  0  0  0  0  0  0  0
   -3.7320   23.1240  -32.0769 H   0  0  0  0  0  0  0  0  0  0  0  0
   -3.4391   22.5377  -29.3623 H   0  0  0  0  0  0  0  0  0  0  0  0
   -4.8835   21.5833  -29.8417 H   0  0  0  0  0  0  0  0  0  0  0  0
   -1.8901   22.6501  -31.5374 H   0  0  0  0  0  0  0  0  0  0  0  0
   -1.3526   21.7796  -30.0590 H   0  0  0  0  0  0  0  0  0  0  0  0
    0.0519   20.8596  -31.6957 H   0  0  0  0  0  0  0  0  0  0  0  0
   -1.3226   19.6787  -31.6577 H   0  0  0  0  0  0  0  0  0  0  0  0
   -0.8209   21.8936  -33.6992 H   0  0  0  0  0  0  0  0  0  0  0  0
   -0.8144   20.1035  -33.9621 H   0  0  0  0  0  0  0  0  0  0  0  0
   -2.8770   21.4600  -34.6080 H   0  0  0  0  0  0  0  0  0  0  0  0
   -3.2020   21.4930  -32.9420 H   0  0  0  0  0  0  0  0  0  0  0  0
   -3.1231   19.2039  -34.7764 H   0  0  0  0  0  0  0  0  0  0  0  0
   -2.7875   18.9914  -33.0055 H   0  0  0  0  0  0  0  0  0  0  0  0
   -5.0063   17.4891  -33.8653 H   0  0  0  0  0  0  0  0  0  0  0  0
   -7.4170   17.4498  -33.2354 H   0  0  0  0  0  0  0  0  0  0  0  0
   -9.4138   18.6081  -32.4244 H   0  0  0  0  0  0  0  0  0  0  0  0
  -10.5296   20.7067  -31.6666 H   0  0  0  0  0  0  0  0  0  0  0  0
   -9.2502   22.8458  -31.5753 H   0  0  0  0  0  0  0  0  0  0  0  0
   -6.8381   22.8935  -32.2092 H   0  0  0  0  0  0  0  0  0  0  0  0
   -4.8401   21.7336  -33.0092 H   0  0  0  0  0  0  0  0  0  0  0  0
  1  2  1  0
  2  3  1  0
  3  4  1  0
  4  5  1  0
  3  6  1  0
  6  7  1  0
  7  8  1  0
  8  9  1  0
  9 10  1  0
 10 11  1  0
 11 12  1  0
 12 13  1  0
 13 14  1  0
 14 15  2  0
 15 16  1  0
 16 17  2  0
 17 18  1  0
 18 19  2  0
 19 20  1  0
 20 21  2  0
 21 22  1  0
 22 23  2  0
 23 14  1  0
 22 17  1  0
  1 24  1  0
  1 25  1  0
  1 26  1  0
  2 27  1  0
  2 28  1  0
  4 29  1  0
  4 30  1  0
  5 31  1  0
  5 32  1  0
  5 33  1  0
  6 34  1  0
  6 35  1  0
  7 36  1  0
  7 37  1  0
  9 38  1  0
  9 39  1  0
 10 40  1  0
 10 41  1  0
 11 42  1  0
 11 43  1  0
 12 44  1  0
 12 45  1  0
 13 46  1  0
 13 47  1  0
 15 48  1  0
 16 49  1  0
 18 50  1  0
 19 51  1  0
 20 52  1  0
 21 53  1  0
 23 54  1  0
M  CHG  1  12   1
M  END
>  <UniqueID>  (20) 
20

>  <SMILES>  (20) 
CCN(CC)CCOCCC[NH2+]Cc1ccc2ccccc2c1

>  <Energy>  (20) 
50.67378893080221

>  <Genealogy>  (20) 
CCN(CC)CCOCCC[NH2+]Cc1ccc2ccccc2c1 (protonated)
CCN(CC)CCOCCC[NH2+]Cc1ccc2ccccc2c1 (3D coordinates assigned)
CCN(CC)CCOCCC[NH2+]Cc1ccc2ccccc2c1 (optimized conformer: 50.67378893080221 kcal/mol)

>  <smiles>  (20) 
CCN(CC)CCOCCCNCc1ccc2ccccc2c1

>  <score_type>  (20) 
oracle

>  <origin>  (20) 
adg

>  <m_score__min__energy>  (20) 
-8.0500000000000007

>  <m_primary>  (20) 
energy

$$$$
20:0
     RDKit          3D

 42 44  0  0  0  0  0  0  0  0999 V2000
   -9.0070   18.5340  -31.5940 C   0  0  0  0  0  0  0  0  0  0  0  0
   -9.1060   19.8690  -32.3140 C   0  0  0  0  0  0  0  0  0  0  0  0
   -8.0120   20.0030  -33.2170 O   0  0  0  0  0  0  0  0  0  0  0  0
   -6.6570   19.9340  -32.8480 C   0  0  0  0  0  0  0  0  0  0  0  0
   -6.0200   20.9870  -32.1680 C   0  0  0  0  0  0  0  0  0  0  0  0
   -4.6640   20.8830  -31.8160 C   0  0  0  0  0  0  0  0  0  0  0  0
   -3.9880   21.9970  -31.1010 C   0  0  0  0  0  0  0  0  0  0  0  0
   -2.8110   21.7590  -30.3770 C   0  0  0  0  0  0  0  0  0  0  0  0
   -2.1710   22.8000  -29.7030 C   0  0  0  0  0  0  0  0  0  0  0  0
   -2.6980   24.1030  -29.7410 C   0  0  0  0  0  0  0  0  0  0  0  0
   -2.0820   25.1770  -29.0760 O   0  0  0  0  0  0  0  0  0  0  0  0
   -1.7060   25.1640  -27.7020 C   0  0  0  0  0  0  0  0  0  0  0  0
   -3.8770   24.3540  -30.4600 C   0  0  0  0  0  0  0  0  0  0  0  0
   -4.3810   25.6640  -30.4770 O   0  0  0  0  0  0  0  0  0  0  0  0
   -5.7290   26.0150  -30.1840 C   0  0  0  0  0  0  0  0  0  0  0  0
   -4.5170   23.2970  -31.1370 C   0  0  0  0  0  0  0  0  0  0  0  0
   -3.9680   19.7530  -32.1400 N   0  0  0  0  0  0  0  0  0  0  0  0
   -4.5540   18.7160  -32.7980 C   0  0  0  0  0  0  0  0  0  0  0  0
   -3.8250   17.6050  -33.0990 N   0  0  0  0  0  0  0  0  0  0  0  0
   -4.3680   16.5460  -33.7530 C   0  0  0  0  0  0  0  0  0  0  0  0
   -5.7110   16.5730  -34.1380 C   0  0  0  0  0  0  0  0  0  0  0  0
   -6.4870   17.6950  -33.8440 C   0  0  0  0  0  0  0  0  0  0  0  0
   -5.9150   18.7840  -33.1670 C   0  0  0  0  0  0  0  0  0  0  0  0
   -9.0194   18.7019  -30.5070 H   0  0  0  0  0  0  0  0  0  0  0  0
   -9.8606   17.9006  -31.8770 H   0  0  0  0  0  0  0  0  0  0  0  0
   -8.0693   18.0334  -31.8770 H   0  0  0  0  0  0  0  0  0  0  0  0
  -10.0516   19.9144  -32.8741 H   0  0  0  0  0  0  0  0  0  0  0  0
   -9.0766   20.6860  -31.5780 H   0  0  0  0  0  0  0  0  0  0  0  0
   -6.5852   21.8950  -31.9109 H   0  0  0  0  0  0  0  0  0  0  0  0
   -2.3889   20.7439  -30.3400 H   0  0  0  0  0  0  0  0  0  0  0  0
   -1.2484   22.5999  -29.1384 H   0  0  0  0  0  0  0  0  0  0  0  0
   -2.6089   25.1952  -27.0745 H   0  0  0  0  0  0  0  0  0  0  0  0
   -1.1404   24.2458  -27.4853 H   0  0  0  0  0  0  0  0  0  0  0  0
   -1.0783   26.0410  -27.4853 H   0  0  0  0  0  0  0  0  0  0  0  0
   -5.8696   26.0516  -29.0936 H   0  0  0  0  0  0  0  0  0  0  0  0
   -5.9532   27.0015  -30.6160 H   0  0  0  0  0  0  0  0  0  0  0  0
   -6.4058   25.2631  -30.6160 H   0  0  0  0  0  0  0  0  0  0  0  0
   -5.4415   23.4925  -31.7001 H   0  0  0  0  0  0  0  0  0  0  0  0
   -2.9650   19.6630  -31.8620 H   0  0  0  0  0  0  0  0  0  0  0  0
   -3.7494   15.6652  -33.9801 H   0  0  0  0  0  0  0  0  0  0  0  0
   -6.1530   15.7167  -34.6685 H   0  0  0  0  0  0  0  0  0  0  0  0
   -7.5453   17.7262  -34.1422 H   0  0  0  0  0  0  0  0  0  0  0  0
  1  2  1  0
  2  3  1  0
  3  4  1  0
  4  5  2  0
  5  6  1  0
  6  7  1  0
  7  8  2  0
  8  9  1  0
  9 10  2  0
 10 11  1  0
 11 12  1  0
 10 13  1  0
 13 14  1  0
 14 15  1  0
 13 16  2  0
  6 17  2  0
 17 18  1  0
 18 19  2  0
 19 20  1  0
 20 21  2  0
 21 22  1  0
 22 23  2  0
 23  4  1  0
 16  7  1  0
 23 18  1  0
  1 24  1  0
  1 25  1  0
  1 26  1  0
  2 27  1  0
  2 28  1  0
  5 29  1  0
  8 30  1  0
  9 31  1  0
 12 32  1  0
 12 33  1  0
 12 34  1  0
 15 35  1  0
 15 36  1  0
 15 37  1  0
 16 38  1  0
 17 39  1  0
 20 40  1  0
 21 41  1  0
 22 42  1  0
M  CHG  1  17   1
M  END
>  <UniqueID>  (21) 
21

>  <SMILES>  (21) 
CCOc1cc(-c2ccc(OC)c(OC)c2)[nH+]c2ncccc12

>  <Energy>  (21) 
48.845969461931894

>  <Genealogy>  (21) 
CCOc1cc(-c2ccc(OC)c(OC)c2)[nH+]c2ncccc12 (protonated)
CCOc1cc(-c2ccc(OC)c(OC)c2)[nH+]c2ncccc12 (3D coordinates assigned)
CCOc1cc(-c2ccc(OC)c(OC)c2)[nH+]c2ncccc12 (optimized conformer: 48.845969461931894 kcal/mol)

>  <smiles>  (21) 
CCOc1cc(-c2ccc(OC)c(OC)c2)nc2ncccc12

>  <score_type>  (21) 
oracle

>  <origin>  (21) 
adg

>  <m_score__min__energy>  (21) 
-7.5599999999999996

>  <m_primary>  (21) 
energy

$$$$
21:0
     RDKit          3D

 47 49  0  0  0  0  0  0  0  0999 V2000
   -3.7570   24.6440  -26.6940 C   0  0  0  0  0  0  0  0  0  0  0  0
   -2.3050   25.1140  -26.7780 C   0  0  0  0  0  0  0  0  0  0  0  0
   -1.7820   25.1080  -28.2200 C   0  0  0  0  0  0  0  0  0  0  0  0
   -1.2400   23.8010  -28.5930 N   0  0  0  0  0  0  0  0  0  0  0  0
   -1.7330   23.0870  -29.7330 C   0  0  0  0  0  0  0  0  0  0  0  0
   -2.6760   23.5720  -30.4190 O   0  0  0  0  0  0  0  0  0  0  0  0
   -1.1740   21.7210  -30.0670 C   0  0  0  0  0  0  0  0  0  0  0  0
   -0.8080   21.5830  -31.5730 C   0  0  0  0  0  0  0  0  0  0  0  0
   -1.8120   20.7360  -32.3740 C   0  0  0  0  0  0  0  0  0  0  0  0
   -3.1750   20.9170  -31.8560 N   0  0  0  0  0  0  0  0  0  0  0  0
   -4.1960   21.5120  -32.6810 C   0  0  0  0  0  0  0  0  0  0  0  0
   -3.8700   22.2930  -33.6170 O   0  0  0  0  0  0  0  0  0  0  0  0
   -5.6250   21.2120  -32.4680 C   0  0  0  0  0  0  0  0  0  0  0  0
   -6.4420   19.9230  -33.1770 S   0  0  0  0  0  0  0  0  0  0  0  0
   -7.9830   20.3480  -32.6610 C   0  0  0  0  0  0  0  0  0  0  0  0
   -7.8850   21.5240  -31.9300 C   0  0  0  0  0  0  0  0  0  0  0  0
   -6.5720   22.0120  -31.8160 C   0  0  0  0  0  0  0  0  0  0  0  0
   -6.2520   23.1850  -31.0500 N   0  0  0  0  0  0  0  0  0  0  0  0
   -5.9870   23.2220  -29.7290 C   0  0  0  0  0  0  0  0  0  0  0  0
   -5.6510   24.5080  -29.3550 C   0  0  0  0  0  0  0  0  0  0  0  0
   -5.7020   25.2780  -30.5010 C   0  0  0  0  0  0  0  0  0  0  0  0
   -6.0670   24.4330  -31.5280 C   0  0  0  0  0  0  0  0  0  0  0  0
   -3.4430   20.6300  -30.4380 C   0  0  0  0  0  0  0  0  0  0  0  0
   -2.1480   20.6170  -29.6090 C   0  0  0  0  0  0  0  0  0  0  0  0
   -4.0511   24.5488  -25.6383 H   0  0  0  0  0  0  0  0  0  0  0  0
   -4.4090   25.3770  -27.1916 H   0  0  0  0  0  0  0  0  0  0  0  0
   -3.8558   23.6680  -27.1916 H   0  0  0  0  0  0  0  0  0  0  0  0
   -2.2394   26.1376  -26.3806 H   0  0  0  0  0  0  0  0  0  0  0  0
   -1.6881   24.4188  -26.1897 H   0  0  0  0  0  0  0  0  0  0  0  0
   -2.6093   25.3584  -28.9004 H   0  0  0  0  0  0  0  0  0  0  0  0
   -0.9726   25.8492  -28.2946 H   0  0  0  0  0  0  0  0  0  0  0  0
   -0.4750   23.3690  -28.0240 H   0  0  0  0  0  0  0  0  0  0  0  0
   -0.2314   21.6004  -29.5130 H   0  0  0  0  0  0  0  0  0  0  0  0
   -0.7704   22.5893  -32.0157 H   0  0  0  0  0  0  0  0  0  0  0  0
    0.1626   21.0679  -31.6240 H   0  0  0  0  0  0  0  0  0  0  0  0
   -1.7831   21.0443  -33.4295 H   0  0  0  0  0  0  0  0  0  0  0  0
   -1.5355   19.6757  -32.2780 H   0  0  0  0  0  0  0  0  0  0  0  0
   -8.9090   19.7911  -32.8667 H   0  0  0  0  0  0  0  0  0  0  0  0
   -8.7543   22.0272  -31.4816 H   0  0  0  0  0  0  0  0  0  0  0  0
   -6.0317   22.3573  -29.0505 H   0  0  0  0  0  0  0  0  0  0  0  0
   -5.3931   24.8522  -28.3425 H   0  0  0  0  0  0  0  0  0  0  0  0
   -5.4924   26.3550  -30.5791 H   0  0  0  0  0  0  0  0  0  0  0  0
   -6.1890   24.7318  -32.5796 H   0  0  0  0  0  0  0  0  0  0  0  0
   -4.1152   21.4034  -30.0380 H   0  0  0  0  0  0  0  0  0  0  0  0
   -3.9055   19.6343  -30.3697 H   0  0  0  0  0  0  0  0  0  0  0  0
   -2.3994   20.7785  -28.5504 H   0  0  0  0  0  0  0  0  0  0  0  0
   -1.6571   19.6428  -29.7501 H   0  0  0  0  0  0  0  0  0  0  0  0
  1  2  1  0
  2  3  1  0
  3  4  1  0
  4  5  1  0
  5  6  2  0
  5  7  1  0
  7  8  1  0
  8  9  1  0
  9 10  1  0
 10 11  1  0
 11 12  2  0
 11 13  1  0
 13 14  1  0
 14 15  1  0
 15 16  2  0
 16 17  1  0
 17 18  1  0
 18 19  1  0
 19 20  2  0
 20 21  1  0
 21 22  2  0
 10 23  1  0
 23 24  1  0
 24  7  1  0
 17 13  2  0
 22 18  1  0
  1 25  1  0
  1 26  1  0
  1 27  1  0
  2 28  1  0
  2 29  1  0
  3 30  1  0
  3 31  1  0
  4 32  1  0
  7 33  1  0
  8 34  1  0
  8 35  1  0
  9 36  1  0
  9 37  1  0
 15 38  1  0
 16 39  1  0
 19 40  1  0
 20 41  1  0
 21 42  1  0
 22 43  1  0
 23 44  1  0
 23 45  1  0
 24 46  1  0
 24 47  1  0
M  END
>  <UniqueID>  (22) 
22

>  <SMILES>  (22) 
CCCNC(=O)C1CCN(C(=O)c2sccc2-n2cccc2)CC1

>  <Energy>  (22) 
103.45375204985156

>  <Genealogy>  (22) 
CCCNC(=O)C1CCN(C(=O)c2sccc2-n2cccc2)CC1 (3D coordinates assigned)
CCCNC(=O)C1CCN(C(=O)c2sccc2-n2cccc2)CC1 (nonaromatic ring conformer: 103.45375204985156 kcal/mol)

>  <smiles>  (22) 
CCCNC(=O)C1CCN(C(=O)c2sccc2-n2cccc2)CC1

>  <score_type>  (22) 
oracle

>  <origin>  (22) 
adg

>  <m_score__min__energy>  (22) 
-7.4100000000000001

>  <m_primary>  (22) 
energy

$$$$
22:0
     RDKit          3D

 43 44  0  0  0  0  0  0  0  0999 V2000
   -3.5430   24.1840  -27.8460 C   0  0  0  0  0  0  0  0  0  0  0  0
   -2.6660   24.4730  -29.0610 C   0  0  0  0  0  0  0  0  0  0  0  0
   -3.4830   24.8720  -30.2110 N   0  0  0  0  0  0  0  0  0  0  0  0
   -4.7120   24.2200  -30.6050 C   0  0  0  0  0  0  0  0  0  0  0  0
   -5.9570   24.8390  -30.3650 C   0  0  0  0  0  0  0  0  0  0  0  0
   -7.1480   24.2280  -30.7570 C   0  0  0  0  0  0  0  0  0  0  0  0
   -7.1230   22.9860  -31.3900 C   0  0  0  0  0  0  0  0  0  0  0  0
   -8.6510   22.2260  -31.9390 S   0  0  0  0  0  0  0  0  0  0  0  0
   -7.8440   20.6600  -32.2730 C   0  0  0  0  0  0  0  0  0  0  0  0
   -7.1590   20.4670  -33.4800 C   0  0  0  0  0  0  0  0  0  0  0  0
   -6.5510   19.2390  -33.7520 C   0  0  0  0  0  0  0  0  0  0  0  0
   -6.6210   18.2000  -32.8160 C   0  0  0  0  0  0  0  0  0  0  0  0
   -5.7910   16.5210  -33.1890 Br  0  0  0  0  0  0  0  0  0  0  0  0
   -7.2990   18.3940  -31.6070 C   0  0  0  0  0  0  0  0  0  0  0  0
   -7.9100   19.6220  -31.3350 C   0  0  0  0  0  0  0  0  0  0  0  0
   -5.9040   22.3480  -31.6230 C   0  0  0  0  0  0  0  0  0  0  0  0
   -4.6920   22.9550  -31.2520 C   0  0  0  0  0  0  0  0  0  0  0  0
   -3.3990   22.2300  -31.5780 C   0  0  0  0  0  0  0  0  0  0  0  0
   -3.5870   21.2120  -32.6400 N   0  0  0  0  0  0  0  0  0  0  0  0
   -3.8300   19.8740  -32.0680 C   0  0  0  0  0  0  0  0  0  0  0  0
   -2.4000   21.1700  -33.5120 C   0  0  0  0  0  0  0  0  0  0  0  0
   -2.9695   24.3730  -26.9266 H   0  0  0  0  0  0  0  0  0  0  0  0
   -4.4269   24.8384  -27.8678 H   0  0  0  0  0  0  0  0  0  0  0  0
   -3.8647   23.1323  -27.8678 H   0  0  0  0  0  0  0  0  0  0  0  0
   -1.9672   25.2863  -28.8158 H   0  0  0  0  0  0  0  0  0  0  0  0
   -2.1135   23.5583  -29.3220 H   0  0  0  0  0  0  0  0  0  0  0  0
   -3.1200   25.6750  -30.7690 H   0  0  0  0  0  0  0  0  0  0  0  0
   -5.9888   25.8167  -29.8619 H   0  0  0  0  0  0  0  0  0  0  0  0
   -8.1094   24.7273  -30.5663 H   0  0  0  0  0  0  0  0  0  0  0  0
   -7.0999   21.2837  -34.2145 H   0  0  0  0  0  0  0  0  0  0  0  0
   -6.0171   19.0883  -34.7018 H   0  0  0  0  0  0  0  0  0  0  0  0
   -7.3513   17.5793  -30.8698 H   0  0  0  0  0  0  0  0  0  0  0  0
   -8.4425   19.7728  -30.3844 H   0  0  0  0  0  0  0  0  0  0  0  0
   -5.8916   21.3582  -32.1028 H   0  0  0  0  0  0  0  0  0  0  0  0
   -2.6552   22.9655  -31.9184 H   0  0  0  0  0  0  0  0  0  0  0  0
   -3.0594   21.7138  -30.6679 H   0  0  0  0  0  0  0  0  0  0  0  0
   -4.4110   21.4650  -33.2350 H   0  0  0  0  0  0  0  0  0  0  0  0
   -3.8185   19.9371  -30.9699 H   0  0  0  0  0  0  0  0  0  0  0  0
   -4.8100   19.5041  -32.4038 H   0  0  0  0  0  0  0  0  0  0  0  0
   -3.0426   19.1831  -32.4038 H   0  0  0  0  0  0  0  0  0  0  0  0
   -1.4913   21.1378  -32.8930 H   0  0  0  0  0  0  0  0  0  0  0  0
   -2.4431   20.2728  -34.1470 H   0  0  0  0  0  0  0  0  0  0  0  0
   -2.3795   22.0680  -34.1470 H   0  0  0  0  0  0  0  0  0  0  0  0
  1  2  1  0
  2  3  1  0
  3  4  1  0
  4  5  2  0
  5  6  1  0
  6  7  2  0
  7  8  1  0
  8  9  1  0
  9 10  2  0
 10 11  1  0
 11 12  2  0
 12 13  1  0
 12 14  1  0
 14 15  2  0
  7 16  1  0
 16 17  2  0
 17 18  1  0
 18 19  1  0
 19 20  1  0
 19 21  1  0
 17  4  1  0
 15  9  1  0
  1 22  1  0
  1 23  1  0
  1 24  1  0
  2 25  1  0
  2 26  1  0
  3 27  1  0
  5 28  1  0
  6 29  1  0
 10 30  1  0
 11 31  1  0
 14 32  1  0
 15 33  1  0
 16 34  1  0
 18 35  1  0
 18 36  1  0
 19 37  1  0
 20 38  1  0
 20 39  1  0
 20 40  1  0
 21 41  1  0
 21 42  1  0
 21 43  1  0
M  CHG  1  19   1
M  END
>  <UniqueID>  (23) 
23

>  <SMILES>  (23) 
CCNc1ccc(Sc2ccc(Br)cc2)cc1C[NH+](C)C

>  <Energy>  (23) 
36.8799202359679

>  <Genealogy>  (23) 
CCNc1ccc(Sc2ccc(Br)cc2)cc1C[NH+](C)C (protonated)
CCNc1ccc(Sc2ccc(Br)cc2)cc1C[NH+](C)C (3D coordinates assigned)
CCNc1ccc(Sc2ccc(Br)cc2)cc1C[NH+](C)C (optimized conformer: 36.8799202359679 kcal/mol)

>  <smiles>  (23) 
CCNc1ccc(Sc2ccc(Br)cc2)cc1CN(C)C

>  <score_type>  (23) 
oracle

>  <origin>  (23) 
adg

>  <m_score__min__energy>  (23) 
-7.8499999999999996

>  <m_primary>  (23) 
energy

$$$$
23:0
     RDKit          3D

 80 83  0  0  0  0  0  0  0  0999 V2000
   -7.1700   24.5610  -30.4850 C   0  0  0  0  0  0  0  0  0  0  0  0
   -6.4690   23.2730  -30.7060 N   0  0  0  0  0  0  0  0  0  0  0  0
   -7.1730   22.1820  -31.1730 C   0  0  0  0  0  0  0  0  0  0  0  0
   -8.5920   22.1580  -31.1580 C   0  0  0  0  0  0  0  0  0  0  0  0
   -9.3020   21.1150  -31.7460 C   0  0  0  0  0  0  0  0  0  0  0  0
   -8.6250   20.0700  -32.3580 C   0  0  0  0  0  0  0  0  0  0  0  0
   -7.2350   20.0300  -32.3260 C   0  0  0  0  0  0  0  0  0  0  0  0
   -6.4860   21.0450  -31.6780 C   0  0  0  0  0  0  0  0  0  0  0  0
   -5.0760   20.9520  -31.5290 C   0  0  0  0  0  0  0  0  0  0  0  0
   -4.3680   19.7360  -31.9040 N   0  0  0  0  0  0  0  0  0  0  0  0
   -3.9720   19.7870  -33.3260 C   0  0  0  0  0  0  0  0  0  0  0  0
   -3.4690   18.4130  -33.8610 C   0  0  0  0  0  0  0  0  0  0  0  0
   -4.5180   17.4410  -34.3120 N   0  0  0  0  0  0  0  0  0  0  0  0
   -5.6740   18.1350  -34.9190 C   0  0  0  0  0  0  0  0  0  0  0  0
   -4.9780   16.5730  -33.1970 C   0  0  0  0  0  0  0  0  0  0  0  0
   -3.9060   16.5690  -35.3490 C   0  0  0  0  0  0  0  0  0  0  0  0
   -4.3800   22.0540  -30.9620 C   0  0  0  0  0  0  0  0  0  0  0  0
   -2.9710   22.0540  -30.8400 C   0  0  0  0  0  0  0  0  0  0  0  0
   -2.2960   23.1090  -30.2390 C   0  0  0  0  0  0  0  0  0  0  0  0
   -3.0010   24.2050  -29.7360 C   0  0  0  0  0  0  0  0  0  0  0  0
   -2.3670   25.2850  -29.0980 O   0  0  0  0  0  0  0  0  0  0  0  0
   -1.2920   25.1770  -28.1600 C   0  0  0  0  0  0  0  0  0  0  0  0
   -1.7640   25.5540  -26.7350 C   0  0  0  0  0  0  0  0  0  0  0  0
   -0.7590   25.4140  -25.6260 N   0  0  0  0  0  0  0  0  0  0  0  0
   -0.5280   23.9740  -25.3320 C   0  0  0  0  0  0  0  0  0  0  0  0
   -1.2130   26.0960  -24.3700 C   0  0  0  0  0  0  0  0  0  0  0  0
   -0.8400   27.5890  -24.3500 C   0  0  0  0  0  0  0  0  0  0  0  0
    0.6440   27.7920  -24.3410 N   0  0  0  0  0  0  0  0  0  0  0  0
    0.9640   29.0560  -25.0510 C   0  0  0  0  0  0  0  0  0  0  0  0
    1.1140   27.9270  -22.9400 C   0  0  0  0  0  0  0  0  0  0  0  0
    1.3680   26.6510  -24.9880 C   0  0  0  0  0  0  0  0  0  0  0  0
    0.5370   26.0030  -26.1150 C   0  0  0  0  0  0  0  0  0  0  0  0
   -4.3920   24.2160  -29.8340 C   0  0  0  0  0  0  0  0  0  0  0  0
   -5.1060   23.1870  -30.5030 C   0  0  0  0  0  0  0  0  0  0  0  0
   -7.2694   24.7437  -29.4048 H   0  0  0  0  0  0  0  0  0  0  0  0
   -6.5914   25.3767  -30.9431 H   0  0  0  0  0  0  0  0  0  0  0  0
   -8.1691   24.5180  -30.9431 H   0  0  0  0  0  0  0  0  0  0  0  0
   -9.1408   22.9786  -30.6728 H   0  0  0  0  0  0  0  0  0  0  0  0
  -10.4018   21.1193  -31.7254 H   0  0  0  0  0  0  0  0  0  0  0  0
   -9.1870   19.2738  -32.8681 H   0  0  0  0  0  0  0  0  0  0  0  0
   -6.7073   19.1962  -32.8120 H   0  0  0  0  0  0  0  0  0  0  0  0
   -4.9500   18.8910  -31.7110 H   0  0  0  0  0  0  0  0  0  0  0  0
   -3.5450   19.5870  -31.2850 H   0  0  0  0  0  0  0  0  0  0  0  0
   -4.8419   20.0995  -33.9223 H   0  0  0  0  0  0  0  0  0  0  0  0
   -3.1403   20.5016  -33.4133 H   0  0  0  0  0  0  0  0  0  0  0  0
   -2.8075   18.6107  -34.7174 H   0  0  0  0  0  0  0  0  0  0  0  0
   -2.9780   17.9309  -33.0029 H   0  0  0  0  0  0  0  0  0  0  0  0
   -6.3257   18.5262  -34.1238 H   0  0  0  0  0  0  0  0  0  0  0  0
   -5.3159   18.9676  -35.5424 H   0  0  0  0  0  0  0  0  0  0  0  0
   -6.2404   17.4275  -35.5424 H   0  0  0  0  0  0  0  0  0  0  0  0
   -4.7271   17.0464  -32.2363 H   0  0  0  0  0  0  0  0  0  0  0  0
   -6.0673   16.4356  -33.2647 H   0  0  0  0  0  0  0  0  0  0  0  0
   -4.4801   15.5945  -33.2647 H   0  0  0  0  0  0  0  0  0  0  0  0
   -3.3395   15.7618  -34.8616 H   0  0  0  0  0  0  0  0  0  0  0  0
   -4.6980   16.1340  -35.9763 H   0  0  0  0  0  0  0  0  0  0  0  0
   -3.2277   17.1660  -35.9763 H   0  0  0  0  0  0  0  0  0  0  0  0
   -2.3972   21.2001  -31.2294 H   0  0  0  0  0  0  0  0  0  0  0  0
   -1.1993   23.0811  -30.1587 H   0  0  0  0  0  0  0  0  0  0  0  0
   -0.9211   24.1414  -28.1546 H   0  0  0  0  0  0  0  0  0  0  0  0
   -0.4919   25.8695  -28.4604 H   0  0  0  0  0  0  0  0  0  0  0  0
   -2.0876   26.6051  -26.7594 H   0  0  0  0  0  0  0  0  0  0  0  0
   -2.5577   24.8311  -26.4954 H   0  0  0  0  0  0  0  0  0  0  0  0
   -0.5035   23.8215  -24.2429 H   0  0  0  0  0  0  0  0  0  0  0  0
   -1.3416   23.3757  -25.7679 H   0  0  0  0  0  0  0  0  0  0  0  0
    0.4320   23.6602  -25.7679 H   0  0  0  0  0  0  0  0  0  0  0  0
   -2.3063   26.0032  -24.2922 H   0  0  0  0  0  0  0  0  0  0  0  0
   -0.7079   25.6110  -23.5217 H   0  0  0  0  0  0  0  0  0  0  0  0
   -1.2601   28.0729  -25.2441 H   0  0  0  0  0  0  0  0  0  0  0  0
   -1.2510   28.0316  -23.4307 H   0  0  0  0  0  0  0  0  0  0  0  0
    1.1648   29.8490  -24.3155 H   0  0  0  0  0  0  0  0  0  0  0  0
    1.8528   28.9074  -25.6818 H   0  0  0  0  0  0  0  0  0  0  0  0
    0.1115   29.3482  -25.6818 H   0  0  0  0  0  0  0  0  0  0  0  0
    0.2890   27.6900  -22.2521 H   0  0  0  0  0  0  0  0  0  0  0  0
    1.9486   27.2323  -22.7647 H   0  0  0  0  0  0  0  0  0  0  0  0
    1.4527   28.9588  -22.7647 H   0  0  0  0  0  0  0  0  0  0  0  0
    2.3117   27.0243  -25.4124 H   0  0  0  0  0  0  0  0  0  0  0  0
    1.5522   25.8861  -24.2192 H   0  0  0  0  0  0  0  0  0  0  0  0
    0.3105   26.7709  -26.8694 H   0  0  0  0  0  0  0  0  0  0  0  0
    1.1352   25.1801  -26.5334 H   0  0  0  0  0  0  0  0  0  0  0  0
   -4.9526   25.0462  -29.3797 H   0  0  0  0  0  0  0  0  0  0  0  0
  1  2  1  0
  2  3  2  0
  3  4  1  0
  4  5  2  0
  5  6  1  0
  6  7  2  0
  7  8  1  0
  8  9  2  0
  9 10  1  0
 10 11  1  0
 11 12  1  0
 12 13  1  0
 13 14  1  0
 13 15  1  0
 13 16  1  0
  9 17  1  0
 17 18  2  0
 18 19  1  0
 19 20  2  0
 20 21  1  0
 21 22  1  0
 22 23  1  0
 23 24  1  0
 24 25  1  0
 24 26  1  0
 26 27  1  0
 27 28  1  0
 28 29  1  0
 28 30  1  0
 28 31  1  0
 31 32  1  0
 20 33  1  0
 33 34  2  0
 34  2  1  0
  8  3  1  0
 34 17  1  0
 32 24  1  0
  1 35  1  0
  1 36  1  0
  1 37  1  0
  4 38  1  0
  5 39  1  0
  6 40  1  0
  7 41  1  0
 10 42  1  0
 10 43  1  0
 11 44  1  0
 11 45  1  0
 12 46  1  0
 12 47  1  0
 14 48  1  0
 14 49  1  0
 14 50  1  0
 15 51  1  0
 15 52  1  0
 15 53  1  0
 16 54  1  0
 16 55  1  0
 16 56  1  0
 18 57  1  0
 19 58  1  0
 22 59  1  0
 22 60  1  0
 23 61  1  0
 23 62  1  0
 25 63  1  0
 25 64  1  0
 25 65  1  0
 26 66  1  0
 26 67  1  0
 27 68  1  0
 27 69  1  0
 29 70  1  0
 29 71  1  0
 29 72  1  0
 30 73  1  0
 30 74  1  0
 30 75  1  0
 31 76  1  0
 31 77  1  0
 32 78  1  0
 32 79  1  0
 33 80  1  0
M  CHG  5   2   1  10   1  13   1  24   1  28   1
M  END
>  <UniqueID>  (24) 
24

>  <SMILES>  (24) 
C[n+]1c2ccccc2c([NH2+]CC[N+](C)(C)C)c2ccc(OCC[N+]3(C)CC[N+](C)(C)CC3)cc21

>  <Energy>  (24) 
151.93681640637462

>  <Genealogy>  (24) 
C[n+]1c2ccccc2c([NH2+]CC[N+](C)(C)C)c2ccc(OCC[N+]3(C)CC[N+](C)(C)CC3)cc21 (protonated)
C[n+]1c2ccccc2c([NH2+]CC[N+](C)(C)C)c2ccc(OCC[N+]3(C)CC[N+](C)(C)CC3)cc21 (3D coordinates assigned)
C[n+]1c2ccccc2c([NH2+]CC[N+](C)(C)C)c2ccc(OCC[N+]3(C)CC[N+](C)(C)CC3)cc21 (nonaromatic ring conformer: 151.93681640637462 kcal/mol)

>  <smiles>  (24) 
C[n+]1c2ccccc2c(NCC[N+](C)(C)C)c2ccc(OCC[N+]3(C)CC[N+](C)(C)CC3)cc21

>  <score_type>  (24) 
oracle

>  <origin>  (24) 
adg

>  <m_score__min__energy>  (24) 
-6.9199999999999999

>  <m_primary>  (24) 
energy

$$$$
24:0
     RDKit          3D

 53 54  0  0  0  0  0  0  0  0999 V2000
   -9.2360   21.5460  -30.6190 C   0  0  0  0  0  0  0  0  0  0  0  0
   -9.7980   21.1620  -31.9850 C   0  0  0  0  0  0  0  0  0  0  0  0
   -8.8760   20.2570  -32.6860 N   0  0  0  0  0  0  0  0  0  0  0  0
   -8.7240   18.9840  -31.9680 C   0  0  0  0  0  0  0  0  0  0  0  0
   -7.4900   18.2400  -32.4880 C   0  0  0  0  0  0  0  0  0  0  0  0
   -6.3920   19.2020  -32.9510 C   0  0  0  0  0  0  0  0  0  0  0  0
   -6.2240   20.2600  -32.0170 O   0  0  0  0  0  0  0  0  0  0  0  0
   -5.8990   21.4430  -32.6410 N   0  0  0  0  0  0  0  0  0  0  0  0
   -4.4550   21.6810  -32.8210 C   0  0  0  0  0  0  0  0  0  0  0  0
   -3.8590   22.6630  -31.7860 C   0  0  0  0  0  0  0  0  0  0  0  0
   -4.8850   23.4760  -31.0920 N   0  0  0  0  0  0  0  0  0  0  0  0
   -4.2980   24.6550  -30.4220 C   0  0  0  0  0  0  0  0  0  0  0  0
   -3.8950   24.3230  -28.9760 C   0  0  0  0  0  0  0  0  0  0  0  0
   -2.4510   24.5590  -28.7620 N   0  0  0  0  0  0  0  0  0  0  0  0
   -1.6430   23.3790  -29.1170 C   0  0  0  0  0  0  0  0  0  0  0  0
   -0.1420   23.6900  -28.9270 C   0  0  0  0  0  0  0  0  0  0  0  0
    0.0750   24.9280  -28.2730 O   0  0  0  0  0  0  0  0  0  0  0  0
   -0.6710   24.9720  -27.0740 C   0  0  0  0  0  0  0  0  0  0  0  0
   -2.1850   24.9520  -27.3640 C   0  0  0  0  0  0  0  0  0  0  0  0
   -5.9760   23.8510  -32.0020 C   0  0  0  0  0  0  0  0  0  0  0  0
   -6.7790   22.5920  -32.3460 C   0  0  0  0  0  0  0  0  0  0  0  0
   -9.8674   21.1146  -29.8283 H   0  0  0  0  0  0  0  0  0  0  0  0
   -8.2111   21.1585  -30.5221 H   0  0  0  0  0  0  0  0  0  0  0  0
   -9.2245   22.6417  -30.5221 H   0  0  0  0  0  0  0  0  0  0  0  0
  -10.7663   20.6580  -31.8492 H   0  0  0  0  0  0  0  0  0  0  0  0
   -9.9259   22.0744  -32.5859 H   0  0  0  0  0  0  0  0  0  0  0  0
   -7.9350   20.7180  -32.7090 H   0  0  0  0  0  0  0  0  0  0  0  0
   -8.6044   19.1830  -30.8928 H   0  0  0  0  0  0  0  0  0  0  0  0
   -9.6181   18.3647  -32.1327 H   0  0  0  0  0  0  0  0  0  0  0  0
   -7.0908   17.6074  -31.6815 H   0  0  0  0  0  0  0  0  0  0  0  0
   -7.7981   17.6348  -33.3533 H   0  0  0  0  0  0  0  0  0  0  0  0
   -5.4451   18.6503  -33.0458 H   0  0  0  0  0  0  0  0  0  0  0  0
   -6.6833   19.6301  -33.9215 H   0  0  0  0  0  0  0  0  0  0  0  0
   -3.9295   20.7188  -32.7311 H   0  0  0  0  0  0  0  0  0  0  0  0
   -4.3230   22.1368  -33.8134 H   0  0  0  0  0  0  0  0  0  0  0  0
   -3.3049   22.0832  -31.0332 H   0  0  0  0  0  0  0  0  0  0  0  0
   -3.2075   23.3592  -32.3345 H   0  0  0  0  0  0  0  0  0  0  0  0
   -3.4061   24.9782  -30.9788 H   0  0  0  0  0  0  0  0  0  0  0  0
   -5.0506   25.4569  -30.4008 H   0  0  0  0  0  0  0  0  0  0  0  0
   -4.4697   24.9594  -28.2870 H   0  0  0  0  0  0  0  0  0  0  0  0
   -4.1087   23.2606  -28.7873 H   0  0  0  0  0  0  0  0  0  0  0  0
   -1.9252   22.5360  -28.4692 H   0  0  0  0  0  0  0  0  0  0  0  0
   -1.8274   23.1185  -30.1697 H   0  0  0  0  0  0  0  0  0  0  0  0
    0.3113   22.8885  -28.3253 H   0  0  0  0  0  0  0  0  0  0  0  0
    0.3161   23.7534  -29.9251 H   0  0  0  0  0  0  0  0  0  0  0  0
   -0.4115   24.0993  -26.4567 H   0  0  0  0  0  0  0  0  0  0  0  0
   -0.4280   25.9049  -26.5442 H   0  0  0  0  0  0  0  0  0  0  0  0
   -2.6710   24.2319  -26.6893 H   0  0  0  0  0  0  0  0  0  0  0  0
   -2.5861   25.9634  -27.2020 H   0  0  0  0  0  0  0  0  0  0  0  0
   -6.6312   24.5863  -31.5121 H   0  0  0  0  0  0  0  0  0  0  0  0
   -5.5642   24.2969  -32.9194 H   0  0  0  0  0  0  0  0  0  0  0  0
   -7.4236   22.3366  -31.4921 H   0  0  0  0  0  0  0  0  0  0  0  0
   -7.3776   22.8034  -33.2443 H   0  0  0  0  0  0  0  0  0  0  0  0
  1  2  1  0
  2  3  1  0
  3  4  1  0
  4  5  1  0
  5  6  1  0
  6  7  1  0
  7  8  1  0
  8  9  1  0
  9 10  1  0
 10 11  1  0
 11 12  1  0
 12 13  1  0
 13 14  1  0
 14 15  1  0
 15 16  1  0
 16 17  1  0
 17 18  1  0
 18 19  1  0
 11 20  1  0
 20 21  1  0
 21  8  1  0
 19 14  1  0
  1 22  1  0
  1 23  1  0
  1 24  1  0
  2 25  1  0
  2 26  1  0
  3 27  1  0
  4 28  1  0
  4 29  1  0
  5 30  1  0
  5 31  1  0
  6 32  1  0
  6 33  1  0
  9 34  1  0
  9 35  1  0
 10 36  1  0
 10 37  1  0
 12 38  1  0
 12 39  1  0
 13 40  1  0
 13 41  1  0
 15 42  1  0
 15 43  1  0
 16 44  1  0
 16 45  1  0
 18 46  1  0
 18 47  1  0
 19 48  1  0
 19 49  1  0
 20 50  1  0
 20 51  1  0
 21 52  1  0
 21 53  1  0
M  END
>  <UniqueID>  (25) 
25

>  <SMILES>  (25) 
CCNCCCON1CCN(CCN2CCOCC2)CC1

>  <Energy>  (25) 
73.81949294698333

>  <Genealogy>  (25) 
CCNCCCON1CCN(CCN2CCOCC2)CC1 (3D coordinates assigned)
CCNCCCON1CCN(CCN2CCOCC2)CC1 (nonaromatic ring conformer: 73.81949294698333 kcal/mol)

>  <smiles>  (25) 
CCNCCCON1CCN(CCN2CCOCC2)CC1

>  <score_type>  (25) 
oracle

>  <origin>  (25) 
adg

>  <m_score__min__energy>  (25) 
-7.8799999999999999

>  <m_primary>  (25) 
energy

$$$$
