0:0
     RDKit          3D

 56 57  0  0  0  0  0  0  0  0999 V2000
   -4.6260   15.2850  -32.3720 C   0  0  0  0  0  0  0  0  0  0  0  0
   -4.7430   16.3360  -33.4800 C   0  0  0  0  0  0  0  0  0  0  0  0
   -6.0560   17.0770  -33.3490 C   0  0  0  0  0  0  0  0  0  0  0  0
   -6.1010   18.2870  -34.2480 C   0  0  0  0  0  0  0  0  0  0  0  0
   -5.8590   19.4840  -33.4790 N   0  0  0  0  0  0  0  0  0  0  0  0
   -4.6340   20.0360  -33.4680 C   0  0  0  0  0  0  0  0  0  0  0  0
   -4.3660   21.1680  -32.7450 C   0  0  0  0  0  0  0  0  0  0  0  0
   -5.3480   21.8030  -31.9840 C   0  0  0  0  0  0  0  0  0  0  0  0
   -5.0320   22.9700  -31.2380 N   0  0  0  0  0  0  0  0  0  0  0  0
   -5.8030   24.1810  -31.4900 C   0  0  0  0  0  0  0  0  0  0  0  0
   -5.1480   25.3170  -30.7630 C   0  0  0  0  0  0  0  0  0  0  0  0
   -3.8490   25.0360  -30.4750 O   0  0  0  0  0  0  0  0  0  0  0  0
   -3.6130   24.5500  -29.1860 C   0  0  0  0  0  0  0  0  0  0  0  0
   -2.3640   23.7670  -29.0690 C   0  0  0  0  0  0  0  0  0  0  0  0
   -2.3770   22.5800  -29.8400 N   0  0  0  0  0  0  0  0  0  0  0  0
   -2.9800   21.4730  -29.0730 C   0  0  0  0  0  0  0  0  0  0  0  0
   -1.1700   22.1140  -30.4230 C   0  0  0  0  0  0  0  0  0  0  0  0
   -1.1990   21.4960  -31.7620 C   0  0  0  0  0  0  0  0  0  0  0  0
   -6.5930   21.2250  -32.0080 C   0  0  0  0  0  0  0  0  0  0  0  0
   -7.6320   21.7660  -31.2980 C   0  0  0  0  0  0  0  0  0  0  0  0
   -8.9110   21.2490  -31.2670 C   0  0  0  0  0  0  0  0  0  0  0  0
   -9.1710   20.0950  -32.0080 C   0  0  0  0  0  0  0  0  0  0  0  0
   -8.1320   19.5290  -32.7370 C   0  0  0  0  0  0  0  0  0  0  0  0
   -6.8590   20.0650  -32.7510 C   0  0  0  0  0  0  0  0  0  0  0  0
   -4.6810   15.7790  -31.3907 H   0  0  0  0  0  0  0  0  0  0  0  0
   -5.4491   14.5612  -32.4648 H   0  0  0  0  0  0  0  0  0  0  0  0
   -3.6639   14.7600  -32.4648 H   0  0  0  0  0  0  0  0  0  0  0  0
   -3.9108   17.0503  -33.3948 H   0  0  0  0  0  0  0  0  0  0  0  0
   -4.7047   15.8364  -34.4592 H   0  0  0  0  0  0  0  0  0  0  0  0
   -6.8778   16.3986  -33.6217 H   0  0  0  0  0  0  0  0  0  0  0  0
   -6.1574   17.4172  -32.3078 H   0  0  0  0  0  0  0  0  0  0  0  0
   -5.3289   18.1916  -35.0257 H   0  0  0  0  0  0  0  0  0  0  0  0
   -7.0951   18.3529  -34.7144 H   0  0  0  0  0  0  0  0  0  0  0  0
   -3.8283   19.5682  -34.0528 H   0  0  0  0  0  0  0  0  0  0  0  0
   -3.3494   21.5877  -32.7648 H   0  0  0  0  0  0  0  0  0  0  0  0
   -4.2950   23.0120  -30.5330 H   0  0  0  0  0  0  0  0  0  0  0  0
   -5.8218   24.3919  -32.5694 H   0  0  0  0  0  0  0  0  0  0  0  0
   -6.8369   24.0518  -31.1374 H   0  0  0  0  0  0  0  0  0  0  0  0
   -5.1885   26.2171  -31.3940 H   0  0  0  0  0  0  0  0  0  0  0  0
   -5.6858   25.4801  -29.8174 H   0  0  0  0  0  0  0  0  0  0  0  0
   -3.5532   25.4055  -28.4971 H   0  0  0  0  0  0  0  0  0  0  0  0
   -4.4435   23.8722  -28.9393 H   0  0  0  0  0  0  0  0  0  0  0  0
   -1.5253   24.3939  -29.4060 H   0  0  0  0  0  0  0  0  0  0  0  0
   -2.2605   23.4714  -28.0145 H   0  0  0  0  0  0  0  0  0  0  0  0
   -2.8720   21.6713  -27.9964 H   0  0  0  0  0  0  0  0  0  0  0  0
   -4.0475   21.3909  -29.3254 H   0  0  0  0  0  0  0  0  0  0  0  0
   -2.4701   20.5316  -29.3254 H   0  0  0  0  0  0  0  0  0  0  0  0
   -0.4906   22.9770  -30.4841 H   0  0  0  0  0  0  0  0  0  0  0  0
   -0.8687   21.2863  -29.7641 H   0  0  0  0  0  0  0  0  0  0  0  0
   -1.2503   20.4020  -31.6599 H   0  0  0  0  0  0  0  0  0  0  0  0
   -2.0813   21.8547  -32.3124 H   0  0  0  0  0  0  0  0  0  0  0  0
   -0.2870   21.7705  -32.3124 H   0  0  0  0  0  0  0  0  0  0  0  0
   -7.4330   22.6754  -30.7121 H   0  0  0  0  0  0  0  0  0  0  0  0
   -9.7026   21.7322  -30.6756 H   0  0  0  0  0  0  0  0  0  0  0  0
  -10.1744   19.6443  -32.0148 H   0  0  0  0  0  0  0  0  0  0  0  0
   -8.3307   18.6206  -33.3246 H   0  0  0  0  0  0  0  0  0  0  0  0
  1  2  1  0
  2  3  1  0
  3  4  1  0
  4  5  1  0
  5  6  2  0
  6  7  1  0
  7  8  2  0
  8  9  1  0
  9 10  1  0
 10 11  1  0
 11 12  1  0
 12 13  1  0
 13 14  1  0
 14 15  1  0
 15 16  1  0
 15 17  1  0
 17 18  1  0
  8 19  1  0
 19 20  2  0
 20 21  1  0
 21 22  2  0
 22 23  1  0
 23 24  2  0
 24  5  1  0
 24 19  1  0
  1 25  1  0
  1 26  1  0
  1 27  1  0
  2 28  1  0
  2 29  1  0
  3 30  1  0
  3 31  1  0
  4 32  1  0
  4 33  1  0
  6 34  1  0
  7 35  1  0
  9 36  1  0
 10 37  1  0
 10 38  1  0
 11 39  1  0
 11 40  1  0
 13 41  1  0
 13 42  1  0
 14 43  1  0
 14 44  1  0
 16 45  1  0
 16 46  1  0
 16 47  1  0
 17 48  1  0
 17 49  1  0
 18 50  1  0
 18 51  1  0
 18 52  1  0
 20 53  1  0
 21 54  1  0
 22 55  1  0
 23 56  1  0
M  CHG  1   5   1
M  END
>  <smiles>  (1) 
CCCC[n+]1ccc(NCCOCCN(C)CC)c2ccccc21

>  <score_type>  (1) 
oracle

>  <origin>  (1) 
adg

>  <m_score__min__energy>  (1) 
-7.8200000000000003

>  <m_primary>  (1) 
energy

$$$$
1:0
     RDKit          3D

 36 38  0  0  0  0  0  0  0  0999 V2000
   -5.3950   25.6690  -30.4760 C   0  0  0  0  0  0  0  0  0  0  0  0
   -4.7610   24.6600  -31.2150 O   0  0  0  0  0  0  0  0  0  0  0  0
   -5.3380   23.4240  -31.4040 C   0  0  0  0  0  0  0  0  0  0  0  0
   -4.6430   22.2340  -31.4170 C   0  0  0  0  0  0  0  0  0  0  0  0
   -5.2880   21.0120  -31.6150 C   0  0  0  0  0  0  0  0  0  0  0  0
   -6.6480   20.9660  -31.8040 C   0  0  0  0  0  0  0  0  0  0  0  0
   -7.3230   19.7640  -32.0070 C   0  0  0  0  0  0  0  0  0  0  0  0
   -6.5870   18.4800  -32.0510 C   0  0  0  0  0  0  0  0  0  0  0  0
   -6.6370   18.0010  -33.4230 N   0  0  0  0  0  0  0  0  0  0  0  0
   -5.8330   18.8220  -34.3030 C   0  0  0  0  0  0  0  0  0  0  0  0
   -5.3530   17.7980  -35.3280 C   0  0  0  0  0  0  0  0  0  0  0  0
   -4.8100   16.7500  -34.3430 C   0  0  0  0  0  0  0  0  0  0  0  0
   -6.0010   16.6950  -33.3860 C   0  0  0  0  0  0  0  0  0  0  0  0
   -8.6880   19.8700  -32.1820 C   0  0  0  0  0  0  0  0  0  0  0  0
   -9.3380   21.0960  -32.1580 C   0  0  0  0  0  0  0  0  0  0  0  0
  -10.5870   21.1670  -32.3210 O   0  0  0  0  0  0  0  0  0  0  0  0
   -8.6210   22.1510  -31.9640 O   0  0  0  0  0  0  0  0  0  0  0  0
   -7.3450   22.1540  -31.7910 C   0  0  0  0  0  0  0  0  0  0  0  0
   -6.7130   23.3590  -31.5960 C   0  0  0  0  0  0  0  0  0  0  0  0
   -5.2700   25.4700  -29.4014 H   0  0  0  0  0  0  0  0  0  0  0  0
   -4.9457   26.6421  -30.7234 H   0  0  0  0  0  0  0  0  0  0  0  0
   -6.4667   25.6864  -30.7234 H   0  0  0  0  0  0  0  0  0  0  0  0
   -3.5533   22.2475  -31.2677 H   0  0  0  0  0  0  0  0  0  0  0  0
   -4.7037   20.0800  -31.6197 H   0  0  0  0  0  0  0  0  0  0  0  0
   -5.5421   18.6341  -31.7437 H   0  0  0  0  0  0  0  0  0  0  0  0
   -7.0390   17.7478  -31.3657 H   0  0  0  0  0  0  0  0  0  0  0  0
   -6.4353   19.6114  -34.7764 H   0  0  0  0  0  0  0  0  0  0  0  0
   -5.0195   19.3590  -33.7934 H   0  0  0  0  0  0  0  0  0  0  0  0
   -6.1767   17.4054  -35.9423 H   0  0  0  0  0  0  0  0  0  0  0  0
   -4.6422   18.1661  -36.0825 H   0  0  0  0  0  0  0  0  0  0  0  0
   -4.6251   15.7811  -34.8298 H   0  0  0  0  0  0  0  0  0  0  0  0
   -3.8394   16.9867  -33.8826 H   0  0  0  0  0  0  0  0  0  0  0  0
   -6.7108   15.9199  -33.7106 H   0  0  0  0  0  0  0  0  0  0  0  0
   -5.6733   16.4469  -32.3657 H   0  0  0  0  0  0  0  0  0  0  0  0
   -9.2779   18.9560  -32.3453 H   0  0  0  0  0  0  0  0  0  0  0  0
   -7.3047   24.2863  -31.5918 H   0  0  0  0  0  0  0  0  0  0  0  0
  1  2  1  0
  2  3  1  0
  3  4  2  0
  4  5  1  0
  5  6  2  0
  6  7  1  0
  7  8  1  0
  8  9  1  0
  9 10  1  0
 10 11  1  0
 11 12  1  0
 12 13  1  0
  7 14  2  0
 14 15  1  0
 15 16  2  0
 15 17  1  0
 17 18  1  0
 18 19  2  0
 19  3  1  0
 18  6  1  0
 13  9  1  0
  1 20  1  0
  1 21  1  0
  1 22  1  0
  4 23  1  0
  5 24  1  0
  8 25  1  0
  8 26  1  0
 10 27  1  0
 10 28  1  0
 11 29  1  0
 11 30  1  0
 12 31  1  0
 12 32  1  0
 13 33  1  0
 13 34  1  0
 14 35  1  0
 19 36  1  0
M  END
>  <smiles>  (2) 
COc1ccc2c(CN3CCCC3)cc(=O)oc2c1

>  <score_type>  (2) 
oracle

>  <origin>  (2) 
adg

>  <m_score__min__energy>  (2) 
-7.3200000000000003

>  <m_primary>  (2) 
energy

$$$$
3:0
     RDKit          3D

 44 45  0  0  1  0  0  0  0  0999 V2000
   -9.0040   20.2310  -32.2990 C   0  0  0  0  0  0  0  0  0  0  0  0
   -8.8500   21.6780  -31.8910 C   0  0  0  0  0  0  0  0  0  0  0  0
   -7.4710   22.0470  -31.8420 N   0  0  0  0  0  0  0  0  0  0  0  0
   -6.6180   21.1380  -32.5850 C   0  0  0  0  0  0  0  0  0  0  0  0
   -7.2550   23.4150  -32.1900 C   0  0  0  0  0  0  0  0  0  0  0  0
   -6.4740   24.0870  -31.0860 C   0  0  0  0  0  0  0  0  0  0  0  0
   -5.1210   23.6250  -31.2280 O   0  0  0  0  0  0  0  0  0  0  0  0
   -4.1100   24.2680  -30.5350 C   0  0  0  0  0  0  0  0  0  0  0  0
   -3.8760   25.4640  -30.8370 O   0  0  0  0  0  0  0  0  0  0  0  0
   -3.3880   23.5040  -29.4990 C   0  0  1  0  0  0  0  0  0  0  0  0
   -2.4670   22.5500  -30.1690 C   0  0  0  0  0  0  0  0  0  0  0  0
   -2.7400   22.1130  -31.4560 C   0  0  0  0  0  0  0  0  0  0  0  0
   -1.9010   21.2160  -32.1010 C   0  0  0  0  0  0  0  0  0  0  0  0
   -0.7850   20.7660  -31.4320 C   0  0  0  0  0  0  0  0  0  0  0  0
   -0.4900   21.1850  -30.1510 C   0  0  0  0  0  0  0  0  0  0  0  0
   -1.3400   22.0860  -29.5150 C   0  0  0  0  0  0  0  0  0  0  0  0
   -2.6730   24.4080  -28.5450 C   0  0  0  0  0  0  0  0  0  0  0  0
   -3.0440   24.4070  -27.2140 C   0  0  0  0  0  0  0  0  0  0  0  0
   -2.3950   25.2340  -26.3230 C   0  0  0  0  0  0  0  0  0  0  0  0
   -1.3880   26.0380  -26.8080 C   0  0  0  0  0  0  0  0  0  0  0  0
   -1.0240   26.0340  -28.1370 C   0  0  0  0  0  0  0  0  0  0  0  0
   -1.6940   25.2040  -28.9580 N   0  0  0  0  0  0  0  0  0  0  0  0
   -9.0710   19.6015  -31.3994 H   0  0  0  0  0  0  0  0  0  0  0  0
   -9.9196   20.1142  -32.8973 H   0  0  0  0  0  0  0  0  0  0  0  0
   -8.1334   19.9241  -32.8973 H   0  0  0  0  0  0  0  0  0  0  0  0
   -9.3683   22.3160  -32.6220 H   0  0  0  0  0  0  0  0  0  0  0  0
   -9.2863   21.8105  -30.8900 H   0  0  0  0  0  0  0  0  0  0  0  0
   -6.0391   20.5211  -31.8819 H   0  0  0  0  0  0  0  0  0  0  0  0
   -7.2391   20.4873  -33.2182 H   0  0  0  0  0  0  0  0  0  0  0  0
   -5.9292   21.7165  -33.2182 H   0  0  0  0  0  0  0  0  0  0  0  0
   -6.6867   23.4708  -33.1302 H   0  0  0  0  0  0  0  0  0  0  0  0
   -8.2225   23.9217  -32.3216 H   0  0  0  0  0  0  0  0  0  0  0  0
   -6.5190   25.1806  -31.1956 H   0  0  0  0  0  0  0  0  0  0  0  0
   -6.8832   23.8442  -30.0943 H   0  0  0  0  0  0  0  0  0  0  0  0
   -4.1074   22.9370  -28.8899 H   0  0  0  0  0  0  0  0  0  0  0  0
   -3.6367   22.4836  -31.9743 H   0  0  0  0  0  0  0  0  0  0  0  0
   -2.1221   20.8726  -33.1224 H   0  0  0  0  0  0  0  0  0  0  0  0
   -0.1113   20.0542  -31.9316 H   0  0  0  0  0  0  0  0  0  0  0  0
    0.4078   20.8110  -29.6372 H   0  0  0  0  0  0  0  0  0  0  0  0
   -1.1156   22.4283  -28.4940 H   0  0  0  0  0  0  0  0  0  0  0  0
   -3.8541   23.7487  -26.8670 H   0  0  0  0  0  0  0  0  0  0  0  0
   -2.6725   25.2512  -25.2587 H   0  0  0  0  0  0  0  0  0  0  0  0
   -0.8572   26.7047  -26.1125 H   0  0  0  0  0  0  0  0  0  0  0  0
   -0.2186   26.6827  -28.5118 H   0  0  0  0  0  0  0  0  0  0  0  0
  1  2  1  0
  2  3  1  0
  3  4  1  0
  3  5  1  0
  5  6  1  0
  6  7  1  0
  7  8  1  0
  8  9  2  0
  8 10  1  0
 10 11  1  0
 11 12  2  0
 12 13  1  0
 13 14  2  0
 14 15  1  0
 15 16  2  0
 10 17  1  0
 17 18  2  0
 18 19  1  0
 19 20  2  0
 20 21  1  0
 21 22  2  0
 16 11  1  0
 22 17  1  0
  1 23  1  0
  1 24  1  0
  1 25  1  0
  2 26  1  0
  2 27  1  0
  4 28  1  0
  4 29  1  0
  4 30  1  0
  5 31  1  0
  5 32  1  0
  6 33  1  0
  6 34  1  0
 10 35  1  1
 12 36  1  0
 13 37  1  0
 14 38  1  0
 15 39  1  0
 16 40  1  0
 18 41  1  0
 19 42  1  0
 20 43  1  0
 21 44  1  0
M  END
>  <smiles>  (3) 
CCN(C)CCOC(=O)C(c1ccccc1)c1ccccn1

>  <score_type>  (3) 
oracle

>  <origin>  (3) 
adg

>  <m_score__min__energy>  (3) 
-7.4699999999999998

>  <m_primary>  (3) 
energy

$$$$
4:0
     RDKit          3D

 80 83  0  0  1  0  0  0  0  0999 V2000
   -0.4900   21.4440  -34.2270 C   0  0  0  0  0  0  0  0  0  0  0  0
    0.1920   20.5590  -33.2070 C   0  0  0  0  0  0  0  0  0  0  0  0
   -0.5810   20.3660  -32.0280 N   0  0  0  0  0  0  0  0  0  0  0  0
    0.1740   20.4830  -30.7930 C   0  0  0  0  0  0  0  0  0  0  0  0
    0.0750   19.2850  -29.9000 C   0  0  0  0  0  0  0  0  0  0  0  0
   -1.4090   19.2230  -31.9710 C   0  0  0  0  0  0  0  0  0  0  0  0
   -2.1540   18.7980  -33.1660 C   0  0  0  0  0  0  0  0  0  0  0  0
   -3.1320   19.6280  -33.7530 N   0  0  0  0  0  0  0  0  0  0  0  0
   -4.4670   19.8640  -33.3700 C   0  0  0  0  0  0  0  0  0  0  0  0
   -4.9370   21.1160  -32.9210 C   0  0  0  0  0  0  0  0  0  0  0  0
   -4.0690   22.2580  -33.4110 C   0  0  0  0  0  0  0  0  0  0  0  0
   -6.2220   21.3000  -32.4870 C   0  0  0  0  0  0  0  0  0  0  0  0
   -6.6240   22.5160  -32.0930 C   0  0  0  0  0  0  0  0  0  0  0  0
   -5.8130   23.2890  -31.4690 N   0  0  0  0  0  0  0  0  0  0  0  0
   -6.1020   24.2070  -30.4330 C   0  0  0  0  0  0  0  0  0  0  0  0
   -4.6580   24.9200  -30.4190 C   0  0  0  0  0  0  0  0  0  0  0  0
   -3.9250   24.2760  -29.3000 C   0  0  0  0  0  0  0  0  0  0  0  0
   -2.6720   23.6910  -29.5600 N   0  0  0  0  0  0  0  0  0  0  0  0
   -2.5780   22.6480  -30.5140 C   0  0  0  0  0  0  0  0  0  0  0  0
   -3.4210   21.4900  -30.0990 C   0  0  0  0  0  0  0  0  0  0  0  0
   -2.8870   20.9070  -28.8180 C   0  0  0  0  0  0  0  0  0  0  0  0
   -1.7540   21.7730  -28.3340 C   0  0  0  0  0  0  0  0  0  0  0  0
   -2.0680   23.2290  -28.3370 C   0  0  1  0  0  0  0  0  0  0  0  0
   -0.8190   24.0290  -28.0870 C   0  0  0  0  0  0  0  0  0  0  0  0
   -1.0930   25.5150  -28.0200 C   0  0  0  0  0  0  0  0  0  0  0  0
   -1.2240   26.0450  -29.3080 O   0  0  0  0  0  0  0  0  0  0  0  0
   -7.9300   22.8120  -31.7310 N   0  0  0  0  0  0  0  0  0  0  0  0
   -8.8340   21.7780  -31.7670 C   0  0  0  0  0  0  0  0  0  0  0  0
   -8.4110   20.4970  -32.1540 C   0  0  0  0  0  0  0  0  0  0  0  0
   -7.1020   20.2360  -32.5130 C   0  0  0  0  0  0  0  0  0  0  0  0
   -6.7090   19.0040  -32.9420 C   0  0  0  0  0  0  0  0  0  0  0  0
   -7.5920   17.9450  -32.9310 C   0  0  0  0  0  0  0  0  0  0  0  0
   -7.2050   16.6580  -33.3360 C   0  0  0  0  0  0  0  0  0  0  0  0
   -5.9320   16.5130  -33.7330 N   0  0  0  0  0  0  0  0  0  0  0  0
   -5.0580   17.5490  -33.7480 C   0  0  0  0  0  0  0  0  0  0  0  0
   -5.4120   18.8190  -33.3600 C   0  0  0  0  0  0  0  0  0  0  0  0
   -1.0821   22.2123  -33.7083 H   0  0  0  0  0  0  0  0  0  0  0  0
    0.2695   21.9298  -34.8572 H   0  0  0  0  0  0  0  0  0  0  0  0
   -1.1533   20.8333  -34.8572 H   0  0  0  0  0  0  0  0  0  0  0  0
    0.3809   19.5774  -33.6661 H   0  0  0  0  0  0  0  0  0  0  0  0
    1.1242   21.0612  -32.9089 H   0  0  0  0  0  0  0  0  0  0  0  0
    1.2328   20.6367  -31.0486 H   0  0  0  0  0  0  0  0  0  0  0  0
   -0.2561   21.3293  -30.2373 H   0  0  0  0  0  0  0  0  0  0  0  0
    0.1017   19.6080  -28.8488 H   0  0  0  0  0  0  0  0  0  0  0  0
   -0.8698   18.7575  -30.0976 H   0  0  0  0  0  0  0  0  0  0  0  0
    0.9204   18.6095  -30.0976 H   0  0  0  0  0  0  0  0  0  0  0  0
   -0.7666   18.3789  -31.6796 H   0  0  0  0  0  0  0  0  0  0  0  0
   -2.2022   19.5183  -31.2684 H   0  0  0  0  0  0  0  0  0  0  0  0
   -1.4043   18.6002  -33.9463 H   0  0  0  0  0  0  0  0  0  0  0  0
   -2.7516   17.9554  -32.7878 H   0  0  0  0  0  0  0  0  0  0  0  0
   -2.8310   20.1730  -34.6320 H   0  0  0  0  0  0  0  0  0  0  0  0
   -3.6562   22.8011  -32.5481 H   0  0  0  0  0  0  0  0  0  0  0  0
   -3.2454   21.8573  -34.0202 H   0  0  0  0  0  0  0  0  0  0  0  0
   -4.6755   22.9443  -34.0202 H   0  0  0  0  0  0  0  0  0  0  0  0
   -6.9143   24.9006  -30.6961 H   0  0  0  0  0  0  0  0  0  0  0  0
   -6.4603   23.7879  -29.4812 H   0  0  0  0  0  0  0  0  0  0  0  0
   -4.1344   24.7526  -31.3718 H   0  0  0  0  0  0  0  0  0  0  0  0
   -4.7354   26.0097  -30.2906 H   0  0  0  0  0  0  0  0  0  0  0  0
   -3.7692   25.0457  -28.5297 H   0  0  0  0  0  0  0  0  0  0  0  0
   -4.5630   23.4255  -29.0177 H   0  0  0  0  0  0  0  0  0  0  0  0
   -2.9240   23.0172  -31.4907 H   0  0  0  0  0  0  0  0  0  0  0  0
   -1.5302   22.3209  -30.5847 H   0  0  0  0  0  0  0  0  0  0  0  0
   -4.4560   21.8284  -29.9432 H   0  0  0  0  0  0  0  0  0  0  0  0
   -3.3980   20.7220  -30.8862 H   0  0  0  0  0  0  0  0  0  0  0  0
   -3.6846   20.8823  -28.0609 H   0  0  0  0  0  0  0  0  0  0  0  0
   -2.5296   19.8812  -28.9912 H   0  0  0  0  0  0  0  0  0  0  0  0
   -1.5037   21.4741  -27.3054 H   0  0  0  0  0  0  0  0  0  0  0  0
   -0.9160   21.6241  -29.0308 H   0  0  0  0  0  0  0  0  0  0  0  0
   -2.8030   23.3766  -27.5320 H   0  0  0  0  0  0  0  0  0  0  0  0
   -0.3780   23.7072  -27.1320 H   0  0  0  0  0  0  0  0  0  0  0  0
   -0.1316   23.8511  -28.9271 H   0  0  0  0  0  0  0  0  0  0  0  0
   -2.0245   25.6870  -27.4608 H   0  0  0  0  0  0  0  0  0  0  0  0
   -0.2515   26.0107  -27.5139 H   0  0  0  0  0  0  0  0  0  0  0  0
   -1.9920   25.6770  -29.7930 H   0  0  0  0  0  0  0  0  0  0  0  0
   -8.2330   23.7400  -31.4510 H   0  0  0  0  0  0  0  0  0  0  0  0
   -9.8849   21.9535  -31.4936 H   0  0  0  0  0  0  0  0  0  0  0  0
   -9.1431   19.6762  -32.1722 H   0  0  0  0  0  0  0  0  0  0  0  0
   -8.6263   18.1131  -32.5962 H   0  0  0  0  0  0  0  0  0  0  0  0
   -7.9088   15.8126  -33.3282 H   0  0  0  0  0  0  0  0  0  0  0  0
   -4.0264   17.3663  -34.0834 H   0  0  0  0  0  0  0  0  0  0  0  0
  1  2  1  0
  2  3  1  0
  3  4  1  0
  4  5  1  0
  3  6  1  0
  6  7  1  0
  7  8  1  0
  8  9  1  0
  9 10  2  0
 10 11  1  0
 10 12  1  0
 12 13  1  0
 13 14  2  0
 14 15  1  0
 15 16  1  0
 16 17  1  0
 17 18  1  0
 18 19  1  0
 19 20  1  0
 20 21  1  0
 21 22  1  0
 22 23  1  0
 23 24  1  0
 24 25  1  0
 25 26  1  0
 13 27  1  0
 27 28  1  0
 28 29  2  0
 29 30  1  0
 30 31  1  0
 31 32  2  0
 32 33  1  0
 33 34  2  0
 34 35  1  0
 35 36  2  0
 36  9  1  0
 30 12  2  0
 36 31  1  0
 23 18  1  0
  1 37  1  0
  1 38  1  0
  1 39  1  0
  2 40  1  0
  2 41  1  0
  4 42  1  0
  4 43  1  0
  5 44  1  0
  5 45  1  0
  5 46  1  0
  6 47  1  0
  6 48  1  0
  7 49  1  0
  7 50  1  0
  8 51  1  0
 11 52  1  0
 11 53  1  0
 11 54  1  0
 15 55  1  0
 15 56  1  0
 16 57  1  0
 16 58  1  0
 17 59  1  0
 17 60  1  0
 19 61  1  0
 19 62  1  0
 20 63  1  0
 20 64  1  0
 21 65  1  0
 21 66  1  0
 22 67  1  0
 22 68  1  0
 23 69  1  1
 24 70  1  0
 24 71  1  0
 25 72  1  0
 25 73  1  0
 26 74  1  0
 27 75  1  0
 28 76  1  0
 29 77  1  0
 32 78  1  0
 33 79  1  0
 35 80  1  0
M  END
>  <smiles>  (4) 
CCN(CC)CCNc1c(C)c2c(=NCCCN3CCCCC3CCO)[nH]ccc2c2ccncc12

>  <score_type>  (4) 
oracle

>  <origin>  (4) 
adg

>  <m_score__min__energy>  (4) 
-10.31

>  <m_primary>  (4) 
energy

$$$$
5:0
     RDKit          3D

 52 53  0  0  0  0  0  0  0  0999 V2000
   -5.7720   18.0910  -34.9590 C   0  0  0  0  0  0  0  0  0  0  0  0
   -6.1300   17.4030  -33.6700 C   0  0  0  0  0  0  0  0  0  0  0  0
   -6.6010   18.3340  -32.6730 N   0  0  0  0  0  0  0  0  0  0  0  0
   -5.5390   18.6800  -31.7680 C   0  0  0  0  0  0  0  0  0  0  0  0
   -4.4860   19.5720  -32.3430 C   0  0  0  0  0  0  0  0  0  0  0  0
   -7.7900   17.8830  -32.0140 C   0  0  0  0  0  0  0  0  0  0  0  0
   -8.8770   18.9310  -32.0390 C   0  0  0  0  0  0  0  0  0  0  0  0
   -8.5180   20.0930  -32.8300 N   0  0  0  0  0  0  0  0  0  0  0  0
   -7.8660   21.1580  -32.1530 C   0  0  0  0  0  0  0  0  0  0  0  0
   -8.2510   21.5630  -30.9080 C   0  0  0  0  0  0  0  0  0  0  0  0
   -7.5800   22.6130  -30.2910 C   0  0  0  0  0  0  0  0  0  0  0  0
   -6.5390   23.2790  -30.8580 C   0  0  0  0  0  0  0  0  0  0  0  0
   -5.6650   24.5700  -30.0960 S   0  0  0  0  0  0  0  0  0  0  0  0
   -6.6260   25.6910  -29.7550 O   0  0  0  0  0  0  0  0  0  0  0  0
   -4.6650   25.0690  -31.1370 O   0  0  0  0  0  0  0  0  0  0  0  0
   -4.8000   24.0540  -28.7150 N   0  0  0  0  0  0  0  0  0  0  0  0
   -3.4060   24.0250  -28.5490 C   0  0  0  0  0  0  0  0  0  0  0  0
   -2.6660   24.7960  -27.6960 C   0  0  0  0  0  0  0  0  0  0  0  0
   -1.2960   24.7130  -27.5600 C   0  0  0  0  0  0  0  0  0  0  0  0
   -0.6490   23.7790  -28.3470 C   0  0  0  0  0  0  0  0  0  0  0  0
   -1.3270   22.9650  -29.2300 C   0  0  0  0  0  0  0  0  0  0  0  0
   -2.6950   23.1000  -29.3170 C   0  0  0  0  0  0  0  0  0  0  0  0
   -3.4400   22.2140  -30.2790 C   0  0  0  0  0  0  0  0  0  0  0  0
   -6.1470   22.8590  -32.1360 C   0  0  0  0  0  0  0  0  0  0  0  0
   -6.8100   21.8180  -32.7530 C   0  0  0  0  0  0  0  0  0  0  0  0
   -5.2745   19.0470  -34.7385 H   0  0  0  0  0  0  0  0  0  0  0  0
   -5.0931   17.4500  -35.5405 H   0  0  0  0  0  0  0  0  0  0  0  0
   -6.6866   18.2791  -35.5405 H   0  0  0  0  0  0  0  0  0  0  0  0
   -6.9213   16.6653  -33.8690 H   0  0  0  0  0  0  0  0  0  0  0  0
   -5.2228   16.9180  -33.2804 H   0  0  0  0  0  0  0  0  0  0  0  0
   -5.9824   19.1905  -30.9004 H   0  0  0  0  0  0  0  0  0  0  0  0
   -5.0357   17.7368  -31.5088 H   0  0  0  0  0  0  0  0  0  0  0  0
   -3.9234   20.0486  -31.5267 H   0  0  0  0  0  0  0  0  0  0  0  0
   -3.7994   18.9766  -32.9627 H   0  0  0  0  0  0  0  0  0  0  0  0
   -4.9604   20.3472  -32.9627 H   0  0  0  0  0  0  0  0  0  0  0  0
   -8.1563   16.9779  -32.5206 H   0  0  0  0  0  0  0  0  0  0  0  0
   -7.5403   17.6744  -30.9632 H   0  0  0  0  0  0  0  0  0  0  0  0
   -9.7873   18.4835  -32.4646 H   0  0  0  0  0  0  0  0  0  0  0  0
   -9.0349   19.2699  -31.0045 H   0  0  0  0  0  0  0  0  0  0  0  0
   -8.7140   20.1750  -33.8540 H   0  0  0  0  0  0  0  0  0  0  0  0
   -9.0862   21.0624  -30.3962 H   0  0  0  0  0  0  0  0  0  0  0  0
   -7.9098   22.9221  -29.2882 H   0  0  0  0  0  0  0  0  0  0  0  0
   -5.3650   23.7110  -27.8710 H   0  0  0  0  0  0  0  0  0  0  0  0
   -3.1993   25.5321  -27.0765 H   0  0  0  0  0  0  0  0  0  0  0  0
   -0.7454   25.3583  -26.8597 H   0  0  0  0  0  0  0  0  0  0  0  0
    0.4437   23.6816  -28.2663 H   0  0  0  0  0  0  0  0  0  0  0  0
   -0.7907   22.2291  -29.8471 H   0  0  0  0  0  0  0  0  0  0  0  0
   -4.0481   21.4908  -29.7157 H   0  0  0  0  0  0  0  0  0  0  0  0
   -4.0956   22.8299  -30.9122 H   0  0  0  0  0  0  0  0  0  0  0  0
   -2.7208   21.6738  -30.9122 H   0  0  0  0  0  0  0  0  0  0  0  0
   -5.3111   23.3589  -32.6472 H   0  0  0  0  0  0  0  0  0  0  0  0
   -6.4873   21.5027  -33.7562 H   0  0  0  0  0  0  0  0  0  0  0  0
  1  2  1  0
  2  3  1  0
  3  4  1  0
  4  5  1  0
  3  6  1  0
  6  7  1  0
  7  8  1  0
  8  9  1  0
  9 10  2  0
 10 11  1  0
 11 12  2  0
 12 13  1  0
 13 14  2  0
 13 15  2  0
 13 16  1  0
 16 17  1  0
 17 18  2  0
 18 19  1  0
 19 20  2  0
 20 21  1  0
 21 22  2  0
 22 23  1  0
 12 24  1  0
 24 25  2  0
 25  9  1  0
 22 17  1  0
  1 26  1  0
  1 27  1  0
  1 28  1  0
  2 29  1  0
  2 30  1  0
  4 31  1  0
  4 32  1  0
  5 33  1  0
  5 34  1  0
  5 35  1  0
  6 36  1  0
  6 37  1  0
  7 38  1  0
  7 39  1  0
  8 40  1  0
 10 41  1  0
 11 42  1  0
 16 43  1  0
 18 44  1  0
 19 45  1  0
 20 46  1  0
 21 47  1  0
 23 48  1  0
 23 49  1  0
 23 50  1  0
 24 51  1  0
 25 52  1  0
M  END
>  <smiles>  (5) 
CCN(CC)CCNc1ccc(S(=O)(=O)Nc2ccccc2C)cc1

>  <score_type>  (5) 
oracle

>  <origin>  (5) 
adg

>  <m_score__min__energy>  (5) 
-9.4900000000000002

>  <m_primary>  (5) 
energy

$$$$
6:0
     RDKit          3D

 52 53  0  0  0  0  0  0  0  0999 V2000
   -9.0900   18.5450  -31.3060 C   0  0  0  0  0  0  0  0  0  0  0  0
   -8.1290   18.7250  -32.4480 C   0  0  0  0  0  0  0  0  0  0  0  0
   -8.0770   20.1150  -32.8470 N   0  0  0  0  0  0  0  0  0  0  0  0
   -8.5710   21.0090  -31.8590 C   0  0  0  0  0  0  0  0  0  0  0  0
   -7.8460   22.3480  -31.8680 C   0  0  0  0  0  0  0  0  0  0  0  0
   -6.8470   20.4350  -33.4730 C   0  0  0  0  0  0  0  0  0  0  0  0
   -5.6000   19.9630  -32.8020 C   0  0  0  0  0  0  0  0  0  0  0  0
   -4.5600   20.9730  -32.7840 N   0  0  0  0  0  0  0  0  0  0  0  0
   -3.4450   20.6850  -31.9470 C   0  0  0  0  0  0  0  0  0  0  0  0
   -2.6450   21.9250  -31.7000 C   0  0  0  0  0  0  0  0  0  0  0  0
   -3.4980   22.8400  -30.9460 N   0  0  0  0  0  0  0  0  0  0  0  0
   -3.4210   23.0340  -29.5990 C   0  0  0  0  0  0  0  0  0  0  0  0
   -4.3770   23.9660  -29.2170 C   0  0  0  0  0  0  0  0  0  0  0  0
   -4.6160   24.4360  -27.8950 N   0  0  0  0  0  0  0  0  0  0  0  0
   -3.7150   24.1910  -26.7890 C   0  0  0  0  0  0  0  0  0  0  0  0
   -2.5770   25.1260  -26.7960 C   0  0  0  0  0  0  0  0  0  0  0  0
   -2.0240   25.9010  -25.7980 C   0  0  0  0  0  0  0  0  0  0  0  0
   -0.9850   26.6730  -26.0660 C   0  0  0  0  0  0  0  0  0  0  0  0
   -0.4610   26.6950  -27.3530 C   0  0  0  0  0  0  0  0  0  0  0  0
   -1.5530   25.5010  -28.2670 S   0  0  0  0  0  0  0  0  0  0  0  0
   -5.0180   24.3120  -30.3920 C   0  0  0  0  0  0  0  0  0  0  0  0
   -6.1330   25.2930  -30.4920 C   0  0  0  0  0  0  0  0  0  0  0  0
   -4.4640   23.6200  -31.3940 N   0  0  0  0  0  0  0  0  0  0  0  0
   -8.5500   18.6461  -30.3530 H   0  0  0  0  0  0  0  0  0  0  0  0
   -9.8769   19.3114  -31.3647 H   0  0  0  0  0  0  0  0  0  0  0  0
   -9.5462   17.5458  -31.3647 H   0  0  0  0  0  0  0  0  0  0  0  0
   -7.1263   18.4002  -32.1330 H   0  0  0  0  0  0  0  0  0  0  0  0
   -8.4704   18.1206  -33.3013 H   0  0  0  0  0  0  0  0  0  0  0  0
   -9.6404   21.1858  -32.0465 H   0  0  0  0  0  0  0  0  0  0  0  0
   -8.4036   20.5454  -30.8756 H   0  0  0  0  0  0  0  0  0  0  0  0
   -7.6685   22.6758  -30.8331 H   0  0  0  0  0  0  0  0  0  0  0  0
   -6.8831   22.2401  -32.3887 H   0  0  0  0  0  0  0  0  0  0  0  0
   -8.4627   23.0954  -32.3887 H   0  0  0  0  0  0  0  0  0  0  0  0
   -6.8656   19.9988  -34.4826 H   0  0  0  0  0  0  0  0  0  0  0  0
   -6.7889   21.5330  -33.4420 H   0  0  0  0  0  0  0  0  0  0  0  0
   -5.8409   19.6869  -31.7648 H   0  0  0  0  0  0  0  0  0  0  0  0
   -5.2195   19.1031  -33.3728 H   0  0  0  0  0  0  0  0  0  0  0  0
   -4.9090   21.9330  -32.7370 H   0  0  0  0  0  0  0  0  0  0  0  0
   -3.8056   20.2888  -30.9863 H   0  0  0  0  0  0  0  0  0  0  0  0
   -2.8063   19.9415  -32.4463 H   0  0  0  0  0  0  0  0  0  0  0  0
   -1.7432   21.6832  -31.1183 H   0  0  0  0  0  0  0  0  0  0  0  0
   -2.3229   22.3799  -32.6483 H   0  0  0  0  0  0  0  0  0  0  0  0
   -2.7140   22.5321  -28.9221 H   0  0  0  0  0  0  0  0  0  0  0  0
   -5.4770   24.9780  -27.7330 H   0  0  0  0  0  0  0  0  0  0  0  0
   -4.2681   24.3097  -25.8456 H   0  0  0  0  0  0  0  0  0  0  0  0
   -3.3199   23.1692  -26.8885 H   0  0  0  0  0  0  0  0  0  0  0  0
   -2.4462   25.8767  -24.7825 H   0  0  0  0  0  0  0  0  0  0  0  0
   -0.5381   27.2939  -25.2756 H   0  0  0  0  0  0  0  0  0  0  0  0
    0.3906   27.2762  -27.7363 H   0  0  0  0  0  0  0  0  0  0  0  0
   -6.4600   25.5807  -29.4819 H   0  0  0  0  0  0  0  0  0  0  0  0
   -5.7882   26.1860  -31.0340 H   0  0  0  0  0  0  0  0  0  0  0  0
   -6.9748   24.8373  -31.0340 H   0  0  0  0  0  0  0  0  0  0  0  0
  1  2  1  0
  2  3  1  0
  3  4  1  0
  4  5  1  0
  3  6  1  0
  6  7  1  0
  7  8  1  0
  8  9  1  0
  9 10  1  0
 10 11  1  0
 11 12  1  0
 12 13  2  0
 13 14  1  0
 14 15  1  0
 15 16  1  0
 16 17  2  0
 17 18  1  0
 18 19  2  0
 19 20  1  0
 13 21  1  0
 21 22  1  0
 21 23  2  0
 23 11  1  0
 20 16  1  0
  1 24  1  0
  1 25  1  0
  1 26  1  0
  2 27  1  0
  2 28  1  0
  4 29  1  0
  4 30  1  0
  5 31  1  0
  5 32  1  0
  5 33  1  0
  6 34  1  0
  6 35  1  0
  7 36  1  0
  7 37  1  0
  8 38  1  0
  9 39  1  0
  9 40  1  0
 10 41  1  0
 10 42  1  0
 12 43  1  0
 14 44  1  0
 15 45  1  0
 15 46  1  0
 17 47  1  0
 18 48  1  0
 19 49  1  0
 22 50  1  0
 22 51  1  0
 22 52  1  0
M  END
>  <smiles>  (6) 
CCN(CC)CCNCCn1cc(NCc2cccs2)c(C)n1

>  <score_type>  (6) 
oracle

>  <origin>  (6) 
adg

>  <m_score__min__energy>  (6) 
-7.3399999999999999

>  <m_primary>  (6) 
energy

$$$$
7:0
     RDKit          3D

 85 89  0  0  0  0  0  0  0  0999 V2000
   -5.9790   17.9830  -34.7940 C   0  0  0  0  0  0  0  0  0  0  0  0
   -6.8680   17.7400  -33.6230 C   0  0  0  0  0  0  0  0  0  0  0  0
   -7.0760   18.8530  -32.7460 N   0  0  0  0  0  0  0  0  0  0  0  0
   -8.3410   18.9300  -32.1080 C   0  0  0  0  0  0  0  0  0  0  0  0
   -9.2030   20.0950  -32.4170 C   0  0  0  0  0  0  0  0  0  0  0  0
   -6.0890   18.6740  -31.6650 C   0  0  0  0  0  0  0  0  0  0  0  0
   -5.9270   17.1880  -31.3420 C   0  0  0  0  0  0  0  0  0  0  0  0
   -6.6660   20.0460  -33.4640 C   0  0  0  0  0  0  0  0  0  0  0  0
   -6.0010   21.0840  -32.6480 C   0  0  0  0  0  0  0  0  0  0  0  0
   -4.7340   21.5690  -33.0910 N   0  0  0  0  0  0  0  0  0  0  0  0
   -3.5280   21.1660  -32.4910 C   0  0  0  0  0  0  0  0  0  0  0  0
   -2.7920   20.0550  -32.8280 C   0  0  0  0  0  0  0  0  0  0  0  0
   -3.2600   19.2900  -33.8760 C   0  0  0  0  0  0  0  0  0  0  0  0
   -2.5620   18.1670  -34.2600 C   0  0  0  0  0  0  0  0  0  0  0  0
   -1.4140   17.8150  -33.6060 C   0  0  0  0  0  0  0  0  0  0  0  0
   -0.9620   18.6110  -32.5470 C   0  0  0  0  0  0  0  0  0  0  0  0
   -1.6260   19.7370  -32.1330 C   0  0  0  0  0  0  0  0  0  0  0  0
   -1.1560   20.4760  -31.1160 N   0  0  0  0  0  0  0  0  0  0  0  0
    0.0580   20.1690  -30.3970 C   0  0  0  0  0  0  0  0  0  0  0  0
   -1.8660   21.5650  -30.7750 C   0  0  0  0  0  0  0  0  0  0  0  0
   -3.0430   21.9270  -31.4420 C   0  0  0  0  0  0  0  0  0  0  0  0
   -3.5180   23.0240  -30.9020 O   0  0  0  0  0  0  0  0  0  0  0  0
   -2.7810   23.4590  -29.9190 C   0  0  0  0  0  0  0  0  0  0  0  0
   -2.9270   24.5600  -29.1020 C   0  0  0  0  0  0  0  0  0  0  0  0
   -1.9890   24.8000  -28.1180 C   0  0  0  0  0  0  0  0  0  0  0  0
   -0.9470   23.9070  -28.0120 C   0  0  0  0  0  0  0  0  0  0  0  0
   -0.0110   24.1870  -26.9960 O   0  0  0  0  0  0  0  0  0  0  0  0
    0.1140   23.2450  -25.9470 C   0  0  0  0  0  0  0  0  0  0  0  0
    0.2370   23.9430  -24.5990 C   0  0  0  0  0  0  0  0  0  0  0  0
   -0.8780   24.9600  -24.5300 C   0  0  0  0  0  0  0  0  0  0  0  0
   -0.4070   26.3080  -24.4590 N   0  0  0  0  0  0  0  0  0  0  0  0
   -0.4280   26.7730  -23.0650 C   0  0  0  0  0  0  0  0  0  0  0  0
    0.9230   26.4870  -25.0000 C   0  0  0  0  0  0  0  0  0  0  0  0
    0.8620   27.7090  -25.9010 C   0  0  0  0  0  0  0  0  0  0  0  0
   -0.5600   27.6110  -26.4300 C   0  0  0  0  0  0  0  0  0  0  0  0
   -1.3070   27.1590  -25.1970 C   0  0  0  0  0  0  0  0  0  0  0  0
   -0.8040   22.8050  -28.8360 C   0  0  0  0  0  0  0  0  0  0  0  0
   -1.7350   22.5670  -29.8130 C   0  0  0  0  0  0  0  0  0  0  0  0
   -4.9741   18.2577  -34.4407 H   0  0  0  0  0  0  0  0  0  0  0  0
   -5.9165   17.0690  -35.4028 H   0  0  0  0  0  0  0  0  0  0  0  0
   -6.3901   18.8017  -35.4028 H   0  0  0  0  0  0  0  0  0  0  0  0
   -7.8502   17.4266  -34.0065 H   0  0  0  0  0  0  0  0  0  0  0  0
   -6.3551   16.9789  -33.0166 H   0  0  0  0  0  0  0  0  0  0  0  0
   -8.9024   18.0249  -32.3830 H   0  0  0  0  0  0  0  0  0  0  0  0
   -8.1050   19.0370  -31.0390 H   0  0  0  0  0  0  0  0  0  0  0  0
   -9.5449   20.5571  -31.4792 H   0  0  0  0  0  0  0  0  0  0  0  0
   -8.6300   20.8306  -33.0006 H   0  0  0  0  0  0  0  0  0  0  0  0
  -10.0740   19.7621  -33.0006 H   0  0  0  0  0  0  0  0  0  0  0  0
   -5.1200   19.0844  -31.9854 H   0  0  0  0  0  0  0  0  0  0  0  0
   -6.4401   19.2017  -30.7659 H   0  0  0  0  0  0  0  0  0  0  0  0
   -5.9119   17.0495  -30.2509 H   0  0  0  0  0  0  0  0  0  0  0  0
   -6.7691   16.6255  -31.7714 H   0  0  0  0  0  0  0  0  0  0  0  0
   -4.9834   16.8202  -31.7714 H   0  0  0  0  0  0  0  0  0  0  0  0
   -5.9684   19.7406  -34.2578 H   0  0  0  0  0  0  0  0  0  0  0  0
   -7.5923   20.5052  -33.8396 H   0  0  0  0  0  0  0  0  0  0  0  0
   -6.6821   21.9462  -32.5955 H   0  0  0  0  0  0  0  0  0  0  0  0
   -5.7878   20.5881  -31.6896 H   0  0  0  0  0  0  0  0  0  0  0  0
   -4.6390   22.2590  -33.8990 H   0  0  0  0  0  0  0  0  0  0  0  0
   -4.1837   19.5749  -34.4009 H   0  0  0  0  0  0  0  0  0  0  0  0
   -2.9287   17.5516  -35.0948 H   0  0  0  0  0  0  0  0  0  0  0  0
   -0.8531   16.9182  -33.9080 H   0  0  0  0  0  0  0  0  0  0  0  0
   -0.0373   18.3217  -32.0262 H   0  0  0  0  0  0  0  0  0  0  0  0
   -0.1344   20.2176  -29.3150 H   0  0  0  0  0  0  0  0  0  0  0  0
    0.3964   19.1570  -30.6641 H   0  0  0  0  0  0  0  0  0  0  0  0
    0.8368   20.8985  -30.6641 H   0  0  0  0  0  0  0  0  0  0  0  0
   -3.7818   25.2399  -29.2329 H   0  0  0  0  0  0  0  0  0  0  0  0
   -2.0708   25.6679  -27.4472 H   0  0  0  0  0  0  0  0  0  0  0  0
   -0.7752   22.5975  -25.9371 H   0  0  0  0  0  0  0  0  0  0  0  0
    1.0227   22.6490  -26.1174 H   0  0  0  0  0  0  0  0  0  0  0  0
    0.1338   23.2121  -23.7834 H   0  0  0  0  0  0  0  0  0  0  0  0
    1.2192   24.4268  -24.4935 H   0  0  0  0  0  0  0  0  0  0  0  0
   -1.5032   24.8550  -25.4290 H   0  0  0  0  0  0  0  0  0  0  0  0
   -1.4441   24.7625  -23.6078 H   0  0  0  0  0  0  0  0  0  0  0  0
   -0.3889   25.9063  -22.3887 H   0  0  0  0  0  0  0  0  0  0  0  0
    0.4418   27.4209  -22.8814 H   0  0  0  0  0  0  0  0  0  0  0  0
   -1.3527   27.3398  -22.8814 H   0  0  0  0  0  0  0  0  0  0  0  0
    1.6452   26.6504  -24.1865 H   0  0  0  0  0  0  0  0  0  0  0  0
    1.2480   25.5969  -25.5587 H   0  0  0  0  0  0  0  0  0  0  0  0
    1.0181   28.6378  -25.3327 H   0  0  0  0  0  0  0  0  0  0  0  0
    1.6352   27.7340  -26.6830 H   0  0  0  0  0  0  0  0  0  0  0  0
   -0.9246   28.5857  -26.7865 H   0  0  0  0  0  0  0  0  0  0  0  0
   -0.6726   26.9405  -27.2947 H   0  0  0  0  0  0  0  0  0  0  0  0
   -1.5935   28.0283  -24.5868 H   0  0  0  0  0  0  0  0  0  0  0  0
   -2.2290   26.6227  -25.4661 H   0  0  0  0  0  0  0  0  0  0  0  0
    0.0509   22.1247  -28.7079 H   0  0  0  0  0  0  0  0  0  0  0  0
  1  2  1  0
  2  3  1  0
  3  4  1  0
  4  5  1  0
  3  6  1  0
  6  7  1  0
  3  8  1  0
  8  9  1  0
  9 10  1  0
 10 11  1  0
 11 12  2  0
 12 13  1  0
 13 14  2  0
 14 15  1  0
 15 16  2  0
 16 17  1  0
 17 18  2  0
 18 19  1  0
 18 20  1  0
 20 21  2  0
 21 22  1  0
 22 23  1  0
 23 24  2  0
 24 25  1  0
 25 26  2  0
 26 27  1  0
 27 28  1  0
 28 29  1  0
 29 30  1  0
 30 31  1  0
 31 32  1  0
 31 33  1  0
 33 34  1  0
 34 35  1  0
 35 36  1  0
 26 37  1  0
 37 38  2  0
 21 11  1  0
 38 23  1  0
 17 12  1  0
 38 20  1  0
 36 31  1  0
  1 39  1  0
  1 40  1  0
  1 41  1  0
  2 42  1  0
  2 43  1  0
  4 44  1  0
  4 45  1  0
  5 46  1  0
  5 47  1  0
  5 48  1  0
  6 49  1  0
  6 50  1  0
  7 51  1  0
  7 52  1  0
  7 53  1  0
  8 54  1  0
  8 55  1  0
  9 56  1  0
  9 57  1  0
 10 58  1  0
 13 59  1  0
 14 60  1  0
 15 61  1  0
 16 62  1  0
 19 63  1  0
 19 64  1  0
 19 65  1  0
 24 66  1  0
 25 67  1  0
 28 68  1  0
 28 69  1  0
 29 70  1  0
 29 71  1  0
 30 72  1  0
 30 73  1  0
 32 74  1  0
 32 75  1  0
 32 76  1  0
 33 77  1  0
 33 78  1  0
 34 79  1  0
 34 80  1  0
 35 81  1  0
 35 82  1  0
 36 83  1  0
 36 84  1  0
 37 85  1  0
M  CHG  3   3   1  18   1  31   1
M  END
>  <smiles>  (7) 
CC[N+](CC)(CC)CCNc1c2ccccc2[n+](C)c2c1oc1ccc(OCCC[N+]3(C)CCCC3)cc12

>  <score_type>  (7) 
oracle

>  <origin>  (7) 
adg

>  <m_score__min__energy>  (7) 
-8.4000000000000004

>  <m_primary>  (7) 
energy

$$$$
8:0
     RDKit          3D

 45 47  0  0  0  0  0  0  0  0999 V2000
   -9.1340   21.5430  -30.5180 C   0  0  0  0  0  0  0  0  0  0  0  0
   -7.6520   21.6460  -30.8660 C   0  0  0  0  0  0  0  0  0  0  0  0
   -7.3770   21.4540  -32.2180 N   0  0  0  0  0  0  0  0  0  0  0  0
   -7.9780   20.2850  -32.7800 C   0  0  0  0  0  0  0  0  0  0  0  0
   -7.1300   19.0770  -32.7680 C   0  0  0  0  0  0  0  0  0  0  0  0
   -6.9600   18.3650  -31.5940 C   0  0  0  0  0  0  0  0  0  0  0  0
   -6.1800   17.2320  -31.5040 C   0  0  0  0  0  0  0  0  0  0  0  0
   -5.5310   16.7680  -32.6170 C   0  0  0  0  0  0  0  0  0  0  0  0
   -5.7020   17.4800  -33.7870 C   0  0  0  0  0  0  0  0  0  0  0  0
   -6.4690   18.6030  -33.8960 C   0  0  0  0  0  0  0  0  0  0  0  0
   -6.0480   21.6670  -32.6840 C   0  0  0  0  0  0  0  0  0  0  0  0
   -5.2490   22.6570  -31.9480 C   0  0  0  0  0  0  0  0  0  0  0  0
   -5.8170   23.9180  -31.6920 C   0  0  0  0  0  0  0  0  0  0  0  0
   -5.1680   24.8640  -30.9320 C   0  0  0  0  0  0  0  0  0  0  0  0
   -5.7100   25.9960  -30.7190 O   0  0  0  0  0  0  0  0  0  0  0  0
   -3.9890   24.5910  -30.4300 O   0  0  0  0  0  0  0  0  0  0  0  0
   -3.3950   23.4300  -30.6300 C   0  0  0  0  0  0  0  0  0  0  0  0
   -2.1580   23.2730  -30.0560 C   0  0  0  0  0  0  0  0  0  0  0  0
   -1.4850   22.0890  -30.2380 C   0  0  0  0  0  0  0  0  0  0  0  0
   -2.1000   21.1230  -30.9950 C   0  0  0  0  0  0  0  0  0  0  0  0
   -3.3380   21.2680  -31.5740 C   0  0  0  0  0  0  0  0  0  0  0  0
   -3.8490   20.2470  -32.3070 O   0  0  0  0  0  0  0  0  0  0  0  0
   -3.2450   19.6670  -33.4370 C   0  0  0  0  0  0  0  0  0  0  0  0
   -4.0140   22.4490  -31.3920 C   0  0  0  0  0  0  0  0  0  0  0  0
   -9.2542   21.5346  -29.4246 H   0  0  0  0  0  0  0  0  0  0  0  0
   -9.6704   22.4060  -30.9392 H   0  0  0  0  0  0  0  0  0  0  0  0
   -9.5459   20.6141  -30.9392 H   0  0  0  0  0  0  0  0  0  0  0  0
   -7.2971   22.6467  -30.5787 H   0  0  0  0  0  0  0  0  0  0  0  0
   -7.1377   20.8431  -30.3174 H   0  0  0  0  0  0  0  0  0  0  0  0
   -8.8928   20.0647  -32.2102 H   0  0  0  0  0  0  0  0  0  0  0  0
   -8.1661   20.5164  -33.8388 H   0  0  0  0  0  0  0  0  0  0  0  0
   -7.4724   18.7205  -30.6879 H   0  0  0  0  0  0  0  0  0  0  0  0
   -6.0795   16.7040  -30.5443 H   0  0  0  0  0  0  0  0  0  0  0  0
   -4.9009   15.8671  -32.5802 H   0  0  0  0  0  0  0  0  0  0  0  0
   -5.1869   17.1189  -34.6893 H   0  0  0  0  0  0  0  0  0  0  0  0
   -6.5630   19.1247  -34.8598 H   0  0  0  0  0  0  0  0  0  0  0  0
   -5.5175   20.7047  -32.6342 H   0  0  0  0  0  0  0  0  0  0  0  0
   -6.1560   22.0751  -33.6998 H   0  0  0  0  0  0  0  0  0  0  0  0
   -6.8065   24.1543  -32.1105 H   0  0  0  0  0  0  0  0  0  0  0  0
   -1.7124   24.0827  -29.4595 H   0  0  0  0  0  0  0  0  0  0  0  0
   -0.4924   21.9218  -29.7945 H   0  0  0  0  0  0  0  0  0  0  0  0
   -1.5681   20.1724  -31.1479 H   0  0  0  0  0  0  0  0  0  0  0  0
   -2.4865   18.9387  -33.1141 H   0  0  0  0  0  0  0  0  0  0  0  0
   -4.0101   19.1565  -34.0403 H   0  0  0  0  0  0  0  0  0  0  0  0
   -2.7660   20.4522  -34.0403 H   0  0  0  0  0  0  0  0  0  0  0  0
  1  2  1  0
  2  3  1  0
  3  4  1  0
  4  5  1  0
  5  6  2  0
  6  7  1  0
  7  8  2  0
  8  9  1  0
  9 10  2  0
  3 11  1  0
 11 12  1  0
 12 13  2  0
 13 14  1  0
 14 15  2  0
 14 16  1  0
 16 17  1  0
 17 18  2  0
 18 19  1  0
 19 20  2  0
 20 21  1  0
 21 22  1  0
 22 23  1  0
 21 24  2  0
 10  5  1  0
 24 12  1  0
 24 17  1  0
  1 25  1  0
  1 26  1  0
  1 27  1  0
  2 28  1  0
  2 29  1  0
  4 30  1  0
  4 31  1  0
  6 32  1  0
  7 33  1  0
  8 34  1  0
  9 35  1  0
 10 36  1  0
 11 37  1  0
 11 38  1  0
 13 39  1  0
 18 40  1  0
 19 41  1  0
 20 42  1  0
 23 43  1  0
 23 44  1  0
 23 45  1  0
M  END
>  <smiles>  (8) 
CCN(Cc1ccccc1)Cc1cc(=O)oc2cccc(OC)c12

>  <score_type>  (8) 
oracle

>  <origin>  (8) 
adg

>  <m_score__min__energy>  (8) 
-7.96

>  <m_primary>  (8) 
energy

$$$$
9:0
     RDKit          3D

 22 23  0  0  0  0  0  0  0  0999 V2000
   -7.8260   19.3260  -32.7320 C   0  0  0  0  0  0  0  0  0  0  0  0
   -7.4790   20.6440  -32.0990 C   0  0  0  0  0  0  0  0  0  0  0  0
   -8.4400   21.3810  -31.4400 C   0  0  0  0  0  0  0  0  0  0  0  0
   -8.0950   22.6060  -30.8570 C   0  0  0  0  0  0  0  0  0  0  0  0
   -6.7810   23.0480  -30.9640 C   0  0  0  0  0  0  0  0  0  0  0  0
   -5.8350   22.2930  -31.6290 C   0  0  0  0  0  0  0  0  0  0  0  0
   -6.1610   21.0670  -32.2150 C   0  0  0  0  0  0  0  0  0  0  0  0
   -4.5440   22.9750  -31.5950 C   0  0  0  0  0  0  0  0  0  0  0  0
   -3.4370   22.6350  -32.0750 O   0  0  0  0  0  0  0  0  0  0  0  0
   -4.8000   24.2220  -30.8420 C   0  0  0  0  0  0  0  0  0  0  0  0
   -3.9210   25.1090  -30.5880 O   0  0  0  0  0  0  0  0  0  0  0  0
   -6.1870   24.2430  -30.4640 N   0  0  0  0  0  0  0  0  0  0  0  0
   -6.8210   25.3020  -29.7130 C   0  0  0  0  0  0  0  0  0  0  0  0
   -8.0219   18.5820  -31.9459 H   0  0  0  0  0  0  0  0  0  0  0  0
   -8.7236   19.4443  -33.3567 H   0  0  0  0  0  0  0  0  0  0  0  0
   -6.9865   18.9870  -33.3567 H   0  0  0  0  0  0  0  0  0  0  0  0
   -9.4727   21.0082  -31.3727 H   0  0  0  0  0  0  0  0  0  0  0  0
   -8.8478   23.2065  -30.3253 H   0  0  0  0  0  0  0  0  0  0  0  0
   -5.4081   20.4643  -32.7441 H   0  0  0  0  0  0  0  0  0  0  0  0
   -6.7050   25.1082  -28.6364 H   0  0  0  0  0  0  0  0  0  0  0  0
   -6.3497   26.2634  -29.9654 H   0  0  0  0  0  0  0  0  0  0  0  0
   -7.8910   25.3407  -29.9654 H   0  0  0  0  0  0  0  0  0  0  0  0
  1  2  1  0
  2  3  2  0
  3  4  1  0
  4  5  2  0
  5  6  1  0
  6  7  2  0
  6  8  1  0
  8  9  2  0
  8 10  1  0
 10 11  2  0
 10 12  1  0
 12 13  1  0
  7  2  1  0
 12  5  1  0
  1 14  1  0
  1 15  1  0
  1 16  1  0
  3 17  1  0
  4 18  1  0
  7 19  1  0
 13 20  1  0
 13 21  1  0
 13 22  1  0
M  END
>  <smiles>  (9) 
Cc1ccc2c(c1)C(=O)C(=O)N2C

>  <score_type>  (9) 
oracle

>  <origin>  (9) 
adg

>  <m_score__min__energy>  (9) 
-6.4100000000000001

>  <m_primary>  (9) 
energy

$$$$
10:0
     RDKit          3D

 55 58  0  0  0  0  0  0  0  0999 V2000
    1.2120   24.1790  -36.3630 C   0  0  0  0  0  0  0  0  0  0  0  0
    0.4880   23.1300  -35.6760 N   0  0  0  0  0  0  0  0  0  0  0  0
    1.2670   21.8910  -35.7080 C   0  0  0  0  0  0  0  0  0  0  0  0
    0.4740   20.7770  -35.0600 C   0  0  0  0  0  0  0  0  0  0  0  0
   -0.8670   21.2090  -34.6820 N   0  0  0  0  0  0  0  0  0  0  0  0
   -1.8230   20.2530  -34.1950 C   0  0  0  0  0  0  0  0  0  0  0  0
   -1.7020   18.9280  -34.5600 C   0  0  0  0  0  0  0  0  0  0  0  0
   -2.6010   17.9570  -34.1180 C   0  0  0  0  0  0  0  0  0  0  0  0
   -3.6190   18.4010  -33.2930 C   0  0  0  0  0  0  0  0  0  0  0  0
   -3.7550   19.7210  -32.9180 C   0  0  0  0  0  0  0  0  0  0  0  0
   -2.8480   20.6530  -33.3750 C   0  0  0  0  0  0  0  0  0  0  0  0
   -3.2250   21.8250  -32.8580 N   0  0  0  0  0  0  0  0  0  0  0  0
   -4.3340   21.6230  -32.1030 C   0  0  0  0  0  0  0  0  0  0  0  0
   -4.9900   22.7240  -31.4010 C   0  0  0  0  0  0  0  0  0  0  0  0
   -4.6170   22.9560  -30.0790 C   0  0  0  0  0  0  0  0  0  0  0  0
   -5.1890   23.9800  -29.3370 C   0  0  0  0  0  0  0  0  0  0  0  0
   -6.1350   24.7710  -29.9220 C   0  0  0  0  0  0  0  0  0  0  0  0
   -6.4950   24.5300  -31.2290 C   0  0  0  0  0  0  0  0  0  0  0  0
   -5.9450   23.5220  -31.9900 C   0  0  0  0  0  0  0  0  0  0  0  0
   -4.6740   20.3140  -32.1330 N   0  0  0  0  0  0  0  0  0  0  0  0
   -5.8040   19.7800  -31.4340 C   0  0  0  0  0  0  0  0  0  0  0  0
   -7.0120   19.5350  -32.2820 C   0  0  0  0  0  0  0  0  0  0  0  0
   -8.1270   18.8100  -31.6010 C   0  0  0  0  0  0  0  0  0  0  0  0
   -9.3530   18.9680  -32.5090 C   0  0  0  0  0  0  0  0  0  0  0  0
   -9.8600   20.2750  -32.3320 O   0  0  0  0  0  0  0  0  0  0  0  0
   -8.8450   21.1550  -31.9620 C   0  0  0  0  0  0  0  0  0  0  0  0
   -7.5530   20.8860  -32.7080 C   0  0  0  0  0  0  0  0  0  0  0  0
    1.6748   24.8496  -35.6240 H   0  0  0  0  0  0  0  0  0  0  0  0
    1.9948   23.7320  -36.9934 H   0  0  0  0  0  0  0  0  0  0  0  0
    0.5164   24.7523  -36.9934 H   0  0  0  0  0  0  0  0  0  0  0  0
   -0.4580   22.9400  -36.0840 H   0  0  0  0  0  0  0  0  0  0  0  0
    1.4878   21.6240  -36.7520 H   0  0  0  0  0  0  0  0  0  0  0  0
    2.2088   22.0369  -35.1587 H   0  0  0  0  0  0  0  0  0  0  0  0
    0.3908   19.9409  -35.7699 H   0  0  0  0  0  0  0  0  0  0  0  0
    1.0029   20.4712  -34.1452 H   0  0  0  0  0  0  0  0  0  0  0  0
   -1.1440   22.2100  -34.7600 H   0  0  0  0  0  0  0  0  0  0  0  0
   -0.8731   18.6286  -35.2183 H   0  0  0  0  0  0  0  0  0  0  0  0
   -2.5060   16.9003  -34.4084 H   0  0  0  0  0  0  0  0  0  0  0  0
   -4.3513   17.6697  -32.9202 H   0  0  0  0  0  0  0  0  0  0  0  0
   -3.8538   22.3148  -29.6139 H   0  0  0  0  0  0  0  0  0  0  0  0
   -4.8847   24.1514  -28.2939 H   0  0  0  0  0  0  0  0  0  0  0  0
   -6.6036   25.5902  -29.3569 H   0  0  0  0  0  0  0  0  0  0  0  0
   -7.2594   25.1741  -31.6881 H   0  0  0  0  0  0  0  0  0  0  0  0
   -6.2579   23.3602  -33.0321 H   0  0  0  0  0  0  0  0  0  0  0  0
   -5.5047   18.8232  -30.9814 H   0  0  0  0  0  0  0  0  0  0  0  0
   -6.0959   20.5398  -30.6941 H   0  0  0  0  0  0  0  0  0  0  0  0
   -6.6805   18.8962  -33.1139 H   0  0  0  0  0  0  0  0  0  0  0  0
   -7.8744   17.7460  -31.4821 H   0  0  0  0  0  0  0  0  0  0  0  0
   -8.3158   19.2154  -30.5960 H   0  0  0  0  0  0  0  0  0  0  0  0
   -9.0617   18.8193  -33.5593 H   0  0  0  0  0  0  0  0  0  0  0  0
  -10.1191   18.2220  -32.2510 H   0  0  0  0  0  0  0  0  0  0  0  0
   -9.1713   22.1830  -32.1782 H   0  0  0  0  0  0  0  0  0  0  0  0
   -8.6506   21.0138  -30.8886 H   0  0  0  0  0  0  0  0  0  0  0  0
   -7.7459   20.8817  -33.7909 H   0  0  0  0  0  0  0  0  0  0  0  0
   -6.8185   21.6714  -32.4765 H   0  0  0  0  0  0  0  0  0  0  0  0
  1  2  1  0
  2  3  1  0
  3  4  1  0
  4  5  1  0
  5  6  1  0
  6  7  2  0
  7  8  1  0
  8  9  2  0
  9 10  1  0
 10 11  2  0
 11 12  1  0
 12 13  2  0
 13 14  1  0
 14 15  2  0
 15 16  1  0
 16 17  2  0
 17 18  1  0
 18 19  2  0
 13 20  1  0
 20 21  1  0
 21 22  1  0
 22 23  1  0
 23 24  1  0
 24 25  1  0
 25 26  1  0
 26 27  1  0
 11  6  1  0
 19 14  1  0
 27 22  1  0
 20 10  1  0
  1 28  1  0
  1 29  1  0
  1 30  1  0
  2 31  1  0
  3 32  1  0
  3 33  1  0
  4 34  1  0
  4 35  1  0
  5 36  1  0
  7 37  1  0
  8 38  1  0
  9 39  1  0
 15 40  1  0
 16 41  1  0
 17 42  1  0
 18 43  1  0
 19 44  1  0
 21 45  1  0
 21 46  1  0
 22 47  1  0
 23 48  1  0
 23 49  1  0
 24 50  1  0
 24 51  1  0
 26 52  1  0
 26 53  1  0
 27 54  1  0
 27 55  1  0
M  END
>  <smiles>  (10) 
CNCCNc1cccc2c1nc(-c1ccccc1)n2CC1CCOCC1

>  <score_type>  (10) 
oracle

>  <origin>  (10) 
adg

>  <m_score__min__energy>  (10) 
-9.7699999999999996

>  <m_primary>  (10) 
energy

$$$$
11:0
     RDKit          3D

 50 51  0  0  0  0  0  0  0  0999 V2000
   -2.8400   21.2340  -28.5680 C   0  0  0  0  0  0  0  0  0  0  0  0
   -3.4250   21.4010  -29.9640 C   0  0  0  0  0  0  0  0  0  0  0  0
   -2.6970   22.4790  -30.6800 N   0  0  0  0  0  0  0  0  0  0  0  0
   -1.6010   21.8440  -31.3310 C   0  0  0  0  0  0  0  0  0  0  0  0
   -1.8510   21.2840  -32.6820 C   0  0  0  0  0  0  0  0  0  0  0  0
   -2.3140   23.3730  -29.5750 C   0  0  0  0  0  0  0  0  0  0  0  0
   -3.1950   24.5350  -29.3880 C   0  0  0  0  0  0  0  0  0  0  0  0
   -3.8590   24.9030  -30.6180 N   0  0  0  0  0  0  0  0  0  0  0  0
   -5.2320   25.1970  -30.3770 C   0  0  0  0  0  0  0  0  0  0  0  0
   -6.0990   23.9950  -30.6010 C   0  0  0  0  0  0  0  0  0  0  0  0
   -6.3930   23.8100  -32.0690 C   0  0  0  0  0  0  0  0  0  0  0  0
   -6.2210   22.3480  -32.3260 C   0  0  0  0  0  0  0  0  0  0  0  0
   -5.1170   21.6230  -32.7050 C   0  0  0  0  0  0  0  0  0  0  0  0
   -5.4890   20.3300  -32.8840 N   0  0  0  0  0  0  0  0  0  0  0  0
   -4.6580   19.2020  -33.2920 C   0  0  0  0  0  0  0  0  0  0  0  0
   -6.8090   20.2180  -32.6250 C   0  0  0  0  0  0  0  0  0  0  0  0
   -7.6810   19.1480  -32.6370 C   0  0  0  0  0  0  0  0  0  0  0  0
   -9.0320   19.2910  -32.3100 C   0  0  0  0  0  0  0  0  0  0  0  0
   -9.4780   20.5600  -31.9600 C   0  0  0  0  0  0  0  0  0  0  0  0
   -8.6110   21.6230  -31.9480 C   0  0  0  0  0  0  0  0  0  0  0  0
   -7.2730   21.4610  -32.2810 C   0  0  0  0  0  0  0  0  0  0  0  0
   -3.6134   21.4548  -27.8175 H   0  0  0  0  0  0  0  0  0  0  0  0
   -2.4886   20.1997  -28.4390 H   0  0  0  0  0  0  0  0  0  0  0  0
   -1.9955   21.9269  -28.4390 H   0  0  0  0  0  0  0  0  0  0  0  0
   -3.3223   20.4574  -30.5199 H   0  0  0  0  0  0  0  0  0  0  0  0
   -4.4896   21.6666  -29.8861 H   0  0  0  0  0  0  0  0  0  0  0  0
   -0.7950   22.5868  -31.4239 H   0  0  0  0  0  0  0  0  0  0  0  0
   -1.3608   20.9742  -30.7019 H   0  0  0  0  0  0  0  0  0  0  0  0
   -2.2977   20.2833  -32.5872 H   0  0  0  0  0  0  0  0  0  0  0  0
   -2.5404   21.9429  -33.2302 H   0  0  0  0  0  0  0  0  0  0  0  0
   -0.9002   21.2106  -33.2302 H   0  0  0  0  0  0  0  0  0  0  0  0
   -2.3180   22.7873  -28.6439 H   0  0  0  0  0  0  0  0  0  0  0  0
   -1.3224   23.7744  -29.8312 H   0  0  0  0  0  0  0  0  0  0  0  0
   -3.9551   24.2886  -28.6320 H   0  0  0  0  0  0  0  0  0  0  0  0
   -2.5781   25.3855  -29.0624 H   0  0  0  0  0  0  0  0  0  0  0  0
   -3.7900   24.1710  -31.3410 H   0  0  0  0  0  0  0  0  0  0  0  0
   -5.3482   25.5325  -29.3359 H   0  0  0  0  0  0  0  0  0  0  0  0
   -5.5448   25.9837  -31.0793 H   0  0  0  0  0  0  0  0  0  0  0  0
   -5.5811   23.1016  -30.2219 H   0  0  0  0  0  0  0  0  0  0  0  0
   -7.0497   24.1429  -30.0679 H   0  0  0  0  0  0  0  0  0  0  0  0
   -7.4225   24.1227  -32.2979 H   0  0  0  0  0  0  0  0  0  0  0  0
   -5.7274   24.4177  -32.6997 H   0  0  0  0  0  0  0  0  0  0  0  0
   -4.1015   22.0235  -32.8407 H   0  0  0  0  0  0  0  0  0  0  0  0
   -4.2772   18.6851  -32.3988 H   0  0  0  0  0  0  0  0  0  0  0  0
   -5.2583   18.5026  -33.8924 H   0  0  0  0  0  0  0  0  0  0  0  0
   -3.8121   19.5680  -33.8924 H   0  0  0  0  0  0  0  0  0  0  0  0
   -7.3010   18.1531  -32.9122 H   0  0  0  0  0  0  0  0  0  0  0  0
   -9.7174   18.4308  -32.3289 H   0  0  0  0  0  0  0  0  0  0  0  0
  -10.5335   20.7130  -31.6908 H   0  0  0  0  0  0  0  0  0  0  0  0
   -8.9821   22.6204  -31.6699 H   0  0  0  0  0  0  0  0  0  0  0  0
  1  2  1  0
  2  3  1  0
  3  4  1  0
  4  5  1  0
  3  6  1  0
  6  7  1  0
  7  8  1  0
  8  9  1  0
  9 10  1  0
 10 11  1  0
 11 12  1  0
 12 13  2  0
 13 14  1  0
 14 15  1  0
 14 16  1  0
 16 17  2  0
 17 18  1  0
 18 19  2  0
 19 20  1  0
 20 21  2  0
 21 12  1  0
 21 16  1  0
  1 22  1  0
  1 23  1  0
  1 24  1  0
  2 25  1  0
  2 26  1  0
  4 27  1  0
  4 28  1  0
  5 29  1  0
  5 30  1  0
  5 31  1  0
  6 32  1  0
  6 33  1  0
  7 34  1  0
  7 35  1  0
  8 36  1  0
  9 37  1  0
  9 38  1  0
 10 39  1  0
 10 40  1  0
 11 41  1  0
 11 42  1  0
 13 43  1  0
 15 44  1  0
 15 45  1  0
 15 46  1  0
 17 47  1  0
 18 48  1  0
 19 49  1  0
 20 50  1  0
M  END
>  <smiles>  (11) 
CCN(CC)CCNCCCc1cn(C)c2ccccc12

>  <score_type>  (11) 
oracle

>  <origin>  (11) 
adg

>  <m_score__min__energy>  (11) 
-8.0899999999999999

>  <m_primary>  (11) 
energy

$$$$
12:0
     RDKit          3D

 55 56  0  0  0  0  0  0  0  0999 V2000
   -9.4910   20.8190  -32.1930 C   0  0  0  0  0  0  0  0  0  0  0  0
   -9.3410   19.3910  -32.6550 C   0  0  0  0  0  0  0  0  0  0  0  0
   -8.0460   19.0000  -32.9990 N   0  0  0  0  0  0  0  0  0  0  0  0
   -7.6110   17.6980  -32.6960 C   0  0  0  0  0  0  0  0  0  0  0  0
   -6.4250   17.2530  -33.4480 C   0  0  0  0  0  0  0  0  0  0  0  0
   -5.6490   18.4640  -33.8600 N   0  0  0  0  0  0  0  0  0  0  0  0
   -4.6890   17.9860  -34.8870 C   0  0  0  0  0  0  0  0  0  0  0  0
   -4.8750   18.8850  -32.6970 C   0  0  0  0  0  0  0  0  0  0  0  0
   -5.1860   20.3140  -32.3870 C   0  0  0  0  0  0  0  0  0  0  0  0
   -4.4650   21.3380  -32.9670 C   0  0  0  0  0  0  0  0  0  0  0  0
   -4.7170   22.6760  -32.6980 C   0  0  0  0  0  0  0  0  0  0  0  0
   -5.7320   22.9700  -31.8120 C   0  0  0  0  0  0  0  0  0  0  0  0
   -5.9630   24.4270  -31.5420 C   0  0  0  0  0  0  0  0  0  0  0  0
   -5.4660   24.8740  -30.3220 N   0  0  0  0  0  0  0  0  0  0  0  0
   -6.3020   25.6220  -29.4570 C   0  0  0  0  0  0  0  0  0  0  0  0
   -4.0850   24.9220  -30.0750 C   0  0  0  0  0  0  0  0  0  0  0  0
   -3.4940   23.6560  -29.6040 C   0  0  0  0  0  0  0  0  0  0  0  0
   -2.5000   22.9660  -30.2630 C   0  0  0  0  0  0  0  0  0  0  0  0
   -1.9990   21.7740  -29.7620 C   0  0  0  0  0  0  0  0  0  0  0  0
   -2.5100   21.2650  -28.5700 C   0  0  0  0  0  0  0  0  0  0  0  0
   -3.4920   21.9460  -27.9170 C   0  0  0  0  0  0  0  0  0  0  0  0
   -3.9960   23.1350  -28.4140 C   0  0  0  0  0  0  0  0  0  0  0  0
   -6.4900   21.9830  -31.1980 C   0  0  0  0  0  0  0  0  0  0  0  0
   -6.2070   20.6410  -31.4950 C   0  0  0  0  0  0  0  0  0  0  0  0
   -9.4943   20.8502  -31.0934 H   0  0  0  0  0  0  0  0  0  0  0  0
   -8.6508   21.4179  -32.5743 H   0  0  0  0  0  0  0  0  0  0  0  0
  -10.4373   21.2303  -32.5743 H   0  0  0  0  0  0  0  0  0  0  0  0
   -9.6880   18.7347  -31.8433 H   0  0  0  0  0  0  0  0  0  0  0  0
   -9.9342   19.3100  -33.5778 H   0  0  0  0  0  0  0  0  0  0  0  0
   -7.6700   19.3050  -33.9190 H   0  0  0  0  0  0  0  0  0  0  0  0
   -7.3709   17.6582  -31.6232 H   0  0  0  0  0  0  0  0  0  0  0  0
   -8.4309   17.0228  -32.9822 H   0  0  0  0  0  0  0  0  0  0  0  0
   -5.8002   16.6098  -32.8109 H   0  0  0  0  0  0  0  0  0  0  0  0
   -6.7317   16.6792  -34.3350 H   0  0  0  0  0  0  0  0  0  0  0  0
   -3.8098   17.5482  -34.3916 H   0  0  0  0  0  0  0  0  0  0  0  0
   -5.1733   17.2238  -35.5151 H   0  0  0  0  0  0  0  0  0  0  0  0
   -4.3727   18.8318  -35.5151 H   0  0  0  0  0  0  0  0  0  0  0  0
   -5.1378   18.2562  -31.8336 H   0  0  0  0  0  0  0  0  0  0  0  0
   -3.8012   18.7799  -32.9115 H   0  0  0  0  0  0  0  0  0  0  0  0
   -3.6585   21.0835  -33.6705 H   0  0  0  0  0  0  0  0  0  0  0  0
   -4.1281   23.4735  -33.1745 H   0  0  0  0  0  0  0  0  0  0  0  0
   -5.4792   25.0056  -32.3427 H   0  0  0  0  0  0  0  0  0  0  0  0
   -7.0532   24.5693  -31.5065 H   0  0  0  0  0  0  0  0  0  0  0  0
   -6.0464   25.3933  -28.4118 H   0  0  0  0  0  0  0  0  0  0  0  0
   -6.1555   26.6961  -29.6437 H   0  0  0  0  0  0  0  0  0  0  0  0
   -7.3532   25.3574  -29.6437 H   0  0  0  0  0  0  0  0  0  0  0  0
   -3.5805   25.2076  -31.0098 H   0  0  0  0  0  0  0  0  0  0  0  0
   -3.9421   25.6500  -29.2629 H   0  0  0  0  0  0  0  0  0  0  0  0
   -2.0964   23.3681  -31.2039 H   0  0  0  0  0  0  0  0  0  0  0  0
   -1.2055   21.2353  -30.3007 H   0  0  0  0  0  0  0  0  0  0  0  0
   -2.1233   20.3205  -28.1596 H   0  0  0  0  0  0  0  0  0  0  0  0
   -3.8927   21.5427  -26.9753 H   0  0  0  0  0  0  0  0  0  0  0  0
   -4.7908   23.6671  -27.8708 H   0  0  0  0  0  0  0  0  0  0  0  0
   -7.2939   22.2464  -30.4949 H   0  0  0  0  0  0  0  0  0  0  0  0
   -6.7947   19.8412  -31.0208 H   0  0  0  0  0  0  0  0  0  0  0  0
  1  2  1  0
  2  3  1  0
  3  4  1  0
  4  5  1  0
  5  6  1  0
  6  7  1  0
  6  8  1  0
  8  9  1  0
  9 10  2  0
 10 11  1  0
 11 12  2  0
 12 13  1  0
 13 14  1  0
 14 15  1  0
 14 16  1  0
 16 17  1  0
 17 18  2  0
 18 19  1  0
 19 20  2  0
 20 21  1  0
 21 22  2  0
 12 23  1  0
 23 24  2  0
 24  9  1  0
 22 17  1  0
  1 25  1  0
  1 26  1  0
  1 27  1  0
  2 28  1  0
  2 29  1  0
  3 30  1  0
  4 31  1  0
  4 32  1  0
  5 33  1  0
  5 34  1  0
  7 35  1  0
  7 36  1  0
  7 37  1  0
  8 38  1  0
  8 39  1  0
 10 40  1  0
 11 41  1  0
 13 42  1  0
 13 43  1  0
 15 44  1  0
 15 45  1  0
 15 46  1  0
 16 47  1  0
 16 48  1  0
 18 49  1  0
 19 50  1  0
 20 51  1  0
 21 52  1  0
 22 53  1  0
 23 54  1  0
 24 55  1  0
M  END
>  <smiles>  (12) 
CCNCCN(C)Cc1ccc(CN(C)Cc2ccccc2)cc1

>  <score_type>  (12) 
oracle

>  <origin>  (12) 
adg

>  <m_score__min__energy>  (12) 
-7.9699999999999998

>  <m_primary>  (12) 
energy

$$$$
13:0
     RDKit          3D

 57 61  0  0  0  0  0  0  0  0999 V2000
   -5.4000   25.3780  -30.5250 C   0  0  0  0  0  0  0  0  0  0  0  0
   -5.5190   24.1470  -29.6420 C   0  0  0  0  0  0  0  0  0  0  0  0
   -4.5520   23.1590  -29.9460 N   0  0  0  0  0  0  0  0  0  0  0  0
   -4.1110   22.3180  -28.8990 C   0  0  0  0  0  0  0  0  0  0  0  0
   -3.6690   23.4090  -31.0250 C   0  0  0  0  0  0  0  0  0  0  0  0
   -3.5480   22.2050  -31.8970 C   0  0  0  0  0  0  0  0  0  0  0  0
   -4.5270   22.1690  -32.9870 N   0  0  0  0  0  0  0  0  0  0  0  0
   -5.5790   21.1960  -32.8100 C   0  0  0  0  0  0  0  0  0  0  0  0
   -5.3370   19.8630  -33.0820 C   0  0  0  0  0  0  0  0  0  0  0  0
   -6.3150   18.8930  -32.9250 C   0  0  0  0  0  0  0  0  0  0  0  0
   -7.5550   19.2360  -32.4930 N   0  0  0  0  0  0  0  0  0  0  0  0
   -8.5320   18.2160  -32.3270 C   0  0  0  0  0  0  0  0  0  0  0  0
   -7.7870   20.5370  -32.2300 C   0  0  0  0  0  0  0  0  0  0  0  0
   -9.0350   20.9590  -31.7950 C   0  0  0  0  0  0  0  0  0  0  0  0
   -9.3080   22.2980  -31.5230 C   0  0  0  0  0  0  0  0  0  0  0  0
   -8.3240   23.2460  -31.6840 C   0  0  0  0  0  0  0  0  0  0  0  0
   -7.0770   22.8600  -32.1140 C   0  0  0  0  0  0  0  0  0  0  0  0
   -6.8350   21.5280  -32.3770 C   0  0  0  0  0  0  0  0  0  0  0  0
   -5.6730   17.6490  -33.3320 C   0  0  0  0  0  0  0  0  0  0  0  0
   -6.1230   16.3490  -33.4190 C   0  0  0  0  0  0  0  0  0  0  0  0
   -5.3160   15.3060  -33.8660 C   0  0  0  0  0  0  0  0  0  0  0  0
   -5.7690   14.0170  -33.9580 C   0  0  0  0  0  0  0  0  0  0  0  0
   -4.9210   13.0100  -34.4170 C   0  0  0  0  0  0  0  0  0  0  0  0
   -3.6280   13.3040  -34.7800 C   0  0  0  0  0  0  0  0  0  0  0  0
   -3.1500   14.5930  -34.6960 C   0  0  0  0  0  0  0  0  0  0  0  0
   -4.0140   15.5550  -34.2390 C   0  0  0  0  0  0  0  0  0  0  0  0
   -3.5880   16.8710  -34.1410 C   0  0  0  0  0  0  0  0  0  0  0  0
   -2.3930   17.1100  -34.4810 O   0  0  0  0  0  0  0  0  0  0  0  0
   -4.3970   17.8620  -33.7040 N   0  0  0  0  0  0  0  0  0  0  0  0
   -4.0660   19.2570  -33.5530 C   0  0  0  0  0  0  0  0  0  0  0  0
   -5.3133   26.2749  -29.8940 H   0  0  0  0  0  0  0  0  0  0  0  0
   -4.5063   25.2887  -31.1601 H   0  0  0  0  0  0  0  0  0  0  0  0
   -6.2943   25.4615  -31.1601 H   0  0  0  0  0  0  0  0  0  0  0  0
   -5.3913   24.4530  -28.5932 H   0  0  0  0  0  0  0  0  0  0  0  0
   -6.5108   23.7059  -29.8202 H   0  0  0  0  0  0  0  0  0  0  0  0
   -4.3534   22.7802  -27.9307 H   0  0  0  0  0  0  0  0  0  0  0  0
   -4.6136   21.3426  -28.9758 H   0  0  0  0  0  0  0  0  0  0  0  0
   -3.0228   22.1768  -28.9758 H   0  0  0  0  0  0  0  0  0  0  0  0
   -4.0556   24.2490  -31.6208 H   0  0  0  0  0  0  0  0  0  0  0  0
   -2.6760   23.6536  -30.6200 H   0  0  0  0  0  0  0  0  0  0  0  0
   -2.5391   22.1930  -32.3352 H   0  0  0  0  0  0  0  0  0  0  0  0
   -3.7392   21.3269  -31.2627 H   0  0  0  0  0  0  0  0  0  0  0  0
   -4.4760   22.7860  -33.8150 H   0  0  0  0  0  0  0  0  0  0  0  0
   -8.7002   18.0404  -31.2542 H   0  0  0  0  0  0  0  0  0  0  0  0
   -9.4744   18.5306  -32.7992 H   0  0  0  0  0  0  0  0  0  0  0  0
   -8.1772   17.2880  -32.7992 H   0  0  0  0  0  0  0  0  0  0  0  0
   -9.8331   20.2140  -31.6608 H   0  0  0  0  0  0  0  0  0  0  0  0
  -10.3094   22.5969  -31.1798 H   0  0  0  0  0  0  0  0  0  0  0  0
   -8.5337   24.3045  -31.4703 H   0  0  0  0  0  0  0  0  0  0  0  0
   -6.2798   23.6062  -32.2471 H   0  0  0  0  0  0  0  0  0  0  0  0
   -7.1592   16.1271  -33.1240 H   0  0  0  0  0  0  0  0  0  0  0  0
   -6.8028   13.7759  -33.6695 H   0  0  0  0  0  0  0  0  0  0  0  0
   -5.2882   11.9756  -34.4890 H   0  0  0  0  0  0  0  0  0  0  0  0
   -2.9683   12.5014  -35.1413 H   0  0  0  0  0  0  0  0  0  0  0  0
   -2.1176   14.8407  -34.9837 H   0  0  0  0  0  0  0  0  0  0  0  0
   -3.2659   19.3936  -32.8106 H   0  0  0  0  0  0  0  0  0  0  0  0
   -3.6912   19.7124  -34.4815 H   0  0  0  0  0  0  0  0  0  0  0  0
  1  2  1  0
  2  3  1  0
  3  4  1  0
  3  5  1  0
  5  6  1  0
  6  7  1  0
  7  8  1  0
  8  9  2  0
  9 10  1  0
 10 11  2  0
 11 12  1  0
 11 13  1  0
 13 14  2  0
 14 15  1  0
 15 16  2  0
 16 17  1  0
 17 18  2  0
 10 19  1  0
 19 20  2  0
 20 21  1  0
 21 22  2  0
 22 23  1  0
 23 24  2  0
 24 25  1  0
 25 26  2  0
 26 27  1  0
 27 28  2  0
 27 29  1  0
 29 30  1  0
 18  8  1  0
 29 19  1  0
 30  9  1  0
 18 13  1  0
 26 21  1  0
  1 31  1  0
  1 32  1  0
  1 33  1  0
  2 34  1  0
  2 35  1  0
  4 36  1  0
  4 37  1  0
  4 38  1  0
  5 39  1  0
  5 40  1  0
  6 41  1  0
  6 42  1  0
  7 43  1  0
 12 44  1  0
 12 45  1  0
 12 46  1  0
 14 47  1  0
 15 48  1  0
 16 49  1  0
 17 50  1  0
 20 51  1  0
 22 52  1  0
 23 53  1  0
 24 54  1  0
 25 55  1  0
 30 56  1  0
 30 57  1  0
M  CHG  1  11   1
M  END
>  <smiles>  (13) 
CCN(C)CCNc1c2c([n+](C)c3ccccc13)-c1cc3ccccc3c(=O)n1C2

>  <score_type>  (13) 
oracle

>  <origin>  (13) 
adg

>  <m_score__min__energy>  (13) 
-9.0999999999999996

>  <m_primary>  (13) 
energy

$$$$
14:0
     RDKit          3D

 39 41  0  0  0  0  0  0  0  0999 V2000
   -9.4620   21.5530  -30.5730 C   0  0  0  0  0  0  0  0  0  0  0  0
   -8.8880   21.9530  -31.8980 C   0  0  0  0  0  0  0  0  0  0  0  0
   -7.5900   21.3870  -32.1790 N   0  0  0  0  0  0  0  0  0  0  0  0
   -6.4130   22.0670  -32.3460 C   0  0  0  0  0  0  0  0  0  0  0  0
   -6.3220   23.8320  -32.2330 S   0  0  0  0  0  0  0  0  0  0  0  0
   -6.1140   24.4510  -30.5640 C   0  0  0  0  0  0  0  0  0  0  0  0
   -5.2790   25.7070  -30.4720 C   0  0  0  0  0  0  0  0  0  0  0  0
   -3.9250   25.2970  -30.4990 O   0  0  0  0  0  0  0  0  0  0  0  0
   -3.5530   24.0600  -30.0130 C   0  0  0  0  0  0  0  0  0  0  0  0
   -3.5890   23.9000  -28.6270 C   0  0  0  0  0  0  0  0  0  0  0  0
   -3.2340   22.6910  -28.0410 C   0  0  0  0  0  0  0  0  0  0  0  0
   -2.8430   21.6420  -28.8440 C   0  0  0  0  0  0  0  0  0  0  0  0
   -2.8030   21.7940  -30.2330 C   0  0  0  0  0  0  0  0  0  0  0  0
   -3.1610   23.0020  -30.7990 C   0  0  0  0  0  0  0  0  0  0  0  0
   -5.4400   21.1690  -32.5900 N   0  0  0  0  0  0  0  0  0  0  0  0
   -5.9570   19.9130  -32.5880 C   0  0  0  0  0  0  0  0  0  0  0  0
   -5.4120   18.6470  -32.7830 C   0  0  0  0  0  0  0  0  0  0  0  0
   -6.2180   17.5250  -32.7170 C   0  0  0  0  0  0  0  0  0  0  0  0
   -7.5710   17.6650  -32.4580 C   0  0  0  0  0  0  0  0  0  0  0  0
   -8.0770   18.9300  -32.2710 C   0  0  0  0  0  0  0  0  0  0  0  0
   -7.3050   20.0730  -32.3280 C   0  0  0  0  0  0  0  0  0  0  0  0
   -8.8500   21.9795  -29.7645 H   0  0  0  0  0  0  0  0  0  0  0  0
  -10.4922   21.9298  -30.4909 H   0  0  0  0  0  0  0  0  0  0  0  0
   -9.4652   20.4561  -30.4909 H   0  0  0  0  0  0  0  0  0  0  0  0
   -9.5831   21.6287  -32.6865 H   0  0  0  0  0  0  0  0  0  0  0  0
   -8.7554   23.0445  -31.8669 H   0  0  0  0  0  0  0  0  0  0  0  0
   -7.1096   24.6667  -30.1489 H   0  0  0  0  0  0  0  0  0  0  0  0
   -5.5789   23.6721  -30.0009 H   0  0  0  0  0  0  0  0  0  0  0  0
   -5.4923   26.3676  -31.3253 H   0  0  0  0  0  0  0  0  0  0  0  0
   -5.5051   26.2664  -29.5523 H   0  0  0  0  0  0  0  0  0  0  0  0
   -3.9021   24.7410  -27.9909 H   0  0  0  0  0  0  0  0  0  0  0  0
   -3.2648   22.5728  -26.9478 H   0  0  0  0  0  0  0  0  0  0  0  0
   -2.5610   20.6805  -28.3901 H   0  0  0  0  0  0  0  0  0  0  0  0
   -2.4880   20.9559  -30.8720 H   0  0  0  0  0  0  0  0  0  0  0  0
   -3.1322   23.1192  -31.8924 H   0  0  0  0  0  0  0  0  0  0  0  0
   -4.3371   18.5386  -32.9902 H   0  0  0  0  0  0  0  0  0  0  0  0
   -5.7858   16.5251  -32.8697 H   0  0  0  0  0  0  0  0  0  0  0  0
   -8.2268   16.7836  -32.4030 H   0  0  0  0  0  0  0  0  0  0  0  0
   -9.1523   19.0366  -32.0654 H   0  0  0  0  0  0  0  0  0  0  0  0
  1  2  1  0
  2  3  1  0
  3  4  1  0
  4  5  1  0
  5  6  1  0
  6  7  1  0
  7  8  1  0
  8  9  1  0
  9 10  2  0
 10 11  1  0
 11 12  2  0
 12 13  1  0
 13 14  2  0
  4 15  2  0
 15 16  1  0
 16 17  2  0
 17 18  1  0
 18 19  2  0
 19 20  1  0
 20 21  2  0
 21  3  1  0
 14  9  1  0
 21 16  1  0
  1 22  1  0
  1 23  1  0
  1 24  1  0
  2 25  1  0
  2 26  1  0
  6 27  1  0
  6 28  1  0
  7 29  1  0
  7 30  1  0
 10 31  1  0
 11 32  1  0
 12 33  1  0
 13 34  1  0
 14 35  1  0
 17 36  1  0
 18 37  1  0
 19 38  1  0
 20 39  1  0
M  END
>  <smiles>  (14) 
CCn1c(SCCOc2ccccc2)nc2ccccc21

>  <score_type>  (14) 
oracle

>  <origin>  (14) 
adg

>  <m_score__min__energy>  (14) 
-8.2100000000000009

>  <m_primary>  (14) 
energy

$$$$
15:0
     RDKit          3D

 64 66  0  0  0  0  0  0  0  0999 V2000
   -3.9800   24.1730  -28.6090 C   0  0  0  0  0  0  0  0  0  0  0  0
   -3.5950   24.3030  -30.0430 C   0  0  0  0  0  0  0  0  0  0  0  0
   -4.6450   24.8750  -30.8600 N   0  0  0  0  0  0  0  0  0  0  0  0
   -5.5500   25.7020  -30.1010 C   0  0  0  0  0  0  0  0  0  0  0  0
   -6.8810   24.9870  -30.0240 C   0  0  0  0  0  0  0  0  0  0  0  0
   -5.3200   23.8310  -31.5900 C   0  0  0  0  0  0  0  0  0  0  0  0
   -4.5730   22.5320  -31.6650 C   0  0  0  0  0  0  0  0  0  0  0  0
   -4.7900   21.9620  -32.9830 N   0  0  0  0  0  0  0  0  0  0  0  0
   -5.2510   20.6220  -33.0660 C   0  0  0  0  0  0  0  0  0  0  0  0
   -6.5300   20.2270  -32.7720 C   0  0  0  0  0  0  0  0  0  0  0  0
   -7.4190   21.2000  -32.3750 C   0  0  0  0  0  0  0  0  0  0  0  0
   -8.7160   20.8490  -32.0750 C   0  0  0  0  0  0  0  0  0  0  0  0
   -9.0500   19.5170  -32.1920 C   0  0  0  0  0  0  0  0  0  0  0  0
   -8.1580   18.5420  -32.5890 C   0  0  0  0  0  0  0  0  0  0  0  0
   -6.8620   18.8930  -32.8900 C   0  0  0  0  0  0  0  0  0  0  0  0
   -5.9980   17.9520  -33.2790 N   0  0  0  0  0  0  0  0  0  0  0  0
   -6.2940   16.5490  -33.4080 C   0  0  0  0  0  0  0  0  0  0  0  0
   -4.7260   18.3350  -33.5730 C   0  0  0  0  0  0  0  0  0  0  0  0
   -3.7970   17.4070  -33.9860 C   0  0  0  0  0  0  0  0  0  0  0  0
   -2.4960   17.8060  -34.2940 C   0  0  0  0  0  0  0  0  0  0  0  0
   -2.0750   19.1060  -34.2060 C   0  0  0  0  0  0  0  0  0  0  0  0
   -0.8530   19.6030  -34.4740 O   0  0  0  0  0  0  0  0  0  0  0  0
   -0.2220   20.8000  -34.2880 C   0  0  0  0  0  0  0  0  0  0  0  0
    0.1680   21.5470  -35.5270 C   0  0  0  0  0  0  0  0  0  0  0  0
    1.0410   22.6690  -35.2340 N   0  0  0  0  0  0  0  0  0  0  0  0
    0.6430   23.7610  -36.0950 C   0  0  0  0  0  0  0  0  0  0  0  0
    2.4340   22.3870  -35.4110 C   0  0  0  0  0  0  0  0  0  0  0  0
   -3.0540   20.0250  -33.7800 C   0  0  0  0  0  0  0  0  0  0  0  0
   -4.3290   19.6520  -33.4770 C   0  0  0  0  0  0  0  0  0  0  0  0
   -3.1293   24.4602  -27.9735 H   0  0  0  0  0  0  0  0  0  0  0  0
   -4.8347   24.8324  -28.3976 H   0  0  0  0  0  0  0  0  0  0  0  0
   -4.2601   23.1305  -28.3976 H   0  0  0  0  0  0  0  0  0  0  0  0
   -2.7069   24.9486  -30.1106 H   0  0  0  0  0  0  0  0  0  0  0  0
   -3.3958   23.2904  -30.4238 H   0  0  0  0  0  0  0  0  0  0  0  0
   -5.1515   25.8597  -29.0879 H   0  0  0  0  0  0  0  0  0  0  0  0
   -5.6696   26.6826  -30.5849 H   0  0  0  0  0  0  0  0  0  0  0  0
   -7.1571   24.8387  -28.9696 H   0  0  0  0  0  0  0  0  0  0  0  0
   -7.6519   25.5924  -30.5232 H   0  0  0  0  0  0  0  0  0  0  0  0
   -6.8018   24.0100  -30.5232 H   0  0  0  0  0  0  0  0  0  0  0  0
   -6.2871   23.6419  -31.1012 H   0  0  0  0  0  0  0  0  0  0  0  0
   -5.4198   24.1911  -32.6246 H   0  0  0  0  0  0  0  0  0  0  0  0
   -3.4989   22.7100  -31.5080 H   0  0  0  0  0  0  0  0  0  0  0  0
   -4.9310   21.8412  -30.8875 H   0  0  0  0  0  0  0  0  0  0  0  0
   -4.6240   22.4890  -33.8730 H   0  0  0  0  0  0  0  0  0  0  0  0
   -7.0960   22.2487  -32.2981 H   0  0  0  0  0  0  0  0  0  0  0  0
   -9.4541   21.5995  -31.7556 H   0  0  0  0  0  0  0  0  0  0  0  0
  -10.0814   19.2155  -31.9566 H   0  0  0  0  0  0  0  0  0  0  0  0
   -8.4802   17.4929  -32.6642 H   0  0  0  0  0  0  0  0  0  0  0  0
   -6.3886   16.1008  -32.4079 H   0  0  0  0  0  0  0  0  0  0  0  0
   -7.2386   16.4225  -33.9573 H   0  0  0  0  0  0  0  0  0  0  0  0
   -5.4810   16.0517  -33.9573 H   0  0  0  0  0  0  0  0  0  0  0  0
   -4.0811   16.3479  -34.0734 H   0  0  0  0  0  0  0  0  0  0  0  0
   -1.7761   17.0418  -34.6223 H   0  0  0  0  0  0  0  0  0  0  0  0
   -0.8951   21.4462  -33.7055 H   0  0  0  0  0  0  0  0  0  0  0  0
    0.7246   20.5561  -33.7836 H   0  0  0  0  0  0  0  0  0  0  0  0
    0.6910   20.8584  -36.2069 H   0  0  0  0  0  0  0  0  0  0  0  0
   -0.7492   21.9419  -35.9882 H   0  0  0  0  0  0  0  0  0  0  0  0
    0.3307   24.6178  -35.4799 H   0  0  0  0  0  0  0  0  0  0  0  0
    1.4917   24.0554  -36.7299 H   0  0  0  0  0  0  0  0  0  0  0  0
   -0.1960   23.4403  -36.7299 H   0  0  0  0  0  0  0  0  0  0  0  0
    2.9162   22.2894  -34.4272 H   0  0  0  0  0  0  0  0  0  0  0  0
    2.5496   21.4472  -35.9709 H   0  0  0  0  0  0  0  0  0  0  0  0
    2.9060   23.2078  -35.9709 H   0  0  0  0  0  0  0  0  0  0  0  0
   -2.7782   21.0859  -33.6883 H   0  0  0  0  0  0  0  0  0  0  0  0
  1  2  1  0
  2  3  1  0
  3  4  1  0
  4  5  1  0
  3  6  1  0
  6  7  1  0
  7  8  1  0
  8  9  1  0
  9 10  2  0
 10 11  1  0
 11 12  2  0
 12 13  1  0
 13 14  2  0
 14 15  1  0
 15 16  2  0
 16 17  1  0
 16 18  1  0
 18 19  2  0
 19 20  1  0
 20 21  2  0
 21 22  1  0
 22 23  1  0
 23 24  1  0
 24 25  1  0
 25 26  1  0
 25 27  1  0
 21 28  1  0
 28 29  2  0
 29  9  1  0
 15 10  1  0
 29 18  1  0
  1 30  1  0
  1 31  1  0
  1 32  1  0
  2 33  1  0
  2 34  1  0
  4 35  1  0
  4 36  1  0
  5 37  1  0
  5 38  1  0
  5 39  1  0
  6 40  1  0
  6 41  1  0
  7 42  1  0
  7 43  1  0
  8 44  1  0
 11 45  1  0
 12 46  1  0
 13 47  1  0
 14 48  1  0
 17 49  1  0
 17 50  1  0
 17 51  1  0
 19 52  1  0
 20 53  1  0
 23 54  1  0
 23 55  1  0
 24 56  1  0
 24 57  1  0
 26 58  1  0
 26 59  1  0
 26 60  1  0
 27 61  1  0
 27 62  1  0
 27 63  1  0
 28 64  1  0
M  CHG  1  16   1
M  END
>  <smiles>  (15) 
CCN(CC)CCNc1c2ccccc2[n+](C)c2ccc(OCCN(C)C)cc12

>  <score_type>  (15) 
oracle

>  <origin>  (15) 
adg

>  <m_score__min__energy>  (15) 
-9.2300000000000004

>  <m_primary>  (15) 
energy

$$$$
16:0
     RDKit          3D

 58 60  0  0  1  0  0  0  0  0999 V2000
    1.0200   15.9960  -27.1490 C   0  0  0  0  0  0  0  0  0  0  0  0
    2.4830   16.4020  -27.2870 C   0  0  0  0  0  0  0  0  0  0  0  0
    2.4980   17.6580  -27.8170 O   0  0  0  0  0  0  0  0  0  0  0  0
    2.1230   17.7660  -29.1390 C   0  0  0  0  0  0  0  0  0  0  0  0
    0.9470   18.6160  -29.2760 C   0  0  0  0  0  0  0  0  0  0  0  0
    0.2500   18.7800  -30.3040 O   0  0  0  0  0  0  0  0  0  0  0  0
    0.5260   19.3570  -28.1170 N   0  0  0  0  0  0  0  0  0  0  0  0
   -0.6060   20.2140  -28.1460 C   0  0  0  0  0  0  0  0  0  0  0  0
   -0.5940   21.3260  -28.9560 C   0  0  0  0  0  0  0  0  0  0  0  0
   -1.6570   22.1810  -29.0200 C   0  0  0  0  0  0  0  0  0  0  0  0
   -2.8370   21.9910  -28.2710 C   0  0  0  0  0  0  0  0  0  0  0  0
   -3.7970   23.0360  -28.3510 C   0  0  0  0  0  0  0  0  0  0  0  0
   -3.7480   24.1730  -28.9940 C   0  0  0  0  0  0  0  0  0  0  0  0
   -4.4270   24.4400  -30.2430 C   0  0  0  0  0  0  0  0  0  0  0  0
   -4.2460   25.5370  -30.8240 O   0  0  0  0  0  0  0  0  0  0  0  0
   -5.3310   23.5170  -30.9080 C   0  0  0  0  0  0  0  0  0  0  0  0
   -6.7010   23.8100  -30.8420 C   0  0  0  0  0  0  0  0  0  0  0  0
   -7.6580   23.0190  -31.4310 C   0  0  0  0  0  0  0  0  0  0  0  0
   -7.2280   21.9080  -32.1010 C   0  0  0  0  0  0  0  0  0  0  0  0
   -8.1550   21.1010  -32.6980 O   0  0  0  0  0  0  0  0  0  0  0  0
   -9.0700   20.3150  -31.9660 C   0  0  0  0  0  0  0  0  0  0  0  0
   -5.8960   21.6020  -32.1780 C   0  0  0  0  0  0  0  0  0  0  0  0
   -4.9390   22.3960  -31.5870 C   0  0  0  0  0  0  0  0  0  0  0  0
   -3.6390   22.0290  -31.7060 O   0  0  0  0  0  0  0  0  0  0  0  0
   -3.1970   20.9010  -32.3850 C   0  0  0  0  0  0  0  0  0  0  0  0
   -2.2230   21.3980  -33.4600 C   0  0  0  0  0  0  0  0  0  0  0  0
   -2.4520   20.0430  -31.3740 C   0  0  0  0  0  0  0  0  0  0  0  0
   -4.2590   20.0800  -33.0030 C   0  0  0  0  0  0  0  0  0  0  0  0
   -5.5430   20.3800  -32.9260 C   0  0  0  0  0  0  0  0  0  0  0  0
   -2.8260   20.8830  -27.4710 C   0  0  0  0  0  0  0  0  0  0  0  0
   -1.7440   20.0030  -27.4000 C   0  0  0  0  0  0  0  0  0  0  0  0
    0.7586   15.9235  -26.0830 H   0  0  0  0  0  0  0  0  0  0  0  0
    0.3827   16.7512  -27.6322 H   0  0  0  0  0  0  0  0  0  0  0  0
    0.8631   15.0204  -27.6322 H   0  0  0  0  0  0  0  0  0  0  0  0
    2.9701   16.4020  -26.3007 H   0  0  0  0  0  0  0  0  0  0  0  0
    3.0279   15.6965  -27.9316 H   0  0  0  0  0  0  0  0  0  0  0  0
    2.9525   18.2026  -29.7146 H   0  0  0  0  0  0  0  0  0  0  0  0
    1.8791   16.7630  -29.5192 H   0  0  0  0  0  0  0  0  0  0  0  0
    1.0630   19.2700  -27.2190 H   0  0  0  0  0  0  0  0  0  0  0  0
    0.2960   21.5320  -29.5687 H   0  0  0  0  0  0  0  0  0  0  0  0
   -1.5901   23.0553  -29.6841 H   0  0  0  0  0  0  0  0  0  0  0  0
   -4.7237   22.8611  -27.7848 H   0  0  0  0  0  0  0  0  0  0  0  0
   -3.1483   24.9837  -28.5544 H   0  0  0  0  0  0  0  0  0  0  0  0
   -7.0225   24.7095  -30.2966 H   0  0  0  0  0  0  0  0  0  0  0  0
   -8.7270   23.2699  -31.3659 H   0  0  0  0  0  0  0  0  0  0  0  0
   -8.8996   20.4613  -30.8892 H   0  0  0  0  0  0  0  0  0  0  0  0
  -10.0971   20.6167  -32.2191 H   0  0  0  0  0  0  0  0  0  0  0  0
   -8.9266   19.2542  -32.2191 H   0  0  0  0  0  0  0  0  0  0  0  0
   -1.3425   21.8473  -32.9775 H   0  0  0  0  0  0  0  0  0  0  0  0
   -1.9057   20.5516  -34.0868 H   0  0  0  0  0  0  0  0  0  0  0  0
   -2.7221   22.1516  -34.0868 H   0  0  0  0  0  0  0  0  0  0  0  0
   -2.7244   20.3567  -30.3555 H   0  0  0  0  0  0  0  0  0  0  0  0
   -2.7246   18.9870  -31.5177 H   0  0  0  0  0  0  0  0  0  0  0  0
   -1.3682   20.1647  -31.5177 H   0  0  0  0  0  0  0  0  0  0  0  0
   -3.9657   19.1744  -33.5543 H   0  0  0  0  0  0  0  0  0  0  0  0
   -6.3118   19.7495  -33.3966 H   0  0  0  0  0  0  0  0  0  0  0  0
   -3.7120   20.6743  -26.8534 H   0  0  0  0  0  0  0  0  0  0  0  0
   -1.8017   19.1269  -26.7373 H   0  0  0  0  0  0  0  0  0  0  0  0
  1  2  1  0
  2  3  1  0
  3  4  1  0
  4  5  1  0
  5  6  2  0
  5  7  1  0
  7  8  1  0
  8  9  2  0
  9 10  1  0
 10 11  2  0
 11 12  1  0
 12 13  2  0
 13 14  1  0
 14 15  2  0
 14 16  1  0
 16 17  2  0
 17 18  1  0
 18 19  2  0
 19 20  1  0
 20 21  1  0
 19 22  1  0
 22 23  2  0
 23 24  1  0
 24 25  1  0
 25 26  1  0
 25 27  1  0
 25 28  1  0
 28 29  2  0
 11 30  1  0
 30 31  2  0
 31  8  1  0
 23 16  1  0
 29 22  1  0
  1 32  1  0
  1 33  1  0
  1 34  1  0
  2 35  1  0
  2 36  1  0
  4 37  1  0
  4 38  1  0
  7 39  1  0
  9 40  1  0
 10 41  1  0
 12 42  1  0
 13 43  1  0
 17 44  1  0
 18 45  1  0
 21 46  1  0
 21 47  1  0
 21 48  1  0
 26 49  1  0
 26 50  1  0
 26 51  1  0
 27 52  1  0
 27 53  1  0
 27 54  1  0
 28 55  1  0
 29 56  1  0
 30 57  1  0
 31 58  1  0
M  END
>  <smiles>  (16) 
CCOCC(=O)Nc1ccc(C=CC(=O)c2ccc(OC)c3c2OC(C)(C)C=C3)cc1

>  <score_type>  (16) 
oracle

>  <origin>  (16) 
adg

>  <m_score__min__energy>  (16) 
-10.25

>  <m_primary>  (16) 
energy

$$$$
17:0
     RDKit          3D

 46 48  0  0  0  0  0  0  0  0999 V2000
   -6.3160   17.4870  -31.2520 C   0  0  0  0  0  0  0  0  0  0  0  0
   -7.2930   17.6250  -32.2010 O   0  0  0  0  0  0  0  0  0  0  0  0
   -6.8550   17.8560  -33.4720 C   0  0  0  0  0  0  0  0  0  0  0  0
   -6.5240   19.2560  -33.8470 C   0  0  0  0  0  0  0  0  0  0  0  0
   -6.8860   20.2530  -32.8670 N   0  0  0  0  0  0  0  0  0  0  0  0
   -8.0390   20.5870  -32.2990 C   0  0  0  0  0  0  0  0  0  0  0  0
   -9.3660   19.9920  -32.5490 C   0  0  0  0  0  0  0  0  0  0  0  0
   -7.8520   21.6370  -31.3890 C   0  0  0  0  0  0  0  0  0  0  0  0
   -6.5100   21.9390  -31.4240 C   0  0  0  0  0  0  0  0  0  0  0  0
   -5.7930   22.8890  -30.7290 C   0  0  0  0  0  0  0  0  0  0  0  0
   -4.4230   22.9910  -30.9530 C   0  0  0  0  0  0  0  0  0  0  0  0
   -3.7240   24.0170  -30.1940 C   0  0  0  0  0  0  0  0  0  0  0  0
   -3.8700   25.2210  -30.5520 O   0  0  0  0  0  0  0  0  0  0  0  0
   -2.8890   23.7660  -29.0830 N   0  0  0  0  0  0  0  0  0  0  0  0
   -2.2680   24.9240  -28.4460 C   0  0  0  0  0  0  0  0  0  0  0  0
   -0.7970   24.5490  -28.3140 C   0  0  0  0  0  0  0  0  0  0  0  0
   -0.7110   23.5110  -27.2200 C   0  0  0  0  0  0  0  0  0  0  0  0
   -1.8260   22.5160  -27.2540 C   0  0  0  0  0  0  0  0  0  0  0  0
   -2.6030   22.4760  -28.5280 C   0  0  0  0  0  0  0  0  0  0  0  0
   -3.8130   22.1520  -31.8540 C   0  0  0  0  0  0  0  0  0  0  0  0
   -4.5690   21.2110  -32.5330 C   0  0  0  0  0  0  0  0  0  0  0  0
   -5.9430   21.0810  -32.3350 C   0  0  0  0  0  0  0  0  0  0  0  0
   -6.7662   17.5506  -30.2504 H   0  0  0  0  0  0  0  0  0  0  0  0
   -5.8240   16.5104  -31.3716 H   0  0  0  0  0  0  0  0  0  0  0  0
   -5.5728   18.2891  -31.3716 H   0  0  0  0  0  0  0  0  0  0  0  0
   -5.9471   17.2530  -33.6209 H   0  0  0  0  0  0  0  0  0  0  0  0
   -7.7099   17.5924  -34.1120 H   0  0  0  0  0  0  0  0  0  0  0  0
   -5.4380   19.3175  -34.0110 H   0  0  0  0  0  0  0  0  0  0  0  0
   -7.1155   19.4809  -34.7468 H   0  0  0  0  0  0  0  0  0  0  0  0
   -9.8561   19.7723  -31.5890 H   0  0  0  0  0  0  0  0  0  0  0  0
   -9.9830   20.6996  -33.1222 H   0  0  0  0  0  0  0  0  0  0  0  0
   -9.2481   19.0606  -33.1222 H   0  0  0  0  0  0  0  0  0  0  0  0
   -8.6226   22.1216  -30.7716 H   0  0  0  0  0  0  0  0  0  0  0  0
   -6.2942   23.5543  -30.0106 H   0  0  0  0  0  0  0  0  0  0  0  0
   -2.3852   25.8207  -29.0722 H   0  0  0  0  0  0  0  0  0  0  0  0
   -2.7264   25.1607  -27.4745 H   0  0  0  0  0  0  0  0  0  0  0  0
   -0.4252   24.1327  -29.2619 H   0  0  0  0  0  0  0  0  0  0  0  0
   -0.1838   25.4299  -28.0731 H   0  0  0  0  0  0  0  0  0  0  0  0
    0.2413   22.9708  -27.3265 H   0  0  0  0  0  0  0  0  0  0  0  0
   -0.7824   24.0448  -26.2608 H   0  0  0  0  0  0  0  0  0  0  0  0
   -1.3964   21.5174  -27.0859 H   0  0  0  0  0  0  0  0  0  0  0  0
   -2.5358   22.8259  -26.4729 H   0  0  0  0  0  0  0  0  0  0  0  0
   -2.0239   21.9032  -29.2673 H   0  0  0  0  0  0  0  0  0  0  0  0
   -3.5720   22.0116  -28.2926 H   0  0  0  0  0  0  0  0  0  0  0  0
   -2.7306   22.2273  -32.0350 H   0  0  0  0  0  0  0  0  0  0  0  0
   -4.0694   20.5447  -33.2516 H   0  0  0  0  0  0  0  0  0  0  0  0
  1  2  1  0
  2  3  1  0
  3  4  1  0
  4  5  1  0
  5  6  1  0
  6  7  1  0
  6  8  2  0
  8  9  1  0
  9 10  2  0
 10 11  1  0
 11 12  1  0
 12 13  2  0
 12 14  1  0
 14 15  1  0
 15 16  1  0
 16 17  1  0
 17 18  1  0
 18 19  1  0
 11 20  2  0
 20 21  1  0
 21 22  2  0
 22  5  1  0
 22  9  1  0
 19 14  1  0
  1 23  1  0
  1 24  1  0
  1 25  1  0
  3 26  1  0
  3 27  1  0
  4 28  1  0
  4 29  1  0
  7 30  1  0
  7 31  1  0
  7 32  1  0
  8 33  1  0
 10 34  1  0
 15 35  1  0
 15 36  1  0
 16 37  1  0
 16 38  1  0
 17 39  1  0
 17 40  1  0
 18 41  1  0
 18 42  1  0
 19 43  1  0
 19 44  1  0
 20 45  1  0
 21 46  1  0
M  END
>  <smiles>  (17) 
COCCn1c(C)cc2cc(C(=O)N3CCCCC3)ccc21

>  <score_type>  (17) 
oracle

>  <origin>  (17) 
adg

>  <m_score__min__energy>  (17) 
-8.2400000000000002

>  <m_primary>  (17) 
energy

$$$$
18:0
     RDKit          3D

 57 59  0  0  0  0  0  0  0  0999 V2000
   -7.5540   22.6930  -30.2150 C   0  0  0  0  0  0  0  0  0  0  0  0
   -7.2320   23.7670  -31.1810 C   0  0  0  0  0  0  0  0  0  0  0  0
   -6.4280   24.7760  -30.8620 O   0  0  0  0  0  0  0  0  0  0  0  0
   -5.7610   24.9300  -29.7170 C   0  0  0  0  0  0  0  0  0  0  0  0
   -4.5290   24.0750  -29.6190 C   0  0  0  0  0  0  0  0  0  0  0  0
   -3.9960   23.8180  -30.8440 O   0  0  0  0  0  0  0  0  0  0  0  0
   -3.6400   22.7700  -31.5880 C   0  0  0  0  0  0  0  0  0  0  0  0
   -2.3820   22.2570  -31.7960 C   0  0  0  0  0  0  0  0  0  0  0  0
   -2.1360   21.1480  -32.6000 C   0  0  0  0  0  0  0  0  0  0  0  0
   -0.8390   20.6810  -32.7650 O   0  0  0  0  0  0  0  0  0  0  0  0
   -0.4870   19.9990  -33.9200 C   0  0  0  0  0  0  0  0  0  0  0  0
    0.0210   20.8040  -35.0590 C   0  0  0  0  0  0  0  0  0  0  0  0
    0.7090   22.0170  -34.7480 N   0  0  0  0  0  0  0  0  0  0  0  0
    0.2390   22.9950  -35.7560 C   0  0  0  0  0  0  0  0  0  0  0  0
    1.2900   24.0540  -36.0200 C   0  0  0  0  0  0  0  0  0  0  0  0
    2.2950   23.4550  -36.8190 O   0  0  0  0  0  0  0  0  0  0  0  0
    2.4550   22.1190  -36.4510 C   0  0  0  0  0  0  0  0  0  0  0  0
    2.1450   21.9650  -34.9650 C   0  0  0  0  0  0  0  0  0  0  0  0
   -3.1910   20.5210  -33.2270 C   0  0  0  0  0  0  0  0  0  0  0  0
   -4.4490   21.0000  -33.0470 C   0  0  0  0  0  0  0  0  0  0  0  0
   -5.5160   20.3870  -33.6650 O   0  0  0  0  0  0  0  0  0  0  0  0
   -6.5270   19.7170  -33.0030 C   0  0  0  0  0  0  0  0  0  0  0  0
   -7.6770   20.4570  -32.7300 C   0  0  0  0  0  0  0  0  0  0  0  0
   -8.7600   19.8940  -32.0700 C   0  0  0  0  0  0  0  0  0  0  0  0
   -8.6380   18.5610  -31.6990 C   0  0  0  0  0  0  0  0  0  0  0  0
   -7.4920   17.8250  -31.9710 C   0  0  0  0  0  0  0  0  0  0  0  0
   -6.4180   18.3840  -32.6250 C   0  0  0  0  0  0  0  0  0  0  0  0
   -4.6720   22.0810  -32.2610 C   0  0  0  0  0  0  0  0  0  0  0  0
   -7.4394   23.0753  -29.1900 H   0  0  0  0  0  0  0  0  0  0  0  0
   -8.5913   22.3606  -30.3685 H   0  0  0  0  0  0  0  0  0  0  0  0
   -6.8707   21.8448  -30.3685 H   0  0  0  0  0  0  0  0  0  0  0  0
   -6.7774   23.2730  -32.0524 H   0  0  0  0  0  0  0  0  0  0  0  0
   -8.2023   24.2706  -31.3029 H   0  0  0  0  0  0  0  0  0  0  0  0
   -5.4605   25.9845  -29.6287 H   0  0  0  0  0  0  0  0  0  0  0  0
   -6.4356   24.6180  -28.9061 H   0  0  0  0  0  0  0  0  0  0  0  0
   -3.7797   24.5983  -29.0069 H   0  0  0  0  0  0  0  0  0  0  0  0
   -4.8127   23.1162  -29.1605 H   0  0  0  0  0  0  0  0  0  0  0  0
   -1.5288   22.7464  -31.3034 H   0  0  0  0  0  0  0  0  0  0  0  0
    0.2973   19.2762  -33.6507 H   0  0  0  0  0  0  0  0  0  0  0  0
   -1.4263   19.5571  -34.2838 H   0  0  0  0  0  0  0  0  0  0  0  0
    0.7135   20.1683  -35.6302 H   0  0  0  0  0  0  0  0  0  0  0  0
   -0.8798   21.1218  -35.6046 H   0  0  0  0  0  0  0  0  0  0  0  0
    0.0187   22.4656  -36.6947 H   0  0  0  0  0  0  0  0  0  0  0  0
   -0.6648   23.4885  -35.3691 H   0  0  0  0  0  0  0  0  0  0  0  0
    0.8419   24.9054  -36.5532 H   0  0  0  0  0  0  0  0  0  0  0  0
    1.7127   24.4293  -35.0763 H   0  0  0  0  0  0  0  0  0  0  0  0
    1.7672   21.4915  -37.0369 H   0  0  0  0  0  0  0  0  0  0  0  0
    3.4909   21.8045  -36.6460 H   0  0  0  0  0  0  0  0  0  0  0  0
    2.5320   20.9983  -34.6106 H   0  0  0  0  0  0  0  0  0  0  0  0
    2.6236   22.7851  -34.4098 H   0  0  0  0  0  0  0  0  0  0  0  0
   -3.0162   19.6428  -33.8658 H   0  0  0  0  0  0  0  0  0  0  0  0
   -7.7267   21.5099  -33.0447 H   0  0  0  0  0  0  0  0  0  0  0  0
   -9.6689   20.4738  -31.8517 H   0  0  0  0  0  0  0  0  0  0  0  0
   -9.4734   18.0741  -31.1745 H   0  0  0  0  0  0  0  0  0  0  0  0
   -7.4418   16.7720  -31.6567 H   0  0  0  0  0  0  0  0  0  0  0  0
   -5.5109   17.8001  -32.8397 H   0  0  0  0  0  0  0  0  0  0  0  0
   -5.7055   22.4383  -32.1418 H   0  0  0  0  0  0  0  0  0  0  0  0
  1  2  1  0
  2  3  1  0
  3  4  1  0
  4  5  1  0
  5  6  1  0
  6  7  1  0
  7  8  2  0
  8  9  1  0
  9 10  1  0
 10 11  1  0
 11 12  1  0
 12 13  1  0
 13 14  1  0
 14 15  1  0
 15 16  1  0
 16 17  1  0
 17 18  1  0
  9 19  2  0
 19 20  1  0
 20 21  1  0
 21 22  1  0
 22 23  2  0
 23 24  1  0
 24 25  2  0
 25 26  1  0
 26 27  2  0
 20 28  2  0
 28  7  1  0
 18 13  1  0
 27 22  1  0
  1 29  1  0
  1 30  1  0
  1 31  1  0
  2 32  1  0
  2 33  1  0
  4 34  1  0
  4 35  1  0
  5 36  1  0
  5 37  1  0
  8 38  1  0
 11 39  1  0
 11 40  1  0
 12 41  1  0
 12 42  1  0
 14 43  1  0
 14 44  1  0
 15 45  1  0
 15 46  1  0
 17 47  1  0
 17 48  1  0
 18 49  1  0
 18 50  1  0
 19 51  1  0
 23 52  1  0
 24 53  1  0
 25 54  1  0
 26 55  1  0
 27 56  1  0
 28 57  1  0
M  END
>  <smiles>  (18) 
CCOCCOc1cc(OCCN2CCOCC2)cc(Oc2ccccc2)c1

>  <score_type>  (18) 
oracle

>  <origin>  (18) 
adg

>  <m_score__min__energy>  (18) 
-8.1300000000000008

>  <m_primary>  (18) 
energy

$$$$
19:0
     RDKit          3D

 43 44  0  0  0  0  0  0  0  0999 V2000
   -2.3940   25.6030  -25.9980 C   0  0  0  0  0  0  0  0  0  0  0  0
   -1.0870   25.1790  -26.6100 C   0  0  0  0  0  0  0  0  0  0  0  0
   -0.4800   23.9520  -26.0130 C   0  0  0  0  0  0  0  0  0  0  0  0
   -1.1760   25.1820  -28.1070 C   0  0  0  0  0  0  0  0  0  0  0  0
   -2.3610   24.7480  -28.6920 N   0  0  0  0  0  0  0  0  0  0  0  0
   -2.7090   23.3940  -28.7430 C   0  0  0  0  0  0  0  0  0  0  0  0
   -4.1890   23.2720  -28.4040 C   0  0  0  0  0  0  0  0  0  0  0  0
   -4.8630   24.5550  -28.4670 N   0  0  0  0  0  0  0  0  0  0  0  0
   -5.2470   24.8060  -30.1480 S   0  0  0  0  0  0  0  0  0  0  0  0
   -3.9490   25.1150  -30.8440 O   0  0  0  0  0  0  0  0  0  0  0  0
   -6.1440   25.9820  -30.2450 O   0  0  0  0  0  0  0  0  0  0  0  0
   -6.0190   23.3710  -30.8110 C   0  0  0  0  0  0  0  0  0  0  0  0
   -7.3130   23.1180  -30.3600 C   0  0  0  0  0  0  0  0  0  0  0  0
   -7.9970   21.9990  -30.8340 C   0  0  0  0  0  0  0  0  0  0  0  0
   -7.3590   21.1690  -31.7480 C   0  0  0  0  0  0  0  0  0  0  0  0
   -8.0930   20.0700  -32.1830 C   0  0  0  0  0  0  0  0  0  0  0  0
   -7.5010   19.2230  -33.0850 C   0  0  0  0  0  0  0  0  0  0  0  0
   -6.2120   19.4490  -33.5530 C   0  0  0  0  0  0  0  0  0  0  0  0
   -5.5200   20.5550  -33.0940 C   0  0  0  0  0  0  0  0  0  0  0  0
   -6.0790   21.4290  -32.1870 C   0  0  0  0  0  0  0  0  0  0  0  0
   -5.3960   22.5440  -31.7140 C   0  0  0  0  0  0  0  0  0  0  0  0
   -2.3112   25.5761  -24.9014 H   0  0  0  0  0  0  0  0  0  0  0  0
   -2.6361   26.6258  -26.3225 H   0  0  0  0  0  0  0  0  0  0  0  0
   -3.1904   24.9171  -26.3225 H   0  0  0  0  0  0  0  0  0  0  0  0
   -0.3448   25.9438  -26.3375 H   0  0  0  0  0  0  0  0  0  0  0  0
   -0.5148   24.0223  -24.9158 H   0  0  0  0  0  0  0  0  0  0  0  0
   -1.0441   23.0667  -26.3417 H   0  0  0  0  0  0  0  0  0  0  0  0
    0.5660   23.8632  -26.3417 H   0  0  0  0  0  0  0  0  0  0  0  0
   -1.0049   26.2155  -28.4427 H   0  0  0  0  0  0  0  0  0  0  0  0
   -0.4253   24.4449  -28.4281 H   0  0  0  0  0  0  0  0  0  0  0  0
   -3.0910   25.4420  -28.9070 H   0  0  0  0  0  0  0  0  0  0  0  0
   -2.5242   22.9995  -29.7530 H   0  0  0  0  0  0  0  0  0  0  0  0
   -2.1054   22.8184  -28.0259 H   0  0  0  0  0  0  0  0  0  0  0  0
   -4.6631   22.5851  -29.1205 H   0  0  0  0  0  0  0  0  0  0  0  0
   -4.2742   22.8908  -27.3757 H   0  0  0  0  0  0  0  0  0  0  0  0
   -5.7420   24.5040  -27.9060 H   0  0  0  0  0  0  0  0  0  0  0  0
   -7.7907   23.7950  -29.6365 H   0  0  0  0  0  0  0  0  0  0  0  0
   -9.0189   21.7782  -30.4920 H   0  0  0  0  0  0  0  0  0  0  0  0
   -9.1136   19.8866  -31.8160 H   0  0  0  0  0  0  0  0  0  0  0  0
   -8.0585   18.3460  -33.4457 H   0  0  0  0  0  0  0  0  0  0  0  0
   -5.7503   18.7603  -34.2758 H   0  0  0  0  0  0  0  0  0  0  0  0
   -4.5000   20.7413  -33.4614 H   0  0  0  0  0  0  0  0  0  0  0  0
   -4.3736   22.7604  -32.0572 H   0  0  0  0  0  0  0  0  0  0  0  0
  1  2  1  0
  2  3  1  0
  2  4  1  0
  4  5  1  0
  5  6  1  0
  6  7  1  0
  7  8  1  0
  8  9  1  0
  9 10  2  0
  9 11  2  0
  9 12  1  0
 12 13  2  0
 13 14  1  0
 14 15  2  0
 15 16  1  0
 16 17  2  0
 17 18  1  0
 18 19  2  0
 19 20  1  0
 20 21  2  0
 21 12  1  0
 20 15  1  0
  1 22  1  0
  1 23  1  0
  1 24  1  0
  2 25  1  0
  3 26  1  0
  3 27  1  0
  3 28  1  0
  4 29  1  0
  4 30  1  0
  5 31  1  0
  6 32  1  0
  6 33  1  0
  7 34  1  0
  7 35  1  0
  8 36  1  0
 13 37  1  0
 14 38  1  0
 16 39  1  0
 17 40  1  0
 18 41  1  0
 19 42  1  0
 21 43  1  0
M  END
>  <smiles>  (19) 
CC(C)CNCCNS(=O)(=O)c1ccc2ccccc2c1

>  <score_type>  (19) 
oracle

>  <origin>  (19) 
adg

>  <m_score__min__energy>  (19) 
-9.4399999999999995

>  <m_primary>  (19) 
energy

$$$$
20:0
     RDKit          3D

 50 52  0  0  0  0  0  0  0  0999 V2000
   -2.7140   23.7240  -29.5780 C   0  0  0  0  0  0  0  0  0  0  0  0
   -1.6680   22.7860  -30.1790 C   0  0  0  0  0  0  0  0  0  0  0  0
   -2.2930   21.8190  -31.0460 N   0  0  0  0  0  0  0  0  0  0  0  0
   -2.9130   20.8080  -30.2070 C   0  0  0  0  0  0  0  0  0  0  0  0
   -1.3780   21.2360  -31.9980 C   0  0  0  0  0  0  0  0  0  0  0  0
   -2.1030   20.5210  -33.0750 C   0  0  0  0  0  0  0  0  0  0  0  0
   -3.3140   21.1020  -33.5500 N   0  0  0  0  0  0  0  0  0  0  0  0
   -4.6280   20.6860  -33.2020 C   0  0  0  0  0  0  0  0  0  0  0  0
   -5.1480   19.4480  -33.5060 C   0  0  0  0  0  0  0  0  0  0  0  0
   -4.4050   18.5350  -34.2220 C   0  0  0  0  0  0  0  0  0  0  0  0
   -4.8640   17.2850  -34.5740 C   0  0  0  0  0  0  0  0  0  0  0  0
   -6.1190   16.9260  -34.1970 C   0  0  0  0  0  0  0  0  0  0  0  0
   -6.8930   17.8290  -33.4720 C   0  0  0  0  0  0  0  0  0  0  0  0
   -6.4430   19.0800  -33.1150 C   0  0  0  0  0  0  0  0  0  0  0  0
   -7.2370   19.9300  -32.4230 N   0  0  0  0  0  0  0  0  0  0  0  0
   -8.5730   19.5760  -31.9870 C   0  0  0  0  0  0  0  0  0  0  0  0
   -6.7210   21.1510  -32.1280 C   0  0  0  0  0  0  0  0  0  0  0  0
   -7.4810   22.0790  -31.4290 C   0  0  0  0  0  0  0  0  0  0  0  0
   -6.9700   23.3310  -31.1260 C   0  0  0  0  0  0  0  0  0  0  0  0
   -5.6990   23.7120  -31.4980 C   0  0  0  0  0  0  0  0  0  0  0  0
   -5.1630   24.9610  -31.2040 O   0  0  0  0  0  0  0  0  0  0  0  0
   -5.6850   25.8050  -30.2090 C   0  0  0  0  0  0  0  0  0  0  0  0
   -4.9400   22.7870  -32.1970 C   0  0  0  0  0  0  0  0  0  0  0  0
   -5.4600   21.5430  -32.4940 C   0  0  0  0  0  0  0  0  0  0  0  0
   -2.6613   23.6768  -28.4803 H   0  0  0  0  0  0  0  0  0  0  0  0
   -2.5172   24.7539  -29.9105 H   0  0  0  0  0  0  0  0  0  0  0  0
   -3.7164   23.4166  -29.9105 H   0  0  0  0  0  0  0  0  0  0  0  0
   -0.9433   23.3765  -30.7588 H   0  0  0  0  0  0  0  0  0  0  0  0
   -1.1581   22.2535  -29.3627 H   0  0  0  0  0  0  0  0  0  0  0  0
   -2.7564   21.0634  -29.1486 H   0  0  0  0  0  0  0  0  0  0  0  0
   -3.9917   20.7671  -30.4186 H   0  0  0  0  0  0  0  0  0  0  0  0
   -2.4604   19.8280  -30.4186 H   0  0  0  0  0  0  0  0  0  0  0  0
   -0.7694   22.0355  -32.4456 H   0  0  0  0  0  0  0  0  0  0  0  0
   -0.7415   20.5118  -31.4685 H   0  0  0  0  0  0  0  0  0  0  0  0
   -1.4194   20.4365  -33.9326 H   0  0  0  0  0  0  0  0  0  0  0  0
   -2.4088   19.5666  -32.6216 H   0  0  0  0  0  0  0  0  0  0  0  0
   -3.2800   21.9220  -34.2310 H   0  0  0  0  0  0  0  0  0  0  0  0
   -3.3882   18.8204  -34.5298 H   0  0  0  0  0  0  0  0  0  0  0  0
   -4.2291   16.5933  -35.1471 H   0  0  0  0  0  0  0  0  0  0  0  0
   -6.5184   15.9356  -34.4608 H   0  0  0  0  0  0  0  0  0  0  0  0
   -7.9079   17.5295  -33.1717 H   0  0  0  0  0  0  0  0  0  0  0  0
   -8.6094   19.5664  -30.8876 H   0  0  0  0  0  0  0  0  0  0  0  0
   -9.2919   20.3147  -32.3712 H   0  0  0  0  0  0  0  0  0  0  0  0
   -8.8318   18.5783  -32.3712 H   0  0  0  0  0  0  0  0  0  0  0  0
   -8.5012   21.8173  -31.1118 H   0  0  0  0  0  0  0  0  0  0  0  0
   -7.5987   24.0430  -30.5711 H   0  0  0  0  0  0  0  0  0  0  0  0
   -5.4350   25.4007  -29.2170 H   0  0  0  0  0  0  0  0  0  0  0  0
   -5.2505   26.8099  -30.3156 H   0  0  0  0  0  0  0  0  0  0  0  0
   -6.7782   25.8650  -30.3156 H   0  0  0  0  0  0  0  0  0  0  0  0
   -3.9195   23.0448  -32.5164 H   0  0  0  0  0  0  0  0  0  0  0  0
  1  2  1  0
  2  3  1  0
  3  4  1  0
  3  5  1  0
  5  6  1  0
  6  7  1  0
  7  8  1  0
  8  9  2  0
  9 10  1  0
 10 11  2  0
 11 12  1  0
 12 13  2  0
 13 14  1  0
 14 15  2  0
 15 16  1  0
 15 17  1  0
 17 18  2  0
 18 19  1  0
 19 20  2  0
 20 21  1  0
 21 22  1  0
 20 23  1  0
 23 24  2  0
 24  8  1  0
 14  9  1  0
 24 17  1  0
  1 25  1  0
  1 26  1  0
  1 27  1  0
  2 28  1  0
  2 29  1  0
  4 30  1  0
  4 31  1  0
  4 32  1  0
  5 33  1  0
  5 34  1  0
  6 35  1  0
  6 36  1  0
  7 37  1  0
 10 38  1  0
 11 39  1  0
 12 40  1  0
 13 41  1  0
 16 42  1  0
 16 43  1  0
 16 44  1  0
 18 45  1  0
 19 46  1  0
 22 47  1  0
 22 48  1  0
 22 49  1  0
 23 50  1  0
M  CHG  1  15   1
M  END
>  <smiles>  (20) 
CCN(C)CCNc1c2ccccc2[n+](C)c2ccc(OC)cc12

>  <score_type>  (20) 
oracle

>  <origin>  (20) 
adg

>  <m_score__min__energy>  (20) 
-7.9299999999999997

>  <m_primary>  (20) 
energy

$$$$
21:0
     RDKit          3D

 46 48  0  0  0  0  0  0  0  0999 V2000
   -4.2110   24.1650  -28.1140 C   0  0  0  0  0  0  0  0  0  0  0  0
   -3.1910   24.5560  -29.1890 C   0  0  0  0  0  0  0  0  0  0  0  0
   -3.8600   24.7270  -30.4620 N   0  0  0  0  0  0  0  0  0  0  0  0
   -5.1840   25.3360  -30.1340 C   0  0  0  0  0  0  0  0  0  0  0  0
   -4.1930   23.4000  -31.0200 C   0  0  0  0  0  0  0  0  0  0  0  0
   -5.6400   23.2530  -31.3380 C   0  0  0  0  0  0  0  0  0  0  0  0
   -5.8450   22.5760  -32.5940 N   0  0  0  0  0  0  0  0  0  0  0  0
   -5.7990   21.1930  -32.8110 C   0  0  0  0  0  0  0  0  0  0  0  0
   -7.0120   20.4980  -32.6480 C   0  0  0  0  0  0  0  0  0  0  0  0
   -8.1450   21.2010  -32.2890 C   0  0  0  0  0  0  0  0  0  0  0  0
   -9.3470   20.5480  -32.1200 C   0  0  0  0  0  0  0  0  0  0  0  0
   -9.4170   19.2010  -32.3060 C   0  0  0  0  0  0  0  0  0  0  0  0
   -8.2770   18.5200  -32.6620 C   0  0  0  0  0  0  0  0  0  0  0  0
   -7.0430   19.1410  -32.8430 C   0  0  0  0  0  0  0  0  0  0  0  0
   -5.9500   18.4150  -33.1900 N   0  0  0  0  0  0  0  0  0  0  0  0
   -6.1320   17.0100  -33.3460 C   0  0  0  0  0  0  0  0  0  0  0  0
   -4.7920   19.0820  -33.3440 C   0  0  0  0  0  0  0  0  0  0  0  0
   -3.6450   18.3810  -33.6820 C   0  0  0  0  0  0  0  0  0  0  0  0
   -2.4140   18.9940  -33.8390 C   0  0  0  0  0  0  0  0  0  0  0  0
   -2.3700   20.3550  -33.6440 C   0  0  0  0  0  0  0  0  0  0  0  0
   -0.8330   21.1690  -33.8350 Cl  0  0  0  0  0  0  0  0  0  0  0  0
   -3.5100   21.0720  -33.3070 C   0  0  0  0  0  0  0  0  0  0  0  0
   -4.7180   20.4420  -33.1580 C   0  0  0  0  0  0  0  0  0  0  0  0
   -3.7758   24.3318  -27.1176 H   0  0  0  0  0  0  0  0  0  0  0  0
   -5.1161   24.7799  -28.2264 H   0  0  0  0  0  0  0  0  0  0  0  0
   -4.4732   23.1026  -28.2264 H   0  0  0  0  0  0  0  0  0  0  0  0
   -2.7032   25.4996  -28.9033 H   0  0  0  0  0  0  0  0  0  0  0  0
   -2.4364   23.7608  -29.2796 H   0  0  0  0  0  0  0  0  0  0  0  0
   -5.3021   25.3903  -29.0417 H   0  0  0  0  0  0  0  0  0  0  0  0
   -5.2371   26.3490  -30.5594 H   0  0  0  0  0  0  0  0  0  0  0  0
   -5.9878   24.7171  -30.5594 H   0  0  0  0  0  0  0  0  0  0  0  0
   -3.6137   23.2518  -31.9433 H   0  0  0  0  0  0  0  0  0  0  0  0
   -3.9443   22.6484  -30.2563 H   0  0  0  0  0  0  0  0  0  0  0  0
   -6.1235   22.6734  -30.5378 H   0  0  0  0  0  0  0  0  0  0  0  0
   -6.0773   24.2593  -31.4161 H   0  0  0  0  0  0  0  0  0  0  0  0
   -6.0480   23.1920  -33.4300 H   0  0  0  0  0  0  0  0  0  0  0  0
   -8.0879   22.2889  -32.1369 H   0  0  0  0  0  0  0  0  0  0  0  0
  -10.2468   21.1133  -31.8358 H   0  0  0  0  0  0  0  0  0  0  0  0
  -10.3694   18.6668  -32.1737 H   0  0  0  0  0  0  0  0  0  0  0  0
   -8.3423   17.4321  -32.8112 H   0  0  0  0  0  0  0  0  0  0  0  0
   -6.1934   16.5360  -32.3553 H   0  0  0  0  0  0  0  0  0  0  0  0
   -7.0622   16.8202  -33.9016 H   0  0  0  0  0  0  0  0  0  0  0  0
   -5.2808   16.5895  -33.9016 H   0  0  0  0  0  0  0  0  0  0  0  0
   -3.7159   17.2935  -33.8315 H   0  0  0  0  0  0  0  0  0  0  0  0
   -1.5143   18.4205  -34.1068 H   0  0  0  0  0  0  0  0  0  0  0  0
   -3.4429   22.1597  -33.1576 H   0  0  0  0  0  0  0  0  0  0  0  0
  1  2  1  0
  2  3  1  0
  3  4  1  0
  3  5  1  0
  5  6  1  0
  6  7  1  0
  7  8  1  0
  8  9  2  0
  9 10  1  0
 10 11  2  0
 11 12  1  0
 12 13  2  0
 13 14  1  0
 14 15  2  0
 15 16  1  0
 15 17  1  0
 17 18  2  0
 18 19  1  0
 19 20  2  0
 20 21  1  0
 20 22  1  0
 22 23  2  0
 23  8  1  0
 14  9  1  0
 23 17  1  0
  1 24  1  0
  1 25  1  0
  1 26  1  0
  2 27  1  0
  2 28  1  0
  4 29  1  0
  4 30  1  0
  4 31  1  0
  5 32  1  0
  5 33  1  0
  6 34  1  0
  6 35  1  0
  7 36  1  0
 10 37  1  0
 11 38  1  0
 12 39  1  0
 13 40  1  0
 16 41  1  0
 16 42  1  0
 16 43  1  0
 18 44  1  0
 19 45  1  0
 22 46  1  0
M  CHG  1  15   1
M  END
>  <smiles>  (21) 
CCN(C)CCNc1c2ccccc2[n+](C)c2ccc(Cl)cc12

>  <score_type>  (21) 
oracle

>  <origin>  (21) 
adg

>  <m_score__min__energy>  (21) 
-8.6199999999999992

>  <m_primary>  (21) 
energy

$$$$
22:0
     RDKit          3D

 61 63  0  0  0  0  0  0  0  0999 V2000
   -0.1420   23.6450  -28.6040 C   0  0  0  0  0  0  0  0  0  0  0  0
   -1.4390   23.8100  -29.3300 C   0  0  0  0  0  0  0  0  0  0  0  0
   -2.3020   24.8160  -28.7340 N   0  0  0  0  0  0  0  0  0  0  0  0
   -1.5910   25.3320  -27.5890 C   0  0  0  0  0  0  0  0  0  0  0  0
   -2.3360   25.2920  -26.3020 C   0  0  0  0  0  0  0  0  0  0  0  0
   -3.5670   24.2090  -28.3780 C   0  0  0  0  0  0  0  0  0  0  0  0
   -3.7620   22.8600  -28.9850 C   0  0  0  0  0  0  0  0  0  0  0  0
   -4.3570   23.0150  -30.2600 O   0  0  0  0  0  0  0  0  0  0  0  0
   -4.7660   24.2010  -30.8100 C   0  0  0  0  0  0  0  0  0  0  0  0
   -4.0450   25.2300  -30.8430 O   0  0  0  0  0  0  0  0  0  0  0  0
   -6.1380   24.2610  -31.3950 C   0  0  0  0  0  0  0  0  0  0  0  0
   -7.1420   23.5590  -30.5260 C   0  0  0  0  0  0  0  0  0  0  0  0
   -7.7720   22.4530  -31.1800 N   0  0  0  0  0  0  0  0  0  0  0  0
   -9.1190   22.3010  -31.2780 C   0  0  0  0  0  0  0  0  0  0  0  0
   -9.3820   21.1190  -31.9740 C   0  0  0  0  0  0  0  0  0  0  0  0
   -8.1560   20.5630  -32.2950 C   0  0  0  0  0  0  0  0  0  0  0  0
   -7.7950   19.3970  -32.9800 C   0  0  0  0  0  0  0  0  0  0  0  0
   -6.4500   19.1010  -33.1460 C   0  0  0  0  0  0  0  0  0  0  0  0
   -6.0060   17.6250  -34.0120 S   0  0  0  0  0  0  0  0  0  0  0  0
   -5.6380   18.0620  -35.4230 O   0  0  0  0  0  0  0  0  0  0  0  0
   -7.1660   16.7040  -34.1200 O   0  0  0  0  0  0  0  0  0  0  0  0
   -4.6050   16.9410  -33.3330 N   0  0  0  0  0  0  0  0  0  0  0  0
   -4.8550   15.8330  -32.4670 C   0  0  0  0  0  0  0  0  0  0  0  0
   -4.8940   14.4930  -33.1450 C   0  0  0  0  0  0  0  0  0  0  0  0
   -3.7250   14.3330  -33.8760 O   0  0  0  0  0  0  0  0  0  0  0  0
   -3.6850   15.2710  -34.8950 C   0  0  0  0  0  0  0  0  0  0  0  0
   -3.6470   16.6780  -34.3610 C   0  0  0  0  0  0  0  0  0  0  0  0
   -5.4630   19.9350  -32.6490 C   0  0  0  0  0  0  0  0  0  0  0  0
   -5.8390   21.0870  -31.9740 C   0  0  0  0  0  0  0  0  0  0  0  0
   -7.1750   21.3960  -31.8000 C   0  0  0  0  0  0  0  0  0  0  0  0
   -0.3234   23.6681  -27.5193 H   0  0  0  0  0  0  0  0  0  0  0  0
    0.3124   22.6818  -28.8793 H   0  0  0  0  0  0  0  0  0  0  0  0
    0.5391   24.4637  -28.8793 H   0  0  0  0  0  0  0  0  0  0  0  0
   -1.2242   24.1036  -30.3681 H   0  0  0  0  0  0  0  0  0  0  0  0
   -1.9701   22.8482  -29.2754 H   0  0  0  0  0  0  0  0  0  0  0  0
   -0.6711   24.7414  -27.4667 H   0  0  0  0  0  0  0  0  0  0  0  0
   -1.4095   26.3961  -27.8003 H   0  0  0  0  0  0  0  0  0  0  0  0
   -1.6237   25.3302  -25.4647 H   0  0  0  0  0  0  0  0  0  0  0  0
   -3.0158   26.1549  -26.2448 H   0  0  0  0  0  0  0  0  0  0  0  0
   -2.9194   24.3612  -26.2448 H   0  0  0  0  0  0  0  0  0  0  0  0
   -3.6116   24.1098  -27.2834 H   0  0  0  0  0  0  0  0  0  0  0  0
   -4.3636   24.8608  -28.7661 H   0  0  0  0  0  0  0  0  0  0  0  0
   -2.7891   22.3576  -29.0897 H   0  0  0  0  0  0  0  0  0  0  0  0
   -4.4128   22.2508  -28.3405 H   0  0  0  0  0  0  0  0  0  0  0  0
   -6.4342   25.3149  -31.5025 H   0  0  0  0  0  0  0  0  0  0  0  0
   -6.1172   23.7565  -32.3723 H   0  0  0  0  0  0  0  0  0  0  0  0
   -6.6285   23.1881  -29.6267 H   0  0  0  0  0  0  0  0  0  0  0  0
   -7.9290   24.2867  -30.2791 H   0  0  0  0  0  0  0  0  0  0  0  0
   -9.8747   22.9924  -30.8768 H   0  0  0  0  0  0  0  0  0  0  0  0
  -10.3727   20.7090  -32.2197 H   0  0  0  0  0  0  0  0  0  0  0  0
   -8.5674   18.7245  -33.3813 H   0  0  0  0  0  0  0  0  0  0  0  0
   -4.0601   15.8078  -31.7070 H   0  0  0  0  0  0  0  0  0  0  0  0
   -5.8581   15.9931  -32.0449 H   0  0  0  0  0  0  0  0  0  0  0  0
   -4.9705   13.6973  -32.3893 H   0  0  0  0  0  0  0  0  0  0  0  0
   -5.7661   14.4347  -33.8129 H   0  0  0  0  0  0  0  0  0  0  0  0
   -2.7853   15.0970  -35.5035 H   0  0  0  0  0  0  0  0  0  0  0  0
   -4.5986   15.1594  -35.4975 H   0  0  0  0  0  0  0  0  0  0  0  0
   -2.6428   16.8649  -33.9527 H   0  0  0  0  0  0  0  0  0  0  0  0
   -3.8957   17.3420  -35.2020 H   0  0  0  0  0  0  0  0  0  0  0  0
   -4.3999   19.6886  -32.7869 H   0  0  0  0  0  0  0  0  0  0  0  0
   -5.0671   21.7607  -31.5736 H   0  0  0  0  0  0  0  0  0  0  0  0
  1  2  1  0
  2  3  1  0
  3  4  1  0
  4  5  1  0
  3  6  1  0
  6  7  1  0
  7  8  1  0
  8  9  1  0
  9 10  2  0
  9 11  1  0
 11 12  1  0
 12 13  1  0
 13 14  1  0
 14 15  2  0
 15 16  1  0
 16 17  2  0
 17 18  1  0
 18 19  1  0
 19 20  2  0
 19 21  2  0
 19 22  1  0
 22 23  1  0
 23 24  1  0
 24 25  1  0
 25 26  1  0
 26 27  1  0
 18 28  2  0
 28 29  1  0
 29 30  2  0
 30 13  1  0
 30 16  1  0
 27 22  1  0
  1 31  1  0
  1 32  1  0
  1 33  1  0
  2 34  1  0
  2 35  1  0
  4 36  1  0
  4 37  1  0
  5 38  1  0
  5 39  1  0
  5 40  1  0
  6 41  1  0
  6 42  1  0
  7 43  1  0
  7 44  1  0
 11 45  1  0
 11 46  1  0
 12 47  1  0
 12 48  1  0
 14 49  1  0
 15 50  1  0
 17 51  1  0
 23 52  1  0
 23 53  1  0
 24 54  1  0
 24 55  1  0
 26 56  1  0
 26 57  1  0
 27 58  1  0
 27 59  1  0
 28 60  1  0
 29 61  1  0
M  END
>  <smiles>  (22) 
CCN(CC)CCOC(=O)CCn1ccc2cc(S(=O)(=O)N3CCOCC3)ccc21

>  <score_type>  (22) 
oracle

>  <origin>  (22) 
adg

>  <m_score__min__energy>  (22) 
-8.7200000000000006

>  <m_primary>  (22) 
energy

$$$$
23:0
     RDKit          3D

 42 44  0  0  0  0  0  0  0  0999 V2000
   -0.2420   26.7850  -27.1030 C   0  0  0  0  0  0  0  0  0  0  0  0
   -1.2300   25.7950  -27.4230 N   0  0  0  0  0  0  0  0  0  0  0  0
   -1.8650   25.3640  -26.2060 C   0  0  0  0  0  0  0  0  0  0  0  0
   -0.6540   24.6970  -28.1910 C   0  0  0  0  0  0  0  0  0  0  0  0
   -1.5580   24.2370  -29.2790 C   0  0  0  0  0  0  0  0  0  0  0  0
   -2.8970   24.8450  -29.1330 N   0  0  0  0  0  0  0  0  0  0  0  0
   -3.9210   24.1760  -29.8580 C   0  0  0  0  0  0  0  0  0  0  0  0
   -4.6170   24.5300  -30.9040 O   0  0  0  0  0  0  0  0  0  0  0  0
   -5.4590   23.5920  -31.2400 C   0  0  0  0  0  0  0  0  0  0  0  0
   -6.4580   23.5070  -32.3340 C   0  0  0  0  0  0  0  0  0  0  0  0
   -7.4380   22.4280  -32.0850 C   0  0  0  0  0  0  0  0  0  0  0  0
   -8.7200   22.6790  -31.5870 C   0  0  0  0  0  0  0  0  0  0  0  0
   -9.3940   21.5240  -31.4680 N   0  0  0  0  0  0  0  0  0  0  0  0
   -8.5720   20.5430  -31.8800 C   0  0  0  0  0  0  0  0  0  0  0  0
   -8.8430   19.1860  -31.9310 C   0  0  0  0  0  0  0  0  0  0  0  0
   -7.8140   18.3610  -32.4010 C   0  0  0  0  0  0  0  0  0  0  0  0
   -6.5890   18.8950  -32.7920 C   0  0  0  0  0  0  0  0  0  0  0  0
   -6.3360   20.2610  -32.7320 C   0  0  0  0  0  0  0  0  0  0  0  0
   -7.3500   21.0700  -32.2700 C   0  0  0  0  0  0  0  0  0  0  0  0
   -5.3030   22.5580  -30.3580 N   0  0  0  0  0  0  0  0  0  0  0  0
   -4.3450   22.8940  -29.4760 C   0  0  0  0  0  0  0  0  0  0  0  0
   -3.8290   22.1280  -28.3590 C   0  0  0  0  0  0  0  0  0  0  0  0
   -3.4060   21.4950  -27.4680 N   0  0  0  0  0  0  0  0  0  0  0  0
   -0.1529   26.8743  -26.0103 H   0  0  0  0  0  0  0  0  0  0  0  0
    0.7279   26.4854  -27.5267 H   0  0  0  0  0  0  0  0  0  0  0  0
   -0.5435   27.7543  -27.5267 H   0  0  0  0  0  0  0  0  0  0  0  0
   -1.3010   25.7468  -25.3427 H   0  0  0  0  0  0  0  0  0  0  0  0
   -2.8941   25.7510  -26.1724 H   0  0  0  0  0  0  0  0  0  0  0  0
   -1.8853   24.2647  -26.1724 H   0  0  0  0  0  0  0  0  0  0  0  0
    0.2931   25.0351  -28.6367 H   0  0  0  0  0  0  0  0  0  0  0  0
   -0.4947   23.8522  -27.5047 H   0  0  0  0  0  0  0  0  0  0  0  0
   -1.1323   24.5285  -30.2505 H   0  0  0  0  0  0  0  0  0  0  0  0
   -1.6564   23.1430  -29.2202 H   0  0  0  0  0  0  0  0  0  0  0  0
   -3.0630   25.6870  -28.5470 H   0  0  0  0  0  0  0  0  0  0  0  0
   -6.9919   24.4660  -32.4068 H   0  0  0  0  0  0  0  0  0  0  0  0
   -5.9276   23.2843  -33.2716 H   0  0  0  0  0  0  0  0  0  0  0  0
   -9.1165   23.6727  -31.3313 H   0  0  0  0  0  0  0  0  0  0  0  0
  -10.3780   21.4710  -31.1130 H   0  0  0  0  0  0  0  0  0  0  0  0
   -9.8155   18.7777  -31.6187 H   0  0  0  0  0  0  0  0  0  0  0  0
   -7.9758   17.2747  -32.4623 H   0  0  0  0  0  0  0  0  0  0  0  0
   -5.8017   18.2194  -33.1575 H   0  0  0  0  0  0  0  0  0  0  0  0
   -5.3661   20.6780  -33.0408 H   0  0  0  0  0  0  0  0  0  0  0  0
  1  2  1  0
  2  3  1  0
  2  4  1  0
  4  5  1  0
  5  6  1  0
  6  7  1  0
  7  8  1  0
  8  9  1  0
  9 10  1  0
 10 11  1  0
 11 12  2  0
 12 13  1  0
 13 14  1  0
 14 15  2  0
 15 16  1  0
 16 17  2  0
 17 18  1  0
 18 19  2  0
  9 20  2  0
 20 21  1  0
 21 22  1  0
 22 23  3  0
 21  7  2  0
 19 11  1  0
 19 14  1  0
  1 24  1  0
  1 25  1  0
  1 26  1  0
  3 27  1  0
  3 28  1  0
  3 29  1  0
  4 30  1  0
  4 31  1  0
  5 32  1  0
  5 33  1  0
  6 34  1  0
 10 35  1  0
 10 36  1  0
 12 37  1  0
 13 38  1  0
 15 39  1  0
 16 40  1  0
 17 41  1  0
 18 42  1  0
M  END
>  <smiles>  (23) 
CN(C)CCNc1oc(Cc2c[nH]c3ccccc23)nc1C#N

>  <score_type>  (23) 
oracle

>  <origin>  (23) 
adg

>  <m_score__min__energy>  (23) 
-7.8899999999999997

>  <m_primary>  (23) 
energy

$$$$
24:0
     RDKit          3D

 80 80  0  0  0  0  0  0  0  0999 V2000
   -1.3650   20.7680  -33.8520 C   0  0  0  0  0  0  0  0  0  0  0  0
   -2.6730   21.1400  -33.2600 C   0  0  0  0  0  0  0  0  0  0  0  0
   -3.3900   20.1500  -32.5270 N   0  0  0  0  0  0  0  0  0  0  0  0
   -4.6470   20.8730  -32.1100 C   0  0  0  0  0  0  0  0  0  0  0  0
   -4.5330   22.3400  -32.4580 C   0  0  0  0  0  0  0  0  0  0  0  0
   -3.8950   19.0280  -33.3610 C   0  0  0  0  0  0  0  0  0  0  0  0
   -5.2530   19.2330  -33.8510 C   0  0  0  0  0  0  0  0  0  0  0  0
   -6.1250   18.2630  -34.0780 O   0  0  0  0  0  0  0  0  0  0  0  0
   -6.7750   17.4510  -33.2960 C   0  0  0  0  0  0  0  0  0  0  0  0
   -7.1980   18.0180  -31.9690 C   0  0  0  0  0  0  0  0  0  0  0  0
   -8.5810   18.1690  -31.8890 O   0  0  0  0  0  0  0  0  0  0  0  0
   -9.1250   19.3350  -32.2710 C   0  0  0  0  0  0  0  0  0  0  0  0
   -8.1580   20.4330  -32.6850 C   0  0  0  0  0  0  0  0  0  0  0  0
   -8.5730   21.5830  -32.0450 O   0  0  0  0  0  0  0  0  0  0  0  0
   -7.9580   21.9370  -30.8860 C   0  0  0  0  0  0  0  0  0  0  0  0
   -7.2550   23.2470  -31.0200 C   0  0  0  0  0  0  0  0  0  0  0  0
   -6.3570   23.5180  -29.9640 O   0  0  0  0  0  0  0  0  0  0  0  0
   -6.2360   24.8820  -29.9190 C   0  0  0  0  0  0  0  0  0  0  0  0
   -5.1440   25.5020  -30.7220 C   0  0  0  0  0  0  0  0  0  0  0  0
   -3.8700   25.2800  -30.4520 O   0  0  0  0  0  0  0  0  0  0  0  0
   -3.0710   24.5220  -29.7110 C   0  0  0  0  0  0  0  0  0  0  0  0
   -2.1110   25.2180  -28.9920 N   0  0  0  0  0  0  0  0  0  0  0  0
   -1.2660   24.5670  -28.2300 C   0  0  0  0  0  0  0  0  0  0  0  0
   -0.2830   25.3100  -27.4990 N   0  0  0  0  0  0  0  0  0  0  0  0
   -0.6800   26.6130  -27.0060 C   0  0  0  0  0  0  0  0  0  0  0  0
    1.0520   24.8090  -27.2480 C   0  0  0  0  0  0  0  0  0  0  0  0
   -1.3270   23.2390  -28.1470 N   0  0  0  0  0  0  0  0  0  0  0  0
   -2.2260   22.4920  -28.8120 C   0  0  0  0  0  0  0  0  0  0  0  0
   -2.1430   21.0970  -28.6570 N   0  0  0  0  0  0  0  0  0  0  0  0
   -1.3450   20.2480  -29.5220 C   0  0  0  0  0  0  0  0  0  0  0  0
   -0.4710   20.9380  -30.4920 C   0  0  0  0  0  0  0  0  0  0  0  0
   -2.8630   20.3560  -27.6040 C   0  0  0  0  0  0  0  0  0  0  0  0
   -1.9750   19.4440  -26.8310 C   0  0  0  0  0  0  0  0  0  0  0  0
   -3.0940   23.1580  -29.5910 N   0  0  0  0  0  0  0  0  0  0  0  0
   -0.6435   20.5628  -33.0475 H   0  0  0  0  0  0  0  0  0  0  0  0
   -1.4864   19.8688  -34.4738 H   0  0  0  0  0  0  0  0  0  0  0  0
   -0.9950   21.5965  -34.4738 H   0  0  0  0  0  0  0  0  0  0  0  0
   -2.4932   21.9837  -32.5775 H   0  0  0  0  0  0  0  0  0  0  0  0
   -3.3137   21.3508  -34.1290 H   0  0  0  0  0  0  0  0  0  0  0  0
   -5.5098   20.4387  -32.6363 H   0  0  0  0  0  0  0  0  0  0  0  0
   -4.7839   20.7668  -31.0237 H   0  0  0  0  0  0  0  0  0  0  0  0
   -4.4869   22.9337  -31.5331 H   0  0  0  0  0  0  0  0  0  0  0  0
   -3.6192   22.5072  -33.0470 H   0  0  0  0  0  0  0  0  0  0  0  0
   -5.4100   22.6463  -33.0470 H   0  0  0  0  0  0  0  0  0  0  0  0
   -3.2267   18.9093  -34.2266 H   0  0  0  0  0  0  0  0  0  0  0  0
   -3.9132   18.1327  -32.7222 H   0  0  0  0  0  0  0  0  0  0  0  0
   -5.7343   19.8969  -33.1178 H   0  0  0  0  0  0  0  0  0  0  0  0
   -5.0491   19.5666  -34.8792 H   0  0  0  0  0  0  0  0  0  0  0  0
   -7.6809   17.1238  -33.8273 H   0  0  0  0  0  0  0  0  0  0  0  0
   -6.0739   16.6361  -33.0626 H   0  0  0  0  0  0  0  0  0  0  0  0
   -6.8670   17.3388  -31.1696 H   0  0  0  0  0  0  0  0  0  0  0  0
   -6.7382   19.0112  -31.8589 H   0  0  0  0  0  0  0  0  0  0  0  0
   -9.7850   19.1310  -33.1271 H   0  0  0  0  0  0  0  0  0  0  0  0
   -9.6391   19.7219  -31.3788 H   0  0  0  0  0  0  0  0  0  0  0  0
   -7.1345   20.1744  -32.3758 H   0  0  0  0  0  0  0  0  0  0  0  0
   -8.1513   20.5660  -33.7769 H   0  0  0  0  0  0  0  0  0  0  0  0
   -8.7130   22.0159  -30.0899 H   0  0  0  0  0  0  0  0  0  0  0  0
   -7.2114   21.1671  -30.6413 H   0  0  0  0  0  0  0  0  0  0  0  0
   -6.6906   23.2437  -31.9641 H   0  0  0  0  0  0  0  0  0  0  0  0
   -8.0265   24.0307  -30.9962 H   0  0  0  0  0  0  0  0  0  0  0  0
   -7.1869   25.3091  -30.2704 H   0  0  0  0  0  0  0  0  0  0  0  0
   -5.9778   25.1065  -28.8736 H   0  0  0  0  0  0  0  0  0  0  0  0
   -5.3011   25.1761  -31.7608 H   0  0  0  0  0  0  0  0  0  0  0  0
   -5.2518   26.5692  -30.4780 H   0  0  0  0  0  0  0  0  0  0  0  0
   -0.6776   26.6052  -25.9060 H   0  0  0  0  0  0  0  0  0  0  0  0
    0.0272   27.3734  -27.3688 H   0  0  0  0  0  0  0  0  0  0  0  0
   -1.6911   26.8499  -27.3688 H   0  0  0  0  0  0  0  0  0  0  0  0
    1.2218   24.7453  -26.1630 H   0  0  0  0  0  0  0  0  0  0  0  0
    1.1587   23.8097  -27.6951 H   0  0  0  0  0  0  0  0  0  0  0  0
    1.7898   25.4914  -27.6951 H   0  0  0  0  0  0  0  0  0  0  0  0
   -0.7060   19.6229  -28.8809 H   0  0  0  0  0  0  0  0  0  0  0  0
   -2.0693   19.6851  -30.1291 H   0  0  0  0  0  0  0  0  0  0  0  0
    0.2807   21.5314  -29.9508 H   0  0  0  0  0  0  0  0  0  0  0  0
    0.0352   20.1933  -31.1238 H   0  0  0  0  0  0  0  0  0  0  0  0
   -1.0779   21.6032  -31.1238 H   0  0  0  0  0  0  0  0  0  0  0  0
   -3.3132   21.0805  -26.9094 H   0  0  0  0  0  0  0  0  0  0  0  0
   -3.6260   19.7361  -28.0975 H   0  0  0  0  0  0  0  0  0  0  0  0
   -2.1319   19.6051  -25.7542 H   0  0  0  0  0  0  0  0  0  0  0  0
   -2.2121   18.4001  -27.0839 H   0  0  0  0  0  0  0  0  0  0  0  0
   -0.9251   19.6532  -27.0839 H   0  0  0  0  0  0  0  0  0  0  0  0
  1  2  1  0
  2  3  1  0
  3  4  1  0
  4  5  1  0
  3  6  1  0
  6  7  1  0
  7  8  1  0
  8  9  1  0
  9 10  1  0
 10 11  1  0
 11 12  1  0
 12 13  1  0
 13 14  1  0
 14 15  1  0
 15 16  1  0
 16 17  1  0
 17 18  1  0
 18 19  1  0
 19 20  1  0
 20 21  1  0
 21 22  2  0
 22 23  1  0
 23 24  1  0
 24 25  1  0
 24 26  1  0
 23 27  2  0
 27 28  1  0
 28 29  1  0
 29 30  1  0
 30 31  1  0
 29 32  1  0
 32 33  1  0
 28 34  2  0
 34 21  1  0
  1 35  1  0
  1 36  1  0
  1 37  1  0
  2 38  1  0
  2 39  1  0
  4 40  1  0
  4 41  1  0
  5 42  1  0
  5 43  1  0
  5 44  1  0
  6 45  1  0
  6 46  1  0
  7 47  1  0
  7 48  1  0
  9 49  1  0
  9 50  1  0
 10 51  1  0
 10 52  1  0
 12 53  1  0
 12 54  1  0
 13 55  1  0
 13 56  1  0
 15 57  1  0
 15 58  1  0
 16 59  1  0
 16 60  1  0
 18 61  1  0
 18 62  1  0
 19 63  1  0
 19 64  1  0
 25 65  1  0
 25 66  1  0
 25 67  1  0
 26 68  1  0
 26 69  1  0
 26 70  1  0
 30 71  1  0
 30 72  1  0
 31 73  1  0
 31 74  1  0
 31 75  1  0
 32 76  1  0
 32 77  1  0
 33 78  1  0
 33 79  1  0
 33 80  1  0
M  END
>  <smiles>  (24) 
CCN(CC)CCOCCOCCOCCOCCOc1nc(N(C)C)nc(N(CC)CC)n1

>  <score_type>  (24) 
oracle

>  <origin>  (24) 
adg

>  <m_score__min__energy>  (24) 
-6.9500000000000002

>  <m_primary>  (24) 
energy

$$$$
25:0
     RDKit          3D

 34 34  0  0  0  0  0  0  0  0999 V2000
   -8.7790   18.5490  -31.6020 C   0  0  0  0  0  0  0  0  0  0  0  0
   -7.6670   17.8030  -32.3010 C   0  0  0  0  0  0  0  0  0  0  0  0
   -6.8940   18.7010  -33.0960 N   0  0  0  0  0  0  0  0  0  0  0  0
   -6.0910   18.0690  -34.0920 C   0  0  0  0  0  0  0  0  0  0  0  0
   -6.1960   19.7040  -32.3150 C   0  0  0  0  0  0  0  0  0  0  0  0
   -6.0540   20.9910  -33.0640 C   0  0  0  0  0  0  0  0  0  0  0  0
   -6.1510   22.1470  -32.2380 N   0  0  0  0  0  0  0  0  0  0  0  0
   -7.2780   22.6220  -31.6830 C   0  0  0  0  0  0  0  0  0  0  0  0
   -8.5540   21.9050  -31.9440 C   0  0  0  0  0  0  0  0  0  0  0  0
   -7.2830   23.7650  -30.8770 C   0  0  0  0  0  0  0  0  0  0  0  0
   -6.0930   24.4270  -30.6420 C   0  0  0  0  0  0  0  0  0  0  0  0
   -6.0240   25.6490  -29.7940 C   0  0  0  0  0  0  0  0  0  0  0  0
   -4.9830   23.9280  -31.2100 N   0  0  0  0  0  0  0  0  0  0  0  0
   -4.9940   22.8270  -31.9840 C   0  0  0  0  0  0  0  0  0  0  0  0
   -3.8990   22.4040  -32.4960 O   0  0  0  0  0  0  0  0  0  0  0  0
   -8.6504   18.4627  -30.5130 H   0  0  0  0  0  0  0  0  0  0  0  0
   -8.7478   19.6096  -31.8920 H   0  0  0  0  0  0  0  0  0  0  0  0
   -9.7486   18.1179  -31.8920 H   0  0  0  0  0  0  0  0  0  0  0  0
   -7.0169   17.3320  -31.5490 H   0  0  0  0  0  0  0  0  0  0  0  0
   -8.1060   17.0337  -32.9532 H   0  0  0  0  0  0  0  0  0  0  0  0
   -5.3158   17.4589  -33.6052 H   0  0  0  0  0  0  0  0  0  0  0  0
   -6.7246   17.4247  -34.7193 H   0  0  0  0  0  0  0  0  0  0  0  0
   -5.6136   18.8362  -34.7193 H   0  0  0  0  0  0  0  0  0  0  0  0
   -6.7603   19.8910  -31.3895 H   0  0  0  0  0  0  0  0  0  0  0  0
   -5.1877   19.3242  -32.0932 H   0  0  0  0  0  0  0  0  0  0  0  0
   -5.0714   20.9987  -33.5583 H   0  0  0  0  0  0  0  0  0  0  0  0
   -6.8854   21.0384  -33.7828 H   0  0  0  0  0  0  0  0  0  0  0  0
   -9.0274   21.6390  -30.9874 H   0  0  0  0  0  0  0  0  0  0  0  0
   -9.2293   22.5558  -32.5189 H   0  0  0  0  0  0  0  0  0  0  0  0
   -8.3494   20.9898  -32.5189 H   0  0  0  0  0  0  0  0  0  0  0  0
   -8.2215   24.1320  -30.4361 H   0  0  0  0  0  0  0  0  0  0  0  0
   -6.0403   25.3602  -28.7327 H   0  0  0  0  0  0  0  0  0  0  0  0
   -5.0936   26.1941  -30.0114 H   0  0  0  0  0  0  0  0  0  0  0  0
   -6.8871   26.2954  -30.0114 H   0  0  0  0  0  0  0  0  0  0  0  0
  1  2  1  0
  2  3  1  0
  3  4  1  0
  3  5  1  0
  5  6  1  0
  6  7  1  0
  7  8  1  0
  8  9  1  0
  8 10  2  0
 10 11  1  0
 11 12  1  0
 11 13  2  0
 13 14  1  0
 14 15  2  0
 14  7  1  0
  1 16  1  0
  1 17  1  0
  1 18  1  0
  2 19  1  0
  2 20  1  0
  4 21  1  0
  4 22  1  0
  4 23  1  0
  5 24  1  0
  5 25  1  0
  6 26  1  0
  6 27  1  0
  9 28  1  0
  9 29  1  0
  9 30  1  0
 10 31  1  0
 12 32  1  0
 12 33  1  0
 12 34  1  0
M  END
>  <smiles>  (25) 
CCN(C)CCn1c(C)cc(C)nc1=O

>  <score_type>  (25) 
oracle

>  <origin>  (25) 
adg

>  <m_score__min__energy>  (25) 
-5.8799999999999999

>  <m_primary>  (25) 
energy

$$$$
26:0
     RDKit          3D

 60 63  0  0  0  0  0  0  0  0999 V2000
   -6.8800   14.1790  -34.2420 C   0  0  0  0  0  0  0  0  0  0  0  0
   -5.9230   15.3400  -34.1220 C   0  0  0  0  0  0  0  0  0  0  0  0
   -5.7550   15.6790  -32.7040 N   0  0  0  0  0  0  0  0  0  0  0  0
   -4.3670   15.3780  -32.3940 C   0  0  0  0  0  0  0  0  0  0  0  0
   -4.1200   13.9650  -31.9810 C   0  0  0  0  0  0  0  0  0  0  0  0
   -6.0850   17.0750  -32.4640 C   0  0  0  0  0  0  0  0  0  0  0  0
   -6.8850   17.6520  -33.5950 C   0  0  0  0  0  0  0  0  0  0  0  0
   -6.1730   18.6050  -34.3980 N   0  0  0  0  0  0  0  0  0  0  0  0
   -5.0050   19.1960  -33.8500 C   0  0  0  0  0  0  0  0  0  0  0  0
   -3.7950   18.5760  -34.1180 C   0  0  0  0  0  0  0  0  0  0  0  0
   -3.7940   17.4610  -34.8880 C   0  0  0  0  0  0  0  0  0  0  0  0
   -2.6060   16.8390  -35.1810 C   0  0  0  0  0  0  0  0  0  0  0  0
   -1.4640   17.4050  -34.6620 C   0  0  0  0  0  0  0  0  0  0  0  0
    0.1940   16.5560  -35.0580 Br  0  0  0  0  0  0  0  0  0  0  0  0
   -1.4800   18.5490  -33.8730 C   0  0  0  0  0  0  0  0  0  0  0  0
   -2.6870   19.1880  -33.5670 C   0  0  0  0  0  0  0  0  0  0  0  0
   -2.7010   20.3010  -32.8160 N   0  0  0  0  0  0  0  0  0  0  0  0
   -1.4770   20.7900  -32.2380 C   0  0  0  0  0  0  0  0  0  0  0  0
   -3.9090   20.9450  -32.5350 C   0  0  0  0  0  0  0  0  0  0  0  0
   -4.9800   20.3090  -33.0960 C   0  0  0  0  0  0  0  0  0  0  0  0
   -6.4200   21.2290  -32.6430 S   0  0  0  0  0  0  0  0  0  0  0  0
   -5.4720   22.4500  -31.7060 C   0  0  0  0  0  0  0  0  0  0  0  0
   -5.9740   23.5250  -31.0620 C   0  0  0  0  0  0  0  0  0  0  0  0
   -5.1250   24.3900  -30.4080 C   0  0  0  0  0  0  0  0  0  0  0  0
   -5.5200   25.5090  -29.7220 O   0  0  0  0  0  0  0  0  0  0  0  0
   -6.8790   25.6710  -29.3830 C   0  0  0  0  0  0  0  0  0  0  0  0
   -3.7850   24.0680  -30.4720 C   0  0  0  0  0  0  0  0  0  0  0  0
   -2.9030   24.9270  -29.8220 O   0  0  0  0  0  0  0  0  0  0  0  0
   -2.2740   24.6980  -28.6050 C   0  0  0  0  0  0  0  0  0  0  0  0
   -3.2940   22.9590  -31.1390 C   0  0  0  0  0  0  0  0  0  0  0  0
   -4.1610   22.0640  -31.8130 C   0  0  0  0  0  0  0  0  0  0  0  0
   -7.1649   13.8333  -33.2373 H   0  0  0  0  0  0  0  0  0  0  0  0
   -7.7793   14.5000  -34.7881 H   0  0  0  0  0  0  0  0  0  0  0  0
   -6.3932   13.3575  -34.7881 H   0  0  0  0  0  0  0  0  0  0  0  0
   -4.9497   15.0610  -34.5519 H   0  0  0  0  0  0  0  0  0  0  0  0
   -6.3235   16.2083  -34.6658 H   0  0  0  0  0  0  0  0  0  0  0  0
   -3.7618   15.5858  -33.2887 H   0  0  0  0  0  0  0  0  0  0  0  0
   -4.0932   16.0086  -31.5353 H   0  0  0  0  0  0  0  0  0  0  0  0
   -4.1087   13.9006  -30.8829 H   0  0  0  0  0  0  0  0  0  0  0  0
   -4.9194   13.3219  -32.3779 H   0  0  0  0  0  0  0  0  0  0  0  0
   -3.1499   13.6312  -32.3779 H   0  0  0  0  0  0  0  0  0  0  0  0
   -6.6716   17.1495  -31.5365 H   0  0  0  0  0  0  0  0  0  0  0  0
   -5.1465   17.6425  -32.3797 H   0  0  0  0  0  0  0  0  0  0  0  0
   -7.2067   16.8256  -34.2458 H   0  0  0  0  0  0  0  0  0  0  0  0
   -7.7284   18.1921  -33.1400 H   0  0  0  0  0  0  0  0  0  0  0  0
   -6.4740   18.8790  -35.3630 H   0  0  0  0  0  0  0  0  0  0  0  0
   -4.7403   17.0564  -35.2763 H   0  0  0  0  0  0  0  0  0  0  0  0
   -2.5685   15.9313  -35.8012 H   0  0  0  0  0  0  0  0  0  0  0  0
   -0.5346   18.9563  -33.4852 H   0  0  0  0  0  0  0  0  0  0  0  0
   -1.5519   20.7601  -31.1410 H   0  0  0  0  0  0  0  0  0  0  0  0
   -0.6386   20.1578  -32.5656 H   0  0  0  0  0  0  0  0  0  0  0  0
   -1.3050   21.8259  -32.5656 H   0  0  0  0  0  0  0  0  0  0  0  0
   -7.0584   23.7096  -31.0596 H   0  0  0  0  0  0  0  0  0  0  0  0
   -6.9848   25.6836  -28.2882 H   0  0  0  0  0  0  0  0  0  0  0  0
   -7.2499   26.6197  -29.7982 H   0  0  0  0  0  0  0  0  0  0  0  0
   -7.4625   24.8361  -29.7982 H   0  0  0  0  0  0  0  0  0  0  0  0
   -2.9618   24.9484  -27.7839 H   0  0  0  0  0  0  0  0  0  0  0  0
   -1.9883   23.6382  -28.5336 H   0  0  0  0  0  0  0  0  0  0  0  0
   -1.3738   25.3261  -28.5336 H   0  0  0  0  0  0  0  0  0  0  0  0
   -2.2105   22.7691  -31.1459 H   0  0  0  0  0  0  0  0  0  0  0  0
  1  2  1  0
  2  3  1  0
  3  4  1  0
  4  5  1  0
  3  6  1  0
  6  7  1  0
  7  8  1  0
  8  9  1  0
  9 10  2  0
 10 11  1  0
 11 12  2  0
 12 13  1  0
 13 14  1  0
 13 15  2  0
 15 16  1  0
 16 17  2  0
 17 18  1  0
 17 19  1  0
 19 20  2  0
 20 21  1  0
 21 22  1  0
 22 23  2  0
 23 24  1  0
 24 25  1  0
 25 26  1  0
 24 27  2  0
 27 28  1  0
 28 29  1  0
 27 30  1  0
 30 31  2  0
 20  9  1  0
 31 22  1  0
 16 10  1  0
 31 19  1  0
  1 32  1  0
  1 33  1  0
  1 34  1  0
  2 35  1  0
  2 36  1  0
  4 37  1  0
  4 38  1  0
  5 39  1  0
  5 40  1  0
  5 41  1  0
  6 42  1  0
  6 43  1  0
  7 44  1  0
  7 45  1  0
  8 46  1  0
 11 47  1  0
 12 48  1  0
 15 49  1  0
 18 50  1  0
 18 51  1  0
 18 52  1  0
 23 53  1  0
 26 54  1  0
 26 55  1  0
 26 56  1  0
 29 57  1  0
 29 58  1  0
 29 59  1  0
 30 60  1  0
M  CHG  1  17   1
M  END
>  <smiles>  (26) 
CCN(CC)CCNc1c2ccc(Br)cc2[n+](C)c2c1sc1cc(OC)c(OC)cc12

>  <score_type>  (26) 
oracle

>  <origin>  (26) 
adg

>  <m_score__min__energy>  (26) 
-8.1999999999999993

>  <m_primary>  (26) 
energy

$$$$
27:0
     RDKit          3D

 52 56  0  0  0  0  0  0  0  0999 V2000
   -5.7330   26.0500  -30.0830 C   0  0  0  0  0  0  0  0  0  0  0  0
   -5.6250   24.7260  -30.7170 N   0  0  0  0  0  0  0  0  0  0  0  0
   -6.6200   23.9750  -31.2070 C   0  0  0  0  0  0  0  0  0  0  0  0
   -6.1090   22.7810  -31.7260 C   0  0  0  0  0  0  0  0  0  0  0  0
   -6.9310   21.7290  -32.3120 C   0  0  0  0  0  0  0  0  0  0  0  0
   -6.3520   20.4770  -32.5720 N   0  0  0  0  0  0  0  0  0  0  0  0
   -6.2210   19.9990  -33.8790 C   0  0  0  0  0  0  0  0  0  0  0  0
   -5.4450   18.6780  -33.8770 C   0  0  0  0  0  0  0  0  0  0  0  0
   -6.0850   17.7070  -33.0120 N   0  0  0  0  0  0  0  0  0  0  0  0
   -5.8060   16.3200  -33.1380 C   0  0  0  0  0  0  0  0  0  0  0  0
   -6.5340   15.5720  -34.0400 C   0  0  0  0  0  0  0  0  0  0  0  0
   -6.3150   14.2040  -34.2130 C   0  0  0  0  0  0  0  0  0  0  0  0
   -5.3470   13.6220  -33.4550 C   0  0  0  0  0  0  0  0  0  0  0  0
   -4.6190   14.3640  -32.5550 C   0  0  0  0  0  0  0  0  0  0  0  0
   -4.8250   15.7320  -32.3690 C   0  0  0  0  0  0  0  0  0  0  0  0
   -7.0070   18.2470  -32.0220 C   0  0  0  0  0  0  0  0  0  0  0  0
   -6.3580   19.5410  -31.4960 C   0  0  0  0  0  0  0  0  0  0  0  0
   -4.7540   22.8720  -31.5140 C   0  0  0  0  0  0  0  0  0  0  0  0
   -3.6950   21.9370  -31.8410 C   0  0  0  0  0  0  0  0  0  0  0  0
   -2.9560   21.3690  -30.7980 C   0  0  0  0  0  0  0  0  0  0  0  0
   -1.9150   20.4710  -31.0740 C   0  0  0  0  0  0  0  0  0  0  0  0
   -1.5840   20.1200  -32.3660 C   0  0  0  0  0  0  0  0  0  0  0  0
   -2.3120   20.6790  -33.3930 C   0  0  0  0  0  0  0  0  0  0  0  0
   -3.3420   21.5670  -33.1170 C   0  0  0  0  0  0  0  0  0  0  0  0
   -1.7830   20.1660  -34.5940 O   0  0  0  0  0  0  0  0  0  0  0  0
   -0.5150   19.5860  -34.3330 C   0  0  0  0  0  0  0  0  0  0  0  0
   -0.6350   19.2830  -32.9560 O   0  0  0  0  0  0  0  0  0  0  0  0
   -4.5150   24.0570  -30.9060 N   0  0  0  0  0  0  0  0  0  0  0  0
   -5.7236   25.9346  -28.9891 H   0  0  0  0  0  0  0  0  0  0  0  0
   -4.8829   26.6754  -30.3930 H   0  0  0  0  0  0  0  0  0  0  0  0
   -6.6732   26.5294  -30.3930 H   0  0  0  0  0  0  0  0  0  0  0  0
   -7.6834   24.2562  -31.2020 H   0  0  0  0  0  0  0  0  0  0  0  0
   -7.7732   21.5581  -31.6253 H   0  0  0  0  0  0  0  0  0  0  0  0
   -7.1812   22.1159  -33.3108 H   0  0  0  0  0  0  0  0  0  0  0  0
   -7.2201   19.8342  -34.3087 H   0  0  0  0  0  0  0  0  0  0  0  0
   -5.6739   20.7390  -34.4816 H   0  0  0  0  0  0  0  0  0  0  0  0
   -5.4085   18.2796  -34.9016 H   0  0  0  0  0  0  0  0  0  0  0  0
   -4.4278   18.8669  -33.5034 H   0  0  0  0  0  0  0  0  0  0  0  0
   -7.3103   16.0682  -34.6409 H   0  0  0  0  0  0  0  0  0  0  0  0
   -6.9032   13.6188  -34.9352 H   0  0  0  0  0  0  0  0  0  0  0  0
   -5.1445   12.5462  -33.5632 H   0  0  0  0  0  0  0  0  0  0  0  0
   -3.8443   13.8601  -31.9585 H   0  0  0  0  0  0  0  0  0  0  0  0
   -4.2339   16.3118  -31.6448 H   0  0  0  0  0  0  0  0  0  0  0  0
   -7.9791   18.4688  -32.4865 H   0  0  0  0  0  0  0  0  0  0  0  0
   -7.1894   17.5292  -31.2087 H   0  0  0  0  0  0  0  0  0  0  0  0
   -6.9414   19.9396  -30.6529 H   0  0  0  0  0  0  0  0  0  0  0  0
   -5.3351   19.3483  -31.1402 H   0  0  0  0  0  0  0  0  0  0  0  0
   -3.1928   21.6282  -29.7555 H   0  0  0  0  0  0  0  0  0  0  0  0
   -1.3477   20.0352  -30.2384 H   0  0  0  0  0  0  0  0  0  0  0  0
   -3.9033   21.9957  -33.9603 H   0  0  0  0  0  0  0  0  0  0  0  0
   -0.3544   18.6787  -34.9338 H   0  0  0  0  0  0  0  0  0  0  0  0
    0.3393   20.2325  -34.5823 H   0  0  0  0  0  0  0  0  0  0  0  0
  1  2  1  0
  2  3  1  0
  3  4  2  0
  4  5  1  0
  5  6  1  0
  6  7  1  0
  7  8  1  0
  8  9  1  0
  9 10  1  0
 10 11  2  0
 11 12  1  0
 12 13  2  0
 13 14  1  0
 14 15  2  0
  9 16  1  0
 16 17  1  0
  4 18  1  0
 18 19  1  0
 19 20  2  0
 20 21  1  0
 21 22  2  0
 22 23  1  0
 23 24  2  0
 23 25  1  0
 25 26  1  0
 26 27  1  0
 18 28  2  0
 28  2  1  0
 17  6  1  0
 24 19  1  0
 15 10  1  0
 27 22  1  0
  1 29  1  0
  1 30  1  0
  1 31  1  0
  3 32  1  0
  5 33  1  0
  5 34  1  0
  7 35  1  0
  7 36  1  0
  8 37  1  0
  8 38  1  0
 11 39  1  0
 12 40  1  0
 13 41  1  0
 14 42  1  0
 15 43  1  0
 16 44  1  0
 16 45  1  0
 17 46  1  0
 17 47  1  0
 20 48  1  0
 21 49  1  0
 24 50  1  0
 26 51  1  0
 26 52  1  0
M  END
>  <smiles>  (27) 
Cn1cc(CN2CCN(c3ccccc3)CC2)c(-c2ccc3c(c2)OCO3)n1

>  <score_type>  (27) 
oracle

>  <origin>  (27) 
adg

>  <m_score__min__energy>  (27) 
-8.3599999999999994

>  <m_primary>  (27) 
energy

$$$$
28:0
     RDKit          3D

 59 61  0  0  0  0  0  0  0  0999 V2000
   -5.6660   18.1750  -34.9760 C   0  0  0  0  0  0  0  0  0  0  0  0
   -5.0340   18.3360  -33.5840 C   0  0  0  0  0  0  0  0  0  0  0  0
   -5.6180   17.4720  -32.6330 N   0  0  0  0  0  0  0  0  0  0  0  0
   -5.1290   16.1380  -32.5720 C   0  0  0  0  0  0  0  0  0  0  0  0
   -6.1610   18.0210  -31.4470 C   0  0  0  0  0  0  0  0  0  0  0  0
   -7.2240   19.0060  -31.7400 C   0  0  0  0  0  0  0  0  0  0  0  0
   -8.4380   18.4830  -32.2000 C   0  0  0  0  0  0  0  0  0  0  0  0
   -9.4850   19.3030  -32.4880 C   0  0  0  0  0  0  0  0  0  0  0  0
   -9.3340   20.6610  -32.3220 C   0  0  0  0  0  0  0  0  0  0  0  0
   -8.1420   21.2310  -31.8660 C   0  0  0  0  0  0  0  0  0  0  0  0
   -8.0460   22.6990  -31.7260 C   0  0  0  0  0  0  0  0  0  0  0  0
   -6.8060   23.0860  -31.1980 N   0  0  0  0  0  0  0  0  0  0  0  0
   -6.7760   23.7560  -29.9490 C   0  0  0  0  0  0  0  0  0  0  0  0
   -6.5370   25.2210  -30.2490 C   0  0  0  0  0  0  0  0  0  0  0  0
   -5.0770   25.5000  -30.6120 C   0  0  0  0  0  0  0  0  0  0  0  0
   -4.1980   24.4230  -30.3990 N   0  0  0  0  0  0  0  0  0  0  0  0
   -3.8610   24.0560  -29.0650 C   0  0  0  0  0  0  0  0  0  0  0  0
   -2.4970   23.5880  -28.8160 C   0  0  0  0  0  0  0  0  0  0  0  0
   -2.3690   22.2340  -28.4490 C   0  0  0  0  0  0  0  0  0  0  0  0
   -1.1490   21.6680  -28.1650 C   0  0  0  0  0  0  0  0  0  0  0  0
    0.0180   22.3960  -28.2240 C   0  0  0  0  0  0  0  0  0  0  0  0
   -0.0940   23.7210  -28.5810 C   0  0  0  0  0  0  0  0  0  0  0  0
   -1.3400   24.3010  -28.8740 C   0  0  0  0  0  0  0  0  0  0  0  0
   -1.3160   25.5790  -29.2340 F   0  0  0  0  0  0  0  0  0  0  0  0
   -4.4260   23.2780  -31.2510 C   0  0  0  0  0  0  0  0  0  0  0  0
   -5.6880   23.2590  -32.0270 C   0  0  0  0  0  0  0  0  0  0  0  0
   -7.0930   20.3660  -31.5790 C   0  0  0  0  0  0  0  0  0  0  0  0
   -6.7268   17.9048  -34.8680 H   0  0  0  0  0  0  0  0  0  0  0  0
   -5.5834   19.1229  -35.5280 H   0  0  0  0  0  0  0  0  0  0  0  0
   -5.1400   17.3822  -35.5280 H   0  0  0  0  0  0  0  0  0  0  0  0
   -3.9594   18.1119  -33.6542 H   0  0  0  0  0  0  0  0  0  0  0  0
   -5.2048   19.3706  -33.2519 H   0  0  0  0  0  0  0  0  0  0  0  0
   -5.0182   15.8358  -31.5201 H   0  0  0  0  0  0  0  0  0  0  0  0
   -5.8385   15.4640  -33.0743 H   0  0  0  0  0  0  0  0  0  0  0  0
   -4.1520   16.0823  -33.0743 H   0  0  0  0  0  0  0  0  0  0  0  0
   -6.5852   17.2083  -30.8391 H   0  0  0  0  0  0  0  0  0  0  0  0
   -5.3540   18.5366  -30.9057 H   0  0  0  0  0  0  0  0  0  0  0  0
   -8.5470   17.3962  -32.3303 H   0  0  0  0  0  0  0  0  0  0  0  0
  -10.4375   18.8870  -32.8480 H   0  0  0  0  0  0  0  0  0  0  0  0
  -10.1818   21.3214  -32.5566 H   0  0  0  0  0  0  0  0  0  0  0  0
   -8.1726   23.1613  -32.7161 H   0  0  0  0  0  0  0  0  0  0  0  0
   -8.8340   23.0315  -31.0342 H   0  0  0  0  0  0  0  0  0  0  0  0
   -7.7352   23.6273  -29.4262 H   0  0  0  0  0  0  0  0  0  0  0  0
   -5.9859   23.3501  -29.3002 H   0  0  0  0  0  0  0  0  0  0  0  0
   -7.1763   25.5198  -31.0928 H   0  0  0  0  0  0  0  0  0  0  0  0
   -6.7786   25.7974  -29.3438 H   0  0  0  0  0  0  0  0  0  0  0  0
   -5.0353   25.7696  -31.6776 H   0  0  0  0  0  0  0  0  0  0  0  0
   -4.7422   26.3082  -29.9452 H   0  0  0  0  0  0  0  0  0  0  0  0
   -4.0279   24.9377  -28.4288 H   0  0  0  0  0  0  0  0  0  0  0  0
   -4.4993   23.1879  -28.8440 H   0  0  0  0  0  0  0  0  0  0  0  0
   -3.2731   21.6105  -28.3878 H   0  0  0  0  0  0  0  0  0  0  0  0
   -1.1039   20.6057  -27.8832 H   0  0  0  0  0  0  0  0  0  0  0  0
    0.9933   21.9408  -27.9968 H   0  0  0  0  0  0  0  0  0  0  0  0
    0.8133   24.3403  -28.6382 H   0  0  0  0  0  0  0  0  0  0  0  0
   -3.5940   23.2273  -31.9688 H   0  0  0  0  0  0  0  0  0  0  0  0
   -4.4988   22.4210  -30.5652 H   0  0  0  0  0  0  0  0  0  0  0  0
   -5.7888   24.2123  -32.5665 H   0  0  0  0  0  0  0  0  0  0  0  0
   -5.6466   22.4114  -32.7269 H   0  0  0  0  0  0  0  0  0  0  0  0
   -6.1393   20.7767  -31.2160 H   0  0  0  0  0  0  0  0  0  0  0  0
  1  2  1  0
  2  3  1  0
  3  4  1  0
  3  5  1  0
  5  6  1  0
  6  7  2  0
  7  8  1  0
  8  9  2  0
  9 10  1  0
 10 11  1  0
 11 12  1  0
 12 13  1  0
 13 14  1  0
 14 15  1  0
 15 16  1  0
 16 17  1  0
 17 18  1  0
 18 19  2  0
 19 20  1  0
 20 21  2  0
 21 22  1  0
 22 23  2  0
 23 24  1  0
 16 25  1  0
 25 26  1  0
 10 27  2  0
 27  6  1  0
 26 12  1  0
 23 18  1  0
  1 28  1  0
  1 29  1  0
  1 30  1  0
  2 31  1  0
  2 32  1  0
  4 33  1  0
  4 34  1  0
  4 35  1  0
  5 36  1  0
  5 37  1  0
  7 38  1  0
  8 39  1  0
  9 40  1  0
 11 41  1  0
 11 42  1  0
 13 43  1  0
 13 44  1  0
 14 45  1  0
 14 46  1  0
 15 47  1  0
 15 48  1  0
 17 49  1  0
 17 50  1  0
 19 51  1  0
 20 52  1  0
 21 53  1  0
 22 54  1  0
 25 55  1  0
 25 56  1  0
 26 57  1  0
 26 58  1  0
 27 59  1  0
M  END
>  <smiles>  (28) 
CCN(C)Cc1cccc(CN2CCCN(Cc3ccccc3F)CC2)c1

>  <score_type>  (28) 
oracle

>  <origin>  (28) 
adg

>  <m_score__min__energy>  (28) 
-7.8300000000000001

>  <m_primary>  (28) 
energy

$$$$
29:0
     RDKit          3D

 29 31  0  0  0  0  0  0  0  0999 V2000
   -2.0920   24.8400  -28.2000 C   0  0  0  0  0  0  0  0  0  0  0  0
   -2.7630   25.2950  -29.3450 O   0  0  0  0  0  0  0  0  0  0  0  0
   -3.7160   24.5790  -30.0270 C   0  0  0  0  0  0  0  0  0  0  0  0
   -4.9190   25.1200  -30.4650 C   0  0  0  0  0  0  0  0  0  0  0  0
   -5.8500   24.3430  -31.1520 C   0  0  0  0  0  0  0  0  0  0  0  0
   -5.5350   23.0040  -31.3880 C   0  0  0  0  0  0  0  0  0  0  0  0
   -6.2340   22.0600  -32.0110 N   0  0  0  0  0  0  0  0  0  0  0  0
   -5.5340   20.8980  -32.0030 C   0  0  0  0  0  0  0  0  0  0  0  0
   -5.9710   19.6310  -32.5910 C   0  0  0  0  0  0  0  0  0  0  0  0
   -6.8530   18.7790  -31.9600 C   0  0  0  0  0  0  0  0  0  0  0  0
   -7.2360   17.5860  -32.5670 C   0  0  0  0  0  0  0  0  0  0  0  0
   -6.7370   17.2340  -33.8150 C   0  0  0  0  0  0  0  0  0  0  0  0
   -7.1130   16.0680  -34.4030 F   0  0  0  0  0  0  0  0  0  0  0  0
   -5.8560   18.0790  -34.4540 C   0  0  0  0  0  0  0  0  0  0  0  0
   -5.3430   17.7680  -35.6830 F   0  0  0  0  0  0  0  0  0  0  0  0
   -5.4960   19.2530  -33.8260 C   0  0  0  0  0  0  0  0  0  0  0  0
   -4.3920   21.1540  -31.3630 N   0  0  0  0  0  0  0  0  0  0  0  0
   -4.3470   22.4490  -30.9610 C   0  0  0  0  0  0  0  0  0  0  0  0
   -3.4540   23.2410  -30.2870 C   0  0  0  0  0  0  0  0  0  0  0  0
   -2.6172   25.1961  -27.3015 H   0  0  0  0  0  0  0  0  0  0  0  0
   -2.0704   23.7402  -28.2004 H   0  0  0  0  0  0  0  0  0  0  0  0
   -1.0623   25.2269  -28.2004 H   0  0  0  0  0  0  0  0  0  0  0  0
   -5.1400   26.1791  -30.2661 H   0  0  0  0  0  0  0  0  0  0  0  0
   -6.8026   24.7714  -31.4972 H   0  0  0  0  0  0  0  0  0  0  0  0
   -7.1780   22.1920  -32.4400 H   0  0  0  0  0  0  0  0  0  0  0  0
   -7.2562   19.0435  -30.9714 H   0  0  0  0  0  0  0  0  0  0  0  0
   -7.9407   16.9154  -32.0534 H   0  0  0  0  0  0  0  0  0  0  0  0
   -4.7913   19.9232  -34.3400 H   0  0  0  0  0  0  0  0  0  0  0  0
   -2.5046   22.8046  -29.9431 H   0  0  0  0  0  0  0  0  0  0  0  0
  1  2  1  0
  2  3  1  0
  3  4  2  0
  4  5  1  0
  5  6  2  0
  6  7  1  0
  7  8  1  0
  8  9  1  0
  9 10  2  0
 10 11  1  0
 11 12  2  0
 12 13  1  0
 12 14  1  0
 14 15  1  0
 14 16  2  0
  8 17  2  0
 17 18  1  0
 18 19  2  0
 19  3  1  0
 18  6  1  0
 16  9  1  0
  1 20  1  0
  1 21  1  0
  1 22  1  0
  4 23  1  0
  5 24  1  0
  7 25  1  0
 10 26  1  0
 11 27  1  0
 16 28  1  0
 19 29  1  0
M  END
>  <smiles>  (29) 
COc1ccc2[nH]c(-c3ccc(F)c(F)c3)nc2c1

>  <score_type>  (29) 
oracle

>  <origin>  (29) 
adg

>  <m_score__min__energy>  (29) 
-6.8499999999999996

>  <m_primary>  (29) 
energy

$$$$
30:0
     RDKit          3D

 25 26  0  0  0  0  0  0  0  0999 V2000
   -6.1170   25.6510  -29.7180 C   0  0  0  0  0  0  0  0  0  0  0  0
   -5.0900   24.5370  -29.8980 C   0  0  0  0  0  0  0  0  0  0  0  0
   -4.9790   24.2010  -31.2650 O   0  0  0  0  0  0  0  0  0  0  0  0
   -5.3300   23.0040  -31.8300 C   0  0  0  0  0  0  0  0  0  0  0  0
   -4.3550   22.2990  -32.4170 C   0  0  0  0  0  0  0  0  0  0  0  0
   -4.6130   21.0060  -33.0520 C   0  0  0  0  0  0  0  0  0  0  0  0
   -5.8430   20.5180  -33.0480 C   0  0  0  0  0  0  0  0  0  0  0  0
   -6.9300   21.2110  -32.4430 N   0  0  0  0  0  0  0  0  0  0  0  0
   -8.3130   20.8780  -32.3230 C   0  0  0  0  0  0  0  0  0  0  0  0
   -8.9420   22.0230  -31.5750 C   0  0  0  0  0  0  0  0  0  0  0  0
   -7.8100   22.9300  -31.3350 C   0  0  0  0  0  0  0  0  0  0  0  0
   -6.6790   22.4660  -31.8260 C   0  0  0  0  0  0  0  0  0  0  0  0
   -6.2809   25.8287  -28.6449 H   0  0  0  0  0  0  0  0  0  0  0  0
   -5.7449   26.5725  -30.1897 H   0  0  0  0  0  0  0  0  0  0  0  0
   -7.0656   25.3549  -30.1897 H   0  0  0  0  0  0  0  0  0  0  0  0
   -4.1128   24.8784  -29.5260 H   0  0  0  0  0  0  0  0  0  0  0  0
   -5.4145   23.6509  -29.3328 H   0  0  0  0  0  0  0  0  0  0  0  0
   -3.3318   22.7027  -32.4222 H   0  0  0  0  0  0  0  0  0  0  0  0
   -3.7939   20.4462  -33.5271 H   0  0  0  0  0  0  0  0  0  0  0  0
   -6.0318   19.5461  -33.5273 H   0  0  0  0  0  0  0  0  0  0  0  0
   -8.7701   20.7721  -33.3179 H   0  0  0  0  0  0  0  0  0  0  0  0
   -8.4573   19.9216  -31.7991 H   0  0  0  0  0  0  0  0  0  0  0  0
   -9.7176   22.5124  -32.1825 H   0  0  0  0  0  0  0  0  0  0  0  0
   -9.4463   21.7084  -30.6494 H   0  0  0  0  0  0  0  0  0  0  0  0
   -7.8977   23.8895  -30.8043 H   0  0  0  0  0  0  0  0  0  0  0  0
  1  2  1  0
  2  3  1  0
  3  4  1  0
  4  5  2  0
  5  6  1  0
  6  7  2  0
  7  8  1  0
  8  9  1  0
  9 10  1  0
 10 11  1  0
 11 12  2  0
 12  4  1  0
 12  8  1  0
  1 13  1  0
  1 14  1  0
  1 15  1  0
  2 16  1  0
  2 17  1  0
  5 18  1  0
  6 19  1  0
  7 20  1  0
  9 21  1  0
  9 22  1  0
 10 23  1  0
 10 24  1  0
 11 25  1  0
M  END
>  <smiles>  (30) 
CCOC1=CC=CN2CCC=C12

>  <score_type>  (30) 
oracle

>  <origin>  (30) 
adg

>  <m_score__min__energy>  (30) 
-5.5599999999999996

>  <m_primary>  (30) 
energy

$$$$
31:0
     RDKit          3D

 34 36  0  0  0  0  0  0  0  0999 V2000
   -4.9870   23.0910  -30.3970 C   0  0  0  0  0  0  0  0  0  0  0  0
   -5.2710   24.2490  -31.1770 N   0  0  0  0  0  0  0  0  0  0  0  0
   -5.1600   25.4880  -30.4740 C   0  0  0  0  0  0  0  0  0  0  0  0
   -6.4560   24.1390  -31.9820 C   0  0  0  0  0  0  0  0  0  0  0  0
   -6.9220   22.7280  -31.9440 C   0  0  0  0  0  0  0  0  0  0  0  0
   -7.9930   22.4580  -31.0940 C   0  0  0  0  0  0  0  0  0  0  0  0
   -8.5020   21.1990  -30.9800 C   0  0  0  0  0  0  0  0  0  0  0  0
   -7.9250   20.1820  -31.7360 C   0  0  0  0  0  0  0  0  0  0  0  0
   -6.8590   20.4200  -32.5910 C   0  0  0  0  0  0  0  0  0  0  0  0
   -6.3590   21.7190  -32.6860 C   0  0  0  0  0  0  0  0  0  0  0  0
   -6.4940   19.1560  -33.2280 C   0  0  0  0  0  0  0  0  0  0  0  0
   -5.5110   18.8340  -34.1550 C   0  0  0  0  0  0  0  0  0  0  0  0
   -5.3810   17.5320  -34.6020 C   0  0  0  0  0  0  0  0  0  0  0  0
   -6.2430   16.5690  -34.1080 C   0  0  0  0  0  0  0  0  0  0  0  0
   -7.2340   16.8610  -33.1820 C   0  0  0  0  0  0  0  0  0  0  0  0
   -7.3470   18.1780  -32.7480 C   0  0  0  0  0  0  0  0  0  0  0  0
   -8.3050   18.7510  -31.7780 C   0  0  0  0  0  0  0  0  0  0  0  0
   -5.0491   23.3444  -29.3284 H   0  0  0  0  0  0  0  0  0  0  0  0
   -5.7186   22.3034  -30.6302 H   0  0  0  0  0  0  0  0  0  0  0  0
   -3.9740   22.7312  -30.6302 H   0  0  0  0  0  0  0  0  0  0  0  0
   -5.1770   25.2977  -29.3907 H   0  0  0  0  0  0  0  0  0  0  0  0
   -4.2142   25.9799  -30.7450 H   0  0  0  0  0  0  0  0  0  0  0  0
   -6.0033   26.1402  -30.7450 H   0  0  0  0  0  0  0  0  0  0  0  0
   -7.2393   24.7995  -31.5817 H   0  0  0  0  0  0  0  0  0  0  0  0
   -6.2369   24.4360  -33.0182 H   0  0  0  0  0  0  0  0  0  0  0  0
   -8.4350   23.2752  -30.5050 H   0  0  0  0  0  0  0  0  0  0  0  0
   -9.3475   20.9914  -30.3076 H   0  0  0  0  0  0  0  0  0  0  0  0
   -5.5134   21.9350  -33.3556 H   0  0  0  0  0  0  0  0  0  0  0  0
   -4.8356   19.6152  -34.5337 H   0  0  0  0  0  0  0  0  0  0  0  0
   -4.6066   17.2667  -35.3368 H   0  0  0  0  0  0  0  0  0  0  0  0
   -6.1387   15.5330  -34.4628 H   0  0  0  0  0  0  0  0  0  0  0  0
   -7.9075   16.0778  -32.8038 H   0  0  0  0  0  0  0  0  0  0  0  0
   -9.3411   18.6276  -32.1263 H   0  0  0  0  0  0  0  0  0  0  0  0
   -8.2658   18.2641  -30.7924 H   0  0  0  0  0  0  0  0  0  0  0  0
  1  2  1  0
  2  3  1  0
  2  4  1  0
  4  5  1  0
  5  6  2  0
  6  7  1  0
  7  8  2  0
  8  9  1  0
  9 10  2  0
  9 11  1  0
 11 12  2  0
 12 13  1  0
 13 14  2  0
 14 15  1  0
 15 16  2  0
 16 17  1  0
 10  5  1  0
 16 11  1  0
 17  8  1  0
  1 18  1  0
  1 19  1  0
  1 20  1  0
  3 21  1  0
  3 22  1  0
  3 23  1  0
  4 24  1  0
  4 25  1  0
  6 26  1  0
  7 27  1  0
 10 28  1  0
 12 29  1  0
 13 30  1  0
 14 31  1  0
 15 32  1  0
 17 33  1  0
 17 34  1  0
M  END
>  <smiles>  (31) 
CN(C)Cc1ccc2c(c1)-c1ccccc1C2

>  <score_type>  (31) 
oracle

>  <origin>  (31) 
adg

>  <m_score__min__energy>  (31) 
-7.79

>  <m_primary>  (31) 
energy

$$$$
