0:0
     RDKit          3D

 41 42  0  0  0  0  0  0  0  0999 V2000
   -4.5330   24.9250  -26.2310 C   0  0  0  0  0  0  0  0  0  0  0  0
   -3.0410   25.2570  -26.3820 C   0  0  0  0  0  0  0  0  0  0  0  0
   -2.2640   24.2430  -27.1350 N   0  0  0  0  0  0  0  0  0  0  0  0
   -0.9140   24.0240  -26.5700 C   0  0  0  0  0  0  0  0  0  0  0  0
   -0.0870   23.1430  -27.5010 C   0  0  0  0  0  0  0  0  0  0  0  0
   -2.2190   24.5050  -28.5900 C   0  0  0  0  0  0  0  0  0  0  0  0
   -3.3760   23.9030  -29.2540 N   0  0  0  0  0  0  0  0  0  0  0  0
   -3.9180   22.6970  -28.9860 C   0  0  0  0  0  0  0  0  0  0  0  0
   -3.4340   21.8300  -28.0100 O   0  0  0  0  0  0  0  0  0  0  0  0
   -5.0020   22.4470  -29.8070 C   0  0  0  0  0  0  0  0  0  0  0  0
   -5.1290   23.5660  -30.6120 C   0  0  0  0  0  0  0  0  0  0  0  0
   -6.1140   23.7510  -31.7260 C   0  0  0  0  0  0  0  0  0  0  0  0
   -6.9760   22.5260  -31.8620 C   0  0  0  0  0  0  0  0  0  0  0  0
   -8.2680   22.5030  -31.3090 C   0  0  0  0  0  0  0  0  0  0  0  0
   -9.0800   21.3760  -31.4680 C   0  0  0  0  0  0  0  0  0  0  0  0
   -8.6160   20.2710  -32.1860 C   0  0  0  0  0  0  0  0  0  0  0  0
   -9.4050   19.1810  -32.3400 F   0  0  0  0  0  0  0  0  0  0  0  0
   -7.3360   20.2930  -32.7500 C   0  0  0  0  0  0  0  0  0  0  0  0
   -6.5190   21.4170  -32.5920 C   0  0  0  0  0  0  0  0  0  0  0  0
   -4.1110   24.4290  -30.2540 C   0  0  0  0  0  0  0  0  0  0  0  0
   -3.8610   25.6650  -30.8390 O   0  0  0  0  0  0  0  0  0  0  0  0
   -4.7897   24.8679  -25.1629 H   0  0  0  0  0  0  0  0  0  0  0  0
   -5.1340   25.7114  -26.7110 H   0  0  0  0  0  0  0  0  0  0  0  0
   -4.7439   23.9580  -26.7110 H   0  0  0  0  0  0  0  0  0  0  0  0
   -2.9536   26.2189  -26.9084 H   0  0  0  0  0  0  0  0  0  0  0  0
   -2.6201   25.2862  -25.3661 H   0  0  0  0  0  0  0  0  0  0  0  0
   -0.4106   24.9942  -26.4464 H   0  0  0  0  0  0  0  0  0  0  0  0
   -1.0109   23.5229  -25.5956 H   0  0  0  0  0  0  0  0  0  0  0  0
    0.5450   22.4697  -26.9033 H   0  0  0  0  0  0  0  0  0  0  0  0
   -0.7597   22.5473  -28.1356 H   0  0  0  0  0  0  0  0  0  0  0  0
    0.5500   23.7767  -28.1356 H   0  0  0  0  0  0  0  0  0  0  0  0
   -2.2268   25.5913  -28.7629 H   0  0  0  0  0  0  0  0  0  0  0  0
   -1.3007   24.0625  -29.0035 H   0  0  0  0  0  0  0  0  0  0  0  0
   -2.8360   22.1690  -27.2660 H   0  0  0  0  0  0  0  0  0  0  0  0
   -5.6327   21.5458  -29.8182 H   0  0  0  0  0  0  0  0  0  0  0  0
   -6.7504   24.6214  -31.5082 H   0  0  0  0  0  0  0  0  0  0  0  0
   -5.5675   23.9131  -32.6668 H   0  0  0  0  0  0  0  0  0  0  0  0
   -8.6411   23.3737  -30.7498 H   0  0  0  0  0  0  0  0  0  0  0  0
  -10.0873   21.3593  -31.0264 H   0  0  0  0  0  0  0  0  0  0  0  0
   -6.9715   19.4248  -33.3187 H   0  0  0  0  0  0  0  0  0  0  0  0
   -5.5150   21.4324  -33.0411 H   0  0  0  0  0  0  0  0  0  0  0  0
  1  2  1  0
  2  3  1  0
  3  4  1  0
  4  5  1  0
  3  6  1  0
  6  7  1  0
  7  8  1  0
  8  9  1  0
  8 10  2  0
 10 11  1  0
 11 12  1  0
 12 13  1  0
 13 14  2  0
 14 15  1  0
 15 16  2  0
 16 17  1  0
 16 18  1  0
 18 19  2  0
 11 20  2  0
 20 21  1  0
 20  7  1  0
 19 13  1  0
  1 22  1  0
  1 23  1  0
  1 24  1  0
  2 25  1  0
  2 26  1  0
  4 27  1  0
  4 28  1  0
  5 29  1  0
  5 30  1  0
  5 31  1  0
  6 32  1  0
  6 33  1  0
  9 34  1  0
 10 35  1  0
 12 36  1  0
 12 37  1  0
 14 38  1  0
 15 39  1  0
 18 40  1  0
 19 41  1  0
M  CHG  1  21  -1
M  END
>  <UniqueID>  (1) 
1

>  <SMILES>  (1) 
CCN(CC)Cn1c(O)cc(Cc2ccc(F)cc2)c1[O-]

>  <Energy>  (1) 
66.10550248681949

>  <Genealogy>  (1) 
CCN(CC)Cn1c(O)cc(Cc2ccc(F)cc2)c1[O-] (protonated)
CCN(CC)Cn1c(O)cc(Cc2ccc(F)cc2)c1[O-] (3D coordinates assigned)
CCN(CC)Cn1c(O)cc(Cc2ccc(F)cc2)c1[O-] (optimized conformer: 66.10550248681949 kcal/mol)

>  <smiles>  (1) 
CCN(CC)Cn1c(O)cc(Cc2ccc(F)cc2)c1O

>  <score_type>  (1) 
oracle

>  <origin>  (1) 
adg

>  <m_score__min__energy>  (1) 
-9.0800000000000001

>  <m_primary>  (1) 
energy

$$$$
1:0
     RDKit          3D

 40 42  0  0  0  0  0  0  0  0999 V2000
   -1.4820   22.3330  -30.7720 C   0  0  0  0  0  0  0  0  0  0  0  0
   -1.4430   22.6280  -29.2970 C   0  0  0  0  0  0  0  0  0  0  0  0
   -0.8540   21.6840  -28.4410 C   0  0  0  0  0  0  0  0  0  0  0  0
   -0.7500   21.9340  -27.0740 C   0  0  0  0  0  0  0  0  0  0  0  0
   -1.2220   23.1330  -26.5430 C   0  0  0  0  0  0  0  0  0  0  0  0
   -1.8190   24.0920  -27.3750 C   0  0  0  0  0  0  0  0  0  0  0  0
   -2.3450   25.3660  -26.7770 C   0  0  0  0  0  0  0  0  0  0  0  0
   -1.9820   23.8210  -28.7510 C   0  0  0  0  0  0  0  0  0  0  0  0
   -2.6460   24.7860  -29.5810 N   0  0  0  0  0  0  0  0  0  0  0  0
   -3.9100   24.5850  -30.2280 C   0  0  0  0  0  0  0  0  0  0  0  0
   -4.4380   25.5520  -30.8380 O   0  0  0  0  0  0  0  0  0  0  0  0
   -4.6120   23.2560  -30.2050 C   0  0  0  0  0  0  0  0  0  0  0  0
   -4.8150   22.5840  -31.8910 S   0  0  0  0  0  0  0  0  0  0  0  0
   -6.6070   22.4920  -31.8160 C   0  0  0  0  0  0  0  0  0  0  0  0
   -7.6230   23.7600  -31.4520 S   0  0  0  0  0  0  0  0  0  0  0  0
   -9.0620   22.9560  -31.6260 N   0  0  0  0  0  0  0  0  0  0  0  0
   -8.7870   21.7000  -31.9680 N   0  0  0  0  0  0  0  0  0  0  0  0
   -7.4530   21.4070  -32.0750 C   0  0  0  0  0  0  0  0  0  0  0  0
   -6.9990   20.0590  -32.4750 C   0  0  0  0  0  0  0  0  0  0  0  0
   -7.4440   18.9100  -31.7990 C   0  0  0  0  0  0  0  0  0  0  0  0
   -6.9950   17.6440  -32.1870 C   0  0  0  0  0  0  0  0  0  0  0  0
   -6.1080   17.5120  -33.2600 C   0  0  0  0  0  0  0  0  0  0  0  0
   -5.4950   15.7820  -33.7860 Br  0  0  0  0  0  0  0  0  0  0  0  0
   -5.6810   18.6480  -33.9530 C   0  0  0  0  0  0  0  0  0  0  0  0
   -6.1290   19.9150  -33.5690 C   0  0  0  0  0  0  0  0  0  0  0  0
   -1.6247   21.2533  -30.9263 H   0  0  0  0  0  0  0  0  0  0  0  0
   -2.3153   22.8827  -31.2340 H   0  0  0  0  0  0  0  0  0  0  0  0
   -0.5345   22.6473  -31.2340 H   0  0  0  0  0  0  0  0  0  0  0  0
   -0.4712   20.7386  -28.8530 H   0  0  0  0  0  0  0  0  0  0  0  0
   -0.2941   21.1829  -26.4122 H   0  0  0  0  0  0  0  0  0  0  0  0
   -1.1259   23.3287  -25.4648 H   0  0  0  0  0  0  0  0  0  0  0  0
   -2.3158   25.2954  -25.6797 H   0  0  0  0  0  0  0  0  0  0  0  0
   -1.7220   26.2104  -27.1068 H   0  0  0  0  0  0  0  0  0  0  0  0
   -3.3823   25.5249  -27.1068 H   0  0  0  0  0  0  0  0  0  0  0  0
   -4.0201   22.5483  -29.6060 H   0  0  0  0  0  0  0  0  0  0  0  0
   -5.6102   23.3980  -29.7652 H   0  0  0  0  0  0  0  0  0  0  0  0
   -8.1491   19.0072  -30.9604 H   0  0  0  0  0  0  0  0  0  0  0  0
   -7.3402   16.7499  -31.6471 H   0  0  0  0  0  0  0  0  0  0  0  0
   -4.9904   18.5447  -34.8030 H   0  0  0  0  0  0  0  0  0  0  0  0
   -5.7988   20.8041  -34.1261 H   0  0  0  0  0  0  0  0  0  0  0  0
  1  2  1  0
  2  3  2  0
  3  4  1  0
  4  5  2  0
  5  6  1  0
  6  7  1  0
  6  8  2  0
  8  9  1  0
  9 10  1  0
 10 11  2  0
 10 12  1  0
 12 13  1  0
 13 14  1  0
 14 15  1  0
 15 16  1  0
 16 17  2  0
 17 18  1  0
 18 19  1  0
 19 20  2  0
 20 21  1  0
 21 22  2  0
 22 23  1  0
 22 24  1  0
 24 25  2  0
  8  2  1  0
 18 14  2  0
 25 19  1  0
  1 26  1  0
  1 27  1  0
  1 28  1  0
  3 29  1  0
  4 30  1  0
  5 31  1  0
  7 32  1  0
  7 33  1  0
  7 34  1  0
 12 35  1  0
 12 36  1  0
 20 37  1  0
 21 38  1  0
 24 39  1  0
 25 40  1  0
M  CHG  1   9  -1
M  END
>  <UniqueID>  (2) 
2

>  <SMILES>  (2) 
Cc1cccc(C)c1[N-]C(=O)CSc1snnc1-c1ccc(Br)cc1

>  <Energy>  (2) 
84.37110863922764

>  <Genealogy>  (2) 
Cc1cccc(C)c1[N-]C(=O)CSc1snnc1-c1ccc(Br)cc1 (protonated)
Cc1cccc(C)c1[N-]C(=O)CSc1snnc1-c1ccc(Br)cc1 (3D coordinates assigned)
Cc1cccc(C)c1[N-]C(=O)CSc1snnc1-c1ccc(Br)cc1 (optimized conformer: 84.37110863922764 kcal/mol)

>  <smiles>  (2) 
Cc1cccc(C)c1NC(=O)CSc1snnc1-c1ccc(Br)cc1

>  <score_type>  (2) 
oracle

>  <origin>  (2) 
adg

>  <m_score__min__energy>  (2) 
-11.44

>  <m_primary>  (2) 
energy

$$$$
2:0
     RDKit          3D

 40 41  0  0  0  0  0  0  0  0999 V2000
   -8.3590   18.5260  -32.3350 C   0  0  0  0  0  0  0  0  0  0  0  0
   -8.0770   20.0260  -32.4760 C   0  0  1  0  0  0  0  0  0  0  0  0
   -9.1590   20.8630  -31.7590 C   0  0  0  0  0  0  0  0  0  0  0  0
   -8.7410   22.3300  -31.5120 C   0  0  0  0  0  0  0  0  0  0  0  0
   -7.5090   22.7470  -32.3210 C   0  0  0  0  0  0  0  0  0  0  0  0
   -6.3980   21.8150  -32.0760 N   0  0  0  0  0  0  0  0  0  0  0  0
   -5.0380   22.2970  -32.1560 C   0  0  0  0  0  0  0  0  0  0  0  0
   -4.3170   21.9510  -33.1300 O   0  0  0  0  0  0  0  0  0  0  0  0
   -4.4780   23.2150  -31.1360 C   0  0  0  0  0  0  0  0  0  0  0  0
   -4.5780   24.5550  -31.2190 N   0  0  0  0  0  0  0  0  0  0  0  0
   -3.8970   25.0640  -30.2050 N   0  0  0  0  0  0  0  0  0  0  0  0
   -3.3890   24.0300  -29.5050 C   0  0  0  0  0  0  0  0  0  0  0  0
   -2.4580   24.2010  -28.3270 C   0  0  0  0  0  0  0  0  0  0  0  0
   -3.2300   24.5450  -27.0470 C   0  0  0  0  0  0  0  0  0  0  0  0
   -1.4170   25.2820  -28.6330 C   0  0  0  0  0  0  0  0  0  0  0  0
   -3.7360   22.8490  -30.0650 N   0  0  0  0  0  0  0  0  0  0  0  0
   -3.3080   21.5030  -29.6820 C   0  0  0  0  0  0  0  0  0  0  0  0
   -6.6720   20.3740  -31.9500 C   0  0  0  0  0  0  0  0  0  0  0  0
   -8.4088   18.2609  -31.2686 H   0  0  0  0  0  0  0  0  0  0  0  0
   -9.3180   18.2862  -32.8176 H   0  0  0  0  0  0  0  0  0  0  0  0
   -7.5526   17.9543  -32.8176 H   0  0  0  0  0  0  0  0  0  0  0  0
   -8.1101   20.2772  -33.5464 H   0  0  0  0  0  0  0  0  0  0  0  0
   -9.3747   20.3942  -30.7875 H   0  0  0  0  0  0  0  0  0  0  0  0
  -10.0402   20.8843  -32.4171 H   0  0  0  0  0  0  0  0  0  0  0  0
   -8.5164   22.4549  -30.4424 H   0  0  0  0  0  0  0  0  0  0  0  0
   -9.5769   22.9684  -31.8341 H   0  0  0  0  0  0  0  0  0  0  0  0
   -7.2047   23.7609  -32.0220 H   0  0  0  0  0  0  0  0  0  0  0  0
   -7.7612   22.7295  -33.3915 H   0  0  0  0  0  0  0  0  0  0  0  0
   -1.9429   23.2440  -28.1574 H   0  0  0  0  0  0  0  0  0  0  0  0
   -2.6240   24.2750  -26.1696 H   0  0  0  0  0  0  0  0  0  0  0  0
   -3.4442   25.6237  -27.0267 H   0  0  0  0  0  0  0  0  0  0  0  0
   -4.1754   23.9830  -27.0267 H   0  0  0  0  0  0  0  0  0  0  0  0
   -1.0241   25.6900  -27.6901 H   0  0  0  0  0  0  0  0  0  0  0  0
   -0.5927   24.8432  -29.2143 H   0  0  0  0  0  0  0  0  0  0  0  0
   -1.8866   26.0892  -29.2143 H   0  0  0  0  0  0  0  0  0  0  0  0
   -3.2830   21.4244  -28.5851 H   0  0  0  0  0  0  0  0  0  0  0  0
   -4.0156   20.7643  -30.0865 H   0  0  0  0  0  0  0  0  0  0  0  0
   -2.3037   21.3086  -30.0865 H   0  0  0  0  0  0  0  0  0  0  0  0
   -6.6045   20.0873  -30.8902 H   0  0  0  0  0  0  0  0  0  0  0  0
   -5.9302   19.8248  -32.5485 H   0  0  0  0  0  0  0  0  0  0  0  0
  1  2  1  0
  2  3  1  0
  3  4  1  0
  4  5  1  0
  5  6  1  0
  6  7  1  0
  7  8  2  0
  7  9  1  0
  9 10  2  0
 10 11  1  0
 11 12  2  0
 12 13  1  0
 13 14  1  0
 13 15  1  0
 12 16  1  0
 16 17  1  0
  6 18  1  0
 18  2  1  0
 16  9  1  0
  1 19  1  0
  1 20  1  0
  1 21  1  0
  2 22  1  6
  3 23  1  0
  3 24  1  0
  4 25  1  0
  4 26  1  0
  5 27  1  0
  5 28  1  0
 13 29  1  0
 14 30  1  0
 14 31  1  0
 14 32  1  0
 15 33  1  0
 15 34  1  0
 15 35  1  0
 17 36  1  0
 17 37  1  0
 17 38  1  0
 18 39  1  0
 18 40  1  0
M  END
>  <UniqueID>  (3) 
3

>  <SMILES>  (3) 
CC(C)c1nnc(C(=O)N2CCC[C@H](C)C2)n1C

>  <Energy>  (3) 
71.28574031257794

>  <Genealogy>  (3) 
CC(C)c1nnc(C(=O)N2CCC[C@H](C)C2)n1C (chirality)
CC(C)c1nnc(C(=O)N2CCC[C@H](C)C2)n1C (3D coordinates assigned)
CC(C)c1nnc(C(=O)N2CCC[C@H](C)C2)n1C (nonaromatic ring conformer: 71.28574031257794 kcal/mol)

>  <smiles>  (3) 
CC1CCCN(C(=O)c2nnc(C(C)C)n2C)C1

>  <score_type>  (3) 
oracle

>  <origin>  (3) 
adg

>  <m_score__min__energy>  (3) 
-7.54

>  <m_primary>  (3) 
energy

$$$$
3:0
     RDKit          3D

 47 51  0  0  0  0  0  0  0  0999 V2000
    0.2140   25.8430  -27.4670 C   0  0  0  0  0  0  0  0  0  0  0  0
   -1.2060   25.4240  -27.2220 C   0  0  0  0  0  0  0  0  0  0  0  0
   -1.8160   25.6750  -25.9850 C   0  0  0  0  0  0  0  0  0  0  0  0
   -3.1450   25.3060  -25.7680 C   0  0  0  0  0  0  0  0  0  0  0  0
   -3.8790   24.6960  -26.7880 C   0  0  0  0  0  0  0  0  0  0  0  0
   -3.2910   24.4540  -28.0430 C   0  0  0  0  0  0  0  0  0  0  0  0
   -4.0750   23.8160  -29.1320 C   0  0  0  0  0  0  0  0  0  0  0  0
   -5.0520   24.5450  -29.8330 C   0  0  0  0  0  0  0  0  0  0  0  0
   -5.7890   23.9430  -30.8560 C   0  0  0  0  0  0  0  0  0  0  0  0
   -5.5700   22.5990  -31.1960 C   0  0  0  0  0  0  0  0  0  0  0  0
   -6.3510   21.9620  -32.3250 C   0  0  1  0  0  0  0  0  0  0  0  0
   -5.7290   20.5990  -32.7190 C   0  0  0  0  0  0  0  0  0  0  0  0
   -6.6490   19.7990  -33.6830 C   0  0  1  0  0  0  0  0  0  0  0  0
   -6.0770   18.4350  -33.9380 C   0  0  0  0  0  0  0  0  0  0  0  0
   -4.7810   18.1550  -34.3310 C   0  0  0  0  0  0  0  0  0  0  0  0
   -4.7200   16.7850  -34.4560 C   0  0  0  0  0  0  0  0  0  0  0  0
   -5.9770   16.3140  -34.1360 C   0  0  0  0  0  0  0  0  0  0  0  0
   -6.7630   17.3210  -33.8340 O   0  0  0  0  0  0  0  0  0  0  0  0
   -8.0120   19.6840  -33.1440 N   0  0  0  0  0  0  0  0  0  0  0  0
   -8.5120   20.7520  -32.3460 C   0  0  0  0  0  0  0  0  0  0  0  0
   -9.7840   20.9480  -31.9770 N   0  0  0  0  0  0  0  0  0  0  0  0
   -9.7930   22.1240  -31.3600 N   0  0  0  0  0  0  0  0  0  0  0  0
   -8.5630   22.6320  -31.3550 N   0  0  0  0  0  0  0  0  0  0  0  0
   -7.7520   21.7700  -31.9500 N   0  0  0  0  0  0  0  0  0  0  0  0
   -4.5860   21.8730  -30.5050 C   0  0  0  0  0  0  0  0  0  0  0  0
   -3.8500   22.4730  -29.4810 C   0  0  0  0  0  0  0  0  0  0  0  0
   -1.9520   24.8280  -28.2510 C   0  0  0  0  0  0  0  0  0  0  0  0
    0.7233   25.9933  -26.5037 H   0  0  0  0  0  0  0  0  0  0  0  0
    0.7339   25.0600  -28.0384 H   0  0  0  0  0  0  0  0  0  0  0  0
    0.2256   26.7828  -28.0384 H   0  0  0  0  0  0  0  0  0  0  0  0
   -1.2453   26.1646  -25.1821 H   0  0  0  0  0  0  0  0  0  0  0  0
   -3.6150   25.4960  -24.7918 H   0  0  0  0  0  0  0  0  0  0  0  0
   -4.9239   24.4028  -26.6087 H   0  0  0  0  0  0  0  0  0  0  0  0
   -5.2375   25.5978  -29.5738 H   0  0  0  0  0  0  0  0  0  0  0  0
   -6.5467   24.5269  -31.3991 H   0  0  0  0  0  0  0  0  0  0  0  0
   -6.3048   22.6427  -33.1878 H   0  0  0  0  0  0  0  0  0  0  0  0
   -4.7641   20.7787  -33.2157 H   0  0  0  0  0  0  0  0  0  0  0  0
   -5.5985   20.0060  -31.8018 H   0  0  0  0  0  0  0  0  0  0  0  0
   -6.7025   20.3489  -34.6342 H   0  0  0  0  0  0  0  0  0  0  0  0
   -3.9689   18.8758  -34.5069 H   0  0  0  0  0  0  0  0  0  0  0  0
   -3.8455   16.1867  -34.7514 H   0  0  0  0  0  0  0  0  0  0  0  0
   -6.2751   15.2552  -34.1343 H   0  0  0  0  0  0  0  0  0  0  0  0
   -8.6720   18.9640  -33.5150 H   0  0  0  0  0  0  0  0  0  0  0  0
  -10.6160   20.3410  -32.1530 H   0  0  0  0  0  0  0  0  0  0  0  0
   -4.3936   20.8235  -30.7725 H   0  0  0  0  0  0  0  0  0  0  0  0
   -3.0880   21.8899  -28.9431 H   0  0  0  0  0  0  0  0  0  0  0  0
   -1.4837   24.6517  -29.2306 H   0  0  0  0  0  0  0  0  0  0  0  0
  1  2  1  0
  2  3  2  0
  3  4  1  0
  4  5  2  0
  5  6  1  0
  6  7  1  0
  7  8  2  0
  8  9  1  0
  9 10  2  0
 10 11  1  0
 11 12  1  0
 12 13  1  0
 13 14  1  0
 14 15  2  0
 15 16  1  0
 16 17  2  0
 17 18  1  0
 13 19  1  0
 19 20  1  0
 20 21  2  0
 21 22  1  0
 22 23  2  0
 23 24  1  0
 10 25  1  0
 25 26  2  0
  6 27  2  0
 27  2  1  0
 26  7  1  0
 24 11  1  0
 18 14  1  0
 24 20  1  0
  1 28  1  0
  1 29  1  0
  1 30  1  0
  3 31  1  0
  4 32  1  0
  5 33  1  0
  8 34  1  0
  9 35  1  0
 11 36  1  6
 12 37  1  0
 12 38  1  0
 13 39  1  6
 15 40  1  0
 16 41  1  0
 17 42  1  0
 19 43  1  0
 21 44  1  0
 25 45  1  0
 26 46  1  0
 27 47  1  0
M  CHG  1  21   1
M  END
>  <UniqueID>  (4) 
4

>  <SMILES>  (4) 
Cc1cccc(-c2ccc([C@H]3C[C@@H](c4ccco4)Nc4[nH+]nnn43)cc2)c1

>  <Energy>  (4) 
126.48115321119386

>  <Genealogy>  (4) 
Cc1cccc(-c2ccc(C3CC(c4ccco4)Nc4[nH+]nnn43)cc2)c1 (protonated)
Cc1cccc(-c2ccc([C@H]3C[C@@H](c4ccco4)Nc4[nH+]nnn43)cc2)c1 (chirality)
Cc1cccc(-c2ccc([C@H]3C[C@@H](c4ccco4)Nc4[nH+]nnn43)cc2)c1 (3D coordinates assigned)
Cc1cccc(-c2ccc([C@H]3C[C@@H](c4ccco4)Nc4[nH+]nnn43)cc2)c1 (nonaromatic ring conformer: 126.48115321119386 kcal/mol)

>  <smiles>  (4) 
Cc1cccc(-c2ccc(C3CC(c4ccco4)Nc4nnnn43)cc2)c1

>  <score_type>  (4) 
oracle

>  <origin>  (4) 
adg

>  <m_score__min__energy>  (4) 
-9.1500000000000004

>  <m_primary>  (4) 
energy

$$$$
4:0
     RDKit          3D

 43 46  0  0  0  0  0  0  0  0999 V2000
   -8.1120   22.4280  -29.6340 O   0  0  0  0  0  0  0  0  0  0  0  0
   -7.1280   22.4340  -30.4210 C   0  0  0  0  0  0  0  0  0  0  0  0
   -7.0400   21.4070  -31.4720 C   0  0  0  0  0  0  0  0  0  0  0  0
   -8.0470   21.0150  -32.3360 C   0  0  0  0  0  0  0  0  0  0  0  0
   -7.5560   20.0720  -33.1610 N   0  0  0  0  0  0  0  0  0  0  0  0
   -6.2790   19.8780  -32.8740 N   0  0  0  0  0  0  0  0  0  0  0  0
   -5.4590   18.8850  -33.4990 C   0  0  0  0  0  0  0  0  0  0  0  0
   -6.0510   17.7540  -33.9700 N   0  0  0  0  0  0  0  0  0  0  0  0
   -5.3470   16.7680  -34.5850 C   0  0  0  0  0  0  0  0  0  0  0  0
   -3.9730   16.9030  -34.7700 C   0  0  0  0  0  0  0  0  0  0  0  0
   -3.3330   18.0620  -34.3320 C   0  0  0  0  0  0  0  0  0  0  0  0
   -4.0660   19.0660  -33.6630 C   0  0  0  0  0  0  0  0  0  0  0  0
   -3.3690   20.3530  -33.2710 C   0  0  0  0  0  0  0  0  0  0  0  0
   -1.8550   20.1610  -33.1190 C   0  0  0  0  0  0  0  0  0  0  0  0
   -1.2860   19.4520  -34.3470 C   0  0  0  0  0  0  0  0  0  0  0  0
   -1.9590   18.2110  -34.5540 O   0  0  0  0  0  0  0  0  0  0  0  0
   -5.9310   20.6650  -31.8360 C   0  0  0  0  0  0  0  0  0  0  0  0
   -6.1220   23.4510  -30.2920 N   0  0  0  0  0  0  0  0  0  0  0  0
   -4.7330   23.0480  -30.0300 C   0  0  0  0  0  0  0  0  0  0  0  0
   -3.8330   24.2730  -29.8700 C   0  0  0  0  0  0  0  0  0  0  0  0
   -4.1950   25.2650  -30.8840 N   0  0  0  0  0  0  0  0  0  0  0  0
   -5.5220   25.8490  -30.6200 C   0  0  0  0  0  0  0  0  0  0  0  0
   -6.5390   24.8360  -30.0460 C   0  0  0  0  0  0  0  0  0  0  0  0
   -9.0745   21.4075  -32.3467 H   0  0  0  0  0  0  0  0  0  0  0  0
   -8.0850   19.5710  -33.9100 H   0  0  0  0  0  0  0  0  0  0  0  0
   -5.8625   15.8623  -34.9371 H   0  0  0  0  0  0  0  0  0  0  0  0
   -3.3977   16.1022  -35.2575 H   0  0  0  0  0  0  0  0  0  0  0  0
   -3.5552   21.1090  -34.0480 H   0  0  0  0  0  0  0  0  0  0  0  0
   -3.7707   20.6754  -32.2991 H   0  0  0  0  0  0  0  0  0  0  0  0
   -1.3733   21.1440  -33.0115 H   0  0  0  0  0  0  0  0  0  0  0  0
   -1.6593   19.5468  -32.2277 H   0  0  0  0  0  0  0  0  0  0  0  0
   -1.4222   20.0914  -35.2316 H   0  0  0  0  0  0  0  0  0  0  0  0
   -0.2153   19.2578  -34.1860 H   0  0  0  0  0  0  0  0  0  0  0  0
   -4.9394   20.7092  -31.3620 H   0  0  0  0  0  0  0  0  0  0  0  0
   -4.6986   22.4522  -29.1060 H   0  0  0  0  0  0  0  0  0  0  0  0
   -4.3716   22.4541  -30.8825 H   0  0  0  0  0  0  0  0  0  0  0  0
   -3.9705   24.7034  -28.8671 H   0  0  0  0  0  0  0  0  0  0  0  0
   -2.7802   23.9800  -29.9953 H   0  0  0  0  0  0  0  0  0  0  0  0
   -3.4870   26.0360  -30.8550 H   0  0  0  0  0  0  0  0  0  0  0  0
   -5.4034   26.6703  -29.8979 H   0  0  0  0  0  0  0  0  0  0  0  0
   -5.9204   26.1957  -31.5849 H   0  0  0  0  0  0  0  0  0  0  0  0
   -6.6268   24.9947  -28.9610 H   0  0  0  0  0  0  0  0  0  0  0  0
   -7.5048   24.9978  -30.5471 H   0  0  0  0  0  0  0  0  0  0  0  0
  1  2  2  0
  2  3  1  0
  3  4  1  0
  4  5  2  0
  5  6  1  0
  6  7  1  0
  7  8  2  0
  8  9  1  0
  9 10  2  0
 10 11  1  0
 11 12  2  0
 12 13  1  0
 13 14  1  0
 14 15  1  0
 15 16  1  0
  6 17  1  0
  2 18  1  0
 18 19  1  0
 19 20  1  0
 20 21  1  0
 21 22  1  0
 22 23  1  0
 17  3  2  0
 23 18  1  0
 12  7  1  0
 16 11  1  0
  4 24  1  0
  5 25  1  0
  9 26  1  0
 10 27  1  0
 13 28  1  0
 13 29  1  0
 14 30  1  0
 14 31  1  0
 15 32  1  0
 15 33  1  0
 17 34  1  0
 19 35  1  0
 19 36  1  0
 20 37  1  0
 20 38  1  0
 21 39  1  0
 22 40  1  0
 22 41  1  0
 23 42  1  0
 23 43  1  0
M  CHG  1   5   1
M  END
>  <UniqueID>  (5) 
5

>  <SMILES>  (5) 
O=C(c1c[nH+]n(-c2nccc3c2CCCO3)c1)N1CCNCC1

>  <Energy>  (5) 
90.49680296461985

>  <Genealogy>  (5) 
O=C(c1c[nH+]n(-c2nccc3c2CCCO3)c1)N1CCNCC1 (protonated)
O=C(c1c[nH+]n(-c2nccc3c2CCCO3)c1)N1CCNCC1 (3D coordinates assigned)
O=C(c1c[nH+]n(-c2nccc3c2CCCO3)c1)N1CCNCC1 (nonaromatic ring conformer: 90.49680296461985 kcal/mol)

>  <smiles>  (5) 
O=C(c1cnn(-c2nccc3c2CCCO3)c1)N1CCNCC1

>  <score_type>  (5) 
oracle

>  <origin>  (5) 
adg

>  <m_score__min__energy>  (5) 
-8.3399999999999999

>  <m_primary>  (5) 
energy

$$$$
5:0
     RDKit          3D

 36 38  0  0  0  0  0  0  0  0999 V2000
   -4.6150   14.5240  -32.3160 C   0  0  0  0  0  0  0  0  0  0  0  0
   -5.1860   15.9190  -32.0670 C   0  0  0  0  0  0  0  0  0  0  0  0
   -5.1640   16.7360  -33.2870 N   0  0  0  0  0  0  0  0  0  0  0  0
   -4.3820   16.5300  -34.3650 C   0  0  0  0  0  0  0  0  0  0  0  0
   -4.7250   17.4430  -35.3330 C   0  0  0  0  0  0  0  0  0  0  0  0
   -5.7370   18.2120  -34.8880 N   0  0  0  0  0  0  0  0  0  0  0  0
   -5.9940   17.7460  -33.6470 C   0  0  0  0  0  0  0  0  0  0  0  0
   -7.0780   18.3430  -32.7840 C   0  0  0  0  0  0  0  0  0  0  0  0
   -7.7290   19.4890  -33.4370 N   0  0  0  0  0  0  0  0  0  0  0  0
   -7.7560   20.6480  -32.5780 C   0  0  0  0  0  0  0  0  0  0  0  0
   -8.9780   21.1500  -32.0980 C   0  0  0  0  0  0  0  0  0  0  0  0
   -9.0040   22.2830  -31.2820 C   0  0  0  0  0  0  0  0  0  0  0  0
   -7.8160   22.9370  -30.9490 C   0  0  0  0  0  0  0  0  0  0  0  0
   -6.5850   22.4560  -31.4260 C   0  0  0  0  0  0  0  0  0  0  0  0
   -5.3270   23.1510  -31.0910 C   0  0  0  0  0  0  0  0  0  0  0  0
   -5.1310   24.4780  -31.2130 N   0  0  0  0  0  0  0  0  0  0  0  0
   -3.8880   24.7070  -30.8190 N   0  0  0  0  0  0  0  0  0  0  0  0
   -3.3700   23.5140  -30.4720 C   0  0  0  0  0  0  0  0  0  0  0  0
   -4.2490   22.5560  -30.6370 O   0  0  0  0  0  0  0  0  0  0  0  0
   -6.5620   21.3080  -32.2350 C   0  0  0  0  0  0  0  0  0  0  0  0
   -4.4139   14.0328  -31.3525 H   0  0  0  0  0  0  0  0  0  0  0  0
   -5.3412   13.9272  -32.8874 H   0  0  0  0  0  0  0  0  0  0  0  0
   -3.6788   14.6076  -32.8874 H   0  0  0  0  0  0  0  0  0  0  0  0
   -6.2254   15.8229  -31.7200 H   0  0  0  0  0  0  0  0  0  0  0  0
   -4.5638   16.4158  -31.3081 H   0  0  0  0  0  0  0  0  0  0  0  0
   -3.6009   15.7607  -34.4549 H   0  0  0  0  0  0  0  0  0  0  0  0
   -4.2466   17.5320  -36.3195 H   0  0  0  0  0  0  0  0  0  0  0  0
   -7.8357   17.5720  -32.5804 H   0  0  0  0  0  0  0  0  0  0  0  0
   -6.6148   18.6992  -31.8520 H   0  0  0  0  0  0  0  0  0  0  0  0
   -8.7110   19.2230  -33.6810 H   0  0  0  0  0  0  0  0  0  0  0  0
   -7.2380   19.7090  -34.3370 H   0  0  0  0  0  0  0  0  0  0  0  0
   -9.9190   20.6477  -32.3666 H   0  0  0  0  0  0  0  0  0  0  0  0
   -9.9637   22.6616  -30.9002 H   0  0  0  0  0  0  0  0  0  0  0  0
   -7.8440   23.8324  -30.3106 H   0  0  0  0  0  0  0  0  0  0  0  0
   -2.3459   23.3633  -30.0997 H   0  0  0  0  0  0  0  0  0  0  0  0
   -5.6007   20.9212  -32.6041 H   0  0  0  0  0  0  0  0  0  0  0  0
  1  2  1  0
  2  3  1  0
  3  4  1  0
  4  5  2  0
  5  6  1  0
  6  7  2  0
  7  8  1  0
  8  9  1  0
  9 10  1  0
 10 11  2  0
 11 12  1  0
 12 13  2  0
 13 14  1  0
 14 15  1  0
 15 16  2  0
 16 17  1  0
 17 18  2  0
 18 19  1  0
 14 20  2  0
  7  3  1  0
 20 10  1  0
 19 15  1  0
  1 21  1  0
  1 22  1  0
  1 23  1  0
  2 24  1  0
  2 25  1  0
  4 26  1  0
  5 27  1  0
  8 28  1  0
  8 29  1  0
  9 30  1  0
  9 31  1  0
 11 32  1  0
 12 33  1  0
 13 34  1  0
 18 35  1  0
 20 36  1  0
M  CHG  1   9   1
M  END
>  <UniqueID>  (6) 
6

>  <SMILES>  (6) 
CCn1ccnc1C[NH2+]c1cccc(-c2nnco2)c1

>  <Energy>  (6) 
98.56989652644846

>  <Genealogy>  (6) 
CCn1ccnc1C[NH2+]c1cccc(-c2nnco2)c1 (protonated)
CCn1ccnc1C[NH2+]c1cccc(-c2nnco2)c1 (3D coordinates assigned)
CCn1ccnc1C[NH2+]c1cccc(-c2nnco2)c1 (optimized conformer: 98.56989652644846 kcal/mol)

>  <smiles>  (6) 
CCn1ccnc1CNc1cccc(-c2nnco2)c1

>  <score_type>  (6) 
oracle

>  <origin>  (6) 
adg

>  <m_score__min__energy>  (6) 
-6.9299999999999997

>  <m_primary>  (6) 
energy

$$$$
6:0
     RDKit          3D

 37 39  0  0  0  0  0  0  0  0999 V2000
   -2.9370   18.6000  -34.2260 C   0  0  0  0  0  0  0  0  0  0  0  0
   -4.3540   18.9250  -33.8770 C   0  0  0  0  0  0  0  0  0  0  0  0
   -5.3810   18.1910  -34.2350 O   0  0  0  0  0  0  0  0  0  0  0  0
   -6.4920   18.7430  -33.8490 N   0  0  0  0  0  0  0  0  0  0  0  0
   -6.2020   19.8870  -33.2010 C   0  0  0  0  0  0  0  0  0  0  0  0
   -7.2390   20.8270  -32.7290 C   0  0  0  0  0  0  0  0  0  0  0  0
   -8.5140   20.3920  -32.3340 C   0  0  0  0  0  0  0  0  0  0  0  0
   -9.4590   21.3290  -31.9090 C   0  0  0  0  0  0  0  0  0  0  0  0
   -9.1340   22.6870  -31.8930 C   0  0  0  0  0  0  0  0  0  0  0  0
   -7.8670   23.0880  -32.3140 C   0  0  0  0  0  0  0  0  0  0  0  0
   -6.9600   22.1610  -32.7220 N   0  0  0  0  0  0  0  0  0  0  0  0
   -4.8180   20.0430  -33.1980 C   0  0  0  0  0  0  0  0  0  0  0  0
   -3.9950   21.2090  -32.7100 C   0  0  0  0  0  0  0  0  0  0  0  0
   -3.8630   21.2040  -31.3030 O   0  0  0  0  0  0  0  0  0  0  0  0
   -3.2600   22.3970  -30.8480 C   0  0  0  0  0  0  0  0  0  0  0  0
   -4.3350   23.4030  -30.5750 C   0  0  0  0  0  0  0  0  0  0  0  0
   -5.5520   23.0100  -29.9990 C   0  0  0  0  0  0  0  0  0  0  0  0
   -6.5210   23.9770  -29.7210 C   0  0  0  0  0  0  0  0  0  0  0  0
   -6.2670   25.3190  -30.0100 C   0  0  0  0  0  0  0  0  0  0  0  0
   -5.0390   25.6760  -30.5710 C   0  0  0  0  0  0  0  0  0  0  0  0
   -4.1070   24.7210  -30.8350 N   0  0  0  0  0  0  0  0  0  0  0  0
   -2.3535   18.4662  -33.3032 H   0  0  0  0  0  0  0  0  0  0  0  0
   -2.9082   17.6719  -34.8158 H   0  0  0  0  0  0  0  0  0  0  0  0
   -2.5067   19.4228  -34.8158 H   0  0  0  0  0  0  0  0  0  0  0  0
   -7.4420   18.3530  -34.0380 H   0  0  0  0  0  0  0  0  0  0  0  0
   -8.7669   19.3218  -32.3589 H   0  0  0  0  0  0  0  0  0  0  0  0
  -10.4574   20.9976  -31.5875 H   0  0  0  0  0  0  0  0  0  0  0  0
   -9.8688   23.4313  -31.5523 H   0  0  0  0  0  0  0  0  0  0  0  0
   -7.6009   24.1553  -32.3161 H   0  0  0  0  0  0  0  0  0  0  0  0
   -2.9938   21.1524  -33.1620 H   0  0  0  0  0  0  0  0  0  0  0  0
   -4.5082   22.1369  -33.0026 H   0  0  0  0  0  0  0  0  0  0  0  0
   -2.6958   22.1981  -29.9249 H   0  0  0  0  0  0  0  0  0  0  0  0
   -2.5695   22.7836  -31.6120 H   0  0  0  0  0  0  0  0  0  0  0  0
   -5.7414   21.9512  -29.7686 H   0  0  0  0  0  0  0  0  0  0  0  0
   -7.4823   23.6817  -29.2753 H   0  0  0  0  0  0  0  0  0  0  0  0
   -7.0258   26.0867  -29.7982 H   0  0  0  0  0  0  0  0  0  0  0  0
   -4.8252   26.7305  -30.7996 H   0  0  0  0  0  0  0  0  0  0  0  0
  1  2  1  0
  2  3  1  0
  3  4  1  0
  4  5  2  0
  5  6  1  0
  6  7  2  0
  7  8  1  0
  8  9  2  0
  9 10  1  0
 10 11  2  0
  5 12  1  0
 12 13  1  0
 13 14  1  0
 14 15  1  0
 15 16  1  0
 16 17  2  0
 17 18  1  0
 18 19  2  0
 19 20  1  0
 20 21  2  0
 12  2  2  0
 21 16  1  0
 11  6  1  0
  1 22  1  0
  1 23  1  0
  1 24  1  0
  4 25  1  0
  7 26  1  0
  8 27  1  0
  9 28  1  0
 10 29  1  0
 13 30  1  0
 13 31  1  0
 15 32  1  0
 15 33  1  0
 17 34  1  0
 18 35  1  0
 19 36  1  0
 20 37  1  0
M  CHG  1   4   1
M  END
>  <UniqueID>  (7) 
7

>  <SMILES>  (7) 
Cc1o[nH+]c(-c2ccccn2)c1COCc1ccccn1

>  <Energy>  (7) 
76.1723492439353

>  <Genealogy>  (7) 
Cc1o[nH+]c(-c2ccccn2)c1COCc1ccccn1 (protonated)
Cc1o[nH+]c(-c2ccccn2)c1COCc1ccccn1 (3D coordinates assigned)
Cc1o[nH+]c(-c2ccccn2)c1COCc1ccccn1 (optimized conformer: 76.1723492439353 kcal/mol)

>  <smiles>  (7) 
Cc1onc(-c2ccccn2)c1COCc1ccccn1

>  <score_type>  (7) 
oracle

>  <origin>  (7) 
adg

>  <m_score__min__energy>  (7) 
-7.5700000000000003

>  <m_primary>  (7) 
energy

$$$$
7:0
     RDKit          3D

 31 33  0  0  0  0  0  0  0  0999 V2000
   -9.1490   18.4190  -31.9700 C   0  0  0  0  0  0  0  0  0  0  0  0
   -8.9840   19.7430  -32.4690 O   0  0  0  0  0  0  0  0  0  0  0  0
   -8.0010   20.6390  -32.0250 C   0  0  0  0  0  0  0  0  0  0  0  0
   -8.3990   21.7280  -31.2440 C   0  0  0  0  0  0  0  0  0  0  0  0
   -7.4590   22.6510  -30.7770 C   0  0  0  0  0  0  0  0  0  0  0  0
   -6.0940   22.5020  -31.0850 C   0  0  0  0  0  0  0  0  0  0  0  0
   -5.1360   23.4640  -30.5940 N   0  0  0  0  0  0  0  0  0  0  0  0
   -4.3800   23.3900  -29.4800 C   0  0  0  0  0  0  0  0  0  0  0  0
   -3.6260   24.5440  -29.4450 C   0  0  0  0  0  0  0  0  0  0  0  0
   -2.6420   24.9220  -28.4160 C   0  0  0  0  0  0  0  0  0  0  0  0
   -2.8290   24.5590  -27.0720 C   0  0  0  0  0  0  0  0  0  0  0  0
   -1.8770   24.9340  -26.1220 C   0  0  0  0  0  0  0  0  0  0  0  0
   -0.7540   25.6630  -26.5130 C   0  0  0  0  0  0  0  0  0  0  0  0
   -0.5990   26.0080  -27.8570 C   0  0  0  0  0  0  0  0  0  0  0  0
   -1.5360   25.6340  -28.7690 N   0  0  0  0  0  0  0  0  0  0  0  0
   -3.9370   25.2850  -30.5270 N   0  0  0  0  0  0  0  0  0  0  0  0
   -4.8530   24.6070  -31.2030 N   0  0  0  0  0  0  0  0  0  0  0  0
   -5.6960   21.4040  -31.8710 C   0  0  0  0  0  0  0  0  0  0  0  0
   -6.6370   20.4820  -32.3370 C   0  0  0  0  0  0  0  0  0  0  0  0
   -9.1465   18.4387  -30.8702 H   0  0  0  0  0  0  0  0  0  0  0  0
  -10.1052   18.0090  -32.3272 H   0  0  0  0  0  0  0  0  0  0  0  0
   -8.3227   17.7869  -32.3272 H   0  0  0  0  0  0  0  0  0  0  0  0
   -9.4622   21.8598  -30.9946 H   0  0  0  0  0  0  0  0  0  0  0  0
   -7.7893   23.5018  -30.1630 H   0  0  0  0  0  0  0  0  0  0  0  0
   -4.3673   22.5716  -28.7451 H   0  0  0  0  0  0  0  0  0  0  0  0
   -3.7174   23.9845  -26.7707 H   0  0  0  0  0  0  0  0  0  0  0  0
   -2.0124   24.6549  -25.0667 H   0  0  0  0  0  0  0  0  0  0  0  0
    0.0008   25.9627  -25.7711 H   0  0  0  0  0  0  0  0  0  0  0  0
    0.2819   26.5829  -28.1786 H   0  0  0  0  0  0  0  0  0  0  0  0
   -4.6331   21.2704  -32.1210 H   0  0  0  0  0  0  0  0  0  0  0  0
   -6.3105   19.6294  -32.9506 H   0  0  0  0  0  0  0  0  0  0  0  0
  1  2  1  0
  2  3  1  0
  3  4  2  0
  4  5  1  0
  5  6  2  0
  6  7  1  0
  7  8  1  0
  8  9  2  0
  9 10  1  0
 10 11  2  0
 11 12  1  0
 12 13  2  0
 13 14  1  0
 14 15  2  0
  9 16  1  0
 16 17  2  0
  6 18  1  0
 18 19  2  0
 19  3  1  0
 17  7  1  0
 15 10  1  0
  1 20  1  0
  1 21  1  0
  1 22  1  0
  4 23  1  0
  5 24  1  0
  8 25  1  0
 11 26  1  0
 12 27  1  0
 13 28  1  0
 14 29  1  0
 18 30  1  0
 19 31  1  0
M  END
>  <UniqueID>  (8) 
8

>  <SMILES>  (8) 
COc1ccc(-n2cc(-c3ccccn3)nn2)cc1

>  <Energy>  (8) 
71.14531309980426

>  <Genealogy>  (8) 
COc1ccc(-n2cc(-c3ccccn3)nn2)cc1 (3D coordinates assigned)
COc1ccc(-n2cc(-c3ccccn3)nn2)cc1 (optimized conformer: 71.14531309980426 kcal/mol)

>  <smiles>  (8) 
COc1ccc(-n2cc(-c3ccccn3)nn2)cc1

>  <score_type>  (8) 
oracle

>  <origin>  (8) 
adg

>  <m_score__min__energy>  (8) 
-7.5599999999999996

>  <m_primary>  (8) 
energy

$$$$
8:0
     RDKit          3D

 37 40  0  0  0  0  0  0  0  0999 V2000
   -3.7746   22.6662  -32.1226 H   0  0  0  0  0  0  0  0  0  0  0  0
   -4.7460   23.0060  -31.7340 C   0  0  0  0  0  0  0  0  0  0  0  0
   -5.9120   22.3320  -32.0980 C   0  0  0  0  0  0  0  0  0  0  0  0
   -5.8571   21.4694  -32.7784 H   0  0  0  0  0  0  0  0  0  0  0  0
   -7.1540   22.7510  -31.5990 C   0  0  0  0  0  0  0  0  0  0  0  0
   -8.4030   22.0020  -31.9590 C   0  0  0  0  0  0  0  0  0  0  0  0
   -8.9217   21.6909  -31.0402 H   0  0  0  0  0  0  0  0  0  0  0  0
   -9.0635   22.6532  -32.5504 H   0  0  0  0  0  0  0  0  0  0  0  0
   -8.1396   21.1127  -32.5504 H   0  0  0  0  0  0  0  0  0  0  0  0
   -7.2110   23.8270  -30.7000 C   0  0  0  0  0  0  0  0  0  0  0  0
   -8.1797   24.1377  -30.2815 H   0  0  0  0  0  0  0  0  0  0  0  0
   -6.0400   24.5110  -30.3300 C   0  0  0  0  0  0  0  0  0  0  0  0
   -6.1130   25.6650  -29.3680 C   0  0  0  0  0  0  0  0  0  0  0  0
   -6.0889   25.2843  -28.3362 H   0  0  0  0  0  0  0  0  0  0  0  0
   -5.2554   26.3340  -29.5321 H   0  0  0  0  0  0  0  0  0  0  0  0
   -7.0481   26.2206  -29.5321 H   0  0  0  0  0  0  0  0  0  0  0  0
   -4.8040   24.1150  -30.8750 C   0  0  0  0  0  0  0  0  0  0  0  0
   -3.5920   24.7610  -30.4630 N   0  0  0  0  0  0  0  0  0  0  0  0
   -2.8590   24.5180  -29.4120 C   0  0  0  0  0  0  0  0  0  0  0  0
   -2.0360   25.5110  -28.9640 N   0  0  0  0  0  0  0  0  0  0  0  0
   -1.2690   25.3820  -27.8410 C   0  0  0  0  0  0  0  0  0  0  0  0
   -0.4490   26.4330  -27.4170 C   0  0  0  0  0  0  0  0  0  0  0  0
   -0.4177   27.3720  -27.9891 H   0  0  0  0  0  0  0  0  0  0  0  0
    0.3310   26.2890  -26.2650 C   0  0  0  0  0  0  0  0  0  0  0  0
    0.9745   27.1167  -25.9322 H   0  0  0  0  0  0  0  0  0  0  0  0
    0.2960   25.0960  -25.5340 C   0  0  0  0  0  0  0  0  0  0  0  0
    0.9123   24.9901  -24.6290 H   0  0  0  0  0  0  0  0  0  0  0  0
   -0.5190   24.0380  -25.9490 C   0  0  0  0  0  0  0  0  0  0  0  0
   -0.5422   23.1005  -25.3740 H   0  0  0  0  0  0  0  0  0  0  0  0
   -1.3080   24.1770  -27.1030 C   0  0  0  0  0  0  0  0  0  0  0  0
   -2.1070   23.1830  -27.5770 N   0  0  0  0  0  0  0  0  0  0  0  0
   -2.2860   21.9080  -27.1800 C   0  0  0  0  0  0  0  0  0  0  0  0
   -1.8362   21.4626  -26.2804 H   0  0  0  0  0  0  0  0  0  0  0  0
   -3.0950   21.2530  -28.0410 N   0  0  0  0  0  0  0  0  0  0  0  0
   -3.4420   22.1220  -28.9830 N   0  0  0  0  0  0  0  0  0  0  0  0
   -4.0050   21.8570  -29.8160 H   0  0  0  0  0  0  0  0  0  0  0  0
   -2.8550   23.3020  -28.6870 C   0  0  0  0  0  0  0  0  0  0  0  0
  1  2  1  0
  2  3  2  0
  3  4  1  0
  3  5  1  0
  5  6  1  0
  6  7  1  0
  6  8  1  0
  6  9  1  0
  5 10  2  0
 10 11  1  0
 10 12  1  0
 12 13  1  0
 13 14  1  0
 13 15  1  0
 13 16  1  0
 12 17  2  0
 17 18  1  0
 18 19  2  0
 19 20  1  0
 20 21  1  0
 21 22  2  0
 22 23  1  0
 22 24  1  0
 24 25  1  0
 24 26  2  0
 26 27  1  0
 26 28  1  0
 28 29  1  0
 28 30  2  0
 30 31  1  0
 31 32  1  0
 32 33  1  0
 32 34  2  0
 34 35  1  0
 35 36  1  0
 35 37  2  0
 17  2  1  0
 37 19  1  0
 30 21  1  0
 37 31  1  0
M  CHG  2  20  -1  35   1
M  END
>  <UniqueID>  (9) 
9

>  <SMILES>  (9) 
Cc1ccc(/N=c2/[n-]c3ccccc3n3cn[nH+]c23)c(C)c1

>  <Energy>  (9) 
101.30956382387815

>  <Genealogy>  (9) 
Cc1ccc(N=c2[n-]c3ccccc3n3cn[nH+]c23)c(C)c1 (protonated)
Cc1ccc(/N=c2/[n-]c3ccccc3n3cn[nH+]c23)c(C)c1 (cis-trans isomerization)
Cc1ccc(/N=c2/[n-]c3ccccc3n3cn[nH+]c23)c(C)c1 (3D coordinates assigned)
Cc1ccc(/N=c2/[n-]c3ccccc3n3cn[nH+]c23)c(C)c1 (optimized conformer: 101.30956382387815 kcal/mol)

>  <smiles>  (9) 
Cc1ccc(N=c2[nH]c3ccccc3n3cnnc23)c(C)c1

>  <score_type>  (9) 
oracle

>  <origin>  (9) 
adg

>  <m_score__min__energy>  (9) 
-8.75

>  <m_primary>  (9) 
energy

$$$$
9:0
     RDKit          3D

 57 60  0  0  1  0  0  0  0  0999 V2000
   -5.7530   25.3310  -29.9320 C   0  0  0  0  0  0  0  0  0  0  0  0
   -4.9950   24.7690  -28.8390 N   0  0  0  0  0  0  0  0  0  0  0  0
   -3.7360   23.7980  -29.4620 S   0  0  0  0  0  0  0  0  0  0  0  0
   -4.0960   22.3460  -29.3010 O   0  0  0  0  0  0  0  0  0  0  0  0
   -3.5180   24.1030  -30.9350 O   0  0  0  0  0  0  0  0  0  0  0  0
   -2.1970   24.0670  -28.6890 C   0  0  0  0  0  0  0  0  0  0  0  0
   -1.7840   25.3270  -28.2660 C   0  0  0  0  0  0  0  0  0  0  0  0
   -0.5640   25.5440  -27.6630 C   0  0  0  0  0  0  0  0  0  0  0  0
    0.3150   24.5040  -27.4480 C   0  0  0  0  0  0  0  0  0  0  0  0
   -0.0690   23.2560  -27.8540 C   0  0  0  0  0  0  0  0  0  0  0  0
   -1.3050   23.0100  -28.4710 C   0  0  0  0  0  0  0  0  0  0  0  0
   -2.6360   21.1850  -33.2730 N   0  0  0  0  0  0  0  0  0  0  0  0
   -1.8530   20.9430  -32.2810 C   0  0  0  0  0  0  0  0  0  0  0  0
   -2.1100   21.4430  -31.0420 N   0  0  0  0  0  0  0  0  0  0  0  0
   -1.2860   21.1890  -29.9980 C   0  0  0  0  0  0  0  0  0  0  0  0
   -1.5820   21.6850  -28.8760 N   0  0  0  0  0  0  0  0  0  0  0  0
   -4.0360   20.9970  -33.0950 C   0  0  0  0  0  0  0  0  0  0  0  0
   -4.5860   19.7940  -33.5290 C   0  0  0  0  0  0  0  0  0  0  0  0
   -5.9300   19.5270  -33.3970 C   0  0  0  0  0  0  0  0  0  0  0  0
   -6.7450   20.4800  -32.8200 C   0  0  0  0  0  0  0  0  0  0  0  0
   -6.1880   21.6580  -32.3980 C   0  0  0  0  0  0  0  0  0  0  0  0
   -4.8440   21.9600  -32.5140 C   0  0  0  0  0  0  0  0  0  0  0  0
   -6.9390   22.7870  -31.7540 C   0  0  0  0  0  0  0  0  0  0  0  0
   -7.6510   22.1600  -30.5610 C   0  0  0  0  0  0  0  0  0  0  0  0
   -8.8540   21.5550  -31.0370 N   0  0  0  0  0  0  0  0  0  0  0  0
   -9.5050   22.2810  -32.1050 C   0  0  0  0  0  0  0  0  0  0  0  0
   -8.7120   20.1460  -31.3300 C   0  0  0  0  0  0  0  0  0  0  0  0
   -8.1800   20.0400  -32.7470 C   0  0  0  0  0  0  0  0  0  0  0  0
   -0.7610   20.1840  -32.4630 N   0  0  0  0  0  0  0  0  0  0  0  0
    0.0760   19.9180  -31.4280 C   0  0  0  0  0  0  0  0  0  0  0  0
   -0.1650   20.4140  -30.1660 C   0  0  0  0  0  0  0  0  0  0  0  0
    0.9070   20.0450  -28.8660 Cl  0  0  0  0  0  0  0  0  0  0  0  0
   -6.5761   25.9412  -29.5318 H   0  0  0  0  0  0  0  0  0  0  0  0
   -5.0953   25.9614  -30.5484 H   0  0  0  0  0  0  0  0  0  0  0  0
   -6.1651   24.5185  -30.5484 H   0  0  0  0  0  0  0  0  0  0  0  0
   -4.6450   25.5200  -28.2400 H   0  0  0  0  0  0  0  0  0  0  0  0
   -2.4577   26.1830  -28.4190 H   0  0  0  0  0  0  0  0  0  0  0  0
   -0.2877   26.5613  -27.3488 H   0  0  0  0  0  0  0  0  0  0  0  0
    1.2900   24.6720  -26.9672 H   0  0  0  0  0  0  0  0  0  0  0  0
    0.6176   22.4123  -27.6906 H   0  0  0  0  0  0  0  0  0  0  0  0
   -2.9540   22.0190  -30.9420 H   0  0  0  0  0  0  0  0  0  0  0  0
   -3.9311   19.0389  -33.9883 H   0  0  0  0  0  0  0  0  0  0  0  0
   -6.3473   18.5707  -33.7453 H   0  0  0  0  0  0  0  0  0  0  0  0
   -4.4360   22.9189  -32.1618 H   0  0  0  0  0  0  0  0  0  0  0  0
   -6.2446   23.5722  -31.4204 H   0  0  0  0  0  0  0  0  0  0  0  0
   -7.6439   23.2640  -32.4509 H   0  0  0  0  0  0  0  0  0  0  0  0
   -7.0064   21.3976  -30.0993 H   0  0  0  0  0  0  0  0  0  0  0  0
   -7.8799   22.9257  -29.8052 H   0  0  0  0  0  0  0  0  0  0  0  0
  -10.1814   23.0353  -31.6765 H   0  0  0  0  0  0  0  0  0  0  0  0
   -8.7457   22.7796  -32.7254 H   0  0  0  0  0  0  0  0  0  0  0  0
  -10.0831   21.5804  -32.7254 H   0  0  0  0  0  0  0  0  0  0  0  0
   -8.0056   19.6828  -30.6254 H   0  0  0  0  0  0  0  0  0  0  0  0
   -9.6759   19.6252  -31.2322 H   0  0  0  0  0  0  0  0  0  0  0  0
   -8.2527   18.9944  -33.0808 H   0  0  0  0  0  0  0  0  0  0  0  0
   -8.7800   20.6953  -33.3956 H   0  0  0  0  0  0  0  0  0  0  0  0
   -0.5880   19.8130  -33.4240 H   0  0  0  0  0  0  0  0  0  0  0  0
    0.9649   19.2935  -31.6008 H   0  0  0  0  0  0  0  0  0  0  0  0
  1  2  1  0
  2  3  1  0
  3  4  2  0
  3  5  2  0
  3  6  1  0
  6  7  2  0
  7  8  1  0
  8  9  2  0
  9 10  1  0
 10 11  2  0
 11 12  1  0
 12 13  2  0
 13 14  1  0
 14 15  1  0
 15 16  2  0
 16 17  1  0
 17 18  2  0
 18 19  1  0
 19 20  2  0
 20 21  1  0
 21 22  2  0
 21 23  1  0
 23 24  1  0
 24 25  1  0
 25 26  1  0
 25 27  1  0
 27 28  1  0
 15 29  1  0
 29 30  1  0
 30 31  2  0
 31 32  1  0
 11  6  1  0
 31 13  1  0
 22 17  1  0
 28 20  1  0
  1 33  1  0
  1 34  1  0
  1 35  1  0
  2 36  1  0
  7 37  1  0
  8 38  1  0
  9 39  1  0
 10 40  1  0
 14 41  1  0
 18 42  1  0
 19 43  1  0
 22 44  1  0
 23 45  1  0
 23 46  1  0
 24 47  1  0
 24 48  1  0
 26 49  1  0
 26 50  1  0
 26 51  1  0
 27 52  1  0
 27 53  1  0
 28 54  1  0
 28 55  1  0
 29 56  1  0
 30 57  1  0
M  END
>  <smiles>  (10) 
CNS(=O)(=O)c1ccccc1N=c1[nH]c(=Nc2ccc3c(c2)CCN(C)CC3)[nH]cc1Cl

>  <score_type>  (10) 
oracle

>  <origin>  (10) 
adg

>  <m_score__min__energy>  (10) 
-8.3800000000000008

>  <m_primary>  (10) 
energy

$$$$
10:0
     RDKit          3D

 43 46  0  0  0  0  0  0  0  0999 V2000
   -3.2910   15.2510  -33.8540 C   0  0  0  0  0  0  0  0  0  0  0  0
   -3.5020   16.3580  -34.6790 C   0  0  0  0  0  0  0  0  0  0  0  0
   -4.5100   17.2770  -34.3760 C   0  0  0  0  0  0  0  0  0  0  0  0
   -5.3210   17.0990  -33.2380 C   0  0  0  0  0  0  0  0  0  0  0  0
   -6.3920   18.0750  -32.9130 C   0  0  0  0  0  0  0  0  0  0  0  0
   -6.4970   19.2830  -33.6240 C   0  0  0  0  0  0  0  0  0  0  0  0
   -7.5100   20.1980  -33.3230 C   0  0  0  0  0  0  0  0  0  0  0  0
   -8.4330   19.9230  -32.3040 C   0  0  0  0  0  0  0  0  0  0  0  0
   -9.5540   20.8820  -32.0080 C   0  0  0  0  0  0  0  0  0  0  0  0
   -9.1650   21.8450  -30.9660 N   0  0  0  0  0  0  0  0  0  0  0  0
   -7.7460   22.2600  -31.0720 C   0  0  1  0  0  0  0  0  0  0  0  0
   -7.6170   23.3910  -32.1190 C   0  0  0  0  0  0  0  0  0  0  0  0
   -6.1490   23.7990  -32.3340 C   0  0  0  0  0  0  0  0  0  0  0  0
   -5.4530   23.9540  -31.0190 C   0  0  0  0  0  0  0  0  0  0  0  0
   -4.2640   24.5590  -30.8390 N   0  0  0  0  0  0  0  0  0  0  0  0
   -4.0540   24.3720  -29.5150 C   0  0  0  0  0  0  0  0  0  0  0  0
   -5.0520   23.6850  -28.9190 N   0  0  0  0  0  0  0  0  0  0  0  0
   -5.9100   23.4120  -29.8830 N   0  0  0  0  0  0  0  0  0  0  0  0
   -7.2030   22.7550  -29.7080 C   0  0  0  0  0  0  0  0  0  0  0  0
   -8.3340   18.7190  -31.5930 C   0  0  0  0  0  0  0  0  0  0  0  0
   -7.3220   17.8030  -31.8940 C   0  0  0  0  0  0  0  0  0  0  0  0
   -5.0970   15.9800  -32.4140 C   0  0  0  0  0  0  0  0  0  0  0  0
   -4.0880   15.0630  -32.7220 C   0  0  0  0  0  0  0  0  0  0  0  0
   -2.4980   14.5278  -34.0953 H   0  0  0  0  0  0  0  0  0  0  0  0
   -2.8733   16.5067  -35.5693 H   0  0  0  0  0  0  0  0  0  0  0  0
   -4.6715   18.1459  -35.0309 H   0  0  0  0  0  0  0  0  0  0  0  0
   -5.7764   19.5101  -34.4235 H   0  0  0  0  0  0  0  0  0  0  0  0
   -7.5834   21.1386  -33.8885 H   0  0  0  0  0  0  0  0  0  0  0  0
   -9.8099   21.4303  -32.9266 H   0  0  0  0  0  0  0  0  0  0  0  0
  -10.4198   20.3073  -31.6473 H   0  0  0  0  0  0  0  0  0  0  0  0
   -9.3370   21.3750  -30.0460 H   0  0  0  0  0  0  0  0  0  0  0  0
   -7.1533   21.3872  -31.3833 H   0  0  0  0  0  0  0  0  0  0  0  0
   -8.0341   23.0417  -33.0750 H   0  0  0  0  0  0  0  0  0  0  0  0
   -8.1671   24.2682  -31.7475 H   0  0  0  0  0  0  0  0  0  0  0  0
   -5.6398   23.0229  -32.9243 H   0  0  0  0  0  0  0  0  0  0  0  0
   -6.1203   24.7600  -32.8684 H   0  0  0  0  0  0  0  0  0  0  0  0
   -3.1653   24.7403  -28.9816 H   0  0  0  0  0  0  0  0  0  0  0  0
   -7.0844   21.8957  -29.0316 H   0  0  0  0  0  0  0  0  0  0  0  0
   -7.9151   23.4765  -29.2809 H   0  0  0  0  0  0  0  0  0  0  0  0
   -9.0562   18.4940  -30.7944 H   0  0  0  0  0  0  0  0  0  0  0  0
   -7.2526   16.8617  -31.3291 H   0  0  0  0  0  0  0  0  0  0  0  0
   -5.7206   15.8260  -31.5210 H   0  0  0  0  0  0  0  0  0  0  0  0
   -3.9211   14.1916  -32.0718 H   0  0  0  0  0  0  0  0  0  0  0  0
  1  2  2  0
  2  3  1  0
  3  4  2  0
  4  5  1  0
  5  6  2  0
  6  7  1  0
  7  8  2  0
  8  9  1  0
  9 10  1  0
 10 11  1  0
 11 12  1  0
 12 13  1  0
 13 14  1  0
 14 15  2  0
 15 16  1  0
 16 17  2  0
 17 18  1  0
 18 19  1  0
  8 20  1  0
 20 21  2  0
  4 22  1  0
 22 23  2  0
 23  1  1  0
 21  5  1  0
 19 11  1  0
 18 14  1  0
  1 24  1  0
  2 25  1  0
  3 26  1  0
  6 27  1  0
  7 28  1  0
  9 29  1  0
  9 30  1  0
 10 31  1  0
 11 32  1  6
 12 33  1  0
 12 34  1  0
 13 35  1  0
 13 36  1  0
 16 37  1  0
 19 38  1  0
 19 39  1  0
 20 40  1  0
 21 41  1  0
 22 42  1  0
 23 43  1  0
M  END
>  <UniqueID>  (11) 
10

>  <SMILES>  (11) 
c1ccc(-c2ccc(CN[C@H]3CCc4ncnn4C3)cc2)cc1

>  <Energy>  (11) 
85.17360146651326

>  <Genealogy>  (11) 
c1ccc(-c2ccc(CN[C@H]3CCc4ncnn4C3)cc2)cc1 (chirality)
c1ccc(-c2ccc(CN[C@H]3CCc4ncnn4C3)cc2)cc1 (3D coordinates assigned)
c1ccc(-c2ccc(CN[C@H]3CCc4ncnn4C3)cc2)cc1 (nonaromatic ring conformer: 85.17360146651326 kcal/mol)

>  <smiles>  (11) 
c1ccc(-c2ccc(CNC3CCc4ncnn4C3)cc2)cc1

>  <score_type>  (11) 
oracle

>  <origin>  (11) 
adg

>  <m_score__min__energy>  (11) 
-8.7400000000000002

>  <m_primary>  (11) 
energy

$$$$
11:0
     RDKit          3D

 53 56  0  0  0  0  0  0  0  0999 V2000
   -0.1340   22.6620  -24.4870 C   0  0  0  0  0  0  0  0  0  0  0  0
   -0.5400   24.0760  -24.7620 C   0  0  0  0  0  0  0  0  0  0  0  0
   -0.2570   25.1040  -23.9410 N   0  0  0  0  0  0  0  0  0  0  0  0
   -0.7190   26.2170  -24.4840 N   0  0  0  0  0  0  0  0  0  0  0  0
   -0.5240   27.5500  -23.9250 C   0  0  0  0  0  0  0  0  0  0  0  0
   -1.2940   25.9340  -25.6680 C   0  0  0  0  0  0  0  0  0  0  0  0
   -1.2210   24.5660  -25.8750 C   0  0  0  0  0  0  0  0  0  0  0  0
   -1.7280   23.8310  -27.0560 C   0  0  0  0  0  0  0  0  0  0  0  0
   -1.7870   22.4270  -27.0660 C   0  0  0  0  0  0  0  0  0  0  0  0
   -2.2790   21.7480  -28.1840 C   0  0  0  0  0  0  0  0  0  0  0  0
   -2.7450   22.4610  -29.2960 C   0  0  0  0  0  0  0  0  0  0  0  0
   -3.2610   21.7440  -30.4690 C   0  0  0  0  0  0  0  0  0  0  0  0
   -2.5340   20.8360  -31.1610 N   0  0  0  0  0  0  0  0  0  0  0  0
   -3.4030   20.3790  -32.0860 C   0  0  0  0  0  0  0  0  0  0  0  0
   -3.1360   19.3760  -33.0160 C   0  0  0  0  0  0  0  0  0  0  0  0
   -4.1880   18.9560  -33.8450 C   0  0  0  0  0  0  0  0  0  0  0  0
   -5.4670   19.5270  -33.7110 C   0  0  0  0  0  0  0  0  0  0  0  0
   -5.6800   20.5290  -32.7530 C   0  0  0  0  0  0  0  0  0  0  0  0
   -4.6260   20.9360  -31.9980 N   0  0  0  0  0  0  0  0  0  0  0  0
   -4.5450   21.8310  -30.9950 C   0  0  0  0  0  0  0  0  0  0  0  0
   -5.6730   22.4430  -30.3440 N   0  0  0  0  0  0  0  0  0  0  0  0
   -6.6390   23.3640  -30.9790 C   0  0  0  0  0  0  0  0  0  0  0  0
   -8.0230   22.7090  -31.1780 C   0  0  0  0  0  0  0  0  0  0  0  0
   -6.7830   24.6220  -30.1040 C   0  0  0  0  0  0  0  0  0  0  0  0
   -6.0890   23.7950  -32.3520 C   0  0  0  0  0  0  0  0  0  0  0  0
   -2.6780   23.8590  -29.2950 C   0  0  0  0  0  0  0  0  0  0  0  0
   -2.1860   24.5410  -28.1790 C   0  0  0  0  0  0  0  0  0  0  0  0
   -0.0871   22.4987  -23.4002 H   0  0  0  0  0  0  0  0  0  0  0  0
   -0.8715   21.9761  -24.9293 H   0  0  0  0  0  0  0  0  0  0  0  0
    0.8550   22.4719  -24.9293 H   0  0  0  0  0  0  0  0  0  0  0  0
    0.2630   25.0520  -23.0350 H   0  0  0  0  0  0  0  0  0  0  0  0
   -0.5325   27.4918  -22.8266 H   0  0  0  0  0  0  0  0  0  0  0  0
    0.4425   27.9517  -24.2634 H   0  0  0  0  0  0  0  0  0  0  0  0
   -1.3349   28.2117  -24.2634 H   0  0  0  0  0  0  0  0  0  0  0  0
   -1.7454   26.6651  -26.3548 H   0  0  0  0  0  0  0  0  0  0  0  0
   -1.4439   21.8591  -26.1886 H   0  0  0  0  0  0  0  0  0  0  0  0
   -2.3004   20.6482  -28.1908 H   0  0  0  0  0  0  0  0  0  0  0  0
   -2.1345   18.9285  -33.0977 H   0  0  0  0  0  0  0  0  0  0  0  0
   -4.0119   18.1777  -34.6021 H   0  0  0  0  0  0  0  0  0  0  0  0
   -6.2941   19.1899  -34.3531 H   0  0  0  0  0  0  0  0  0  0  0  0
   -6.6763   20.9747  -32.6161 H   0  0  0  0  0  0  0  0  0  0  0  0
   -5.7180   22.3380  -29.3050 H   0  0  0  0  0  0  0  0  0  0  0  0
   -8.4725   22.4963  -30.1968 H   0  0  0  0  0  0  0  0  0  0  0  0
   -8.6755   23.3939  -31.7395 H   0  0  0  0  0  0  0  0  0  0  0  0
   -7.9070   21.7702  -31.7395 H   0  0  0  0  0  0  0  0  0  0  0  0
   -6.7503   24.3359  -29.0424 H   0  0  0  0  0  0  0  0  0  0  0  0
   -5.9585   25.3167  -30.3221 H   0  0  0  0  0  0  0  0  0  0  0  0
   -7.7431   25.1124  -30.3221 H   0  0  0  0  0  0  0  0  0  0  0  0
   -5.2306   24.4677  -32.2084 H   0  0  0  0  0  0  0  0  0  0  0  0
   -5.7679   22.9056  -32.9140 H   0  0  0  0  0  0  0  0  0  0  0  0
   -6.8758   24.3195  -32.9140 H   0  0  0  0  0  0  0  0  0  0  0  0
   -3.0143   24.4237  -30.1771 H   0  0  0  0  0  0  0  0  0  0  0  0
   -2.1570   25.6406  -28.1795 H   0  0  0  0  0  0  0  0  0  0  0  0
  1  2  1  0
  2  3  2  0
  3  4  1  0
  4  5  1  0
  4  6  1  0
  6  7  2  0
  7  8  1  0
  8  9  2  0
  9 10  1  0
 10 11  2  0
 11 12  1  0
 12 13  1  0
 13 14  2  0
 14 15  1  0
 15 16  2  0
 16 17  1  0
 17 18  2  0
 18 19  1  0
 19 20  1  0
 20 21  1  0
 21 22  1  0
 22 23  1  0
 22 24  1  0
 22 25  1  0
 11 26  1  0
 26 27  2  0
  7  2  1  0
 27  8  1  0
 20 12  2  0
 19 14  1  0
  1 28  1  0
  1 29  1  0
  1 30  1  0
  3 31  1  0
  5 32  1  0
  5 33  1  0
  5 34  1  0
  6 35  1  0
  9 36  1  0
 10 37  1  0
 15 38  1  0
 16 39  1  0
 17 40  1  0
 18 41  1  0
 21 42  1  0
 23 43  1  0
 23 44  1  0
 23 45  1  0
 24 46  1  0
 24 47  1  0
 24 48  1  0
 25 49  1  0
 25 50  1  0
 25 51  1  0
 26 52  1  0
 27 53  1  0
M  CHG  1   3   1
M  END
>  <UniqueID>  (12) 
11

>  <SMILES>  (12) 
Cc1[nH+]n(C)cc1-c1ccc(-c2nc3ccccn3c2NC(C)(C)C)cc1

>  <Energy>  (12) 
134.18726155280382

>  <Genealogy>  (12) 
Cc1[nH+]n(C)cc1-c1ccc(-c2nc3ccccn3c2NC(C)(C)C)cc1 (protonated)
Cc1[nH+]n(C)cc1-c1ccc(-c2nc3ccccn3c2NC(C)(C)C)cc1 (3D coordinates assigned)
Cc1[nH+]n(C)cc1-c1ccc(-c2nc3ccccn3c2NC(C)(C)C)cc1 (optimized conformer: 134.18726155280382 kcal/mol)

>  <smiles>  (12) 
Cc1nn(C)cc1-c1ccc(-c2nc3ccccn3c2NC(C)(C)C)cc1

>  <score_type>  (12) 
oracle

>  <origin>  (12) 
adg

>  <m_score__min__energy>  (12) 
-8.5800000000000001

>  <m_primary>  (12) 
energy

$$$$
12:0
     RDKit          3D

 26 27  0  0  0  0  0  0  0  0999 V2000
   -3.0630   19.6480  -33.7620 C   0  0  0  0  0  0  0  0  0  0  0  0
   -2.8570   20.7980  -32.8740 N   0  0  0  0  0  0  0  0  0  0  0  0
   -1.4840   21.2200  -32.5660 C   0  0  0  0  0  0  0  0  0  0  0  0
   -3.9910   21.5050  -32.3090 C   0  0  0  0  0  0  0  0  0  0  0  0
   -5.2820   20.9490  -32.3620 C   0  0  0  0  0  0  0  0  0  0  0  0
   -6.3840   21.6190  -31.8210 C   0  0  0  0  0  0  0  0  0  0  0  0
   -8.0940   20.7500  -31.9530 Br  0  0  0  0  0  0  0  0  0  0  0  0
   -6.2140   22.8770  -31.2060 C   0  0  0  0  0  0  0  0  0  0  0  0
   -7.3010   23.5790  -30.6510 C   0  0  0  0  0  0  0  0  0  0  0  0
   -7.1080   24.8240  -30.0500 C   0  0  0  0  0  0  0  0  0  0  0  0
   -5.8340   25.3870  -29.9910 C   0  0  0  0  0  0  0  0  0  0  0  0
   -4.7390   24.7110  -30.5340 C   0  0  0  0  0  0  0  0  0  0  0  0
   -3.4800   25.2990  -30.4590 O   0  0  0  0  0  0  0  0  0  0  0  0
   -4.9170   23.4520  -31.1450 C   0  0  0  0  0  0  0  0  0  0  0  0
   -3.8230   22.7610  -31.6960 C   0  0  0  0  0  0  0  0  0  0  0  0
   -3.2251   18.7429  -33.1582 H   0  0  0  0  0  0  0  0  0  0  0  0
   -3.9432   19.8279  -34.3967 H   0  0  0  0  0  0  0  0  0  0  0  0
   -2.1751   19.5112  -34.3967 H   0  0  0  0  0  0  0  0  0  0  0  0
   -1.3491   21.2614  -31.4751 H   0  0  0  0  0  0  0  0  0  0  0  0
   -0.7735   20.4988  -32.9961 H   0  0  0  0  0  0  0  0  0  0  0  0
   -1.3012   22.2158  -32.9961 H   0  0  0  0  0  0  0  0  0  0  0  0
   -5.4277   19.9682  -32.8382 H   0  0  0  0  0  0  0  0  0  0  0  0
   -8.3101   23.1430  -30.6913 H   0  0  0  0  0  0  0  0  0  0  0  0
   -7.9652   25.3635  -29.6209 H   0  0  0  0  0  0  0  0  0  0  0  0
   -5.6905   26.3681  -29.5146 H   0  0  0  0  0  0  0  0  0  0  0  0
   -2.8197   23.2093  -31.6471 H   0  0  0  0  0  0  0  0  0  0  0  0
  1  2  1  0
  2  3  1  0
  2  4  1  0
  4  5  2  0
  5  6  1  0
  6  7  1  0
  6  8  2  0
  8  9  1  0
  9 10  2  0
 10 11  1  0
 11 12  2  0
 12 13  1  0
 12 14  1  0
 14 15  2  0
 15  4  1  0
 14  8  1  0
  1 16  1  0
  1 17  1  0
  1 18  1  0
  3 19  1  0
  3 20  1  0
  3 21  1  0
  5 22  1  0
  9 23  1  0
 10 24  1  0
 11 25  1  0
 15 26  1  0
M  CHG  1  13  -1
M  END
>  <UniqueID>  (13) 
12

>  <SMILES>  (13) 
CN(C)c1cc(Br)c2cccc([O-])c2c1

>  <Energy>  (13) 
33.98110758910163

>  <Genealogy>  (13) 
CN(C)c1cc(Br)c2cccc([O-])c2c1 (protonated)
CN(C)c1cc(Br)c2cccc([O-])c2c1 (3D coordinates assigned)
CN(C)c1cc(Br)c2cccc([O-])c2c1 (optimized conformer: 33.98110758910163 kcal/mol)

>  <smiles>  (13) 
CN(C)c1cc(Br)c2cccc(O)c2c1

>  <score_type>  (13) 
oracle

>  <origin>  (13) 
adg

>  <m_score__min__energy>  (13) 
-9.8499999999999996

>  <m_primary>  (13) 
energy

$$$$
13:0
     RDKit          3D

 19 20  0  0  0  0  0  0  0  0999 V2000
   -3.8880   25.7140  -29.5110 H   0  0  0  0  0  0  0  0  0  0  0  0
   -3.8700   25.2970  -30.4690 N   0  0  0  0  0  0  0  0  0  0  0  0
   -4.7310   24.4010  -30.8240 C   0  0  0  0  0  0  0  0  0  0  0  0
   -4.4100   23.3320  -31.5930 N   0  0  0  0  0  0  0  0  0  0  0  0
   -5.5060   22.5600  -31.8070 C   0  0  0  0  0  0  0  0  0  0  0  0
   -5.5070   21.3870  -32.5620 C   0  0  0  0  0  0  0  0  0  0  0  0
   -4.5824   21.0233  -33.0340 H   0  0  0  0  0  0  0  0  0  0  0  0
   -6.7120   20.6790  -32.7080 C   0  0  0  0  0  0  0  0  0  0  0  0
   -6.7281   19.7527  -33.3011 H   0  0  0  0  0  0  0  0  0  0  0  0
   -7.9010   21.1390  -32.1050 C   0  0  0  0  0  0  0  0  0  0  0  0
   -9.0720   20.3890  -32.2870 O   0  0  0  0  0  0  0  0  0  0  0  0
   -9.1170   18.9660  -32.3230 C   0  0  0  0  0  0  0  0  0  0  0  0
   -9.1294   18.5734  -31.2955 H   0  0  0  0  0  0  0  0  0  0  0  0
  -10.0259   18.6411  -32.8507 H   0  0  0  0  0  0  0  0  0  0  0  0
   -8.2305   18.5843  -32.8507 H   0  0  0  0  0  0  0  0  0  0  0  0
   -7.8820   22.3320  -31.3440 C   0  0  0  0  0  0  0  0  0  0  0  0
   -8.7973   22.7114  -30.8662 H   0  0  0  0  0  0  0  0  0  0  0  0
   -6.6740   23.0130  -31.2160 C   0  0  0  0  0  0  0  0  0  0  0  0
   -6.3630   24.4380  -30.3810 S   0  0  0  0  0  0  0  0  0  0  0  0
  1  2  1  0
  2  3  2  0
  3  4  1  0
  4  5  1  0
  5  6  2  0
  6  7  1  0
  6  8  1  0
  8  9  1  0
  8 10  2  0
 10 11  1  0
 11 12  1  0
 12 13  1  0
 12 14  1  0
 12 15  1  0
 10 16  1  0
 16 17  1  0
 16 18  2  0
 18 19  1  0
 19  3  1  0
 18  5  1  0
M  CHG  1   4  -1
M  END
>  <UniqueID>  (14) 
13

>  <SMILES>  (14) 
[H]/N=c1\[n-]c2ccc(OC)cc2s1

>  <Energy>  (14) 
53.336631627253055

>  <Genealogy>  (14) 
COc1ccc2[n-]c(=N)sc2c1 (protonated)
[H]/N=c1\[n-]c2ccc(OC)cc2s1 (cis-trans isomerization)
[H]/N=c1\[n-]c2ccc(OC)cc2s1 (3D coordinates assigned)
[H]/N=c1\[n-]c2ccc(OC)cc2s1 (optimized conformer: 53.336631627253055 kcal/mol)

>  <smiles>  (14) 
COc1ccc2[nH]c(=N)sc2c1

>  <score_type>  (14) 
oracle

>  <origin>  (14) 
adg

>  <m_score__min__energy>  (14) 
-7.2599999999999998

>  <m_primary>  (14) 
energy

$$$$
14:0
     RDKit          3D

 44 46  0  0  0  0  0  0  0  0999 V2000
   -4.8410   18.5200  -34.1850 C   0  0  0  0  0  0  0  0  0  0  0  0
   -6.3040   18.9360  -34.0280 C   0  0  0  0  0  0  0  0  0  0  0  0
   -6.6100   19.5170  -32.6290 C   0  0  2  0  0  0  0  0  0  0  0  0
   -7.9160   18.9370  -32.0170 C   0  0  0  0  0  0  0  0  0  0  0  0
   -9.1250   19.8410  -32.2870 C   0  0  0  0  0  0  0  0  0  0  0  0
   -8.8930   21.2760  -31.7630 C   0  0  0  0  0  0  0  0  0  0  0  0
   -7.4590   21.5770  -31.5600 N   0  0  0  0  0  0  0  0  0  0  0  0
   -7.2220   23.0180  -31.3180 C   0  0  0  0  0  0  0  0  0  0  0  0
   -5.9930   23.4920  -32.1070 C   0  0  0  0  0  0  0  0  0  0  0  0
   -4.8080   23.6350  -31.2300 N   0  0  0  0  0  0  0  0  0  0  0  0
   -4.6070   24.7760  -30.4770 C   0  0  0  0  0  0  0  0  0  0  0  0
   -5.6880   26.0130  -30.4500 S   0  0  0  0  0  0  0  0  0  0  0  0
   -3.4800   24.9160  -29.7360 N   0  0  0  0  0  0  0  0  0  0  0  0
   -2.5200   23.9640  -29.7070 C   0  0  0  0  0  0  0  0  0  0  0  0
   -1.3650   24.1560  -28.9380 C   0  0  0  0  0  0  0  0  0  0  0  0
   -0.3680   23.1780  -28.9180 C   0  0  0  0  0  0  0  0  0  0  0  0
   -0.5200   22.0070  -29.6650 C   0  0  0  0  0  0  0  0  0  0  0  0
   -1.6710   21.8070  -30.4320 C   0  0  0  0  0  0  0  0  0  0  0  0
   -2.6820   22.7870  -30.4570 C   0  0  0  0  0  0  0  0  0  0  0  0
   -3.8540   22.6410  -31.2190 C   0  0  0  0  0  0  0  0  0  0  0  0
   -4.0160   21.5930  -31.9060 O   0  0  0  0  0  0  0  0  0  0  0  0
   -6.6580   21.0620  -32.6880 C   0  0  0  0  0  0  0  0  0  0  0  0
   -4.3878   18.3911  -33.1910 H   0  0  0  0  0  0  0  0  0  0  0  0
   -4.7870   17.5709  -34.7385 H   0  0  0  0  0  0  0  0  0  0  0  0
   -4.2957   19.2987  -34.7385 H   0  0  0  0  0  0  0  0  0  0  0  0
   -6.5363   19.6995  -34.7850 H   0  0  0  0  0  0  0  0  0  0  0  0
   -6.9221   18.0353  -34.1571 H   0  0  0  0  0  0  0  0  0  0  0  0
   -5.7911   19.2132  -31.9603 H   0  0  0  0  0  0  0  0  0  0  0  0
   -8.1064   17.9474  -32.4580 H   0  0  0  0  0  0  0  0  0  0  0  0
   -7.7798   18.8663  -30.9277 H   0  0  0  0  0  0  0  0  0  0  0  0
   -9.3045   19.8820  -33.3715 H   0  0  0  0  0  0  0  0  0  0  0  0
   -9.9934   19.4193  -31.7598 H   0  0  0  0  0  0  0  0  0  0  0  0
   -9.3039   21.9893  -32.4927 H   0  0  0  0  0  0  0  0  0  0  0  0
   -9.3952   21.3625  -30.7882 H   0  0  0  0  0  0  0  0  0  0  0  0
   -8.1041   23.5907  -31.6405 H   0  0  0  0  0  0  0  0  0  0  0  0
   -7.0432   23.1775  -30.2444 H   0  0  0  0  0  0  0  0  0  0  0  0
   -5.7685   22.7575  -32.8945 H   0  0  0  0  0  0  0  0  0  0  0  0
   -6.2208   24.4758  -32.5431 H   0  0  0  0  0  0  0  0  0  0  0  0
   -1.2432   25.0774  -28.3496 H   0  0  0  0  0  0  0  0  0  0  0  0
    0.5382   23.3299  -28.3133 H   0  0  0  0  0  0  0  0  0  0  0  0
    0.2686   21.2403  -29.6493 H   0  0  0  0  0  0  0  0  0  0  0  0
   -1.7874   20.8828  -31.0170 H   0  0  0  0  0  0  0  0  0  0  0  0
   -7.1165   21.3779  -33.6367 H   0  0  0  0  0  0  0  0  0  0  0  0
   -5.6353   21.4616  -32.6217 H   0  0  0  0  0  0  0  0  0  0  0  0
  1  2  1  0
  2  3  1  0
  3  4  1  0
  4  5  1  0
  5  6  1  0
  6  7  1  0
  7  8  1  0
  8  9  1  0
  9 10  1  0
 10 11  1  0
 11 12  2  0
 11 13  1  0
 13 14  1  0
 14 15  2  0
 15 16  1  0
 16 17  2  0
 17 18  1  0
 18 19  2  0
 19 20  1  0
 20 21  2  0
  7 22  1  0
 22  3  1  0
 20 10  1  0
 19 14  1  0
  1 23  1  0
  1 24  1  0
  1 25  1  0
  2 26  1  0
  2 27  1  0
  3 28  1  1
  4 29  1  0
  4 30  1  0
  5 31  1  0
  5 32  1  0
  6 33  1  0
  6 34  1  0
  8 35  1  0
  8 36  1  0
  9 37  1  0
  9 38  1  0
 15 39  1  0
 16 40  1  0
 17 41  1  0
 18 42  1  0
 22 43  1  0
 22 44  1  0
M  CHG  1  13  -1
M  END
>  <UniqueID>  (15) 
14

>  <SMILES>  (15) 
CC[C@@H]1CCCN(CCn2c(=S)[n-]c3ccccc3c2=O)C1

>  <Energy>  (15) 
56.04562143551048

>  <Genealogy>  (15) 
CCC1CCCN(CCn2c(=S)[n-]c3ccccc3c2=O)C1 (protonated)
CC[C@@H]1CCCN(CCn2c(=S)[n-]c3ccccc3c2=O)C1 (chirality)
CC[C@@H]1CCCN(CCn2c(=S)[n-]c3ccccc3c2=O)C1 (3D coordinates assigned)
CC[C@@H]1CCCN(CCn2c(=S)[n-]c3ccccc3c2=O)C1 (nonaromatic ring conformer: 56.04562143551048 kcal/mol)

>  <smiles>  (15) 
CCC1CCCN(CCn2c(=S)[nH]c3ccccc3c2=O)C1

>  <score_type>  (15) 
oracle

>  <origin>  (15) 
adg

>  <m_score__min__energy>  (15) 
-9.4399999999999995

>  <m_primary>  (15) 
energy

$$$$
15:0
     RDKit          3D

 47 49  0  0  0  0  0  0  0  0999 V2000
   -3.2090   24.9610  -26.4660 C   0  0  0  0  0  0  0  0  0  0  0  0
   -1.9330   24.2450  -26.6290 N   0  0  0  0  0  0  0  0  0  0  0  0
   -2.1510   22.8670  -27.0960 C   0  0  0  0  0  0  0  0  0  0  0  0
   -0.9580   24.9890  -27.4570 C   0  0  0  0  0  0  0  0  0  0  0  0
   -1.1840   24.8610  -28.9770 C   0  0  0  0  0  0  0  0  0  0  0  0
   -2.4980   25.3000  -29.3210 O   0  0  0  0  0  0  0  0  0  0  0  0
   -3.5140   24.4900  -29.8570 C   0  0  0  0  0  0  0  0  0  0  0  0
   -4.8150   24.9650  -30.1110 C   0  0  0  0  0  0  0  0  0  0  0  0
   -5.7850   24.1130  -30.6450 C   0  0  0  0  0  0  0  0  0  0  0  0
   -5.4790   22.7720  -30.9340 C   0  0  0  0  0  0  0  0  0  0  0  0
   -6.5070   21.8620  -31.5000 C   0  0  0  0  0  0  0  0  0  0  0  0
   -7.8690   22.1940  -31.4240 C   0  0  0  0  0  0  0  0  0  0  0  0
   -8.8190   21.3340  -31.9650 C   0  0  0  0  0  0  0  0  0  0  0  0
   -8.4170   20.1500  -32.5800 C   0  0  0  0  0  0  0  0  0  0  0  0
   -7.0510   19.8330  -32.6470 C   0  0  0  0  0  0  0  0  0  0  0  0
   -6.6030   18.5780  -33.3040 C   0  0  0  0  0  0  0  0  0  0  0  0
   -5.5690   18.6060  -34.2580 C   0  0  0  0  0  0  0  0  0  0  0  0
   -5.1450   17.4260  -34.8770 C   0  0  0  0  0  0  0  0  0  0  0  0
   -5.7450   16.2080  -34.5490 C   0  0  0  0  0  0  0  0  0  0  0  0
   -6.7720   16.1680  -33.6030 C   0  0  0  0  0  0  0  0  0  0  0  0
   -7.2000   17.3450  -32.9820 C   0  0  0  0  0  0  0  0  0  0  0  0
   -6.1350   20.6940  -32.1070 N   0  0  0  0  0  0  0  0  0  0  0  0
   -4.1810   22.3010  -30.6750 C   0  0  0  0  0  0  0  0  0  0  0  0
   -3.2110   23.1540  -30.1410 C   0  0  0  0  0  0  0  0  0  0  0  0
   -3.4267   25.0831  -25.3947 H   0  0  0  0  0  0  0  0  0  0  0  0
   -3.1374   25.9507  -26.9408 H   0  0  0  0  0  0  0  0  0  0  0  0
   -4.0164   24.3842  -26.9408 H   0  0  0  0  0  0  0  0  0  0  0  0
   -2.2568   22.1984  -26.2289 H   0  0  0  0  0  0  0  0  0  0  0  0
   -3.0667   22.8265  -27.7041 H   0  0  0  0  0  0  0  0  0  0  0  0
   -1.2925   22.5458  -27.7041 H   0  0  0  0  0  0  0  0  0  0  0  0
   -1.0204   26.0539  -27.1884 H   0  0  0  0  0  0  0  0  0  0  0  0
    0.0294   24.5512  -27.2486 H   0  0  0  0  0  0  0  0  0  0  0  0
   -0.4445   25.4791  -29.5072 H   0  0  0  0  0  0  0  0  0  0  0  0
   -1.0714   23.8062  -29.2680 H   0  0  0  0  0  0  0  0  0  0  0  0
   -5.0688   26.0118  -29.8879 H   0  0  0  0  0  0  0  0  0  0  0  0
   -6.7976   24.4953  -30.8411 H   0  0  0  0  0  0  0  0  0  0  0  0
   -8.1834   23.1299  -30.9389 H   0  0  0  0  0  0  0  0  0  0  0  0
   -9.8876   21.5886  -31.9073 H   0  0  0  0  0  0  0  0  0  0  0  0
   -9.1652   19.4680  -33.0103 H   0  0  0  0  0  0  0  0  0  0  0  0
   -5.0913   19.5620  -34.5184 H   0  0  0  0  0  0  0  0  0  0  0  0
   -4.3376   17.4570  -35.6235 H   0  0  0  0  0  0  0  0  0  0  0  0
   -5.4088   15.2805  -35.0356 H   0  0  0  0  0  0  0  0  0  0  0  0
   -7.2448   15.2086  -33.3462 H   0  0  0  0  0  0  0  0  0  0  0  0
   -8.0084   17.3071  -32.2370 H   0  0  0  0  0  0  0  0  0  0  0  0
   -5.1240   20.4310  -32.1220 H   0  0  0  0  0  0  0  0  0  0  0  0
   -3.9263   21.2535  -30.8940 H   0  0  0  0  0  0  0  0  0  0  0  0
   -2.1992   22.7710  -29.9420 H   0  0  0  0  0  0  0  0  0  0  0  0
  1  2  1  0
  2  3  1  0
  2  4  1  0
  4  5  1  0
  5  6  1  0
  6  7  1  0
  7  8  2  0
  8  9  1  0
  9 10  2  0
 10 11  1  0
 11 12  2  0
 12 13  1  0
 13 14  2  0
 14 15  1  0
 15 16  1  0
 16 17  2  0
 17 18  1  0
 18 19  2  0
 19 20  1  0
 20 21  2  0
 15 22  2  0
 10 23  1  0
 23 24  2  0
 24  7  1  0
 22 11  1  0
 21 16  1  0
  1 25  1  0
  1 26  1  0
  1 27  1  0
  3 28  1  0
  3 29  1  0
  3 30  1  0
  4 31  1  0
  4 32  1  0
  5 33  1  0
  5 34  1  0
  8 35  1  0
  9 36  1  0
 12 37  1  0
 13 38  1  0
 14 39  1  0
 17 40  1  0
 18 41  1  0
 19 42  1  0
 20 43  1  0
 21 44  1  0
 22 45  1  0
 23 46  1  0
 24 47  1  0
M  CHG  1  22   1
M  END
>  <UniqueID>  (16) 
15

>  <SMILES>  (16) 
CN(C)CCOc1ccc(-c2cccc(-c3ccccc3)[nH+]2)cc1

>  <Energy>  (16) 
61.03777632250738

>  <Genealogy>  (16) 
CN(C)CCOc1ccc(-c2cccc(-c3ccccc3)[nH+]2)cc1 (protonated)
CN(C)CCOc1ccc(-c2cccc(-c3ccccc3)[nH+]2)cc1 (3D coordinates assigned)
CN(C)CCOc1ccc(-c2cccc(-c3ccccc3)[nH+]2)cc1 (optimized conformer: 61.03777632250738 kcal/mol)

>  <smiles>  (16) 
CN(C)CCOc1ccc(-c2cccc(-c3ccccc3)n2)cc1

>  <score_type>  (16) 
oracle

>  <origin>  (16) 
adg

>  <m_score__min__energy>  (16) 
-8.3300000000000001

>  <m_primary>  (16) 
energy

$$$$
16:0
     RDKit          3D

 31 33  0  0  1  0  0  0  0  0999 V2000
   -5.6640   17.2810  -32.7520 C   0  0  0  0  0  0  0  0  0  0  0  0
   -6.8390   18.1850  -32.6120 C   0  0  0  0  0  0  0  0  0  0  0  0
   -8.0100   17.7950  -31.9950 C   0  0  0  0  0  0  0  0  0  0  0  0
   -9.0990   18.6420  -31.8690 C   0  0  0  0  0  0  0  0  0  0  0  0
   -8.9980   19.9360  -32.3880 C   0  0  0  0  0  0  0  0  0  0  0  0
   -7.8240   20.3220  -33.0040 C   0  0  0  0  0  0  0  0  0  0  0  0
   -6.7370   19.4800  -33.1310 C   0  0  0  0  0  0  0  0  0  0  0  0
   -5.5210   19.8950  -33.7750 N   0  0  0  0  0  0  0  0  0  0  0  0
   -4.6830   20.6570  -33.1930 C   0  0  0  0  0  0  0  0  0  0  0  0
   -3.3390   20.3990  -33.2480 C   0  0  0  0  0  0  0  0  0  0  0  0
   -2.4920   21.2600  -32.6000 C   0  0  0  0  0  0  0  0  0  0  0  0
   -2.9910   22.3200  -31.9380 N   0  0  0  0  0  0  0  0  0  0  0  0
   -4.3130   22.5760  -31.8820 C   0  0  0  0  0  0  0  0  0  0  0  0
   -4.8600   23.6760  -31.1960 C   0  0  0  0  0  0  0  0  0  0  0  0
   -4.6070   24.8870  -30.8560 N   0  0  0  0  0  0  0  0  0  0  0  0
   -5.3770   25.6740  -30.1810 C   0  0  0  0  0  0  0  0  0  0  0  0
   -6.5740   25.2220  -29.7700 C   0  0  0  0  0  0  0  0  0  0  0  0
   -6.6150   23.4870  -30.4120 S   0  0  0  0  0  0  0  0  0  0  0  0
   -5.1200   21.7170  -32.5260 N   0  0  0  0  0  0  0  0  0  0  0  0
   -5.2974   16.9990  -31.7540 H   0  0  0  0  0  0  0  0  0  0  0  0
   -5.9610   16.3763  -33.3027 H   0  0  0  0  0  0  0  0  0  0  0  0
   -4.8656   17.8000  -33.3027 H   0  0  0  0  0  0  0  0  0  0  0  0
   -8.0813   16.7753  -31.5887 H   0  0  0  0  0  0  0  0  0  0  0  0
  -10.0208   18.3045  -31.3726 H   0  0  0  0  0  0  0  0  0  0  0  0
   -9.8419   20.6369  -32.3068 H   0  0  0  0  0  0  0  0  0  0  0  0
   -7.7518   21.3418  -33.4101 H   0  0  0  0  0  0  0  0  0  0  0  0
   -2.9512   19.5273  -33.7955 H   0  0  0  0  0  0  0  0  0  0  0  0
   -1.4062   21.0848  -32.6210 H   0  0  0  0  0  0  0  0  0  0  0  0
   -2.3190   22.9530  -31.4560 H   0  0  0  0  0  0  0  0  0  0  0  0
   -5.0575   26.7000  -29.9458 H   0  0  0  0  0  0  0  0  0  0  0  0
   -7.3434   25.7546  -29.1918 H   0  0  0  0  0  0  0  0  0  0  0  0
  1  2  1  0
  2  3  2  0
  3  4  1  0
  4  5  2  0
  5  6  1  0
  6  7  2  0
  7  8  1  0
  8  9  2  0
  9 10  1  0
 10 11  2  0
 11 12  1  0
 12 13  1  0
 13 14  1  0
 14 15  2  0
 15 16  1  0
 16 17  2  0
 17 18  1  0
 13 19  2  0
  7  2  1  0
 19  9  1  0
 18 14  1  0
  1 20  1  0
  1 21  1  0
  1 22  1  0
  3 23  1  0
  4 24  1  0
  5 25  1  0
  6 26  1  0
 10 27  1  0
 11 28  1  0
 12 29  1  0
 16 30  1  0
 17 31  1  0
M  END
>  <smiles>  (17) 
Cc1ccccc1N=c1cc[nH]c(-c2nccs2)n1

>  <score_type>  (17) 
oracle

>  <origin>  (17) 
adg

>  <m_score__min__energy>  (17) 
-7.71

>  <m_primary>  (17) 
energy

$$$$
17:0
     RDKit          3D

 42 45  0  0  0  0  0  0  0  0999 V2000
   -7.9880   24.6430  -30.4240 H   0  0  0  0  0  0  0  0  0  0  0  0
   -7.2140   25.2680  -30.1140 N   0  0  0  0  0  0  0  0  0  0  0  0
   -5.9730   25.0620  -30.4240 C   0  0  0  0  0  0  0  0  0  0  0  0
   -4.9990   25.9560  -30.2020 N   0  0  0  0  0  0  0  0  0  0  0  0
   -3.9210   25.4040  -30.6860 O   0  0  0  0  0  0  0  0  0  0  0  0
   -4.1170   24.2230  -31.2030 N   0  0  0  0  0  0  0  0  0  0  0  0
   -5.4300   23.9640  -31.0610 C   0  0  0  0  0  0  0  0  0  0  0  0
   -6.0910   22.7010  -31.4600 C   0  0  0  0  0  0  0  0  0  0  0  0
   -7.4450   22.5850  -31.5250 N   0  0  0  0  0  0  0  0  0  0  0  0
   -7.6310   21.2980  -31.8660 C   0  0  0  0  0  0  0  0  0  0  0  0
   -8.8440   20.6390  -32.0530 C   0  0  0  0  0  0  0  0  0  0  0  0
   -9.8021   21.1676  -31.9405 H   0  0  0  0  0  0  0  0  0  0  0  0
   -8.8010   19.2730  -32.3910 C   0  0  0  0  0  0  0  0  0  0  0  0
   -9.7382   18.7191  -32.5486 H   0  0  0  0  0  0  0  0  0  0  0  0
   -7.5610   18.6090  -32.5290 C   0  0  0  0  0  0  0  0  0  0  0  0
   -7.5393   17.5412  -32.7921 H   0  0  0  0  0  0  0  0  0  0  0  0
   -6.3540   19.3050  -32.3320 C   0  0  0  0  0  0  0  0  0  0  0  0
   -5.3821   18.8003  -32.4355 H   0  0  0  0  0  0  0  0  0  0  0  0
   -6.4340   20.6610  -32.0000 C   0  0  0  0  0  0  0  0  0  0  0  0
   -5.4410   21.5350  -31.7520 N   0  0  0  0  0  0  0  0  0  0  0  0
   -4.0030   21.2530  -31.7690 C   0  0  0  0  0  0  0  0  0  0  0  0
   -3.8257   20.2913  -32.2726 H   0  0  0  0  0  0  0  0  0  0  0  0
   -3.4822   22.0570  -32.3098 H   0  0  0  0  0  0  0  0  0  0  0  0
   -3.4810   21.1830  -30.3650 C   0  0  0  0  0  0  0  0  0  0  0  0
   -3.3440   20.0590  -29.8110 O   0  0  0  0  0  0  0  0  0  0  0  0
   -3.1340   22.3890  -29.6640 N   0  0  0  0  0  0  0  0  0  0  0  0
   -3.5640   23.2860  -29.9860 H   0  0  0  0  0  0  0  0  0  0  0  0
   -2.2850   22.4270  -28.5050 C   0  0  0  0  0  0  0  0  0  0  0  0
   -1.5810   23.6000  -28.2070 C   0  0  0  0  0  0  0  0  0  0  0  0
   -1.6984   24.4848  -28.8499 H   0  0  0  0  0  0  0  0  0  0  0  0
   -0.7300   23.6560  -27.0990 C   0  0  0  0  0  0  0  0  0  0  0  0
   -0.1933   24.5883  -26.8695 H   0  0  0  0  0  0  0  0  0  0  0  0
   -0.5560   22.5350  -26.2800 C   0  0  0  0  0  0  0  0  0  0  0  0
    0.3080   22.6410  -25.1800 O   0  0  0  0  0  0  0  0  0  0  0  0
   -0.1210   22.6830  -23.8230 C   0  0  0  0  0  0  0  0  0  0  0  0
    0.7522   22.5975  -23.1596 H   0  0  0  0  0  0  0  0  0  0  0  0
   -0.6358   23.6358  -23.6305 H   0  0  0  0  0  0  0  0  0  0  0  0
   -0.8108   21.8481  -23.6305 H   0  0  0  0  0  0  0  0  0  0  0  0
   -1.2460   21.3460  -26.5890 C   0  0  0  0  0  0  0  0  0  0  0  0
   -1.1146   20.4563  -25.9557 H   0  0  0  0  0  0  0  0  0  0  0  0
   -2.0970   21.2920  -27.6970 C   0  0  0  0  0  0  0  0  0  0  0  0
   -2.6224   20.3561  -27.9379 H   0  0  0  0  0  0  0  0  0  0  0  0
  1  2  1  0
  2  3  2  0
  3  4  1  0
  4  5  1  0
  5  6  1  0
  6  7  2  0
  7  8  1  0
  8  9  2  0
  9 10  1  0
 10 11  2  0
 11 12  1  0
 11 13  1  0
 13 14  1  0
 13 15  2  0
 15 16  1  0
 15 17  1  0
 17 18  1  0
 17 19  2  0
 19 20  1  0
 20 21  1  0
 21 22  1  0
 21 23  1  0
 21 24  1  0
 24 25  2  0
 24 26  1  0
 26 27  1  0
 26 28  1  0
 28 29  2  0
 29 30  1  0
 29 31  1  0
 31 32  1  0
 31 33  2  0
 33 34  1  0
 34 35  1  0
 35 36  1  0
 35 37  1  0
 35 38  1  0
 33 39  1  0
 39 40  1  0
 39 41  2  0
 41 42  1  0
  7  3  1  0
 20  8  1  0
 41 28  1  0
 19 10  1  0
M  CHG  1   4  -1
M  END
>  <UniqueID>  (18) 
16

>  <SMILES>  (18) 
[H]/N=c1/[n-]onc1-c1nc2ccccc2n1CC(=O)Nc1ccc(OC)cc1

>  <Energy>  (18) 
124.565356595138

>  <Genealogy>  (18) 
COc1ccc(NC(=O)Cn2c(-c3no[n-]c3=N)nc3ccccc32)cc1 (protonated)
[H]/N=c1/[n-]onc1-c1nc2ccccc2n1CC(=O)Nc1ccc(OC)cc1 (cis-trans isomerization)
[H]/N=c1/[n-]onc1-c1nc2ccccc2n1CC(=O)Nc1ccc(OC)cc1 (3D coordinates assigned)
[H]/N=c1/[n-]onc1-c1nc2ccccc2n1CC(=O)Nc1ccc(OC)cc1 (optimized conformer: 124.565356595138 kcal/mol)

>  <smiles>  (18) 
COc1ccc(NC(=O)Cn2c(-c3no[nH]c3=N)nc3ccccc32)cc1

>  <score_type>  (18) 
oracle

>  <origin>  (18) 
adg

>  <m_score__min__energy>  (18) 
-9.6600000000000001

>  <m_primary>  (18) 
energy

$$$$
18:0
     RDKit          3D

 55 57  0  0  0  0  0  0  0  0999 V2000
   -1.3730   20.4860  -27.9820 C   0  0  0  0  0  0  0  0  0  0  0  0
   -1.8770   20.6500  -29.4150 C   0  0  0  0  0  0  0  0  0  0  0  0
   -1.0740   21.6650  -30.1380 N   0  0  0  0  0  0  0  0  0  0  0  0
   -0.4990   21.0760  -31.3710 C   0  0  0  0  0  0  0  0  0  0  0  0
   -1.2370   21.5470  -32.6310 C   0  0  0  0  0  0  0  0  0  0  0  0
   -2.4900   20.8110  -32.7920 N   0  0  0  0  0  0  0  0  0  0  0  0
   -2.5990   19.3870  -33.0730 C   0  0  0  0  0  0  0  0  0  0  0  0
   -4.1170   19.0770  -33.0860 C   0  0  0  0  0  0  0  0  0  0  0  0
   -4.7840   20.3170  -32.6860 N   0  0  0  0  0  0  0  0  0  0  0  0
   -6.1850   20.4460  -32.3840 C   0  0  0  0  0  0  0  0  0  0  0  0
   -6.9590   19.3000  -32.1430 C   0  0  0  0  0  0  0  0  0  0  0  0
   -8.3190   19.4280  -31.8430 C   0  0  0  0  0  0  0  0  0  0  0  0
   -9.1670   18.2070  -31.6390 C   0  0  0  0  0  0  0  0  0  0  0  0
   -8.8950   20.7020  -31.8030 C   0  0  0  0  0  0  0  0  0  0  0  0
   -8.0940   21.8320  -32.0130 C   0  0  0  0  0  0  0  0  0  0  0  0
   -8.7050   23.2020  -31.9810 C   0  0  0  0  0  0  0  0  0  0  0  0
   -6.7690   21.6800  -32.3080 N   0  0  0  0  0  0  0  0  0  0  0  0
   -3.7870   21.3120  -32.5500 C   0  0  0  0  0  0  0  0  0  0  0  0
   -4.0290   22.5210  -32.2860 O   0  0  0  0  0  0  0  0  0  0  0  0
   -1.8800   22.8800  -30.4250 C   0  0  0  0  0  0  0  0  0  0  0  0
   -2.2440   23.5830  -29.1420 C   0  0  0  0  0  0  0  0  0  0  0  0
   -1.2680   24.2910  -28.4200 C   0  0  0  0  0  0  0  0  0  0  0  0
   -1.6020   24.9300  -27.2230 C   0  0  0  0  0  0  0  0  0  0  0  0
   -2.9070   24.8600  -26.7310 C   0  0  0  0  0  0  0  0  0  0  0  0
   -3.8800   24.1420  -27.4310 C   0  0  0  0  0  0  0  0  0  0  0  0
   -3.5500   23.4990  -28.6290 C   0  0  0  0  0  0  0  0  0  0  0  0
   -2.1770   20.7476  -27.2783 H   0  0  0  0  0  0  0  0  0  0  0  0
   -1.0675   19.4421  -27.8180 H   0  0  0  0  0  0  0  0  0  0  0  0
   -0.5117   21.1502  -27.8180 H   0  0  0  0  0  0  0  0  0  0  0  0
   -1.7973   19.6860  -29.9387 H   0  0  0  0  0  0  0  0  0  0  0  0
   -2.9253   20.9821  -29.3862 H   0  0  0  0  0  0  0  0  0  0  0  0
    0.5577   21.3721  -31.4467 H   0  0  0  0  0  0  0  0  0  0  0  0
   -0.6020   19.9828  -31.3055 H   0  0  0  0  0  0  0  0  0  0  0  0
   -1.4563   22.6213  -32.5425 H   0  0  0  0  0  0  0  0  0  0  0  0
   -0.5994   21.3628  -33.5082 H   0  0  0  0  0  0  0  0  0  0  0  0
   -2.1515   19.1536  -34.0504 H   0  0  0  0  0  0  0  0  0  0  0  0
   -2.0678   18.7833  -32.3224 H   0  0  0  0  0  0  0  0  0  0  0  0
   -4.4378   18.7785  -34.0950 H   0  0  0  0  0  0  0  0  0  0  0  0
   -4.3654   18.2480  -32.4069 H   0  0  0  0  0  0  0  0  0  0  0  0
   -6.4966   18.3030  -32.1900 H   0  0  0  0  0  0  0  0  0  0  0  0
   -9.2938   18.0244  -30.5617 H   0  0  0  0  0  0  0  0  0  0  0  0
  -10.1521   18.3631  -32.1029 H   0  0  0  0  0  0  0  0  0  0  0  0
   -8.6767   17.3384  -32.1029 H   0  0  0  0  0  0  0  0  0  0  0  0
   -9.9715   20.8161  -31.6076 H   0  0  0  0  0  0  0  0  0  0  0  0
   -8.8453   23.5166  -30.9363 H   0  0  0  0  0  0  0  0  0  0  0  0
   -8.0386   23.9127  -32.4916 H   0  0  0  0  0  0  0  0  0  0  0  0
   -9.6791   23.1811  -32.4916 H   0  0  0  0  0  0  0  0  0  0  0  0
   -6.1860   22.5330  -32.4470 H   0  0  0  0  0  0  0  0  0  0  0  0
   -1.2945   23.5622  -31.0588 H   0  0  0  0  0  0  0  0  0  0  0  0
   -2.8032   22.5821  -30.9435 H   0  0  0  0  0  0  0  0  0  0  0  0
   -0.2366   24.3424  -28.7988 H   0  0  0  0  0  0  0  0  0  0  0  0
   -0.8352   25.4894  -26.6670 H   0  0  0  0  0  0  0  0  0  0  0  0
   -3.1690   25.3701  -25.7923 H   0  0  0  0  0  0  0  0  0  0  0  0
   -4.9064   24.0822  -27.0399 H   0  0  0  0  0  0  0  0  0  0  0  0
   -4.3158   22.9253  -29.1717 H   0  0  0  0  0  0  0  0  0  0  0  0
  1  2  1  0
  2  3  1  0
  3  4  1  0
  4  5  1  0
  5  6  1  0
  6  7  1  0
  7  8  1  0
  8  9  1  0
  9 10  1  0
 10 11  2  0
 11 12  1  0
 12 13  1  0
 12 14  2  0
 14 15  1  0
 15 16  1  0
 15 17  2  0
  9 18  1  0
 18 19  2  0
  3 20  1  0
 20 21  1  0
 21 22  2  0
 22 23  1  0
 23 24  2  0
 24 25  1  0
 25 26  2  0
 18  6  1  0
 26 21  1  0
 17 10  1  0
  1 27  1  0
  1 28  1  0
  1 29  1  0
  2 30  1  0
  2 31  1  0
  4 32  1  0
  4 33  1  0
  5 34  1  0
  5 35  1  0
  7 36  1  0
  7 37  1  0
  8 38  1  0
  8 39  1  0
 11 40  1  0
 13 41  1  0
 13 42  1  0
 13 43  1  0
 14 44  1  0
 16 45  1  0
 16 46  1  0
 16 47  1  0
 17 48  1  0
 20 49  1  0
 20 50  1  0
 22 51  1  0
 23 52  1  0
 24 53  1  0
 25 54  1  0
 26 55  1  0
M  CHG  1  17   1
M  END
>  <UniqueID>  (19) 
17

>  <SMILES>  (19) 
CCN(CCN1CCN(c2cc(C)cc(C)[nH+]2)C1=O)Cc1ccccc1

>  <Energy>  (19) 
69.21137569342736

>  <Genealogy>  (19) 
CCN(CCN1CCN(c2cc(C)cc(C)[nH+]2)C1=O)Cc1ccccc1 (protonated)
CCN(CCN1CCN(c2cc(C)cc(C)[nH+]2)C1=O)Cc1ccccc1 (3D coordinates assigned)
CCN(CCN1CCN(c2cc(C)cc(C)[nH+]2)C1=O)Cc1ccccc1 (nonaromatic ring conformer: 69.21137569342736 kcal/mol)

>  <smiles>  (19) 
CCN(CCN1CCN(c2cc(C)cc(C)n2)C1=O)Cc1ccccc1

>  <score_type>  (19) 
oracle

>  <origin>  (19) 
adg

>  <m_score__min__energy>  (19) 
-7.0999999999999996

>  <m_primary>  (19) 
energy

$$$$
19:0
     RDKit          3D

 64 68  0  0  0  0  0  0  0  0999 V2000
    0.2910   26.5320  -25.9790 C   0  0  0  0  0  0  0  0  0  0  0  0
   -0.2350   25.7020  -27.0100 O   0  0  0  0  0  0  0  0  0  0  0  0
   -1.5680   25.2580  -27.0770 C   0  0  0  0  0  0  0  0  0  0  0  0
   -2.5180   25.6310  -26.1110 C   0  0  0  0  0  0  0  0  0  0  0  0
   -3.8310   25.1810  -26.1990 C   0  0  0  0  0  0  0  0  0  0  0  0
   -4.2210   24.3560  -27.2520 C   0  0  0  0  0  0  0  0  0  0  0  0
   -3.3060   23.9870  -28.2570 C   0  0  0  0  0  0  0  0  0  0  0  0
   -1.9530   24.4140  -28.1420 C   0  0  0  0  0  0  0  0  0  0  0  0
   -0.9230   24.0580  -29.1960 C   0  0  0  0  0  0  0  0  0  0  0  0
   -1.3350   22.8680  -30.0610 C   0  0  0  0  0  0  0  0  0  0  0  0
   -2.7680   23.0430  -30.5480 C   0  0  0  0  0  0  0  0  0  0  0  0
   -3.7470   23.0260  -29.3560 C   0  0  2  0  0  0  0  0  0  0  0  0
   -5.1210   23.3530  -29.8060 N   0  0  0  0  0  0  0  0  0  0  0  0
   -5.1950   23.5340  -31.2610 C   0  0  0  0  0  0  0  0  0  0  0  0
   -5.9720   22.4260  -31.9270 C   0  0  0  0  0  0  0  0  0  0  0  0
   -7.3400   22.1580  -31.8980 C   0  0  0  0  0  0  0  0  0  0  0  0
   -8.4290   23.0190  -31.3380 C   0  0  0  0  0  0  0  0  0  0  0  0
   -7.5770   20.9350  -32.4140 N   0  0  0  0  0  0  0  0  0  0  0  0
   -6.4160   20.4040  -32.7640 N   0  0  0  0  0  0  0  0  0  0  0  0
   -6.2880   19.0670  -33.2850 C   0  0  0  0  0  0  0  0  0  0  0  0
   -6.9560   17.9860  -32.6810 C   0  0  0  0  0  0  0  0  0  0  0  0
   -6.8380   16.6970  -33.2120 C   0  0  0  0  0  0  0  0  0  0  0  0
   -6.0400   16.4720  -34.3350 C   0  0  0  0  0  0  0  0  0  0  0  0
   -5.3570   17.5350  -34.9300 C   0  0  0  0  0  0  0  0  0  0  0  0
   -5.4720   18.8250  -34.4040 C   0  0  0  0  0  0  0  0  0  0  0  0
   -5.4250   21.2790  -32.4780 C   0  0  0  0  0  0  0  0  0  0  0  0
   -4.0330   20.9370  -32.4560 N   0  0  0  0  0  0  0  0  0  0  0  0
   -3.5220   20.1140  -31.3580 C   0  0  0  0  0  0  0  0  0  0  0  0
   -2.0620   19.7470  -31.6060 C   0  0  0  0  0  0  0  0  0  0  0  0
   -1.8980   19.4020  -32.9640 O   0  0  0  0  0  0  0  0  0  0  0  0
   -1.9380   20.5680  -33.7710 C   0  0  0  0  0  0  0  0  0  0  0  0
   -3.1220   21.5170  -33.4520 C   0  0  0  0  0  0  0  0  0  0  0  0
    0.0246   26.1116  -24.9981 H   0  0  0  0  0  0  0  0  0  0  0  0
    1.3860   26.5820  -26.0713 H   0  0  0  0  0  0  0  0  0  0  0  0
   -0.1313   27.5435  -26.0713 H   0  0  0  0  0  0  0  0  0  0  0  0
   -2.2205   26.2847  -25.2778 H   0  0  0  0  0  0  0  0  0  0  0  0
   -4.5643   25.4774  -25.4345 H   0  0  0  0  0  0  0  0  0  0  0  0
   -5.2567   23.9883  -27.2989 H   0  0  0  0  0  0  0  0  0  0  0  0
   -0.7749   24.9306  -29.8492 H   0  0  0  0  0  0  0  0  0  0  0  0
    0.0003   23.7755  -28.6691 H   0  0  0  0  0  0  0  0  0  0  0  0
   -0.6622   22.7991  -30.9285 H   0  0  0  0  0  0  0  0  0  0  0  0
   -1.2694   21.9483  -29.4611 H   0  0  0  0  0  0  0  0  0  0  0  0
   -2.8565   24.0039  -31.0760 H   0  0  0  0  0  0  0  0  0  0  0  0
   -3.0179   22.2142  -31.2268 H   0  0  0  0  0  0  0  0  0  0  0  0
   -3.7433   22.0092  -28.9363 H   0  0  0  0  0  0  0  0  0  0  0  0
   -5.4680   24.2360  -29.3630 H   0  0  0  0  0  0  0  0  0  0  0  0
   -5.6889   24.4932  -31.4753 H   0  0  0  0  0  0  0  0  0  0  0  0
   -4.1697   23.5181  -31.6590 H   0  0  0  0  0  0  0  0  0  0  0  0
   -8.3914   22.9893  -30.2390 H   0  0  0  0  0  0  0  0  0  0  0  0
   -8.2909   24.0547  -31.6817 H   0  0  0  0  0  0  0  0  0  0  0  0
   -9.4049   22.6457  -31.6817 H   0  0  0  0  0  0  0  0  0  0  0  0
   -7.5741   18.1551  -31.7869 H   0  0  0  0  0  0  0  0  0  0  0  0
   -7.3752   15.8591  -32.7436 H   0  0  0  0  0  0  0  0  0  0  0  0
   -5.9491   15.4578  -34.7511 H   0  0  0  0  0  0  0  0  0  0  0  0
   -4.7274   17.3568  -35.8142 H   0  0  0  0  0  0  0  0  0  0  0  0
   -4.9207   19.6559  -34.8684 H   0  0  0  0  0  0  0  0  0  0  0  0
   -3.5997   20.6769  -30.4161 H   0  0  0  0  0  0  0  0  0  0  0  0
   -4.1172   19.1910  -31.2958 H   0  0  0  0  0  0  0  0  0  0  0  0
   -1.4197   20.6066  -31.3640 H   0  0  0  0  0  0  0  0  0  0  0  0
   -1.7805   18.8947  -30.9701 H   0  0  0  0  0  0  0  0  0  0  0  0
   -1.0002   21.1234  -33.6226 H   0  0  0  0  0  0  0  0  0  0  0  0
   -2.0718   20.2311  -34.8096 H   0  0  0  0  0  0  0  0  0  0  0  0
   -2.7233   22.4646  -33.0607 H   0  0  0  0  0  0  0  0  0  0  0  0
   -3.6892   21.6800  -34.3803 H   0  0  0  0  0  0  0  0  0  0  0  0
  1  2  1  0
  2  3  1  0
  3  4  2  0
  4  5  1  0
  5  6  2  0
  6  7  1  0
  7  8  2  0
  8  9  1  0
  9 10  1  0
 10 11  1  0
 11 12  1  0
 12 13  1  0
 13 14  1  0
 14 15  1  0
 15 16  1  0
 16 17  1  0
 16 18  2  0
 18 19  1  0
 19 20  1  0
 20 21  2  0
 21 22  1  0
 22 23  2  0
 23 24  1  0
 24 25  2  0
 19 26  1  0
 26 27  1  0
 27 28  1  0
 28 29  1  0
 29 30  1  0
 30 31  1  0
 31 32  1  0
  8  3  1  0
 26 15  2  0
 32 27  1  0
 12  7  1  0
 25 20  1  0
  1 33  1  0
  1 34  1  0
  1 35  1  0
  4 36  1  0
  5 37  1  0
  6 38  1  0
  9 39  1  0
  9 40  1  0
 10 41  1  0
 10 42  1  0
 11 43  1  0
 11 44  1  0
 12 45  1  1
 13 46  1  0
 14 47  1  0
 14 48  1  0
 17 49  1  0
 17 50  1  0
 17 51  1  0
 21 52  1  0
 22 53  1  0
 23 54  1  0
 24 55  1  0
 25 56  1  0
 28 57  1  0
 28 58  1  0
 29 59  1  0
 29 60  1  0
 31 61  1  0
 31 62  1  0
 32 63  1  0
 32 64  1  0
M  END
>  <UniqueID>  (20) 
18

>  <SMILES>  (20) 
COc1cccc2c1CCC[C@@H]2NCc1c(C)nn(-c2ccccc2)c1N1CCOCC1

>  <Energy>  (20) 
116.47154557911401

>  <Genealogy>  (20) 
COc1cccc2c1CCC[C@@H]2NCc1c(C)nn(-c2ccccc2)c1N1CCOCC1 (chirality)
COc1cccc2c1CCC[C@@H]2NCc1c(C)nn(-c2ccccc2)c1N1CCOCC1 (3D coordinates assigned)
COc1cccc2c1CCC[C@@H]2NCc1c(C)nn(-c2ccccc2)c1N1CCOCC1 (nonaromatic ring conformer: 116.47154557911401 kcal/mol)

>  <smiles>  (20) 
COc1cccc2c1CCCC2NCc1c(C)nn(-c2ccccc2)c1N1CCOCC1

>  <score_type>  (20) 
oracle

>  <origin>  (20) 
adg

>  <m_score__min__energy>  (20) 
-9.8100000000000005

>  <m_primary>  (20) 
energy

$$$$
20:0
     RDKit          3D

 45 47  0  0  0  0  0  0  0  0999 V2000
   -6.6610   16.2000  -33.8890 C   0  0  0  0  0  0  0  0  0  0  0  0
   -6.1010   17.4700  -33.5690 O   0  0  0  0  0  0  0  0  0  0  0  0
   -6.8020   18.5110  -32.9440 C   0  0  0  0  0  0  0  0  0  0  0  0
   -7.9900   18.2010  -32.2730 C   0  0  0  0  0  0  0  0  0  0  0  0
   -8.7230   19.2020  -31.6340 C   0  0  0  0  0  0  0  0  0  0  0  0
   -8.2770   20.5240  -31.6600 C   0  0  0  0  0  0  0  0  0  0  0  0
   -7.0880   20.8640  -32.3270 C   0  0  0  0  0  0  0  0  0  0  0  0
   -6.6260   22.2350  -32.3570 N   0  0  0  0  0  0  0  0  0  0  0  0
   -7.5150   23.3230  -31.9140 C   0  0  0  0  0  0  0  0  0  0  0  0
   -7.1420   23.8400  -30.5100 C   0  0  0  0  0  0  0  0  0  0  0  0
   -5.8320   24.6370  -30.4740 C   0  0  0  0  0  0  0  0  0  0  0  0
   -4.6760   23.7380  -30.4980 N   0  0  0  0  0  0  0  0  0  0  0  0
   -3.6690   23.6070  -29.6080 C   0  0  0  0  0  0  0  0  0  0  0  0
   -3.4820   24.4390  -28.3750 C   0  0  0  0  0  0  0  0  0  0  0  0
   -2.2980   23.9820  -27.6440 N   0  0  0  0  0  0  0  0  0  0  0  0
   -0.9980   25.1170  -27.8490 S   0  0  0  0  0  0  0  0  0  0  0  0
    0.5660   24.3640  -27.4460 C   0  0  0  0  0  0  0  0  0  0  0  0
   -1.2240   26.2850  -26.9300 O   0  0  0  0  0  0  0  0  0  0  0  0
   -0.9660   25.6130  -29.2680 O   0  0  0  0  0  0  0  0  0  0  0  0
   -2.7950   22.6580  -29.9970 N   0  0  0  0  0  0  0  0  0  0  0  0
   -3.2490   22.1520  -31.1350 N   0  0  0  0  0  0  0  0  0  0  0  0
   -4.3930   22.7990  -31.4250 C   0  0  0  0  0  0  0  0  0  0  0  0
   -5.2110   22.5220  -32.6590 C   0  0  0  0  0  0  0  0  0  0  0  0
   -6.3540   19.8470  -32.9690 C   0  0  0  0  0  0  0  0  0  0  0  0
   -6.8992   15.6599  -32.9608 H   0  0  0  0  0  0  0  0  0  0  0  0
   -7.5800   16.3420  -34.4767 H   0  0  0  0  0  0  0  0  0  0  0  0
   -5.9364   15.6173  -34.4767 H   0  0  0  0  0  0  0  0  0  0  0  0
   -8.3486   17.1614  -32.2490 H   0  0  0  0  0  0  0  0  0  0  0  0
   -9.6552   18.9481  -31.1082 H   0  0  0  0  0  0  0  0  0  0  0  0
   -8.8613   21.3066  -31.1540 H   0  0  0  0  0  0  0  0  0  0  0  0
   -7.4414   24.1551  -32.6297 H   0  0  0  0  0  0  0  0  0  0  0  0
   -8.5399   22.9262  -31.8681 H   0  0  0  0  0  0  0  0  0  0  0  0
   -7.9540   24.4902  -30.1524 H   0  0  0  0  0  0  0  0  0  0  0  0
   -6.9985   22.9569  -29.8700 H   0  0  0  0  0  0  0  0  0  0  0  0
   -5.7901   25.3019  -31.3493 H   0  0  0  0  0  0  0  0  0  0  0  0
   -5.8023   25.2252  -29.5449 H   0  0  0  0  0  0  0  0  0  0  0  0
   -3.3501   25.4927  -28.6618 H   0  0  0  0  0  0  0  0  0  0  0  0
   -4.3681   24.3387  -27.7309 H   0  0  0  0  0  0  0  0  0  0  0  0
   -1.9760   23.0780  -28.0610 H   0  0  0  0  0  0  0  0  0  0  0  0
    0.6765   24.3108  -26.3529 H   0  0  0  0  0  0  0  0  0  0  0  0
    0.6039   23.3490  -27.8682 H   0  0  0  0  0  0  0  0  0  0  0  0
    1.3831   24.9674  -27.8682 H   0  0  0  0  0  0  0  0  0  0  0  0
   -5.1640   23.4028  -33.3163 H   0  0  0  0  0  0  0  0  0  0  0  0
   -4.7885   21.6283  -33.1415 H   0  0  0  0  0  0  0  0  0  0  0  0
   -5.4214   20.0984  -33.4953 H   0  0  0  0  0  0  0  0  0  0  0  0
  1  2  1  0
  2  3  1  0
  3  4  2  0
  4  5  1  0
  5  6  2  0
  6  7  1  0
  7  8  1  0
  8  9  1  0
  9 10  1  0
 10 11  1  0
 11 12  1  0
 12 13  1  0
 13 14  1  0
 14 15  1  0
 15 16  1  0
 16 17  1  0
 16 18  2  0
 16 19  2  0
 13 20  2  0
 20 21  1  0
 21 22  2  0
 22 23  1  0
  7 24  2  0
 24  3  1  0
 23  8  1  0
 22 12  1  0
  1 25  1  0
  1 26  1  0
  1 27  1  0
  4 28  1  0
  5 29  1  0
  6 30  1  0
  9 31  1  0
  9 32  1  0
 10 33  1  0
 10 34  1  0
 11 35  1  0
 11 36  1  0
 14 37  1  0
 14 38  1  0
 15 39  1  0
 17 40  1  0
 17 41  1  0
 17 42  1  0
 23 43  1  0
 23 44  1  0
 24 45  1  0
M  END
>  <UniqueID>  (21) 
19

>  <SMILES>  (21) 
COc1cccc(N2CCCn3c(CNS(C)(=O)=O)nnc3C2)c1

>  <Energy>  (21) 
79.16610837936138

>  <Genealogy>  (21) 
COc1cccc(N2CCCn3c(CNS(C)(=O)=O)nnc3C2)c1 (3D coordinates assigned)
COc1cccc(N2CCCn3c(CNS(C)(=O)=O)nnc3C2)c1 (nonaromatic ring conformer: 79.16610837936138 kcal/mol)

>  <smiles>  (21) 
COc1cccc(N2CCCn3c(CNS(C)(=O)=O)nnc3C2)c1

>  <score_type>  (21) 
oracle

>  <origin>  (21) 
adg

>  <m_score__min__energy>  (21) 
-6.5999999999999996

>  <m_primary>  (21) 
energy

$$$$
21:0
     RDKit          3D

 52 53  0  0  0  0  0  0  0  0999 V2000
   -7.4100   18.3490  -32.1190 C   0  0  0  0  0  0  0  0  0  0  0  0
   -8.7380   19.0900  -31.9390 C   0  0  0  0  0  0  0  0  0  0  0  0
   -8.7660   20.4290  -32.6910 C   0  0  0  0  0  0  0  0  0  0  0  0
   -8.1270   21.5280  -31.8960 C   0  0  0  0  0  0  0  0  0  0  0  0
   -8.3730   21.7580  -30.5900 N   0  0  0  0  0  0  0  0  0  0  0  0
   -7.6300   22.7810  -30.2810 O   0  0  0  0  0  0  0  0  0  0  0  0
   -6.9580   23.1790  -31.3360 C   0  0  0  0  0  0  0  0  0  0  0  0
   -6.0040   24.3420  -31.3550 C   0  0  0  0  0  0  0  0  0  0  0  0
   -4.6090   23.9730  -30.9990 N   0  0  0  0  0  0  0  0  0  0  0  0
   -4.0010   24.9050  -30.0190 C   0  0  0  0  0  0  0  0  0  0  0  0
   -3.0010   24.1650  -29.1220 C   0  0  0  0  0  0  0  0  0  0  0  0
   -1.8930   25.0840  -28.5790 C   0  0  0  0  0  0  0  0  0  0  0  0
   -0.5420   24.5460  -28.8680 N   0  0  0  0  0  0  0  0  0  0  0  0
   -0.6130   23.1480  -29.3360 C   0  0  0  0  0  0  0  0  0  0  0  0
    0.3050   24.6200  -27.6660 C   0  0  0  0  0  0  0  0  0  0  0  0
   -4.4430   22.5570  -30.6000 C   0  0  0  0  0  0  0  0  0  0  0  0
   -3.8520   21.7360  -31.7200 C   0  0  0  0  0  0  0  0  0  0  0  0
   -2.5030   21.9000  -32.0750 C   0  0  0  0  0  0  0  0  0  0  0  0
   -1.9520   21.1480  -33.1180 C   0  0  0  0  0  0  0  0  0  0  0  0
   -2.7420   20.2260  -33.8100 C   0  0  0  0  0  0  0  0  0  0  0  0
   -4.0850   20.0540  -33.4600 C   0  0  0  0  0  0  0  0  0  0  0  0
   -4.8500   19.1600  -34.1330 F   0  0  0  0  0  0  0  0  0  0  0  0
   -4.6390   20.8030  -32.4170 C   0  0  0  0  0  0  0  0  0  0  0  0
   -7.2390   22.4050  -32.3990 N   0  0  0  0  0  0  0  0  0  0  0  0
   -6.9856   18.1122  -31.1322 H   0  0  0  0  0  0  0  0  0  0  0  0
   -7.5829   17.4170  -32.6770 H   0  0  0  0  0  0  0  0  0  0  0  0
   -6.7076   18.9856  -32.6770 H   0  0  0  0  0  0  0  0  0  0  0  0
   -9.5518   18.4544  -32.3182 H   0  0  0  0  0  0  0  0  0  0  0  0
   -8.8610   19.3039  -30.8670 H   0  0  0  0  0  0  0  0  0  0  0  0
   -8.2234   20.3151  -33.6411 H   0  0  0  0  0  0  0  0  0  0  0  0
   -9.8174   20.7007  -32.8661 H   0  0  0  0  0  0  0  0  0  0  0  0
   -6.0021   24.7738  -32.3667 H   0  0  0  0  0  0  0  0  0  0  0  0
   -6.3523   25.0574  -30.5955 H   0  0  0  0  0  0  0  0  0  0  0  0
   -3.4775   25.7074  -30.5594 H   0  0  0  0  0  0  0  0  0  0  0  0
   -4.7976   25.3284  -29.3895 H   0  0  0  0  0  0  0  0  0  0  0  0
   -3.5464   23.7314  -28.2708 H   0  0  0  0  0  0  0  0  0  0  0  0
   -2.5175   23.3898  -29.7346 H   0  0  0  0  0  0  0  0  0  0  0  0
   -1.9899   26.0743  -29.0479 H   0  0  0  0  0  0  0  0  0  0  0  0
   -2.0084   25.1512  -27.4871 H   0  0  0  0  0  0  0  0  0  0  0  0
   -0.6473   22.4723  -28.4687 H   0  0  0  0  0  0  0  0  0  0  0  0
   -1.5193   23.0105  -29.9441 H   0  0  0  0  0  0  0  0  0  0  0  0
    0.2747   22.9194  -29.9441 H   0  0  0  0  0  0  0  0  0  0  0  0
   -0.3275   24.5647  -26.7678 H   0  0  0  0  0  0  0  0  0  0  0  0
    1.0158   23.7805  -27.6661 H   0  0  0  0  0  0  0  0  0  0  0  0
    0.8595   25.5700  -27.6661 H   0  0  0  0  0  0  0  0  0  0  0  0
   -3.7745   22.5067  -29.7279 H   0  0  0  0  0  0  0  0  0  0  0  0
   -5.4342   22.1473  -30.3556 H   0  0  0  0  0  0  0  0  0  0  0  0
   -1.8773   22.6226  -31.5307 H   0  0  0  0  0  0  0  0  0  0  0  0
   -0.8957   21.2826  -33.3938 H   0  0  0  0  0  0  0  0  0  0  0  0
   -2.3074   19.6355  -34.6300 H   0  0  0  0  0  0  0  0  0  0  0  0
   -5.6944   20.6615  -32.1411 H   0  0  0  0  0  0  0  0  0  0  0  0
   -6.8630   22.4700  -33.3710 H   0  0  0  0  0  0  0  0  0  0  0  0
  1  2  1  0
  2  3  1  0
  3  4  1  0
  4  5  2  0
  5  6  1  0
  6  7  1  0
  7  8  1  0
  8  9  1  0
  9 10  1  0
 10 11  1  0
 11 12  1  0
 12 13  1  0
 13 14  1  0
 13 15  1  0
  9 16  1  0
 16 17  1  0
 17 18  2  0
 18 19  1  0
 19 20  2  0
 20 21  1  0
 21 22  1  0
 21 23  2  0
  7 24  2  0
 24  4  1  0
 23 17  1  0
  1 25  1  0
  1 26  1  0
  1 27  1  0
  2 28  1  0
  2 29  1  0
  3 30  1  0
  3 31  1  0
  8 32  1  0
  8 33  1  0
 10 34  1  0
 10 35  1  0
 11 36  1  0
 11 37  1  0
 12 38  1  0
 12 39  1  0
 14 40  1  0
 14 41  1  0
 14 42  1  0
 15 43  1  0
 15 44  1  0
 15 45  1  0
 16 46  1  0
 16 47  1  0
 18 48  1  0
 19 49  1  0
 20 50  1  0
 23 51  1  0
 24 52  1  0
M  CHG  1  24   1
M  END
>  <UniqueID>  (22) 
20

>  <SMILES>  (22) 
CCCc1noc(CN(CCCN(C)C)Cc2cccc(F)c2)[nH+]1

>  <Energy>  (22) 
81.32421508945531

>  <Genealogy>  (22) 
CCCc1noc(CN(CCCN(C)C)Cc2cccc(F)c2)[nH+]1 (protonated)
CCCc1noc(CN(CCCN(C)C)Cc2cccc(F)c2)[nH+]1 (3D coordinates assigned)
CCCc1noc(CN(CCCN(C)C)Cc2cccc(F)c2)[nH+]1 (optimized conformer: 81.32421508945531 kcal/mol)

>  <smiles>  (22) 
CCCc1noc(CN(CCCN(C)C)Cc2cccc(F)c2)n1

>  <score_type>  (22) 
oracle

>  <origin>  (22) 
adg

>  <m_score__min__energy>  (22) 
-6.54

>  <m_primary>  (22) 
energy

$$$$
22:0
     RDKit          3D

 28 30  0  0  0  0  0  0  0  0999 V2000
   -4.2653   18.2663  -34.9882 H   0  0  0  0  0  0  0  0  0  0  0  0
   -5.1640   18.2550  -34.3540 C   0  0  0  0  0  0  0  0  0  0  0  0
   -5.7670   17.0740  -34.0560 N   0  0  0  0  0  0  0  0  0  0  0  0
   -6.8780   17.0150  -33.2770 C   0  0  0  0  0  0  0  0  0  0  0  0
   -7.3413   16.0424  -33.0549 H   0  0  0  0  0  0  0  0  0  0  0  0
   -7.4360   18.1910  -32.7550 C   0  0  0  0  0  0  0  0  0  0  0  0
   -8.5770   18.1450  -31.9510 C   0  0  0  0  0  0  0  0  0  0  0  0
   -9.0594   17.1824  -31.7259 H   0  0  0  0  0  0  0  0  0  0  0  0
   -9.0980   19.3300  -31.4370 C   0  0  0  0  0  0  0  0  0  0  0  0
   -9.9923   19.3001  -30.7973 H   0  0  0  0  0  0  0  0  0  0  0  0
   -8.5110   20.5230  -31.7190 N   0  0  0  0  0  0  0  0  0  0  0  0
   -8.9220   21.3670  -31.2630 H   0  0  0  0  0  0  0  0  0  0  0  0
   -7.4050   20.6160  -32.5240 C   0  0  0  0  0  0  0  0  0  0  0  0
   -6.8500   21.7700  -32.7880 N   0  0  0  0  0  0  0  0  0  0  0  0
   -5.9790   22.5360  -31.9430 C   0  0  0  0  0  0  0  0  0  0  0  0
   -4.6000   22.2990  -31.9910 C   0  0  0  0  0  0  0  0  0  0  0  0
   -4.2027   21.5030  -32.6380 H   0  0  0  0  0  0  0  0  0  0  0  0
   -3.7260   23.0710  -31.2190 C   0  0  0  0  0  0  0  0  0  0  0  0
   -2.6451   22.8687  -31.2469 H   0  0  0  0  0  0  0  0  0  0  0  0
   -4.2220   24.0990  -30.4120 C   0  0  0  0  0  0  0  0  0  0  0  0
   -3.3650   24.8420  -29.6690 F   0  0  0  0  0  0  0  0  0  0  0  0
   -5.5970   24.3650  -30.3870 C   0  0  0  0  0  0  0  0  0  0  0  0
   -6.2300   25.6720  -29.3980 Cl  0  0  0  0  0  0  0  0  0  0  0  0
   -6.4720   23.5940  -31.1600 C   0  0  0  0  0  0  0  0  0  0  0  0
   -7.5492   23.8166  -31.1549 H   0  0  0  0  0  0  0  0  0  0  0  0
   -6.8310   19.4340  -33.0470 C   0  0  0  0  0  0  0  0  0  0  0  0
   -5.6800   19.4530  -33.8590 C   0  0  0  0  0  0  0  0  0  0  0  0
   -5.1905   20.4077  -34.1016 H   0  0  0  0  0  0  0  0  0  0  0  0
  1  2  1  0
  2  3  2  0
  3  4  1  0
  4  5  1  0
  4  6  2  0
  6  7  1  0
  7  8  1  0
  7  9  2  0
  9 10  1  0
  9 11  1  0
 11 12  1  0
 11 13  1  0
 13 14  2  0
 14 15  1  0
 15 16  2  0
 16 17  1  0
 16 18  1  0
 18 19  1  0
 18 20  2  0
 20 21  1  0
 20 22  1  0
 22 23  1  0
 22 24  2  0
 24 25  1  0
 13 26  1  0
 26 27  2  0
 27 28  1  0
 27  2  1  0
 26  6  1  0
 24 15  1  0
M  END
>  <UniqueID>  (23) 
21

>  <SMILES>  (23) 
Fc1ccc(/N=c2\[nH]ccc3cnccc23)cc1Cl

>  <Energy>  (23) 
46.00369839678497

>  <Genealogy>  (23) 
Fc1ccc(/N=c2\[nH]ccc3cnccc23)cc1Cl (cis-trans isomerization)
Fc1ccc(/N=c2\[nH]ccc3cnccc23)cc1Cl (3D coordinates assigned)
Fc1ccc(/N=c2\[nH]ccc3cnccc23)cc1Cl (optimized conformer: 46.00369839678497 kcal/mol)

>  <smiles>  (23) 
Fc1ccc(N=c2[nH]ccc3cnccc23)cc1Cl

>  <score_type>  (23) 
oracle

>  <origin>  (23) 
adg

>  <m_score__min__energy>  (23) 
-7.3600000000000003

>  <m_primary>  (23) 
energy

$$$$
23:0
     RDKit          3D

 31 33  0  0  0  0  0  0  0  0999 V2000
   -4.0640   18.2830  -33.3120 C   0  0  0  0  0  0  0  0  0  0  0  0
   -5.3910   18.8240  -32.8810 C   0  0  0  0  0  0  0  0  0  0  0  0
   -6.6320   18.1920  -32.9430 C   0  0  0  0  0  0  0  0  0  0  0  0
   -6.8710   16.8070  -33.4730 C   0  0  0  0  0  0  0  0  0  0  0  0
   -7.6070   19.0090  -32.4560 N   0  0  0  0  0  0  0  0  0  0  0  0
   -9.0360   18.6940  -32.3590 C   0  0  0  0  0  0  0  0  0  0  0  0
   -6.9880   20.1590  -32.0830 C   0  0  0  0  0  0  0  0  0  0  0  0
   -7.5290   21.3320  -31.5180 C   0  0  0  0  0  0  0  0  0  0  0  0
   -8.9410   21.4680  -31.2390 C   0  0  0  0  0  0  0  0  0  0  0  0
  -10.0730   21.5710  -31.0200 N   0  0  0  0  0  0  0  0  0  0  0  0
   -6.6250   22.3810  -31.2310 C   0  0  0  0  0  0  0  0  0  0  0  0
   -7.0100   23.6090  -30.6680 C   0  0  0  0  0  0  0  0  0  0  0  0
   -6.0540   24.5990  -30.4150 C   0  0  0  0  0  0  0  0  0  0  0  0
   -4.6990   24.3940  -30.7130 C   0  0  0  0  0  0  0  0  0  0  0  0
   -3.8650   25.3070  -30.4720 O   0  0  0  0  0  0  0  0  0  0  0  0
   -4.2630   23.1900  -31.2740 C   0  0  0  0  0  0  0  0  0  0  0  0
   -5.1760   22.1720  -31.5460 C   0  0  0  0  0  0  0  0  0  0  0  0
   -4.7670   21.0260  -32.0800 O   0  0  0  0  0  0  0  0  0  0  0  0
   -5.6370   20.0620  -32.3360 C   0  0  0  0  0  0  0  0  0  0  0  0
   -3.4623   18.0377  -32.4245 H   0  0  0  0  0  0  0  0  0  0  0  0
   -4.2162   17.3751  -33.9142 H   0  0  0  0  0  0  0  0  0  0  0  0
   -3.5381   19.0385  -33.9142 H   0  0  0  0  0  0  0  0  0  0  0  0
   -6.9916   16.1083  -32.6320 H   0  0  0  0  0  0  0  0  0  0  0  0
   -7.7833   16.8019  -34.0876 H   0  0  0  0  0  0  0  0  0  0  0  0
   -6.0132   16.4965  -34.0876 H   0  0  0  0  0  0  0  0  0  0  0  0
   -9.3263   18.6300  -31.2999 H   0  0  0  0  0  0  0  0  0  0  0  0
   -9.6201   19.4849  -32.8522 H   0  0  0  0  0  0  0  0  0  0  0  0
   -9.2334   17.7308  -32.8522 H   0  0  0  0  0  0  0  0  0  0  0  0
   -8.0669   23.7931  -30.4251 H   0  0  0  0  0  0  0  0  0  0  0  0
   -6.3711   25.5557  -29.9743 H   0  0  0  0  0  0  0  0  0  0  0  0
   -3.1965   23.0454  -31.5015 H   0  0  0  0  0  0  0  0  0  0  0  0
  1  2  1  0
  2  3  2  0
  3  4  1  0
  3  5  1  0
  5  6  1  0
  5  7  1  0
  7  8  1  0
  8  9  1  0
  9 10  3  0
  8 11  2  0
 11 12  1  0
 12 13  2  0
 13 14  1  0
 14 15  2  0
 14 16  1  0
 16 17  2  0
 17 18  1  0
 18 19  1  0
 19  2  1  0
 19  7  2  0
 17 11  1  0
  1 20  1  0
  1 21  1  0
  1 22  1  0
  4 23  1  0
  4 24  1  0
  4 25  1  0
  6 26  1  0
  6 27  1  0
  6 28  1  0
 12 29  1  0
 13 30  1  0
 16 31  1  0
M  END
>  <UniqueID>  (24) 
22

>  <SMILES>  (24) 
Cc1c(C)n(C)c2c(C#N)c3ccc(=O)cc-3oc12

>  <Energy>  (24) 
71.10339065345411

>  <Genealogy>  (24) 
Cc1c(C)n(C)c2c(C#N)c3ccc(=O)cc-3oc12 (3D coordinates assigned)
Cc1c(C)n(C)c2c(C#N)c3ccc(=O)cc-3oc12 (optimized conformer: 71.10339065345411 kcal/mol)

>  <smiles>  (24) 
Cc1c(C)n(C)c2c(C#N)c3ccc(=O)cc-3oc12

>  <score_type>  (24) 
oracle

>  <origin>  (24) 
adg

>  <m_score__min__energy>  (24) 
-8.1099999999999994

>  <m_primary>  (24) 
energy

$$$$
24:0
     RDKit          3D

 36 37  0  0  0  0  0  0  0  0999 V2000
   -3.7820   24.5540  -29.5760 C   0  0  0  0  0  0  0  0  0  0  0  0
   -4.2880   24.5590  -30.9540 N   0  0  0  0  0  0  0  0  0  0  0  0
   -5.3450   23.5620  -31.2290 C   0  0  1  0  0  0  0  0  0  0  0  0
   -6.5530   24.2110  -31.9470 C   0  0  0  0  0  0  0  0  0  0  0  0
   -7.7110   23.2210  -32.1710 C   0  0  0  0  0  0  0  0  0  0  0  0
   -7.6920   22.0330  -31.2060 C   0  0  0  0  0  0  0  0  0  0  0  0
   -6.8790   20.9280  -31.7360 N   0  0  0  0  0  0  0  0  0  0  0  0
   -7.4920   19.7410  -32.2770 C   0  0  0  0  0  0  0  0  0  0  0  0
   -8.6950   19.7830  -32.6560 O   0  0  0  0  0  0  0  0  0  0  0  0
   -6.7560   18.4620  -32.3500 C   0  0  0  0  0  0  0  0  0  0  0  0
   -6.4910   17.7100  -31.1940 C   0  0  0  0  0  0  0  0  0  0  0  0
   -5.7880   16.5490  -31.2940 N   0  0  0  0  0  0  0  0  0  0  0  0
   -5.3300   16.1070  -32.4950 C   0  0  0  0  0  0  0  0  0  0  0  0
   -5.5810   16.8570  -33.6440 C   0  0  0  0  0  0  0  0  0  0  0  0
   -6.2820   18.0160  -33.5450 N   0  0  0  0  0  0  0  0  0  0  0  0
   -5.4280   20.9640  -31.5200 C   0  0  0  0  0  0  0  0  0  0  0  0
   -4.7920   22.3010  -31.9490 C   0  0  0  0  0  0  0  0  0  0  0  0
   -4.6291   24.5624  -28.8743 H   0  0  0  0  0  0  0  0  0  0  0  0
   -3.1777   23.6498  -29.4106 H   0  0  0  0  0  0  0  0  0  0  0  0
   -3.1600   25.4460  -29.4106 H   0  0  0  0  0  0  0  0  0  0  0  0
   -4.6600   25.5160  -31.1630 H   0  0  0  0  0  0  0  0  0  0  0  0
   -5.7231   23.1948  -30.2635 H   0  0  0  0  0  0  0  0  0  0  0  0
   -6.9188   25.0481  -31.3343 H   0  0  0  0  0  0  0  0  0  0  0  0
   -6.2097   24.5510  -32.9352 H   0  0  0  0  0  0  0  0  0  0  0  0
   -8.6607   23.7605  -32.0409 H   0  0  0  0  0  0  0  0  0  0  0  0
   -7.5985   22.8151  -33.1872 H   0  0  0  0  0  0  0  0  0  0  0  0
   -7.2699   22.3593  -30.2440 H   0  0  0  0  0  0  0  0  0  0  0  0
   -8.7237   21.6742  -31.0761 H   0  0  0  0  0  0  0  0  0  0  0  0
   -6.8494   18.0572  -30.2137 H   0  0  0  0  0  0  0  0  0  0  0  0
   -5.5970   15.9880  -30.4330 H   0  0  0  0  0  0  0  0  0  0  0  0
   -4.7657   15.1650  -32.5603 H   0  0  0  0  0  0  0  0  0  0  0  0
   -5.2142   16.5126  -34.6222 H   0  0  0  0  0  0  0  0  0  0  0  0
   -5.2282   20.8075  -30.4497 H   0  0  0  0  0  0  0  0  0  0  0  0
   -4.9818   20.1718  -32.1392 H   0  0  0  0  0  0  0  0  0  0  0  0
   -3.7118   22.2426  -31.7499 H   0  0  0  0  0  0  0  0  0  0  0  0
   -5.0384   22.4267  -33.0137 H   0  0  0  0  0  0  0  0  0  0  0  0
  1  2  1  0
  2  3  1  0
  3  4  1  0
  4  5  1  0
  5  6  1  0
  6  7  1  0
  7  8  1  0
  8  9  2  0
  8 10  1  0
 10 11  2  0
 11 12  1  0
 12 13  2  0
 13 14  1  0
 14 15  2  0
  7 16  1  0
 16 17  1  0
 17  3  1  0
 15 10  1  0
  1 18  1  0
  1 19  1  0
  1 20  1  0
  2 21  1  0
  3 22  1  1
  4 23  1  0
  4 24  1  0
  5 25  1  0
  5 26  1  0
  6 27  1  0
  6 28  1  0
 11 29  1  0
 12 30  1  0
 13 31  1  0
 14 32  1  0
 16 33  1  0
 16 34  1  0
 17 35  1  0
 17 36  1  0
M  CHG  1  12   1
M  END
>  <UniqueID>  (25) 
23

>  <SMILES>  (25) 
CN[C@H]1CCCN(C(=O)c2c[nH+]ccn2)CC1

>  <Energy>  (25) 
44.81002092417745

>  <Genealogy>  (25) 
CNC1CCCN(C(=O)c2c[nH+]ccn2)CC1 (protonated)
CN[C@H]1CCCN(C(=O)c2c[nH+]ccn2)CC1 (chirality)
CN[C@H]1CCCN(C(=O)c2c[nH+]ccn2)CC1 (3D coordinates assigned)
CN[C@H]1CCCN(C(=O)c2c[nH+]ccn2)CC1 (nonaromatic ring conformer: 44.81002092417745 kcal/mol)

>  <smiles>  (25) 
CNC1CCCN(C(=O)c2cnccn2)CC1

>  <score_type>  (25) 
oracle

>  <origin>  (25) 
adg

>  <m_score__min__energy>  (25) 
-4.8700000000000001

>  <m_primary>  (25) 
energy

$$$$
25:0
     RDKit          3D

 35 38  0  0  0  0  0  0  0  0999 V2000
   -2.2100   24.9220  -28.6820 C   0  0  0  0  0  0  0  0  0  0  0  0
   -3.1160   25.2940  -29.7170 O   0  0  0  0  0  0  0  0  0  0  0  0
   -4.2600   24.5620  -30.0690 C   0  0  0  0  0  0  0  0  0  0  0  0
   -5.5620   25.0600  -29.8790 C   0  0  0  0  0  0  0  0  0  0  0  0
   -6.6680   24.2930  -30.2480 C   0  0  0  0  0  0  0  0  0  0  0  0
   -6.4930   23.0210  -30.8100 C   0  0  0  0  0  0  0  0  0  0  0  0
   -5.1980   22.5140  -31.0040 C   0  0  0  0  0  0  0  0  0  0  0  0
   -4.0900   23.2920  -30.6310 C   0  0  0  0  0  0  0  0  0  0  0  0
   -4.9640   21.1510  -31.6050 C   0  0  0  0  0  0  0  0  0  0  0  0
   -6.2170   20.3750  -31.9800 C   0  0  0  0  0  0  0  0  0  0  0  0
   -7.4950   20.9370  -31.7600 C   0  0  0  0  0  0  0  0  0  0  0  0
   -8.6480   20.2230  -32.1070 C   0  0  0  0  0  0  0  0  0  0  0  0
   -8.5560   18.9540  -32.6690 C   0  0  0  0  0  0  0  0  0  0  0  0
   -7.3060   18.3720  -32.8980 C   0  0  0  0  0  0  0  0  0  0  0  0
   -7.2260   17.0910  -33.4670 C   0  0  0  0  0  0  0  0  0  0  0  0
   -5.9840   16.5010  -33.7000 C   0  0  0  0  0  0  0  0  0  0  0  0
   -4.8130   17.1810  -33.3680 C   0  0  0  0  0  0  0  0  0  0  0  0
   -4.8740   18.4560  -32.8020 C   0  0  0  0  0  0  0  0  0  0  0  0
   -6.1200   19.0770  -32.5560 C   0  0  0  0  0  0  0  0  0  0  0  0
   -7.6320   22.2420  -31.1840 N   0  0  0  0  0  0  0  0  0  0  0  0
   -2.6737   25.1124  -27.7029 H   0  0  0  0  0  0  0  0  0  0  0  0
   -1.9696   23.8524  -28.7721 H   0  0  0  0  0  0  0  0  0  0  0  0
   -1.2873   25.5141  -28.7721 H   0  0  0  0  0  0  0  0  0  0  0  0
   -5.7087   26.0571  -29.4382 H   0  0  0  0  0  0  0  0  0  0  0  0
   -7.6830   24.6891  -30.0969 H   0  0  0  0  0  0  0  0  0  0  0  0
   -3.0744   22.8975  -30.7828 H   0  0  0  0  0  0  0  0  0  0  0  0
   -4.3613   21.2816  -32.5159 H   0  0  0  0  0  0  0  0  0  0  0  0
   -4.4655   20.5588  -30.8235 H   0  0  0  0  0  0  0  0  0  0  0  0
   -9.6377   20.6705  -31.9333 H   0  0  0  0  0  0  0  0  0  0  0  0
   -9.4718   18.4056  -32.9346 H   0  0  0  0  0  0  0  0  0  0  0  0
   -8.1471   16.5503  -33.7302 H   0  0  0  0  0  0  0  0  0  0  0  0
   -5.9282   15.4973  -34.1466 H   0  0  0  0  0  0  0  0  0  0  0  0
   -3.8360   16.7106  -33.5529 H   0  0  0  0  0  0  0  0  0  0  0  0
   -3.9431   18.9826  -32.5449 H   0  0  0  0  0  0  0  0  0  0  0  0
   -8.5890   22.6360  -31.0310 H   0  0  0  0  0  0  0  0  0  0  0  0
  1  2  1  0
  2  3  1  0
  3  4  2  0
  4  5  1  0
  5  6  2  0
  6  7  1  0
  7  8  2  0
  7  9  1  0
  9 10  1  0
 10 11  2  0
 11 12  1  0
 12 13  2  0
 13 14  1  0
 14 15  2  0
 15 16  1  0
 16 17  2  0
 17 18  1  0
 18 19  2  0
 11 20  1  0
  8  3  1  0
 19 10  1  0
 20  6  1  0
 19 14  1  0
  1 21  1  0
  1 22  1  0
  1 23  1  0
  4 24  1  0
  5 25  1  0
  8 26  1  0
  9 27  1  0
  9 28  1  0
 12 29  1  0
 13 30  1  0
 15 31  1  0
 16 32  1  0
 17 33  1  0
 18 34  1  0
 20 35  1  0
M  END
>  <UniqueID>  (26) 
24

>  <SMILES>  (26) 
COc1ccc2c(c1)Cc1c(ccc3ccccc13)N2

>  <Energy>  (26) 
47.25507956934247

>  <Genealogy>  (26) 
COc1ccc2c(c1)Cc1c(ccc3ccccc13)N2 (3D coordinates assigned)
COc1ccc2c(c1)Cc1c(ccc3ccccc13)N2 (nonaromatic ring conformer: 47.25507956934247 kcal/mol)

>  <smiles>  (26) 
COc1ccc2c(c1)Cc1c(ccc3ccccc13)N2

>  <score_type>  (26) 
oracle

>  <origin>  (26) 
adg

>  <m_score__min__energy>  (26) 
-8.7799999999999994

>  <m_primary>  (26) 
energy

$$$$
26:0
     RDKit          3D

 41 42  0  0  1  0  0  0  0  0999 V2000
   -1.5350   25.2350  -28.2180 C   0  0  0  0  0  0  0  0  0  0  0  0
   -1.8040   23.8150  -28.5770 C   0  0  0  0  0  0  0  0  0  0  0  0
   -2.9830   23.2270  -28.0500 N   0  0  0  0  0  0  0  0  0  0  0  0
   -3.2810   21.8940  -28.4290 C   0  0  0  0  0  0  0  0  0  0  0  0
   -2.6990   20.8550  -27.4920 C   0  0  0  0  0  0  0  0  0  0  0  0
   -4.0520   24.1780  -28.1500 C   0  0  0  0  0  0  0  0  0  0  0  0
   -5.1040   23.7840  -29.1620 C   0  0  0  0  0  0  0  0  0  0  0  0
   -4.7390   24.3690  -30.4520 C   0  0  0  0  0  0  0  0  0  0  0  0
   -3.8660   25.2980  -30.5400 O   0  0  0  0  0  0  0  0  0  0  0  0
   -5.3380   23.9250  -31.6230 N   0  0  0  0  0  0  0  0  0  0  0  0
   -6.3300   23.1360  -31.7510 C   0  0  0  0  0  0  0  0  0  0  0  0
   -6.0700   21.8550  -32.2030 C   0  0  0  0  0  0  0  0  0  0  0  0
   -7.1580   21.0030  -32.3370 C   0  0  0  0  0  0  0  0  0  0  0  0
   -6.9230   19.6750  -32.8040 N   0  0  0  0  0  0  0  0  0  0  0  0
   -5.9960   19.2820  -33.7030 C   0  0  0  0  0  0  0  0  0  0  0  0
   -6.1030   17.9140  -33.8830 C   0  0  0  0  0  0  0  0  0  0  0  0
   -7.1370   17.5280  -33.0470 C   0  0  0  0  0  0  0  0  0  0  0  0
   -7.6290   18.6050  -32.3950 N   0  0  0  0  0  0  0  0  0  0  0  0
   -8.3970   21.4620  -32.0230 N   0  0  0  0  0  0  0  0  0  0  0  0
   -8.5730   22.7330  -31.5860 C   0  0  0  0  0  0  0  0  0  0  0  0
   -7.5480   23.5910  -31.4420 N   0  0  0  0  0  0  0  0  0  0  0  0
   -1.5153   25.3390  -27.1231 H   0  0  0  0  0  0  0  0  0  0  0  0
   -0.5630   25.5403  -28.6329 H   0  0  0  0  0  0  0  0  0  0  0  0
   -2.3279   25.8746  -28.6329 H   0  0  0  0  0  0  0  0  0  0  0  0
   -1.8663   23.7566  -29.6737 H   0  0  0  0  0  0  0  0  0  0  0  0
   -0.9769   23.2463  -28.1271 H   0  0  0  0  0  0  0  0  0  0  0  0
   -4.3742   21.7732  -28.4471 H   0  0  0  0  0  0  0  0  0  0  0  0
   -2.8268   21.7293  -29.4172 H   0  0  0  0  0  0  0  0  0  0  0  0
   -2.8716   21.1631  -26.4502 H   0  0  0  0  0  0  0  0  0  0  0  0
   -3.1851   19.8849  -27.6728 H   0  0  0  0  0  0  0  0  0  0  0  0
   -1.6179   20.7628  -27.6728 H   0  0  0  0  0  0  0  0  0  0  0  0
   -4.5316   24.2704  -27.1644 H   0  0  0  0  0  0  0  0  0  0  0  0
   -3.6140   25.1295  -28.4859 H   0  0  0  0  0  0  0  0  0  0  0  0
   -5.1456   22.6882  -29.2485 H   0  0  0  0  0  0  0  0  0  0  0  0
   -6.0919   24.1494  -28.8450 H   0  0  0  0  0  0  0  0  0  0  0  0
   -5.0485   21.5264  -32.4451 H   0  0  0  0  0  0  0  0  0  0  0  0
   -5.2746   19.9404  -34.2090 H   0  0  0  0  0  0  0  0  0  0  0  0
   -5.4998   17.2745  -34.5442 H   0  0  0  0  0  0  0  0  0  0  0  0
   -7.5038   16.4975  -32.9306 H   0  0  0  0  0  0  0  0  0  0  0  0
   -9.1780   20.7820  -32.1440 H   0  0  0  0  0  0  0  0  0  0  0  0
   -9.5896   23.0742  -31.3407 H   0  0  0  0  0  0  0  0  0  0  0  0
  1  2  1  0
  2  3  1  0
  3  4  1  0
  4  5  1  0
  3  6  1  0
  6  7  1  0
  7  8  1  0
  8  9  2  0
  8 10  1  0
 10 11  2  0
 11 12  1  0
 12 13  2  0
 13 14  1  0
 14 15  1  0
 15 16  2  0
 16 17  1  0
 17 18  2  0
 13 19  1  0
 19 20  1  0
 20 21  2  0
 21 11  1  0
 18 14  1  0
  1 22  1  0
  1 23  1  0
  1 24  1  0
  2 25  1  0
  2 26  1  0
  4 27  1  0
  4 28  1  0
  5 29  1  0
  5 30  1  0
  5 31  1  0
  6 32  1  0
  6 33  1  0
  7 34  1  0
  7 35  1  0
 12 36  1  0
 15 37  1  0
 16 38  1  0
 17 39  1  0
 19 40  1  0
 20 41  1  0
M  END
>  <smiles>  (27) 
CCN(CC)CCC(=O)N=c1cc(-n2cccn2)[nH]cn1

>  <score_type>  (27) 
oracle

>  <origin>  (27) 
adg

>  <m_score__min__energy>  (27) 
-6.9199999999999999

>  <m_primary>  (27) 
energy

$$$$
27:0
     RDKit          3D

 41 43  0  0  0  0  0  0  0  0999 V2000
   -2.0430   21.2390  -27.8260 C   0  0  0  0  0  0  0  0  0  0  0  0
   -1.9670   22.6760  -28.2320 C   0  0  0  0  0  0  0  0  0  0  0  0
   -1.0280   23.5310  -27.6470 C   0  0  0  0  0  0  0  0  0  0  0  0
   -1.0030   24.8660  -28.0510 C   0  0  0  0  0  0  0  0  0  0  0  0
   -1.8800   25.3080  -28.9890 N   0  0  0  0  0  0  0  0  0  0  0  0
   -2.7890   24.4680  -29.5500 C   0  0  0  0  0  0  0  0  0  0  0  0
   -3.6180   24.9250  -30.4370 N   0  0  0  0  0  0  0  0  0  0  0  0
   -5.3030   24.5110  -30.4840 S   0  0  0  0  0  0  0  0  0  0  0  0
   -5.8150   24.3570  -29.0800 O   0  0  0  0  0  0  0  0  0  0  0  0
   -6.0690   25.6160  -31.1570 O   0  0  0  0  0  0  0  0  0  0  0  0
   -5.5200   22.9890  -31.3440 C   0  0  0  0  0  0  0  0  0  0  0  0
   -6.5640   22.1300  -30.9790 C   0  0  0  0  0  0  0  0  0  0  0  0
   -6.7280   20.9030  -31.6290 C   0  0  0  0  0  0  0  0  0  0  0  0
   -5.8360   20.5140  -32.6460 C   0  0  0  0  0  0  0  0  0  0  0  0
   -5.9930   19.2650  -33.3420 N   0  0  0  0  0  0  0  0  0  0  0  0
   -5.0470   18.1850  -33.2680 C   0  0  0  0  0  0  0  0  0  0  0  0
   -3.8550   18.4220  -32.9310 O   0  0  0  0  0  0  0  0  0  0  0  0
   -5.4410   16.8030  -33.6340 C   0  0  0  0  0  0  0  0  0  0  0  0
   -6.7930   16.4910  -33.8700 C   0  0  0  0  0  0  0  0  0  0  0  0
   -7.1720   15.1920  -34.2210 C   0  0  0  0  0  0  0  0  0  0  0  0
   -6.2050   14.1900  -34.3460 C   0  0  0  0  0  0  0  0  0  0  0  0
   -6.5740   12.9310  -34.6870 F   0  0  0  0  0  0  0  0  0  0  0  0
   -4.8590   14.4890  -34.1230 C   0  0  0  0  0  0  0  0  0  0  0  0
   -4.4750   15.7870  -33.7720 C   0  0  0  0  0  0  0  0  0  0  0  0
   -4.8040   21.3870  -33.0190 C   0  0  0  0  0  0  0  0  0  0  0  0
   -4.6420   22.6130  -32.3690 C   0  0  0  0  0  0  0  0  0  0  0  0
   -2.8230   23.1610  -29.1680 N   0  0  0  0  0  0  0  0  0  0  0  0
   -2.0468   21.1678  -26.7283 H   0  0  0  0  0  0  0  0  0  0  0  0
   -2.9660   20.7934  -28.2255 H   0  0  0  0  0  0  0  0  0  0  0  0
   -1.1722   20.6986  -28.2255 H   0  0  0  0  0  0  0  0  0  0  0  0
   -0.3256   23.1598  -26.8862 H   0  0  0  0  0  0  0  0  0  0  0  0
   -0.2730   25.5606  -27.6098 H   0  0  0  0  0  0  0  0  0  0  0  0
   -7.2582   22.4219  -30.1772 H   0  0  0  0  0  0  0  0  0  0  0  0
   -7.5575   20.2390  -31.3444 H   0  0  0  0  0  0  0  0  0  0  0  0
   -6.7780   19.1850  -34.0280 H   0  0  0  0  0  0  0  0  0  0  0  0
   -7.5580   17.2760  -33.7775 H   0  0  0  0  0  0  0  0  0  0  0  0
   -8.2320   14.9580  -34.3990 H   0  0  0  0  0  0  0  0  0  0  0  0
   -4.0984   13.7007  -34.2238 H   0  0  0  0  0  0  0  0  0  0  0  0
   -3.4125   16.0160  -33.6027 H   0  0  0  0  0  0  0  0  0  0  0  0
   -4.1165   21.1043  -33.8298 H   0  0  0  0  0  0  0  0  0  0  0  0
   -3.8224   23.2853  -32.6629 H   0  0  0  0  0  0  0  0  0  0  0  0
  1  2  1  0
  2  3  1  0
  3  4  2  0
  4  5  1  0
  5  6  1  0
  6  7  2  3
  7  8  1  0
  8  9  2  0
  8 10  2  0
  8 11  1  0
 11 12  2  0
 12 13  1  0
 13 14  2  0
 14 15  1  0
 15 16  1  0
 16 17  2  0
 16 18  1  0
 18 19  2  0
 19 20  1  0
 20 21  2  0
 21 22  1  0
 21 23  1  0
 23 24  2  0
 14 25  1  0
 25 26  2  0
  6 27  1  0
 27  2  2  0
 26 11  1  0
 24 18  1  0
  1 28  1  0
  1 29  1  0
  1 30  1  0
  3 31  1  0
  4 32  1  0
 12 33  1  0
 13 34  1  0
 15 35  1  0
 19 36  1  0
 20 37  1  0
 23 38  1  0
 24 39  1  0
 25 40  1  0
 26 41  1  0
M  CHG  1   5  -1
M  END
>  <UniqueID>  (28) 
25

>  <SMILES>  (28) 
Cc1cc[n-]c(=NS(=O)(=O)c2ccc(NC(=O)c3ccc(F)cc3)cc2)n1

>  <Energy>  (28) 
51.39849096445943

>  <Genealogy>  (28) 
Cc1cc[n-]c(=NS(=O)(=O)c2ccc(NC(=O)c3ccc(F)cc3)cc2)n1 (protonated)
Cc1cc[n-]c(=NS(=O)(=O)c2ccc(NC(=O)c3ccc(F)cc3)cc2)n1 (3D coordinates assigned)
Cc1cc[n-]c(=NS(=O)(=O)c2ccc(NC(=O)c3ccc(F)cc3)cc2)n1 (optimized conformer: 51.39849096445943 kcal/mol)

>  <smiles>  (28) 
Cc1cc[nH]c(=NS(=O)(=O)c2ccc(NC(=O)c3ccc(F)cc3)cc2)n1

>  <score_type>  (28) 
oracle

>  <origin>  (28) 
adg

>  <m_score__min__energy>  (28) 
-9.4000000000000004

>  <m_primary>  (28) 
energy

$$$$
28:0
     RDKit          3D

 46 49  0  0  0  0  0  0  0  0999 V2000
   -1.2050   23.3270  -25.7120 H   0  0  0  0  0  0  0  0  0  0  0  0
   -1.7580   23.6660  -26.5270 N   0  0  0  0  0  0  0  0  0  0  0  0
   -1.4380   24.6920  -27.2520 C   0  0  0  0  0  0  0  0  0  0  0  0
   -0.9860   25.8920  -26.7660 C   0  0  0  0  0  0  0  0  0  0  0  0
   -0.6850   26.5150  -25.5590 C   0  0  0  0  0  0  0  0  0  0  0  0
   -0.8130   25.8700  -24.2130 C   0  0  0  0  0  0  0  0  0  0  0  0
   -0.6629   26.6261  -23.4283 H   0  0  0  0  0  0  0  0  0  0  0  0
   -1.8160   25.4299  -24.1112 H   0  0  0  0  0  0  0  0  0  0  0  0
   -0.0541   25.0803  -24.1112 H   0  0  0  0  0  0  0  0  0  0  0  0
   -0.3540   27.8680  -25.7890 C   0  0  0  0  0  0  0  0  0  0  0  0
   -0.0000   28.8660  -24.7350 C   0  0  0  0  0  0  0  0  0  0  0  0
   -0.1577   28.4214  -23.7413 H   0  0  0  0  0  0  0  0  0  0  0  0
    1.0556   29.1554  -24.8439 H   0  0  0  0  0  0  0  0  0  0  0  0
   -0.6373   29.7559  -24.8439 H   0  0  0  0  0  0  0  0  0  0  0  0
   -0.4270   28.2340  -27.4660 S   0  0  0  0  0  0  0  0  0  0  0  0
   -0.8820   26.6720  -27.8470 C   0  0  0  0  0  0  0  0  0  0  0  0
   -1.2390   26.0470  -28.9800 N   0  0  0  0  0  0  0  0  0  0  0  0
   -1.5740   24.8080  -28.6110 N   0  0  0  0  0  0  0  0  0  0  0  0
   -1.9900   23.8190  -29.5680 C   0  0  0  0  0  0  0  0  0  0  0  0
   -3.3000   23.6650  -29.8900 N   0  0  0  0  0  0  0  0  0  0  0  0
   -3.7200   22.7130  -30.7680 C   0  0  0  0  0  0  0  0  0  0  0  0
   -5.1680   22.6010  -31.0790 C   0  0  0  0  0  0  0  0  0  0  0  0
   -6.0330   23.6570  -30.7560 C   0  0  0  0  0  0  0  0  0  0  0  0
   -5.6335   24.5575  -30.2667 H   0  0  0  0  0  0  0  0  0  0  0  0
   -7.3950   23.5770  -31.0490 C   0  0  0  0  0  0  0  0  0  0  0  0
   -8.0592   24.4121  -30.7819 H   0  0  0  0  0  0  0  0  0  0  0  0
   -7.9260   22.4420  -31.6810 C   0  0  0  0  0  0  0  0  0  0  0  0
   -9.4010   22.3850  -31.9800 C   0  0  0  0  0  0  0  0  0  0  0  0
   -9.9658   22.3632  -31.0363 H   0  0  0  0  0  0  0  0  0  0  0  0
   -9.6919   23.2726  -32.5610 H   0  0  0  0  0  0  0  0  0  0  0  0
   -9.6226   21.4776  -32.5610 H   0  0  0  0  0  0  0  0  0  0  0  0
   -7.0670   21.3690  -32.0150 C   0  0  0  0  0  0  0  0  0  0  0  0
   -7.5890   20.1380  -32.7080 C   0  0  0  0  0  0  0  0  0  0  0  0
   -7.9024   19.3989  -31.9560 H   0  0  0  0  0  0  0  0  0  0  0  0
   -8.4498   20.4086  -33.3371 H   0  0  0  0  0  0  0  0  0  0  0  0
   -6.7961   19.7073  -33.3371 H   0  0  0  0  0  0  0  0  0  0  0  0
   -5.6940   21.4640  -31.7210 C   0  0  0  0  0  0  0  0  0  0  0  0
   -5.0222   20.6378  -31.9969 H   0  0  0  0  0  0  0  0  0  0  0  0
   -2.7700   21.8500  -31.3350 C   0  0  0  0  0  0  0  0  0  0  0  0
   -3.0785   21.0610  -32.0367 H   0  0  0  0  0  0  0  0  0  0  0  0
   -1.4240   22.0110  -30.9920 C   0  0  0  0  0  0  0  0  0  0  0  0
   -0.3840   21.0920  -31.5500 C   0  0  0  0  0  0  0  0  0  0  0  0
    0.1608   20.6106  -30.7245 H   0  0  0  0  0  0  0  0  0  0  0  0
   -0.8687   20.3218  -32.1679 H   0  0  0  0  0  0  0  0  0  0  0  0
    0.3207   21.6678  -32.1679 H   0  0  0  0  0  0  0  0  0  0  0  0
   -1.0660   22.9820  -30.1110 N   0  0  0  0  0  0  0  0  0  0  0  0
  1  2  1  0
  2  3  2  0
  3  4  1  0
  4  5  1  0
  5  6  1  0
  6  7  1  0
  6  8  1  0
  6  9  1  0
  5 10  2  0
 10 11  1  0
 11 12  1  0
 11 13  1  0
 11 14  1  0
 10 15  1  0
 15 16  1  0
 16 17  1  0
 17 18  1  0
 18 19  1  0
 19 20  2  0
 20 21  1  0
 21 22  1  0
 22 23  2  0
 23 24  1  0
 23 25  1  0
 25 26  1  0
 25 27  2  0
 27 28  1  0
 28 29  1  0
 28 30  1  0
 28 31  1  0
 27 32  1  0
 32 33  1  0
 33 34  1  0
 33 35  1  0
 33 36  1  0
 32 37  2  0
 37 38  1  0
 21 39  2  0
 39 40  1  0
 39 41  1  0
 41 42  1  0
 42 43  1  0
 42 44  1  0
 42 45  1  0
 41 46  2  0
 18  3  1  0
 46 19  1  0
 16  4  2  0
 37 22  1  0
M  CHG  1  17  -1
M  END
>  <UniqueID>  (29) 
26

>  <SMILES>  (29) 
[H]/N=c1/c2c(C)c(C)sc2[n-]n1-c1nc(C)cc(-c2ccc(C)c(C)c2)n1

>  <Energy>  (29) 
138.0650075786091

>  <Genealogy>  (29) 
Cc1cc(-c2ccc(C)c(C)c2)nc(-n2[n-]c3sc(C)c(C)c3c2=N)n1 (protonated)
[H]/N=c1/c2c(C)c(C)sc2[n-]n1-c1nc(C)cc(-c2ccc(C)c(C)c2)n1 (cis-trans isomerization)
[H]/N=c1/c2c(C)c(C)sc2[n-]n1-c1nc(C)cc(-c2ccc(C)c(C)c2)n1 (3D coordinates assigned)
[H]/N=c1/c2c(C)c(C)sc2[n-]n1-c1nc(C)cc(-c2ccc(C)c(C)c2)n1 (optimized conformer: 138.0650075786091 kcal/mol)

>  <smiles>  (29) 
Cc1cc(-c2ccc(C)c(C)c2)nc(-n2[nH]c3sc(C)c(C)c3c2=N)n1

>  <score_type>  (29) 
oracle

>  <origin>  (29) 
adg

>  <m_score__min__energy>  (29) 
-9.9199999999999999

>  <m_primary>  (29) 
energy

$$$$
29:0
     RDKit          3D

 53 55  0  0  0  0  0  0  0  0999 V2000
    0.2690   21.5000  -35.6700 C   0  0  0  0  0  0  0  0  0  0  0  0
    0.5910   21.8970  -34.3560 O   0  0  0  0  0  0  0  0  0  0  0  0
   -0.2300   21.1990  -33.4430 C   0  0  0  0  0  0  0  0  0  0  0  0
   -1.7030   21.4710  -33.7630 C   0  0  0  0  0  0  0  0  0  0  0  0
   -2.5480   21.6440  -32.4870 C   0  0  0  0  0  0  0  0  0  0  0  0
   -3.7970   20.8600  -32.5730 N   0  0  0  0  0  0  0  0  0  0  0  0
   -5.0340   21.4580  -32.4580 C   0  0  0  0  0  0  0  0  0  0  0  0
   -5.2500   23.2290  -32.1690 S   0  0  0  0  0  0  0  0  0  0  0  0
   -4.3900   23.2710  -30.5560 C   0  0  0  0  0  0  0  0  0  0  0  0
   -3.6620   24.5620  -30.3570 C   0  0  0  0  0  0  0  0  0  0  0  0
   -4.1370   25.6260  -30.8370 O   0  0  0  0  0  0  0  0  0  0  0  0
   -2.3830   24.5490  -29.7120 N   0  0  0  0  0  0  0  0  0  0  0  0
   -2.0440   25.0980  -28.4280 C   0  0  0  0  0  0  0  0  0  0  0  0
   -1.0150   26.0480  -28.2860 C   0  0  0  0  0  0  0  0  0  0  0  0
   -0.7130   26.5880  -27.0350 C   0  0  0  0  0  0  0  0  0  0  0  0
   -1.4390   26.2030  -25.9030 C   0  0  0  0  0  0  0  0  0  0  0  0
   -1.0900   26.7750  -24.5590 C   0  0  0  0  0  0  0  0  0  0  0  0
   -2.4690   25.2600  -26.0340 C   0  0  0  0  0  0  0  0  0  0  0  0
   -2.7960   24.7260  -27.2910 C   0  0  0  0  0  0  0  0  0  0  0  0
   -3.9100   23.7150  -27.3690 C   0  0  0  0  0  0  0  0  0  0  0  0
   -6.1640   20.7110  -32.5300 N   0  0  0  0  0  0  0  0  0  0  0  0
   -6.1280   19.3760  -32.7370 C   0  0  0  0  0  0  0  0  0  0  0  0
   -7.3210   18.6480  -32.8180 C   0  0  0  0  0  0  0  0  0  0  0  0
   -7.2830   17.2710  -33.0510 C   0  0  0  0  0  0  0  0  0  0  0  0
   -6.0560   16.6190  -33.2040 C   0  0  0  0  0  0  0  0  0  0  0  0
   -4.8610   17.3390  -33.1180 C   0  0  0  0  0  0  0  0  0  0  0  0
   -4.8900   18.7280  -32.8810 C   0  0  0  0  0  0  0  0  0  0  0  0
   -3.7200   19.5020  -32.7900 C   0  0  0  0  0  0  0  0  0  0  0  0
   -2.5930   18.9400  -32.9100 O   0  0  0  0  0  0  0  0  0  0  0  0
   -0.4236   20.6461  -35.6357 H   0  0  0  0  0  0  0  0  0  0  0  0
   -0.2079   22.3379  -36.1997 H   0  0  0  0  0  0  0  0  0  0  0  0
    1.1872   21.2063  -36.1997 H   0  0  0  0  0  0  0  0  0  0  0  0
   -0.0313   20.1201  -33.5232 H   0  0  0  0  0  0  0  0  0  0  0  0
   -0.0099   21.5395  -32.4204 H   0  0  0  0  0  0  0  0  0  0  0  0
   -1.7723   22.3908  -34.3623 H   0  0  0  0  0  0  0  0  0  0  0  0
   -2.0961   20.6053  -34.3162 H   0  0  0  0  0  0  0  0  0  0  0  0
   -1.9655   21.2999  -31.6196 H   0  0  0  0  0  0  0  0  0  0  0  0
   -2.8068   22.7075  -32.3778 H   0  0  0  0  0  0  0  0  0  0  0  0
   -5.1314   23.1511  -29.7523 H   0  0  0  0  0  0  0  0  0  0  0  0
   -3.6547   22.4532  -30.5353 H   0  0  0  0  0  0  0  0  0  0  0  0
   -0.4433   26.3679  -29.1697 H   0  0  0  0  0  0  0  0  0  0  0  0
    0.1013   27.3212  -26.9385 H   0  0  0  0  0  0  0  0  0  0  0  0
   -1.4882   26.1224  -23.7681 H   0  0  0  0  0  0  0  0  0  0  0  0
    0.0036   26.8430  -24.4622 H   0  0  0  0  0  0  0  0  0  0  0  0
   -1.5298   27.7786  -24.4622 H   0  0  0  0  0  0  0  0  0  0  0  0
   -3.0264   24.9354  -25.1430 H   0  0  0  0  0  0  0  0  0  0  0  0
   -4.2209   23.4328  -26.3523 H   0  0  0  0  0  0  0  0  0  0  0  0
   -4.7649   24.1520  -27.9058 H   0  0  0  0  0  0  0  0  0  0  0  0
   -3.5577   22.8219  -27.9058 H   0  0  0  0  0  0  0  0  0  0  0  0
   -8.2874   19.1597  -32.6983 H   0  0  0  0  0  0  0  0  0  0  0  0
   -8.2204   16.6988  -33.1142 H   0  0  0  0  0  0  0  0  0  0  0  0
   -6.0308   15.5356  -33.3927 H   0  0  0  0  0  0  0  0  0  0  0  0
   -3.8976   16.8213  -33.2353 H   0  0  0  0  0  0  0  0  0  0  0  0
  1  2  1  0
  2  3  1  0
  3  4  1  0
  4  5  1  0
  5  6  1  0
  6  7  1  0
  7  8  1  0
  8  9  1  0
  9 10  1  0
 10 11  2  0
 10 12  1  0
 12 13  1  0
 13 14  2  0
 14 15  1  0
 15 16  2  0
 16 17  1  0
 16 18  1  0
 18 19  2  0
 19 20  1  0
  7 21  2  0
 21 22  1  0
 22 23  2  0
 23 24  1  0
 24 25  2  0
 25 26  1  0
 26 27  2  0
 27 28  1  0
 28 29  2  0
 28  6  1  0
 19 13  1  0
 27 22  1  0
  1 30  1  0
  1 31  1  0
  1 32  1  0
  3 33  1  0
  3 34  1  0
  4 35  1  0
  4 36  1  0
  5 37  1  0
  5 38  1  0
  9 39  1  0
  9 40  1  0
 14 41  1  0
 15 42  1  0
 17 43  1  0
 17 44  1  0
 17 45  1  0
 18 46  1  0
 20 47  1  0
 20 48  1  0
 20 49  1  0
 23 50  1  0
 24 51  1  0
 25 52  1  0
 26 53  1  0
M  CHG  1  12  -1
M  END
>  <UniqueID>  (30) 
27

>  <SMILES>  (30) 
COCCCn1c(SCC(=O)[N-]c2ccc(C)cc2C)nc2ccccc2c1=O

>  <Energy>  (30) 
56.55943525196036

>  <Genealogy>  (30) 
COCCCn1c(SCC(=O)[N-]c2ccc(C)cc2C)nc2ccccc2c1=O (protonated)
COCCCn1c(SCC(=O)[N-]c2ccc(C)cc2C)nc2ccccc2c1=O (3D coordinates assigned)
COCCCn1c(SCC(=O)[N-]c2ccc(C)cc2C)nc2ccccc2c1=O (optimized conformer: 56.55943525196036 kcal/mol)

>  <smiles>  (30) 
COCCCn1c(SCC(=O)Nc2ccc(C)cc2C)nc2ccccc2c1=O

>  <score_type>  (30) 
oracle

>  <origin>  (30) 
adg

>  <m_score__min__energy>  (30) 
-10.359999999999999

>  <m_primary>  (30) 
energy

$$$$
30:0
     RDKit          3D

 39 41  0  0  0  0  0  0  0  0999 V2000
    0.9340   21.9230  -35.3340 C   0  0  0  0  0  0  0  0  0  0  0  0
    0.3560   21.7020  -34.0510 O   0  0  0  0  0  0  0  0  0  0  0  0
   -0.8590   21.0410  -33.8160 C   0  0  0  0  0  0  0  0  0  0  0  0
   -1.9380   21.7090  -33.2030 C   0  0  0  0  0  0  0  0  0  0  0  0
   -3.1530   21.0560  -32.9570 C   0  0  0  0  0  0  0  0  0  0  0  0
   -4.2650   21.8020  -32.3160 C   0  0  0  0  0  0  0  0  0  0  0  0
   -5.5890   21.3260  -32.3440 C   0  0  0  0  0  0  0  0  0  0  0  0
   -6.5960   22.0670  -31.7250 C   0  0  0  0  0  0  0  0  0  0  0  0
   -7.7840   21.6430  -31.7470 O   0  0  0  0  0  0  0  0  0  0  0  0
   -6.2700   23.2710  -31.0810 C   0  0  0  0  0  0  0  0  0  0  0  0
   -7.2360   24.0650  -30.4380 C   0  0  0  0  0  0  0  0  0  0  0  0
   -6.8590   25.2540  -29.8060 C   0  0  0  0  0  0  0  0  0  0  0  0
   -7.7940   26.0160  -29.1870 F   0  0  0  0  0  0  0  0  0  0  0  0
   -5.5210   25.6580  -29.8100 C   0  0  0  0  0  0  0  0  0  0  0  0
   -4.5510   24.8770  -30.4460 C   0  0  0  0  0  0  0  0  0  0  0  0
   -3.2230   25.2880  -30.4430 O   0  0  0  0  0  0  0  0  0  0  0  0
   -4.9180   23.6840  -31.0830 C   0  0  0  0  0  0  0  0  0  0  0  0
   -3.9930   22.9440  -31.6870 O   0  0  0  0  0  0  0  0  0  0  0  0
   -3.2970   19.7180  -33.3530 C   0  0  0  0  0  0  0  0  0  0  0  0
   -2.2350   19.0310  -33.9660 C   0  0  0  0  0  0  0  0  0  0  0  0
   -2.3540   17.6890  -34.3660 O   0  0  0  0  0  0  0  0  0  0  0  0
   -3.5240   16.8940  -34.1990 C   0  0  0  0  0  0  0  0  0  0  0  0
   -1.0140   19.6840  -34.1960 C   0  0  0  0  0  0  0  0  0  0  0  0
    0.0010   18.9240  -34.8110 O   0  0  0  0  0  0  0  0  0  0  0  0
    1.1900   18.4390  -34.1960 C   0  0  0  0  0  0  0  0  0  0  0  0
    1.9553   22.3135  -35.2137 H   0  0  0  0  0  0  0  0  0  0  0  0
    0.9673   20.9742  -35.8895 H   0  0  0  0  0  0  0  0  0  0  0  0
    0.3258   22.6520  -35.8895 H   0  0  0  0  0  0  0  0  0  0  0  0
   -1.8241   22.7637  -32.9120 H   0  0  0  0  0  0  0  0  0  0  0  0
   -5.8277   20.3785  -32.8492 H   0  0  0  0  0  0  0  0  0  0  0  0
   -8.2900   23.7503  -30.4321 H   0  0  0  0  0  0  0  0  0  0  0  0
   -5.2299   26.5940  -29.3109 H   0  0  0  0  0  0  0  0  0  0  0  0
   -4.2524   19.2003  -33.1818 H   0  0  0  0  0  0  0  0  0  0  0  0
   -3.7246   16.7577  -33.1261 H   0  0  0  0  0  0  0  0  0  0  0  0
   -4.3803   17.3981  -34.6710 H   0  0  0  0  0  0  0  0  0  0  0  0
   -3.3707   15.9123  -34.6710 H   0  0  0  0  0  0  0  0  0  0  0  0
    1.0814   18.4833  -33.1023 H   0  0  0  0  0  0  0  0  0  0  0  0
    1.3644   17.3979  -34.5053 H   0  0  0  0  0  0  0  0  0  0  0  0
    2.0428   19.0611  -34.5053 H   0  0  0  0  0  0  0  0  0  0  0  0
  1  2  1  0
  2  3  1  0
  3  4  2  0
  4  5  1  0
  5  6  1  0
  6  7  2  0
  7  8  1  0
  8  9  2  0
  8 10  1  0
 10 11  2  0
 11 12  1  0
 12 13  1  0
 12 14  2  0
 14 15  1  0
 15 16  1  0
 15 17  2  0
 17 18  1  0
  5 19  2  0
 19 20  1  0
 20 21  1  0
 21 22  1  0
 20 23  2  0
 23 24  1  0
 24 25  1  0
 23  3  1  0
 18  6  1  0
 17 10  1  0
  1 26  1  0
  1 27  1  0
  1 28  1  0
  4 29  1  0
  7 30  1  0
 11 31  1  0
 14 32  1  0
 19 33  1  0
 22 34  1  0
 22 35  1  0
 22 36  1  0
 25 37  1  0
 25 38  1  0
 25 39  1  0
M  CHG  1  16  -1
M  END
>  <UniqueID>  (31) 
28

>  <SMILES>  (31) 
COc1cc(-c2cc(=O)c3cc(F)cc([O-])c3o2)cc(OC)c1OC

>  <Energy>  (31) 
52.19329198467267

>  <Genealogy>  (31) 
COc1cc(-c2cc(=O)c3cc(F)cc([O-])c3o2)cc(OC)c1OC (protonated)
COc1cc(-c2cc(=O)c3cc(F)cc([O-])c3o2)cc(OC)c1OC (3D coordinates assigned)
COc1cc(-c2cc(=O)c3cc(F)cc([O-])c3o2)cc(OC)c1OC (optimized conformer: 52.19329198467267 kcal/mol)

>  <smiles>  (31) 
COc1cc(-c2cc(=O)c3cc(F)cc(O)c3o2)cc(OC)c1OC

>  <score_type>  (31) 
oracle

>  <origin>  (31) 
adg

>  <m_score__min__energy>  (31) 
-9.0299999999999994

>  <m_primary>  (31) 
energy

$$$$
31:0
     RDKit          3D

 33 35  0  0  0  0  0  0  0  0999 V2000
   -0.6833   20.0093  -33.4848 H   0  0  0  0  0  0  0  0  0  0  0  0
   -1.2770   20.6550  -32.8210 C   0  0  0  0  0  0  0  0  0  0  0  0
   -0.7450   21.0790  -31.6000 C   0  0  0  0  0  0  0  0  0  0  0  0
    0.2640   20.7600  -31.2998 H   0  0  0  0  0  0  0  0  0  0  0  0
   -1.4950   21.9090  -30.7590 C   0  0  0  0  0  0  0  0  0  0  0  0
   -0.8180   22.4580  -29.2370 Cl  0  0  0  0  0  0  0  0  0  0  0  0
   -2.7840   22.3050  -31.1360 C   0  0  0  0  0  0  0  0  0  0  0  0
   -3.3643   22.9744  -30.4840 H   0  0  0  0  0  0  0  0  0  0  0  0
   -3.3370   21.8520  -32.3400 C   0  0  0  0  0  0  0  0  0  0  0  0
   -4.6390   22.3070  -32.7310 N   0  0  0  0  0  0  0  0  0  0  0  0
   -5.7940   22.1950  -32.1210 C   0  0  0  0  0  0  0  0  0  0  0  0
   -6.2030   23.2760  -31.3120 C   0  0  0  0  0  0  0  0  0  0  0  0
   -5.3240   24.3940  -31.0520 C   0  0  0  0  0  0  0  0  0  0  0  0
   -4.6210   25.2880  -30.8440 N   0  0  0  0  0  0  0  0  0  0  0  0
   -7.5080   23.3260  -30.8210 C   0  0  0  0  0  0  0  0  0  0  0  0
   -7.8284   24.1831  -30.2104 H   0  0  0  0  0  0  0  0  0  0  0  0
   -8.3850   22.3270  -31.0900 N   0  0  0  0  0  0  0  0  0  0  0  0
   -9.3590   22.4160  -30.7220 H   0  0  0  0  0  0  0  0  0  0  0  0
   -8.0080   21.2080  -31.7680 C   0  0  0  0  0  0  0  0  0  0  0  0
   -8.9280   20.1600  -31.9360 C   0  0  0  0  0  0  0  0  0  0  0  0
   -9.9684   20.2876  -31.6023 H   0  0  0  0  0  0  0  0  0  0  0  0
   -8.5320   18.9610  -32.5220 C   0  0  0  0  0  0  0  0  0  0  0  0
   -9.2663   18.1558  -32.6715 H   0  0  0  0  0  0  0  0  0  0  0  0
   -7.2060   18.7760  -32.9210 C   0  0  0  0  0  0  0  0  0  0  0  0
   -6.7540   17.4440  -33.4440 C   0  0  0  0  0  0  0  0  0  0  0  0
   -6.5274   16.7763  -32.5997 H   0  0  0  0  0  0  0  0  0  0  0  0
   -7.5521   17.0011  -34.0578 H   0  0  0  0  0  0  0  0  0  0  0  0
   -5.8511   17.5783  -34.0578 H   0  0  0  0  0  0  0  0  0  0  0  0
   -6.2770   19.8130  -32.7450 C   0  0  0  0  0  0  0  0  0  0  0  0
   -5.2189   19.6394  -32.9904 H   0  0  0  0  0  0  0  0  0  0  0  0
   -6.6800   21.0780  -32.2570 C   0  0  0  0  0  0  0  0  0  0  0  0
   -2.5630   21.0510  -33.1990 C   0  0  0  0  0  0  0  0  0  0  0  0
   -2.9708   20.7355  -34.1707 H   0  0  0  0  0  0  0  0  0  0  0  0
  1  2  1  0
  2  3  2  0
  3  4  1  0
  3  5  1  0
  5  6  1  0
  5  7  2  0
  7  8  1  0
  7  9  1  0
  9 10  1  0
 10 11  2  0
 11 12  1  0
 12 13  1  0
 13 14  3  0
 12 15  2  0
 15 16  1  0
 15 17  1  0
 17 18  1  0
 17 19  1  0
 19 20  2  0
 20 21  1  0
 20 22  1  0
 22 23  1  0
 22 24  2  0
 24 25  1  0
 25 26  1  0
 25 27  1  0
 25 28  1  0
 24 29  1  0
 29 30  1  0
 29 31  2  0
  9 32  2  0
 32 33  1  0
 32  2  1  0
 31 11  1  0
 31 19  1  0
M  END
>  <UniqueID>  (32) 
29

>  <SMILES>  (32) 
Cc1ccc2[nH]cc(C#N)/c(=N/c3cccc(Cl)c3)c2c1

>  <Energy>  (32) 
58.71529170109644

>  <Genealogy>  (32) 
Cc1ccc2[nH]cc(C#N)/c(=N/c3cccc(Cl)c3)c2c1 (cis-trans isomerization)
Cc1ccc2[nH]cc(C#N)/c(=N/c3cccc(Cl)c3)c2c1 (3D coordinates assigned)
Cc1ccc2[nH]cc(C#N)/c(=N/c3cccc(Cl)c3)c2c1 (optimized conformer: 58.71529170109644 kcal/mol)

>  <smiles>  (32) 
Cc1ccc2[nH]cc(C#N)c(=Nc3cccc(Cl)c3)c2c1

>  <score_type>  (32) 
oracle

>  <origin>  (32) 
adg

>  <m_score__min__energy>  (32) 
-8.2699999999999996

>  <m_primary>  (32) 
energy

$$$$
32:0
     RDKit          3D

 44 46  0  0  0  0  0  0  0  0999 V2000
   -9.4650   20.7810  -31.9970 C   0  0  0  0  0  0  0  0  0  0  0  0
   -8.8750   21.7950  -31.0190 C   0  0  0  0  0  0  0  0  0  0  0  0
   -7.5160   22.2050  -31.4330 N   0  0  0  0  0  0  0  0  0  0  0  0
   -7.2130   23.6340  -31.1950 C   0  0  0  0  0  0  0  0  0  0  0  0
   -5.8830   23.8530  -30.5250 C   0  0  0  0  0  0  0  0  0  0  0  0
   -5.5450   23.1670  -29.3530 C   0  0  0  0  0  0  0  0  0  0  0  0
   -4.2950   23.3780  -28.7760 C   0  0  0  0  0  0  0  0  0  0  0  0
   -3.4010   24.2760  -29.3790 C   0  0  0  0  0  0  0  0  0  0  0  0
   -2.0910   24.5260  -28.8330 N   0  0  0  0  0  0  0  0  0  0  0  0
   -1.8120   25.2770  -27.7530 C   0  0  0  0  0  0  0  0  0  0  0  0
   -0.4490   25.2690  -27.5630 C   0  0  0  0  0  0  0  0  0  0  0  0
    0.1330   24.5170  -28.5160 N   0  0  0  0  0  0  0  0  0  0  0  0
   -0.8930   24.0790  -29.2740 C   0  0  0  0  0  0  0  0  0  0  0  0
   -3.7890   24.9200  -30.5140 N   0  0  0  0  0  0  0  0  0  0  0  0
   -4.9860   24.7180  -31.0660 N   0  0  0  0  0  0  0  0  0  0  0  0
   -7.0090   21.6660  -32.7220 C   0  0  0  0  0  0  0  0  0  0  0  0
   -5.6110   21.0830  -32.6590 C   0  0  0  0  0  0  0  0  0  0  0  0
   -4.5270   21.8160  -32.3270 N   0  0  0  0  0  0  0  0  0  0  0  0
   -3.5110   20.9330  -32.3050 C   0  0  0  0  0  0  0  0  0  0  0  0
   -3.9860   19.6780  -32.6020 C   0  0  0  0  0  0  0  0  0  0  0  0
   -5.3080   19.7720  -32.8280 N   0  0  0  0  0  0  0  0  0  0  0  0
   -6.2070   18.6410  -33.0680 C   0  0  0  0  0  0  0  0  0  0  0  0
   -6.9630   18.2810  -31.7940 C   0  0  0  0  0  0  0  0  0  0  0  0
   -9.9406   19.9636  -31.4352 H   0  0  0  0  0  0  0  0  0  0  0  0
  -10.2160   21.2763  -32.6301 H   0  0  0  0  0  0  0  0  0  0  0  0
   -8.6634   20.3729  -32.6301 H   0  0  0  0  0  0  0  0  0  0  0  0
   -9.5239   22.6826  -30.9867 H   0  0  0  0  0  0  0  0  0  0  0  0
   -8.8113   21.3265  -30.0258 H   0  0  0  0  0  0  0  0  0  0  0  0
   -7.2074   24.1564  -32.1630 H   0  0  0  0  0  0  0  0  0  0  0  0
   -7.9883   24.0252  -30.5198 H   0  0  0  0  0  0  0  0  0  0  0  0
   -6.2590   22.4685  -28.8923 H   0  0  0  0  0  0  0  0  0  0  0  0
   -4.0112   22.8457  -27.8562 H   0  0  0  0  0  0  0  0  0  0  0  0
   -2.5468   25.8066  -27.1288 H   0  0  0  0  0  0  0  0  0  0  0  0
    0.0828   25.7957  -26.7569 H   0  0  0  0  0  0  0  0  0  0  0  0
   -0.7692   23.4301  -30.1535 H   0  0  0  0  0  0  0  0  0  0  0  0
   -7.6957   20.8742  -33.0560 H   0  0  0  0  0  0  0  0  0  0  0  0
   -6.9594   22.5175  -33.4167 H   0  0  0  0  0  0  0  0  0  0  0  0
   -2.4619   21.1783  -32.0834 H   0  0  0  0  0  0  0  0  0  0  0  0
   -3.3879   18.7559  -32.6470 H   0  0  0  0  0  0  0  0  0  0  0  0
   -6.9285   18.9121  -33.8528 H   0  0  0  0  0  0  0  0  0  0  0  0
   -5.6104   17.7730  -33.3853 H   0  0  0  0  0  0  0  0  0  0  0  0
   -6.3624   18.5670  -30.9180 H   0  0  0  0  0  0  0  0  0  0  0  0
   -7.9222   18.8190  -31.7724 H   0  0  0  0  0  0  0  0  0  0  0  0
   -7.1499   17.1972  -31.7724 H   0  0  0  0  0  0  0  0  0  0  0  0
  1  2  1  0
  2  3  1  0
  3  4  1  0
  4  5  1  0
  5  6  2  0
  6  7  1  0
  7  8  2  0
  8  9  1  0
  9 10  1  0
 10 11  2  0
 11 12  1  0
 12 13  2  0
  8 14  1  0
 14 15  2  0
  3 16  1  0
 16 17  1  0
 17 18  2  0
 18 19  1  0
 19 20  2  0
 20 21  1  0
 21 22  1  0
 22 23  1  0
 15  5  1  0
 21 17  1  0
 13  9  1  0
  1 24  1  0
  1 25  1  0
  1 26  1  0
  2 27  1  0
  2 28  1  0
  4 29  1  0
  4 30  1  0
  6 31  1  0
  7 32  1  0
 10 33  1  0
 11 34  1  0
 13 35  1  0
 16 36  1  0
 16 37  1  0
 19 38  1  0
 20 39  1  0
 22 40  1  0
 22 41  1  0
 23 42  1  0
 23 43  1  0
 23 44  1  0
M  END
>  <UniqueID>  (33) 
30

>  <SMILES>  (33) 
CCN(Cc1ccc(-n2ccnc2)nn1)Cc1nccn1CC

>  <Energy>  (33) 
109.88041392800086

>  <Genealogy>  (33) 
CCN(Cc1ccc(-n2ccnc2)nn1)Cc1nccn1CC (3D coordinates assigned)
CCN(Cc1ccc(-n2ccnc2)nn1)Cc1nccn1CC (optimized conformer: 109.88041392800086 kcal/mol)

>  <smiles>  (33) 
CCN(Cc1ccc(-n2ccnc2)nn1)Cc1nccn1CC

>  <score_type>  (33) 
oracle

>  <origin>  (33) 
adg

>  <m_score__min__energy>  (33) 
-8.2400000000000002

>  <m_primary>  (33) 
energy

$$$$
33:0
     RDKit          3D

 41 42  0  0  0  0  0  0  0  0999 V2000
   -2.4760   21.2920  -32.5010 C   0  0  0  0  0  0  0  0  0  0  0  0
   -1.9420   21.9280  -31.2220 C   0  0  0  0  0  0  0  0  0  0  0  0
   -2.9950   22.5000  -30.4680 O   0  0  0  0  0  0  0  0  0  0  0  0
   -2.5350   23.0650  -29.2470 C   0  0  1  0  0  0  0  0  0  0  0  0
   -2.9230   24.5520  -29.1970 C   0  0  0  0  0  0  0  0  0  0  0  0
   -3.5010   24.9750  -30.4680 N   0  0  0  0  0  0  0  0  0  0  0  0
   -4.9090   25.1080  -30.6970 C   0  0  0  0  0  0  0  0  0  0  0  0
   -5.4430   26.2520  -30.6670 O   0  0  0  0  0  0  0  0  0  0  0  0
   -5.7360   23.9100  -30.9680 C   0  0  0  0  0  0  0  0  0  0  0  0
   -6.8360   23.5970  -30.1480 C   0  0  0  0  0  0  0  0  0  0  0  0
   -7.6110   22.4620  -30.4040 C   0  0  0  0  0  0  0  0  0  0  0  0
   -7.2970   21.6260  -31.4780 C   0  0  0  0  0  0  0  0  0  0  0  0
   -6.2060   21.9230  -32.2980 C   0  0  0  0  0  0  0  0  0  0  0  0
   -5.9020   21.1100  -33.3400 F   0  0  0  0  0  0  0  0  0  0  0  0
   -5.4270   23.0580  -32.0470 C   0  0  0  0  0  0  0  0  0  0  0  0
   -3.1410   22.2820  -28.0640 C   0  0  0  0  0  0  0  0  0  0  0  0
   -2.3860   21.0160  -27.7420 C   0  0  0  0  0  0  0  0  0  0  0  0
   -1.0390   20.8790  -28.1200 C   0  0  0  0  0  0  0  0  0  0  0  0
   -0.3440   19.6980  -27.8380 C   0  0  0  0  0  0  0  0  0  0  0  0
   -0.9890   18.6460  -27.1800 C   0  0  0  0  0  0  0  0  0  0  0  0
   -2.3280   18.7730  -26.8040 C   0  0  0  0  0  0  0  0  0  0  0  0
   -3.0270   19.9530  -27.0830 C   0  0  0  0  0  0  0  0  0  0  0  0
   -3.1637   20.4729  -32.2438 H   0  0  0  0  0  0  0  0  0  0  0  0
   -3.0126   22.0497  -33.0909 H   0  0  0  0  0  0  0  0  0  0  0  0
   -1.6369   20.8946  -33.0909 H   0  0  0  0  0  0  0  0  0  0  0  0
   -1.4426   21.1569  -30.6170 H   0  0  0  0  0  0  0  0  0  0  0  0
   -1.2305   22.7219  -31.4931 H   0  0  0  0  0  0  0  0  0  0  0  0
   -1.4393   22.9947  -29.1799 H   0  0  0  0  0  0  0  0  0  0  0  0
   -3.6603   24.7065  -28.3954 H   0  0  0  0  0  0  0  0  0  0  0  0
   -2.0191   25.1480  -29.0027 H   0  0  0  0  0  0  0  0  0  0  0  0
   -7.0878   24.2501  -29.2995 H   0  0  0  0  0  0  0  0  0  0  0  0
   -8.4699   22.2268  -29.7583 H   0  0  0  0  0  0  0  0  0  0  0  0
   -7.9088   20.7340  -31.6780 H   0  0  0  0  0  0  0  0  0  0  0  0
   -4.5685   23.2864  -32.6957 H   0  0  0  0  0  0  0  0  0  0  0  0
   -3.1332   22.9298  -27.1750 H   0  0  0  0  0  0  0  0  0  0  0  0
   -4.1615   21.9903  -28.3528 H   0  0  0  0  0  0  0  0  0  0  0  0
   -0.5293   21.7037  -28.6396 H   0  0  0  0  0  0  0  0  0  0  0  0
    0.7106   19.5968  -28.1341 H   0  0  0  0  0  0  0  0  0  0  0  0
   -0.4414   17.7180  -26.9585 H   0  0  0  0  0  0  0  0  0  0  0  0
   -2.8342   17.9441  -26.2876 H   0  0  0  0  0  0  0  0  0  0  0  0
   -4.0817   20.0487  -26.7855 H   0  0  0  0  0  0  0  0  0  0  0  0
  1  2  1  0
  2  3  1  0
  3  4  1  0
  4  5  1  0
  5  6  1  0
  6  7  1  0
  7  8  2  0
  7  9  1  0
  9 10  2  0
 10 11  1  0
 11 12  2  0
 12 13  1  0
 13 14  1  0
 13 15  2  0
  4 16  1  0
 16 17  1  0
 17 18  2  0
 18 19  1  0
 19 20  2  0
 20 21  1  0
 21 22  2  0
 15  9  1  0
 22 17  1  0
  1 23  1  0
  1 24  1  0
  1 25  1  0
  2 26  1  0
  2 27  1  0
  4 28  1  6
  5 29  1  0
  5 30  1  0
 10 31  1  0
 11 32  1  0
 12 33  1  0
 15 34  1  0
 16 35  1  0
 16 36  1  0
 18 37  1  0
 19 38  1  0
 20 39  1  0
 21 40  1  0
 22 41  1  0
M  CHG  1   6  -1
M  END
>  <UniqueID>  (34) 
31

>  <SMILES>  (34) 
CCO[C@@H](C[N-]C(=O)c1cccc(F)c1)Cc1ccccc1

>  <Energy>  (34) 
37.603414695901705

>  <Genealogy>  (34) 
CCOC(C[N-]C(=O)c1cccc(F)c1)Cc1ccccc1 (protonated)
CCO[C@@H](C[N-]C(=O)c1cccc(F)c1)Cc1ccccc1 (chirality)
CCO[C@@H](C[N-]C(=O)c1cccc(F)c1)Cc1ccccc1 (3D coordinates assigned)
CCO[C@@H](C[N-]C(=O)c1cccc(F)c1)Cc1ccccc1 (optimized conformer: 37.603414695901705 kcal/mol)

>  <smiles>  (34) 
CCOC(CNC(=O)c1cccc(F)c1)Cc1ccccc1

>  <score_type>  (34) 
oracle

>  <origin>  (34) 
adg

>  <m_score__min__energy>  (34) 
-9.3300000000000001

>  <m_primary>  (34) 
energy

$$$$
34:0
     RDKit          3D

 28 29  0  0  0  0  0  0  0  0999 V2000
   -6.5334   18.5537  -33.9474 H   0  0  0  0  0  0  0  0  0  0  0  0
   -6.8320   19.4790  -33.4330 C   0  0  0  0  0  0  0  0  0  0  0  0
   -5.9840   20.4690  -32.9710 C   0  0  0  0  0  0  0  0  0  0  0  0
   -4.6110   20.6280  -32.9620 C   0  0  0  0  0  0  0  0  0  0  0  0
   -3.8860   19.7360  -33.4810 O   0  0  0  0  0  0  0  0  0  0  0  0
   -4.0710   21.7660  -32.3790 N   0  0  0  0  0  0  0  0  0  0  0  0
   -2.6040   21.9240  -32.4070 C   0  0  0  0  0  0  0  0  0  0  0  0
   -2.2199   21.9654  -31.3771 H   0  0  0  0  0  0  0  0  0  0  0  0
   -2.1531   21.0692  -32.9324 H   0  0  0  0  0  0  0  0  0  0  0  0
   -2.3455   22.8552  -32.9324 H   0  0  0  0  0  0  0  0  0  0  0  0
   -4.9320   22.7110  -31.7950 C   0  0  0  0  0  0  0  0  0  0  0  0
   -4.5400   23.8070  -31.1940 N   0  0  0  0  0  0  0  0  0  0  0  0
   -4.8660   24.4330  -29.9160 C   0  0  0  0  0  0  0  0  0  0  0  0
   -4.0259   25.0634  -29.5892 H   0  0  0  0  0  0  0  0  0  0  0  0
   -5.0511   23.6571  -29.1586 H   0  0  0  0  0  0  0  0  0  0  0  0
   -6.1110   25.2910  -30.0880 C   0  0  0  0  0  0  0  0  0  0  0  0
   -6.5075   25.5642  -29.0990 H   0  0  0  0  0  0  0  0  0  0  0  0
   -5.8531   26.2040  -30.6447 H   0  0  0  0  0  0  0  0  0  0  0  0
   -6.8724   24.7249  -30.6447 H   0  0  0  0  0  0  0  0  0  0  0  0
   -6.2850   22.5080  -31.8280 N   0  0  0  0  0  0  0  0  0  0  0  0
   -6.7810   21.4030  -32.4170 C   0  0  0  0  0  0  0  0  0  0  0  0
   -8.0680   21.0390  -32.5260 N   0  0  0  0  0  0  0  0  0  0  0  0
   -9.2300   21.7270  -31.9740 C   0  0  0  0  0  0  0  0  0  0  0  0
   -9.1844   21.7000  -30.8753 H   0  0  0  0  0  0  0  0  0  0  0  0
   -9.2333   22.7727  -32.3153 H   0  0  0  0  0  0  0  0  0  0  0  0
  -10.1485   21.2270  -32.3153 H   0  0  0  0  0  0  0  0  0  0  0  0
   -8.1000   19.8590  -33.1350 N   0  0  0  0  0  0  0  0  0  0  0  0
   -8.9670   19.3110  -33.3330 H   0  0  0  0  0  0  0  0  0  0  0  0
  1  2  1  0
  2  3  1  0
  3  4  1  0
  4  5  2  0
  4  6  1  0
  6  7  1  0
  7  8  1  0
  7  9  1  0
  7 10  1  0
  6 11  1  0
 11 12  2  0
 12 13  1  0
 13 14  1  0
 13 15  1  0
 13 16  1  0
 16 17  1  0
 16 18  1  0
 16 19  1  0
 11 20  1  0
 20 21  1  0
 21 22  1  0
 22 23  1  0
 23 24  1  0
 23 25  1  0
 23 26  1  0
 22 27  1  0
 27 28  1  0
 27  2  2  0
 21  3  2  0
M  CHG  2  20  -1  27   1
M  END
>  <UniqueID>  (35) 
32

>  <SMILES>  (35) 
CC/N=c1/[n-]c2c(c[nH+]n2C)c(=O)n1C

>  <Energy>  (35) 
82.63477241822336

>  <Genealogy>  (35) 
CCN=c1[n-]c2c(c[nH+]n2C)c(=O)n1C (protonated)
CC/N=c1/[n-]c2c(c[nH+]n2C)c(=O)n1C (cis-trans isomerization)
CC/N=c1/[n-]c2c(c[nH+]n2C)c(=O)n1C (3D coordinates assigned)
CC/N=c1/[n-]c2c(c[nH+]n2C)c(=O)n1C (optimized conformer: 82.63477241822336 kcal/mol)

>  <smiles>  (35) 
CCN=c1[nH]c2c(cnn2C)c(=O)n1C

>  <score_type>  (35) 
oracle

>  <origin>  (35) 
adg

>  <m_score__min__energy>  (35) 
-5.4900000000000002

>  <m_primary>  (35) 
energy

$$$$
35:0
     RDKit          3D

 45 47  0  0  0  0  0  0  0  0999 V2000
   -6.0850   19.6420  -33.8400 C   0  0  0  0  0  0  0  0  0  0  0  0
   -5.9290   18.9400  -32.4940 C   0  0  0  0  0  0  0  0  0  0  0  0
   -7.2950   18.7020  -31.8350 C   0  0  0  0  0  0  0  0  0  0  0  0
   -8.4760   19.1480  -32.7130 C   0  0  0  0  0  0  0  0  0  0  0  0
   -9.4770   20.1090  -32.0400 C   0  0  0  0  0  0  0  0  0  0  0  0
   -9.2040   21.6010  -32.3110 C   0  0  0  0  0  0  0  0  0  0  0  0
   -8.0540   22.1310  -31.5000 C   0  0  0  0  0  0  0  0  0  0  0  0
   -8.0860   22.0170  -30.2440 O   0  0  0  0  0  0  0  0  0  0  0  0
   -6.9300   22.7450  -32.1500 N   0  0  0  0  0  0  0  0  0  0  0  0
   -5.7420   23.1620  -31.4590 C   0  0  0  0  0  0  0  0  0  0  0  0
   -4.6570   22.2890  -31.2790 C   0  0  0  0  0  0  0  0  0  0  0  0
   -3.5140   22.7150  -30.5940 C   0  0  0  0  0  0  0  0  0  0  0  0
   -3.4440   24.0150  -30.0660 C   0  0  0  0  0  0  0  0  0  0  0  0
   -2.2340   24.4600  -29.3470 C   0  0  0  0  0  0  0  0  0  0  0  0
   -1.1050   23.7040  -29.2340 N   0  0  0  0  0  0  0  0  0  0  0  0
   -0.3100   24.5120  -28.5180 C   0  0  0  0  0  0  0  0  0  0  0  0
    0.9560   24.2510  -28.1100 N   0  0  0  0  0  0  0  0  0  0  0  0
    1.6220   25.1990  -27.3820 C   0  0  0  0  0  0  0  0  0  0  0  0
    0.9960   26.4290  -27.0600 C   0  0  0  0  0  0  0  0  0  0  0  0
   -0.3190   26.6780  -27.4940 C   0  0  0  0  0  0  0  0  0  0  0  0
   -0.9410   25.6770  -28.2290 C   0  0  0  0  0  0  0  0  0  0  0  0
   -2.1370   25.6400  -28.7470 O   0  0  0  0  0  0  0  0  0  0  0  0
   -4.5400   24.8790  -30.2280 C   0  0  0  0  0  0  0  0  0  0  0  0
   -5.6820   24.4500  -30.9110 C   0  0  0  0  0  0  0  0  0  0  0  0
   -6.3209   20.7036  -33.6747 H   0  0  0  0  0  0  0  0  0  0  0  0
   -5.1465   19.5590  -34.4078 H   0  0  0  0  0  0  0  0  0  0  0  0
   -6.9000   19.1694  -34.4078 H   0  0  0  0  0  0  0  0  0  0  0  0
   -5.4310   17.9715  -32.6492 H   0  0  0  0  0  0  0  0  0  0  0  0
   -5.3281   19.5812  -31.8323 H   0  0  0  0  0  0  0  0  0  0  0  0
   -7.4004   17.6270  -31.6267 H   0  0  0  0  0  0  0  0  0  0  0  0
   -7.3245   19.3053  -30.9157 H   0  0  0  0  0  0  0  0  0  0  0  0
   -8.0669   19.6520  -33.6010 H   0  0  0  0  0  0  0  0  0  0  0  0
   -9.0430   18.2341  -32.9441 H   0  0  0  0  0  0  0  0  0  0  0  0
  -10.4852   19.8706  -32.4098 H   0  0  0  0  0  0  0  0  0  0  0  0
   -9.3737   19.9620  -30.9548 H   0  0  0  0  0  0  0  0  0  0  0  0
   -8.9719   21.7292  -33.3786 H   0  0  0  0  0  0  0  0  0  0  0  0
  -10.1042   22.1638  -32.0232 H   0  0  0  0  0  0  0  0  0  0  0  0
   -6.9030   22.7340  -33.1950 H   0  0  0  0  0  0  0  0  0  0  0  0
   -4.7060   21.2653  -31.6785 H   0  0  0  0  0  0  0  0  0  0  0  0
   -2.6645   22.0276  -30.4680 H   0  0  0  0  0  0  0  0  0  0  0  0
    2.6507   25.0050  -27.0442 H   0  0  0  0  0  0  0  0  0  0  0  0
    1.5362   27.1863  -26.4729 H   0  0  0  0  0  0  0  0  0  0  0  0
   -0.8315   27.6231  -27.2616 H   0  0  0  0  0  0  0  0  0  0  0  0
   -4.4994   25.8979  -29.8155 H   0  0  0  0  0  0  0  0  0  0  0  0
   -6.5404   25.1293  -31.0190 H   0  0  0  0  0  0  0  0  0  0  0  0
  1  2  1  0
  2  3  1  0
  3  4  1  0
  4  5  1  0
  5  6  1  0
  6  7  1  0
  7  8  2  0
  7  9  1  0
  9 10  1  0
 10 11  2  0
 11 12  1  0
 12 13  2  0
 13 14  1  0
 14 15  2  0
 15 16  1  0
 16 17  2  0
 17 18  1  0
 18 19  2  0
 19 20  1  0
 20 21  2  0
 21 22  1  0
 13 23  1  0
 23 24  2  0
 24 10  1  0
 22 14  1  0
 21 16  1  0
  1 25  1  0
  1 26  1  0
  1 27  1  0
  2 28  1  0
  2 29  1  0
  3 30  1  0
  3 31  1  0
  4 32  1  0
  4 33  1  0
  5 34  1  0
  5 35  1  0
  6 36  1  0
  6 37  1  0
  9 38  1  0
 11 39  1  0
 12 40  1  0
 18 41  1  0
 19 42  1  0
 20 43  1  0
 23 44  1  0
 24 45  1  0
M  END
>  <UniqueID>  (36) 
33

>  <SMILES>  (36) 
CCCCCCC(=O)Nc1ccc(-c2nc3ncccc3o2)cc1

>  <Energy>  (36) 
80.93999742725157

>  <Genealogy>  (36) 
CCCCCCC(=O)Nc1ccc(-c2nc3ncccc3o2)cc1 (3D coordinates assigned)
CCCCCCC(=O)Nc1ccc(-c2nc3ncccc3o2)cc1 (optimized conformer: 80.93999742725157 kcal/mol)

>  <smiles>  (36) 
CCCCCCC(=O)Nc1ccc(-c2nc3ncccc3o2)cc1

>  <score_type>  (36) 
oracle

>  <origin>  (36) 
adg

>  <m_score__min__energy>  (36) 
-8.1199999999999992

>  <m_primary>  (36) 
energy

$$$$
36:0
     RDKit          3D

 48 50  0  0  0  0  0  0  0  0999 V2000
   -2.5980   19.2000  -26.4520 C   0  0  0  0  0  0  0  0  0  0  0  0
   -1.9700   20.1890  -27.2610 O   0  0  0  0  0  0  0  0  0  0  0  0
   -2.6230   20.9330  -28.2550 C   0  0  0  0  0  0  0  0  0  0  0  0
   -3.4770   21.9630  -27.8560 C   0  0  0  0  0  0  0  0  0  0  0  0
   -4.1610   22.7250  -28.8040 C   0  0  0  0  0  0  0  0  0  0  0  0
   -4.0020   22.4730  -30.1730 C   0  0  0  0  0  0  0  0  0  0  0  0
   -4.7820   23.2880  -31.1280 C   0  0  0  0  0  0  0  0  0  0  0  0
   -4.6020   24.5370  -31.1570 O   0  0  0  0  0  0  0  0  0  0  0  0
   -5.8640   22.6680  -31.9800 C   0  0  2  0  0  0  0  0  0  0  0  0
   -6.9710   23.7000  -32.3360 C   0  0  0  0  0  0  0  0  0  0  0  0
   -8.3040   23.4070  -31.6390 C   0  0  0  0  0  0  0  0  0  0  0  0
   -8.7860   21.9910  -31.9760 C   0  0  0  0  0  0  0  0  0  0  0  0
   -7.6990   21.0060  -31.8700 N   0  0  0  0  0  0  0  0  0  0  0  0
   -7.9970   19.6180  -32.1010 C   0  0  0  0  0  0  0  0  0  0  0  0
   -9.1730   19.2000  -31.9300 O   0  0  0  0  0  0  0  0  0  0  0  0
   -6.9580   18.6700  -32.5530 C   0  0  0  0  0  0  0  0  0  0  0  0
   -6.3210   17.7630  -31.7050 C   0  0  0  0  0  0  0  0  0  0  0  0
   -5.1810   16.9160  -32.6100 S   0  0  0  0  0  0  0  0  0  0  0  0
   -5.5390   17.7280  -34.0350 C   0  0  0  0  0  0  0  0  0  0  0  0
   -4.8380   17.5110  -35.3340 C   0  0  0  0  0  0  0  0  0  0  0  0
   -6.5080   18.6500  -33.8390 N   0  0  0  0  0  0  0  0  0  0  0  0
   -6.4120   21.4040  -31.2840 C   0  0  0  0  0  0  0  0  0  0  0  0
   -3.1090   21.4580  -30.5940 C   0  0  0  0  0  0  0  0  0  0  0  0
   -2.8550   21.1690  -32.0510 C   0  0  0  0  0  0  0  0  0  0  0  0
   -2.4460   20.6800  -29.6290 C   0  0  0  0  0  0  0  0  0  0  0  0
   -2.4438   19.4428  -25.3903 H   0  0  0  0  0  0  0  0  0  0  0  0
   -3.6759   19.1780  -26.6703 H   0  0  0  0  0  0  0  0  0  0  0  0
   -2.1595   18.2151  -26.6703 H   0  0  0  0  0  0  0  0  0  0  0  0
   -3.6118   22.1756  -26.7852 H   0  0  0  0  0  0  0  0  0  0  0  0
   -4.8317   23.5316  -28.4731 H   0  0  0  0  0  0  0  0  0  0  0  0
   -5.4344   22.3551  -32.9431 H   0  0  0  0  0  0  0  0  0  0  0  0
   -6.6288   24.7006  -32.0332 H   0  0  0  0  0  0  0  0  0  0  0  0
   -7.1443   23.6382  -33.4205 H   0  0  0  0  0  0  0  0  0  0  0  0
   -8.1704   23.4945  -30.5507 H   0  0  0  0  0  0  0  0  0  0  0  0
   -9.0549   24.1311  -31.9882 H   0  0  0  0  0  0  0  0  0  0  0  0
   -9.5889   21.7122  -31.2776 H   0  0  0  0  0  0  0  0  0  0  0  0
   -9.1486   21.9906  -33.0145 H   0  0  0  0  0  0  0  0  0  0  0  0
   -6.5274   17.6254  -30.6333 H   0  0  0  0  0  0  0  0  0  0  0  0
   -3.8031   17.1906  -35.1431 H   0  0  0  0  0  0  0  0  0  0  0  0
   -5.3626   16.7332  -35.9083 H   0  0  0  0  0  0  0  0  0  0  0  0
   -4.8314   18.4492  -35.9083 H   0  0  0  0  0  0  0  0  0  0  0  0
   -6.8690   19.2780  -34.5930 H   0  0  0  0  0  0  0  0  0  0  0  0
   -6.5520   21.6132  -30.2132 H   0  0  0  0  0  0  0  0  0  0  0  0
   -5.6918   20.5839  -31.4214 H   0  0  0  0  0  0  0  0  0  0  0  0
   -2.1312   20.3455  -32.1407 H   0  0  0  0  0  0  0  0  0  0  0  0
   -3.7988   20.8823  -32.5379 H   0  0  0  0  0  0  0  0  0  0  0  0
   -2.4496   22.0682  -32.5379 H   0  0  0  0  0  0  0  0  0  0  0  0
   -1.7815   19.8645  -29.9507 H   0  0  0  0  0  0  0  0  0  0  0  0
  1  2  1  0
  2  3  1  0
  3  4  2  0
  4  5  1  0
  5  6  2  0
  6  7  1  0
  7  8  2  0
  7  9  1  0
  9 10  1  0
 10 11  1  0
 11 12  1  0
 12 13  1  0
 13 14  1  0
 14 15  2  0
 14 16  1  0
 16 17  2  0
 17 18  1  0
 18 19  1  0
 19 20  1  0
 19 21  2  0
 13 22  1  0
  6 23  1  0
 23 24  1  0
 23 25  2  0
 25  3  1  0
 22  9  1  0
 21 16  1  0
  1 26  1  0
  1 27  1  0
  1 28  1  0
  4 29  1  0
  5 30  1  0
  9 31  1  6
 10 32  1  0
 10 33  1  0
 11 34  1  0
 11 35  1  0
 12 36  1  0
 12 37  1  0
 17 38  1  0
 20 39  1  0
 20 40  1  0
 20 41  1  0
 21 42  1  0
 22 43  1  0
 22 44  1  0
 24 45  1  0
 24 46  1  0
 24 47  1  0
 25 48  1  0
M  CHG  1  21   1
M  END
>  <UniqueID>  (37) 
34

>  <SMILES>  (37) 
COc1ccc(C(=O)[C@@H]2CCCN(C(=O)c3csc(C)[nH+]3)C2)c(C)c1

>  <Energy>  (37) 
87.29214154330685

>  <Genealogy>  (37) 
COc1ccc(C(=O)C2CCCN(C(=O)c3csc(C)[nH+]3)C2)c(C)c1 (protonated)
COc1ccc(C(=O)[C@@H]2CCCN(C(=O)c3csc(C)[nH+]3)C2)c(C)c1 (chirality)
COc1ccc(C(=O)[C@@H]2CCCN(C(=O)c3csc(C)[nH+]3)C2)c(C)c1 (3D coordinates assigned)
COc1ccc(C(=O)[C@@H]2CCCN(C(=O)c3csc(C)[nH+]3)C2)c(C)c1 (nonaromatic ring conformer: 87.29214154330685 kcal/mol)

>  <smiles>  (37) 
COc1ccc(C(=O)C2CCCN(C(=O)c3csc(C)n3)C2)c(C)c1

>  <score_type>  (37) 
oracle

>  <origin>  (37) 
adg

>  <m_score__min__energy>  (37) 
-8.3699999999999992

>  <m_primary>  (37) 
energy

$$$$
37:0
     RDKit          3D

 46 49  0  0  0  0  0  0  0  0999 V2000
   -9.4590   18.1640  -31.5760 C   0  0  0  0  0  0  0  0  0  0  0  0
   -8.6220   19.3250  -31.9170 N   0  0  0  0  0  0  0  0  0  0  0  0
   -9.0860   20.5700  -31.5890 C   0  0  0  0  0  0  0  0  0  0  0  0
   -8.3380   21.7110  -31.8610 C   0  0  0  0  0  0  0  0  0  0  0  0
   -7.0900   21.6010  -32.4670 C   0  0  0  0  0  0  0  0  0  0  0  0
   -6.3160   22.7930  -32.6690 N   0  0  0  0  0  0  0  0  0  0  0  0
   -5.2360   23.1900  -31.8030 C   0  0  0  0  0  0  0  0  0  0  0  0
   -3.9840   22.5710  -31.9320 C   0  0  0  0  0  0  0  0  0  0  0  0
   -2.9270   22.9230  -31.0890 C   0  0  0  0  0  0  0  0  0  0  0  0
   -3.1040   23.9040  -30.0980 C   0  0  0  0  0  0  0  0  0  0  0  0
   -1.9920   24.2470  -29.1830 C   0  0  0  0  0  0  0  0  0  0  0  0
   -1.3210   23.3230  -28.6530 O   0  0  0  0  0  0  0  0  0  0  0  0
   -1.6210   25.6070  -28.9130 N   0  0  0  0  0  0  0  0  0  0  0  0
   -1.3010   26.1570  -27.6260 C   0  0  0  0  0  0  0  0  0  0  0  0
   -1.8910   25.5980  -26.4840 C   0  0  0  0  0  0  0  0  0  0  0  0
   -1.6010   26.1120  -25.2170 C   0  0  0  0  0  0  0  0  0  0  0  0
   -0.7280   27.1950  -25.0830 C   0  0  0  0  0  0  0  0  0  0  0  0
   -0.1550   27.7740  -26.2180 C   0  0  0  0  0  0  0  0  0  0  0  0
   -0.4470   27.2650  -27.4860 C   0  0  0  0  0  0  0  0  0  0  0  0
   -4.3440   24.5550  -29.9980 C   0  0  0  0  0  0  0  0  0  0  0  0
   -5.4010   24.2000  -30.8370 C   0  0  0  0  0  0  0  0  0  0  0  0
   -6.6200   20.3290  -32.8560 C   0  0  0  0  0  0  0  0  0  0  0  0
   -5.3980   20.1790  -33.5400 C   0  0  0  0  0  0  0  0  0  0  0  0
   -4.9390   18.9130  -33.9010 C   0  0  0  0  0  0  0  0  0  0  0  0
   -5.6960   17.7830  -33.6040 C   0  0  0  0  0  0  0  0  0  0  0  0
   -6.9210   17.9100  -32.9500 C   0  0  0  0  0  0  0  0  0  0  0  0
   -7.4090   19.1810  -32.5630 C   0  0  0  0  0  0  0  0  0  0  0  0
   -9.5270   18.0696  -30.4822 H   0  0  0  0  0  0  0  0  0  0  0  0
  -10.4664   18.3024  -31.9954 H   0  0  0  0  0  0  0  0  0  0  0  0
   -9.0093   17.2519  -31.9954 H   0  0  0  0  0  0  0  0  0  0  0  0
  -10.0672   20.6702  -31.1020 H   0  0  0  0  0  0  0  0  0  0  0  0
   -8.7340   22.7026  -31.5964 H   0  0  0  0  0  0  0  0  0  0  0  0
   -6.6510   23.4710  -33.3910 H   0  0  0  0  0  0  0  0  0  0  0  0
   -3.8330   21.8017  -32.7036 H   0  0  0  0  0  0  0  0  0  0  0  0
   -1.9504   22.4295  -31.2015 H   0  0  0  0  0  0  0  0  0  0  0  0
   -2.5854   24.7509  -26.5854 H   0  0  0  0  0  0  0  0  0  0  0  0
   -2.0606   25.6634  -24.3240 H   0  0  0  0  0  0  0  0  0  0  0  0
   -0.4921   27.5914  -24.0844 H   0  0  0  0  0  0  0  0  0  0  0  0
    0.5265   28.6311  -26.1133 H   0  0  0  0  0  0  0  0  0  0  0  0
   -0.0068   27.7333  -28.3787 H   0  0  0  0  0  0  0  0  0  0  0  0
   -4.4834   25.3514  -29.2521 H   0  0  0  0  0  0  0  0  0  0  0  0
   -6.3695   24.7130  -30.7427 H   0  0  0  0  0  0  0  0  0  0  0  0
   -4.8009   21.0679  -33.7914 H   0  0  0  0  0  0  0  0  0  0  0  0
   -3.9760   18.8067  -34.4220 H   0  0  0  0  0  0  0  0  0  0  0  0
   -5.3264   16.7862  -33.8863 H   0  0  0  0  0  0  0  0  0  0  0  0
   -7.5158   17.0107  -32.7320 H   0  0  0  0  0  0  0  0  0  0  0  0
  1  2  1  0
  2  3  2  0
  3  4  1  0
  4  5  2  0
  5  6  1  0
  6  7  1  0
  7  8  2  0
  8  9  1  0
  9 10  2  0
 10 11  1  0
 11 12  2  0
 11 13  1  0
 13 14  1  0
 14 15  2  0
 15 16  1  0
 16 17  2  0
 17 18  1  0
 18 19  2  0
 10 20  1  0
 20 21  2  0
  5 22  1  0
 22 23  2  0
 23 24  1  0
 24 25  2  0
 25 26  1  0
 26 27  2  0
 27  2  1  0
 21  7  1  0
 27 22  1  0
 19 14  1  0
  1 28  1  0
  1 29  1  0
  1 30  1  0
  3 31  1  0
  4 32  1  0
  6 33  1  0
  8 34  1  0
  9 35  1  0
 15 36  1  0
 16 37  1  0
 17 38  1  0
 18 39  1  0
 19 40  1  0
 20 41  1  0
 21 42  1  0
 23 43  1  0
 24 44  1  0
 25 45  1  0
 26 46  1  0
M  CHG  2   2   1  13  -1
M  END
>  <UniqueID>  (38) 
35

>  <SMILES>  (38) 
C[n+]1ccc(Nc2ccc(C(=O)[N-]c3ccccc3)cc2)c2ccccc21

>  <Energy>  (38) 
72.34054365158487

>  <Genealogy>  (38) 
C[n+]1ccc(Nc2ccc(C(=O)[N-]c3ccccc3)cc2)c2ccccc21 (protonated)
C[n+]1ccc(Nc2ccc(C(=O)[N-]c3ccccc3)cc2)c2ccccc21 (3D coordinates assigned)
C[n+]1ccc(Nc2ccc(C(=O)[N-]c3ccccc3)cc2)c2ccccc21 (optimized conformer: 72.34054365158487 kcal/mol)

>  <smiles>  (38) 
C[n+]1ccc(Nc2ccc(C(=O)Nc3ccccc3)cc2)c2ccccc21

>  <score_type>  (38) 
oracle

>  <origin>  (38) 
adg

>  <m_score__min__energy>  (38) 
-10.300000000000001

>  <m_primary>  (38) 
energy

$$$$
38:0
     RDKit          3D

 40 42  0  0  0  0  0  0  0  0999 V2000
   -9.7117   18.7944  -31.7997 H   0  0  0  0  0  0  0  0  0  0  0  0
   -8.7470   19.2730  -32.0240 C   0  0  0  0  0  0  0  0  0  0  0  0
   -7.6660   18.5090  -32.3350 N   0  0  0  0  0  0  0  0  0  0  0  0
   -6.4590   19.0630  -32.6260 C   0  0  0  0  0  0  0  0  0  0  0  0
   -5.6026   18.4160  -32.8669 H   0  0  0  0  0  0  0  0  0  0  0  0
   -6.3020   20.4580  -32.6200 C   0  0  0  0  0  0  0  0  0  0  0  0
   -4.9650   21.0780  -32.8980 C   0  0  0  0  0  0  0  0  0  0  0  0
   -5.1048   22.0269  -33.4366 H   0  0  0  0  0  0  0  0  0  0  0  0
   -4.3628   20.3943  -33.5143 H   0  0  0  0  0  0  0  0  0  0  0  0
   -4.2780   21.3310  -31.6340 N   0  0  0  0  0  0  0  0  0  0  0  0
   -4.1350   22.4900  -31.0520 C   0  0  0  0  0  0  0  0  0  0  0  0
   -2.9320   22.7640  -30.3910 C   0  0  0  0  0  0  0  0  0  0  0  0
   -2.1309   22.0104  -30.3717 H   0  0  0  0  0  0  0  0  0  0  0  0
   -2.7480   24.0000  -29.7530 C   0  0  0  0  0  0  0  0  0  0  0  0
   -1.5130   24.3070  -29.0780 N   0  0  0  0  0  0  0  0  0  0  0  0
   -0.3640   23.4110  -29.2470 C   0  0  0  0  0  0  0  0  0  0  0  0
   -0.7177   22.3711  -29.3061 H   0  0  0  0  0  0  0  0  0  0  0  0
    0.1688   23.6750  -30.1724 H   0  0  0  0  0  0  0  0  0  0  0  0
    0.5890   23.5570  -28.0560 C   0  0  0  0  0  0  0  0  0  0  0  0
    0.0986   23.1673  -27.1517 H   0  0  0  0  0  0  0  0  0  0  0  0
    1.5076   22.9901  -28.2676 H   0  0  0  0  0  0  0  0  0  0  0  0
    0.9310   24.9150  -27.8500 O   0  0  0  0  0  0  0  0  0  0  0  0
   -0.2210   25.6470  -27.4790 C   0  0  0  0  0  0  0  0  0  0  0  0
   -0.6807   25.1742  -26.5986 H   0  0  0  0  0  0  0  0  0  0  0  0
    0.0771   26.6800  -27.2468 H   0  0  0  0  0  0  0  0  0  0  0  0
   -1.2390   25.6750  -28.6230 C   0  0  0  0  0  0  0  0  0  0  0  0
   -2.1730   26.1363  -28.2695 H   0  0  0  0  0  0  0  0  0  0  0  0
   -0.8297   26.2608  -29.4592 H   0  0  0  0  0  0  0  0  0  0  0  0
   -3.7390   24.9320  -29.8040 N   0  0  0  0  0  0  0  0  0  0  0  0
   -4.9200   24.7020  -30.4360 C   0  0  0  0  0  0  0  0  0  0  0  0
   -5.9730   25.7640  -30.4530 C   0  0  0  0  0  0  0  0  0  0  0  0
   -6.2394   26.0327  -29.4201 H   0  0  0  0  0  0  0  0  0  0  0  0
   -5.5892   26.6525  -30.9757 H   0  0  0  0  0  0  0  0  0  0  0  0
   -6.8648   25.3878  -30.9757 H   0  0  0  0  0  0  0  0  0  0  0  0
   -5.1440   23.4730  -31.0690 C   0  0  0  0  0  0  0  0  0  0  0  0
   -6.1005   23.2767  -31.5756 H   0  0  0  0  0  0  0  0  0  0  0  0
   -7.4040   21.2570  -32.2820 C   0  0  0  0  0  0  0  0  0  0  0  0
   -7.2994   22.3515  -32.2477 H   0  0  0  0  0  0  0  0  0  0  0  0
   -8.6340   20.6640  -31.9890 C   0  0  0  0  0  0  0  0  0  0  0  0
   -9.5043   21.2862  -31.7334 H   0  0  0  0  0  0  0  0  0  0  0  0
  1  2  1  0
  2  3  2  0
  3  4  1  0
  4  5  1  0
  4  6  2  0
  6  7  1  0
  7  8  1  0
  7  9  1  0
  7 10  1  0
 10 11  2  0
 11 12  1  0
 12 13  1  0
 12 14  2  0
 14 15  1  0
 15 16  1  0
 16 17  1  0
 16 18  1  0
 16 19  1  0
 19 20  1  0
 19 21  1  0
 19 22  1  0
 22 23  1  0
 23 24  1  0
 23 25  1  0
 23 26  1  0
 26 27  1  0
 26 28  1  0
 14 29  1  0
 29 30  1  0
 30 31  1  0
 31 32  1  0
 31 33  1  0
 31 34  1  0
 30 35  2  0
 35 36  1  0
  6 37  1  0
 37 38  1  0
 37 39  2  0
 39 40  1  0
 39  2  1  0
 35 11  1  0
 26 15  1  0
M  CHG  1  29  -1
M  END
>  <UniqueID>  (39) 
36

>  <SMILES>  (39) 
Cc1c/c(=N\Cc2cccnc2)cc(N2CCOCC2)[n-]1

>  <Energy>  (39) 
46.46316346240562

>  <Genealogy>  (39) 
Cc1cc(=NCc2cccnc2)cc(N2CCOCC2)[n-]1 (protonated)
Cc1c/c(=N\Cc2cccnc2)cc(N2CCOCC2)[n-]1 (cis-trans isomerization)
Cc1c/c(=N\Cc2cccnc2)cc(N2CCOCC2)[n-]1 (3D coordinates assigned)
Cc1c/c(=N\Cc2cccnc2)cc(N2CCOCC2)[n-]1 (nonaromatic ring conformer: 46.46316346240562 kcal/mol)

>  <smiles>  (39) 
Cc1cc(=NCc2cccnc2)cc(N2CCOCC2)[nH]1

>  <score_type>  (39) 
oracle

>  <origin>  (39) 
adg

>  <m_score__min__energy>  (39) 
-8.4600000000000009

>  <m_primary>  (39) 
energy

$$$$
39:0
     RDKit          3D

 44 49  0  0  0  0  0  0  0  0999 V2000
   -7.0740   17.3680  -32.9700 C   0  0  0  0  0  0  0  0  0  0  0  0
   -6.1050   18.0730  -33.6880 C   0  0  0  0  0  0  0  0  0  0  0  0
   -6.0300   19.4270  -33.5880 N   0  0  0  0  0  0  0  0  0  0  0  0
   -6.8810   20.1340  -32.7960 C   0  0  0  0  0  0  0  0  0  0  0  0
   -6.7770   21.5270  -32.7210 C   0  0  0  0  0  0  0  0  0  0  0  0
   -7.6560   22.2600  -31.9040 C   0  0  0  0  0  0  0  0  0  0  0  0
   -7.5690   23.7610  -31.8610 C   0  0  0  0  0  0  0  0  0  0  0  0
   -6.5810   24.2000  -30.8230 C   0  0  0  0  0  0  0  0  0  0  0  0
   -6.8510   25.0690  -29.8200 N   0  0  0  0  0  0  0  0  0  0  0  0
   -5.7370   25.2140  -29.1010 N   0  0  0  0  0  0  0  0  0  0  0  0
   -4.8120   24.4290  -29.6850 C   0  0  0  0  0  0  0  0  0  0  0  0
   -3.4940   24.2340  -29.3020 C   0  0  0  0  0  0  0  0  0  0  0  0
   -2.7290   23.3460  -30.0770 C   0  0  0  0  0  0  0  0  0  0  0  0
   -3.3130   22.6840  -31.1920 C   0  0  0  0  0  0  0  0  0  0  0  0
   -2.5500   21.7250  -32.0310 C   0  0  0  0  0  0  0  0  0  0  0  0
   -3.2290   20.9630  -33.0230 C   0  0  0  0  0  0  0  0  0  0  0  0
   -2.5350   20.0360  -33.8210 C   0  0  0  0  0  0  0  0  0  0  0  0
   -1.1710   19.8840  -33.6020 C   0  0  0  0  0  0  0  0  0  0  0  0
   -0.5120   20.5950  -32.6540 C   0  0  0  0  0  0  0  0  0  0  0  0
   -1.1590   21.5240  -31.8430 C   0  0  0  0  0  0  0  0  0  0  0  0
    0.8210   20.2340  -32.6520 O   0  0  0  0  0  0  0  0  0  0  0  0
    1.0120   19.2370  -33.6650 C   0  0  0  0  0  0  0  0  0  0  0  0
   -0.2850   19.0430  -34.2470 O   0  0  0  0  0  0  0  0  0  0  0  0
   -4.6190   22.9470  -31.5010 N   0  0  0  0  0  0  0  0  0  0  0  0
   -5.3060   23.7970  -30.7450 N   0  0  0  0  0  0  0  0  0  0  0  0
   -8.6460   21.5820  -31.1700 C   0  0  0  0  0  0  0  0  0  0  0  0
   -8.7550   20.1910  -31.2440 C   0  0  0  0  0  0  0  0  0  0  0  0
   -7.8770   19.4600  -32.0540 C   0  0  0  0  0  0  0  0  0  0  0  0
   -7.9640   18.0650  -32.1490 C   0  0  0  0  0  0  0  0  0  0  0  0
   -7.1358   16.2727  -33.0504 H   0  0  0  0  0  0  0  0  0  0  0  0
   -5.4006   17.5312  -34.3362 H   0  0  0  0  0  0  0  0  0  0  0  0
   -6.0047   22.0509  -33.3033 H   0  0  0  0  0  0  0  0  0  0  0  0
   -7.2494   24.1334  -32.8454 H   0  0  0  0  0  0  0  0  0  0  0  0
   -8.5585   24.1675  -31.6048 H   0  0  0  0  0  0  0  0  0  0  0  0
   -3.0663   24.7512  -28.4305 H   0  0  0  0  0  0  0  0  0  0  0  0
   -1.6752   23.1623  -29.8205 H   0  0  0  0  0  0  0  0  0  0  0  0
   -4.3107   21.1010  -33.1674 H   0  0  0  0  0  0  0  0  0  0  0  0
   -3.0549   19.4502  -34.5934 H   0  0  0  0  0  0  0  0  0  0  0  0
   -0.6057   22.0869  -31.0769 H   0  0  0  0  0  0  0  0  0  0  0  0
    1.7270   19.5888  -34.4233 H   0  0  0  0  0  0  0  0  0  0  0  0
    1.4228   18.3036  -33.2527 H   0  0  0  0  0  0  0  0  0  0  0  0
   -9.3394   22.1510  -30.5332 H   0  0  0  0  0  0  0  0  0  0  0  0
   -9.5315   19.6694  -30.6653 H   0  0  0  0  0  0  0  0  0  0  0  0
   -8.7308   17.5200  -31.5789 H   0  0  0  0  0  0  0  0  0  0  0  0
  1  2  2  0
  2  3  1  0
  3  4  2  0
  4  5  1  0
  5  6  2  0
  6  7  1  0
  7  8  1  0
  8  9  2  0
  9 10  1  0
 10 11  2  0
 11 12  1  0
 12 13  2  0
 13 14  1  0
 14 15  1  0
 15 16  2  0
 16 17  1  0
 17 18  2  0
 18 19  1  0
 19 20  2  0
 19 21  1  0
 21 22  1  0
 22 23  1  0
 14 24  2  0
 24 25  1  0
  6 26  1  0
 26 27  2  0
 27 28  1  0
 28 29  2  0
 29  1  1  0
 28  4  1  0
 25  8  1  0
 25 11  1  0
 20 15  1  0
 23 18  1  0
  1 30  1  0
  2 31  1  0
  5 32  1  0
  7 33  1  0
  7 34  1  0
 12 35  1  0
 13 36  1  0
 16 37  1  0
 17 38  1  0
 20 39  1  0
 22 40  1  0
 22 41  1  0
 26 42  1  0
 27 43  1  0
 29 44  1  0
M  END
>  <UniqueID>  (40) 
37

>  <SMILES>  (40) 
c1cnc2cc(Cc3nnc4ccc(-c5ccc6c(c5)OCO6)nn34)ccc2c1

>  <Energy>  (40) 
127.95680129057544

>  <Genealogy>  (40) 
c1cnc2cc(Cc3nnc4ccc(-c5ccc6c(c5)OCO6)nn34)ccc2c1 (3D coordinates assigned)
c1cnc2cc(Cc3nnc4ccc(-c5ccc6c(c5)OCO6)nn34)ccc2c1 (nonaromatic ring conformer: 127.95680129057544 kcal/mol)

>  <smiles>  (40) 
c1cnc2cc(Cc3nnc4ccc(-c5ccc6c(c5)OCO6)nn34)ccc2c1

>  <score_type>  (40) 
oracle

>  <origin>  (40) 
adg

>  <m_score__min__energy>  (40) 
-9.9199999999999999

>  <m_primary>  (40) 
energy

$$$$
40:0
     RDKit          3D

 34 36  0  0  0  0  0  0  0  0999 V2000
   -1.7290   25.0040  -28.1160 C   0  0  0  0  0  0  0  0  0  0  0  0
   -2.4340   25.2970  -29.3170 O   0  0  0  0  0  0  0  0  0  0  0  0
   -3.4670   24.5070  -29.8430 C   0  0  0  0  0  0  0  0  0  0  0  0
   -4.8200   24.8800  -29.7590 C   0  0  0  0  0  0  0  0  0  0  0  0
   -5.8140   24.0580  -30.2970 C   0  0  0  0  0  0  0  0  0  0  0  0
   -5.4790   22.8530  -30.9400 C   0  0  0  0  0  0  0  0  0  0  0  0
   -6.5510   21.9900  -31.5000 C   0  0  0  0  0  0  0  0  0  0  0  0
   -7.9080   22.3310  -31.3960 C   0  0  0  0  0  0  0  0  0  0  0  0
   -8.8590   21.4680  -31.9410 C   0  0  0  0  0  0  0  0  0  0  0  0
   -8.4650   20.3220  -32.5510 N   0  0  0  0  0  0  0  0  0  0  0  0
   -7.1490   19.9880  -32.6420 C   0  0  0  0  0  0  0  0  0  0  0  0
   -6.7390   18.7270  -33.3080 C   0  0  0  0  0  0  0  0  0  0  0  0
   -7.2070   17.4840  -32.8490 C   0  0  0  0  0  0  0  0  0  0  0  0
   -6.8120   16.3070  -33.4860 C   0  0  0  0  0  0  0  0  0  0  0  0
   -5.9500   16.3760  -34.5800 C   0  0  0  0  0  0  0  0  0  0  0  0
   -5.5000   17.5820  -35.0190 N   0  0  0  0  0  0  0  0  0  0  0  0
   -5.8720   18.7440  -34.4150 C   0  0  0  0  0  0  0  0  0  0  0  0
   -6.2120   20.8240  -32.1150 N   0  0  0  0  0  0  0  0  0  0  0  0
   -4.1220   22.4800  -31.0110 C   0  0  0  0  0  0  0  0  0  0  0  0
   -3.1310   23.3030  -30.4700 C   0  0  0  0  0  0  0  0  0  0  0  0
   -2.3556   25.2644  -27.2502 H   0  0  0  0  0  0  0  0  0  0  0  0
   -1.4879   23.9312  -28.0847 H   0  0  0  0  0  0  0  0  0  0  0  0
   -0.7986   25.5899  -28.0847 H   0  0  0  0  0  0  0  0  0  0  0  0
   -5.0977   25.8239  -29.2672 H   0  0  0  0  0  0  0  0  0  0  0  0
   -6.8696   24.3567  -30.2167 H   0  0  0  0  0  0  0  0  0  0  0  0
   -8.2159   23.2604  -30.8947 H   0  0  0  0  0  0  0  0  0  0  0  0
   -9.9285   21.7167  -31.8761 H   0  0  0  0  0  0  0  0  0  0  0  0
   -7.8866   17.4387  -31.9852 H   0  0  0  0  0  0  0  0  0  0  0  0
   -7.1774   15.3331  -33.1283 H   0  0  0  0  0  0  0  0  0  0  0  0
   -5.6335   15.4535  -35.0887 H   0  0  0  0  0  0  0  0  0  0  0  0
   -4.8550   17.6170  -35.8400 H   0  0  0  0  0  0  0  0  0  0  0  0
   -5.4915   19.7033  -34.7958 H   0  0  0  0  0  0  0  0  0  0  0  0
   -3.8408   21.5336  -31.4961 H   0  0  0  0  0  0  0  0  0  0  0  0
   -2.0755   23.0008  -30.5380 H   0  0  0  0  0  0  0  0  0  0  0  0
  1  2  1  0
  2  3  1  0
  3  4  2  0
  4  5  1  0
  5  6  2  0
  6  7  1  0
  7  8  2  0
  8  9  1  0
  9 10  2  0
 10 11  1  0
 11 12  1  0
 12 13  2  0
 13 14  1  0
 14 15  2  0
 15 16  1  0
 16 17  2  0
 11 18  2  0
  6 19  1  0
 19 20  2  0
 20  3  1  0
 18  7  1  0
 17 12  1  0
  1 21  1  0
  1 22  1  0
  1 23  1  0
  4 24  1  0
  5 25  1  0
  8 26  1  0
  9 27  1  0
 13 28  1  0
 14 29  1  0
 15 30  1  0
 16 31  1  0
 17 32  1  0
 19 33  1  0
 20 34  1  0
M  CHG  1  16   1
M  END
>  <UniqueID>  (41) 
38

>  <SMILES>  (41) 
COc1ccc(-c2ccnc(-c3ccc[nH+]c3)n2)cc1

>  <Energy>  (41) 
42.2140764191156

>  <Genealogy>  (41) 
COc1ccc(-c2ccnc(-c3ccc[nH+]c3)n2)cc1 (protonated)
COc1ccc(-c2ccnc(-c3ccc[nH+]c3)n2)cc1 (3D coordinates assigned)
COc1ccc(-c2ccnc(-c3ccc[nH+]c3)n2)cc1 (optimized conformer: 42.2140764191156 kcal/mol)

>  <smiles>  (41) 
COc1ccc(-c2ccnc(-c3cccnc3)n2)cc1

>  <score_type>  (41) 
oracle

>  <origin>  (41) 
adg

>  <m_score__min__energy>  (41) 
-7.29

>  <m_primary>  (41) 
energy

$$$$
41:0
     RDKit          3D

 29 28  0  0  0  0  0  0  0  0999 V2000
   -2.0960   21.5750  -27.4790 C   0  0  0  0  0  0  0  0  0  0  0  0
   -3.4720   22.0960  -27.8850 C   0  0  0  0  0  0  0  0  0  0  0  0
   -3.4730   23.6280  -28.0030 C   0  0  0  0  0  0  0  0  0  0  0  0
   -2.8130   24.1130  -29.3150 C   0  0  2  0  0  0  0  0  0  0  0  0
   -1.9660   25.2880  -29.0850 N   0  0  0  0  0  0  0  0  0  0  0  0
   -0.8610   25.4700  -28.1820 C   0  0  0  0  0  0  0  0  0  0  0  0
    0.2140   24.8660  -28.4380 O   0  0  0  0  0  0  0  0  0  0  0  0
   -0.9430   26.2800  -26.9150 C   0  0  0  0  0  0  0  0  0  0  0  0
   -2.1450   26.0740  -26.2690 F   0  0  0  0  0  0  0  0  0  0  0  0
    0.1020   25.9380  -26.0770 F   0  0  0  0  0  0  0  0  0  0  0  0
   -0.8420   27.6270  -27.2100 F   0  0  0  0  0  0  0  0  0  0  0  0
   -3.7850   24.3760  -30.4370 C   0  0  0  0  0  0  0  0  0  0  0  0
   -4.1190   23.4530  -31.2290 O   0  0  0  0  0  0  0  0  0  0  0  0
   -4.2680   25.6770  -30.6240 O   0  0  0  0  0  0  0  0  0  0  0  0
   -5.6370   26.0400  -30.4580 C   0  0  0  0  0  0  0  0  0  0  0  0
   -6.3990   24.9450  -29.7200 C   0  0  0  0  0  0  0  0  0  0  0  0
   -2.0234   21.5475  -26.3817 H   0  0  0  0  0  0  0  0  0  0  0  0
   -1.9545   20.5610  -27.8813 H   0  0  0  0  0  0  0  0  0  0  0  0
   -1.3184   22.2410  -27.8813 H   0  0  0  0  0  0  0  0  0  0  0  0
   -3.7480   21.6610  -28.8569 H   0  0  0  0  0  0  0  0  0  0  0  0
   -4.1971   21.8057  -27.1104 H   0  0  0  0  0  0  0  0  0  0  0  0
   -4.5132   23.9847  -27.9767 H   0  0  0  0  0  0  0  0  0  0  0  0
   -2.8901   24.0320  -27.1622 H   0  0  0  0  0  0  0  0  0  0  0  0
   -2.1858   23.2723  -29.6463 H   0  0  0  0  0  0  0  0  0  0  0  0
   -5.6954   26.9736  -29.8792 H   0  0  0  0  0  0  0  0  0  0  0  0
   -6.0893   26.1779  -31.4512 H   0  0  0  0  0  0  0  0  0  0  0  0
   -6.2955   25.0937  -28.6350 H   0  0  0  0  0  0  0  0  0  0  0  0
   -7.4629   24.9886  -29.9962 H   0  0  0  0  0  0  0  0  0  0  0  0
   -5.9884   23.9626  -29.9962 H   0  0  0  0  0  0  0  0  0  0  0  0
  1  2  1  0
  2  3  1  0
  3  4  1  0
  4  5  1  0
  5  6  1  0
  6  7  2  0
  6  8  1  0
  8  9  1  0
  8 10  1  0
  8 11  1  0
  4 12  1  0
 12 13  2  0
 12 14  1  0
 14 15  1  0
 15 16  1  0
  1 17  1  0
  1 18  1  0
  1 19  1  0
  2 20  1  0
  2 21  1  0
  3 22  1  0
  3 23  1  0
  4 24  1  6
 15 25  1  0
 15 26  1  0
 16 27  1  0
 16 28  1  0
 16 29  1  0
M  CHG  1   5  -1
M  END
>  <UniqueID>  (42) 
39

>  <SMILES>  (42) 
CCC[C@H]([N-]C(=O)C(F)(F)F)C(=O)OCC

>  <Energy>  (42) 
17.493526064733654

>  <Genealogy>  (42) 
CCCC([N-]C(=O)C(F)(F)F)C(=O)OCC (protonated)
CCC[C@H]([N-]C(=O)C(F)(F)F)C(=O)OCC (chirality)
CCC[C@H]([N-]C(=O)C(F)(F)F)C(=O)OCC (3D coordinates assigned)
CCC[C@H]([N-]C(=O)C(F)(F)F)C(=O)OCC (optimized conformer: 17.493526064733654 kcal/mol)

>  <smiles>  (42) 
CCCC(NC(=O)C(F)(F)F)C(=O)OCC

>  <score_type>  (42) 
oracle

>  <origin>  (42) 
adg

>  <m_score__min__energy>  (42) 
-6.2699999999999996

>  <m_primary>  (42) 
energy

$$$$
42:0
     RDKit          3D

 36 39  0  0  0  0  0  0  0  0999 V2000
   -5.9300   19.0040  -33.4520 C   0  0  0  0  0  0  0  0  0  0  0  0
   -7.2170   19.6560  -33.6970 N   0  0  0  0  0  0  0  0  0  0  0  0
   -7.4160   20.7340  -32.7600 C   0  0  0  0  0  0  0  0  0  0  0  0
   -8.7000   21.0200  -32.2700 C   0  0  0  0  0  0  0  0  0  0  0  0
   -8.8870   22.0480  -31.3440 C   0  0  0  0  0  0  0  0  0  0  0  0
   -7.7960   22.7930  -30.8890 C   0  0  0  0  0  0  0  0  0  0  0  0
   -6.4980   22.5090  -31.3500 C   0  0  0  0  0  0  0  0  0  0  0  0
   -5.3260   23.2820  -30.8770 C   0  0  0  0  0  0  0  0  0  0  0  0
   -5.0570   24.5710  -31.2250 N   0  0  0  0  0  0  0  0  0  0  0  0
   -3.8930   24.9230  -30.6660 N   0  0  0  0  0  0  0  0  0  0  0  0
   -3.5000   23.8340  -29.9860 C   0  0  0  0  0  0  0  0  0  0  0  0
   -2.0970   23.4070  -29.1830 S   0  0  0  0  0  0  0  0  0  0  0  0
   -2.7280   21.8050  -29.0110 C   0  0  0  0  0  0  0  0  0  0  0  0
   -2.0280   20.6790  -28.3490 C   0  0  0  0  0  0  0  0  0  0  0  0
   -2.6600   19.9300  -27.3380 C   0  0  0  0  0  0  0  0  0  0  0  0
   -1.9900   18.8690  -26.7200 C   0  0  0  0  0  0  0  0  0  0  0  0
   -0.6870   18.5450  -27.1030 C   0  0  0  0  0  0  0  0  0  0  0  0
   -0.0490   19.2800  -28.1060 C   0  0  0  0  0  0  0  0  0  0  0  0
    1.5880   18.8700  -28.5850 Cl  0  0  0  0  0  0  0  0  0  0  0  0
   -0.7160   20.3420  -28.7270 C   0  0  0  0  0  0  0  0  0  0  0  0
   -3.9560   21.6710  -29.5950 N   0  0  0  0  0  0  0  0  0  0  0  0
   -4.3360   22.8370  -30.0950 N   0  0  0  0  0  0  0  0  0  0  0  0
   -6.3190   21.4790  -32.2900 C   0  0  0  0  0  0  0  0  0  0  0  0
   -5.7624   18.9191  -32.3682 H   0  0  0  0  0  0  0  0  0  0  0  0
   -5.9360   18.0002  -33.9018 H   0  0  0  0  0  0  0  0  0  0  0  0
   -5.1242   19.6026  -33.9018 H   0  0  0  0  0  0  0  0  0  0  0  0
   -7.9840   18.9490  -33.6020 H   0  0  0  0  0  0  0  0  0  0  0  0
   -7.2370   20.0220  -34.6780 H   0  0  0  0  0  0  0  0  0  0  0  0
   -9.5623   20.4318  -32.6170 H   0  0  0  0  0  0  0  0  0  0  0  0
   -9.8973   22.2723  -30.9711 H   0  0  0  0  0  0  0  0  0  0  0  0
   -7.9533   23.6067  -30.1657 H   0  0  0  0  0  0  0  0  0  0  0  0
   -3.6865   20.1807  -27.0324 H   0  0  0  0  0  0  0  0  0  0  0  0
   -2.4906   18.2888  -25.9308 H   0  0  0  0  0  0  0  0  0  0  0  0
   -0.1622   17.7105  -26.6149 H   0  0  0  0  0  0  0  0  0  0  0  0
   -0.2104   20.9174  -29.5165 H   0  0  0  0  0  0  0  0  0  0  0  0
   -5.3090   21.2529  -32.6625 H   0  0  0  0  0  0  0  0  0  0  0  0
  1  2  1  0
  2  3  1  0
  3  4  2  0
  4  5  1  0
  5  6  2  0
  6  7  1  0
  7  8  1  0
  8  9  2  0
  9 10  1  0
 10 11  2  0
 11 12  1  0
 12 13  1  0
 13 14  1  0
 14 15  2  0
 15 16  1  0
 16 17  2  0
 17 18  1  0
 18 19  1  0
 18 20  2  0
 13 21  2  0
 21 22  1  0
  7 23  2  0
 23  3  1  0
 22  8  1  0
 22 11  1  0
 20 14  1  0
  1 24  1  0
  1 25  1  0
  1 26  1  0
  2 27  1  0
  2 28  1  0
  4 29  1  0
  5 30  1  0
  6 31  1  0
 15 32  1  0
 16 33  1  0
 17 34  1  0
 20 35  1  0
 23 36  1  0
M  CHG  1   2   1
M  END
>  <UniqueID>  (43) 
40

>  <SMILES>  (43) 
C[NH2+]c1cccc(-c2nnc3sc(-c4cccc(Cl)c4)nn23)c1

>  <Energy>  (43) 
136.31283772503744

>  <Genealogy>  (43) 
C[NH2+]c1cccc(-c2nnc3sc(-c4cccc(Cl)c4)nn23)c1 (protonated)
C[NH2+]c1cccc(-c2nnc3sc(-c4cccc(Cl)c4)nn23)c1 (3D coordinates assigned)
C[NH2+]c1cccc(-c2nnc3sc(-c4cccc(Cl)c4)nn23)c1 (optimized conformer: 136.31283772503744 kcal/mol)

>  <smiles>  (43) 
CNc1cccc(-c2nnc3sc(-c4cccc(Cl)c4)nn23)c1

>  <score_type>  (43) 
oracle

>  <origin>  (43) 
adg

>  <m_score__min__energy>  (43) 
-8.9800000000000004

>  <m_primary>  (43) 
energy

$$$$
43:0
     RDKit          3D

 43 44  0  0  0  0  0  0  0  0999 V2000
   -0.8890   18.5030  -27.2940 C   0  0  0  0  0  0  0  0  0  0  0  0
   -2.1430   19.2490  -27.1320 N   0  0  0  0  0  0  0  0  0  0  0  0
   -3.2170   18.6630  -26.3200 C   0  0  0  0  0  0  0  0  0  0  0  0
   -2.3200   20.5440  -27.7670 C   0  0  0  0  0  0  0  0  0  0  0  0
   -3.4660   21.3260  -27.5110 C   0  0  0  0  0  0  0  0  0  0  0  0
   -3.6370   22.5700  -28.1250 C   0  0  0  0  0  0  0  0  0  0  0  0
   -2.6780   23.0560  -29.0240 C   0  0  0  0  0  0  0  0  0  0  0  0
   -2.8300   24.3860  -29.6510 C   0  0  0  0  0  0  0  0  0  0  0  0
   -2.0260   25.3030  -29.3340 O   0  0  0  0  0  0  0  0  0  0  0  0
   -3.8660   24.6810  -30.5990 N   0  0  0  0  0  0  0  0  0  0  0  0
   -4.9620   25.6310  -30.4210 C   0  0  0  0  0  0  0  0  0  0  0  0
   -6.3190   24.9180  -30.4670 C   0  0  0  0  0  0  0  0  0  0  0  0
   -6.1780   23.5500  -30.9620 N   0  0  0  0  0  0  0  0  0  0  0  0
   -7.2500   22.8670  -31.6360 C   0  0  0  0  0  0  0  0  0  0  0  0
   -8.3560   23.4530  -31.7930 O   0  0  0  0  0  0  0  0  0  0  0  0
   -7.0950   21.4750  -32.1290 C   0  0  0  0  0  0  0  0  0  0  0  0
   -5.8880   21.0210  -32.6950 C   0  0  0  0  0  0  0  0  0  0  0  0
   -5.7630   19.6990  -33.1310 C   0  0  0  0  0  0  0  0  0  0  0  0
   -6.8400   18.8170  -33.0200 C   0  0  0  0  0  0  0  0  0  0  0  0
   -8.0490   19.2590  -32.4780 C   0  0  0  0  0  0  0  0  0  0  0  0
   -8.1790   20.5800  -32.0390 C   0  0  0  0  0  0  0  0  0  0  0  0
   -1.5260   22.2970  -29.2690 C   0  0  0  0  0  0  0  0  0  0  0  0
   -1.3510   21.0550  -28.6540 C   0  0  0  0  0  0  0  0  0  0  0  0
   -0.4775   18.2582  -26.3037 H   0  0  0  0  0  0  0  0  0  0  0  0
   -1.0842   17.5740  -27.8498 H   0  0  0  0  0  0  0  0  0  0  0  0
   -0.1658   19.1178  -27.8498 H   0  0  0  0  0  0  0  0  0  0  0  0
   -2.9817   18.7914  -25.2531 H   0  0  0  0  0  0  0  0  0  0  0  0
   -4.1671   19.1678  -26.5493 H   0  0  0  0  0  0  0  0  0  0  0  0
   -3.3067   17.5909  -26.5493 H   0  0  0  0  0  0  0  0  0  0  0  0
   -4.2350   20.9518  -26.8192 H   0  0  0  0  0  0  0  0  0  0  0  0
   -4.5303   23.1716  -27.9011 H   0  0  0  0  0  0  0  0  0  0  0  0
   -4.8507   26.1305  -29.4473 H   0  0  0  0  0  0  0  0  0  0  0  0
   -4.9245   26.3670  -31.2377 H   0  0  0  0  0  0  0  0  0  0  0  0
   -6.7453   24.8911  -29.4533 H   0  0  0  0  0  0  0  0  0  0  0  0
   -6.9809   25.4703  -31.1502 H   0  0  0  0  0  0  0  0  0  0  0  0
   -5.2710   23.0670  -30.7800 H   0  0  0  0  0  0  0  0  0  0  0  0
   -5.0377   21.7117  -32.7946 H   0  0  0  0  0  0  0  0  0  0  0  0
   -4.8128   19.3520  -33.5632 H   0  0  0  0  0  0  0  0  0  0  0  0
   -6.7363   17.7757  -33.3589 H   0  0  0  0  0  0  0  0  0  0  0  0
   -8.9000   18.5668  -32.3964 H   0  0  0  0  0  0  0  0  0  0  0  0
   -9.1362   20.9234  -31.6196 H   0  0  0  0  0  0  0  0  0  0  0  0
   -0.7535   22.6821  -29.9508 H   0  0  0  0  0  0  0  0  0  0  0  0
   -0.4449   20.4680  -28.8647 H   0  0  0  0  0  0  0  0  0  0  0  0
  1  2  1  0
  2  3  1  0
  2  4  1  0
  4  5  2  0
  5  6  1  0
  6  7  2  0
  7  8  1  0
  8  9  2  0
  8 10  1  0
 10 11  1  0
 11 12  1  0
 12 13  1  0
 13 14  1  0
 14 15  2  0
 14 16  1  0
 16 17  2  0
 17 18  1  0
 18 19  2  0
 19 20  1  0
 20 21  2  0
  7 22  1  0
 22 23  2  0
 23  4  1  0
 21 16  1  0
  1 24  1  0
  1 25  1  0
  1 26  1  0
  3 27  1  0
  3 28  1  0
  3 29  1  0
  5 30  1  0
  6 31  1  0
 11 32  1  0
 11 33  1  0
 12 34  1  0
 12 35  1  0
 13 36  1  0
 17 37  1  0
 18 38  1  0
 19 39  1  0
 20 40  1  0
 21 41  1  0
 22 42  1  0
 23 43  1  0
M  CHG  1  10  -1
M  END
>  <UniqueID>  (44) 
41

>  <SMILES>  (44) 
CN(C)c1ccc(C(=O)[N-]CCNC(=O)c2ccccc2)cc1

>  <Energy>  (44) 
41.217381435777455

>  <Genealogy>  (44) 
CN(C)c1ccc(C(=O)[N-]CCNC(=O)c2ccccc2)cc1 (protonated)
CN(C)c1ccc(C(=O)[N-]CCNC(=O)c2ccccc2)cc1 (3D coordinates assigned)
CN(C)c1ccc(C(=O)[N-]CCNC(=O)c2ccccc2)cc1 (optimized conformer: 41.217381435777455 kcal/mol)

>  <smiles>  (44) 
CN(C)c1ccc(C(=O)NCCNC(=O)c2ccccc2)cc1

>  <score_type>  (44) 
oracle

>  <origin>  (44) 
adg

>  <m_score__min__energy>  (44) 
-9.7899999999999991

>  <m_primary>  (44) 
energy

$$$$
44:0
     RDKit          3D

 44 46  0  0  0  0  0  0  0  0999 V2000
   -9.0160   21.2850  -31.2670 C   0  0  0  0  0  0  0  0  0  0  0  0
   -8.6410   22.6800  -31.6680 C   0  0  0  0  0  0  0  0  0  0  0  0
   -9.4740   23.3610  -32.3280 O   0  0  0  0  0  0  0  0  0  0  0  0
   -7.3200   23.2680  -31.3210 C   0  0  0  0  0  0  0  0  0  0  0  0
   -6.1470   22.7560  -31.9040 C   0  0  0  0  0  0  0  0  0  0  0  0
   -4.9020   23.3140  -31.6020 C   0  0  0  0  0  0  0  0  0  0  0  0
   -4.7970   24.3790  -30.7010 C   0  0  0  0  0  0  0  0  0  0  0  0
   -3.5010   24.9490  -30.4660 N   0  0  0  0  0  0  0  0  0  0  0  0
   -2.6690   24.7740  -29.3110 C   0  0  0  0  0  0  0  0  0  0  0  0
   -1.4710   25.1620  -29.3100 O   0  0  0  0  0  0  0  0  0  0  0  0
   -3.2460   24.1340  -28.0880 C   0  0  0  0  0  0  0  0  0  0  0  0
   -4.0500   22.5410  -28.4890 S   0  0  0  0  0  0  0  0  0  0  0  0
   -2.6110   21.8410  -29.3140 C   0  0  0  0  0  0  0  0  0  0  0  0
   -2.2170   22.3340  -30.5200 N   0  0  0  0  0  0  0  0  0  0  0  0
   -1.0960   21.8740  -31.1290 C   0  0  0  0  0  0  0  0  0  0  0  0
   -0.3310   20.8830  -30.5140 C   0  0  0  0  0  0  0  0  0  0  0  0
   -0.7190   20.3630  -29.3110 N   0  0  0  0  0  0  0  0  0  0  0  0
    0.1090   19.3670  -28.6770 C   0  0  0  0  0  0  0  0  0  0  0  0
   -0.4650   18.1810  -28.1840 C   0  0  0  0  0  0  0  0  0  0  0  0
    0.3370   17.2020  -27.5910 C   0  0  0  0  0  0  0  0  0  0  0  0
    1.7160   17.3980  -27.4800 C   0  0  0  0  0  0  0  0  0  0  0  0
    2.4920   16.4460  -26.9080 F   0  0  0  0  0  0  0  0  0  0  0  0
    2.2940   18.5790  -27.9570 C   0  0  0  0  0  0  0  0  0  0  0  0
    1.4950   19.5610  -28.5490 C   0  0  0  0  0  0  0  0  0  0  0  0
   -1.8620   20.8220  -28.7070 C   0  0  0  0  0  0  0  0  0  0  0  0
   -2.2360   20.3520  -27.5960 O   0  0  0  0  0  0  0  0  0  0  0  0
   -5.9660   24.9000  -30.1200 C   0  0  0  0  0  0  0  0  0  0  0  0
   -7.2130   24.3480  -30.4240 C   0  0  0  0  0  0  0  0  0  0  0  0
   -9.0357   21.2117  -30.1696 H   0  0  0  0  0  0  0  0  0  0  0  0
  -10.0111   21.0430  -31.6686 H   0  0  0  0  0  0  0  0  0  0  0  0
   -8.2764   20.5767  -31.6686 H   0  0  0  0  0  0  0  0  0  0  0  0
   -6.2101   21.9094  -32.6034 H   0  0  0  0  0  0  0  0  0  0  0  0
   -3.9953   22.9118  -32.0775 H   0  0  0  0  0  0  0  0  0  0  0  0
   -2.4390   23.9555  -27.3622 H   0  0  0  0  0  0  0  0  0  0  0  0
   -4.0049   24.8100  -27.6672 H   0  0  0  0  0  0  0  0  0  0  0  0
   -2.7730   23.0890  -30.9790 H   0  0  0  0  0  0  0  0  0  0  0  0
   -0.7911   22.2809  -32.1044 H   0  0  0  0  0  0  0  0  0  0  0  0
    0.5870   20.5190  -30.9985 H   0  0  0  0  0  0  0  0  0  0  0  0
   -1.5506   18.0234  -28.2657 H   0  0  0  0  0  0  0  0  0  0  0  0
   -0.1182   16.2755  -27.2110 H   0  0  0  0  0  0  0  0  0  0  0  0
    3.3791   18.7351  -27.8660 H   0  0  0  0  0  0  0  0  0  0  0  0
    1.9535   20.4908  -28.9168 H   0  0  0  0  0  0  0  0  0  0  0  0
   -5.8987   25.7474  -29.4218 H   0  0  0  0  0  0  0  0  0  0  0  0
   -8.1198   24.7611  -29.9581 H   0  0  0  0  0  0  0  0  0  0  0  0
  1  2  1  0
  2  3  2  0
  2  4  1  0
  4  5  2  0
  5  6  1  0
  6  7  2  0
  7  8  1  0
  8  9  1  0
  9 10  2  0
  9 11  1  0
 11 12  1  0
 12 13  1  0
 13 14  2  0
 14 15  1  0
 15 16  2  0
 16 17  1  0
 17 18  1  0
 18 19  2  0
 19 20  1  0
 20 21  2  0
 21 22  1  0
 21 23  1  0
 23 24  2  0
 17 25  1  0
 25 26  2  0
  7 27  1  0
 27 28  2  0
 28  4  1  0
 25 13  1  0
 24 18  1  0
  1 29  1  0
  1 30  1  0
  1 31  1  0
  5 32  1  0
  6 33  1  0
 11 34  1  0
 11 35  1  0
 14 36  1  0
 15 37  1  0
 16 38  1  0
 19 39  1  0
 20 40  1  0
 23 41  1  0
 24 42  1  0
 27 43  1  0
 28 44  1  0
M  CHG  2   8  -1  14   1
M  END
>  <UniqueID>  (45) 
42

>  <SMILES>  (45) 
CC(=O)c1ccc([N-]C(=O)CSc2[nH+]ccn(-c3ccc(F)cc3)c2=O)cc1

>  <Energy>  (45) 
49.27863289222653

>  <Genealogy>  (45) 
CC(=O)c1ccc([N-]C(=O)CSc2[nH+]ccn(-c3ccc(F)cc3)c2=O)cc1 (protonated)
CC(=O)c1ccc([N-]C(=O)CSc2[nH+]ccn(-c3ccc(F)cc3)c2=O)cc1 (3D coordinates assigned)
CC(=O)c1ccc([N-]C(=O)CSc2[nH+]ccn(-c3ccc(F)cc3)c2=O)cc1 (optimized conformer: 49.27863289222653 kcal/mol)

>  <smiles>  (45) 
CC(=O)c1ccc(NC(=O)CSc2nccn(-c3ccc(F)cc3)c2=O)cc1

>  <score_type>  (45) 
oracle

>  <origin>  (45) 
adg

>  <m_score__min__energy>  (45) 
-9.7400000000000002

>  <m_primary>  (45) 
energy

$$$$
45:0
     RDKit          3D

 45 47  0  0  0  0  0  0  0  0999 V2000
   -9.0160   18.5530  -31.9660 C   0  0  0  0  0  0  0  0  0  0  0  0
   -7.7540   17.9710  -31.7330 O   0  0  0  0  0  0  0  0  0  0  0  0
   -7.1890   17.5710  -32.9650 C   0  0  0  0  0  0  0  0  0  0  0  0
   -6.2830   18.6830  -33.4920 C   0  0  0  0  0  0  0  0  0  0  0  0
   -6.2970   19.8340  -32.5910 N   0  0  0  0  0  0  0  0  0  0  0  0
   -5.4490   20.9780  -32.7910 C   0  0  0  0  0  0  0  0  0  0  0  0
   -4.5120   20.9190  -33.6330 O   0  0  0  0  0  0  0  0  0  0  0  0
   -5.6480   22.2220  -32.0080 C   0  0  0  0  0  0  0  0  0  0  0  0
   -6.9440   22.6360  -31.6620 C   0  0  0  0  0  0  0  0  0  0  0  0
   -7.1420   23.7920  -30.9080 C   0  0  0  0  0  0  0  0  0  0  0  0
   -6.0510   24.5610  -30.4750 C   0  0  0  0  0  0  0  0  0  0  0  0
   -6.3070   25.7700  -29.6170 C   0  0  0  0  0  0  0  0  0  0  0  0
   -4.7430   24.1730  -30.8530 C   0  0  0  0  0  0  0  0  0  0  0  0
   -3.5870   24.9250  -30.4630 N   0  0  0  0  0  0  0  0  0  0  0  0
   -2.7060   24.5480  -29.4000 C   0  0  0  0  0  0  0  0  0  0  0  0
   -1.7480   25.2980  -29.0690 O   0  0  0  0  0  0  0  0  0  0  0  0
   -2.8960   23.2670  -28.7100 C   0  0  0  0  0  0  0  0  0  0  0  0
   -3.9430   22.9380  -27.8740 C   0  0  0  0  0  0  0  0  0  0  0  0
   -3.7410   21.7120  -27.4610 O   0  0  0  0  0  0  0  0  0  0  0  0
   -2.6250   21.2940  -28.0160 C   0  0  0  0  0  0  0  0  0  0  0  0
   -2.0360   19.9400  -27.7770 C   0  0  0  0  0  0  0  0  0  0  0  0
   -2.8630   19.0450  -26.8670 C   0  0  0  0  0  0  0  0  0  0  0  0
   -1.5890   19.6900  -26.3450 C   0  0  0  0  0  0  0  0  0  0  0  0
   -2.0480   22.2250  -28.8040 N   0  0  0  0  0  0  0  0  0  0  0  0
   -4.5520   22.9930  -31.5830 C   0  0  0  0  0  0  0  0  0  0  0  0
   -9.5001   18.7763  -31.0038 H   0  0  0  0  0  0  0  0  0  0  0  0
   -8.8904   19.4841  -32.5380 H   0  0  0  0  0  0  0  0  0  0  0  0
   -9.6427   17.8529  -32.5380 H   0  0  0  0  0  0  0  0  0  0  0  0
   -6.5981   16.6549  -32.8177 H   0  0  0  0  0  0  0  0  0  0  0  0
   -7.9916   17.3754  -33.6913 H   0  0  0  0  0  0  0  0  0  0  0  0
   -5.2545   18.3017  -33.5742 H   0  0  0  0  0  0  0  0  0  0  0  0
   -6.6528   19.0020  -34.4777 H   0  0  0  0  0  0  0  0  0  0  0  0
   -6.8900   19.7750  -31.7330 H   0  0  0  0  0  0  0  0  0  0  0  0
   -7.8110   22.0431  -31.9887 H   0  0  0  0  0  0  0  0  0  0  0  0
   -8.1645   24.1046  -30.6498 H   0  0  0  0  0  0  0  0  0  0  0  0
   -6.2469   25.4860  -28.5560 H   0  0  0  0  0  0  0  0  0  0  0  0
   -5.5520   26.5400  -29.8338 H   0  0  0  0  0  0  0  0  0  0  0  0
   -7.3093   26.1679  -29.8338 H   0  0  0  0  0  0  0  0  0  0  0  0
   -4.7903   23.5855  -27.6044 H   0  0  0  0  0  0  0  0  0  0  0  0
   -1.5734   19.8305  -28.7690 H   0  0  0  0  0  0  0  0  0  0  0  0
   -3.8424   19.3872  -26.5014 H   0  0  0  0  0  0  0  0  0  0  0  0
   -3.2452   18.0153  -26.9272 H   0  0  0  0  0  0  0  0  0  0  0  0
   -1.6467   20.4988  -25.6017 H   0  0  0  0  0  0  0  0  0  0  0  0
   -0.6678   19.3202  -25.8711 H   0  0  0  0  0  0  0  0  0  0  0  0
   -3.5307   22.6652  -31.8270 H   0  0  0  0  0  0  0  0  0  0  0  0
  1  2  1  0
  2  3  1  0
  3  4  1  0
  4  5  1  0
  5  6  1  0
  6  7  2  0
  6  8  1  0
  8  9  2  0
  9 10  1  0
 10 11  2  0
 11 12  1  0
 11 13  1  0
 13 14  1  0
 14 15  1  0
 15 16  2  0
 15 17  1  0
 17 18  2  0
 18 19  1  0
 19 20  1  0
 20 21  1  0
 21 22  1  0
 22 23  1  0
 20 24  2  0
 13 25  2  0
 25  8  1  0
 24 17  1  0
 23 21  1  0
  1 26  1  0
  1 27  1  0
  1 28  1  0
  3 29  1  0
  3 30  1  0
  4 31  1  0
  4 32  1  0
  5 33  1  0
  9 34  1  0
 10 35  1  0
 12 36  1  0
 12 37  1  0
 12 38  1  0
 18 39  1  0
 21 40  1  0
 22 41  1  0
 22 42  1  0
 23 43  1  0
 23 44  1  0
 25 45  1  0
M  CHG  1  14  -1
M  END
>  <UniqueID>  (46) 
43

>  <SMILES>  (46) 
COCCNC(=O)c1ccc(C)c([N-]C(=O)c2coc(C3CC3)n2)c1

>  <Energy>  (46) 
342.2507526018076

>  <Genealogy>  (46) 
COCCNC(=O)c1ccc(C)c([N-]C(=O)c2coc(C3CC3)n2)c1 (protonated)
COCCNC(=O)c1ccc(C)c([N-]C(=O)c2coc(C3CC3)n2)c1 (3D coordinates assigned)
COCCNC(=O)c1ccc(C)c([N-]C(=O)c2coc(C3CC3)n2)c1 (nonaromatic ring conformer: 342.2507526018076 kcal/mol)

>  <smiles>  (46) 
COCCNC(=O)c1ccc(C)c(NC(=O)c2coc(C3CC3)n2)c1

>  <score_type>  (46) 
oracle

>  <origin>  (46) 
adg

>  <m_score__min__energy>  (46) 
-9.4399999999999995

>  <m_primary>  (46) 
energy

$$$$
46:0
     RDKit          3D

 36 39  0  0  0  0  0  0  0  0999 V2000
   -4.2840   21.1490  -33.4280 N   0  0  0  0  0  0  0  0  0  0  0  0
   -5.3110   20.7460  -33.0800 C   0  0  0  0  0  0  0  0  0  0  0  0
   -6.5930   20.2450  -32.6440 C   0  0  0  0  0  0  0  0  0  0  0  0
   -6.7750   18.8560  -32.5580 C   0  0  0  0  0  0  0  0  0  0  0  0
   -7.9970   18.3310  -32.1310 C   0  0  0  0  0  0  0  0  0  0  0  0
   -9.0430   19.1860  -31.7830 C   0  0  0  0  0  0  0  0  0  0  0  0
   -8.8730   20.5700  -31.8650 C   0  0  0  0  0  0  0  0  0  0  0  0
   -7.6550   21.1160  -32.3060 C   0  0  0  0  0  0  0  0  0  0  0  0
   -7.4970   22.6170  -32.3430 C   0  0  0  0  0  0  0  0  0  0  0  0
   -6.4870   23.0360  -31.3760 N   0  0  0  0  0  0  0  0  0  0  0  0
   -6.7140   23.3260  -30.0590 C   0  0  0  0  0  0  0  0  0  0  0  0
   -5.5010   23.7250  -29.5470 C   0  0  0  0  0  0  0  0  0  0  0  0
   -4.8290   24.1680  -28.4390 C   0  0  0  0  0  0  0  0  0  0  0  0
   -3.5150   24.3420  -28.9270 C   0  0  0  0  0  0  0  0  0  0  0  0
   -2.3720   24.8130  -28.1260 C   0  0  0  0  0  0  0  0  0  0  0  0
   -2.0930   24.2460  -26.8740 C   0  0  0  0  0  0  0  0  0  0  0  0
   -1.0020   24.7130  -26.1370 C   0  0  0  0  0  0  0  0  0  0  0  0
   -0.2030   25.7360  -26.6510 C   0  0  0  0  0  0  0  0  0  0  0  0
   -0.5090   26.2780  -27.9000 C   0  0  0  0  0  0  0  0  0  0  0  0
   -1.5760   25.8100  -28.6030 N   0  0  0  0  0  0  0  0  0  0  0  0
   -3.4320   24.0250  -30.2180 O   0  0  0  0  0  0  0  0  0  0  0  0
   -4.6410   23.6630  -30.5420 C   0  0  0  0  0  0  0  0  0  0  0  0
   -5.2050   23.2470  -31.6800 N   0  0  0  0  0  0  0  0  0  0  0  0
   -5.9519   18.1780  -32.8280 H   0  0  0  0  0  0  0  0  0  0  0  0
   -8.1348   17.2414  -32.0690 H   0  0  0  0  0  0  0  0  0  0  0  0
  -10.0029   18.7697  -31.4436 H   0  0  0  0  0  0  0  0  0  0  0  0
   -9.6994   21.2385  -31.5820 H   0  0  0  0  0  0  0  0  0  0  0  0
   -7.1859   22.9259  -33.3519 H   0  0  0  0  0  0  0  0  0  0  0  0
   -8.4580   23.0879  -32.0888 H   0  0  0  0  0  0  0  0  0  0  0  0
   -7.6701   23.2549  -29.5198 H   0  0  0  0  0  0  0  0  0  0  0  0
   -5.2154   24.3440  -27.4242 H   0  0  0  0  0  0  0  0  0  0  0  0
   -2.7277   23.4406  -26.4758 H   0  0  0  0  0  0  0  0  0  0  0  0
   -0.7730   24.2757  -25.1540 H   0  0  0  0  0  0  0  0  0  0  0  0
    0.6580   26.1106  -26.0779 H   0  0  0  0  0  0  0  0  0  0  0  0
    0.1128   27.0841  -28.3166 H   0  0  0  0  0  0  0  0  0  0  0  0
   -4.7590   23.1200  -32.6150 H   0  0  0  0  0  0  0  0  0  0  0  0
  1  2  3  0
  2  3  1  0
  3  4  2  0
  4  5  1  0
  5  6  2  0
  6  7  1  0
  7  8  2  0
  8  9  1  0
  9 10  1  0
 10 11  1  0
 11 12  2  0
 12 13  1  0
 13 14  2  0
 14 15  1  0
 15 16  2  0
 16 17  1  0
 17 18  2  0
 18 19  1  0
 19 20  2  0
 14 21  1  0
 21 22  1  0
 22 23  2  0
  8  3  1  0
 23 10  1  0
 22 12  1  0
 20 15  1  0
  4 24  1  0
  5 25  1  0
  6 26  1  0
  7 27  1  0
  9 28  1  0
  9 29  1  0
 11 30  1  0
 13 31  1  0
 16 32  1  0
 17 33  1  0
 18 34  1  0
 19 35  1  0
 23 36  1  0
M  CHG  1  23   1
M  END
>  <UniqueID>  (47) 
44

>  <SMILES>  (47) 
N#Cc1ccccc1Cn1cc2cc(-c3ccccn3)oc2[nH+]1

>  <Energy>  (47) 
131.07686351515477

>  <Genealogy>  (47) 
N#Cc1ccccc1Cn1cc2cc(-c3ccccn3)oc2[nH+]1 (protonated)
N#Cc1ccccc1Cn1cc2cc(-c3ccccn3)oc2[nH+]1 (3D coordinates assigned)
N#Cc1ccccc1Cn1cc2cc(-c3ccccn3)oc2[nH+]1 (optimized conformer: 131.07686351515477 kcal/mol)

>  <smiles>  (47) 
N#Cc1ccccc1Cn1cc2cc(-c3ccccn3)oc2n1

>  <score_type>  (47) 
oracle

>  <origin>  (47) 
adg

>  <m_score__min__energy>  (47) 
-7.8700000000000001

>  <m_primary>  (47) 
energy

$$$$
47:0
     RDKit          3D

 43 44  0  0  0  0  0  0  0  0999 V2000
   -6.1940   16.7610  -33.7950 C   0  0  0  0  0  0  0  0  0  0  0  0
   -6.8640   17.9750  -33.1560 C   0  0  0  0  0  0  0  0  0  0  0  0
   -6.4750   19.2740  -33.8900 C   0  0  0  0  0  0  0  0  0  0  0  0
   -6.3450   20.4310  -32.9650 N   0  0  0  0  0  0  0  0  0  0  0  0
   -7.1570   20.3050  -31.7190 C   0  0  0  0  0  0  0  0  0  0  0  0
   -8.6900   20.4890  -31.8490 C   0  0  0  0  0  0  0  0  0  0  0  0
   -9.2810   21.5400  -30.9100 C   0  0  0  0  0  0  0  0  0  0  0  0
   -4.9520   20.7390  -32.6940 C   0  0  0  0  0  0  0  0  0  0  0  0
   -4.1410   19.8370  -32.5190 O   0  0  0  0  0  0  0  0  0  0  0  0
   -4.4850   22.1770  -32.6800 C   0  0  0  0  0  0  0  0  0  0  0  0
   -5.0730   22.9260  -31.5580 N   0  0  0  0  0  0  0  0  0  0  0  0
   -6.4080   23.4690  -31.6860 C   0  0  0  0  0  0  0  0  0  0  0  0
   -7.0940   23.2380  -32.7180 O   0  0  0  0  0  0  0  0  0  0  0  0
   -7.0080   24.2860  -30.5810 C   0  0  0  0  0  0  0  0  0  0  0  0
   -5.7590   25.4600  -29.9780 S   0  0  0  0  0  0  0  0  0  0  0  0
   -4.6500   24.1530  -29.4490 C   0  0  0  0  0  0  0  0  0  0  0  0
   -4.0840   24.2220  -28.2150 N   0  0  0  0  0  0  0  0  0  0  0  0
   -3.2110   23.2810  -27.7730 C   0  0  0  0  0  0  0  0  0  0  0  0
   -2.8700   22.2050  -28.5930 C   0  0  0  0  0  0  0  0  0  0  0  0
   -3.4500   22.0970  -29.8570 C   0  0  0  0  0  0  0  0  0  0  0  0
   -4.3610   23.0720  -30.3050 C   0  0  0  0  0  0  0  0  0  0  0  0
   -5.8234   16.0894  -33.0066 H   0  0  0  0  0  0  0  0  0  0  0  0
   -6.9243   16.2255  -34.4194 H   0  0  0  0  0  0  0  0  0  0  0  0
   -5.3516   17.0934  -34.4194 H   0  0  0  0  0  0  0  0  0  0  0  0
   -7.9558   17.8490  -33.2029 H   0  0  0  0  0  0  0  0  0  0  0  0
   -6.5280   18.0500  -32.1112 H   0  0  0  0  0  0  0  0  0  0  0  0
   -5.5118   19.1179  -34.3978 H   0  0  0  0  0  0  0  0  0  0  0  0
   -7.2760   19.5065  -34.6072 H   0  0  0  0  0  0  0  0  0  0  0  0
   -6.7310   21.2620  -33.4740 H   0  0  0  0  0  0  0  0  0  0  0  0
   -6.9783   19.3004  -31.3082 H   0  0  0  0  0  0  0  0  0  0  0  0
   -6.8256   21.1370  -31.0802 H   0  0  0  0  0  0  0  0  0  0  0  0
   -8.9143   20.7870  -32.8838 H   0  0  0  0  0  0  0  0  0  0  0  0
   -9.1465   19.5275  -31.5714 H   0  0  0  0  0  0  0  0  0  0  0  0
   -9.1105   21.2367  -29.8665 H   0  0  0  0  0  0  0  0  0  0  0  0
   -8.7961   22.5101  -31.0938 H   0  0  0  0  0  0  0  0  0  0  0  0
  -10.3618   21.6297  -31.0938 H   0  0  0  0  0  0  0  0  0  0  0  0
   -3.3891   22.1957  -32.5865 H   0  0  0  0  0  0  0  0  0  0  0  0
   -4.8071   22.6528  -33.6180 H   0  0  0  0  0  0  0  0  0  0  0  0
   -7.8810   24.8372  -30.9606 H   0  0  0  0  0  0  0  0  0  0  0  0
   -7.3294   23.6273  -29.7607 H   0  0  0  0  0  0  0  0  0  0  0  0
   -2.7723   23.3669  -26.7679 H   0  0  0  0  0  0  0  0  0  0  0  0
   -2.1504   21.4488  -28.2460 H   0  0  0  0  0  0  0  0  0  0  0  0
   -3.1944   21.2466  -30.5062 H   0  0  0  0  0  0  0  0  0  0  0  0
  1  2  1  0
  2  3  1  0
  3  4  1  0
  4  5  1  0
  5  6  1  0
  6  7  1  0
  4  8  1  0
  8  9  2  0
  8 10  1  0
 10 11  1  0
 11 12  1  0
 12 13  2  0
 12 14  1  0
 14 15  1  0
 15 16  1  0
 16 17  2  0
 17 18  1  0
 18 19  2  0
 19 20  1  0
 20 21  2  0
 21 11  1  0
 21 16  1  0
  1 22  1  0
  1 23  1  0
  1 24  1  0
  2 25  1  0
  2 26  1  0
  3 27  1  0
  3 28  1  0
  4 29  1  0
  5 30  1  0
  5 31  1  0
  6 32  1  0
  6 33  1  0
  7 34  1  0
  7 35  1  0
  7 36  1  0
 10 37  1  0
 10 38  1  0
 14 39  1  0
 14 40  1  0
 18 41  1  0
 19 42  1  0
 20 43  1  0
M  CHG  1   4   1
M  END
>  <UniqueID>  (48) 
45

>  <SMILES>  (48) 
CCC[NH+](CCC)C(=O)CN1C(=O)CSc2ncccc21

>  <Energy>  (48) 
51.91630397324221

>  <Genealogy>  (48) 
CCC[NH+](CCC)C(=O)CN1C(=O)CSc2ncccc21 (protonated)
CCC[NH+](CCC)C(=O)CN1C(=O)CSc2ncccc21 (3D coordinates assigned)
CCC[NH+](CCC)C(=O)CN1C(=O)CSc2ncccc21 (nonaromatic ring conformer: 51.91630397324221 kcal/mol)

>  <smiles>  (48) 
CCCN(CCC)C(=O)CN1C(=O)CSc2ncccc21

>  <score_type>  (48) 
oracle

>  <origin>  (48) 
adg

>  <m_score__min__energy>  (48) 
-6.7599999999999998

>  <m_primary>  (48) 
energy

$$$$
48:0
     RDKit          3D

 33 34  0  0  0  0  0  0  0  0999 V2000
   -0.0820   23.1810  -28.5700 C   0  0  0  0  0  0  0  0  0  0  0  0
   -1.4530   22.7550  -28.3030 N   0  0  0  0  0  0  0  0  0  0  0  0
   -1.8090   21.6150  -27.6780 C   0  0  0  0  0  0  0  0  0  0  0  0
   -3.1840   21.5230  -27.6160 C   0  0  0  0  0  0  0  0  0  0  0  0
   -3.6860   22.6540  -28.2260 C   0  0  0  0  0  0  0  0  0  0  0  0
   -2.5950   23.3970  -28.6400 C   0  0  0  0  0  0  0  0  0  0  0  0
   -2.6660   24.7000  -29.3420 C   0  0  0  0  0  0  0  0  0  0  0  0
   -1.9620   25.6620  -28.9400 O   0  0  0  0  0  0  0  0  0  0  0  0
   -3.5640   24.9140  -30.4390 N   0  0  0  0  0  0  0  0  0  0  0  0
   -4.5380   23.9830  -30.9330 C   0  0  0  0  0  0  0  0  0  0  0  0
   -5.8900   24.3380  -30.8600 C   0  0  0  0  0  0  0  0  0  0  0  0
   -6.8780   23.4640  -31.3190 C   0  0  0  0  0  0  0  0  0  0  0  0
   -8.1860   23.8100  -31.2260 F   0  0  0  0  0  0  0  0  0  0  0  0
   -6.5190   22.2330  -31.8680 C   0  0  0  0  0  0  0  0  0  0  0  0
   -5.1730   21.8790  -31.9770 C   0  0  0  0  0  0  0  0  0  0  0  0
   -4.1640   22.7570  -31.5310 C   0  0  0  0  0  0  0  0  0  0  0  0
   -2.7960   22.4590  -31.6700 O   0  0  0  0  0  0  0  0  0  0  0  0
   -2.2370   21.3000  -32.2880 C   0  0  0  0  0  0  0  0  0  0  0  0
   -0.9690   20.8510  -31.5640 C   0  0  0  0  0  0  0  0  0  0  0  0
   -0.1990   21.9400  -31.2060 F   0  0  0  0  0  0  0  0  0  0  0  0
   -1.3090   20.1420  -30.4260 F   0  0  0  0  0  0  0  0  0  0  0  0
   -0.2280   20.0330  -32.3990 F   0  0  0  0  0  0  0  0  0  0  0  0
    0.4433   23.3442  -27.6174 H   0  0  0  0  0  0  0  0  0  0  0  0
    0.4382   22.4021  -29.1468 H   0  0  0  0  0  0  0  0  0  0  0  0
   -0.0948   24.1175  -29.1468 H   0  0  0  0  0  0  0  0  0  0  0  0
   -1.1073   20.8688  -27.2770 H   0  0  0  0  0  0  0  0  0  0  0  0
   -3.7675   20.7057  -27.1669 H   0  0  0  0  0  0  0  0  0  0  0  0
   -4.7467   22.9142  -28.3575 H   0  0  0  0  0  0  0  0  0  0  0  0
   -6.1765   25.3126  -30.4380 H   0  0  0  0  0  0  0  0  0  0  0  0
   -7.2985   21.5393  -32.2160 H   0  0  0  0  0  0  0  0  0  0  0  0
   -4.8976   20.9079  -32.4141 H   0  0  0  0  0  0  0  0  0  0  0  0
   -2.9755   20.4853  -32.2588 H   0  0  0  0  0  0  0  0  0  0  0  0
   -1.9776   21.5480  -33.3278 H   0  0  0  0  0  0  0  0  0  0  0  0
  1  2  1  0
  2  3  1  0
  3  4  2  0
  4  5  1  0
  5  6  2  0
  6  7  1  0
  7  8  2  0
  7  9  1  0
  9 10  1  0
 10 11  2  0
 11 12  1  0
 12 13  1  0
 12 14  2  0
 14 15  1  0
 15 16  2  0
 16 17  1  0
 17 18  1  0
 18 19  1  0
 19 20  1  0
 19 21  1  0
 19 22  1  0
  6  2  1  0
 16 10  1  0
  1 23  1  0
  1 24  1  0
  1 25  1  0
  3 26  1  0
  4 27  1  0
  5 28  1  0
 11 29  1  0
 14 30  1  0
 15 31  1  0
 18 32  1  0
 18 33  1  0
M  CHG  1   9  -1
M  END
>  <UniqueID>  (49) 
46

>  <SMILES>  (49) 
Cn1cccc1C(=O)[N-]c1cc(F)ccc1OCC(F)(F)F

>  <Energy>  (49) 
64.3140531327029

>  <Genealogy>  (49) 
Cn1cccc1C(=O)[N-]c1cc(F)ccc1OCC(F)(F)F (protonated)
Cn1cccc1C(=O)[N-]c1cc(F)ccc1OCC(F)(F)F (3D coordinates assigned)
Cn1cccc1C(=O)[N-]c1cc(F)ccc1OCC(F)(F)F (optimized conformer: 64.3140531327029 kcal/mol)

>  <smiles>  (49) 
Cn1cccc1C(=O)Nc1cc(F)ccc1OCC(F)(F)F

>  <score_type>  (49) 
oracle

>  <origin>  (49) 
adg

>  <m_score__min__energy>  (49) 
-7.3499999999999996

>  <m_primary>  (49) 
energy

$$$$
