0:0
     RDKit          3D

 37 38  0  0  0  0  0  0  0  0999 V2000
   -3.0520   21.8460  -29.2410 C   0  0  0  0  0  0  0  0  0  0  0  0
   -2.6860   22.5470  -30.5440 C   0  0  0  0  0  0  0  0  0  0  0  0
   -2.9020   21.6500  -31.6810 N   0  0  0  0  0  0  0  0  0  0  0  0
   -2.0450   20.7070  -32.1100 C   0  0  0  0  0  0  0  0  0  0  0  0
   -2.5890   20.1050  -33.2220 C   0  0  0  0  0  0  0  0  0  0  0  0
   -3.7870   20.6610  -33.4950 N   0  0  0  0  0  0  0  0  0  0  0  0
   -3.9480   21.5990  -32.5370 C   0  0  0  0  0  0  0  0  0  0  0  0
   -5.1920   22.4400  -32.4390 C   0  0  0  0  0  0  0  0  0  0  0  0
   -6.1210   21.9320  -31.4180 N   0  0  0  0  0  0  0  0  0  0  0  0
   -6.3130   22.6660  -30.1570 C   0  0  0  0  0  0  0  0  0  0  0  0
   -6.5370   24.1560  -30.4340 C   0  0  0  0  0  0  0  0  0  0  0  0
   -5.2560   24.8330  -30.6620 C   0  0  0  0  0  0  0  0  0  0  0  0
   -4.2440   25.3660  -30.8420 N   0  0  0  0  0  0  0  0  0  0  0  0
   -6.9560   20.7920  -31.7090 C   0  0  0  0  0  0  0  0  0  0  0  0
   -6.4120   19.4980  -31.6520 C   0  0  0  0  0  0  0  0  0  0  0  0
   -7.1990   18.3810  -31.9440 C   0  0  0  0  0  0  0  0  0  0  0  0
   -8.5470   18.5430  -32.2660 C   0  0  0  0  0  0  0  0  0  0  0  0
   -9.1120   19.8190  -32.2900 C   0  0  0  0  0  0  0  0  0  0  0  0
   -8.3280   20.9450  -32.0100 C   0  0  0  0  0  0  0  0  0  0  0  0
   -9.1180   22.5170  -31.9600 Cl  0  0  0  0  0  0  0  0  0  0  0  0
   -2.7297   22.4633  -28.3895 H   0  0  0  0  0  0  0  0  0  0  0  0
   -4.1414   21.7001  -29.1966 H   0  0  0  0  0  0  0  0  0  0  0  0
   -2.5491   20.8687  -29.1966 H   0  0  0  0  0  0  0  0  0  0  0  0
   -3.3140   23.4422  -30.6634 H   0  0  0  0  0  0  0  0  0  0  0  0
   -1.6245   22.8335  -30.5106 H   0  0  0  0  0  0  0  0  0  0  0  0
   -1.0763   20.4593  -31.6515 H   0  0  0  0  0  0  0  0  0  0  0  0
   -2.1189   19.2951  -33.7991 H   0  0  0  0  0  0  0  0  0  0  0  0
   -4.9052   23.4693  -32.1777 H   0  0  0  0  0  0  0  0  0  0  0  0
   -5.7038   22.4046  -33.4120 H   0  0  0  0  0  0  0  0  0  0  0  0
   -7.1895   22.2595  -29.6311 H   0  0  0  0  0  0  0  0  0  0  0  0
   -5.4121   22.5503  -29.5366 H   0  0  0  0  0  0  0  0  0  0  0  0
   -7.1695   24.2673  -31.3270 H   0  0  0  0  0  0  0  0  0  0  0  0
   -7.0299   24.6104  -29.5619 H   0  0  0  0  0  0  0  0  0  0  0  0
   -5.3561   19.3628  -31.3748 H   0  0  0  0  0  0  0  0  0  0  0  0
   -6.7561   17.3744  -31.9201 H   0  0  0  0  0  0  0  0  0  0  0  0
   -9.1651   17.6640  -32.5012 H   0  0  0  0  0  0  0  0  0  0  0  0
  -10.1786   19.9408  -32.5301 H   0  0  0  0  0  0  0  0  0  0  0  0
  1  2  1  0
  2  3  1  0
  3  4  1  0
  4  5  2  0
  5  6  1  0
  6  7  2  0
  7  8  1  0
  8  9  1  0
  9 10  1  0
 10 11  1  0
 11 12  1  0
 12 13  3  0
  9 14  1  0
 14 15  2  0
 15 16  1  0
 16 17  2  0
 17 18  1  0
 18 19  2  0
 19 20  1  0
  7  3  1  0
 19 14  1  0
  1 21  1  0
  1 22  1  0
  1 23  1  0
  2 24  1  0
  2 25  1  0
  4 26  1  0
  5 27  1  0
  8 28  1  0
  8 29  1  0
 10 30  1  0
 10 31  1  0
 11 32  1  0
 11 33  1  0
 15 34  1  0
 16 35  1  0
 17 36  1  0
 18 37  1  0
M  END
>  <UniqueID>  (1) 
1

>  <SMILES>  (1) 
CCn1ccnc1CN(CCC#N)c1ccccc1Cl

>  <Energy>  (1) 
62.34512599370792

>  <Genealogy>  (1) 
CCn1ccnc1CN(CCC#N)c1ccccc1Cl (3D coordinates assigned)
CCn1ccnc1CN(CCC#N)c1ccccc1Cl (optimized conformer: 62.34512599370792 kcal/mol)

>  <smiles>  (1) 
CCn1ccnc1CN(CCC#N)c1ccccc1Cl

>  <score_type>  (1) 
oracle

>  <origin>  (1) 
adg

>  <m_score__min__energy>  (1) 
-7

>  <m_primary>  (1) 
energy

$$$$
1:0
     RDKit          3D

 37 39  0  0  0  0  0  0  0  0999 V2000
   -9.4760   22.4440  -31.9520 C   0  0  0  0  0  0  0  0  0  0  0  0
   -8.5240   21.5500  -31.1620 C   0  0  0  0  0  0  0  0  0  0  0  0
   -7.1440   22.0780  -31.2130 N   0  0  0  0  0  0  0  0  0  0  0  0
   -6.9320   23.3130  -30.6630 C   0  0  0  0  0  0  0  0  0  0  0  0
   -5.6690   23.9170  -30.6710 C   0  0  0  0  0  0  0  0  0  0  0  0
   -5.5100   25.2670  -30.0770 C   0  0  0  0  0  0  0  0  0  0  0  0
   -6.3710   25.7250  -29.0310 N   0  0  0  0  0  0  0  0  0  0  0  0
   -4.5790   26.0170  -30.4760 O   0  0  0  0  0  0  0  0  0  0  0  0
   -4.5870   23.2130  -31.2190 C   0  0  0  0  0  0  0  0  0  0  0  0
   -3.4280   23.7130  -31.1880 O   0  0  0  0  0  0  0  0  0  0  0  0
   -4.7900   21.9360  -31.7700 C   0  0  0  0  0  0  0  0  0  0  0  0
   -3.7140   21.2170  -32.3250 C   0  0  0  0  0  0  0  0  0  0  0  0
   -3.9080   19.9440  -32.8540 C   0  0  0  0  0  0  0  0  0  0  0  0
   -5.1760   19.3530  -32.8400 C   0  0  0  0  0  0  0  0  0  0  0  0
   -5.3730   17.9870  -33.3920 C   0  0  0  0  0  0  0  0  0  0  0  0
   -4.3120   17.3030  -34.0090 C   0  0  0  0  0  0  0  0  0  0  0  0
   -4.5200   16.0210  -34.5220 C   0  0  0  0  0  0  0  0  0  0  0  0
   -5.7440   15.4370  -34.4240 N   0  0  0  0  0  0  0  0  0  0  0  0
   -6.7900   16.0720  -33.8340 C   0  0  0  0  0  0  0  0  0  0  0  0
   -6.6270   17.3560  -33.3090 C   0  0  0  0  0  0  0  0  0  0  0  0
   -6.2570   20.0640  -32.2930 C   0  0  0  0  0  0  0  0  0  0  0  0
   -6.0900   21.3650  -31.7550 C   0  0  0  0  0  0  0  0  0  0  0  0
  -10.0960   23.0262  -31.2544 H   0  0  0  0  0  0  0  0  0  0  0  0
   -8.8942   23.1298  -32.5855 H   0  0  0  0  0  0  0  0  0  0  0  0
  -10.1239   21.8203  -32.5855 H   0  0  0  0  0  0  0  0  0  0  0  0
   -8.8554   21.5076  -30.1140 H   0  0  0  0  0  0  0  0  0  0  0  0
   -8.5334   20.5443  -31.6076 H   0  0  0  0  0  0  0  0  0  0  0  0
   -7.7769   23.8456  -30.2021 H   0  0  0  0  0  0  0  0  0  0  0  0
   -7.0390   25.0780  -28.5560 H   0  0  0  0  0  0  0  0  0  0  0  0
   -6.2750   26.6980  -28.6640 H   0  0  0  0  0  0  0  0  0  0  0  0
   -2.7098   21.6658  -32.3407 H   0  0  0  0  0  0  0  0  0  0  0  0
   -3.0568   19.3980  -33.2868 H   0  0  0  0  0  0  0  0  0  0  0  0
   -3.3217   17.7754  -34.0876 H   0  0  0  0  0  0  0  0  0  0  0  0
   -3.6921   15.4825  -35.0063 H   0  0  0  0  0  0  0  0  0  0  0  0
   -7.7684   15.5734  -33.7695 H   0  0  0  0  0  0  0  0  0  0  0  0
   -7.4748   17.8708  -32.8333 H   0  0  0  0  0  0  0  0  0  0  0  0
   -7.2549   19.6012  -32.2818 H   0  0  0  0  0  0  0  0  0  0  0  0
  1  2  1  0
  2  3  1  0
  3  4  1  0
  4  5  2  0
  5  6  1  0
  6  7  1  0
  6  8  2  0
  5  9  1  0
  9 10  2  0
  9 11  1  0
 11 12  2  0
 12 13  1  0
 13 14  2  0
 14 15  1  0
 15 16  2  0
 16 17  1  0
 17 18  2  0
 18 19  1  0
 19 20  2  0
 14 21  1  0
 21 22  2  0
 22  3  1  0
 22 11  1  0
 20 15  1  0
  1 23  1  0
  1 24  1  0
  1 25  1  0
  2 26  1  0
  2 27  1  0
  4 28  1  0
  7 29  1  0
  7 30  1  0
 12 31  1  0
 13 32  1  0
 16 33  1  0
 17 34  1  0
 19 35  1  0
 20 36  1  0
 21 37  1  0
M  END
>  <UniqueID>  (2) 
2

>  <SMILES>  (2) 
CCn1cc(C(N)=O)c(=O)c2ccc(-c3ccncc3)cc21

>  <Energy>  (2) 
56.6222196729677

>  <Genealogy>  (2) 
CCn1cc(C(N)=O)c(=O)c2ccc(-c3ccncc3)cc21 (3D coordinates assigned)
CCn1cc(C(N)=O)c(=O)c2ccc(-c3ccncc3)cc21 (optimized conformer: 56.6222196729677 kcal/mol)

>  <smiles>  (2) 
CCn1cc(C(N)=O)c(=O)c2ccc(-c3ccncc3)cc21

>  <score_type>  (2) 
oracle

>  <origin>  (2) 
adg

>  <m_score__min__energy>  (2) 
-8.9600000000000009

>  <m_primary>  (2) 
energy

$$$$
2:0
     RDKit          3D

 40 43  0  0  0  0  0  0  0  0999 V2000
   -2.0090   25.4200  -25.6970 C   0  0  0  0  0  0  0  0  0  0  0  0
   -0.8450   24.5970  -26.2870 C   0  0  0  0  0  0  0  0  0  0  0  0
    0.3300   24.3860  -25.3190 C   0  0  0  0  0  0  0  0  0  0  0  0
   -1.2860   23.2900  -26.9560 C   0  0  0  0  0  0  0  0  0  0  0  0
   -0.8930   22.1020  -26.3000 C   0  0  0  0  0  0  0  0  0  0  0  0
   -1.2660   20.8490  -26.7690 C   0  0  0  0  0  0  0  0  0  0  0  0
   -2.0530   20.7350  -27.9020 C   0  0  0  0  0  0  0  0  0  0  0  0
   -2.4680   21.8770  -28.5910 C   0  0  0  0  0  0  0  0  0  0  0  0
   -2.0850   23.1850  -28.1500 C   0  0  0  0  0  0  0  0  0  0  0  0
   -2.5490   24.3660  -28.9810 C   0  0  0  0  0  0  0  0  0  0  0  0
   -2.1860   25.5420  -28.7320 O   0  0  0  0  0  0  0  0  0  0  0  0
   -3.4310   24.1590  -30.1510 C   0  0  0  0  0  0  0  0  0  0  0  0
   -3.8610   25.1290  -30.8310 O   0  0  0  0  0  0  0  0  0  0  0  0
   -3.7730   22.7900  -30.5010 C   0  0  0  0  0  0  0  0  0  0  0  0
   -4.5430   22.2660  -31.5130 C   0  0  0  0  0  0  0  0  0  0  0  0
   -4.5300   20.9180  -31.3740 N   0  0  0  0  0  0  0  0  0  0  0  0
   -5.2090   19.9510  -32.2030 C   0  0  0  0  0  0  0  0  0  0  0  0
   -4.5820   19.4560  -33.3630 C   0  0  0  0  0  0  0  0  0  0  0  0
   -5.2290   18.5210  -34.1770 C   0  0  0  0  0  0  0  0  0  0  0  0
   -6.5080   18.0700  -33.8460 C   0  0  0  0  0  0  0  0  0  0  0  0
   -7.1450   18.5560  -32.7040 C   0  0  0  0  0  0  0  0  0  0  0  0
   -6.5030   19.4910  -31.8850 C   0  0  0  0  0  0  0  0  0  0  0  0
   -3.7920   20.5850  -30.3200 N   0  0  0  0  0  0  0  0  0  0  0  0
   -3.3220   21.7280  -29.7850 C   0  0  0  0  0  0  0  0  0  0  0  0
   -1.9618   25.3866  -24.5985 H   0  0  0  0  0  0  0  0  0  0  0  0
   -1.9290   26.4634  -26.0359 H   0  0  0  0  0  0  0  0  0  0  0  0
   -2.9661   24.9967  -26.0359 H   0  0  0  0  0  0  0  0  0  0  0  0
   -0.4562   25.2361  -27.0934 H   0  0  0  0  0  0  0  0  0  0  0  0
   -0.0326   24.4511  -24.2825 H   0  0  0  0  0  0  0  0  0  0  0  0
    0.7730   23.3939  -25.4908 H   0  0  0  0  0  0  0  0  0  0  0  0
    1.0905   25.1619  -25.4908 H   0  0  0  0  0  0  0  0  0  0  0  0
   -0.2746   22.1713  -25.3929 H   0  0  0  0  0  0  0  0  0  0  0  0
   -0.9349   19.9442  -26.2383 H   0  0  0  0  0  0  0  0  0  0  0  0
   -2.3532   19.7398  -28.2617 H   0  0  0  0  0  0  0  0  0  0  0  0
   -5.0717   22.8358  -32.2914 H   0  0  0  0  0  0  0  0  0  0  0  0
   -3.5748   19.8079  -33.6309 H   0  0  0  0  0  0  0  0  0  0  0  0
   -4.7292   18.1401  -35.0798 H   0  0  0  0  0  0  0  0  0  0  0  0
   -7.0135   17.3315  -34.4856 H   0  0  0  0  0  0  0  0  0  0  0  0
   -8.1546   18.2031  -32.4468 H   0  0  0  0  0  0  0  0  0  0  0  0
   -7.0117   19.8700  -30.9863 H   0  0  0  0  0  0  0  0  0  0  0  0
  1  2  1  0
  2  3  1  0
  2  4  1  0
  4  5  2  0
  5  6  1  0
  6  7  2  0
  7  8  1  0
  8  9  2  0
  9 10  1  0
 10 11  2  0
 10 12  1  0
 12 13  2  0
 12 14  1  0
 14 15  2  0
 15 16  1  0
 16 17  1  0
 17 18  2  0
 18 19  1  0
 19 20  2  0
 20 21  1  0
 21 22  2  0
 16 23  1  0
 23 24  2  0
  9  4  1  0
 24 14  1  0
 24  8  1  0
 22 17  1  0
  1 25  1  0
  1 26  1  0
  1 27  1  0
  2 28  1  0
  3 29  1  0
  3 30  1  0
  3 31  1  0
  5 32  1  0
  6 33  1  0
  7 34  1  0
 15 35  1  0
 18 36  1  0
 19 37  1  0
 20 38  1  0
 21 39  1  0
 22 40  1  0
M  END
>  <UniqueID>  (3) 
3

>  <SMILES>  (3) 
CC(C)c1cccc2c1C(=O)C(=O)c1cn(-c3ccccc3)nc1-2

>  <Energy>  (3) 
94.53234333239698

>  <Genealogy>  (3) 
CC(C)c1cccc2c1C(=O)C(=O)c1cn(-c3ccccc3)nc1-2 (3D coordinates assigned)
CC(C)c1cccc2c1C(=O)C(=O)c1cn(-c3ccccc3)nc1-2 (nonaromatic ring conformer: 94.53234333239698 kcal/mol)

>  <smiles>  (3) 
CC(C)c1cccc2c1C(=O)C(=O)c1cn(-c3ccccc3)nc1-2

>  <score_type>  (3) 
oracle

>  <origin>  (3) 
adg

>  <m_score__min__energy>  (3) 
-8.5199999999999996

>  <m_primary>  (3) 
energy

$$$$
3:0
     RDKit          3D

 31 33  0  0  0  0  0  0  0  0999 V2000
   -8.4038   23.9320  -32.4936 H   0  0  0  0  0  0  0  0  0  0  0  0
   -7.7030   23.2620  -31.9740 C   0  0  0  0  0  0  0  0  0  0  0  0
   -7.8870   21.9420  -32.1240 C   0  0  0  0  0  0  0  0  0  0  0  0
   -9.4780   21.1900  -31.7540 S   0  0  0  0  0  0  0  0  0  0  0  0
   -8.7380   19.5920  -32.1020 C   0  0  0  0  0  0  0  0  0  0  0  0
   -9.3900   18.5210  -31.9820 O   0  0  0  0  0  0  0  0  0  0  0  0
   -7.3890   19.6170  -32.5640 N   0  0  0  0  0  0  0  0  0  0  0  0
   -6.6260   18.4560  -32.9380 C   0  0  0  0  0  0  0  0  0  0  0  0
   -6.3950   17.4250  -32.0110 C   0  0  0  0  0  0  0  0  0  0  0  0
   -6.8004   17.5053  -30.9916 H   0  0  0  0  0  0  0  0  0  0  0  0
   -5.6530   16.2980  -32.3770 C   0  0  0  0  0  0  0  0  0  0  0  0
   -5.4758   15.4952  -31.6461 H   0  0  0  0  0  0  0  0  0  0  0  0
   -5.1360   16.1910  -33.6720 C   0  0  0  0  0  0  0  0  0  0  0  0
   -4.5530   15.3037  -33.9599 H   0  0  0  0  0  0  0  0  0  0  0  0
   -5.3600   17.2110  -34.6000 C   0  0  0  0  0  0  0  0  0  0  0  0
   -4.9530   17.1261  -35.6184 H   0  0  0  0  0  0  0  0  0  0  0  0
   -6.1010   18.3400  -34.2360 C   0  0  0  0  0  0  0  0  0  0  0  0
   -6.2736   19.1412  -34.9697 H   0  0  0  0  0  0  0  0  0  0  0  0
   -6.9110   20.9570  -32.6060 C   0  0  0  0  0  0  0  0  0  0  0  0
   -5.7750   21.2500  -33.0640 O   0  0  0  0  0  0  0  0  0  0  0  0
   -6.6400   23.8870  -31.1710 C   0  0  0  0  0  0  0  0  0  0  0  0
   -5.0040   23.4780  -31.2000 S   0  0  0  0  0  0  0  0  0  0  0  0
   -4.5610   24.4440  -29.8970 C   0  0  0  0  0  0  0  0  0  0  0  0
   -3.1960   24.5100  -29.3030 C   0  0  0  0  0  0  0  0  0  0  0  0
   -3.2731   24.5063  -28.2057 H   0  0  0  0  0  0  0  0  0  0  0  0
   -2.6103   23.6391  -29.6324 H   0  0  0  0  0  0  0  0  0  0  0  0
   -2.6970   25.4333  -29.6324 H   0  0  0  0  0  0  0  0  0  0  0  0
   -5.7000   25.0510  -29.3820 C   0  0  0  0  0  0  0  0  0  0  0  0
   -5.6875   25.7172  -28.5068 H   0  0  0  0  0  0  0  0  0  0  0  0
   -6.8640   24.7300  -30.0880 C   0  0  0  0  0  0  0  0  0  0  0  0
   -7.8599   25.1077  -29.8132 H   0  0  0  0  0  0  0  0  0  0  0  0
  1  2  1  0
  2  3  2  0
  3  4  1  0
  4  5  1  0
  5  6  2  0
  5  7  1  0
  7  8  1  0
  8  9  2  0
  9 10  1  0
  9 11  1  0
 11 12  1  0
 11 13  2  0
 13 14  1  0
 13 15  1  0
 15 16  1  0
 15 17  2  0
 17 18  1  0
  7 19  1  0
 19 20  2  0
  2 21  1  0
 21 22  1  0
 22 23  1  0
 23 24  1  0
 24 25  1  0
 24 26  1  0
 24 27  1  0
 23 28  2  0
 28 29  1  0
 28 30  1  0
 30 31  1  0
 19  3  1  0
 30 21  2  0
 17  8  1  0
M  END
>  <UniqueID>  (4) 
4

>  <SMILES>  (4) 
Cc1ccc(/C=C2/SC(=O)N(c3ccccc3)C2=O)s1

>  <Energy>  (4) 
90.19294553541492

>  <Genealogy>  (4) 
Cc1ccc(/C=C2/SC(=O)N(c3ccccc3)C2=O)s1 (cis-trans isomerization)
Cc1ccc(/C=C2/SC(=O)N(c3ccccc3)C2=O)s1 (3D coordinates assigned)
Cc1ccc(/C=C2/SC(=O)N(c3ccccc3)C2=O)s1 (nonaromatic ring conformer: 90.19294553541492 kcal/mol)

>  <smiles>  (4) 
Cc1ccc(C=C2SC(=O)N(c3ccccc3)C2=O)s1

>  <score_type>  (4) 
oracle

>  <origin>  (4) 
adg

>  <m_score__min__energy>  (4) 
-8.4900000000000002

>  <m_primary>  (4) 
energy

$$$$
4:0
     RDKit          3D

 78 82  0  0  0  0  0  0  0  0999 V2000
   -6.4890   16.4540  -34.1770 C   0  0  0  0  0  0  0  0  0  0  0  0
   -5.3360   16.3450  -33.1840 C   0  0  0  0  0  0  0  0  0  0  0  0
   -4.4380   17.4960  -33.3150 N   0  0  0  0  0  0  0  0  0  0  0  0
   -3.1670   17.4560  -33.7560 C   0  0  0  0  0  0  0  0  0  0  0  0
   -2.6120   18.7370  -33.8210 C   0  0  0  0  0  0  0  0  0  0  0  0
   -1.1520   18.9650  -34.2230 C   0  0  2  0  0  0  0  0  0  0  0  0
   -0.1810   18.0790  -33.3830 C   0  0  0  0  0  0  0  0  0  0  0  0
    0.8110   18.8780  -32.5140 C   0  0  0  0  0  0  0  0  0  0  0  0
    0.1760   20.0440  -31.8640 N   0  0  2  0  0  0  0  0  0  0  0  0
   -0.8600   19.6210  -30.8840 C   0  0  0  0  0  0  0  0  0  0  0  0
   -0.9910   20.5920  -29.6860 C   0  0  0  0  0  0  0  0  0  0  0  0
   -1.3290   22.0300  -30.1410 C   0  0  2  0  0  0  0  0  0  0  0  0
   -0.9110   23.0510  -29.0540 C   0  0  0  0  0  0  0  0  0  0  0  0
   -1.5330   24.4170  -29.3460 C   0  0  0  0  0  0  0  0  0  0  0  0
   -3.0780   24.3760  -29.2890 C   0  0  1  0  0  0  0  0  0  0  0  0
   -3.6190   25.2920  -30.2900 N   0  0  0  0  0  0  0  0  0  0  0  0
   -4.9960   25.3400  -30.6690 C   0  0  0  0  0  0  0  0  0  0  0  0
   -5.7340   26.2820  -30.2720 O   0  0  0  0  0  0  0  0  0  0  0  0
   -5.5840   24.2090  -31.4560 C   0  0  0  0  0  0  0  0  0  0  0  0
   -7.0950   24.1050  -31.2150 C   0  0  0  0  0  0  0  0  0  0  0  0
   -7.3490   23.4500  -29.9680 O   0  0  0  0  0  0  0  0  0  0  0  0
   -7.6090   22.0750  -30.1590 C   0  0  0  0  0  0  0  0  0  0  0  0
   -8.9010   21.9010  -30.9610 C   0  0  0  0  0  0  0  0  0  0  0  0
   -9.0000   23.0240  -31.9950 C   0  0  0  0  0  0  0  0  0  0  0  0
   -7.7070   23.4800  -32.3400 O   0  0  0  0  0  0  0  0  0  0  0  0
   -3.6450   22.9560  -29.5220 C   0  0  0  0  0  0  0  0  0  0  0  0
   -2.8240   22.1790  -30.5540 C   0  0  0  0  0  0  0  0  0  0  0  0
   -0.3510   21.0150  -32.8640 C   0  0  0  0  0  0  0  0  0  0  0  0
   -0.6460   20.4170  -34.2620 C   0  0  0  0  0  0  0  0  0  0  0  0
   -3.6600   19.5990  -33.4620 C   0  0  0  0  0  0  0  0  0  0  0  0
   -3.7870   20.9960  -33.4200 C   0  0  0  0  0  0  0  0  0  0  0  0
   -5.0060   21.5500  -32.9970 C   0  0  0  0  0  0  0  0  0  0  0  0
   -6.0900   20.7230  -32.6530 C   0  0  0  0  0  0  0  0  0  0  0  0
   -5.9680   19.3310  -32.7360 C   0  0  0  0  0  0  0  0  0  0  0  0
   -4.7400   18.7960  -33.1480 C   0  0  0  0  0  0  0  0  0  0  0  0
   -7.4382   16.5437  -33.6283 H   0  0  0  0  0  0  0  0  0  0  0  0
   -6.3456   17.3426  -34.8093 H   0  0  0  0  0  0  0  0  0  0  0  0
   -6.5146   15.5543  -34.8093 H   0  0  0  0  0  0  0  0  0  0  0  0
   -5.7401   16.3151  -32.1613 H   0  0  0  0  0  0  0  0  0  0  0  0
   -4.7701   15.4254  -33.3940 H   0  0  0  0  0  0  0  0  0  0  0  0
   -2.6337   16.5338  -34.0300 H   0  0  0  0  0  0  0  0  0  0  0  0
   -1.1493   18.6558  -35.2787 H   0  0  0  0  0  0  0  0  0  0  0  0
   -0.7831   17.4399  -32.7204 H   0  0  0  0  0  0  0  0  0  0  0  0
    0.4208   17.5016  -34.1003 H   0  0  0  0  0  0  0  0  0  0  0  0
    1.2126   18.2139  -31.7345 H   0  0  0  0  0  0  0  0  0  0  0  0
    1.6082   19.2532  -33.1726 H   0  0  0  0  0  0  0  0  0  0  0  0
    0.9350   20.5250  -31.3220 H   0  0  0  0  0  0  0  0  0  0  0  0
   -1.8300   19.5681  -31.4001 H   0  0  0  0  0  0  0  0  0  0  0  0
   -0.5544   18.6432  -30.4833 H   0  0  0  0  0  0  0  0  0  0  0  0
   -1.7913   20.2319  -29.0228 H   0  0  0  0  0  0  0  0  0  0  0  0
   -0.0235   20.6194  -29.1633 H   0  0  0  0  0  0  0  0  0  0  0  0
   -0.7451   22.2476  -31.0475 H   0  0  0  0  0  0  0  0  0  0  0  0
   -1.2560   22.6972  -28.0712 H   0  0  0  0  0  0  0  0  0  0  0  0
    0.1847   23.1478  -29.0547 H   0  0  0  0  0  0  0  0  0  0  0  0
   -1.1694   25.1392  -28.6002 H   0  0  0  0  0  0  0  0  0  0  0  0
   -1.2390   24.7129  -30.3638 H   0  0  0  0  0  0  0  0  0  0  0  0
   -3.3817   24.6826  -28.2772 H   0  0  0  0  0  0  0  0  0  0  0  0
   -5.4007   24.3813  -32.5269 H   0  0  0  0  0  0  0  0  0  0  0  0
   -5.1101   23.2706  -31.1323 H   0  0  0  0  0  0  0  0  0  0  0  0
   -7.5504   25.1022  -31.1243 H   0  0  0  0  0  0  0  0  0  0  0  0
   -6.7731   21.6177  -30.7086 H   0  0  0  0  0  0  0  0  0  0  0  0
   -7.7191   21.5856  -29.1800 H   0  0  0  0  0  0  0  0  0  0  0  0
   -8.8888   20.9278  -31.4735 H   0  0  0  0  0  0  0  0  0  0  0  0
   -9.7671   21.9415  -30.2841 H   0  0  0  0  0  0  0  0  0  0  0  0
   -9.5052   22.6459  -32.8960 H   0  0  0  0  0  0  0  0  0  0  0  0
   -9.5746   23.8587  -31.5671 H   0  0  0  0  0  0  0  0  0  0  0  0
   -3.6316   22.4064  -28.5693 H   0  0  0  0  0  0  0  0  0  0  0  0
   -4.6709   23.0560  -29.9060 H   0  0  0  0  0  0  0  0  0  0  0  0
   -3.2598   21.1754  -30.6677 H   0  0  0  0  0  0  0  0  0  0  0  0
   -2.8544   22.7437  -31.4975 H   0  0  0  0  0  0  0  0  0  0  0  0
   -1.2865   21.4381  -32.4692 H   0  0  0  0  0  0  0  0  0  0  0  0
    0.4393   21.7660  -33.0105 H   0  0  0  0  0  0  0  0  0  0  0  0
   -1.4117   21.0379  -34.7501 H   0  0  0  0  0  0  0  0  0  0  0  0
    0.3054   20.4095  -34.8140 H   0  0  0  0  0  0  0  0  0  0  0  0
   -2.9480   21.6444  -33.7127 H   0  0  0  0  0  0  0  0  0  0  0  0
   -5.1141   22.6429  -32.9341 H   0  0  0  0  0  0  0  0  0  0  0  0
   -7.0368   21.1714  -32.3176 H   0  0  0  0  0  0  0  0  0  0  0  0
   -6.8138   18.6743  -32.4844 H   0  0  0  0  0  0  0  0  0  0  0  0
  1  2  1  0
  2  3  1  0
  3  4  1  0
  4  5  2  0
  5  6  1  0
  6  7  1  0
  7  8  1  0
  8  9  1  0
  9 10  1  0
 10 11  1  0
 11 12  1  0
 12 13  1  0
 13 14  1  0
 14 15  1  0
 15 16  1  0
 16 17  1  0
 17 18  2  0
 17 19  1  0
 19 20  1  0
 20 21  1  0
 21 22  1  0
 22 23  1  0
 23 24  1  0
 24 25  1  0
 15 26  1  0
 26 27  1  0
  9 28  1  0
 28 29  1  0
  5 30  1  0
 30 31  2  0
 31 32  1  0
 32 33  2  0
 33 34  1  0
 34 35  2  0
 35  3  1  0
 29  6  1  0
 35 30  1  0
 27 12  1  0
 25 20  1  0
  1 36  1  0
  1 37  1  0
  1 38  1  0
  2 39  1  0
  2 40  1  0
  4 41  1  0
  6 42  1  6
  7 43  1  0
  7 44  1  0
  8 45  1  0
  8 46  1  0
  9 47  1  1
 10 48  1  0
 10 49  1  0
 11 50  1  0
 11 51  1  0
 12 52  1  6
 13 53  1  0
 13 54  1  0
 14 55  1  0
 14 56  1  0
 15 57  1  1
 19 58  1  0
 19 59  1  0
 20 60  1  0
 22 61  1  0
 22 62  1  0
 23 63  1  0
 23 64  1  0
 24 65  1  0
 24 66  1  0
 26 67  1  0
 26 68  1  0
 27 69  1  0
 27 70  1  0
 28 71  1  0
 28 72  1  0
 29 73  1  0
 29 74  1  0
 31 75  1  0
 32 76  1  0
 33 77  1  0
 34 78  1  0
M  CHG  2   9   1  16  -1
M  END
>  <UniqueID>  (5) 
5

>  <SMILES>  (5) 
CCn1cc(C2CC[NH+](CCC3CCC([N-]C(=O)CC4OCCCO4)CC3)CC2)c2ccccc21

>  <Energy>  (5) 
134.67383264134514

>  <Genealogy>  (5) 
CCn1cc(C2CC[NH+](CCC3CCC([N-]C(=O)CC4OCCCO4)CC3)CC2)c2ccccc21 (protonated)
CCn1cc(C2CC[NH+](CCC3CCC([N-]C(=O)CC4OCCCO4)CC3)CC2)c2ccccc21 (3D coordinates assigned)
CCn1cc(C2CC[NH+](CCC3CCC([N-]C(=O)CC4OCCCO4)CC3)CC2)c2ccccc21 (nonaromatic ring conformer: 134.67383264134514 kcal/mol)

>  <smiles>  (5) 
CCn1cc(C2CCN(CCC3CCC(NC(=O)CC4OCCCO4)CC3)CC2)c2ccccc21

>  <score_type>  (5) 
oracle

>  <origin>  (5) 
adg

>  <m_score__min__energy>  (5) 
-11.31

>  <m_primary>  (5) 
energy

$$$$
5:0
     RDKit          3D

 47 51  0  0  0  0  0  0  0  0999 V2000
    0.3875   26.5321  -39.3633 H   0  0  0  0  0  0  0  0  0  0  0  0
    0.4310   26.1440  -38.3350 C   0  0  0  0  0  0  0  0  0  0  0  0
    1.3580   25.2090  -37.9990 N   0  0  0  0  0  0  0  0  0  0  0  0
    1.4330   24.7140  -36.7350 C   0  0  0  0  0  0  0  0  0  0  0  0
    2.4320   23.7270  -36.4310 N   0  0  0  0  0  0  0  0  0  0  0  0
    2.2840   22.6450  -35.7240 C   0  0  0  0  0  0  0  0  0  0  0  0
    1.0540   22.2280  -35.3130 N   0  0  0  0  0  0  0  0  0  0  0  0
    0.8860   21.0960  -34.5750 C   0  0  0  0  0  0  0  0  0  0  0  0
   -0.4830   20.7010  -34.1550 C   0  0  0  0  0  0  0  0  0  0  0  0
   -1.0710   19.5010  -34.5980 C   0  0  0  0  0  0  0  0  0  0  0  0
   -0.5072   18.8310  -35.2638 H   0  0  0  0  0  0  0  0  0  0  0  0
   -2.3660   19.1530  -34.1990 C   0  0  0  0  0  0  0  0  0  0  0  0
   -2.8126   18.2121  -34.5528 H   0  0  0  0  0  0  0  0  0  0  0  0
   -3.0990   19.9970  -33.3500 C   0  0  0  0  0  0  0  0  0  0  0  0
   -4.4360   19.6450  -32.9430 N   0  0  0  0  0  0  0  0  0  0  0  0
   -5.4400   20.6600  -32.7410 C   0  0  0  0  0  0  0  0  0  0  0  0
   -5.1230   21.8810  -32.7770 O   0  0  0  0  0  0  0  0  0  0  0  0
   -6.8410   20.2560  -32.4760 C   0  0  0  0  0  0  0  0  0  0  0  0
   -7.8320   21.1920  -32.1140 C   0  0  0  0  0  0  0  0  0  0  0  0
   -7.5410   22.5110  -31.9910 F   0  0  0  0  0  0  0  0  0  0  0  0
   -9.1420   20.7670  -31.8690 C   0  0  0  0  0  0  0  0  0  0  0  0
   -9.9112   21.4998  -31.5837 H   0  0  0  0  0  0  0  0  0  0  0  0
   -9.4770   19.4180  -31.9850 C   0  0  0  0  0  0  0  0  0  0  0  0
  -10.5094   19.0904  -31.7931 H   0  0  0  0  0  0  0  0  0  0  0  0
   -8.5050   18.4830  -32.3440 C   0  0  0  0  0  0  0  0  0  0  0  0
   -8.7774   17.4220  -32.4449 H   0  0  0  0  0  0  0  0  0  0  0  0
   -7.1820   18.8890  -32.5770 C   0  0  0  0  0  0  0  0  0  0  0  0
   -6.1590   17.8790  -33.0320 C   0  0  0  0  0  0  0  0  0  0  0  0
   -6.4191   16.8943  -32.6165 H   0  0  0  0  0  0  0  0  0  0  0  0
   -6.1641   17.8528  -34.1317 H   0  0  0  0  0  0  0  0  0  0  0  0
   -4.7510   18.2600  -32.5660 C   0  0  0  0  0  0  0  0  0  0  0  0
   -4.6938   18.1617  -31.4719 H   0  0  0  0  0  0  0  0  0  0  0  0
   -4.0252   17.5885  -33.0480 H   0  0  0  0  0  0  0  0  0  0  0  0
   -2.5220   21.2010  -32.9190 C   0  0  0  0  0  0  0  0  0  0  0  0
   -3.0911   21.8744  -32.2612 H   0  0  0  0  0  0  0  0  0  0  0  0
   -1.2300   21.5510  -33.3190 C   0  0  0  0  0  0  0  0  0  0  0  0
   -0.7925   22.5005  -32.9770 H   0  0  0  0  0  0  0  0  0  0  0  0
    2.0200   20.3480  -34.2210 C   0  0  0  0  0  0  0  0  0  0  0  0
    1.9223   19.4348  -33.6155 H   0  0  0  0  0  0  0  0  0  0  0  0
    3.2720   20.7840  -34.6510 C   0  0  0  0  0  0  0  0  0  0  0  0
    4.1730   20.2090  -34.3910 H   0  0  0  0  0  0  0  0  0  0  0  0
    3.3810   21.9170  -35.3900 N   0  0  0  0  0  0  0  0  0  0  0  0
    0.5620   25.1630  -35.7870 N   0  0  0  0  0  0  0  0  0  0  0  0
   -0.3790   26.0960  -36.0830 C   0  0  0  0  0  0  0  0  0  0  0  0
   -1.0728   26.4453  -35.3042 H   0  0  0  0  0  0  0  0  0  0  0  0
   -0.4640   26.6100  -37.3750 C   0  0  0  0  0  0  0  0  0  0  0  0
   -1.2205   27.3664  -37.6311 H   0  0  0  0  0  0  0  0  0  0  0  0
  1  2  1  0
  2  3  2  0
  3  4  1  0
  4  5  1  0
  5  6  2  0
  6  7  1  0
  7  8  2  0
  8  9  1  0
  9 10  2  0
 10 11  1  0
 10 12  1  0
 12 13  1  0
 12 14  2  0
 14 15  1  0
 15 16  1  0
 16 17  2  0
 16 18  1  0
 18 19  2  0
 19 20  1  0
 19 21  1  0
 21 22  1  0
 21 23  2  0
 23 24  1  0
 23 25  1  0
 25 26  1  0
 25 27  2  0
 27 28  1  0
 28 29  1  0
 28 30  1  0
 28 31  1  0
 31 32  1  0
 31 33  1  0
 14 34  1  0
 34 35  1  0
 34 36  2  0
 36 37  1  0
  8 38  1  0
 38 39  1  0
 38 40  2  0
 40 41  1  0
 40 42  1  0
  4 43  2  0
 43 44  1  0
 44 45  1  0
 44 46  2  0
 46 47  1  0
 46  2  1  0
 42  6  1  0
 36  9  1  0
 31 15  1  0
 27 18  1  0
M  CHG  1  42  -1
M  END
>  <UniqueID>  (6) 
6

>  <SMILES>  (6) 
O=C1c2c(F)cccc2CCN1c1ccc(-c2cc[n-]/c(=N/c3ncccn3)n2)cc1

>  <Energy>  (6) 
69.66193507979132

>  <Genealogy>  (6) 
O=C1c2c(F)cccc2CCN1c1ccc(-c2cc[n-]c(=Nc3ncccn3)n2)cc1 (protonated)
O=C1c2c(F)cccc2CCN1c1ccc(-c2cc[n-]/c(=N/c3ncccn3)n2)cc1 (cis-trans isomerization)
O=C1c2c(F)cccc2CCN1c1ccc(-c2cc[n-]/c(=N/c3ncccn3)n2)cc1 (3D coordinates assigned)
O=C1c2c(F)cccc2CCN1c1ccc(-c2cc[n-]/c(=N/c3ncccn3)n2)cc1 (nonaromatic ring conformer: 69.66193507979132 kcal/mol)

>  <smiles>  (6) 
O=C1c2c(F)cccc2CCN1c1ccc(-c2cc[nH]c(=Nc3ncccn3)n2)cc1

>  <score_type>  (6) 
oracle

>  <origin>  (6) 
adg

>  <m_score__min__energy>  (6) 
-10.130000000000001

>  <m_primary>  (6) 
energy

$$$$
6:0
     RDKit          3D

 37 40  0  0  0  0  0  0  0  0999 V2000
   -6.7760   24.3290  -30.8590 C   0  0  0  0  0  0  0  0  0  0  0  0
   -6.6400   22.9470  -31.3250 N   0  0  0  0  0  0  0  0  0  0  0  0
   -7.6300   22.0680  -31.6430 C   0  0  0  0  0  0  0  0  0  0  0  0
   -9.0150   22.2720  -31.6280 C   0  0  0  0  0  0  0  0  0  0  0  0
   -9.8490   21.1970  -31.9910 C   0  0  0  0  0  0  0  0  0  0  0  0
   -9.2970   19.9490  -32.3550 C   0  0  0  0  0  0  0  0  0  0  0  0
   -7.9050   19.7580  -32.3600 C   0  0  0  0  0  0  0  0  0  0  0  0
   -7.1060   20.8390  -32.0000 C   0  0  0  0  0  0  0  0  0  0  0  0
   -5.7470   20.9720  -31.8850 C   0  0  0  0  0  0  0  0  0  0  0  0
   -4.7650   20.0680  -32.0810 N   0  0  0  0  0  0  0  0  0  0  0  0
   -3.4980   20.4420  -31.8710 N   0  0  0  0  0  0  0  0  0  0  0  0
   -3.1800   21.6890  -31.4660 N   0  0  0  0  0  0  0  0  0  0  0  0
   -1.7690   22.0170  -31.2130 C   0  0  0  0  0  0  0  0  0  0  0  0
   -1.4610   21.8770  -29.7470 C   0  0  0  0  0  0  0  0  0  0  0  0
   -0.5900   22.7830  -29.1190 C   0  0  0  0  0  0  0  0  0  0  0  0
   -0.2730   22.6340  -27.7650 C   0  0  0  0  0  0  0  0  0  0  0  0
   -0.8180   21.5770  -27.0310 C   0  0  0  0  0  0  0  0  0  0  0  0
   -1.6790   20.6650  -27.6490 C   0  0  0  0  0  0  0  0  0  0  0  0
   -2.3570   19.3350  -26.7280 Cl  0  0  0  0  0  0  0  0  0  0  0  0
   -1.9980   20.8120  -29.0040 C   0  0  0  0  0  0  0  0  0  0  0  0
   -4.1690   22.6220  -31.2440 C   0  0  0  0  0  0  0  0  0  0  0  0
   -3.8900   23.7830  -30.8410 O   0  0  0  0  0  0  0  0  0  0  0  0
   -5.4880   22.2420  -31.4710 C   0  0  0  0  0  0  0  0  0  0  0  0
   -6.7777   24.3466  -29.7591 H   0  0  0  0  0  0  0  0  0  0  0  0
   -5.9324   24.9271  -31.2340 H   0  0  0  0  0  0  0  0  0  0  0  0
   -7.7200   24.7512  -31.2340 H   0  0  0  0  0  0  0  0  0  0  0  0
   -9.4399   23.2451  -31.3406 H   0  0  0  0  0  0  0  0  0  0  0  0
  -10.9409   21.3305  -31.9911 H   0  0  0  0  0  0  0  0  0  0  0  0
   -9.9624   19.1197  -32.6369 H   0  0  0  0  0  0  0  0  0  0  0  0
   -7.4631   18.7898  -32.6382 H   0  0  0  0  0  0  0  0  0  0  0  0
   -2.7460   19.7320  -32.0240 H   0  0  0  0  0  0  0  0  0  0  0  0
   -1.1276   21.3318  -31.7867 H   0  0  0  0  0  0  0  0  0  0  0  0
   -1.5792   23.0551  -31.5235 H   0  0  0  0  0  0  0  0  0  0  0  0
   -0.1554   23.6133  -29.6949 H   0  0  0  0  0  0  0  0  0  0  0  0
    0.4058   23.3493  -27.2775 H   0  0  0  0  0  0  0  0  0  0  0  0
   -0.5693   21.4624  -25.9656 H   0  0  0  0  0  0  0  0  0  0  0  0
   -2.6720   20.0907  -29.4893 H   0  0  0  0  0  0  0  0  0  0  0  0
  1  2  1  0
  2  3  1  0
  3  4  2  0
  4  5  1  0
  5  6  2  0
  6  7  1  0
  7  8  2  0
  8  9  1  0
  9 10  1  0
 10 11  2  0
 11 12  1  0
 12 13  1  0
 13 14  1  0
 14 15  2  0
 15 16  1  0
 16 17  2  0
 17 18  1  0
 18 19  1  0
 18 20  2  0
 12 21  1  0
 21 22  2  0
 21 23  1  0
 23  2  1  0
  8  3  1  0
 23  9  2  0
 20 14  1  0
  1 24  1  0
  1 25  1  0
  1 26  1  0
  4 27  1  0
  5 28  1  0
  6 29  1  0
  7 30  1  0
 11 31  1  0
 13 32  1  0
 13 33  1  0
 15 34  1  0
 16 35  1  0
 17 36  1  0
 20 37  1  0
M  CHG  1  11   1
M  END
>  <UniqueID>  (7) 
7

>  <SMILES>  (7) 
Cn1c2ccccc2c2n[nH+]n(Cc3cccc(Cl)c3)c(=O)c21

>  <Energy>  (7) 
88.47121620263222

>  <Genealogy>  (7) 
Cn1c2ccccc2c2n[nH+]n(Cc3cccc(Cl)c3)c(=O)c21 (protonated)
Cn1c2ccccc2c2n[nH+]n(Cc3cccc(Cl)c3)c(=O)c21 (3D coordinates assigned)
Cn1c2ccccc2c2n[nH+]n(Cc3cccc(Cl)c3)c(=O)c21 (optimized conformer: 88.47121620263222 kcal/mol)

>  <smiles>  (7) 
Cn1c2ccccc2c2nnn(Cc3cccc(Cl)c3)c(=O)c21

>  <score_type>  (7) 
oracle

>  <origin>  (7) 
adg

>  <m_score__min__energy>  (7) 
-8.0299999999999994

>  <m_primary>  (7) 
energy

$$$$
7:0
     RDKit          3D

 57 61  0  0  0  0  0  0  0  0999 V2000
   -1.6140   26.7470  -25.1670 C   0  0  0  0  0  0  0  0  0  0  0  0
   -1.2660   25.3060  -25.5070 C   0  0  0  0  0  0  0  0  0  0  0  0
   -1.4860   25.0370  -26.9620 C   0  0  0  0  0  0  0  0  0  0  0  0
   -1.6520   23.7950  -27.5410 C   0  0  0  0  0  0  0  0  0  0  0  0
   -1.7550   24.0790  -28.8910 C   0  0  0  0  0  0  0  0  0  0  0  0
   -1.9560   23.1210  -30.0020 C   0  0  0  0  0  0  0  0  0  0  0  0
   -3.0760   23.2050  -30.8480 C   0  0  0  0  0  0  0  0  0  0  0  0
   -3.2460   22.2910  -31.8920 C   0  0  0  0  0  0  0  0  0  0  0  0
   -2.3040   21.2710  -32.1080 C   0  0  0  0  0  0  0  0  0  0  0  0
   -2.4890   20.2890  -33.2500 C   0  0  1  0  0  0  0  0  0  0  0  0
   -1.3270   19.3810  -33.3000 N   0  0  0  0  0  0  0  0  0  0  0  0
   -1.5190   18.3290  -34.3030 C   0  0  0  0  0  0  0  0  0  0  0  0
   -2.6600   17.3970  -33.8890 C   0  0  0  0  0  0  0  0  0  0  0  0
   -3.8920   18.1720  -33.5070 C   0  0  0  0  0  0  0  0  0  0  0  0
   -5.1250   17.5090  -33.4500 C   0  0  0  0  0  0  0  0  0  0  0  0
   -6.2850   18.1980  -33.0910 C   0  0  0  0  0  0  0  0  0  0  0  0
   -6.2350   19.5670  -32.7830 C   0  0  0  0  0  0  0  0  0  0  0  0
   -7.4390   20.2830  -32.4280 N   0  0  0  0  0  0  0  0  0  0  0  0
   -7.4400   21.7480  -32.3310 C   0  0  0  0  0  0  0  0  0  0  0  0
   -8.4170   22.2080  -31.2360 C   0  0  0  0  0  0  0  0  0  0  0  0
   -9.7570   21.5830  -31.3110 N   0  0  0  0  0  0  0  0  0  0  0  0
   -9.8940   20.5370  -32.3350 C   0  0  0  0  0  0  0  0  0  0  0  0
   -8.7130   19.5630  -32.3030 C   0  0  0  0  0  0  0  0  0  0  0  0
   -4.9970   20.2310  -32.8370 C   0  0  0  0  0  0  0  0  0  0  0  0
   -3.8140   19.5360  -33.1520 C   0  0  0  0  0  0  0  0  0  0  0  0
   -1.1780   21.1970  -31.2690 C   0  0  0  0  0  0  0  0  0  0  0  0
   -1.0100   22.1070  -30.2240 C   0  0  0  0  0  0  0  0  0  0  0  0
   -1.6440   25.3800  -29.0530 O   0  0  0  0  0  0  0  0  0  0  0  0
   -1.4740   25.9880  -27.9160 N   0  0  0  0  0  0  0  0  0  0  0  0
   -1.6435   26.8690  -24.0742 H   0  0  0  0  0  0  0  0  0  0  0  0
   -0.8521   27.4179  -25.5905 H   0  0  0  0  0  0  0  0  0  0  0  0
   -2.5982   26.9962  -25.5905 H   0  0  0  0  0  0  0  0  0  0  0  0
   -0.2095   25.1224  -25.2617 H   0  0  0  0  0  0  0  0  0  0  0  0
   -1.9158   24.6383  -24.9222 H   0  0  0  0  0  0  0  0  0  0  0  0
   -1.6927   22.8132  -27.0467 H   0  0  0  0  0  0  0  0  0  0  0  0
   -3.8238   23.9956  -30.6872 H   0  0  0  0  0  0  0  0  0  0  0  0
   -4.1242   22.3709  -32.5496 H   0  0  0  0  0  0  0  0  0  0  0  0
   -2.5396   20.8469  -34.1967 H   0  0  0  0  0  0  0  0  0  0  0  0
   -1.1850   18.9280  -32.3660 H   0  0  0  0  0  0  0  0  0  0  0  0
   -1.7622   18.7915  -35.2710 H   0  0  0  0  0  0  0  0  0  0  0  0
   -0.5922   17.7424  -34.3858 H   0  0  0  0  0  0  0  0  0  0  0  0
   -2.9024   16.7322  -34.7312 H   0  0  0  0  0  0  0  0  0  0  0  0
   -2.3319   16.8160  -33.0145 H   0  0  0  0  0  0  0  0  0  0  0  0
   -5.1795   16.4369  -33.6901 H   0  0  0  0  0  0  0  0  0  0  0  0
   -7.2458   17.6641  -33.0491 H   0  0  0  0  0  0  0  0  0  0  0  0
   -6.4265   22.0963  -32.0831 H   0  0  0  0  0  0  0  0  0  0  0  0
   -7.7575   22.1710  -33.2955 H   0  0  0  0  0  0  0  0  0  0  0  0
   -7.9775   21.9635  -30.2577 H   0  0  0  0  0  0  0  0  0  0  0  0
   -8.5656   23.2882  -31.3810 H   0  0  0  0  0  0  0  0  0  0  0  0
   -9.9820   21.1590  -30.3810 H   0  0  0  0  0  0  0  0  0  0  0  0
  -10.8236   19.9779  -32.1528 H   0  0  0  0  0  0  0  0  0  0  0  0
   -9.9157   21.0212  -33.3225 H   0  0  0  0  0  0  0  0  0  0  0  0
   -8.7246   19.0135  -31.3502 H   0  0  0  0  0  0  0  0  0  0  0  0
   -8.8082   18.8659  -33.1485 H   0  0  0  0  0  0  0  0  0  0  0  0
   -4.9520   21.3104  -32.6299 H   0  0  0  0  0  0  0  0  0  0  0  0
   -0.4229   20.4151  -31.4377 H   0  0  0  0  0  0  0  0  0  0  0  0
   -0.1296   22.0293  -29.5691 H   0  0  0  0  0  0  0  0  0  0  0  0
  1  2  1  0
  2  3  1  0
  3  4  1  0
  4  5  2  0
  5  6  1  0
  6  7  2  0
  7  8  1  0
  8  9  2  0
  9 10  1  0
 10 11  1  0
 11 12  1  0
 12 13  1  0
 13 14  1  0
 14 15  2  0
 15 16  1  0
 16 17  2  0
 17 18  1  0
 18 19  1  0
 19 20  1  0
 20 21  1  0
 21 22  1  0
 22 23  1  0
 17 24  1  0
 24 25  2  0
  9 26  1  0
 26 27  2  0
  5 28  1  0
 28 29  1  0
 29  3  2  0
 27  6  1  0
 25 10  1  0
 25 14  1  0
 23 18  1  0
  1 30  1  0
  1 31  1  0
  1 32  1  0
  2 33  1  0
  2 34  1  0
  4 35  1  0
  7 36  1  0
  8 37  1  0
 10 38  1  6
 11 39  1  0
 12 40  1  0
 12 41  1  0
 13 42  1  0
 13 43  1  0
 15 44  1  0
 16 45  1  0
 19 46  1  0
 19 47  1  0
 20 48  1  0
 20 49  1  0
 21 50  1  0
 22 51  1  0
 22 52  1  0
 23 53  1  0
 23 54  1  0
 24 55  1  0
 26 56  1  0
 27 57  1  0
M  END
>  <UniqueID>  (8) 
8

>  <SMILES>  (8) 
CCc1cc(-c2ccc([C@H]3NCCc4ccc(N5CCNCC5)cc43)cc2)on1

>  <Energy>  (8) 
100.2507128390856

>  <Genealogy>  (8) 
CCc1cc(-c2ccc([C@H]3NCCc4ccc(N5CCNCC5)cc43)cc2)on1 (chirality)
CCc1cc(-c2ccc([C@H]3NCCc4ccc(N5CCNCC5)cc43)cc2)on1 (3D coordinates assigned)
CCc1cc(-c2ccc([C@H]3NCCc4ccc(N5CCNCC5)cc43)cc2)on1 (nonaromatic ring conformer: 100.2507128390856 kcal/mol)

>  <smiles>  (8) 
CCc1cc(-c2ccc(C3NCCc4ccc(N5CCNCC5)cc43)cc2)on1

>  <score_type>  (8) 
oracle

>  <origin>  (8) 
adg

>  <m_score__min__energy>  (8) 
-9.5

>  <m_primary>  (8) 
energy

$$$$
8:0
     RDKit          3D

 49 51  0  0  0  0  0  0  0  0999 V2000
   -4.1150   24.5510  -26.8080 C   0  0  0  0  0  0  0  0  0  0  0  0
   -2.6950   25.1100  -26.7000 C   0  0  0  0  0  0  0  0  0  0  0  0
   -1.6160   24.0290  -26.8770 C   0  0  0  0  0  0  0  0  0  0  0  0
   -1.1720   23.8790  -28.3160 C   0  0  0  0  0  0  0  0  0  0  0  0
   -0.9110   24.8870  -28.9600 O   0  0  0  0  0  0  0  0  0  0  0  0
   -1.0120   22.5620  -28.9170 N   0  0  0  0  0  0  0  0  0  0  0  0
   -0.9630   22.6350  -30.4070 C   0  0  0  0  0  0  0  0  0  0  0  0
   -2.2670   22.1860  -31.0970 C   0  0  0  0  0  0  0  0  0  0  0  0
   -3.4250   22.5070  -30.2610 N   0  0  0  0  0  0  0  0  0  0  0  0
   -4.3290   23.5570  -30.6550 C   0  0  0  0  0  0  0  0  0  0  0  0
   -4.0520   24.8650  -30.4590 N   0  0  0  0  0  0  0  0  0  0  0  0
   -5.1830   25.5020  -30.8250 C   0  0  0  0  0  0  0  0  0  0  0  0
   -6.1230   24.5800  -31.2290 C   0  0  0  0  0  0  0  0  0  0  0  0
   -5.5810   23.3530  -31.1250 N   0  0  0  0  0  0  0  0  0  0  0  0
   -6.1980   22.1240  -31.5380 C   0  0  0  0  0  0  0  0  0  0  0  0
   -7.5060   21.8230  -31.1360 C   0  0  0  0  0  0  0  0  0  0  0  0
   -8.1070   20.6240  -31.5290 C   0  0  0  0  0  0  0  0  0  0  0  0
   -7.4090   19.7160  -32.3490 C   0  0  0  0  0  0  0  0  0  0  0  0
   -7.9640   18.4950  -32.7610 O   0  0  0  0  0  0  0  0  0  0  0  0
   -7.2000   17.3360  -33.0850 C   0  0  0  0  0  0  0  0  0  0  0  0
   -6.1120   20.0330  -32.7700 C   0  0  0  0  0  0  0  0  0  0  0  0
   -5.5090   21.2290  -32.3700 C   0  0  0  0  0  0  0  0  0  0  0  0
   -3.4520   21.9850  -28.8880 C   0  0  0  0  0  0  0  0  0  0  0  0
   -2.0340   21.6190  -28.4120 C   0  0  0  0  0  0  0  0  0  0  0  0
   -4.5235   24.3902  -25.7994 H   0  0  0  0  0  0  0  0  0  0  0  0
   -4.7503   25.2662  -27.3511 H   0  0  0  0  0  0  0  0  0  0  0  0
   -4.0923   23.5947  -27.3511 H   0  0  0  0  0  0  0  0  0  0  0  0
   -2.5578   25.8748  -27.4787 H   0  0  0  0  0  0  0  0  0  0  0  0
   -2.5801   25.5316  -25.6905 H   0  0  0  0  0  0  0  0  0  0  0  0
   -0.7427   24.2996  -26.2654 H   0  0  0  0  0  0  0  0  0  0  0  0
   -2.0513   23.0694  -26.5612 H   0  0  0  0  0  0  0  0  0  0  0  0
   -0.0870   22.1810  -28.6070 H   0  0  0  0  0  0  0  0  0  0  0  0
   -0.7587   23.6764  -30.6964 H   0  0  0  0  0  0  0  0  0  0  0  0
   -0.1732   21.9433  -30.7351 H   0  0  0  0  0  0  0  0  0  0  0  0
   -2.3627   22.7040  -32.0627 H   0  0  0  0  0  0  0  0  0  0  0  0
   -2.2310   21.0977  -31.2530 H   0  0  0  0  0  0  0  0  0  0  0  0
   -5.3320   26.5917  -30.8041 H   0  0  0  0  0  0  0  0  0  0  0  0
   -7.1415   24.8076  -31.5768 H   0  0  0  0  0  0  0  0  0  0  0  0
   -8.0627   22.5340  -30.5079 H   0  0  0  0  0  0  0  0  0  0  0  0
   -9.1288   20.3885  -31.1967 H   0  0  0  0  0  0  0  0  0  0  0  0
   -6.8737   16.8411  -32.1584 H   0  0  0  0  0  0  0  0  0  0  0  0
   -7.8182   16.6420  -33.6733 H   0  0  0  0  0  0  0  0  0  0  0  0
   -6.3185   17.6306  -33.6733 H   0  0  0  0  0  0  0  0  0  0  0  0
   -5.5634   19.3358  -33.4203 H   0  0  0  0  0  0  0  0  0  0  0  0
   -4.4905   21.4693  -32.7089 H   0  0  0  0  0  0  0  0  0  0  0  0
   -3.8698   22.7519  -28.2192 H   0  0  0  0  0  0  0  0  0  0  0  0
   -4.0745   21.0783  -28.8686 H   0  0  0  0  0  0  0  0  0  0  0  0
   -2.0154   21.6326  -27.3122 H   0  0  0  0  0  0  0  0  0  0  0  0
   -1.7941   20.6201  -28.8052 H   0  0  0  0  0  0  0  0  0  0  0  0
  1  2  1  0
  2  3  1  0
  3  4  1  0
  4  5  2  0
  4  6  1  0
  6  7  1  0
  7  8  1  0
  8  9  1  0
  9 10  1  0
 10 11  2  0
 11 12  1  0
 12 13  2  0
 13 14  1  0
 14 15  1  0
 15 16  2  0
 16 17  1  0
 17 18  2  0
 18 19  1  0
 19 20  1  0
 18 21  1  0
 21 22  2  0
  9 23  1  0
 23 24  1  0
 24  6  1  0
 14 10  1  0
 22 15  1  0
  1 25  1  0
  1 26  1  0
  1 27  1  0
  2 28  1  0
  2 29  1  0
  3 30  1  0
  3 31  1  0
  6 32  1  0
  7 33  1  0
  7 34  1  0
  8 35  1  0
  8 36  1  0
 12 37  1  0
 13 38  1  0
 16 39  1  0
 17 40  1  0
 20 41  1  0
 20 42  1  0
 20 43  1  0
 21 44  1  0
 22 45  1  0
 23 46  1  0
 23 47  1  0
 24 48  1  0
 24 49  1  0
M  CHG  1   6   1
M  END
>  <UniqueID>  (9) 
9

>  <SMILES>  (9) 
CCCC(=O)[NH+]1CCN(c2nccn2-c2ccc(OC)cc2)CC1

>  <Energy>  (9) 
90.23414048561747

>  <Genealogy>  (9) 
CCCC(=O)[NH+]1CCN(c2nccn2-c2ccc(OC)cc2)CC1 (protonated)
CCCC(=O)[NH+]1CCN(c2nccn2-c2ccc(OC)cc2)CC1 (3D coordinates assigned)
CCCC(=O)[NH+]1CCN(c2nccn2-c2ccc(OC)cc2)CC1 (nonaromatic ring conformer: 90.23414048561747 kcal/mol)

>  <smiles>  (9) 
CCCC(=O)N1CCN(c2nccn2-c2ccc(OC)cc2)CC1

>  <score_type>  (9) 
oracle

>  <origin>  (9) 
adg

>  <m_score__min__energy>  (9) 
-6.7400000000000002

>  <m_primary>  (9) 
energy

$$$$
9:0
     RDKit          3D

 24 24  0  0  0  0  0  0  0  0999 V2000
   -3.1800   24.1800  -29.4890 C   0  0  0  0  0  0  0  0  0  0  0  0
   -3.8560   24.9620  -30.4660 O   0  0  0  0  0  0  0  0  0  0  0  0
   -5.1950   24.7470  -30.8120 C   0  0  0  0  0  0  0  0  0  0  0  0
   -6.0550   25.6440  -30.5910 O   0  0  0  0  0  0  0  0  0  0  0  0
   -5.5990   23.4690  -31.4370 C   0  0  0  0  0  0  0  0  0  0  0  0
   -4.6590   22.6690  -32.1060 C   0  0  0  0  0  0  0  0  0  0  0  0
   -5.0620   21.4680  -32.6870 C   0  0  0  0  0  0  0  0  0  0  0  0
   -6.3590   21.0670  -32.6090 N   0  0  0  0  0  0  0  0  0  0  0  0
   -7.3040   21.8170  -31.9670 C   0  0  0  0  0  0  0  0  0  0  0  0
   -8.7080   21.3540  -31.9000 C   0  0  0  0  0  0  0  0  0  0  0  0
   -9.5570   22.0110  -31.2380 O   0  0  0  0  0  0  0  0  0  0  0  0
   -9.0920   20.1880  -32.5740 O   0  0  0  0  0  0  0  0  0  0  0  0
   -9.0640   18.9040  -31.9620 C   0  0  0  0  0  0  0  0  0  0  0  0
   -6.9310   23.0330  -31.3700 C   0  0  0  0  0  0  0  0  0  0  0  0
   -3.4716   24.5173  -28.4834 H   0  0  0  0  0  0  0  0  0  0  0  0
   -3.4523   23.1216  -29.6140 H   0  0  0  0  0  0  0  0  0  0  0  0
   -2.0933   24.2963  -29.6140 H   0  0  0  0  0  0  0  0  0  0  0  0
   -3.6086   22.9889  -32.1713 H   0  0  0  0  0  0  0  0  0  0  0  0
   -4.3265   20.8407  -33.2118 H   0  0  0  0  0  0  0  0  0  0  0  0
   -6.6200   20.1600  -33.0590 H   0  0  0  0  0  0  0  0  0  0  0  0
   -9.0665   19.0191  -30.8680 H   0  0  0  0  0  0  0  0  0  0  0  0
   -9.9499   18.3305  -32.2724 H   0  0  0  0  0  0  0  0  0  0  0  0
   -8.1540   18.3696  -32.2724 H   0  0  0  0  0  0  0  0  0  0  0  0
   -7.6837   23.6436  -30.8498 H   0  0  0  0  0  0  0  0  0  0  0  0
  1  2  1  0
  2  3  1  0
  3  4  2  0
  3  5  1  0
  5  6  2  0
  6  7  1  0
  7  8  2  0
  8  9  1  0
  9 10  1  0
 10 11  2  0
 10 12  1  0
 12 13  1  0
  9 14  2  0
 14  5  1  0
  1 15  1  0
  1 16  1  0
  1 17  1  0
  6 18  1  0
  7 19  1  0
  8 20  1  0
 13 21  1  0
 13 22  1  0
 13 23  1  0
 14 24  1  0
M  CHG  1   8   1
M  END
>  <UniqueID>  (10) 
10

>  <SMILES>  (10) 
COC(=O)c1cc[nH+]c(C(=O)OC)c1

>  <Energy>  (10) 
18.775708677352412

>  <Genealogy>  (10) 
COC(=O)c1cc[nH+]c(C(=O)OC)c1 (protonated)
COC(=O)c1cc[nH+]c(C(=O)OC)c1 (3D coordinates assigned)
COC(=O)c1cc[nH+]c(C(=O)OC)c1 (optimized conformer: 18.775708677352412 kcal/mol)

>  <smiles>  (10) 
COC(=O)c1ccnc(C(=O)OC)c1

>  <score_type>  (10) 
oracle

>  <origin>  (10) 
adg

>  <m_score__min__energy>  (10) 
-4.4100000000000001

>  <m_primary>  (10) 
energy

$$$$
10:0
     RDKit          3D

 39 42  0  0  0  0  0  0  0  0999 V2000
    0.4232   17.1010  -26.9282 H   0  0  0  0  0  0  0  0  0  0  0  0
   -0.1420   17.9380  -27.3640 C   0  0  0  0  0  0  0  0  0  0  0  0
   -1.3560   18.3310  -26.7960 C   0  0  0  0  0  0  0  0  0  0  0  0
   -1.7468   17.8021  -25.9142 H   0  0  0  0  0  0  0  0  0  0  0  0
   -2.0750   19.3960  -27.3470 C   0  0  0  0  0  0  0  0  0  0  0  0
   -3.0289   19.7033  -26.8936 H   0  0  0  0  0  0  0  0  0  0  0  0
   -1.5870   20.0780  -28.4780 C   0  0  0  0  0  0  0  0  0  0  0  0
   -2.3500   21.2080  -29.0660 C   0  0  0  0  0  0  0  0  0  0  0  0
   -3.0440   22.1090  -28.2400 C   0  0  0  0  0  0  0  0  0  0  0  0
   -3.0190   21.9777  -27.1482 H   0  0  0  0  0  0  0  0  0  0  0  0
   -3.7660   23.1710  -28.7940 C   0  0  0  0  0  0  0  0  0  0  0  0
   -4.2989   23.8715  -28.1342 H   0  0  0  0  0  0  0  0  0  0  0  0
   -3.8160   23.3500  -30.1850 C   0  0  0  0  0  0  0  0  0  0  0  0
   -4.5860   24.4780  -30.7650 C   0  0  0  0  0  0  0  0  0  0  0  0
   -4.2430   25.6610  -30.5040 O   0  0  0  0  0  0  0  0  0  0  0  0
   -5.6710   24.2660  -31.6810 N   0  0  0  0  0  0  0  0  0  0  0  0
   -6.3770   23.1780  -31.7870 C   0  0  0  0  0  0  0  0  0  0  0  0
   -7.6470   22.7920  -30.7220 S   0  0  0  0  0  0  0  0  0  0  0  0
   -7.9230   21.3470  -31.5310 C   0  0  0  0  0  0  0  0  0  0  0  0
   -7.0450   21.1960  -32.5350 C   0  0  0  0  0  0  0  0  0  0  0  0
   -6.1530   22.1980  -32.7070 N   0  0  0  0  0  0  0  0  0  0  0  0
   -5.3820   22.1730  -33.4100 H   0  0  0  0  0  0  0  0  0  0  0  0
   -7.1230   19.8720  -33.1790 C   0  0  0  0  0  0  0  0  0  0  0  0
   -6.1841   19.3128  -33.0534 H   0  0  0  0  0  0  0  0  0  0  0  0
   -7.2852   19.9217  -34.2658 H   0  0  0  0  0  0  0  0  0  0  0  0
   -8.2890   19.1920  -32.4090 C   0  0  0  0  0  0  0  0  0  0  0  0
   -7.9416   18.2475  -31.9648 H   0  0  0  0  0  0  0  0  0  0  0  0
   -9.1208   18.9722  -33.0944 H   0  0  0  0  0  0  0  0  0  0  0  0
   -8.7570   20.1590  -31.2890 C   0  0  0  0  0  0  0  0  0  0  0  0
   -8.5668   19.7353  -30.2918 H   0  0  0  0  0  0  0  0  0  0  0  0
   -9.8369   20.3674  -31.3101 H   0  0  0  0  0  0  0  0  0  0  0  0
   -3.1110   22.4580  -31.0120 C   0  0  0  0  0  0  0  0  0  0  0  0
   -3.1273   22.5967  -32.1031 H   0  0  0  0  0  0  0  0  0  0  0  0
   -2.3900   21.3970  -30.4590 C   0  0  0  0  0  0  0  0  0  0  0  0
   -1.8487   20.7032  -31.1190 H   0  0  0  0  0  0  0  0  0  0  0  0
   -0.3620   19.6720  -29.0410 C   0  0  0  0  0  0  0  0  0  0  0  0
    0.0339   20.1955  -29.9237 H   0  0  0  0  0  0  0  0  0  0  0  0
    0.3550   18.6070  -28.4850 C   0  0  0  0  0  0  0  0  0  0  0  0
    1.3112   18.2961  -28.9311 H   0  0  0  0  0  0  0  0  0  0  0  0
  1  2  1  0
  2  3  2  0
  3  4  1  0
  3  5  1  0
  5  6  1  0
  5  7  2  0
  7  8  1  0
  8  9  2  0
  9 10  1  0
  9 11  1  0
 11 12  1  0
 11 13  2  0
 13 14  1  0
 14 15  2  0
 14 16  1  0
 16 17  2  0
 17 18  1  0
 18 19  1  0
 19 20  2  0
 20 21  1  0
 21 22  1  0
 20 23  1  0
 23 24  1  0
 23 25  1  0
 23 26  1  0
 26 27  1  0
 26 28  1  0
 26 29  1  0
 29 30  1  0
 29 31  1  0
 13 32  1  0
 32 33  1  0
 32 34  2  0
 34 35  1  0
  7 36  1  0
 36 37  1  0
 36 38  2  0
 38 39  1  0
 38  2  1  0
 34  8  1  0
 21 17  1  0
 29 19  1  0
M  END
>  <UniqueID>  (11) 
11

>  <SMILES>  (11) 
O=C(/N=c1\[nH]c2c(s1)CCC2)c1ccc(-c2ccccc2)cc1

>  <Energy>  (11) 
103.53004388117418

>  <Genealogy>  (11) 
O=C(/N=c1\[nH]c2c(s1)CCC2)c1ccc(-c2ccccc2)cc1 (cis-trans isomerization)
O=C(/N=c1\[nH]c2c(s1)CCC2)c1ccc(-c2ccccc2)cc1 (3D coordinates assigned)
O=C(/N=c1\[nH]c2c(s1)CCC2)c1ccc(-c2ccccc2)cc1 (nonaromatic ring conformer: 103.53004388117418 kcal/mol)

>  <smiles>  (11) 
O=C(N=c1[nH]c2c(s1)CCC2)c1ccc(-c2ccccc2)cc1

>  <score_type>  (11) 
oracle

>  <origin>  (11) 
adg

>  <m_score__min__energy>  (11) 
-9.0700000000000003

>  <m_primary>  (11) 
energy

$$$$
11:0
     RDKit          3D

 51 55  0  0  0  0  0  0  0  0999 V2000
   -4.7270   18.2920  -33.2600 C   0  0  0  0  0  0  0  0  0  0  0  0
   -5.4920   19.4530  -32.8040 N   0  0  0  0  0  0  0  0  0  0  0  0
   -5.0430   20.7230  -32.5940 C   0  0  0  0  0  0  0  0  0  0  0  0
   -3.6250   21.1790  -32.7980 C   0  0  0  0  0  0  0  0  0  0  0  0
   -2.8530   21.0240  -31.5500 N   0  0  0  0  0  0  0  0  0  0  0  0
   -3.7220   20.6600  -30.3990 C   0  0  0  0  0  0  0  0  0  0  0  0
   -2.9940   20.8100  -29.0330 C   0  0  1  0  0  0  0  0  0  0  0  0
   -1.4920   20.8300  -29.2700 C   0  0  0  0  0  0  0  0  0  0  0  0
   -1.3720   22.2250  -29.8590 C   0  0  1  0  0  0  0  0  0  0  0  0
   -1.9900   22.2080  -31.3030 C   0  0  0  0  0  0  0  0  0  0  0  0
   -2.1330   23.0490  -28.9000 N   0  0  0  0  0  0  0  0  0  0  0  0
   -2.5180   24.4010  -29.3430 C   0  0  0  0  0  0  0  0  0  0  0  0
   -3.9460   24.3900  -29.8000 C   0  0  0  0  0  0  0  0  0  0  0  0
   -4.9930   24.6230  -28.8960 C   0  0  0  0  0  0  0  0  0  0  0  0
   -6.3090   24.6440  -29.3620 C   0  0  0  0  0  0  0  0  0  0  0  0
   -6.5680   24.4430  -30.7190 C   0  0  0  0  0  0  0  0  0  0  0  0
   -5.5010   24.2260  -31.5930 C   0  0  0  0  0  0  0  0  0  0  0  0
   -4.2260   24.2090  -31.1210 N   0  0  0  0  0  0  0  0  0  0  0  0
   -3.2460   22.2050  -28.4400 C   0  0  0  0  0  0  0  0  0  0  0  0
   -6.0300   21.5920  -32.2510 N   0  0  0  0  0  0  0  0  0  0  0  0
   -7.1310   20.8220  -32.2530 C   0  0  0  0  0  0  0  0  0  0  0  0
   -8.4400   21.2160  -31.9880 C   0  0  0  0  0  0  0  0  0  0  0  0
   -9.4510   20.2430  -32.0830 C   0  0  0  0  0  0  0  0  0  0  0  0
   -9.1320   18.9140  -32.4430 C   0  0  0  0  0  0  0  0  0  0  0  0
   -7.7990   18.5470  -32.7090 C   0  0  0  0  0  0  0  0  0  0  0  0
   -6.8180   19.5370  -32.5960 C   0  0  0  0  0  0  0  0  0  0  0  0
   -4.3575   17.7312  -32.3888 H   0  0  0  0  0  0  0  0  0  0  0  0
   -5.3742   17.6418  -33.8670 H   0  0  0  0  0  0  0  0  0  0  0  0
   -3.8742   18.6302  -33.8670 H   0  0  0  0  0  0  0  0  0  0  0  0
   -3.1596   20.5741  -33.5901 H   0  0  0  0  0  0  0  0  0  0  0  0
   -3.6284   22.2403  -33.0874 H   0  0  0  0  0  0  0  0  0  0  0  0
   -4.6050   21.3160  -30.4022 H   0  0  0  0  0  0  0  0  0  0  0  0
   -4.0035   19.6028  -30.5136 H   0  0  0  0  0  0  0  0  0  0  0  0
   -3.3472   19.9911  -28.3891 H   0  0  0  0  0  0  0  0  0  0  0  0
   -0.9238   20.7257  -28.3339 H   0  0  0  0  0  0  0  0  0  0  0  0
   -1.0972   20.0141  -29.8933 H   0  0  0  0  0  0  0  0  0  0  0  0
   -0.3485   22.6091  -29.9815 H   0  0  0  0  0  0  0  0  0  0  0  0
   -2.5950   23.1170  -31.4363 H   0  0  0  0  0  0  0  0  0  0  0  0
   -1.1554   22.1624  -32.0181 H   0  0  0  0  0  0  0  0  0  0  0  0
   -2.4062   25.1065  -28.5065 H   0  0  0  0  0  0  0  0  0  0  0  0
   -1.8694   24.7126  -30.1750 H   0  0  0  0  0  0  0  0  0  0  0  0
   -4.7792   24.7877  -27.8296 H   0  0  0  0  0  0  0  0  0  0  0  0
   -7.1393   24.8184  -28.6619 H   0  0  0  0  0  0  0  0  0  0  0  0
   -7.6015   24.4555  -31.0956 H   0  0  0  0  0  0  0  0  0  0  0  0
   -5.6921   24.0686  -32.6648 H   0  0  0  0  0  0  0  0  0  0  0  0
   -3.2597   22.1563  -27.3412 H   0  0  0  0  0  0  0  0  0  0  0  0
   -4.2173   22.6094  -28.7610 H   0  0  0  0  0  0  0  0  0  0  0  0
   -8.6757   22.2547  -31.7132 H   0  0  0  0  0  0  0  0  0  0  0  0
  -10.4958   20.5178  -31.8760 H   0  0  0  0  0  0  0  0  0  0  0  0
   -9.9307   18.1612  -32.5159 H   0  0  0  0  0  0  0  0  0  0  0  0
   -7.5384   17.5175  -32.9957 H   0  0  0  0  0  0  0  0  0  0  0  0
  1  2  1  0
  2  3  1  0
  3  4  1  0
  4  5  1  0
  5  6  1  0
  6  7  1  0
  7  8  1  0
  8  9  1  0
  9 10  1  0
  9 11  1  0
 11 12  1  0
 12 13  1  0
 13 14  2  0
 14 15  1  0
 15 16  2  0
 16 17  1  0
 17 18  2  0
 11 19  1  0
  3 20  2  0
 20 21  1  0
 21 22  2  0
 22 23  1  0
 23 24  2  0
 24 25  1  0
 25 26  2  0
 26  2  1  0
 10  5  1  0
 18 13  1  0
 26 21  1  0
 19  7  1  0
  1 27  1  0
  1 28  1  0
  1 29  1  0
  4 30  1  0
  4 31  1  0
  6 32  1  0
  6 33  1  0
  7 34  1  1
  8 35  1  0
  8 36  1  0
  9 37  1  6
 10 38  1  0
 10 39  1  0
 12 40  1  0
 12 41  1  0
 14 42  1  0
 15 43  1  0
 16 44  1  0
 17 45  1  0
 19 46  1  0
 19 47  1  0
 22 48  1  0
 23 49  1  0
 24 50  1  0
 25 51  1  0
M  END
>  <UniqueID>  (12) 
12

>  <SMILES>  (12) 
Cn1c(CN2C[C@H]3C[C@@H](C2)N(Cc2ccccn2)C3)nc2ccccc21

>  <Energy>  (12) 
120.63271695010475

>  <Genealogy>  (12) 
Cn1c(CN2C[C@H]3C[C@@H](C2)N(Cc2ccccn2)C3)nc2ccccc21 (chirality)
Cn1c(CN2C[C@H]3C[C@@H](C2)N(Cc2ccccn2)C3)nc2ccccc21 (3D coordinates assigned)
Cn1c(CN2C[C@H]3C[C@@H](C2)N(Cc2ccccn2)C3)nc2ccccc21 (nonaromatic ring conformer: 120.63271695010475 kcal/mol)

>  <smiles>  (12) 
Cn1c(CN2CC3CC(C2)N(Cc2ccccn2)C3)nc2ccccc21

>  <score_type>  (12) 
oracle

>  <origin>  (12) 
adg

>  <m_score__min__energy>  (12) 
-8.4299999999999997

>  <m_primary>  (12) 
energy

$$$$
12:0
     RDKit          3D

 46 47  0  0  0  0  0  0  0  0999 V2000
   -5.8570   17.4030  -34.2330 C   0  0  0  0  0  0  0  0  0  0  0  0
   -6.0530   18.9020  -34.5150 C   0  0  0  0  0  0  0  0  0  0  0  0
   -6.4610   19.7070  -33.3320 N   0  0  0  0  0  0  0  0  0  0  0  0
   -6.8310   18.8350  -32.1860 C   0  0  0  0  0  0  0  0  0  0  0  0
   -8.3500   18.6740  -32.0380 C   0  0  0  0  0  0  0  0  0  0  0  0
   -5.4370   20.7100  -32.9350 C   0  0  0  0  0  0  0  0  0  0  0  0
   -6.0400   21.8930  -32.2130 C   0  0  0  0  0  0  0  0  0  0  0  0
   -7.4180   21.9430  -31.9520 C   0  0  0  0  0  0  0  0  0  0  0  0
   -7.9660   23.0320  -31.2720 C   0  0  0  0  0  0  0  0  0  0  0  0
   -7.1480   24.0810  -30.8490 C   0  0  0  0  0  0  0  0  0  0  0  0
   -5.7640   24.0530  -31.1030 C   0  0  0  0  0  0  0  0  0  0  0  0
   -4.8960   25.1690  -30.6570 C   0  0  0  0  0  0  0  0  0  0  0  0
   -5.3910   26.3100  -30.4450 O   0  0  0  0  0  0  0  0  0  0  0  0
   -3.4920   24.9570  -30.4710 N   0  0  0  0  0  0  0  0  0  0  0  0
   -2.9350   23.9890  -29.5320 C   0  0  0  0  0  0  0  0  0  0  0  0
   -2.4220   24.6870  -28.3030 C   0  0  0  0  0  0  0  0  0  0  0  0
   -3.1490   24.6230  -27.1010 C   0  0  0  0  0  0  0  0  0  0  0  0
   -2.6850   25.2870  -25.9610 C   0  0  0  0  0  0  0  0  0  0  0  0
   -1.4980   26.0220  -26.0130 C   0  0  0  0  0  0  0  0  0  0  0  0
   -0.7740   26.0980  -27.2060 C   0  0  0  0  0  0  0  0  0  0  0  0
   -1.2320   25.4330  -28.3470 C   0  0  0  0  0  0  0  0  0  0  0  0
   -5.2190   22.9500  -31.7850 C   0  0  0  0  0  0  0  0  0  0  0  0
   -5.8349   17.2342  -33.1463 H   0  0  0  0  0  0  0  0  0  0  0  0
   -6.6885   16.8349  -34.6755 H   0  0  0  0  0  0  0  0  0  0  0  0
   -4.9074   17.0678  -34.6755 H   0  0  0  0  0  0  0  0  0  0  0  0
   -5.1031   19.3068  -34.8943 H   0  0  0  0  0  0  0  0  0  0  0  0
   -6.8752   18.9774  -35.2418 H   0  0  0  0  0  0  0  0  0  0  0  0
   -7.3210   20.2290  -33.6270 H   0  0  0  0  0  0  0  0  0  0  0  0
   -6.3841   17.8417  -32.3396 H   0  0  0  0  0  0  0  0  0  0  0  0
   -6.4538   19.3101  -31.2684 H   0  0  0  0  0  0  0  0  0  0  0  0
   -8.6135   18.6461  -30.9704 H   0  0  0  0  0  0  0  0  0  0  0  0
   -8.8573   19.5234  -32.5188 H   0  0  0  0  0  0  0  0  0  0  0  0
   -8.6680   17.7371  -32.5188 H   0  0  0  0  0  0  0  0  0  0  0  0
   -4.7065   20.2253  -32.2706 H   0  0  0  0  0  0  0  0  0  0  0  0
   -4.9601   21.0843  -33.8529 H   0  0  0  0  0  0  0  0  0  0  0  0
   -8.0688   21.1209  -32.2846 H   0  0  0  0  0  0  0  0  0  0  0  0
   -9.0466   23.0636  -31.0687 H   0  0  0  0  0  0  0  0  0  0  0  0
   -7.5880   24.9352  -30.3136 H   0  0  0  0  0  0  0  0  0  0  0  0
   -3.7182   23.2731  -29.2420 H   0  0  0  0  0  0  0  0  0  0  0  0
   -2.1009   23.4605  -30.0168 H   0  0  0  0  0  0  0  0  0  0  0  0
   -4.0861   24.0486  -27.0573 H   0  0  0  0  0  0  0  0  0  0  0  0
   -3.2554   25.2305  -25.0221 H   0  0  0  0  0  0  0  0  0  0  0  0
   -1.1331   26.5411  -25.1145 H   0  0  0  0  0  0  0  0  0  0  0  0
    0.1574   26.6818  -27.2471 H   0  0  0  0  0  0  0  0  0  0  0  0
   -0.6583   25.4939  -29.2836 H   0  0  0  0  0  0  0  0  0  0  0  0
   -4.1380   22.9145  -31.9855 H   0  0  0  0  0  0  0  0  0  0  0  0
  1  2  1  0
  2  3  1  0
  3  4  1  0
  4  5  1  0
  3  6  1  0
  6  7  1  0
  7  8  2  0
  8  9  1  0
  9 10  2  0
 10 11  1  0
 11 12  1  0
 12 13  2  0
 12 14  1  0
 14 15  1  0
 15 16  1  0
 16 17  2  0
 17 18  1  0
 18 19  2  0
 19 20  1  0
 20 21  2  0
 11 22  2  0
 22  7  1  0
 21 16  1  0
  1 23  1  0
  1 24  1  0
  1 25  1  0
  2 26  1  0
  2 27  1  0
  3 28  1  0
  4 29  1  0
  4 30  1  0
  5 31  1  0
  5 32  1  0
  5 33  1  0
  6 34  1  0
  6 35  1  0
  8 36  1  0
  9 37  1  0
 10 38  1  0
 15 39  1  0
 15 40  1  0
 17 41  1  0
 18 42  1  0
 19 43  1  0
 20 44  1  0
 21 45  1  0
 22 46  1  0
M  CHG  2   3   1  14  -1
M  END
>  <UniqueID>  (13) 
13

>  <SMILES>  (13) 
CC[NH+](CC)Cc1cccc(C(=O)[N-]Cc2ccccc2)c1

>  <Energy>  (13) 
46.323037167223845

>  <Genealogy>  (13) 
CC[NH+](CC)Cc1cccc(C(=O)[N-]Cc2ccccc2)c1 (protonated)
CC[NH+](CC)Cc1cccc(C(=O)[N-]Cc2ccccc2)c1 (3D coordinates assigned)
CC[NH+](CC)Cc1cccc(C(=O)[N-]Cc2ccccc2)c1 (optimized conformer: 46.323037167223845 kcal/mol)

>  <smiles>  (13) 
CCN(CC)Cc1cccc(C(=O)NCc2ccccc2)c1

>  <score_type>  (13) 
oracle

>  <origin>  (13) 
adg

>  <m_score__min__energy>  (13) 
-9.2300000000000004

>  <m_primary>  (13) 
energy

$$$$
13:0
     RDKit          3D

 73 77  0  0  0  0  0  0  0  0999 V2000
    0.7770   16.3700  -27.7960 C   0  0  0  0  0  0  0  0  0  0  0  0
    1.2560   17.7850  -27.8550 C   0  0  0  0  0  0  0  0  0  0  0  0
    0.3440   18.8450  -27.7780 C   0  0  0  0  0  0  0  0  0  0  0  0
    0.8100   20.1660  -27.8430 C   0  0  0  0  0  0  0  0  0  0  0  0
   -0.1340   21.3040  -27.7480 C   0  0  0  0  0  0  0  0  0  0  0  0
    0.0980   22.2810  -26.7670 C   0  0  0  0  0  0  0  0  0  0  0  0
   -0.7890   23.3570  -26.6200 C   0  0  0  0  0  0  0  0  0  0  0  0
   -0.5790   24.4000  -25.5930 C   0  0  0  0  0  0  0  0  0  0  0  0
    0.0670   24.2880  -24.3700 C   0  0  0  0  0  0  0  0  0  0  0  0
    0.0480   25.4920  -23.7680 N   0  0  0  0  0  0  0  0  0  0  0  0
   -0.5910   26.3490  -24.5480 N   0  0  0  0  0  0  0  0  0  0  0  0
   -0.7360   27.7710  -24.2620 C   0  0  0  0  0  0  0  0  0  0  0  0
   -0.9760   25.7240  -25.6760 C   0  0  0  0  0  0  0  0  0  0  0  0
   -1.8690   23.4470  -27.4390 N   0  0  0  0  0  0  0  0  0  0  0  0
   -2.1260   22.5320  -28.4100 C   0  0  0  0  0  0  0  0  0  0  0  0
   -3.2460   22.7000  -29.2310 C   0  0  0  0  0  0  0  0  0  0  0  0
   -3.5270   21.7920  -30.2690 C   0  0  0  0  0  0  0  0  0  0  0  0
   -4.6720   21.9960  -31.1440 N   0  0  0  0  0  0  0  0  0  0  0  0
   -4.8800   23.2850  -31.8350 C   0  0  0  0  0  0  0  0  0  0  0  0
   -5.8180   24.2270  -31.0540 C   0  0  0  0  0  0  0  0  0  0  0  0
   -5.1070   25.0380  -29.9700 C   0  0  0  0  0  0  0  0  0  0  0  0
   -3.9280   25.5950  -30.4830 O   0  0  0  0  0  0  0  0  0  0  0  0
   -5.7220   20.9660  -31.2610 C   0  0  0  0  0  0  0  0  0  0  0  0
   -6.1810   20.8190  -32.7190 C   0  0  0  0  0  0  0  0  0  0  0  0
   -7.6370   21.0420  -32.8510 N   0  0  0  0  0  0  0  0  0  0  0  0
   -8.3610   19.7610  -32.9400 C   0  0  0  0  0  0  0  0  0  0  0  0
   -9.0780   19.5410  -31.6250 C   0  0  0  0  0  0  0  0  0  0  0  0
   -9.3570   20.9350  -31.1310 C   0  0  0  0  0  0  0  0  0  0  0  0
   -8.2070   21.7710  -31.6950 C   0  0  2  0  0  0  0  0  0  0  0  0
   -8.6900   23.1530  -32.1390 C   0  0  0  0  0  0  0  0  0  0  0  0
   -2.6520   20.7030  -30.4580 C   0  0  0  0  0  0  0  0  0  0  0  0
   -1.5310   20.5310  -29.6420 C   0  0  0  0  0  0  0  0  0  0  0  0
   -1.2580   21.4340  -28.5990 C   0  0  0  0  0  0  0  0  0  0  0  0
    2.1870   20.4010  -27.9540 C   0  0  0  0  0  0  0  0  0  0  0  0
    3.0660   19.3180  -28.0230 C   0  0  0  0  0  0  0  0  0  0  0  0
    2.5870   18.0470  -27.9740 N   0  0  0  0  0  0  0  0  0  0  0  0
    0.6726   16.0617  -26.7452 H   0  0  0  0  0  0  0  0  0  0  0  0
   -0.1978   16.2916  -28.2997 H   0  0  0  0  0  0  0  0  0  0  0  0
    1.5037   15.7156  -28.2997 H   0  0  0  0  0  0  0  0  0  0  0  0
   -0.7315   18.6426  -27.6672 H   0  0  0  0  0  0  0  0  0  0  0  0
    0.9781   22.2022  -26.1118 H   0  0  0  0  0  0  0  0  0  0  0  0
    0.5179   23.3714  -23.9619 H   0  0  0  0  0  0  0  0  0  0  0  0
    0.4770   25.7260  -22.8460 H   0  0  0  0  0  0  0  0  0  0  0  0
   -0.7518   27.9263  -23.1731 H   0  0  0  0  0  0  0  0  0  0  0  0
    0.1107   28.3210  -24.6985 H   0  0  0  0  0  0  0  0  0  0  0  0
   -1.6763   28.1388  -24.6985 H   0  0  0  0  0  0  0  0  0  0  0  0
   -1.5130   26.1851  -26.5180 H   0  0  0  0  0  0  0  0  0  0  0  0
   -3.9174   23.5549  -29.0628 H   0  0  0  0  0  0  0  0  0  0  0  0
   -3.9057   23.7803  -31.9592 H   0  0  0  0  0  0  0  0  0  0  0  0
   -5.3513   23.0724  -32.8059 H   0  0  0  0  0  0  0  0  0  0  0  0
   -6.2792   24.9273  -31.7660 H   0  0  0  0  0  0  0  0  0  0  0  0
   -6.5621   23.5945  -30.5478 H   0  0  0  0  0  0  0  0  0  0  0  0
   -5.7705   25.8445  -29.6245 H   0  0  0  0  0  0  0  0  0  0  0  0
   -4.8565   24.3746  -29.1291 H   0  0  0  0  0  0  0  0  0  0  0  0
   -3.4940   26.0660  -29.7250 H   0  0  0  0  0  0  0  0  0  0  0  0
   -5.3233   20.0029  -30.9095 H   0  0  0  0  0  0  0  0  0  0  0  0
   -6.5839   21.2697  -30.6487 H   0  0  0  0  0  0  0  0  0  0  0  0
   -5.6484   21.5560  -33.3380 H   0  0  0  0  0  0  0  0  0  0  0  0
   -5.9559   19.7949  -33.0514 H   0  0  0  0  0  0  0  0  0  0  0  0
   -9.0910   19.8003  -33.7620 H   0  0  0  0  0  0  0  0  0  0  0  0
   -7.6598   18.9368  -33.1373 H   0  0  0  0  0  0  0  0  0  0  0  0
  -10.0145   18.9845  -31.7775 H   0  0  0  0  0  0  0  0  0  0  0  0
   -8.4869   18.9473  -30.9122 H   0  0  0  0  0  0  0  0  0  0  0  0
  -10.3243   21.2967  -31.5097 H   0  0  0  0  0  0  0  0  0  0  0  0
   -9.4179   20.9886  -30.0340 H   0  0  0  0  0  0  0  0  0  0  0  0
   -7.4475   21.9218  -30.9137 H   0  0  0  0  0  0  0  0  0  0  0  0
   -8.9051   23.7684  -31.2530 H   0  0  0  0  0  0  0  0  0  0  0  0
   -7.9083   23.6385  -32.7416 H   0  0  0  0  0  0  0  0  0  0  0  0
   -9.6040   23.0458  -32.7416 H   0  0  0  0  0  0  0  0  0  0  0  0
   -2.8548   19.9778  -31.2599 H   0  0  0  0  0  0  0  0  0  0  0  0
   -0.8553   19.6809  -29.8171 H   0  0  0  0  0  0  0  0  0  0  0  0
    2.5726   21.4307  -27.9865 H   0  0  0  0  0  0  0  0  0  0  0  0
    4.1478   19.4939  -28.1172 H   0  0  0  0  0  0  0  0  0  0  0  0
  1  2  1  0
  2  3  2  0
  3  4  1  0
  4  5  1  0
  5  6  2  0
  6  7  1  0
  7  8  1  0
  8  9  1  0
  9 10  2  0
 10 11  1  0
 11 12  1  0
 11 13  1  0
  7 14  2  0
 14 15  1  0
 15 16  2  0
 16 17  1  0
 17 18  1  0
 18 19  1  0
 19 20  1  0
 20 21  1  0
 21 22  1  0
 18 23  1  0
 23 24  1  0
 24 25  1  0
 25 26  1  0
 26 27  1  0
 27 28  1  0
 28 29  1  0
 29 30  1  0
 17 31  2  0
 31 32  1  0
 32 33  2  0
  4 34  2  0
 34 35  1  0
 35 36  2  0
 36  2  1  0
 33  5  1  0
 13  8  2  0
 33 15  1  0
 29 25  1  0
  1 37  1  0
  1 38  1  0
  1 39  1  0
  3 40  1  0
  6 41  1  0
  9 42  1  0
 10 43  1  0
 12 44  1  0
 12 45  1  0
 12 46  1  0
 13 47  1  0
 16 48  1  0
 19 49  1  0
 19 50  1  0
 20 51  1  0
 20 52  1  0
 21 53  1  0
 21 54  1  0
 22 55  1  0
 23 56  1  0
 23 57  1  0
 24 58  1  0
 24 59  1  0
 26 60  1  0
 26 61  1  0
 27 62  1  0
 27 63  1  0
 28 64  1  0
 28 65  1  0
 29 66  1  1
 30 67  1  0
 30 68  1  0
 30 69  1  0
 31 70  1  0
 32 71  1  0
 34 72  1  0
 35 73  1  0
M  CHG  1  10   1
M  END
>  <UniqueID>  (14) 
14

>  <SMILES>  (14) 
Cc1cc(-c2cc(-c3c[nH+]n(C)c3)nc3cc(N(CCCO)CCN4CCC[C@@H]4C)ccc23)ccn1

>  <Energy>  (14) 
116.91838621721162

>  <Genealogy>  (14) 
Cc1cc(-c2cc(-c3c[nH+]n(C)c3)nc3cc(N(CCCO)CCN4CCCC4C)ccc23)ccn1 (protonated)
Cc1cc(-c2cc(-c3c[nH+]n(C)c3)nc3cc(N(CCCO)CCN4CCC[C@@H]4C)ccc23)ccn1 (chirality)
Cc1cc(-c2cc(-c3c[nH+]n(C)c3)nc3cc(N(CCCO)CCN4CCC[C@@H]4C)ccc23)ccn1 (3D coordinates assigned)
Cc1cc(-c2cc(-c3c[nH+]n(C)c3)nc3cc(N(CCCO)CCN4CCC[C@@H]4C)ccc23)ccn1 (nonaromatic ring conformer: 116.91838621721162 kcal/mol)

>  <smiles>  (14) 
Cc1cc(-c2cc(-c3cnn(C)c3)nc3cc(N(CCCO)CCN4CCCC4C)ccc23)ccn1

>  <score_type>  (14) 
oracle

>  <origin>  (14) 
adg

>  <m_score__min__energy>  (14) 
-11.789999999999999

>  <m_primary>  (14) 
energy

$$$$
14:0
     RDKit          3D

 43 45  0  0  0  0  0  0  0  0999 V2000
    0.5400   21.4680  -34.9810 C   0  0  0  0  0  0  0  0  0  0  0  0
   -0.8340   21.3360  -34.4860 N   0  0  0  0  0  0  0  0  0  0  0  0
   -0.8530   21.0700  -33.0420 C   0  0  0  0  0  0  0  0  0  0  0  0
   -2.2250   21.3720  -32.4680 C   0  0  0  0  0  0  0  0  0  0  0  0
   -3.2040   21.5860  -33.3230 N   0  0  0  0  0  0  0  0  0  0  0  0
   -4.6540   21.7420  -33.0850 C   0  0  1  0  0  0  0  0  0  0  0  0
   -5.3820   20.4010  -33.0300 C   0  0  0  0  0  0  0  0  0  0  0  0
   -4.8070   19.2240  -33.5560 C   0  0  0  0  0  0  0  0  0  0  0  0
   -5.5030   18.0120  -33.5160 C   0  0  0  0  0  0  0  0  0  0  0  0
   -6.7890   17.9590  -32.9750 C   0  0  0  0  0  0  0  0  0  0  0  0
   -7.3870   19.1210  -32.4860 C   0  0  0  0  0  0  0  0  0  0  0  0
   -6.6970   20.3350  -32.5230 C   0  0  0  0  0  0  0  0  0  0  0  0
   -4.9740   22.6360  -31.8960 C   0  0  0  0  0  0  0  0  0  0  0  0
   -5.7450   23.8000  -32.0830 C   0  0  0  0  0  0  0  0  0  0  0  0
   -6.1180   24.5870  -30.9920 C   0  0  0  0  0  0  0  0  0  0  0  0
   -5.7310   24.2240  -29.7020 C   0  0  0  0  0  0  0  0  0  0  0  0
   -4.9630   23.0770  -29.5000 C   0  0  0  0  0  0  0  0  0  0  0  0
   -4.5900   22.2720  -30.5900 C   0  0  0  0  0  0  0  0  0  0  0  0
   -3.6740   21.1090  -30.3890 C   0  0  0  0  0  0  0  0  0  0  0  0
   -2.3980   21.4190  -31.0270 N   0  0  0  0  0  0  0  0  0  0  0  0
   -1.3090   21.9270  -30.1810 C   0  0  0  0  0  0  0  0  0  0  0  0
    1.2320   21.5345  -34.1286 H   0  0  0  0  0  0  0  0  0  0  0  0
    0.7952   20.5902  -35.5929 H   0  0  0  0  0  0  0  0  0  0  0  0
    0.6234   22.3783  -35.5929 H   0  0  0  0  0  0  0  0  0  0  0  0
   -1.3130   22.2520  -34.6480 H   0  0  0  0  0  0  0  0  0  0  0  0
   -0.6106   20.0118  -32.8649 H   0  0  0  0  0  0  0  0  0  0  0  0
   -0.1098   21.7147  -32.5500 H   0  0  0  0  0  0  0  0  0  0  0  0
   -2.9560   21.5620  -34.3390 H   0  0  0  0  0  0  0  0  0  0  0  0
   -5.0480   22.2729  -33.9642 H   0  0  0  0  0  0  0  0  0  0  0  0
   -3.8019   19.2607  -34.0015 H   0  0  0  0  0  0  0  0  0  0  0  0
   -5.0362   17.0980  -33.9118 H   0  0  0  0  0  0  0  0  0  0  0  0
   -7.3302   17.0022  -32.9343 H   0  0  0  0  0  0  0  0  0  0  0  0
   -8.4046   19.0810  -32.0702 H   0  0  0  0  0  0  0  0  0  0  0  0
   -7.1840   21.2492  -32.1529 H   0  0  0  0  0  0  0  0  0  0  0  0
   -6.0558   24.0913  -33.0972 H   0  0  0  0  0  0  0  0  0  0  0  0
   -6.7183   25.4952  -31.1499 H   0  0  0  0  0  0  0  0  0  0  0  0
   -6.0315   24.8425  -28.8434 H   0  0  0  0  0  0  0  0  0  0  0  0
   -4.6479   22.8014  -28.4828 H   0  0  0  0  0  0  0  0  0  0  0  0
   -3.5207   20.9371  -29.3134 H   0  0  0  0  0  0  0  0  0  0  0  0
   -4.1096   20.2008  -30.8311 H   0  0  0  0  0  0  0  0  0  0  0  0
   -1.5783   21.8014  -29.1219 H   0  0  0  0  0  0  0  0  0  0  0  0
   -0.3871   21.3660  -30.3939 H   0  0  0  0  0  0  0  0  0  0  0  0
   -1.1465   22.9939  -30.3939 H   0  0  0  0  0  0  0  0  0  0  0  0
  1  2  1  0
  2  3  1  0
  3  4  1  0
  4  5  2  0
  5  6  1  0
  6  7  1  0
  7  8  2  0
  8  9  1  0
  9 10  2  0
 10 11  1  0
 11 12  2  0
  6 13  1  0
 13 14  2  0
 14 15  1  0
 15 16  2  0
 16 17  1  0
 17 18  2  0
 18 19  1  0
 19 20  1  0
 20 21  1  0
 20  4  1  0
 12  7  1  0
 18 13  1  0
  1 22  1  0
  1 23  1  0
  1 24  1  0
  2 25  1  0
  3 26  1  0
  3 27  1  0
  5 28  1  0
  6 29  1  6
  8 30  1  0
  9 31  1  0
 10 32  1  0
 11 33  1  0
 12 34  1  0
 14 35  1  0
 15 36  1  0
 16 37  1  0
 17 38  1  0
 19 39  1  0
 19 40  1  0
 21 41  1  0
 21 42  1  0
 21 43  1  0
M  CHG  1   5   1
M  END
>  <UniqueID>  (15) 
15

>  <SMILES>  (15) 
CNCC1=[NH+][C@@H](c2ccccc2)c2ccccc2CN1C

>  <Energy>  (15) 
57.7604032228229

>  <Genealogy>  (15) 
CNCC1=[NH+]C(c2ccccc2)c2ccccc2CN1C (protonated)
CNCC1=[NH+][C@@H](c2ccccc2)c2ccccc2CN1C (chirality)
CNCC1=[NH+][C@@H](c2ccccc2)c2ccccc2CN1C (3D coordinates assigned)
CNCC1=[NH+][C@@H](c2ccccc2)c2ccccc2CN1C (nonaromatic ring conformer: 57.7604032228229 kcal/mol)

>  <smiles>  (15) 
CNCC1=NC(c2ccccc2)c2ccccc2CN1C

>  <score_type>  (15) 
oracle

>  <origin>  (15) 
adg

>  <m_score__min__energy>  (15) 
-7.3399999999999999

>  <m_primary>  (15) 
energy

$$$$
15:0
     RDKit          3D

 45 48  0  0  0  0  0  0  0  0999 V2000
   -7.7550   20.4870  -32.7130 C   0  0  0  0  0  0  0  0  0  0  0  0
   -7.2610   21.6050  -31.8580 C   0  0  0  0  0  0  0  0  0  0  0  0
   -6.3090   21.4920  -30.8510 C   0  0  0  0  0  0  0  0  0  0  0  0
   -5.9730   22.7290  -30.2760 C   0  0  0  0  0  0  0  0  0  0  0  0
   -6.7050   23.7840  -30.7960 C   0  0  0  0  0  0  0  0  0  0  0  0
   -7.7010   23.2220  -32.0280 S   0  0  0  0  0  0  0  0  0  0  0  0
   -6.5670   25.2030  -30.3490 C   0  0  0  0  0  0  0  0  0  0  0  0
   -5.7950   25.2890  -29.0140 C   0  0  0  0  0  0  0  0  0  0  0  0
   -4.6450   24.3510  -28.9320 N   0  0  2  0  0  0  0  0  0  0  0  0
   -3.5810   24.7410  -29.8370 C   0  0  0  0  0  0  0  0  0  0  0  0
   -3.6880   24.5400  -31.0780 O   0  0  0  0  0  0  0  0  0  0  0  0
   -2.3650   25.2800  -29.3000 N   0  0  0  0  0  0  0  0  0  0  0  0
   -1.5540   24.6940  -28.2720 C   0  0  0  0  0  0  0  0  0  0  0  0
   -0.4520   23.8700  -28.5690 C   0  0  0  0  0  0  0  0  0  0  0  0
    0.3240   23.3350  -27.5350 C   0  0  0  0  0  0  0  0  0  0  0  0
    0.0160   23.6270  -26.2040 C   0  0  0  0  0  0  0  0  0  0  0  0
    0.7710   23.1080  -25.2040 F   0  0  0  0  0  0  0  0  0  0  0  0
   -1.0620   24.4630  -25.9040 C   0  0  0  0  0  0  0  0  0  0  0  0
   -1.8390   25.0000  -26.9340 C   0  0  0  0  0  0  0  0  0  0  0  0
   -5.0650   22.9270  -29.0820 C   0  0  2  0  0  0  0  0  0  0  0  0
   -3.8700   21.9760  -29.0480 C   0  0  0  0  0  0  0  0  0  0  0  0
   -3.3640   21.5490  -27.8080 C   0  0  0  0  0  0  0  0  0  0  0  0
   -2.2370   20.7220  -27.7470 C   0  0  0  0  0  0  0  0  0  0  0  0
   -1.5970   20.3250  -28.9210 C   0  0  0  0  0  0  0  0  0  0  0  0
   -2.0770   20.7550  -30.1600 C   0  0  0  0  0  0  0  0  0  0  0  0
   -3.2020   21.5810  -30.2260 C   0  0  0  0  0  0  0  0  0  0  0  0
   -8.1167   19.6684  -32.0734 H   0  0  0  0  0  0  0  0  0  0  0  0
   -8.5778   20.8470  -33.3481 H   0  0  0  0  0  0  0  0  0  0  0  0
   -6.9348   20.1211  -33.3481 H   0  0  0  0  0  0  0  0  0  0  0  0
   -5.8658   20.5352  -30.5377 H   0  0  0  0  0  0  0  0  0  0  0  0
   -6.0218   25.7710  -31.1173 H   0  0  0  0  0  0  0  0  0  0  0  0
   -7.5725   25.6236  -30.2006 H   0  0  0  0  0  0  0  0  0  0  0  0
   -5.4163   26.3150  -28.8964 H   0  0  0  0  0  0  0  0  0  0  0  0
   -6.4979   25.0093  -28.2155 H   0  0  0  0  0  0  0  0  0  0  0  0
   -4.2670   24.4490  -27.9580 H   0  0  0  0  0  0  0  0  0  0  0  0
   -0.2004   23.6463  -29.6162 H   0  0  0  0  0  0  0  0  0  0  0  0
    1.1782   22.6832  -27.7705 H   0  0  0  0  0  0  0  0  0  0  0  0
   -1.2996   24.6989  -24.8562 H   0  0  0  0  0  0  0  0  0  0  0  0
   -2.6798   25.6672  -26.6932 H   0  0  0  0  0  0  0  0  0  0  0  0
   -5.6748   22.6628  -28.2055 H   0  0  0  0  0  0  0  0  0  0  0  0
   -3.8580   21.8675  -26.8782 H   0  0  0  0  0  0  0  0  0  0  0  0
   -1.8553   20.3846  -26.7721 H   0  0  0  0  0  0  0  0  0  0  0  0
   -0.7130   19.6723  -28.8709 H   0  0  0  0  0  0  0  0  0  0  0  0
   -1.5691   20.4432  -31.0845 H   0  0  0  0  0  0  0  0  0  0  0  0
   -3.5695   21.9258  -31.2038 H   0  0  0  0  0  0  0  0  0  0  0  0
  1  2  1  0
  2  3  2  0
  3  4  1  0
  4  5  2  0
  5  6  1  0
  5  7  1  0
  7  8  1  0
  8  9  1  0
  9 10  1  0
 10 11  2  0
 10 12  1  0
 12 13  1  0
 13 14  2  0
 14 15  1  0
 15 16  2  0
 16 17  1  0
 16 18  1  0
 18 19  2  0
  9 20  1  0
 20 21  1  0
 21 22  2  0
 22 23  1  0
 23 24  2  0
 24 25  1  0
 25 26  2  0
  6  2  1  0
 19 13  1  0
 26 21  1  0
 20  4  1  0
  1 27  1  0
  1 28  1  0
  1 29  1  0
  3 30  1  0
  7 31  1  0
  7 32  1  0
  8 33  1  0
  8 34  1  0
  9 35  1  1
 14 36  1  0
 15 37  1  0
 18 38  1  0
 19 39  1  0
 20 40  1  1
 22 41  1  0
 23 42  1  0
 24 43  1  0
 25 44  1  0
 26 45  1  0
M  CHG  2   9   1  12  -1
M  END
>  <UniqueID>  (16) 
16

>  <SMILES>  (16) 
Cc1cc2c(s1)CC[N@H+](C(=O)[N-]c1ccc(F)cc1)[C@@H]2c1ccccc1

>  <Energy>  (16) 
88.35855129553066

>  <Genealogy>  (16) 
Cc1cc2c(s1)CC[NH+](C(=O)[N-]c1ccc(F)cc1)C2c1ccccc1 (protonated)
Cc1cc2c(s1)CC[N@H+](C(=O)[N-]c1ccc(F)cc1)[C@@H]2c1ccccc1 (chirality)
Cc1cc2c(s1)CC[N@H+](C(=O)[N-]c1ccc(F)cc1)[C@@H]2c1ccccc1 (3D coordinates assigned)
Cc1cc2c(s1)CC[N@H+](C(=O)[N-]c1ccc(F)cc1)[C@@H]2c1ccccc1 (nonaromatic ring conformer: 88.35855129553066 kcal/mol)

>  <smiles>  (16) 
Cc1cc2c(s1)CCN(C(=O)Nc1ccc(F)cc1)C2c1ccccc1

>  <score_type>  (16) 
oracle

>  <origin>  (16) 
adg

>  <m_score__min__energy>  (16) 
-8.9399999999999995

>  <m_primary>  (16) 
energy

$$$$
16:0
     RDKit          3D

 51 53  0  0  0  0  0  0  0  0999 V2000
   -6.7680   14.9950  -34.2320 C   0  0  0  0  0  0  0  0  0  0  0  0
   -4.9530   15.1090  -34.2680 S   0  0  0  0  0  0  0  0  0  0  0  0
   -4.9360   16.8710  -33.9280 C   0  0  0  0  0  0  0  0  0  0  0  0
   -3.7730   17.4790  -33.4420 C   0  0  0  0  0  0  0  0  0  0  0  0
   -3.7600   18.8500  -33.1720 C   0  0  0  0  0  0  0  0  0  0  0  0
   -4.9110   19.6250  -33.3820 C   0  0  0  0  0  0  0  0  0  0  0  0
   -4.9000   21.0960  -33.0570 C   0  0  0  0  0  0  0  0  0  0  0  0
   -5.2250   21.3290  -31.6310 N   0  0  0  0  0  0  0  0  0  0  0  0
   -6.6740   21.2200  -31.3410 C   0  0  0  0  0  0  0  0  0  0  0  0
   -7.4860   22.3930  -31.9220 C   0  0  0  0  0  0  0  0  0  0  0  0
   -6.7280   23.7300  -31.8710 C   0  0  0  0  0  0  0  0  0  0  0  0
   -5.6280   23.7050  -30.8020 C   0  0  2  0  0  0  0  0  0  0  0  0
   -4.9300   25.0340  -30.6910 C   0  0  0  0  0  0  0  0  0  0  0  0
   -5.5990   26.0980  -30.8050 O   0  0  0  0  0  0  0  0  0  0  0  0
   -3.5160   25.0880  -30.4620 N   0  0  0  0  0  0  0  0  0  0  0  0
   -2.8600   24.7990  -29.2210 C   0  0  0  0  0  0  0  0  0  0  0  0
   -3.5710   24.1320  -28.2170 C   0  0  0  0  0  0  0  0  0  0  0  0
   -2.9630   23.8410  -26.9920 C   0  0  0  0  0  0  0  0  0  0  0  0
   -1.6460   24.2410  -26.7380 C   0  0  0  0  0  0  0  0  0  0  0  0
   -1.0840   23.9210  -25.4910 O   0  0  0  0  0  0  0  0  0  0  0  0
   -0.3660   22.7240  -25.1960 C   0  0  0  0  0  0  0  0  0  0  0  0
    0.9940   22.9280  -25.3590 F   0  0  0  0  0  0  0  0  0  0  0  0
   -0.7730   21.7310  -26.0650 F   0  0  0  0  0  0  0  0  0  0  0  0
   -0.6310   22.3200  -23.8990 F   0  0  0  0  0  0  0  0  0  0  0  0
   -0.9410   24.9440  -27.7340 C   0  0  0  0  0  0  0  0  0  0  0  0
   -1.5450   25.2210  -28.9650 C   0  0  0  0  0  0  0  0  0  0  0  0
   -4.6100   22.5760  -31.0980 C   0  0  0  0  0  0  0  0  0  0  0  0
   -6.0790   19.0070  -33.8630 C   0  0  0  0  0  0  0  0  0  0  0  0
   -6.0890   17.6360  -34.1340 C   0  0  0  0  0  0  0  0  0  0  0  0
   -7.1134   14.9733  -33.1879 H   0  0  0  0  0  0  0  0  0  0  0  0
   -7.2004   15.8678  -34.7432 H   0  0  0  0  0  0  0  0  0  0  0  0
   -7.0878   14.0750  -34.7432 H   0  0  0  0  0  0  0  0  0  0  0  0
   -2.8681   16.8770  -33.2723 H   0  0  0  0  0  0  0  0  0  0  0  0
   -2.8428   19.3243  -32.7929 H   0  0  0  0  0  0  0  0  0  0  0  0
   -3.9004   21.5034  -33.2689 H   0  0  0  0  0  0  0  0  0  0  0  0
   -5.6601   21.5962  -33.6750 H   0  0  0  0  0  0  0  0  0  0  0  0
   -7.0503   20.2821  -31.7754 H   0  0  0  0  0  0  0  0  0  0  0  0
   -6.7967   21.2399  -30.2480 H   0  0  0  0  0  0  0  0  0  0  0  0
   -7.7279   22.1667  -32.9709 H   0  0  0  0  0  0  0  0  0  0  0  0
   -8.3915   22.5037  -31.3073 H   0  0  0  0  0  0  0  0  0  0  0  0
   -6.2697   23.9200  -32.8528 H   0  0  0  0  0  0  0  0  0  0  0  0
   -7.4432   24.5258  -31.6156 H   0  0  0  0  0  0  0  0  0  0  0  0
   -6.1085   23.5025  -29.8335 H   0  0  0  0  0  0  0  0  0  0  0  0
   -4.6154   23.8346  -28.3928 H   0  0  0  0  0  0  0  0  0  0  0  0
   -3.5246   23.2929  -26.2212 H   0  0  0  0  0  0  0  0  0  0  0  0
    0.0898   25.2770  -27.5430 H   0  0  0  0  0  0  0  0  0  0  0  0
   -0.9872   25.7721  -29.7365 H   0  0  0  0  0  0  0  0  0  0  0  0
   -3.8864   22.9483  -31.8381 H   0  0  0  0  0  0  0  0  0  0  0  0
   -4.1390   22.3134  -30.1393 H   0  0  0  0  0  0  0  0  0  0  0  0
   -6.9879   19.6047  -34.0265 H   0  0  0  0  0  0  0  0  0  0  0  0
   -7.0053   17.1575  -34.5100 H   0  0  0  0  0  0  0  0  0  0  0  0
  1  2  1  0
  2  3  1  0
  3  4  2  0
  4  5  1  0
  5  6  2  0
  6  7  1  0
  7  8  1  0
  8  9  1  0
  9 10  1  0
 10 11  1  0
 11 12  1  0
 12 13  1  0
 13 14  2  0
 13 15  1  0
 15 16  1  0
 16 17  2  0
 17 18  1  0
 18 19  2  0
 19 20  1  0
 20 21  1  0
 21 22  1  0
 21 23  1  0
 21 24  1  0
 19 25  1  0
 25 26  2  0
 12 27  1  0
  6 28  1  0
 28 29  2  0
 29  3  1  0
 27  8  1  0
 26 16  1  0
  1 30  1  0
  1 31  1  0
  1 32  1  0
  4 33  1  0
  5 34  1  0
  7 35  1  0
  7 36  1  0
  9 37  1  0
  9 38  1  0
 10 39  1  0
 10 40  1  0
 11 41  1  0
 11 42  1  0
 12 43  1  1
 17 44  1  0
 18 45  1  0
 25 46  1  0
 26 47  1  0
 27 48  1  0
 27 49  1  0
 28 50  1  0
 29 51  1  0
M  CHG  1  15  -1
M  END
>  <UniqueID>  (17) 
17

>  <SMILES>  (17) 
CSc1ccc(CN2CCC[C@H](C(=O)[N-]c3ccc(OC(F)(F)F)cc3)C2)cc1

>  <Energy>  (17) 
60.46186260513994

>  <Genealogy>  (17) 
CSc1ccc(CN2CCCC(C(=O)[N-]c3ccc(OC(F)(F)F)cc3)C2)cc1 (protonated)
CSc1ccc(CN2CCC[C@H](C(=O)[N-]c3ccc(OC(F)(F)F)cc3)C2)cc1 (chirality)
CSc1ccc(CN2CCC[C@H](C(=O)[N-]c3ccc(OC(F)(F)F)cc3)C2)cc1 (3D coordinates assigned)
CSc1ccc(CN2CCC[C@H](C(=O)[N-]c3ccc(OC(F)(F)F)cc3)C2)cc1 (nonaromatic ring conformer: 60.46186260513994 kcal/mol)

>  <smiles>  (17) 
CSc1ccc(CN2CCCC(C(=O)Nc3ccc(OC(F)(F)F)cc3)C2)cc1

>  <score_type>  (17) 
oracle

>  <origin>  (17) 
adg

>  <m_score__min__energy>  (17) 
-10.220000000000001

>  <m_primary>  (17) 
energy

$$$$
17:0
     RDKit          3D

 29 30  0  0  0  0  0  0  0  0999 V2000
   -0.4890   21.1210  -34.2370 C   0  0  0  0  0  0  0  0  0  0  0  0
   -1.6940   20.8480  -33.7270 C   0  0  0  0  0  0  0  0  0  0  0  0
   -1.9790   20.9780  -32.2580 C   0  0  0  0  0  0  0  0  0  0  0  0
   -3.3770   21.4930  -32.0290 C   0  0  0  0  0  0  0  0  0  0  0  0
   -3.5800   22.7320  -31.4080 C   0  0  0  0  0  0  0  0  0  0  0  0
   -4.8750   23.2140  -31.1550 C   0  0  0  0  0  0  0  0  0  0  0  0
   -5.0250   24.5620  -30.4900 C   0  0  0  0  0  0  0  0  0  0  0  0
   -3.8530   25.3070  -30.6730 O   0  0  0  0  0  0  0  0  0  0  0  0
   -5.9970   22.4340  -31.5490 C   0  0  0  0  0  0  0  0  0  0  0  0
   -7.3230   22.8760  -31.3450 C   0  0  0  0  0  0  0  0  0  0  0  0
   -8.4040   22.0840  -31.7350 C   0  0  0  0  0  0  0  0  0  0  0  0
   -9.6710   22.5240  -31.5330 F   0  0  0  0  0  0  0  0  0  0  0  0
   -8.1880   20.8440  -32.3340 C   0  0  0  0  0  0  0  0  0  0  0  0
   -6.8880   20.3850  -32.5510 C   0  0  0  0  0  0  0  0  0  0  0  0
   -6.7110   19.1750  -33.1400 F   0  0  0  0  0  0  0  0  0  0  0  0
   -5.7850   21.1710  -32.1670 C   0  0  0  0  0  0  0  0  0  0  0  0
   -4.4790   20.7130  -32.3930 C   0  0  0  0  0  0  0  0  0  0  0  0
   -0.3124   21.0158  -35.3176 H   0  0  0  0  0  0  0  0  0  0  0  0
    0.3261   21.4508  -33.5761 H   0  0  0  0  0  0  0  0  0  0  0  0
   -2.4986   20.5193  -34.4012 H   0  0  0  0  0  0  0  0  0  0  0  0
   -1.8751   19.9920  -31.7816 H   0  0  0  0  0  0  0  0  0  0  0  0
   -1.2640   21.6908  -31.8212 H   0  0  0  0  0  0  0  0  0  0  0  0
   -2.7105   23.3379  -31.1134 H   0  0  0  0  0  0  0  0  0  0  0  0
   -5.8743   25.0990  -30.9376 H   0  0  0  0  0  0  0  0  0  0  0  0
   -5.2054   24.4215  -29.4140 H   0  0  0  0  0  0  0  0  0  0  0  0
   -3.8980   25.6680  -31.5960 H   0  0  0  0  0  0  0  0  0  0  0  0
   -7.5053   23.8534  -30.8744 H   0  0  0  0  0  0  0  0  0  0  0  0
   -9.0454   20.2249  -32.6368 H   0  0  0  0  0  0  0  0  0  0  0  0
   -4.3199   19.7304  -32.8613 H   0  0  0  0  0  0  0  0  0  0  0  0
  1  2  2  0
  2  3  1  0
  3  4  1  0
  4  5  2  0
  5  6  1  0
  6  7  1  0
  7  8  1  0
  6  9  2  0
  9 10  1  0
 10 11  2  0
 11 12  1  0
 11 13  1  0
 13 14  2  0
 14 15  1  0
 14 16  1  0
 16 17  2  0
 17  4  1  0
 16  9  1  0
  1 18  1  0
  1 19  1  0
  2 20  1  0
  3 21  1  0
  3 22  1  0
  5 23  1  0
  7 24  1  0
  7 25  1  0
  8 26  1  0
 10 27  1  0
 13 28  1  0
 17 29  1  0
M  END
>  <UniqueID>  (18) 
18

>  <SMILES>  (18) 
C=CCc1cc(CO)c2cc(F)cc(F)c2c1

>  <Energy>  (18) 
31.34548587645208

>  <Genealogy>  (18) 
C=CCc1cc(CO)c2cc(F)cc(F)c2c1 (3D coordinates assigned)
C=CCc1cc(CO)c2cc(F)cc(F)c2c1 (optimized conformer: 31.34548587645208 kcal/mol)

>  <smiles>  (18) 
C=CCc1cc(CO)c2cc(F)cc(F)c2c1

>  <score_type>  (18) 
oracle

>  <origin>  (18) 
adg

>  <m_score__min__energy>  (18) 
-7.5899999999999999

>  <m_primary>  (18) 
energy

$$$$
18:0
     RDKit          3D

 44 47  0  0  0  0  0  0  0  0999 V2000
   -0.0670   23.0860  -24.6090 C   0  0  0  0  0  0  0  0  0  0  0  0
    0.0600   22.7990  -25.9970 O   0  0  0  0  0  0  0  0  0  0  0  0
   -0.7630   23.3420  -26.9970 C   0  0  0  0  0  0  0  0  0  0  0  0
   -1.8790   24.1480  -26.7020 C   0  0  0  0  0  0  0  0  0  0  0  0
   -2.6680   24.6620  -27.7340 C   0  0  0  0  0  0  0  0  0  0  0  0
   -2.3650   24.3790  -29.0710 C   0  0  0  0  0  0  0  0  0  0  0  0
   -3.1870   24.9170  -30.0730 O   0  0  0  0  0  0  0  0  0  0  0  0
   -4.5390   24.5960  -30.2410 C   0  0  0  0  0  0  0  0  0  0  0  0
   -5.4830   25.4720  -29.8010 N   0  0  0  0  0  0  0  0  0  0  0  0
   -6.8100   25.2220  -29.9650 C   0  0  0  0  0  0  0  0  0  0  0  0
   -7.2200   24.0730  -30.5590 N   0  0  0  0  0  0  0  0  0  0  0  0
   -6.3240   23.1510  -30.9940 C   0  0  0  0  0  0  0  0  0  0  0  0
   -6.7680   21.9670  -31.5870 C   0  0  0  0  0  0  0  0  0  0  0  0
   -5.8310   21.0070  -32.0100 C   0  0  0  0  0  0  0  0  0  0  0  0
   -6.2440   19.7670  -32.6280 N   0  0  0  0  0  0  0  0  0  0  0  0
   -5.7800   19.4520  -33.9850 C   0  0  0  0  0  0  0  0  0  0  0  0
   -5.7510   17.9360  -34.1990 C   0  0  0  0  0  0  0  0  0  0  0  0
   -6.9900   17.3550  -33.8420 O   0  0  0  0  0  0  0  0  0  0  0  0
   -7.1980   17.5020  -32.4520 C   0  0  0  0  0  0  0  0  0  0  0  0
   -7.3550   18.9800  -32.0770 C   0  0  0  0  0  0  0  0  0  0  0  0
   -4.5020   21.2560  -31.8320 N   0  0  0  0  0  0  0  0  0  0  0  0
   -4.0420   22.3990  -31.2600 C   0  0  0  0  0  0  0  0  0  0  0  0
   -4.9450   23.3850  -30.8360 C   0  0  0  0  0  0  0  0  0  0  0  0
   -1.2450   23.5800  -29.3660 C   0  0  0  0  0  0  0  0  0  0  0  0
   -0.4550   23.0670  -28.3340 C   0  0  0  0  0  0  0  0  0  0  0  0
    0.3096   22.2349  -24.0226 H   0  0  0  0  0  0  0  0  0  0  0  0
    0.5169   23.9859  -24.3657 H   0  0  0  0  0  0  0  0  0  0  0  0
   -1.1257   23.2590  -24.3657 H   0  0  0  0  0  0  0  0  0  0  0  0
   -2.1306   24.3738  -25.6552 H   0  0  0  0  0  0  0  0  0  0  0  0
   -3.5351   25.2948  -27.4938 H   0  0  0  0  0  0  0  0  0  0  0  0
   -5.1850   26.3650  -29.3470 H   0  0  0  0  0  0  0  0  0  0  0  0
   -7.5531   25.9536  -29.6150 H   0  0  0  0  0  0  0  0  0  0  0  0
   -7.8446   21.7862  -31.7225 H   0  0  0  0  0  0  0  0  0  0  0  0
   -6.4625   19.9087  -34.7169 H   0  0  0  0  0  0  0  0  0  0  0  0
   -4.7635   19.8512  -34.1169 H   0  0  0  0  0  0  0  0  0  0  0  0
   -5.5458   17.7252  -35.2589 H   0  0  0  0  0  0  0  0  0  0  0  0
   -4.9632   17.5051  -33.5636 H   0  0  0  0  0  0  0  0  0  0  0  0
   -8.1101   16.9584  -32.1646 H   0  0  0  0  0  0  0  0  0  0  0  0
   -6.3253   17.0948  -31.9205 H   0  0  0  0  0  0  0  0  0  0  0  0
   -8.3044   19.3586  -32.4836 H   0  0  0  0  0  0  0  0  0  0  0  0
   -7.3503   19.0733  -30.9810 H   0  0  0  0  0  0  0  0  0  0  0  0
   -2.9605   22.5514  -31.1292 H   0  0  0  0  0  0  0  0  0  0  0  0
   -0.9904   23.3584  -30.4129 H   0  0  0  0  0  0  0  0  0  0  0  0
    0.4170   22.4412  -28.5748 H   0  0  0  0  0  0  0  0  0  0  0  0
  1  2  1  0
  2  3  1  0
  3  4  2  0
  4  5  1  0
  5  6  2  0
  6  7  1  0
  7  8  1  0
  8  9  2  0
  9 10  1  0
 10 11  2  0
 11 12  1  0
 12 13  2  0
 13 14  1  0
 14 15  1  0
 15 16  1  0
 16 17  1  0
 17 18  1  0
 18 19  1  0
 19 20  1  0
 14 21  2  0
 21 22  1  0
 22 23  2  0
  6 24  1  0
 24 25  2  0
 25  3  1  0
 23  8  1  0
 23 12  1  0
 20 15  1  0
  1 26  1  0
  1 27  1  0
  1 28  1  0
  4 29  1  0
  5 30  1  0
  9 31  1  0
 10 32  1  0
 13 33  1  0
 16 34  1  0
 16 35  1  0
 17 36  1  0
 17 37  1  0
 19 38  1  0
 19 39  1  0
 20 40  1  0
 20 41  1  0
 22 42  1  0
 24 43  1  0
 25 44  1  0
M  CHG  1   9   1
M  END
>  <UniqueID>  (19) 
19

>  <SMILES>  (19) 
COc1ccc(Oc2[nH+]cnc3cc(N4CCOCC4)ncc23)cc1

>  <Energy>  (19) 
63.80424703206255

>  <Genealogy>  (19) 
COc1ccc(Oc2[nH+]cnc3cc(N4CCOCC4)ncc23)cc1 (protonated)
COc1ccc(Oc2[nH+]cnc3cc(N4CCOCC4)ncc23)cc1 (3D coordinates assigned)
COc1ccc(Oc2[nH+]cnc3cc(N4CCOCC4)ncc23)cc1 (nonaromatic ring conformer: 63.80424703206255 kcal/mol)

>  <smiles>  (19) 
COc1ccc(Oc2ncnc3cc(N4CCOCC4)ncc23)cc1

>  <score_type>  (19) 
oracle

>  <origin>  (19) 
adg

>  <m_score__min__energy>  (19) 
-7.5

>  <m_primary>  (19) 
energy

$$$$
19:0
     RDKit          3D

 47 50  0  0  0  0  0  0  0  0999 V2000
   -0.8700   26.7800  -27.8440 C   0  0  0  0  0  0  0  0  0  0  0  0
   -1.4670   26.0500  -28.9210 O   0  0  0  0  0  0  0  0  0  0  0  0
   -1.7170   24.6690  -28.9040 C   0  0  0  0  0  0  0  0  0  0  0  0
   -0.9370   23.7770  -28.1450 C   0  0  0  0  0  0  0  0  0  0  0  0
   -1.1890   22.4050  -28.1900 C   0  0  0  0  0  0  0  0  0  0  0  0
   -2.2320   21.9110  -28.9710 C   0  0  0  0  0  0  0  0  0  0  0  0
   -3.0260   22.7870  -29.7120 C   0  0  0  0  0  0  0  0  0  0  0  0
   -2.7770   24.1710  -29.6760 C   0  0  0  0  0  0  0  0  0  0  0  0
   -3.5360   25.0860  -30.4780 N   0  0  0  0  0  0  0  0  0  0  0  0
   -4.9650   25.1470  -30.5810 C   0  0  0  0  0  0  0  0  0  0  0  0
   -5.5360   26.2640  -30.4600 O   0  0  0  0  0  0  0  0  0  0  0  0
   -5.7880   23.9300  -30.7630 C   0  0  0  0  0  0  0  0  0  0  0  0
   -7.0210   23.7900  -30.1070 C   0  0  0  0  0  0  0  0  0  0  0  0
   -7.8080   22.6510  -30.3150 C   0  0  0  0  0  0  0  0  0  0  0  0
   -7.3660   21.6400  -31.1710 C   0  0  0  0  0  0  0  0  0  0  0  0
   -6.1280   21.7590  -31.8240 C   0  0  0  0  0  0  0  0  0  0  0  0
   -5.6520   20.6980  -32.6680 N   0  0  0  0  0  0  0  0  0  0  0  0
   -6.6050   19.6740  -33.1450 C   0  0  0  0  0  0  0  0  0  0  0  0
   -6.1110   18.9690  -34.4150 C   0  0  0  0  0  0  0  0  0  0  0  0
   -4.6810   18.5450  -34.2540 C   0  0  0  0  0  0  0  0  0  0  0  0
   -4.2070   17.3380  -34.7850 C   0  0  0  0  0  0  0  0  0  0  0  0
   -2.8550   17.0050  -34.6580 C   0  0  0  0  0  0  0  0  0  0  0  0
   -1.9850   17.8940  -34.0160 C   0  0  0  0  0  0  0  0  0  0  0  0
   -2.4580   19.0690  -33.5230 N   0  0  0  0  0  0  0  0  0  0  0  0
   -3.7780   19.4100  -33.6180 C   0  0  0  0  0  0  0  0  0  0  0  0
   -4.2490   20.7440  -33.1170 C   0  0  0  0  0  0  0  0  0  0  0  0
   -5.3480   22.9090  -31.6220 C   0  0  0  0  0  0  0  0  0  0  0  0
   -1.2110   26.3630  -26.8849 H   0  0  0  0  0  0  0  0  0  0  0  0
    0.2251   26.7004  -27.9097 H   0  0  0  0  0  0  0  0  0  0  0  0
   -1.1654   27.8376  -27.9097 H   0  0  0  0  0  0  0  0  0  0  0  0
   -0.1240   24.1633  -27.5126 H   0  0  0  0  0  0  0  0  0  0  0  0
   -0.5632   21.7124  -27.6080 H   0  0  0  0  0  0  0  0  0  0  0  0
   -2.4296   20.8294  -29.0034 H   0  0  0  0  0  0  0  0  0  0  0  0
   -3.8495   22.3940  -30.3264 H   0  0  0  0  0  0  0  0  0  0  0  0
   -7.3708   24.5796  -29.4257 H   0  0  0  0  0  0  0  0  0  0  0  0
   -8.7766   22.5522  -29.8031 H   0  0  0  0  0  0  0  0  0  0  0  0
   -7.9889   20.7482  -31.3343 H   0  0  0  0  0  0  0  0  0  0  0  0
   -6.7430   18.9225  -32.3536 H   0  0  0  0  0  0  0  0  0  0  0  0
   -7.5515   20.1800  -33.3862 H   0  0  0  0  0  0  0  0  0  0  0  0
   -6.7334   18.0816  -34.6026 H   0  0  0  0  0  0  0  0  0  0  0  0
   -6.1835   19.6669  -35.2622 H   0  0  0  0  0  0  0  0  0  0  0  0
   -4.8971   16.6540  -35.3006 H   0  0  0  0  0  0  0  0  0  0  0  0
   -2.4782   16.0526  -35.0592 H   0  0  0  0  0  0  0  0  0  0  0  0
   -0.9195   17.6419  -33.9106 H   0  0  0  0  0  0  0  0  0  0  0  0
   -3.6150   21.0506  -32.2720 H   0  0  0  0  0  0  0  0  0  0  0  0
   -4.1797   21.4635  -33.9461 H   0  0  0  0  0  0  0  0  0  0  0  0
   -4.3836   23.0114  -32.1411 H   0  0  0  0  0  0  0  0  0  0  0  0
  1  2  1  0
  2  3  1  0
  3  4  2  0
  4  5  1  0
  5  6  2  0
  6  7  1  0
  7  8  2  0
  8  9  1  0
  9 10  1  0
 10 11  2  0
 10 12  1  0
 12 13  2  0
 13 14  1  0
 14 15  2  0
 15 16  1  0
 16 17  1  0
 17 18  1  0
 18 19  1  0
 19 20  1  0
 20 21  2  0
 21 22  1  0
 22 23  2  0
 23 24  1  0
 24 25  2  0
 25 26  1  0
 16 27  2  0
  8  3  1  0
 27 12  1  0
 26 17  1  0
 25 20  1  0
  1 28  1  0
  1 29  1  0
  1 30  1  0
  4 31  1  0
  5 32  1  0
  6 33  1  0
  7 34  1  0
 13 35  1  0
 14 36  1  0
 15 37  1  0
 18 38  1  0
 18 39  1  0
 19 40  1  0
 19 41  1  0
 21 42  1  0
 22 43  1  0
 23 44  1  0
 26 45  1  0
 26 46  1  0
 27 47  1  0
M  CHG  1   9  -1
M  END
>  <UniqueID>  (20) 
20

>  <SMILES>  (20) 
COc1ccccc1[N-]C(=O)c1cccc(N2CCc3cccnc3C2)c1

>  <Energy>  (20) 
66.25720121493225

>  <Genealogy>  (20) 
COc1ccccc1[N-]C(=O)c1cccc(N2CCc3cccnc3C2)c1 (protonated)
COc1ccccc1[N-]C(=O)c1cccc(N2CCc3cccnc3C2)c1 (3D coordinates assigned)
COc1ccccc1[N-]C(=O)c1cccc(N2CCc3cccnc3C2)c1 (nonaromatic ring conformer: 66.25720121493225 kcal/mol)

>  <smiles>  (20) 
COc1ccccc1NC(=O)c1cccc(N2CCc3cccnc3C2)c1

>  <score_type>  (20) 
oracle

>  <origin>  (20) 
adg

>  <m_score__min__energy>  (20) 
-11.49

>  <m_primary>  (20) 
energy

$$$$
20:0
     RDKit          3D

 49 53  0  0  0  0  0  0  0  0999 V2000
   -2.7818   23.6796  -30.7537 H   0  0  0  0  0  0  0  0  0  0  0  0
   -3.8560   23.7680  -30.5340 C   0  0  0  0  0  0  0  0  0  0  0  0
   -4.7100   23.7460  -31.5120 N   0  0  0  0  0  0  0  0  0  0  0  0
   -5.5320   22.6360  -31.8090 N   0  0  0  0  0  0  0  0  0  0  0  0
   -4.9420   21.4640  -32.2090 C   0  0  0  0  0  0  0  0  0  0  0  0
   -3.4680   21.3500  -32.3040 C   0  0  0  0  0  0  0  0  0  0  0  0
   -2.6880   21.5400  -33.4430 C   0  0  0  0  0  0  0  0  0  0  0  0
   -3.0835   21.7829  -34.4403 H   0  0  0  0  0  0  0  0  0  0  0  0
   -1.3770   21.3840  -33.1510 N   0  0  0  0  0  0  0  0  0  0  0  0
   -0.5750   21.4710  -33.8140 H   0  0  0  0  0  0  0  0  0  0  0  0
   -1.3190   21.0980  -31.8400 C   0  0  0  0  0  0  0  0  0  0  0  0
   -0.1780   20.8410  -31.0820 C   0  0  0  0  0  0  0  0  0  0  0  0
    0.8233   20.8733  -31.5362 H   0  0  0  0  0  0  0  0  0  0  0  0
   -0.3460   20.5390  -29.7180 C   0  0  0  0  0  0  0  0  0  0  0  0
    0.5339   20.3346  -29.0904 H   0  0  0  0  0  0  0  0  0  0  0  0
   -1.6380   20.4970  -29.1510 C   0  0  0  0  0  0  0  0  0  0  0  0
   -1.7577   20.2572  -28.0842 H   0  0  0  0  0  0  0  0  0  0  0  0
   -2.7730   20.7590  -29.9380 C   0  0  0  0  0  0  0  0  0  0  0  0
   -3.7844   20.7211  -29.5071 H   0  0  0  0  0  0  0  0  0  0  0  0
   -2.5740   21.0690  -31.2850 C   0  0  0  0  0  0  0  0  0  0  0  0
   -5.7100   20.3870  -32.5350 N   0  0  0  0  0  0  0  0  0  0  0  0
   -5.2460   19.4960  -32.8280 H   0  0  0  0  0  0  0  0  0  0  0  0
   -7.0670   20.4350  -32.4600 C   0  0  0  0  0  0  0  0  0  0  0  0
   -7.8400   19.3150  -32.8040 C   0  0  0  0  0  0  0  0  0  0  0  0
   -7.3472   18.3938  -33.1481 H   0  0  0  0  0  0  0  0  0  0  0  0
   -9.2320   19.3660  -32.7110 C   0  0  0  0  0  0  0  0  0  0  0  0
   -9.8326   18.4859  -32.9843 H   0  0  0  0  0  0  0  0  0  0  0  0
   -9.8640   20.5310  -32.2720 C   0  0  0  0  0  0  0  0  0  0  0  0
  -10.9610   20.5671  -32.1998 H   0  0  0  0  0  0  0  0  0  0  0  0
   -9.1040   21.6520  -31.9240 C   0  0  0  0  0  0  0  0  0  0  0  0
   -9.6049   22.5673  -31.5757 H   0  0  0  0  0  0  0  0  0  0  0  0
   -7.7000   21.6130  -32.0180 C   0  0  0  0  0  0  0  0  0  0  0  0
   -6.8960   22.7120  -31.6770 C   0  0  0  0  0  0  0  0  0  0  0  0
   -7.4320   23.7630  -31.2280 O   0  0  0  0  0  0  0  0  0  0  0  0
   -4.2980   23.9090  -29.1370 C   0  0  0  0  0  0  0  0  0  0  0  0
   -5.2630   23.4706  -28.8427 H   0  0  0  0  0  0  0  0  0  0  0  0
   -3.5740   24.5490  -28.2090 C   0  0  0  0  0  0  0  0  0  0  0  0
   -4.0487   25.3619  -27.6399 H   0  0  0  0  0  0  0  0  0  0  0  0
   -2.1630   24.2100  -27.9160 C   0  0  0  0  0  0  0  0  0  0  0  0
   -1.9020   23.0970  -27.0990 C   0  0  0  0  0  0  0  0  0  0  0  0
   -2.7389   22.5066  -26.6978 H   0  0  0  0  0  0  0  0  0  0  0  0
   -0.5880   22.7340  -26.7920 C   0  0  0  0  0  0  0  0  0  0  0  0
   -0.3953   21.8678  -26.1420 H   0  0  0  0  0  0  0  0  0  0  0  0
    0.4810   23.4690  -27.3090 C   0  0  0  0  0  0  0  0  0  0  0  0
    1.5144   23.1882  -27.0574 H   0  0  0  0  0  0  0  0  0  0  0  0
    0.2380   24.5600  -28.1450 C   0  0  0  0  0  0  0  0  0  0  0  0
    1.0820   25.1328  -28.5569 H   0  0  0  0  0  0  0  0  0  0  0  0
   -1.0760   24.9290  -28.4620 C   0  0  0  0  0  0  0  0  0  0  0  0
   -1.2810   25.9830  -29.3450 O   0  0  0  0  0  0  0  0  0  0  0  0
  1  2  1  0
  2  3  2  0
  3  4  1  0
  4  5  1  0
  5  6  1  0
  6  7  2  0
  7  8  1  0
  7  9  1  0
  9 10  1  0
  9 11  1  0
 11 12  2  0
 12 13  1  0
 12 14  1  0
 14 15  1  0
 14 16  2  0
 16 17  1  0
 16 18  1  0
 18 19  1  0
 18 20  2  0
  5 21  2  0
 21 22  1  0
 21 23  1  0
 23 24  2  0
 24 25  1  0
 24 26  1  0
 26 27  1  0
 26 28  2  0
 28 29  1  0
 28 30  1  0
 30 31  1  0
 30 32  2  0
 32 33  1  0
 33 34  2  0
  2 35  1  0
 35 36  1  0
 35 37  2  0
 37 38  1  0
 37 39  1  0
 39 40  2  0
 40 41  1  0
 40 42  1  0
 42 43  1  0
 42 44  2  0
 44 45  1  0
 44 46  1  0
 46 47  1  0
 46 48  2  0
 48 49  1  0
 33  4  1  0
 48 39  1  0
 20  6  1  0
 32 23  1  0
 20 11  1  0
M  CHG  2  21   1  49  -1
M  END
>  <UniqueID>  (21) 
21

>  <SMILES>  (21) 
O=c1c2ccccc2[nH+]c(-c2c[nH]c3ccccc23)n1/N=C/C=C/c1ccccc1[O-]

>  <Energy>  (21) 
109.52138448794713

>  <Genealogy>  (21) 
O=c1c2ccccc2[nH+]c(-c2c[nH]c3ccccc23)n1N=CC=Cc1ccccc1[O-] (protonated)
O=c1c2ccccc2[nH+]c(-c2c[nH]c3ccccc23)n1/N=C/C=C/c1ccccc1[O-] (cis-trans isomerization)
O=c1c2ccccc2[nH+]c(-c2c[nH]c3ccccc23)n1/N=C/C=C/c1ccccc1[O-] (3D coordinates assigned)
O=c1c2ccccc2[nH+]c(-c2c[nH]c3ccccc23)n1/N=C/C=C/c1ccccc1[O-] (optimized conformer: 109.52138448794713 kcal/mol)

>  <smiles>  (21) 
O=c1c2ccccc2nc(-c2c[nH]c3ccccc23)n1N=CC=Cc1ccccc1O

>  <score_type>  (21) 
oracle

>  <origin>  (21) 
adg

>  <m_score__min__energy>  (21) 
-12.529999999999999

>  <m_primary>  (21) 
energy

$$$$
21:0
     RDKit          3D

 37 38  0  0  0  0  0  0  0  0999 V2000
   -9.0240   20.2280  -31.6260 C   0  0  0  0  0  0  0  0  0  0  0  0
   -7.6100   20.5790  -31.9810 C   0  0  0  0  0  0  0  0  0  0  0  0
   -6.6640   19.5680  -32.1800 C   0  0  0  0  0  0  0  0  0  0  0  0
   -5.3390   19.8920  -32.4690 C   0  0  0  0  0  0  0  0  0  0  0  0
   -4.9290   21.2330  -32.5640 C   0  0  0  0  0  0  0  0  0  0  0  0
   -3.4710   21.5280  -32.8050 C   0  0  0  0  0  0  0  0  0  0  0  0
   -5.8820   22.2680  -32.3610 C   0  0  0  0  0  0  0  0  0  0  0  0
   -5.5270   23.6680  -32.4670 N   0  0  0  0  0  0  0  0  0  0  0  0
   -6.2330   24.4880  -31.4670 C   0  0  0  0  0  0  0  0  0  0  0  0
   -5.2880   25.3810  -30.6970 C   0  0  0  0  0  0  0  0  0  0  0  0
   -5.7340   26.4510  -30.2050 O   0  0  0  0  0  0  0  0  0  0  0  0
   -3.8790   25.1210  -30.6100 N   0  0  0  0  0  0  0  0  0  0  0  0
   -3.2390   24.1290  -29.7980 C   0  0  0  0  0  0  0  0  0  0  0  0
   -3.8430   22.8850  -29.5490 C   0  0  0  0  0  0  0  0  0  0  0  0
   -3.1940   21.9340  -28.7560 C   0  0  0  0  0  0  0  0  0  0  0  0
   -1.9530   22.2270  -28.1820 C   0  0  0  0  0  0  0  0  0  0  0  0
   -1.0650   20.9250  -27.1050 Br  0  0  0  0  0  0  0  0  0  0  0  0
   -1.3730   23.4850  -28.3820 C   0  0  0  0  0  0  0  0  0  0  0  0
   -2.0220   24.4390  -29.1720 C   0  0  0  0  0  0  0  0  0  0  0  0
   -1.4630   25.6630  -29.3340 F   0  0  0  0  0  0  0  0  0  0  0  0
   -7.2140   21.9190  -32.0610 C   0  0  0  0  0  0  0  0  0  0  0  0
   -9.1315   20.2013  -30.5316 H   0  0  0  0  0  0  0  0  0  0  0  0
   -9.7053   20.9843  -32.0430 H   0  0  0  0  0  0  0  0  0  0  0  0
   -9.2725   19.2409  -32.0430 H   0  0  0  0  0  0  0  0  0  0  0  0
   -6.9667   18.5129  -32.1082 H   0  0  0  0  0  0  0  0  0  0  0  0
   -4.6050   19.0876  -32.6247 H   0  0  0  0  0  0  0  0  0  0  0  0
   -2.9537   21.6327  -31.8399 H   0  0  0  0  0  0  0  0  0  0  0  0
   -3.0194   20.7030  -33.3755 H   0  0  0  0  0  0  0  0  0  0  0  0
   -3.3756   22.4636  -33.3755 H   0  0  0  0  0  0  0  0  0  0  0  0
   -5.7570   24.0250  -33.4230 H   0  0  0  0  0  0  0  0  0  0  0  0
   -4.4930   23.7920  -32.3540 H   0  0  0  0  0  0  0  0  0  0  0  0
   -6.9743   25.1163  -31.9825 H   0  0  0  0  0  0  0  0  0  0  0  0
   -6.7167   23.8078  -30.7506 H   0  0  0  0  0  0  0  0  0  0  0  0
   -4.8297   22.6587  -29.9794 H   0  0  0  0  0  0  0  0  0  0  0  0
   -3.6606   20.9530  -28.5832 H   0  0  0  0  0  0  0  0  0  0  0  0
   -0.4051   23.7236  -27.9170 H   0  0  0  0  0  0  0  0  0  0  0  0
   -7.9549   22.7131  -31.8868 H   0  0  0  0  0  0  0  0  0  0  0  0
  1  2  1  0
  2  3  2  0
  3  4  1  0
  4  5  2  0
  5  6  1  0
  5  7  1  0
  7  8  1  0
  8  9  1  0
  9 10  1  0
 10 11  2  0
 10 12  1  0
 12 13  1  0
 13 14  2  0
 14 15  1  0
 15 16  2  0
 16 17  1  0
 16 18  1  0
 18 19  2  0
 19 20  1  0
  7 21  2  0
 21  2  1  0
 19 13  1  0
  1 22  1  0
  1 23  1  0
  1 24  1  0
  3 25  1  0
  4 26  1  0
  6 27  1  0
  6 28  1  0
  6 29  1  0
  8 30  1  0
  8 31  1  0
  9 32  1  0
  9 33  1  0
 14 34  1  0
 15 35  1  0
 18 36  1  0
 21 37  1  0
M  CHG  2   8   1  12  -1
M  END
>  <UniqueID>  (22) 
22

>  <SMILES>  (22) 
Cc1ccc(C)c([NH2+]CC(=O)[N-]c2ccc(Br)cc2F)c1

>  <Energy>  (22) 
41.14236406963972

>  <Genealogy>  (22) 
Cc1ccc(C)c([NH2+]CC(=O)[N-]c2ccc(Br)cc2F)c1 (protonated)
Cc1ccc(C)c([NH2+]CC(=O)[N-]c2ccc(Br)cc2F)c1 (3D coordinates assigned)
Cc1ccc(C)c([NH2+]CC(=O)[N-]c2ccc(Br)cc2F)c1 (optimized conformer: 41.14236406963972 kcal/mol)

>  <smiles>  (22) 
Cc1ccc(C)c(NCC(=O)Nc2ccc(Br)cc2F)c1

>  <score_type>  (22) 
oracle

>  <origin>  (22) 
adg

>  <m_score__min__energy>  (22) 
-9.4199999999999999

>  <m_primary>  (22) 
energy

$$$$
22:0
     RDKit          3D

 41 43  0  0  0  0  0  0  0  0999 V2000
   -1.1220   20.7980  -33.8060 C   0  0  0  0  0  0  0  0  0  0  0  0
   -2.0460   19.8020  -34.2300 O   0  0  0  0  0  0  0  0  0  0  0  0
   -3.3500   19.6710  -33.7320 C   0  0  0  0  0  0  0  0  0  0  0  0
   -3.8110   20.6280  -32.8070 C   0  0  0  0  0  0  0  0  0  0  0  0
   -5.1090   20.5470  -32.2820 C   0  0  0  0  0  0  0  0  0  0  0  0
   -5.9490   19.5140  -32.7080 C   0  0  0  0  0  0  0  0  0  0  0  0
   -5.4910   18.5560  -33.5790 C   0  0  0  0  0  0  0  0  0  0  0  0
   -4.2040   18.6140  -34.1170 C   0  0  0  0  0  0  0  0  0  0  0  0
   -6.4950   17.4910  -33.8030 C   0  0  0  0  0  0  0  0  0  0  0  0
   -7.5500   17.7730  -32.7210 C   0  0  0  0  0  0  0  0  0  0  0  0
   -7.3540   19.2440  -32.2770 C   0  0  2  0  0  0  0  0  0  0  0  0
   -8.3060   20.1140  -32.9940 N   0  0  0  0  0  0  0  0  0  0  0  0
   -9.4670   20.5170  -32.1790 C   0  0  0  0  0  0  0  0  0  0  0  0
   -9.4770   22.0350  -31.9710 C   0  0  0  0  0  0  0  0  0  0  0  0
   -8.1290   22.5410  -31.5290 C   0  0  0  0  0  0  0  0  0  0  0  0
   -7.3430   23.3160  -32.3980 C   0  0  0  0  0  0  0  0  0  0  0  0
   -6.1070   23.8150  -31.9750 C   0  0  0  0  0  0  0  0  0  0  0  0
   -5.6510   23.5500  -30.6810 C   0  0  0  0  0  0  0  0  0  0  0  0
   -6.4330   22.7880  -29.8060 C   0  0  0  0  0  0  0  0  0  0  0  0
   -7.6690   22.2890  -30.2260 C   0  0  0  0  0  0  0  0  0  0  0  0
   -1.0941   20.8281  -32.7068 H   0  0  0  0  0  0  0  0  0  0  0  0
   -0.1204   20.5570  -34.1918 H   0  0  0  0  0  0  0  0  0  0  0  0
   -1.4373   21.7787  -34.1918 H   0  0  0  0  0  0  0  0  0  0  0  0
   -3.1466   21.4467  -32.4934 H   0  0  0  0  0  0  0  0  0  0  0  0
   -5.4607   21.2851  -31.5462 H   0  0  0  0  0  0  0  0  0  0  0  0
   -3.8607   17.8490  -34.8290 H   0  0  0  0  0  0  0  0  0  0  0  0
   -6.9321   17.5658  -34.8097 H   0  0  0  0  0  0  0  0  0  0  0  0
   -6.0716   16.4777  -33.7403 H   0  0  0  0  0  0  0  0  0  0  0  0
   -8.5607   17.6330  -33.1320 H   0  0  0  0  0  0  0  0  0  0  0  0
   -7.4359   17.0854  -31.8700 H   0  0  0  0  0  0  0  0  0  0  0  0
   -7.5243   19.4251  -31.2055 H   0  0  0  0  0  0  0  0  0  0  0  0
   -8.6780   19.5780  -33.8140 H   0  0  0  0  0  0  0  0  0  0  0  0
  -10.3918   20.2162  -32.6930 H   0  0  0  0  0  0  0  0  0  0  0  0
   -9.4005   20.0243  -31.1977 H   0  0  0  0  0  0  0  0  0  0  0  0
   -9.7491   22.5237  -32.9182 H   0  0  0  0  0  0  0  0  0  0  0  0
  -10.2088   22.2705  -31.1842 H   0  0  0  0  0  0  0  0  0  0  0  0
   -7.7013   23.5312  -33.4155 H   0  0  0  0  0  0  0  0  0  0  0  0
   -5.4932   24.4166  -32.6615 H   0  0  0  0  0  0  0  0  0  0  0  0
   -4.6773   23.9404  -30.3502 H   0  0  0  0  0  0  0  0  0  0  0  0
   -6.0746   22.5815  -28.7867 H   0  0  0  0  0  0  0  0  0  0  0  0
   -8.2843   21.6963  -29.5331 H   0  0  0  0  0  0  0  0  0  0  0  0
  1  2  1  0
  2  3  1  0
  3  4  2  0
  4  5  1  0
  5  6  2  0
  6  7  1  0
  7  8  2  0
  7  9  1  0
  9 10  1  0
 10 11  1  0
 11 12  1  0
 12 13  1  0
 13 14  1  0
 14 15  1  0
 15 16  2  0
 16 17  1  0
 17 18  2  0
 18 19  1  0
 19 20  2  0
  8  3  1  0
 20 15  1  0
 11  6  1  0
  1 21  1  0
  1 22  1  0
  1 23  1  0
  4 24  1  0
  5 25  1  0
  8 26  1  0
  9 27  1  0
  9 28  1  0
 10 29  1  0
 10 30  1  0
 11 31  1  1
 12 32  1  0
 13 33  1  0
 13 34  1  0
 14 35  1  0
 14 36  1  0
 16 37  1  0
 17 38  1  0
 18 39  1  0
 19 40  1  0
 20 41  1  0
M  END
>  <UniqueID>  (23) 
23

>  <SMILES>  (23) 
COc1ccc2c(c1)CC[C@@H]2NCCc1ccccc1

>  <Energy>  (23) 
49.35307530625765

>  <Genealogy>  (23) 
COc1ccc2c(c1)CC[C@@H]2NCCc1ccccc1 (chirality)
COc1ccc2c(c1)CC[C@@H]2NCCc1ccccc1 (3D coordinates assigned)
COc1ccc2c(c1)CC[C@@H]2NCCc1ccccc1 (nonaromatic ring conformer: 49.35307530625765 kcal/mol)

>  <smiles>  (23) 
COc1ccc2c(c1)CCC2NCCc1ccccc1

>  <score_type>  (23) 
oracle

>  <origin>  (23) 
adg

>  <m_score__min__energy>  (23) 
-8.1799999999999997

>  <m_primary>  (23) 
energy

$$$$
23:0
     RDKit          3D

 38 39  0  0  0  0  0  0  0  0999 V2000
   -3.0150   21.4950  -32.9480 C   0  0  0  0  0  0  0  0  0  0  0  0
   -3.8530   21.5480  -31.7980 O   0  0  0  0  0  0  0  0  0  0  0  0
   -5.2510   21.4170  -31.8260 C   0  0  0  0  0  0  0  0  0  0  0  0
   -5.8820   20.1580  -31.8200 C   0  0  0  0  0  0  0  0  0  0  0  0
   -7.2750   20.0640  -31.8550 C   0  0  0  0  0  0  0  0  0  0  0  0
   -8.0600   21.2240  -31.8950 C   0  0  0  0  0  0  0  0  0  0  0  0
   -9.5530   21.1190  -31.9950 C   0  0  0  0  0  0  0  0  0  0  0  0
   -7.4360   22.4790  -31.9200 C   0  0  0  0  0  0  0  0  0  0  0  0
   -6.0340   22.5820  -31.8590 C   0  0  0  0  0  0  0  0  0  0  0  0
   -5.3740   23.8570  -31.8950 N   0  0  0  0  0  0  0  0  0  0  0  0
   -4.5860   24.4410  -30.8500 C   0  0  0  0  0  0  0  0  0  0  0  0
   -4.3200   25.6730  -30.8630 O   0  0  0  0  0  0  0  0  0  0  0  0
   -4.1160   23.6070  -29.7820 N   0  0  0  0  0  0  0  0  0  0  0  0
   -3.4770   24.1050  -28.5940 C   0  0  0  0  0  0  0  0  0  0  0  0
   -4.2370   24.4690  -27.4670 C   0  0  0  0  0  0  0  0  0  0  0  0
   -3.6080   24.9260  -26.3070 C   0  0  0  0  0  0  0  0  0  0  0  0
   -2.2180   25.0150  -26.2540 C   0  0  0  0  0  0  0  0  0  0  0  0
   -1.4490   24.6410  -27.3570 C   0  0  0  0  0  0  0  0  0  0  0  0
   -2.0700   24.1770  -28.5350 C   0  0  0  0  0  0  0  0  0  0  0  0
   -1.3260   23.7930  -29.6630 O   0  0  0  0  0  0  0  0  0  0  0  0
   -1.1780   22.4510  -30.1130 C   0  0  0  0  0  0  0  0  0  0  0  0
   -1.9633   21.4285  -32.6326 H   0  0  0  0  0  0  0  0  0  0  0  0
   -3.2739   20.6114  -33.5499 H   0  0  0  0  0  0  0  0  0  0  0  0
   -3.1605   22.4041  -33.5499 H   0  0  0  0  0  0  0  0  0  0  0  0
   -5.2735   19.2422  -31.7875 H   0  0  0  0  0  0  0  0  0  0  0  0
   -7.7577   19.0756  -31.8511 H   0  0  0  0  0  0  0  0  0  0  0  0
   -9.9869   21.0885  -30.9847 H   0  0  0  0  0  0  0  0  0  0  0  0
   -9.9465   21.9917  -32.5368 H   0  0  0  0  0  0  0  0  0  0  0  0
   -9.8205   20.1998  -32.5368 H   0  0  0  0  0  0  0  0  0  0  0  0
   -8.0474   23.3909  -31.9879 H   0  0  0  0  0  0  0  0  0  0  0  0
   -4.1740   22.5730  -29.9210 H   0  0  0  0  0  0  0  0  0  0  0  0
   -5.3339   24.3930  -27.5000 H   0  0  0  0  0  0  0  0  0  0  0  0
   -4.2105   25.2162  -25.4336 H   0  0  0  0  0  0  0  0  0  0  0  0
   -1.7260   25.3809  -25.3407 H   0  0  0  0  0  0  0  0  0  0  0  0
   -0.3522   24.7086  -27.3072 H   0  0  0  0  0  0  0  0  0  0  0  0
   -1.1039   21.7793  -29.2451 H   0  0  0  0  0  0  0  0  0  0  0  0
   -2.0506   22.1698  -30.7209 H   0  0  0  0  0  0  0  0  0  0  0  0
   -0.2651   22.3667  -30.7209 H   0  0  0  0  0  0  0  0  0  0  0  0
  1  2  1  0
  2  3  1  0
  3  4  2  0
  4  5  1  0
  5  6  2  0
  6  7  1  0
  6  8  1  0
  8  9  2  0
  9 10  1  0
 10 11  1  0
 11 12  2  0
 11 13  1  0
 13 14  1  0
 14 15  2  0
 15 16  1  0
 16 17  2  0
 17 18  1  0
 18 19  2  0
 19 20  1  0
 20 21  1  0
  9  3  1  0
 19 14  1  0
  1 22  1  0
  1 23  1  0
  1 24  1  0
  4 25  1  0
  5 26  1  0
  7 27  1  0
  7 28  1  0
  7 29  1  0
  8 30  1  0
 13 31  1  0
 15 32  1  0
 16 33  1  0
 17 34  1  0
 18 35  1  0
 21 36  1  0
 21 37  1  0
 21 38  1  0
M  CHG  1  10  -1
M  END
>  <UniqueID>  (24) 
24

>  <SMILES>  (24) 
COc1ccc(C)cc1[N-]C(=O)Nc1ccccc1OC

>  <Energy>  (24) 
43.81442976448698

>  <Genealogy>  (24) 
COc1ccc(C)cc1[N-]C(=O)Nc1ccccc1OC (protonated)
COc1ccc(C)cc1[N-]C(=O)Nc1ccccc1OC (3D coordinates assigned)
COc1ccc(C)cc1[N-]C(=O)Nc1ccccc1OC (optimized conformer: 43.81442976448698 kcal/mol)

>  <smiles>  (24) 
COc1ccccc1NC(=O)Nc1cc(C)ccc1OC

>  <score_type>  (24) 
oracle

>  <origin>  (24) 
adg

>  <m_score__min__energy>  (24) 
-8.5199999999999996

>  <m_primary>  (24) 
energy

$$$$
24:0
     RDKit          3D

 61 64  0  0  0  0  0  0  0  0999 V2000
   -0.0180   21.5370  -34.8800 C   0  0  0  0  0  0  0  0  0  0  0  0
   -1.1480   21.4170  -33.8410 C   0  0  0  0  0  0  0  0  0  0  0  0
   -1.1050   20.1790  -33.0210 N   0  0  0  0  0  0  0  0  0  0  0  0
    0.1090   20.0340  -32.1770 C   0  0  0  0  0  0  0  0  0  0  0  0
    0.1700   18.7300  -31.3730 C   0  0  0  0  0  0  0  0  0  0  0  0
   -1.5560   18.9530  -33.7170 C   0  0  0  0  0  0  0  0  0  0  0  0
   -3.0430   18.6710  -33.4670 C   0  0  0  0  0  0  0  0  0  0  0  0
   -3.8140   19.8460  -33.7160 O   0  0  0  0  0  0  0  0  0  0  0  0
   -5.1980   19.9190  -33.5190 C   0  0  0  0  0  0  0  0  0  0  0  0
   -5.9690   19.1770  -34.1910 O   0  0  0  0  0  0  0  0  0  0  0  0
   -5.7630   20.8440  -32.5020 C   0  0  0  0  0  0  0  0  0  0  0  0
   -7.1640   20.9740  -32.4040 C   0  0  0  0  0  0  0  0  0  0  0  0
   -7.7390   21.7690  -31.4080 C   0  0  0  0  0  0  0  0  0  0  0  0
   -9.4860   21.9020  -31.2910 Cl  0  0  0  0  0  0  0  0  0  0  0  0
   -6.9270   22.4420  -30.4950 C   0  0  0  0  0  0  0  0  0  0  0  0
   -5.5380   22.3380  -30.5860 C   0  0  0  0  0  0  0  0  0  0  0  0
   -4.9440   21.5650  -31.5950 C   0  0  0  0  0  0  0  0  0  0  0  0
   -3.5100   21.5380  -31.6740 N   0  0  0  0  0  0  0  0  0  0  0  0
   -2.6430   22.0170  -30.6280 C   0  0  0  0  0  0  0  0  0  0  0  0
   -1.7680   21.1600  -29.9490 C   0  0  0  0  0  0  0  0  0  0  0  0
   -0.9520   21.6490  -28.9300 C   0  0  0  0  0  0  0  0  0  0  0  0
   -0.9800   23.0100  -28.5600 C   0  0  0  0  0  0  0  0  0  0  0  0
   -1.8280   23.8910  -29.2910 C   0  0  0  0  0  0  0  0  0  0  0  0
   -2.6590   23.3760  -30.2940 C   0  0  0  0  0  0  0  0  0  0  0  0
   -1.8740   25.2790  -29.0990 O   0  0  0  0  0  0  0  0  0  0  0  0
   -0.8750   26.0490  -28.4490 C   0  0  0  0  0  0  0  0  0  0  0  0
   -0.9120   25.7870  -26.9780 C   0  0  0  0  0  0  0  0  0  0  0  0
   -1.2850   26.8040  -26.0860 C   0  0  0  0  0  0  0  0  0  0  0  0
   -1.2520   26.5790  -24.7070 C   0  0  0  0  0  0  0  0  0  0  0  0
   -0.8490   25.3380  -24.2110 C   0  0  0  0  0  0  0  0  0  0  0  0
   -0.4950   24.3150  -25.0920 C   0  0  0  0  0  0  0  0  0  0  0  0
   -0.5380   24.5240  -26.4830 C   0  0  0  0  0  0  0  0  0  0  0  0
   -0.1560   23.4210  -27.3890 C   0  0  0  0  0  0  0  0  0  0  0  0
    0.8740   22.7490  -27.1010 O   0  0  0  0  0  0  0  0  0  0  0  0
    0.9470   21.6395  -34.3620 H   0  0  0  0  0  0  0  0  0  0  0  0
   -0.0020   20.6355  -35.5101 H   0  0  0  0  0  0  0  0  0  0  0  0
   -0.1917   22.4217  -35.5101 H   0  0  0  0  0  0  0  0  0  0  0  0
   -1.0834   22.2804  -33.1625 H   0  0  0  0  0  0  0  0  0  0  0  0
   -2.0903   21.3832  -34.4076 H   0  0  0  0  0  0  0  0  0  0  0  0
    0.9909   20.0751  -32.8331 H   0  0  0  0  0  0  0  0  0  0  0  0
    0.0810   20.8536  -31.4438 H   0  0  0  0  0  0  0  0  0  0  0  0
    0.1592   18.9614  -30.2977 H   0  0  0  0  0  0  0  0  0  0  0  0
   -0.6999   18.1045  -31.6222 H   0  0  0  0  0  0  0  0  0  0  0  0
    1.0945   18.1885  -31.6222 H   0  0  0  0  0  0  0  0  0  0  0  0
   -1.3938   19.0770  -34.7979 H   0  0  0  0  0  0  0  0  0  0  0  0
   -0.9762   18.1042  -33.3253 H   0  0  0  0  0  0  0  0  0  0  0  0
   -3.3786   17.8667  -34.1382 H   0  0  0  0  0  0  0  0  0  0  0  0
   -3.1802   18.3659  -32.4191 H   0  0  0  0  0  0  0  0  0  0  0  0
   -7.8110   20.4443  -33.1187 H   0  0  0  0  0  0  0  0  0  0  0  0
   -7.3816   23.0550  -29.7028 H   0  0  0  0  0  0  0  0  0  0  0  0
   -4.9032   22.8670  -29.8599 H   0  0  0  0  0  0  0  0  0  0  0  0
   -3.0810   21.0430  -32.4890 H   0  0  0  0  0  0  0  0  0  0  0  0
   -1.7243   20.0951  -30.2212 H   0  0  0  0  0  0  0  0  0  0  0  0
   -0.2736   20.9607  -28.4046 H   0  0  0  0  0  0  0  0  0  0  0  0
   -3.3387   24.0542  -30.8307 H   0  0  0  0  0  0  0  0  0  0  0  0
    0.1137   25.7732  -28.8444 H   0  0  0  0  0  0  0  0  0  0  0  0
   -1.0625   27.1172  -28.6328 H   0  0  0  0  0  0  0  0  0  0  0  0
   -1.6047   27.7825  -26.4738 H   0  0  0  0  0  0  0  0  0  0  0  0
   -1.5438   27.3803  -24.0121 H   0  0  0  0  0  0  0  0  0  0  0  0
   -0.8104   25.1662  -23.1252 H   0  0  0  0  0  0  0  0  0  0  0  0
   -0.1801   23.3382  -24.6962 H   0  0  0  0  0  0  0  0  0  0  0  0
  1  2  1  0
  2  3  1  0
  3  4  1  0
  4  5  1  0
  3  6  1  0
  6  7  1  0
  7  8  1  0
  8  9  1  0
  9 10  2  0
  9 11  1  0
 11 12  2  0
 12 13  1  0
 13 14  1  0
 13 15  2  0
 15 16  1  0
 16 17  2  0
 17 18  1  0
 18 19  1  0
 19 20  2  0
 20 21  1  0
 21 22  2  0
 22 23  1  0
 23 24  2  0
 23 25  1  0
 25 26  1  0
 26 27  1  0
 27 28  2  0
 28 29  1  0
 29 30  2  0
 30 31  1  0
 31 32  2  0
 32 33  1  0
 33 34  2  0
 17 11  1  0
 24 19  1  0
 32 27  1  0
 33 22  1  0
  1 35  1  0
  1 36  1  0
  1 37  1  0
  2 38  1  0
  2 39  1  0
  4 40  1  0
  4 41  1  0
  5 42  1  0
  5 43  1  0
  5 44  1  0
  6 45  1  0
  6 46  1  0
  7 47  1  0
  7 48  1  0
 12 49  1  0
 15 50  1  0
 16 51  1  0
 18 52  1  0
 20 53  1  0
 21 54  1  0
 24 55  1  0
 26 56  1  0
 26 57  1  0
 28 58  1  0
 29 59  1  0
 30 60  1  0
 31 61  1  0
M  END
>  <UniqueID>  (25) 
25

>  <SMILES>  (25) 
CCN(CC)CCOC(=O)c1cc(Cl)ccc1Nc1ccc2c(c1)OCc1ccccc1C2=O

>  <Energy>  (25) 
92.07683354561713

>  <Genealogy>  (25) 
CCN(CC)CCOC(=O)c1cc(Cl)ccc1Nc1ccc2c(c1)OCc1ccccc1C2=O (3D coordinates assigned)
CCN(CC)CCOC(=O)c1cc(Cl)ccc1Nc1ccc2c(c1)OCc1ccccc1C2=O (nonaromatic ring conformer: 92.07683354561713 kcal/mol)

>  <smiles>  (25) 
CCN(CC)CCOC(=O)c1cc(Cl)ccc1Nc1ccc2c(c1)OCc1ccccc1C2=O

>  <score_type>  (25) 
oracle

>  <origin>  (25) 
adg

>  <m_score__min__energy>  (25) 
-10.279999999999999

>  <m_primary>  (25) 
energy

$$$$
25:0
     RDKit          3D

 25 26  0  0  0  0  0  0  0  0999 V2000
   -0.8780   27.0850  -25.8790 C   0  0  0  0  0  0  0  0  0  0  0  0
    0.1580   26.7200  -27.3290 S   0  0  0  0  0  0  0  0  0  0  0  0
   -0.9200   25.4170  -27.9120 C   0  0  0  0  0  0  0  0  0  0  0  0
   -0.8810   24.1890  -27.3310 N   0  0  0  0  0  0  0  0  0  0  0  0
   -1.6880   23.1870  -27.7640 C   0  0  0  0  0  0  0  0  0  0  0  0
   -1.6170   21.7210  -27.0430 S   0  0  0  0  0  0  0  0  0  0  0  0
   -2.5730   23.4130  -28.8210 C   0  0  0  0  0  0  0  0  0  0  0  0
   -2.6000   24.6800  -29.4070 C   0  0  0  0  0  0  0  0  0  0  0  0
   -3.4900   24.9420  -30.4940 N   0  0  0  0  0  0  0  0  0  0  0  0
   -5.2090   25.0150  -30.2960 S   0  0  0  0  0  0  0  0  0  0  0  0
   -5.7160   26.3230  -30.8350 O   0  0  0  0  0  0  0  0  0  0  0  0
   -5.5500   24.9190  -28.8370 O   0  0  0  0  0  0  0  0  0  0  0  0
   -5.9630   23.6800  -31.1490 C   0  0  0  0  0  0  0  0  0  0  0  0
   -7.3210   23.4060  -31.1750 C   0  0  0  0  0  0  0  0  0  0  0  0
   -7.6290   22.2460  -31.8950 C   0  0  0  0  0  0  0  0  0  0  0  0
   -6.5140   21.6090  -32.4290 C   0  0  0  0  0  0  0  0  0  0  0  0
   -5.1440   22.4880  -32.0020 S   0  0  0  0  0  0  0  0  0  0  0  0
   -1.7750   25.6550  -28.9390 N   0  0  0  0  0  0  0  0  0  0  0  0
   -0.3071   26.8839  -24.9605 H   0  0  0  0  0  0  0  0  0  0  0  0
   -1.1782   28.1430  -25.8998 H   0  0  0  0  0  0  0  0  0  0  0  0
   -1.7751   26.4488  -25.8998 H   0  0  0  0  0  0  0  0  0  0  0  0
   -3.2333   22.6113  -29.1832 H   0  0  0  0  0  0  0  0  0  0  0  0
   -8.0774   24.0341  -30.6817 H   0  0  0  0  0  0  0  0  0  0  0  0
   -8.6557   21.8735  -32.0261 H   0  0  0  0  0  0  0  0  0  0  0  0
   -6.5256   20.6870  -33.0288 H   0  0  0  0  0  0  0  0  0  0  0  0
  1  2  1  0
  2  3  1  0
  3  4  2  0
  4  5  1  0
  5  6  2  0
  5  7  1  0
  7  8  2  0
  8  9  1  0
  9 10  1  0
 10 11  2  0
 10 12  2  0
 10 13  1  0
 13 14  2  0
 14 15  1  0
 15 16  2  0
 16 17  1  0
  8 18  1  0
 18  3  1  0
 17 13  1  0
  1 19  1  0
  1 20  1  0
  1 21  1  0
  7 22  1  0
 14 23  1  0
 15 24  1  0
 16 25  1  0
M  CHG  2   9  -1  18  -1
M  END
>  <UniqueID>  (26) 
26

>  <SMILES>  (26) 
CSc1nc(=S)cc([N-]S(=O)(=O)c2cccs2)[n-]1

>  <Energy>  (26) 
49.091719575394215

>  <Genealogy>  (26) 
CSc1nc(=S)cc([N-]S(=O)(=O)c2cccs2)[n-]1 (protonated)
CSc1nc(=S)cc([N-]S(=O)(=O)c2cccs2)[n-]1 (3D coordinates assigned)
CSc1nc(=S)cc([N-]S(=O)(=O)c2cccs2)[n-]1 (optimized conformer: 49.091719575394215 kcal/mol)

>  <smiles>  (26) 
CSc1nc(=S)cc(NS(=O)(=O)c2cccs2)[nH]1

>  <score_type>  (26) 
oracle

>  <origin>  (26) 
adg

>  <m_score__min__energy>  (26) 
-10.050000000000001

>  <m_primary>  (26) 
energy

$$$$
26:0
     RDKit          3D

 50 51  0  0  0  0  0  0  0  0999 V2000
   -3.2120   21.2620  -31.4400 C   0  0  0  0  0  0  0  0  0  0  0  0
   -3.4320   22.2210  -30.2720 C   0  0  0  0  0  0  0  0  0  0  0  0
   -3.4810   23.6850  -30.7210 C   0  0  0  0  0  0  0  0  0  0  0  0
   -4.3190   24.4760  -29.7890 N   0  0  0  0  0  0  0  0  0  0  0  0
   -4.6200   23.7480  -28.5330 C   0  0  0  0  0  0  0  0  0  0  0  0
   -3.8900   24.3000  -27.2910 C   0  0  0  0  0  0  0  0  0  0  0  0
   -2.4270   24.5980  -27.6080 C   0  0  0  0  0  0  0  0  0  0  0  0
   -5.4890   25.0870  -30.4630 C   0  0  0  0  0  0  0  0  0  0  0  0
   -6.8190   24.3920  -30.0950 C   0  0  0  0  0  0  0  0  0  0  0  0
   -7.0510   23.1220  -30.8760 C   0  0  0  0  0  0  0  0  0  0  0  0
   -6.2660   22.8330  -32.0060 C   0  0  0  0  0  0  0  0  0  0  0  0
   -6.4570   21.6440  -32.7130 C   0  0  0  0  0  0  0  0  0  0  0  0
   -7.4300   20.7230  -32.3040 C   0  0  0  0  0  0  0  0  0  0  0  0
   -7.6100   19.5070  -33.0470 N   0  0  0  0  0  0  0  0  0  0  0  0
   -6.5620   18.5600  -33.3050 C   0  0  0  0  0  0  0  0  0  0  0  0
   -5.3090   18.8660  -33.3200 N   0  0  0  0  0  0  0  0  0  0  0  0
   -4.5130   17.7050  -33.6920 C   0  0  0  0  0  0  0  0  0  0  0  0
   -5.5420   16.5850  -33.9290 C   0  0  0  0  0  0  0  0  0  0  0  0
   -6.8210   17.2220  -33.6730 N   0  0  0  0  0  0  0  0  0  0  0  0
   -8.2540   21.0370  -31.2110 C   0  0  0  0  0  0  0  0  0  0  0  0
   -8.0690   22.2280  -30.5050 C   0  0  0  0  0  0  0  0  0  0  0  0
   -2.9818   20.2587  -31.0523 H   0  0  0  0  0  0  0  0  0  0  0  0
   -4.1233   21.2175  -32.0545 H   0  0  0  0  0  0  0  0  0  0  0  0
   -2.3724   21.6191  -32.0545 H   0  0  0  0  0  0  0  0  0  0  0  0
   -4.3844   21.9693  -29.7826 H   0  0  0  0  0  0  0  0  0  0  0  0
   -2.5829   22.1097  -29.5816 H   0  0  0  0  0  0  0  0  0  0  0  0
   -2.4610   24.0966  -30.7316 H   0  0  0  0  0  0  0  0  0  0  0  0
   -3.9165   23.7377  -31.7297 H   0  0  0  0  0  0  0  0  0  0  0  0
   -5.7032   23.8074  -28.3511 H   0  0  0  0  0  0  0  0  0  0  0  0
   -4.2672   22.7157  -28.6739 H   0  0  0  0  0  0  0  0  0  0  0  0
   -4.3841   25.2271  -26.9650 H   0  0  0  0  0  0  0  0  0  0  0  0
   -3.9302   23.5430  -26.4939 H   0  0  0  0  0  0  0  0  0  0  0  0
   -1.8645   24.7126  -26.6697 H   0  0  0  0  0  0  0  0  0  0  0  0
   -2.0018   23.7680  -28.1914 H   0  0  0  0  0  0  0  0  0  0  0  0
   -2.3603   25.5282  -28.1914 H   0  0  0  0  0  0  0  0  0  0  0  0
   -5.5517   26.1451  -30.1689 H   0  0  0  0  0  0  0  0  0  0  0  0
   -5.3441   24.9742  -31.5476 H   0  0  0  0  0  0  0  0  0  0  0  0
   -6.8026   24.1471  -29.0227 H   0  0  0  0  0  0  0  0  0  0  0  0
   -7.6351   25.0867  -30.3426 H   0  0  0  0  0  0  0  0  0  0  0  0
   -5.4971   23.5475  -32.3350 H   0  0  0  0  0  0  0  0  0  0  0  0
   -5.8391   21.4291  -33.5973 H   0  0  0  0  0  0  0  0  0  0  0  0
   -8.5510   19.3080  -33.4540 H   0  0  0  0  0  0  0  0  0  0  0  0
   -4.9170   19.8170  -33.1420 H   0  0  0  0  0  0  0  0  0  0  0  0
   -3.9398   17.9055  -34.6092 H   0  0  0  0  0  0  0  0  0  0  0  0
   -3.7788   17.4384  -32.9174 H   0  0  0  0  0  0  0  0  0  0  0  0
   -5.4885   16.2179  -34.9645 H   0  0  0  0  0  0  0  0  0  0  0  0
   -5.3695   15.7092  -33.2862 H   0  0  0  0  0  0  0  0  0  0  0  0
   -7.7610   16.7720  -33.7450 H   0  0  0  0  0  0  0  0  0  0  0  0
   -9.0501   20.3406  -30.9089 H   0  0  0  0  0  0  0  0  0  0  0  0
   -8.7239   22.4671  -29.6541 H   0  0  0  0  0  0  0  0  0  0  0  0
  1  2  1  0
  2  3  1  0
  3  4  1  0
  4  5  1  0
  5  6  1  0
  6  7  1  0
  4  8  1  0
  8  9  1  0
  9 10  1  0
 10 11  2  0
 11 12  1  0
 12 13  2  0
 13 14  1  0
 14 15  1  0
 15 16  2  0
 16 17  1  0
 17 18  1  0
 18 19  1  0
 13 20  1  0
 20 21  2  0
 21 10  1  0
 19 15  1  0
  1 22  1  0
  1 23  1  0
  1 24  1  0
  2 25  1  0
  2 26  1  0
  3 27  1  0
  3 28  1  0
  5 29  1  0
  5 30  1  0
  6 31  1  0
  6 32  1  0
  7 33  1  0
  7 34  1  0
  7 35  1  0
  8 36  1  0
  8 37  1  0
  9 38  1  0
  9 39  1  0
 11 40  1  0
 12 41  1  0
 14 42  1  0
 16 43  1  0
 17 44  1  0
 17 45  1  0
 18 46  1  0
 18 47  1  0
 19 48  1  0
 20 49  1  0
 21 50  1  0
M  CHG  1  16   1
M  END
>  <UniqueID>  (27) 
27

>  <SMILES>  (27) 
CCCN(CCC)CCc1ccc(NC2=[NH+]CCN2)cc1

>  <Energy>  (27) 
60.447808952067795

>  <Genealogy>  (27) 
CCCN(CCC)CCc1ccc(NC2=[NH+]CCN2)cc1 (protonated)
CCCN(CCC)CCc1ccc(NC2=[NH+]CCN2)cc1 (3D coordinates assigned)
CCCN(CCC)CCc1ccc(NC2=[NH+]CCN2)cc1 (nonaromatic ring conformer: 60.447808952067795 kcal/mol)

>  <smiles>  (27) 
CCCN(CCC)CCc1ccc(NC2=NCCN2)cc1

>  <score_type>  (27) 
oracle

>  <origin>  (27) 
adg

>  <m_score__min__energy>  (27) 
-6.6699999999999999

>  <m_primary>  (27) 
energy

$$$$
27:0
     RDKit          3D

 53 56  0  0  1  0  0  0  0  0999 V2000
   -9.0460   19.9510  -31.5790 C   0  0  0  0  0  0  0  0  0  0  0  0
   -8.5300   21.0450  -32.3460 O   0  0  0  0  0  0  0  0  0  0  0  0
   -7.7980   22.0610  -31.7470 C   0  0  0  0  0  0  0  0  0  0  0  0
   -7.6280   22.1310  -30.3790 C   0  0  0  0  0  0  0  0  0  0  0  0
   -6.8880   23.1680  -29.8460 C   0  0  0  0  0  0  0  0  0  0  0  0
   -6.3260   24.1210  -30.6700 C   0  0  0  0  0  0  0  0  0  0  0  0
   -5.5330   25.2200  -30.0120 C   0  0  0  0  0  0  0  0  0  0  0  0
   -4.1640   25.0880  -30.4800 N   0  0  0  0  0  0  0  0  0  0  0  0
   -3.5950   23.9140  -30.4730 C   0  0  0  0  0  0  0  0  0  0  0  0
   -3.6690   23.1130  -31.5390 N   0  0  0  0  0  0  0  0  0  0  0  0
   -3.0570   21.8960  -31.4850 C   0  0  0  0  0  0  0  0  0  0  0  0
   -3.1850   21.0840  -32.6340 N   0  0  0  0  0  0  0  0  0  0  0  0
   -2.0060   20.2930  -33.0280 C   0  0  0  0  0  0  0  0  0  0  0  0
   -4.3570   20.9120  -33.4380 C   0  0  0  0  0  0  0  0  0  0  0  0
   -5.1730   19.7570  -33.0360 C   0  0  0  0  0  0  0  0  0  0  0  0
   -5.4540   19.3520  -31.7650 C   0  0  0  0  0  0  0  0  0  0  0  0
   -6.2310   18.2340  -31.5310 C   0  0  0  0  0  0  0  0  0  0  0  0
   -6.7620   17.4670  -32.5510 C   0  0  0  0  0  0  0  0  0  0  0  0
   -6.4800   17.8750  -33.8410 C   0  0  0  0  0  0  0  0  0  0  0  0
   -5.7110   18.9820  -34.0690 C   0  0  0  0  0  0  0  0  0  0  0  0
   -2.4170   21.5700  -30.3690 N   0  0  0  0  0  0  0  0  0  0  0  0
   -2.3220   22.3530  -29.2730 C   0  0  0  0  0  0  0  0  0  0  0  0
   -1.6550   21.9770  -28.1520 C   0  0  0  0  0  0  0  0  0  0  0  0
   -1.6080   22.8320  -27.0850 C   0  0  0  0  0  0  0  0  0  0  0  0
   -2.2070   24.0610  -27.0940 C   0  0  0  0  0  0  0  0  0  0  0  0
   -2.1630   24.9180  -26.0370 F   0  0  0  0  0  0  0  0  0  0  0  0
   -2.8860   24.4540  -28.2270 C   0  0  0  0  0  0  0  0  0  0  0  0
   -2.9300   23.5810  -29.3060 C   0  0  0  0  0  0  0  0  0  0  0  0
   -6.4820   24.0730  -32.0480 C   0  0  0  0  0  0  0  0  0  0  0  0
   -7.2350   23.0160  -32.5680 C   0  0  0  0  0  0  0  0  0  0  0  0
   -8.9412   20.1732  -30.5068 H   0  0  0  0  0  0  0  0  0  0  0  0
  -10.1089   19.8029  -31.8206 H   0  0  0  0  0  0  0  0  0  0  0  0
   -8.4842   19.0366  -31.8206 H   0  0  0  0  0  0  0  0  0  0  0  0
   -8.0760   21.3709  -29.7221 H   0  0  0  0  0  0  0  0  0  0  0  0
   -6.7458   23.2345  -28.7573 H   0  0  0  0  0  0  0  0  0  0  0  0
   -5.9378   26.2021  -30.2976 H   0  0  0  0  0  0  0  0  0  0  0  0
   -5.5846   25.1420  -28.9160 H   0  0  0  0  0  0  0  0  0  0  0  0
   -1.4823   19.9416  -32.1267 H   0  0  0  0  0  0  0  0  0  0  0  0
   -2.3281   19.4276  -33.6257 H   0  0  0  0  0  0  0  0  0  0  0  0
   -1.3274   20.9192  -33.6257 H   0  0  0  0  0  0  0  0  0  0  0  0
   -4.9727   21.8199  -33.3566 H   0  0  0  0  0  0  0  0  0  0  0  0
   -4.0210   20.7306  -34.4696 H   0  0  0  0  0  0  0  0  0  0  0  0
   -5.0563   19.9237  -30.9135 H   0  0  0  0  0  0  0  0  0  0  0  0
   -6.4355   17.9422  -30.4903 H   0  0  0  0  0  0  0  0  0  0  0  0
   -7.3770   16.5782  -32.3466 H   0  0  0  0  0  0  0  0  0  0  0  0
   -6.8781   17.3035  -34.6924 H   0  0  0  0  0  0  0  0  0  0  0  0
   -5.5065   19.2759  -35.1091 H   0  0  0  0  0  0  0  0  0  0  0  0
   -1.9620   20.6480  -30.3100 H   0  0  0  0  0  0  0  0  0  0  0  0
   -1.1583   20.9968  -28.1022 H   0  0  0  0  0  0  0  0  0  0  0  0
   -1.0652   22.5173  -26.1815 H   0  0  0  0  0  0  0  0  0  0  0  0
   -3.3810   25.4352  -28.2754 H   0  0  0  0  0  0  0  0  0  0  0  0
   -6.0325   24.8339  -32.7031 H   0  0  0  0  0  0  0  0  0  0  0  0
   -7.3818   22.9443  -33.6558 H   0  0  0  0  0  0  0  0  0  0  0  0
  1  2  1  0
  2  3  1  0
  3  4  2  0
  4  5  1  0
  5  6  2  0
  6  7  1  0
  7  8  1  0
  8  9  2  0
  9 10  1  0
 10 11  2  0
 11 12  1  0
 12 13  1  0
 12 14  1  0
 14 15  1  0
 15 16  2  0
 16 17  1  0
 17 18  2  0
 18 19  1  0
 19 20  2  0
 11 21  1  0
 21 22  1  0
 22 23  2  0
 23 24  1  0
 24 25  2  0
 25 26  1  0
 25 27  1  0
 27 28  2  0
  6 29  1  0
 29 30  2  0
 30  3  1  0
 28  9  1  0
 20 15  1  0
 28 22  1  0
  1 31  1  0
  1 32  1  0
  1 33  1  0
  4 34  1  0
  5 35  1  0
  7 36  1  0
  7 37  1  0
 13 38  1  0
 13 39  1  0
 13 40  1  0
 14 41  1  0
 14 42  1  0
 16 43  1  0
 17 44  1  0
 18 45  1  0
 19 46  1  0
 20 47  1  0
 21 48  1  0
 23 49  1  0
 24 50  1  0
 27 51  1  0
 29 52  1  0
 30 53  1  0
M  END
>  <smiles>  (28) 
COc1ccc(CN=c2nc(N(C)Cc3ccccc3)[nH]c3ccc(F)cc23)cc1

>  <score_type>  (28) 
oracle

>  <origin>  (28) 
adg

>  <m_score__min__energy>  (28) 
-8.8200000000000003

>  <m_primary>  (28) 
energy

$$$$
28:0
     RDKit          3D

 38 39  0  0  0  0  0  0  0  0999 V2000
   -8.6620   18.6450  -31.9380 C   0  0  0  0  0  0  0  0  0  0  0  0
   -7.6110   17.8490  -32.7160 C   0  0  0  0  0  0  0  0  0  0  0  0
   -6.6810   18.7200  -33.4750 N   0  0  2  0  0  0  0  0  0  0  0  0
   -5.9350   17.8990  -34.4490 C   0  0  0  0  0  0  0  0  0  0  0  0
   -5.7330   19.4510  -32.5820 C   0  0  0  0  0  0  0  0  0  0  0  0
   -5.4820   20.8890  -33.0660 C   0  0  0  0  0  0  0  0  0  0  0  0
   -6.3070   21.8640  -32.2790 C   0  0  0  0  0  0  0  0  0  0  0  0
   -7.6950   21.9490  -32.2640 C   0  0  0  0  0  0  0  0  0  0  0  0
   -8.0960   22.9970  -31.5090 N   0  0  0  0  0  0  0  0  0  0  0  0
   -6.9710   23.5820  -31.0600 C   0  0  0  0  0  0  0  0  0  0  0  0
   -6.8730   24.7160  -30.2570 C   0  0  0  0  0  0  0  0  0  0  0  0
   -5.5870   25.1750  -29.9180 C   0  0  0  0  0  0  0  0  0  0  0  0
   -4.4280   24.4970  -30.3880 C   0  0  0  0  0  0  0  0  0  0  0  0
   -3.1310   24.9270  -30.0730 O   0  0  0  0  0  0  0  0  0  0  0  0
   -2.2260   24.2070  -29.2420 C   0  0  0  0  0  0  0  0  0  0  0  0
   -4.5710   23.3550  -31.2000 C   0  0  0  0  0  0  0  0  0  0  0  0
   -5.8590   22.9240  -31.5130 C   0  0  0  0  0  0  0  0  0  0  0  0
   -8.4936   18.5174  -30.8585 H   0  0  0  0  0  0  0  0  0  0  0  0
   -8.5816   19.7107  -32.1982 H   0  0  0  0  0  0  0  0  0  0  0  0
   -9.6661   18.2788  -32.1982 H   0  0  0  0  0  0  0  0  0  0  0  0
   -7.0275   17.2466  -32.0042 H   0  0  0  0  0  0  0  0  0  0  0  0
   -8.1428   17.2171  -33.4426 H   0  0  0  0  0  0  0  0  0  0  0  0
   -7.2510   19.3950  -34.0390 H   0  0  0  0  0  0  0  0  0  0  0  0
   -5.2895   17.1887  -33.9116 H   0  0  0  0  0  0  0  0  0  0  0  0
   -6.6445   17.3443  -35.0806 H   0  0  0  0  0  0  0  0  0  0  0  0
   -5.3151   18.5523  -35.0806 H   0  0  0  0  0  0  0  0  0  0  0  0
   -6.1559   19.4861  -31.5671 H   0  0  0  0  0  0  0  0  0  0  0  0
   -4.7724   18.9151  -32.5932 H   0  0  0  0  0  0  0  0  0  0  0  0
   -4.4167   21.1321  -32.9391 H   0  0  0  0  0  0  0  0  0  0  0  0
   -5.7656   20.9602  -34.1264 H   0  0  0  0  0  0  0  0  0  0  0  0
   -8.3715   21.2607  -32.7919 H   0  0  0  0  0  0  0  0  0  0  0  0
   -9.0780   23.2990  -31.3280 H   0  0  0  0  0  0  0  0  0  0  0  0
   -7.7734   25.2366  -29.8989 H   0  0  0  0  0  0  0  0  0  0  0  0
   -5.4766   26.0667  -29.2834 H   0  0  0  0  0  0  0  0  0  0  0  0
   -2.4666   24.3984  -28.1858 H   0  0  0  0  0  0  0  0  0  0  0  0
   -2.3154   23.1304  -29.4491 H   0  0  0  0  0  0  0  0  0  0  0  0
   -1.1970   24.5361  -29.4491 H   0  0  0  0  0  0  0  0  0  0  0  0
   -3.6888   22.8171  -31.5774 H   0  0  0  0  0  0  0  0  0  0  0  0
  1  2  1  0
  2  3  1  0
  3  4  1  0
  3  5  1  0
  5  6  1  0
  6  7  1  0
  7  8  2  0
  8  9  1  0
  9 10  1  0
 10 11  2  0
 11 12  1  0
 12 13  2  0
 13 14  1  0
 14 15  1  0
 13 16  1  0
 16 17  2  0
 17  7  1  0
 17 10  1  0
  1 18  1  0
  1 19  1  0
  1 20  1  0
  2 21  1  0
  2 22  1  0
  3 23  1  6
  4 24  1  0
  4 25  1  0
  4 26  1  0
  5 27  1  0
  5 28  1  0
  6 29  1  0
  6 30  1  0
  8 31  1  0
  9 32  1  0
 11 33  1  0
 12 34  1  0
 15 35  1  0
 15 36  1  0
 15 37  1  0
 16 38  1  0
M  CHG  1   3   1
M  END
>  <UniqueID>  (29) 
28

>  <SMILES>  (29) 
CC[N@H+](C)CCc1c[nH]c2ccc(OC)cc12

>  <Energy>  (29) 
69.46708253964587

>  <Genealogy>  (29) 
CC[NH+](C)CCc1c[nH]c2ccc(OC)cc12 (protonated)
CC[N@H+](C)CCc1c[nH]c2ccc(OC)cc12 (chirality)
CC[N@H+](C)CCc1c[nH]c2ccc(OC)cc12 (3D coordinates assigned)
CC[N@H+](C)CCc1c[nH]c2ccc(OC)cc12 (optimized conformer: 69.46708253964587 kcal/mol)

>  <smiles>  (29) 
CCN(C)CCc1c[nH]c2ccc(OC)cc12

>  <score_type>  (29) 
oracle

>  <origin>  (29) 
adg

>  <m_score__min__energy>  (29) 
-6.3099999999999996

>  <m_primary>  (29) 
energy

$$$$
29:0
     RDKit          3D

 40 41  0  0  0  0  0  0  0  0999 V2000
   -5.7430   25.6680  -30.1910 C   0  0  0  0  0  0  0  0  0  0  0  0
   -4.5970   25.1540  -30.8320 O   0  0  0  0  0  0  0  0  0  0  0  0
   -4.4410   23.7760  -30.5410 C   0  0  0  0  0  0  0  0  0  0  0  0
   -2.9650   23.4220  -30.3200 C   0  0  0  0  0  0  0  0  0  0  0  0
   -2.6520   22.9920  -28.8770 C   0  0  0  0  0  0  0  0  0  0  0  0
   -2.0250   24.0850  -28.1060 N   0  0  0  0  0  0  0  0  0  0  0  0
   -2.7010   24.6950  -27.0770 C   0  0  0  0  0  0  0  0  0  0  0  0
   -3.8760   24.3490  -26.7780 O   0  0  0  0  0  0  0  0  0  0  0  0
   -2.0950   25.7140  -26.3410 C   0  0  0  0  0  0  0  0  0  0  0  0
   -0.7890   26.0990  -26.6590 C   0  0  0  0  0  0  0  0  0  0  0  0
   -0.0740   27.2160  -25.9240 C   0  0  0  0  0  0  0  0  0  0  0  0
   -0.8600   27.6640  -24.6720 C   0  0  0  0  0  0  0  0  0  0  0  0
   -0.5630   26.8080  -23.4250 C   0  0  0  0  0  0  0  0  0  0  0  0
    0.8630   26.4420  -23.2540 N   0  0  0  0  0  0  0  0  0  0  0  0
    1.7810   27.1490  -24.1590 C   0  0  0  0  0  0  0  0  0  0  0  0
    1.4110   26.8840  -25.6230 C   0  0  0  0  0  0  0  0  0  0  0  0
   -0.1550   25.4790  -27.6870 N   0  0  0  0  0  0  0  0  0  0  0  0
   -0.7470   24.4890  -28.4030 C   0  0  0  0  0  0  0  0  0  0  0  0
   -0.1030   23.9510  -29.3450 O   0  0  0  0  0  0  0  0  0  0  0  0
   -5.6108   25.6087  -29.1006 H   0  0  0  0  0  0  0  0  0  0  0  0
   -5.8885   26.7176  -30.4862 H   0  0  0  0  0  0  0  0  0  0  0  0
   -6.6236   25.0786  -30.4862 H   0  0  0  0  0  0  0  0  0  0  0  0
   -5.0086   23.5346  -29.6302 H   0  0  0  0  0  0  0  0  0  0  0  0
   -4.8158   23.1938  -31.3957 H   0  0  0  0  0  0  0  0  0  0  0  0
   -2.6991   22.5959  -30.9959 H   0  0  0  0  0  0  0  0  0  0  0  0
   -2.3782   24.3298  -30.5240 H   0  0  0  0  0  0  0  0  0  0  0  0
   -3.5889   22.6978  -28.3813 H   0  0  0  0  0  0  0  0  0  0  0  0
   -1.9455   22.1497  -28.9153 H   0  0  0  0  0  0  0  0  0  0  0  0
   -2.6376   26.2079  -25.5214 H   0  0  0  0  0  0  0  0  0  0  0  0
   -0.0439   28.0802  -26.6040 H   0  0  0  0  0  0  0  0  0  0  0  0
   -0.5956   28.7083  -24.4493 H   0  0  0  0  0  0  0  0  0  0  0  0
   -1.9296   27.5459  -24.9001 H   0  0  0  0  0  0  0  0  0  0  0  0
   -0.8811   27.3736  -22.5368 H   0  0  0  0  0  0  0  0  0  0  0  0
   -1.1137   25.8648  -23.5556 H   0  0  0  0  0  0  0  0  0  0  0  0
    1.1530   26.6480  -22.2690 H   0  0  0  0  0  0  0  0  0  0  0  0
    0.9790   25.4110  -23.3980 H   0  0  0  0  0  0  0  0  0  0  0  0
    1.7215   28.2295  -23.9616 H   0  0  0  0  0  0  0  0  0  0  0  0
    2.8033   26.7838  -23.9813 H   0  0  0  0  0  0  0  0  0  0  0  0
    2.0501   27.5054  -26.2675 H   0  0  0  0  0  0  0  0  0  0  0  0
    1.5630   25.8125  -25.8200 H   0  0  0  0  0  0  0  0  0  0  0  0
  1  2  1  0
  2  3  1  0
  3  4  1  0
  4  5  1  0
  5  6  1  0
  6  7  1  0
  7  8  2  0
  7  9  1  0
  9 10  2  0
 10 11  1  0
 11 12  1  0
 12 13  1  0
 13 14  1  0
 14 15  1  0
 15 16  1  0
 10 17  1  0
 17 18  1  0
 18 19  2  0
 18  6  1  0
 16 11  1  0
  1 20  1  0
  1 21  1  0
  1 22  1  0
  3 23  1  0
  3 24  1  0
  4 25  1  0
  4 26  1  0
  5 27  1  0
  5 28  1  0
  9 29  1  0
 11 30  1  0
 12 31  1  0
 12 32  1  0
 13 33  1  0
 13 34  1  0
 14 35  1  0
 14 36  1  0
 15 37  1  0
 15 38  1  0
 16 39  1  0
 16 40  1  0
M  CHG  2  14   1  17  -1
M  END
>  <UniqueID>  (30) 
29

>  <SMILES>  (30) 
COCCCn1c(=O)cc(C2CC[NH2+]CC2)[n-]c1=O

>  <Energy>  (30) 
49.694301320643234

>  <Genealogy>  (30) 
COCCCn1c(=O)cc(C2CC[NH2+]CC2)[n-]c1=O (protonated)
COCCCn1c(=O)cc(C2CC[NH2+]CC2)[n-]c1=O (3D coordinates assigned)
COCCCn1c(=O)cc(C2CC[NH2+]CC2)[n-]c1=O (nonaromatic ring conformer: 49.694301320643234 kcal/mol)

>  <smiles>  (30) 
COCCCn1c(=O)cc(C2CCNCC2)[nH]c1=O

>  <score_type>  (30) 
oracle

>  <origin>  (30) 
adg

>  <m_score__min__energy>  (30) 
-8.2400000000000002

>  <m_primary>  (30) 
energy

$$$$
30:0
     RDKit          3D

 47 50  0  0  0  0  0  0  0  0999 V2000
   -9.5040   21.9810  -31.9510 C   0  0  0  0  0  0  0  0  0  0  0  0
   -8.5200   20.8790  -32.1490 C   0  0  0  0  0  0  0  0  0  0  0  0
   -8.7930   19.5290  -32.0700 C   0  0  0  0  0  0  0  0  0  0  0  0
   -7.5980   18.9220  -32.4010 C   0  0  0  0  0  0  0  0  0  0  0  0
   -7.3720   17.4420  -32.4260 C   0  0  0  0  0  0  0  0  0  0  0  0
   -6.6860   19.8810  -32.6920 N   0  0  0  0  0  0  0  0  0  0  0  0
   -5.3240   19.7130  -33.1270 C   0  0  0  0  0  0  0  0  0  0  0  0
   -4.9810   18.6280  -33.9350 C   0  0  0  0  0  0  0  0  0  0  0  0
   -3.6560   18.4520  -34.3120 C   0  0  0  0  0  0  0  0  0  0  0  0
   -2.6910   19.3470  -33.8570 C   0  0  0  0  0  0  0  0  0  0  0  0
   -1.4880   19.1880  -34.2020 O   0  0  0  0  0  0  0  0  0  0  0  0
   -3.0580   20.3860  -33.0400 N   0  0  0  0  0  0  0  0  0  0  0  0
   -2.0480   21.3190  -32.5100 C   0  0  0  0  0  0  0  0  0  0  0  0
   -1.6720   20.9900  -31.0540 C   0  0  0  0  0  0  0  0  0  0  0  0
   -2.7820   21.2870  -30.0300 C   0  0  0  0  0  0  0  0  0  0  0  0
   -3.2060   22.6950  -30.0380 N   0  0  0  0  0  0  0  0  0  0  0  0
   -2.4500   23.8070  -29.8370 C   0  0  0  0  0  0  0  0  0  0  0  0
   -1.2050   23.7840  -29.6480 O   0  0  0  0  0  0  0  0  0  0  0  0
   -3.1550   24.9240  -29.8410 O   0  0  0  0  0  0  0  0  0  0  0  0
   -4.3990   24.5550  -30.0210 C   0  0  0  0  0  0  0  0  0  0  0  0
   -5.5370   25.3530  -30.0970 C   0  0  0  0  0  0  0  0  0  0  0  0
   -6.7760   24.7090  -30.2730 C   0  0  0  0  0  0  0  0  0  0  0  0
   -6.8440   23.3000  -30.3590 C   0  0  0  0  0  0  0  0  0  0  0  0
   -5.6740   22.5210  -30.2850 C   0  0  0  0  0  0  0  0  0  0  0  0
   -4.4570   23.1910  -30.1240 C   0  0  0  0  0  0  0  0  0  0  0  0
   -4.3430   20.5570  -32.6980 N   0  0  0  0  0  0  0  0  0  0  0  0
   -7.2440   21.0730  -32.5360 N   0  0  0  0  0  0  0  0  0  0  0  0
   -9.6543   22.1493  -30.8744 H   0  0  0  0  0  0  0  0  0  0  0  0
   -9.1220   22.9017  -32.4162 H   0  0  0  0  0  0  0  0  0  0  0  0
  -10.4619   21.7053  -32.4162 H   0  0  0  0  0  0  0  0  0  0  0  0
   -9.7451   19.0465  -31.8041 H   0  0  0  0  0  0  0  0  0  0  0  0
   -7.3140   17.0625  -31.3952 H   0  0  0  0  0  0  0  0  0  0  0  0
   -8.2058   16.9526  -32.9506 H   0  0  0  0  0  0  0  0  0  0  0  0
   -6.4301   17.2237  -32.9506 H   0  0  0  0  0  0  0  0  0  0  0  0
   -5.7526   17.9192  -34.2700 H   0  0  0  0  0  0  0  0  0  0  0  0
   -3.3713   17.6132  -34.9642 H   0  0  0  0  0  0  0  0  0  0  0  0
   -1.1440   21.2567  -33.1337 H   0  0  0  0  0  0  0  0  0  0  0  0
   -2.4750   22.3325  -32.5316 H   0  0  0  0  0  0  0  0  0  0  0  0
   -1.4267   19.9193  -30.9952 H   0  0  0  0  0  0  0  0  0  0  0  0
   -0.8223   21.6385  -30.7941 H   0  0  0  0  0  0  0  0  0  0  0  0
   -3.6528   20.6569  -30.2636 H   0  0  0  0  0  0  0  0  0  0  0  0
   -2.3761   21.0701  -29.0309 H   0  0  0  0  0  0  0  0  0  0  0  0
   -5.4703   26.4484  -30.0221 H   0  0  0  0  0  0  0  0  0  0  0  0
   -7.6971   25.3060  -30.3441 H   0  0  0  0  0  0  0  0  0  0  0  0
   -7.8197   22.8079  -30.4849 H   0  0  0  0  0  0  0  0  0  0  0  0
   -5.7154   21.4238  -30.3515 H   0  0  0  0  0  0  0  0  0  0  0  0
   -4.6000   21.3380  -32.0580 H   0  0  0  0  0  0  0  0  0  0  0  0
  1  2  1  0
  2  3  1  0
  3  4  2  0
  4  5  1  0
  4  6  1  0
  6  7  1  0
  7  8  1  0
  8  9  2  0
  9 10  1  0
 10 11  2  0
 10 12  1  0
 12 13  1  0
 13 14  1  0
 14 15  1  0
 15 16  1  0
 16 17  1  0
 17 18  2  0
 17 19  1  0
 19 20  1  0
 20 21  2  0
 21 22  1  0
 22 23  2  0
 23 24  1  0
 24 25  2  0
 12 26  1  0
  6 27  1  0
 27  2  2  0
 26  7  2  0
 25 16  1  0
 25 20  1  0
  1 28  1  0
  1 29  1  0
  1 30  1  0
  3 31  1  0
  5 32  1  0
  5 33  1  0
  5 34  1  0
  8 35  1  0
  9 36  1  0
 13 37  1  0
 13 38  1  0
 14 39  1  0
 14 40  1  0
 15 41  1  0
 15 42  1  0
 21 43  1  0
 22 44  1  0
 23 45  1  0
 24 46  1  0
 26 47  1  0
M  CHG  1  26   1
M  END
>  <UniqueID>  (31) 
30

>  <SMILES>  (31) 
Cc1cc(C)n(-c2ccc(=O)n(CCCn3c(=O)oc4ccccc43)[nH+]2)n1

>  <Energy>  (31) 
119.07815644003435

>  <Genealogy>  (31) 
Cc1cc(C)n(-c2ccc(=O)n(CCCn3c(=O)oc4ccccc43)[nH+]2)n1 (protonated)
Cc1cc(C)n(-c2ccc(=O)n(CCCn3c(=O)oc4ccccc43)[nH+]2)n1 (3D coordinates assigned)
Cc1cc(C)n(-c2ccc(=O)n(CCCn3c(=O)oc4ccccc43)[nH+]2)n1 (optimized conformer: 119.07815644003435 kcal/mol)

>  <smiles>  (31) 
Cc1cc(C)n(-c2ccc(=O)n(CCCn3c(=O)oc4ccccc43)n2)n1

>  <score_type>  (31) 
oracle

>  <origin>  (31) 
adg

>  <m_score__min__energy>  (31) 
-9

>  <m_primary>  (31) 
energy

$$$$
31:0
     RDKit          3D

 38 40  0  0  0  0  0  0  0  0999 V2000
   -1.9126   20.8247  -31.6484 H   0  0  0  0  0  0  0  0  0  0  0  0
   -2.7910   21.4720  -31.7880 C   0  0  0  0  0  0  0  0  0  0  0  0
   -2.9190   22.6140  -31.0650 N   0  0  0  0  0  0  0  0  0  0  0  0
   -3.9880   23.4390  -31.2100 C   0  0  0  0  0  0  0  0  0  0  0  0
   -4.0480   24.5190  -30.4850 N   0  0  0  0  0  0  0  0  0  0  0  0
   -5.0310   24.8040  -29.4420 C   0  0  0  0  0  0  0  0  0  0  0  0
   -4.6467   25.5978  -28.7845 H   0  0  0  0  0  0  0  0  0  0  0  0
   -5.2124   23.8923  -28.8538 H   0  0  0  0  0  0  0  0  0  0  0  0
   -6.3350   25.2610  -30.0770 C   0  0  0  0  0  0  0  0  0  0  0  0
   -7.0581   25.5144  -29.2878 H   0  0  0  0  0  0  0  0  0  0  0  0
   -6.1480   26.1472  -30.7013 H   0  0  0  0  0  0  0  0  0  0  0  0
   -6.7421   24.4520  -30.7013 H   0  0  0  0  0  0  0  0  0  0  0  0
   -4.9860   23.0910  -32.1390 C   0  0  0  0  0  0  0  0  0  0  0  0
   -5.8629   23.7407  -32.2768 H   0  0  0  0  0  0  0  0  0  0  0  0
   -4.8620   21.9480  -32.8660 N   0  0  0  0  0  0  0  0  0  0  0  0
   -5.6170   21.7130  -33.5490 H   0  0  0  0  0  0  0  0  0  0  0  0
   -3.7850   21.1220  -32.7140 C   0  0  0  0  0  0  0  0  0  0  0  0
   -3.6690   19.8820  -33.5170 C   0  0  0  0  0  0  0  0  0  0  0  0
   -2.5300   19.4000  -33.7620 O   0  0  0  0  0  0  0  0  0  0  0  0
   -4.8450   19.2620  -34.0570 N   0  0  0  0  0  0  0  0  0  0  0  0
   -6.0780   19.0190  -33.3640 C   0  0  0  0  0  0  0  0  0  0  0  0
   -6.3960   17.7050  -33.0070 C   0  0  0  0  0  0  0  0  0  0  0  0
   -5.6984   16.8890  -33.2467 H   0  0  0  0  0  0  0  0  0  0  0  0
   -7.5940   17.4230  -32.3480 C   0  0  0  0  0  0  0  0  0  0  0  0
   -7.8300   16.3883  -32.0587 H   0  0  0  0  0  0  0  0  0  0  0  0
   -8.4930   18.4490  -32.0550 C   0  0  0  0  0  0  0  0  0  0  0  0
   -9.4308   18.2192  -31.5279 H   0  0  0  0  0  0  0  0  0  0  0  0
   -8.2080   19.7800  -32.4300 C   0  0  0  0  0  0  0  0  0  0  0  0
   -9.1430   20.9490  -32.1680 C   0  0  0  0  0  0  0  0  0  0  0  0
   -9.9193   20.5602  -32.8435 H   0  0  0  0  0  0  0  0  0  0  0  0
   -8.5070   22.3110  -31.9290 C   0  0  0  0  0  0  0  0  0  0  0  0
   -7.4144   22.4251  -31.9848 H   0  0  0  0  0  0  0  0  0  0  0  0
   -8.6340   23.3150  -32.3601 H   0  0  0  0  0  0  0  0  0  0  0  0
   -9.1350   21.5500  -30.7680 C   0  0  0  0  0  0  0  0  0  0  0  0
   -8.4959   21.1143  -29.9859 H   0  0  0  0  0  0  0  0  0  0  0  0
   -9.9032   21.7763  -30.0139 H   0  0  0  0  0  0  0  0  0  0  0  0
   -6.9970   20.0480  -33.0920 C   0  0  0  0  0  0  0  0  0  0  0  0
   -6.7650   21.0777  -33.4017 H   0  0  0  0  0  0  0  0  0  0  0  0
  1  2  1  0
  2  3  1  0
  3  4  1  0
  4  5  2  0
  5  6  1  0
  6  7  1  0
  6  8  1  0
  6  9  1  0
  9 10  1  0
  9 11  1  0
  9 12  1  0
  4 13  1  0
 13 14  1  0
 13 15  2  0
 15 16  1  0
 15 17  1  0
 17 18  1  0
 18 19  2  0
 18 20  1  0
 20 21  1  0
 21 22  2  0
 22 23  1  0
 22 24  1  0
 24 25  1  0
 24 26  2  0
 26 27  1  0
 26 28  1  0
 28 29  1  0
 29 30  1  0
 29 31  1  0
 31 32  1  0
 31 33  1  0
 31 34  1  0
 34 35  1  0
 34 36  1  0
 28 37  2  0
 37 38  1  0
 17  2  2  0
 37 21  1  0
 34 29  1  0
M  CHG  3   3  -1  15   1  20  -1
M  END
>  <UniqueID>  (32) 
31

>  <SMILES>  (32) 
CC/N=c1\c[nH+]c(C(=O)[N-]c2cccc(C3CC3)c2)c[n-]1

>  <Energy>  (32) 
310.322450875122

>  <Genealogy>  (32) 
CCN=c1c[nH+]c(C(=O)[N-]c2cccc(C3CC3)c2)c[n-]1 (protonated)
CC/N=c1\c[nH+]c(C(=O)[N-]c2cccc(C3CC3)c2)c[n-]1 (cis-trans isomerization)
CC/N=c1\c[nH+]c(C(=O)[N-]c2cccc(C3CC3)c2)c[n-]1 (3D coordinates assigned)
CC/N=c1\c[nH+]c(C(=O)[N-]c2cccc(C3CC3)c2)c[n-]1 (nonaromatic ring conformer: 310.322450875122 kcal/mol)

>  <smiles>  (32) 
CCN=c1cnc(C(=O)Nc2cccc(C3CC3)c2)c[nH]1

>  <score_type>  (32) 
oracle

>  <origin>  (32) 
adg

>  <m_score__min__energy>  (32) 
-8.7200000000000006

>  <m_primary>  (32) 
energy

$$$$
32:0
     RDKit          3D

 49 50  0  0  0  0  0  0  0  0999 V2000
   -0.3718   19.0470  -28.7470 H   0  0  0  0  0  0  0  0  0  0  0  0
   -0.9910   19.9510  -28.6500 C   0  0  0  0  0  0  0  0  0  0  0  0
   -0.9710   20.9260  -29.6670 C   0  0  0  0  0  0  0  0  0  0  0  0
   -0.1890   20.7900  -30.8240 O   0  0  0  0  0  0  0  0  0  0  0  0
   -0.6190   21.1470  -32.1340 C   0  0  0  0  0  0  0  0  0  0  0  0
   -1.4636   21.8482  -32.0643 H   0  0  0  0  0  0  0  0  0  0  0  0
    0.2110   21.6253  -32.6747 H   0  0  0  0  0  0  0  0  0  0  0  0
   -0.9364   20.2432  -32.6747 H   0  0  0  0  0  0  0  0  0  0  0  0
   -1.7570   22.0750  -29.5310 C   0  0  0  0  0  0  0  0  0  0  0  0
   -1.7485   22.8370  -30.3242 H   0  0  0  0  0  0  0  0  0  0  0  0
   -2.5560   22.2660  -28.3940 C   0  0  0  0  0  0  0  0  0  0  0  0
   -3.4310   23.4830  -28.2800 C   0  0  0  0  0  0  0  0  0  0  0  0
   -3.2258   23.9916  -27.3264 H   0  0  0  0  0  0  0  0  0  0  0  0
   -4.4863   23.1748  -28.3179 H   0  0  0  0  0  0  0  0  0  0  0  0
   -3.1510   24.4200  -29.4120 C   0  0  0  0  0  0  0  0  0  0  0  0
   -3.8880   24.3960  -30.4350 O   0  0  0  0  0  0  0  0  0  0  0  0
   -2.0180   25.2980  -29.3320 N   0  0  0  0  0  0  0  0  0  0  0  0
   -1.0500   25.2200  -28.4690 C   0  0  0  0  0  0  0  0  0  0  0  0
    0.0930   24.5240  -28.6600 N   0  0  0  0  0  0  0  0  0  0  0  0
    0.9220   24.5920  -27.6190 N   0  0  0  0  0  0  0  0  0  0  0  0
    0.4520   25.3570  -26.6050 C   0  0  0  0  0  0  0  0  0  0  0  0
    1.1670   25.5130  -25.2890 C   0  0  0  0  0  0  0  0  0  0  0  0
    1.5448   26.5443  -25.2279 H   0  0  0  0  0  0  0  0  0  0  0  0
    1.9605   24.7512  -25.2822 H   0  0  0  0  0  0  0  0  0  0  0  0
    0.3370   25.2540  -24.0770 N   0  0  0  0  0  0  0  0  0  0  0  0
    1.0340   24.8380  -23.4120 H   0  0  0  0  0  0  0  0  0  0  0  0
   -0.6690   24.1630  -24.2040 C   0  0  0  0  0  0  0  0  0  0  0  0
   -1.1677   24.2737  -25.1782 H   0  0  0  0  0  0  0  0  0  0  0  0
   -1.3457   24.2748  -23.3440 H   0  0  0  0  0  0  0  0  0  0  0  0
   -0.1110   22.7360  -24.1180 C   0  0  0  0  0  0  0  0  0  0  0  0
    0.0012   22.4492  -23.0620 H   0  0  0  0  0  0  0  0  0  0  0  0
   -0.8036   22.0409  -24.6152 H   0  0  0  0  0  0  0  0  0  0  0  0
    0.8694   22.6951  -24.6152 H   0  0  0  0  0  0  0  0  0  0  0  0
   -0.1250   26.4620  -23.3370 C   0  0  0  0  0  0  0  0  0  0  0  0
   -0.8369   26.1341  -22.5652 H   0  0  0  0  0  0  0  0  0  0  0  0
    0.7835   26.9329  -22.9336 H   0  0  0  0  0  0  0  0  0  0  0  0
   -0.8140   27.5400  -24.1880 C   0  0  0  0  0  0  0  0  0  0  0  0
   -1.2877   28.2812  -23.5276 H   0  0  0  0  0  0  0  0  0  0  0  0
   -0.0670   28.0389  -24.8228 H   0  0  0  0  0  0  0  0  0  0  0  0
   -1.5805   27.0716  -24.8228 H   0  0  0  0  0  0  0  0  0  0  0  0
   -1.0840   25.9600  -26.9610 S   0  0  0  0  0  0  0  0  0  0  0  0
   -2.5790   21.2830  -27.3930 C   0  0  0  0  0  0  0  0  0  0  0  0
   -3.2165   21.4224  -26.5075 H   0  0  0  0  0  0  0  0  0  0  0  0
   -1.7990   20.1270  -27.5100 C   0  0  0  0  0  0  0  0  0  0  0  0
   -1.8570   19.1800  -26.4760 O   0  0  0  0  0  0  0  0  0  0  0  0
   -3.0620   18.6170  -25.9660 C   0  0  0  0  0  0  0  0  0  0  0  0
   -3.0358   18.6293  -24.8664 H   0  0  0  0  0  0  0  0  0  0  0  0
   -3.9206   19.2072  -26.3189 H   0  0  0  0  0  0  0  0  0  0  0  0
   -3.1602   17.5798  -26.3189 H   0  0  0  0  0  0  0  0  0  0  0  0
  1  2  1  0
  2  3  2  0
  3  4  1  0
  4  5  1  0
  5  6  1  0
  5  7  1  0
  5  8  1  0
  3  9  1  0
  9 10  1  0
  9 11  2  0
 11 12  1  0
 12 13  1  0
 12 14  1  0
 12 15  1  0
 15 16  2  0
 15 17  1  0
 17 18  2  0
 18 19  1  0
 19 20  1  0
 20 21  2  0
 21 22  1  0
 22 23  1  0
 22 24  1  0
 22 25  1  0
 25 26  1  0
 25 27  1  0
 27 28  1  0
 27 29  1  0
 27 30  1  0
 30 31  1  0
 30 32  1  0
 30 33  1  0
 25 34  1  0
 34 35  1  0
 34 36  1  0
 34 37  1  0
 37 38  1  0
 37 39  1  0
 37 40  1  0
 21 41  1  0
 11 42  1  0
 42 43  1  0
 42 44  2  0
 44 45  1  0
 45 46  1  0
 46 47  1  0
 46 48  1  0
 46 49  1  0
 44  2  1  0
 41 18  1  0
M  CHG  2  19  -1  25   1
M  END
>  <UniqueID>  (33) 
32

>  <SMILES>  (33) 
CC[NH+](CC)Cc1n[n-]/c(=N\C(=O)Cc2cc(OC)cc(OC)c2)s1

>  <Energy>  (33) 
94.4213376650872

>  <Genealogy>  (33) 
CC[NH+](CC)Cc1n[n-]c(=NC(=O)Cc2cc(OC)cc(OC)c2)s1 (protonated)
CC[NH+](CC)Cc1n[n-]/c(=N\C(=O)Cc2cc(OC)cc(OC)c2)s1 (cis-trans isomerization)
CC[NH+](CC)Cc1n[n-]/c(=N\C(=O)Cc2cc(OC)cc(OC)c2)s1 (3D coordinates assigned)
CC[NH+](CC)Cc1n[n-]/c(=N\C(=O)Cc2cc(OC)cc(OC)c2)s1 (optimized conformer: 94.4213376650872 kcal/mol)

>  <smiles>  (33) 
CCN(CC)Cc1n[nH]c(=NC(=O)Cc2cc(OC)cc(OC)c2)s1

>  <score_type>  (33) 
oracle

>  <origin>  (33) 
adg

>  <m_score__min__energy>  (33) 
-8.4600000000000009

>  <m_primary>  (33) 
energy

$$$$
33:0
     RDKit          3D

 43 44  0  0  0  0  0  0  0  0999 V2000
   -3.7120   23.8480  -30.9250 N   0  0  0  0  0  0  0  0  0  0  0  0
   -4.4420   24.3040  -29.7420 C   0  0  0  0  0  0  0  0  0  0  0  0
   -5.5860   25.2710  -30.0930 C   0  0  0  0  0  0  0  0  0  0  0  0
   -6.8550   24.5400  -30.5530 C   0  0  0  0  0  0  0  0  0  0  0  0
   -6.5140   23.3970  -31.4020 N   0  0  0  0  0  0  0  0  0  0  0  0
   -7.3620   22.2420  -31.5790 C   0  0  0  0  0  0  0  0  0  0  0  0
   -8.7440   22.4050  -31.7990 C   0  0  0  0  0  0  0  0  0  0  0  0
   -9.5750   21.2990  -31.9850 C   0  0  0  0  0  0  0  0  0  0  0  0
   -9.0430   20.0130  -31.9590 C   0  0  0  0  0  0  0  0  0  0  0  0
   -7.6780   19.8250  -31.7400 C   0  0  0  0  0  0  0  0  0  0  0  0
   -6.8240   20.9260  -31.5330 C   0  0  0  0  0  0  0  0  0  0  0  0
   -5.3460   20.6630  -31.3600 C   0  0  0  0  0  0  0  0  0  0  0  0
   -4.5700   21.6530  -32.1190 N   0  0  0  0  0  0  0  0  0  0  0  0
   -4.2390   21.1590  -33.4620 C   0  0  0  0  0  0  0  0  0  0  0  0
   -4.5880   19.6990  -33.5870 C   0  0  0  0  0  0  0  0  0  0  0  0
   -5.7770   19.2990  -34.2180 C   0  0  0  0  0  0  0  0  0  0  0  0
   -6.0830   17.9410  -34.3490 C   0  0  0  0  0  0  0  0  0  0  0  0
   -5.2030   16.9740  -33.8530 C   0  0  0  0  0  0  0  0  0  0  0  0
   -4.0170   17.3640  -33.2270 C   0  0  0  0  0  0  0  0  0  0  0  0
   -3.7070   18.7220  -33.0940 C   0  0  0  0  0  0  0  0  0  0  0  0
   -4.3620   23.8250  -31.7420 H   0  0  0  0  0  0  0  0  0  0  0  0
   -3.3580   22.8780  -30.7600 H   0  0  0  0  0  0  0  0  0  0  0  0
   -4.8654   23.4278  -29.2291 H   0  0  0  0  0  0  0  0  0  0  0  0
   -3.7323   24.8448  -29.0988 H   0  0  0  0  0  0  0  0  0  0  0  0
   -5.8273   25.8697  -29.2023 H   0  0  0  0  0  0  0  0  0  0  0  0
   -5.2447   25.9033  -30.9259 H   0  0  0  0  0  0  0  0  0  0  0  0
   -7.4061   24.1828  -29.6705 H   0  0  0  0  0  0  0  0  0  0  0  0
   -7.4756   25.2390  -31.1329 H   0  0  0  0  0  0  0  0  0  0  0  0
   -5.6130   23.4640  -31.9230 H   0  0  0  0  0  0  0  0  0  0  0  0
   -9.1738   23.4172  -31.8245 H   0  0  0  0  0  0  0  0  0  0  0  0
  -10.6525   21.4440  -32.1525 H   0  0  0  0  0  0  0  0  0  0  0  0
   -9.6997   19.1438  -32.1113 H   0  0  0  0  0  0  0  0  0  0  0  0
   -7.2641   18.8059  -31.7289 H   0  0  0  0  0  0  0  0  0  0  0  0
   -5.0851   20.7346  -30.2938 H   0  0  0  0  0  0  0  0  0  0  0  0
   -5.1113   19.6552  -31.7333 H   0  0  0  0  0  0  0  0  0  0  0  0
   -3.6660   21.8110  -31.6150 H   0  0  0  0  0  0  0  0  0  0  0  0
   -4.8073   21.7325  -34.2091 H   0  0  0  0  0  0  0  0  0  0  0  0
   -3.1591   21.2827  -33.6308 H   0  0  0  0  0  0  0  0  0  0  0  0
   -6.4705   20.0571  -34.6108 H   0  0  0  0  0  0  0  0  0  0  0  0
   -7.0166   17.6331  -34.8426 H   0  0  0  0  0  0  0  0  0  0  0  0
   -5.4449   15.9059  -33.9559 H   0  0  0  0  0  0  0  0  0  0  0  0
   -3.3254   16.6023  -32.8378 H   0  0  0  0  0  0  0  0  0  0  0  0
   -2.7710   19.0254  -32.6021 H   0  0  0  0  0  0  0  0  0  0  0  0
  1  2  1  0
  2  3  1  0
  3  4  1  0
  4  5  1  0
  5  6  1  0
  6  7  2  0
  7  8  1  0
  8  9  2  0
  9 10  1  0
 10 11  2  0
 11 12  1  0
 12 13  1  0
 13 14  1  0
 14 15  1  0
 15 16  2  0
 16 17  1  0
 17 18  2  0
 18 19  1  0
 19 20  2  0
 11  6  1  0
 20 15  1  0
  1 21  1  0
  1 22  1  0
  2 23  1  0
  2 24  1  0
  3 25  1  0
  3 26  1  0
  4 27  1  0
  4 28  1  0
  5 29  1  0
  7 30  1  0
  8 31  1  0
  9 32  1  0
 10 33  1  0
 12 34  1  0
 12 35  1  0
 13 36  1  0
 14 37  1  0
 14 38  1  0
 16 39  1  0
 17 40  1  0
 18 41  1  0
 19 42  1  0
 20 43  1  0
M  END
>  <UniqueID>  (34) 
33

>  <SMILES>  (34) 
NCCCNc1ccccc1CNCc1ccccc1

>  <Energy>  (34) 
39.531132328806734

>  <Genealogy>  (34) 
NCCCNc1ccccc1CNCc1ccccc1 (3D coordinates assigned)
NCCCNc1ccccc1CNCc1ccccc1 (optimized conformer: 39.531132328806734 kcal/mol)

>  <smiles>  (34) 
NCCCNc1ccccc1CNCc1ccccc1

>  <score_type>  (34) 
oracle

>  <origin>  (34) 
adg

>  <m_score__min__energy>  (34) 
-6.71

>  <m_primary>  (34) 
energy

$$$$
34:0
     RDKit          3D

 31 33  0  0  1  0  0  0  0  0999 V2000
   -9.4900   21.6010  -31.4500 Cl  0  0  0  0  0  0  0  0  0  0  0  0
   -7.9730   22.4780  -31.2660 C   0  0  0  0  0  0  0  0  0  0  0  0
   -7.3450   22.5700  -30.0200 C   0  0  0  0  0  0  0  0  0  0  0  0
   -6.1530   23.2570  -29.8590 C   0  0  0  0  0  0  0  0  0  0  0  0
   -5.5520   23.8730  -30.9510 C   0  0  0  0  0  0  0  0  0  0  0  0
   -4.3230   24.5690  -30.7350 N   0  0  0  0  0  0  0  0  0  0  0  0
   -3.3260   24.1200  -30.0930 C   0  0  0  0  0  0  0  0  0  0  0  0
   -2.9610   24.7510  -28.9580 N   0  0  0  0  0  0  0  0  0  0  0  0
   -1.9000   24.2470  -28.3050 C   0  0  0  0  0  0  0  0  0  0  0  0
   -1.4150   24.8660  -27.0440 C   0  0  0  0  0  0  0  0  0  0  0  0
   -2.7480   25.3300  -25.9650 Cl  0  0  0  0  0  0  0  0  0  0  0  0
   -0.3820   23.7410  -26.1360 Cl  0  0  0  0  0  0  0  0  0  0  0  0
   -0.5110   26.3600  -27.4710 Cl  0  0  0  0  0  0  0  0  0  0  0  0
   -1.2200   23.1580  -28.7500 N   0  0  0  0  0  0  0  0  0  0  0  0
   -1.5640   22.5140  -29.8740 C   0  0  0  0  0  0  0  0  0  0  0  0
   -0.8710   21.3970  -30.3390 C   0  0  0  0  0  0  0  0  0  0  0  0
   -1.2990   20.7850  -31.5230 C   0  0  0  0  0  0  0  0  0  0  0  0
   -2.3840   21.2710  -32.2270 C   0  0  0  0  0  0  0  0  0  0  0  0
   -3.0240   22.3660  -31.7290 C   0  0  0  0  0  0  0  0  0  0  0  0
   -2.6560   23.0140  -30.5710 C   0  0  0  0  0  0  0  0  0  0  0  0
   -6.1580   23.7920  -32.1880 C   0  0  0  0  0  0  0  0  0  0  0  0
   -7.3580   23.1000  -32.3450 C   0  0  0  0  0  0  0  0  0  0  0  0
   -7.8082   22.0857  -29.1477 H   0  0  0  0  0  0  0  0  0  0  0  0
   -5.6817   23.3152  -28.8668 H   0  0  0  0  0  0  0  0  0  0  0  0
   -3.4880   25.5990  -28.6070 H   0  0  0  0  0  0  0  0  0  0  0  0
   -0.0048   21.0043  -29.7862 H   0  0  0  0  0  0  0  0  0  0  0  0
   -0.7622   19.9018  -31.8995 H   0  0  0  0  0  0  0  0  0  0  0  0
   -2.7197   20.7903  -33.1577 H   0  0  0  0  0  0  0  0  0  0  0  0
   -3.8881   22.7565  -32.2865 H   0  0  0  0  0  0  0  0  0  0  0  0
   -5.6904   24.2774  -33.0573 H   0  0  0  0  0  0  0  0  0  0  0  0
   -7.8253   23.0457  -33.3393 H   0  0  0  0  0  0  0  0  0  0  0  0
  1  2  1  0
  2  3  2  0
  3  4  1  0
  4  5  2  0
  5  6  1  0
  6  7  2  0
  7  8  1  0
  8  9  1  0
  9 10  1  0
 10 11  1  0
 10 12  1  0
 10 13  1  0
  9 14  2  0
 14 15  1  0
 15 16  2  0
 16 17  1  0
 17 18  2  0
 18 19  1  0
 19 20  2  0
  5 21  1  0
 21 22  2  0
 22  2  1  0
 20  7  1  0
 20 15  1  0
  3 23  1  0
  4 24  1  0
  8 25  1  0
 16 26  1  0
 17 27  1  0
 18 28  1  0
 19 29  1  0
 21 30  1  0
 22 31  1  0
M  END
>  <smiles>  (35) 
Clc1ccc(N=c2[nH]c(C(Cl)(Cl)Cl)nc3ccccc23)cc1

>  <score_type>  (35) 
oracle

>  <origin>  (35) 
adg

>  <m_score__min__energy>  (35) 
-8.4199999999999999

>  <m_primary>  (35) 
energy

$$$$
35:0
     RDKit          3D

 34 36  0  0  0  0  0  0  0  0999 V2000
   -3.0760   21.4420  -28.6300 C   0  0  0  0  0  0  0  0  0  0  0  0
   -3.0860   22.2310  -29.8140 O   0  0  0  0  0  0  0  0  0  0  0  0
   -2.5500   21.8250  -31.0470 C   0  0  0  0  0  0  0  0  0  0  0  0
   -1.1640   21.6500  -31.2360 C   0  0  0  0  0  0  0  0  0  0  0  0
   -0.6670   21.2340  -32.4740 C   0  0  0  0  0  0  0  0  0  0  0  0
   -1.5410   20.9860  -33.5330 C   0  0  0  0  0  0  0  0  0  0  0  0
   -2.9160   21.1580  -33.3610 C   0  0  0  0  0  0  0  0  0  0  0  0
   -3.4280   21.5820  -32.1240 C   0  0  0  0  0  0  0  0  0  0  0  0
   -4.8920   21.7670  -31.9610 C   0  0  0  0  0  0  0  0  0  0  0  0
   -5.8090   20.6820  -32.0680 C   0  0  0  0  0  0  0  0  0  0  0  0
   -5.2770   19.2660  -32.1530 C   0  0  0  0  0  0  0  0  0  0  0  0
   -7.1630   20.9580  -32.0210 N   0  0  0  0  0  0  0  0  0  0  0  0
   -8.2470   20.1230  -32.2120 C   0  0  0  0  0  0  0  0  0  0  0  0
   -8.1960   18.6910  -32.6720 C   0  0  0  0  0  0  0  0  0  0  0  0
   -9.4880   20.7400  -32.0280 C   0  0  0  0  0  0  0  0  0  0  0  0
   -9.2500   22.3630  -31.6710 S   0  0  0  0  0  0  0  0  0  0  0  0
   -7.5860   22.2200  -31.7480 C   0  0  0  0  0  0  0  0  0  0  0  0
   -6.7300   23.2530  -31.5900 N   0  0  0  0  0  0  0  0  0  0  0  0
   -5.3970   23.0560  -31.7070 C   0  0  0  0  0  0  0  0  0  0  0  0
   -4.6190   24.0410  -31.5900 O   0  0  0  0  0  0  0  0  0  0  0  0
   -3.0844   22.1016  -27.7497 H   0  0  0  0  0  0  0  0  0  0  0  0
   -3.9660   20.7958  -28.6125 H   0  0  0  0  0  0  0  0  0  0  0  0
   -2.1699   20.8186  -28.6125 H   0  0  0  0  0  0  0  0  0  0  0  0
   -0.4700   21.8420  -30.4044 H   0  0  0  0  0  0  0  0  0  0  0  0
    0.4160   21.1017  -32.6140 H   0  0  0  0  0  0  0  0  0  0  0  0
   -1.1463   20.6545  -34.5048 H   0  0  0  0  0  0  0  0  0  0  0  0
   -3.6014   20.9604  -34.1984 H   0  0  0  0  0  0  0  0  0  0  0  0
   -5.1278   18.8688  -31.1381 H   0  0  0  0  0  0  0  0  0  0  0  0
   -5.9992   18.6347  -32.6913 H   0  0  0  0  0  0  0  0  0  0  0  0
   -4.3177   19.2664  -32.6913 H   0  0  0  0  0  0  0  0  0  0  0  0
   -8.1723   18.0253  -31.7966 H   0  0  0  0  0  0  0  0  0  0  0  0
   -9.0868   18.4685  -33.2778 H   0  0  0  0  0  0  0  0  0  0  0  0
   -7.2916   18.5325  -33.2778 H   0  0  0  0  0  0  0  0  0  0  0  0
  -10.4653   20.2411  -32.1049 H   0  0  0  0  0  0  0  0  0  0  0  0
  1  2  1  0
  2  3  1  0
  3  4  2  0
  4  5  1  0
  5  6  2  0
  6  7  1  0
  7  8  2  0
  8  9  1  0
  9 10  2  0
 10 11  1  0
 10 12  1  0
 12 13  1  0
 13 14  1  0
 13 15  2  0
 15 16  1  0
 16 17  1  0
 17 18  2  0
 18 19  1  0
 19 20  2  0
  8  3  1  0
 19  9  1  0
 17 12  1  0
  1 21  1  0
  1 22  1  0
  1 23  1  0
  4 24  1  0
  5 25  1  0
  6 26  1  0
  7 27  1  0
 11 28  1  0
 11 29  1  0
 11 30  1  0
 14 31  1  0
 14 32  1  0
 14 33  1  0
 15 34  1  0
M  END
>  <UniqueID>  (36) 
34

>  <SMILES>  (36) 
COc1ccccc1-c1c(C)n2c(C)csc2nc1=O

>  <Energy>  (36) 
86.99236359424742

>  <Genealogy>  (36) 
COc1ccccc1-c1c(C)n2c(C)csc2nc1=O (3D coordinates assigned)
COc1ccccc1-c1c(C)n2c(C)csc2nc1=O (optimized conformer: 86.99236359424742 kcal/mol)

>  <smiles>  (36) 
COc1ccccc1-c1c(C)n2c(C)csc2nc1=O

>  <score_type>  (36) 
oracle

>  <origin>  (36) 
adg

>  <m_score__min__energy>  (36) 
-7.0999999999999996

>  <m_primary>  (36) 
energy

$$$$
36:0
     RDKit          3D

 15 16  0  0  0  0  0  0  0  0999 V2000
   -3.4870   25.3000  -30.4440 O   0  0  0  0  0  0  0  0  0  0  0  0
   -4.7270   24.6900  -30.5900 C   0  0  0  0  0  0  0  0  0  0  0  0
   -5.9060   25.2320  -30.0820 C   0  0  0  0  0  0  0  0  0  0  0  0
   -7.1880   24.1930  -30.4680 S   0  0  0  0  0  0  0  0  0  0  0  0
   -6.2400   23.0650  -31.2750 C   0  0  0  0  0  0  0  0  0  0  0  0
   -6.6200   21.8810  -31.8960 C   0  0  0  0  0  0  0  0  0  0  0  0
   -5.6170   21.1140  -32.5050 C   0  0  0  0  0  0  0  0  0  0  0  0
   -4.2790   21.5560  -32.4720 C   0  0  0  0  0  0  0  0  0  0  0  0
   -3.9500   22.7280  -31.8500 N   0  0  0  0  0  0  0  0  0  0  0  0
   -4.9200   23.4760  -31.2580 C   0  0  0  0  0  0  0  0  0  0  0  0
   -5.9904   26.1761  -29.5239 H   0  0  0  0  0  0  0  0  0  0  0  0
   -7.6712   21.5571  -31.9091 H   0  0  0  0  0  0  0  0  0  0  0  0
   -5.8735   20.1696  -33.0073 H   0  0  0  0  0  0  0  0  0  0  0  0
   -3.4933   20.9530  -32.9506 H   0  0  0  0  0  0  0  0  0  0  0  0
   -2.9540   23.0410  -31.8350 H   0  0  0  0  0  0  0  0  0  0  0  0
  1  2  1  0
  2  3  2  0
  3  4  1  0
  4  5  1  0
  5  6  2  0
  6  7  1  0
  7  8  2  0
  8  9  1  0
  9 10  2  0
 10  2  1  0
 10  5  1  0
  3 11  1  0
  6 12  1  0
  7 13  1  0
  8 14  1  0
  9 15  1  0
M  CHG  2   1  -1   9   1
M  END
>  <UniqueID>  (37) 
35

>  <SMILES>  (37) 
[O-]c1csc2ccc[nH+]c12

>  <Energy>  (37) 
47.88848079115017

>  <Genealogy>  (37) 
[O-]c1csc2ccc[nH+]c12 (protonated)
[O-]c1csc2ccc[nH+]c12 (3D coordinates assigned)
[O-]c1csc2ccc[nH+]c12 (optimized conformer: 47.88848079115017 kcal/mol)

>  <smiles>  (37) 
Oc1csc2cccnc12

>  <score_type>  (37) 
oracle

>  <origin>  (37) 
adg

>  <m_score__min__energy>  (37) 
-6.9000000000000004

>  <m_primary>  (37) 
energy

$$$$
37:0
     RDKit          3D

 36 39  0  0  0  0  0  0  0  0999 V2000
   -6.7820   25.2460  -29.9870 C   0  0  0  0  0  0  0  0  0  0  0  0
   -5.7710   24.1280  -30.2370 C   0  0  1  0  0  0  0  0  0  0  0  0
   -6.4450   22.8860  -30.7810 C   0  0  0  0  0  0  0  0  0  0  0  0
   -7.8250   22.6860  -30.5970 C   0  0  0  0  0  0  0  0  0  0  0  0
   -8.4400   21.5200  -31.0640 C   0  0  0  0  0  0  0  0  0  0  0  0
   -7.6820   20.5360  -31.7040 C   0  0  0  0  0  0  0  0  0  0  0  0
   -8.5240   18.9420  -32.3370 Br  0  0  0  0  0  0  0  0  0  0  0  0
   -6.3050   20.7130  -31.8700 C   0  0  0  0  0  0  0  0  0  0  0  0
   -5.6870   21.8780  -31.4050 C   0  0  0  0  0  0  0  0  0  0  0  0
   -4.7390   24.5790  -31.1090 O   0  0  0  0  0  0  0  0  0  0  0  0
   -3.5150   24.5510  -30.4860 N   0  0  0  0  0  0  0  0  0  0  0  0
   -3.7110   24.1190  -29.2880 C   0  0  0  0  0  0  0  0  0  0  0  0
   -2.6380   23.9410  -28.2920 C   0  0  0  0  0  0  0  0  0  0  0  0
   -1.7230   22.8700  -28.4280 C   0  0  0  0  0  0  0  0  0  0  0  0
   -0.6940   22.6860  -27.4890 C   0  0  0  0  0  0  0  0  0  0  0  0
   -0.6020   23.5830  -26.4280 C   0  0  0  0  0  0  0  0  0  0  0  0
   -1.4770   24.6200  -26.2860 C   0  0  0  0  0  0  0  0  0  0  0  0
   -2.5100   24.8290  -27.2010 C   0  0  0  0  0  0  0  0  0  0  0  0
   -1.1370   25.4060  -25.0720 C   0  0  0  0  0  0  0  0  0  0  0  0
    0.0960   24.6530  -24.5150 C   0  0  0  0  0  0  0  0  0  0  0  0
    0.3310   23.5700  -25.4150 O   0  0  0  0  0  0  0  0  0  0  0  0
   -5.0490   23.8390  -29.0440 O   0  0  0  0  0  0  0  0  0  0  0  0
   -6.9108   25.3884  -28.9039 H   0  0  0  0  0  0  0  0  0  0  0  0
   -6.4154   26.1796  -30.4386 H   0  0  0  0  0  0  0  0  0  0  0  0
   -7.7477   24.9748  -30.4386 H   0  0  0  0  0  0  0  0  0  0  0  0
   -8.4244   23.4516  -30.0825 H   0  0  0  0  0  0  0  0  0  0  0  0
   -9.5221   21.3773  -30.9273 H   0  0  0  0  0  0  0  0  0  0  0  0
   -5.7071   19.9349  -32.3670 H   0  0  0  0  0  0  0  0  0  0  0  0
   -4.6015   22.0073  -31.5278 H   0  0  0  0  0  0  0  0  0  0  0  0
   -1.8181   22.1757  -29.2759 H   0  0  0  0  0  0  0  0  0  0  0  0
    0.0200   21.8553  -27.5895 H   0  0  0  0  0  0  0  0  0  0  0  0
   -3.2101   25.6680  -27.0751 H   0  0  0  0  0  0  0  0  0  0  0  0
   -0.8844   26.4451  -25.3298 H   0  0  0  0  0  0  0  0  0  0  0  0
   -1.9659   25.4796  -24.3526 H   0  0  0  0  0  0  0  0  0  0  0  0
    0.9698   25.3204  -24.4827 H   0  0  0  0  0  0  0  0  0  0  0  0
   -0.0777   24.2959  -23.4892 H   0  0  0  0  0  0  0  0  0  0  0  0
  2  1  1  1
  2  3  1  0
  3  4  2  0
  4  5  1  0
  5  6  2  0
  6  7  1  0
  6  8  1  0
  8  9  2  0
  2 10  1  0
 10 11  1  0
 11 12  2  0
 12 13  1  0
 13 14  2  0
 14 15  1  0
 15 16  2  0
 16 17  1  0
 17 18  2  0
 17 19  1  0
 19 20  1  0
 20 21  1  0
 12 22  1  0
 22  2  1  0
  9  3  1  0
 18 13  1  0
 21 16  1  0
  1 23  1  0
  1 24  1  0
  1 25  1  0
  4 26  1  0
  5 27  1  0
  8 28  1  0
  9 29  1  0
 14 30  1  0
 15 31  1  0
 18 32  1  0
 19 33  1  0
 19 34  1  0
 20 35  1  0
 20 36  1  0
M  END
>  <UniqueID>  (38) 
36

>  <SMILES>  (38) 
C[C@@]1(c2ccc(Br)cc2)ON=C(c2ccc3c(c2)CCO3)O1

>  <Energy>  (38) 
77.2263422049707

>  <Genealogy>  (38) 
C[C@@]1(c2ccc(Br)cc2)ON=C(c2ccc3c(c2)CCO3)O1 (chirality)
C[C@@]1(c2ccc(Br)cc2)ON=C(c2ccc3c(c2)CCO3)O1 (3D coordinates assigned)
C[C@@]1(c2ccc(Br)cc2)ON=C(c2ccc3c(c2)CCO3)O1 (nonaromatic ring conformer: 77.2263422049707 kcal/mol)

>  <smiles>  (38) 
CC1(c2ccc(Br)cc2)ON=C(c2ccc3c(c2)CCO3)O1

>  <score_type>  (38) 
oracle

>  <origin>  (38) 
adg

>  <m_score__min__energy>  (38) 
-8.9399999999999995

>  <m_primary>  (38) 
energy

$$$$
38:0
     RDKit          3D

 30 32  0  0  0  0  0  0  0  0999 V2000
   -6.8300   24.9100  -30.0410 C   0  0  0  0  0  0  0  0  0  0  0  0
   -6.2400   23.5490  -29.6930 C   0  0  0  0  0  0  0  0  0  0  0  0
   -4.7850   23.6360  -29.6010 N   0  0  0  0  0  0  0  0  0  0  0  0
   -3.8850   23.3760  -30.5810 C   0  0  0  0  0  0  0  0  0  0  0  0
   -2.6090   23.6620  -30.1080 C   0  0  0  0  0  0  0  0  0  0  0  0
   -2.7360   24.1080  -28.8430 N   0  0  0  0  0  0  0  0  0  0  0  0
   -1.8170   24.5330  -27.9440 C   0  0  0  0  0  0  0  0  0  0  0  0
   -0.5910   24.5300  -28.2400 O   0  0  0  0  0  0  0  0  0  0  0  0
   -2.2890   24.9660  -26.6820 C   0  0  0  0  0  0  0  0  0  0  0  0
   -1.4120   25.4570  -25.5960 C   0  0  0  0  0  0  0  0  0  0  0  0
   -0.9530   26.7490  -25.3660 C   0  0  0  0  0  0  0  0  0  0  0  0
   -0.1800   26.6260  -24.2280 C   0  0  0  0  0  0  0  0  0  0  0  0
    0.4920   27.7390  -23.4950 C   0  0  0  0  0  0  0  0  0  0  0  0
   -0.2090   25.3480  -23.8140 N   0  0  0  0  0  0  0  0  0  0  0  0
   -0.9440   24.6740  -24.6480 O   0  0  0  0  0  0  0  0  0  0  0  0
   -3.6390   24.9270  -26.4500 N   0  0  0  0  0  0  0  0  0  0  0  0
   -4.5110   24.4980  -27.3710 N   0  0  0  0  0  0  0  0  0  0  0  0
   -4.0440   24.0860  -28.5710 C   0  0  0  0  0  0  0  0  0  0  0  0
   -7.0662   25.4548  -29.1151 H   0  0  0  0  0  0  0  0  0  0  0  0
   -6.1008   25.4861  -30.6296 H   0  0  0  0  0  0  0  0  0  0  0  0
   -7.7489   24.7716  -30.6296 H   0  0  0  0  0  0  0  0  0  0  0  0
   -6.6453   23.2141  -28.7268 H   0  0  0  0  0  0  0  0  0  0  0  0
   -6.5064   22.8310  -30.4826 H   0  0  0  0  0  0  0  0  0  0  0  0
   -4.1250   23.0000  -31.5865 H   0  0  0  0  0  0  0  0  0  0  0  0
   -1.6677   23.5454  -30.6650 H   0  0  0  0  0  0  0  0  0  0  0  0
   -1.1575   27.6566  -25.9529 H   0  0  0  0  0  0  0  0  0  0  0  0
    0.3938   27.5764  -22.4115 H   0  0  0  0  0  0  0  0  0  0  0  0
    1.5576   27.7662  -23.7666 H   0  0  0  0  0  0  0  0  0  0  0  0
    0.0198   28.6947  -23.7666 H   0  0  0  0  0  0  0  0  0  0  0  0
    0.2590   24.9500  -22.9710 H   0  0  0  0  0  0  0  0  0  0  0  0
  1  2  1  0
  2  3  1  0
  3  4  1  0
  4  5  2  0
  5  6  1  0
  6  7  1  0
  7  8  2  0
  7  9  1  0
  9 10  1  0
 10 11  2  0
 11 12  1  0
 12 13  1  0
 12 14  2  0
 14 15  1  0
  9 16  2  0
 16 17  1  0
 17 18  2  0
 18  3  1  0
 18  6  1  0
 15 10  1  0
  1 19  1  0
  1 20  1  0
  1 21  1  0
  2 22  1  0
  2 23  1  0
  4 24  1  0
  5 25  1  0
 11 26  1  0
 13 27  1  0
 13 28  1  0
 13 29  1  0
 14 30  1  0
M  CHG  1  14   1
M  END
>  <UniqueID>  (39) 
37

>  <SMILES>  (39) 
CCn1ccn2c(=O)c(-c3cc(C)[nH+]o3)nnc12

>  <Energy>  (39) 
100.82164795565748

>  <Genealogy>  (39) 
CCn1ccn2c(=O)c(-c3cc(C)[nH+]o3)nnc12 (protonated)
CCn1ccn2c(=O)c(-c3cc(C)[nH+]o3)nnc12 (3D coordinates assigned)
CCn1ccn2c(=O)c(-c3cc(C)[nH+]o3)nnc12 (optimized conformer: 100.82164795565748 kcal/mol)

>  <smiles>  (39) 
CCn1ccn2c(=O)c(-c3cc(C)no3)nnc12

>  <score_type>  (39) 
oracle

>  <origin>  (39) 
adg

>  <m_score__min__energy>  (39) 
-6.5700000000000003

>  <m_primary>  (39) 
energy

$$$$
39:0
     RDKit          3D

 31 32  0  0  0  0  0  0  0  0999 V2000
   -6.6130   17.8730  -31.2430 C   0  0  0  0  0  0  0  0  0  0  0  0
   -8.1030   18.1740  -32.2420 S   0  0  0  0  0  0  0  0  0  0  0  0
   -7.9280   19.9640  -32.1950 C   0  0  0  0  0  0  0  0  0  0  0  0
   -8.9150   20.7280  -31.5640 C   0  0  0  0  0  0  0  0  0  0  0  0
   -8.7870   22.1140  -31.4970 C   0  0  0  0  0  0  0  0  0  0  0  0
   -7.6690   22.7260  -32.0630 C   0  0  0  0  0  0  0  0  0  0  0  0
   -6.7150   21.9750  -32.6770 N   0  0  0  0  0  0  0  0  0  0  0  0
   -6.8160   20.6160  -32.7650 C   0  0  0  0  0  0  0  0  0  0  0  0
   -5.7830   19.8670  -33.4240 N   0  0  0  0  0  0  0  0  0  0  0  0
   -4.3810   20.1110  -33.0590 C   0  0  0  0  0  0  0  0  0  0  0  0
   -3.4370   19.1300  -33.7660 C   0  0  0  0  0  0  0  0  0  0  0  0
   -4.0460   17.7250  -33.7730 C   0  0  0  0  0  0  0  0  0  0  0  0
   -5.3890   17.6800  -34.5300 C   0  0  0  0  0  0  0  0  0  0  0  0
   -6.1090   19.0400  -34.5920 C   0  0  0  0  0  0  0  0  0  0  0  0
   -6.8710   17.9251  -30.1749 H   0  0  0  0  0  0  0  0  0  0  0  0
   -6.2113   16.8756  -31.4750 H   0  0  0  0  0  0  0  0  0  0  0  0
   -5.8557   18.6363  -31.4750 H   0  0  0  0  0  0  0  0  0  0  0  0
   -9.7925   20.2347  -31.1205 H   0  0  0  0  0  0  0  0  0  0  0  0
   -9.5606   22.7197  -31.0023 H   0  0  0  0  0  0  0  0  0  0  0  0
   -7.5581   23.8192  -32.0129 H   0  0  0  0  0  0  0  0  0  0  0  0
   -5.8950   22.4620  -33.1050 H   0  0  0  0  0  0  0  0  0  0  0  0
   -4.1103   21.1377  -33.3465 H   0  0  0  0  0  0  0  0  0  0  0  0
   -4.2772   19.9681  -31.9733 H   0  0  0  0  0  0  0  0  0  0  0  0
   -3.2769   19.4622  -34.8024 H   0  0  0  0  0  0  0  0  0  0  0  0
   -2.4775   19.1035  -33.2287 H   0  0  0  0  0  0  0  0  0  0  0  0
   -3.3410   17.0350  -34.2596 H   0  0  0  0  0  0  0  0  0  0  0  0
   -4.2346   17.4317  -32.7297 H   0  0  0  0  0  0  0  0  0  0  0  0
   -5.1969   17.3413  -35.5588 H   0  0  0  0  0  0  0  0  0  0  0  0
   -6.0468   16.9922  -33.9784 H   0  0  0  0  0  0  0  0  0  0  0  0
   -5.7978   19.5694  -35.5046 H   0  0  0  0  0  0  0  0  0  0  0  0
   -7.1941   18.8596  -34.5991 H   0  0  0  0  0  0  0  0  0  0  0  0
  1  2  1  0
  2  3  1  0
  3  4  2  0
  4  5  1  0
  5  6  2  0
  6  7  1  0
  7  8  2  0
  8  9  1  0
  9 10  1  0
 10 11  1  0
 11 12  1  0
 12 13  1  0
 13 14  1  0
  8  3  1  0
 14  9  1  0
  1 15  1  0
  1 16  1  0
  1 17  1  0
  4 18  1  0
  5 19  1  0
  6 20  1  0
  7 21  1  0
 10 22  1  0
 10 23  1  0
 11 24  1  0
 11 25  1  0
 12 26  1  0
 12 27  1  0
 13 28  1  0
 13 29  1  0
 14 30  1  0
 14 31  1  0
M  CHG  1   7   1
M  END
>  <UniqueID>  (40) 
38

>  <SMILES>  (40) 
CSc1ccc[nH+]c1N1CCCCC1

>  <Energy>  (40) 
31.136564167179117

>  <Genealogy>  (40) 
CSc1ccc[nH+]c1N1CCCCC1 (protonated)
CSc1ccc[nH+]c1N1CCCCC1 (3D coordinates assigned)
CSc1ccc[nH+]c1N1CCCCC1 (nonaromatic ring conformer: 31.136564167179117 kcal/mol)

>  <smiles>  (40) 
CSc1cccnc1N1CCCCC1

>  <score_type>  (40) 
oracle

>  <origin>  (40) 
adg

>  <m_score__min__energy>  (40) 
-5.3899999999999997

>  <m_primary>  (40) 
energy

$$$$
40:0
     RDKit          3D

 32 31  0  0  0  0  0  0  0  0999 V2000
   -1.9940   24.8280  -28.6120 C   0  0  0  0  0  0  0  0  0  0  0  0
   -2.7300   23.8750  -29.1790 C   0  0  0  0  0  0  0  0  0  0  0  0
   -3.4340   24.0650  -30.4600 C   0  0  0  0  0  0  0  0  0  0  0  0
   -3.5300   23.0840  -31.2420 O   0  0  0  0  0  0  0  0  0  0  0  0
   -4.0640   25.3000  -30.8280 N   0  0  0  0  0  0  0  0  0  0  0  0
   -5.3760   25.7500  -30.3750 C   0  0  0  0  0  0  0  0  0  0  0  0
   -6.3760   24.5900  -30.4130 C   0  0  0  0  0  0  0  0  0  0  0  0
   -6.0320   23.6200  -31.4680 N   0  0  0  0  0  0  0  0  0  0  0  0
   -7.1810   23.3050  -32.3360 C   0  0  0  0  0  0  0  0  0  0  0  0
   -7.5140   21.7920  -32.3410 C   0  0  0  0  0  0  0  0  0  0  0  0
   -6.3820   20.9170  -31.9580 N   0  0  0  0  0  0  0  0  0  0  0  0
   -5.2670   20.9620  -32.9170 C   0  0  0  0  0  0  0  0  0  0  0  0
   -6.7930   19.5320  -31.6810 C   0  0  0  0  0  0  0  0  0  0  0  0
   -1.4882   24.6357  -27.6543 H   0  0  0  0  0  0  0  0  0  0  0  0
   -1.8915   25.8079  -29.1011 H   0  0  0  0  0  0  0  0  0  0  0  0
   -2.8166   22.9038  -28.6698 H   0  0  0  0  0  0  0  0  0  0  0  0
   -5.2951   26.1263  -29.3445 H   0  0  0  0  0  0  0  0  0  0  0  0
   -5.7301   26.5508  -31.0408 H   0  0  0  0  0  0  0  0  0  0  0  0
   -6.3680   24.0782  -29.4394 H   0  0  0  0  0  0  0  0  0  0  0  0
   -7.3738   24.9991  -30.6298 H   0  0  0  0  0  0  0  0  0  0  0  0
   -5.2810   24.0290  -32.0720 H   0  0  0  0  0  0  0  0  0  0  0  0
   -5.6570   22.7420  -31.0380 H   0  0  0  0  0  0  0  0  0  0  0  0
   -8.0598   23.8598  -31.9755 H   0  0  0  0  0  0  0  0  0  0  0  0
   -6.9174   23.5959  -33.3636 H   0  0  0  0  0  0  0  0  0  0  0  0
   -8.3382   21.6184  -31.6335 H   0  0  0  0  0  0  0  0  0  0  0  0
   -7.7772   21.5310  -33.3767 H   0  0  0  0  0  0  0  0  0  0  0  0
   -4.3137   21.0005  -32.3694 H   0  0  0  0  0  0  0  0  0  0  0  0
   -5.2906   20.0622  -33.5493 H   0  0  0  0  0  0  0  0  0  0  0  0
   -5.3631   21.8570  -33.5493 H   0  0  0  0  0  0  0  0  0  0  0  0
   -6.8399   19.3740  -30.5934 H   0  0  0  0  0  0  0  0  0  0  0  0
   -7.7843   19.3487  -32.1212 H   0  0  0  0  0  0  0  0  0  0  0  0
   -6.0622   18.8376  -32.1212 H   0  0  0  0  0  0  0  0  0  0  0  0
  1  2  2  0
  2  3  1  0
  3  4  2  0
  3  5  1  0
  5  6  1  0
  6  7  1  0
  7  8  1  0
  8  9  1  0
  9 10  1  0
 10 11  1  0
 11 12  1  0
 11 13  1  0
  1 14  1  0
  1 15  1  0
  2 16  1  0
  6 17  1  0
  6 18  1  0
  7 19  1  0
  7 20  1  0
  8 21  1  0
  8 22  1  0
  9 23  1  0
  9 24  1  0
 10 25  1  0
 10 26  1  0
 12 27  1  0
 12 28  1  0
 12 29  1  0
 13 30  1  0
 13 31  1  0
 13 32  1  0
M  CHG  2   5  -1   8   1
M  END
>  <UniqueID>  (41) 
39

>  <SMILES>  (41) 
C=CC(=O)[N-]CC[NH2+]CCN(C)C

>  <Energy>  (41) 
29.481273221144683

>  <Genealogy>  (41) 
C=CC(=O)[N-]CC[NH2+]CCN(C)C (protonated)
C=CC(=O)[N-]CC[NH2+]CCN(C)C (3D coordinates assigned)
C=CC(=O)[N-]CC[NH2+]CCN(C)C (optimized conformer: 29.481273221144683 kcal/mol)

>  <smiles>  (41) 
C=CC(=O)NCCNCCN(C)C

>  <score_type>  (41) 
oracle

>  <origin>  (41) 
adg

>  <m_score__min__energy>  (41) 
-5.29

>  <m_primary>  (41) 
energy

$$$$
41:0
     RDKit          3D

 41 43  0  0  0  0  0  0  0  0999 V2000
   -5.8460   26.7280  -29.1000 H   0  0  0  0  0  0  0  0  0  0  0  0
   -5.6990   26.3420  -30.0580 N   0  0  0  0  0  0  0  0  0  0  0  0
   -5.1380   25.1950  -30.2780 C   0  0  0  0  0  0  0  0  0  0  0  0
   -3.8120   24.9890  -30.0970 N   0  0  0  0  0  0  0  0  0  0  0  0
   -3.0900   25.6770  -29.7850 H   0  0  0  0  0  0  0  0  0  0  0  0
   -3.6440   23.6860  -30.3750 C   0  0  0  0  0  0  0  0  0  0  0  0
   -2.4700   22.9380  -30.3140 C   0  0  0  0  0  0  0  0  0  0  0  0
   -1.5125   23.4024  -30.0357 H   0  0  0  0  0  0  0  0  0  0  0  0
   -2.5530   21.5680  -30.6210 C   0  0  0  0  0  0  0  0  0  0  0  0
   -1.6465   20.9457  -30.5887 H   0  0  0  0  0  0  0  0  0  0  0  0
   -3.7930   20.9840  -30.9710 C   0  0  0  0  0  0  0  0  0  0  0  0
   -3.8442   19.9107  -31.2065 H   0  0  0  0  0  0  0  0  0  0  0  0
   -4.9620   21.7670  -31.0200 C   0  0  0  0  0  0  0  0  0  0  0  0
   -5.9331   21.3236  -31.2853 H   0  0  0  0  0  0  0  0  0  0  0  0
   -4.8460   23.1270  -30.7200 C   0  0  0  0  0  0  0  0  0  0  0  0
   -5.8050   24.0750  -30.6790 N   0  0  0  0  0  0  0  0  0  0  0  0
   -7.2430   23.8960  -30.9020 C   0  0  0  0  0  0  0  0  0  0  0  0
   -7.6773   23.3472  -30.0533 H   0  0  0  0  0  0  0  0  0  0  0  0
   -7.7191   24.8835  -30.9921 H   0  0  0  0  0  0  0  0  0  0  0  0
   -7.4810   23.1050  -32.1920 C   0  0  0  0  0  0  0  0  0  0  0  0
   -7.8660   23.7896  -32.9621 H   0  0  0  0  0  0  0  0  0  0  0  0
   -6.5231   22.6589  -32.4978 H   0  0  0  0  0  0  0  0  0  0  0  0
   -8.4920   21.9650  -31.9920 C   0  0  0  0  0  0  0  0  0  0  0  0
   -9.0249   22.1255  -31.0432 H   0  0  0  0  0  0  0  0  0  0  0  0
   -9.1863   21.9735  -32.8452 H   0  0  0  0  0  0  0  0  0  0  0  0
   -7.8340   20.6400  -31.9520 N   0  0  0  0  0  0  0  0  0  0  0  0
   -7.1320   20.3770  -33.2250 C   0  0  0  0  0  0  0  0  0  0  0  0
   -7.8741   20.2000  -34.0175 H   0  0  0  0  0  0  0  0  0  0  0  0
   -6.5104   21.2495  -33.4747 H   0  0  0  0  0  0  0  0  0  0  0  0
   -6.2240   19.1400  -33.0960 C   0  0  0  0  0  0  0  0  0  0  0  0
   -6.1818   18.6299  -34.0697 H   0  0  0  0  0  0  0  0  0  0  0  0
   -5.2294   19.4862  -32.7783 H   0  0  0  0  0  0  0  0  0  0  0  0
   -6.7330   18.1460  -32.0400 C   0  0  0  0  0  0  0  0  0  0  0  0
   -6.3841   17.1353  -32.2985 H   0  0  0  0  0  0  0  0  0  0  0  0
   -6.3426   18.4465  -31.0565 H   0  0  0  0  0  0  0  0  0  0  0  0
   -8.2610   18.1490  -31.9820 C   0  0  0  0  0  0  0  0  0  0  0  0
   -8.6577   17.8306  -32.9573 H   0  0  0  0  0  0  0  0  0  0  0  0
   -8.5808   17.4574  -31.1887 H   0  0  0  0  0  0  0  0  0  0  0  0
   -8.8050   19.5570  -31.6520 C   0  0  0  0  0  0  0  0  0  0  0  0
   -9.7156   19.7287  -32.2448 H   0  0  0  0  0  0  0  0  0  0  0  0
   -9.0067   19.5865  -30.5711 H   0  0  0  0  0  0  0  0  0  0  0  0
  1  2  1  0
  2  3  2  0
  3  4  1  0
  4  5  1  0
  4  6  1  0
  6  7  2  0
  7  8  1  0
  7  9  1  0
  9 10  1  0
  9 11  2  0
 11 12  1  0
 11 13  1  0
 13 14  1  0
 13 15  2  0
 15 16  1  0
 16 17  1  0
 17 18  1  0
 17 19  1  0
 17 20  1  0
 20 21  1  0
 20 22  1  0
 20 23  1  0
 23 24  1  0
 23 25  1  0
 23 26  1  0
 26 27  1  0
 27 28  1  0
 27 29  1  0
 27 30  1  0
 30 31  1  0
 30 32  1  0
 30 33  1  0
 33 34  1  0
 33 35  1  0
 33 36  1  0
 36 37  1  0
 36 38  1  0
 36 39  1  0
 39 40  1  0
 39 41  1  0
 16  3  1  0
 39 26  1  0
 15  6  1  0
M  END
>  <UniqueID>  (42) 
40

>  <SMILES>  (42) 
[H]/N=c1/[nH]c2ccccc2n1CCCN1CCCCC1

>  <Energy>  (42) 
82.8547500253292

>  <Genealogy>  (42) 
[H]/N=c1/[nH]c2ccccc2n1CCCN1CCCCC1 (cis-trans isomerization)
[H]/N=c1/[nH]c2ccccc2n1CCCN1CCCCC1 (3D coordinates assigned)
[H]/N=c1/[nH]c2ccccc2n1CCCN1CCCCC1 (nonaromatic ring conformer: 82.8547500253292 kcal/mol)

>  <smiles>  (42) 
N=c1[nH]c2ccccc2n1CCCN1CCCCC1

>  <score_type>  (42) 
oracle

>  <origin>  (42) 
adg

>  <m_score__min__energy>  (42) 
-8.0600000000000005

>  <m_primary>  (42) 
energy

$$$$
42:0
     RDKit          3D

 30 33  0  0  0  0  0  0  0  0999 V2000
   -5.1360   19.6020  -32.7680 C   0  0  0  0  0  0  0  0  0  0  0  0
   -6.6190   19.6460  -32.5850 C   0  0  0  0  0  0  0  0  0  0  0  0
   -7.4430   18.5080  -32.6360 C   0  0  0  0  0  0  0  0  0  0  0  0
   -9.0650   18.9580  -32.3170 S   0  0  0  0  0  0  0  0  0  0  0  0
   -8.6170   20.5600  -32.1350 C   0  0  0  0  0  0  0  0  0  0  0  0
   -9.3150   21.6750  -31.8690 N   0  0  0  0  0  0  0  0  0  0  0  0
   -8.4070   22.6520  -31.8810 N   0  0  0  0  0  0  0  0  0  0  0  0
   -7.1950   22.0980  -32.1460 C   0  0  0  0  0  0  0  0  0  0  0  0
   -5.9500   22.9060  -32.3600 C   0  0  0  0  0  0  0  0  0  0  0  0
   -6.1150   24.5400  -31.5620 S   0  0  0  0  0  0  0  0  0  0  0  0
   -4.8600   24.2270  -30.3250 C   0  0  0  0  0  0  0  0  0  0  0  0
   -3.6900   24.9060  -30.2700 N   0  0  0  0  0  0  0  0  0  0  0  0
   -2.9070   24.4330  -29.2680 C   0  0  0  0  0  0  0  0  0  0  0  0
   -1.6280   24.9080  -28.9760 C   0  0  0  0  0  0  0  0  0  0  0  0
   -0.9140   24.3170  -27.9190 C   0  0  0  0  0  0  0  0  0  0  0  0
   -1.4820   23.2650  -27.1730 C   0  0  0  0  0  0  0  0  0  0  0  0
   -2.7680   22.7930  -27.4790 C   0  0  0  0  0  0  0  0  0  0  0  0
   -3.4550   23.3950  -28.5290 C   0  0  0  0  0  0  0  0  0  0  0  0
   -4.9800   23.0310  -29.1330 S   0  0  0  0  0  0  0  0  0  0  0  0
   -7.3290   20.7680  -32.3080 N   0  0  0  0  0  0  0  0  0  0  0  0
   -4.6454   19.5874  -31.7836 H   0  0  0  0  0  0  0  0  0  0  0  0
   -4.8623   18.6953  -33.3275 H   0  0  0  0  0  0  0  0  0  0  0  0
   -4.8091   20.4908  -33.3275 H   0  0  0  0  0  0  0  0  0  0  0  0
   -7.0989   17.4850  -32.8483 H   0  0  0  0  0  0  0  0  0  0  0  0
   -5.0917   22.3736  -31.9242 H   0  0  0  0  0  0  0  0  0  0  0  0
   -5.7947   23.0475  -33.4397 H   0  0  0  0  0  0  0  0  0  0  0  0
   -1.1871   25.7285  -29.5612 H   0  0  0  0  0  0  0  0  0  0  0  0
    0.0953   24.6783  -27.6725 H   0  0  0  0  0  0  0  0  0  0  0  0
   -0.9148   22.8115  -26.3468 H   0  0  0  0  0  0  0  0  0  0  0  0
   -3.2200   21.9706  -26.9051 H   0  0  0  0  0  0  0  0  0  0  0  0
  1  2  1  0
  2  3  2  0
  3  4  1  0
  4  5  1  0
  5  6  2  0
  6  7  1  0
  7  8  2  0
  8  9  1  0
  9 10  1  0
 10 11  1  0
 11 12  2  0
 12 13  1  0
 13 14  2  0
 14 15  1  0
 15 16  2  0
 16 17  1  0
 17 18  2  0
 18 19  1  0
  8 20  1  0
 20  2  1  0
 20  5  1  0
 19 11  1  0
 18 13  1  0
  1 21  1  0
  1 22  1  0
  1 23  1  0
  3 24  1  0
  9 25  1  0
  9 26  1  0
 14 27  1  0
 15 28  1  0
 16 29  1  0
 17 30  1  0
M  END
>  <UniqueID>  (43) 
41

>  <SMILES>  (43) 
Cc1csc2nnc(CSc3nc4ccccc4s3)n12

>  <Energy>  (43) 
147.9625214822007

>  <Genealogy>  (43) 
Cc1csc2nnc(CSc3nc4ccccc4s3)n12 (3D coordinates assigned)
Cc1csc2nnc(CSc3nc4ccccc4s3)n12 (optimized conformer: 147.9625214822007 kcal/mol)

>  <smiles>  (43) 
Cc1csc2nnc(CSc3nc4ccccc4s3)n12

>  <score_type>  (43) 
oracle

>  <origin>  (43) 
adg

>  <m_score__min__energy>  (43) 
-8.1600000000000001

>  <m_primary>  (43) 
energy

$$$$
43:0
     RDKit          3D

 15 15  0  0  0  0  0  0  0  0999 V2000
   -0.8670   22.4030  -25.9690 C   0  0  0  0  0  0  0  0  0  0  0  0
   -0.1020   22.9440  -24.4100 S   0  0  0  0  0  0  0  0  0  0  0  0
   -0.5430   24.6660  -24.6560 C   0  0  0  0  0  0  0  0  0  0  0  0
   -1.2010   25.0650  -25.8240 C   0  0  0  0  0  0  0  0  0  0  0  0
   -1.5250   26.3740  -25.9960 N   0  0  0  0  0  0  0  0  0  0  0  0
   -1.2200   27.3020  -25.0510 C   0  0  0  0  0  0  0  0  0  0  0  0
   -0.5610   26.9060  -23.8860 C   0  0  0  0  0  0  0  0  0  0  0  0
   -0.2350   25.5970  -23.7120 N   0  0  0  0  0  0  0  0  0  0  0  0
   -1.7470   21.7807  -25.7490 H   0  0  0  0  0  0  0  0  0  0  0  0
   -1.1769   23.2839  -26.5504 H   0  0  0  0  0  0  0  0  0  0  0  0
   -0.1398   21.8173  -26.5504 H   0  0  0  0  0  0  0  0  0  0  0  0
   -1.4544   24.3252  -26.5976 H   0  0  0  0  0  0  0  0  0  0  0  0
   -1.4905   28.3573  -25.2031 H   0  0  0  0  0  0  0  0  0  0  0  0
   -0.3071   27.6474  -23.1140 H   0  0  0  0  0  0  0  0  0  0  0  0
    0.2580   25.3070  -22.8380 H   0  0  0  0  0  0  0  0  0  0  0  0
  1  2  1  0
  2  3  1  0
  3  4  2  0
  4  5  1  0
  5  6  2  0
  6  7  1  0
  7  8  2  0
  8  3  1  0
  1  9  1  0
  1 10  1  0
  1 11  1  0
  4 12  1  0
  6 13  1  0
  7 14  1  0
  8 15  1  0
M  CHG  1   8   1
M  END
>  <UniqueID>  (44) 
42

>  <SMILES>  (44) 
CSc1cncc[nH+]1

>  <Energy>  (44) 
10.430373510232672

>  <Genealogy>  (44) 
CSc1cncc[nH+]1 (protonated)
CSc1cncc[nH+]1 (3D coordinates assigned)
CSc1cncc[nH+]1 (optimized conformer: 10.430373510232672 kcal/mol)

>  <smiles>  (44) 
CSc1cnccn1

>  <score_type>  (44) 
oracle

>  <origin>  (44) 
adg

>  <m_score__min__energy>  (44) 
-3.54

>  <m_primary>  (44) 
energy

$$$$
44:0
     RDKit          3D

 66 69  0  0  0  0  0  0  0  0999 V2000
    2.3340   21.6220  -35.3280 C   0  0  0  0  0  0  0  0  0  0  0  0
    1.1860   21.9150  -34.5360 O   0  0  0  0  0  0  0  0  0  0  0  0
    0.0870   21.0560  -34.3850 C   0  0  0  0  0  0  0  0  0  0  0  0
    0.2440   19.7110  -34.7200 C   0  0  0  0  0  0  0  0  0  0  0  0
   -0.8180   18.8120  -34.5850 C   0  0  0  0  0  0  0  0  0  0  0  0
   -2.0780   19.2350  -34.0990 C   0  0  0  0  0  0  0  0  0  0  0  0
   -3.1910   18.2950  -33.9480 N   0  0  0  0  0  0  0  0  0  0  0  0
   -3.2790   17.4890  -32.7100 C   0  0  0  0  0  0  0  0  0  0  0  0
   -4.4090   16.4530  -32.6930 C   0  0  0  0  0  0  0  0  0  0  0  0
   -5.6320   16.9120  -33.3630 N   0  0  0  0  0  0  0  0  0  0  0  0
   -6.2920   17.9970  -32.6560 C   0  0  0  0  0  0  0  0  0  0  0  0
   -6.3160   18.0230  -31.4320 O   0  0  0  0  0  0  0  0  0  0  0  0
   -6.9360   19.1190  -33.4350 C   0  0  0  0  0  0  0  0  0  0  0  0
   -7.0570   20.3490  -32.6210 N   0  0  0  0  0  0  0  0  0  0  0  0
   -8.2420   20.6620  -31.9860 C   0  0  0  0  0  0  0  0  0  0  0  0
   -9.4580   19.7700  -32.0760 C   0  0  0  0  0  0  0  0  0  0  0  0
   -8.3540   21.8590  -31.2680 C   0  0  0  0  0  0  0  0  0  0  0  0
   -7.2560   22.6990  -31.1420 C   0  0  0  0  0  0  0  0  0  0  0  0
   -6.0340   22.3440  -31.7060 C   0  0  0  0  0  0  0  0  0  0  0  0
   -4.9250   23.2390  -31.5360 N   0  0  0  0  0  0  0  0  0  0  0  0
   -4.7280   24.3880  -30.2470 S   0  0  0  0  0  0  0  0  0  0  0  0
   -4.1720   25.6590  -30.8240 O   0  0  0  0  0  0  0  0  0  0  0  0
   -6.0490   24.6990  -29.6020 O   0  0  0  0  0  0  0  0  0  0  0  0
   -3.5830   23.7600  -29.0280 C   0  0  0  0  0  0  0  0  0  0  0  0
   -2.7040   22.6930  -29.6140 C   0  0  0  0  0  0  0  0  0  0  0  0
   -3.2250   21.4180  -29.8910 C   0  0  0  0  0  0  0  0  0  0  0  0
   -2.3950   20.4110  -30.3940 C   0  0  0  0  0  0  0  0  0  0  0  0
   -1.0400   20.6700  -30.6210 C   0  0  0  0  0  0  0  0  0  0  0  0
   -0.5130   21.9340  -30.3440 C   0  0  0  0  0  0  0  0  0  0  0  0
   -1.3390   22.9440  -29.8410 C   0  0  0  0  0  0  0  0  0  0  0  0
   -5.9540   21.1630  -32.4700 C   0  0  0  0  0  0  0  0  0  0  0  0
   -4.8700   20.8640  -33.0360 O   0  0  0  0  0  0  0  0  0  0  0  0
   -5.3540   17.2260  -34.7710 C   0  0  0  0  0  0  0  0  0  0  0  0
   -4.2640   18.2910  -34.9670 C   0  0  0  0  0  0  0  0  0  0  0  0
   -2.2220   20.6050  -33.7730 C   0  0  0  0  0  0  0  0  0  0  0  0
   -1.1570   21.4990  -33.9120 C   0  0  0  0  0  0  0  0  0  0  0  0
    3.1878   21.4041  -34.6696 H   0  0  0  0  0  0  0  0  0  0  0  0
    2.1280   20.7476  -35.9629 H   0  0  0  0  0  0  0  0  0  0  0  0
    2.5723   22.4881  -35.9629 H   0  0  0  0  0  0  0  0  0  0  0  0
    1.2145   19.3537  -35.0947 H   0  0  0  0  0  0  0  0  0  0  0  0
   -0.6717   17.7574  -34.8614 H   0  0  0  0  0  0  0  0  0  0  0  0
   -2.3253   16.9565  -32.5805 H   0  0  0  0  0  0  0  0  0  0  0  0
   -3.4968   18.1964  -31.8963 H   0  0  0  0  0  0  0  0  0  0  0  0
   -4.0550   15.5428  -33.1991 H   0  0  0  0  0  0  0  0  0  0  0  0
   -4.6656   16.2702  -31.6391 H   0  0  0  0  0  0  0  0  0  0  0  0
   -6.2870   16.0940  -33.3710 H   0  0  0  0  0  0  0  0  0  0  0  0
   -6.3217   19.3366  -34.3212 H   0  0  0  0  0  0  0  0  0  0  0  0
   -7.9472   18.7988  -33.7264 H   0  0  0  0  0  0  0  0  0  0  0  0
   -9.8029   19.5170  -31.0626 H   0  0  0  0  0  0  0  0  0  0  0  0
  -10.2595   20.2960  -32.6155 H   0  0  0  0  0  0  0  0  0  0  0  0
   -9.1970   18.8476  -32.6155 H   0  0  0  0  0  0  0  0  0  0  0  0
   -9.3125   22.1338  -30.8036 H   0  0  0  0  0  0  0  0  0  0  0  0
   -7.3520   23.6483  -30.5946 H   0  0  0  0  0  0  0  0  0  0  0  0
   -2.9533   24.5864  -28.6667 H   0  0  0  0  0  0  0  0  0  0  0  0
   -4.1589   23.3231  -28.1989 H   0  0  0  0  0  0  0  0  0  0  0  0
   -4.2903   21.2109  -29.7115 H   0  0  0  0  0  0  0  0  0  0  0  0
   -2.8084   19.4150  -30.6111 H   0  0  0  0  0  0  0  0  0  0  0  0
   -0.3882   19.8779  -31.0181 H   0  0  0  0  0  0  0  0  0  0  0  0
    0.5537   22.1350  -30.5219 H   0  0  0  0  0  0  0  0  0  0  0  0
   -0.9200   23.9373  -29.6223 H   0  0  0  0  0  0  0  0  0  0  0  0
   -5.0311   16.3029  -35.2746 H   0  0  0  0  0  0  0  0  0  0  0  0
   -6.2818   17.6362  -35.1963 H   0  0  0  0  0  0  0  0  0  0  0  0
   -3.7985   18.1236  -35.9495 H   0  0  0  0  0  0  0  0  0  0  0  0
   -4.7704   19.2634  -34.8781 H   0  0  0  0  0  0  0  0  0  0  0  0
   -3.1905   20.9728  -33.4033 H   0  0  0  0  0  0  0  0  0  0  0  0
   -1.2953   22.5580  -33.6485 H   0  0  0  0  0  0  0  0  0  0  0  0
  1  2  1  0
  2  3  1  0
  3  4  2  0
  4  5  1  0
  5  6  2  0
  6  7  1  0
  7  8  1  0
  8  9  1  0
  9 10  1  0
 10 11  1  0
 11 12  2  0
 11 13  1  0
 13 14  1  0
 14 15  1  0
 15 16  1  0
 15 17  2  0
 17 18  1  0
 18 19  2  0
 19 20  1  0
 20 21  1  0
 21 22  2  0
 21 23  2  0
 21 24  1  0
 24 25  1  0
 25 26  2  0
 26 27  1  0
 27 28  2  0
 28 29  1  0
 29 30  2  0
 19 31  1  0
 31 32  2  0
 10 33  1  0
 33 34  1  0
  6 35  1  0
 35 36  2  0
 36  3  1  0
 34  7  1  0
 31 14  1  0
 30 25  1  0
  1 37  1  0
  1 38  1  0
  1 39  1  0
  4 40  1  0
  5 41  1  0
  8 42  1  0
  8 43  1  0
  9 44  1  0
  9 45  1  0
 10 46  1  0
 13 47  1  0
 13 48  1  0
 16 49  1  0
 16 50  1  0
 16 51  1  0
 17 52  1  0
 18 53  1  0
 24 54  1  0
 24 55  1  0
 26 56  1  0
 27 57  1  0
 28 58  1  0
 29 59  1  0
 30 60  1  0
 33 61  1  0
 33 62  1  0
 34 63  1  0
 34 64  1  0
 35 65  1  0
 36 66  1  0
M  CHG  2  10   1  20  -1
M  END
>  <UniqueID>  (45) 
43

>  <SMILES>  (45) 
COc1ccc(N2CC[NH+](C(=O)Cn3c(C)ccc([N-]S(=O)(=O)Cc4ccccc4)c3=O)CC2)cc1

>  <Energy>  (45) 
88.0222643450252

>  <Genealogy>  (45) 
COc1ccc(N2CC[NH+](C(=O)Cn3c(C)ccc([N-]S(=O)(=O)Cc4ccccc4)c3=O)CC2)cc1 (protonated)
COc1ccc(N2CC[NH+](C(=O)Cn3c(C)ccc([N-]S(=O)(=O)Cc4ccccc4)c3=O)CC2)cc1 (3D coordinates assigned)
COc1ccc(N2CC[NH+](C(=O)Cn3c(C)ccc([N-]S(=O)(=O)Cc4ccccc4)c3=O)CC2)cc1 (nonaromatic ring conformer: 88.0222643450252 kcal/mol)

>  <smiles>  (45) 
COc1ccc(N2CCN(C(=O)Cn3c(C)ccc(NS(=O)(=O)Cc4ccccc4)c3=O)CC2)cc1

>  <score_type>  (45) 
oracle

>  <origin>  (45) 
adg

>  <m_score__min__energy>  (45) 
-10.369999999999999

>  <m_primary>  (45) 
energy

$$$$
45:0
     RDKit          3D

 32 34  0  0  0  0  0  0  0  0999 V2000
   -1.3020   25.0630  -26.4470 C   0  0  0  0  0  0  0  0  0  0  0  0
   -1.1240   25.0830  -28.2160 S   0  0  0  0  0  0  0  0  0  0  0  0
   -1.1540   26.5030  -28.7080 O   0  0  0  0  0  0  0  0  0  0  0  0
    0.1960   24.4700  -28.5960 O   0  0  0  0  0  0  0  0  0  0  0  0
   -2.4390   24.1700  -28.9470 C   0  0  0  0  0  0  0  0  0  0  0  0
   -3.7160   24.1900  -28.3730 C   0  0  0  0  0  0  0  0  0  0  0  0
   -4.7570   23.4540  -28.9450 C   0  0  0  0  0  0  0  0  0  0  0  0
   -4.5330   22.6810  -30.0960 C   0  0  0  0  0  0  0  0  0  0  0  0
   -5.6040   21.9220  -30.6840 N   0  0  0  0  0  0  0  0  0  0  0  0
   -5.5390   20.6060  -31.2480 C   0  0  0  0  0  0  0  0  0  0  0  0
   -4.5050   19.8880  -31.2680 O   0  0  0  0  0  0  0  0  0  0  0  0
   -6.8540   20.2070  -31.7370 C   0  0  0  0  0  0  0  0  0  0  0  0
   -7.2760   19.0310  -32.3540 C   0  0  0  0  0  0  0  0  0  0  0  0
   -8.6300   18.9280  -32.7220 C   0  0  0  0  0  0  0  0  0  0  0  0
   -9.5230   19.9900  -32.4660 C   0  0  0  0  0  0  0  0  0  0  0  0
   -9.0730   21.1660  -31.8400 C   0  0  0  0  0  0  0  0  0  0  0  0
   -7.7270   21.2440  -31.4860 C   0  0  0  0  0  0  0  0  0  0  0  0
   -6.9740   22.3110  -30.8370 C   0  0  0  0  0  0  0  0  0  0  0  0
   -7.4390   23.4340  -30.5040 O   0  0  0  0  0  0  0  0  0  0  0  0
   -3.2490   22.6570  -30.6620 C   0  0  0  0  0  0  0  0  0  0  0  0
   -2.2080   23.3950  -30.0910 C   0  0  0  0  0  0  0  0  0  0  0  0
   -0.3133   25.1741  -25.9777 H   0  0  0  0  0  0  0  0  0  0  0  0
   -1.9517   25.8938  -26.1344 H   0  0  0  0  0  0  0  0  0  0  0  0
   -1.7511   24.1087  -26.1344 H   0  0  0  0  0  0  0  0  0  0  0  0
   -3.9005   24.7876  -27.4681 H   0  0  0  0  0  0  0  0  0  0  0  0
   -5.7585   23.4802  -28.4908 H   0  0  0  0  0  0  0  0  0  0  0  0
   -6.5719   18.2083  -32.5474 H   0  0  0  0  0  0  0  0  0  0  0  0
   -8.9949   18.0135  -33.2125 H   0  0  0  0  0  0  0  0  0  0  0  0
  -10.5794   19.8973  -32.7584 H   0  0  0  0  0  0  0  0  0  0  0  0
   -9.7620   21.9988  -31.6359 H   0  0  0  0  0  0  0  0  0  0  0  0
   -3.0603   22.0529  -31.5617 H   0  0  0  0  0  0  0  0  0  0  0  0
   -1.2047   23.3671  -30.5412 H   0  0  0  0  0  0  0  0  0  0  0  0
  1  2  1  0
  2  3  2  0
  2  4  2  0
  2  5  1  0
  5  6  2  0
  6  7  1  0
  7  8  2  0
  8  9  1  0
  9 10  1  0
 10 11  2  0
 10 12  1  0
 12 13  2  0
 13 14  1  0
 14 15  2  0
 15 16  1  0
 16 17  2  0
 17 18  1  0
 18 19  2  0
  8 20  1  0
 20 21  2  0
 21  5  1  0
 18  9  1  0
 17 12  1  0
  1 22  1  0
  1 23  1  0
  1 24  1  0
  6 25  1  0
  7 26  1  0
 13 27  1  0
 14 28  1  0
 15 29  1  0
 16 30  1  0
 20 31  1  0
 21 32  1  0
M  END
>  <UniqueID>  (46) 
44

>  <SMILES>  (46) 
CS(=O)(=O)c1ccc(N2C(=O)c3ccccc3C2=O)cc1

>  <Energy>  (46) 
68.8856142926445

>  <Genealogy>  (46) 
CS(=O)(=O)c1ccc(N2C(=O)c3ccccc3C2=O)cc1 (3D coordinates assigned)
CS(=O)(=O)c1ccc(N2C(=O)c3ccccc3C2=O)cc1 (nonaromatic ring conformer: 68.8856142926445 kcal/mol)

>  <smiles>  (46) 
CS(=O)(=O)c1ccc(N2C(=O)c3ccccc3C2=O)cc1

>  <score_type>  (46) 
oracle

>  <origin>  (46) 
adg

>  <m_score__min__energy>  (46) 
-7.8399999999999999

>  <m_primary>  (46) 
energy

$$$$
46:0
     RDKit          3D

 52 52  0  0  0  0  0  0  0  0999 V2000
   -9.1120   19.3650  -32.2710 C   0  0  0  0  0  0  0  0  0  0  0  0
   -7.7450   19.0750  -31.6590 C   0  0  0  0  0  0  0  0  0  0  0  0
   -6.6960   19.8110  -32.3770 N   0  0  0  0  0  0  0  0  0  0  0  0
   -6.8560   19.6900  -33.8350 C   0  0  0  0  0  0  0  0  0  0  0  0
   -5.9270   18.6050  -34.3960 C   0  0  0  0  0  0  0  0  0  0  0  0
   -4.5810   18.5400  -33.6490 C   0  0  0  0  0  0  0  0  0  0  0  0
   -4.2560   19.8070  -32.9700 N   0  0  0  0  0  0  0  0  0  0  0  0
   -2.8190   20.1330  -33.0450 C   0  0  0  0  0  0  0  0  0  0  0  0
   -2.5430   21.5880  -32.6030 C   0  0  0  0  0  0  0  0  0  0  0  0
   -2.5920   21.7870  -31.0780 C   0  0  0  0  0  0  0  0  0  0  0  0
   -4.0160   21.9930  -30.5450 C   0  0  0  0  0  0  0  0  0  0  0  0
   -4.9910   21.8760  -31.6410 N   0  0  0  0  0  0  0  0  0  0  0  0
   -5.5370   23.1890  -32.0490 C   0  0  0  0  0  0  0  0  0  0  0  0
   -5.2920   24.2470  -30.9340 C   0  0  0  0  0  0  0  0  0  0  0  0
   -6.4350   24.3450  -29.8980 C   0  0  0  0  0  0  0  0  0  0  0  0
   -7.2250   23.0380  -29.7760 C   0  0  0  0  0  0  0  0  0  0  0  0
   -7.8480   22.6130  -31.1210 C   0  0  0  0  0  0  0  0  0  0  0  0
   -7.0510   23.1100  -32.3440 C   0  0  0  0  0  0  0  0  0  0  0  0
   -9.8475   19.5210  -31.4681 H   0  0  0  0  0  0  0  0  0  0  0  0
   -9.0507   20.2701  -32.8931 H   0  0  0  0  0  0  0  0  0  0  0  0
   -9.4235   18.5129  -32.8931 H   0  0  0  0  0  0  0  0  0  0  0  0
   -7.7474   19.3847  -30.6035 H   0  0  0  0  0  0  0  0  0  0  0  0
   -7.5410   17.9968  -31.7361 H   0  0  0  0  0  0  0  0  0  0  0  0
   -6.8010   20.8230  -32.1320 H   0  0  0  0  0  0  0  0  0  0  0  0
   -7.8990   19.4250  -34.0628 H   0  0  0  0  0  0  0  0  0  0  0  0
   -6.5957   20.6524  -34.2998 H   0  0  0  0  0  0  0  0  0  0  0  0
   -6.4282   17.6299  -34.3063 H   0  0  0  0  0  0  0  0  0  0  0  0
   -5.7158   18.8547  -35.4463 H   0  0  0  0  0  0  0  0  0  0  0  0
   -4.6322   17.7388  -32.8971 H   0  0  0  0  0  0  0  0  0  0  0  0
   -3.7933   18.3446  -34.3915 H   0  0  0  0  0  0  0  0  0  0  0  0
   -4.5470   19.7130  -31.9700 H   0  0  0  0  0  0  0  0  0  0  0  0
   -4.8150   20.5870  -33.3920 H   0  0  0  0  0  0  0  0  0  0  0  0
   -2.2627   19.4484  -32.3878 H   0  0  0  0  0  0  0  0  0  0  0  0
   -2.4949   20.0232  -34.0904 H   0  0  0  0  0  0  0  0  0  0  0  0
   -1.5431   21.8763  -32.9596 H   0  0  0  0  0  0  0  0  0  0  0  0
   -3.3374   22.2135  -33.0362 H   0  0  0  0  0  0  0  0  0  0  0  0
   -2.1622   20.8973  -30.5945 H   0  0  0  0  0  0  0  0  0  0  0  0
   -2.0195   22.6974  -30.8467 H   0  0  0  0  0  0  0  0  0  0  0  0
   -4.2326   21.2298  -29.7830 H   0  0  0  0  0  0  0  0  0  0  0  0
   -4.0919   22.9974  -30.1029 H   0  0  0  0  0  0  0  0  0  0  0  0
   -5.7850   21.2990  -31.2740 H   0  0  0  0  0  0  0  0  0  0  0  0
   -5.0151   23.4868  -32.9704 H   0  0  0  0  0  0  0  0  0  0  0  0
   -4.3658   23.9818  -30.4031 H   0  0  0  0  0  0  0  0  0  0  0  0
   -5.2294   25.2257  -31.4322 H   0  0  0  0  0  0  0  0  0  0  0  0
   -6.0025   24.5895  -28.9166 H   0  0  0  0  0  0  0  0  0  0  0  0
   -7.1300   25.1270  -30.2377 H   0  0  0  0  0  0  0  0  0  0  0  0
   -6.5465   22.2435  -29.4319 H   0  0  0  0  0  0  0  0  0  0  0  0
   -8.0428   23.2005  -29.0585 H   0  0  0  0  0  0  0  0  0  0  0  0
   -7.8909   21.5144  -31.1547 H   0  0  0  0  0  0  0  0  0  0  0  0
   -8.8481   23.0676  -31.1760 H   0  0  0  0  0  0  0  0  0  0  0  0
   -7.2147   22.4160  -33.1816 H   0  0  0  0  0  0  0  0  0  0  0  0
   -7.4037   24.1215  -32.5937 H   0  0  0  0  0  0  0  0  0  0  0  0
  1  2  1  0
  2  3  1  0
  3  4  1  0
  4  5  1  0
  5  6  1  0
  6  7  1  0
  7  8  1  0
  8  9  1  0
  9 10  1  0
 10 11  1  0
 11 12  1  0
 12 13  1  0
 13 14  1  0
 14 15  1  0
 15 16  1  0
 16 17  1  0
 17 18  1  0
 18 13  1  0
  1 19  1  0
  1 20  1  0
  1 21  1  0
  2 22  1  0
  2 23  1  0
  3 24  1  0
  4 25  1  0
  4 26  1  0
  5 27  1  0
  5 28  1  0
  6 29  1  0
  6 30  1  0
  7 31  1  0
  7 32  1  0
  8 33  1  0
  8 34  1  0
  9 35  1  0
  9 36  1  0
 10 37  1  0
 10 38  1  0
 11 39  1  0
 11 40  1  0
 12 41  1  0
 13 42  1  0
 14 43  1  0
 14 44  1  0
 15 45  1  0
 15 46  1  0
 16 47  1  0
 16 48  1  0
 17 49  1  0
 17 50  1  0
 18 51  1  0
 18 52  1  0
M  CHG  1   7   1
M  END
>  <UniqueID>  (47) 
45

>  <SMILES>  (47) 
CCNCCC[NH2+]CCCCNC1CCCCC1

>  <Energy>  (47) 
42.67151870285819

>  <Genealogy>  (47) 
CCNCCC[NH2+]CCCCNC1CCCCC1 (protonated)
CCNCCC[NH2+]CCCCNC1CCCCC1 (3D coordinates assigned)
CCNCCC[NH2+]CCCCNC1CCCCC1 (nonaromatic ring conformer: 42.67151870285819 kcal/mol)

>  <smiles>  (47) 
CCNCCCNCCCCNC1CCCCC1

>  <score_type>  (47) 
oracle

>  <origin>  (47) 
adg

>  <m_score__min__energy>  (47) 
-6.1900000000000004

>  <m_primary>  (47) 
energy

$$$$
47:0
     RDKit          3D

 42 45  0  0  0  0  0  0  0  0999 V2000
   -6.0120   25.2830  -29.2620 O   0  0  0  0  0  0  0  0  0  0  0  0
   -4.9990   24.5120  -30.0600 S   0  0  0  0  0  0  0  0  0  0  0  0
   -4.4990   25.3870  -31.1760 O   0  0  0  0  0  0  0  0  0  0  0  0
   -3.6750   24.0370  -29.0020 C   0  0  0  0  0  0  0  0  0  0  0  0
   -2.3760   24.5130  -29.2280 C   0  0  0  0  0  0  0  0  0  0  0  0
   -1.3270   24.1140  -28.3940 C   0  0  0  0  0  0  0  0  0  0  0  0
   -1.5720   23.2410  -27.3280 C   0  0  0  0  0  0  0  0  0  0  0  0
   -0.2540   22.7390  -26.2850 Cl  0  0  0  0  0  0  0  0  0  0  0  0
   -2.8680   22.7720  -27.0950 C   0  0  0  0  0  0  0  0  0  0  0  0
   -3.9190   23.1700  -27.9270 C   0  0  0  0  0  0  0  0  0  0  0  0
   -5.7610   23.0820  -30.7540 C   0  0  0  0  0  0  0  0  0  0  0  0
   -7.1180   23.0260  -30.8170 N   0  0  0  0  0  0  0  0  0  0  0  0
   -7.7600   21.9570  -31.3560 C   0  0  0  0  0  0  0  0  0  0  0  0
   -9.1560   21.9150  -31.4120 C   0  0  0  0  0  0  0  0  0  0  0  0
   -9.7980   20.8060  -31.9750 C   0  0  0  0  0  0  0  0  0  0  0  0
   -9.0450   19.7400  -32.4810 C   0  0  0  0  0  0  0  0  0  0  0  0
   -7.6480   19.7770  -32.4270 C   0  0  0  0  0  0  0  0  0  0  0  0
   -7.0030   20.8840  -31.8660 C   0  0  0  0  0  0  0  0  0  0  0  0
   -5.6470   20.9370  -31.8010 N   0  0  0  0  0  0  0  0  0  0  0  0
   -5.0050   22.0040  -31.2540 C   0  0  0  0  0  0  0  0  0  0  0  0
   -3.5720   22.0100  -31.2000 N   0  0  0  0  0  0  0  0  0  0  0  0
   -2.8840   21.2780  -30.1380 C   0  0  0  0  0  0  0  0  0  0  0  0
   -2.1930   20.0540  -30.7500 C   0  0  0  0  0  0  0  0  0  0  0  0
   -1.3500   20.4370  -31.8230 O   0  0  0  0  0  0  0  0  0  0  0  0
   -2.1170   21.0030  -32.8730 C   0  0  0  0  0  0  0  0  0  0  0  0
   -2.8020   22.2930  -32.4100 C   0  0  0  0  0  0  0  0  0  0  0  0
   -2.1815   25.2019  -30.0632 H   0  0  0  0  0  0  0  0  0  0  0  0
   -0.3082   24.4867  -28.5760 H   0  0  0  0  0  0  0  0  0  0  0  0
   -3.0615   22.0883  -26.2553 H   0  0  0  0  0  0  0  0  0  0  0  0
   -4.9385   22.8026  -27.7381 H   0  0  0  0  0  0  0  0  0  0  0  0
   -9.7489   22.7519  -31.0144 H   0  0  0  0  0  0  0  0  0  0  0  0
  -10.8966   20.7721  -32.0199 H   0  0  0  0  0  0  0  0  0  0  0  0
   -9.5537   18.8704  -32.9225 H   0  0  0  0  0  0  0  0  0  0  0  0
   -7.0582   18.9379  -32.8246 H   0  0  0  0  0  0  0  0  0  0  0  0
   -2.1333   21.9292  -29.6665 H   0  0  0  0  0  0  0  0  0  0  0  0
   -3.6087   20.9561  -29.3756 H   0  0  0  0  0  0  0  0  0  0  0  0
   -1.5893   19.5564  -29.9768 H   0  0  0  0  0  0  0  0  0  0  0  0
   -2.9634   19.3689  -31.1336 H   0  0  0  0  0  0  0  0  0  0  0  0
   -1.4549   21.2304  -33.7215 H   0  0  0  0  0  0  0  0  0  0  0  0
   -2.8902   20.2810  -33.1745 H   0  0  0  0  0  0  0  0  0  0  0  0
   -2.0418   23.0581  -32.1938 H   0  0  0  0  0  0  0  0  0  0  0  0
   -3.4710   22.6650  -33.2000 H   0  0  0  0  0  0  0  0  0  0  0  0
  1  2  2  0
  2  3  2  0
  2  4  1  0
  4  5  2  0
  5  6  1  0
  6  7  2  0
  7  8  1  0
  7  9  1  0
  9 10  2  0
  2 11  1  0
 11 12  2  0
 12 13  1  0
 13 14  2  0
 14 15  1  0
 15 16  2  0
 16 17  1  0
 17 18  2  0
 18 19  1  0
 19 20  2  0
 20 21  1  0
 21 22  1  0
 22 23  1  0
 23 24  1  0
 24 25  1  0
 25 26  1  0
 10  4  1  0
 20 11  1  0
 26 21  1  0
 18 13  1  0
  5 27  1  0
  6 28  1  0
  9 29  1  0
 10 30  1  0
 14 31  1  0
 15 32  1  0
 16 33  1  0
 17 34  1  0
 22 35  1  0
 22 36  1  0
 23 37  1  0
 23 38  1  0
 25 39  1  0
 25 40  1  0
 26 41  1  0
 26 42  1  0
M  END
>  <UniqueID>  (48) 
46

>  <SMILES>  (48) 
O=S(=O)(c1ccc(Cl)cc1)c1nc2ccccc2nc1N1CCOCC1

>  <Energy>  (48) 
57.5535863364962

>  <Genealogy>  (48) 
O=S(=O)(c1ccc(Cl)cc1)c1nc2ccccc2nc1N1CCOCC1 (3D coordinates assigned)
O=S(=O)(c1ccc(Cl)cc1)c1nc2ccccc2nc1N1CCOCC1 (nonaromatic ring conformer: 57.5535863364962 kcal/mol)

>  <smiles>  (48) 
O=S(=O)(c1ccc(Cl)cc1)c1nc2ccccc2nc1N1CCOCC1

>  <score_type>  (48) 
oracle

>  <origin>  (48) 
adg

>  <m_score__min__energy>  (48) 
-8.2799999999999994

>  <m_primary>  (48) 
energy

$$$$
