0:0
     RDKit          3D

 47 49  0  0  0  0  0  0  0  0999 V2000
   -3.8870   18.2590  -33.4300 C   0  0  0  0  0  0  0  0  0  0  0  0
   -4.1830   19.0690  -32.3000 O   0  0  0  0  0  0  0  0  0  0  0  0
   -5.1370   20.0880  -32.3650 C   0  0  0  0  0  0  0  0  0  0  0  0
   -4.7260   21.4270  -32.5550 C   0  0  0  0  0  0  0  0  0  0  0  0
   -3.2710   21.7900  -32.7850 C   0  0  0  0  0  0  0  0  0  0  0  0
   -2.3920   21.1900  -31.7500 N   0  0  1  0  0  0  0  0  0  0  0  0
   -1.1060   20.7960  -32.3540 C   0  0  0  0  0  0  0  0  0  0  0  0
   -2.1650   22.1240  -30.6090 C   0  0  0  0  0  0  0  0  0  0  0  0
   -3.3000   22.0680  -29.5700 C   0  0  0  0  0  0  0  0  0  0  0  0
   -4.2990   23.1800  -29.7780 C   0  0  0  0  0  0  0  0  0  0  0  0
   -3.8760   24.4230  -30.2830 C   0  0  0  0  0  0  0  0  0  0  0  0
   -4.8020   25.4470  -30.4980 C   0  0  0  0  0  0  0  0  0  0  0  0
   -6.1540   25.2420  -30.2130 C   0  0  0  0  0  0  0  0  0  0  0  0
   -6.5830   24.0090  -29.7150 C   0  0  0  0  0  0  0  0  0  0  0  0
   -5.6620   22.9800  -29.4970 C   0  0  0  0  0  0  0  0  0  0  0  0
   -5.6890   22.4470  -32.5710 C   0  0  0  0  0  0  0  0  0  0  0  0
   -7.0440   22.1550  -32.4270 C   0  0  0  0  0  0  0  0  0  0  0  0
   -7.4670   20.8300  -32.2830 C   0  0  0  0  0  0  0  0  0  0  0  0
   -8.8350   20.5310  -32.1840 C   0  0  0  0  0  0  0  0  0  0  0  0
   -9.2580   19.2050  -32.0690 C   0  0  0  0  0  0  0  0  0  0  0  0
   -8.3220   18.1690  -32.0520 C   0  0  0  0  0  0  0  0  0  0  0  0
   -6.9570   18.4520  -32.1450 C   0  0  0  0  0  0  0  0  0  0  0  0
   -6.5110   19.7830  -32.2560 C   0  0  0  0  0  0  0  0  0  0  0  0
   -3.5277   17.2757  -33.0923 H   0  0  0  0  0  0  0  0  0  0  0  0
   -4.7957   18.1290  -34.0361 H   0  0  0  0  0  0  0  0  0  0  0  0
   -3.1086   18.7455  -34.0361 H   0  0  0  0  0  0  0  0  0  0  0  0
   -2.9623   21.4210  -33.7742 H   0  0  0  0  0  0  0  0  0  0  0  0
   -3.1745   22.8843  -32.7286 H   0  0  0  0  0  0  0  0  0  0  0  0
   -2.8400   20.3050  -31.4180 H   0  0  0  0  0  0  0  0  0  0  0  0
   -0.3800   20.5736  -31.5581 H   0  0  0  0  0  0  0  0  0  0  0  0
   -1.2524   19.9015  -32.9772 H   0  0  0  0  0  0  0  0  0  0  0  0
   -0.7262   21.6190  -32.9772 H   0  0  0  0  0  0  0  0  0  0  0  0
   -1.2199   21.8547  -30.1147 H   0  0  0  0  0  0  0  0  0  0  0  0
   -2.1310   23.1462  -31.0139 H   0  0  0  0  0  0  0  0  0  0  0  0
   -3.8179   21.1016  -29.6588 H   0  0  0  0  0  0  0  0  0  0  0  0
   -2.8572   22.1859  -28.5700 H   0  0  0  0  0  0  0  0  0  0  0  0
   -2.8125   24.5894  -30.5094 H   0  0  0  0  0  0  0  0  0  0  0  0
   -4.4655   26.4170  -30.8927 H   0  0  0  0  0  0  0  0  0  0  0  0
   -6.8805   26.0508  -30.3805 H   0  0  0  0  0  0  0  0  0  0  0  0
   -7.6484   23.8475  -29.4938 H   0  0  0  0  0  0  0  0  0  0  0  0
   -6.0047   22.0112  -29.1045 H   0  0  0  0  0  0  0  0  0  0  0  0
   -5.3701   23.4919  -32.6990 H   0  0  0  0  0  0  0  0  0  0  0  0
   -7.7833   22.9695  -32.4266 H   0  0  0  0  0  0  0  0  0  0  0  0
   -9.5762   21.3437  -32.1970 H   0  0  0  0  0  0  0  0  0  0  0  0
  -10.3312   18.9762  -31.9916 H   0  0  0  0  0  0  0  0  0  0  0  0
   -8.6606   17.1260  -31.9650 H   0  0  0  0  0  0  0  0  0  0  0  0
   -6.2262   17.6300  -32.1314 H   0  0  0  0  0  0  0  0  0  0  0  0
  1  2  1  0
  2  3  1  0
  3  4  2  0
  4  5  1  0
  5  6  1  0
  6  7  1  0
  6  8  1  0
  8  9  1  0
  9 10  1  0
 10 11  2  0
 11 12  1  0
 12 13  2  0
 13 14  1  0
 14 15  2  0
  4 16  1  0
 16 17  2  0
 17 18  1  0
 18 19  2  0
 19 20  1  0
 20 21  2  0
 21 22  1  0
 22 23  2  0
 23  3  1  0
 15 10  1  0
 23 18  1  0
  1 24  1  0
  1 25  1  0
  1 26  1  0
  5 27  1  0
  5 28  1  0
  6 29  1  1
  7 30  1  0
  7 31  1  0
  7 32  1  0
  8 33  1  0
  8 34  1  0
  9 35  1  0
  9 36  1  0
 11 37  1  0
 12 38  1  0
 13 39  1  0
 14 40  1  0
 15 41  1  0
 16 42  1  0
 17 43  1  0
 19 44  1  0
 20 45  1  0
 21 46  1  0
 22 47  1  0
M  CHG  1   6   1
M  END
>  <UniqueID>  (1) 
1

>  <SMILES>  (1) 
COc1c(C[N@@H+](C)CCc2ccccc2)ccc2ccccc12

>  <Energy>  (1) 
56.494580394383036

>  <Genealogy>  (1) 
COc1c(C[NH+](C)CCc2ccccc2)ccc2ccccc12 (protonated)
COc1c(C[N@@H+](C)CCc2ccccc2)ccc2ccccc12 (chirality)
COc1c(C[N@@H+](C)CCc2ccccc2)ccc2ccccc12 (3D coordinates assigned)
COc1c(C[N@@H+](C)CCc2ccccc2)ccc2ccccc12 (optimized conformer: 56.494580394383036 kcal/mol)

>  <smiles>  (1) 
COc1c(CN(C)CCc2ccccc2)ccc2ccccc12

>  <score_type>  (1) 
oracle

>  <origin>  (1) 
adg

>  <m_score__min__energy>  (1) 
-6.8499999999999996

>  <m_primary>  (1) 
energy

$$$$
1:0
     RDKit          3D

 53 55  0  0  0  0  0  0  0  0999 V2000
   -6.0080   25.3010  -29.3840 C   0  0  0  0  0  0  0  0  0  0  0  0
   -5.2540   25.6380  -30.6610 C   0  0  0  0  0  0  0  0  0  0  0  0
   -3.8630   25.3970  -30.4680 O   0  0  0  0  0  0  0  0  0  0  0  0
   -3.3200   24.1750  -30.0440 C   0  0  0  0  0  0  0  0  0  0  0  0
   -2.2150   24.0980  -29.1740 C   0  0  0  0  0  0  0  0  0  0  0  0
   -1.7060   22.8530  -28.7900 C   0  0  0  0  0  0  0  0  0  0  0  0
   -2.2820   21.6670  -29.2820 C   0  0  0  0  0  0  0  0  0  0  0  0
   -1.8010   20.3940  -28.9460 O   0  0  0  0  0  0  0  0  0  0  0  0
   -0.4680   19.9270  -29.1640 C   0  0  0  0  0  0  0  0  0  0  0  0
   -0.2560   19.5160  -30.6290 C   0  0  0  0  0  0  0  0  0  0  0  0
   -1.4290   19.8530  -31.4570 N   0  0  0  0  0  0  0  0  0  0  0  0
   -1.4540   19.0980  -32.7310 C   0  0  0  0  0  0  0  0  0  0  0  0
   -2.3100   19.7610  -33.8390 C   0  0  2  0  0  0  0  0  0  0  0  0
   -2.3030   21.1650  -33.7140 O   0  0  0  0  0  0  0  0  0  0  0  0
   -3.7350   19.1880  -33.9230 C   0  0  0  0  0  0  0  0  0  0  0  0
   -4.6750   20.1630  -33.4840 O   0  0  0  0  0  0  0  0  0  0  0  0
   -5.9510   19.8580  -32.9860 C   0  0  0  0  0  0  0  0  0  0  0  0
   -6.4800   18.5450  -32.9970 C   0  0  0  0  0  0  0  0  0  0  0  0
   -7.7800   18.2920  -32.5190 C   0  0  0  0  0  0  0  0  0  0  0  0
   -8.5600   19.3310  -31.9960 C   0  0  0  0  0  0  0  0  0  0  0  0
   -8.0190   20.6120  -31.9780 C   0  0  0  0  0  0  0  0  0  0  0  0
   -8.7210   22.0270  -31.4140 S   0  0  0  0  0  0  0  0  0  0  0  0
   -7.3990   23.0140  -31.7850 C   0  0  0  0  0  0  0  0  0  0  0  0
   -6.3950   22.2370  -32.3570 C   0  0  0  0  0  0  0  0  0  0  0  0
   -6.7490   20.8860  -32.4640 C   0  0  0  0  0  0  0  0  0  0  0  0
   -3.3790   21.7510  -30.1480 C   0  0  0  0  0  0  0  0  0  0  0  0
   -3.9030   22.9930  -30.5120 C   0  0  0  0  0  0  0  0  0  0  0  0
   -5.3947   25.5751  -28.5129 H   0  0  0  0  0  0  0  0  0  0  0  0
   -6.9538   25.8620  -29.3577 H   0  0  0  0  0  0  0  0  0  0  0  0
   -6.2208   24.2221  -29.3577 H   0  0  0  0  0  0  0  0  0  0  0  0
   -5.6248   25.0081  -31.4830 H   0  0  0  0  0  0  0  0  0  0  0  0
   -5.4116   26.6974  -30.9116 H   0  0  0  0  0  0  0  0  0  0  0  0
   -1.7506   25.0204  -28.7951 H   0  0  0  0  0  0  0  0  0  0  0  0
   -0.8510   22.8007  -28.0999 H   0  0  0  0  0  0  0  0  0  0  0  0
    0.2395   20.7303  -28.9107 H   0  0  0  0  0  0  0  0  0  0  0  0
   -0.2990   19.0462  -28.5271 H   0  0  0  0  0  0  0  0  0  0  0  0
    0.6248   20.0428  -31.0247 H   0  0  0  0  0  0  0  0  0  0  0  0
   -0.1078   18.4266  -30.6652 H   0  0  0  0  0  0  0  0  0  0  0  0
   -2.3100   19.6990  -30.9190 H   0  0  0  0  0  0  0  0  0  0  0  0
   -1.3800   20.8750  -31.6780 H   0  0  0  0  0  0  0  0  0  0  0  0
   -0.4216   19.0068  -33.0994 H   0  0  0  0  0  0  0  0  0  0  0  0
   -1.9138   18.1225  -32.5142 H   0  0  0  0  0  0  0  0  0  0  0  0
   -1.8369   19.5102  -34.7999 H   0  0  0  0  0  0  0  0  0  0  0  0
   -3.0920   21.5310  -34.1890 H   0  0  0  0  0  0  0  0  0  0  0  0
   -3.9561   18.9109  -34.9643 H   0  0  0  0  0  0  0  0  0  0  0  0
   -3.8069   18.2992  -33.2789 H   0  0  0  0  0  0  0  0  0  0  0  0
   -5.8699   17.7148  -33.3825 H   0  0  0  0  0  0  0  0  0  0  0  0
   -8.1861   17.2704  -32.5566 H   0  0  0  0  0  0  0  0  0  0  0  0
   -9.5721   19.1392  -31.6103 H   0  0  0  0  0  0  0  0  0  0  0  0
   -7.3413   24.0974  -31.6034 H   0  0  0  0  0  0  0  0  0  0  0  0
   -5.4273   22.6410  -32.6893 H   0  0  0  0  0  0  0  0  0  0  0  0
   -3.8320   20.8306  -30.5450 H   0  0  0  0  0  0  0  0  0  0  0  0
   -4.7815   23.0422  -31.1722 H   0  0  0  0  0  0  0  0  0  0  0  0
  1  2  1  0
  2  3  1  0
  3  4  1  0
  4  5  2  0
  5  6  1  0
  6  7  2  0
  7  8  1  0
  8  9  1  0
  9 10  1  0
 10 11  1  0
 11 12  1  0
 12 13  1  0
 13 14  1  0
 13 15  1  0
 15 16  1  0
 16 17  1  0
 17 18  2  0
 18 19  1  0
 19 20  2  0
 20 21  1  0
 21 22  1  0
 22 23  1  0
 23 24  2  0
 24 25  1  0
  7 26  1  0
 26 27  2  0
 27  4  1  0
 25 17  1  0
 25 21  2  0
  1 28  1  0
  1 29  1  0
  1 30  1  0
  2 31  1  0
  2 32  1  0
  5 33  1  0
  6 34  1  0
  9 35  1  0
  9 36  1  0
 10 37  1  0
 10 38  1  0
 11 39  1  0
 11 40  1  0
 12 41  1  0
 12 42  1  0
 13 43  1  6
 14 44  1  0
 15 45  1  0
 15 46  1  0
 18 47  1  0
 19 48  1  0
 20 49  1  0
 23 50  1  0
 24 51  1  0
 26 52  1  0
 27 53  1  0
M  CHG  1  11   1
M  END
>  <UniqueID>  (2) 
2

>  <SMILES>  (2) 
CCOc1ccc(OCC[NH2+]C[C@H](O)COc2cccc3sccc23)cc1

>  <Energy>  (2) 
77.3876318246714

>  <Genealogy>  (2) 
CCOc1ccc(OCC[NH2+]CC(O)COc2cccc3sccc23)cc1 (protonated)
CCOc1ccc(OCC[NH2+]C[C@H](O)COc2cccc3sccc23)cc1 (chirality)
CCOc1ccc(OCC[NH2+]C[C@H](O)COc2cccc3sccc23)cc1 (3D coordinates assigned)
CCOc1ccc(OCC[NH2+]C[C@H](O)COc2cccc3sccc23)cc1 (optimized conformer: 77.3876318246714 kcal/mol)

>  <smiles>  (2) 
CCOc1ccc(OCCNCC(O)COc2cccc3sccc23)cc1

>  <score_type>  (2) 
oracle

>  <origin>  (2) 
adg

>  <m_score__min__energy>  (2) 
-8.2200000000000006

>  <m_primary>  (2) 
energy

$$$$
2:0
     RDKit          3D

 45 47  0  0  0  0  0  0  0  0999 V2000
   -4.7620   24.3900  -31.2160 O   0  0  0  0  0  0  0  0  0  0  0  0
   -5.3580   23.4640  -31.8260 C   0  0  0  0  0  0  0  0  0  0  0  0
   -6.7530   23.6980  -32.3340 C   0  0  0  0  0  0  0  0  0  0  0  0
   -7.7870   23.2180  -31.3060 C   0  0  0  0  0  0  0  0  0  0  0  0
   -9.0360   22.5870  -31.9440 C   0  0  0  0  0  0  0  0  0  0  0  0
   -9.4210   21.1930  -31.4150 C   0  0  0  0  0  0  0  0  0  0  0  0
   -8.8680   19.9980  -32.2150 C   0  0  0  0  0  0  0  0  0  0  0  0
   -7.5440   20.2830  -32.9560 C   0  0  0  0  0  0  0  0  0  0  0  0
   -6.7990   19.0210  -33.3170 C   0  0  0  0  0  0  0  0  0  0  0  0
   -6.0710   18.9500  -34.5180 C   0  0  0  0  0  0  0  0  0  0  0  0
   -5.3560   17.7940  -34.8440 C   0  0  0  0  0  0  0  0  0  0  0  0
   -5.3720   16.6950  -33.9810 C   0  0  0  0  0  0  0  0  0  0  0  0
   -6.1110   16.7480  -32.7960 C   0  0  0  0  0  0  0  0  0  0  0  0
   -6.8280   17.9020  -32.4670 C   0  0  0  0  0  0  0  0  0  0  0  0
   -4.6920   22.1580  -31.9730 C   0  0  0  0  0  0  0  0  0  0  0  0
   -3.7280   21.8730  -32.8670 N   0  0  0  0  0  0  0  0  0  0  0  0
   -3.4750   20.5740  -32.6240 C   0  0  0  0  0  0  0  0  0  0  0  0
   -2.4960   19.7770  -33.3690 C   0  0  0  0  0  0  0  0  0  0  0  0
   -2.4220   18.3990  -33.3920 C   0  0  0  0  0  0  0  0  0  0  0  0
   -1.3640   18.1010  -34.2250 C   0  0  0  0  0  0  0  0  0  0  0  0
   -0.8600   19.3120  -34.6550 C   0  0  0  0  0  0  0  0  0  0  0  0
   -1.5560   20.2930  -34.1260 O   0  0  0  0  0  0  0  0  0  0  0  0
   -4.2430   20.0940  -31.6250 N   0  0  0  0  0  0  0  0  0  0  0  0
   -4.9780   21.1000  -31.2490 O   0  0  0  0  0  0  0  0  0  0  0  0
   -6.8962   24.7733  -32.5165 H   0  0  0  0  0  0  0  0  0  0  0  0
   -6.8910   23.1332  -33.2678 H   0  0  0  0  0  0  0  0  0  0  0  0
   -7.3109   22.4686  -30.6566 H   0  0  0  0  0  0  0  0  0  0  0  0
   -8.1213   24.1029  -30.7446 H   0  0  0  0  0  0  0  0  0  0  0  0
   -9.8853   23.2630  -31.7659 H   0  0  0  0  0  0  0  0  0  0  0  0
   -8.7933   22.4487  -33.0079 H   0  0  0  0  0  0  0  0  0  0  0  0
   -9.0503   21.1091  -30.3828 H   0  0  0  0  0  0  0  0  0  0  0  0
  -10.5158   21.1312  -31.5025 H   0  0  0  0  0  0  0  0  0  0  0  0
   -8.6987   19.1654  -31.5164 H   0  0  0  0  0  0  0  0  0  0  0  0
   -9.6157   19.7651  -32.9875 H   0  0  0  0  0  0  0  0  0  0  0  0
   -7.7691   20.8360  -33.8799 H   0  0  0  0  0  0  0  0  0  0  0  0
   -6.9025   20.8675  -32.2801 H   0  0  0  0  0  0  0  0  0  0  0  0
   -6.0642   19.8091  -35.2049 H   0  0  0  0  0  0  0  0  0  0  0  0
   -4.7804   17.7493  -35.7803 H   0  0  0  0  0  0  0  0  0  0  0  0
   -4.8030   15.7883  -34.2343 H   0  0  0  0  0  0  0  0  0  0  0  0
   -6.1285   15.8798  -32.1208 H   0  0  0  0  0  0  0  0  0  0  0  0
   -7.4175   17.9345  -31.5388 H   0  0  0  0  0  0  0  0  0  0  0  0
   -3.2820   22.4920  -33.5770 H   0  0  0  0  0  0  0  0  0  0  0  0
   -3.0702   17.6883  -32.8584 H   0  0  0  0  0  0  0  0  0  0  0  0
   -0.9958   17.0997  -34.4929 H   0  0  0  0  0  0  0  0  0  0  0  0
   -0.0058   19.4368  -35.3367 H   0  0  0  0  0  0  0  0  0  0  0  0
  1  2  2  0
  2  3  1  0
  3  4  1  0
  4  5  1  0
  5  6  1  0
  6  7  1  0
  7  8  1  0
  8  9  1  0
  9 10  2  0
 10 11  1  0
 11 12  2  0
 12 13  1  0
 13 14  2  0
  2 15  1  0
 15 16  2  0
 16 17  1  0
 17 18  1  0
 18 19  2  0
 19 20  1  0
 20 21  2  0
 21 22  1  0
 17 23  2  0
 23 24  1  0
 14  9  1  0
 24 15  1  0
 22 18  1  0
  3 25  1  0
  3 26  1  0
  4 27  1  0
  4 28  1  0
  5 29  1  0
  5 30  1  0
  6 31  1  0
  6 32  1  0
  7 33  1  0
  7 34  1  0
  8 35  1  0
  8 36  1  0
 10 37  1  0
 11 38  1  0
 12 39  1  0
 13 40  1  0
 14 41  1  0
 16 42  1  0
 19 43  1  0
 20 44  1  0
 21 45  1  0
M  CHG  1  16   1
M  END
>  <UniqueID>  (3) 
3

>  <SMILES>  (3) 
O=C(CCCCCCc1ccccc1)c1[nH+]c(-c2ccco2)no1

>  <Energy>  (3) 
95.577385137674

>  <Genealogy>  (3) 
O=C(CCCCCCc1ccccc1)c1[nH+]c(-c2ccco2)no1 (protonated)
O=C(CCCCCCc1ccccc1)c1[nH+]c(-c2ccco2)no1 (3D coordinates assigned)
O=C(CCCCCCc1ccccc1)c1[nH+]c(-c2ccco2)no1 (optimized conformer: 95.577385137674 kcal/mol)

>  <smiles>  (3) 
O=C(CCCCCCc1ccccc1)c1nc(-c2ccco2)no1

>  <score_type>  (3) 
oracle

>  <origin>  (3) 
adg

>  <m_score__min__energy>  (3) 
-8.0299999999999994

>  <m_primary>  (3) 
energy

$$$$
3:0
     RDKit          3D

 39 39  0  0  0  0  0  0  0  0999 V2000
   -6.6556   24.7775  -29.5118 H   0  0  0  0  0  0  0  0  0  0  0  0
   -6.3040   24.3940  -30.4810 C   0  0  0  0  0  0  0  0  0  0  0  0
   -4.8650   24.5520  -30.7810 C   0  0  0  0  0  0  0  0  0  0  0  0
   -4.3340   25.6800  -30.5990 O   0  0  0  0  0  0  0  0  0  0  0  0
   -4.1030   23.4910  -31.2800 O   0  0  0  0  0  0  0  0  0  0  0  0
   -3.3300   22.6170  -30.4590 C   0  0  0  0  0  0  0  0  0  0  0  0
   -2.7340   21.9526  -31.1019 H   0  0  0  0  0  0  0  0  0  0  0  0
   -4.0147   22.0302  -29.8291 H   0  0  0  0  0  0  0  0  0  0  0  0
   -2.3810   23.4170  -29.5420 C   0  0  0  0  0  0  0  0  0  0  0  0
   -2.5987   24.4878  -29.6686 H   0  0  0  0  0  0  0  0  0  0  0  0
   -1.3549   23.1557  -29.8399 H   0  0  0  0  0  0  0  0  0  0  0  0
   -2.5090   23.0820  -28.1040 N   0  0  0  0  0  0  0  0  0  0  0  0
   -2.7340   24.2770  -27.2540 C   0  0  0  0  0  0  0  0  0  0  0  0
   -2.2669   25.1548  -27.7244 H   0  0  0  0  0  0  0  0  0  0  0  0
   -2.2873   24.1112  -26.2625 H   0  0  0  0  0  0  0  0  0  0  0  0
   -4.2310   24.5180  -27.1030 C   0  0  0  0  0  0  0  0  0  0  0  0
   -4.4898   24.5597  -26.0347 H   0  0  0  0  0  0  0  0  0  0  0  0
   -4.4992   25.4709  -27.5827 H   0  0  0  0  0  0  0  0  0  0  0  0
   -4.7847   23.6974  -27.5827 H   0  0  0  0  0  0  0  0  0  0  0  0
   -3.4790   21.9940  -27.8560 C   0  0  0  0  0  0  0  0  0  0  0  0
   -4.1542   22.2942  -27.0411 H   0  0  0  0  0  0  0  0  0  0  0  0
   -4.0446   21.8140  -28.7821 H   0  0  0  0  0  0  0  0  0  0  0  0
   -2.7700   20.7010  -27.4640 C   0  0  0  0  0  0  0  0  0  0  0  0
   -2.7277   20.6239  -26.3675 H   0  0  0  0  0  0  0  0  0  0  0  0
   -3.3231   19.8416  -27.8709 H   0  0  0  0  0  0  0  0  0  0  0  0
   -1.7481   20.7053  -27.8709 H   0  0  0  0  0  0  0  0  0  0  0  0
   -7.2220   23.8270  -31.2790 C   0  0  0  0  0  0  0  0  0  0  0  0
   -7.9636   24.4924  -31.7451 H   0  0  0  0  0  0  0  0  0  0  0  0
   -7.3210   22.3880  -31.5840 C   0  0  0  0  0  0  0  0  0  0  0  0
   -6.2930   21.7640  -32.3060 C   0  0  0  0  0  0  0  0  0  0  0  0
   -5.4139   22.3454  -32.6210 H   0  0  0  0  0  0  0  0  0  0  0  0
   -6.3810   20.4060  -32.6270 C   0  0  0  0  0  0  0  0  0  0  0  0
   -5.5639   19.9176  -33.1781 H   0  0  0  0  0  0  0  0  0  0  0  0
   -7.5070   19.6680  -32.2480 C   0  0  0  0  0  0  0  0  0  0  0  0
   -7.6100   17.9610  -32.6390 Cl  0  0  0  0  0  0  0  0  0  0  0  0
   -8.5540   20.2930  -31.5610 C   0  0  0  0  0  0  0  0  0  0  0  0
   -9.4444   19.7154  -31.2718 H   0  0  0  0  0  0  0  0  0  0  0  0
   -8.4680   21.6530  -31.2420 C   0  0  0  0  0  0  0  0  0  0  0  0
   -9.3014   22.1479  -30.7218 H   0  0  0  0  0  0  0  0  0  0  0  0
  1  2  1  0
  2  3  1  0
  3  4  2  0
  3  5  1  0
  5  6  1  0
  6  7  1  0
  6  8  1  0
  6  9  1  0
  9 10  1  0
  9 11  1  0
  9 12  1  0
 12 13  1  0
 13 14  1  0
 13 15  1  0
 13 16  1  0
 16 17  1  0
 16 18  1  0
 16 19  1  0
 12 20  1  0
 20 21  1  0
 20 22  1  0
 20 23  1  0
 23 24  1  0
 23 25  1  0
 23 26  1  0
  2 27  2  0
 27 28  1  0
 27 29  1  0
 29 30  2  0
 30 31  1  0
 30 32  1  0
 32 33  1  0
 32 34  2  0
 34 35  1  0
 34 36  1  0
 36 37  1  0
 36 38  2  0
 38 39  1  0
 38 29  1  0
M  END
>  <UniqueID>  (4) 
4

>  <SMILES>  (4) 
CCN(CC)CCOC(=O)/C=C\c1ccc(Cl)cc1

>  <Energy>  (4) 
40.190415930145846

>  <Genealogy>  (4) 
CCN(CC)CCOC(=O)/C=C\c1ccc(Cl)cc1 (cis-trans isomerization)
CCN(CC)CCOC(=O)/C=C\c1ccc(Cl)cc1 (3D coordinates assigned)
CCN(CC)CCOC(=O)/C=C\c1ccc(Cl)cc1 (optimized conformer: 40.190415930145846 kcal/mol)

>  <smiles>  (4) 
CCN(CC)CCOC(=O)C=Cc1ccc(Cl)cc1

>  <score_type>  (4) 
oracle

>  <origin>  (4) 
adg

>  <m_score__min__energy>  (4) 
-7.1500000000000004

>  <m_primary>  (4) 
energy

$$$$
4:0
     RDKit          3D

 46 49  0  0  0  0  0  0  0  0999 V2000
   -4.2226   25.3530  -28.7032 H   0  0  0  0  0  0  0  0  0  0  0  0
   -3.7240   24.5480  -29.2630 C   0  0  0  0  0  0  0  0  0  0  0  0
   -2.4960   24.0870  -29.0210 C   0  0  0  0  0  0  0  0  0  0  0  0
   -1.6160   24.5360  -27.8920 C   0  0  0  0  0  0  0  0  0  0  0  0
   -0.7718   23.8380  -27.7916 H   0  0  0  0  0  0  0  0  0  0  0  0
   -1.2471   25.5491  -28.1102 H   0  0  0  0  0  0  0  0  0  0  0  0
   -2.4010   24.5680  -26.5800 C   0  0  0  0  0  0  0  0  0  0  0  0
   -3.3378   25.1247  -26.7301 H   0  0  0  0  0  0  0  0  0  0  0  0
   -2.6239   23.5367  -26.2689 H   0  0  0  0  0  0  0  0  0  0  0  0
   -1.6130   25.2210  -25.5390 N   0  0  0  0  0  0  0  0  0  0  0  0
   -1.6230   26.5280  -25.2180 C   0  0  0  0  0  0  0  0  0  0  0  0
   -2.1917   27.3155  -25.7342 H   0  0  0  0  0  0  0  0  0  0  0  0
   -0.7960   26.7080  -24.1290 C   0  0  0  0  0  0  0  0  0  0  0  0
   -0.5871   27.6672  -23.6328 H   0  0  0  0  0  0  0  0  0  0  0  0
   -0.2870   25.5120  -23.7750 N   0  0  0  0  0  0  0  0  0  0  0  0
    0.3630   25.3150  -22.9820 H   0  0  0  0  0  0  0  0  0  0  0  0
   -0.8040   24.6230  -24.6430 C   0  0  0  0  0  0  0  0  0  0  0  0
   -0.5926   23.5437  -24.6234 H   0  0  0  0  0  0  0  0  0  0  0  0
   -2.1900   23.0330  -29.9870 C   0  0  0  0  0  0  0  0  0  0  0  0
   -1.0120   22.3030  -30.1530 C   0  0  0  0  0  0  0  0  0  0  0  0
   -0.1678   22.4290  -29.4591 H   0  0  0  0  0  0  0  0  0  0  0  0
   -0.9320   21.4040  -31.2280 C   0  0  0  0  0  0  0  0  0  0  0  0
   -0.0244   20.7986  -31.3685 H   0  0  0  0  0  0  0  0  0  0  0  0
   -2.0080   21.2730  -32.1280 C   0  0  0  0  0  0  0  0  0  0  0  0
   -1.8750   20.1830  -33.4950 Cl  0  0  0  0  0  0  0  0  0  0  0  0
   -3.1810   22.0250  -31.9460 C   0  0  0  0  0  0  0  0  0  0  0  0
   -4.0147   21.9478  -32.6594 H   0  0  0  0  0  0  0  0  0  0  0  0
   -3.2650   22.8750  -30.8360 C   0  0  0  0  0  0  0  0  0  0  0  0
   -4.3070   23.8130  -30.3940 C   0  0  0  0  0  0  0  0  0  0  0  0
   -5.5570   23.9970  -30.8420 C   0  0  0  0  0  0  0  0  0  0  0  0
   -5.9295   25.0297  -30.9117 H   0  0  0  0  0  0  0  0  0  0  0  0
   -6.4650   22.9120  -31.2470 C   0  0  0  0  0  0  0  0  0  0  0  0
   -7.5890   22.6180  -30.4630 C   0  0  0  0  0  0  0  0  0  0  0  0
   -7.8069   23.2216  -29.5696 H   0  0  0  0  0  0  0  0  0  0  0  0
   -8.4340   21.5610  -30.8120 C   0  0  0  0  0  0  0  0  0  0  0  0
   -9.3254   21.3470  -30.2041 H   0  0  0  0  0  0  0  0  0  0  0  0
   -8.1480   20.7740  -31.9340 C   0  0  0  0  0  0  0  0  0  0  0  0
   -9.2350   19.4220  -32.3860 S   0  0  0  0  0  0  0  0  0  0  0  0
   -7.9610   18.1490  -32.1280 C   0  0  0  0  0  0  0  0  0  0  0  0
   -7.8083   17.9964  -31.0494 H   0  0  0  0  0  0  0  0  0  0  0  0
   -8.2871   17.2051  -32.5893 H   0  0  0  0  0  0  0  0  0  0  0  0
   -7.0174   18.4758  -32.5893 H   0  0  0  0  0  0  0  0  0  0  0  0
   -7.0110   21.0460  -32.7050 C   0  0  0  0  0  0  0  0  0  0  0  0
   -6.7834   20.4281  -33.5861 H   0  0  0  0  0  0  0  0  0  0  0  0
   -6.1650   22.1030  -32.3550 C   0  0  0  0  0  0  0  0  0  0  0  0
   -5.2612   22.3015  -32.9498 H   0  0  0  0  0  0  0  0  0  0  0  0
  1  2  1  0
  2  3  2  0
  3  4  1  0
  4  5  1  0
  4  6  1  0
  4  7  1  0
  7  8  1  0
  7  9  1  0
  7 10  1  0
 10 11  1  0
 11 12  1  0
 11 13  2  0
 13 14  1  0
 13 15  1  0
 15 16  1  0
 15 17  2  0
 17 18  1  0
  3 19  1  0
 19 20  2  0
 20 21  1  0
 20 22  1  0
 22 23  1  0
 22 24  2  0
 24 25  1  0
 24 26  1  0
 26 27  1  0
 26 28  2  0
 28 29  1  0
 29 30  2  0
 30 31  1  0
 30 32  1  0
 32 33  2  0
 33 34  1  0
 33 35  1  0
 35 36  1  0
 35 37  2  0
 37 38  1  0
 38 39  1  0
 39 40  1  0
 39 41  1  0
 39 42  1  0
 37 43  1  0
 43 44  1  0
 43 45  2  0
 45 46  1  0
 29  2  1  0
 45 32  1  0
 17 10  1  0
 28 19  1  0
M  CHG  1  15   1
M  END
>  <UniqueID>  (5) 
5

>  <SMILES>  (5) 
CSc1ccc(/C=C2/C=C(CCn3cc[nH+]c3)c3ccc(Cl)cc32)cc1

>  <Energy>  (5) 
106.02919748968024

>  <Genealogy>  (5) 
CSc1ccc(C=C2C=C(CCn3cc[nH+]c3)c3ccc(Cl)cc32)cc1 (protonated)
CSc1ccc(/C=C2/C=C(CCn3cc[nH+]c3)c3ccc(Cl)cc32)cc1 (cis-trans isomerization)
CSc1ccc(/C=C2/C=C(CCn3cc[nH+]c3)c3ccc(Cl)cc32)cc1 (3D coordinates assigned)
CSc1ccc(/C=C2/C=C(CCn3cc[nH+]c3)c3ccc(Cl)cc32)cc1 (nonaromatic ring conformer: 106.02919748968024 kcal/mol)

>  <smiles>  (5) 
CSc1ccc(C=C2C=C(CCn3ccnc3)c3ccc(Cl)cc32)cc1

>  <score_type>  (5) 
oracle

>  <origin>  (5) 
adg

>  <m_score__min__energy>  (5) 
-9.4900000000000002

>  <m_primary>  (5) 
energy

$$$$
5:0
     RDKit          3D

 43 44  0  0  0  0  0  0  0  0999 V2000
   -6.8410   24.4840  -30.4630 C   0  0  0  0  0  0  0  0  0  0  0  0
   -5.5750   25.3340  -30.5410 C   0  0  0  0  0  0  0  0  0  0  0  0
   -4.3970   24.4890  -30.8420 N   0  0  0  0  0  0  0  0  0  0  0  0
   -3.4630   24.4430  -29.6930 C   0  0  0  0  0  0  0  0  0  0  0  0
   -4.2130   24.1310  -28.4010 C   0  0  0  0  0  0  0  0  0  0  0  0
   -4.7930   23.1260  -31.2850 C   0  0  0  0  0  0  0  0  0  0  0  0
   -3.5860   22.1800  -31.2410 C   0  0  0  0  0  0  0  0  0  0  0  0
   -3.1110   21.7310  -32.6320 C   0  0  0  0  0  0  0  0  0  0  0  0
   -4.2300   21.3040  -33.4750 N   0  0  0  0  0  0  0  0  0  0  0  0
   -4.7770   19.9700  -33.4570 C   0  0  0  0  0  0  0  0  0  0  0  0
   -3.9790   18.8840  -33.8590 C   0  0  0  0  0  0  0  0  0  0  0  0
   -4.4960   17.5900  -33.8860 C   0  0  0  0  0  0  0  0  0  0  0  0
   -5.8170   17.3520  -33.5170 C   0  0  0  0  0  0  0  0  0  0  0  0
   -6.6360   18.4110  -33.1030 C   0  0  0  0  0  0  0  0  0  0  0  0
   -7.9620   18.1630  -32.7170 C   0  0  0  0  0  0  0  0  0  0  0  0
   -8.7770   19.2090  -32.2820 C   0  0  0  0  0  0  0  0  0  0  0  0
   -8.2740   20.5090  -32.2220 C   0  0  0  0  0  0  0  0  0  0  0  0
   -9.3890   21.9320  -31.6000 Br  0  0  0  0  0  0  0  0  0  0  0  0
   -6.9570   20.7740  -32.6060 C   0  0  0  0  0  0  0  0  0  0  0  0
   -6.1200   19.7350  -33.0650 C   0  0  0  0  0  0  0  0  0  0  0  0
   -7.1010   24.3094  -29.4085 H   0  0  0  0  0  0  0  0  0  0  0  0
   -7.6677   25.0108  -30.9621 H   0  0  0  0  0  0  0  0  0  0  0  0
   -6.6664   23.5194  -30.9621 H   0  0  0  0  0  0  0  0  0  0  0  0
   -5.6929   26.0859  -31.3352 H   0  0  0  0  0  0  0  0  0  0  0  0
   -5.4187   25.8269  -29.5701 H   0  0  0  0  0  0  0  0  0  0  0  0
   -2.7096   23.6615  -29.8710 H   0  0  0  0  0  0  0  0  0  0  0  0
   -2.9775   25.4249  -29.5921 H   0  0  0  0  0  0  0  0  0  0  0  0
   -3.5826   24.3933  -27.5386 H   0  0  0  0  0  0  0  0  0  0  0  0
   -5.1435   24.7167  -28.3666 H   0  0  0  0  0  0  0  0  0  0  0  0
   -4.4535   23.0582  -28.3666 H   0  0  0  0  0  0  0  0  0  0  0  0
   -5.5794   22.7421  -30.6186 H   0  0  0  0  0  0  0  0  0  0  0  0
   -5.1675   23.1803  -32.3178 H   0  0  0  0  0  0  0  0  0  0  0  0
   -2.7553   22.6979  -30.7393 H   0  0  0  0  0  0  0  0  0  0  0  0
   -3.9013   21.2766  -30.6984 H   0  0  0  0  0  0  0  0  0  0  0  0
   -2.5964   22.5711  -33.1213 H   0  0  0  0  0  0  0  0  0  0  0  0
   -2.4328   20.8746  -32.5028 H   0  0  0  0  0  0  0  0  0  0  0  0
   -4.6450   22.0140  -34.1190 H   0  0  0  0  0  0  0  0  0  0  0  0
   -2.9342   19.0580  -34.1557 H   0  0  0  0  0  0  0  0  0  0  0  0
   -3.8566   16.7521  -34.2007 H   0  0  0  0  0  0  0  0  0  0  0  0
   -6.2194   16.3288  -33.5505 H   0  0  0  0  0  0  0  0  0  0  0  0
   -8.3612   17.1388  -32.7575 H   0  0  0  0  0  0  0  0  0  0  0  0
   -9.8173   19.0083  -31.9861 H   0  0  0  0  0  0  0  0  0  0  0  0
   -6.5692   21.8019  -32.5500 H   0  0  0  0  0  0  0  0  0  0  0  0
  1  2  1  0
  2  3  1  0
  3  4  1  0
  4  5  1  0
  3  6  1  0
  6  7  1  0
  7  8  1  0
  8  9  1  0
  9 10  1  0
 10 11  2  0
 11 12  1  0
 12 13  2  0
 13 14  1  0
 14 15  2  0
 15 16  1  0
 16 17  2  0
 17 18  1  0
 17 19  1  0
 19 20  2  0
 20 10  1  0
 20 14  1  0
  1 21  1  0
  1 22  1  0
  1 23  1  0
  2 24  1  0
  2 25  1  0
  4 26  1  0
  4 27  1  0
  5 28  1  0
  5 29  1  0
  5 30  1  0
  6 31  1  0
  6 32  1  0
  7 33  1  0
  7 34  1  0
  8 35  1  0
  8 36  1  0
  9 37  1  0
 11 38  1  0
 12 39  1  0
 13 40  1  0
 15 41  1  0
 16 42  1  0
 19 43  1  0
M  END
>  <UniqueID>  (6) 
6

>  <SMILES>  (6) 
CCN(CC)CCCNc1cccc2ccc(Br)cc12

>  <Energy>  (6) 
44.59807305275213

>  <Genealogy>  (6) 
CCN(CC)CCCNc1cccc2ccc(Br)cc12 (3D coordinates assigned)
CCN(CC)CCCNc1cccc2ccc(Br)cc12 (optimized conformer: 44.59807305275213 kcal/mol)

>  <smiles>  (6) 
CCN(CC)CCCNc1cccc2ccc(Br)cc12

>  <score_type>  (6) 
oracle

>  <origin>  (6) 
adg

>  <m_score__min__energy>  (6) 
-8.5899999999999999

>  <m_primary>  (6) 
energy

$$$$
6:0
     RDKit          3D

 64 69  0  0  0  0  0  0  0  0999 V2000
   -3.1030   17.5970  -34.5640 C   0  0  0  0  0  0  0  0  0  0  0  0
   -3.1500   18.2820  -33.1870 C   0  0  2  0  0  0  0  0  0  0  0  0
   -4.5640   18.6680  -32.8790 C   0  0  0  0  0  0  0  0  0  0  0  0
   -5.5460   17.8230  -32.4900 N   0  0  0  0  0  0  0  0  0  0  0  0
   -6.6500   18.5870  -32.3940 C   0  0  0  0  0  0  0  0  0  0  0  0
   -7.9290   18.1810  -32.0150 C   0  0  0  0  0  0  0  0  0  0  0  0
   -8.9450   19.1550  -31.9780 C   0  0  0  0  0  0  0  0  0  0  0  0
   -8.6640   20.4980  -32.3200 C   0  0  0  0  0  0  0  0  0  0  0  0
   -7.3630   20.8810  -32.6980 C   0  0  0  0  0  0  0  0  0  0  0  0
   -6.3790   19.8940  -32.7250 C   0  0  0  0  0  0  0  0  0  0  0  0
   -5.0410   19.9480  -33.0500 C   0  0  0  0  0  0  0  0  0  0  0  0
   -4.1920   21.1250  -33.3920 C   0  0  0  0  0  0  0  0  0  0  0  0
   -2.7670   20.6870  -33.8180 C   0  0  0  0  0  0  0  0  0  0  0  0
   -2.2420   19.4680  -33.1320 N   0  0  1  0  0  0  0  0  0  0  0  0
   -1.7670   19.7040  -31.7760 C   0  0  0  0  0  0  0  0  0  0  0  0
   -1.0500   18.8310  -31.2160 O   0  0  0  0  0  0  0  0  0  0  0  0
   -2.0790   20.9230  -31.0080 C   0  0  0  0  0  0  0  0  0  0  0  0
   -3.3040   21.0570  -30.3390 C   0  0  0  0  0  0  0  0  0  0  0  0
   -3.5660   22.2020  -29.5790 C   0  0  0  0  0  0  0  0  0  0  0  0
   -2.5910   23.2080  -29.4550 C   0  0  0  0  0  0  0  0  0  0  0  0
   -2.7910   24.3540  -28.6150 N   0  0  0  0  0  0  0  0  0  0  0  0
   -1.7760   25.2480  -28.1380 C   0  0  0  0  0  0  0  0  0  0  0  0
   -1.2510   26.0500  -28.9550 O   0  0  0  0  0  0  0  0  0  0  0  0
   -1.4210   25.3330  -26.6980 C   0  0  0  0  0  0  0  0  0  0  0  0
   -1.5970   26.5620  -26.0340 C   0  0  0  0  0  0  0  0  0  0  0  0
   -1.1640   26.7310  -24.7190 C   0  0  0  0  0  0  0  0  0  0  0  0
   -0.5490   25.6770  -24.0460 C   0  0  0  0  0  0  0  0  0  0  0  0
   -0.3780   24.4460  -24.6800 C   0  0  0  0  0  0  0  0  0  0  0  0
   -0.8100   24.2530  -26.0040 C   0  0  0  0  0  0  0  0  0  0  0  0
   -0.6290   22.9130  -26.6160 C   0  0  0  0  0  0  0  0  0  0  0  0
    0.5820   22.5810  -27.2490 C   0  0  0  0  0  0  0  0  0  0  0  0
    0.7610   21.3110  -27.8050 C   0  0  0  0  0  0  0  0  0  0  0  0
   -0.2620   20.3630  -27.7330 C   0  0  0  0  0  0  0  0  0  0  0  0
   -1.4660   20.6790  -27.0950 C   0  0  0  0  0  0  0  0  0  0  0  0
   -1.6480   21.9460  -26.5330 C   0  0  0  0  0  0  0  0  0  0  0  0
   -1.3580   23.0520  -30.0970 C   0  0  0  0  0  0  0  0  0  0  0  0
   -1.1040   21.9200  -30.8760 C   0  0  0  0  0  0  0  0  0  0  0  0
   -3.0283   16.5078  -34.4293 H   0  0  0  0  0  0  0  0  0  0  0  0
   -4.0196   17.8353  -35.1235 H   0  0  0  0  0  0  0  0  0  0  0  0
   -2.2275   17.9582  -35.1235 H   0  0  0  0  0  0  0  0  0  0  0  0
   -2.7925   17.5741  -32.4248 H   0  0  0  0  0  0  0  0  0  0  0  0
   -5.4670   16.7970  -32.3090 H   0  0  0  0  0  0  0  0  0  0  0  0
   -8.1375   17.1331  -31.7533 H   0  0  0  0  0  0  0  0  0  0  0  0
   -9.9648   18.8692  -31.6809 H   0  0  0  0  0  0  0  0  0  0  0  0
   -9.4675   21.2487  -32.2905 H   0  0  0  0  0  0  0  0  0  0  0  0
   -7.1310   21.9231  -32.9629 H   0  0  0  0  0  0  0  0  0  0  0  0
   -4.6604   21.6759  -34.2210 H   0  0  0  0  0  0  0  0  0  0  0  0
   -4.1070   21.7627  -32.4998 H   0  0  0  0  0  0  0  0  0  0  0  0
   -2.7817   20.4884  -34.8998 H   0  0  0  0  0  0  0  0  0  0  0  0
   -2.0969   21.5104  -33.5302 H   0  0  0  0  0  0  0  0  0  0  0  0
   -1.3750   19.2180  -33.6670 H   0  0  0  0  0  0  0  0  0  0  0  0
   -4.0598   20.2611  -30.4118 H   0  0  0  0  0  0  0  0  0  0  0  0
   -4.5380   22.3159  -29.0767 H   0  0  0  0  0  0  0  0  0  0  0  0
   -2.0817   27.3987  -26.5585 H   0  0  0  0  0  0  0  0  0  0  0  0
   -1.3080   27.6969  -24.2128 H   0  0  0  0  0  0  0  0  0  0  0  0
   -0.1977   25.8159  -23.0129 H   0  0  0  0  0  0  0  0  0  0  0  0
    0.1003   23.6170  -24.1378 H   0  0  0  0  0  0  0  0  0  0  0  0
    1.3915   23.3235  -27.3069 H   0  0  0  0  0  0  0  0  0  0  0  0
    1.7099   21.0577  -28.3004 H   0  0  0  0  0  0  0  0  0  0  0  0
   -0.1208   19.3671  -28.1783 H   0  0  0  0  0  0  0  0  0  0  0  0
   -2.2698   19.9304  -27.0355 H   0  0  0  0  0  0  0  0  0  0  0  0
   -2.5923   22.1883  -26.0234 H   0  0  0  0  0  0  0  0  0  0  0  0
   -0.5834   23.8254  -29.9879 H   0  0  0  0  0  0  0  0  0  0  0  0
   -0.1359   21.8116  -31.3869 H   0  0  0  0  0  0  0  0  0  0  0  0
  1  2  1  0
  2  3  1  0
  3  4  1  0
  4  5  1  0
  5  6  2  0
  6  7  1  0
  7  8  2  0
  8  9  1  0
  9 10  2  0
 10 11  1  0
 11 12  1  0
 12 13  1  0
 13 14  1  0
 14 15  1  0
 15 16  2  0
 15 17  1  0
 17 18  2  0
 18 19  1  0
 19 20  2  0
 20 21  1  0
 21 22  1  0
 22 23  2  0
 22 24  1  0
 24 25  2  0
 25 26  1  0
 26 27  2  0
 27 28  1  0
 28 29  2  0
 29 30  1  0
 30 31  2  0
 31 32  1  0
 32 33  2  0
 33 34  1  0
 34 35  2  0
 20 36  1  0
 36 37  2  0
 14  2  1  0
 37 17  1  0
 11  3  2  0
 29 24  1  0
 35 30  1  0
 10  5  1  0
  1 38  1  0
  1 39  1  0
  1 40  1  0
  2 41  1  1
  4 42  1  0
  6 43  1  0
  7 44  1  0
  8 45  1  0
  9 46  1  0
 12 47  1  0
 12 48  1  0
 13 49  1  0
 13 50  1  0
 14 51  1  6
 18 52  1  0
 19 53  1  0
 25 54  1  0
 26 55  1  0
 27 56  1  0
 28 57  1  0
 31 58  1  0
 32 59  1  0
 33 60  1  0
 34 61  1  0
 35 62  1  0
 36 63  1  0
 37 64  1  0
M  CHG  2  14   1  21  -1
M  END
>  <UniqueID>  (7) 
7

>  <SMILES>  (7) 
C[C@@H]1c2[nH]c3ccccc3c2CC[N@H+]1C(=O)c1ccc([N-]C(=O)c2ccccc2-c2ccccc2)cc1

>  <Energy>  (7) 
134.55500132770405

>  <Genealogy>  (7) 
CC1c2[nH]c3ccccc3c2CC[NH+]1C(=O)c1ccc([N-]C(=O)c2ccccc2-c2ccccc2)cc1 (protonated)
C[C@@H]1c2[nH]c3ccccc3c2CC[N@H+]1C(=O)c1ccc([N-]C(=O)c2ccccc2-c2ccccc2)cc1 (chirality)
C[C@@H]1c2[nH]c3ccccc3c2CC[N@H+]1C(=O)c1ccc([N-]C(=O)c2ccccc2-c2ccccc2)cc1 (3D coordinates assigned)
C[C@@H]1c2[nH]c3ccccc3c2CC[N@H+]1C(=O)c1ccc([N-]C(=O)c2ccccc2-c2ccccc2)cc1 (nonaromatic ring conformer: 134.55500132770405 kcal/mol)

>  <smiles>  (7) 
CC1c2[nH]c3ccccc3c2CCN1C(=O)c1ccc(NC(=O)c2ccccc2-c2ccccc2)cc1

>  <score_type>  (7) 
oracle

>  <origin>  (7) 
adg

>  <m_score__min__energy>  (7) 
-11.699999999999999

>  <m_primary>  (7) 
energy

$$$$
7:0
     RDKit          3D

 63 67  0  0  0  0  0  0  0  0999 V2000
   -2.2712   24.5758  -30.1312 H   0  0  0  0  0  0  0  0  0  0  0  0
   -2.8820   23.6850  -29.9230 C   0  0  0  0  0  0  0  0  0  0  0  0
   -4.2250   23.8320  -29.9690 C   0  0  0  0  0  0  0  0  0  0  0  0
   -5.0010   23.2170  -31.0780 C   0  0  0  0  0  0  0  0  0  0  0  0
   -4.4190   22.4500  -31.9010 O   0  0  0  0  0  0  0  0  0  0  0  0
   -6.4500   23.5510  -31.2470 C   0  0  0  0  0  0  0  0  0  0  0  0
   -7.2530   22.9210  -32.1310 C   0  0  0  0  0  0  0  0  0  0  0  0
   -7.8986   23.5409  -32.7705 H   0  0  0  0  0  0  0  0  0  0  0  0
   -7.3220   21.4600  -32.2960 C   0  0  0  0  0  0  0  0  0  0  0  0
   -8.2970   20.7160  -31.6150 C   0  0  0  0  0  0  0  0  0  0  0  0
   -9.0060   21.2242  -30.9449 H   0  0  0  0  0  0  0  0  0  0  0  0
   -8.3700   19.3280  -31.7860 C   0  0  0  0  0  0  0  0  0  0  0  0
   -9.1448   18.7503  -31.2607 H   0  0  0  0  0  0  0  0  0  0  0  0
   -7.4590   18.6740  -32.6240 C   0  0  0  0  0  0  0  0  0  0  0  0
   -7.5380   17.3280  -32.8050 N   0  0  0  0  0  0  0  0  0  0  0  0
   -6.6710   16.6590  -33.6170 C   0  0  0  0  0  0  0  0  0  0  0  0
   -6.7740   15.2760  -33.7890 O   0  0  0  0  0  0  0  0  0  0  0  0
   -5.6420   14.4370  -33.9900 C   0  0  0  0  0  0  0  0  0  0  0  0
   -5.2327   14.1337  -33.0151 H   0  0  0  0  0  0  0  0  0  0  0  0
   -5.9440   13.5429  -34.5551 H   0  0  0  0  0  0  0  0  0  0  0  0
   -4.8744   14.9860  -34.5551 H   0  0  0  0  0  0  0  0  0  0  0  0
   -5.6620   17.3600  -34.2870 C   0  0  0  0  0  0  0  0  0  0  0  0
   -4.9565   16.8243  -34.9392 H   0  0  0  0  0  0  0  0  0  0  0  0
   -5.5550   18.7410  -34.1240 C   0  0  0  0  0  0  0  0  0  0  0  0
   -4.7639   19.2987  -34.6466 H   0  0  0  0  0  0  0  0  0  0  0  0
   -6.4590   19.4160  -33.2920 C   0  0  0  0  0  0  0  0  0  0  0  0
   -6.3940   20.8070  -33.1240 C   0  0  0  0  0  0  0  0  0  0  0  0
   -5.6155   21.3871  -33.6412 H   0  0  0  0  0  0  0  0  0  0  0  0
   -7.0910   24.5850  -30.3430 C   0  0  0  0  0  0  0  0  0  0  0  0
   -7.6856   25.2693  -30.9661 H   0  0  0  0  0  0  0  0  0  0  0  0
   -7.7060   24.0359  -29.6148 H   0  0  0  0  0  0  0  0  0  0  0  0
   -6.0820   25.4170  -29.5380 C   0  0  0  0  0  0  0  0  0  0  0  0
   -5.5857   26.1301  -30.2126 H   0  0  0  0  0  0  0  0  0  0  0  0
   -6.6249   25.9488  -28.7427 H   0  0  0  0  0  0  0  0  0  0  0  0
   -5.0240   24.5260  -28.8890 C   0  0  0  0  0  0  0  0  0  0  0  0
   -4.3522   25.1420  -28.2732 H   0  0  0  0  0  0  0  0  0  0  0  0
   -5.5146   23.7746  -28.2529 H   0  0  0  0  0  0  0  0  0  0  0  0
   -2.1640   22.4300  -29.6170 C   0  0  0  0  0  0  0  0  0  0  0  0
   -1.2020   21.9590  -30.5160 C   0  0  0  0  0  0  0  0  0  0  0  0
   -1.0444   22.4833  -31.4701 H   0  0  0  0  0  0  0  0  0  0  0  0
   -0.4390   20.8280  -30.2130 C   0  0  0  0  0  0  0  0  0  0  0  0
    0.2984   20.4628  -30.9430 H   0  0  0  0  0  0  0  0  0  0  0  0
   -0.5980   20.1420  -28.9810 C   0  0  0  0  0  0  0  0  0  0  0  0
    0.2170   18.9700  -28.6540 N   0  0  0  0  0  0  0  0  0  0  0  0
   -0.2060   18.1130  -27.5190 C   0  0  0  0  0  0  0  0  0  0  0  0
   -0.0649   18.6824  -26.5885 H   0  0  0  0  0  0  0  0  0  0  0  0
   -1.2560   17.8444  -27.7069 H   0  0  0  0  0  0  0  0  0  0  0  0
    0.5580   16.8010  -27.3930 C   0  0  0  0  0  0  0  0  0  0  0  0
    0.3779   16.3712  -26.3966 H   0  0  0  0  0  0  0  0  0  0  0  0
    0.2081   16.1085  -28.1727 H   0  0  0  0  0  0  0  0  0  0  0  0
    2.0470   17.0350  -27.5750 C   0  0  0  0  0  0  0  0  0  0  0  0
    2.3924   17.8027  -26.8670 H   0  0  0  0  0  0  0  0  0  0  0  0
    2.6035   16.1053  -27.3851 H   0  0  0  0  0  0  0  0  0  0  0  0
    2.2830   17.5050  -28.9970 C   0  0  0  0  0  0  0  0  0  0  0  0
    3.3612   17.6690  -29.1407 H   0  0  0  0  0  0  0  0  0  0  0  0
    1.9000   16.7283  -29.6753 H   0  0  0  0  0  0  0  0  0  0  0  0
    1.5390   18.8110  -29.3120 C   0  0  0  0  0  0  0  0  0  0  0  0
    2.1775   19.6491  -28.9960 H   0  0  0  0  0  0  0  0  0  0  0  0
    1.3369   18.7895  -30.3931 H   0  0  0  0  0  0  0  0  0  0  0  0
   -1.5690   20.6450  -28.0780 C   0  0  0  0  0  0  0  0  0  0  0  0
   -1.7344   20.1297  -27.1203 H   0  0  0  0  0  0  0  0  0  0  0  0
   -2.3190   21.7830  -28.3830 C   0  0  0  0  0  0  0  0  0  0  0  0
   -3.0378   22.1751  -27.6484 H   0  0  0  0  0  0  0  0  0  0  0  0
  1  2  1  0
  2  3  2  3
  3  4  1  0
  4  5  2  0
  4  6  1  0
  6  7  2  0
  7  8  1  0
  7  9  1  0
  9 10  2  0
 10 11  1  0
 10 12  1  0
 12 13  1  0
 12 14  2  0
 14 15  1  0
 15 16  2  0
 16 17  1  0
 17 18  1  0
 18 19  1  0
 18 20  1  0
 18 21  1  0
 16 22  1  0
 22 23  1  0
 22 24  2  0
 24 25  1  0
 24 26  1  0
 26 27  2  0
 27 28  1  0
  6 29  1  0
 29 30  1  0
 29 31  1  0
 29 32  1  0
 32 33  1  0
 32 34  1  0
 32 35  1  0
 35 36  1  0
 35 37  1  0
  2 38  1  0
 38 39  2  0
 39 40  1  0
 39 41  1  0
 41 42  1  0
 41 43  2  0
 43 44  1  0
 44 45  1  0
 45 46  1  0
 45 47  1  0
 45 48  1  0
 48 49  1  0
 48 50  1  0
 48 51  1  0
 51 52  1  0
 51 53  1  0
 51 54  1  0
 54 55  1  0
 54 56  1  0
 54 57  1  0
 57 58  1  0
 57 59  1  0
 43 60  1  0
 60 61  1  0
 60 62  2  0
 62 63  1  0
 35  3  1  0
 62 38  1  0
 27  9  1  0
 57 44  1  0
 26 14  1  0
M  END
>  <UniqueID>  (8) 
8

>  <SMILES>  (8) 
COc1ccc2cc(/C=C3/CCCC(=Cc4ccc(N5CCCCC5)cc4)C3=O)ccc2n1

>  <Energy>  (8) 
93.37094634658827

>  <Genealogy>  (8) 
COc1ccc2cc(/C=C3/CCCC(=Cc4ccc(N5CCCCC5)cc4)C3=O)ccc2n1 (cis-trans isomerization)
COc1ccc2cc(/C=C3/CCCC(=Cc4ccc(N5CCCCC5)cc4)C3=O)ccc2n1 (3D coordinates assigned)
COc1ccc2cc(/C=C3/CCCC(=Cc4ccc(N5CCCCC5)cc4)C3=O)ccc2n1 (nonaromatic ring conformer: 93.37094634658827 kcal/mol)

>  <smiles>  (8) 
COc1ccc2cc(C=C3CCCC(=Cc4ccc(N5CCCCC5)cc4)C3=O)ccc2n1

>  <score_type>  (8) 
oracle

>  <origin>  (8) 
adg

>  <m_score__min__energy>  (8) 
-10.859999999999999

>  <m_primary>  (8) 
energy

$$$$
8:0
     RDKit          3D

 26 28  0  0  0  0  0  0  0  0999 V2000
   -6.1110   25.7010  -29.9090 C   0  0  0  0  0  0  0  0  0  0  0  0
   -6.1560   24.3780  -30.6140 C   0  0  0  0  0  0  0  0  0  0  0  0
   -4.9710   23.6720  -30.8680 C   0  0  0  0  0  0  0  0  0  0  0  0
   -5.0140   22.4220  -31.4910 C   0  0  0  0  0  0  0  0  0  0  0  0
   -6.2440   21.8540  -31.8640 C   0  0  0  0  0  0  0  0  0  0  0  0
   -6.2800   20.5610  -32.5000 N   0  0  0  0  0  0  0  0  0  0  0  0
   -5.5500   20.2310  -33.5660 N   0  0  0  0  0  0  0  0  0  0  0  0
   -5.8550   18.9600  -33.8750 C   0  0  0  0  0  0  0  0  0  0  0  0
   -5.4120   18.1140  -34.8720 C   0  0  0  0  0  0  0  0  0  0  0  0
   -6.2900   16.6830  -34.5940 S   0  0  0  0  0  0  0  0  0  0  0  0
   -7.1960   17.1640  -33.2360 C   0  0  0  0  0  0  0  0  0  0  0  0
   -6.7840   18.4640  -33.0180 C   0  0  0  0  0  0  0  0  0  0  0  0
   -7.0500   19.4920  -32.1490 C   0  0  0  0  0  0  0  0  0  0  0  0
   -7.8870   19.4730  -31.2090 O   0  0  0  0  0  0  0  0  0  0  0  0
   -7.4310   22.5530  -31.5850 C   0  0  0  0  0  0  0  0  0  0  0  0
   -7.3870   23.8030  -30.9600 C   0  0  0  0  0  0  0  0  0  0  0  0
   -6.1166   25.5372  -28.8213 H   0  0  0  0  0  0  0  0  0  0  0  0
   -5.1941   26.2375  -30.1943 H   0  0  0  0  0  0  0  0  0  0  0  0
   -6.9893   26.2986  -30.1943 H   0  0  0  0  0  0  0  0  0  0  0  0
   -4.0029   24.1045  -30.5753 H   0  0  0  0  0  0  0  0  0  0  0  0
   -4.0786   21.8788  -31.6908 H   0  0  0  0  0  0  0  0  0  0  0  0
   -4.8580   20.8450  -34.0520 H   0  0  0  0  0  0  0  0  0  0  0  0
   -4.6694   18.3164  -35.6578 H   0  0  0  0  0  0  0  0  0  0  0  0
   -7.9338   16.5789  -32.6674 H   0  0  0  0  0  0  0  0  0  0  0  0
   -8.4012   22.1137  -31.8602 H   0  0  0  0  0  0  0  0  0  0  0  0
   -8.3225   24.3377  -30.7388 H   0  0  0  0  0  0  0  0  0  0  0  0
  1  2  1  0
  2  3  2  0
  3  4  1  0
  4  5  2  0
  5  6  1  0
  6  7  1  0
  7  8  1  0
  8  9  2  0
  9 10  1  0
 10 11  1  0
 11 12  2  0
 12 13  1  0
 13 14  2  0
  5 15  1  0
 15 16  2  0
 16  2  1  0
 13  6  1  0
 12  8  1  0
  1 17  1  0
  1 18  1  0
  1 19  1  0
  3 20  1  0
  4 21  1  0
  7 22  1  0
  9 23  1  0
 11 24  1  0
 15 25  1  0
 16 26  1  0
M  END
>  <UniqueID>  (9) 
9

>  <SMILES>  (9) 
Cc1ccc(-n2[nH]c3cscc3c2=O)cc1

>  <Energy>  (9) 
110.80939990028003

>  <Genealogy>  (9) 
Cc1ccc(-n2[nH]c3cscc3c2=O)cc1 (3D coordinates assigned)
Cc1ccc(-n2[nH]c3cscc3c2=O)cc1 (optimized conformer: 110.80939990028003 kcal/mol)

>  <smiles>  (9) 
Cc1ccc(-n2[nH]c3cscc3c2=O)cc1

>  <score_type>  (9) 
oracle

>  <origin>  (9) 
adg

>  <m_score__min__energy>  (9) 
-6.3899999999999997

>  <m_primary>  (9) 
energy

$$$$
9:0
     RDKit          3D

 47 49  0  0  0  0  0  0  0  0999 V2000
   -1.4860   25.6960  -25.4690 C   0  0  0  0  0  0  0  0  0  0  0  0
   -1.0230   24.7520  -26.4300 O   0  0  0  0  0  0  0  0  0  0  0  0
   -1.8180   24.1940  -27.4430 C   0  0  0  0  0  0  0  0  0  0  0  0
   -2.3820   24.9690  -28.4710 C   0  0  0  0  0  0  0  0  0  0  0  0
   -3.1740   24.3680  -29.4680 C   0  0  0  0  0  0  0  0  0  0  0  0
   -3.7950   25.1250  -30.4750 O   0  0  0  0  0  0  0  0  0  0  0  0
   -5.1990   25.3230  -30.5970 C   0  0  0  0  0  0  0  0  0  0  0  0
   -3.3750   22.9720  -29.4450 C   0  0  0  0  0  0  0  0  0  0  0  0
   -4.1770   22.3380  -30.4540 N   0  0  0  0  0  0  0  0  0  0  0  0
   -3.6000   21.5950  -31.5330 C   0  0  0  0  0  0  0  0  0  0  0  0
   -2.5060   20.9890  -31.3630 O   0  0  0  0  0  0  0  0  0  0  0  0
   -4.2670   21.5720  -32.8770 C   0  0  0  0  0  0  0  0  0  0  0  0
   -5.5940   20.9390  -32.7770 N   0  0  0  0  0  0  0  0  0  0  0  0
   -6.7210   21.7280  -32.3250 C   0  0  0  0  0  0  0  0  0  0  0  0
   -6.5670   22.9350  -31.9950 O   0  0  0  0  0  0  0  0  0  0  0  0
   -8.0900   21.1260  -32.2480 C   0  0  0  0  0  0  0  0  0  0  0  0
   -7.9540   19.5300  -31.4010 S   0  0  0  0  0  0  0  0  0  0  0  0
   -6.9170   18.8410  -32.6960 C   0  0  0  0  0  0  0  0  0  0  0  0
   -7.2260   17.5750  -33.2060 C   0  0  0  0  0  0  0  0  0  0  0  0
   -6.4160   16.9950  -34.1830 C   0  0  0  0  0  0  0  0  0  0  0  0
   -5.2950   17.6780  -34.6550 C   0  0  0  0  0  0  0  0  0  0  0  0
   -4.9920   18.9530  -34.1680 C   0  0  0  0  0  0  0  0  0  0  0  0
   -5.8080   19.5630  -33.1910 C   0  0  0  0  0  0  0  0  0  0  0  0
   -2.8330   22.1960  -28.4060 C   0  0  0  0  0  0  0  0  0  0  0  0
   -3.0800   20.8140  -28.4000 O   0  0  0  0  0  0  0  0  0  0  0  0
   -2.6930   19.9290  -27.3540 C   0  0  0  0  0  0  0  0  0  0  0  0
   -2.0540   22.8170  -27.4130 C   0  0  0  0  0  0  0  0  0  0  0  0
   -1.2971   25.3108  -24.4561 H   0  0  0  0  0  0  0  0  0  0  0  0
   -0.9529   26.6486  -25.6044 H   0  0  0  0  0  0  0  0  0  0  0  0
   -2.5656   25.8576  -25.6044 H   0  0  0  0  0  0  0  0  0  0  0  0
   -2.2032   26.0541  -28.4968 H   0  0  0  0  0  0  0  0  0  0  0  0
   -5.6488   25.3864  -29.5952 H   0  0  0  0  0  0  0  0  0  0  0  0
   -5.3913   26.2572  -31.1451 H   0  0  0  0  0  0  0  0  0  0  0  0
   -5.6421   24.4785  -31.1451 H   0  0  0  0  0  0  0  0  0  0  0  0
   -5.2170   22.3700  -30.3690 H   0  0  0  0  0  0  0  0  0  0  0  0
   -4.3831   22.6030  -33.2425 H   0  0  0  0  0  0  0  0  0  0  0  0
   -3.6454   20.9930  -33.5758 H   0  0  0  0  0  0  0  0  0  0  0  0
   -8.7593   21.7921  -31.6838 H   0  0  0  0  0  0  0  0  0  0  0  0
   -8.5039   20.9883  -33.2578 H   0  0  0  0  0  0  0  0  0  0  0  0
   -8.1101   17.0355  -32.8356 H   0  0  0  0  0  0  0  0  0  0  0  0
   -6.6614   15.9993  -34.5810 H   0  0  0  0  0  0  0  0  0  0  0  0
   -4.6476   17.2121  -35.4125 H   0  0  0  0  0  0  0  0  0  0  0  0
   -4.1089   19.4861  -34.5500 H   0  0  0  0  0  0  0  0  0  0  0  0
   -2.8986   20.3992  -26.3810 H   0  0  0  0  0  0  0  0  0  0  0  0
   -3.2636   18.9922  -27.4364 H   0  0  0  0  0  0  0  0  0  0  0  0
   -1.6178   19.7119  -27.4364 H   0  0  0  0  0  0  0  0  0  0  0  0
   -1.6248   22.2105  -26.6019 H   0  0  0  0  0  0  0  0  0  0  0  0
  1  2  1  0
  2  3  1  0
  3  4  2  0
  4  5  1  0
  5  6  1  0
  6  7  1  0
  5  8  2  0
  8  9  1  0
  9 10  1  0
 10 11  2  0
 10 12  1  0
 12 13  1  0
 13 14  1  0
 14 15  2  0
 14 16  1  0
 16 17  1  0
 17 18  1  0
 18 19  2  0
 19 20  1  0
 20 21  2  0
 21 22  1  0
 22 23  2  0
  8 24  1  0
 24 25  1  0
 25 26  1  0
 24 27  2  0
 27  3  1  0
 23 13  1  0
 23 18  1  0
  1 28  1  0
  1 29  1  0
  1 30  1  0
  4 31  1  0
  7 32  1  0
  7 33  1  0
  7 34  1  0
  9 35  1  0
 12 36  1  0
 12 37  1  0
 16 38  1  0
 16 39  1  0
 19 40  1  0
 20 41  1  0
 21 42  1  0
 22 43  1  0
 26 44  1  0
 26 45  1  0
 26 46  1  0
 27 47  1  0
M  END
>  <UniqueID>  (10) 
10

>  <SMILES>  (10) 
COc1cc(OC)c(NC(=O)CN2C(=O)CSc3ccccc32)c(OC)c1

>  <Energy>  (10) 
56.52364688456314

>  <Genealogy>  (10) 
COc1cc(OC)c(NC(=O)CN2C(=O)CSc3ccccc32)c(OC)c1 (3D coordinates assigned)
COc1cc(OC)c(NC(=O)CN2C(=O)CSc3ccccc32)c(OC)c1 (nonaromatic ring conformer: 56.52364688456314 kcal/mol)

>  <smiles>  (10) 
COc1cc(OC)c(NC(=O)CN2C(=O)CSc3ccccc32)c(OC)c1

>  <score_type>  (10) 
oracle

>  <origin>  (10) 
adg

>  <m_score__min__energy>  (10) 
-8.2300000000000004

>  <m_primary>  (10) 
energy

$$$$
10:0
     RDKit          3D

 40 43  0  0  0  0  0  0  0  0999 V2000
   -1.7230   20.2050  -33.0020 C   0  0  0  0  0  0  0  0  0  0  0  0
   -2.9510   20.1560  -33.7210 O   0  0  0  0  0  0  0  0  0  0  0  0
   -4.2150   20.2870  -33.1300 C   0  0  0  0  0  0  0  0  0  0  0  0
   -5.2980   19.4240  -33.4210 C   0  0  0  0  0  0  0  0  0  0  0  0
   -6.5550   19.6080  -32.7920 C   0  0  0  0  0  0  0  0  0  0  0  0
   -7.6290   18.7520  -33.0830 C   0  0  0  0  0  0  0  0  0  0  0  0
   -8.8660   18.9380  -32.4600 C   0  0  0  0  0  0  0  0  0  0  0  0
   -9.0450   19.9780  -31.5430 C   0  0  0  0  0  0  0  0  0  0  0  0
   -7.9880   20.8410  -31.2400 C   0  0  0  0  0  0  0  0  0  0  0  0
   -6.7400   20.6660  -31.8590 C   0  0  0  0  0  0  0  0  0  0  0  0
   -5.6450   21.4970  -31.5950 C   0  0  0  0  0  0  0  0  0  0  0  0
   -5.5040   22.5900  -30.7630 C   0  0  0  0  0  0  0  0  0  0  0  0
   -4.1810   22.9930  -30.9370 C   0  0  0  0  0  0  0  0  0  0  0  0
   -3.5230   24.1390  -30.2860 C   0  0  0  0  0  0  0  0  0  0  0  0
   -3.8670   25.3030  -30.6250 O   0  0  0  0  0  0  0  0  0  0  0  0
   -2.5020   23.9670  -29.2840 N   0  0  0  0  0  0  0  0  0  0  0  0
   -1.4830   22.9200  -29.3940 C   0  0  0  0  0  0  0  0  0  0  0  0
   -0.1140   23.5040  -29.0290 C   0  0  0  0  0  0  0  0  0  0  0  0
   -0.1610   24.1460  -27.7670 O   0  0  0  0  0  0  0  0  0  0  0  0
   -1.0240   25.2660  -27.8290 C   0  0  0  0  0  0  0  0  0  0  0  0
   -2.4680   24.8290  -28.0990 C   0  0  0  0  0  0  0  0  0  0  0  0
   -3.5720   22.2130  -31.8110 O   0  0  0  0  0  0  0  0  0  0  0  0
   -4.4340   21.3110  -32.2110 C   0  0  0  0  0  0  0  0  0  0  0  0
   -1.9301   20.1967  -31.9217 H   0  0  0  0  0  0  0  0  0  0  0  0
   -1.1093   19.3306  -33.2644 H   0  0  0  0  0  0  0  0  0  0  0  0
   -1.1809   21.1255  -33.2644 H   0  0  0  0  0  0  0  0  0  0  0  0
   -5.1634   18.6036  -34.1413 H   0  0  0  0  0  0  0  0  0  0  0  0
   -7.4963   17.9319  -33.8040 H   0  0  0  0  0  0  0  0  0  0  0  0
   -9.7028   18.2629  -32.6922 H   0  0  0  0  0  0  0  0  0  0  0  0
  -10.0222   20.1178  -31.0577 H   0  0  0  0  0  0  0  0  0  0  0  0
   -8.1339   21.6569  -30.5169 H   0  0  0  0  0  0  0  0  0  0  0  0
   -6.2650   23.0414  -30.1095 H   0  0  0  0  0  0  0  0  0  0  0  0
   -1.7264   22.0969  -28.7061 H   0  0  0  0  0  0  0  0  0  0  0  0
   -1.4573   22.5383  -30.4253 H   0  0  0  0  0  0  0  0  0  0  0  0
    0.6266   22.6915  -28.9929 H   0  0  0  0  0  0  0  0  0  0  0  0
    0.1676   24.2453  -29.7913 H   0  0  0  0  0  0  0  0  0  0  0  0
   -0.9839   25.8051  -26.8710 H   0  0  0  0  0  0  0  0  0  0  0  0
   -0.6946   25.9186  -28.6509 H   0  0  0  0  0  0  0  0  0  0  0  0
   -2.8521   24.2741  -27.2303 H   0  0  0  0  0  0  0  0  0  0  0  0
   -3.0944   25.7165  -28.2720 H   0  0  0  0  0  0  0  0  0  0  0  0
  1  2  1  0
  2  3  1  0
  3  4  2  0
  4  5  1  0
  5  6  2  0
  6  7  1  0
  7  8  2  0
  8  9  1  0
  9 10  2  0
 10 11  1  0
 11 12  1  0
 12 13  2  0
 13 14  1  0
 14 15  2  0
 14 16  1  0
 16 17  1  0
 17 18  1  0
 18 19  1  0
 19 20  1  0
 20 21  1  0
 13 22  1  0
 22 23  1  0
 23  3  1  0
 10  5  1  0
 23 11  2  0
 21 16  1  0
  1 24  1  0
  1 25  1  0
  1 26  1  0
  4 27  1  0
  6 28  1  0
  7 29  1  0
  8 30  1  0
  9 31  1  0
 12 32  1  0
 17 33  1  0
 17 34  1  0
 18 35  1  0
 18 36  1  0
 20 37  1  0
 20 38  1  0
 21 39  1  0
 21 40  1  0
M  END
>  <UniqueID>  (11) 
11

>  <SMILES>  (11) 
COc1cc2ccccc2c2cc(C(=O)N3CCOCC3)oc12

>  <Energy>  (11) 
83.88638487689558

>  <Genealogy>  (11) 
COc1cc2ccccc2c2cc(C(=O)N3CCOCC3)oc12 (3D coordinates assigned)
COc1cc2ccccc2c2cc(C(=O)N3CCOCC3)oc12 (nonaromatic ring conformer: 83.88638487689558 kcal/mol)

>  <smiles>  (11) 
COc1cc2ccccc2c2cc(C(=O)N3CCOCC3)oc12

>  <score_type>  (11) 
oracle

>  <origin>  (11) 
adg

>  <m_score__min__energy>  (11) 
-8.0600000000000005

>  <m_primary>  (11) 
energy

$$$$
11:0
     RDKit          3D

 71 75  0  0  0  0  0  0  0  0999 V2000
    1.0120   21.9800  -34.6020 N   0  0  0  0  0  0  0  0  0  0  0  0
    0.0230   21.4430  -34.3360 C   0  0  0  0  0  0  0  0  0  0  0  0
   -1.2080   20.7750  -34.0050 C   0  0  0  0  0  0  0  0  0  0  0  0
   -2.1540   21.4100  -33.2090 C   0  0  0  0  0  0  0  0  0  0  0  0
   -3.3450   20.7640  -32.8800 C   0  0  0  0  0  0  0  0  0  0  0  0
   -3.6370   19.4530  -33.3420 C   0  0  0  0  0  0  0  0  0  0  0  0
   -4.9090   18.8110  -32.9800 N   0  0  0  0  0  0  0  0  0  0  0  0
   -5.7810   18.3000  -34.0680 C   0  0  0  0  0  0  0  0  0  0  0  0
   -7.0900   17.6140  -33.6200 C   0  0  0  0  0  0  0  0  0  0  0  0
   -7.6080   18.1120  -32.3330 N   0  0  0  0  0  0  0  0  0  0  0  0
   -8.0920   19.4890  -32.3960 C   0  0  0  0  0  0  0  0  0  0  0  0
   -8.2540   20.0460  -33.4730 O   0  0  0  0  0  0  0  0  0  0  0  0
   -8.5330   20.2210  -31.1480 C   0  0  0  0  0  0  0  0  0  0  0  0
   -8.2150   21.6610  -31.2530 N   0  0  0  0  0  0  0  0  0  0  0  0
   -7.0370   21.9090  -32.1200 C   0  0  0  0  0  0  0  0  0  0  0  0
   -5.7110   21.8570  -31.3380 C   0  0  0  0  0  0  0  0  0  0  0  0
   -5.7000   22.7190  -30.1230 N   0  0  0  0  0  0  0  0  0  0  0  0
   -4.6290   23.7330  -30.1630 C   0  0  0  0  0  0  0  0  0  0  0  0
   -3.3260   23.1350  -29.6940 C   0  0  0  0  0  0  0  0  0  0  0  0
   -3.1810   21.7370  -29.6590 C   0  0  0  0  0  0  0  0  0  0  0  0
   -1.9760   21.1640  -29.2440 C   0  0  0  0  0  0  0  0  0  0  0  0
   -0.9060   21.9780  -28.8650 C   0  0  0  0  0  0  0  0  0  0  0  0
   -1.0380   23.3680  -28.9010 C   0  0  0  0  0  0  0  0  0  0  0  0
   -2.2420   23.9500  -29.3130 C   0  0  0  0  0  0  0  0  0  0  0  0
   -2.3430   25.3040  -29.3400 F   0  0  0  0  0  0  0  0  0  0  0  0
   -7.0030   23.3470  -29.8360 C   0  0  0  0  0  0  0  0  0  0  0  0
   -8.1140   22.2950  -29.9130 C   0  0  0  0  0  0  0  0  0  0  0  0
   -6.5700   17.9040  -31.3120 C   0  0  0  0  0  0  0  0  0  0  0  0
   -5.3450   18.7820  -31.5700 C   0  0  0  0  0  0  0  0  0  0  0  0
   -2.6540   18.8200  -34.1670 C   0  0  0  0  0  0  0  0  0  0  0  0
   -2.8270   17.5100  -34.6330 O   0  0  0  0  0  0  0  0  0  0  0  0
   -2.8370   16.3510  -33.8400 C   0  0  0  0  0  0  0  0  0  0  0  0
   -4.0450   15.6530  -33.7010 C   0  0  0  0  0  0  0  0  0  0  0  0
   -4.1040   14.4800  -32.9410 C   0  0  0  0  0  0  0  0  0  0  0  0
   -2.9510   13.9920  -32.3210 C   0  0  0  0  0  0  0  0  0  0  0  0
   -1.7360   14.6700  -32.4700 C   0  0  0  0  0  0  0  0  0  0  0  0
   -1.6700   15.8420  -33.2300 C   0  0  0  0  0  0  0  0  0  0  0  0
   -0.4620   16.4370  -33.4180 F   0  0  0  0  0  0  0  0  0  0  0  0
   -1.4560   19.4900  -34.4780 C   0  0  0  0  0  0  0  0  0  0  0  0
   -1.9621   22.4272  -32.8368 H   0  0  0  0  0  0  0  0  0  0  0  0
   -4.0782   21.2836  -32.2456 H   0  0  0  0  0  0  0  0  0  0  0  0
   -6.0499   19.1507  -34.7115 H   0  0  0  0  0  0  0  0  0  0  0  0
   -5.1955   17.5193  -34.5757 H   0  0  0  0  0  0  0  0  0  0  0  0
   -7.8543   17.7859  -34.3922 H   0  0  0  0  0  0  0  0  0  0  0  0
   -6.8639   16.5460  -33.4846 H   0  0  0  0  0  0  0  0  0  0  0  0
   -8.4270   17.5110  -32.0760 H   0  0  0  0  0  0  0  0  0  0  0  0
   -9.6187   20.0983  -31.0209 H   0  0  0  0  0  0  0  0  0  0  0  0
   -8.0001   19.8011  -30.2821 H   0  0  0  0  0  0  0  0  0  0  0  0
   -7.0119   21.1433  -32.9093 H   0  0  0  0  0  0  0  0  0  0  0  0
   -7.1380   22.9198  -32.5420 H   0  0  0  0  0  0  0  0  0  0  0  0
   -5.5308   20.8171  -31.0280 H   0  0  0  0  0  0  0  0  0  0  0  0
   -4.9261   22.2360  -32.0091 H   0  0  0  0  0  0  0  0  0  0  0  0
   -4.5113   24.0964  -31.1946 H   0  0  0  0  0  0  0  0  0  0  0  0
   -4.9001   24.5670  -29.4990 H   0  0  0  0  0  0  0  0  0  0  0  0
   -4.0196   21.0916  -29.9595 H   0  0  0  0  0  0  0  0  0  0  0  0
   -1.8698   20.0695  -29.2157 H   0  0  0  0  0  0  0  0  0  0  0  0
    0.0411   21.5241  -28.5380 H   0  0  0  0  0  0  0  0  0  0  0  0
   -0.1931   24.0070  -28.6046 H   0  0  0  0  0  0  0  0  0  0  0  0
   -6.9833   23.7842  -28.8268 H   0  0  0  0  0  0  0  0  0  0  0  0
   -7.1974   24.1357  -30.5778 H   0  0  0  0  0  0  0  0  0  0  0  0
   -7.9087   21.5119  -29.1683 H   0  0  0  0  0  0  0  0  0  0  0  0
   -9.0680   22.8059  -29.7157 H   0  0  0  0  0  0  0  0  0  0  0  0
   -6.9857   18.1520  -30.3242 H   0  0  0  0  0  0  0  0  0  0  0  0
   -6.2539   16.8511  -31.3512 H   0  0  0  0  0  0  0  0  0  0  0  0
   -5.5861   19.8101  -31.2620 H   0  0  0  0  0  0  0  0  0  0  0  0
   -4.5165   18.3476  -30.9912 H   0  0  0  0  0  0  0  0  0  0  0  0
   -4.9533   16.0306  -34.1933 H   0  0  0  0  0  0  0  0  0  0  0  0
   -5.0574   13.9423  -32.8316 H   0  0  0  0  0  0  0  0  0  0  0  0
   -2.9983   13.0747  -31.7157 H   0  0  0  0  0  0  0  0  0  0  0  0
   -0.8283   14.2791  -31.9869 H   0  0  0  0  0  0  0  0  0  0  0  0
   -0.7034   18.9897  -35.1052 H   0  0  0  0  0  0  0  0  0  0  0  0
  1  2  3  0
  2  3  1  0
  3  4  2  0
  4  5  1  0
  5  6  2  0
  6  7  1  0
  7  8  1  0
  8  9  1  0
  9 10  1  0
 10 11  1  0
 11 12  2  0
 11 13  1  0
 13 14  1  0
 14 15  1  0
 15 16  1  0
 16 17  1  0
 17 18  1  0
 18 19  1  0
 19 20  2  0
 20 21  1  0
 21 22  2  0
 22 23  1  0
 23 24  2  0
 24 25  1  0
 17 26  1  0
 26 27  1  0
 10 28  1  0
 28 29  1  0
  6 30  1  0
 30 31  1  0
 31 32  1  0
 32 33  2  0
 33 34  1  0
 34 35  2  0
 35 36  1  0
 36 37  2  0
 37 38  1  0
 30 39  2  0
 39  3  1  0
 29  7  1  0
 37 32  1  0
 27 14  1  0
 24 19  1  0
  4 40  1  0
  5 41  1  0
  8 42  1  0
  8 43  1  0
  9 44  1  0
  9 45  1  0
 10 46  1  0
 13 47  1  0
 13 48  1  0
 15 49  1  0
 15 50  1  0
 16 51  1  0
 16 52  1  0
 18 53  1  0
 18 54  1  0
 20 55  1  0
 21 56  1  0
 22 57  1  0
 23 58  1  0
 26 59  1  0
 26 60  1  0
 27 61  1  0
 27 62  1  0
 28 63  1  0
 28 64  1  0
 29 65  1  0
 29 66  1  0
 33 67  1  0
 34 68  1  0
 35 69  1  0
 36 70  1  0
 39 71  1  0
M  CHG  1  10   1
M  END
>  <UniqueID>  (12) 
12

>  <SMILES>  (12) 
N#Cc1ccc(N2CC[NH+](C(=O)CN3CCN(Cc4ccccc4F)CC3)CC2)c(Oc2ccccc2F)c1

>  <Energy>  (12) 
115.94717548410014

>  <Genealogy>  (12) 
N#Cc1ccc(N2CC[NH+](C(=O)CN3CCN(Cc4ccccc4F)CC3)CC2)c(Oc2ccccc2F)c1 (protonated)
N#Cc1ccc(N2CC[NH+](C(=O)CN3CCN(Cc4ccccc4F)CC3)CC2)c(Oc2ccccc2F)c1 (3D coordinates assigned)
N#Cc1ccc(N2CC[NH+](C(=O)CN3CCN(Cc4ccccc4F)CC3)CC2)c(Oc2ccccc2F)c1 (nonaromatic ring conformer: 115.94717548410014 kcal/mol)

>  <smiles>  (12) 
N#Cc1ccc(N2CCN(C(=O)CN3CCN(Cc4ccccc4F)CC3)CC2)c(Oc2ccccc2F)c1

>  <score_type>  (12) 
oracle

>  <origin>  (12) 
adg

>  <m_score__min__energy>  (12) 
-9.1999999999999993

>  <m_primary>  (12) 
energy

$$$$
12:0
     RDKit          3D

 55 57  0  0  0  0  0  0  0  0999 V2000
   -1.8930   20.7550  -27.0470 C   0  0  0  0  0  0  0  0  0  0  0  0
   -2.5770   20.3670  -28.3670 C   0  0  0  0  0  0  0  0  0  0  0  0
   -2.1830   21.2050  -29.5250 N   0  0  0  0  0  0  0  0  0  0  0  0
   -2.2450   20.4780  -30.8100 C   0  0  0  0  0  0  0  0  0  0  0  0
   -2.1320   21.4470  -31.9850 C   0  0  0  0  0  0  0  0  0  0  0  0
   -0.9040   21.9190  -29.3050 C   0  0  0  0  0  0  0  0  0  0  0  0
   -1.0790   23.4220  -29.5670 C   0  0  0  0  0  0  0  0  0  0  0  0
   -1.3190   24.1630  -28.3080 N   0  0  0  0  0  0  0  0  0  0  0  0
   -2.5820   24.2790  -27.7580 C   0  0  0  0  0  0  0  0  0  0  0  0
   -3.7900   23.5660  -28.3140 C   0  0  0  0  0  0  0  0  0  0  0  0
   -4.9150   24.4980  -28.4020 N   0  0  0  0  0  0  0  0  0  0  0  0
   -5.1910   24.9350  -30.0600 S   0  0  0  0  0  0  0  0  0  0  0  0
   -6.1040   26.1280  -30.1140 O   0  0  0  0  0  0  0  0  0  0  0  0
   -3.8870   25.3010  -30.7160 O   0  0  0  0  0  0  0  0  0  0  0  0
   -5.9540   23.5990  -30.9190 C   0  0  0  0  0  0  0  0  0  0  0  0
   -7.3430   23.4280  -30.8390 C   0  0  0  0  0  0  0  0  0  0  0  0
   -7.9610   22.3730  -31.5180 C   0  0  0  0  0  0  0  0  0  0  0  0
   -7.1940   21.4830  -32.2760 C   0  0  0  0  0  0  0  0  0  0  0  0
   -5.8080   21.6460  -32.3530 C   0  0  0  0  0  0  0  0  0  0  0  0
   -5.1870   22.7000  -31.6750 C   0  0  0  0  0  0  0  0  0  0  0  0
   -2.7660   25.0070  -26.6260 N   0  0  0  0  0  0  0  0  0  0  0  0
   -1.7470   25.6450  -26.0090 C   0  0  0  0  0  0  0  0  0  0  0  0
   -1.9880   26.3950  -24.8510 C   0  0  0  0  0  0  0  0  0  0  0  0
   -0.9340   27.0510  -24.2110 C   0  0  0  0  0  0  0  0  0  0  0  0
    0.3630   26.9600  -24.7230 C   0  0  0  0  0  0  0  0  0  0  0  0
    0.6100   26.2090  -25.8770 C   0  0  0  0  0  0  0  0  0  0  0  0
   -0.4470   25.5460  -26.5290 C   0  0  0  0  0  0  0  0  0  0  0  0
   -0.2540   24.7820  -27.6920 C   0  0  0  0  0  0  0  0  0  0  0  0
    0.9100   24.6730  -28.1730 O   0  0  0  0  0  0  0  0  0  0  0  0
   -2.5047   20.4080  -26.2012 H   0  0  0  0  0  0  0  0  0  0  0  0
   -0.8991   20.2862  -26.9974 H   0  0  0  0  0  0  0  0  0  0  0  0
   -1.7854   21.8486  -26.9974 H   0  0  0  0  0  0  0  0  0  0  0  0
   -2.3203   19.3218  -28.5943 H   0  0  0  0  0  0  0  0  0  0  0  0
   -3.6566   20.5185  -28.2200 H   0  0  0  0  0  0  0  0  0  0  0  0
   -1.4165   19.7559  -30.8566 H   0  0  0  0  0  0  0  0  0  0  0  0
   -3.2109   19.9556  -30.8743 H   0  0  0  0  0  0  0  0  0  0  0  0
   -2.0124   22.4722  -31.6046 H   0  0  0  0  0  0  0  0  0  0  0  0
   -1.2590   21.1793  -32.5984 H   0  0  0  0  0  0  0  0  0  0  0  0
   -3.0432   21.3874  -32.5984 H   0  0  0  0  0  0  0  0  0  0  0  0
   -0.5784   21.7677  -28.2652 H   0  0  0  0  0  0  0  0  0  0  0  0
   -0.1488   21.5210  -29.9988 H   0  0  0  0  0  0  0  0  0  0  0  0
   -0.1672   23.8112  -30.0436 H   0  0  0  0  0  0  0  0  0  0  0  0
   -1.9508   23.5609  -30.2233 H   0  0  0  0  0  0  0  0  0  0  0  0
   -3.5567   23.1786  -29.3167 H   0  0  0  0  0  0  0  0  0  0  0  0
   -4.0589   22.7318  -27.6494 H   0  0  0  0  0  0  0  0  0  0  0  0
   -4.6520   25.3760  -27.8980 H   0  0  0  0  0  0  0  0  0  0  0  0
   -7.9482   24.1251  -30.2409 H   0  0  0  0  0  0  0  0  0  0  0  0
   -9.0515   22.2433  -31.4556 H   0  0  0  0  0  0  0  0  0  0  0  0
   -7.6812   20.6548  -32.8115 H   0  0  0  0  0  0  0  0  0  0  0  0
   -5.2047   20.9443  -32.9477 H   0  0  0  0  0  0  0  0  0  0  0  0
   -4.0957   22.8242  -31.7346 H   0  0  0  0  0  0  0  0  0  0  0  0
   -3.0079   26.4675  -24.4453 H   0  0  0  0  0  0  0  0  0  0  0  0
   -1.1253   27.6404  -23.3022 H   0  0  0  0  0  0  0  0  0  0  0  0
    1.1907   27.4795  -24.2180 H   0  0  0  0  0  0  0  0  0  0  0  0
    1.6325   26.1363  -26.2760 H   0  0  0  0  0  0  0  0  0  0  0  0
  1  2  1  0
  2  3  1  0
  3  4  1  0
  4  5  1  0
  3  6  1  0
  6  7  1  0
  7  8  1  0
  8  9  1  0
  9 10  1  0
 10 11  1  0
 11 12  1  0
 12 13  2  0
 12 14  2  0
 12 15  1  0
 15 16  2  0
 16 17  1  0
 17 18  2  0
 18 19  1  0
 19 20  2  0
  9 21  2  0
 21 22  1  0
 22 23  2  0
 23 24  1  0
 24 25  2  0
 25 26  1  0
 26 27  2  0
 27 28  1  0
 28 29  2  0
 28  8  1  0
 20 15  1  0
 27 22  1  0
  1 30  1  0
  1 31  1  0
  1 32  1  0
  2 33  1  0
  2 34  1  0
  4 35  1  0
  4 36  1  0
  5 37  1  0
  5 38  1  0
  5 39  1  0
  6 40  1  0
  6 41  1  0
  7 42  1  0
  7 43  1  0
 10 44  1  0
 10 45  1  0
 11 46  1  0
 16 47  1  0
 17 48  1  0
 18 49  1  0
 19 50  1  0
 20 51  1  0
 23 52  1  0
 24 53  1  0
 25 54  1  0
 26 55  1  0
M  END
>  <UniqueID>  (13) 
13

>  <SMILES>  (13) 
CCN(CC)CCn1c(CNS(=O)(=O)c2ccccc2)nc2ccccc2c1=O

>  <Energy>  (13) 
57.77651380176805

>  <Genealogy>  (13) 
CCN(CC)CCn1c(CNS(=O)(=O)c2ccccc2)nc2ccccc2c1=O (3D coordinates assigned)
CCN(CC)CCn1c(CNS(=O)(=O)c2ccccc2)nc2ccccc2c1=O (optimized conformer: 57.77651380176805 kcal/mol)

>  <smiles>  (13) 
CCN(CC)CCn1c(CNS(=O)(=O)c2ccccc2)nc2ccccc2c1=O

>  <score_type>  (13) 
oracle

>  <origin>  (13) 
adg

>  <m_score__min__energy>  (13) 
-9.5700000000000003

>  <m_primary>  (13) 
energy

$$$$
13:0
     RDKit          3D

 55 58  0  0  0  0  0  0  0  0999 V2000
    1.3880   15.8870  -28.5200 C   0  0  0  0  0  0  0  0  0  0  0  0
    1.0340   16.8760  -27.5580 O   0  0  0  0  0  0  0  0  0  0  0  0
    0.2750   18.0200  -27.8440 C   0  0  0  0  0  0  0  0  0  0  0  0
   -0.8770   18.2610  -27.0870 C   0  0  0  0  0  0  0  0  0  0  0  0
   -1.6670   19.3880  -27.3330 C   0  0  0  0  0  0  0  0  0  0  0  0
   -1.3100   20.3040  -28.3380 C   0  0  0  0  0  0  0  0  0  0  0  0
   -2.1250   21.4670  -28.5960 N   0  0  0  0  0  0  0  0  0  0  0  0
   -1.9550   22.1980  -29.8630 C   0  0  0  0  0  0  0  0  0  0  0  0
   -3.1340   23.1440  -30.1250 C   0  0  0  0  0  0  0  0  0  0  0  0
   -4.3360   22.6210  -29.4580 N   0  0  0  0  0  0  0  0  0  0  0  0
   -5.6030   23.1890  -29.9710 C   0  0  0  0  0  0  0  0  0  0  0  0
   -5.5350   23.7420  -31.3860 C   0  0  0  0  0  0  0  0  0  0  0  0
   -5.2550   24.9210  -31.5580 O   0  0  0  0  0  0  0  0  0  0  0  0
   -5.9620   22.9250  -32.5110 N   0  0  1  0  0  0  0  0  0  0  0  0
   -5.0790   21.8030  -32.6120 C   0  0  0  0  0  0  0  0  0  0  0  0
   -3.7430   21.8550  -33.0300 C   0  0  0  0  0  0  0  0  0  0  0  0
   -2.9990   20.6640  -33.0590 C   0  0  0  0  0  0  0  0  0  0  0  0
   -3.5940   19.4480  -32.6700 C   0  0  0  0  0  0  0  0  0  0  0  0
   -4.9300   19.4200  -32.2420 C   0  0  0  0  0  0  0  0  0  0  0  0
   -5.6460   20.6180  -32.2230 C   0  0  0  0  0  0  0  0  0  0  0  0
   -7.0520   20.8380  -31.8230 C   0  0  0  0  0  0  0  0  0  0  0  0
   -7.2940   22.2660  -32.3580 C   0  0  1  0  0  0  0  0  0  0  0  0
   -8.3380   23.0480  -31.5490 C   0  0  0  0  0  0  0  0  0  0  0  0
   -4.2100   22.6980  -27.9900 C   0  0  0  0  0  0  0  0  0  0  0  0
   -2.8800   22.0880  -27.4970 C   0  0  0  0  0  0  0  0  0  0  0  0
   -0.1590   20.0570  -29.1040 C   0  0  0  0  0  0  0  0  0  0  0  0
    0.6280   18.9250  -28.8610 C   0  0  0  0  0  0  0  0  0  0  0  0
    1.7152   14.9730  -28.0028 H   0  0  0  0  0  0  0  0  0  0  0  0
    0.5155   15.6595  -29.1501 H   0  0  0  0  0  0  0  0  0  0  0  0
    2.2067   16.2648  -29.1501 H   0  0  0  0  0  0  0  0  0  0  0  0
   -1.1635   17.5575  -26.2914 H   0  0  0  0  0  0  0  0  0  0  0  0
   -2.5747   19.5593  -26.7357 H   0  0  0  0  0  0  0  0  0  0  0  0
   -1.0272   22.7870  -29.8148 H   0  0  0  0  0  0  0  0  0  0  0  0
   -1.9097   21.4655  -30.6824 H   0  0  0  0  0  0  0  0  0  0  0  0
   -2.8988   24.1425  -29.7280 H   0  0  0  0  0  0  0  0  0  0  0  0
   -3.3154   23.2148  -31.2076 H   0  0  0  0  0  0  0  0  0  0  0  0
   -6.3649   22.3958  -29.9512 H   0  0  0  0  0  0  0  0  0  0  0  0
   -5.8425   24.0423  -29.3195 H   0  0  0  0  0  0  0  0  0  0  0  0
   -5.9350   23.4670  -33.4070 H   0  0  0  0  0  0  0  0  0  0  0  0
   -3.2857   22.8095  -33.3295 H   0  0  0  0  0  0  0  0  0  0  0  0
   -1.9490   20.6809  -33.3863 H   0  0  0  0  0  0  0  0  0  0  0  0
   -3.0092   18.5169  -32.7019 H   0  0  0  0  0  0  0  0  0  0  0  0
   -5.4016   18.4768  -31.9290 H   0  0  0  0  0  0  0  0  0  0  0  0
   -7.7254   20.1096  -32.2984 H   0  0  0  0  0  0  0  0  0  0  0  0
   -7.2392   20.7211  -30.7454 H   0  0  0  0  0  0  0  0  0  0  0  0
   -7.7677   22.2329  -33.3502 H   0  0  0  0  0  0  0  0  0  0  0  0
   -8.1499   22.9071  -30.4744 H   0  0  0  0  0  0  0  0  0  0  0  0
   -8.2677   24.1175  -31.7964 H   0  0  0  0  0  0  0  0  0  0  0  0
   -9.3446   22.6798  -31.7964 H   0  0  0  0  0  0  0  0  0  0  0  0
   -4.2530   23.7536  -27.6836 H   0  0  0  0  0  0  0  0  0  0  0  0
   -5.0359   22.1237  -27.5449 H   0  0  0  0  0  0  0  0  0  0  0  0
   -2.2672   22.8841  -27.0490 H   0  0  0  0  0  0  0  0  0  0  0  0
   -3.1142   21.3073  -26.7583 H   0  0  0  0  0  0  0  0  0  0  0  0
    0.1265   20.7588  -29.9015 H   0  0  0  0  0  0  0  0  0  0  0  0
    1.5268   18.7425  -29.4684 H   0  0  0  0  0  0  0  0  0  0  0  0
  1  2  1  0
  2  3  1  0
  3  4  2  0
  4  5  1  0
  5  6  2  0
  6  7  1  0
  7  8  1  0
  8  9  1  0
  9 10  1  0
 10 11  1  0
 11 12  1  0
 12 13  2  0
 12 14  1  0
 14 15  1  0
 15 16  2  0
 16 17  1  0
 17 18  2  0
 18 19  1  0
 19 20  2  0
 20 21  1  0
 21 22  1  0
 22 23  1  0
 10 24  1  0
 24 25  1  0
  6 26  1  0
 26 27  2  0
 27  3  1  0
 25  7  1  0
 22 14  1  0
 20 15  1  0
  1 28  1  0
  1 29  1  0
  1 30  1  0
  4 31  1  0
  5 32  1  0
  8 33  1  0
  8 34  1  0
  9 35  1  0
  9 36  1  0
 11 37  1  0
 11 38  1  0
 14 39  1  6
 16 40  1  0
 17 41  1  0
 18 42  1  0
 19 43  1  0
 21 44  1  0
 21 45  1  0
 22 46  1  6
 23 47  1  0
 23 48  1  0
 23 49  1  0
 24 50  1  0
 24 51  1  0
 25 52  1  0
 25 53  1  0
 26 54  1  0
 27 55  1  0
M  CHG  1  14   1
M  END
>  <UniqueID>  (14) 
14

>  <SMILES>  (14) 
COc1ccc(N2CCN(CC(=O)[N@H+]3c4ccccc4C[C@H]3C)CC2)cc1

>  <Energy>  (14) 
86.73151172177211

>  <Genealogy>  (14) 
COc1ccc(N2CCN(CC(=O)[NH+]3c4ccccc4CC3C)CC2)cc1 (protonated)
COc1ccc(N2CCN(CC(=O)[N@H+]3c4ccccc4C[C@H]3C)CC2)cc1 (chirality)
COc1ccc(N2CCN(CC(=O)[N@H+]3c4ccccc4C[C@H]3C)CC2)cc1 (3D coordinates assigned)
COc1ccc(N2CCN(CC(=O)[N@H+]3c4ccccc4C[C@H]3C)CC2)cc1 (nonaromatic ring conformer: 86.73151172177211 kcal/mol)

>  <smiles>  (14) 
COc1ccc(N2CCN(CC(=O)N3c4ccccc4CC3C)CC2)cc1

>  <score_type>  (14) 
oracle

>  <origin>  (14) 
adg

>  <m_score__min__energy>  (14) 
-8.1699999999999999

>  <m_primary>  (14) 
energy

$$$$
14:0
     RDKit          3D

 38 38  0  0  0  0  0  0  0  0999 V2000
   -5.6510   16.4590  -34.2100 C   0  0  0  0  0  0  0  0  0  0  0  0
   -6.4680   16.6650  -33.1740 C   0  0  0  0  0  0  0  0  0  0  0  0
   -6.1090   17.6070  -32.0470 C   0  0  0  0  0  0  0  0  0  0  0  0
   -6.3980   19.0340  -32.3460 N   0  0  0  0  0  0  0  0  0  0  0  0
   -7.6830   19.2320  -33.0570 C   0  0  0  0  0  0  0  0  0  0  0  0
   -8.7940   19.6910  -32.1040 C   0  0  0  0  0  0  0  0  0  0  0  0
   -8.9080   21.0980  -32.1360 O   0  0  0  0  0  0  0  0  0  0  0  0
   -9.4620   21.5520  -30.9230 C   0  0  0  0  0  0  0  0  0  0  0  0
   -5.2880   19.7120  -33.0530 C   0  0  0  0  0  0  0  0  0  0  0  0
   -5.1530   21.1410  -32.6110 C   0  0  0  0  0  0  0  0  0  0  0  0
   -4.2840   21.8730  -33.1560 O   0  0  0  0  0  0  0  0  0  0  0  0
   -6.0520   21.6800  -31.6280 N   0  0  0  0  0  0  0  0  0  0  0  0
   -5.9110   22.9810  -31.0350 C   0  0  0  0  0  0  0  0  0  0  0  0
   -7.0610   23.7080  -30.6870 C   0  0  0  0  0  0  0  0  0  0  0  0
   -6.9500   24.9660  -30.0890 C   0  0  0  0  0  0  0  0  0  0  0  0
   -5.6890   25.5040  -29.8200 C   0  0  0  0  0  0  0  0  0  0  0  0
   -4.5370   24.7800  -30.1410 C   0  0  0  0  0  0  0  0  0  0  0  0
   -3.3140   25.2950  -29.8600 F   0  0  0  0  0  0  0  0  0  0  0  0
   -4.6440   23.5200  -30.7400 C   0  0  0  0  0  0  0  0  0  0  0  0
   -5.9444   15.7664  -35.0126 H   0  0  0  0  0  0  0  0  0  0  0  0
   -4.6846   16.9819  -34.2608 H   0  0  0  0  0  0  0  0  0  0  0  0
   -7.4306   16.1337  -33.1395 H   0  0  0  0  0  0  0  0  0  0  0  0
   -6.6830   17.3159  -31.1549 H   0  0  0  0  0  0  0  0  0  0  0  0
   -5.0230   17.5245  -31.8927 H   0  0  0  0  0  0  0  0  0  0  0  0
   -7.5448   19.9950  -33.8372 H   0  0  0  0  0  0  0  0  0  0  0  0
   -7.9839   18.2693  -33.4959 H   0  0  0  0  0  0  0  0  0  0  0  0
   -9.7487   19.2412  -32.4142 H   0  0  0  0  0  0  0  0  0  0  0  0
   -8.5460   19.3724  -31.0808 H   0  0  0  0  0  0  0  0  0  0  0  0
   -8.9155   21.1041  -30.0800 H   0  0  0  0  0  0  0  0  0  0  0  0
   -9.3823   22.6479  -30.8709 H   0  0  0  0  0  0  0  0  0  0  0  0
  -10.5208   21.2585  -30.8709 H   0  0  0  0  0  0  0  0  0  0  0  0
   -4.3490   19.1804  -32.8393 H   0  0  0  0  0  0  0  0  0  0  0  0
   -5.5043   19.7006  -34.1315 H   0  0  0  0  0  0  0  0  0  0  0  0
   -6.9150   21.1330  -31.4050 H   0  0  0  0  0  0  0  0  0  0  0  0
   -8.0562   23.2841  -30.8866 H   0  0  0  0  0  0  0  0  0  0  0  0
   -7.8562   25.5332  -29.8298 H   0  0  0  0  0  0  0  0  0  0  0  0
   -5.6026   26.4974  -29.3556 H   0  0  0  0  0  0  0  0  0  0  0  0
   -3.7355   22.9487  -30.9812 H   0  0  0  0  0  0  0  0  0  0  0  0
  1  2  2  0
  2  3  1  0
  3  4  1  0
  4  5  1  0
  5  6  1  0
  6  7  1  0
  7  8  1  0
  4  9  1  0
  9 10  1  0
 10 11  2  0
 10 12  1  0
 12 13  1  0
 13 14  2  0
 14 15  1  0
 15 16  2  0
 16 17  1  0
 17 18  1  0
 17 19  2  0
 19 13  1  0
  1 20  1  0
  1 21  1  0
  2 22  1  0
  3 23  1  0
  3 24  1  0
  5 25  1  0
  5 26  1  0
  6 27  1  0
  6 28  1  0
  8 29  1  0
  8 30  1  0
  8 31  1  0
  9 32  1  0
  9 33  1  0
 12 34  1  0
 14 35  1  0
 15 36  1  0
 16 37  1  0
 19 38  1  0
M  END
>  <UniqueID>  (15) 
15

>  <SMILES>  (15) 
C=CCN(CCOC)CC(=O)Nc1cccc(F)c1

>  <Energy>  (15) 
41.514813528092596

>  <Genealogy>  (15) 
C=CCN(CCOC)CC(=O)Nc1cccc(F)c1 (3D coordinates assigned)
C=CCN(CCOC)CC(=O)Nc1cccc(F)c1 (optimized conformer: 41.514813528092596 kcal/mol)

>  <smiles>  (15) 
C=CCN(CCOC)CC(=O)Nc1cccc(F)c1

>  <score_type>  (15) 
oracle

>  <origin>  (15) 
adg

>  <m_score__min__energy>  (15) 
-6.54

>  <m_primary>  (15) 
energy

$$$$
15:0
     RDKit          3D

 34 36  0  0  0  0  0  0  0  0999 V2000
   -9.1040   18.6360  -31.2330 C   0  0  0  0  0  0  0  0  0  0  0  0
   -8.1340   19.2670  -32.1260 N   0  0  0  0  0  0  0  0  0  0  0  0
   -7.8970   20.5980  -32.2940 C   0  0  0  0  0  0  0  0  0  0  0  0
   -8.6600   21.6910  -31.6030 C   0  0  0  0  0  0  0  0  0  0  0  0
   -7.7380   22.7020  -31.0860 N   0  0  0  0  0  0  0  0  0  0  0  0
   -7.1850   22.6920  -29.7420 C   0  0  0  0  0  0  0  0  0  0  0  0
   -6.1790   23.8560  -29.6870 C   0  0  0  0  0  0  0  0  0  0  0  0
   -5.9740   24.3470  -31.1290 C   0  0  0  0  0  0  0  0  0  0  0  0
   -7.0080   23.6140  -31.8840 C   0  0  0  0  0  0  0  0  0  0  0  0
   -7.2140   23.7710  -33.1170 O   0  0  0  0  0  0  0  0  0  0  0  0
   -6.8320   20.8380  -33.0990 N   0  0  0  0  0  0  0  0  0  0  0  0
   -6.3840   19.6160  -33.4300 C   0  0  0  0  0  0  0  0  0  0  0  0
   -5.2780   19.2900  -34.2110 C   0  0  0  0  0  0  0  0  0  0  0  0
   -4.9770   17.9260  -34.3790 C   0  0  0  0  0  0  0  0  0  0  0  0
   -5.7760   16.9330  -33.7610 C   0  0  0  0  0  0  0  0  0  0  0  0
   -5.4510   15.5410  -33.9340 C   0  0  0  0  0  0  0  0  0  0  0  0
   -5.1910   14.4220  -34.0740 N   0  0  0  0  0  0  0  0  0  0  0  0
   -6.8840   17.3010  -32.9700 C   0  0  0  0  0  0  0  0  0  0  0  0
   -7.1610   18.6630  -32.8360 C   0  0  0  0  0  0  0  0  0  0  0  0
   -8.8162   18.8232  -30.1879 H   0  0  0  0  0  0  0  0  0  0  0  0
  -10.1026   19.0578  -31.4195 H   0  0  0  0  0  0  0  0  0  0  0  0
   -9.1231   17.5521  -31.4195 H   0  0  0  0  0  0  0  0  0  0  0  0
   -9.3502   22.1610  -32.3191 H   0  0  0  0  0  0  0  0  0  0  0  0
   -9.2256   21.2589  -30.7644 H   0  0  0  0  0  0  0  0  0  0  0  0
   -7.9828   22.8412  -28.9996 H   0  0  0  0  0  0  0  0  0  0  0  0
   -6.7013   21.7310  -29.5131 H   0  0  0  0  0  0  0  0  0  0  0  0
   -6.5783   24.6704  -29.0646 H   0  0  0  0  0  0  0  0  0  0  0  0
   -5.2258   23.5283  -29.2465 H   0  0  0  0  0  0  0  0  0  0  0  0
   -6.1284   25.4337  -31.2015 H   0  0  0  0  0  0  0  0  0  0  0  0
   -4.9561   24.1678  -31.5055 H   0  0  0  0  0  0  0  0  0  0  0  0
   -6.4270   21.7620  -33.3680 H   0  0  0  0  0  0  0  0  0  0  0  0
   -4.6617   20.0712  -34.6799 H   0  0  0  0  0  0  0  0  0  0  0  0
   -4.1152   17.6286  -34.9945 H   0  0  0  0  0  0  0  0  0  0  0  0
   -7.5081   16.5418  -32.4759 H   0  0  0  0  0  0  0  0  0  0  0  0
  1  2  1  0
  2  3  1  0
  3  4  1  0
  4  5  1  0
  5  6  1  0
  6  7  1  0
  7  8  1  0
  8  9  1  0
  9 10  2  0
  3 11  2  0
 11 12  1  0
 12 13  2  0
 13 14  1  0
 14 15  2  0
 15 16  1  0
 16 17  3  0
 15 18  1  0
 18 19  2  0
 19  2  1  0
  9  5  1  0
 19 12  1  0
  1 20  1  0
  1 21  1  0
  1 22  1  0
  4 23  1  0
  4 24  1  0
  6 25  1  0
  6 26  1  0
  7 27  1  0
  7 28  1  0
  8 29  1  0
  8 30  1  0
 11 31  1  0
 13 32  1  0
 14 33  1  0
 18 34  1  0
M  CHG  1  11   1
M  END
>  <UniqueID>  (16) 
16

>  <SMILES>  (16) 
Cn1c(CN2CCCC2=O)[nH+]c2ccc(C#N)cc21

>  <Energy>  (16) 
76.4506802190025

>  <Genealogy>  (16) 
Cn1c(CN2CCCC2=O)[nH+]c2ccc(C#N)cc21 (protonated)
Cn1c(CN2CCCC2=O)[nH+]c2ccc(C#N)cc21 (3D coordinates assigned)
Cn1c(CN2CCCC2=O)[nH+]c2ccc(C#N)cc21 (nonaromatic ring conformer: 76.4506802190025 kcal/mol)

>  <smiles>  (16) 
Cn1c(CN2CCCC2=O)nc2ccc(C#N)cc21

>  <score_type>  (16) 
oracle

>  <origin>  (16) 
adg

>  <m_score__min__energy>  (16) 
-6.7000000000000002

>  <m_primary>  (16) 
energy

$$$$
16:0
     RDKit          3D

 40 42  0  0  0  0  0  0  0  0999 V2000
   -3.7450   24.1050  -28.3550 C   0  0  0  0  0  0  0  0  0  0  0  0
   -3.3160   24.2070  -29.7790 C   0  0  0  0  0  0  0  0  0  0  0  0
   -2.4820   23.3800  -30.2420 O   0  0  0  0  0  0  0  0  0  0  0  0
   -3.8080   25.2450  -30.5740 O   0  0  0  0  0  0  0  0  0  0  0  0
   -5.1550   25.7050  -30.4890 C   0  0  0  0  0  0  0  0  0  0  0  0
   -6.0780   24.7030  -31.1670 C   0  0  0  0  0  0  0  0  0  0  0  0
   -5.3260   23.5730  -31.5510 O   0  0  0  0  0  0  0  0  0  0  0  0
   -5.8440   22.4020  -30.9480 C   0  0  0  0  0  0  0  0  0  0  0  0
   -5.6890   21.2240  -31.8420 N   0  0  0  0  0  0  0  0  0  0  0  0
   -6.7640   20.3640  -32.0120 C   0  0  0  0  0  0  0  0  0  0  0  0
   -8.0580   20.6600  -31.4990 C   0  0  0  0  0  0  0  0  0  0  0  0
   -9.1230   19.7740  -31.6610 C   0  0  0  0  0  0  0  0  0  0  0  0
   -8.9400   18.5750  -32.3370 C   0  0  0  0  0  0  0  0  0  0  0  0
   -7.6900   18.2560  -32.8620 C   0  0  0  0  0  0  0  0  0  0  0  0
   -6.6000   19.1400  -32.7150 C   0  0  0  0  0  0  0  0  0  0  0  0
   -5.3530   18.8170  -33.2570 C   0  0  0  0  0  0  0  0  0  0  0  0
   -5.1890   17.7190  -33.8620 O   0  0  0  0  0  0  0  0  0  0  0  0
   -4.2910   19.7210  -33.1450 C   0  0  0  0  0  0  0  0  0  0  0  0
   -3.0410   19.4300  -33.7200 C   0  0  0  0  0  0  0  0  0  0  0  0
   -2.0020   20.3490  -33.6410 C   0  0  0  0  0  0  0  0  0  0  0  0
   -0.4440   19.9930  -34.3660 Cl  0  0  0  0  0  0  0  0  0  0  0  0
   -2.2190   21.5630  -33.0020 C   0  0  0  0  0  0  0  0  0  0  0  0
   -3.4260   21.8420  -32.4410 N   0  0  0  0  0  0  0  0  0  0  0  0
   -4.4740   20.9480  -32.4580 C   0  0  0  0  0  0  0  0  0  0  0  0
   -2.8867   24.3091  -27.6980 H   0  0  0  0  0  0  0  0  0  0  0  0
   -4.5402   24.8391  -28.1581 H   0  0  0  0  0  0  0  0  0  0  0  0
   -4.1247   23.0915  -28.1581 H   0  0  0  0  0  0  0  0  0  0  0  0
   -5.4406   25.8094  -29.4319 H   0  0  0  0  0  0  0  0  0  0  0  0
   -5.2413   26.6801  -30.9906 H   0  0  0  0  0  0  0  0  0  0  0  0
   -6.8699   24.3985  -30.4668 H   0  0  0  0  0  0  0  0  0  0  0  0
   -6.5379   25.1625  -32.0543 H   0  0  0  0  0  0  0  0  0  0  0  0
   -5.3040   22.2131  -30.0085 H   0  0  0  0  0  0  0  0  0  0  0  0
   -6.9161   22.5544  -30.7548 H   0  0  0  0  0  0  0  0  0  0  0  0
   -8.2217   21.6069  -30.9637 H   0  0  0  0  0  0  0  0  0  0  0  0
  -10.1123   20.0262  -31.2514 H   0  0  0  0  0  0  0  0  0  0  0  0
   -9.7819   17.8774  -32.4578 H   0  0  0  0  0  0  0  0  0  0  0  0
   -7.5510   17.3049  -33.3969 H   0  0  0  0  0  0  0  0  0  0  0  0
   -2.8852   18.4704  -34.2347 H   0  0  0  0  0  0  0  0  0  0  0  0
   -1.4082   22.3045  -32.9493 H   0  0  0  0  0  0  0  0  0  0  0  0
   -3.5040   22.7960  -32.0400 H   0  0  0  0  0  0  0  0  0  0  0  0
  1  2  1  0
  2  3  2  0
  2  4  1  0
  4  5  1  0
  5  6  1  0
  6  7  1  0
  7  8  1  0
  8  9  1  0
  9 10  1  0
 10 11  2  0
 11 12  1  0
 12 13  2  0
 13 14  1  0
 14 15  2  0
 15 16  1  0
 16 17  2  0
 16 18  1  0
 18 19  2  0
 19 20  1  0
 20 21  1  0
 20 22  2  0
 22 23  1  0
 23 24  2  0
 24  9  1  0
 15 10  1  0
 24 18  1  0
  1 25  1  0
  1 26  1  0
  1 27  1  0
  5 28  1  0
  5 29  1  0
  6 30  1  0
  6 31  1  0
  8 32  1  0
  8 33  1  0
 11 34  1  0
 12 35  1  0
 13 36  1  0
 14 37  1  0
 19 38  1  0
 22 39  1  0
 23 40  1  0
M  CHG  1  23   1
M  END
>  <UniqueID>  (17) 
17

>  <SMILES>  (17) 
CC(=O)OCCOCn1c2ccccc2c(=O)c2cc(Cl)c[nH+]c21

>  <Energy>  (17) 
59.95333355972648

>  <Genealogy>  (17) 
CC(=O)OCCOCn1c2ccccc2c(=O)c2cc(Cl)c[nH+]c21 (protonated)
CC(=O)OCCOCn1c2ccccc2c(=O)c2cc(Cl)c[nH+]c21 (3D coordinates assigned)
CC(=O)OCCOCn1c2ccccc2c(=O)c2cc(Cl)c[nH+]c21 (optimized conformer: 59.95333355972648 kcal/mol)

>  <smiles>  (17) 
CC(=O)OCCOCn1c2ccccc2c(=O)c2cc(Cl)cnc21

>  <score_type>  (17) 
oracle

>  <origin>  (17) 
adg

>  <m_score__min__energy>  (17) 
-8.1999999999999993

>  <m_primary>  (17) 
energy

$$$$
17:0
     RDKit          3D

 30 31  0  0  0  0  0  0  0  0999 V2000
   -8.7980   18.9400  -31.9100 C   0  0  0  0  0  0  0  0  0  0  0  0
   -7.6730   19.6740  -32.6310 C   0  0  0  0  0  0  0  0  0  0  0  0
   -7.3840   20.9930  -31.9650 C   0  0  0  0  0  0  0  0  0  0  0  0
   -8.3430   22.0140  -31.9780 C   0  0  0  0  0  0  0  0  0  0  0  0
   -8.0640   23.2490  -31.3940 C   0  0  0  0  0  0  0  0  0  0  0  0
   -6.8150   23.4930  -30.7990 C   0  0  0  0  0  0  0  0  0  0  0  0
   -5.8420   22.4650  -30.7690 C   0  0  0  0  0  0  0  0  0  0  0  0
   -6.1340   21.2300  -31.3750 C   0  0  0  0  0  0  0  0  0  0  0  0
   -4.4640   22.6780  -30.1620 C   0  0  0  0  0  0  0  0  0  0  0  0
   -3.6180   23.8420  -30.7500 C   0  0  0  0  0  0  0  0  0  0  0  0
   -4.0510   25.1810  -30.3200 N   0  0  0  0  0  0  0  0  0  0  0  0
   -5.3800   25.5560  -30.8390 C   0  0  0  0  0  0  0  0  0  0  0  0
   -6.5480   24.8240  -30.1520 C   0  0  0  0  0  0  0  0  0  0  0  0
   -8.6578   19.0315  -30.8228 H   0  0  0  0  0  0  0  0  0  0  0  0
   -9.7647   19.3817  -32.1935 H   0  0  0  0  0  0  0  0  0  0  0  0
   -8.7832   17.8773  -32.1935 H   0  0  0  0  0  0  0  0  0  0  0  0
   -6.7654   19.0528  -32.6104 H   0  0  0  0  0  0  0  0  0  0  0  0
   -7.9832   19.8631  -33.6693 H   0  0  0  0  0  0  0  0  0  0  0  0
   -9.3208   21.8406  -32.4512 H   0  0  0  0  0  0  0  0  0  0  0  0
   -8.8289   24.0395  -31.3992 H   0  0  0  0  0  0  0  0  0  0  0  0
   -5.3706   20.4381  -31.3864 H   0  0  0  0  0  0  0  0  0  0  0  0
   -4.5987   22.8726  -29.0878 H   0  0  0  0  0  0  0  0  0  0  0  0
   -3.8997   21.7627  -30.3940 H   0  0  0  0  0  0  0  0  0  0  0  0
   -2.5729   23.7007  -30.4373 H   0  0  0  0  0  0  0  0  0  0  0  0
   -3.7457   23.8046  -31.8419 H   0  0  0  0  0  0  0  0  0  0  0  0
   -4.0180   25.2720  -29.2780 H   0  0  0  0  0  0  0  0  0  0  0  0
   -5.5159   26.6378  -30.6936 H   0  0  0  0  0  0  0  0  0  0  0  0
   -5.4017   25.2663  -31.8999 H   0  0  0  0  0  0  0  0  0  0  0  0
   -6.2972   24.6637  -29.0930 H   0  0  0  0  0  0  0  0  0  0  0  0
   -7.4513   25.4443  -30.2485 H   0  0  0  0  0  0  0  0  0  0  0  0
  1  2  1  0
  2  3  1  0
  3  4  2  0
  4  5  1  0
  5  6  2  0
  6  7  1  0
  7  8  2  0
  7  9  1  0
  9 10  1  0
 10 11  1  0
 11 12  1  0
 12 13  1  0
  8  3  1  0
 13  6  1  0
  1 14  1  0
  1 15  1  0
  1 16  1  0
  2 17  1  0
  2 18  1  0
  4 19  1  0
  5 20  1  0
  8 21  1  0
  9 22  1  0
  9 23  1  0
 10 24  1  0
 10 25  1  0
 11 26  1  0
 12 27  1  0
 12 28  1  0
 13 29  1  0
 13 30  1  0
M  END
>  <UniqueID>  (18) 
18

>  <SMILES>  (18) 
CCc1ccc2c(c1)CCNCC2

>  <Energy>  (18) 
36.72902415741294

>  <Genealogy>  (18) 
CCc1ccc2c(c1)CCNCC2 (3D coordinates assigned)
CCc1ccc2c(c1)CCNCC2 (nonaromatic ring conformer: 36.72902415741294 kcal/mol)

>  <smiles>  (18) 
CCc1ccc2c(c1)CCNCC2

>  <score_type>  (18) 
oracle

>  <origin>  (18) 
adg

>  <m_score__min__energy>  (18) 
-5.3200000000000003

>  <m_primary>  (18) 
energy

$$$$
18:0
     RDKit          3D

 49 51  0  0  0  0  0  0  0  0999 V2000
   -4.1890   21.0690  -30.8390 C   0  0  0  0  0  0  0  0  0  0  0  0
   -3.6670   22.6720  -31.5290 S   0  0  0  0  0  0  0  0  0  0  0  0
   -4.9030   23.6190  -30.6290 C   0  0  0  0  0  0  0  0  0  0  0  0
   -4.7430   24.2240  -29.3930 C   0  0  0  0  0  0  0  0  0  0  0  0
   -3.5140   24.1610  -28.5160 C   0  0  1  0  0  0  0  0  0  0  0  0
   -3.0880   22.7260  -28.1890 C   0  0  0  0  0  0  0  0  0  0  0  0
   -2.4060   24.9100  -29.1100 N   0  0  0  0  0  0  0  0  0  0  0  0
   -1.4550   25.7180  -28.4010 C   0  0  0  0  0  0  0  0  0  0  0  0
   -0.9370   26.7170  -28.9680 O   0  0  0  0  0  0  0  0  0  0  0  0
   -1.1100   25.3890  -26.9940 C   0  0  0  0  0  0  0  0  0  0  0  0
   -1.5680   26.2360  -25.9650 C   0  0  0  0  0  0  0  0  0  0  0  0
   -1.2510   25.9750  -24.6300 C   0  0  0  0  0  0  0  0  0  0  0  0
   -0.4780   24.8660  -24.2980 C   0  0  0  0  0  0  0  0  0  0  0  0
   -0.0240   24.0070  -25.2980 C   0  0  0  0  0  0  0  0  0  0  0  0
   -0.3350   24.2520  -26.6430 C   0  0  0  0  0  0  0  0  0  0  0  0
    0.2290   23.0720  -27.8250 Cl  0  0  0  0  0  0  0  0  0  0  0  0
   -5.8960   24.8500  -29.0770 N   0  0  0  0  0  0  0  0  0  0  0  0
   -6.7250   24.6390  -30.1180 C   0  0  0  0  0  0  0  0  0  0  0  0
   -6.1440   23.8970  -31.0830 N   0  0  0  0  0  0  0  0  0  0  0  0
   -6.7430   23.5180  -32.3620 C   0  0  0  0  0  0  0  0  0  0  0  0
   -7.3610   22.1480  -32.2750 C   0  0  0  0  0  0  0  0  0  0  0  0
   -8.5790   21.9660  -31.6000 C   0  0  0  0  0  0  0  0  0  0  0  0
   -9.1370   20.6890  -31.4830 C   0  0  0  0  0  0  0  0  0  0  0  0
   -8.4970   19.5820  -32.0590 C   0  0  0  0  0  0  0  0  0  0  0  0
   -9.0690   18.2040  -31.8910 C   0  0  0  0  0  0  0  0  0  0  0  0
   -7.2780   19.7620  -32.7310 C   0  0  0  0  0  0  0  0  0  0  0  0
   -6.7180   21.0380  -32.8460 C   0  0  0  0  0  0  0  0  0  0  0  0
   -4.1724   21.1199  -29.7403 H   0  0  0  0  0  0  0  0  0  0  0  0
   -5.2089   20.8377  -31.1800 H   0  0  0  0  0  0  0  0  0  0  0  0
   -3.5009   20.2815  -31.1800 H   0  0  0  0  0  0  0  0  0  0  0  0
   -3.7880   24.6341  -27.5615 H   0  0  0  0  0  0  0  0  0  0  0  0
   -3.0490   22.5948  -27.0975 H   0  0  0  0  0  0  0  0  0  0  0  0
   -3.8156   22.0209  -28.6173 H   0  0  0  0  0  0  0  0  0  0  0  0
   -2.0936   22.5321  -28.6173 H   0  0  0  0  0  0  0  0  0  0  0  0
   -2.1825   27.1131  -26.2162 H   0  0  0  0  0  0  0  0  0  0  0  0
   -1.6132   26.6478  -23.8387 H   0  0  0  0  0  0  0  0  0  0  0  0
   -0.2252   24.6672  -23.2461 H   0  0  0  0  0  0  0  0  0  0  0  0
    0.5831   23.1299  -25.0295 H   0  0  0  0  0  0  0  0  0  0  0  0
   -6.1160   25.3960  -28.2150 H   0  0  0  0  0  0  0  0  0  0  0  0
   -7.7532   25.0258  -30.1742 H   0  0  0  0  0  0  0  0  0  0  0  0
   -7.5211   24.2490  -32.6270 H   0  0  0  0  0  0  0  0  0  0  0  0
   -5.9560   23.5028  -33.1304 H   0  0  0  0  0  0  0  0  0  0  0  0
   -9.0965   22.8319  -31.1613 H   0  0  0  0  0  0  0  0  0  0  0  0
  -10.0820   20.5522  -30.9368 H   0  0  0  0  0  0  0  0  0  0  0  0
   -9.1642   17.9747  -30.8194 H   0  0  0  0  0  0  0  0  0  0  0  0
  -10.0605   18.1582  -32.3653 H   0  0  0  0  0  0  0  0  0  0  0  0
   -8.4014   17.4696  -32.3653 H   0  0  0  0  0  0  0  0  0  0  0  0
   -6.7610   18.8955  -33.1691 H   0  0  0  0  0  0  0  0  0  0  0  0
   -5.7694   21.1729  -33.3863 H   0  0  0  0  0  0  0  0  0  0  0  0
  1  2  1  0
  2  3  1  0
  3  4  2  0
  4  5  1  0
  5  6  1  0
  5  7  1  0
  7  8  1  0
  8  9  2  0
  8 10  1  0
 10 11  2  0
 11 12  1  0
 12 13  2  0
 13 14  1  0
 14 15  2  0
 15 16  1  0
  4 17  1  0
 17 18  2  0
 18 19  1  0
 19 20  1  0
 20 21  1  0
 21 22  2  0
 22 23  1  0
 23 24  2  0
 24 25  1  0
 24 26  1  0
 26 27  2  0
 19  3  1  0
 27 21  1  0
 15 10  1  0
  1 28  1  0
  1 29  1  0
  1 30  1  0
  5 31  1  1
  6 32  1  0
  6 33  1  0
  6 34  1  0
 11 35  1  0
 12 36  1  0
 13 37  1  0
 14 38  1  0
 17 39  1  0
 18 40  1  0
 20 41  1  0
 20 42  1  0
 22 43  1  0
 23 44  1  0
 25 45  1  0
 25 46  1  0
 25 47  1  0
 26 48  1  0
 27 49  1  0
M  CHG  2   7  -1  17   1
M  END
>  <UniqueID>  (19) 
19

>  <SMILES>  (19) 
CSc1c([C@@H](C)[N-]C(=O)c2ccccc2Cl)[nH+]cn1Cc1ccc(C)cc1

>  <Energy>  (19) 
75.82105342411342

>  <Genealogy>  (19) 
CSc1c(C(C)[N-]C(=O)c2ccccc2Cl)[nH+]cn1Cc1ccc(C)cc1 (protonated)
CSc1c([C@@H](C)[N-]C(=O)c2ccccc2Cl)[nH+]cn1Cc1ccc(C)cc1 (chirality)
CSc1c([C@@H](C)[N-]C(=O)c2ccccc2Cl)[nH+]cn1Cc1ccc(C)cc1 (3D coordinates assigned)
CSc1c([C@@H](C)[N-]C(=O)c2ccccc2Cl)[nH+]cn1Cc1ccc(C)cc1 (optimized conformer: 75.82105342411342 kcal/mol)

>  <smiles>  (19) 
CSc1c(C(C)NC(=O)c2ccccc2Cl)ncn1Cc1ccc(C)cc1

>  <score_type>  (19) 
oracle

>  <origin>  (19) 
adg

>  <m_score__min__energy>  (19) 
-10.34

>  <m_primary>  (19) 
energy

$$$$
19:0
     RDKit          3D

 38 40  0  0  0  0  0  0  0  0999 V2000
   -8.5260   22.3800  -31.2580 C   0  0  0  0  0  0  0  0  0  0  0  0
   -7.5660   22.5390  -30.0860 C   0  0  0  0  0  0  0  0  0  0  0  0
   -6.5570   23.5560  -30.3880 N   0  0  0  0  0  0  0  0  0  0  0  0
   -6.6550   24.8670  -30.1130 C   0  0  0  0  0  0  0  0  0  0  0  0
   -5.4690   25.4700  -30.4670 C   0  0  0  0  0  0  0  0  0  0  0  0
   -4.6180   24.5450  -30.9530 N   0  0  0  0  0  0  0  0  0  0  0  0
   -5.3090   23.3870  -30.8830 C   0  0  0  0  0  0  0  0  0  0  0  0
   -4.7380   22.0730  -31.3540 C   0  0  0  0  0  0  0  0  0  0  0  0
   -4.9490   21.8640  -32.8100 N   0  0  1  0  0  0  0  0  0  0  0  0
   -3.8860   21.0620  -33.4600 C   0  0  0  0  0  0  0  0  0  0  0  0
   -3.8050   19.6260  -32.9170 C   0  0  0  0  0  0  0  0  0  0  0  0
   -5.1640   19.0080  -32.7140 C   0  0  0  0  0  0  0  0  0  0  0  0
   -5.2560   17.6360  -32.4300 C   0  0  0  0  0  0  0  0  0  0  0  0
   -6.5000   17.0460  -32.1870 C   0  0  0  0  0  0  0  0  0  0  0  0
   -7.6600   17.8230  -32.2190 C   0  0  0  0  0  0  0  0  0  0  0  0
   -7.5800   19.1900  -32.4890 C   0  0  0  0  0  0  0  0  0  0  0  0
   -6.3350   19.7970  -32.7200 C   0  0  0  0  0  0  0  0  0  0  0  0
   -6.2760   21.2640  -33.0770 C   0  0  0  0  0  0  0  0  0  0  0  0
   -9.5443   22.2113  -30.8776 H   0  0  0  0  0  0  0  0  0  0  0  0
   -8.5102   23.2930  -31.8713 H   0  0  0  0  0  0  0  0  0  0  0  0
   -8.2167   21.5208  -31.8713 H   0  0  0  0  0  0  0  0  0  0  0  0
   -8.1314   22.8432  -29.1929 H   0  0  0  0  0  0  0  0  0  0  0  0
   -7.0617   21.5784  -29.9046 H   0  0  0  0  0  0  0  0  0  0  0  0
   -7.5312   25.3716  -29.6799 H   0  0  0  0  0  0  0  0  0  0  0  0
   -5.2495   26.5433  -30.3682 H   0  0  0  0  0  0  0  0  0  0  0  0
   -3.6579   22.0604  -31.1463 H   0  0  0  0  0  0  0  0  0  0  0  0
   -5.2562   21.2653  -30.8163 H   0  0  0  0  0  0  0  0  0  0  0  0
   -4.9480   22.8040  -33.2700 H   0  0  0  0  0  0  0  0  0  0  0  0
   -4.0900   21.0181  -34.5400 H   0  0  0  0  0  0  0  0  0  0  0  0
   -2.9246   21.5514  -33.2451 H   0  0  0  0  0  0  0  0  0  0  0  0
   -3.2406   19.0098  -33.6323 H   0  0  0  0  0  0  0  0  0  0  0  0
   -3.3069   19.6670  -31.9371 H   0  0  0  0  0  0  0  0  0  0  0  0
   -4.3440   17.0218  -32.3985 H   0  0  0  0  0  0  0  0  0  0  0  0
   -6.5651   15.9695  -31.9705 H   0  0  0  0  0  0  0  0  0  0  0  0
   -8.6384   17.3568  -32.0311 H   0  0  0  0  0  0  0  0  0  0  0  0
   -8.4978   19.7955  -32.5210 H   0  0  0  0  0  0  0  0  0  0  0  0
   -6.5035   21.3751  -34.1475 H   0  0  0  0  0  0  0  0  0  0  0  0
   -7.0105   21.7888  -32.4484 H   0  0  0  0  0  0  0  0  0  0  0  0
  1  2  1  0
  2  3  1  0
  3  4  1  0
  4  5  2  0
  5  6  1  0
  6  7  2  0
  7  8  1  0
  8  9  1  0
  9 10  1  0
 10 11  1  0
 11 12  1  0
 12 13  2  0
 13 14  1  0
 14 15  2  0
 15 16  1  0
 16 17  2  0
 17 18  1  0
  7  3  1  0
 18  9  1  0
 17 12  1  0
  1 19  1  0
  1 20  1  0
  1 21  1  0
  2 22  1  0
  2 23  1  0
  4 24  1  0
  5 25  1  0
  8 26  1  0
  8 27  1  0
  9 28  1  6
 10 29  1  0
 10 30  1  0
 11 31  1  0
 11 32  1  0
 13 33  1  0
 14 34  1  0
 15 35  1  0
 16 36  1  0
 18 37  1  0
 18 38  1  0
M  CHG  1   9   1
M  END
>  <UniqueID>  (20) 
20

>  <SMILES>  (20) 
CCn1ccnc1C[N@H+]1CCc2ccccc2C1

>  <Energy>  (20) 
70.852895307066

>  <Genealogy>  (20) 
CCn1ccnc1C[NH+]1CCc2ccccc2C1 (protonated)
CCn1ccnc1C[N@H+]1CCc2ccccc2C1 (chirality)
CCn1ccnc1C[N@H+]1CCc2ccccc2C1 (3D coordinates assigned)
CCn1ccnc1C[N@H+]1CCc2ccccc2C1 (nonaromatic ring conformer: 70.852895307066 kcal/mol)

>  <smiles>  (20) 
CCn1ccnc1CN1CCc2ccccc2C1

>  <score_type>  (20) 
oracle

>  <origin>  (20) 
adg

>  <m_score__min__energy>  (20) 
-6.5800000000000001

>  <m_primary>  (20) 
energy

$$$$
20:0
     RDKit          3D

 40 42  0  0  0  0  0  0  0  0999 V2000
   -6.4390   16.6910  -34.5610 C   0  0  0  0  0  0  0  0  0  0  0  0
   -6.1440   18.0290  -34.9460 O   0  0  0  0  0  0  0  0  0  0  0  0
   -5.5840   18.9940  -34.0940 C   0  0  0  0  0  0  0  0  0  0  0  0
   -4.2130   18.9210  -33.8230 C   0  0  0  0  0  0  0  0  0  0  0  0
   -3.6000   19.8540  -32.9830 C   0  0  0  0  0  0  0  0  0  0  0  0
   -4.3560   20.8810  -32.3990 C   0  0  0  0  0  0  0  0  0  0  0  0
   -3.7490   21.8240  -31.5540 C   0  0  0  0  0  0  0  0  0  0  0  0
   -4.5090   22.8540  -30.9710 C   0  0  0  0  0  0  0  0  0  0  0  0
   -3.8880   23.8580  -30.0730 C   0  0  0  0  0  0  0  0  0  0  0  0
   -3.7730   25.0480  -30.4740 O   0  0  0  0  0  0  0  0  0  0  0  0
   -3.4160   23.4970  -28.7620 N   0  0  0  0  0  0  0  0  0  0  0  0
   -2.7650   24.4300  -27.8860 C   0  0  0  0  0  0  0  0  0  0  0  0
   -3.3920   24.7810  -26.6820 C   0  0  0  0  0  0  0  0  0  0  0  0
   -2.7840   25.6810  -25.8040 C   0  0  0  0  0  0  0  0  0  0  0  0
   -1.5380   26.2260  -26.1160 C   0  0  0  0  0  0  0  0  0  0  0  0
   -0.8890   25.8620  -27.2980 C   0  0  0  0  0  0  0  0  0  0  0  0
   -1.4880   24.9480  -28.1890 C   0  0  0  0  0  0  0  0  0  0  0  0
   -0.8380   24.5210  -29.3580 O   0  0  0  0  0  0  0  0  0  0  0  0
   -0.5250   23.1650  -29.6580 C   0  0  0  0  0  0  0  0  0  0  0  0
   -5.8900   22.9160  -31.2300 C   0  0  0  0  0  0  0  0  0  0  0  0
   -6.5000   21.9830  -32.0710 C   0  0  0  0  0  0  0  0  0  0  0  0
   -5.7420   20.9630  -32.6630 C   0  0  0  0  0  0  0  0  0  0  0  0
   -6.3490   20.0200  -33.5090 C   0  0  0  0  0  0  0  0  0  0  0  0
   -6.4546   16.6203  -33.4634 H   0  0  0  0  0  0  0  0  0  0  0  0
   -7.4223   16.4027  -34.9610 H   0  0  0  0  0  0  0  0  0  0  0  0
   -5.6681   16.0159  -34.9610 H   0  0  0  0  0  0  0  0  0  0  0  0
   -3.6111   18.1198  -34.2766 H   0  0  0  0  0  0  0  0  0  0  0  0
   -2.5214   19.7830  -32.7791 H   0  0  0  0  0  0  0  0  0  0  0  0
   -2.6709   21.7567  -31.3464 H   0  0  0  0  0  0  0  0  0  0  0  0
   -3.6240   22.5500  -28.3770 H   0  0  0  0  0  0  0  0  0  0  0  0
   -4.3691   24.3447  -26.4273 H   0  0  0  0  0  0  0  0  0  0  0  0
   -3.2874   25.9602  -24.8666 H   0  0  0  0  0  0  0  0  0  0  0  0
   -1.0657   26.9440  -25.4294 H   0  0  0  0  0  0  0  0  0  0  0  0
    0.0957   26.2911  -27.5353 H   0  0  0  0  0  0  0  0  0  0  0  0
   -0.3952   22.6028  -28.7215 H   0  0  0  0  0  0  0  0  0  0  0  0
   -1.3441   22.7202  -30.2422 H   0  0  0  0  0  0  0  0  0  0  0  0
    0.4062   23.1242  -30.2422 H   0  0  0  0  0  0  0  0  0  0  0  0
   -6.4959   23.7077  -30.7652 H   0  0  0  0  0  0  0  0  0  0  0  0
   -7.5799   22.0486  -32.2698 H   0  0  0  0  0  0  0  0  0  0  0  0
   -7.4276   20.0839  -33.7152 H   0  0  0  0  0  0  0  0  0  0  0  0
  1  2  1  0
  2  3  1  0
  3  4  2  0
  4  5  1  0
  5  6  2  0
  6  7  1  0
  7  8  2  0
  8  9  1  0
  9 10  2  0
  9 11  1  0
 11 12  1  0
 12 13  2  0
 13 14  1  0
 14 15  2  0
 15 16  1  0
 16 17  2  0
 17 18  1  0
 18 19  1  0
  8 20  1  0
 20 21  2  0
 21 22  1  0
 22 23  2  0
 23  3  1  0
 22  6  1  0
 17 12  1  0
  1 24  1  0
  1 25  1  0
  1 26  1  0
  4 27  1  0
  5 28  1  0
  7 29  1  0
 11 30  1  0
 13 31  1  0
 14 32  1  0
 15 33  1  0
 16 34  1  0
 19 35  1  0
 19 36  1  0
 19 37  1  0
 20 38  1  0
 21 39  1  0
 23 40  1  0
M  END
>  <UniqueID>  (21) 
21

>  <SMILES>  (21) 
COc1ccc2cc(C(=O)Nc3ccccc3OC)ccc2c1

>  <Energy>  (21) 
52.70158131242976

>  <Genealogy>  (21) 
COc1ccc2cc(C(=O)Nc3ccccc3OC)ccc2c1 (3D coordinates assigned)
COc1ccc2cc(C(=O)Nc3ccccc3OC)ccc2c1 (optimized conformer: 52.70158131242976 kcal/mol)

>  <smiles>  (21) 
COc1ccc2cc(C(=O)Nc3ccccc3OC)ccc2c1

>  <score_type>  (21) 
oracle

>  <origin>  (21) 
adg

>  <m_score__min__energy>  (21) 
-7.7699999999999996

>  <m_primary>  (21) 
energy

$$$$
21:0
     RDKit          3D

 38 40  0  0  0  0  0  0  0  0999 V2000
   -0.8870   26.6680  -27.8240 C   0  0  0  0  0  0  0  0  0  0  0  0
   -1.3320   25.9420  -28.9650 O   0  0  0  0  0  0  0  0  0  0  0  0
   -1.5920   24.5620  -28.9780 C   0  0  0  0  0  0  0  0  0  0  0  0
   -0.7700   23.6440  -28.2950 C   0  0  0  0  0  0  0  0  0  0  0  0
   -1.0840   22.2830  -28.2970 C   0  0  0  0  0  0  0  0  0  0  0  0
   -2.2210   21.8290  -28.9650 C   0  0  0  0  0  0  0  0  0  0  0  0
   -3.0410   22.7290  -29.6480 C   0  0  0  0  0  0  0  0  0  0  0  0
   -2.7160   24.0990  -29.6840 C   0  0  0  0  0  0  0  0  0  0  0  0
   -3.5580   25.0710  -30.3260 N   0  0  0  0  0  0  0  0  0  0  0  0
   -4.9860   25.0820  -30.4430 C   0  0  0  0  0  0  0  0  0  0  0  0
   -5.6420   26.1530  -30.3440 O   0  0  0  0  0  0  0  0  0  0  0  0
   -5.7020   23.7900  -30.6810 C   0  0  0  0  0  0  0  0  0  0  0  0
   -6.5870   23.7900  -32.2860 S   0  0  0  0  0  0  0  0  0  0  0  0
   -7.0180   22.0460  -32.2590 C   0  0  0  0  0  0  0  0  0  0  0  0
   -8.2720   21.6420  -31.7380 C   0  0  0  0  0  0  0  0  0  0  0  0
   -8.6710   20.2940  -31.7970 C   0  0  0  0  0  0  0  0  0  0  0  0
   -7.7880   19.3900  -32.3780 C   0  0  0  0  0  0  0  0  0  0  0  0
   -7.9430   18.1110  -32.5840 O   0  0  0  0  0  0  0  0  0  0  0  0
   -6.8320   17.7110  -33.1810 C   0  0  0  0  0  0  0  0  0  0  0  0
   -6.6050   16.3080  -33.6320 C   0  0  0  0  0  0  0  0  0  0  0  0
   -5.9330   18.7090  -33.3860 N   0  0  0  0  0  0  0  0  0  0  0  0
   -6.5700   19.7680  -32.8570 C   0  0  0  0  0  0  0  0  0  0  0  0
   -6.1370   21.0890  -32.8070 C   0  0  0  0  0  0  0  0  0  0  0  0
   -1.2067   26.1463  -26.9099 H   0  0  0  0  0  0  0  0  0  0  0  0
    0.2105   26.7399  -27.8403 H   0  0  0  0  0  0  0  0  0  0  0  0
   -1.3210   27.6786  -27.8403 H   0  0  0  0  0  0  0  0  0  0  0  0
    0.1218   24.0002  -27.7585 H   0  0  0  0  0  0  0  0  0  0  0  0
   -0.4338   21.5684  -27.7711 H   0  0  0  0  0  0  0  0  0  0  0  0
   -2.4725   20.7582  -28.9537 H   0  0  0  0  0  0  0  0  0  0  0  0
   -3.9446   22.3667  -30.1601 H   0  0  0  0  0  0  0  0  0  0  0  0
   -4.9684   22.9704  -30.6786 H   0  0  0  0  0  0  0  0  0  0  0  0
   -6.4445   23.6573  -29.8804 H   0  0  0  0  0  0  0  0  0  0  0  0
   -8.9396   22.3887  -31.2834 H   0  0  0  0  0  0  0  0  0  0  0  0
   -9.6433   19.9679  -31.3992 H   0  0  0  0  0  0  0  0  0  0  0  0
   -6.4991   15.6533  -32.7544 H   0  0  0  0  0  0  0  0  0  0  0  0
   -7.4608   15.9744  -34.2372 H   0  0  0  0  0  0  0  0  0  0  0  0
   -5.6876   16.2613  -34.2372 H   0  0  0  0  0  0  0  0  0  0  0  0
   -5.1436   21.3775  -33.1811 H   0  0  0  0  0  0  0  0  0  0  0  0
  1  2  1  0
  2  3  1  0
  3  4  2  0
  4  5  1  0
  5  6  2  0
  6  7  1  0
  7  8  2  0
  8  9  1  0
  9 10  1  0
 10 11  2  0
 10 12  1  0
 12 13  1  0
 13 14  1  0
 14 15  2  0
 15 16  1  0
 16 17  2  0
 17 18  1  0
 18 19  1  0
 19 20  1  0
 19 21  2  0
 21 22  1  0
 22 23  2  0
  8  3  1  0
 23 14  1  0
 22 17  1  0
  1 24  1  0
  1 25  1  0
  1 26  1  0
  4 27  1  0
  5 28  1  0
  6 29  1  0
  7 30  1  0
 12 31  1  0
 12 32  1  0
 15 33  1  0
 16 34  1  0
 20 35  1  0
 20 36  1  0
 20 37  1  0
 23 38  1  0
M  CHG  1   9  -1
M  END
>  <UniqueID>  (22) 
22

>  <SMILES>  (22) 
COc1ccccc1[N-]C(=O)CSc1ccc2oc(C)nc2c1

>  <Energy>  (22) 
71.60942194624486

>  <Genealogy>  (22) 
COc1ccccc1[N-]C(=O)CSc1ccc2oc(C)nc2c1 (protonated)
COc1ccccc1[N-]C(=O)CSc1ccc2oc(C)nc2c1 (3D coordinates assigned)
COc1ccccc1[N-]C(=O)CSc1ccc2oc(C)nc2c1 (optimized conformer: 71.60942194624486 kcal/mol)

>  <smiles>  (22) 
COc1ccccc1NC(=O)CSc1ccc2oc(C)nc2c1

>  <score_type>  (22) 
oracle

>  <origin>  (22) 
adg

>  <m_score__min__energy>  (22) 
-10.720000000000001

>  <m_primary>  (22) 
energy

$$$$
22:0
     RDKit          3D

 41 43  0  0  0  0  0  0  0  0999 V2000
   -0.9550   22.7470  -29.9820 C   0  0  0  0  0  0  0  0  0  0  0  0
   -2.1700   23.2480  -29.4360 O   0  0  0  0  0  0  0  0  0  0  0  0
   -2.2760   23.9050  -28.1990 C   0  0  0  0  0  0  0  0  0  0  0  0
   -1.1550   24.1130  -27.3700 C   0  0  0  0  0  0  0  0  0  0  0  0
   -1.2830   24.8180  -26.1710 C   0  0  0  0  0  0  0  0  0  0  0  0
   -2.5220   25.3290  -25.7880 C   0  0  0  0  0  0  0  0  0  0  0  0
   -3.6430   25.1250  -26.5960 C   0  0  0  0  0  0  0  0  0  0  0  0
   -3.5360   24.3940  -27.7880 C   0  0  0  0  0  0  0  0  0  0  0  0
   -4.7080   24.2060  -28.5950 N   0  0  0  0  0  0  0  0  0  0  0  0
   -4.8410   24.7370  -29.9230 C   0  0  0  0  0  0  0  0  0  0  0  0
   -3.8610   25.2950  -30.4890 O   0  0  0  0  0  0  0  0  0  0  0  0
   -6.1210   24.5540  -30.6790 C   0  0  0  0  0  0  0  0  0  0  0  0
   -6.1780   23.1720  -31.2700 C   0  0  0  0  0  0  0  0  0  0  0  0
   -5.0000   22.5170  -31.6580 C   0  0  0  0  0  0  0  0  0  0  0  0
   -5.0570   21.2470  -32.2380 C   0  0  0  0  0  0  0  0  0  0  0  0
   -6.2940   20.6100  -32.4490 C   0  0  0  0  0  0  0  0  0  0  0  0
   -6.3530   19.3000  -33.0490 N   0  0  0  0  0  0  0  0  0  0  0  0
   -6.9140   18.1940  -32.5140 C   0  0  0  0  0  0  0  0  0  0  0  0
   -6.7770   17.1300  -33.3820 C   0  0  0  0  0  0  0  0  0  0  0  0
   -6.1040   17.6060  -34.4880 C   0  0  0  0  0  0  0  0  0  0  0  0
   -5.8580   18.9440  -34.2540 C   0  0  0  0  0  0  0  0  0  0  0  0
   -7.4720   21.2770  -32.0680 C   0  0  0  0  0  0  0  0  0  0  0  0
   -7.4150   22.5480  -31.4870 C   0  0  0  0  0  0  0  0  0  0  0  0
   -0.2741   22.4662  -29.1649 H   0  0  0  0  0  0  0  0  0  0  0  0
   -1.1683   21.8634  -30.6015 H   0  0  0  0  0  0  0  0  0  0  0  0
   -0.4835   23.5241  -30.6015 H   0  0  0  0  0  0  0  0  0  0  0  0
   -0.1731   23.7176  -27.6693 H   0  0  0  0  0  0  0  0  0  0  0  0
   -0.4040   24.9703  -25.5275 H   0  0  0  0  0  0  0  0  0  0  0  0
   -2.6171   25.8934  -24.8486 H   0  0  0  0  0  0  0  0  0  0  0  0
   -4.6161   25.5405  -26.2953 H   0  0  0  0  0  0  0  0  0  0  0  0
   -5.4260   23.5220  -28.2660 H   0  0  0  0  0  0  0  0  0  0  0  0
   -6.9710   24.6926  -29.9946 H   0  0  0  0  0  0  0  0  0  0  0  0
   -6.1696   25.2953  -31.4903 H   0  0  0  0  0  0  0  0  0  0  0  0
   -4.0264   23.0055  -31.5049 H   0  0  0  0  0  0  0  0  0  0  0  0
   -4.1261   20.7403  -32.5325 H   0  0  0  0  0  0  0  0  0  0  0  0
   -7.4071   18.1482  -31.5318 H   0  0  0  0  0  0  0  0  0  0  0  0
   -7.1349   16.1021  -33.2229 H   0  0  0  0  0  0  0  0  0  0  0  0
   -5.8190   17.0316  -35.3818 H   0  0  0  0  0  0  0  0  0  0  0  0
   -5.3359   19.6204  -34.9468 H   0  0  0  0  0  0  0  0  0  0  0  0
   -8.4475   20.7946  -32.2284 H   0  0  0  0  0  0  0  0  0  0  0  0
   -8.3447   23.0605  -31.1990 H   0  0  0  0  0  0  0  0  0  0  0  0
  1  2  1  0
  2  3  1  0
  3  4  2  0
  4  5  1  0
  5  6  2  0
  6  7  1  0
  7  8  2  0
  8  9  1  0
  9 10  1  0
 10 11  2  0
 10 12  1  0
 12 13  1  0
 13 14  2  0
 14 15  1  0
 15 16  2  0
 16 17  1  0
 17 18  1  0
 18 19  2  0
 19 20  1  0
 20 21  2  0
 16 22  1  0
 22 23  2  0
  8  3  1  0
 23 13  1  0
 21 17  1  0
  1 24  1  0
  1 25  1  0
  1 26  1  0
  4 27  1  0
  5 28  1  0
  6 29  1  0
  7 30  1  0
  9 31  1  0
 12 32  1  0
 12 33  1  0
 14 34  1  0
 15 35  1  0
 18 36  1  0
 19 37  1  0
 20 38  1  0
 21 39  1  0
 22 40  1  0
 23 41  1  0
M  END
>  <UniqueID>  (23) 
23

>  <SMILES>  (23) 
COc1ccccc1NC(=O)Cc1ccc(-n2cccc2)cc1

>  <Energy>  (23) 
74.41968235045489

>  <Genealogy>  (23) 
COc1ccccc1NC(=O)Cc1ccc(-n2cccc2)cc1 (3D coordinates assigned)
COc1ccccc1NC(=O)Cc1ccc(-n2cccc2)cc1 (optimized conformer: 74.41968235045489 kcal/mol)

>  <smiles>  (23) 
COc1ccccc1NC(=O)Cc1ccc(-n2cccc2)cc1

>  <score_type>  (23) 
oracle

>  <origin>  (23) 
adg

>  <m_score__min__energy>  (23) 
-8.8000000000000007

>  <m_primary>  (23) 
energy

$$$$
23:0
     RDKit          3D

 35 37  0  0  1  0  0  0  0  0999 V2000
   -1.6220   20.4840  -33.8870 C   0  0  0  0  0  0  0  0  0  0  0  0
   -2.9100   20.8880  -33.3220 C   0  0  0  0  0  0  0  0  0  0  0  0
   -3.9610   20.0550  -33.4420 N   0  0  0  0  0  0  0  0  0  0  0  0
   -5.1770   20.4100  -32.9310 C   0  0  0  0  0  0  0  0  0  0  0  0
   -6.7010   19.4580  -33.0190 S   0  0  0  0  0  0  0  0  0  0  0  0
   -7.6380   20.6700  -32.1880 C   0  0  0  0  0  0  0  0  0  0  0  0
   -6.7220   21.7900  -31.8680 C   0  0  0  0  0  0  0  0  0  0  0  0
   -5.4730   21.5520  -32.2820 C   0  0  0  0  0  0  0  0  0  0  0  0
   -4.3520   22.4160  -32.1500 C   0  0  0  0  0  0  0  0  0  0  0  0
   -4.2620   23.3530  -31.3560 N   0  0  0  0  0  0  0  0  0  0  0  0
   -4.7500   23.4610  -30.0800 C   0  0  0  0  0  0  0  0  0  0  0  0
   -5.0660   25.0350  -30.1030 C   0  0  0  0  0  0  0  0  0  0  0  0
   -3.9400   25.6060  -30.6840 O   0  0  0  0  0  0  0  0  0  0  0  0
   -3.1340   22.0340  -32.6850 N   0  0  0  0  0  0  0  0  0  0  0  0
   -7.5630   22.9000  -31.3370 C   0  0  0  0  0  0  0  0  0  0  0  0
   -8.9800   22.8900  -32.0040 C   0  0  0  0  0  0  0  0  0  0  0  0
   -9.7600   21.7650  -31.3790 C   0  0  0  0  0  0  0  0  0  0  0  0
   -9.0040   20.5790  -31.8350 C   0  0  0  0  0  0  0  0  0  0  0  0
   -0.9172   20.2629  -33.0719 H   0  0  0  0  0  0  0  0  0  0  0  0
   -1.7591   19.5857  -34.5069 H   0  0  0  0  0  0  0  0  0  0  0  0
   -1.2215   21.2997  -34.5069 H   0  0  0  0  0  0  0  0  0  0  0  0
   -5.6552   22.8552  -29.9261 H   0  0  0  0  0  0  0  0  0  0  0  0
   -4.0870   23.1105  -29.2752 H   0  0  0  0  0  0  0  0  0  0  0  0
   -5.9626   25.2431  -30.7054 H   0  0  0  0  0  0  0  0  0  0  0  0
   -5.2686   25.4363  -29.0991 H   0  0  0  0  0  0  0  0  0  0  0  0
   -3.4890   24.9210  -31.2640 H   0  0  0  0  0  0  0  0  0  0  0  0
   -2.3000   22.6760  -32.6060 H   0  0  0  0  0  0  0  0  0  0  0  0
   -7.6752   22.7794  -30.2494 H   0  0  0  0  0  0  0  0  0  0  0  0
   -7.0712   23.8568  -31.5666 H   0  0  0  0  0  0  0  0  0  0  0  0
   -9.4889   23.8480  -31.8215 H   0  0  0  0  0  0  0  0  0  0  0  0
   -8.8977   22.7499  -33.0919 H   0  0  0  0  0  0  0  0  0  0  0  0
   -9.7616   21.8407  -30.2816 H   0  0  0  0  0  0  0  0  0  0  0  0
  -10.8228   21.7503  -31.6621 H   0  0  0  0  0  0  0  0  0  0  0  0
   -9.0673   19.8387  -31.0239 H   0  0  0  0  0  0  0  0  0  0  0  0
   -9.4840   20.3453  -32.7967 H   0  0  0  0  0  0  0  0  0  0  0  0
  1  2  1  0
  2  3  2  0
  3  4  1  0
  4  5  1  0
  5  6  1  0
  6  7  2  0
  7  8  1  0
  8  9  1  0
  9 10  2  0
 10 11  1  0
 11 12  1  0
 12 13  1  0
  9 14  1  0
  7 15  1  0
 15 16  1  0
 16 17  1  0
 17 18  1  0
 14  2  1  0
  8  4  2  0
 18  6  1  0
  1 19  1  0
  1 20  1  0
  1 21  1  0
 11 22  1  0
 11 23  1  0
 12 24  1  0
 12 25  1  0
 13 26  1  0
 14 27  1  0
 15 28  1  0
 15 29  1  0
 16 30  1  0
 16 31  1  0
 17 32  1  0
 17 33  1  0
 18 34  1  0
 18 35  1  0
M  END
>  <smiles>  (24) 
Cc1nc2sc3c(c2c(=NCCO)[nH]1)CCCC3

>  <score_type>  (24) 
oracle

>  <origin>  (24) 
adg

>  <m_score__min__energy>  (24) 
-8.3900000000000006

>  <m_primary>  (24) 
energy

$$$$
24:0
     RDKit          3D

 49 51  0  0  0  0  0  0  0  0999 V2000
   -4.5780   24.5230  -30.8470 O   0  0  0  0  0  0  0  0  0  0  0  0
   -5.1930   23.4250  -30.8260 C   0  0  0  0  0  0  0  0  0  0  0  0
   -6.5640   23.3570  -30.2240 C   0  0  0  0  0  0  0  0  0  0  0  0
   -7.5920   22.9200  -31.2710 C   0  0  0  0  0  0  0  0  0  0  0  0
   -7.3720   21.5100  -31.6610 N   0  0  0  0  0  0  0  0  0  0  0  0
   -6.8860   21.3980  -33.0630 C   0  0  0  0  0  0  0  0  0  0  0  0
   -7.2220   20.0430  -33.7200 C   0  0  0  0  0  0  0  0  0  0  0  0
   -7.3340   18.9940  -32.7010 N   0  0  0  0  0  0  0  0  0  0  0  0
   -6.6170   17.7520  -32.8320 C   0  0  0  0  0  0  0  0  0  0  0  0
   -6.5370   17.1110  -34.0820 C   0  0  0  0  0  0  0  0  0  0  0  0
   -5.8570   15.8950  -34.2120 C   0  0  0  0  0  0  0  0  0  0  0  0
   -5.2570   15.3070  -33.0950 C   0  0  0  0  0  0  0  0  0  0  0  0
   -5.3370   15.9310  -31.8480 C   0  0  0  0  0  0  0  0  0  0  0  0
   -6.0180   17.1450  -31.7100 C   0  0  0  0  0  0  0  0  0  0  0  0
   -6.1230   17.7080  -30.4800 F   0  0  0  0  0  0  0  0  0  0  0  0
   -8.2250   19.2120  -31.5550 C   0  0  0  0  0  0  0  0  0  0  0  0
   -8.5810   20.6980  -31.4230 C   0  0  0  0  0  0  0  0  0  0  0  0
   -4.5980   22.2540  -31.4010 N   0  0  0  0  0  0  0  0  0  0  0  0
   -3.2830   22.2990  -32.0400 C   0  0  0  0  0  0  0  0  0  0  0  0
   -2.9900   20.9980  -32.7410 C   0  0  0  0  0  0  0  0  0  0  0  0
   -4.0420   20.1360  -33.0940 C   0  0  0  0  0  0  0  0  0  0  0  0
   -3.7780   18.9420  -33.7730 C   0  0  0  0  0  0  0  0  0  0  0  0
   -2.4650   18.6060  -34.1160 C   0  0  0  0  0  0  0  0  0  0  0  0
   -1.4140   19.4650  -33.7850 C   0  0  0  0  0  0  0  0  0  0  0  0
   -1.6720   20.6600  -33.1040 C   0  0  0  0  0  0  0  0  0  0  0  0
   -0.6380   21.4900  -32.8050 F   0  0  0  0  0  0  0  0  0  0  0  0
   -6.5599   22.6318  -29.3969 H   0  0  0  0  0  0  0  0  0  0  0  0
   -6.8382   24.3558  -29.8535 H   0  0  0  0  0  0  0  0  0  0  0  0
   -8.6030   23.0251  -30.8506 H   0  0  0  0  0  0  0  0  0  0  0  0
   -7.4821   23.5554  -32.1622 H   0  0  0  0  0  0  0  0  0  0  0  0
   -7.3494   22.1988  -33.6580 H   0  0  0  0  0  0  0  0  0  0  0  0
   -5.7897   21.4831  -33.0351 H   0  0  0  0  0  0  0  0  0  0  0  0
   -8.1773   20.1284  -34.2586 H   0  0  0  0  0  0  0  0  0  0  0  0
   -6.4160   19.7762  -34.4194 H   0  0  0  0  0  0  0  0  0  0  0  0
   -7.0119   17.5686  -34.9624 H   0  0  0  0  0  0  0  0  0  0  0  0
   -5.7947   15.4019  -35.1933 H   0  0  0  0  0  0  0  0  0  0  0  0
   -4.7212   14.3518  -33.1981 H   0  0  0  0  0  0  0  0  0  0  0  0
   -4.8627   15.4660  -30.9712 H   0  0  0  0  0  0  0  0  0  0  0  0
   -9.1477   18.6306  -31.6987 H   0  0  0  0  0  0  0  0  0  0  0  0
   -7.7099   18.8880  -30.6387 H   0  0  0  0  0  0  0  0  0  0  0  0
   -9.3511   20.9590  -32.1638 H   0  0  0  0  0  0  0  0  0  0  0  0
   -8.9666   20.8971  -30.4122 H   0  0  0  0  0  0  0  0  0  0  0  0
   -5.1350   21.3580  -31.3790 H   0  0  0  0  0  0  0  0  0  0  0  0
   -3.2658   23.1175  -32.7747 H   0  0  0  0  0  0  0  0  0  0  0  0
   -2.5183   22.4657  -31.2670 H   0  0  0  0  0  0  0  0  0  0  0  0
   -5.0777   20.4013  -32.8352 H   0  0  0  0  0  0  0  0  0  0  0  0
   -4.6047   18.2663  -34.0375 H   0  0  0  0  0  0  0  0  0  0  0  0
   -2.2593   17.6648  -34.6468 H   0  0  0  0  0  0  0  0  0  0  0  0
   -0.3821   19.2016  -34.0601 H   0  0  0  0  0  0  0  0  0  0  0  0
  1  2  2  0
  2  3  1  0
  3  4  1  0
  4  5  1  0
  5  6  1  0
  6  7  1  0
  7  8  1  0
  8  9  1  0
  9 10  2  0
 10 11  1  0
 11 12  2  0
 12 13  1  0
 13 14  2  0
 14 15  1  0
  8 16  1  0
 16 17  1  0
  2 18  1  0
 18 19  1  0
 19 20  1  0
 20 21  2  0
 21 22  1  0
 22 23  2  0
 23 24  1  0
 24 25  2  0
 25 26  1  0
 17  5  1  0
 25 20  1  0
 14  9  1  0
  3 27  1  0
  3 28  1  0
  4 29  1  0
  4 30  1  0
  6 31  1  0
  6 32  1  0
  7 33  1  0
  7 34  1  0
 10 35  1  0
 11 36  1  0
 12 37  1  0
 13 38  1  0
 16 39  1  0
 16 40  1  0
 17 41  1  0
 17 42  1  0
 18 43  1  0
 19 44  1  0
 19 45  1  0
 21 46  1  0
 22 47  1  0
 23 48  1  0
 24 49  1  0
M  END
>  <UniqueID>  (25) 
24

>  <SMILES>  (25) 
O=C(CCN1CCN(c2ccccc2F)CC1)NCc1ccccc1F

>  <Energy>  (25) 
56.807726753983474

>  <Genealogy>  (25) 
O=C(CCN1CCN(c2ccccc2F)CC1)NCc1ccccc1F (3D coordinates assigned)
O=C(CCN1CCN(c2ccccc2F)CC1)NCc1ccccc1F (nonaromatic ring conformer: 56.807726753983474 kcal/mol)

>  <smiles>  (25) 
O=C(CCN1CCN(c2ccccc2F)CC1)NCc1ccccc1F

>  <score_type>  (25) 
oracle

>  <origin>  (25) 
adg

>  <m_score__min__energy>  (25) 
-9.3200000000000003

>  <m_primary>  (25) 
energy

$$$$
25:0
     RDKit          3D

 36 39  0  0  0  0  0  0  0  0999 V2000
   -2.3150   25.2140  -29.3240 F   0  0  0  0  0  0  0  0  0  0  0  0
   -3.4090   24.5320  -29.7440 C   0  0  0  0  0  0  0  0  0  0  0  0
   -3.6740   23.2580  -29.2410 C   0  0  0  0  0  0  0  0  0  0  0  0
   -4.8050   22.5690  -29.6840 C   0  0  0  0  0  0  0  0  0  0  0  0
   -5.6620   23.1510  -30.6340 C   0  0  0  0  0  0  0  0  0  0  0  0
   -6.8660   22.4160  -31.0980 C   0  0  0  0  0  0  0  0  0  0  0  0
   -8.0260   23.0920  -31.5650 C   0  0  0  0  0  0  0  0  0  0  0  0
   -9.1380   22.3580  -32.0110 C   0  0  0  0  0  0  0  0  0  0  0  0
   -9.0380   20.9760  -31.9740 C   0  0  0  0  0  0  0  0  0  0  0  0
   -9.9550   20.0690  -32.3590 N   0  0  0  0  0  0  0  0  0  0  0  0
   -9.4000   18.8730  -32.1530 N   0  0  0  0  0  0  0  0  0  0  0  0
   -8.1600   19.0790  -31.6500 C   0  0  0  0  0  0  0  0  0  0  0  0
   -7.2010   17.9880  -31.2860 C   0  0  0  0  0  0  0  0  0  0  0  0
   -6.8320   17.2430  -32.4460 O   0  0  0  0  0  0  0  0  0  0  0  0
   -5.5380   17.1710  -32.9900 C   0  0  0  0  0  0  0  0  0  0  0  0
   -4.6710   16.0880  -32.7350 C   0  0  0  0  0  0  0  0  0  0  0  0
   -3.3910   16.0610  -33.2950 C   0  0  0  0  0  0  0  0  0  0  0  0
   -2.9610   17.1060  -34.1140 C   0  0  0  0  0  0  0  0  0  0  0  0
   -3.8140   18.1820  -34.3770 C   0  0  0  0  0  0  0  0  0  0  0  0
   -5.0980   18.2150  -33.8200 C   0  0  0  0  0  0  0  0  0  0  0  0
   -6.1470   19.5820  -34.1650 Cl  0  0  0  0  0  0  0  0  0  0  0  0
   -7.9270   20.3920  -31.5320 N   0  0  0  0  0  0  0  0  0  0  0  0
   -6.8540   21.0480  -31.1010 N   0  0  0  0  0  0  0  0  0  0  0  0
   -5.3560   24.4430  -31.1020 C   0  0  0  0  0  0  0  0  0  0  0  0
   -4.2490   25.0920  -30.6510 N   0  0  0  0  0  0  0  0  0  0  0  0
   -2.9988   22.8007  -28.5028 H   0  0  0  0  0  0  0  0  0  0  0  0
   -5.0261   21.5669  -29.2879 H   0  0  0  0  0  0  0  0  0  0  0  0
   -8.0531   24.1916  -31.5772 H   0  0  0  0  0  0  0  0  0  0  0  0
  -10.0481   22.8582  -32.3737 H   0  0  0  0  0  0  0  0  0  0  0  0
   -6.2996   18.4321  -30.8384 H   0  0  0  0  0  0  0  0  0  0  0  0
   -7.6860   17.3117  -30.5667 H   0  0  0  0  0  0  0  0  0  0  0  0
   -5.0043   15.2602  -32.0918 H   0  0  0  0  0  0  0  0  0  0  0  0
   -2.7204   15.2136  -33.0897 H   0  0  0  0  0  0  0  0  0  0  0  0
   -1.9522   17.0831  -34.5520 H   0  0  0  0  0  0  0  0  0  0  0  0
   -3.4753   19.0050  -35.0234 H   0  0  0  0  0  0  0  0  0  0  0  0
   -6.0152   24.9299  -31.8358 H   0  0  0  0  0  0  0  0  0  0  0  0
  1  2  1  0
  2  3  2  0
  3  4  1  0
  4  5  2  0
  5  6  1  0
  6  7  1  0
  7  8  2  0
  8  9  1  0
  9 10  2  0
 10 11  1  0
 11 12  2  0
 12 13  1  0
 13 14  1  0
 14 15  1  0
 15 16  2  0
 16 17  1  0
 17 18  2  0
 18 19  1  0
 19 20  2  0
 20 21  1  0
 12 22  1  0
 22 23  1  0
  5 24  1  0
 24 25  2  0
 25  2  1  0
 23  6  2  0
 22  9  1  0
 20 15  1  0
  3 26  1  0
  4 27  1  0
  7 28  1  0
  8 29  1  0
 13 30  1  0
 13 31  1  0
 16 32  1  0
 17 33  1  0
 18 34  1  0
 19 35  1  0
 24 36  1  0
M  END
>  <UniqueID>  (26) 
25

>  <SMILES>  (26) 
Fc1ccc(-c2ccc3nnc(COc4ccccc4Cl)n3n2)cn1

>  <Energy>  (26) 
88.04448244928393

>  <Genealogy>  (26) 
Fc1ccc(-c2ccc3nnc(COc4ccccc4Cl)n3n2)cn1 (3D coordinates assigned)
Fc1ccc(-c2ccc3nnc(COc4ccccc4Cl)n3n2)cn1 (optimized conformer: 88.04448244928393 kcal/mol)

>  <smiles>  (26) 
Fc1ccc(-c2ccc3nnc(COc4ccccc4Cl)n3n2)cn1

>  <score_type>  (26) 
oracle

>  <origin>  (26) 
adg

>  <m_score__min__energy>  (26) 
-8.9700000000000006

>  <m_primary>  (26) 
energy

$$$$
26:0
     RDKit          3D

 36 38  0  0  0  0  0  0  0  0999 V2000
   -3.9510   21.0280  -32.4220 C   0  0  0  0  0  0  0  0  0  0  0  0
   -4.6160   22.3760  -32.6780 C   0  0  0  0  0  0  0  0  0  0  0  0
   -5.9000   22.4660  -31.9730 N   0  0  0  0  0  0  0  0  0  0  0  0
   -6.3620   23.4590  -31.1600 C   0  0  0  0  0  0  0  0  0  0  0  0
   -5.6000   24.7080  -30.8190 C   0  0  0  0  0  0  0  0  0  0  0  0
   -4.1780   24.4130  -30.6380 N   0  0  0  0  0  0  0  0  0  0  0  0
   -3.6900   23.4200  -29.7170 C   0  0  0  0  0  0  0  0  0  0  0  0
   -4.3670   23.1260  -28.5170 C   0  0  0  0  0  0  0  0  0  0  0  0
   -3.8700   22.1510  -27.6460 C   0  0  0  0  0  0  0  0  0  0  0  0
   -2.6960   21.4560  -27.9610 C   0  0  0  0  0  0  0  0  0  0  0  0
   -2.1940   20.4430  -27.0720 C   0  0  0  0  0  0  0  0  0  0  0  0
   -1.7930   19.6260  -26.3560 N   0  0  0  0  0  0  0  0  0  0  0  0
   -2.0180   21.7450  -29.1500 C   0  0  0  0  0  0  0  0  0  0  0  0
   -2.5090   22.7230  -30.0190 C   0  0  0  0  0  0  0  0  0  0  0  0
   -7.6290   23.2470  -30.7160 N   0  0  0  0  0  0  0  0  0  0  0  0
   -7.9510   22.0700  -31.2790 C   0  0  0  0  0  0  0  0  0  0  0  0
   -9.1460   21.3660  -31.1710 C   0  0  0  0  0  0  0  0  0  0  0  0
   -9.2590   20.1870  -31.8510 N   0  0  0  0  0  0  0  0  0  0  0  0
   -8.2400   19.6920  -32.6250 C   0  0  0  0  0  0  0  0  0  0  0  0
   -7.0270   20.3970  -32.7410 C   0  0  0  0  0  0  0  0  0  0  0  0
   -6.9250   21.5980  -32.0360 C   0  0  0  0  0  0  0  0  0  0  0  0
   -3.8681   20.8600  -31.3381 H   0  0  0  0  0  0  0  0  0  0  0  0
   -4.5580   20.2284  -32.8716 H   0  0  0  0  0  0  0  0  0  0  0  0
   -2.9471   21.0231  -32.8716 H   0  0  0  0  0  0  0  0  0  0  0  0
   -3.9527   23.1785  -32.3231 H   0  0  0  0  0  0  0  0  0  0  0  0
   -4.7986   22.4796  -33.7578 H   0  0  0  0  0  0  0  0  0  0  0  0
   -5.7167   25.4364  -31.6350 H   0  0  0  0  0  0  0  0  0  0  0  0
   -5.9981   25.1200  -29.8800 H   0  0  0  0  0  0  0  0  0  0  0  0
   -3.4800   24.9230  -31.2250 H   0  0  0  0  0  0  0  0  0  0  0  0
   -5.2912   23.6660  -28.2637 H   0  0  0  0  0  0  0  0  0  0  0  0
   -4.4035   21.9293  -26.7099 H   0  0  0  0  0  0  0  0  0  0  0  0
   -1.0957   21.2008  -29.4016 H   0  0  0  0  0  0  0  0  0  0  0  0
   -1.9653   22.9489  -30.9482 H   0  0  0  0  0  0  0  0  0  0  0  0
   -9.9748   21.7474  -30.5565 H   0  0  0  0  0  0  0  0  0  0  0  0
   -8.3716   18.7388  -33.1580 H   0  0  0  0  0  0  0  0  0  0  0  0
   -6.1984   20.0195  -33.3581 H   0  0  0  0  0  0  0  0  0  0  0  0
  1  2  1  0
  2  3  1  0
  3  4  1  0
  4  5  1  0
  5  6  1  0
  6  7  1  0
  7  8  2  0
  8  9  1  0
  9 10  2  0
 10 11  1  0
 11 12  3  0
 10 13  1  0
 13 14  2  0
  4 15  2  0
 15 16  1  0
 16 17  2  0
 17 18  1  0
 18 19  2  0
 19 20  1  0
 20 21  2  0
 21  3  1  0
 14  7  1  0
 21 16  1  0
  1 22  1  0
  1 23  1  0
  1 24  1  0
  2 25  1  0
  2 26  1  0
  5 27  1  0
  5 28  1  0
  6 29  1  0
  8 30  1  0
  9 31  1  0
 13 32  1  0
 14 33  1  0
 17 34  1  0
 19 35  1  0
 20 36  1  0
M  END
>  <UniqueID>  (27) 
26

>  <SMILES>  (27) 
CCn1c(CNc2ccc(C#N)cc2)nc2cnccc21

>  <Energy>  (27) 
72.43795693054693

>  <Genealogy>  (27) 
CCn1c(CNc2ccc(C#N)cc2)nc2cnccc21 (3D coordinates assigned)
CCn1c(CNc2ccc(C#N)cc2)nc2cnccc21 (optimized conformer: 72.43795693054693 kcal/mol)

>  <smiles>  (27) 
CCn1c(CNc2ccc(C#N)cc2)nc2cnccc21

>  <score_type>  (27) 
oracle

>  <origin>  (27) 
adg

>  <m_score__min__energy>  (27) 
-7.1100000000000003

>  <m_primary>  (27) 
energy

$$$$
27:0
     RDKit          3D

 47 48  0  0  0  0  0  0  0  0999 V2000
   -7.8700   17.9010  -32.2750 C   0  0  0  0  0  0  0  0  0  0  0  0
   -6.6040   18.5360  -32.8840 C   0  0  0  0  0  0  0  0  0  0  0  0
   -6.8510   20.0420  -33.1160 C   0  0  0  0  0  0  0  0  0  0  0  0
   -5.5230   18.4240  -31.8920 N   0  0  0  0  0  0  0  0  0  0  0  0
   -6.1570   17.8150  -34.2030 C   0  0  0  0  0  0  0  0  0  0  0  0
   -5.1360   16.6480  -34.1100 C   0  0  0  0  0  0  0  0  0  0  0  0
   -3.7870   17.0140  -33.6410 N   0  0  0  0  0  0  0  0  0  0  0  0
   -3.0650   17.8790  -34.5880 C   0  0  0  0  0  0  0  0  0  0  0  0
   -2.0130   18.7250  -33.8580 C   0  0  0  0  0  0  0  0  0  0  0  0
   -2.4510   19.0430  -32.5380 O   0  0  0  0  0  0  0  0  0  0  0  0
   -3.1010   20.2310  -32.1590 C   0  0  0  0  0  0  0  0  0  0  0  0
   -3.1240   20.5670  -30.8010 C   0  0  0  0  0  0  0  0  0  0  0  0
   -3.7600   21.7320  -30.3660 C   0  0  0  0  0  0  0  0  0  0  0  0
   -4.3850   22.5880  -31.2890 C   0  0  0  0  0  0  0  0  0  0  0  0
   -5.0640   23.8220  -30.8430 C   0  0  0  0  0  0  0  0  0  0  0  0
   -6.2450   23.8320  -30.3300 N   0  0  0  0  0  0  0  0  0  0  0  0
   -6.6110   25.2030  -30.0010 C   0  0  0  0  0  0  0  0  0  0  0  0
   -5.3980   26.0400  -30.4240 C   0  0  0  0  0  0  0  0  0  0  0  0
   -4.4940   25.0760  -30.9350 O   0  0  0  0  0  0  0  0  0  0  0  0
   -4.3570   22.2570  -32.6530 C   0  0  0  0  0  0  0  0  0  0  0  0
   -3.7190   21.0910  -33.0870 C   0  0  0  0  0  0  0  0  0  0  0  0
   -7.8049   17.9336  -31.1774 H   0  0  0  0  0  0  0  0  0  0  0  0
   -8.7569   18.4610  -32.6065 H   0  0  0  0  0  0  0  0  0  0  0  0
   -7.9515   16.8553  -32.6065 H   0  0  0  0  0  0  0  0  0  0  0  0
   -6.9349   20.5535  -32.1458 H   0  0  0  0  0  0  0  0  0  0  0  0
   -6.0108   20.4682  -33.6838 H   0  0  0  0  0  0  0  0  0  0  0  0
   -7.7834   20.1775  -33.6838 H   0  0  0  0  0  0  0  0  0  0  0  0
   -5.7240   19.0570  -31.0830 H   0  0  0  0  0  0  0  0  0  0  0  0
   -4.6180   18.7410  -32.3120 H   0  0  0  0  0  0  0  0  0  0  0  0
   -7.0654   17.4127  -34.6751 H   0  0  0  0  0  0  0  0  0  0  0  0
   -5.6191   18.5945  -34.7625 H   0  0  0  0  0  0  0  0  0  0  0  0
   -5.5429   15.8976  -33.4162 H   0  0  0  0  0  0  0  0  0  0  0  0
   -5.0062   16.2808  -35.1387 H   0  0  0  0  0  0  0  0  0  0  0  0
   -3.9080   17.5380  -32.7420 H   0  0  0  0  0  0  0  0  0  0  0  0
   -3.2320   16.1610  -33.4200 H   0  0  0  0  0  0  0  0  0  0  0  0
   -2.5648   17.2517  -35.3405 H   0  0  0  0  0  0  0  0  0  0  0  0
   -3.7871   18.5534  -35.0715 H   0  0  0  0  0  0  0  0  0  0  0  0
   -1.0714   18.1594  -33.7998 H   0  0  0  0  0  0  0  0  0  0  0  0
   -1.8615   19.6608  -34.4160 H   0  0  0  0  0  0  0  0  0  0  0  0
   -2.6363   19.9070  -30.0685 H   0  0  0  0  0  0  0  0  0  0  0  0
   -3.7718   21.9810  -29.2946 H   0  0  0  0  0  0  0  0  0  0  0  0
   -7.5080   25.5099  -30.5589 H   0  0  0  0  0  0  0  0  0  0  0  0
   -6.8509   25.3260  -28.9345 H   0  0  0  0  0  0  0  0  0  0  0  0
   -5.6747   26.7697  -31.1993 H   0  0  0  0  0  0  0  0  0  0  0  0
   -4.9744   26.6293  -29.5974 H   0  0  0  0  0  0  0  0  0  0  0  0
   -4.8405   22.9198  -33.3857 H   0  0  0  0  0  0  0  0  0  0  0  0
   -3.6998   20.8443  -34.1588 H   0  0  0  0  0  0  0  0  0  0  0  0
  1  2  1  0
  2  3  1  0
  2  4  1  0
  2  5  1  0
  5  6  1  0
  6  7  1  0
  7  8  1  0
  8  9  1  0
  9 10  1  0
 10 11  1  0
 11 12  2  0
 12 13  1  0
 13 14  2  0
 14 15  1  0
 15 16  2  0
 16 17  1  0
 17 18  1  0
 18 19  1  0
 14 20  1  0
 20 21  2  0
 21 11  1  0
 19 15  1  0
  1 22  1  0
  1 23  1  0
  1 24  1  0
  3 25  1  0
  3 26  1  0
  3 27  1  0
  4 28  1  0
  4 29  1  0
  5 30  1  0
  5 31  1  0
  6 32  1  0
  6 33  1  0
  7 34  1  0
  7 35  1  0
  8 36  1  0
  8 37  1  0
  9 38  1  0
  9 39  1  0
 12 40  1  0
 13 41  1  0
 17 42  1  0
 17 43  1  0
 18 44  1  0
 18 45  1  0
 20 46  1  0
 21 47  1  0
M  CHG  1   7   1
M  END
>  <UniqueID>  (28) 
27

>  <SMILES>  (28) 
CC(C)(N)CC[NH2+]CCOc1ccc(C2=NCCO2)cc1

>  <Energy>  (28) 
58.85316492402824

>  <Genealogy>  (28) 
CC(C)(N)CC[NH2+]CCOc1ccc(C2=NCCO2)cc1 (protonated)
CC(C)(N)CC[NH2+]CCOc1ccc(C2=NCCO2)cc1 (3D coordinates assigned)
CC(C)(N)CC[NH2+]CCOc1ccc(C2=NCCO2)cc1 (nonaromatic ring conformer: 58.85316492402824 kcal/mol)

>  <smiles>  (28) 
CC(C)(N)CCNCCOc1ccc(C2=NCCO2)cc1

>  <score_type>  (28) 
oracle

>  <origin>  (28) 
adg

>  <m_score__min__energy>  (28) 
-6.5700000000000003

>  <m_primary>  (28) 
energy

$$$$
28:0
     RDKit          3D

 47 49  0  0  0  0  0  0  0  0999 V2000
   -6.1350   25.7750  -29.6580 C   0  0  0  0  0  0  0  0  0  0  0  0
   -4.9890   25.6540  -30.6570 C   0  0  0  0  0  0  0  0  0  0  0  0
   -4.6610   24.2290  -30.8880 N   0  0  0  0  0  0  0  0  0  0  0  0
   -3.3580   23.8950  -30.2840 C   0  0  0  0  0  0  0  0  0  0  0  0
   -5.7080   23.3300  -30.3570 C   0  0  0  0  0  0  0  0  0  0  0  0
   -6.8010   23.0360  -31.4080 C   0  0  0  0  0  0  0  0  0  0  0  0
   -6.2590   22.6130  -32.7160 N   0  0  0  0  0  0  0  0  0  0  0  0
   -5.9340   21.1900  -32.7470 C   0  0  0  0  0  0  0  0  0  0  0  0
   -6.9170   20.1900  -32.4850 C   0  0  0  0  0  0  0  0  0  0  0  0
   -8.1650   20.4840  -31.8760 C   0  0  0  0  0  0  0  0  0  0  0  0
   -9.1080   19.4880  -31.6390 C   0  0  0  0  0  0  0  0  0  0  0  0
   -8.8290   18.1720  -31.9660 C   0  0  0  0  0  0  0  0  0  0  0  0
   -7.6060   17.8410  -32.5400 C   0  0  0  0  0  0  0  0  0  0  0  0
   -6.6360   18.8350  -32.8310 C   0  0  0  0  0  0  0  0  0  0  0  0
   -5.4350   18.5010  -33.4210 N   0  0  0  0  0  0  0  0  0  0  0  0
   -5.2730   17.1840  -34.0780 C   0  0  0  0  0  0  0  0  0  0  0  0
   -4.3890   19.3960  -33.4060 C   0  0  0  0  0  0  0  0  0  0  0  0
   -3.0620   18.9790  -33.6850 C   0  0  0  0  0  0  0  0  0  0  0  0
   -2.0120   19.8920  -33.7270 C   0  0  0  0  0  0  0  0  0  0  0  0
   -2.2510   21.2360  -33.4800 C   0  0  0  0  0  0  0  0  0  0  0  0
   -3.5360   21.6730  -33.1650 C   0  0  0  0  0  0  0  0  0  0  0  0
   -4.6240   20.7650  -33.1040 C   0  0  0  0  0  0  0  0  0  0  0  0
   -5.7349   25.7328  -28.6342 H   0  0  0  0  0  0  0  0  0  0  0  0
   -6.6540   26.7329  -29.8096 H   0  0  0  0  0  0  0  0  0  0  0  0
   -6.8426   24.9466  -29.8096 H   0  0  0  0  0  0  0  0  0  0  0  0
   -5.2865   26.1174  -31.6092 H   0  0  0  0  0  0  0  0  0  0  0  0
   -4.1035   26.1651  -30.2513 H   0  0  0  0  0  0  0  0  0  0  0  0
   -3.4455   23.9174  -29.1877 H   0  0  0  0  0  0  0  0  0  0  0  0
   -3.0512   22.8892  -30.6068 H   0  0  0  0  0  0  0  0  0  0  0  0
   -2.6052   24.6292  -30.6068 H   0  0  0  0  0  0  0  0  0  0  0  0
   -5.2417   22.3810  -30.0536 H   0  0  0  0  0  0  0  0  0  0  0  0
   -6.1840   23.8293  -29.5002 H   0  0  0  0  0  0  0  0  0  0  0  0
   -7.4482   22.2342  -31.0230 H   0  0  0  0  0  0  0  0  0  0  0  0
   -7.3531   23.9730  -31.5730 H   0  0  0  0  0  0  0  0  0  0  0  0
   -6.9480   22.8370  -33.4670 H   0  0  0  0  0  0  0  0  0  0  0  0
   -5.4630   23.2390  -32.9400 H   0  0  0  0  0  0  0  0  0  0  0  0
   -8.3916   21.5204  -31.5853 H   0  0  0  0  0  0  0  0  0  0  0  0
  -10.0783   19.7474  -31.1903 H   0  0  0  0  0  0  0  0  0  0  0  0
   -9.5751   17.3874  -31.7717 H   0  0  0  0  0  0  0  0  0  0  0  0
   -7.3866   16.7886  -32.7728 H   0  0  0  0  0  0  0  0  0  0  0  0
   -5.1767   16.4011  -33.3113 H   0  0  0  0  0  0  0  0  0  0  0  0
   -6.1524   16.9766  -34.7054 H   0  0  0  0  0  0  0  0  0  0  0  0
   -4.3695   17.1959  -34.7054 H   0  0  0  0  0  0  0  0  0  0  0  0
   -2.8590   17.9141  -33.8717 H   0  0  0  0  0  0  0  0  0  0  0  0
   -0.9927   19.5477  -33.9561 H   0  0  0  0  0  0  0  0  0  0  0  0
   -1.4236   21.9589  -33.5330 H   0  0  0  0  0  0  0  0  0  0  0  0
   -3.7096   22.7397  -32.9603 H   0  0  0  0  0  0  0  0  0  0  0  0
  1  2  1  0
  2  3  1  0
  3  4  1  0
  3  5  1  0
  5  6  1  0
  6  7  1  0
  7  8  1  0
  8  9  2  0
  9 10  1  0
 10 11  2  0
 11 12  1  0
 12 13  2  0
 13 14  1  0
 14 15  2  0
 15 16  1  0
 15 17  1  0
 17 18  2  0
 18 19  1  0
 19 20  2  0
 20 21  1  0
 21 22  2  0
 22  8  1  0
 14  9  1  0
 22 17  1  0
  1 23  1  0
  1 24  1  0
  1 25  1  0
  2 26  1  0
  2 27  1  0
  4 28  1  0
  4 29  1  0
  4 30  1  0
  5 31  1  0
  5 32  1  0
  6 33  1  0
  6 34  1  0
  7 35  1  0
  7 36  1  0
 10 37  1  0
 11 38  1  0
 12 39  1  0
 13 40  1  0
 16 41  1  0
 16 42  1  0
 16 43  1  0
 18 44  1  0
 19 45  1  0
 20 46  1  0
 21 47  1  0
M  CHG  2   7   1  15   1
M  END
>  <UniqueID>  (29) 
28

>  <SMILES>  (29) 
CCN(C)CC[NH2+]c1c2ccccc2[n+](C)c2ccccc12

>  <Energy>  (29) 
77.56687914977573

>  <Genealogy>  (29) 
CCN(C)CC[NH2+]c1c2ccccc2[n+](C)c2ccccc12 (protonated)
CCN(C)CC[NH2+]c1c2ccccc2[n+](C)c2ccccc12 (3D coordinates assigned)
CCN(C)CC[NH2+]c1c2ccccc2[n+](C)c2ccccc12 (optimized conformer: 77.56687914977573 kcal/mol)

>  <smiles>  (29) 
CCN(C)CCNc1c2ccccc2[n+](C)c2ccccc12

>  <score_type>  (29) 
oracle

>  <origin>  (29) 
adg

>  <m_score__min__energy>  (29) 
-7.8899999999999997

>  <m_primary>  (29) 
energy

$$$$
29:0
     RDKit          3D

 55 58  0  0  0  0  0  0  0  0999 V2000
   -6.8410   19.4370  -33.1080 C   0  0  0  0  0  0  0  0  0  0  0  0
   -7.1640   20.7600  -32.4750 C   0  0  0  0  0  0  0  0  0  0  0  0
   -8.4990   21.0720  -32.1410 C   0  0  0  0  0  0  0  0  0  0  0  0
   -8.8230   22.3050  -31.5520 C   0  0  0  0  0  0  0  0  0  0  0  0
   -7.8100   23.2340  -31.2930 C   0  0  0  0  0  0  0  0  0  0  0  0
   -6.5320   22.9060  -31.6220 N   0  0  0  0  0  0  0  0  0  0  0  0
   -5.3920   23.6120  -31.4820 C   0  0  0  0  0  0  0  0  0  0  0  0
   -5.3080   25.0080  -30.9360 C   0  0  0  0  0  0  0  0  0  0  0  0
   -3.9320   25.3020  -30.5010 N   0  0  0  0  0  0  0  0  0  0  0  0
   -3.3930   24.3800  -29.4770 C   0  0  0  0  0  0  0  0  0  0  0  0
   -4.3980   24.0580  -28.3570 C   0  0  0  0  0  0  0  0  0  0  0  0
   -3.8570   22.9590  -27.4170 C   0  0  0  0  0  0  0  0  0  0  0  0
   -2.3740   22.9070  -27.3430 N   0  0  0  0  0  0  0  0  0  0  0  0
   -1.7530   21.8470  -28.1760 C   0  0  0  0  0  0  0  0  0  0  0  0
   -0.8770   20.9360  -27.2940 C   0  0  1  0  0  0  0  0  0  0  0  0
   -1.6440   20.3430  -26.1400 C   0  0  0  0  0  0  0  0  0  0  0  0
   -2.1250   19.0110  -26.6840 C   0  0  0  0  0  0  0  0  0  0  0  0
   -1.3560   18.6520  -27.8100 O   0  0  0  0  0  0  0  0  0  0  0  0
   -0.4310   19.6880  -28.0450 C   0  0  0  0  0  0  0  0  0  0  0  0
   -1.7390   24.2290  -27.5150 C   0  0  0  0  0  0  0  0  0  0  0  0
   -2.0420   24.8610  -28.8920 C   0  0  0  0  0  0  0  0  0  0  0  0
   -4.3170   22.9430  -31.9580 N   0  0  0  0  0  0  0  0  0  0  0  0
   -4.8100   21.7620  -32.3960 C   0  0  0  0  0  0  0  0  0  0  0  0
   -3.9440   20.7090  -33.0090 C   0  0  0  0  0  0  0  0  0  0  0  0
   -6.1860   21.7370  -32.1900 C   0  0  0  0  0  0  0  0  0  0  0  0
   -6.6585   18.6893  -32.3221 H   0  0  0  0  0  0  0  0  0  0  0  0
   -7.6865   19.1133  -33.7328 H   0  0  0  0  0  0  0  0  0  0  0  0
   -5.9415   19.5393  -33.7328 H   0  0  0  0  0  0  0  0  0  0  0  0
   -9.2953   20.3408  -32.3444 H   0  0  0  0  0  0  0  0  0  0  0  0
   -9.8669   22.5387  -31.2959 H   0  0  0  0  0  0  0  0  0  0  0  0
   -8.0416   24.2066  -30.8342 H   0  0  0  0  0  0  0  0  0  0  0  0
   -5.6021   25.7226  -31.7188 H   0  0  0  0  0  0  0  0  0  0  0  0
   -5.9841   25.0971  -30.0729 H   0  0  0  0  0  0  0  0  0  0  0  0
   -3.8870   26.2760  -30.1190 H   0  0  0  0  0  0  0  0  0  0  0  0
   -3.2045   23.4388  -30.0141 H   0  0  0  0  0  0  0  0  0  0  0  0
   -4.5861   24.9699  -27.7713 H   0  0  0  0  0  0  0  0  0  0  0  0
   -5.3275   23.6935  -28.8187 H   0  0  0  0  0  0  0  0  0  0  0  0
   -4.2480   23.1448  -26.4058 H   0  0  0  0  0  0  0  0  0  0  0  0
   -4.1904   21.9946  -27.8279 H   0  0  0  0  0  0  0  0  0  0  0  0
   -2.5427   21.2460  -28.6506 H   0  0  0  0  0  0  0  0  0  0  0  0
   -1.1267   22.3139  -28.9504 H   0  0  0  0  0  0  0  0  0  0  0  0
   -0.0511   21.5905  -26.9785 H   0  0  0  0  0  0  0  0  0  0  0  0
   -0.9913   20.1987  -25.2664 H   0  0  0  0  0  0  0  0  0  0  0  0
   -2.4658   20.9874  -25.7945 H   0  0  0  0  0  0  0  0  0  0  0  0
   -2.0189   18.2391  -25.9075 H   0  0  0  0  0  0  0  0  0  0  0  0
   -3.1817   19.0973  -26.9770 H   0  0  0  0  0  0  0  0  0  0  0  0
    0.5638   19.3807  -27.6902 H   0  0  0  0  0  0  0  0  0  0  0  0
   -0.3816   19.9025  -29.1227 H   0  0  0  0  0  0  0  0  0  0  0  0
   -2.1106   24.9029  -26.7290 H   0  0  0  0  0  0  0  0  0  0  0  0
   -0.6504   24.0863  -27.4471 H   0  0  0  0  0  0  0  0  0  0  0  0
   -2.0750   25.9547  -28.7793 H   0  0  0  0  0  0  0  0  0  0  0  0
   -1.2465   24.5516  -29.5858 H   0  0  0  0  0  0  0  0  0  0  0  0
   -3.4614   20.1222  -32.2135 H   0  0  0  0  0  0  0  0  0  0  0  0
   -4.5603   20.0444  -33.6323 H   0  0  0  0  0  0  0  0  0  0  0  0
   -3.1730   21.1854  -33.6323 H   0  0  0  0  0  0  0  0  0  0  0  0
  1  2  1  0
  2  3  2  0
  3  4  1  0
  4  5  2  0
  5  6  1  0
  6  7  1  0
  7  8  1  0
  8  9  1  0
  9 10  1  0
 10 11  1  0
 11 12  1  0
 12 13  1  0
 13 14  1  0
 14 15  1  0
 15 16  1  0
 16 17  1  0
 17 18  1  0
 18 19  1  0
 13 20  1  0
 20 21  1  0
  7 22  2  0
 22 23  1  0
 23 24  1  0
 23 25  2  0
 25  2  1  0
 25  6  1  0
 21 10  1  0
 19 15  1  0
  1 26  1  0
  1 27  1  0
  1 28  1  0
  3 29  1  0
  4 30  1  0
  5 31  1  0
  8 32  1  0
  8 33  1  0
  9 34  1  0
 10 35  1  0
 11 36  1  0
 11 37  1  0
 12 38  1  0
 12 39  1  0
 14 40  1  0
 14 41  1  0
 15 42  1  1
 16 43  1  0
 16 44  1  0
 17 45  1  0
 17 46  1  0
 19 47  1  0
 19 48  1  0
 20 49  1  0
 20 50  1  0
 21 51  1  0
 21 52  1  0
 24 53  1  0
 24 54  1  0
 24 55  1  0
M  END
>  <UniqueID>  (30) 
29

>  <SMILES>  (30) 
Cc1cccn2c(CNC3CCN(C[C@H]4CCOC4)CC3)nc(C)c12

>  <Energy>  (30) 
106.42626285267058

>  <Genealogy>  (30) 
Cc1cccn2c(CNC3CCN(C[C@H]4CCOC4)CC3)nc(C)c12 (chirality)
Cc1cccn2c(CNC3CCN(C[C@H]4CCOC4)CC3)nc(C)c12 (3D coordinates assigned)
Cc1cccn2c(CNC3CCN(C[C@H]4CCOC4)CC3)nc(C)c12 (nonaromatic ring conformer: 106.42626285267058 kcal/mol)

>  <smiles>  (30) 
Cc1cccn2c(CNC3CCN(CC4CCOC4)CC3)nc(C)c12

>  <score_type>  (30) 
oracle

>  <origin>  (30) 
adg

>  <m_score__min__energy>  (30) 
-9.4100000000000001

>  <m_primary>  (30) 
energy

$$$$
30:0
     RDKit          3D

 34 36  0  0  0  0  0  0  0  0999 V2000
   -2.2270   24.1820  -29.3450 C   0  0  0  0  0  0  0  0  0  0  0  0
   -3.1810   24.9240  -30.1000 O   0  0  0  0  0  0  0  0  0  0  0  0
   -4.5140   24.5360  -30.2950 C   0  0  0  0  0  0  0  0  0  0  0  0
   -5.5230   25.4280  -29.9220 C   0  0  0  0  0  0  0  0  0  0  0  0
   -6.8660   25.0930  -30.1010 C   0  0  0  0  0  0  0  0  0  0  0  0
   -7.2140   23.8590  -30.6540 C   0  0  0  0  0  0  0  0  0  0  0  0
   -6.2200   22.9380  -31.0320 C   0  0  0  0  0  0  0  0  0  0  0  0
   -6.6130   21.6300  -31.6180 C   0  0  0  0  0  0  0  0  0  0  0  0
   -7.9060   21.3130  -32.0460 C   0  0  0  0  0  0  0  0  0  0  0  0
   -7.8860   19.7430  -32.6480 S   0  0  0  0  0  0  0  0  0  0  0  0
   -6.2460   19.5250  -32.3460 C   0  0  0  0  0  0  0  0  0  0  0  0
   -5.4530   18.2780  -32.6450 C   0  0  2  0  0  0  0  0  0  0  0  0
   -4.7840   18.3610  -34.0310 C   0  0  0  0  0  0  0  0  0  0  0  0
   -5.6500   17.5560  -34.9970 C   0  0  0  0  0  0  0  0  0  0  0  0
   -6.4910   16.7200  -34.1100 C   0  0  0  0  0  0  0  0  0  0  0  0
   -7.2350   15.8490  -34.5290 O   0  0  0  0  0  0  0  0  0  0  0  0
   -6.3510   17.0350  -32.6670 C   0  0  0  0  0  0  0  0  0  0  0  0
   -5.7020   20.6310  -31.7940 N   0  0  0  0  0  0  0  0  0  0  0  0
   -4.8660   23.2900  -30.8520 C   0  0  0  0  0  0  0  0  0  0  0  0
   -2.4153   24.3284  -28.2712 H   0  0  0  0  0  0  0  0  0  0  0  0
   -2.3161   23.1135  -29.5905 H   0  0  0  0  0  0  0  0  0  0  0  0
   -1.2133   24.5314  -29.5905 H   0  0  0  0  0  0  0  0  0  0  0  0
   -5.2568   26.4013  -29.4841 H   0  0  0  0  0  0  0  0  0  0  0  0
   -7.6525   25.8031  -29.8056 H   0  0  0  0  0  0  0  0  0  0  0  0
   -8.2748   23.6047  -30.7954 H   0  0  0  0  0  0  0  0  0  0  0  0
   -8.7831   21.9751  -31.9974 H   0  0  0  0  0  0  0  0  0  0  0  0
   -4.6985   18.1996  -31.8484 H   0  0  0  0  0  0  0  0  0  0  0  0
   -4.7263   19.4091  -34.3599 H   0  0  0  0  0  0  0  0  0  0  0  0
   -3.7603   17.9600  -33.9960 H   0  0  0  0  0  0  0  0  0  0  0  0
   -6.2724   18.2221  -35.6126 H   0  0  0  0  0  0  0  0  0  0  0  0
   -5.0546   16.9588  -35.7033 H   0  0  0  0  0  0  0  0  0  0  0  0
   -7.3310   17.2524  -32.2172 H   0  0  0  0  0  0  0  0  0  0  0  0
   -5.9308   16.1984  -32.0895 H   0  0  0  0  0  0  0  0  0  0  0  0
   -4.0763   22.5845  -31.1495 H   0  0  0  0  0  0  0  0  0  0  0  0
  1  2  1  0
  2  3  1  0
  3  4  2  0
  4  5  1  0
  5  6  2  0
  6  7  1  0
  7  8  1  0
  8  9  2  0
  9 10  1  0
 10 11  1  0
 11 12  1  0
 12 13  1  0
 13 14  1  0
 14 15  1  0
 15 16  2  0
 15 17  1  0
 11 18  2  0
  7 19  2  0
 19  3  1  0
 18  8  1  0
 17 12  1  0
  1 20  1  0
  1 21  1  0
  1 22  1  0
  4 23  1  0
  5 24  1  0
  6 25  1  0
  9 26  1  0
 12 27  1  1
 13 28  1  0
 13 29  1  0
 14 30  1  0
 14 31  1  0
 17 32  1  0
 17 33  1  0
 19 34  1  0
M  END
>  <UniqueID>  (31) 
30

>  <SMILES>  (31) 
COc1cccc(-c2csc([C@@H]3CCC(=O)C3)n2)c1

>  <Energy>  (31) 
66.800347804956

>  <Genealogy>  (31) 
COc1cccc(-c2csc([C@@H]3CCC(=O)C3)n2)c1 (chirality)
COc1cccc(-c2csc([C@@H]3CCC(=O)C3)n2)c1 (3D coordinates assigned)
COc1cccc(-c2csc([C@@H]3CCC(=O)C3)n2)c1 (nonaromatic ring conformer: 66.800347804956 kcal/mol)

>  <smiles>  (31) 
COc1cccc(-c2csc(C3CCC(=O)C3)n2)c1

>  <score_type>  (31) 
oracle

>  <origin>  (31) 
adg

>  <m_score__min__energy>  (31) 
-8.0999999999999996

>  <m_primary>  (31) 
energy

$$$$
31:0
     RDKit          3D

 42 44  0  0  0  0  0  0  0  0999 V2000
   -6.1770   15.4760  -33.8450 C   0  0  0  0  0  0  0  0  0  0  0  0
   -7.2400   16.3350  -33.4460 O   0  0  0  0  0  0  0  0  0  0  0  0
   -7.0820   17.6910  -33.1200 C   0  0  0  0  0  0  0  0  0  0  0  0
   -7.8270   18.3150  -32.1040 C   0  0  0  0  0  0  0  0  0  0  0  0
   -7.6250   19.6660  -31.8100 C   0  0  0  0  0  0  0  0  0  0  0  0
   -6.6780   20.4190  -32.5220 C   0  0  0  0  0  0  0  0  0  0  0  0
   -6.4220   21.8240  -32.1350 C   0  0  0  0  0  0  0  0  0  0  0  0
   -5.5580   22.6630  -32.7410 N   0  0  0  0  0  0  0  0  0  0  0  0
   -5.5220   23.7790  -32.0350 N   0  0  0  0  0  0  0  0  0  0  0  0
   -6.3890   23.5890  -31.0230 C   0  0  0  0  0  0  0  0  0  0  0  0
   -6.6530   24.7810  -29.7080 S   0  0  0  0  0  0  0  0  0  0  0  0
   -4.9990   24.6410  -28.9130 C   0  0  0  0  0  0  0  0  0  0  0  0
   -3.8560   24.7570  -29.8750 C   0  0  0  0  0  0  0  0  0  0  0  0
   -3.8760   25.6380  -30.7750 O   0  0  0  0  0  0  0  0  0  0  0  0
   -2.7570   23.8460  -29.7520 N   0  0  0  0  0  0  0  0  0  0  0  0
   -2.5700   22.5870  -30.4180 C   0  0  0  0  0  0  0  0  0  0  0  0
   -3.6280   21.6690  -30.4010 C   0  0  0  0  0  0  0  0  0  0  0  0
   -3.5550   20.4840  -31.1380 C   0  0  0  0  0  0  0  0  0  0  0  0
   -2.4240   20.2070  -31.9180 C   0  0  0  0  0  0  0  0  0  0  0  0
   -2.3440   18.9360  -32.7090 C   0  0  0  0  0  0  0  0  0  0  0  0
   -1.3500   21.1110  -31.9170 C   0  0  0  0  0  0  0  0  0  0  0  0
   -1.4240   22.2970  -31.1810 C   0  0  0  0  0  0  0  0  0  0  0  0
   -6.9540   22.4060  -31.0830 O   0  0  0  0  0  0  0  0  0  0  0  0
   -5.9400   19.7920  -33.5430 C   0  0  0  0  0  0  0  0  0  0  0  0
   -6.1430   18.4410  -33.8350 C   0  0  0  0  0  0  0  0  0  0  0  0
   -5.6772   15.0721  -32.9522 H   0  0  0  0  0  0  0  0  0  0  0  0
   -6.5808   14.6475  -34.4455 H   0  0  0  0  0  0  0  0  0  0  0  0
   -5.4518   16.0447  -34.4455 H   0  0  0  0  0  0  0  0  0  0  0  0
   -8.5723   17.7370  -31.5379 H   0  0  0  0  0  0  0  0  0  0  0  0
   -8.2136   20.1441  -31.0131 H   0  0  0  0  0  0  0  0  0  0  0  0
   -4.9710   22.4890  -33.5860 H   0  0  0  0  0  0  0  0  0  0  0  0
   -4.9050   25.4411  -28.1640 H   0  0  0  0  0  0  0  0  0  0  0  0
   -4.9416   23.6378  -28.4654 H   0  0  0  0  0  0  0  0  0  0  0  0
   -4.5251   21.8831  -29.8016 H   0  0  0  0  0  0  0  0  0  0  0  0
   -4.3879   19.7662  -31.1059 H   0  0  0  0  0  0  0  0  0  0  0  0
   -2.2901   18.0790  -32.0215 H   0  0  0  0  0  0  0  0  0  0  0  0
   -3.2380   18.8418  -33.3430 H   0  0  0  0  0  0  0  0  0  0  0  0
   -1.4452   18.9546  -33.3430 H   0  0  0  0  0  0  0  0  0  0  0  0
   -0.4445   20.8846  -32.4991 H   0  0  0  0  0  0  0  0  0  0  0  0
   -0.5833   23.0061  -31.1984 H   0  0  0  0  0  0  0  0  0  0  0  0
   -5.1986   20.3693  -34.1148 H   0  0  0  0  0  0  0  0  0  0  0  0
   -5.5587   17.9627  -34.6349 H   0  0  0  0  0  0  0  0  0  0  0  0
  1  2  1  0
  2  3  1  0
  3  4  2  0
  4  5  1  0
  5  6  2  0
  6  7  1  0
  7  8  2  0
  8  9  1  0
  9 10  2  0
 10 11  1  0
 11 12  1  0
 12 13  1  0
 13 14  2  0
 13 15  1  0
 15 16  1  0
 16 17  2  0
 17 18  1  0
 18 19  2  0
 19 20  1  0
 19 21  1  0
 21 22  2  0
 10 23  1  0
  6 24  1  0
 24 25  2  0
 25  3  1  0
 23  7  1  0
 22 16  1  0
  1 26  1  0
  1 27  1  0
  1 28  1  0
  4 29  1  0
  5 30  1  0
  8 31  1  0
 12 32  1  0
 12 33  1  0
 17 34  1  0
 18 35  1  0
 20 36  1  0
 20 37  1  0
 20 38  1  0
 21 39  1  0
 22 40  1  0
 24 41  1  0
 25 42  1  0
M  CHG  2   8   1  15  -1
M  END
>  <UniqueID>  (32) 
31

>  <SMILES>  (32) 
COc1ccc(-c2[nH+]nc(SCC(=O)[N-]c3ccc(C)cc3)o2)cc1

>  <Energy>  (32) 
77.2536551407685

>  <Genealogy>  (32) 
COc1ccc(-c2[nH+]nc(SCC(=O)[N-]c3ccc(C)cc3)o2)cc1 (protonated)
COc1ccc(-c2[nH+]nc(SCC(=O)[N-]c3ccc(C)cc3)o2)cc1 (3D coordinates assigned)
COc1ccc(-c2[nH+]nc(SCC(=O)[N-]c3ccc(C)cc3)o2)cc1 (optimized conformer: 77.2536551407685 kcal/mol)

>  <smiles>  (32) 
COc1ccc(-c2nnc(SCC(=O)Nc3ccc(C)cc3)o2)cc1

>  <score_type>  (32) 
oracle

>  <origin>  (32) 
adg

>  <m_score__min__energy>  (32) 
-10.289999999999999

>  <m_primary>  (32) 
energy

$$$$
32:0
     RDKit          3D

 37 39  0  0  0  0  0  0  0  0999 V2000
   -7.9699   21.7266  -29.1949 H   0  0  0  0  0  0  0  0  0  0  0  0
   -7.5140   22.3120  -30.0070 C   0  0  0  0  0  0  0  0  0  0  0  0
   -6.9560   23.5640  -29.7340 C   0  0  0  0  0  0  0  0  0  0  0  0
   -6.9809   23.9617  -28.7087 H   0  0  0  0  0  0  0  0  0  0  0  0
   -6.3640   24.3170  -30.7600 C   0  0  0  0  0  0  0  0  0  0  0  0
   -5.7350   25.6530  -30.4650 C   0  0  0  0  0  0  0  0  0  0  0  0
   -6.2107   26.4218  -31.0916 H   0  0  0  0  0  0  0  0  0  0  0  0
   -5.8805   25.8837  -29.3993 H   0  0  0  0  0  0  0  0  0  0  0  0
   -4.3000   25.6250  -30.7470 N   0  0  0  0  0  0  0  0  0  0  0  0
   -3.4950   24.6570  -30.4150 C   0  0  0  0  0  0  0  0  0  0  0  0
   -3.4820   23.4870  -31.1120 N   0  0  0  0  0  0  0  0  0  0  0  0
   -2.6390   22.4740  -30.7790 C   0  0  0  0  0  0  0  0  0  0  0  0
   -2.6330   21.2710  -31.5140 C   0  0  0  0  0  0  0  0  0  0  0  0
   -3.5390   21.0890  -32.7010 C   0  0  0  0  0  0  0  0  0  0  0  0
   -4.5621   20.8835  -32.3532 H   0  0  0  0  0  0  0  0  0  0  0  0
   -3.5356   22.0058  -33.3089 H   0  0  0  0  0  0  0  0  0  0  0  0
   -3.1818   20.2447  -33.3089 H   0  0  0  0  0  0  0  0  0  0  0  0
   -1.7350   20.2510  -31.1540 C   0  0  0  0  0  0  0  0  0  0  0  0
   -1.7127   19.3149  -31.7312 H   0  0  0  0  0  0  0  0  0  0  0  0
   -0.8700   20.4170  -30.0680 C   0  0  0  0  0  0  0  0  0  0  0  0
   -0.1780   19.6083  -29.7903 H   0  0  0  0  0  0  0  0  0  0  0  0
   -0.8810   21.6060  -29.3340 C   0  0  0  0  0  0  0  0  0  0  0  0
   -0.1992   21.7325  -28.4801 H   0  0  0  0  0  0  0  0  0  0  0  0
   -1.7610   22.6360  -29.6870 C   0  0  0  0  0  0  0  0  0  0  0  0
   -1.7930   23.8440  -28.9840 C   0  0  0  0  0  0  0  0  0  0  0  0
   -1.1217   24.0004  -28.1267 H   0  0  0  0  0  0  0  0  0  0  0  0
   -2.6540   24.8240  -29.3610 N   0  0  0  0  0  0  0  0  0  0  0  0
   -6.3480   23.8040  -32.0660 C   0  0  0  0  0  0  0  0  0  0  0  0
   -5.8912   24.3886  -32.8782 H   0  0  0  0  0  0  0  0  0  0  0  0
   -6.9100   22.5530  -32.3400 C   0  0  0  0  0  0  0  0  0  0  0  0
   -6.8923   22.1599  -33.3672 H   0  0  0  0  0  0  0  0  0  0  0  0
   -7.4950   21.7970  -31.3170 C   0  0  0  0  0  0  0  0  0  0  0  0
   -8.0390   20.5450  -31.6420 O   0  0  0  0  0  0  0  0  0  0  0  0
   -7.5990   19.7350  -32.7260 C   0  0  0  0  0  0  0  0  0  0  0  0
   -7.1085   18.8320  -32.3335 H   0  0  0  0  0  0  0  0  0  0  0  0
   -8.4634   19.4447  -33.3412 H   0  0  0  0  0  0  0  0  0  0  0  0
   -6.8850   20.3021  -33.3412 H   0  0  0  0  0  0  0  0  0  0  0  0
  1  2  1  0
  2  3  2  0
  3  4  1  0
  3  5  1  0
  5  6  1  0
  6  7  1  0
  6  8  1  0
  6  9  1  0
  9 10  2  0
 10 11  1  0
 11 12  2  0
 12 13  1  0
 13 14  1  0
 14 15  1  0
 14 16  1  0
 14 17  1  0
 13 18  2  0
 18 19  1  0
 18 20  1  0
 20 21  1  0
 20 22  2  0
 22 23  1  0
 22 24  1  0
 24 25  2  0
 25 26  1  0
 25 27  1  0
  5 28  2  0
 28 29  1  0
 28 30  1  0
 30 31  1  0
 30 32  2  0
 32 33  1  0
 33 34  1  0
 34 35  1  0
 34 36  1  0
 34 37  1  0
 32  2  1  0
 27 10  1  0
 24 12  1  0
M  CHG  1  27  -1
M  END
>  <UniqueID>  (33) 
32

>  <SMILES>  (33) 
COc1ccc(C/N=c2\nc3c(C)cccc3c[n-]2)cc1

>  <Energy>  (33) 
40.20888384157032

>  <Genealogy>  (33) 
COc1ccc(CN=c2nc3c(C)cccc3c[n-]2)cc1 (protonated)
COc1ccc(C/N=c2\nc3c(C)cccc3c[n-]2)cc1 (cis-trans isomerization)
COc1ccc(C/N=c2\nc3c(C)cccc3c[n-]2)cc1 (3D coordinates assigned)
COc1ccc(C/N=c2\nc3c(C)cccc3c[n-]2)cc1 (optimized conformer: 40.20888384157032 kcal/mol)

>  <smiles>  (33) 
COc1ccc(CN=c2nc3c(C)cccc3c[nH]2)cc1

>  <score_type>  (33) 
oracle

>  <origin>  (33) 
adg

>  <m_score__min__energy>  (33) 
-8.5

>  <m_primary>  (33) 
energy

$$$$
33:0
     RDKit          3D

 50 53  0  0  0  0  0  0  0  0999 V2000
   -2.0630   24.8310  -28.2600 C   0  0  0  0  0  0  0  0  0  0  0  0
   -2.8630   25.2880  -29.3450 O   0  0  0  0  0  0  0  0  0  0  0  0
   -4.0280   24.6470  -29.7970 C   0  0  0  0  0  0  0  0  0  0  0  0
   -5.2890   24.8870  -29.2270 C   0  0  0  0  0  0  0  0  0  0  0  0
   -6.4170   24.2260  -29.7120 C   0  0  0  0  0  0  0  0  0  0  0  0
   -6.3120   23.3060  -30.7670 C   0  0  0  0  0  0  0  0  0  0  0  0
   -7.4980   22.6360  -31.2200 N   0  0  0  0  0  0  0  0  0  0  0  0
   -8.4710   23.1630  -31.9830 C   0  0  0  0  0  0  0  0  0  0  0  0
   -9.4660   22.2750  -32.1450 N   0  0  0  0  0  0  0  0  0  0  0  0
   -9.0610   21.2030  -31.4360 C   0  0  0  0  0  0  0  0  0  0  0  0
   -7.8620   21.4170  -30.8550 N   0  0  0  0  0  0  0  0  0  0  0  0
   -5.0460   23.0630  -31.3550 C   0  0  0  0  0  0  0  0  0  0  0  0
   -4.8650   22.1900  -32.5790 C   0  0  0  0  0  0  0  0  0  0  0  0
   -4.3100   20.8720  -32.2060 N   0  0  0  0  0  0  0  0  0  0  0  0
   -3.3270   20.3960  -33.2100 C   0  0  0  0  0  0  0  0  0  0  0  0
   -3.1710   18.8720  -33.1670 C   0  0  0  0  0  0  0  0  0  0  0  0
   -4.4360   18.1970  -33.5350 N   0  0  0  0  0  0  0  0  0  0  0  0
   -4.4290   16.8010  -33.0550 C   0  0  0  0  0  0  0  0  0  0  0  0
   -5.5980   16.0090  -33.6630 C   0  0  0  0  0  0  0  0  0  0  0  0
   -6.8750   16.8540  -33.8150 C   0  0  0  0  0  0  0  0  0  0  0  0
   -6.8760   18.0400  -32.8520 C   0  0  0  0  0  0  0  0  0  0  0  0
   -5.6570   18.9560  -33.1280 C   0  0  1  0  0  0  0  0  0  0  0  0
   -5.3870   19.8860  -31.9250 C   0  0  0  0  0  0  0  0  0  0  0  0
   -3.9190   23.7420  -30.8570 C   0  0  0  0  0  0  0  0  0  0  0  0
   -2.5433   25.1054  -27.3092 H   0  0  0  0  0  0  0  0  0  0  0  0
   -1.9592   23.7373  -28.3161 H   0  0  0  0  0  0  0  0  0  0  0  0
   -1.0682   25.2971  -28.3161 H   0  0  0  0  0  0  0  0  0  0  0  0
   -5.3872   25.5993  -28.3946 H   0  0  0  0  0  0  0  0  0  0  0  0
   -7.4005   24.4279  -29.2626 H   0  0  0  0  0  0  0  0  0  0  0  0
   -8.4549   24.1754  -32.4128 H   0  0  0  0  0  0  0  0  0  0  0  0
  -10.3520   22.3920  -32.6850 H   0  0  0  0  0  0  0  0  0  0  0  0
   -9.6360   20.2699  -31.3425 H   0  0  0  0  0  0  0  0  0  0  0  0
   -5.8405   22.0457  -33.0665 H   0  0  0  0  0  0  0  0  0  0  0  0
   -4.1636   22.6865  -33.2657 H   0  0  0  0  0  0  0  0  0  0  0  0
   -3.6689   20.6919  -34.2128 H   0  0  0  0  0  0  0  0  0  0  0  0
   -2.3516   20.8488  -32.9786 H   0  0  0  0  0  0  0  0  0  0  0  0
   -2.3841   18.5712  -33.8743 H   0  0  0  0  0  0  0  0  0  0  0  0
   -2.9024   18.5767  -32.1420 H   0  0  0  0  0  0  0  0  0  0  0  0
   -3.4810   16.3246  -33.3452 H   0  0  0  0  0  0  0  0  0  0  0  0
   -4.5366   16.8039  -31.9603 H   0  0  0  0  0  0  0  0  0  0  0  0
   -5.2970   15.6450  -34.6564 H   0  0  0  0  0  0  0  0  0  0  0  0
   -5.8287   15.1801  -32.9776 H   0  0  0  0  0  0  0  0  0  0  0  0
   -6.9343   17.2306  -34.8468 H   0  0  0  0  0  0  0  0  0  0  0  0
   -7.7413   16.2176  -33.5816 H   0  0  0  0  0  0  0  0  0  0  0  0
   -7.8023   18.6174  -32.9880 H   0  0  0  0  0  0  0  0  0  0  0  0
   -6.8153   17.6639  -31.8201 H   0  0  0  0  0  0  0  0  0  0  0  0
   -5.9165   19.5839  -33.9931 H   0  0  0  0  0  0  0  0  0  0  0  0
   -6.3117   20.4309  -31.6843 H   0  0  0  0  0  0  0  0  0  0  0  0
   -5.0593   19.2600  -31.0820 H   0  0  0  0  0  0  0  0  0  0  0  0
   -2.9338   23.5574  -31.3100 H   0  0  0  0  0  0  0  0  0  0  0  0
  1  2  1  0
  2  3  1  0
  3  4  2  0
  4  5  1  0
  5  6  2  0
  6  7  1  0
  7  8  1  0
  8  9  2  0
  9 10  1  0
 10 11  2  0
  6 12  1  0
 12 13  1  0
 13 14  1  0
 14 15  1  0
 15 16  1  0
 16 17  1  0
 17 18  1  0
 18 19  1  0
 19 20  1  0
 20 21  1  0
 21 22  1  0
 22 23  1  0
 12 24  2  0
 24  3  1  0
 11  7  1  0
 23 14  1  0
 22 17  1  0
  1 25  1  0
  1 26  1  0
  1 27  1  0
  4 28  1  0
  5 29  1  0
  8 30  1  0
  9 31  1  0
 10 32  1  0
 13 33  1  0
 13 34  1  0
 15 35  1  0
 15 36  1  0
 16 37  1  0
 16 38  1  0
 18 39  1  0
 18 40  1  0
 19 41  1  0
 19 42  1  0
 20 43  1  0
 20 44  1  0
 21 45  1  0
 21 46  1  0
 22 47  1  6
 23 48  1  0
 23 49  1  0
 24 50  1  0
M  CHG  1   9   1
M  END
>  <UniqueID>  (34) 
33

>  <SMILES>  (34) 
COc1ccc(-n2c[nH+]cn2)c(CN2CCN3CCCC[C@H]3C2)c1

>  <Energy>  (34) 
108.60624959336941

>  <Genealogy>  (34) 
COc1ccc(-n2c[nH+]cn2)c(CN2CCN3CCCCC3C2)c1 (protonated)
COc1ccc(-n2c[nH+]cn2)c(CN2CCN3CCCC[C@H]3C2)c1 (chirality)
COc1ccc(-n2c[nH+]cn2)c(CN2CCN3CCCC[C@H]3C2)c1 (3D coordinates assigned)
COc1ccc(-n2c[nH+]cn2)c(CN2CCN3CCCC[C@H]3C2)c1 (nonaromatic ring conformer: 108.60624959336941 kcal/mol)

>  <smiles>  (34) 
COc1ccc(-n2cncn2)c(CN2CCN3CCCCC3C2)c1

>  <score_type>  (34) 
oracle

>  <origin>  (34) 
adg

>  <m_score__min__energy>  (34) 
-7.9299999999999997

>  <m_primary>  (34) 
energy

$$$$
34:0
     RDKit          3D

 44 45  0  0  0  0  0  0  0  0999 V2000
   -4.0220   24.5950  -26.7280 C   0  0  0  0  0  0  0  0  0  0  0  0
   -2.6320   24.7750  -27.3160 C   0  0  0  0  0  0  0  0  0  0  0  0
   -2.6450   24.3550  -28.6660 O   0  0  0  0  0  0  0  0  0  0  0  0
   -3.8870   23.7570  -28.9860 C   0  0  0  0  0  0  0  0  0  0  0  0
   -4.5150   24.4170  -30.1850 C   0  0  0  0  0  0  0  0  0  0  0  0
   -3.8580   25.2940  -30.8080 O   0  0  0  0  0  0  0  0  0  0  0  0
   -5.8260   24.0450  -30.6520 N   0  0  0  0  0  0  0  0  0  0  0  0
   -6.1380   24.1630  -32.0820 C   0  0  0  0  0  0  0  0  0  0  0  0
   -7.3540   23.3040  -32.4440 C   0  0  0  0  0  0  0  0  0  0  0  0
   -7.3050   22.0510  -31.6640 N   0  0  0  0  0  0  0  0  0  0  0  0
   -8.2650   21.0550  -32.1760 C   0  0  0  0  0  0  0  0  0  0  0  0
   -7.5310   19.8470  -32.7220 C   0  0  0  0  0  0  0  0  0  0  0  0
   -6.4130   20.0720  -33.5440 C   0  0  0  0  0  0  0  0  0  0  0  0
   -5.7020   19.0020  -34.0880 C   0  0  0  0  0  0  0  0  0  0  0  0
   -6.0930   17.6930  -33.8180 C   0  0  0  0  0  0  0  0  0  0  0  0
   -7.1990   17.4470  -33.0020 C   0  0  0  0  0  0  0  0  0  0  0  0
   -7.9320   18.5120  -32.4470 C   0  0  0  0  0  0  0  0  0  0  0  0
   -9.1130   18.2000  -31.5650 C   0  0  0  0  0  0  0  0  0  0  0  0
   -7.5440   22.3110  -30.2240 C   0  0  0  0  0  0  0  0  0  0  0  0
   -6.8890   23.6200  -29.7320 C   0  0  0  0  0  0  0  0  0  0  0  0
   -3.9594   24.6031  -25.6298 H   0  0  0  0  0  0  0  0  0  0  0  0
   -4.6716   25.4165  -27.0643 H   0  0  0  0  0  0  0  0  0  0  0  0
   -4.4409   23.6351  -27.0643 H   0  0  0  0  0  0  0  0  0  0  0  0
   -2.3434   25.8351  -27.2624 H   0  0  0  0  0  0  0  0  0  0  0  0
   -1.9073   24.1742  -26.7470 H   0  0  0  0  0  0  0  0  0  0  0  0
   -3.7263   22.6913  -29.2059 H   0  0  0  0  0  0  0  0  0  0  0  0
   -4.5637   23.8774  -28.1272 H   0  0  0  0  0  0  0  0  0  0  0  0
   -6.3559   25.2150  -32.3184 H   0  0  0  0  0  0  0  0  0  0  0  0
   -5.2721   23.8126  -32.6629 H   0  0  0  0  0  0  0  0  0  0  0  0
   -8.2773   23.8519  -32.2046 H   0  0  0  0  0  0  0  0  0  0  0  0
   -7.3402   23.0738  -33.5195 H   0  0  0  0  0  0  0  0  0  0  0  0
   -8.9284   20.7371  -31.3582 H   0  0  0  0  0  0  0  0  0  0  0  0
   -8.8547   21.5104  -32.9852 H   0  0  0  0  0  0  0  0  0  0  0  0
   -6.0954   21.1026  -33.7606 H   0  0  0  0  0  0  0  0  0  0  0  0
   -4.8306   19.1928  -34.7316 H   0  0  0  0  0  0  0  0  0  0  0  0
   -5.5298   16.8517  -34.2481 H   0  0  0  0  0  0  0  0  0  0  0  0
   -7.5002   16.4103  -32.7910 H   0  0  0  0  0  0  0  0  0  0  0  0
   -8.8134   18.2791  -30.5095 H   0  0  0  0  0  0  0  0  0  0  0  0
   -9.9233   18.9149  -31.7708 H   0  0  0  0  0  0  0  0  0  0  0  0
   -9.4645   17.1782  -31.7708 H   0  0  0  0  0  0  0  0  0  0  0  0
   -8.6289   22.3764  -30.0547 H   0  0  0  0  0  0  0  0  0  0  0  0
   -7.0903   21.4829  -29.6597 H   0  0  0  0  0  0  0  0  0  0  0  0
   -7.6544   24.4080  -29.6756 H   0  0  0  0  0  0  0  0  0  0  0  0
   -6.4489   23.4444  -28.7393 H   0  0  0  0  0  0  0  0  0  0  0  0
  1  2  1  0
  2  3  1  0
  3  4  1  0
  4  5  1  0
  5  6  2  0
  5  7  1  0
  7  8  1  0
  8  9  1  0
  9 10  1  0
 10 11  1  0
 11 12  1  0
 12 13  2  0
 13 14  1  0
 14 15  2  0
 15 16  1  0
 16 17  2  0
 17 18  1  0
 10 19  1  0
 19 20  1  0
 20  7  1  0
 17 12  1  0
  1 21  1  0
  1 22  1  0
  1 23  1  0
  2 24  1  0
  2 25  1  0
  4 26  1  0
  4 27  1  0
  8 28  1  0
  8 29  1  0
  9 30  1  0
  9 31  1  0
 11 32  1  0
 11 33  1  0
 13 34  1  0
 14 35  1  0
 15 36  1  0
 16 37  1  0
 18 38  1  0
 18 39  1  0
 18 40  1  0
 19 41  1  0
 19 42  1  0
 20 43  1  0
 20 44  1  0
M  END
>  <UniqueID>  (35) 
34

>  <SMILES>  (35) 
CCOCC(=O)N1CCN(Cc2ccccc2C)CC1

>  <Energy>  (35) 
48.1734574247758

>  <Genealogy>  (35) 
CCOCC(=O)N1CCN(Cc2ccccc2C)CC1 (3D coordinates assigned)
CCOCC(=O)N1CCN(Cc2ccccc2C)CC1 (nonaromatic ring conformer: 48.1734574247758 kcal/mol)

>  <smiles>  (35) 
CCOCC(=O)N1CCN(Cc2ccccc2C)CC1

>  <score_type>  (35) 
oracle

>  <origin>  (35) 
adg

>  <m_score__min__energy>  (35) 
-8.3300000000000001

>  <m_primary>  (35) 
energy

$$$$
35:0
     RDKit          3D

 62 64  0  0  0  0  0  0  0  0999 V2000
   -5.3610   25.8920  -30.4610 C   0  0  0  0  0  0  0  0  0  0  0  0
   -4.1210   25.2800  -30.8020 O   0  0  0  0  0  0  0  0  0  0  0  0
   -3.7550   23.9690  -30.4560 C   0  0  0  0  0  0  0  0  0  0  0  0
   -2.6070   23.6980  -29.6830 C   0  0  0  0  0  0  0  0  0  0  0  0
   -2.2640   22.3830  -29.3630 C   0  0  0  0  0  0  0  0  0  0  0  0
   -3.0530   21.3240  -29.8110 C   0  0  0  0  0  0  0  0  0  0  0  0
   -4.1920   21.5770  -30.5770 C   0  0  0  0  0  0  0  0  0  0  0  0
   -4.5590   22.8960  -30.8970 C   0  0  0  0  0  0  0  0  0  0  0  0
   -5.7770   23.1420  -31.7550 C   0  0  0  0  0  0  0  0  0  0  0  0
   -7.0660   22.7070  -31.0450 C   0  0  0  0  0  0  0  0  0  0  0  0
   -8.2080   22.7110  -31.9720 N   0  0  0  0  0  0  0  0  0  0  0  0
   -9.3260   21.8640  -31.5180 C   0  0  0  0  0  0  0  0  0  0  0  0
   -9.5100   20.5870  -32.3640 C   0  0  0  0  0  0  0  0  0  0  0  0
   -8.2520   19.7600  -32.4360 C   0  0  0  0  0  0  0  0  0  0  0  0
   -7.2120   20.1220  -33.3060 C   0  0  0  0  0  0  0  0  0  0  0  0
   -6.0370   19.3660  -33.3540 C   0  0  0  0  0  0  0  0  0  0  0  0
   -5.8780   18.2440  -32.5340 C   0  0  0  0  0  0  0  0  0  0  0  0
   -4.6730   17.5250  -32.6220 O   0  0  0  0  0  0  0  0  0  0  0  0
   -4.0520   17.0960  -33.8330 C   0  0  0  0  0  0  0  0  0  0  0  0
   -3.0240   18.1320  -34.3080 C   0  0  0  0  0  0  0  0  0  0  0  0
   -2.7690   19.1600  -33.2730 N   0  0  0  0  0  0  0  0  0  0  0  0
   -1.5080   18.8800  -32.5340 C   0  0  0  0  0  0  0  0  0  0  0  0
   -0.3150   19.6700  -33.0880 C   0  0  0  0  0  0  0  0  0  0  0  0
   -0.5550   21.1850  -32.9820 C   0  0  0  0  0  0  0  0  0  0  0  0
   -2.0480   21.5490  -33.0110 C   0  0  0  0  0  0  0  0  0  0  0  0
   -2.8440   20.5330  -33.8390 C   0  0  0  0  0  0  0  0  0  0  0  0
   -6.9240   17.8760  -31.6640 C   0  0  0  0  0  0  0  0  0  0  0  0
   -8.0990   18.6320  -31.6170 C   0  0  0  0  0  0  0  0  0  0  0  0
   -5.4576   25.9397  -29.3663 H   0  0  0  0  0  0  0  0  0  0  0  0
   -5.3941   26.9099  -30.8767 H   0  0  0  0  0  0  0  0  0  0  0  0
   -6.1891   25.2991  -30.8767 H   0  0  0  0  0  0  0  0  0  0  0  0
   -1.9776   24.5282  -29.3298 H   0  0  0  0  0  0  0  0  0  0  0  0
   -1.3690   22.1818  -28.7559 H   0  0  0  0  0  0  0  0  0  0  0  0
   -2.7776   20.2889  -29.5606 H   0  0  0  0  0  0  0  0  0  0  0  0
   -4.8075   20.7377  -30.9332 H   0  0  0  0  0  0  0  0  0  0  0  0
   -5.8409   24.2159  -31.9844 H   0  0  0  0  0  0  0  0  0  0  0  0
   -5.6746   22.5487  -32.6756 H   0  0  0  0  0  0  0  0  0  0  0  0
   -6.9309   21.6910  -30.6457 H   0  0  0  0  0  0  0  0  0  0  0  0
   -7.2738   23.4176  -30.2314 H   0  0  0  0  0  0  0  0  0  0  0  0
   -8.5330   23.6930  -32.1200 H   0  0  0  0  0  0  0  0  0  0  0  0
   -9.1379   21.5675  -30.4755 H   0  0  0  0  0  0  0  0  0  0  0  0
  -10.2462   22.4577  -31.6218 H   0  0  0  0  0  0  0  0  0  0  0  0
  -10.3082   19.9777  -31.9151 H   0  0  0  0  0  0  0  0  0  0  0  0
   -9.7671   20.8967  -33.3877 H   0  0  0  0  0  0  0  0  0  0  0  0
   -7.3219   21.0047  -33.9532 H   0  0  0  0  0  0  0  0  0  0  0  0
   -5.2301   19.6562  -34.0430 H   0  0  0  0  0  0  0  0  0  0  0  0
   -3.5440   16.1360  -33.6587 H   0  0  0  0  0  0  0  0  0  0  0  0
   -4.8249   16.9818  -34.6073 H   0  0  0  0  0  0  0  0  0  0  0  0
   -2.0799   17.6176  -34.5407 H   0  0  0  0  0  0  0  0  0  0  0  0
   -3.4276   18.6338  -35.1998 H   0  0  0  0  0  0  0  0  0  0  0  0
   -1.6506   19.1510  -31.4775 H   0  0  0  0  0  0  0  0  0  0  0  0
   -1.2831   17.8095  -32.6500 H   0  0  0  0  0  0  0  0  0  0  0  0
    0.5863   19.4083  -32.5143 H   0  0  0  0  0  0  0  0  0  0  0  0
   -0.1876   19.4106  -34.1494 H   0  0  0  0  0  0  0  0  0  0  0  0
   -0.1226   21.5452  -32.0368 H   0  0  0  0  0  0  0  0  0  0  0  0
   -0.0787   21.6601  -33.8523 H   0  0  0  0  0  0  0  0  0  0  0  0
   -2.4364   21.5579  -31.9819 H   0  0  0  0  0  0  0  0  0  0  0  0
   -2.1584   22.5414  -33.4725 H   0  0  0  0  0  0  0  0  0  0  0  0
   -3.8978   20.8472  -33.8662 H   0  0  0  0  0  0  0  0  0  0  0  0
   -2.4065   20.5051  -34.8479 H   0  0  0  0  0  0  0  0  0  0  0  0
   -6.8155   16.9910  -31.0198 H   0  0  0  0  0  0  0  0  0  0  0  0
   -8.9093   18.3400  -30.9328 H   0  0  0  0  0  0  0  0  0  0  0  0
  1  2  1  0
  2  3  1  0
  3  4  2  0
  4  5  1  0
  5  6  2  0
  6  7  1  0
  7  8  2  0
  8  9  1  0
  9 10  1  0
 10 11  1  0
 11 12  1  0
 12 13  1  0
 13 14  1  0
 14 15  2  0
 15 16  1  0
 16 17  2  0
 17 18  1  0
 18 19  1  0
 19 20  1  0
 20 21  1  0
 21 22  1  0
 22 23  1  0
 23 24  1  0
 24 25  1  0
 25 26  1  0
 17 27  1  0
 27 28  2  0
  8  3  1  0
 28 14  1  0
 26 21  1  0
  1 29  1  0
  1 30  1  0
  1 31  1  0
  4 32  1  0
  5 33  1  0
  6 34  1  0
  7 35  1  0
  9 36  1  0
  9 37  1  0
 10 38  1  0
 10 39  1  0
 11 40  1  0
 12 41  1  0
 12 42  1  0
 13 43  1  0
 13 44  1  0
 15 45  1  0
 16 46  1  0
 19 47  1  0
 19 48  1  0
 20 49  1  0
 20 50  1  0
 22 51  1  0
 22 52  1  0
 23 53  1  0
 23 54  1  0
 24 55  1  0
 24 56  1  0
 25 57  1  0
 25 58  1  0
 26 59  1  0
 26 60  1  0
 27 61  1  0
 28 62  1  0
M  END
>  <UniqueID>  (36) 
35

>  <SMILES>  (36) 
COc1ccccc1CCNCCc1ccc(OCCN2CCCCC2)cc1

>  <Energy>  (36) 
66.25010680150491

>  <Genealogy>  (36) 
COc1ccccc1CCNCCc1ccc(OCCN2CCCCC2)cc1 (3D coordinates assigned)
COc1ccccc1CCNCCc1ccc(OCCN2CCCCC2)cc1 (nonaromatic ring conformer: 66.25010680150491 kcal/mol)

>  <smiles>  (36) 
COc1ccccc1CCNCCc1ccc(OCCN2CCCCC2)cc1

>  <score_type>  (36) 
oracle

>  <origin>  (36) 
adg

>  <m_score__min__energy>  (36) 
-8.8100000000000005

>  <m_primary>  (36) 
energy

$$$$
36:0
     RDKit          3D

 23 25  0  0  0  0  0  0  0  0999 V2000
   -3.8670   23.4240  -31.5750 O   0  0  0  0  0  0  0  0  0  0  0  0
   -4.4290   22.3460  -31.9090 C   0  0  0  0  0  0  0  0  0  0  0  0
   -3.6790   21.3560  -32.5720 C   0  0  0  0  0  0  0  0  0  0  0  0
   -2.3150   21.5280  -32.8770 C   0  0  0  0  0  0  0  0  0  0  0  0
   -1.6100   20.5170  -33.5370 C   0  0  0  0  0  0  0  0  0  0  0  0
   -2.2540   19.3310  -33.8970 C   0  0  0  0  0  0  0  0  0  0  0  0
   -3.6050   19.1500  -33.5990 C   0  0  0  0  0  0  0  0  0  0  0  0
   -4.3220   20.1550  -32.9390 C   0  0  0  0  0  0  0  0  0  0  0  0
   -5.6050   19.9690  -32.6630 O   0  0  0  0  0  0  0  0  0  0  0  0
   -6.3530   20.8730  -32.0400 C   0  0  0  0  0  0  0  0  0  0  0  0
   -7.7010   20.5840  -31.7930 C   0  0  0  0  0  0  0  0  0  0  0  0
   -8.4590   18.9130  -32.3420 Br  0  0  0  0  0  0  0  0  0  0  0  0
   -8.5100   21.5130  -31.1420 C   0  0  0  0  0  0  0  0  0  0  0  0
   -7.9830   22.7350  -30.7320 C   0  0  0  0  0  0  0  0  0  0  0  0
   -6.6400   23.0530  -30.9650 C   0  0  0  0  0  0  0  0  0  0  0  0
   -6.0700   24.7810  -30.3380 Br  0  0  0  0  0  0  0  0  0  0  0  0
   -5.7980   22.1160  -31.6290 C   0  0  0  0  0  0  0  0  0  0  0  0
   -1.8030   22.4600  -32.5953 H   0  0  0  0  0  0  0  0  0  0  0  0
   -0.5448   20.6560  -33.7735 H   0  0  0  0  0  0  0  0  0  0  0  0
   -1.6952   18.5385  -34.4163 H   0  0  0  0  0  0  0  0  0  0  0  0
   -4.1085   18.2143  -33.8837 H   0  0  0  0  0  0  0  0  0  0  0  0
   -9.5681   21.2804  -30.9514 H   0  0  0  0  0  0  0  0  0  0  0  0
   -8.6310   23.4602  -30.2180 H   0  0  0  0  0  0  0  0  0  0  0  0
  1  2  2  0
  2  3  1  0
  3  4  2  0
  4  5  1  0
  5  6  2  0
  6  7  1  0
  7  8  2  0
  8  9  1  0
  9 10  1  0
 10 11  2  0
 11 12  1  0
 11 13  1  0
 13 14  2  0
 14 15  1  0
 15 16  1  0
 15 17  2  0
 17  2  1  0
  8  3  1  0
 17 10  1  0
  4 18  1  0
  5 19  1  0
  6 20  1  0
  7 21  1  0
 13 22  1  0
 14 23  1  0
M  END
>  <UniqueID>  (37) 
36

>  <SMILES>  (37) 
O=c1c2ccccc2oc2c(Br)ccc(Br)c12

>  <Energy>  (37) 
39.244507966840494

>  <Genealogy>  (37) 
O=c1c2ccccc2oc2c(Br)ccc(Br)c12 (3D coordinates assigned)
O=c1c2ccccc2oc2c(Br)ccc(Br)c12 (optimized conformer: 39.244507966840494 kcal/mol)

>  <smiles>  (37) 
O=c1c2ccccc2oc2c(Br)ccc(Br)c12

>  <score_type>  (37) 
oracle

>  <origin>  (37) 
adg

>  <m_score__min__energy>  (37) 
-7.8300000000000001

>  <m_primary>  (37) 
energy

$$$$
37:0
     RDKit          3D

 42 43  0  0  0  0  0  0  0  0999 V2000
   -6.4660   17.4020  -31.2190 C   0  0  0  0  0  0  0  0  0  0  0  0
   -7.0290   18.5840  -31.9400 C   0  0  0  0  0  0  0  0  0  0  0  0
   -8.3510   18.9740  -31.9600 C   0  0  0  0  0  0  0  0  0  0  0  0
   -8.4080   20.0620  -32.8080 C   0  0  0  0  0  0  0  0  0  0  0  0
   -7.2120   20.3190  -33.2860 O   0  0  0  0  0  0  0  0  0  0  0  0
   -6.3610   19.4500  -32.7910 C   0  0  0  0  0  0  0  0  0  0  0  0
   -4.9070   19.4200  -33.1510 C   0  0  0  0  0  0  0  0  0  0  0  0
   -4.5000   20.6860  -33.7780 N   0  0  0  0  0  0  0  0  0  0  0  0
   -3.8560   21.6150  -32.8300 C   0  0  0  0  0  0  0  0  0  0  0  0
   -4.7850   21.9340  -31.6410 C   0  0  0  0  0  0  0  0  0  0  0  0
   -5.9090   22.8810  -32.0800 C   0  0  0  0  0  0  0  0  0  0  0  0
   -6.8420   23.2180  -30.9100 C   0  0  0  0  0  0  0  0  0  0  0  0
   -6.1210   23.6670  -29.7010 N   0  0  0  0  0  0  0  0  0  0  0  0
   -6.0980   25.1180  -29.4210 C   0  0  0  0  0  0  0  0  0  0  0  0
   -5.3750   25.9580  -30.4840 C   0  0  0  0  0  0  0  0  0  0  0  0
   -4.0450   25.5440  -30.6380 O   0  0  0  0  0  0  0  0  0  0  0  0
   -4.9430   22.8750  -29.3010 C   0  0  0  0  0  0  0  0  0  0  0  0
   -4.0070   22.5700  -30.4780 C   0  0  0  0  0  0  0  0  0  0  0  0
   -6.5430   17.5637  -30.1337 H   0  0  0  0  0  0  0  0  0  0  0  0
   -7.0312   16.5000  -31.4963 H   0  0  0  0  0  0  0  0  0  0  0  0
   -5.4095   17.2724  -31.4963 H   0  0  0  0  0  0  0  0  0  0  0  0
   -9.1873   18.5137  -31.4135 H   0  0  0  0  0  0  0  0  0  0  0  0
   -9.3195   20.6292  -33.0476 H   0  0  0  0  0  0  0  0  0  0  0  0
   -4.3126   19.2613  -32.2392 H   0  0  0  0  0  0  0  0  0  0  0  0
   -4.7367   18.6011  -33.8654 H   0  0  0  0  0  0  0  0  0  0  0  0
   -5.3720   21.1460  -34.1320 H   0  0  0  0  0  0  0  0  0  0  0  0
   -2.9318   21.1555  -32.4496 H   0  0  0  0  0  0  0  0  0  0  0  0
   -3.6342   22.5534  -33.3593 H   0  0  0  0  0  0  0  0  0  0  0  0
   -5.2181   20.9840  -31.2947 H   0  0  0  0  0  0  0  0  0  0  0  0
   -5.4646   23.8113  -32.4634 H   0  0  0  0  0  0  0  0  0  0  0  0
   -6.4991   22.3807  -32.8620 H   0  0  0  0  0  0  0  0  0  0  0  0
   -7.5253   24.0195  -31.2274 H   0  0  0  0  0  0  0  0  0  0  0  0
   -7.3808   22.2961  -30.6457 H   0  0  0  0  0  0  0  0  0  0  0  0
   -7.1373   25.4715  -29.3516 H   0  0  0  0  0  0  0  0  0  0  0  0
   -5.5373   25.2479  -28.4836 H   0  0  0  0  0  0  0  0  0  0  0  0
   -5.8986   25.8484  -31.4452 H   0  0  0  0  0  0  0  0  0  0  0  0
   -5.3775   27.0088  -30.1588 H   0  0  0  0  0  0  0  0  0  0  0  0
   -3.8220   25.6480  -31.6000 H   0  0  0  0  0  0  0  0  0  0  0  0
   -4.3813   23.4387  -28.5416 H   0  0  0  0  0  0  0  0  0  0  0  0
   -5.3066   21.9141  -28.9080 H   0  0  0  0  0  0  0  0  0  0  0  0
   -3.5438   23.5062  -30.8228 H   0  0  0  0  0  0  0  0  0  0  0  0
   -3.2345   21.8630  -30.1412 H   0  0  0  0  0  0  0  0  0  0  0  0
  1  2  1  0
  2  3  1  0
  3  4  2  0
  4  5  1  0
  5  6  1  0
  6  7  1  0
  7  8  1  0
  8  9  1  0
  9 10  1  0
 10 11  1  0
 11 12  1  0
 12 13  1  0
 13 14  1  0
 14 15  1  0
 15 16  1  0
 13 17  1  0
 17 18  1  0
  6  2  2  0
 18 10  1  0
  1 19  1  0
  1 20  1  0
  1 21  1  0
  3 22  1  0
  4 23  1  0
  7 24  1  0
  7 25  1  0
  8 26  1  0
  9 27  1  0
  9 28  1  0
 10 29  1  0
 11 30  1  0
 11 31  1  0
 12 32  1  0
 12 33  1  0
 14 34  1  0
 14 35  1  0
 15 36  1  0
 15 37  1  0
 16 38  1  0
 17 39  1  0
 17 40  1  0
 18 41  1  0
 18 42  1  0
M  END
>  <UniqueID>  (38) 
37

>  <SMILES>  (38) 
Cc1ccoc1CNCC1CCN(CCO)CC1

>  <Energy>  (38) 
70.18765472991372

>  <Genealogy>  (38) 
Cc1ccoc1CNCC1CCN(CCO)CC1 (3D coordinates assigned)
Cc1ccoc1CNCC1CCN(CCO)CC1 (nonaromatic ring conformer: 70.18765472991372 kcal/mol)

>  <smiles>  (38) 
Cc1ccoc1CNCC1CCN(CCO)CC1

>  <score_type>  (38) 
oracle

>  <origin>  (38) 
adg

>  <m_score__min__energy>  (38) 
-7.4500000000000002

>  <m_primary>  (38) 
energy

$$$$
38:0
     RDKit          3D

 47 49  0  0  0  0  0  0  0  0999 V2000
   -1.3360   20.0700  -26.3680 C   0  0  0  0  0  0  0  0  0  0  0  0
   -1.1640   21.4130  -26.8080 O   0  0  0  0  0  0  0  0  0  0  0  0
   -2.0710   22.1000  -27.6260 C   0  0  0  0  0  0  0  0  0  0  0  0
   -3.4250   21.7250  -27.7350 C   0  0  0  0  0  0  0  0  0  0  0  0
   -4.2900   22.4440  -28.5680 C   0  0  0  0  0  0  0  0  0  0  0  0
   -3.8180   23.5440  -29.2950 C   0  0  0  0  0  0  0  0  0  0  0  0
   -4.9130   24.4230  -30.3600 S   0  0  0  0  0  0  0  0  0  0  0  0
   -6.1340   24.8170  -29.5780 O   0  0  0  0  0  0  0  0  0  0  0  0
   -4.2430   25.6730  -30.8630 O   0  0  0  0  0  0  0  0  0  0  0  0
   -5.3790   23.4150  -31.7090 N   0  0  0  0  0  0  0  0  0  0  0  0
   -6.6290   22.6970  -31.3840 C   0  0  0  0  0  0  0  0  0  0  0  0
   -6.9090   21.5730  -32.3850 C   0  0  0  0  0  0  0  0  0  0  0  0
   -5.7720   20.6490  -32.4490 N   0  0  0  0  0  0  0  0  0  0  0  0
   -5.9300   19.3540  -33.0620 C   0  0  0  0  0  0  0  0  0  0  0  0
   -5.1340   19.0070  -34.1670 C   0  0  0  0  0  0  0  0  0  0  0  0
   -5.2630   17.7550  -34.7690 C   0  0  0  0  0  0  0  0  0  0  0  0
   -6.1900   16.8370  -34.2780 C   0  0  0  0  0  0  0  0  0  0  0  0
   -6.9950   17.1680  -33.1870 C   0  0  0  0  0  0  0  0  0  0  0  0
   -6.8800   18.4320  -32.5720 C   0  0  0  0  0  0  0  0  0  0  0  0
   -7.6980   18.8040  -31.4930 O   0  0  0  0  0  0  0  0  0  0  0  0
   -9.0940   19.0670  -31.5900 C   0  0  0  0  0  0  0  0  0  0  0  0
   -4.4860   21.0550  -31.8710 C   0  0  0  0  0  0  0  0  0  0  0  0
   -4.2510   22.5470  -32.1360 C   0  0  0  0  0  0  0  0  0  0  0  0
   -2.4720   23.9140  -29.1920 C   0  0  0  0  0  0  0  0  0  0  0  0
   -1.6060   23.1970  -28.3620 C   0  0  0  0  0  0  0  0  0  0  0  0
   -1.3396   20.0420  -25.2684 H   0  0  0  0  0  0  0  0  0  0  0  0
   -2.2915   19.6792  -26.7478 H   0  0  0  0  0  0  0  0  0  0  0  0
   -0.5098   19.4510  -26.7478 H   0  0  0  0  0  0  0  0  0  0  0  0
   -3.8033   20.8645  -27.1636 H   0  0  0  0  0  0  0  0  0  0  0  0
   -5.3449   22.1438  -28.6520 H   0  0  0  0  0  0  0  0  0  0  0  0
   -6.5406   22.2642  -30.3766 H   0  0  0  0  0  0  0  0  0  0  0  0
   -7.4609   23.4152  -31.4311 H   0  0  0  0  0  0  0  0  0  0  0  0
   -7.8066   21.0215  -32.0686 H   0  0  0  0  0  0  0  0  0  0  0  0
   -7.0667   22.0135  -33.3805 H   0  0  0  0  0  0  0  0  0  0  0  0
   -4.4030   19.7286  -34.5606 H   0  0  0  0  0  0  0  0  0  0  0  0
   -4.6329   17.4922  -35.6315 H   0  0  0  0  0  0  0  0  0  0  0  0
   -6.2873   15.8490  -34.7517 H   0  0  0  0  0  0  0  0  0  0  0  0
   -7.7238   16.4384  -32.8043 H   0  0  0  0  0  0  0  0  0  0  0  0
   -9.5229   19.1478  -30.5803 H   0  0  0  0  0  0  0  0  0  0  0  0
   -9.2525   20.0108  -32.1323 H   0  0  0  0  0  0  0  0  0  0  0  0
   -9.5851   18.2456  -32.1323 H   0  0  0  0  0  0  0  0  0  0  0  0
   -4.4986   20.8734  -30.7862 H   0  0  0  0  0  0  0  0  0  0  0  0
   -3.6770   20.4701  -32.3329 H   0  0  0  0  0  0  0  0  0  0  0  0
   -3.3477   22.8584  -31.5909 H   0  0  0  0  0  0  0  0  0  0  0  0
   -4.1472   22.6675  -33.2244 H   0  0  0  0  0  0  0  0  0  0  0  0
   -2.0944   24.7726  -29.7667 H   0  0  0  0  0  0  0  0  0  0  0  0
   -0.5504   23.4968  -28.2861 H   0  0  0  0  0  0  0  0  0  0  0  0
  1  2  1  0
  2  3  1  0
  3  4  2  0
  4  5  1  0
  5  6  2  0
  6  7  1  0
  7  8  2  0
  7  9  2  0
  7 10  1  0
 10 11  1  0
 11 12  1  0
 12 13  1  0
 13 14  1  0
 14 15  2  0
 15 16  1  0
 16 17  2  0
 17 18  1  0
 18 19  2  0
 19 20  1  0
 20 21  1  0
 13 22  1  0
 22 23  1  0
  6 24  1  0
 24 25  2  0
 25  3  1  0
 23 10  1  0
 19 14  1  0
  1 26  1  0
  1 27  1  0
  1 28  1  0
  4 29  1  0
  5 30  1  0
 11 31  1  0
 11 32  1  0
 12 33  1  0
 12 34  1  0
 15 35  1  0
 16 36  1  0
 17 37  1  0
 18 38  1  0
 21 39  1  0
 21 40  1  0
 21 41  1  0
 22 42  1  0
 22 43  1  0
 23 44  1  0
 23 45  1  0
 24 46  1  0
 25 47  1  0
M  END
>  <UniqueID>  (39) 
38

>  <SMILES>  (39) 
COc1ccc(S(=O)(=O)N2CCN(c3ccccc3OC)CC2)cc1

>  <Energy>  (39) 
56.749781416093384

>  <Genealogy>  (39) 
COc1ccc(S(=O)(=O)N2CCN(c3ccccc3OC)CC2)cc1 (3D coordinates assigned)
COc1ccc(S(=O)(=O)N2CCN(c3ccccc3OC)CC2)cc1 (nonaromatic ring conformer: 56.749781416093384 kcal/mol)

>  <smiles>  (39) 
COc1ccc(S(=O)(=O)N2CCN(c3ccccc3OC)CC2)cc1

>  <score_type>  (39) 
oracle

>  <origin>  (39) 
adg

>  <m_score__min__energy>  (39) 
-8.3100000000000005

>  <m_primary>  (39) 
energy

$$$$
39:0
     RDKit          3D

 34 35  0  0  0  0  0  0  0  0999 V2000
   -3.9860   21.4280  -33.4270 C   0  0  0  0  0  0  0  0  0  0  0  0
   -5.0510   22.0340  -32.5720 C   0  0  0  0  0  0  0  0  0  0  0  0
   -4.9040   23.1640  -31.8430 N   0  0  0  0  0  0  0  0  0  0  0  0
   -6.0110   23.3760  -31.1390 N   0  0  0  0  0  0  0  0  0  0  0  0
   -6.1690   24.4660  -30.1750 C   0  0  0  0  0  0  0  0  0  0  0  0
   -5.3090   25.6630  -30.5710 C   0  0  0  0  0  0  0  0  0  0  0  0
   -3.9000   25.2880  -30.5780 N   0  0  0  0  0  0  0  0  0  0  0  0
   -3.3130   24.2800  -29.7460 C   0  0  0  0  0  0  0  0  0  0  0  0
   -2.7460   23.2980  -30.2930 O   0  0  0  0  0  0  0  0  0  0  0  0
   -3.3150   24.3790  -28.2440 C   0  0  0  0  0  0  0  0  0  0  0  0
   -2.0280   25.0250  -27.7270 C   0  0  0  0  0  0  0  0  0  0  0  0
   -1.0340   24.0720  -27.5980 F   0  0  0  0  0  0  0  0  0  0  0  0
   -1.6000   26.0130  -28.5960 F   0  0  0  0  0  0  0  0  0  0  0  0
   -2.2660   25.5920  -26.4890 F   0  0  0  0  0  0  0  0  0  0  0  0
   -6.8690   22.3650  -31.3930 C   0  0  0  0  0  0  0  0  0  0  0  0
   -8.1350   22.1250  -30.8550 C   0  0  0  0  0  0  0  0  0  0  0  0
   -8.8130   20.9630  -31.2720 C   0  0  0  0  0  0  0  0  0  0  0  0
   -8.2170   20.0750  -32.1970 C   0  0  0  0  0  0  0  0  0  0  0  0
   -6.9370   20.3400  -32.7160 C   0  0  0  0  0  0  0  0  0  0  0  0
   -6.2940   21.5010  -32.2910 C   0  0  0  0  0  0  0  0  0  0  0  0
   -3.2089   20.9858  -32.7863 H   0  0  0  0  0  0  0  0  0  0  0  0
   -4.4267   20.6454  -34.0621 H   0  0  0  0  0  0  0  0  0  0  0  0
   -3.5384   22.2067  -34.0621 H   0  0  0  0  0  0  0  0  0  0  0  0
   -4.0510   23.7670  -31.8070 H   0  0  0  0  0  0  0  0  0  0  0  0
   -7.2249   24.7732  -30.1467 H   0  0  0  0  0  0  0  0  0  0  0  0
   -5.8487   24.1119  -29.1840 H   0  0  0  0  0  0  0  0  0  0  0  0
   -5.5998   26.0032  -31.5758 H   0  0  0  0  0  0  0  0  0  0  0  0
   -5.4621   26.4728  -29.8424 H   0  0  0  0  0  0  0  0  0  0  0  0
   -4.1741   24.9881  -27.9263 H   0  0  0  0  0  0  0  0  0  0  0  0
   -3.3836   23.3624  -27.8295 H   0  0  0  0  0  0  0  0  0  0  0  0
   -8.5869   22.8190  -30.1310 H   0  0  0  0  0  0  0  0  0  0  0  0
   -9.8151   20.7444  -30.8745 H   0  0  0  0  0  0  0  0  0  0  0  0
   -8.7581   19.1709  -32.5128 H   0  0  0  0  0  0  0  0  0  0  0  0
   -6.4601   19.6548  -33.4323 H   0  0  0  0  0  0  0  0  0  0  0  0
  1  2  1  0
  2  3  2  0
  3  4  1  0
  4  5  1  0
  5  6  1  0
  6  7  1  0
  7  8  1  0
  8  9  2  0
  8 10  1  0
 10 11  1  0
 11 12  1  0
 11 13  1  0
 11 14  1  0
  4 15  1  0
 15 16  2  0
 16 17  1  0
 17 18  2  0
 18 19  1  0
 19 20  2  0
 20  2  1  0
 20 15  1  0
  1 21  1  0
  1 22  1  0
  1 23  1  0
  3 24  1  0
  5 25  1  0
  5 26  1  0
  6 27  1  0
  6 28  1  0
 10 29  1  0
 10 30  1  0
 16 31  1  0
 17 32  1  0
 18 33  1  0
 19 34  1  0
M  CHG  2   3   1   7  -1
M  END
>  <UniqueID>  (40) 
39

>  <SMILES>  (40) 
Cc1[nH+]n(CC[N-]C(=O)CC(F)(F)F)c2ccccc12

>  <Energy>  (40) 
64.07756420476831

>  <Genealogy>  (40) 
Cc1[nH+]n(CC[N-]C(=O)CC(F)(F)F)c2ccccc12 (protonated)
Cc1[nH+]n(CC[N-]C(=O)CC(F)(F)F)c2ccccc12 (3D coordinates assigned)
Cc1[nH+]n(CC[N-]C(=O)CC(F)(F)F)c2ccccc12 (optimized conformer: 64.07756420476831 kcal/mol)

>  <smiles>  (40) 
Cc1nn(CCNC(=O)CC(F)(F)F)c2ccccc12

>  <score_type>  (40) 
oracle

>  <origin>  (40) 
adg

>  <m_score__min__energy>  (40) 
-7.79

>  <m_primary>  (40) 
energy

$$$$
40:0
     RDKit          3D

 33 35  0  0  0  0  0  0  0  0999 V2000
    2.0490   18.7980  -32.8160 C   0  0  0  0  0  0  0  0  0  0  0  0
    1.5950   20.1480  -32.8360 O   0  0  0  0  0  0  0  0  0  0  0  0
    0.2680   20.5430  -32.6030 C   0  0  0  0  0  0  0  0  0  0  0  0
   -0.3570   20.3650  -31.3530 C   0  0  0  0  0  0  0  0  0  0  0  0
   -1.6790   20.7740  -31.1590 C   0  0  0  0  0  0  0  0  0  0  0  0
   -2.3950   21.3770  -32.2040 C   0  0  0  0  0  0  0  0  0  0  0  0
   -3.7640   21.7790  -32.0150 N   0  0  0  0  0  0  0  0  0  0  0  0
   -4.8240   21.1210  -32.5240 C   0  0  0  0  0  0  0  0  0  0  0  0
   -5.9940   21.7050  -32.0950 C   0  0  0  0  0  0  0  0  0  0  0  0
   -5.6370   22.7730  -31.2890 C   0  0  0  0  0  0  0  0  0  0  0  0
   -4.2420   22.7990  -31.2590 C   0  0  0  0  0  0  0  0  0  0  0  0
   -3.3870   23.8330  -30.6250 C   0  0  0  0  0  0  0  0  0  0  0  0
   -2.2340   23.5220  -30.2280 O   0  0  0  0  0  0  0  0  0  0  0  0
   -3.8230   25.1820  -30.4460 N   0  0  0  0  0  0  0  0  0  0  0  0
   -5.1210   25.6960  -30.8540 C   0  0  0  0  0  0  0  0  0  0  0  0
   -6.2300   25.0130  -30.0590 C   0  0  0  0  0  0  0  0  0  0  0  0
   -6.6100   23.6820  -30.6410 C   0  0  0  0  0  0  0  0  0  0  0  0
   -7.8230   23.3390  -30.5970 O   0  0  0  0  0  0  0  0  0  0  0  0
   -1.7800   21.5410  -33.4540 C   0  0  0  0  0  0  0  0  0  0  0  0
   -0.4560   21.1330  -33.6510 C   0  0  0  0  0  0  0  0  0  0  0  0
    0.2870   21.3660  -35.2260 Cl  0  0  0  0  0  0  0  0  0  0  0  0
    2.1612   18.4643  -31.7739 H   0  0  0  0  0  0  0  0  0  0  0  0
    1.3169   18.1573  -33.3293 H   0  0  0  0  0  0  0  0  0  0  0  0
    3.0195   18.7299  -33.3293 H   0  0  0  0  0  0  0  0  0  0  0  0
    0.1990   19.9013  -30.5248 H   0  0  0  0  0  0  0  0  0  0  0  0
   -2.1608   20.6224  -30.1818 H   0  0  0  0  0  0  0  0  0  0  0  0
   -4.7630   20.2446  -33.1860 H   0  0  0  0  0  0  0  0  0  0  0  0
   -7.0164   21.3849  -32.3444 H   0  0  0  0  0  0  0  0  0  0  0  0
   -5.1568   26.7800  -30.6707 H   0  0  0  0  0  0  0  0  0  0  0  0
   -5.2682   25.4920  -31.9248 H   0  0  0  0  0  0  0  0  0  0  0  0
   -5.8834   24.8617  -29.0261 H   0  0  0  0  0  0  0  0  0  0  0  0
   -7.1177   25.6616  -30.0932 H   0  0  0  0  0  0  0  0  0  0  0  0
   -2.3420   21.9931  -34.2845 H   0  0  0  0  0  0  0  0  0  0  0  0
  1  2  1  0
  2  3  1  0
  3  4  2  0
  4  5  1  0
  5  6  2  0
  6  7  1  0
  7  8  1  0
  8  9  2  0
  9 10  1  0
 10 11  2  0
 11 12  1  0
 12 13  2  0
 12 14  1  0
 14 15  1  0
 15 16  1  0
 16 17  1  0
 17 18  2  0
  6 19  1  0
 19 20  2  0
 20 21  1  0
 20  3  1  0
 11  7  1  0
 17 10  1  0
  1 22  1  0
  1 23  1  0
  1 24  1  0
  4 25  1  0
  5 26  1  0
  8 27  1  0
  9 28  1  0
 15 29  1  0
 15 30  1  0
 16 31  1  0
 16 32  1  0
 19 33  1  0
M  CHG  1  14  -1
M  END
>  <UniqueID>  (41) 
40

>  <SMILES>  (41) 
COc1ccc(-n2ccc3c2C(=O)[N-]CCC3=O)cc1Cl

>  <Energy>  (41) 
70.14669519694628

>  <Genealogy>  (41) 
COc1ccc(-n2ccc3c2C(=O)[N-]CCC3=O)cc1Cl (protonated)
COc1ccc(-n2ccc3c2C(=O)[N-]CCC3=O)cc1Cl (3D coordinates assigned)
COc1ccc(-n2ccc3c2C(=O)[N-]CCC3=O)cc1Cl (nonaromatic ring conformer: 70.14669519694628 kcal/mol)

>  <smiles>  (41) 
COc1ccc(-n2ccc3c2C(=O)NCCC3=O)cc1Cl

>  <score_type>  (41) 
oracle

>  <origin>  (41) 
adg

>  <m_score__min__energy>  (41) 
-6.75

>  <m_primary>  (41) 
energy

$$$$
41:0
     RDKit          3D

 33 34  0  0  0  0  0  0  0  0999 V2000
   -2.8220   22.1150  -31.4240 C   0  0  0  0  0  0  0  0  0  0  0  0
   -3.8850   23.0280  -31.6750 O   0  0  0  0  0  0  0  0  0  0  0  0
   -5.2460   22.6810  -31.6910 C   0  0  0  0  0  0  0  0  0  0  0  0
   -5.7230   21.5760  -32.4220 C   0  0  0  0  0  0  0  0  0  0  0  0
   -7.0840   21.2600  -32.4210 C   0  0  0  0  0  0  0  0  0  0  0  0
   -7.9930   22.0470  -31.7040 C   0  0  0  0  0  0  0  0  0  0  0  0
   -9.4470   21.6850  -31.6750 C   0  0  0  0  0  0  0  0  0  0  0  0
   -7.5210   23.1390  -30.9590 C   0  0  0  0  0  0  0  0  0  0  0  0
   -6.1560   23.4610  -30.9510 C   0  0  0  0  0  0  0  0  0  0  0  0
   -5.5810   24.8430  -30.0170 S   0  0  0  0  0  0  0  0  0  0  0  0
   -4.6210   25.6350  -30.8620 O   0  0  0  0  0  0  0  0  0  0  0  0
   -6.7390   25.7130  -29.6160 O   0  0  0  0  0  0  0  0  0  0  0  0
   -4.7810   24.2560  -28.5900 N   0  0  0  0  0  0  0  0  0  0  0  0
   -3.4940   24.1610  -28.4020 C   0  0  0  0  0  0  0  0  0  0  0  0
   -2.9310   23.2330  -27.5010 C   0  0  0  0  0  0  0  0  0  0  0  0
   -1.5450   23.1800  -27.3440 C   0  0  0  0  0  0  0  0  0  0  0  0
   -0.7290   24.0420  -28.0760 C   0  0  0  0  0  0  0  0  0  0  0  0
    0.6180   23.9980  -27.9300 F   0  0  0  0  0  0  0  0  0  0  0  0
   -1.3140   24.9480  -28.9610 C   0  0  0  0  0  0  0  0  0  0  0  0
   -2.6670   24.9890  -29.1050 N   0  0  0  0  0  0  0  0  0  0  0  0
   -2.6869   21.9990  -30.3385 H   0  0  0  0  0  0  0  0  0  0  0  0
   -3.0640   21.1389  -31.8698 H   0  0  0  0  0  0  0  0  0  0  0  0
   -1.8937   22.5016  -31.8698 H   0  0  0  0  0  0  0  0  0  0  0  0
   -5.0191   20.9572  -32.9979 H   0  0  0  0  0  0  0  0  0  0  0  0
   -7.4433   20.3878  -32.9869 H   0  0  0  0  0  0  0  0  0  0  0  0
   -9.7833   21.6013  -30.6310 H   0  0  0  0  0  0  0  0  0  0  0  0
  -10.0295   22.4655  -32.1864 H   0  0  0  0  0  0  0  0  0  0  0  0
   -9.5955   20.7225  -32.1864 H   0  0  0  0  0  0  0  0  0  0  0  0
   -8.2280   23.7477  -30.3762 H   0  0  0  0  0  0  0  0  0  0  0  0
   -3.5797   22.5558  -26.9261 H   0  0  0  0  0  0  0  0  0  0  0  0
   -1.0971   22.4594  -26.6439 H   0  0  0  0  0  0  0  0  0  0  0  0
   -0.6797   25.6316  -29.5445 H   0  0  0  0  0  0  0  0  0  0  0  0
   -3.0740   25.6800  -29.7750 H   0  0  0  0  0  0  0  0  0  0  0  0
  1  2  1  0
  2  3  1  0
  3  4  2  0
  4  5  1  0
  5  6  2  0
  6  7  1  0
  6  8  1  0
  8  9  2  0
  9 10  1  0
 10 11  2  0
 10 12  2  0
 10 13  1  0
 13 14  2  3
 14 15  1  0
 15 16  2  0
 16 17  1  0
 17 18  1  0
 17 19  2  0
 19 20  1  0
  9  3  1  0
 20 14  1  0
  1 21  1  0
  1 22  1  0
  1 23  1  0
  4 24  1  0
  5 25  1  0
  7 26  1  0
  7 27  1  0
  7 28  1  0
  8 29  1  0
 15 30  1  0
 16 31  1  0
 19 32  1  0
 20 33  1  0
M  END
>  <UniqueID>  (42) 
41

>  <SMILES>  (42) 
COc1ccc(C)cc1S(=O)(=O)N=c1ccc(F)c[nH]1

>  <Energy>  (42) 
39.157248323217516

>  <Genealogy>  (42) 
COc1ccc(C)cc1S(=O)(=O)N=c1ccc(F)c[nH]1 (3D coordinates assigned)
COc1ccc(C)cc1S(=O)(=O)N=c1ccc(F)c[nH]1 (optimized conformer: 39.157248323217516 kcal/mol)

>  <smiles>  (42) 
COc1ccc(C)cc1S(=O)(=O)N=c1ccc(F)c[nH]1

>  <score_type>  (42) 
oracle

>  <origin>  (42) 
adg

>  <m_score__min__energy>  (42) 
-7.7999999999999998

>  <m_primary>  (42) 
energy

$$$$
42:0
     RDKit          3D

 19 19  0  0  0  0  0  0  0  0999 V2000
   -3.5520   23.8890  -30.3650 C   0  0  0  0  0  0  0  0  0  0  0  0
   -3.8720   25.2940  -30.6320 N   0  0  0  0  0  0  0  0  0  0  0  0
   -5.3180   25.5520  -30.5370 C   0  0  0  0  0  0  0  0  0  0  0  0
   -6.1380   24.3150  -30.8170 C   0  0  0  0  0  0  0  0  0  0  0  0
   -6.2400   23.8010  -32.1190 C   0  0  0  0  0  0  0  0  0  0  0  0
   -7.0180   22.6680  -32.3630 C   0  0  0  0  0  0  0  0  0  0  0  0
   -7.6920   22.0610  -31.3020 C   0  0  0  0  0  0  0  0  0  0  0  0
   -7.5900   22.5720  -30.0480 N   0  0  0  0  0  0  0  0  0  0  0  0
   -6.8370   23.6740  -29.7840 C   0  0  0  0  0  0  0  0  0  0  0  0
   -3.5139   23.7217  -29.2785 H   0  0  0  0  0  0  0  0  0  0  0  0
   -4.3267   23.2459  -30.8081 H   0  0  0  0  0  0  0  0  0  0  0  0
   -2.5752   23.6448  -30.8081 H   0  0  0  0  0  0  0  0  0  0  0  0
   -3.5360   25.5370  -31.5940 H   0  0  0  0  0  0  0  0  0  0  0  0
   -5.5484   25.9074  -29.5218 H   0  0  0  0  0  0  0  0  0  0  0  0
   -5.5767   26.3070  -31.2940 H   0  0  0  0  0  0  0  0  0  0  0  0
   -5.7069   24.2909  -32.9471 H   0  0  0  0  0  0  0  0  0  0  0  0
   -7.0991   22.2579  -33.3805 H   0  0  0  0  0  0  0  0  0  0  0  0
   -8.3070   21.1669  -31.4820 H   0  0  0  0  0  0  0  0  0  0  0  0
   -6.7763   24.0634  -28.7570 H   0  0  0  0  0  0  0  0  0  0  0  0
  1  2  1  0
  2  3  1  0
  3  4  1  0
  4  5  2  0
  5  6  1  0
  6  7  2  0
  7  8  1  0
  8  9  2  0
  9  4  1  0
  1 10  1  0
  1 11  1  0
  1 12  1  0
  2 13  1  0
  3 14  1  0
  3 15  1  0
  5 16  1  0
  6 17  1  0
  7 18  1  0
  9 19  1  0
M  END
>  <UniqueID>  (43) 
42

>  <SMILES>  (43) 
CNCc1cccnc1

>  <Energy>  (43) 
17.15401452002255

>  <Genealogy>  (43) 
CNCc1cccnc1 (3D coordinates assigned)
CNCc1cccnc1 (optimized conformer: 17.15401452002255 kcal/mol)

>  <smiles>  (43) 
CNCc1cccnc1

>  <score_type>  (43) 
oracle

>  <origin>  (43) 
adg

>  <m_score__min__energy>  (43) 
-4.6799999999999997

>  <m_primary>  (43) 
energy

$$$$
43:0
     RDKit          3D

 33 35  0  0  0  0  0  0  0  0999 V2000
   -3.2360   25.2900  -29.7280 F   0  0  0  0  0  0  0  0  0  0  0  0
   -4.2940   24.5390  -30.1230 C   0  0  0  0  0  0  0  0  0  0  0  0
   -5.5750   25.0940  -30.1230 C   0  0  0  0  0  0  0  0  0  0  0  0
   -6.6740   24.3320  -30.5280 C   0  0  0  0  0  0  0  0  0  0  0  0
   -6.5020   22.9960  -30.9380 C   0  0  0  0  0  0  0  0  0  0  0  0
   -7.6580   22.1770  -31.3710 C   0  0  0  0  0  0  0  0  0  0  0  0
   -7.6620   20.8250  -31.3460 N   0  0  0  0  0  0  0  0  0  0  0  0
   -8.8360   20.3050  -31.7980 C   0  0  0  0  0  0  0  0  0  0  0  0
   -9.0540   18.8260  -31.8970 C   0  0  0  0  0  0  0  0  0  0  0  0
   -7.7960   18.0930  -31.6820 N   0  0  0  0  0  0  0  0  0  0  0  0
   -7.0940   17.7730  -32.9360 C   0  0  0  0  0  0  0  0  0  0  0  0
   -5.7960   18.5170  -33.0670 C   0  0  0  0  0  0  0  0  0  0  0  0
   -4.9750   18.5210  -34.1760 C   0  0  0  0  0  0  0  0  0  0  0  0
   -3.9000   19.3140  -33.8350 C   0  0  0  0  0  0  0  0  0  0  0  0
   -4.1310   19.7410  -32.5440 C   0  0  0  0  0  0  0  0  0  0  0  0
   -5.2700   19.2480  -32.1120 O   0  0  0  0  0  0  0  0  0  0  0  0
   -9.7840   21.2400  -32.1990 C   0  0  0  0  0  0  0  0  0  0  0  0
   -9.1210   22.7660  -31.9650 S   0  0  0  0  0  0  0  0  0  0  0  0
   -5.2080   22.4460  -30.9340 C   0  0  0  0  0  0  0  0  0  0  0  0
   -4.1090   23.2120  -30.5290 C   0  0  0  0  0  0  0  0  0  0  0  0
   -2.5040   22.5020  -30.5330 Cl  0  0  0  0  0  0  0  0  0  0  0  0
   -5.7199   26.1363  -29.8026 H   0  0  0  0  0  0  0  0  0  0  0  0
   -7.6793   24.7784  -30.5265 H   0  0  0  0  0  0  0  0  0  0  0  0
   -9.7848   18.5181  -31.1347 H   0  0  0  0  0  0  0  0  0  0  0  0
   -9.4280   18.5931  -32.9049 H   0  0  0  0  0  0  0  0  0  0  0  0
   -7.1680   18.6830  -31.0850 H   0  0  0  0  0  0  0  0  0  0  0  0
   -6.8869   16.6929  -32.9600 H   0  0  0  0  0  0  0  0  0  0  0  0
   -7.7419   18.0759  -33.7717 H   0  0  0  0  0  0  0  0  0  0  0  0
   -5.1428   18.0011  -35.1308 H   0  0  0  0  0  0  0  0  0  0  0  0
   -3.0323   19.5573  -34.4658 H   0  0  0  0  0  0  0  0  0  0  0  0
   -3.4632   20.3950  -31.9640 H   0  0  0  0  0  0  0  0  0  0  0  0
  -10.7857   21.0205  -32.5970 H   0  0  0  0  0  0  0  0  0  0  0  0
   -5.0580   21.4038  -31.2522 H   0  0  0  0  0  0  0  0  0  0  0  0
  1  2  1  0
  2  3  2  0
  3  4  1  0
  4  5  2  0
  5  6  1  0
  6  7  2  0
  7  8  1  0
  8  9  1  0
  9 10  1  0
 10 11  1  0
 11 12  1  0
 12 13  2  0
 13 14  1  0
 14 15  2  0
 15 16  1  0
  8 17  2  0
 17 18  1  0
  5 19  1  0
 19 20  2  0
 20 21  1  0
 20  2  1  0
 18  6  1  0
 16 12  1  0
  3 22  1  0
  4 23  1  0
  9 24  1  0
  9 25  1  0
 10 26  1  0
 11 27  1  0
 11 28  1  0
 13 29  1  0
 14 30  1  0
 15 31  1  0
 17 32  1  0
 19 33  1  0
M  END
>  <UniqueID>  (44) 
43

>  <SMILES>  (44) 
Fc1ccc(-c2nc(CNCc3ccco3)cs2)cc1Cl

>  <Energy>  (44) 
90.23790058441334

>  <Genealogy>  (44) 
Fc1ccc(-c2nc(CNCc3ccco3)cs2)cc1Cl (3D coordinates assigned)
Fc1ccc(-c2nc(CNCc3ccco3)cs2)cc1Cl (optimized conformer: 90.23790058441334 kcal/mol)

>  <smiles>  (44) 
Fc1ccc(-c2nc(CNCc3ccco3)cs2)cc1Cl

>  <score_type>  (44) 
oracle

>  <origin>  (44) 
adg

>  <m_score__min__energy>  (44) 
-8.8599999999999994

>  <m_primary>  (44) 
energy

$$$$
44:0
     RDKit          3D

 30 31  0  0  0  0  0  0  0  0999 V2000
   -7.2440   23.1410  -28.6860 H   0  0  0  0  0  0  0  0  0  0  0  0
   -6.9770   23.2380  -29.6380 O   0  0  0  0  0  0  0  0  0  0  0  0
   -6.3100   24.4690  -29.7440 C   0  0  1  0  0  0  0  0  0  0  0  0
   -7.0135   25.2218  -29.3587 H   0  0  0  0  0  0  0  0  0  0  0  0
   -4.9970   24.4560  -28.9380 C   0  0  0  0  0  0  0  0  0  0  0  0
   -4.8059   23.4609  -28.5098 H   0  0  0  0  0  0  0  0  0  0  0  0
   -5.0072   25.1467  -28.0820 H   0  0  0  0  0  0  0  0  0  0  0  0
   -3.9820   24.8010  -29.9510 C   0  0  0  0  0  0  0  0  0  0  0  0
   -2.7530   24.9140  -29.7060 O   0  0  0  0  0  0  0  0  0  0  0  0
   -4.5080   24.9640  -31.2130 O   0  0  0  0  0  0  0  0  0  0  0  0
   -5.9150   24.7960  -31.2140 C   0  0  1  0  0  0  0  0  0  0  0  0
   -6.4406   25.7075  -31.5349 H   0  0  0  0  0  0  0  0  0  0  0  0
   -6.3650   23.7720  -32.2370 C   0  0  0  0  0  0  0  0  0  0  0  0
   -7.0845   24.1113  -32.9967 H   0  0  0  0  0  0  0  0  0  0  0  0
   -5.9700   22.4910  -32.3050 C   0  0  0  0  0  0  0  0  0  0  0  0
   -4.8966   22.2931  -32.4419 H   0  0  0  0  0  0  0  0  0  0  0  0
   -6.8750   21.3300  -32.2090 C   0  0  0  0  0  0  0  0  0  0  0  0
   -8.2380   21.5560  -31.9680 C   0  0  0  0  0  0  0  0  0  0  0  0
   -8.6106   22.5857  -31.8633 H   0  0  0  0  0  0  0  0  0  0  0  0
   -9.1250   20.4840  -31.8600 C   0  0  0  0  0  0  0  0  0  0  0  0
  -10.1895   20.6704  -31.6546 H   0  0  0  0  0  0  0  0  0  0  0  0
   -8.6640   19.1780  -32.0120 C   0  0  0  0  0  0  0  0  0  0  0  0
   -9.5290   18.1400  -31.9060 F   0  0  0  0  0  0  0  0  0  0  0  0
   -7.3160   18.9380  -32.2900 C   0  0  0  0  0  0  0  0  0  0  0  0
   -6.9628   17.9043  -32.4197 H   0  0  0  0  0  0  0  0  0  0  0  0
   -6.4040   20.0060  -32.4060 C   0  0  0  0  0  0  0  0  0  0  0  0
   -4.9500   19.7350  -32.7410 C   0  0  0  0  0  0  0  0  0  0  0  0
   -4.7860   18.3970  -33.0490 F   0  0  0  0  0  0  0  0  0  0  0  0
   -4.1120   20.0400  -31.6810 F   0  0  0  0  0  0  0  0  0  0  0  0
   -4.5680   20.4990  -33.8270 F   0  0  0  0  0  0  0  0  0  0  0  0
  1  2  1  0
  2  3  1  0
  3  4  1  1
  3  5  1  0
  5  6  1  0
  5  7  1  0
  5  8  1  0
  8  9  2  0
  8 10  1  0
 10 11  1  0
 11 12  1  6
 11 13  1  0
 13 14  1  0
 13 15  2  0
 15 16  1  0
 15 17  1  0
 17 18  2  0
 18 19  1  0
 18 20  1  0
 20 21  1  0
 20 22  2  0
 22 23  1  0
 22 24  1  0
 24 25  1  0
 24 26  2  0
 26 27  1  0
 27 28  1  0
 27 29  1  0
 27 30  1  0
 11  3  1  0
 26 17  1  0
M  END
>  <UniqueID>  (45) 
44

>  <SMILES>  (45) 
O=C1C[C@H](O)[C@H](/C=C\c2ccc(F)cc2C(F)(F)F)O1

>  <Energy>  (45) 
49.219222399893184

>  <Genealogy>  (45) 
O=C1C[C@H](O)[C@H](C=Cc2ccc(F)cc2C(F)(F)F)O1 (chirality)
O=C1C[C@H](O)[C@H](/C=C\c2ccc(F)cc2C(F)(F)F)O1 (cis-trans isomerization)
O=C1C[C@H](O)[C@H](/C=C\c2ccc(F)cc2C(F)(F)F)O1 (3D coordinates assigned)
O=C1C[C@H](O)[C@H](/C=C\c2ccc(F)cc2C(F)(F)F)O1 (nonaromatic ring conformer: 49.219222399893184 kcal/mol)

>  <smiles>  (45) 
O=C1CC(O)C(C=Cc2ccc(F)cc2C(F)(F)F)O1

>  <score_type>  (45) 
oracle

>  <origin>  (45) 
adg

>  <m_score__min__energy>  (45) 
-7.3200000000000003

>  <m_primary>  (45) 
energy

$$$$
45:0
     RDKit          3D

 33 34  0  0  0  0  0  0  0  0999 V2000
   -2.2690   22.0990  -30.5520 C   0  0  0  0  0  0  0  0  0  0  0  0
   -2.3510   21.5730  -31.9850 C   0  0  0  0  0  0  0  0  0  0  0  0
   -3.5470   20.6250  -32.2030 C   0  0  0  0  0  0  0  0  0  0  0  0
   -4.6080   21.1780  -33.1710 C   0  0  0  0  0  0  0  0  0  0  0  0
   -5.9050   21.5380  -32.4760 C   0  0  0  0  0  0  0  0  0  0  0  0
   -7.0530   20.7270  -32.6300 C   0  0  0  0  0  0  0  0  0  0  0  0
   -6.9720   19.5720  -33.4250 O   0  0  0  0  0  0  0  0  0  0  0  0
   -7.1640   18.2440  -32.9490 C   0  0  0  0  0  0  0  0  0  0  0  0
   -8.2540   21.0980  -31.9920 C   0  0  0  0  0  0  0  0  0  0  0  0
   -8.3220   22.2550  -31.2180 C   0  0  0  0  0  0  0  0  0  0  0  0
   -7.1930   23.0630  -31.0640 C   0  0  0  0  0  0  0  0  0  0  0  0
   -7.2350   24.2300  -30.2950 C   0  0  0  0  0  0  0  0  0  0  0  0
   -6.0860   25.0090  -30.1670 C   0  0  0  0  0  0  0  0  0  0  0  0
   -4.9170   24.6000  -30.8150 C   0  0  0  0  0  0  0  0  0  0  0  0
   -3.8680   25.2880  -30.7140 O   0  0  0  0  0  0  0  0  0  0  0  0
   -4.9060   23.4840  -31.5400 O   0  0  0  0  0  0  0  0  0  0  0  0
   -5.9780   22.7080  -31.6910 C   0  0  0  0  0  0  0  0  0  0  0  0
   -2.3991   21.2646  -29.8471 H   0  0  0  0  0  0  0  0  0  0  0  0
   -1.2870   22.5671  -30.3889 H   0  0  0  0  0  0  0  0  0  0  0  0
   -3.0619   22.8438  -30.3889 H   0  0  0  0  0  0  0  0  0  0  0  0
   -2.4510   22.4288  -32.6689 H   0  0  0  0  0  0  0  0  0  0  0  0
   -1.4327   21.0003  -32.1819 H   0  0  0  0  0  0  0  0  0  0  0  0
   -3.1678   19.6757  -32.6092 H   0  0  0  0  0  0  0  0  0  0  0  0
   -4.0381   20.4983  -31.2269 H   0  0  0  0  0  0  0  0  0  0  0  0
   -4.2062   22.0804  -33.6549 H   0  0  0  0  0  0  0  0  0  0  0  0
   -4.8324   20.3883  -33.9032 H   0  0  0  0  0  0  0  0  0  0  0  0
   -7.1638   18.2452  -31.8490 H   0  0  0  0  0  0  0  0  0  0  0  0
   -8.1272   17.8589  -33.3151 H   0  0  0  0  0  0  0  0  0  0  0  0
   -6.3494   17.6019  -33.3151 H   0  0  0  0  0  0  0  0  0  0  0  0
   -9.1478   20.4671  -32.1064 H   0  0  0  0  0  0  0  0  0  0  0  0
   -9.2666   22.5325  -30.7274 H   0  0  0  0  0  0  0  0  0  0  0  0
   -8.1674   24.5311  -29.7949 H   0  0  0  0  0  0  0  0  0  0  0  0
   -6.0991   25.9302  -29.5660 H   0  0  0  0  0  0  0  0  0  0  0  0
  1  2  1  0
  2  3  1  0
  3  4  1  0
  4  5  1  0
  5  6  2  0
  6  7  1  0
  7  8  1  0
  6  9  1  0
  9 10  2  0
 10 11  1  0
 11 12  1  0
 12 13  2  0
 13 14  1  0
 14 15  2  0
 14 16  1  0
 16 17  1  0
 17  5  1  0
 17 11  2  0
  1 18  1  0
  1 19  1  0
  1 20  1  0
  2 21  1  0
  2 22  1  0
  3 23  1  0
  3 24  1  0
  4 25  1  0
  4 26  1  0
  8 27  1  0
  8 28  1  0
  8 29  1  0
  9 30  1  0
 10 31  1  0
 12 32  1  0
 13 33  1  0
M  END
>  <UniqueID>  (46) 
45

>  <SMILES>  (46) 
CCCCc1c(OC)ccc2ccc(=O)oc12

>  <Energy>  (46) 
32.50211141335519

>  <Genealogy>  (46) 
CCCCc1c(OC)ccc2ccc(=O)oc12 (3D coordinates assigned)
CCCCc1c(OC)ccc2ccc(=O)oc12 (optimized conformer: 32.50211141335519 kcal/mol)

>  <smiles>  (46) 
CCCCc1c(OC)ccc2ccc(=O)oc12

>  <score_type>  (46) 
oracle

>  <origin>  (46) 
adg

>  <m_score__min__energy>  (46) 
-6.75

>  <m_primary>  (46) 
energy

$$$$
46:0
     RDKit          3D

 41 44  0  0  0  0  0  0  0  0999 V2000
   -0.8796   22.4933  -28.8714 H   0  0  0  0  0  0  0  0  0  0  0  0
   -1.6590   22.6950  -29.6210 C   0  0  0  0  0  0  0  0  0  0  0  0
   -2.3360   23.8710  -29.5920 N   0  0  0  0  0  0  0  0  0  0  0  0
   -3.3080   24.1460  -30.4990 C   0  0  0  0  0  0  0  0  0  0  0  0
   -3.9110   25.3010  -30.4500 N   0  0  0  0  0  0  0  0  0  0  0  0
   -5.3450   25.6060  -30.5940 C   0  0  0  0  0  0  0  0  0  0  0  0
   -5.2515   26.6235  -31.0014 H   0  0  0  0  0  0  0  0  0  0  0  0
   -6.1490   24.5500  -31.3500 C   0  0  0  0  0  0  0  0  0  0  0  0
   -6.7270   24.9452  -32.1984 H   0  0  0  0  0  0  0  0  0  0  0  0
   -5.6417   23.7199  -31.8634 H   0  0  0  0  0  0  0  0  0  0  0  0
   -6.9760   24.2980  -30.0930 C   0  0  0  0  0  0  0  0  0  0  0  0
   -8.0434   24.5394  -30.2041 H   0  0  0  0  0  0  0  0  0  0  0  0
   -7.0667   23.2800  -29.6862 H   0  0  0  0  0  0  0  0  0  0  0  0
   -6.1760   25.3560  -29.3390 C   0  0  0  0  0  0  0  0  0  0  0  0
   -6.7701   26.2221  -29.0119 H   0  0  0  0  0  0  0  0  0  0  0  0
   -5.6885   25.1143  -28.3830 H   0  0  0  0  0  0  0  0  0  0  0  0
   -3.6290   23.2160  -31.4390 N   0  0  0  0  0  0  0  0  0  0  0  0
   -2.9980   22.0150  -31.4960 C   0  0  0  0  0  0  0  0  0  0  0  0
   -3.3870   21.0730  -32.5060 N   0  0  0  0  0  0  0  0  0  0  0  0
   -4.3160   20.0880  -32.4800 C   0  0  0  0  0  0  0  0  0  0  0  0
   -5.2440   19.9110  -31.5820 N   0  0  0  0  0  0  0  0  0  0  0  0
   -6.6590   20.0590  -31.7610 C   0  0  0  0  0  0  0  0  0  0  0  0
   -7.4360   18.9400  -32.0870 C   0  0  0  0  0  0  0  0  0  0  0  0
   -6.9621   17.9520  -32.1828 H   0  0  0  0  0  0  0  0  0  0  0  0
   -8.8130   19.0760  -32.2910 C   0  0  0  0  0  0  0  0  0  0  0  0
   -9.4249   18.1909  -32.5192 H   0  0  0  0  0  0  0  0  0  0  0  0
   -9.4120   20.3360  -32.2050 C   0  0  0  0  0  0  0  0  0  0  0  0
  -10.4969   20.4399  -32.3539 H   0  0  0  0  0  0  0  0  0  0  0  0
   -8.6340   21.4640  -31.9300 C   0  0  0  0  0  0  0  0  0  0  0  0
   -9.1042   22.4568  -31.8740 H   0  0  0  0  0  0  0  0  0  0  0  0
   -7.2560   21.3290  -31.7260 C   0  0  0  0  0  0  0  0  0  0  0  0
   -6.6393   22.2202  -31.5378 H   0  0  0  0  0  0  0  0  0  0  0  0
   -4.1670   19.2720  -33.5410 N   0  0  0  0  0  0  0  0  0  0  0  0
   -3.1460   19.7760  -34.2230 N   0  0  0  0  0  0  0  0  0  0  0  0
   -2.6860   20.8510  -33.6020 N   0  0  0  0  0  0  0  0  0  0  0  0
   -1.8550   21.4040  -33.9100 H   0  0  0  0  0  0  0  0  0  0  0  0
   -1.9480   21.7380  -30.6000 C   0  0  0  0  0  0  0  0  0  0  0  0
   -1.1520   20.4660  -30.6760 C   0  0  0  0  0  0  0  0  0  0  0  0
   -0.9299   20.1111  -29.6588 H   0  0  0  0  0  0  0  0  0  0  0  0
   -1.7330   19.7014  -31.2124 H   0  0  0  0  0  0  0  0  0  0  0  0
   -0.2103   20.6543  -31.2124 H   0  0  0  0  0  0  0  0  0  0  0  0
  1  2  1  0
  2  3  1  0
  3  4  1  0
  4  5  2  0
  5  6  1  0
  6  7  1  0
  6  8  1  0
  8  9  1  0
  8 10  1  0
  8 11  1  0
 11 12  1  0
 11 13  1  0
 11 14  1  0
 14 15  1  0
 14 16  1  0
  4 17  1  0
 17 18  2  0
 18 19  1  0
 19 20  1  0
 20 21  2  0
 21 22  1  0
 22 23  2  0
 23 24  1  0
 23 25  1  0
 25 26  1  0
 25 27  2  0
 27 28  1  0
 27 29  1  0
 29 30  1  0
 29 31  2  0
 31 32  1  0
 20 33  1  0
 33 34  1  0
 34 35  2  0
 35 36  1  0
 18 37  1  0
 37 38  1  0
 38 39  1  0
 38 40  1  0
 38 41  1  0
 37  2  2  0
 14  6  1  0
 35 19  1  0
 31 22  1  0
M  CHG  3   3  -1  33  -1  35   1
M  END
>  <UniqueID>  (47) 
46

>  <SMILES>  (47) 
Cc1c[n-]/c(=N/C2CCC2)nc1-n1[nH+]n[n-]/c1=N/c1ccccc1

>  <Energy>  (47) 
164.53618457601368

>  <Genealogy>  (47) 
Cc1c[n-]c(=NC2CCC2)nc1-n1[nH+]n[n-]c1=Nc1ccccc1 (protonated)
Cc1c[n-]/c(=N/C2CCC2)nc1-n1[nH+]n[n-]/c1=N/c1ccccc1 (cis-trans isomerization)
Cc1c[n-]/c(=N/C2CCC2)nc1-n1[nH+]n[n-]/c1=N/c1ccccc1 (3D coordinates assigned)
Cc1c[n-]/c(=N/C2CCC2)nc1-n1[nH+]n[n-]/c1=N/c1ccccc1 (nonaromatic ring conformer: 164.53618457601368 kcal/mol)

>  <smiles>  (47) 
Cc1c[nH]c(=NC2CCC2)nc1-n1nn[nH]c1=Nc1ccccc1

>  <score_type>  (47) 
oracle

>  <origin>  (47) 
adg

>  <m_score__min__energy>  (47) 
-9.9299999999999997

>  <m_primary>  (47) 
energy

$$$$
