0:0
     RDKit          3D

 46 49  0  0  0  0  0  0  0  0999 V2000
   -3.4480   24.6360  -30.4640 O   0  0  0  0  0  0  0  0  0  0  0  0
   -3.9250   23.4670  -30.4110 C   0  0  0  0  0  0  0  0  0  0  0  0
   -5.2660   23.2400  -31.0100 C   0  0  0  0  0  0  0  0  0  0  0  0
   -6.3470   24.0130  -30.5490 C   0  0  0  0  0  0  0  0  0  0  0  0
   -7.6360   23.7970  -31.0330 C   0  0  0  0  0  0  0  0  0  0  0  0
   -7.8680   22.8010  -31.9790 C   0  0  0  0  0  0  0  0  0  0  0  0
   -6.8120   22.0180  -32.4450 C   0  0  0  0  0  0  0  0  0  0  0  0
   -5.5000   22.2200  -31.9750 C   0  0  0  0  0  0  0  0  0  0  0  0
   -4.3990   21.3950  -32.5400 C   0  0  0  0  0  0  0  0  0  0  0  0
   -4.5200   20.1270  -33.0850 C   0  0  0  0  0  0  0  0  0  0  0  0
   -3.2540   19.7660  -33.4890 C   0  0  0  0  0  0  0  0  0  0  0  0
   -2.4350   20.8280  -33.1720 C   0  0  0  0  0  0  0  0  0  0  0  0
   -3.1440   21.7790  -32.6110 O   0  0  0  0  0  0  0  0  0  0  0  0
   -3.1140   22.3640  -29.9080 N   0  0  0  0  0  0  0  0  0  0  0  0
   -3.3840   22.0310  -28.4990 C   0  0  0  0  0  0  0  0  0  0  0  0
   -3.0800   23.1980  -27.5550 C   0  0  0  0  0  0  0  0  0  0  0  0
   -1.8880   23.9980  -27.9190 N   0  0  0  0  0  0  0  0  0  0  0  0
   -1.5110   25.1210  -27.0520 C   0  0  0  0  0  0  0  0  0  0  0  0
   -1.4820   24.9630  -25.6410 C   0  0  0  0  0  0  0  0  0  0  0  0
   -1.1510   26.0230  -24.7940 C   0  0  0  0  0  0  0  0  0  0  0  0
   -0.8370   27.2700  -25.3210 C   0  0  0  0  0  0  0  0  0  0  0  0
   -0.8520   27.4620  -26.6990 C   0  0  0  0  0  0  0  0  0  0  0  0
   -1.1810   26.4130  -27.5640 C   0  0  0  0  0  0  0  0  0  0  0  0
   -1.1710   26.6990  -28.8880 F   0  0  0  0  0  0  0  0  0  0  0  0
   -1.1580   23.7690  -29.1870 C   0  0  0  0  0  0  0  0  0  0  0  0
   -1.6660   22.5960  -30.0460 C   0  0  0  0  0  0  0  0  0  0  0  0
   -6.1729   24.7973  -29.7976 H   0  0  0  0  0  0  0  0  0  0  0  0
   -8.4707   24.4134  -30.6678 H   0  0  0  0  0  0  0  0  0  0  0  0
   -8.8862   22.6317  -32.3593 H   0  0  0  0  0  0  0  0  0  0  0  0
   -7.0066   21.2321  -33.1897 H   0  0  0  0  0  0  0  0  0  0  0  0
   -5.4396   19.5304  -33.1763 H   0  0  0  0  0  0  0  0  0  0  0  0
   -2.9567   18.8213  -33.9677 H   0  0  0  0  0  0  0  0  0  0  0  0
   -1.3522   20.8718  -33.3605 H   0  0  0  0  0  0  0  0  0  0  0  0
   -3.3450   21.5210  -30.4860 H   0  0  0  0  0  0  0  0  0  0  0  0
   -4.4455   21.7612  -28.3969 H   0  0  0  0  0  0  0  0  0  0  0  0
   -2.7269   21.1940  -28.2202 H   0  0  0  0  0  0  0  0  0  0  0  0
   -3.9524   23.8680  -27.5475 H   0  0  0  0  0  0  0  0  0  0  0  0
   -2.8655   22.7530  -26.5722 H   0  0  0  0  0  0  0  0  0  0  0  0
   -1.7259   23.9830  -25.2050 H   0  0  0  0  0  0  0  0  0  0  0  0
   -1.1388   25.8701  -23.7047 H   0  0  0  0  0  0  0  0  0  0  0  0
   -0.5774   28.1027  -24.6508 H   0  0  0  0  0  0  0  0  0  0  0  0
   -0.6023   28.4501  -27.1130 H   0  0  0  0  0  0  0  0  0  0  0  0
   -1.2312   24.6862  -29.7898 H   0  0  0  0  0  0  0  0  0  0  0  0
   -0.1295   23.5067  -28.8984 H   0  0  0  0  0  0  0  0  0  0  0  0
   -1.4452   22.8135  -31.1014 H   0  0  0  0  0  0  0  0  0  0  0  0
   -1.1533   21.6875  -29.6970 H   0  0  0  0  0  0  0  0  0  0  0  0
  1  2  2  0
  2  3  1  0
  3  4  2  0
  4  5  1  0
  5  6  2  0
  6  7  1  0
  7  8  2  0
  8  9  1  0
  9 10  2  0
 10 11  1  0
 11 12  2  0
 12 13  1  0
  2 14  1  0
 14 15  1  0
 15 16  1  0
 16 17  1  0
 17 18  1  0
 18 19  2  0
 19 20  1  0
 20 21  2  0
 21 22  1  0
 22 23  2  0
 23 24  1  0
 17 25  1  0
 25 26  1  0
  8  3  1  0
 13  9  1  0
 26 14  1  0
 23 18  1  0
  4 27  1  0
  5 28  1  0
  6 29  1  0
  7 30  1  0
 10 31  1  0
 11 32  1  0
 12 33  1  0
 14 34  1  0
 15 35  1  0
 15 36  1  0
 16 37  1  0
 16 38  1  0
 19 39  1  0
 20 40  1  0
 21 41  1  0
 22 42  1  0
 25 43  1  0
 25 44  1  0
 26 45  1  0
 26 46  1  0
M  CHG  1  14   1
M  END
>  <UniqueID>  (1) 
1

>  <SMILES>  (1) 
O=C(c1ccccc1-c1ccco1)[NH+]1CCN(c2ccccc2F)CC1

>  <Energy>  (1) 
100.19836847811547

>  <Genealogy>  (1) 
O=C(c1ccccc1-c1ccco1)[NH+]1CCN(c2ccccc2F)CC1 (protonated)
O=C(c1ccccc1-c1ccco1)[NH+]1CCN(c2ccccc2F)CC1 (3D coordinates assigned)
O=C(c1ccccc1-c1ccco1)[NH+]1CCN(c2ccccc2F)CC1 (nonaromatic ring conformer: 100.19836847811547 kcal/mol)

>  <smiles>  (1) 
O=C(c1ccccc1-c1ccco1)N1CCN(c2ccccc2F)CC1

>  <score_type>  (1) 
oracle

>  <origin>  (1) 
adg

>  <m_score__min__energy>  (1) 
-8.0500000000000007

>  <m_primary>  (1) 
energy

$$$$
1:0
     RDKit          3D

 57 59  0  0  1  0  0  0  0  0999 V2000
   -2.1800   20.0870  -27.6020 C   0  0  0  0  0  0  0  0  0  0  0  0
   -1.2790   21.3210  -27.4670 C   0  0  0  0  0  0  0  0  0  0  0  0
   -0.6800   21.5660  -28.8090 C   0  0  0  0  0  0  0  0  0  0  0  0
   -1.2220   22.5410  -29.5930 O   0  0  0  0  0  0  0  0  0  0  0  0
   -2.4660   22.8720  -30.0080 C   0  0  0  0  0  0  0  0  0  0  0  0
   -3.2750   23.7230  -29.2890 C   0  0  0  0  0  0  0  0  0  0  0  0
   -4.5480   24.0840  -29.6770 C   0  0  0  0  0  0  0  0  0  0  0  0
   -5.2740   24.9250  -28.9210 N   0  0  0  0  0  0  0  0  0  0  0  0
   -6.5070   25.2460  -29.3500 C   0  0  0  0  0  0  0  0  0  0  0  0
   -6.9940   24.7320  -30.5140 N   0  0  0  0  0  0  0  0  0  0  0  0
   -6.2760   23.9000  -31.2630 C   0  0  0  0  0  0  0  0  0  0  0  0
   -6.7780   23.4390  -32.3640 N   0  0  0  0  0  0  0  0  0  0  0  0
   -7.3980   22.1640  -32.2870 C   0  0  0  0  0  0  0  0  0  0  0  0
   -8.6850   22.1310  -31.7450 C   0  0  0  0  0  0  0  0  0  0  0  0
   -9.4010   20.9750  -31.6110 C   0  0  0  0  0  0  0  0  0  0  0  0
   -8.8100   19.7980  -32.0340 C   0  0  0  0  0  0  0  0  0  0  0  0
   -7.5270   19.8080  -32.5780 C   0  0  0  0  0  0  0  0  0  0  0  0
   -6.8360   18.2790  -33.0970 Cl  0  0  0  0  0  0  0  0  0  0  0  0
   -6.8070   20.9960  -32.7090 C   0  0  0  0  0  0  0  0  0  0  0  0
   -5.0130   23.5500  -30.8550 C   0  0  0  0  0  0  0  0  0  0  0  0
   -4.2060   22.6830  -31.6000 C   0  0  0  0  0  0  0  0  0  0  0  0
   -2.9400   22.3240  -31.2130 C   0  0  0  0  0  0  0  0  0  0  0  0
   -2.0650   21.4830  -31.9210 N   0  0  0  0  0  0  0  0  0  0  0  0
   -2.3590   20.7100  -33.0490 C   0  0  0  0  0  0  0  0  0  0  0  0
   -3.5280   20.7600  -33.4980 O   0  0  0  0  0  0  0  0  0  0  0  0
   -1.2950   19.9000  -33.6300 C   0  0  0  0  0  0  0  0  0  0  0  0
   -0.2000   20.3920  -34.1620 C   0  0  0  0  0  0  0  0  0  0  0  0
   -0.1010   21.2010  -35.3710 C   0  0  0  0  0  0  0  0  0  0  0  0
    0.7770   22.3330  -35.0210 N   0  0  0  0  0  0  0  0  0  0  0  0
    0.6550   23.3730  -36.0400 C   0  0  0  0  0  0  0  0  0  0  0  0
    2.1630   21.9060  -34.9930 C   0  0  0  0  0  0  0  0  0  0  0  0
   -2.4492   19.7183  -26.6012 H   0  0  0  0  0  0  0  0  0  0  0  0
   -3.0938   20.3585  -28.1508 H   0  0  0  0  0  0  0  0  0  0  0  0
   -1.6431   19.2992  -28.1508 H   0  0  0  0  0  0  0  0  0  0  0  0
   -1.8737   22.1915  -27.1532 H   0  0  0  0  0  0  0  0  0  0  0  0
   -0.4977   21.1581  -26.7100 H   0  0  0  0  0  0  0  0  0  0  0  0
    0.3770   21.8261  -28.6507 H   0  0  0  0  0  0  0  0  0  0  0  0
   -0.8707   20.6357  -29.3641 H   0  0  0  0  0  0  0  0  0  0  0  0
   -2.8827   24.1395  -28.3495 H   0  0  0  0  0  0  0  0  0  0  0  0
   -4.9280   25.3320  -28.0250 H   0  0  0  0  0  0  0  0  0  0  0  0
   -7.1292   25.9308  -28.7550 H   0  0  0  0  0  0  0  0  0  0  0  0
   -9.1411   23.0750  -31.4122 H   0  0  0  0  0  0  0  0  0  0  0  0
  -10.4135   20.9801  -31.1811 H   0  0  0  0  0  0  0  0  0  0  0  0
   -9.3564   18.8479  -31.9404 H   0  0  0  0  0  0  0  0  0  0  0  0
   -5.7942   20.9983  -33.1382 H   0  0  0  0  0  0  0  0  0  0  0  0
   -4.6049   22.2707  -32.5385 H   0  0  0  0  0  0  0  0  0  0  0  0
   -1.0620   21.4130  -31.5620 H   0  0  0  0  0  0  0  0  0  0  0  0
   -1.4174   18.8069  -33.6222 H   0  0  0  0  0  0  0  0  0  0  0  0
    0.7427   20.1703  -33.6402 H   0  0  0  0  0  0  0  0  0  0  0  0
    0.3383   20.6138  -36.1909 H   0  0  0  0  0  0  0  0  0  0  0  0
   -1.0888   21.5432  -35.7133 H   0  0  0  0  0  0  0  0  0  0  0  0
    0.5401   24.3523  -35.5525 H   0  0  0  0  0  0  0  0  0  0  0  0
    1.5585   23.3795  -36.6673 H   0  0  0  0  0  0  0  0  0  0  0  0
   -0.2255   23.1702  -36.6673 H   0  0  0  0  0  0  0  0  0  0  0  0
    2.4942   21.8040  -33.9490 H   0  0  0  0  0  0  0  0  0  0  0  0
    2.2585   20.9368  -35.5044 H   0  0  0  0  0  0  0  0  0  0  0  0
    2.7874   22.6535  -35.5044 H   0  0  0  0  0  0  0  0  0  0  0  0
  1  2  1  0
  2  3  1  0
  3  4  1  0
  4  5  1  0
  5  6  2  0
  6  7  1  0
  7  8  1  0
  8  9  1  0
  9 10  2  0
 10 11  1  0
 11 12  2  0
 12 13  1  0
 13 14  2  0
 14 15  1  0
 15 16  2  0
 16 17  1  0
 17 18  1  0
 17 19  2  0
 11 20  1  0
 20 21  1  0
 21 22  2  0
 22 23  1  0
 23 24  1  0
 24 25  2  0
 24 26  1  0
 26 27  2  0
 27 28  1  0
 28 29  1  0
 29 30  1  0
 29 31  1  0
 22  5  1  0
 20  7  2  0
 19 13  1  0
  1 32  1  0
  1 33  1  0
  1 34  1  0
  2 35  1  0
  2 36  1  0
  3 37  1  0
  3 38  1  0
  6 39  1  0
  8 40  1  0
  9 41  1  0
 14 42  1  0
 15 43  1  0
 16 44  1  0
 19 45  1  0
 21 46  1  0
 23 47  1  0
 26 48  1  0
 27 49  1  0
 28 50  1  0
 28 51  1  0
 30 52  1  0
 30 53  1  0
 30 54  1  0
 31 55  1  0
 31 56  1  0
 31 57  1  0
M  END
>  <smiles>  (2) 
CCCOc1cc2[nH]cnc(=Nc3cccc(Cl)c3)c2cc1NC(=O)C=CCN(C)C

>  <score_type>  (2) 
oracle

>  <origin>  (2) 
adg

>  <m_score__min__energy>  (2) 
-9.0600000000000005

>  <m_primary>  (2) 
energy

$$$$
2:0
     RDKit          3D

 45 48  0  0  0  0  0  0  0  0999 V2000
   -3.7620   16.6900  -34.9320 C   0  0  0  0  0  0  0  0  0  0  0  0
   -5.1460   16.5710  -34.6180 O   0  0  0  0  0  0  0  0  0  0  0  0
   -5.9070   17.5730  -33.9980 C   0  0  0  0  0  0  0  0  0  0  0  0
   -6.8150   17.2980  -32.9580 C   0  0  0  0  0  0  0  0  0  0  0  0
   -7.5490   18.3330  -32.3720 C   0  0  0  0  0  0  0  0  0  0  0  0
   -7.4020   19.6550  -32.8210 C   0  0  0  0  0  0  0  0  0  0  0  0
   -8.1530   20.7080  -32.1950 N   0  0  0  0  0  0  0  0  0  0  0  0
   -9.4530   20.6520  -31.9580 N   0  0  0  0  0  0  0  0  0  0  0  0
   -9.8480   21.8110  -31.4550 N   0  0  0  0  0  0  0  0  0  0  0  0
   -8.8200   22.6450  -31.3730 N   0  0  0  0  0  0  0  0  0  0  0  0
   -7.7660   21.9470  -31.8320 C   0  0  0  0  0  0  0  0  0  0  0  0
   -6.1340   22.6640  -32.0630 S   0  0  0  0  0  0  0  0  0  0  0  0
   -6.3990   24.0640  -30.9180 C   0  0  0  0  0  0  0  0  0  0  0  0
   -5.1130   24.3750  -30.2210 C   0  0  0  0  0  0  0  0  0  0  0  0
   -4.2030   24.9890  -30.8420 O   0  0  0  0  0  0  0  0  0  0  0  0
   -4.9220   23.9630  -28.8580 N   0  0  0  0  0  0  0  0  0  0  0  0
   -3.8200   24.3840  -28.0360 C   0  0  0  0  0  0  0  0  0  0  0  0
   -4.0760   24.8850  -26.7490 C   0  0  0  0  0  0  0  0  0  0  0  0
   -3.0230   25.3130  -25.9320 C   0  0  0  0  0  0  0  0  0  0  0  0
   -1.7090   25.2550  -26.4030 C   0  0  0  0  0  0  0  0  0  0  0  0
   -1.4500   24.8070  -27.7050 C   0  0  0  0  0  0  0  0  0  0  0  0
   -2.4970   24.3650  -28.5170 C   0  0  0  0  0  0  0  0  0  0  0  0
   -0.1330   24.8150  -28.1760 O   0  0  0  0  0  0  0  0  0  0  0  0
    0.9010   25.5080  -27.4690 C   0  0  0  0  0  0  0  0  0  0  0  0
    0.7100   25.3440  -25.9560 C   0  0  0  0  0  0  0  0  0  0  0  0
   -0.6400   25.6460  -25.5920 O   0  0  0  0  0  0  0  0  0  0  0  0
   -6.4840   19.9280  -33.8460 C   0  0  0  0  0  0  0  0  0  0  0  0
   -5.7480   18.8940  -34.4320 C   0  0  0  0  0  0  0  0  0  0  0  0
   -3.1779   16.7402  -34.0013 H   0  0  0  0  0  0  0  0  0  0  0  0
   -3.4426   15.8160  -35.5186 H   0  0  0  0  0  0  0  0  0  0  0  0
   -3.5965   17.6057  -35.5186 H   0  0  0  0  0  0  0  0  0  0  0  0
   -6.9473   16.2646  -32.6052 H   0  0  0  0  0  0  0  0  0  0  0  0
   -8.2477   18.1099  -31.5522 H   0  0  0  0  0  0  0  0  0  0  0  0
   -6.7335   24.9454  -31.4848 H   0  0  0  0  0  0  0  0  0  0  0  0
   -7.1673   23.7972  -30.1774 H   0  0  0  0  0  0  0  0  0  0  0  0
   -5.5800   23.2490  -28.4700 H   0  0  0  0  0  0  0  0  0  0  0  0
   -5.1109   24.9414  -26.3806 H   0  0  0  0  0  0  0  0  0  0  0  0
   -3.2297   25.6943  -24.9211 H   0  0  0  0  0  0  0  0  0  0  0  0
   -2.2875   24.0015  -29.5339 H   0  0  0  0  0  0  0  0  0  0  0  0
    1.8786   25.0953  -27.7586 H   0  0  0  0  0  0  0  0  0  0  0  0
    0.8546   26.5773  -27.7227 H   0  0  0  0  0  0  0  0  0  0  0  0
    0.9395   24.3066  -25.6713 H   0  0  0  0  0  0  0  0  0  0  0  0
    1.3859   26.0360  -25.4322 H   0  0  0  0  0  0  0  0  0  0  0  0
   -6.3423   20.9628  -34.1910 H   0  0  0  0  0  0  0  0  0  0  0  0
   -5.0379   19.1206  -35.2410 H   0  0  0  0  0  0  0  0  0  0  0  0
  1  2  1  0
  2  3  1  0
  3  4  2  0
  4  5  1  0
  5  6  2  0
  6  7  1  0
  7  8  1  0
  8  9  2  0
  9 10  1  0
 10 11  2  0
 11 12  1  0
 12 13  1  0
 13 14  1  0
 14 15  2  0
 14 16  1  0
 16 17  1  0
 17 18  2  0
 18 19  1  0
 19 20  2  0
 20 21  1  0
 21 22  2  0
 21 23  1  0
 23 24  1  0
 24 25  1  0
 25 26  1  0
  6 27  1  0
 27 28  2  0
 28  3  1  0
 11  7  1  0
 22 17  1  0
 26 20  1  0
  1 29  1  0
  1 30  1  0
  1 31  1  0
  4 32  1  0
  5 33  1  0
 13 34  1  0
 13 35  1  0
 16 36  1  0
 18 37  1  0
 19 38  1  0
 22 39  1  0
 24 40  1  0
 24 41  1  0
 25 42  1  0
 25 43  1  0
 27 44  1  0
 28 45  1  0
M  END
>  <UniqueID>  (3) 
2

>  <SMILES>  (3) 
COc1ccc(-n2nnnc2SCC(=O)Nc2ccc3c(c2)OCCO3)cc1

>  <Energy>  (3) 
94.52297032515703

>  <Genealogy>  (3) 
COc1ccc(-n2nnnc2SCC(=O)Nc2ccc3c(c2)OCCO3)cc1 (3D coordinates assigned)
COc1ccc(-n2nnnc2SCC(=O)Nc2ccc3c(c2)OCCO3)cc1 (nonaromatic ring conformer: 94.52297032515703 kcal/mol)

>  <smiles>  (3) 
COc1ccc(-n2nnnc2SCC(=O)Nc2ccc3c(c2)OCCO3)cc1

>  <score_type>  (3) 
oracle

>  <origin>  (3) 
adg

>  <m_score__min__energy>  (3) 
-9.6899999999999995

>  <m_primary>  (3) 
energy

$$$$
3:0
     RDKit          3D

 52 55  0  0  0  0  0  0  0  0999 V2000
   -9.0040   18.7440  -32.0920 C   0  0  0  0  0  0  0  0  0  0  0  0
   -8.6700   20.2130  -32.1230 C   0  0  0  0  0  0  0  0  0  0  0  0
   -9.7060   21.1360  -31.8830 C   0  0  0  0  0  0  0  0  0  0  0  0
   -9.4630   22.5080  -31.9230 C   0  0  0  0  0  0  0  0  0  0  0  0
   -8.1830   22.9810  -32.1990 C   0  0  0  0  0  0  0  0  0  0  0  0
   -7.1400   22.0860  -32.4310 C   0  0  0  0  0  0  0  0  0  0  0  0
   -7.3570   20.6940  -32.3900 C   0  0  0  0  0  0  0  0  0  0  0  0
   -6.1900   19.8050  -32.6360 C   0  0  0  0  0  0  0  0  0  0  0  0
   -5.0720   20.1680  -33.3030 N   0  0  0  0  0  0  0  0  0  0  0  0
   -4.3170   19.0550  -33.2770 C   0  0  0  0  0  0  0  0  0  0  0  0
   -2.9450   18.9520  -33.8830 C   0  0  0  0  0  0  0  0  0  0  0  0
   -1.9900   19.8930  -33.2480 N   0  0  0  0  0  0  0  0  0  0  0  0
   -1.8300   19.5500  -31.8120 C   0  0  0  0  0  0  0  0  0  0  0  0
   -1.2900   20.7400  -31.0060 C   0  0  0  0  0  0  0  0  0  0  0  0
   -2.2090   21.9070  -31.0450 N   0  0  0  0  0  0  0  0  0  0  0  0
   -2.9940   22.0180  -29.7970 C   0  0  0  0  0  0  0  0  0  0  0  0
   -4.0890   23.0450  -29.9360 C   0  0  0  0  0  0  0  0  0  0  0  0
   -3.7920   24.3550  -30.3460 C   0  0  0  0  0  0  0  0  0  0  0  0
   -4.8090   25.3090  -30.4460 C   0  0  0  0  0  0  0  0  0  0  0  0
   -6.1270   24.9640  -30.1330 C   0  0  0  0  0  0  0  0  0  0  0  0
   -6.4280   23.6630  -29.7180 C   0  0  0  0  0  0  0  0  0  0  0  0
   -5.4140   22.7070  -29.6160 C   0  0  0  0  0  0  0  0  0  0  0  0
   -3.0910   21.9160  -32.2390 C   0  0  0  0  0  0  0  0  0  0  0  0
   -2.3850   21.3150  -33.4630 C   0  0  0  0  0  0  0  0  0  0  0  0
   -4.9900   18.0590  -32.6080 C   0  0  0  0  0  0  0  0  0  0  0  0
   -6.1410   18.5530  -32.2270 O   0  0  0  0  0  0  0  0  0  0  0  0
   -9.0805   18.4073  -31.0476 H   0  0  0  0  0  0  0  0  0  0  0  0
   -9.9634   18.5753  -32.6029 H   0  0  0  0  0  0  0  0  0  0  0  0
   -8.2118   18.1770  -32.6029 H   0  0  0  0  0  0  0  0  0  0  0  0
  -10.7193   20.7699  -31.6613 H   0  0  0  0  0  0  0  0  0  0  0  0
  -10.2829   23.2172  -31.7364 H   0  0  0  0  0  0  0  0  0  0  0  0
   -7.9943   24.0641  -32.2341 H   0  0  0  0  0  0  0  0  0  0  0  0
   -6.1332   22.4716  -32.6492 H   0  0  0  0  0  0  0  0  0  0  0  0
   -2.5737   17.9250  -33.7511 H   0  0  0  0  0  0  0  0  0  0  0  0
   -3.0220   19.2108  -34.9493 H   0  0  0  0  0  0  0  0  0  0  0  0
   -1.0520   19.7530  -33.6970 H   0  0  0  0  0  0  0  0  0  0  0  0
   -2.8082   19.2561  -31.4036 H   0  0  0  0  0  0  0  0  0  0  0  0
   -1.1083   18.7236  -31.7329 H   0  0  0  0  0  0  0  0  0  0  0  0
   -1.1574   20.4282  -29.9595 H   0  0  0  0  0  0  0  0  0  0  0  0
   -0.3344   21.0472  -31.4561 H   0  0  0  0  0  0  0  0  0  0  0  0
   -3.4444   21.0410  -29.5674 H   0  0  0  0  0  0  0  0  0  0  0  0
   -2.3201   22.3323  -28.9863 H   0  0  0  0  0  0  0  0  0  0  0  0
   -2.7555   24.6314  -30.5893 H   0  0  0  0  0  0  0  0  0  0  0  0
   -4.5717   26.3326  -30.7715 H   0  0  0  0  0  0  0  0  0  0  0  0
   -6.9266   25.7152  -30.2131 H   0  0  0  0  0  0  0  0  0  0  0  0
   -7.4651   23.3916  -29.4714 H   0  0  0  0  0  0  0  0  0  0  0  0
   -5.6544   21.6862  -29.2839 H   0  0  0  0  0  0  0  0  0  0  0  0
   -3.9937   21.3262  -32.0214 H   0  0  0  0  0  0  0  0  0  0  0  0
   -3.3519   22.9597  -32.4683 H   0  0  0  0  0  0  0  0  0  0  0  0
   -3.0666   21.3662  -34.3249 H   0  0  0  0  0  0  0  0  0  0  0  0
   -1.4677   21.8955  -33.6407 H   0  0  0  0  0  0  0  0  0  0  0  0
   -4.6279   17.0363  -32.4267 H   0  0  0  0  0  0  0  0  0  0  0  0
  1  2  1  0
  2  3  2  0
  3  4  1  0
  4  5  2  0
  5  6  1  0
  6  7  2  0
  7  8  1  0
  8  9  2  0
  9 10  1  0
 10 11  1  0
 11 12  1  0
 12 13  1  0
 13 14  1  0
 14 15  1  0
 15 16  1  0
 16 17  1  0
 17 18  2  0
 18 19  1  0
 19 20  2  0
 20 21  1  0
 21 22  2  0
 15 23  1  0
 23 24  1  0
 10 25  2  0
 25 26  1  0
  7  2  1  0
 26  8  1  0
 24 12  1  0
 22 17  1  0
  1 27  1  0
  1 28  1  0
  1 29  1  0
  3 30  1  0
  4 31  1  0
  5 32  1  0
  6 33  1  0
 11 34  1  0
 11 35  1  0
 12 36  1  0
 13 37  1  0
 13 38  1  0
 14 39  1  0
 14 40  1  0
 16 41  1  0
 16 42  1  0
 18 43  1  0
 19 44  1  0
 20 45  1  0
 21 46  1  0
 22 47  1  0
 23 48  1  0
 23 49  1  0
 24 50  1  0
 24 51  1  0
 25 52  1  0
M  CHG  1  12   1
M  END
>  <UniqueID>  (4) 
3

>  <SMILES>  (4) 
Cc1ccccc1-c1nc(C[NH+]2CCN(Cc3ccccc3)CC2)co1

>  <Energy>  (4) 
101.45867654774226

>  <Genealogy>  (4) 
Cc1ccccc1-c1nc(C[NH+]2CCN(Cc3ccccc3)CC2)co1 (protonated)
Cc1ccccc1-c1nc(C[NH+]2CCN(Cc3ccccc3)CC2)co1 (3D coordinates assigned)
Cc1ccccc1-c1nc(C[NH+]2CCN(Cc3ccccc3)CC2)co1 (nonaromatic ring conformer: 101.45867654774226 kcal/mol)

>  <smiles>  (4) 
Cc1ccccc1-c1nc(CN2CCN(Cc3ccccc3)CC2)co1

>  <score_type>  (4) 
oracle

>  <origin>  (4) 
adg

>  <m_score__min__energy>  (4) 
-8.6999999999999993

>  <m_primary>  (4) 
energy

$$$$
4:0
     RDKit          3D

 45 46  0  0  0  0  0  0  0  0999 V2000
   -3.0550   21.6360  -30.9740 C   0  0  0  0  0  0  0  0  0  0  0  0
   -4.3450   21.5290  -31.6600 N   0  0  0  0  0  0  0  0  0  0  0  0
   -4.5790   22.6300  -32.6070 C   0  0  0  0  0  0  0  0  0  0  0  0
   -5.8670   23.4560  -32.3400 C   0  0  0  0  0  0  0  0  0  0  0  0
   -6.7680   22.9390  -31.2830 N   0  0  0  0  0  0  0  0  0  0  0  0
   -6.8820   23.8130  -30.1040 C   0  0  0  0  0  0  0  0  0  0  0  0
   -8.0770   22.4500  -31.7630 C   0  0  0  0  0  0  0  0  0  0  0  0
   -8.0160   20.9590  -31.9430 C   0  0  0  0  0  0  0  0  0  0  0  0
   -9.1160   20.1620  -31.5900 C   0  0  0  0  0  0  0  0  0  0  0  0
   -9.0720   18.7790  -31.7800 C   0  0  0  0  0  0  0  0  0  0  0  0
   -7.9400   18.1830  -32.3420 C   0  0  0  0  0  0  0  0  0  0  0  0
   -6.8460   18.9690  -32.7310 C   0  0  0  0  0  0  0  0  0  0  0  0
   -5.6890   18.3470  -33.3160 N   0  0  0  0  0  0  0  0  0  0  0  0
   -4.4750   18.8750  -33.2760 N   0  0  0  0  0  0  0  0  0  0  0  0
   -3.6250   18.0460  -33.9120 C   0  0  0  0  0  0  0  0  0  0  0  0
   -2.1810   18.3390  -34.1490 C   0  0  0  0  0  0  0  0  0  0  0  0
   -4.3220   16.9490  -34.3870 C   0  0  0  0  0  0  0  0  0  0  0  0
   -5.6250   17.1640  -33.9730 C   0  0  0  0  0  0  0  0  0  0  0  0
   -6.7700   16.2290  -34.2170 C   0  0  0  0  0  0  0  0  0  0  0  0
   -6.8840   20.3570  -32.5150 C   0  0  0  0  0  0  0  0  0  0  0  0
   -3.2161   21.6226  -29.8859 H   0  0  0  0  0  0  0  0  0  0  0  0
   -2.4159   20.7878  -31.2605 H   0  0  0  0  0  0  0  0  0  0  0  0
   -2.5644   22.5779  -31.2605 H   0  0  0  0  0  0  0  0  0  0  0  0
   -5.1140   21.4700  -30.9590 H   0  0  0  0  0  0  0  0  0  0  0  0
   -3.7181   23.3129  -32.5573 H   0  0  0  0  0  0  0  0  0  0  0  0
   -4.7082   22.1658  -33.5958 H   0  0  0  0  0  0  0  0  0  0  0  0
   -5.5603   24.4724  -32.0521 H   0  0  0  0  0  0  0  0  0  0  0  0
   -6.4479   23.4057  -33.2728 H   0  0  0  0  0  0  0  0  0  0  0  0
   -6.8030   23.2070  -29.1894 H   0  0  0  0  0  0  0  0  0  0  0  0
   -6.0735   24.5587  -30.1208 H   0  0  0  0  0  0  0  0  0  0  0  0
   -7.8547   24.3264  -30.1208 H   0  0  0  0  0  0  0  0  0  0  0  0
   -8.8548   22.6994  -31.0263 H   0  0  0  0  0  0  0  0  0  0  0  0
   -8.3181   22.9272  -32.7243 H   0  0  0  0  0  0  0  0  0  0  0  0
  -10.0158   20.6282  -31.1622 H   0  0  0  0  0  0  0  0  0  0  0  0
   -9.9307   18.1574  -31.4865 H   0  0  0  0  0  0  0  0  0  0  0  0
   -7.9070   17.0922  -32.4799 H   0  0  0  0  0  0  0  0  0  0  0  0
   -4.2340   19.7950  -32.8460 H   0  0  0  0  0  0  0  0  0  0  0  0
   -1.6648   18.4437  -33.1833 H   0  0  0  0  0  0  0  0  0  0  0  0
   -1.7283   17.5144  -34.7192 H   0  0  0  0  0  0  0  0  0  0  0  0
   -2.0855   19.2748  -34.7192 H   0  0  0  0  0  0  0  0  0  0  0  0
   -3.9292   16.0984  -34.9633 H   0  0  0  0  0  0  0  0  0  0  0  0
   -7.1810   15.8934  -33.2535 H   0  0  0  0  0  0  0  0  0  0  0  0
   -7.5529   16.7493  -34.7883 H   0  0  0  0  0  0  0  0  0  0  0  0
   -6.4167   15.3579  -34.7883 H   0  0  0  0  0  0  0  0  0  0  0  0
   -6.0199   20.9768  -32.7963 H   0  0  0  0  0  0  0  0  0  0  0  0
  1  2  1  0
  2  3  1  0
  3  4  1  0
  4  5  1  0
  5  6  1  0
  5  7  1  0
  7  8  1  0
  8  9  2  0
  9 10  1  0
 10 11  2  0
 11 12  1  0
 12 13  1  0
 13 14  1  0
 14 15  2  0
 15 16  1  0
 15 17  1  0
 17 18  2  0
 18 19  1  0
 12 20  2  0
 20  8  1  0
 18 13  1  0
  1 21  1  0
  1 22  1  0
  1 23  1  0
  2 24  1  0
  3 25  1  0
  3 26  1  0
  4 27  1  0
  4 28  1  0
  6 29  1  0
  6 30  1  0
  6 31  1  0
  7 32  1  0
  7 33  1  0
  9 34  1  0
 10 35  1  0
 11 36  1  0
 14 37  1  0
 16 38  1  0
 16 39  1  0
 16 40  1  0
 17 41  1  0
 19 42  1  0
 19 43  1  0
 19 44  1  0
 20 45  1  0
M  CHG  1  14   1
M  END
>  <UniqueID>  (5) 
4

>  <SMILES>  (5) 
CNCCN(C)Cc1cccc(-n2[nH+]c(C)cc2C)c1

>  <Energy>  (5) 
83.85785422002115

>  <Genealogy>  (5) 
CNCCN(C)Cc1cccc(-n2[nH+]c(C)cc2C)c1 (protonated)
CNCCN(C)Cc1cccc(-n2[nH+]c(C)cc2C)c1 (3D coordinates assigned)
CNCCN(C)Cc1cccc(-n2[nH+]c(C)cc2C)c1 (optimized conformer: 83.85785422002115 kcal/mol)

>  <smiles>  (5) 
CNCCN(C)Cc1cccc(-n2nc(C)cc2C)c1

>  <score_type>  (5) 
oracle

>  <origin>  (5) 
adg

>  <m_score__min__energy>  (5) 
-7.5199999999999996

>  <m_primary>  (5) 
energy

$$$$
5:0
     RDKit          3D

 41 43  0  0  0  0  0  0  0  0999 V2000
   -3.6800   21.5590  -33.3110 C   0  0  0  0  0  0  0  0  0  0  0  0
   -4.4990   20.9490  -32.3180 O   0  0  0  0  0  0  0  0  0  0  0  0
   -5.8400   21.2840  -32.0700 C   0  0  0  0  0  0  0  0  0  0  0  0
   -6.8950   20.5310  -32.6250 C   0  0  0  0  0  0  0  0  0  0  0  0
   -8.2240   20.8740  -32.3700 C   0  0  0  0  0  0  0  0  0  0  0  0
   -8.5200   21.9690  -31.5600 C   0  0  0  0  0  0  0  0  0  0  0  0
   -9.8130   22.2990  -31.3160 F   0  0  0  0  0  0  0  0  0  0  0  0
   -7.4890   22.7260  -31.0020 C   0  0  0  0  0  0  0  0  0  0  0  0
   -6.1410   22.3980  -31.2470 C   0  0  0  0  0  0  0  0  0  0  0  0
   -5.0760   23.2300  -30.6330 C   0  0  0  0  0  0  0  0  0  0  0  0
   -4.6080   24.3810  -31.1590 N   0  0  0  0  0  0  0  0  0  0  0  0
   -3.6980   24.7900  -30.3290 O   0  0  0  0  0  0  0  0  0  0  0  0
   -3.5990   23.9440  -29.3350 C   0  0  0  0  0  0  0  0  0  0  0  0
   -2.6360   24.0950  -28.1910 C   0  0  0  0  0  0  0  0  0  0  0  0
   -1.3490   24.8380  -28.6400 C   0  0  0  0  0  0  0  0  0  0  0  0
   -1.2360   26.2450  -28.0440 C   0  0  0  0  0  0  0  0  0  0  0  0
   -1.3460   26.1820  -26.5780 N   0  0  0  0  0  0  0  0  0  0  0  0
   -0.5280   27.0390  -25.7520 C   0  0  0  0  0  0  0  0  0  0  0  0
   -0.4540   26.8540  -24.2660 C   0  0  0  0  0  0  0  0  0  0  0  0
    0.1240   27.9840  -26.2740 O   0  0  0  0  0  0  0  0  0  0  0  0
   -2.3410   25.2880  -25.9610 C   0  0  0  0  0  0  0  0  0  0  0  0
   -3.3450   24.7670  -26.9960 C   0  0  0  0  0  0  0  0  0  0  0  0
   -4.4580   22.9160  -29.4730 N   0  0  0  0  0  0  0  0  0  0  0  0
   -2.8893   22.1479  -32.8231 H   0  0  0  0  0  0  0  0  0  0  0  0
   -3.2226   20.7798  -33.9384 H   0  0  0  0  0  0  0  0  0  0  0  0
   -4.2956   22.2204  -33.9384 H   0  0  0  0  0  0  0  0  0  0  0  0
   -6.6688   19.6653  -33.2648 H   0  0  0  0  0  0  0  0  0  0  0  0
   -9.0387   20.2793  -32.8089 H   0  0  0  0  0  0  0  0  0  0  0  0
   -7.7315   23.5884  -30.3637 H   0  0  0  0  0  0  0  0  0  0  0  0
   -2.3050   23.1016  -27.8538 H   0  0  0  0  0  0  0  0  0  0  0  0
   -0.4751   24.2505  -28.3219 H   0  0  0  0  0  0  0  0  0  0  0  0
   -1.3933   24.9447  -29.7339 H   0  0  0  0  0  0  0  0  0  0  0  0
   -0.2632   26.6793  -28.3178 H   0  0  0  0  0  0  0  0  0  0  0  0
   -2.0493   26.8708  -28.4401 H   0  0  0  0  0  0  0  0  0  0  0  0
   -0.8177   27.7631  -23.7648 H   0  0  0  0  0  0  0  0  0  0  0  0
   -1.0789   25.9980  -23.9715 H   0  0  0  0  0  0  0  0  0  0  0  0
    0.5889   26.6651  -23.9715 H   0  0  0  0  0  0  0  0  0  0  0  0
   -1.8199   24.4327  -25.5062 H   0  0  0  0  0  0  0  0  0  0  0  0
   -2.8937   25.8588  -25.2002 H   0  0  0  0  0  0  0  0  0  0  0  0
   -4.0051   24.0312  -26.5134 H   0  0  0  0  0  0  0  0  0  0  0  0
   -3.9210   25.6235  -27.3764 H   0  0  0  0  0  0  0  0  0  0  0  0
  1  2  1  0
  2  3  1  0
  3  4  2  0
  4  5  1  0
  5  6  2  0
  6  7  1  0
  6  8  1  0
  8  9  2  0
  9 10  1  0
 10 11  2  0
 11 12  1  0
 12 13  1  0
 13 14  1  0
 14 15  1  0
 15 16  1  0
 16 17  1  0
 17 18  1  0
 18 19  1  0
 18 20  2  0
 17 21  1  0
 21 22  1  0
 13 23  2  0
  9  3  1  0
 23 10  1  0
 22 14  1  0
  1 24  1  0
  1 25  1  0
  1 26  1  0
  4 27  1  0
  5 28  1  0
  8 29  1  0
 14 30  1  0
 15 31  1  0
 15 32  1  0
 16 33  1  0
 16 34  1  0
 19 35  1  0
 19 36  1  0
 19 37  1  0
 21 38  1  0
 21 39  1  0
 22 40  1  0
 22 41  1  0
M  END
>  <UniqueID>  (6) 
5

>  <SMILES>  (6) 
COc1ccc(F)cc1-c1noc(C2CCN(C(C)=O)CC2)n1

>  <Energy>  (6) 
77.19917282369106

>  <Genealogy>  (6) 
COc1ccc(F)cc1-c1noc(C2CCN(C(C)=O)CC2)n1 (3D coordinates assigned)
COc1ccc(F)cc1-c1noc(C2CCN(C(C)=O)CC2)n1 (nonaromatic ring conformer: 77.19917282369106 kcal/mol)

>  <smiles>  (6) 
COc1ccc(F)cc1-c1noc(C2CCN(C(C)=O)CC2)n1

>  <score_type>  (6) 
oracle

>  <origin>  (6) 
adg

>  <m_score__min__energy>  (6) 
-8.1899999999999995

>  <m_primary>  (6) 
energy

$$$$
6:0
     RDKit          3D

 38 39  0  0  0  0  0  0  0  0999 V2000
   -7.7250   18.6870  -31.8500 C   0  0  0  0  0  0  0  0  0  0  0  0
   -8.0380   20.0460  -32.4660 C   0  0  0  0  0  0  0  0  0  0  0  0
   -7.1800   21.0860  -31.8780 N   0  0  0  0  0  0  0  0  0  0  0  0
   -7.7350   21.9860  -30.8540 C   0  0  0  0  0  0  0  0  0  0  0  0
   -9.2570   21.9040  -30.8340 C   0  0  0  0  0  0  0  0  0  0  0  0
   -5.8290   21.2510  -32.3620 C   0  0  0  0  0  0  0  0  0  0  0  0
   -5.5050   20.7920  -33.4910 O   0  0  0  0  0  0  0  0  0  0  0  0
   -4.7920   21.9290  -31.5450 C   0  0  0  0  0  0  0  0  0  0  0  0
   -4.8430   23.3250  -31.3270 C   0  0  0  0  0  0  0  0  0  0  0  0
   -5.9640   24.1630  -31.9040 C   0  0  0  0  0  0  0  0  0  0  0  0
   -3.8370   23.9300  -30.6300 N   0  0  0  0  0  0  0  0  0  0  0  0
   -3.8530   25.3010  -30.4720 O   0  0  0  0  0  0  0  0  0  0  0  0
   -2.8230   23.2000  -30.0780 C   0  0  0  0  0  0  0  0  0  0  0  0
   -1.8190   23.8280  -29.3150 C   0  0  0  0  0  0  0  0  0  0  0  0
   -0.8020   23.0780  -28.7250 C   0  0  0  0  0  0  0  0  0  0  0  0
    0.4380   23.8740  -27.7730 Cl  0  0  0  0  0  0  0  0  0  0  0  0
   -0.7800   21.6940  -28.8780 C   0  0  0  0  0  0  0  0  0  0  0  0
   -1.7610   21.0520  -29.6360 C   0  0  0  0  0  0  0  0  0  0  0  0
   -2.7840   21.7950  -30.2690 C   0  0  0  0  0  0  0  0  0  0  0  0
   -3.7500   21.1980  -31.0440 N   0  0  0  0  0  0  0  0  0  0  0  0
   -3.6840   19.8580  -31.3980 O   0  0  0  0  0  0  0  0  0  0  0  0
   -7.7438   18.7685  -30.7532 H   0  0  0  0  0  0  0  0  0  0  0  0
   -8.4779   17.9544  -32.1762 H   0  0  0  0  0  0  0  0  0  0  0  0
   -6.7275   18.3576  -32.1762 H   0  0  0  0  0  0  0  0  0  0  0  0
   -7.8616   20.0014  -33.5508 H   0  0  0  0  0  0  0  0  0  0  0  0
   -9.0901   20.2954  -32.2638 H   0  0  0  0  0  0  0  0  0  0  0  0
   -7.3445   21.6954  -29.8676 H   0  0  0  0  0  0  0  0  0  0  0  0
   -7.4391   23.0184  -31.0919 H   0  0  0  0  0  0  0  0  0  0  0  0
   -9.6095   21.8850  -29.7922 H   0  0  0  0  0  0  0  0  0  0  0  0
   -9.6782   22.7808  -31.3477 H   0  0  0  0  0  0  0  0  0  0  0  0
   -9.5816   20.9871  -31.3477 H   0  0  0  0  0  0  0  0  0  0  0  0
   -6.5521   24.6026  -31.0849 H   0  0  0  0  0  0  0  0  0  0  0  0
   -5.5395   24.9670  -32.5232 H   0  0  0  0  0  0  0  0  0  0  0  0
   -6.6150   23.5283  -32.5232 H   0  0  0  0  0  0  0  0  0  0  0  0
   -1.8374   24.9199  -29.1834 H   0  0  0  0  0  0  0  0  0  0  0  0
    0.0148   21.1033  -28.3989 H   0  0  0  0  0  0  0  0  0  0  0  0
   -1.7379   19.9573  -29.7418 H   0  0  0  0  0  0  0  0  0  0  0  0
   -4.1570   19.4610  -32.1960 H   0  0  0  0  0  0  0  0  0  0  0  0
  1  2  1  0
  2  3  1  0
  3  4  1  0
  4  5  1  0
  3  6  1  0
  6  7  2  0
  6  8  1  0
  8  9  2  0
  9 10  1  0
  9 11  1  0
 11 12  1  0
 11 13  2  0
 13 14  1  0
 14 15  2  0
 15 16  1  0
 15 17  1  0
 17 18  2  0
 18 19  1  0
 19 20  2  0
 20 21  1  0
 20  8  1  0
 19 13  1  0
  1 22  1  0
  1 23  1  0
  1 24  1  0
  2 25  1  0
  2 26  1  0
  4 27  1  0
  4 28  1  0
  5 29  1  0
  5 30  1  0
  5 31  1  0
 10 32  1  0
 10 33  1  0
 10 34  1  0
 14 35  1  0
 17 36  1  0
 18 37  1  0
 21 38  1  0
M  CHG  3  11   1  12  -1  20   1
M  END
>  <UniqueID>  (7) 
6

>  <SMILES>  (7) 
CCN(CC)C(=O)c1c(C)[n+]([O-])c2cc(Cl)ccc2[n+]1O

>  <Energy>  (7) 
49.56501577570674

>  <Genealogy>  (7) 
CCN(CC)C(=O)c1c(C)[n+]([O-])c2cc(Cl)ccc2[n+]1O (protonated)
CCN(CC)C(=O)c1c(C)[n+]([O-])c2cc(Cl)ccc2[n+]1O (3D coordinates assigned)
CCN(CC)C(=O)c1c(C)[n+]([O-])c2cc(Cl)ccc2[n+]1O (optimized conformer: 49.56501577570674 kcal/mol)

>  <smiles>  (7) 
CCN(CC)C(=O)c1c(C)[n+]([O-])c2cc(Cl)ccc2[n+]1[O-]

>  <score_type>  (7) 
oracle

>  <origin>  (7) 
adg

>  <m_score__min__energy>  (7) 
-6.7999999999999998

>  <m_primary>  (7) 
energy

$$$$
7:0
     RDKit          3D

 46 48  0  0  0  0  0  0  0  0999 V2000
   -4.6810   17.6620  -34.9260 C   0  0  0  0  0  0  0  0  0  0  0  0
   -5.5000   18.8060  -34.7060 O   0  0  0  0  0  0  0  0  0  0  0  0
   -6.4830   18.8970  -33.7100 C   0  0  0  0  0  0  0  0  0  0  0  0
   -6.7920   17.7480  -32.9730 C   0  0  0  0  0  0  0  0  0  0  0  0
   -7.7530   17.7930  -31.9600 C   0  0  0  0  0  0  0  0  0  0  0  0
   -8.4190   18.9880  -31.6750 C   0  0  0  0  0  0  0  0  0  0  0  0
   -8.1370   20.1450  -32.4170 C   0  0  0  0  0  0  0  0  0  0  0  0
   -8.8170   21.4460  -32.0860 C   0  0  0  0  0  0  0  0  0  0  0  0
   -8.3100   21.9590  -30.8080 N   0  0  0  0  0  0  0  0  0  0  0  0
   -6.8510   21.8200  -30.7470 C   0  0  0  0  0  0  0  0  0  0  0  0
   -6.2060   23.1840  -30.6920 C   0  0  0  0  0  0  0  0  0  0  0  0
   -6.9110   24.2620  -30.1370 C   0  0  0  0  0  0  0  0  0  0  0  0
   -6.3100   25.5160  -30.0330 C   0  0  0  0  0  0  0  0  0  0  0  0
   -4.9970   25.6840  -30.4710 C   0  0  0  0  0  0  0  0  0  0  0  0
   -4.3140   24.6320  -30.9920 N   0  0  0  0  0  0  0  0  0  0  0  0
   -4.8740   23.3970  -31.1140 C   0  0  0  0  0  0  0  0  0  0  0  0
   -4.0880   22.3260  -31.6510 N   0  0  0  0  0  0  0  0  0  0  0  0
   -2.8830   21.8950  -30.9380 C   0  0  0  0  0  0  0  0  0  0  0  0
   -2.5780   20.4070  -31.2280 C   0  0  0  0  0  0  0  0  0  0  0  0
   -3.4050   19.8430  -32.2340 O   0  0  0  0  0  0  0  0  0  0  0  0
   -3.4430   20.6900  -33.3640 C   0  0  0  0  0  0  0  0  0  0  0  0
   -4.2810   21.9310  -33.0480 C   0  0  0  0  0  0  0  0  0  0  0  0
   -7.1600   20.0990  -33.4260 C   0  0  0  0  0  0  0  0  0  0  0  0
   -4.3769   17.2372  -33.9580 H   0  0  0  0  0  0  0  0  0  0  0  0
   -5.2470   16.9098  -35.4950 H   0  0  0  0  0  0  0  0  0  0  0  0
   -3.7865   17.9554  -35.4950 H   0  0  0  0  0  0  0  0  0  0  0  0
   -6.2744   16.8026  -33.1930 H   0  0  0  0  0  0  0  0  0  0  0  0
   -7.9862   16.8848  -31.3848 H   0  0  0  0  0  0  0  0  0  0  0  0
   -9.1655   19.0217  -30.8677 H   0  0  0  0  0  0  0  0  0  0  0  0
   -8.6119   22.1782  -32.8809 H   0  0  0  0  0  0  0  0  0  0  0  0
   -9.9015   21.2799  -32.0069 H   0  0  0  0  0  0  0  0  0  0  0  0
   -8.7190   21.3690  -30.0470 H   0  0  0  0  0  0  0  0  0  0  0  0
   -6.5763   21.2502  -29.8470 H   0  0  0  0  0  0  0  0  0  0  0  0
   -6.5002   21.2898  -31.6447 H   0  0  0  0  0  0  0  0  0  0  0  0
   -7.9422   24.1177  -29.7823 H   0  0  0  0  0  0  0  0  0  0  0  0
   -6.8667   26.3649  -29.6093 H   0  0  0  0  0  0  0  0  0  0  0  0
   -4.5139   26.6693  -30.3945 H   0  0  0  0  0  0  0  0  0  0  0  0
   -2.0309   22.5086  -31.2657 H   0  0  0  0  0  0  0  0  0  0  0  0
   -3.0490   22.0175  -29.8575 H   0  0  0  0  0  0  0  0  0  0  0  0
   -1.5301   20.3236  -31.5521 H   0  0  0  0  0  0  0  0  0  0  0  0
   -2.7744   19.8506  -30.2996 H   0  0  0  0  0  0  0  0  0  0  0  0
   -2.4196   20.9965  -33.6263 H   0  0  0  0  0  0  0  0  0  0  0  0
   -3.8942   20.1504  -34.2097 H   0  0  0  0  0  0  0  0  0  0  0  0
   -3.9711   22.7565  -33.7057 H   0  0  0  0  0  0  0  0  0  0  0  0
   -5.3436   21.6997  -33.2133 H   0  0  0  0  0  0  0  0  0  0  0  0
   -6.9223   21.0080  -33.9980 H   0  0  0  0  0  0  0  0  0  0  0  0
  1  2  1  0
  2  3  1  0
  3  4  2  0
  4  5  1  0
  5  6  2  0
  6  7  1  0
  7  8  1  0
  8  9  1  0
  9 10  1  0
 10 11  1  0
 11 12  2  0
 12 13  1  0
 13 14  2  0
 14 15  1  0
 15 16  2  0
 16 17  1  0
 17 18  1  0
 18 19  1  0
 19 20  1  0
 20 21  1  0
 21 22  1  0
  7 23  2  0
 23  3  1  0
 16 11  1  0
 22 17  1  0
  1 24  1  0
  1 25  1  0
  1 26  1  0
  4 27  1  0
  5 28  1  0
  6 29  1  0
  8 30  1  0
  8 31  1  0
  9 32  1  0
 10 33  1  0
 10 34  1  0
 12 35  1  0
 13 36  1  0
 14 37  1  0
 18 38  1  0
 18 39  1  0
 19 40  1  0
 19 41  1  0
 21 42  1  0
 21 43  1  0
 22 44  1  0
 22 45  1  0
 23 46  1  0
M  END
>  <UniqueID>  (8) 
7

>  <SMILES>  (8) 
COc1cccc(CNCc2cccnc2N2CCOCC2)c1

>  <Energy>  (8) 
55.52122286362941

>  <Genealogy>  (8) 
COc1cccc(CNCc2cccnc2N2CCOCC2)c1 (3D coordinates assigned)
COc1cccc(CNCc2cccnc2N2CCOCC2)c1 (nonaromatic ring conformer: 55.52122286362941 kcal/mol)

>  <smiles>  (8) 
COc1cccc(CNCc2cccnc2N2CCOCC2)c1

>  <score_type>  (8) 
oracle

>  <origin>  (8) 
adg

>  <m_score__min__energy>  (8) 
-8.1099999999999994

>  <m_primary>  (8) 
energy

$$$$
8:0
     RDKit          3D

 66 70  0  0  0  0  0  0  0  0999 V2000
   -8.9570   18.4530  -31.5970 C   0  0  0  0  0  0  0  0  0  0  0  0
   -9.3460   19.3310  -32.6300 O   0  0  0  0  0  0  0  0  0  0  0  0
   -8.2840   20.2080  -32.9660 C   0  0  1  0  0  0  0  0  0  0  0  0
   -8.3010   21.4550  -32.0230 C   0  0  0  0  0  0  0  0  0  0  0  0
   -7.3810   21.3050  -30.8590 N   0  0  2  0  0  0  0  0  0  0  0  0
   -7.4990   22.4550  -29.9300 C   0  0  0  0  0  0  0  0  0  0  0  0
   -6.3670   23.4430  -30.1000 C   0  0  0  0  0  0  0  0  0  0  0  0
   -6.4550   24.4540  -31.0650 C   0  0  0  0  0  0  0  0  0  0  0  0
   -5.4000   25.3530  -31.2150 C   0  0  0  0  0  0  0  0  0  0  0  0
   -4.2930   25.2420  -30.4380 N   0  0  0  0  0  0  0  0  0  0  0  0
   -4.1610   24.2650  -29.4960 C   0  0  0  0  0  0  0  0  0  0  0  0
   -2.9190   24.2020  -28.6850 C   0  0  0  0  0  0  0  0  0  0  0  0
   -1.6460   24.1900  -29.2900 C   0  0  0  0  0  0  0  0  0  0  0  0
   -0.4890   24.1390  -28.5060 C   0  0  0  0  0  0  0  0  0  0  0  0
   -0.5850   24.1060  -27.1150 C   0  0  0  0  0  0  0  0  0  0  0  0
   -1.8400   24.1290  -26.5010 C   0  0  0  0  0  0  0  0  0  0  0  0
   -3.0000   24.1810  -27.2790 C   0  0  0  0  0  0  0  0  0  0  0  0
   -5.2130   23.3500  -29.3080 C   0  0  0  0  0  0  0  0  0  0  0  0
   -5.9550   21.1410  -31.2780 C   0  0  0  0  0  0  0  0  0  0  0  0
   -5.8210   20.4240  -32.6370 C   0  0  2  0  0  0  0  0  0  0  0  0
   -6.9570   19.4480  -32.7990 C   0  0  2  0  0  0  0  0  0  0  0  0
   -6.4850   18.5900  -33.9510 C   0  0  0  0  0  0  0  0  0  0  0  0
   -4.9600   18.5770  -33.7720 C   0  0  0  0  0  0  0  0  0  0  0  0
   -4.6060   19.6180  -32.7790 N   0  0  0  0  0  0  0  0  0  0  0  0
   -3.4560   20.4400  -33.2060 C   0  0  0  0  0  0  0  0  0  0  0  0
   -2.4910   20.6160  -32.0640 C   0  0  0  0  0  0  0  0  0  0  0  0
   -1.1090   20.6760  -32.2970 C   0  0  0  0  0  0  0  0  0  0  0  0
   -0.2190   20.8140  -31.2270 C   0  0  0  0  0  0  0  0  0  0  0  0
   -0.7010   20.9010  -29.9120 C   0  0  0  0  0  0  0  0  0  0  0  0
    0.2570   21.0070  -28.7630 C   0  0  0  0  0  0  0  0  0  0  0  0
   -2.0820   20.8140  -29.6770 C   0  0  0  0  0  0  0  0  0  0  0  0
   -2.9710   20.6770  -30.7460 C   0  0  0  0  0  0  0  0  0  0  0  0
   -9.1636   18.9192  -30.6223 H   0  0  0  0  0  0  0  0  0  0  0  0
   -9.5232   17.5137  -31.6815 H   0  0  0  0  0  0  0  0  0  0  0  0
   -7.8809   18.2413  -31.6815 H   0  0  0  0  0  0  0  0  0  0  0  0
   -8.3964   20.5529  -34.0045 H   0  0  0  0  0  0  0  0  0  0  0  0
   -7.9956   22.3390  -32.6020 H   0  0  0  0  0  0  0  0  0  0  0  0
   -9.3226   21.5616  -31.6293 H   0  0  0  0  0  0  0  0  0  0  0  0
   -7.6610   20.4410  -30.3360 H   0  0  0  0  0  0  0  0  0  0  0  0
   -8.4514   22.9704  -30.1230 H   0  0  0  0  0  0  0  0  0  0  0  0
   -7.4567   22.0654  -28.9022 H   0  0  0  0  0  0  0  0  0  0  0  0
   -7.3495   24.5382  -31.6997 H   0  0  0  0  0  0  0  0  0  0  0  0
   -5.4651   26.1547  -31.9654 H   0  0  0  0  0  0  0  0  0  0  0  0
   -1.5620   24.2210  -30.3863 H   0  0  0  0  0  0  0  0  0  0  0  0
    0.4997   24.1249  -28.9879 H   0  0  0  0  0  0  0  0  0  0  0  0
    0.3269   24.0619  -26.5015 H   0  0  0  0  0  0  0  0  0  0  0  0
   -1.9151   24.1061  -25.4038 H   0  0  0  0  0  0  0  0  0  0  0  0
   -3.9846   24.2057  -26.7891 H   0  0  0  0  0  0  0  0  0  0  0  0
   -5.1309   22.5643  -28.5425 H   0  0  0  0  0  0  0  0  0  0  0  0
   -5.4930   22.1362  -31.3564 H   0  0  0  0  0  0  0  0  0  0  0  0
   -5.4517   20.5219  -30.5208 H   0  0  0  0  0  0  0  0  0  0  0  0
   -5.8082   21.2323  -33.3830 H   0  0  0  0  0  0  0  0  0  0  0  0
   -7.1864   18.8009  -31.9396 H   0  0  0  0  0  0  0  0  0  0  0  0
   -6.8995   17.5734  -33.8822 H   0  0  0  0  0  0  0  0  0  0  0  0
   -6.8023   18.9710  -34.9329 H   0  0  0  0  0  0  0  0  0  0  0  0
   -4.6351   17.5903  -33.4102 H   0  0  0  0  0  0  0  0  0  0  0  0
   -4.4612   18.7791  -34.7314 H   0  0  0  0  0  0  0  0  0  0  0  0
   -2.9431   19.9413  -34.0417 H   0  0  0  0  0  0  0  0  0  0  0  0
   -3.8194   21.4281  -33.5247 H   0  0  0  0  0  0  0  0  0  0  0  0
   -0.7237   20.6143  -33.3255 H   0  0  0  0  0  0  0  0  0  0  0  0
    0.8637   20.8545  -31.4171 H   0  0  0  0  0  0  0  0  0  0  0  0
   -0.2985   20.9455  -27.8156 H   0  0  0  0  0  0  0  0  0  0  0  0
    0.9849   20.1839  -28.8153 H   0  0  0  0  0  0  0  0  0  0  0  0
    0.7873   21.9693  -28.8153 H   0  0  0  0  0  0  0  0  0  0  0  0
   -2.4659   20.8538  -28.6469 H   0  0  0  0  0  0  0  0  0  0  0  0
   -4.0524   20.6166  -30.5541 H   0  0  0  0  0  0  0  0  0  0  0  0
  1  2  1  0
  2  3  1  0
  3  4  1  0
  4  5  1  0
  5  6  1  0
  6  7  1  0
  7  8  2  0
  8  9  1  0
  9 10  2  0
 10 11  1  0
 11 12  1  0
 12 13  2  0
 13 14  1  0
 14 15  2  0
 15 16  1  0
 16 17  2  0
 11 18  2  0
  5 19  1  0
 19 20  1  0
 20 21  1  0
 21 22  1  0
 22 23  1  0
 23 24  1  0
 24 25  1  0
 25 26  1  0
 26 27  2  0
 27 28  1  0
 28 29  2  0
 29 30  1  0
 29 31  1  0
 31 32  2  0
 21  3  1  0
 32 26  1  0
 18  7  1  0
 24 20  1  0
 17 12  1  0
  1 33  1  0
  1 34  1  0
  1 35  1  0
  3 36  1  6
  4 37  1  0
  4 38  1  0
  5 39  1  1
  6 40  1  0
  6 41  1  0
  8 42  1  0
  9 43  1  0
 13 44  1  0
 14 45  1  0
 15 46  1  0
 16 47  1  0
 17 48  1  0
 18 49  1  0
 19 50  1  0
 19 51  1  0
 20 52  1  6
 21 53  1  1
 22 54  1  0
 22 55  1  0
 23 56  1  0
 23 57  1  0
 25 58  1  0
 25 59  1  0
 27 60  1  0
 28 61  1  0
 30 62  1  0
 30 63  1  0
 30 64  1  0
 31 65  1  0
 32 66  1  0
M  CHG  1   5   1
M  END
>  <UniqueID>  (9) 
8

>  <SMILES>  (9) 
CO[C@H]1C[N@H+](Cc2ccnc(-c3ccccc3)c2)CC2C1CCN2Cc1ccc(C)cc1

>  <Energy>  (9) 
93.1491402704252

>  <Genealogy>  (9) 
COC1C[NH+](Cc2ccnc(-c3ccccc3)c2)CC2C1CCN2Cc1ccc(C)cc1 (protonated)
CO[C@H]1C[N@H+](Cc2ccnc(-c3ccccc3)c2)CC2C1CCN2Cc1ccc(C)cc1 (chirality)
CO[C@H]1C[N@H+](Cc2ccnc(-c3ccccc3)c2)CC2C1CCN2Cc1ccc(C)cc1 (3D coordinates assigned)
CO[C@H]1C[N@H+](Cc2ccnc(-c3ccccc3)c2)CC2C1CCN2Cc1ccc(C)cc1 (nonaromatic ring conformer: 93.1491402704252 kcal/mol)

>  <smiles>  (9) 
COC1CN(Cc2ccnc(-c3ccccc3)c2)CC2C1CCN2Cc1ccc(C)cc1

>  <score_type>  (9) 
oracle

>  <origin>  (9) 
adg

>  <m_score__min__energy>  (9) 
-9.6600000000000001

>  <m_primary>  (9) 
energy

$$$$
9:0
     RDKit          3D

 39 39  0  0  0  0  0  0  0  0999 V2000
   -1.6430   22.2950  -31.2730 C   0  0  0  0  0  0  0  0  0  0  0  0
   -2.2970   22.0530  -29.9370 C   0  0  0  0  0  0  0  0  0  0  0  0
   -2.3410   20.7460  -29.4260 C   0  0  0  0  0  0  0  0  0  0  0  0
   -2.9520   20.4850  -28.2020 C   0  0  0  0  0  0  0  0  0  0  0  0
   -3.5120   21.5230  -27.4610 C   0  0  0  0  0  0  0  0  0  0  0  0
   -3.4570   22.8450  -27.9300 C   0  0  0  0  0  0  0  0  0  0  0  0
   -4.0550   23.9380  -27.0800 C   0  0  0  0  0  0  0  0  0  0  0  0
   -2.8630   23.1160  -29.1890 C   0  0  0  0  0  0  0  0  0  0  0  0
   -2.8280   24.4950  -29.7150 C   0  0  0  0  0  0  0  0  0  0  0  0
   -1.9430   25.2970  -29.3130 O   0  0  0  0  0  0  0  0  0  0  0  0
   -3.7900   24.9080  -30.6890 N   0  0  0  0  0  0  0  0  0  0  0  0
   -5.1620   25.2490  -30.3430 C   0  0  0  0  0  0  0  0  0  0  0  0
   -5.9900   24.0020  -29.9590 C   0  0  0  0  0  0  0  0  0  0  0  0
   -6.3640   23.0670  -31.0720 N   0  0  0  0  0  0  0  0  0  0  0  0
   -6.6130   23.8070  -32.3340 C   0  0  0  0  0  0  0  0  0  0  0  0
   -5.3320   22.0280  -31.3000 C   0  0  0  0  0  0  0  0  0  0  0  0
   -7.6290   22.3880  -30.6920 C   0  0  0  0  0  0  0  0  0  0  0  0
   -0.6216   22.6729  -31.1182 H   0  0  0  0  0  0  0  0  0  0  0  0
   -1.6033   21.3520  -31.8380 H   0  0  0  0  0  0  0  0  0  0  0  0
   -2.2267   23.0367  -31.8380 H   0  0  0  0  0  0  0  0  0  0  0  0
   -1.8892   19.9215  -29.9970 H   0  0  0  0  0  0  0  0  0  0  0  0
   -2.9925   19.4547  -27.8188 H   0  0  0  0  0  0  0  0  0  0  0  0
   -4.0014   21.3050  -26.5003 H   0  0  0  0  0  0  0  0  0  0  0  0
   -3.9198   23.6910  -26.0167 H   0  0  0  0  0  0  0  0  0  0  0  0
   -3.5527   24.8912  -27.3017 H   0  0  0  0  0  0  0  0  0  0  0  0
   -5.1286   24.0290  -27.3017 H   0  0  0  0  0  0  0  0  0  0  0  0
   -5.1509   25.9440  -29.4905 H   0  0  0  0  0  0  0  0  0  0  0  0
   -5.6304   25.7089  -31.2257 H   0  0  0  0  0  0  0  0  0  0  0  0
   -5.4056   23.4280  -29.2249 H   0  0  0  0  0  0  0  0  0  0  0  0
   -6.9452   24.3965  -29.5822 H   0  0  0  0  0  0  0  0  0  0  0  0
   -6.9558   24.8257  -32.1002 H   0  0  0  0  0  0  0  0  0  0  0  0
   -5.6826   23.8583  -32.9186 H   0  0  0  0  0  0  0  0  0  0  0  0
   -7.3851   23.2855  -32.9186 H   0  0  0  0  0  0  0  0  0  0  0  0
   -4.9643   21.6578  -30.3317 H   0  0  0  0  0  0  0  0  0  0  0  0
   -5.7701   21.1946  -31.8688 H   0  0  0  0  0  0  0  0  0  0  0  0
   -4.4957   22.4605  -31.8688 H   0  0  0  0  0  0  0  0  0  0  0  0
   -7.7075   22.3459  -29.5956 H   0  0  0  0  0  0  0  0  0  0  0  0
   -8.4830   22.9490  -31.0995 H   0  0  0  0  0  0  0  0  0  0  0  0
   -7.6335   21.3663  -31.0995 H   0  0  0  0  0  0  0  0  0  0  0  0
  1  2  1  0
  2  3  2  0
  3  4  1  0
  4  5  2  0
  5  6  1  0
  6  7  1  0
  6  8  2  0
  8  9  1  0
  9 10  2  0
  9 11  1  0
 11 12  1  0
 12 13  1  0
 13 14  1  0
 14 15  1  0
 14 16  1  0
 14 17  1  0
  8  2  1  0
  1 18  1  0
  1 19  1  0
  1 20  1  0
  3 21  1  0
  4 22  1  0
  5 23  1  0
  7 24  1  0
  7 25  1  0
  7 26  1  0
 12 27  1  0
 12 28  1  0
 13 29  1  0
 13 30  1  0
 15 31  1  0
 15 32  1  0
 15 33  1  0
 16 34  1  0
 16 35  1  0
 16 36  1  0
 17 37  1  0
 17 38  1  0
 17 39  1  0
M  CHG  2  11  -1  14   1
M  END
>  <UniqueID>  (10) 
9

>  <SMILES>  (10) 
Cc1cccc(C)c1C(=O)[N-]CC[N+](C)(C)C

>  <Energy>  (10) 
49.1646588219537

>  <Genealogy>  (10) 
Cc1cccc(C)c1C(=O)[N-]CC[N+](C)(C)C (protonated)
Cc1cccc(C)c1C(=O)[N-]CC[N+](C)(C)C (3D coordinates assigned)
Cc1cccc(C)c1C(=O)[N-]CC[N+](C)(C)C (optimized conformer: 49.1646588219537 kcal/mol)

>  <smiles>  (10) 
Cc1cccc(C)c1C(=O)NCC[N+](C)(C)C

>  <score_type>  (10) 
oracle

>  <origin>  (10) 
adg

>  <m_score__min__energy>  (10) 
-6.4100000000000001

>  <m_primary>  (10) 
energy

$$$$
10:0
     RDKit          3D

 43 45  0  0  0  0  0  0  0  0999 V2000
   -3.6410   24.8590  -26.5220 C   0  0  0  0  0  0  0  0  0  0  0  0
   -4.2260   23.8010  -27.2730 O   0  0  0  0  0  0  0  0  0  0  0  0
   -3.5030   22.7920  -27.9320 C   0  0  0  0  0  0  0  0  0  0  0  0
   -3.4930   21.4640  -27.4670 C   0  0  0  0  0  0  0  0  0  0  0  0
   -2.7460   20.4910  -28.1280 C   0  0  0  0  0  0  0  0  0  0  0  0
   -1.9990   20.8240  -29.2580 C   0  0  0  0  0  0  0  0  0  0  0  0
   -1.9990   22.1440  -29.7470 C   0  0  0  0  0  0  0  0  0  0  0  0
   -1.2680   22.5110  -30.8900 O   0  0  0  0  0  0  0  0  0  0  0  0
   -0.8720   21.6100  -31.9190 C   0  0  0  0  0  0  0  0  0  0  0  0
   -2.7630   23.1250  -29.0840 C   0  0  0  0  0  0  0  0  0  0  0  0
   -2.7730   24.5120  -29.5890 C   0  0  0  0  0  0  0  0  0  0  0  0
   -2.1330   25.3980  -28.9650 O   0  0  0  0  0  0  0  0  0  0  0  0
   -3.4950   24.8800  -30.7720 N   0  0  0  0  0  0  0  0  0  0  0  0
   -4.9340   24.6940  -30.9690 C   0  0  2  0  0  0  0  0  0  0  0  0
   -5.6800   25.1410  -29.7000 C   0  0  0  0  0  0  0  0  0  0  0  0
   -7.1350   24.6820  -29.7310 C   0  0  0  0  0  0  0  0  0  0  0  0
   -7.2020   23.1540  -29.7310 C   0  0  0  0  0  0  0  0  0  0  0  0
   -6.3250   22.5470  -30.7970 C   0  0  0  0  0  0  0  0  0  0  0  0
   -6.5740   21.2260  -31.2050 C   0  0  0  0  0  0  0  0  0  0  0  0
   -5.7720   20.6200  -32.1740 C   0  0  0  0  0  0  0  0  0  0  0  0
   -4.7120   21.3230  -32.7430 C   0  0  0  0  0  0  0  0  0  0  0  0
   -4.4400   22.6310  -32.3360 C   0  0  0  0  0  0  0  0  0  0  0  0
   -5.2180   23.2490  -31.3380 C   0  0  0  0  0  0  0  0  0  0  0  0
   -3.7551   24.6527  -25.4476 H   0  0  0  0  0  0  0  0  0  0  0  0
   -2.5719   24.9364  -26.7690 H   0  0  0  0  0  0  0  0  0  0  0  0
   -4.1439   25.8056  -26.7690 H   0  0  0  0  0  0  0  0  0  0  0  0
   -4.0784   21.1923  -26.5763 H   0  0  0  0  0  0  0  0  0  0  0  0
   -2.7454   19.4555  -27.7570 H   0  0  0  0  0  0  0  0  0  0  0  0
   -1.4068   20.0510  -29.7697 H   0  0  0  0  0  0  0  0  0  0  0  0
   -0.4685   20.6919  -31.4671 H   0  0  0  0  0  0  0  0  0  0  0  0
   -1.7430   21.3597  -32.5424 H   0  0  0  0  0  0  0  0  0  0  0  0
   -0.0986   22.0824  -32.5424 H   0  0  0  0  0  0  0  0  0  0  0  0
   -5.2953   25.3151  -31.8019 H   0  0  0  0  0  0  0  0  0  0  0  0
   -5.1843   24.7064  -28.8194 H   0  0  0  0  0  0  0  0  0  0  0  0
   -5.6600   26.2397  -29.6503 H   0  0  0  0  0  0  0  0  0  0  0  0
   -7.6581   25.0695  -28.8443 H   0  0  0  0  0  0  0  0  0  0  0  0
   -7.6147   25.0643  -30.6441 H   0  0  0  0  0  0  0  0  0  0  0  0
   -6.8730   22.7847  -28.7485 H   0  0  0  0  0  0  0  0  0  0  0  0
   -8.2413   22.8608  -29.9404 H   0  0  0  0  0  0  0  0  0  0  0  0
   -7.4074   20.6646  -30.7575 H   0  0  0  0  0  0  0  0  0  0  0  0
   -5.9772   19.5861  -32.4887 H   0  0  0  0  0  0  0  0  0  0  0  0
   -4.0884   20.8470  -33.5140 H   0  0  0  0  0  0  0  0  0  0  0  0
   -3.6098   23.1840  -32.7996 H   0  0  0  0  0  0  0  0  0  0  0  0
  1  2  1  0
  2  3  1  0
  3  4  2  0
  4  5  1  0
  5  6  2  0
  6  7  1  0
  7  8  1  0
  8  9  1  0
  7 10  2  0
 10 11  1  0
 11 12  2  0
 11 13  1  0
 13 14  1  0
 14 15  1  0
 15 16  1  0
 16 17  1  0
 17 18  1  0
 18 19  2  0
 19 20  1  0
 20 21  2  0
 21 22  1  0
 22 23  2  0
 10  3  1  0
 23 14  1  0
 23 18  1  0
  1 24  1  0
  1 25  1  0
  1 26  1  0
  4 27  1  0
  5 28  1  0
  6 29  1  0
  9 30  1  0
  9 31  1  0
  9 32  1  0
 14 33  1  6
 15 34  1  0
 15 35  1  0
 16 36  1  0
 16 37  1  0
 17 38  1  0
 17 39  1  0
 19 40  1  0
 20 41  1  0
 21 42  1  0
 22 43  1  0
M  CHG  1  13  -1
M  END
>  <UniqueID>  (11) 
10

>  <SMILES>  (11) 
COc1cccc(OC)c1C(=O)[N-][C@@H]1CCCc2ccccc21

>  <Energy>  (11) 
48.53577388431545

>  <Genealogy>  (11) 
COc1cccc(OC)c1C(=O)[N-]C1CCCc2ccccc21 (protonated)
COc1cccc(OC)c1C(=O)[N-][C@@H]1CCCc2ccccc21 (chirality)
COc1cccc(OC)c1C(=O)[N-][C@@H]1CCCc2ccccc21 (3D coordinates assigned)
COc1cccc(OC)c1C(=O)[N-][C@@H]1CCCc2ccccc21 (nonaromatic ring conformer: 48.53577388431545 kcal/mol)

>  <smiles>  (11) 
COc1cccc(OC)c1C(=O)NC1CCCc2ccccc21

>  <score_type>  (11) 
oracle

>  <origin>  (11) 
adg

>  <m_score__min__energy>  (11) 
-8.9700000000000006

>  <m_primary>  (11) 
energy

$$$$
11:0
     RDKit          3D

 45 47  0  0  0  0  0  0  0  0999 V2000
    0.2980   23.6150  -26.1910 C   0  0  0  0  0  0  0  0  0  0  0  0
    0.9500   24.2180  -27.4340 C   0  0  0  0  0  0  0  0  0  0  0  0
    0.0190   24.2160  -28.5900 N   0  0  0  0  0  0  0  0  0  0  0  0
   -0.7220   22.9300  -28.6110 C   0  0  0  0  0  0  0  0  0  0  0  0
   -0.7840   22.3110  -30.0080 C   0  0  0  0  0  0  0  0  0  0  0  0
   -0.9070   25.3800  -28.5300 C   0  0  0  0  0  0  0  0  0  0  0  0
   -2.3690   24.9260  -28.4060 C   0  0  0  0  0  0  0  0  0  0  0  0
   -3.0940   25.1770  -29.6110 O   0  0  0  0  0  0  0  0  0  0  0  0
   -4.2260   24.4770  -30.0620 C   0  0  0  0  0  0  0  0  0  0  0  0
   -5.5430   24.8890  -29.7850 C   0  0  0  0  0  0  0  0  0  0  0  0
   -6.6290   24.1350  -30.2400 C   0  0  0  0  0  0  0  0  0  0  0  0
   -6.4220   22.9610  -30.9820 C   0  0  0  0  0  0  0  0  0  0  0  0
   -7.5370   22.1770  -31.4470 N   0  0  0  0  0  0  0  0  0  0  0  0
   -8.7820   22.6230  -31.7740 C   0  0  0  0  0  0  0  0  0  0  0  0
   -9.6000   21.6250  -32.1980 N   0  0  0  0  0  0  0  0  0  0  0  0
   -8.8320   20.5270  -32.1380 C   0  0  0  0  0  0  0  0  0  0  0  0
   -9.1250   19.2190  -32.4930 C   0  0  0  0  0  0  0  0  0  0  0  0
   -8.1260   18.2950  -32.3760 N   0  0  0  0  0  0  0  0  0  0  0  0
   -6.8760   18.6470  -31.9280 C   0  0  0  0  0  0  0  0  0  0  0  0
   -6.6000   19.9420  -31.5870 N   0  0  0  0  0  0  0  0  0  0  0  0
   -7.5980   20.8540  -31.6870 C   0  0  0  0  0  0  0  0  0  0  0  0
   -5.1060   22.5660  -31.2770 C   0  0  0  0  0  0  0  0  0  0  0  0
   -4.0220   23.3200  -30.8200 C   0  0  0  0  0  0  0  0  0  0  0  0
    0.7610   24.0432  -25.2898 H   0  0  0  0  0  0  0  0  0  0  0  0
   -0.7781   23.8432  -26.1941 H   0  0  0  0  0  0  0  0  0  0  0  0
    0.4416   22.5244  -26.1941 H   0  0  0  0  0  0  0  0  0  0  0  0
    1.2465   25.2545  -27.2153 H   0  0  0  0  0  0  0  0  0  0  0  0
    1.8269   23.6075  -27.6952 H   0  0  0  0  0  0  0  0  0  0  0  0
   -0.2202   22.2229  -27.9341 H   0  0  0  0  0  0  0  0  0  0  0  0
   -1.7542   23.1345  -28.2906 H   0  0  0  0  0  0  0  0  0  0  0  0
   -0.8933   21.2199  -29.9211 H   0  0  0  0  0  0  0  0  0  0  0  0
   -1.6453   22.7234  -30.5539 H   0  0  0  0  0  0  0  0  0  0  0  0
    0.1420   22.5444  -30.5539 H   0  0  0  0  0  0  0  0  0  0  0  0
   -0.6489   25.9983  -27.6576 H   0  0  0  0  0  0  0  0  0  0  0  0
   -0.8007   25.9558  -29.4612 H   0  0  0  0  0  0  0  0  0  0  0  0
   -2.3924   23.8473  -28.1917 H   0  0  0  0  0  0  0  0  0  0  0  0
   -2.8414   25.4947  -27.5915 H   0  0  0  0  0  0  0  0  0  0  0  0
   -5.7188   25.8087  -29.2077 H   0  0  0  0  0  0  0  0  0  0  0  0
   -7.6541   24.4642  -30.0148 H   0  0  0  0  0  0  0  0  0  0  0  0
   -9.0911   23.6763  -31.7025 H   0  0  0  0  0  0  0  0  0  0  0  0
  -10.5930   21.7010  -32.5120 H   0  0  0  0  0  0  0  0  0  0  0  0
  -10.1244   18.9362  -32.8552 H   0  0  0  0  0  0  0  0  0  0  0  0
   -6.0910   17.8811  -31.8429 H   0  0  0  0  0  0  0  0  0  0  0  0
   -4.9282   21.6576  -31.8713 H   0  0  0  0  0  0  0  0  0  0  0  0
   -2.9971   22.9999  -31.0592 H   0  0  0  0  0  0  0  0  0  0  0  0
  1  2  1  0
  2  3  1  0
  3  4  1  0
  4  5  1  0
  3  6  1  0
  6  7  1  0
  7  8  1  0
  8  9  1  0
  9 10  2  0
 10 11  1  0
 11 12  2  0
 12 13  1  0
 13 14  1  0
 14 15  2  0
 15 16  1  0
 16 17  2  0
 17 18  1  0
 18 19  2  0
 19 20  1  0
 20 21  2  0
 12 22  1  0
 22 23  2  0
 23  9  1  0
 21 13  1  0
 21 16  1  0
  1 24  1  0
  1 25  1  0
  1 26  1  0
  2 27  1  0
  2 28  1  0
  4 29  1  0
  4 30  1  0
  5 31  1  0
  5 32  1  0
  5 33  1  0
  6 34  1  0
  6 35  1  0
  7 36  1  0
  7 37  1  0
 10 38  1  0
 11 39  1  0
 14 40  1  0
 15 41  1  0
 17 42  1  0
 19 43  1  0
 22 44  1  0
 23 45  1  0
M  CHG  1  15   1
M  END
>  <UniqueID>  (12) 
11

>  <SMILES>  (12) 
CCN(CC)CCOc1ccc(-n2c[nH+]c3cncnc32)cc1

>  <Energy>  (12) 
92.83493404295727

>  <Genealogy>  (12) 
CCN(CC)CCOc1ccc(-n2c[nH+]c3cncnc32)cc1 (protonated)
CCN(CC)CCOc1ccc(-n2c[nH+]c3cncnc32)cc1 (3D coordinates assigned)
CCN(CC)CCOc1ccc(-n2c[nH+]c3cncnc32)cc1 (optimized conformer: 92.83493404295727 kcal/mol)

>  <smiles>  (12) 
CCN(CC)CCOc1ccc(-n2cnc3cncnc32)cc1

>  <score_type>  (12) 
oracle

>  <origin>  (12) 
adg

>  <m_score__min__energy>  (12) 
-7.0199999999999996

>  <m_primary>  (12) 
energy

$$$$
12:0
     RDKit          3D

 40 41  0  0  0  0  0  0  0  0999 V2000
   -3.8330   21.9160  -32.6570 C   0  0  0  0  0  0  0  0  0  0  0  0
   -5.3580   22.0880  -32.6710 C   0  0  0  0  0  0  0  0  0  0  0  0
   -5.8900   22.9190  -31.5700 N   0  0  0  0  0  0  0  0  0  0  0  0
   -5.7440   24.3670  -31.8120 C   0  0  0  0  0  0  0  0  0  0  0  0
   -5.2310   25.0550  -30.5830 C   0  0  0  0  0  0  0  0  0  0  0  0
   -6.0500   25.5480  -29.7600 O   0  0  0  0  0  0  0  0  0  0  0  0
   -3.8170   25.1260  -30.3500 N   0  0  0  0  0  0  0  0  0  0  0  0
   -3.0070   24.1760  -29.6440 C   0  0  0  0  0  0  0  0  0  0  0  0
   -3.3330   22.8060  -29.6110 C   0  0  0  0  0  0  0  0  0  0  0  0
   -2.5330   21.9120  -28.8980 C   0  0  0  0  0  0  0  0  0  0  0  0
   -1.4120   22.3710  -28.2060 C   0  0  0  0  0  0  0  0  0  0  0  0
   -1.0900   23.7300  -28.2150 C   0  0  0  0  0  0  0  0  0  0  0  0
   -1.8900   24.6430  -28.9320 C   0  0  0  0  0  0  0  0  0  0  0  0
   -1.6010   26.0180  -28.9660 O   0  0  0  0  0  0  0  0  0  0  0  0
   -0.8850   26.7200  -27.9560 C   0  0  0  0  0  0  0  0  0  0  0  0
   -7.5340   22.4980  -31.1300 S   0  0  0  0  0  0  0  0  0  0  0  0
   -7.7050   22.6060  -29.6410 O   0  0  0  0  0  0  0  0  0  0  0  0
   -8.5110   23.4320  -31.7920 O   0  0  0  0  0  0  0  0  0  0  0  0
   -7.8910   20.8450  -31.6000 C   0  0  0  0  0  0  0  0  0  0  0  0
   -9.1210   20.3800  -32.0300 C   0  0  0  0  0  0  0  0  0  0  0  0
   -9.1130   19.0130  -32.3350 C   0  0  0  0  0  0  0  0  0  0  0  0
   -7.8760   18.4080  -32.1420 C   0  0  0  0  0  0  0  0  0  0  0  0
   -6.7930   19.5740  -31.5940 S   0  0  0  0  0  0  0  0  0  0  0  0
   -3.4781   21.8760  -31.6166 H   0  0  0  0  0  0  0  0  0  0  0  0
   -3.5646   20.9819  -33.1722 H   0  0  0  0  0  0  0  0  0  0  0  0
   -3.3633   22.7669  -33.1722 H   0  0  0  0  0  0  0  0  0  0  0  0
   -5.6423   22.5573  -33.6243 H   0  0  0  0  0  0  0  0  0  0  0  0
   -5.7879   21.0838  -32.5417 H   0  0  0  0  0  0  0  0  0  0  0  0
   -5.0358   24.5264  -32.6385 H   0  0  0  0  0  0  0  0  0  0  0  0
   -6.7279   24.7858  -32.0700 H   0  0  0  0  0  0  0  0  0  0  0  0
   -4.2202   22.4400  -30.1485 H   0  0  0  0  0  0  0  0  0  0  0  0
   -2.7872   20.8419  -28.8816 H   0  0  0  0  0  0  0  0  0  0  0  0
   -0.7803   21.6610  -27.6520 H   0  0  0  0  0  0  0  0  0  0  0  0
   -0.2099   24.0889  -27.6612 H   0  0  0  0  0  0  0  0  0  0  0  0
   -1.2261   26.3856  -26.9651 H   0  0  0  0  0  0  0  0  0  0  0  0
    0.1910   26.5172  -28.0611 H   0  0  0  0  0  0  0  0  0  0  0  0
   -1.0666   27.7998  -28.0611 H   0  0  0  0  0  0  0  0  0  0  0  0
  -10.0126   21.0176  -32.1227 H   0  0  0  0  0  0  0  0  0  0  0  0
  -10.0002   18.4701  -32.6929 H   0  0  0  0  0  0  0  0  0  0  0  0
   -7.6445   17.3471  -32.3177 H   0  0  0  0  0  0  0  0  0  0  0  0
  1  2  1  0
  2  3  1  0
  3  4  1  0
  4  5  1  0
  5  6  2  0
  5  7  1  0
  7  8  1  0
  8  9  2  0
  9 10  1  0
 10 11  2  0
 11 12  1  0
 12 13  2  0
 13 14  1  0
 14 15  1  0
  3 16  1  0
 16 17  2  0
 16 18  2  0
 16 19  1  0
 19 20  2  0
 20 21  1  0
 21 22  2  0
 22 23  1  0
 13  8  1  0
 23 19  1  0
  1 24  1  0
  1 25  1  0
  1 26  1  0
  2 27  1  0
  2 28  1  0
  4 29  1  0
  4 30  1  0
  9 31  1  0
 10 32  1  0
 11 33  1  0
 12 34  1  0
 15 35  1  0
 15 36  1  0
 15 37  1  0
 20 38  1  0
 21 39  1  0
 22 40  1  0
M  CHG  1   7  -1
M  END
>  <UniqueID>  (13) 
12

>  <SMILES>  (13) 
CCN(CC(=O)[N-]c1ccccc1OC)S(=O)(=O)c1cccs1

>  <Energy>  (13) 
69.00757247421178

>  <Genealogy>  (13) 
CCN(CC(=O)[N-]c1ccccc1OC)S(=O)(=O)c1cccs1 (protonated)
CCN(CC(=O)[N-]c1ccccc1OC)S(=O)(=O)c1cccs1 (3D coordinates assigned)
CCN(CC(=O)[N-]c1ccccc1OC)S(=O)(=O)c1cccs1 (optimized conformer: 69.00757247421178 kcal/mol)

>  <smiles>  (13) 
CCN(CC(=O)Nc1ccccc1OC)S(=O)(=O)c1cccs1

>  <score_type>  (13) 
oracle

>  <origin>  (13) 
adg

>  <m_score__min__energy>  (13) 
-10.289999999999999

>  <m_primary>  (13) 
energy

$$$$
13:0
     RDKit          3D

 47 49  0  0  0  0  0  0  0  0999 V2000
   -5.9340   24.8750  -30.3570 C   0  0  0  0  0  0  0  0  0  0  0  0
   -5.0430   24.0340  -31.1720 N   0  0  0  0  0  0  0  0  0  0  0  0
   -4.3330   23.0460  -30.3290 C   0  0  0  0  0  0  0  0  0  0  0  0
   -2.8520   23.4010  -30.1770 C   0  0  0  0  0  0  0  0  0  0  0  0
   -2.7330   24.7390  -29.6970 O   0  0  0  0  0  0  0  0  0  0  0  0
   -2.2620   25.0820  -28.4200 C   0  0  0  0  0  0  0  0  0  0  0  0
   -2.8990   24.6510  -27.2390 C   0  0  0  0  0  0  0  0  0  0  0  0
   -2.3880   25.0190  -25.9900 C   0  0  0  0  0  0  0  0  0  0  0  0
   -1.2440   25.8160  -25.9070 C   0  0  0  0  0  0  0  0  0  0  0  0
   -0.6070   26.2470  -27.0730 C   0  0  0  0  0  0  0  0  0  0  0  0
   -1.1150   25.8820  -28.3240 C   0  0  0  0  0  0  0  0  0  0  0  0
   -5.7480   23.4510  -32.3440 C   0  0  0  0  0  0  0  0  0  0  0  0
   -6.7480   22.3630  -31.9950 C   0  0  0  0  0  0  0  0  0  0  0  0
   -6.3510   21.0140  -32.0070 C   0  0  0  0  0  0  0  0  0  0  0  0
   -7.2590   19.9980  -31.6730 C   0  0  0  0  0  0  0  0  0  0  0  0
   -6.8280   18.5590  -31.7080 C   0  0  0  0  0  0  0  0  0  0  0  0
   -6.1180   18.2850  -32.9530 N   0  0  0  0  0  0  0  0  0  0  0  0
   -5.0340   17.5050  -33.1140 C   0  0  0  0  0  0  0  0  0  0  0  0
   -4.6930   17.4030  -34.4180 N   0  0  0  0  0  0  0  0  0  0  0  0
   -5.6360   18.1550  -35.0320 C   0  0  0  0  0  0  0  0  0  0  0  0
   -6.5030   18.6840  -34.1500 N   0  0  0  0  0  0  0  0  0  0  0  0
   -8.5860   20.3310  -31.3680 C   0  0  0  0  0  0  0  0  0  0  0  0
   -8.9950   21.6660  -31.3760 C   0  0  0  0  0  0  0  0  0  0  0  0
   -8.0850   22.6800  -31.6890 C   0  0  0  0  0  0  0  0  0  0  0  0
   -8.5180   23.9660  -31.7110 F   0  0  0  0  0  0  0  0  0  0  0  0
   -5.7383   24.6903  -29.2904 H   0  0  0  0  0  0  0  0  0  0  0  0
   -5.7484   25.9348  -30.5857 H   0  0  0  0  0  0  0  0  0  0  0  0
   -6.9814   24.6285  -30.5857 H   0  0  0  0  0  0  0  0  0  0  0  0
   -4.7996   23.0246  -29.3331 H   0  0  0  0  0  0  0  0  0  0  0  0
   -4.4043   22.0620  -30.8155 H   0  0  0  0  0  0  0  0  0  0  0  0
   -2.3806   22.7110  -29.4616 H   0  0  0  0  0  0  0  0  0  0  0  0
   -2.3511   23.3144  -31.1525 H   0  0  0  0  0  0  0  0  0  0  0  0
   -3.8004   24.0235  -27.2996 H   0  0  0  0  0  0  0  0  0  0  0  0
   -2.8883   24.6799  -25.0709 H   0  0  0  0  0  0  0  0  0  0  0  0
   -0.8447   26.1043  -24.9234 H   0  0  0  0  0  0  0  0  0  0  0  0
    0.2946   26.8738  -27.0073 H   0  0  0  0  0  0  0  0  0  0  0  0
   -0.6107   26.2253  -29.2393 H   0  0  0  0  0  0  0  0  0  0  0  0
   -6.2856   24.2602  -32.8599 H   0  0  0  0  0  0  0  0  0  0  0  0
   -4.9776   22.9804  -32.9725 H   0  0  0  0  0  0  0  0  0  0  0  0
   -5.3182   20.7528  -32.2810 H   0  0  0  0  0  0  0  0  0  0  0  0
   -6.1624   18.3565  -30.8560 H   0  0  0  0  0  0  0  0  0  0  0  0
   -7.7160   17.9127  -31.6469 H   0  0  0  0  0  0  0  0  0  0  0  0
   -4.4947   17.0136  -32.2908 H   0  0  0  0  0  0  0  0  0  0  0  0
   -5.6872   18.3141  -36.1192 H   0  0  0  0  0  0  0  0  0  0  0  0
   -7.3340   19.2810  -34.3590 H   0  0  0  0  0  0  0  0  0  0  0  0
   -9.3075   19.5380  -31.1216 H   0  0  0  0  0  0  0  0  0  0  0  0
  -10.0376   21.9209  -31.1350 H   0  0  0  0  0  0  0  0  0  0  0  0
  1  2  1  0
  2  3  1  0
  3  4  1  0
  4  5  1  0
  5  6  1  0
  6  7  2  0
  7  8  1  0
  8  9  2  0
  9 10  1  0
 10 11  2  0
  2 12  1  0
 12 13  1  0
 13 14  2  0
 14 15  1  0
 15 16  1  0
 16 17  1  0
 17 18  1  0
 18 19  2  0
 19 20  1  0
 20 21  2  0
 15 22  2  0
 22 23  1  0
 23 24  2  0
 24 25  1  0
 11  6  1  0
 24 13  1  0
 21 17  1  0
  1 26  1  0
  1 27  1  0
  1 28  1  0
  3 29  1  0
  3 30  1  0
  4 31  1  0
  4 32  1  0
  7 33  1  0
  8 34  1  0
  9 35  1  0
 10 36  1  0
 11 37  1  0
 12 38  1  0
 12 39  1  0
 14 40  1  0
 16 41  1  0
 16 42  1  0
 18 43  1  0
 20 44  1  0
 21 45  1  0
 22 46  1  0
 23 47  1  0
M  CHG  1  21   1
M  END
>  <UniqueID>  (14) 
13

>  <SMILES>  (14) 
CN(CCOc1ccccc1)Cc1cc(Cn2cnc[nH+]2)ccc1F

>  <Energy>  (14) 
83.05496598697023

>  <Genealogy>  (14) 
CN(CCOc1ccccc1)Cc1cc(Cn2cnc[nH+]2)ccc1F (protonated)
CN(CCOc1ccccc1)Cc1cc(Cn2cnc[nH+]2)ccc1F (3D coordinates assigned)
CN(CCOc1ccccc1)Cc1cc(Cn2cnc[nH+]2)ccc1F (optimized conformer: 83.05496598697023 kcal/mol)

>  <smiles>  (14) 
CN(CCOc1ccccc1)Cc1cc(Cn2cncn2)ccc1F

>  <score_type>  (14) 
oracle

>  <origin>  (14) 
adg

>  <m_score__min__energy>  (14) 
-8.4600000000000009

>  <m_primary>  (14) 
energy

$$$$
14:0
     RDKit          3D

 41 43  0  0  0  0  0  0  0  0999 V2000
   -6.4270   24.3500  -31.4470 C   0  0  0  0  0  0  0  0  0  0  0  0
   -5.0300   24.2710  -30.9210 C   0  0  0  0  0  0  0  0  0  0  0  0
   -4.3340   25.3360  -30.4800 N   0  0  0  0  0  0  0  0  0  0  0  0
   -3.1390   24.9190  -30.0800 N   0  0  0  0  0  0  0  0  0  0  0  0
   -3.0690   23.5860  -30.2650 C   0  0  0  0  0  0  0  0  0  0  0  0
   -1.8780   22.7550  -29.9170 C   0  0  0  0  0  0  0  0  0  0  0  0
   -4.2560   23.1330  -30.8050 C   0  0  0  0  0  0  0  0  0  0  0  0
   -4.6280   21.7160  -31.1410 C   0  0  0  0  0  0  0  0  0  0  0  0
   -4.7730   21.5460  -32.6000 N   0  0  0  0  0  0  0  0  0  0  0  0
   -3.5330   21.8850  -33.3210 C   0  0  0  0  0  0  0  0  0  0  0  0
   -5.2940   20.2070  -32.9650 C   0  0  0  0  0  0  0  0  0  0  0  0
   -6.7490   19.9740  -32.5680 C   0  0  0  0  0  0  0  0  0  0  0  0
   -7.5510   21.0970  -32.2980 C   0  0  0  0  0  0  0  0  0  0  0  0
   -8.9060   20.9370  -32.0110 C   0  0  0  0  0  0  0  0  0  0  0  0
   -9.4560   19.6980  -31.9860 N   0  0  0  0  0  0  0  0  0  0  0  0
   -8.7150   18.5860  -32.2210 C   0  0  0  0  0  0  0  0  0  0  0  0
   -7.3410   18.6850  -32.4980 C   0  0  0  0  0  0  0  0  0  0  0  0
   -6.5770   17.4330  -32.6800 C   0  0  0  0  0  0  0  0  0  0  0  0
   -6.5730   16.6940  -33.8730 C   0  0  0  0  0  0  0  0  0  0  0  0
   -5.7500   15.5780  -33.8310 C   0  0  0  0  0  0  0  0  0  0  0  0
   -5.0120   15.5310  -32.3220 S   0  0  0  0  0  0  0  0  0  0  0  0
   -5.7250   16.9210  -31.7070 C   0  0  0  0  0  0  0  0  0  0  0  0
   -7.1340   24.3900  -30.6053 H   0  0  0  0  0  0  0  0  0  0  0  0
   -6.5368   25.2558  -32.0614 H   0  0  0  0  0  0  0  0  0  0  0  0
   -6.6382   23.4624  -32.0614 H   0  0  0  0  0  0  0  0  0  0  0  0
   -1.7838   22.6893  -28.8230 H   0  0  0  0  0  0  0  0  0  0  0  0
   -2.0004   21.7452  -30.3358 H   0  0  0  0  0  0  0  0  0  0  0  0
   -0.9725   23.2184  -30.3358 H   0  0  0  0  0  0  0  0  0  0  0  0
   -3.8412   21.0398  -30.7752 H   0  0  0  0  0  0  0  0  0  0  0  0
   -5.5888   21.4794  -30.6604 H   0  0  0  0  0  0  0  0  0  0  0  0
   -2.7352   22.1031  -32.5958 H   0  0  0  0  0  0  0  0  0  0  0  0
   -3.2324   21.0361  -33.9526 H   0  0  0  0  0  0  0  0  0  0  0  0
   -3.7061   22.7688  -33.9526 H   0  0  0  0  0  0  0  0  0  0  0  0
   -5.2106   20.0896  -34.0555 H   0  0  0  0  0  0  0  0  0  0  0  0
   -4.6927   19.4713  -32.4108 H   0  0  0  0  0  0  0  0  0  0  0  0
   -7.1084   22.1039  -32.3132 H   0  0  0  0  0  0  0  0  0  0  0  0
   -9.5306   21.8185  -31.8043 H   0  0  0  0  0  0  0  0  0  0  0  0
   -9.1949   17.5966  -32.1944 H   0  0  0  0  0  0  0  0  0  0  0  0
   -7.1656   16.9729  -34.7567 H   0  0  0  0  0  0  0  0  0  0  0  0
   -5.6057   14.8508  -34.6436 H   0  0  0  0  0  0  0  0  0  0  0  0
   -5.5493   17.3512  -30.7100 H   0  0  0  0  0  0  0  0  0  0  0  0
  1  2  1  0
  2  3  2  0
  3  4  1  0
  4  5  1  0
  5  6  1  0
  5  7  2  0
  7  8  1  0
  8  9  1  0
  9 10  1  0
  9 11  1  0
 11 12  1  0
 12 13  2  0
 13 14  1  0
 14 15  2  0
 15 16  1  0
 16 17  2  0
 17 18  1  0
 18 19  1  0
 19 20  2  0
 20 21  1  0
 21 22  1  0
  7  2  1  0
 17 12  1  0
 22 18  2  0
  1 23  1  0
  1 24  1  0
  1 25  1  0
  6 26  1  0
  6 27  1  0
  6 28  1  0
  8 29  1  0
  8 30  1  0
 10 31  1  0
 10 32  1  0
 10 33  1  0
 11 34  1  0
 11 35  1  0
 13 36  1  0
 14 37  1  0
 16 38  1  0
 19 39  1  0
 20 40  1  0
 22 41  1  0
M  CHG  1   4  -1
M  END
>  <UniqueID>  (15) 
14

>  <SMILES>  (15) 
Cc1n[n-]c(C)c1CN(C)Cc1ccncc1-c1ccsc1

>  <Energy>  (15) 
105.98747160835315

>  <Genealogy>  (15) 
Cc1n[n-]c(C)c1CN(C)Cc1ccncc1-c1ccsc1 (protonated)
Cc1n[n-]c(C)c1CN(C)Cc1ccncc1-c1ccsc1 (3D coordinates assigned)
Cc1n[n-]c(C)c1CN(C)Cc1ccncc1-c1ccsc1 (optimized conformer: 105.98747160835315 kcal/mol)

>  <smiles>  (15) 
Cc1n[nH]c(C)c1CN(C)Cc1ccncc1-c1ccsc1

>  <score_type>  (15) 
oracle

>  <origin>  (15) 
adg

>  <m_score__min__energy>  (15) 
-10.18

>  <m_primary>  (15) 
energy

$$$$
15:0
     RDKit          3D

 49 52  0  0  0  0  0  0  0  0999 V2000
   -1.9760   25.6700  -29.3200 O   0  0  0  0  0  0  0  0  0  0  0  0
   -2.4100   24.3590  -29.4930 C   0  0  0  0  0  0  0  0  0  0  0  0
   -3.6580   24.1400  -30.0820 C   0  0  0  0  0  0  0  0  0  0  0  0
   -4.1310   22.8390  -30.2880 C   0  0  0  0  0  0  0  0  0  0  0  0
   -5.4550   22.6190  -30.9130 C   0  0  0  0  0  0  0  0  0  0  0  0
   -6.6110   23.0560  -30.2410 C   0  0  0  0  0  0  0  0  0  0  0  0
   -7.8750   22.8500  -30.7990 C   0  0  0  0  0  0  0  0  0  0  0  0
   -7.9990   22.2100  -32.0330 C   0  0  0  0  0  0  0  0  0  0  0  0
   -6.8590   21.7810  -32.7170 C   0  0  0  0  0  0  0  0  0  0  0  0
   -5.5870   21.9820  -32.1680 C   0  0  0  0  0  0  0  0  0  0  0  0
   -4.1850   21.4820  -33.1110 Cl  0  0  0  0  0  0  0  0  0  0  0  0
   -3.3570   21.7530  -29.8620 C   0  0  0  0  0  0  0  0  0  0  0  0
   -2.1060   21.9510  -29.2590 C   0  0  0  0  0  0  0  0  0  0  0  0
   -1.3460   20.7590  -28.8290 C   0  0  0  0  0  0  0  0  0  0  0  0
   -1.7040   20.0850  -27.6510 C   0  0  0  0  0  0  0  0  0  0  0  0
   -0.9860   18.9600  -27.2370 C   0  0  0  0  0  0  0  0  0  0  0  0
    0.1040   18.5080  -27.9910 C   0  0  0  0  0  0  0  0  0  0  0  0
    1.0040   17.0940  -27.4720 Cl  0  0  0  0  0  0  0  0  0  0  0  0
    0.4780   19.1880  -29.1540 C   0  0  0  0  0  0  0  0  0  0  0  0
   -0.2390   20.3150  -29.5690 C   0  0  0  0  0  0  0  0  0  0  0  0
   -1.6080   23.2710  -29.0850 C   0  0  0  0  0  0  0  0  0  0  0  0
   -0.2200   23.5220  -28.5120 C   0  0  0  0  0  0  0  0  0  0  0  0
   -0.2050   24.6790  -27.5740 N   0  0  0  0  0  0  0  0  0  0  0  0
   -1.0040   24.4260  -26.3470 C   0  0  0  0  0  0  0  0  0  0  0  0
   -0.1650   23.8070  -25.2080 C   0  0  0  0  0  0  0  0  0  0  0  0
    0.9470   23.1080  -25.7250 O   0  0  0  0  0  0  0  0  0  0  0  0
    1.8610   24.0160  -26.3160 C   0  0  0  0  0  0  0  0  0  0  0  0
    1.1770   25.0690  -27.2200 C   0  0  0  0  0  0  0  0  0  0  0  0
   -4.2747   24.9984  -30.3867 H   0  0  0  0  0  0  0  0  0  0  0  0
   -6.5190   23.5635  -29.2694 H   0  0  0  0  0  0  0  0  0  0  0  0
   -8.7736   23.1926  -30.2651 H   0  0  0  0  0  0  0  0  0  0  0  0
   -8.9957   22.0432  -32.4676 H   0  0  0  0  0  0  0  0  0  0  0  0
   -6.9614   21.2826  -33.6922 H   0  0  0  0  0  0  0  0  0  0  0  0
   -3.7353   20.7296  -30.0021 H   0  0  0  0  0  0  0  0  0  0  0  0
   -2.5534   20.4439  -27.0512 H   0  0  0  0  0  0  0  0  0  0  0  0
   -1.2771   18.4293  -26.3185 H   0  0  0  0  0  0  0  0  0  0  0  0
    1.3374   18.8361  -29.7435 H   0  0  0  0  0  0  0  0  0  0  0  0
    0.0655   20.8548  -30.4778 H   0  0  0  0  0  0  0  0  0  0  0  0
    0.1093   22.6223  -27.9716 H   0  0  0  0  0  0  0  0  0  0  0  0
    0.4563   23.7534  -29.3481 H   0  0  0  0  0  0  0  0  0  0  0  0
   -0.6280   25.5040  -28.0570 H   0  0  0  0  0  0  0  0  0  0  0  0
   -1.4232   25.3808  -25.9967 H   0  0  0  0  0  0  0  0  0  0  0  0
   -1.7943   23.7064  -26.6070 H   0  0  0  0  0  0  0  0  0  0  0  0
    0.1904   24.6097  -24.5452 H   0  0  0  0  0  0  0  0  0  0  0  0
   -0.7966   23.1000  -24.6502 H   0  0  0  0  0  0  0  0  0  0  0  0
    2.3998   24.5413  -25.5137 H   0  0  0  0  0  0  0  0  0  0  0  0
    2.5383   23.4289  -26.9536 H   0  0  0  0  0  0  0  0  0  0  0  0
    1.1494   26.0309  -26.6871 H   0  0  0  0  0  0  0  0  0  0  0  0
    1.7577   25.1474  -28.1509 H   0  0  0  0  0  0  0  0  0  0  0  0
  1  2  1  0
  2  3  2  0
  3  4  1  0
  4  5  1  0
  5  6  2  0
  6  7  1  0
  7  8  2  0
  8  9  1  0
  9 10  2  0
 10 11  1  0
  4 12  2  0
 12 13  1  0
 13 14  1  0
 14 15  2  0
 15 16  1  0
 16 17  2  0
 17 18  1  0
 17 19  1  0
 19 20  2  0
 13 21  2  0
 21 22  1  0
 22 23  1  0
 23 24  1  0
 24 25  1  0
 25 26  1  0
 26 27  1  0
 27 28  1  0
 21  2  1  0
 28 23  1  0
 10  5  1  0
 20 14  1  0
  3 29  1  0
  6 30  1  0
  7 31  1  0
  8 32  1  0
  9 33  1  0
 12 34  1  0
 15 35  1  0
 16 36  1  0
 19 37  1  0
 20 38  1  0
 22 39  1  0
 22 40  1  0
 23 41  1  0
 24 42  1  0
 24 43  1  0
 25 44  1  0
 25 45  1  0
 27 46  1  0
 27 47  1  0
 28 48  1  0
 28 49  1  0
M  CHG  2   1  -1  23   1
M  END
>  <UniqueID>  (16) 
15

>  <SMILES>  (16) 
[O-]c1cc(-c2ccccc2Cl)cc(-c2ccc(Cl)cc2)c1C[NH+]1CCOCC1

>  <Energy>  (16) 
81.61403910781826

>  <Genealogy>  (16) 
[O-]c1cc(-c2ccccc2Cl)cc(-c2ccc(Cl)cc2)c1C[NH+]1CCOCC1 (protonated)
[O-]c1cc(-c2ccccc2Cl)cc(-c2ccc(Cl)cc2)c1C[NH+]1CCOCC1 (3D coordinates assigned)
[O-]c1cc(-c2ccccc2Cl)cc(-c2ccc(Cl)cc2)c1C[NH+]1CCOCC1 (nonaromatic ring conformer: 81.61403910781826 kcal/mol)

>  <smiles>  (16) 
Oc1cc(-c2ccccc2Cl)cc(-c2ccc(Cl)cc2)c1CN1CCOCC1

>  <score_type>  (16) 
oracle

>  <origin>  (16) 
adg

>  <m_score__min__energy>  (16) 
-10.869999999999999

>  <m_primary>  (16) 
energy

$$$$
16:0
     RDKit          3D

 56 58  0  0  0  0  0  0  0  0999 V2000
   -6.6880   14.7100  -34.2200 C   0  0  0  0  0  0  0  0  0  0  0  0
   -6.8140   16.2280  -34.0290 C   0  0  0  0  0  0  0  0  0  0  0  0
   -5.5930   16.8160  -33.4180 N   0  0  0  0  0  0  0  0  0  0  0  0
   -5.6080   16.6200  -31.9420 C   0  0  0  0  0  0  0  0  0  0  0  0
   -6.4600   17.6730  -31.2210 C   0  0  0  0  0  0  0  0  0  0  0  0
   -4.3620   16.2070  -33.9980 C   0  0  0  0  0  0  0  0  0  0  0  0
   -3.3460   17.2360  -34.5470 C   0  0  0  0  0  0  0  0  0  0  0  0
   -3.8840   18.5580  -34.5870 O   0  0  0  0  0  0  0  0  0  0  0  0
   -3.5970   19.5830  -33.6700 C   0  0  0  0  0  0  0  0  0  0  0  0
   -2.2870   19.8530  -33.2410 C   0  0  0  0  0  0  0  0  0  0  0  0
   -2.0450   20.8440  -32.2880 C   0  0  0  0  0  0  0  0  0  0  0  0
   -3.1050   21.5880  -31.7470 C   0  0  0  0  0  0  0  0  0  0  0  0
   -2.8510   22.6300  -30.7190 C   0  0  0  0  0  0  0  0  0  0  0  0
   -1.6020   22.7090  -30.0740 C   0  0  0  0  0  0  0  0  0  0  0  0
   -1.3660   23.6900  -29.1060 C   0  0  0  0  0  0  0  0  0  0  0  0
   -2.3720   24.6000  -28.7710 C   0  0  0  0  0  0  0  0  0  0  0  0
   -3.6140   24.5320  -29.4030 C   0  0  0  0  0  0  0  0  0  0  0  0
   -3.8560   23.5530  -30.3730 C   0  0  0  0  0  0  0  0  0  0  0  0
   -4.4130   21.3300  -32.1890 C   0  0  0  0  0  0  0  0  0  0  0  0
   -4.6650   20.3340  -33.1450 C   0  0  0  0  0  0  0  0  0  0  0  0
   -6.0520   20.0580  -33.5770 C   0  0  0  0  0  0  0  0  0  0  0  0
   -6.2350   19.3040  -34.5720 O   0  0  0  0  0  0  0  0  0  0  0  0
   -7.2250   20.6210  -32.8610 C   0  0  0  0  0  0  0  0  0  0  0  0
   -8.3560   19.8180  -32.6190 C   0  0  0  0  0  0  0  0  0  0  0  0
   -9.4530   20.3290  -31.9190 C   0  0  0  0  0  0  0  0  0  0  0  0
   -9.4310   21.6420  -31.4440 C   0  0  0  0  0  0  0  0  0  0  0  0
   -8.3120   22.4470  -31.6690 C   0  0  0  0  0  0  0  0  0  0  0  0
   -7.2130   21.9410  -32.3700 C   0  0  0  0  0  0  0  0  0  0  0  0
   -6.6472   14.2188  -33.2366 H   0  0  0  0  0  0  0  0  0  0  0  0
   -7.5583   14.3374  -34.7801 H   0  0  0  0  0  0  0  0  0  0  0  0
   -5.7682   14.4860  -34.7801 H   0  0  0  0  0  0  0  0  0  0  0  0
   -6.9811   16.6967  -35.0100 H   0  0  0  0  0  0  0  0  0  0  0  0
   -7.6581   16.4158  -33.3492 H   0  0  0  0  0  0  0  0  0  0  0  0
   -5.5880   17.8450  -33.6080 H   0  0  0  0  0  0  0  0  0  0  0  0
   -6.0177   15.6231  -31.7221 H   0  0  0  0  0  0  0  0  0  0  0  0
   -4.5741   16.7196  -31.5798 H   0  0  0  0  0  0  0  0  0  0  0  0
   -6.3571   17.5458  -30.1332 H   0  0  0  0  0  0  0  0  0  0  0  0
   -6.1186   18.6790  -31.5065 H   0  0  0  0  0  0  0  0  0  0  0  0
   -7.5151   17.5491  -31.5065 H   0  0  0  0  0  0  0  0  0  0  0  0
   -3.8660   15.6169  -33.2133 H   0  0  0  0  0  0  0  0  0  0  0  0
   -4.6842   15.5932  -34.8520 H   0  0  0  0  0  0  0  0  0  0  0  0
   -2.4565   17.2352  -33.8999 H   0  0  0  0  0  0  0  0  0  0  0  0
   -3.0928   16.9436  -35.5768 H   0  0  0  0  0  0  0  0  0  0  0  0
   -1.4462   19.2798  -33.6587 H   0  0  0  0  0  0  0  0  0  0  0  0
   -1.0147   21.0435  -31.9583 H   0  0  0  0  0  0  0  0  0  0  0  0
   -0.8068   21.9945  -30.3332 H   0  0  0  0  0  0  0  0  0  0  0  0
   -0.3870   23.7454  -28.6075 H   0  0  0  0  0  0  0  0  0  0  0  0
   -2.1847   25.3704  -28.0086 H   0  0  0  0  0  0  0  0  0  0  0  0
   -4.4046   25.2495  -29.1382 H   0  0  0  0  0  0  0  0  0  0  0  0
   -4.8371   23.5043  -30.8680 H   0  0  0  0  0  0  0  0  0  0  0  0
   -5.2499   21.9157  -31.7809 H   0  0  0  0  0  0  0  0  0  0  0  0
   -8.3766   18.7804  -32.9836 H   0  0  0  0  0  0  0  0  0  0  0  0
  -10.3349   19.6958  -31.7421 H   0  0  0  0  0  0  0  0  0  0  0  0
  -10.2947   22.0422  -30.8928 H   0  0  0  0  0  0  0  0  0  0  0  0
   -8.2952   23.4810  -31.2940 H   0  0  0  0  0  0  0  0  0  0  0  0
   -6.3327   22.5785  -32.5392 H   0  0  0  0  0  0  0  0  0  0  0  0
  1  2  1  0
  2  3  1  0
  3  4  1  0
  4  5  1  0
  3  6  1  0
  6  7  1  0
  7  8  1  0
  8  9  1  0
  9 10  2  0
 10 11  1  0
 11 12  2  0
 12 13  1  0
 13 14  2  0
 14 15  1  0
 15 16  2  0
 16 17  1  0
 17 18  2  0
 12 19  1  0
 19 20  2  0
 20 21  1  0
 21 22  2  0
 21 23  1  0
 23 24  2  0
 24 25  1  0
 25 26  2  0
 26 27  1  0
 27 28  2  0
 20  9  1  0
 28 23  1  0
 18 13  1  0
  1 29  1  0
  1 30  1  0
  1 31  1  0
  2 32  1  0
  2 33  1  0
  3 34  1  0
  4 35  1  0
  4 36  1  0
  5 37  1  0
  5 38  1  0
  5 39  1  0
  6 40  1  0
  6 41  1  0
  7 42  1  0
  7 43  1  0
 10 44  1  0
 11 45  1  0
 14 46  1  0
 15 47  1  0
 16 48  1  0
 17 49  1  0
 18 50  1  0
 19 51  1  0
 24 52  1  0
 25 53  1  0
 26 54  1  0
 27 55  1  0
 28 56  1  0
M  CHG  1   3   1
M  END
>  <UniqueID>  (17) 
16

>  <SMILES>  (17) 
CC[NH+](CC)CCOc1ccc(-c2ccccc2)cc1C(=O)c1ccccc1

>  <Energy>  (17) 
69.68195938317244

>  <Genealogy>  (17) 
CC[NH+](CC)CCOc1ccc(-c2ccccc2)cc1C(=O)c1ccccc1 (protonated)
CC[NH+](CC)CCOc1ccc(-c2ccccc2)cc1C(=O)c1ccccc1 (3D coordinates assigned)
CC[NH+](CC)CCOc1ccc(-c2ccccc2)cc1C(=O)c1ccccc1 (optimized conformer: 69.68195938317244 kcal/mol)

>  <smiles>  (17) 
CCN(CC)CCOc1ccc(-c2ccccc2)cc1C(=O)c1ccccc1

>  <score_type>  (17) 
oracle

>  <origin>  (17) 
adg

>  <m_score__min__energy>  (17) 
-8.5800000000000001

>  <m_primary>  (17) 
energy

$$$$
17:0
     RDKit          3D

 56 58  0  0  0  0  0  0  0  0999 V2000
   -2.3940   24.6100  -28.8400 C   0  0  0  0  0  0  0  0  0  0  0  0
   -3.2800   25.2830  -29.7300 O   0  0  0  0  0  0  0  0  0  0  0  0
   -4.5460   24.8030  -30.1050 C   0  0  0  0  0  0  0  0  0  0  0  0
   -5.7370   25.4410  -29.7010 C   0  0  0  0  0  0  0  0  0  0  0  0
   -6.9760   24.9320  -30.0950 C   0  0  0  0  0  0  0  0  0  0  0  0
   -7.0420   23.7890  -30.8920 C   0  0  0  0  0  0  0  0  0  0  0  0
   -5.8700   23.1500  -31.2990 C   0  0  0  0  0  0  0  0  0  0  0  0
   -4.6120   23.6520  -30.9080 C   0  0  0  0  0  0  0  0  0  0  0  0
   -3.4110   23.0390  -31.2940 O   0  0  0  0  0  0  0  0  0  0  0  0
   -2.8820   21.8550  -30.7040 C   0  0  0  0  0  0  0  0  0  0  0  0
   -1.6220   21.4800  -31.4080 C   0  0  0  0  0  0  0  0  0  0  0  0
   -0.5260   21.4840  -30.7820 O   0  0  0  0  0  0  0  0  0  0  0  0
   -1.6640   21.1410  -32.7970 N   0  0  0  0  0  0  0  0  0  0  0  0
   -2.8990   20.9030  -33.5340 C   0  0  0  0  0  0  0  0  0  0  0  0
   -3.5540   19.6020  -33.0710 C   0  0  0  0  0  0  0  0  0  0  0  0
   -2.6000   18.1660  -33.5470 S   0  0  0  0  0  0  0  0  0  0  0  0
   -1.6090   18.6130  -34.5870 O   0  0  0  0  0  0  0  0  0  0  0  0
   -1.8420   17.6450  -32.3570 O   0  0  0  0  0  0  0  0  0  0  0  0
   -3.6550   16.9230  -34.2020 N   0  0  0  0  0  0  0  0  0  0  0  0
   -4.6240   17.4690  -35.1860 C   0  0  0  0  0  0  0  0  0  0  0  0
   -6.0820   17.5230  -34.6870 C   0  0  0  0  0  0  0  0  0  0  0  0
   -6.1330   17.7710  -33.2440 N   0  0  0  0  0  0  0  0  0  0  0  0
   -7.1110   18.6710  -32.6910 C   0  0  0  0  0  0  0  0  0  0  0  0
   -8.1420   18.1730  -31.8750 C   0  0  0  0  0  0  0  0  0  0  0  0
   -9.0910   19.0410  -31.3280 C   0  0  0  0  0  0  0  0  0  0  0  0
   -9.0210   20.4110  -31.5920 C   0  0  0  0  0  0  0  0  0  0  0  0
   -8.0030   20.9150  -32.4040 C   0  0  0  0  0  0  0  0  0  0  0  0
   -7.0500   20.0530  -32.9550 C   0  0  0  0  0  0  0  0  0  0  0  0
   -6.0850   20.5600  -33.7620 F   0  0  0  0  0  0  0  0  0  0  0  0
   -5.3100   16.9590  -32.3430 C   0  0  0  0  0  0  0  0  0  0  0  0
   -4.2920   16.1260  -33.1350 C   0  0  0  0  0  0  0  0  0  0  0  0
   -2.6819   24.8287  -27.8011 H   0  0  0  0  0  0  0  0  0  0  0  0
   -2.4513   23.5257  -29.0159 H   0  0  0  0  0  0  0  0  0  0  0  0
   -1.3648   24.9561  -29.0159 H   0  0  0  0  0  0  0  0  0  0  0  0
   -5.6897   26.3430  -29.0732 H   0  0  0  0  0  0  0  0  0  0  0  0
   -7.9019   25.4332  -29.7763 H   0  0  0  0  0  0  0  0  0  0  0  0
   -8.0199   23.3906  -31.2003 H   0  0  0  0  0  0  0  0  0  0  0  0
   -5.9281   22.2497  -31.9283 H   0  0  0  0  0  0  0  0  0  0  0  0
   -2.6694   22.0369  -29.6402 H   0  0  0  0  0  0  0  0  0  0  0  0
   -3.6133   21.0381  -30.7927 H   0  0  0  0  0  0  0  0  0  0  0  0
   -3.5918   21.7395  -33.3599 H   0  0  0  0  0  0  0  0  0  0  0  0
   -2.6649   20.8227  -34.6058 H   0  0  0  0  0  0  0  0  0  0  0  0
   -3.6451   19.6206  -31.9749 H   0  0  0  0  0  0  0  0  0  0  0  0
   -4.5411   19.5288  -33.5508 H   0  0  0  0  0  0  0  0  0  0  0  0
   -4.3115   18.4915  -35.4446 H   0  0  0  0  0  0  0  0  0  0  0  0
   -4.6138   16.7847  -36.0472 H   0  0  0  0  0  0  0  0  0  0  0  0
   -6.6118   18.3326  -35.2103 H   0  0  0  0  0  0  0  0  0  0  0  0
   -6.5598   16.5540  -34.8937 H   0  0  0  0  0  0  0  0  0  0  0  0
   -8.2020   17.0947  -31.6661 H   0  0  0  0  0  0  0  0  0  0  0  0
   -9.8939   18.6450  -30.6889 H   0  0  0  0  0  0  0  0  0  0  0  0
   -9.7682   21.0930  -31.1600 H   0  0  0  0  0  0  0  0  0  0  0  0
   -7.9506   21.9941  -32.6109 H   0  0  0  0  0  0  0  0  0  0  0  0
   -4.7717   17.6226  -31.6503 H   0  0  0  0  0  0  0  0  0  0  0  0
   -5.9673   16.2752  -31.7859 H   0  0  0  0  0  0  0  0  0  0  0  0
   -3.5142   15.7632  -32.4469 H   0  0  0  0  0  0  0  0  0  0  0  0
   -4.8237   15.2845  -33.6031 H   0  0  0  0  0  0  0  0  0  0  0  0
  1  2  1  0
  2  3  1  0
  3  4  2  0
  4  5  1  0
  5  6  2  0
  6  7  1  0
  7  8  2  0
  8  9  1  0
  9 10  1  0
 10 11  1  0
 11 12  2  0
 11 13  1  0
 13 14  1  0
 14 15  1  0
 15 16  1  0
 16 17  2  0
 16 18  2  0
 16 19  1  0
 19 20  1  0
 20 21  1  0
 21 22  1  0
 22 23  1  0
 23 24  2  0
 24 25  1  0
 25 26  2  0
 26 27  1  0
 27 28  2  0
 28 29  1  0
 22 30  1  0
 30 31  1  0
  8  3  1  0
 31 19  1  0
 28 23  1  0
  1 32  1  0
  1 33  1  0
  1 34  1  0
  4 35  1  0
  5 36  1  0
  6 37  1  0
  7 38  1  0
 10 39  1  0
 10 40  1  0
 14 41  1  0
 14 42  1  0
 15 43  1  0
 15 44  1  0
 20 45  1  0
 20 46  1  0
 21 47  1  0
 21 48  1  0
 24 49  1  0
 25 50  1  0
 26 51  1  0
 27 52  1  0
 30 53  1  0
 30 54  1  0
 31 55  1  0
 31 56  1  0
M  CHG  1  13  -1
M  END
>  <UniqueID>  (18) 
17

>  <SMILES>  (18) 
COc1ccccc1OCC(=O)[N-]CCS(=O)(=O)N1CCN(c2ccccc2F)CC1

>  <Energy>  (18) 
59.01843646286609

>  <Genealogy>  (18) 
COc1ccccc1OCC(=O)[N-]CCS(=O)(=O)N1CCN(c2ccccc2F)CC1 (protonated)
COc1ccccc1OCC(=O)[N-]CCS(=O)(=O)N1CCN(c2ccccc2F)CC1 (3D coordinates assigned)
COc1ccccc1OCC(=O)[N-]CCS(=O)(=O)N1CCN(c2ccccc2F)CC1 (nonaromatic ring conformer: 59.01843646286609 kcal/mol)

>  <smiles>  (18) 
COc1ccccc1OCC(=O)NCCS(=O)(=O)N1CCN(c2ccccc2F)CC1

>  <score_type>  (18) 
oracle

>  <origin>  (18) 
adg

>  <m_score__min__energy>  (18) 
-10.17

>  <m_primary>  (18) 
energy

$$$$
18:0
     RDKit          3D

 50 52  0  0  0  0  0  0  0  0999 V2000
   -1.4470   21.7520  -32.3700 H   0  0  0  0  0  0  0  0  0  0  0  0
   -2.1280   22.3010  -31.8640 O   0  0  0  0  0  0  0  0  0  0  0  0
   -3.4940   22.0250  -31.9150 C   0  0  0  0  0  0  0  0  0  0  0  0
   -4.4960   22.9290  -31.5860 C   0  0  0  0  0  0  0  0  0  0  0  0
   -4.3470   24.2780  -31.1340 N   0  0  0  0  0  0  0  0  0  0  0  0
   -4.1160   24.5440  -29.9130 N   0  0  0  0  0  0  0  0  0  0  0  0
   -2.8240   24.3340  -29.3380 C   0  0  0  0  0  0  0  0  0  0  0  0
   -2.0060   25.2950  -29.2690 O   0  0  0  0  0  0  0  0  0  0  0  0
   -2.4460   22.9980  -28.8220 C   0  0  0  0  0  0  0  0  0  0  0  0
   -3.4210   22.1270  -28.3050 C   0  0  0  0  0  0  0  0  0  0  0  0
   -4.4774   22.4327  -28.2795 H   0  0  0  0  0  0  0  0  0  0  0  0
   -3.0420   20.8720  -27.8240 C   0  0  0  0  0  0  0  0  0  0  0  0
   -3.8012   20.1899  -27.4138 H   0  0  0  0  0  0  0  0  0  0  0  0
   -1.7390   20.4910  -27.8610 N   0  0  0  0  0  0  0  0  0  0  0  0
   -0.7720   21.3090  -28.3560 C   0  0  0  0  0  0  0  0  0  0  0  0
    0.2751   20.9725  -28.3736 H   0  0  0  0  0  0  0  0  0  0  0  0
   -1.1050   22.5750  -28.8420 C   0  0  0  0  0  0  0  0  0  0  0  0
   -0.3222   23.2382  -29.2386 H   0  0  0  0  0  0  0  0  0  0  0  0
   -5.6840   22.2480  -31.7190 C   0  0  0  0  0  0  0  0  0  0  0  0
   -6.9970   22.6490  -31.4820 C   0  0  0  0  0  0  0  0  0  0  0  0
   -7.2284   23.6737  -31.1556 H   0  0  0  0  0  0  0  0  0  0  0  0
   -8.0160   21.7000  -31.6740 C   0  0  0  0  0  0  0  0  0  0  0  0
   -9.0649   21.9825  -31.5006 H   0  0  0  0  0  0  0  0  0  0  0  0
   -7.7030   20.3860  -32.0880 C   0  0  0  0  0  0  0  0  0  0  0  0
   -9.1020   19.1050  -32.3190 Br  0  0  0  0  0  0  0  0  0  0  0  0
   -6.3670   20.0090  -32.3160 C   0  0  0  0  0  0  0  0  0  0  0  0
   -6.1140   18.9863  -32.6323 H   0  0  0  0  0  0  0  0  0  0  0  0
   -5.3690   20.9720  -32.1290 C   0  0  0  0  0  0  0  0  0  0  0  0
   -4.0310   20.8270  -32.2690 N   0  0  0  0  0  0  0  0  0  0  0  0
   -3.3100   19.5960  -32.6060 C   0  0  0  0  0  0  0  0  0  0  0  0
   -4.0345   18.7914  -32.8003 H   0  0  0  0  0  0  0  0  0  0  0  0
   -2.6591   19.3175  -31.7641 H   0  0  0  0  0  0  0  0  0  0  0  0
   -2.4500   19.8160  -33.8540 C   0  0  0  0  0  0  0  0  0  0  0  0
   -2.9877   20.4746  -34.5519 H   0  0  0  0  0  0  0  0  0  0  0  0
   -2.2531   18.8416  -34.3249 H   0  0  0  0  0  0  0  0  0  0  0  0
   -1.1600   20.4400  -33.4940 N   0  0  0  0  0  0  0  0  0  0  0  0
   -0.2570   19.5210  -32.7630 C   0  0  0  0  0  0  0  0  0  0  0  0
    0.7408   19.5773  -33.2225 H   0  0  0  0  0  0  0  0  0  0  0  0
   -0.6979   18.5157  -32.8341 H   0  0  0  0  0  0  0  0  0  0  0  0
   -0.1200   19.8440  -31.2670 C   0  0  0  0  0  0  0  0  0  0  0  0
   -0.4816   18.9915  -30.6732 H   0  0  0  0  0  0  0  0  0  0  0  0
    0.9367   20.0351  -31.0284 H   0  0  0  0  0  0  0  0  0  0  0  0
   -0.7170   20.7365  -31.0284 H   0  0  0  0  0  0  0  0  0  0  0  0
   -0.4980   21.1220  -34.6310 C   0  0  0  0  0  0  0  0  0  0  0  0
   -0.6651   20.5455  -35.5528 H   0  0  0  0  0  0  0  0  0  0  0  0
   -0.9188   22.1313  -34.7503 H   0  0  0  0  0  0  0  0  0  0  0  0
    0.9960   21.2220  -34.3580 C   0  0  0  0  0  0  0  0  0  0  0  0
    1.1703   21.2337  -33.2720 H   0  0  0  0  0  0  0  0  0  0  0  0
    1.5087   20.3562  -34.8024 H   0  0  0  0  0  0  0  0  0  0  0  0
    1.3887   22.1484  -34.8024 H   0  0  0  0  0  0  0  0  0  0  0  0
  1  2  1  0
  2  3  1  0
  3  4  2  0
  4  5  1  0
  5  6  2  0
  6  7  1  0
  7  8  2  0
  7  9  1  0
  9 10  2  0
 10 11  1  0
 10 12  1  0
 12 13  1  0
 12 14  2  0
 14 15  1  0
 15 16  1  0
 15 17  2  0
 17 18  1  0
  4 19  1  0
 19 20  2  0
 20 21  1  0
 20 22  1  0
 22 23  1  0
 22 24  2  0
 24 25  1  0
 24 26  1  0
 26 27  1  0
 26 28  2  0
 28 29  1  0
 29 30  1  0
 30 31  1  0
 30 32  1  0
 30 33  1  0
 33 34  1  0
 33 35  1  0
 33 36  1  0
 36 37  1  0
 37 38  1  0
 37 39  1  0
 37 40  1  0
 40 41  1  0
 40 42  1  0
 40 43  1  0
 36 44  1  0
 44 45  1  0
 44 46  1  0
 44 47  1  0
 47 48  1  0
 47 49  1  0
 47 50  1  0
 29  3  1  0
 17  9  1  0
 28 19  1  0
M  END
>  <UniqueID>  (19) 
18

>  <SMILES>  (19) 
CCN(CC)CCn1c(O)c(/N=N/C(=O)c2ccncc2)c2ccc(Br)cc21

>  <Energy>  (19) 
86.80422940176828

>  <Genealogy>  (19) 
CCN(CC)CCn1c(O)c(/N=N/C(=O)c2ccncc2)c2ccc(Br)cc21 (cis-trans isomerization)
CCN(CC)CCn1c(O)c(/N=N/C(=O)c2ccncc2)c2ccc(Br)cc21 (3D coordinates assigned)
CCN(CC)CCn1c(O)c(/N=N/C(=O)c2ccncc2)c2ccc(Br)cc21 (optimized conformer: 86.80422940176828 kcal/mol)

>  <smiles>  (19) 
CCN(CC)CCn1c(O)c(N=NC(=O)c2ccncc2)c2ccc(Br)cc21

>  <score_type>  (19) 
oracle

>  <origin>  (19) 
adg

>  <m_score__min__energy>  (19) 
-9.4900000000000002

>  <m_primary>  (19) 
energy

$$$$
19:0
     RDKit          3D

 38 41  0  0  0  0  0  0  0  0999 V2000
   -2.4400   25.3020  -29.3360 O   0  0  0  0  0  0  0  0  0  0  0  0
   -3.4950   24.7630  -29.7640 C   0  0  0  0  0  0  0  0  0  0  0  0
   -4.1590   25.3360  -30.8430 O   0  0  0  0  0  0  0  0  0  0  0  0
   -4.0240   23.5200  -29.0930 C   0  0  2  0  0  0  0  0  0  0  0  0
   -2.8800   22.6480  -28.4920 C   0  0  0  0  0  0  0  0  0  0  0  0
   -2.3170   21.5290  -29.4370 C   0  0  0  0  0  0  0  0  0  0  0  0
   -1.2630   20.7010  -28.6870 C   0  0  0  0  0  0  0  0  0  0  0  0
    0.0640   21.4330  -28.8680 C   0  0  0  0  0  0  0  0  0  0  0  0
   -0.1070   22.3600  -30.0690 C   0  0  0  0  0  0  0  0  0  0  0  0
   -1.5090   22.1150  -30.6090 C   0  0  0  0  0  0  0  0  0  0  0  0
   -3.4690   20.6130  -29.9330 C   0  0  0  0  0  0  0  0  0  0  0  0
   -4.6120   21.4330  -30.4380 C   0  0  0  0  0  0  0  0  0  0  0  0
   -4.9020   22.7190  -30.0160 C   0  0  0  0  0  0  0  0  0  0  0  0
   -6.0730   23.1480  -30.5400 N   0  0  0  0  0  0  0  0  0  0  0  0
   -6.5340   22.1210  -31.2830 C   0  0  0  0  0  0  0  0  0  0  0  0
   -7.7270   22.0610  -32.0070 C   0  0  0  0  0  0  0  0  0  0  0  0
   -8.8360   23.4210  -32.0710 Cl  0  0  0  0  0  0  0  0  0  0  0  0
   -8.0230   20.8650  -32.6890 C   0  0  0  0  0  0  0  0  0  0  0  0
   -7.1370   19.7670  -32.6290 C   0  0  0  0  0  0  0  0  0  0  0  0
   -5.9430   19.8530  -31.8900 C   0  0  0  0  0  0  0  0  0  0  0  0
   -5.6710   21.0520  -31.2340 C   0  0  0  0  0  0  0  0  0  0  0  0
   -4.6500   23.8543  -28.2526 H   0  0  0  0  0  0  0  0  0  0  0  0
   -2.0483   23.3167  -28.2254 H   0  0  0  0  0  0  0  0  0  0  0  0
   -3.3201   22.1235  -27.6311 H   0  0  0  0  0  0  0  0  0  0  0  0
   -1.5193   20.6352  -27.6193 H   0  0  0  0  0  0  0  0  0  0  0  0
   -1.2097   19.6737  -29.0767 H   0  0  0  0  0  0  0  0  0  0  0  0
    0.2998   22.0189  -27.9674 H   0  0  0  0  0  0  0  0  0  0  0  0
    0.8887   20.7233  -29.0300 H   0  0  0  0  0  0  0  0  0  0  0  0
    0.0021   23.4093  -29.7575 H   0  0  0  0  0  0  0  0  0  0  0  0
    0.6551   22.1605  -30.8367 H   0  0  0  0  0  0  0  0  0  0  0  0
   -1.9585   23.0597  -30.9489 H   0  0  0  0  0  0  0  0  0  0  0  0
   -1.4957   21.4322  -31.4713 H   0  0  0  0  0  0  0  0  0  0  0  0
   -3.0969   19.9720  -30.7458 H   0  0  0  0  0  0  0  0  0  0  0  0
   -3.8190   19.9961  -29.0922 H   0  0  0  0  0  0  0  0  0  0  0  0
   -6.5280   24.0760  -30.3840 H   0  0  0  0  0  0  0  0  0  0  0  0
   -8.9517   20.7854  -33.2731 H   0  0  0  0  0  0  0  0  0  0  0  0
   -7.3822   18.8377  -33.1640 H   0  0  0  0  0  0  0  0  0  0  0  0
   -5.2477   19.0026  -31.8320 H   0  0  0  0  0  0  0  0  0  0  0  0
  1  2  2  0
  2  3  1  0
  2  4  1  0
  4  5  1  0
  5  6  1  0
  6  7  1  0
  7  8  1  0
  8  9  1  0
  9 10  1  0
  6 11  1  0
 11 12  1  0
 12 13  2  0
 13 14  1  0
 14 15  1  0
 15 16  2  0
 16 17  1  0
 16 18  1  0
 18 19  2  0
 19 20  1  0
 20 21  2  0
 13  4  1  0
 21 15  1  0
 10  6  1  0
 21 12  1  0
  4 22  1  1
  5 23  1  0
  5 24  1  0
  7 25  1  0
  7 26  1  0
  8 27  1  0
  8 28  1  0
  9 29  1  0
  9 30  1  0
 10 31  1  0
 10 32  1  0
 11 33  1  0
 11 34  1  0
 14 35  1  0
 18 36  1  0
 19 37  1  0
 20 38  1  0
M  CHG  1   3  -1
M  END
>  <UniqueID>  (20) 
19

>  <SMILES>  (20) 
O=C([O-])[C@@H]1CC2(CCCC2)Cc2c1[nH]c1c(Cl)cccc21

>  <Energy>  (20) 
80.18909332859428

>  <Genealogy>  (20) 
O=C([O-])C1CC2(CCCC2)Cc2c1[nH]c1c(Cl)cccc21 (protonated)
O=C([O-])[C@@H]1CC2(CCCC2)Cc2c1[nH]c1c(Cl)cccc21 (chirality)
O=C([O-])[C@@H]1CC2(CCCC2)Cc2c1[nH]c1c(Cl)cccc21 (3D coordinates assigned)
O=C([O-])[C@@H]1CC2(CCCC2)Cc2c1[nH]c1c(Cl)cccc21 (nonaromatic ring conformer: 80.18909332859428 kcal/mol)

>  <smiles>  (20) 
O=C(O)C1CC2(CCCC2)Cc2c1[nH]c1c(Cl)cccc21

>  <score_type>  (20) 
oracle

>  <origin>  (20) 
adg

>  <m_score__min__energy>  (20) 
-9.6400000000000006

>  <m_primary>  (20) 
energy

$$$$
20:0
     RDKit          3D

 41 43  0  0  0  0  0  0  0  0999 V2000
   -1.9800   24.9330  -27.8670 C   0  0  0  0  0  0  0  0  0  0  0  0
   -2.6120   24.4620  -29.1090 N   0  0  0  0  0  0  0  0  0  0  0  0
   -1.8520   23.3550  -29.7110 C   0  0  0  0  0  0  0  0  0  0  0  0
   -4.0580   24.1750  -28.9630 C   0  0  0  0  0  0  0  0  0  0  0  0
   -4.9610   24.8140  -30.0360 C   0  0  0  0  0  0  0  0  0  0  0  0
   -4.9120   24.0600  -31.2300 O   0  0  0  0  0  0  0  0  0  0  0  0
   -6.1300   24.1750  -31.9420 C   0  0  0  0  0  0  0  0  0  0  0  0
   -6.8690   22.8640  -31.9060 C   0  0  0  0  0  0  0  0  0  0  0  0
   -8.0520   22.7480  -31.1590 C   0  0  0  0  0  0  0  0  0  0  0  0
   -8.7140   21.5220  -31.0620 C   0  0  0  0  0  0  0  0  0  0  0  0
   -8.1970   20.3880  -31.7040 C   0  0  0  0  0  0  0  0  0  0  0  0
   -8.8540   19.1410  -31.6010 C   0  0  0  0  0  0  0  0  0  0  0  0
   -8.3250   18.0080  -32.2380 C   0  0  0  0  0  0  0  0  0  0  0  0
   -7.1450   18.1450  -32.9650 C   0  0  0  0  0  0  0  0  0  0  0  0
   -6.4970   19.3430  -33.0760 C   0  0  0  0  0  0  0  0  0  0  0  0
   -6.9970   20.4980  -32.4560 C   0  0  0  0  0  0  0  0  0  0  0  0
   -6.3430   21.7350  -32.5540 C   0  0  0  0  0  0  0  0  0  0  0  0
   -5.2700   19.1690  -33.9050 C   0  0  0  0  0  0  0  0  0  0  0  0
   -5.3090   17.6640  -34.2660 C   0  0  0  0  0  0  0  0  0  0  0  0
   -6.4840   17.1450  -33.6450 O   0  0  0  0  0  0  0  0  0  0  0  0
   -2.5246   24.5272  -27.0017 H   0  0  0  0  0  0  0  0  0  0  0  0
   -0.9347   24.5919  -27.8353 H   0  0  0  0  0  0  0  0  0  0  0  0
   -2.0081   26.0322  -27.8353 H   0  0  0  0  0  0  0  0  0  0  0  0
   -1.4225   22.7294  -28.9147 H   0  0  0  0  0  0  0  0  0  0  0  0
   -2.5231   22.7457  -30.3342 H   0  0  0  0  0  0  0  0  0  0  0  0
   -1.0423   23.7624  -30.3342 H   0  0  0  0  0  0  0  0  0  0  0  0
   -4.1955   23.0845  -29.0068 H   0  0  0  0  0  0  0  0  0  0  0  0
   -4.3632   24.6158  -28.0025 H   0  0  0  0  0  0  0  0  0  0  0  0
   -5.9971   24.8436  -29.6677 H   0  0  0  0  0  0  0  0  0  0  0  0
   -4.6052   25.8343  -30.2420 H   0  0  0  0  0  0  0  0  0  0  0  0
   -6.7507   24.9566  -31.4795 H   0  0  0  0  0  0  0  0  0  0  0  0
   -5.9152   24.4416  -32.9874 H   0  0  0  0  0  0  0  0  0  0  0  0
   -8.4612   23.6306  -30.6455 H   0  0  0  0  0  0  0  0  0  0  0  0
   -9.6442   21.4459  -30.4799 H   0  0  0  0  0  0  0  0  0  0  0  0
   -9.7838   19.0582  -31.0191 H   0  0  0  0  0  0  0  0  0  0  0  0
   -8.8308   17.0339  -32.1648 H   0  0  0  0  0  0  0  0  0  0  0  0
   -5.4159   21.8207  -33.1399 H   0  0  0  0  0  0  0  0  0  0  0  0
   -5.3109   19.7943  -34.8091 H   0  0  0  0  0  0  0  0  0  0  0  0
   -4.3478   19.4679  -33.3852 H   0  0  0  0  0  0  0  0  0  0  0  0
   -5.3627   17.5331  -35.3569 H   0  0  0  0  0  0  0  0  0  0  0  0
   -4.4046   17.1416  -33.9209 H   0  0  0  0  0  0  0  0  0  0  0  0
  1  2  1  0
  2  3  1  0
  2  4  1  0
  4  5  1  0
  5  6  1  0
  6  7  1  0
  7  8  1  0
  8  9  2  0
  9 10  1  0
 10 11  2  0
 11 12  1  0
 12 13  2  0
 13 14  1  0
 14 15  2  0
 15 16  1  0
 16 17  2  0
 15 18  1  0
 18 19  1  0
 19 20  1  0
 17  8  1  0
 16 11  1  0
 20 14  1  0
  1 21  1  0
  1 22  1  0
  1 23  1  0
  3 24  1  0
  3 25  1  0
  3 26  1  0
  4 27  1  0
  4 28  1  0
  5 29  1  0
  5 30  1  0
  7 31  1  0
  7 32  1  0
  9 33  1  0
 10 34  1  0
 12 35  1  0
 13 36  1  0
 17 37  1  0
 18 38  1  0
 18 39  1  0
 19 40  1  0
 19 41  1  0
M  END
>  <UniqueID>  (21) 
20

>  <SMILES>  (21) 
CN(C)CCOCc1ccc2ccc3c(c2c1)CCO3

>  <Energy>  (21) 
63.11451919784532

>  <Genealogy>  (21) 
CN(C)CCOCc1ccc2ccc3c(c2c1)CCO3 (3D coordinates assigned)
CN(C)CCOCc1ccc2ccc3c(c2c1)CCO3 (nonaromatic ring conformer: 63.11451919784532 kcal/mol)

>  <smiles>  (21) 
CN(C)CCOCc1ccc2ccc3c(c2c1)CCO3

>  <score_type>  (21) 
oracle

>  <origin>  (21) 
adg

>  <m_score__min__energy>  (21) 
-7.7699999999999996

>  <m_primary>  (21) 
energy

$$$$
21:0
     RDKit          3D

 39 41  0  0  0  0  0  0  0  0999 V2000
   -9.5120   21.7120  -31.9930 C   0  0  0  0  0  0  0  0  0  0  0  0
   -8.8210   23.3620  -32.3260 S   0  0  0  0  0  0  0  0  0  0  0  0
   -7.3530   23.0780  -31.3350 C   0  0  0  0  0  0  0  0  0  0  0  0
   -7.0150   23.9700  -30.3100 C   0  0  0  0  0  0  0  0  0  0  0  0
   -5.8740   23.7470  -29.5350 C   0  0  0  0  0  0  0  0  0  0  0  0
   -5.0620   22.6250  -29.7730 C   0  0  0  0  0  0  0  0  0  0  0  0
   -3.8300   22.3810  -28.9320 C   0  0  0  0  0  0  0  0  0  0  0  0
   -2.5490   23.0650  -29.4800 C   0  0  1  0  0  0  0  0  0  0  0  0
   -1.9650   22.3620  -30.7180 C   0  0  0  0  0  0  0  0  0  0  0  0
   -2.7540   24.5390  -29.7460 C   0  0  0  0  0  0  0  0  0  0  0  0
   -3.4980   24.9950  -30.6550 O   0  0  0  0  0  0  0  0  0  0  0  0
   -1.9830   25.3930  -28.9040 N   0  0  0  0  0  0  0  0  0  0  0  0
   -1.2430   24.4890  -28.1030 C   0  0  0  0  0  0  0  0  0  0  0  0
   -0.3230   24.8500  -27.1220 C   0  0  0  0  0  0  0  0  0  0  0  0
    0.3540   23.8330  -26.4200 C   0  0  0  0  0  0  0  0  0  0  0  0
    1.3210   24.1860  -25.3290 C   0  0  0  0  0  0  0  0  0  0  0  0
    0.0680   22.4790  -26.7040 C   0  0  0  0  0  0  0  0  0  0  0  0
   -0.8620   22.1390  -27.6980 C   0  0  0  0  0  0  0  0  0  0  0  0
   -1.1230   20.8360  -27.9710 F   0  0  0  0  0  0  0  0  0  0  0  0
   -1.5130   23.1660  -28.3920 C   0  0  0  0  0  0  0  0  0  0  0  0
   -5.4050   21.7370  -30.8060 C   0  0  0  0  0  0  0  0  0  0  0  0
   -6.5470   21.9610  -31.5800 C   0  0  0  0  0  0  0  0  0  0  0  0
   -9.5779   21.5546  -30.9063 H   0  0  0  0  0  0  0  0  0  0  0  0
  -10.5163   21.6389  -32.4357 H   0  0  0  0  0  0  0  0  0  0  0  0
   -8.8595   20.9450  -32.4357 H   0  0  0  0  0  0  0  0  0  0  0  0
   -7.6487   24.8476  -30.1146 H   0  0  0  0  0  0  0  0  0  0  0  0
   -5.6099   24.4535  -28.7343 H   0  0  0  0  0  0  0  0  0  0  0  0
   -4.0208   22.7642  -27.9187 H   0  0  0  0  0  0  0  0  0  0  0  0
   -3.6438   21.2970  -28.9453 H   0  0  0  0  0  0  0  0  0  0  0  0
   -1.2927   21.5527  -30.3970 H   0  0  0  0  0  0  0  0  0  0  0  0
   -2.7833   21.9415  -31.3210 H   0  0  0  0  0  0  0  0  0  0  0  0
   -1.4016   23.0893  -31.3210 H   0  0  0  0  0  0  0  0  0  0  0  0
   -0.1284   25.9095  -26.8992 H   0  0  0  0  0  0  0  0  0  0  0  0
    0.8488   24.0136  -24.3506 H   0  0  0  0  0  0  0  0  0  0  0  0
    2.2197   23.5579  -25.4182 H   0  0  0  0  0  0  0  0  0  0  0  0
    1.6037   25.2453  -25.4182 H   0  0  0  0  0  0  0  0  0  0  0  0
    0.5790   21.6842  -26.1408 H   0  0  0  0  0  0  0  0  0  0  0  0
   -4.7713   20.8606  -31.0068 H   0  0  0  0  0  0  0  0  0  0  0  0
   -6.8125   21.2579  -32.3832 H   0  0  0  0  0  0  0  0  0  0  0  0
  1  2  1  0
  2  3  1  0
  3  4  2  0
  4  5  1  0
  5  6  2  0
  6  7  1  0
  8  7  1  1
  8  9  1  0
  8 10  1  0
 10 11  2  0
 10 12  1  0
 12 13  1  0
 13 14  2  0
 14 15  1  0
 15 16  1  0
 15 17  2  0
 17 18  1  0
 18 19  1  0
 18 20  2  0
  6 21  1  0
 21 22  2  0
 22  3  1  0
 20  8  1  0
 20 13  1  0
  1 23  1  0
  1 24  1  0
  1 25  1  0
  4 26  1  0
  5 27  1  0
  7 28  1  0
  7 29  1  0
  9 30  1  0
  9 31  1  0
  9 32  1  0
 14 33  1  0
 16 34  1  0
 16 35  1  0
 16 36  1  0
 17 37  1  0
 21 38  1  0
 22 39  1  0
M  CHG  1  12  -1
M  END
>  <UniqueID>  (22) 
21

>  <SMILES>  (22) 
CSc1ccc(C[C@@]2(C)C(=O)[N-]c3cc(C)cc(F)c32)cc1

>  <Energy>  (22) 
52.91204141952456

>  <Genealogy>  (22) 
CSc1ccc(CC2(C)C(=O)[N-]c3cc(C)cc(F)c32)cc1 (protonated)
CSc1ccc(C[C@@]2(C)C(=O)[N-]c3cc(C)cc(F)c32)cc1 (chirality)
CSc1ccc(C[C@@]2(C)C(=O)[N-]c3cc(C)cc(F)c32)cc1 (3D coordinates assigned)
CSc1ccc(C[C@@]2(C)C(=O)[N-]c3cc(C)cc(F)c32)cc1 (nonaromatic ring conformer: 52.91204141952456 kcal/mol)

>  <smiles>  (22) 
CSc1ccc(CC2(C)C(=O)Nc3cc(C)cc(F)c32)cc1

>  <score_type>  (22) 
oracle

>  <origin>  (22) 
adg

>  <m_score__min__energy>  (22) 
-9.1899999999999995

>  <m_primary>  (22) 
energy

$$$$
22:0
     RDKit          3D

 49 50  0  0  0  0  0  0  0  0999 V2000
   -3.2420   20.5470  -33.2340 C   0  0  0  0  0  0  0  0  0  0  0  0
   -3.7560   21.9070  -32.7750 C   0  0  0  0  0  0  0  0  0  0  0  0
   -3.1650   22.2920  -31.4110 C   0  0  0  0  0  0  0  0  0  0  0  0
   -4.2520   22.6710  -30.3850 C   0  0  0  0  0  0  0  0  0  0  0  0
   -4.3800   24.1860  -30.1400 C   0  0  0  0  0  0  0  0  0  0  0  0
   -5.6760   24.8080  -30.7050 C   0  0  0  0  0  0  0  0  0  0  0  0
   -6.8690   23.8310  -30.7700 C   0  0  0  0  0  0  0  0  0  0  0  0
   -7.2790   23.4180  -32.1950 C   0  0  0  0  0  0  0  0  0  0  0  0
   -7.7310   22.0210  -32.2470 N   0  0  0  0  0  0  0  0  0  0  0  0
   -9.0150   21.7130  -31.8960 C   0  0  0  0  0  0  0  0  0  0  0  0
   -9.4760   20.3970  -31.9730 C   0  0  0  0  0  0  0  0  0  0  0  0
   -8.6140   19.3940  -32.4140 C   0  0  0  0  0  0  0  0  0  0  0  0
   -7.2960   19.7100  -32.7620 C   0  0  0  0  0  0  0  0  0  0  0  0
   -6.3750   18.6650  -33.2670 C   0  0  0  0  0  0  0  0  0  0  0  0
   -5.9190   18.7700  -34.5910 C   0  0  0  0  0  0  0  0  0  0  0  0
   -5.0820   17.7880  -35.1140 C   0  0  0  0  0  0  0  0  0  0  0  0
   -4.7050   16.7090  -34.3210 C   0  0  0  0  0  0  0  0  0  0  0  0
   -5.1590   16.6330  -33.0040 C   0  0  0  0  0  0  0  0  0  0  0  0
   -5.9630   17.6100  -32.4800 N   0  0  0  0  0  0  0  0  0  0  0  0
   -6.3790   17.4890  -31.0760 C   0  0  0  0  0  0  0  0  0  0  0  0
   -6.8740   21.0440  -32.6750 C   0  0  0  0  0  0  0  0  0  0  0  0
   -3.0080   19.9279  -32.3554 H   0  0  0  0  0  0  0  0  0  0  0  0
   -4.0137   20.0484  -33.8389 H   0  0  0  0  0  0  0  0  0  0  0  0
   -2.3334   20.6835  -33.8389 H   0  0  0  0  0  0  0  0  0  0  0  0
   -3.4712   22.6674  -33.5171 H   0  0  0  0  0  0  0  0  0  0  0  0
   -4.8503   21.8512  -32.6775 H   0  0  0  0  0  0  0  0  0  0  0  0
   -2.5928   21.4377  -31.0201 H   0  0  0  0  0  0  0  0  0  0  0  0
   -2.5231   23.1727  -31.5602 H   0  0  0  0  0  0  0  0  0  0  0  0
   -5.2193   22.2968  -30.7515 H   0  0  0  0  0  0  0  0  0  0  0  0
   -3.9581   22.2171  -29.4271 H   0  0  0  0  0  0  0  0  0  0  0  0
   -4.3559   24.3639  -29.0547 H   0  0  0  0  0  0  0  0  0  0  0  0
   -3.5418   24.6649  -30.6673 H   0  0  0  0  0  0  0  0  0  0  0  0
   -5.9592   25.6566  -30.0649 H   0  0  0  0  0  0  0  0  0  0  0  0
   -5.4573   25.1100  -31.7399 H   0  0  0  0  0  0  0  0  0  0  0  0
   -6.5991   22.9217  -30.2130 H   0  0  0  0  0  0  0  0  0  0  0  0
   -7.7308   24.3604  -30.3376 H   0  0  0  0  0  0  0  0  0  0  0  0
   -8.0974   24.0703  -32.5337 H   0  0  0  0  0  0  0  0  0  0  0  0
   -6.3992   23.5183  -32.8476 H   0  0  0  0  0  0  0  0  0  0  0  0
   -9.6914   22.5084  -31.5498 H   0  0  0  0  0  0  0  0  0  0  0  0
  -10.5103   20.1539  -31.6882 H   0  0  0  0  0  0  0  0  0  0  0  0
   -8.9694   18.3557  -32.4883 H   0  0  0  0  0  0  0  0  0  0  0  0
   -6.2221   19.6252  -35.2128 H   0  0  0  0  0  0  0  0  0  0  0  0
   -4.7203   17.8650  -36.1500 H   0  0  0  0  0  0  0  0  0  0  0  0
   -4.0540   15.9219  -34.7292 H   0  0  0  0  0  0  0  0  0  0  0  0
   -4.8672   15.7768  -32.3781 H   0  0  0  0  0  0  0  0  0  0  0  0
   -5.5313   17.7356  -30.4198 H   0  0  0  0  0  0  0  0  0  0  0  0
   -7.2094   18.1828  -30.8785 H   0  0  0  0  0  0  0  0  0  0  0  0
   -6.7077   16.4580  -30.8785 H   0  0  0  0  0  0  0  0  0  0  0  0
   -5.8432   21.3081  -32.9537 H   0  0  0  0  0  0  0  0  0  0  0  0
  1  2  1  0
  2  3  1  0
  3  4  1  0
  4  5  1  0
  5  6  1  0
  6  7  1  0
  7  8  1  0
  8  9  1  0
  9 10  2  0
 10 11  1  0
 11 12  2  0
 12 13  1  0
 13 14  1  0
 14 15  2  0
 15 16  1  0
 16 17  2  0
 17 18  1  0
 18 19  2  0
 19 20  1  0
 13 21  2  0
 21  9  1  0
 19 14  1  0
  1 22  1  0
  1 23  1  0
  1 24  1  0
  2 25  1  0
  2 26  1  0
  3 27  1  0
  3 28  1  0
  4 29  1  0
  4 30  1  0
  5 31  1  0
  5 32  1  0
  6 33  1  0
  6 34  1  0
  7 35  1  0
  7 36  1  0
  8 37  1  0
  8 38  1  0
 10 39  1  0
 11 40  1  0
 12 41  1  0
 15 42  1  0
 16 43  1  0
 17 44  1  0
 18 45  1  0
 20 46  1  0
 20 47  1  0
 20 48  1  0
 21 49  1  0
M  CHG  2   9   1  19   1
M  END
>  <UniqueID>  (23) 
22

>  <SMILES>  (23) 
CCCCCCCC[n+]1cccc(-c2cccc[n+]2C)c1

>  <Energy>  (23) 
49.91631285939024

>  <Genealogy>  (23) 
CCCCCCCC[n+]1cccc(-c2cccc[n+]2C)c1 (3D coordinates assigned)
CCCCCCCC[n+]1cccc(-c2cccc[n+]2C)c1 (optimized conformer: 49.91631285939024 kcal/mol)

>  <smiles>  (23) 
CCCCCCCC[n+]1cccc(-c2cccc[n+]2C)c1

>  <score_type>  (23) 
oracle

>  <origin>  (23) 
adg

>  <m_score__min__energy>  (23) 
-6.0700000000000003

>  <m_primary>  (23) 
energy

$$$$
23:0
     RDKit          3D

 38 39  0  0  0  0  0  0  0  0999 V2000
   -7.2260   25.6700  -29.3420 C   0  0  0  0  0  0  0  0  0  0  0  0
   -5.9060   25.2900  -29.7200 O   0  0  0  0  0  0  0  0  0  0  0  0
   -5.5790   24.0910  -30.3720 C   0  0  0  0  0  0  0  0  0  0  0  0
   -6.5580   23.1530  -30.7530 C   0  0  0  0  0  0  0  0  0  0  0  0
   -6.1970   21.9590  -31.4000 C   0  0  0  0  0  0  0  0  0  0  0  0
   -7.2340   20.9740  -31.8010 C   0  0  0  0  0  0  0  0  0  0  0  0
   -8.5870   21.3550  -31.8870 C   0  0  0  0  0  0  0  0  0  0  0  0
   -9.5620   20.4260  -32.2640 C   0  0  0  0  0  0  0  0  0  0  0  0
   -9.2000   19.1110  -32.5610 C   0  0  0  0  0  0  0  0  0  0  0  0
   -7.8620   18.7210  -32.4790 C   0  0  0  0  0  0  0  0  0  0  0  0
   -6.8820   19.6450  -32.1020 C   0  0  0  0  0  0  0  0  0  0  0  0
   -4.8400   21.7070  -31.6560 C   0  0  0  0  0  0  0  0  0  0  0  0
   -3.8650   22.6320  -31.2810 C   0  0  0  0  0  0  0  0  0  0  0  0
   -4.2280   23.8350  -30.6520 C   0  0  0  0  0  0  0  0  0  0  0  0
   -3.2710   24.7810  -30.2530 O   0  0  0  0  0  0  0  0  0  0  0  0
   -2.3770   24.6310  -29.1850 C   0  0  0  0  0  0  0  0  0  0  0  0
   -1.4240   25.4400  -29.0160 O   0  0  0  0  0  0  0  0  0  0  0  0
   -2.6230   23.5570  -28.1730 C   0  0  0  0  0  0  0  0  0  0  0  0
   -3.5810   24.0280  -27.0710 C   0  0  0  0  0  0  0  0  0  0  0  0
   -4.6180   24.9220  -27.5920 N   0  0  0  0  0  0  0  0  0  0  0  0
   -7.3013   25.6917  -28.2448 H   0  0  0  0  0  0  0  0  0  0  0  0
   -7.4495   26.6690  -29.7447 H   0  0  0  0  0  0  0  0  0  0  0  0
   -7.9464   24.9428  -29.7447 H   0  0  0  0  0  0  0  0  0  0  0  0
   -7.6179   23.3575  -30.5416 H   0  0  0  0  0  0  0  0  0  0  0  0
   -8.8789   22.3901  -31.6561 H   0  0  0  0  0  0  0  0  0  0  0  0
  -10.6166   20.7323  -32.3266 H   0  0  0  0  0  0  0  0  0  0  0  0
   -9.9684   18.3826  -32.8594 H   0  0  0  0  0  0  0  0  0  0  0  0
   -7.5777   17.6841  -32.7115 H   0  0  0  0  0  0  0  0  0  0  0  0
   -5.8296   19.3310  -32.0404 H   0  0  0  0  0  0  0  0  0  0  0  0
   -4.5430   20.7733  -32.1560 H   0  0  0  0  0  0  0  0  0  0  0  0
   -2.8044   22.4179  -31.4792 H   0  0  0  0  0  0  0  0  0  0  0  0
   -3.0618   22.6841  -28.6784 H   0  0  0  0  0  0  0  0  0  0  0  0
   -1.6615   23.2981  -27.7055 H   0  0  0  0  0  0  0  0  0  0  0  0
   -4.0638   23.1485  -26.6201 H   0  0  0  0  0  0  0  0  0  0  0  0
   -2.9945   24.5852  -26.3256 H   0  0  0  0  0  0  0  0  0  0  0  0
   -5.4950   24.3870  -27.7850 H   0  0  0  0  0  0  0  0  0  0  0  0
   -4.8120   25.6900  -26.9090 H   0  0  0  0  0  0  0  0  0  0  0  0
   -4.2840   25.3440  -28.4880 H   0  0  0  0  0  0  0  0  0  0  0  0
  1  2  1  0
  2  3  1  0
  3  4  2  0
  4  5  1  0
  5  6  1  0
  6  7  2  0
  7  8  1  0
  8  9  2  0
  9 10  1  0
 10 11  2  0
  5 12  2  0
 12 13  1  0
 13 14  2  0
 14 15  1  0
 15 16  1  0
 16 17  2  0
 16 18  1  0
 18 19  1  0
 19 20  1  0
 14  3  1  0
 11  6  1  0
  1 21  1  0
  1 22  1  0
  1 23  1  0
  4 24  1  0
  7 25  1  0
  8 26  1  0
  9 27  1  0
 10 28  1  0
 11 29  1  0
 12 30  1  0
 13 31  1  0
 18 32  1  0
 18 33  1  0
 19 34  1  0
 19 35  1  0
 20 36  1  0
 20 37  1  0
 20 38  1  0
M  CHG  1  20   1
M  END
>  <UniqueID>  (24) 
23

>  <SMILES>  (24) 
COc1cc(-c2ccccc2)ccc1OC(=O)CC[NH3+]

>  <Energy>  (24) 
43.0677221167678

>  <Genealogy>  (24) 
COc1cc(-c2ccccc2)ccc1OC(=O)CC[NH3+] (protonated)
COc1cc(-c2ccccc2)ccc1OC(=O)CC[NH3+] (3D coordinates assigned)
COc1cc(-c2ccccc2)ccc1OC(=O)CC[NH3+] (optimized conformer: 43.0677221167678 kcal/mol)

>  <smiles>  (24) 
COc1cc(-c2ccccc2)ccc1OC(=O)CCN

>  <score_type>  (24) 
oracle

>  <origin>  (24) 
adg

>  <m_score__min__energy>  (24) 
-7.3099999999999996

>  <m_primary>  (24) 
energy

$$$$
24:0
     RDKit          3D

 30 31  0  0  0  0  0  0  0  0999 V2000
   -0.8730   21.1800  -32.7120 C   0  0  0  0  0  0  0  0  0  0  0  0
   -1.0670   20.7910  -34.1210 N   0  0  0  0  0  0  0  0  0  0  0  0
   -1.8830   19.5690  -34.2180 C   0  0  0  0  0  0  0  0  0  0  0  0
    0.2190   20.6670  -34.8490 C   0  0  0  0  0  0  0  0  0  0  0  0
    0.6570   21.9430  -35.5190 C   0  0  0  0  0  0  0  0  0  0  0  0
    1.7210   22.0860  -36.3810 C   0  0  0  0  0  0  0  0  0  0  0  0
    1.7540   23.3400  -36.7570 O   0  0  0  0  0  0  0  0  0  0  0  0
    0.7560   23.9550  -36.1590 C   0  0  0  0  0  0  0  0  0  0  0  0
    0.4560   25.3900  -36.3320 C   0  0  0  0  0  0  0  0  0  0  0  0
   -0.7840   25.8070  -36.8480 C   0  0  0  0  0  0  0  0  0  0  0  0
   -1.0600   27.1680  -37.0100 C   0  0  0  0  0  0  0  0  0  0  0  0
   -0.1020   28.1250  -36.6590 C   0  0  0  0  0  0  0  0  0  0  0  0
   -0.4810   29.9840  -36.8820 Br  0  0  0  0  0  0  0  0  0  0  0  0
    1.1330   27.7190  -36.1460 C   0  0  0  0  0  0  0  0  0  0  0  0
    1.4130   26.3590  -35.9830 C   0  0  0  0  0  0  0  0  0  0  0  0
    0.0340   23.1280  -35.3700 N   0  0  0  0  0  0  0  0  0  0  0  0
   -1.2670   20.3899  -32.0559 H   0  0  0  0  0  0  0  0  0  0  0  0
    0.2001   21.3193  -32.5145 H   0  0  0  0  0  0  0  0  0  0  0  0
   -1.4074   22.1210  -32.5145 H   0  0  0  0  0  0  0  0  0  0  0  0
   -1.6060   21.5620  -34.5840 H   0  0  0  0  0  0  0  0  0  0  0  0
   -2.1241   19.2079  -33.2073 H   0  0  0  0  0  0  0  0  0  0  0  0
   -2.8141   19.7919  -34.7596 H   0  0  0  0  0  0  0  0  0  0  0  0
   -1.3203   18.7944  -34.7596 H   0  0  0  0  0  0  0  0  0  0  0  0
    0.9970   20.3656  -34.1321 H   0  0  0  0  0  0  0  0  0  0  0  0
    0.0702   19.9200  -35.6427 H   0  0  0  0  0  0  0  0  0  0  0  0
    2.4154   21.2931  -36.6958 H   0  0  0  0  0  0  0  0  0  0  0  0
   -1.5407   25.0585  -37.1256 H   0  0  0  0  0  0  0  0  0  0  0  0
   -2.0321   27.4868  -37.4141 H   0  0  0  0  0  0  0  0  0  0  0  0
    1.8865   28.4713  -35.8698 H   0  0  0  0  0  0  0  0  0  0  0  0
    2.3871   26.0455  -35.5796 H   0  0  0  0  0  0  0  0  0  0  0  0
  1  2  1  0
  2  3  1  0
  2  4  1  0
  4  5  1  0
  5  6  2  0
  6  7  1  0
  7  8  1  0
  8  9  1  0
  9 10  2  0
 10 11  1  0
 11 12  2  0
 12 13  1  0
 12 14  1  0
 14 15  2  0
  8 16  2  0
 16  5  1  0
 15  9  1  0
  1 17  1  0
  1 18  1  0
  1 19  1  0
  2 20  1  0
  3 21  1  0
  3 22  1  0
  3 23  1  0
  4 24  1  0
  4 25  1  0
  6 26  1  0
 10 27  1  0
 11 28  1  0
 14 29  1  0
 15 30  1  0
M  CHG  1   2   1
M  END
>  <UniqueID>  (25) 
24

>  <SMILES>  (25) 
C[NH+](C)Cc1coc(-c2ccc(Br)cc2)n1

>  <Energy>  (25) 
60.420830044832215

>  <Genealogy>  (25) 
C[NH+](C)Cc1coc(-c2ccc(Br)cc2)n1 (protonated)
C[NH+](C)Cc1coc(-c2ccc(Br)cc2)n1 (3D coordinates assigned)
C[NH+](C)Cc1coc(-c2ccc(Br)cc2)n1 (optimized conformer: 60.420830044832215 kcal/mol)

>  <smiles>  (25) 
CN(C)Cc1coc(-c2ccc(Br)cc2)n1

>  <score_type>  (25) 
oracle

>  <origin>  (25) 
adg

>  <m_score__min__energy>  (25) 
-6.0300000000000002

>  <m_primary>  (25) 
energy

$$$$
25:0
     RDKit          3D

 43 45  0  0  0  0  0  0  0  0999 V2000
   -3.0920   17.0360  -34.6700 C   0  0  0  0  0  0  0  0  0  0  0  0
   -4.0700   16.7220  -33.6860 O   0  0  0  0  0  0  0  0  0  0  0  0
   -5.1020   17.5870  -33.2920 C   0  0  0  0  0  0  0  0  0  0  0  0
   -5.7690   17.4560  -32.0580 C   0  0  0  0  0  0  0  0  0  0  0  0
   -6.8100   18.3260  -31.7240 C   0  0  0  0  0  0  0  0  0  0  0  0
   -7.2070   19.3350  -32.6150 C   0  0  0  0  0  0  0  0  0  0  0  0
   -8.2980   20.2070  -32.2750 N   0  0  0  0  0  0  0  0  0  0  0  0
   -9.5030   20.1710  -32.8170 N   0  0  0  0  0  0  0  0  0  0  0  0
  -10.2410   21.1550  -32.3320 N   0  0  0  0  0  0  0  0  0  0  0  0
   -9.5230   21.8640  -31.4700 N   0  0  0  0  0  0  0  0  0  0  0  0
   -8.3160   21.2650  -31.4410 C   0  0  0  0  0  0  0  0  0  0  0  0
   -6.9130   21.8940  -30.5140 S   0  0  0  0  0  0  0  0  0  0  0  0
   -6.7570   23.3990  -31.5300 C   0  0  0  0  0  0  0  0  0  0  0  0
   -5.3440   23.8950  -31.4580 C   0  0  0  0  0  0  0  0  0  0  0  0
   -5.1330   25.1070  -31.1820 O   0  0  0  0  0  0  0  0  0  0  0  0
   -4.2340   22.9950  -31.6030 N   0  0  0  0  0  0  0  0  0  0  0  0
   -4.1500   22.0640  -32.7340 C   0  0  0  0  0  0  0  0  0  0  0  0
   -3.8960   20.6350  -32.2310 C   0  0  0  0  0  0  0  0  0  0  0  0
   -2.9440   20.5730  -31.0140 C   0  0  0  0  0  0  0  0  0  0  0  0
   -2.1660   21.8780  -30.8000 C   0  0  0  0  0  0  0  0  0  0  0  0
   -3.1360   23.0560  -30.6270 C   0  0  0  0  0  0  0  0  0  0  0  0
   -6.5220   19.4810  -33.8310 C   0  0  0  0  0  0  0  0  0  0  0  0
   -5.4800   18.6120  -34.1640 C   0  0  0  0  0  0  0  0  0  0  0  0
   -2.1568   17.3363  -34.1747 H   0  0  0  0  0  0  0  0  0  0  0  0
   -2.9069   16.1521  -35.2981 H   0  0  0  0  0  0  0  0  0  0  0  0
   -3.4560   17.8624  -35.2981 H   0  0  0  0  0  0  0  0  0  0  0  0
   -5.4689   16.6654  -31.3545 H   0  0  0  0  0  0  0  0  0  0  0  0
   -7.3218   18.2194  -30.7562 H   0  0  0  0  0  0  0  0  0  0  0  0
   -9.8320   19.4720  -33.5210 H   0  0  0  0  0  0  0  0  0  0  0  0
   -7.0131   23.1667  -32.5742 H   0  0  0  0  0  0  0  0  0  0  0  0
   -7.4413   24.1733  -31.1530 H   0  0  0  0  0  0  0  0  0  0  0  0
   -5.0959   22.0884  -33.2950 H   0  0  0  0  0  0  0  0  0  0  0  0
   -3.3172   22.3671  -33.3856 H   0  0  0  0  0  0  0  0  0  0  0  0
   -4.8599   20.1902  -31.9428 H   0  0  0  0  0  0  0  0  0  0  0  0
   -3.4122   20.0832  -33.0505 H   0  0  0  0  0  0  0  0  0  0  0  0
   -3.5394   20.3670  -30.1123 H   0  0  0  0  0  0  0  0  0  0  0  0
   -2.2093   19.7778  -31.2087 H   0  0  0  0  0  0  0  0  0  0  0  0
   -1.5435   21.7853  -29.8978 H   0  0  0  0  0  0  0  0  0  0  0  0
   -1.5314   22.0639  -31.6790 H   0  0  0  0  0  0  0  0  0  0  0  0
   -3.5578   23.0260  -29.6115 H   0  0  0  0  0  0  0  0  0  0  0  0
   -2.5787   23.9901  -30.7910 H   0  0  0  0  0  0  0  0  0  0  0  0
   -6.8072   20.2844  -34.5261 H   0  0  0  0  0  0  0  0  0  0  0  0
   -4.9522   18.7355  -35.1212 H   0  0  0  0  0  0  0  0  0  0  0  0
  1  2  1  0
  2  3  1  0
  3  4  2  0
  4  5  1  0
  5  6  2  0
  6  7  1  0
  7  8  1  0
  8  9  2  0
  9 10  1  0
 10 11  2  0
 11 12  1  0
 12 13  1  0
 13 14  1  0
 14 15  2  0
 14 16  1  0
 16 17  1  0
 17 18  1  0
 18 19  1  0
 19 20  1  0
 20 21  1  0
  6 22  1  0
 22 23  2  0
 23  3  1  0
 11  7  1  0
 21 16  1  0
  1 24  1  0
  1 25  1  0
  1 26  1  0
  4 27  1  0
  5 28  1  0
  8 29  1  0
 13 30  1  0
 13 31  1  0
 17 32  1  0
 17 33  1  0
 18 34  1  0
 18 35  1  0
 19 36  1  0
 19 37  1  0
 20 38  1  0
 20 39  1  0
 21 40  1  0
 21 41  1  0
 22 42  1  0
 23 43  1  0
M  CHG  1   8   1
M  END
>  <UniqueID>  (26) 
25

>  <SMILES>  (26) 
COc1ccc(-n2[nH+]nnc2SCC(=O)N2CCCCC2)cc1

>  <Energy>  (26) 
84.80358645591126

>  <Genealogy>  (26) 
COc1ccc(-n2[nH+]nnc2SCC(=O)N2CCCCC2)cc1 (protonated)
COc1ccc(-n2[nH+]nnc2SCC(=O)N2CCCCC2)cc1 (3D coordinates assigned)
COc1ccc(-n2[nH+]nnc2SCC(=O)N2CCCCC2)cc1 (nonaromatic ring conformer: 84.80358645591126 kcal/mol)

>  <smiles>  (26) 
COc1ccc(-n2nnnc2SCC(=O)N2CCCCC2)cc1

>  <score_type>  (26) 
oracle

>  <origin>  (26) 
adg

>  <m_score__min__energy>  (26) 
-8.2300000000000004

>  <m_primary>  (26) 
energy

$$$$
26:0
     RDKit          3D

 61 64  0  0  0  0  0  0  0  0999 V2000
   -4.1710   20.1190  -33.6750 C   0  0  0  0  0  0  0  0  0  0  0  0
   -5.1870   20.7600  -32.8250 N   0  0  0  0  0  0  0  0  0  0  0  0
   -4.9500   22.0140  -32.3100 C   0  0  0  0  0  0  0  0  0  0  0  0
   -3.8920   22.6420  -32.5900 O   0  0  0  0  0  0  0  0  0  0  0  0
   -5.9060   22.5820  -31.4780 C   0  0  0  0  0  0  0  0  0  0  0  0
   -5.9820   23.8010  -30.8170 C   0  0  0  0  0  0  0  0  0  0  0  0
   -4.9460   24.8520  -30.7430 C   0  0  0  0  0  0  0  0  0  0  0  0
   -5.2840   26.0520  -30.9100 O   0  0  0  0  0  0  0  0  0  0  0  0
   -3.5680   24.5640  -30.4640 N   0  0  0  0  0  0  0  0  0  0  0  0
   -3.0560   23.4760  -29.6360 C   0  0  0  0  0  0  0  0  0  0  0  0
   -2.1820   22.5240  -30.4680 C   0  0  0  0  0  0  0  0  0  0  0  0
   -1.2330   21.6590  -29.6200 C   0  0  0  0  0  0  0  0  0  0  0  0
   -1.7320   21.4620  -28.1790 C   0  0  0  0  0  0  0  0  0  0  0  0
   -1.2980   22.5720  -27.3040 N   0  0  0  0  0  0  0  0  0  0  0  0
   -0.1910   23.3190  -27.9320 C   0  0  0  0  0  0  0  0  0  0  0  0
    0.0460   24.6150  -27.1530 C   0  0  0  0  0  0  0  0  0  0  0  0
    0.0260   24.3630  -25.7100 N   0  0  0  0  0  0  0  0  0  0  0  0
    0.2500   25.4560  -24.8110 C   0  0  0  0  0  0  0  0  0  0  0  0
   -0.8460   26.1080  -24.2280 C   0  0  0  0  0  0  0  0  0  0  0  0
   -0.6450   27.1720  -23.3480 C   0  0  0  0  0  0  0  0  0  0  0  0
    0.6520   27.5940  -23.0460 C   0  0  0  0  0  0  0  0  0  0  0  0
    1.7540   26.9570  -23.6260 C   0  0  0  0  0  0  0  0  0  0  0  0
    3.3700   27.5270  -23.2260 Cl  0  0  0  0  0  0  0  0  0  0  0  0
    1.5570   25.8840  -24.5140 C   0  0  0  0  0  0  0  0  0  0  0  0
    2.9360   25.0970  -25.2820 Cl  0  0  0  0  0  0  0  0  0  0  0  0
    0.0780   22.9890  -25.2070 C   0  0  0  0  0  0  0  0  0  0  0  0
   -0.9380   22.0900  -25.9420 C   0  0  0  0  0  0  0  0  0  0  0  0
   -7.2000   23.7760  -30.1410 C   0  0  0  0  0  0  0  0  0  0  0  0
   -7.8510   22.6170  -30.3780 N   0  0  0  0  0  0  0  0  0  0  0  0
   -7.0510   21.9030  -31.1940 C   0  0  0  0  0  0  0  0  0  0  0  0
   -7.2960   20.6530  -31.6790 N   0  0  0  0  0  0  0  0  0  0  0  0
   -8.5400   19.9580  -31.3170 C   0  0  0  0  0  0  0  0  0  0  0  0
   -6.3410   20.0740  -32.4870 C   0  0  0  0  0  0  0  0  0  0  0  0
   -6.5190   18.9010  -32.9230 O   0  0  0  0  0  0  0  0  0  0  0  0
   -3.4112   19.6397  -33.0402 H   0  0  0  0  0  0  0  0  0  0  0  0
   -4.6504   19.3595  -34.3101 H   0  0  0  0  0  0  0  0  0  0  0  0
   -3.6919   20.8787  -34.3101 H   0  0  0  0  0  0  0  0  0  0  0  0
   -2.4530   23.8977  -28.8183 H   0  0  0  0  0  0  0  0  0  0  0  0
   -3.9075   22.9100  -29.2302 H   0  0  0  0  0  0  0  0  0  0  0  0
   -2.8427   21.8564  -31.0405 H   0  0  0  0  0  0  0  0  0  0  0  0
   -1.5532   23.1494  -31.1188 H   0  0  0  0  0  0  0  0  0  0  0  0
   -1.1372   20.6722  -30.0965 H   0  0  0  0  0  0  0  0  0  0  0  0
   -0.2671   22.1827  -29.5667 H   0  0  0  0  0  0  0  0  0  0  0  0
   -2.8311   21.4177  -28.1833 H   0  0  0  0  0  0  0  0  0  0  0  0
   -1.3064   20.5256  -27.7891 H   0  0  0  0  0  0  0  0  0  0  0  0
    0.7227   22.7068  -27.9146 H   0  0  0  0  0  0  0  0  0  0  0  0
   -0.4492   23.5560  -28.9747 H   0  0  0  0  0  0  0  0  0  0  0  0
    1.0250   25.0309  -27.4334 H   0  0  0  0  0  0  0  0  0  0  0  0
   -0.7557   25.3269  -27.3988 H   0  0  0  0  0  0  0  0  0  0  0  0
   -1.8685   25.7793  -24.4654 H   0  0  0  0  0  0  0  0  0  0  0  0
   -1.5082   27.6787  -22.8918 H   0  0  0  0  0  0  0  0  0  0  0  0
    0.8073   28.4308  -22.3491 H   0  0  0  0  0  0  0  0  0  0  0  0
    1.0905   22.5878  -25.3616 H   0  0  0  0  0  0  0  0  0  0  0  0
   -0.1744   22.9989  -24.1364 H   0  0  0  0  0  0  0  0  0  0  0  0
   -0.5054   21.0829  -26.0345 H   0  0  0  0  0  0  0  0  0  0  0  0
   -1.8623   22.1005  -25.3458 H   0  0  0  0  0  0  0  0  0  0  0  0
   -7.5788   24.5879  -29.5027 H   0  0  0  0  0  0  0  0  0  0  0  0
   -8.7770   22.3390  -29.9830 H   0  0  0  0  0  0  0  0  0  0  0  0
   -8.6273   19.9092  -30.2216 H   0  0  0  0  0  0  0  0  0  0  0  0
   -9.3998   20.5065  -31.7293 H   0  0  0  0  0  0  0  0  0  0  0  0
   -8.5237   18.9383  -31.7293 H   0  0  0  0  0  0  0  0  0  0  0  0
  1  2  1  0
  2  3  1  0
  3  4  2  0
  3  5  1  0
  5  6  1  0
  6  7  1  0
  7  8  2  0
  7  9  1  0
  9 10  1  0
 10 11  1  0
 11 12  1  0
 12 13  1  0
 13 14  1  0
 14 15  1  0
 15 16  1  0
 16 17  1  0
 17 18  1  0
 18 19  2  0
 19 20  1  0
 20 21  2  0
 21 22  1  0
 22 23  1  0
 22 24  2  0
 24 25  1  0
 17 26  1  0
 26 27  1  0
  6 28  2  0
 28 29  1  0
 29 30  1  0
 30 31  1  0
 31 32  1  0
 31 33  1  0
 33 34  2  0
 33  2  1  0
 30  5  2  0
 27 14  1  0
 24 18  1  0
  1 35  1  0
  1 36  1  0
  1 37  1  0
 10 38  1  0
 10 39  1  0
 11 40  1  0
 11 41  1  0
 12 42  1  0
 12 43  1  0
 13 44  1  0
 13 45  1  0
 15 46  1  0
 15 47  1  0
 16 48  1  0
 16 49  1  0
 19 50  1  0
 20 51  1  0
 21 52  1  0
 26 53  1  0
 26 54  1  0
 27 55  1  0
 27 56  1  0
 28 57  1  0
 29 58  1  0
 32 59  1  0
 32 60  1  0
 32 61  1  0
M  CHG  1   9  -1
M  END
>  <UniqueID>  (27) 
26

>  <SMILES>  (27) 
Cn1c(=O)c2c(C(=O)[N-]CCCCN3CCN(c4cccc(Cl)c4Cl)CC3)c[nH]c2n(C)c1=O

>  <Energy>  (27) 
120.29496506182903

>  <Genealogy>  (27) 
Cn1c(=O)c2c(C(=O)[N-]CCCCN3CCN(c4cccc(Cl)c4Cl)CC3)c[nH]c2n(C)c1=O (protonated)
Cn1c(=O)c2c(C(=O)[N-]CCCCN3CCN(c4cccc(Cl)c4Cl)CC3)c[nH]c2n(C)c1=O (3D coordinates assigned)
Cn1c(=O)c2c(C(=O)[N-]CCCCN3CCN(c4cccc(Cl)c4Cl)CC3)c[nH]c2n(C)c1=O (nonaromatic ring conformer: 120.29496506182903 kcal/mol)

>  <smiles>  (27) 
Cn1c(=O)c2c(C(=O)NCCCCN3CCN(c4cccc(Cl)c4Cl)CC3)c[nH]c2n(C)c1=O

>  <score_type>  (27) 
oracle

>  <origin>  (27) 
adg

>  <m_score__min__energy>  (27) 
-11.34

>  <m_primary>  (27) 
energy

$$$$
27:0
     RDKit          3D

 62 66  0  0  0  0  0  0  0  0999 V2000
    1.0090   16.1670  -28.0090 C   0  0  0  0  0  0  0  0  0  0  0  0
    0.2380   17.1850  -28.6440 O   0  0  0  0  0  0  0  0  0  0  0  0
    0.1020   18.4920  -28.1540 C   0  0  0  0  0  0  0  0  0  0  0  0
    1.0860   19.4790  -28.3520 C   0  0  0  0  0  0  0  0  0  0  0  0
    0.9040   20.7660  -27.8400 C   0  0  0  0  0  0  0  0  0  0  0  0
   -0.2650   21.0840  -27.1340 C   0  0  0  0  0  0  0  0  0  0  0  0
   -0.4520   22.4450  -26.6100 C   0  0  0  0  0  0  0  0  0  0  0  0
   -0.4180   22.8250  -24.9630 S   0  0  0  0  0  0  0  0  0  0  0  0
   -0.7180   24.4600  -25.1810 C   0  0  0  0  0  0  0  0  0  0  0  0
   -0.8420   25.4400  -24.1960 C   0  0  0  0  0  0  0  0  0  0  0  0
   -1.1100   26.7550  -24.5980 C   0  0  0  0  0  0  0  0  0  0  0  0
   -1.2560   27.0650  -25.9630 C   0  0  0  0  0  0  0  0  0  0  0  0
   -1.1280   26.0610  -26.9420 C   0  0  0  0  0  0  0  0  0  0  0  0
   -0.8480   24.7460  -26.5370 C   0  0  0  0  0  0  0  0  0  0  0  0
   -0.6820   23.6100  -27.3630 C   0  0  0  0  0  0  0  0  0  0  0  0
   -0.7240   23.6340  -28.8740 C   0  0  0  0  0  0  0  0  0  0  0  0
   -2.0480   23.1480  -29.4090 C   0  0  0  0  0  0  0  0  0  0  0  0
   -2.2800   21.7850  -29.6000 C   0  0  0  0  0  0  0  0  0  0  0  0
   -3.4770   21.3460  -30.1590 C   0  0  0  0  0  0  0  0  0  0  0  0
   -4.4920   22.2510  -30.5130 C   0  0  0  0  0  0  0  0  0  0  0  0
   -5.7250   21.6710  -31.1930 C   0  0  0  0  0  0  0  0  0  0  0  0
   -5.6220   21.6790  -32.6760 N   0  0  0  0  0  0  0  0  0  0  0  0
   -4.2410   21.4640  -33.1680 C   0  0  0  0  0  0  0  0  0  0  0  0
   -3.8200   19.9900  -33.0610 C   0  0  0  0  0  0  0  0  0  0  0  0
   -4.7240   19.1570  -33.7560 O   0  0  0  0  0  0  0  0  0  0  0  0
   -6.0100   19.2610  -33.1820 C   0  0  0  0  0  0  0  0  0  0  0  0
   -6.5450   20.6970  -33.2900 C   0  0  0  0  0  0  0  0  0  0  0  0
   -4.3010   23.6420  -30.2450 C   0  0  0  0  0  0  0  0  0  0  0  0
   -5.3120   24.7280  -30.5730 C   0  0  0  0  0  0  0  0  0  0  0  0
   -5.8130   24.5440  -31.8500 F   0  0  0  0  0  0  0  0  0  0  0  0
   -4.7610   25.9950  -30.5370 F   0  0  0  0  0  0  0  0  0  0  0  0
   -6.3670   24.6680  -29.6840 F   0  0  0  0  0  0  0  0  0  0  0  0
   -3.0620   24.0640  -29.7230 C   0  0  0  0  0  0  0  0  0  0  0  0
   -1.2340   20.0920  -26.9100 C   0  0  0  0  0  0  0  0  0  0  0  0
   -2.3500   20.3550  -26.1750 F   0  0  0  0  0  0  0  0  0  0  0  0
   -1.0590   18.8130  -27.4380 C   0  0  0  0  0  0  0  0  0  0  0  0
    0.9284   16.2734  -26.9171 H   0  0  0  0  0  0  0  0  0  0  0  0
    0.6306   15.1790  -28.3101 H   0  0  0  0  0  0  0  0  0  0  0  0
    2.0626   16.2635  -28.3101 H   0  0  0  0  0  0  0  0  0  0  0  0
    2.0013   19.2361  -28.9117 H   0  0  0  0  0  0  0  0  0  0  0  0
    1.6794   21.5315  -27.9910 H   0  0  0  0  0  0  0  0  0  0  0  0
   -0.7322   25.1868  -23.1312 H   0  0  0  0  0  0  0  0  0  0  0  0
   -1.2068   27.5491  -23.8430 H   0  0  0  0  0  0  0  0  0  0  0  0
   -1.4718   28.0997  -26.2675 H   0  0  0  0  0  0  0  0  0  0  0  0
   -1.2456   26.3033  -28.0085 H   0  0  0  0  0  0  0  0  0  0  0  0
   -0.5590   24.6658  -29.2178 H   0  0  0  0  0  0  0  0  0  0  0  0
    0.0617   22.9605  -29.2470 H   0  0  0  0  0  0  0  0  0  0  0  0
   -1.5125   21.0534  -29.3071 H   0  0  0  0  0  0  0  0  0  0  0  0
   -3.6312   20.2699  -30.3268 H   0  0  0  0  0  0  0  0  0  0  0  0
   -5.8568   20.6324  -30.8554 H   0  0  0  0  0  0  0  0  0  0  0  0
   -6.5830   22.3016  -30.9171 H   0  0  0  0  0  0  0  0  0  0  0  0
   -5.9300   22.6170  -33.0140 H   0  0  0  0  0  0  0  0  0  0  0  0
   -4.1861   21.7743  -34.2219 H   0  0  0  0  0  0  0  0  0  0  0  0
   -3.5591   22.0605  -32.5441 H   0  0  0  0  0  0  0  0  0  0  0  0
   -2.8151   19.8701  -33.4921 H   0  0  0  0  0  0  0  0  0  0  0  0
   -3.8193   19.7004  -31.9998 H   0  0  0  0  0  0  0  0  0  0  0  0
   -6.6955   18.5809  -33.7089 H   0  0  0  0  0  0  0  0  0  0  0  0
   -5.9424   18.9906  -32.1179 H   0  0  0  0  0  0  0  0  0  0  0  0
   -6.6759   20.9485  -34.3528 H   0  0  0  0  0  0  0  0  0  0  0  0
   -7.5020   20.7453  -32.7497 H   0  0  0  0  0  0  0  0  0  0  0  0
   -2.8862   25.1373  -29.5580 H   0  0  0  0  0  0  0  0  0  0  0  0
   -1.8382   18.0505  -27.2913 H   0  0  0  0  0  0  0  0  0  0  0  0
  1  2  1  0
  2  3  1  0
  3  4  2  0
  4  5  1  0
  5  6  2  0
  6  7  1  0
  7  8  1  0
  8  9  1  0
  9 10  2  0
 10 11  1  0
 11 12  2  0
 12 13  1  0
 13 14  2  0
 14 15  1  0
 15 16  1  0
 16 17  1  0
 17 18  2  0
 18 19  1  0
 19 20  2  0
 20 21  1  0
 21 22  1  0
 22 23  1  0
 23 24  1  0
 24 25  1  0
 25 26  1  0
 26 27  1  0
 20 28  1  0
 28 29  1  0
 29 30  1  0
 29 31  1  0
 29 32  1  0
 28 33  2  0
  6 34  1  0
 34 35  1  0
 34 36  2  0
 36  3  1  0
 15  7  2  0
 33 17  1  0
 14  9  1  0
 27 22  1  0
  1 37  1  0
  1 38  1  0
  1 39  1  0
  4 40  1  0
  5 41  1  0
 10 42  1  0
 11 43  1  0
 12 44  1  0
 13 45  1  0
 16 46  1  0
 16 47  1  0
 18 48  1  0
 19 49  1  0
 21 50  1  0
 21 51  1  0
 22 52  1  0
 23 53  1  0
 23 54  1  0
 24 55  1  0
 24 56  1  0
 26 57  1  0
 26 58  1  0
 27 59  1  0
 27 60  1  0
 33 61  1  0
 36 62  1  0
M  CHG  1  22   1
M  END
>  <UniqueID>  (28) 
27

>  <SMILES>  (28) 
COc1ccc(-c2sc3ccccc3c2Cc2ccc(C[NH+]3CCOCC3)c(C(F)(F)F)c2)c(F)c1

>  <Energy>  (28) 
115.41561636124925

>  <Genealogy>  (28) 
COc1ccc(-c2sc3ccccc3c2Cc2ccc(C[NH+]3CCOCC3)c(C(F)(F)F)c2)c(F)c1 (protonated)
COc1ccc(-c2sc3ccccc3c2Cc2ccc(C[NH+]3CCOCC3)c(C(F)(F)F)c2)c(F)c1 (3D coordinates assigned)
COc1ccc(-c2sc3ccccc3c2Cc2ccc(C[NH+]3CCOCC3)c(C(F)(F)F)c2)c(F)c1 (nonaromatic ring conformer: 115.41561636124925 kcal/mol)

>  <smiles>  (28) 
COc1ccc(-c2sc3ccccc3c2Cc2ccc(CN3CCOCC3)c(C(F)(F)F)c2)c(F)c1

>  <score_type>  (28) 
oracle

>  <origin>  (28) 
adg

>  <m_score__min__energy>  (28) 
-8.8699999999999992

>  <m_primary>  (28) 
energy

$$$$
28:0
     RDKit          3D

 51 52  0  0  0  0  0  0  0  0999 V2000
   -6.0970   17.3140  -31.4490 C   0  0  0  0  0  0  0  0  0  0  0  0
   -5.3430   16.0480  -31.8610 C   0  0  0  0  0  0  0  0  0  0  0  0
   -4.6500   16.2320  -33.1570 N   0  0  0  0  0  0  0  0  0  0  0  0
   -5.3440   15.4810  -34.2270 C   0  0  0  0  0  0  0  0  0  0  0  0
   -6.8580   15.6700  -34.1320 C   0  0  0  0  0  0  0  0  0  0  0  0
   -3.2110   15.8680  -33.0720 C   0  0  0  0  0  0  0  0  0  0  0  0
   -2.3700   17.1520  -32.9940 C   0  0  0  0  0  0  0  0  0  0  0  0
   -3.1740   18.3690  -33.2220 N   0  0  0  0  0  0  0  0  0  0  0  0
   -2.5320   19.6130  -32.7450 C   0  0  0  0  0  0  0  0  0  0  0  0
   -3.0730   20.8990  -33.4080 C   0  0  0  0  0  0  0  0  0  0  0  0
   -4.4550   21.2710  -32.9170 C   0  0  0  0  0  0  0  0  0  0  0  0
   -4.6410   22.4900  -32.2520 C   0  0  0  0  0  0  0  0  0  0  0  0
   -5.8890   22.8470  -31.7380 C   0  0  0  0  0  0  0  0  0  0  0  0
   -6.0200   24.5440  -30.8460 Br  0  0  0  0  0  0  0  0  0  0  0  0
   -6.9830   21.9660  -31.8700 C   0  0  0  0  0  0  0  0  0  0  0  0
   -8.2510   22.2860  -31.3430 C   0  0  0  0  0  0  0  0  0  0  0  0
   -9.3150   21.3910  -31.4640 C   0  0  0  0  0  0  0  0  0  0  0  0
   -9.1330   20.1670  -32.1020 C   0  0  0  0  0  0  0  0  0  0  0  0
   -7.8880   19.8290  -32.6330 C   0  0  0  0  0  0  0  0  0  0  0  0
   -6.8040   20.7230  -32.5370 C   0  0  0  0  0  0  0  0  0  0  0  0
   -5.5430   20.3920  -33.0780 C   0  0  0  0  0  0  0  0  0  0  0  0
   -5.3580   19.1880  -33.7660 O   0  0  0  0  0  0  0  0  0  0  0  0
   -6.0700   18.9000  -34.9640 C   0  0  0  0  0  0  0  0  0  0  0  0
   -6.1348   17.3775  -30.3515 H   0  0  0  0  0  0  0  0  0  0  0  0
   -5.5775   18.1969  -31.8497 H   0  0  0  0  0  0  0  0  0  0  0  0
   -7.1208   17.2778  -31.8497 H   0  0  0  0  0  0  0  0  0  0  0  0
   -4.5987   15.8066  -31.0878 H   0  0  0  0  0  0  0  0  0  0  0  0
   -6.0708   15.2303  -31.9695 H   0  0  0  0  0  0  0  0  0  0  0  0
   -4.9964   15.8440  -35.2055 H   0  0  0  0  0  0  0  0  0  0  0  0
   -5.1153   14.4113  -34.1108 H   0  0  0  0  0  0  0  0  0  0  0  0
   -7.1572   15.7073  -33.0741 H   0  0  0  0  0  0  0  0  0  0  0  0
   -7.1419   16.6106  -34.6268 H   0  0  0  0  0  0  0  0  0  0  0  0
   -7.3644   14.8281  -34.6268 H   0  0  0  0  0  0  0  0  0  0  0  0
   -3.0378   15.2593  -32.1723 H   0  0  0  0  0  0  0  0  0  0  0  0
   -2.9223   15.2900  -33.9622 H   0  0  0  0  0  0  0  0  0  0  0  0
   -1.9120   17.2136  -31.9958 H   0  0  0  0  0  0  0  0  0  0  0  0
   -1.6083   17.1013  -33.7860 H   0  0  0  0  0  0  0  0  0  0  0  0
   -3.3660   18.4690  -34.2460 H   0  0  0  0  0  0  0  0  0  0  0  0
   -4.1060   18.2530  -32.7620 H   0  0  0  0  0  0  0  0  0  0  0  0
   -2.6934   19.6903  -31.6596 H   0  0  0  0  0  0  0  0  0  0  0  0
   -1.4676   19.5425  -33.0136 H   0  0  0  0  0  0  0  0  0  0  0  0
   -2.3848   21.7272  -33.1834 H   0  0  0  0  0  0  0  0  0  0  0  0
   -3.1436   20.7113  -34.4896 H   0  0  0  0  0  0  0  0  0  0  0  0
   -3.7901   23.1769  -32.1329 H   0  0  0  0  0  0  0  0  0  0  0  0
   -8.4028   23.2485  -30.8325 H   0  0  0  0  0  0  0  0  0  0  0  0
  -10.3012   21.6537  -31.0537 H   0  0  0  0  0  0  0  0  0  0  0  0
   -9.9743   19.4636  -32.1877 H   0  0  0  0  0  0  0  0  0  0  0  0
   -7.7520   18.8573  -33.1302 H   0  0  0  0  0  0  0  0  0  0  0  0
   -7.0628   18.4984  -34.7129 H   0  0  0  0  0  0  0  0  0  0  0  0
   -6.1856   19.8221  -35.5525 H   0  0  0  0  0  0  0  0  0  0  0  0
   -5.5120   18.1569  -35.5525 H   0  0  0  0  0  0  0  0  0  0  0  0
  1  2  1  0
  2  3  1  0
  3  4  1  0
  4  5  1  0
  3  6  1  0
  6  7  1  0
  7  8  1  0
  8  9  1  0
  9 10  1  0
 10 11  1  0
 11 12  2  0
 12 13  1  0
 13 14  1  0
 13 15  2  0
 15 16  1  0
 16 17  2  0
 17 18  1  0
 18 19  2  0
 19 20  1  0
 20 21  2  0
 21 22  1  0
 22 23  1  0
 21 11  1  0
 20 15  1  0
  1 24  1  0
  1 25  1  0
  1 26  1  0
  2 27  1  0
  2 28  1  0
  4 29  1  0
  4 30  1  0
  5 31  1  0
  5 32  1  0
  5 33  1  0
  6 34  1  0
  6 35  1  0
  7 36  1  0
  7 37  1  0
  8 38  1  0
  8 39  1  0
  9 40  1  0
  9 41  1  0
 10 42  1  0
 10 43  1  0
 12 44  1  0
 16 45  1  0
 17 46  1  0
 18 47  1  0
 19 48  1  0
 23 49  1  0
 23 50  1  0
 23 51  1  0
M  CHG  1   8   1
M  END
>  <UniqueID>  (29) 
28

>  <SMILES>  (29) 
CCN(CC)CC[NH2+]CCc1cc(Br)c2ccccc2c1OC

>  <Energy>  (29) 
61.24453451382006

>  <Genealogy>  (29) 
CCN(CC)CC[NH2+]CCc1cc(Br)c2ccccc2c1OC (protonated)
CCN(CC)CC[NH2+]CCc1cc(Br)c2ccccc2c1OC (3D coordinates assigned)
CCN(CC)CC[NH2+]CCc1cc(Br)c2ccccc2c1OC (optimized conformer: 61.24453451382006 kcal/mol)

>  <smiles>  (29) 
CCN(CC)CCNCCc1cc(Br)c2ccccc2c1OC

>  <score_type>  (29) 
oracle

>  <origin>  (29) 
adg

>  <m_score__min__energy>  (29) 
-7.25

>  <m_primary>  (29) 
energy

$$$$
29:0
     RDKit          3D

 55 57  0  0  0  0  0  0  0  0999 V2000
   -6.4800   16.6640  -34.3020 C   0  0  0  0  0  0  0  0  0  0  0  0
   -5.9870   18.0940  -34.4850 C   0  0  0  0  0  0  0  0  0  0  0  0
   -5.1800   18.5010  -33.3090 N   0  0  0  0  0  0  0  0  0  0  0  0
   -3.8640   17.8250  -33.2390 C   0  0  0  0  0  0  0  0  0  0  0  0
   -2.6850   18.7800  -33.2120 C   0  0  0  0  0  0  0  0  0  0  0  0
   -1.8550   18.7630  -34.1620 O   0  0  0  0  0  0  0  0  0  0  0  0
   -2.5210   19.7440  -32.1490 N   0  0  0  0  0  0  0  0  0  0  0  0
   -1.2030   19.8420  -31.4960 C   0  0  0  0  0  0  0  0  0  0  0  0
   -1.2790   20.5460  -30.1390 C   0  0  0  0  0  0  0  0  0  0  0  0
   -2.0260   21.8390  -30.2700 C   0  0  0  0  0  0  0  0  0  0  0  0
   -1.6210   22.9790  -29.5630 C   0  0  0  0  0  0  0  0  0  0  0  0
   -2.3550   24.1770  -29.6620 C   0  0  0  0  0  0  0  0  0  0  0  0
   -1.9720   25.3440  -28.9810 O   0  0  0  0  0  0  0  0  0  0  0  0
   -1.6040   25.3930  -27.6060 C   0  0  0  0  0  0  0  0  0  0  0  0
   -3.5090   24.2200  -30.4590 C   0  0  0  0  0  0  0  0  0  0  0  0
   -4.2260   25.4260  -30.5280 O   0  0  0  0  0  0  0  0  0  0  0  0
   -5.6280   25.5450  -30.3090 C   0  0  0  0  0  0  0  0  0  0  0  0
   -3.9180   23.0660  -31.1550 C   0  0  0  0  0  0  0  0  0  0  0  0
   -3.1720   21.8820  -31.0720 C   0  0  0  0  0  0  0  0  0  0  0  0
   -3.6400   20.6350  -31.7810 C   0  0  0  0  0  0  0  0  0  0  0  0
   -5.9210   18.4250  -32.0300 C   0  0  0  0  0  0  0  0  0  0  0  0
   -7.0600   19.4100  -32.0230 C   0  0  0  0  0  0  0  0  0  0  0  0
   -8.3780   18.9820  -32.2520 C   0  0  0  0  0  0  0  0  0  0  0  0
   -9.4250   19.9080  -32.2760 C   0  0  0  0  0  0  0  0  0  0  0  0
   -9.1630   21.2670  -32.0750 C   0  0  0  0  0  0  0  0  0  0  0  0
   -7.8540   21.7000  -31.8530 C   0  0  0  0  0  0  0  0  0  0  0  0
   -6.8030   20.7770  -31.8280 C   0  0  0  0  0  0  0  0  0  0  0  0
   -6.5580   16.4376  -33.2284 H   0  0  0  0  0  0  0  0  0  0  0  0
   -7.4680   16.5537  -34.7727 H   0  0  0  0  0  0  0  0  0  0  0  0
   -5.7698   15.9682  -34.7727 H   0  0  0  0  0  0  0  0  0  0  0  0
   -5.3670   18.1534  -35.3917 H   0  0  0  0  0  0  0  0  0  0  0  0
   -6.8517   18.7668  -34.5828 H   0  0  0  0  0  0  0  0  0  0  0  0
   -3.8363   17.2140  -32.3247 H   0  0  0  0  0  0  0  0  0  0  0  0
   -3.7656   17.2206  -34.1528 H   0  0  0  0  0  0  0  0  0  0  0  0
   -0.8058   18.8272  -31.3465 H   0  0  0  0  0  0  0  0  0  0  0  0
   -0.5473   20.4375  -32.1482 H   0  0  0  0  0  0  0  0  0  0  0  0
   -1.8001   19.8960  -29.4207 H   0  0  0  0  0  0  0  0  0  0  0  0
   -0.2589   20.7542  -29.7840 H   0  0  0  0  0  0  0  0  0  0  0  0
   -0.7245   22.9380  -28.9269 H   0  0  0  0  0  0  0  0  0  0  0  0
   -2.5017   25.2735  -26.9817 H   0  0  0  0  0  0  0  0  0  0  0  0
   -0.8945   24.5814  -27.3872 H   0  0  0  0  0  0  0  0  0  0  0  0
   -1.1316   26.3620  -27.3872 H   0  0  0  0  0  0  0  0  0  0  0  0
   -5.8301   25.5622  -29.2279 H   0  0  0  0  0  0  0  0  0  0  0  0
   -5.9925   26.4773  -30.7650 H   0  0  0  0  0  0  0  0  0  0  0  0
   -6.1444   24.6875  -30.7650 H   0  0  0  0  0  0  0  0  0  0  0  0
   -4.8304   23.0939  -31.7688 H   0  0  0  0  0  0  0  0  0  0  0  0
   -4.3246   20.0868  -31.1171 H   0  0  0  0  0  0  0  0  0  0  0  0
   -4.1417   20.9450  -32.7095 H   0  0  0  0  0  0  0  0  0  0  0  0
   -6.3206   17.4081  -31.9027 H   0  0  0  0  0  0  0  0  0  0  0  0
   -5.2347   18.6678  -31.2054 H   0  0  0  0  0  0  0  0  0  0  0  0
   -8.5872   17.9141  -32.4131 H   0  0  0  0  0  0  0  0  0  0  0  0
  -10.4558   19.5674  -32.4531 H   0  0  0  0  0  0  0  0  0  0  0  0
   -9.9878   21.9946  -32.0918 H   0  0  0  0  0  0  0  0  0  0  0  0
   -7.6488   22.7694  -31.6974 H   0  0  0  0  0  0  0  0  0  0  0  0
   -5.7731   21.1226  -31.6552 H   0  0  0  0  0  0  0  0  0  0  0  0
  1  2  1  0
  2  3  1  0
  3  4  1  0
  4  5  1  0
  5  6  2  0
  5  7  1  0
  7  8  1  0
  8  9  1  0
  9 10  1  0
 10 11  2  0
 11 12  1  0
 12 13  1  0
 13 14  1  0
 12 15  2  0
 15 16  1  0
 16 17  1  0
 15 18  1  0
 18 19  2  0
 19 20  1  0
  3 21  1  0
 21 22  1  0
 22 23  2  0
 23 24  1  0
 24 25  2  0
 25 26  1  0
 26 27  2  0
 20  7  1  0
 27 22  1  0
 19 10  1  0
  1 28  1  0
  1 29  1  0
  1 30  1  0
  2 31  1  0
  2 32  1  0
  4 33  1  0
  4 34  1  0
  8 35  1  0
  8 36  1  0
  9 37  1  0
  9 38  1  0
 11 39  1  0
 14 40  1  0
 14 41  1  0
 14 42  1  0
 17 43  1  0
 17 44  1  0
 17 45  1  0
 18 46  1  0
 20 47  1  0
 20 48  1  0
 21 49  1  0
 21 50  1  0
 23 51  1  0
 24 52  1  0
 25 53  1  0
 26 54  1  0
 27 55  1  0
M  END
>  <UniqueID>  (30) 
29

>  <SMILES>  (30) 
CCN(CC(=O)N1CCc2cc(OC)c(OC)cc2C1)Cc1ccccc1

>  <Energy>  (30) 
61.13726657142395

>  <Genealogy>  (30) 
CCN(CC(=O)N1CCc2cc(OC)c(OC)cc2C1)Cc1ccccc1 (3D coordinates assigned)
CCN(CC(=O)N1CCc2cc(OC)c(OC)cc2C1)Cc1ccccc1 (nonaromatic ring conformer: 61.13726657142395 kcal/mol)

>  <smiles>  (30) 
CCN(CC(=O)N1CCc2cc(OC)c(OC)cc2C1)Cc1ccccc1

>  <score_type>  (30) 
oracle

>  <origin>  (30) 
adg

>  <m_score__min__energy>  (30) 
-8.8900000000000006

>  <m_primary>  (30) 
energy

$$$$
30:0
     RDKit          3D

 55 57  0  0  0  0  0  0  0  0999 V2000
   -0.0190   20.7400  -32.7260 F   0  0  0  0  0  0  0  0  0  0  0  0
   -0.8130   20.6100  -31.5990 C   0  0  0  0  0  0  0  0  0  0  0  0
   -0.9530   19.2590  -31.3330 F   0  0  0  0  0  0  0  0  0  0  0  0
   -0.1520   21.2150  -30.5500 F   0  0  0  0  0  0  0  0  0  0  0  0
   -2.1850   21.2320  -31.8010 C   0  0  0  0  0  0  0  0  0  0  0  0
   -2.6070   22.2630  -30.9320 C   0  0  0  0  0  0  0  0  0  0  0  0
   -3.8130   22.9300  -31.1420 C   0  0  0  0  0  0  0  0  0  0  0  0
   -4.6140   22.6010  -32.2290 C   0  0  0  0  0  0  0  0  0  0  0  0
   -4.2250   21.5860  -33.1000 C   0  0  0  0  0  0  0  0  0  0  0  0
   -3.0330   20.8650  -32.8880 C   0  0  0  0  0  0  0  0  0  0  0  0
   -2.7470   19.6870  -33.8080 C   0  0  0  0  0  0  0  0  0  0  0  0
   -2.8680   18.3780  -33.1300 N   0  0  0  0  0  0  0  0  0  0  0  0
   -4.1330   17.6640  -33.4170 C   0  0  0  0  0  0  0  0  0  0  0  0
   -5.3800   18.4830  -32.9940 C   0  0  0  0  0  0  0  0  0  0  0  0
   -6.4050   17.6310  -32.2100 C   0  0  0  0  0  0  0  0  0  0  0  0
   -7.8190   18.2560  -32.2020 C   0  0  0  0  0  0  0  0  0  0  0  0
   -7.8030   19.7120  -32.4530 N   0  0  0  0  0  0  0  0  0  0  0  0
   -7.2230   20.4920  -31.3310 C   0  0  0  0  0  0  0  0  0  0  0  0
   -8.2510   21.5150  -30.8060 C   0  0  0  0  0  0  0  0  0  0  0  0
   -9.0140   22.1970  -31.9400 C   0  0  0  0  0  0  0  0  0  0  0  0
   -8.1780   23.4060  -32.3350 C   0  0  0  0  0  0  0  0  0  0  0  0
   -7.3090   23.7490  -31.1260 C   0  0  0  0  0  0  0  0  0  0  0  0
   -7.5610   22.6690  -30.0780 C   0  0  0  0  0  0  0  0  0  0  0  0
   -7.2320   20.0460  -33.7820 C   0  0  0  0  0  0  0  0  0  0  0  0
   -6.0590   19.1330  -34.2080 C   0  0  0  0  0  0  0  0  0  0  0  0
   -1.9745   22.5436  -30.0769 H   0  0  0  0  0  0  0  0  0  0  0  0
   -4.1316   23.7192  -30.4451 H   0  0  0  0  0  0  0  0  0  0  0  0
   -5.5558   23.1425  -32.4016 H   0  0  0  0  0  0  0  0  0  0  0  0
   -4.8579   21.3436  -33.9664 H   0  0  0  0  0  0  0  0  0  0  0  0
   -3.4605   19.7151  -34.6447 H   0  0  0  0  0  0  0  0  0  0  0  0
   -1.7062   19.7838  -34.1506 H   0  0  0  0  0  0  0  0  0  0  0  0
   -2.7280   18.4870  -32.1020 H   0  0  0  0  0  0  0  0  0  0  0  0
   -2.0790   17.7820  -33.4730 H   0  0  0  0  0  0  0  0  0  0  0  0
   -4.1899   17.4656  -34.4975 H   0  0  0  0  0  0  0  0  0  0  0  0
   -4.1312   16.7296  -32.8365 H   0  0  0  0  0  0  0  0  0  0  0  0
   -5.0167   19.2747  -32.3222 H   0  0  0  0  0  0  0  0  0  0  0  0
   -6.4630   16.6353  -32.6739 H   0  0  0  0  0  0  0  0  0  0  0  0
   -6.0610   17.5744  -31.1667 H   0  0  0  0  0  0  0  0  0  0  0  0
   -8.4219   17.7712  -32.9839 H   0  0  0  0  0  0  0  0  0  0  0  0
   -8.2455   18.0973  -31.2006 H   0  0  0  0  0  0  0  0  0  0  0  0
   -6.9448   19.8061  -30.5173 H   0  0  0  0  0  0  0  0  0  0  0  0
   -6.3329   21.0295  -31.6899 H   0  0  0  0  0  0  0  0  0  0  0  0
   -8.9180   20.9346  -30.1516 H   0  0  0  0  0  0  0  0  0  0  0  0
   -9.1240   21.5121  -32.7937 H   0  0  0  0  0  0  0  0  0  0  0  0
  -10.0269   22.4904  -31.6270 H   0  0  0  0  0  0  0  0  0  0  0  0
   -7.5447   23.1631  -33.2010 H   0  0  0  0  0  0  0  0  0  0  0  0
   -8.8173   24.2552  -32.6180 H   0  0  0  0  0  0  0  0  0  0  0  0
   -6.2472   23.7567  -31.4134 H   0  0  0  0  0  0  0  0  0  0  0  0
   -7.5581   24.7454  -30.7322 H   0  0  0  0  0  0  0  0  0  0  0  0
   -6.6087   22.3301  -29.6441 H   0  0  0  0  0  0  0  0  0  0  0  0
   -8.1824   23.0496  -29.2540 H   0  0  0  0  0  0  0  0  0  0  0  0
   -8.0301   19.9578  -34.5338 H   0  0  0  0  0  0  0  0  0  0  0  0
   -6.8309   21.0677  -33.7093 H   0  0  0  0  0  0  0  0  0  0  0  0
   -6.4439   18.3417  -34.8681 H   0  0  0  0  0  0  0  0  0  0  0  0
   -5.3134   19.7511  -34.7296 H   0  0  0  0  0  0  0  0  0  0  0  0
  1  2  1  0
  2  3  1  0
  2  4  1  0
  2  5  1  0
  5  6  2  0
  6  7  1  0
  7  8  2  0
  8  9  1  0
  9 10  2  0
 10 11  1  0
 11 12  1  0
 12 13  1  0
 13 14  1  0
 14 15  1  0
 15 16  1  0
 16 17  1  0
 17 18  1  0
 18 19  1  0
 19 20  1  0
 20 21  1  0
 21 22  1  0
 22 23  1  0
 17 24  1  0
 24 25  1  0
 10  5  1  0
 25 14  1  0
 23 19  1  0
  6 26  1  0
  7 27  1  0
  8 28  1  0
  9 29  1  0
 11 30  1  0
 11 31  1  0
 12 32  1  0
 12 33  1  0
 13 34  1  0
 13 35  1  0
 14 36  1  0
 15 37  1  0
 15 38  1  0
 16 39  1  0
 16 40  1  0
 18 41  1  0
 18 42  1  0
 19 43  1  0
 20 44  1  0
 20 45  1  0
 21 46  1  0
 21 47  1  0
 22 48  1  0
 22 49  1  0
 23 50  1  0
 23 51  1  0
 24 52  1  0
 24 53  1  0
 25 54  1  0
 25 55  1  0
M  CHG  1  12   1
M  END
>  <UniqueID>  (31) 
30

>  <SMILES>  (31) 
FC(F)(F)c1ccccc1C[NH2+]CC1CCN(CC2CCCC2)CC1

>  <Energy>  (31) 
67.79683697663828

>  <Genealogy>  (31) 
FC(F)(F)c1ccccc1C[NH2+]CC1CCN(CC2CCCC2)CC1 (protonated)
FC(F)(F)c1ccccc1C[NH2+]CC1CCN(CC2CCCC2)CC1 (3D coordinates assigned)
FC(F)(F)c1ccccc1C[NH2+]CC1CCN(CC2CCCC2)CC1 (nonaromatic ring conformer: 67.79683697663828 kcal/mol)

>  <smiles>  (31) 
FC(F)(F)c1ccccc1CNCC1CCN(CC2CCCC2)CC1

>  <score_type>  (31) 
oracle

>  <origin>  (31) 
adg

>  <m_score__min__energy>  (31) 
-7.9900000000000002

>  <m_primary>  (31) 
energy

$$$$
31:0
     RDKit          3D

 41 43  0  0  0  0  0  0  0  0999 V2000
   -4.7630   17.3560  -34.9570 C   0  0  0  0  0  0  0  0  0  0  0  0
   -6.0570   17.7900  -34.5590 O   0  0  0  0  0  0  0  0  0  0  0  0
   -6.2990   18.7960  -33.6110 C   0  0  0  0  0  0  0  0  0  0  0  0
   -7.2430   18.5490  -32.6100 C   0  0  0  0  0  0  0  0  0  0  0  0
   -7.5200   19.5160  -31.6450 C   0  0  0  0  0  0  0  0  0  0  0  0
   -6.8500   20.7400  -31.6630 C   0  0  0  0  0  0  0  0  0  0  0  0
   -5.8790   21.0100  -32.6500 C   0  0  0  0  0  0  0  0  0  0  0  0
   -5.1810   22.3680  -32.7200 C   0  0  2  0  0  0  0  0  0  0  0  0
   -3.8860   22.3040  -33.4030 N   0  0  0  0  0  0  0  0  0  0  0  0
   -2.8920   21.5860  -32.9820 C   0  0  0  0  0  0  0  0  0  0  0  0
   -1.6400   21.5290  -33.7980 C   0  0  0  0  0  0  0  0  0  0  0  0
   -3.0700   20.7140  -31.8540 N   0  0  0  0  0  0  0  0  0  0  0  0
   -2.7060   19.3010  -31.9900 C   0  0  0  0  0  0  0  0  0  0  0  0
   -3.2530   21.2570  -30.5010 C   0  0  0  0  0  0  0  0  0  0  0  0
   -4.0630   22.5450  -30.3930 C   0  0  0  0  0  0  0  0  0  0  0  0
   -3.9490   23.2390  -29.1710 C   0  0  0  0  0  0  0  0  0  0  0  0
   -4.7010   24.3840  -28.9170 C   0  0  0  0  0  0  0  0  0  0  0  0
   -5.5950   24.8580  -29.8730 C   0  0  0  0  0  0  0  0  0  0  0  0
   -5.7370   24.1880  -31.0870 C   0  0  0  0  0  0  0  0  0  0  0  0
   -4.9870   23.0280  -31.3670 C   0  0  0  0  0  0  0  0  0  0  0  0
   -5.6330   20.0360  -33.6400 C   0  0  0  0  0  0  0  0  0  0  0  0
   -4.1540   17.1517  -34.0640 H   0  0  0  0  0  0  0  0  0  0  0  0
   -4.8525   16.4387  -35.5575 H   0  0  0  0  0  0  0  0  0  0  0  0
   -4.2813   18.1418  -35.5575 H   0  0  0  0  0  0  0  0  0  0  0  0
   -7.7711   17.5844  -32.5836 H   0  0  0  0  0  0  0  0  0  0  0  0
   -8.2698   19.3134  -30.8661 H   0  0  0  0  0  0  0  0  0  0  0  0
   -7.0808   21.4999  -30.9019 H   0  0  0  0  0  0  0  0  0  0  0  0
   -5.8733   22.9885  -33.3079 H   0  0  0  0  0  0  0  0  0  0  0  0
   -0.7678   21.4893  -33.1289 H   0  0  0  0  0  0  0  0  0  0  0  0
   -1.6565   20.6307  -34.4326 H   0  0  0  0  0  0  0  0  0  0  0  0
   -1.5748   22.4251  -34.4326 H   0  0  0  0  0  0  0  0  0  0  0  0
   -2.5909   18.8543  -30.9914 H   0  0  0  0  0  0  0  0  0  0  0  0
   -3.4967   18.7700  -32.5403 H   0  0  0  0  0  0  0  0  0  0  0  0
   -1.7572   19.2181  -32.5403 H   0  0  0  0  0  0  0  0  0  0  0  0
   -3.7612   20.4901  -29.8981 H   0  0  0  0  0  0  0  0  0  0  0  0
   -2.2431   21.5156  -30.1499 H   0  0  0  0  0  0  0  0  0  0  0  0
   -3.2530   22.8694  -28.4035 H   0  0  0  0  0  0  0  0  0  0  0  0
   -4.5882   24.9142  -27.9598 H   0  0  0  0  0  0  0  0  0  0  0  0
   -6.1893   25.7612  -29.6704 H   0  0  0  0  0  0  0  0  0  0  0  0
   -6.4447   24.5701  -31.8374 H   0  0  0  0  0  0  0  0  0  0  0  0
   -4.9126   20.2476  -34.4439 H   0  0  0  0  0  0  0  0  0  0  0  0
  1  2  1  0
  2  3  1  0
  3  4  2  0
  4  5  1  0
  5  6  2  0
  6  7  1  0
  7  8  1  0
  8  9  1  0
  9 10  2  0
 10 11  1  0
 10 12  1  0
 12 13  1  0
 12 14  1  0
 14 15  1  0
 15 16  2  0
 16 17  1  0
 17 18  2  0
 18 19  1  0
 19 20  2  0
  7 21  2  0
 21  3  1  0
 20  8  1  0
 20 15  1  0
  1 22  1  0
  1 23  1  0
  1 24  1  0
  4 25  1  0
  5 26  1  0
  6 27  1  0
  8 28  1  6
 11 29  1  0
 11 30  1  0
 11 31  1  0
 13 32  1  0
 13 33  1  0
 13 34  1  0
 14 35  1  0
 14 36  1  0
 16 37  1  0
 17 38  1  0
 18 39  1  0
 19 40  1  0
 21 41  1  0
M  END
>  <UniqueID>  (32) 
31

>  <SMILES>  (32) 
COc1cccc([C@@H]2N=C(C)N(C)Cc3ccccc32)c1

>  <Energy>  (32) 
55.29758364262363

>  <Genealogy>  (32) 
COc1cccc([C@@H]2N=C(C)N(C)Cc3ccccc32)c1 (chirality)
COc1cccc([C@@H]2N=C(C)N(C)Cc3ccccc32)c1 (3D coordinates assigned)
COc1cccc([C@@H]2N=C(C)N(C)Cc3ccccc32)c1 (nonaromatic ring conformer: 55.29758364262363 kcal/mol)

>  <smiles>  (32) 
COc1cccc(C2N=C(C)N(C)Cc3ccccc32)c1

>  <score_type>  (32) 
oracle

>  <origin>  (32) 
adg

>  <m_score__min__energy>  (32) 
-6.4199999999999999

>  <m_primary>  (32) 
energy

$$$$
32:0
     RDKit          3D

 52 55  0  0  0  0  0  0  0  0999 V2000
   -7.1900   23.3800  -32.4290 C   0  0  0  0  0  0  0  0  0  0  0  0
   -5.7130   23.5300  -32.0430 C   0  0  0  0  0  0  0  0  0  0  0  0
   -5.4150   23.4250  -30.5830 N   0  0  0  0  0  0  0  0  0  0  0  0
   -6.4210   24.0960  -29.7030 C   0  0  0  0  0  0  0  0  0  0  0  0
   -6.3650   25.6420  -29.6620 C   0  0  0  0  0  0  0  0  0  0  0  0
   -4.0310   23.8200  -30.2560 C   0  0  0  0  0  0  0  0  0  0  0  0
   -3.5880   24.9390  -30.5210 O   0  0  0  0  0  0  0  0  0  0  0  0
   -3.0930   22.8030  -29.6550 C   0  0  0  0  0  0  0  0  0  0  0  0
   -1.7890   22.2600  -30.8400 S   0  0  0  0  0  0  0  0  0  0  0  0
   -2.8620   21.1360  -31.7780 C   0  0  0  0  0  0  0  0  0  0  0  0
   -4.1870   21.0540  -31.4360 N   0  0  0  0  0  0  0  0  0  0  0  0
   -4.9510   20.0850  -31.9870 C   0  0  0  0  0  0  0  0  0  0  0  0
   -6.5910   19.7810  -31.6570 S   0  0  0  0  0  0  0  0  0  0  0  0
   -6.5960   18.4450  -32.6930 C   0  0  0  0  0  0  0  0  0  0  0  0
   -5.3870   18.2350  -33.2570 C   0  0  0  0  0  0  0  0  0  0  0  0
   -4.4290   19.1690  -32.8780 C   0  0  0  0  0  0  0  0  0  0  0  0
   -3.1040   19.2850  -33.2840 C   0  0  0  0  0  0  0  0  0  0  0  0
   -2.6400   18.4830  -34.1440 O   0  0  0  0  0  0  0  0  0  0  0  0
   -2.3390   20.3090  -32.7580 N   0  0  0  0  0  0  0  0  0  0  0  0
   -1.0120   20.5600  -33.2760 C   0  0  0  0  0  0  0  0  0  0  0  0
   -0.8480   21.4870  -34.3230 C   0  0  0  0  0  0  0  0  0  0  0  0
    0.4030   21.6750  -34.9060 C   0  0  0  0  0  0  0  0  0  0  0  0
    1.5020   20.9360  -34.4520 C   0  0  0  0  0  0  0  0  0  0  0  0
    3.0640   21.1540  -35.2180 Cl  0  0  0  0  0  0  0  0  0  0  0  0
    1.3510   20.0330  -33.3880 C   0  0  0  0  0  0  0  0  0  0  0  0
    0.0950   19.8410  -32.8030 C   0  0  0  0  0  0  0  0  0  0  0  0
   -5.3780   17.0290  -34.1160 C   0  0  0  0  0  0  0  0  0  0  0  0
   -6.7110   16.3450  -33.7140 C   0  0  0  0  0  0  0  0  0  0  0  0
   -7.6040   17.4390  -33.0790 C   0  0  0  0  0  0  0  0  0  0  0  0
   -7.8027   23.3178  -31.5175 H   0  0  0  0  0  0  0  0  0  0  0  0
   -7.5040   24.2509  -33.0231 H   0  0  0  0  0  0  0  0  0  0  0  0
   -7.3225   22.4638  -33.0231 H   0  0  0  0  0  0  0  0  0  0  0  0
   -5.1457   22.7433  -32.5619 H   0  0  0  0  0  0  0  0  0  0  0  0
   -5.4268   24.5507  -32.3365 H   0  0  0  0  0  0  0  0  0  0  0  0
   -5.4900   22.3880  -30.3610 H   0  0  0  0  0  0  0  0  0  0  0  0
   -7.4220   23.8050  -30.0541 H   0  0  0  0  0  0  0  0  0  0  0  0
   -6.1875   23.7643  -28.6805 H   0  0  0  0  0  0  0  0  0  0  0  0
   -6.3527   25.9808  -28.6156 H   0  0  0  0  0  0  0  0  0  0  0  0
   -5.4537   25.9895  -30.1707 H   0  0  0  0  0  0  0  0  0  0  0  0
   -7.2488   26.0545  -30.1707 H   0  0  0  0  0  0  0  0  0  0  0  0
   -2.6066   23.2484  -28.7747 H   0  0  0  0  0  0  0  0  0  0  0  0
   -3.6878   21.9184  -29.3835 H   0  0  0  0  0  0  0  0  0  0  0  0
   -1.7119   22.0655  -34.6823 H   0  0  0  0  0  0  0  0  0  0  0  0
    0.5272   22.4027  -35.7215 H   0  0  0  0  0  0  0  0  0  0  0  0
    2.2220   19.4753  -33.0135 H   0  0  0  0  0  0  0  0  0  0  0  0
   -0.0240   19.1278  -31.9740 H   0  0  0  0  0  0  0  0  0  0  0  0
   -5.3708   17.2969  -35.1829 H   0  0  0  0  0  0  0  0  0  0  0  0
   -4.4914   16.3920  -33.9812 H   0  0  0  0  0  0  0  0  0  0  0  0
   -7.2032   15.9238  -34.6030 H   0  0  0  0  0  0  0  0  0  0  0  0
   -6.5335   15.5218  -33.0063 H   0  0  0  0  0  0  0  0  0  0  0  0
   -8.3214   17.8461  -33.8068 H   0  0  0  0  0  0  0  0  0  0  0  0
   -8.2288   17.0840  -32.2462 H   0  0  0  0  0  0  0  0  0  0  0  0
  1  2  1  0
  2  3  1  0
  3  4  1  0
  4  5  1  0
  3  6  1  0
  6  7  2  0
  6  8  1  0
  8  9  1  0
  9 10  1  0
 10 11  2  0
 11 12  1  0
 12 13  1  0
 13 14  1  0
 14 15  2  0
 15 16  1  0
 16 17  1  0
 17 18  2  0
 17 19  1  0
 19 20  1  0
 20 21  2  0
 21 22  1  0
 22 23  2  0
 23 24  1  0
 23 25  1  0
 25 26  2  0
 15 27  1  0
 27 28  1  0
 28 29  1  0
 19 10  1  0
 26 20  1  0
 16 12  2  0
 29 14  1  0
  1 30  1  0
  1 31  1  0
  1 32  1  0
  2 33  1  0
  2 34  1  0
  3 35  1  0
  4 36  1  0
  4 37  1  0
  5 38  1  0
  5 39  1  0
  5 40  1  0
  8 41  1  0
  8 42  1  0
 21 43  1  0
 22 44  1  0
 25 45  1  0
 26 46  1  0
 27 47  1  0
 27 48  1  0
 28 49  1  0
 28 50  1  0
 29 51  1  0
 29 52  1  0
M  CHG  1   3   1
M  END
>  <UniqueID>  (33) 
32

>  <SMILES>  (33) 
CC[NH+](CC)C(=O)CSc1nc2sc3c(c2c(=O)n1-c1ccc(Cl)cc1)CCC3

>  <Energy>  (33) 
123.12750271826069

>  <Genealogy>  (33) 
CC[NH+](CC)C(=O)CSc1nc2sc3c(c2c(=O)n1-c1ccc(Cl)cc1)CCC3 (protonated)
CC[NH+](CC)C(=O)CSc1nc2sc3c(c2c(=O)n1-c1ccc(Cl)cc1)CCC3 (3D coordinates assigned)
CC[NH+](CC)C(=O)CSc1nc2sc3c(c2c(=O)n1-c1ccc(Cl)cc1)CCC3 (nonaromatic ring conformer: 123.12750271826069 kcal/mol)

>  <smiles>  (33) 
CCN(CC)C(=O)CSc1nc2sc3c(c2c(=O)n1-c1ccc(Cl)cc1)CCC3

>  <score_type>  (33) 
oracle

>  <origin>  (33) 
adg

>  <m_score__min__energy>  (33) 
-8.2100000000000009

>  <m_primary>  (33) 
energy

$$$$
33:0
     RDKit          3D

 43 44  0  0  0  0  0  0  0  0999 V2000
   -3.2280   18.7740  -34.1450 C   0  0  0  0  0  0  0  0  0  0  0  0
   -4.2250   17.8860  -34.8830 C   0  0  0  0  0  0  0  0  0  0  0  0
   -5.6670   18.2930  -34.5640 C   0  0  0  0  0  0  0  0  0  0  0  0
   -6.0450   17.8460  -33.1820 C   0  0  0  0  0  0  0  0  0  0  0  0
   -5.5360   16.7980  -32.5830 O   0  0  0  0  0  0  0  0  0  0  0  0
   -6.0820   16.7300  -31.3900 C   0  0  0  0  0  0  0  0  0  0  0  0
   -6.9640   17.7260  -31.1630 N   0  0  0  0  0  0  0  0  0  0  0  0
   -6.9420   18.4330  -32.3090 C   0  0  0  0  0  0  0  0  0  0  0  0
   -7.7540   19.6820  -32.5360 C   0  0  0  0  0  0  0  0  0  0  0  0
   -6.9630   20.9130  -32.2650 N   0  0  2  0  0  0  0  0  0  0  0  0
   -5.7120   20.6520  -31.4950 C   0  0  0  0  0  0  0  0  0  0  0  0
   -4.4660   21.4330  -31.9530 C   0  0  0  0  0  0  0  0  0  0  0  0
   -4.7930   22.8260  -32.4950 C   0  0  0  0  0  0  0  0  0  0  0  0
   -5.7510   23.5690  -31.6570 N   0  0  0  0  0  0  0  0  0  0  0  0
   -5.2190   24.5500  -30.7330 C   0  0  0  0  0  0  0  0  0  0  0  0
   -5.7810   24.7360  -29.3550 C   0  0  0  0  0  0  0  0  0  0  0  0
   -4.2570   25.2860  -31.0850 O   0  0  0  0  0  0  0  0  0  0  0  0
   -7.1980   23.4720  -31.9160 C   0  0  0  0  0  0  0  0  0  0  0  0
   -7.7850   22.0410  -31.7580 C   0  0  0  0  0  0  0  0  0  0  0  0
   -3.3630   18.6537  -33.0600 H   0  0  0  0  0  0  0  0  0  0  0  0
   -2.2037   18.4836  -34.4214 H   0  0  0  0  0  0  0  0  0  0  0  0
   -3.3984   19.8250  -34.4214 H   0  0  0  0  0  0  0  0  0  0  0  0
   -4.0565   17.9795  -35.9660 H   0  0  0  0  0  0  0  0  0  0  0  0
   -4.0750   16.8462  -34.5569 H   0  0  0  0  0  0  0  0  0  0  0  0
   -5.7570   19.3875  -34.6279 H   0  0  0  0  0  0  0  0  0  0  0  0
   -6.3409   17.8145  -35.2898 H   0  0  0  0  0  0  0  0  0  0  0  0
   -5.8458   15.9460  -30.6555 H   0  0  0  0  0  0  0  0  0  0  0  0
   -8.0939   19.7004  -33.5820 H   0  0  0  0  0  0  0  0  0  0  0  0
   -8.6079   19.6651  -31.8427 H   0  0  0  0  0  0  0  0  0  0  0  0
   -6.6360   21.2580  -33.1990 H   0  0  0  0  0  0  0  0  0  0  0  0
   -5.9036   20.9097  -30.4429 H   0  0  0  0  0  0  0  0  0  0  0  0
   -5.4760   19.5905  -31.6607 H   0  0  0  0  0  0  0  0  0  0  0  0
   -3.7870   21.5425  -31.0946 H   0  0  0  0  0  0  0  0  0  0  0  0
   -4.0062   20.8627  -32.7736 H   0  0  0  0  0  0  0  0  0  0  0  0
   -3.8596   23.4050  -32.5549 H   0  0  0  0  0  0  0  0  0  0  0  0
   -5.2611   22.6896  -33.4811 H   0  0  0  0  0  0  0  0  0  0  0  0
   -5.0138   24.4821  -28.6088 H   0  0  0  0  0  0  0  0  0  0  0  0
   -6.0885   25.7838  -29.2228 H   0  0  0  0  0  0  0  0  0  0  0  0
   -6.6529   24.0785  -29.2228 H   0  0  0  0  0  0  0  0  0  0  0  0
   -7.7188   24.1371  -31.2114 H   0  0  0  0  0  0  0  0  0  0  0  0
   -7.3483   23.7583  -32.9674 H   0  0  0  0  0  0  0  0  0  0  0  0
   -7.9567   21.8699  -30.6850 H   0  0  0  0  0  0  0  0  0  0  0  0
   -8.6917   22.0349  -32.3808 H   0  0  0  0  0  0  0  0  0  0  0  0
  1  2  1  0
  2  3  1  0
  3  4  1  0
  4  5  1  0
  5  6  1  0
  6  7  2  0
  7  8  1  0
  8  9  1  0
  9 10  1  0
 10 11  1  0
 11 12  1  0
 12 13  1  0
 13 14  1  0
 14 15  1  0
 15 16  1  0
 15 17  2  0
 14 18  1  0
 18 19  1  0
  8  4  2  0
 19 10  1  0
  1 20  1  0
  1 21  1  0
  1 22  1  0
  2 23  1  0
  2 24  1  0
  3 25  1  0
  3 26  1  0
  6 27  1  0
  9 28  1  0
  9 29  1  0
 10 30  1  6
 11 31  1  0
 11 32  1  0
 12 33  1  0
 12 34  1  0
 13 35  1  0
 13 36  1  0
 16 37  1  0
 16 38  1  0
 16 39  1  0
 18 40  1  0
 18 41  1  0
 19 42  1  0
 19 43  1  0
M  CHG  1  10   1
M  END
>  <UniqueID>  (34) 
33

>  <SMILES>  (34) 
CCCc1ocnc1C[N@@H+]1CCCN(C(C)=O)CC1

>  <Energy>  (34) 
82.65557270256336

>  <Genealogy>  (34) 
CCCc1ocnc1C[NH+]1CCCN(C(C)=O)CC1 (protonated)
CCCc1ocnc1C[N@@H+]1CCCN(C(C)=O)CC1 (chirality)
CCCc1ocnc1C[N@@H+]1CCCN(C(C)=O)CC1 (3D coordinates assigned)
CCCc1ocnc1C[N@@H+]1CCCN(C(C)=O)CC1 (nonaromatic ring conformer: 82.65557270256336 kcal/mol)

>  <smiles>  (34) 
CCCc1ocnc1CN1CCCN(C(C)=O)CC1

>  <score_type>  (34) 
oracle

>  <origin>  (34) 
adg

>  <m_score__min__energy>  (34) 
-4.25

>  <m_primary>  (34) 
energy

$$$$
34:0
     RDKit          3D

 65 68  0  0  0  0  0  0  0  0999 V2000
   -7.5820   17.9210  -31.8880 C   0  0  0  0  0  0  0  0  0  0  0  0
   -6.1960   17.3390  -31.6310 C   0  0  0  0  0  0  0  0  0  0  0  0
   -5.5560   16.9270  -32.9020 N   0  0  0  0  0  0  0  0  0  0  0  0
   -5.3570   15.4560  -32.9640 C   0  0  0  0  0  0  0  0  0  0  0  0
   -6.0180   14.7820  -34.1750 C   0  0  0  0  0  0  0  0  0  0  0  0
   -4.3280   17.7140  -33.1710 C   0  0  0  0  0  0  0  0  0  0  0  0
   -4.5560   18.8740  -34.1520 C   0  0  0  0  0  0  0  0  0  0  0  0
   -5.7940   20.0820  -33.5470 S   0  0  0  0  0  0  0  0  0  0  0  0
   -4.6820   20.9100  -32.4080 C   0  0  0  0  0  0  0  0  0  0  0  0
   -4.9100   20.8470  -31.0290 C   0  0  0  0  0  0  0  0  0  0  0  0
   -4.0360   21.4860  -30.1430 C   0  0  0  0  0  0  0  0  0  0  0  0
   -2.9110   22.1740  -30.6290 C   0  0  0  0  0  0  0  0  0  0  0  0
   -1.9930   22.8410  -29.6830 C   0  0  0  0  0  0  0  0  0  0  0  0
   -0.6210   22.6710  -29.6940 C   0  0  0  0  0  0  0  0  0  0  0  0
   -0.1190   23.4440  -28.6720 C   0  0  0  0  0  0  0  0  0  0  0  0
   -1.1990   24.0780  -28.0870 C   0  0  0  0  0  0  0  0  0  0  0  0
   -1.0810   25.0020  -26.9390 C   0  0  0  0  0  0  0  0  0  0  0  0
   -0.9820   26.3880  -27.1400 C   0  0  0  0  0  0  0  0  0  0  0  0
   -0.8400   27.2500  -26.0480 C   0  0  0  0  0  0  0  0  0  0  0  0
   -0.7810   26.7340  -24.7500 C   0  0  0  0  0  0  0  0  0  0  0  0
   -0.8540   25.3540  -24.5440 C   0  0  0  0  0  0  0  0  0  0  0  0
   -0.9990   24.4890  -25.6340 C   0  0  0  0  0  0  0  0  0  0  0  0
   -2.3520   23.7160  -28.7060 N   0  0  0  0  0  0  0  0  0  0  0  0
   -3.7180   24.1260  -28.3400 C   0  0  0  0  0  0  0  0  0  0  0  0
   -4.5040   24.5520  -29.5450 C   0  0  0  0  0  0  0  0  0  0  0  0
   -3.9180   25.1540  -30.4840 O   0  0  0  0  0  0  0  0  0  0  0  0
   -5.9040   24.2590  -29.6420 N   0  0  0  0  0  0  0  0  0  0  0  0
   -6.6620   24.5480  -30.8540 C   0  0  0  0  0  0  0  0  0  0  0  0
   -6.1890   23.7690  -32.0690 C   0  0  0  0  0  0  0  0  0  0  0  0
   -7.4700   23.3650  -31.3590 C   0  0  0  0  0  0  0  0  0  0  0  0
   -2.6970   22.2450  -32.0160 C   0  0  0  0  0  0  0  0  0  0  0  0
   -3.5700   21.6020  -32.8960 C   0  0  0  0  0  0  0  0  0  0  0  0
   -8.0764   18.1286  -30.9275 H   0  0  0  0  0  0  0  0  0  0  0  0
   -7.4869   18.8552  -32.4609 H   0  0  0  0  0  0  0  0  0  0  0  0
   -8.1824   17.1990  -32.4609 H   0  0  0  0  0  0  0  0  0  0  0  0
   -5.5701   18.0999  -31.1418 H   0  0  0  0  0  0  0  0  0  0  0  0
   -6.2985   16.4550  -30.9844 H   0  0  0  0  0  0  0  0  0  0  0  0
   -4.2762   15.2555  -33.0049 H   0  0  0  0  0  0  0  0  0  0  0  0
   -5.8350   15.0343  -32.0675 H   0  0  0  0  0  0  0  0  0  0  0  0
   -6.7485   14.0371  -33.8266 H   0  0  0  0  0  0  0  0  0  0  0  0
   -6.5307   15.5419  -34.7830 H   0  0  0  0  0  0  0  0  0  0  0  0
   -5.2483   14.2842  -34.7830 H   0  0  0  0  0  0  0  0  0  0  0  0
   -3.9622   18.1274  -32.2196 H   0  0  0  0  0  0  0  0  0  0  0  0
   -3.5980   17.0333  -33.6333 H   0  0  0  0  0  0  0  0  0  0  0  0
   -3.6006   19.3970  -34.3061 H   0  0  0  0  0  0  0  0  0  0  0  0
   -4.9418   18.4450  -35.0886 H   0  0  0  0  0  0  0  0  0  0  0  0
   -5.7780   20.2940  -30.6408 H   0  0  0  0  0  0  0  0  0  0  0  0
   -4.2302   21.4498  -29.0609 H   0  0  0  0  0  0  0  0  0  0  0  0
   -0.0429   22.0403  -30.3854 H   0  0  0  0  0  0  0  0  0  0  0  0
    0.9367   23.5389  -28.3778 H   0  0  0  0  0  0  0  0  0  0  0  0
   -1.0163   26.7975  -28.1604 H   0  0  0  0  0  0  0  0  0  0  0  0
   -0.7746   28.3359  -26.2106 H   0  0  0  0  0  0  0  0  0  0  0  0
   -0.6772   27.4139  -23.8916 H   0  0  0  0  0  0  0  0  0  0  0  0
   -0.7974   24.9472  -23.5236 H   0  0  0  0  0  0  0  0  0  0  0  0
   -1.0490   23.4027  -25.4683 H   0  0  0  0  0  0  0  0  0  0  0  0
   -4.2295   23.2784  -27.8605 H   0  0  0  0  0  0  0  0  0  0  0  0
   -3.6496   24.9813  -27.6516 H   0  0  0  0  0  0  0  0  0  0  0  0
   -6.3710   23.7340  -28.8710 H   0  0  0  0  0  0  0  0  0  0  0  0
   -6.8745   25.6059  -30.6400 H   0  0  0  0  0  0  0  0  0  0  0  0
   -6.2349   24.2270  -33.0681 H   0  0  0  0  0  0  0  0  0  0  0  0
   -5.2585   23.2530  -32.3483 H   0  0  0  0  0  0  0  0  0  0  0  0
   -8.4434   23.5306  -31.8439 H   0  0  0  0  0  0  0  0  0  0  0  0
   -7.8513   22.4354  -30.9112 H   0  0  0  0  0  0  0  0  0  0  0  0
   -1.8387   22.8091  -32.4099 H   0  0  0  0  0  0  0  0  0  0  0  0
   -3.3815   21.6403  -33.9791 H   0  0  0  0  0  0  0  0  0  0  0  0
  1  2  1  0
  2  3  1  0
  3  4  1  0
  4  5  1  0
  3  6  1  0
  6  7  1  0
  7  8  1  0
  8  9  1  0
  9 10  2  0
 10 11  1  0
 11 12  2  0
 12 13  1  0
 13 14  2  0
 14 15  1  0
 15 16  2  0
 16 17  1  0
 17 18  2  0
 18 19  1  0
 19 20  2  0
 20 21  1  0
 21 22  2  0
 16 23  1  0
 23 24  1  0
 24 25  1  0
 25 26  2  0
 25 27  1  0
 27 28  1  0
 28 29  1  0
 29 30  1  0
 12 31  1  0
 31 32  2  0
 32  9  1  0
 23 13  1  0
 30 28  1  0
 22 17  1  0
  1 33  1  0
  1 34  1  0
  1 35  1  0
  2 36  1  0
  2 37  1  0
  4 38  1  0
  4 39  1  0
  5 40  1  0
  5 41  1  0
  5 42  1  0
  6 43  1  0
  6 44  1  0
  7 45  1  0
  7 46  1  0
 10 47  1  0
 11 48  1  0
 14 49  1  0
 15 50  1  0
 18 51  1  0
 19 52  1  0
 20 53  1  0
 21 54  1  0
 22 55  1  0
 24 56  1  0
 24 57  1  0
 27 58  1  0
 28 59  1  0
 29 60  1  0
 29 61  1  0
 30 62  1  0
 30 63  1  0
 31 64  1  0
 32 65  1  0
M  END
>  <UniqueID>  (35) 
34

>  <SMILES>  (35) 
CCN(CC)CCSc1ccc(-c2ccc(-c3ccccc3)n2CC(=O)NC2CC2)cc1

>  <Energy>  (35) 
360.78566684004664

>  <Genealogy>  (35) 
CCN(CC)CCSc1ccc(-c2ccc(-c3ccccc3)n2CC(=O)NC2CC2)cc1 (3D coordinates assigned)
CCN(CC)CCSc1ccc(-c2ccc(-c3ccccc3)n2CC(=O)NC2CC2)cc1 (nonaromatic ring conformer: 360.78566684004664 kcal/mol)

>  <smiles>  (35) 
CCN(CC)CCSc1ccc(-c2ccc(-c3ccccc3)n2CC(=O)NC2CC2)cc1

>  <score_type>  (35) 
oracle

>  <origin>  (35) 
adg

>  <m_score__min__energy>  (35) 
-9.7699999999999996

>  <m_primary>  (35) 
energy

$$$$
35:0
     RDKit          3D

 42 44  0  0  0  0  0  0  0  0999 V2000
   -8.6790   18.2010  -31.5970 C   0  0  0  0  0  0  0  0  0  0  0  0
   -7.5930   18.1660  -32.6430 C   0  0  0  0  0  0  0  0  0  0  0  0
   -7.2430   16.9230  -33.2010 C   0  0  0  0  0  0  0  0  0  0  0  0
   -6.2720   16.8350  -34.1970 C   0  0  0  0  0  0  0  0  0  0  0  0
   -5.6340   17.9860  -34.6530 C   0  0  0  0  0  0  0  0  0  0  0  0
   -5.9580   19.2290  -34.1070 C   0  0  0  0  0  0  0  0  0  0  0  0
   -6.9260   19.3410  -33.0900 C   0  0  0  0  0  0  0  0  0  0  0  0
   -7.2020   20.6940  -32.5430 C   0  0  0  0  0  0  0  0  0  0  0  0
   -6.4180   21.7750  -32.7420 N   0  0  0  0  0  0  0  0  0  0  0  0
   -7.0600   22.7530  -32.0780 C   0  0  0  0  0  0  0  0  0  0  0  0
   -6.5510   24.1650  -31.9560 C   0  0  0  0  0  0  0  0  0  0  0  0
   -5.2150   24.2520  -31.3260 N   0  0  0  0  0  0  0  0  0  0  0  0
   -5.0890   25.4450  -30.4690 C   0  0  0  0  0  0  0  0  0  0  0  0
   -4.8570   23.0160  -30.5970 C   0  0  0  0  0  0  0  0  0  0  0  0
   -3.8440   22.2230  -31.3780 C   0  0  0  0  0  0  0  0  0  0  0  0
   -2.8870   21.4530  -30.7030 C   0  0  0  0  0  0  0  0  0  0  0  0
   -1.9670   20.7020  -31.4360 C   0  0  0  0  0  0  0  0  0  0  0  0
   -2.0120   20.7190  -32.8290 C   0  0  0  0  0  0  0  0  0  0  0  0
   -2.9820   21.4900  -33.4730 C   0  0  0  0  0  0  0  0  0  0  0  0
   -3.8740   22.2180  -32.7440 N   0  0  0  0  0  0  0  0  0  0  0  0
   -8.2010   22.2450  -31.5030 C   0  0  0  0  0  0  0  0  0  0  0  0
   -8.2620   20.9740  -31.8130 O   0  0  0  0  0  0  0  0  0  0  0  0
   -8.2241   18.1863  -30.5956 H   0  0  0  0  0  0  0  0  0  0  0  0
   -9.2735   19.1188  -31.7163 H   0  0  0  0  0  0  0  0  0  0  0  0
   -9.3314   17.3234  -31.7163 H   0  0  0  0  0  0  0  0  0  0  0  0
   -7.7420   16.0089  -32.8468 H   0  0  0  0  0  0  0  0  0  0  0  0
   -6.0093   15.8556  -34.6233 H   0  0  0  0  0  0  0  0  0  0  0  0
   -4.8736   17.9153  -35.4447 H   0  0  0  0  0  0  0  0  0  0  0  0
   -5.4508   20.1328  -34.4757 H   0  0  0  0  0  0  0  0  0  0  0  0
   -6.4915   24.6032  -32.9632 H   0  0  0  0  0  0  0  0  0  0  0  0
   -7.2533   24.7102  -31.3083 H   0  0  0  0  0  0  0  0  0  0  0  0
   -5.1210   25.1422  -29.4120 H   0  0  0  0  0  0  0  0  0  0  0  0
   -4.1328   25.9471  -30.6778 H   0  0  0  0  0  0  0  0  0  0  0  0
   -5.9192   26.1358  -30.6778 H   0  0  0  0  0  0  0  0  0  0  0  0
   -4.4324   23.2824  -29.6178 H   0  0  0  0  0  0  0  0  0  0  0  0
   -5.7621   22.4056  -30.4622 H   0  0  0  0  0  0  0  0  0  0  0  0
   -2.8612   21.4407  -29.6034 H   0  0  0  0  0  0  0  0  0  0  0  0
   -1.2086   20.0984  -30.9159 H   0  0  0  0  0  0  0  0  0  0  0  0
   -1.2906   20.1309  -33.4153 H   0  0  0  0  0  0  0  0  0  0  0  0
   -3.0262   21.5097  -34.5719 H   0  0  0  0  0  0  0  0  0  0  0  0
   -4.5930   22.7780  -33.2530 H   0  0  0  0  0  0  0  0  0  0  0  0
   -8.9282   22.8030  -30.8949 H   0  0  0  0  0  0  0  0  0  0  0  0
  1  2  1  0
  2  3  2  0
  3  4  1  0
  4  5  2  0
  5  6  1  0
  6  7  2  0
  7  8  1  0
  8  9  2  0
  9 10  1  0
 10 11  1  0
 11 12  1  0
 12 13  1  0
 12 14  1  0
 14 15  1  0
 15 16  2  0
 16 17  1  0
 17 18  2  0
 18 19  1  0
 19 20  2  0
 10 21  2  0
 21 22  1  0
  7  2  1  0
 22  8  1  0
 20 15  1  0
  1 23  1  0
  1 24  1  0
  1 25  1  0
  3 26  1  0
  4 27  1  0
  5 28  1  0
  6 29  1  0
 11 30  1  0
 11 31  1  0
 13 32  1  0
 13 33  1  0
 13 34  1  0
 14 35  1  0
 14 36  1  0
 16 37  1  0
 17 38  1  0
 18 39  1  0
 19 40  1  0
 20 41  1  0
 21 42  1  0
M  CHG  1  20   1
M  END
>  <UniqueID>  (36) 
35

>  <SMILES>  (36) 
Cc1ccccc1-c1nc(CN(C)Cc2cccc[nH+]2)co1

>  <Energy>  (36) 
78.1743610270574

>  <Genealogy>  (36) 
Cc1ccccc1-c1nc(CN(C)Cc2cccc[nH+]2)co1 (protonated)
Cc1ccccc1-c1nc(CN(C)Cc2cccc[nH+]2)co1 (3D coordinates assigned)
Cc1ccccc1-c1nc(CN(C)Cc2cccc[nH+]2)co1 (optimized conformer: 78.1743610270574 kcal/mol)

>  <smiles>  (36) 
Cc1ccccc1-c1nc(CN(C)Cc2ccccn2)co1

>  <score_type>  (36) 
oracle

>  <origin>  (36) 
adg

>  <m_score__min__energy>  (36) 
-6.8399999999999999

>  <m_primary>  (36) 
energy

$$$$
36:0
     RDKit          3D

 60 63  0  0  0  0  0  0  0  0999 V2000
   -6.1040   16.6820  -33.0290 C   0  0  0  0  0  0  0  0  0  0  0  0
   -6.4660   18.1170  -32.9280 N   0  0  0  0  0  0  0  0  0  0  0  0
   -6.0790   18.7680  -34.2080 C   0  0  0  0  0  0  0  0  0  0  0  0
   -5.7010   18.7110  -31.7950 C   0  0  0  0  0  0  0  0  0  0  0  0
   -6.0400   20.2010  -31.5570 C   0  0  0  0  0  0  0  0  0  0  0  0
   -7.3940   20.5480  -32.0350 N   0  0  0  0  0  0  0  0  0  0  0  0
   -7.8700   21.8550  -31.5310 C   0  0  0  0  0  0  0  0  0  0  0  0
   -7.4840   23.0550  -32.4220 C   0  0  0  0  0  0  0  0  0  0  0  0
   -6.7370   24.1250  -31.6110 C   0  0  0  0  0  0  0  0  0  0  0  0
   -6.7330   23.8400  -30.0980 C   0  0  0  0  0  0  0  0  0  0  0  0
   -5.5230   24.4360  -29.3470 C   0  0  0  0  0  0  0  0  0  0  0  0
   -4.2270   24.3360  -30.1080 C   0  0  0  0  0  0  0  0  0  0  0  0
   -3.8590   25.3000  -30.8330 O   0  0  0  0  0  0  0  0  0  0  0  0
   -3.4810   23.1080  -30.1420 N   0  0  0  0  0  0  0  0  0  0  0  0
   -2.7080   22.5580  -29.1680 C   0  0  0  0  0  0  0  0  0  0  0  0
   -2.4410   23.0510  -27.8860 C   0  0  0  0  0  0  0  0  0  0  0  0
   -1.5650   22.3260  -27.0610 C   0  0  0  0  0  0  0  0  0  0  0  0
   -0.9660   21.1330  -27.5200 C   0  0  0  0  0  0  0  0  0  0  0  0
   -1.2320   20.6570  -28.8150 C   0  0  0  0  0  0  0  0  0  0  0  0
   -2.1030   21.3960  -29.6130 C   0  0  0  0  0  0  0  0  0  0  0  0
   -2.5140   21.2170  -30.9130 C   0  0  0  0  0  0  0  0  0  0  0  0
   -2.2140   20.2250  -31.8470 C   0  0  0  0  0  0  0  0  0  0  0  0
   -2.8000   20.3270  -33.1190 C   0  0  0  0  0  0  0  0  0  0  0  0
   -3.6630   21.4010  -33.4280 C   0  0  0  0  0  0  0  0  0  0  0  0
   -3.9450   22.3900  -32.4670 C   0  0  0  0  0  0  0  0  0  0  0  0
   -3.3470   22.2780  -31.2080 C   0  0  0  0  0  0  0  0  0  0  0  0
   -8.3500   19.4490  -31.8440 C   0  0  0  0  0  0  0  0  0  0  0  0
   -7.9440   18.2340  -32.7050 C   0  0  0  0  0  0  0  0  0  0  0  0
   -5.9973   16.2588  -32.0193 H   0  0  0  0  0  0  0  0  0  0  0  0
   -6.8940   16.1418  -33.5713 H   0  0  0  0  0  0  0  0  0  0  0  0
   -5.1523   16.5812  -33.5713 H   0  0  0  0  0  0  0  0  0  0  0  0
   -5.5275   19.6957  -33.9955 H   0  0  0  0  0  0  0  0  0  0  0  0
   -5.4396   18.0859  -34.7876 H   0  0  0  0  0  0  0  0  0  0  0  0
   -6.9837   19.0038  -34.7876 H   0  0  0  0  0  0  0  0  0  0  0  0
   -5.9344   18.1472  -30.8798 H   0  0  0  0  0  0  0  0  0  0  0  0
   -4.6327   18.6517  -32.0504 H   0  0  0  0  0  0  0  0  0  0  0  0
   -5.9805   20.4101  -30.4787 H   0  0  0  0  0  0  0  0  0  0  0  0
   -5.3165   20.8066  -32.1225 H   0  0  0  0  0  0  0  0  0  0  0  0
   -8.9670   21.8180  -31.4583 H   0  0  0  0  0  0  0  0  0  0  0  0
   -7.3837   22.0147  -30.5574 H   0  0  0  0  0  0  0  0  0  0  0  0
   -6.8349   22.7034  -33.2375 H   0  0  0  0  0  0  0  0  0  0  0  0
   -8.4043   23.5012  -32.8270 H   0  0  0  0  0  0  0  0  0  0  0  0
   -5.6955   24.1674  -31.9624 H   0  0  0  0  0  0  0  0  0  0  0  0
   -7.2616   25.0796  -31.7644 H   0  0  0  0  0  0  0  0  0  0  0  0
   -7.6511   24.2632  -29.6644 H   0  0  0  0  0  0  0  0  0  0  0  0
   -6.6719   22.7479  -29.9813 H   0  0  0  0  0  0  0  0  0  0  0  0
   -5.7273   25.4983  -29.1477 H   0  0  0  0  0  0  0  0  0  0  0  0
   -5.3988   23.8512  -28.4236 H   0  0  0  0  0  0  0  0  0  0  0  0
   -2.9056   23.9834  -27.5328 H   0  0  0  0  0  0  0  0  0  0  0  0
   -1.3437   22.6915  -26.0474 H   0  0  0  0  0  0  0  0  0  0  0  0
   -0.2872   20.5728  -26.8601 H   0  0  0  0  0  0  0  0  0  0  0  0
   -0.7679   19.7315  -29.1866 H   0  0  0  0  0  0  0  0  0  0  0  0
   -1.5415   19.3916  -31.5956 H   0  0  0  0  0  0  0  0  0  0  0  0
   -2.5849   19.5637  -33.8813 H   0  0  0  0  0  0  0  0  0  0  0  0
   -4.1184   21.4653  -34.4273 H   0  0  0  0  0  0  0  0  0  0  0  0
   -4.6177   23.2285  -32.7001 H   0  0  0  0  0  0  0  0  0  0  0  0
   -8.3598   19.1560  -30.7838 H   0  0  0  0  0  0  0  0  0  0  0  0
   -9.3513   19.7870  -32.1494 H   0  0  0  0  0  0  0  0  0  0  0  0
   -8.2921   17.3202  -32.2013 H   0  0  0  0  0  0  0  0  0  0  0  0
   -8.4070   18.3726  -33.6931 H   0  0  0  0  0  0  0  0  0  0  0  0
  1  2  1  0
  2  3  1  0
  2  4  1  0
  4  5  1  0
  5  6  1  0
  6  7  1  0
  7  8  1  0
  8  9  1  0
  9 10  1  0
 10 11  1  0
 11 12  1  0
 12 13  2  0
 12 14  1  0
 14 15  1  0
 15 16  2  0
 16 17  1  0
 17 18  2  0
 18 19  1  0
 19 20  2  0
 20 21  1  0
 21 22  2  0
 22 23  1  0
 23 24  2  0
 24 25  1  0
 25 26  2  0
  6 27  1  0
 27 28  1  0
 28  2  1  0
 26 14  1  0
 20 15  1  0
 26 21  1  0
  1 29  1  0
  1 30  1  0
  1 31  1  0
  3 32  1  0
  3 33  1  0
  3 34  1  0
  4 35  1  0
  4 36  1  0
  5 37  1  0
  5 38  1  0
  7 39  1  0
  7 40  1  0
  8 41  1  0
  8 42  1  0
  9 43  1  0
  9 44  1  0
 10 45  1  0
 10 46  1  0
 11 47  1  0
 11 48  1  0
 16 49  1  0
 17 50  1  0
 18 51  1  0
 19 52  1  0
 22 53  1  0
 23 54  1  0
 24 55  1  0
 25 56  1  0
 27 57  1  0
 27 58  1  0
 28 59  1  0
 28 60  1  0
M  CHG  1   2   1
M  END
>  <UniqueID>  (37) 
36

>  <SMILES>  (37) 
C[N+]1(C)CCN(CCCCCC(=O)n2c3ccccc3c3ccccc32)CC1

>  <Energy>  (37) 
121.23743636049373

>  <Genealogy>  (37) 
C[N+]1(C)CCN(CCCCCC(=O)n2c3ccccc3c3ccccc32)CC1 (3D coordinates assigned)
C[N+]1(C)CCN(CCCCCC(=O)n2c3ccccc3c3ccccc32)CC1 (nonaromatic ring conformer: 121.23743636049373 kcal/mol)

>  <smiles>  (37) 
C[N+]1(C)CCN(CCCCCC(=O)n2c3ccccc3c3ccccc32)CC1

>  <score_type>  (37) 
oracle

>  <origin>  (37) 
adg

>  <m_score__min__energy>  (37) 
-9.2100000000000009

>  <m_primary>  (37) 
energy

$$$$
37:0
     RDKit          3D

 44 45  0  0  0  0  0  0  0  0999 V2000
   -1.1130   21.5630  -30.3970 C   0  0  0  0  0  0  0  0  0  0  0  0
   -1.1860   22.5750  -29.2440 C   0  0  0  0  0  0  0  0  0  0  0  0
   -2.3580   22.4010  -28.3510 N   0  0  0  0  0  0  0  0  0  0  0  0
   -2.0760   21.4890  -27.2210 C   0  0  0  0  0  0  0  0  0  0  0  0
   -2.7430   20.1360  -27.4550 C   0  0  0  0  0  0  0  0  0  0  0  0
   -2.9620   23.6750  -27.8970 C   0  0  0  0  0  0  0  0  0  0  0  0
   -2.3450   24.8750  -28.6260 C   0  0  0  0  0  0  0  0  0  0  0  0
   -3.1700   25.2840  -29.7170 O   0  0  0  0  0  0  0  0  0  0  0  0
   -4.2240   24.5370  -30.2680 C   0  0  0  0  0  0  0  0  0  0  0  0
   -5.5790   24.8770  -30.0830 C   0  0  0  0  0  0  0  0  0  0  0  0
   -6.5860   24.0990  -30.6620 C   0  0  0  0  0  0  0  0  0  0  0  0
   -6.2630   22.9820  -31.4400 C   0  0  0  0  0  0  0  0  0  0  0  0
   -7.3040   22.2220  -31.9920 O   0  0  0  0  0  0  0  0  0  0  0  0
   -7.2220   20.8660  -32.3450 C   0  0  0  0  0  0  0  0  0  0  0  0
   -6.3160   20.4840  -33.3420 C   0  0  0  0  0  0  0  0  0  0  0  0
   -6.1940   19.1410  -33.7100 C   0  0  0  0  0  0  0  0  0  0  0  0
   -6.9690   18.1660  -33.0740 C   0  0  0  0  0  0  0  0  0  0  0  0
   -6.8150   16.4800  -33.5350 Cl  0  0  0  0  0  0  0  0  0  0  0  0
   -7.8610   18.5350  -32.0620 C   0  0  0  0  0  0  0  0  0  0  0  0
   -7.9840   19.8790  -31.6920 C   0  0  0  0  0  0  0  0  0  0  0  0
   -4.9130   22.6270  -31.6030 C   0  0  0  0  0  0  0  0  0  0  0  0
   -3.9050   23.4040  -31.0260 C   0  0  0  0  0  0  0  0  0  0  0  0
   -1.0396   20.5449  -29.9871 H   0  0  0  0  0  0  0  0  0  0  0  0
   -2.0194   21.6451  -31.0148 H   0  0  0  0  0  0  0  0  0  0  0  0
   -0.2278   21.7743  -31.0148 H   0  0  0  0  0  0  0  0  0  0  0  0
   -0.2735   22.4733  -28.6383 H   0  0  0  0  0  0  0  0  0  0  0  0
   -1.2858   23.5692  -29.7039 H   0  0  0  0  0  0  0  0  0  0  0  0
   -0.9889   21.3473  -27.1313 H   0  0  0  0  0  0  0  0  0  0  0  0
   -2.4753   21.9303  -26.2959 H   0  0  0  0  0  0  0  0  0  0  0  0
   -2.9735   19.6684  -26.4864 H   0  0  0  0  0  0  0  0  0  0  0  0
   -3.6736   20.2794  -28.0236 H   0  0  0  0  0  0  0  0  0  0  0  0
   -2.0625   19.4852  -28.0236 H   0  0  0  0  0  0  0  0  0  0  0  0
   -4.0432   23.6507  -28.0981 H   0  0  0  0  0  0  0  0  0  0  0  0
   -2.7690   23.7864  -26.8198 H   0  0  0  0  0  0  0  0  0  0  0  0
   -2.2406   25.7115  -27.9194 H   0  0  0  0  0  0  0  0  0  0  0  0
   -1.3606   24.5808  -29.0191 H   0  0  0  0  0  0  0  0  0  0  0  0
   -5.8454   25.7580  -29.4807 H   0  0  0  0  0  0  0  0  0  0  0  0
   -7.6411   24.3674  -30.5045 H   0  0  0  0  0  0  0  0  0  0  0  0
   -5.6965   21.2454  -33.8386 H   0  0  0  0  0  0  0  0  0  0  0  0
   -5.4872   18.8506  -34.5012 H   0  0  0  0  0  0  0  0  0  0  0  0
   -8.4664   17.7682  -31.5565 H   0  0  0  0  0  0  0  0  0  0  0  0
   -8.6784   20.1650  -30.8883 H   0  0  0  0  0  0  0  0  0  0  0  0
   -4.6486   21.7334  -32.1875 H   0  0  0  0  0  0  0  0  0  0  0  0
   -2.8512   23.1228  -31.1687 H   0  0  0  0  0  0  0  0  0  0  0  0
  1  2  1  0
  2  3  1  0
  3  4  1  0
  4  5  1  0
  3  6  1  0
  6  7  1  0
  7  8  1  0
  8  9  1  0
  9 10  2  0
 10 11  1  0
 11 12  2  0
 12 13  1  0
 13 14  1  0
 14 15  2  0
 15 16  1  0
 16 17  2  0
 17 18  1  0
 17 19  1  0
 19 20  2  0
 12 21  1  0
 21 22  2  0
 22  9  1  0
 20 14  1  0
  1 23  1  0
  1 24  1  0
  1 25  1  0
  2 26  1  0
  2 27  1  0
  4 28  1  0
  4 29  1  0
  5 30  1  0
  5 31  1  0
  5 32  1  0
  6 33  1  0
  6 34  1  0
  7 35  1  0
  7 36  1  0
 10 37  1  0
 11 38  1  0
 15 39  1  0
 16 40  1  0
 19 41  1  0
 20 42  1  0
 21 43  1  0
 22 44  1  0
M  END
>  <UniqueID>  (38) 
37

>  <SMILES>  (38) 
CCN(CC)CCOc1ccc(Oc2ccc(Cl)cc2)cc1

>  <Energy>  (38) 
50.755722749211635

>  <Genealogy>  (38) 
CCN(CC)CCOc1ccc(Oc2ccc(Cl)cc2)cc1 (3D coordinates assigned)
CCN(CC)CCOc1ccc(Oc2ccc(Cl)cc2)cc1 (optimized conformer: 50.755722749211635 kcal/mol)

>  <smiles>  (38) 
CCN(CC)CCOc1ccc(Oc2ccc(Cl)cc2)cc1

>  <score_type>  (38) 
oracle

>  <origin>  (38) 
adg

>  <m_score__min__energy>  (38) 
-7.4500000000000002

>  <m_primary>  (38) 
energy

$$$$
38:0
     RDKit          3D

 39 41  0  0  0  0  0  0  0  0999 V2000
   -1.9440   24.9640  -28.1780 C   0  0  0  0  0  0  0  0  0  0  0  0
   -2.7000   25.2980  -29.3380 O   0  0  0  0  0  0  0  0  0  0  0  0
   -3.7580   24.5280  -29.8410 C   0  0  0  0  0  0  0  0  0  0  0  0
   -4.7700   25.0740  -30.6550 C   0  0  0  0  0  0  0  0  0  0  0  0
   -5.8000   24.2620  -31.1380 C   0  0  0  0  0  0  0  0  0  0  0  0
   -5.8320   22.8940  -30.8240 C   0  0  0  0  0  0  0  0  0  0  0  0
   -6.9300   22.0360  -31.3190 C   0  0  0  0  0  0  0  0  0  0  0  0
   -8.2330   22.5650  -31.3610 C   0  0  0  0  0  0  0  0  0  0  0  0
   -9.2910   21.8050  -31.8620 C   0  0  0  0  0  0  0  0  0  0  0  0
   -9.0630   20.5100  -32.3260 C   0  0  0  0  0  0  0  0  0  0  0  0
   -7.7790   19.9660  -32.2790 C   0  0  0  0  0  0  0  0  0  0  0  0
   -6.7080   20.7100  -31.7620 C   0  0  0  0  0  0  0  0  0  0  0  0
   -5.0920   19.9140  -31.6610 S   0  0  0  0  0  0  0  0  0  0  0  0
   -5.5620   18.5480  -32.7380 C   0  0  0  0  0  0  0  0  0  0  0  0
   -5.4240   18.7060  -34.1240 C   0  0  0  0  0  0  0  0  0  0  0  0
   -5.8250   17.6910  -34.9960 C   0  0  0  0  0  0  0  0  0  0  0  0
   -6.3550   16.5040  -34.4890 C   0  0  0  0  0  0  0  0  0  0  0  0
   -6.4680   16.3220  -33.1090 C   0  0  0  0  0  0  0  0  0  0  0  0
   -6.0590   17.3300  -32.2210 C   0  0  0  0  0  0  0  0  0  0  0  0
   -6.1150   17.0810  -30.8120 N   0  0  0  0  0  0  0  0  0  0  0  0
   -4.8340   22.3560  -29.9980 C   0  0  0  0  0  0  0  0  0  0  0  0
   -3.8040   23.1670  -29.5160 C   0  0  0  0  0  0  0  0  0  0  0  0
   -2.5220   25.2193  -27.2776 H   0  0  0  0  0  0  0  0  0  0  0  0
   -1.7260   23.8858  -28.1803 H   0  0  0  0  0  0  0  0  0  0  0  0
   -1.0001   25.5289  -28.1803 H   0  0  0  0  0  0  0  0  0  0  0  0
   -4.7494   26.1435  -30.9114 H   0  0  0  0  0  0  0  0  0  0  0  0
   -6.5900   24.6972  -31.7677 H   0  0  0  0  0  0  0  0  0  0  0  0
   -8.4194   23.5858  -30.9960 H   0  0  0  0  0  0  0  0  0  0  0  0
  -10.3060   22.2281  -31.8909 H   0  0  0  0  0  0  0  0  0  0  0  0
   -9.8965   19.9165  -32.7296 H   0  0  0  0  0  0  0  0  0  0  0  0
   -7.6051   18.9453  -32.6504 H   0  0  0  0  0  0  0  0  0  0  0  0
   -4.9969   19.6358  -34.5278 H   0  0  0  0  0  0  0  0  0  0  0  0
   -5.7229   17.8276  -36.0827 H   0  0  0  0  0  0  0  0  0  0  0  0
   -6.6840   15.7111  -35.1767 H   0  0  0  0  0  0  0  0  0  0  0  0
   -6.8806   15.3817  -32.7146 H   0  0  0  0  0  0  0  0  0  0  0  0
   -6.2140   17.8550  -30.1210 H   0  0  0  0  0  0  0  0  0  0  0  0
   -5.9900   16.1140  -30.4380 H   0  0  0  0  0  0  0  0  0  0  0  0
   -4.8627   21.2899  -29.7285 H   0  0  0  0  0  0  0  0  0  0  0  0
   -3.0223   22.7326  -28.8755 H   0  0  0  0  0  0  0  0  0  0  0  0
  1  2  1  0
  2  3  1  0
  3  4  2  0
  4  5  1  0
  5  6  2  0
  6  7  1  0
  7  8  2  0
  8  9  1  0
  9 10  2  0
 10 11  1  0
 11 12  2  0
 12 13  1  0
 13 14  1  0
 14 15  2  0
 15 16  1  0
 16 17  2  0
 17 18  1  0
 18 19  2  0
 19 20  1  0
  6 21  1  0
 21 22  2  0
 22  3  1  0
 12  7  1  0
 19 14  1  0
  1 23  1  0
  1 24  1  0
  1 25  1  0
  4 26  1  0
  5 27  1  0
  8 28  1  0
  9 29  1  0
 10 30  1  0
 11 31  1  0
 15 32  1  0
 16 33  1  0
 17 34  1  0
 18 35  1  0
 20 36  1  0
 20 37  1  0
 21 38  1  0
 22 39  1  0
M  END
>  <UniqueID>  (39) 
38

>  <SMILES>  (39) 
COc1ccc(-c2ccccc2Sc2ccccc2N)cc1

>  <Energy>  (39) 
43.57880958244436

>  <Genealogy>  (39) 
COc1ccc(-c2ccccc2Sc2ccccc2N)cc1 (3D coordinates assigned)
COc1ccc(-c2ccccc2Sc2ccccc2N)cc1 (optimized conformer: 43.57880958244436 kcal/mol)

>  <smiles>  (39) 
COc1ccc(-c2ccccc2Sc2ccccc2N)cc1

>  <score_type>  (39) 
oracle

>  <origin>  (39) 
adg

>  <m_score__min__energy>  (39) 
-9.0199999999999996

>  <m_primary>  (39) 
energy

$$$$
39:0
     RDKit          3D

 62 66  0  0  0  0  0  0  0  0999 V2000
   -7.3760   18.2540  -32.1920 C   0  0  0  0  0  0  0  0  0  0  0  0
   -8.6730   18.9990  -31.8840 C   0  0  0  0  0  0  0  0  0  0  0  0
   -8.5310   20.5220  -32.0270 C   0  0  0  0  0  0  0  0  0  0  0  0
   -7.0980   20.9570  -32.3570 C   0  0  0  0  0  0  0  0  0  0  0  0
   -6.8460   22.2890  -31.8070 N   0  0  0  0  0  0  0  0  0  0  0  0
   -7.6880   23.3510  -31.7780 C   0  0  0  0  0  0  0  0  0  0  0  0
   -8.8180   23.3630  -32.3350 O   0  0  0  0  0  0  0  0  0  0  0  0
   -7.2100   24.3730  -31.0880 O   0  0  0  0  0  0  0  0  0  0  0  0
   -6.0420   23.9780  -30.6390 C   0  0  0  0  0  0  0  0  0  0  0  0
   -5.1390   24.6740  -29.8420 C   0  0  0  0  0  0  0  0  0  0  0  0
   -3.9530   24.0130  -29.4710 C   0  0  0  0  0  0  0  0  0  0  0  0
   -3.7020   22.6820  -29.8960 C   0  0  0  0  0  0  0  0  0  0  0  0
   -2.4070   22.0060  -29.5370 C   0  0  0  0  0  0  0  0  0  0  0  0
   -1.2480   23.0090  -29.5610 C   0  0  0  0  0  0  0  0  0  0  0  0
   -1.0150   23.5580  -28.2080 N   0  0  0  0  0  0  0  0  0  0  0  0
   -0.6490   22.7320  -27.1650 C   0  0  0  0  0  0  0  0  0  0  0  0
   -0.4100   21.2860  -27.3670 C   0  0  0  0  0  0  0  0  0  0  0  0
    0.7620   20.8480  -28.0000 C   0  0  0  0  0  0  0  0  0  0  0  0
    0.9740   19.4850  -28.2170 C   0  0  0  0  0  0  0  0  0  0  0  0
    0.0180   18.5450  -27.8010 C   0  0  0  0  0  0  0  0  0  0  0  0
    0.2580   17.0780  -28.0040 C   0  0  0  0  0  0  0  0  0  0  0  0
   -1.1330   18.9830  -27.1300 C   0  0  0  0  0  0  0  0  0  0  0  0
   -1.3500   20.3490  -26.9210 C   0  0  0  0  0  0  0  0  0  0  0  0
   -0.5000   23.2350  -25.9080 N   0  0  0  0  0  0  0  0  0  0  0  0
   -0.7020   24.5530  -25.6430 C   0  0  0  0  0  0  0  0  0  0  0  0
   -0.5350   25.0510  -24.3400 C   0  0  0  0  0  0  0  0  0  0  0  0
   -0.7470   26.4070  -24.0740 C   0  0  0  0  0  0  0  0  0  0  0  0
   -1.1250   27.2730  -25.1020 C   0  0  0  0  0  0  0  0  0  0  0  0
   -1.2950   26.7870  -26.4020 C   0  0  0  0  0  0  0  0  0  0  0  0
   -1.0840   25.4230  -26.6820 C   0  0  0  0  0  0  0  0  0  0  0  0
   -1.2470   24.8910  -27.9720 C   0  0  0  0  0  0  0  0  0  0  0  0
   -1.6150   25.6470  -28.9150 O   0  0  0  0  0  0  0  0  0  0  0  0
   -4.6420   22.0130  -30.7130 C   0  0  0  0  0  0  0  0  0  0  0  0
   -5.8030   22.7010  -31.0640 C   0  0  0  0  0  0  0  0  0  0  0  0
   -6.8832   17.9709  -31.2502 H   0  0  0  0  0  0  0  0  0  0  0  0
   -7.6026   17.3484  -32.7738 H   0  0  0  0  0  0  0  0  0  0  0  0
   -6.7079   18.9060  -32.7738 H   0  0  0  0  0  0  0  0  0  0  0  0
   -9.4518   18.6515  -32.5788 H   0  0  0  0  0  0  0  0  0  0  0  0
   -8.9371   18.7870  -30.8374 H   0  0  0  0  0  0  0  0  0  0  0  0
   -9.1963   20.8627  -32.8340 H   0  0  0  0  0  0  0  0  0  0  0  0
   -8.7991   20.9718  -31.0596 H   0  0  0  0  0  0  0  0  0  0  0  0
   -6.3884   20.2403  -31.9179 H   0  0  0  0  0  0  0  0  0  0  0  0
   -6.9688   20.9843  -33.4490 H   0  0  0  0  0  0  0  0  0  0  0  0
   -5.3443   25.7036  -29.5136 H   0  0  0  0  0  0  0  0  0  0  0  0
   -3.2129   24.5332  -28.8452 H   0  0  0  0  0  0  0  0  0  0  0  0
   -2.4916   21.5759  -28.5281 H   0  0  0  0  0  0  0  0  0  0  0  0
   -2.2051   21.2142  -30.2734 H   0  0  0  0  0  0  0  0  0  0  0  0
   -0.3361   22.5013  -29.9084 H   0  0  0  0  0  0  0  0  0  0  0  0
   -1.5034   23.8340  -30.2423 H   0  0  0  0  0  0  0  0  0  0  0  0
    1.5159   21.5796  -28.3263 H   0  0  0  0  0  0  0  0  0  0  0  0
    1.8940   19.1464  -28.7160 H   0  0  0  0  0  0  0  0  0  0  0  0
    0.3393   16.5810  -27.0261 H   0  0  0  0  0  0  0  0  0  0  0  0
   -0.5810   16.6437  -28.5674 H   0  0  0  0  0  0  0  0  0  0  0  0
    1.1917   16.9337  -28.5674 H   0  0  0  0  0  0  0  0  0  0  0  0
   -1.8679   18.2496  -26.7667 H   0  0  0  0  0  0  0  0  0  0  0  0
   -2.2607   20.6877  -26.4054 H   0  0  0  0  0  0  0  0  0  0  0  0
   -0.2210   22.5900  -25.1310 H   0  0  0  0  0  0  0  0  0  0  0  0
   -0.2368   24.3724  -23.5272 H   0  0  0  0  0  0  0  0  0  0  0  0
   -0.6157   26.7927  -23.0522 H   0  0  0  0  0  0  0  0  0  0  0  0
   -1.2894   28.3395  -24.8888 H   0  0  0  0  0  0  0  0  0  0  0  0
   -1.5945   27.4723  -27.2087 H   0  0  0  0  0  0  0  0  0  0  0  0
   -4.4636   20.9845  -31.0601 H   0  0  0  0  0  0  0  0  0  0  0  0
  1  2  1  0
  2  3  1  0
  3  4  1  0
  4  5  1  0
  5  6  1  0
  6  7  2  0
  6  8  1  0
  8  9  1  0
  9 10  2  0
 10 11  1  0
 11 12  2  0
 12 13  1  0
 13 14  1  0
 14 15  1  0
 15 16  1  0
 16 17  1  0
 17 18  2  0
 18 19  1  0
 19 20  2  0
 20 21  1  0
 20 22  1  0
 22 23  2  0
 16 24  2  0
 24 25  1  0
 25 26  2  0
 26 27  1  0
 27 28  2  0
 28 29  1  0
 29 30  2  0
 30 31  1  0
 31 32  2  0
 12 33  1  0
 33 34  2  0
 34  5  1  0
 34  9  1  0
 31 15  1  0
 23 17  1  0
 30 25  1  0
  1 35  1  0
  1 36  1  0
  1 37  1  0
  2 38  1  0
  2 39  1  0
  3 40  1  0
  3 41  1  0
  4 42  1  0
  4 43  1  0
 10 44  1  0
 11 45  1  0
 13 46  1  0
 13 47  1  0
 14 48  1  0
 14 49  1  0
 18 50  1  0
 19 51  1  0
 21 52  1  0
 21 53  1  0
 21 54  1  0
 22 55  1  0
 23 56  1  0
 24 57  1  0
 26 58  1  0
 27 59  1  0
 28 60  1  0
 29 61  1  0
 33 62  1  0
M  CHG  1  24   1
M  END
>  <UniqueID>  (40) 
39

>  <SMILES>  (40) 
CCCCn1c(=O)oc2ccc(CCn3c(-c4ccc(C)cc4)[nH+]c4ccccc4c3=O)cc21

>  <Energy>  (40) 
111.7973214737443

>  <Genealogy>  (40) 
CCCCn1c(=O)oc2ccc(CCn3c(-c4ccc(C)cc4)[nH+]c4ccccc4c3=O)cc21 (protonated)
CCCCn1c(=O)oc2ccc(CCn3c(-c4ccc(C)cc4)[nH+]c4ccccc4c3=O)cc21 (3D coordinates assigned)
CCCCn1c(=O)oc2ccc(CCn3c(-c4ccc(C)cc4)[nH+]c4ccccc4c3=O)cc21 (optimized conformer: 111.7973214737443 kcal/mol)

>  <smiles>  (40) 
CCCCn1c(=O)oc2ccc(CCn3c(-c4ccc(C)cc4)nc4ccccc4c3=O)cc21

>  <score_type>  (40) 
oracle

>  <origin>  (40) 
adg

>  <m_score__min__energy>  (40) 
-9.4199999999999999

>  <m_primary>  (40) 
energy

$$$$
40:0
     RDKit          3D

 42 44  0  0  0  0  0  0  0  0999 V2000
   -3.9120   25.3010  -30.8060 O   0  0  0  0  0  0  0  0  0  0  0  0
   -4.0420   24.1100  -30.4120 C   0  0  0  0  0  0  0  0  0  0  0  0
   -4.9910   23.2180  -31.1590 C   0  0  0  0  0  0  0  0  0  0  0  0
   -6.3100   23.4960  -30.7340 O   0  0  0  0  0  0  0  0  0  0  0  0
   -7.2220   23.3350  -31.8030 C   0  0  0  0  0  0  0  0  0  0  0  0
   -7.5640   21.8800  -31.9720 C   0  0  0  0  0  0  0  0  0  0  0  0
   -6.7160   21.0430  -32.7170 C   0  0  0  0  0  0  0  0  0  0  0  0
   -7.0580   19.7050  -32.9300 C   0  0  0  0  0  0  0  0  0  0  0  0
   -8.2480   19.1940  -32.4070 C   0  0  0  0  0  0  0  0  0  0  0  0
   -9.1000   20.0210  -31.6680 C   0  0  0  0  0  0  0  0  0  0  0  0
   -8.7610   21.3610  -31.4540 C   0  0  0  0  0  0  0  0  0  0  0  0
   -3.3120   23.6590  -29.2450 N   0  0  0  0  0  0  0  0  0  0  0  0
   -3.8900   23.7090  -27.8900 C   0  0  0  0  0  0  0  0  0  0  0  0
   -2.8850   24.2810  -26.8770 C   0  0  0  0  0  0  0  0  0  0  0  0
   -1.4220   23.8780  -27.1530 C   0  0  0  0  0  0  0  0  0  0  0  0
   -1.2970   22.6790  -28.1130 C   0  0  1  0  0  0  0  0  0  0  0  0
   -1.8450   21.4510  -27.5170 N   0  0  0  0  0  0  0  0  0  0  0  0
   -1.2360   20.7610  -26.5620 N   0  0  0  0  0  0  0  0  0  0  0  0
   -1.9880   19.6650  -26.3510 C   0  0  0  0  0  0  0  0  0  0  0  0
   -3.0500   19.7110  -27.2250 C   0  0  0  0  0  0  0  0  0  0  0  0
   -2.9330   20.8330  -27.9560 N   0  0  0  0  0  0  0  0  0  0  0  0
   -1.9910   23.0380  -29.4460 C   0  0  0  0  0  0  0  0  0  0  0  0
   -4.9033   23.4074  -32.2390 H   0  0  0  0  0  0  0  0  0  0  0  0
   -4.7487   22.1640  -30.9580 H   0  0  0  0  0  0  0  0  0  0  0  0
   -8.1395   23.9024  -31.5878 H   0  0  0  0  0  0  0  0  0  0  0  0
   -6.7618   23.7080  -32.7299 H   0  0  0  0  0  0  0  0  0  0  0  0
   -5.7797   21.4425  -33.1339 H   0  0  0  0  0  0  0  0  0  0  0  0
   -6.3888   19.0530  -33.5106 H   0  0  0  0  0  0  0  0  0  0  0  0
   -8.5152   18.1405  -32.5764 H   0  0  0  0  0  0  0  0  0  0  0  0
  -10.0365   19.6177  -31.2552 H   0  0  0  0  0  0  0  0  0  0  0  0
   -9.4354   22.0110  -30.8772 H   0  0  0  0  0  0  0  0  0  0  0  0
   -4.7860   24.3469  -27.9056 H   0  0  0  0  0  0  0  0  0  0  0  0
   -4.1481   22.6845  -27.5837 H   0  0  0  0  0  0  0  0  0  0  0  0
   -2.9529   25.3786  -26.9037 H   0  0  0  0  0  0  0  0  0  0  0  0
   -3.1508   23.8654  -25.8938 H   0  0  0  0  0  0  0  0  0  0  0  0
   -0.8996   24.7382  -27.5971 H   0  0  0  0  0  0  0  0  0  0  0  0
   -0.9774   23.5776  -26.1928 H   0  0  0  0  0  0  0  0  0  0  0  0
   -0.2343   22.4724  -28.3077 H   0  0  0  0  0  0  0  0  0  0  0  0
   -1.7894   18.8743  -25.6125 H   0  0  0  0  0  0  0  0  0  0  0  0
   -3.8519   18.9628  -27.3102 H   0  0  0  0  0  0  0  0  0  0  0  0
   -1.3509   23.7414  -29.9987 H   0  0  0  0  0  0  0  0  0  0  0  0
   -2.1427   22.1035  -30.0061 H   0  0  0  0  0  0  0  0  0  0  0  0
  1  2  2  0
  2  3  1  0
  3  4  1  0
  4  5  1  0
  5  6  1  0
  6  7  2  0
  7  8  1  0
  8  9  2  0
  9 10  1  0
 10 11  2  0
  2 12  1  0
 12 13  1  0
 13 14  1  0
 14 15  1  0
 15 16  1  0
 16 17  1  0
 17 18  1  0
 18 19  2  0
 19 20  1  0
 20 21  2  0
 16 22  1  0
 11  6  1  0
 22 12  1  0
 21 17  1  0
  3 23  1  0
  3 24  1  0
  5 25  1  0
  5 26  1  0
  7 27  1  0
  8 28  1  0
  9 29  1  0
 10 30  1  0
 11 31  1  0
 13 32  1  0
 13 33  1  0
 14 34  1  0
 14 35  1  0
 15 36  1  0
 15 37  1  0
 16 38  1  6
 19 39  1  0
 20 40  1  0
 22 41  1  0
 22 42  1  0
M  END
>  <UniqueID>  (41) 
40

>  <SMILES>  (41) 
O=C(COCc1ccccc1)N1CCC[C@@H](n2nccn2)C1

>  <Energy>  (41) 
80.15349677591841

>  <Genealogy>  (41) 
O=C(COCc1ccccc1)N1CCC[C@@H](n2nccn2)C1 (chirality)
O=C(COCc1ccccc1)N1CCC[C@@H](n2nccn2)C1 (3D coordinates assigned)
O=C(COCc1ccccc1)N1CCC[C@@H](n2nccn2)C1 (nonaromatic ring conformer: 80.15349677591841 kcal/mol)

>  <smiles>  (41) 
O=C(COCc1ccccc1)N1CCCC(n2nccn2)C1

>  <score_type>  (41) 
oracle

>  <origin>  (41) 
adg

>  <m_score__min__energy>  (41) 
-7.8499999999999996

>  <m_primary>  (41) 
energy

$$$$
41:0
     RDKit          3D

 40 42  0  0  0  0  0  0  0  0999 V2000
   -8.7420   19.2580  -31.9710 C   0  0  0  0  0  0  0  0  0  0  0  0
   -8.5980   20.5740  -32.1570 C   0  0  0  0  0  0  0  0  0  0  0  0
   -7.2630   21.1890  -32.4960 C   0  0  0  0  0  0  0  0  0  0  0  0
   -7.3550   22.6520  -32.6370 N   0  0  0  0  0  0  0  0  0  0  0  0
   -7.5240   23.3540  -31.3540 C   0  0  0  0  0  0  0  0  0  0  0  0
   -6.2100   23.5820  -30.6460 C   0  0  0  0  0  0  0  0  0  0  0  0
   -5.7800   22.6920  -29.6520 C   0  0  0  0  0  0  0  0  0  0  0  0
   -4.5810   22.9170  -28.9700 C   0  0  0  0  0  0  0  0  0  0  0  0
   -3.7860   24.0400  -29.2720 C   0  0  0  0  0  0  0  0  0  0  0  0
   -2.5120   24.3090  -28.5530 C   0  0  0  0  0  0  0  0  0  0  0  0
   -1.2660   23.8070  -28.9410 C   0  0  0  0  0  0  0  0  0  0  0  0
   -0.1190   24.3720  -27.8500 S   0  0  0  0  0  0  0  0  0  0  0  0
   -1.2360   25.2310  -26.9280 C   0  0  0  0  0  0  0  0  0  0  0  0
   -0.9330   26.0330  -25.7220 C   0  0  0  0  0  0  0  0  0  0  0  0
   -0.8070   27.4310  -25.7920 C   0  0  0  0  0  0  0  0  0  0  0  0
   -0.5200   28.1600  -24.6360 C   0  0  0  0  0  0  0  0  0  0  0  0
   -0.3630   27.5220  -23.4450 N   0  0  0  0  0  0  0  0  0  0  0  0
   -0.4810   26.1710  -23.3460 C   0  0  0  0  0  0  0  0  0  0  0  0
   -0.7660   25.4040  -24.4770 C   0  0  0  0  0  0  0  0  0  0  0  0
   -2.4790   25.0970  -27.4410 N   0  0  0  0  0  0  0  0  0  0  0  0
   -4.2240   24.9280  -30.2710 C   0  0  0  0  0  0  0  0  0  0  0  0
   -5.4220   24.6990  -30.9530 C   0  0  0  0  0  0  0  0  0  0  0  0
   -9.7302   18.8422  -31.7248 H   0  0  0  0  0  0  0  0  0  0  0  0
   -7.8723   18.5910  -32.0642 H   0  0  0  0  0  0  0  0  0  0  0  0
   -9.4780   21.2269  -32.0601 H   0  0  0  0  0  0  0  0  0  0  0  0
   -6.5482   20.9528  -31.6940 H   0  0  0  0  0  0  0  0  0  0  0  0
   -6.9293   20.7730  -33.4581 H   0  0  0  0  0  0  0  0  0  0  0  0
   -6.5300   23.0350  -33.1580 H   0  0  0  0  0  0  0  0  0  0  0  0
   -7.9968   24.3288  -31.5442 H   0  0  0  0  0  0  0  0  0  0  0  0
   -8.1495   22.7227  -30.7058 H   0  0  0  0  0  0  0  0  0  0  0  0
   -6.3905   21.8104  -29.4071 H   0  0  0  0  0  0  0  0  0  0  0  0
   -4.2555   22.2116  -28.1912 H   0  0  0  0  0  0  0  0  0  0  0  0
   -1.0709   23.1573  -29.8069 H   0  0  0  0  0  0  0  0  0  0  0  0
   -0.9340   27.9491  -26.7540 H   0  0  0  0  0  0  0  0  0  0  0  0
   -0.4205   29.2542  -24.6888 H   0  0  0  0  0  0  0  0  0  0  0  0
   -0.1500   28.0820  -22.5890 H   0  0  0  0  0  0  0  0  0  0  0  0
   -0.3513   25.6802  -22.3702 H   0  0  0  0  0  0  0  0  0  0  0  0
   -0.8595   24.3111  -24.3937 H   0  0  0  0  0  0  0  0  0  0  0  0
   -3.6173   25.8117  -30.5179 H   0  0  0  0  0  0  0  0  0  0  0  0
   -5.7483   25.3999  -31.7355 H   0  0  0  0  0  0  0  0  0  0  0  0
  1  2  2  0
  2  3  1  0
  3  4  1  0
  4  5  1  0
  5  6  1  0
  6  7  2  0
  7  8  1  0
  8  9  2  0
  9 10  1  0
 10 11  2  0
 11 12  1  0
 12 13  1  0
 13 14  1  0
 14 15  2  0
 15 16  1  0
 16 17  2  0
 17 18  1  0
 18 19  2  0
 13 20  2  0
  9 21  1  0
 21 22  2  0
 22  6  1  0
 20 10  1  0
 19 14  1  0
  1 23  1  0
  1 24  1  0
  2 25  1  0
  3 26  1  0
  3 27  1  0
  4 28  1  0
  5 29  1  0
  5 30  1  0
  7 31  1  0
  8 32  1  0
 11 33  1  0
 15 34  1  0
 16 35  1  0
 17 36  1  0
 18 37  1  0
 19 38  1  0
 21 39  1  0
 22 40  1  0
M  CHG  1  17   1
M  END
>  <UniqueID>  (42) 
41

>  <SMILES>  (42) 
C=CCNCc1ccc(-c2csc(-c3cc[nH+]cc3)n2)cc1

>  <Energy>  (42) 
73.718909650183

>  <Genealogy>  (42) 
C=CCNCc1ccc(-c2csc(-c3cc[nH+]cc3)n2)cc1 (protonated)
C=CCNCc1ccc(-c2csc(-c3cc[nH+]cc3)n2)cc1 (3D coordinates assigned)
C=CCNCc1ccc(-c2csc(-c3cc[nH+]cc3)n2)cc1 (optimized conformer: 73.718909650183 kcal/mol)

>  <smiles>  (42) 
C=CCNCc1ccc(-c2csc(-c3ccncc3)n2)cc1

>  <score_type>  (42) 
oracle

>  <origin>  (42) 
adg

>  <m_score__min__energy>  (42) 
-7.6699999999999999

>  <m_primary>  (42) 
energy

$$$$
42:0
     RDKit          3D

 56 58  0  0  0  0  0  0  0  0999 V2000
   -8.5860   18.9950  -31.8140 C   0  0  0  0  0  0  0  0  0  0  0  0
   -8.8590   20.2550  -32.6370 C   0  0  0  0  0  0  0  0  0  0  0  0
   -9.8110   21.2310  -31.9290 C   0  0  0  0  0  0  0  0  0  0  0  0
   -9.3430   22.6900  -32.0310 C   0  0  0  0  0  0  0  0  0  0  0  0
   -7.9340   22.8270  -31.5210 C   0  0  0  0  0  0  0  0  0  0  0  0
   -7.6190   22.4530  -30.2040 C   0  0  0  0  0  0  0  0  0  0  0  0
   -6.3180   22.6120  -29.7170 C   0  0  0  0  0  0  0  0  0  0  0  0
   -5.3200   23.1660  -30.5340 C   0  0  0  0  0  0  0  0  0  0  0  0
   -3.9400   23.3150  -30.0230 C   0  0  0  0  0  0  0  0  0  0  0  0
   -2.8860   22.8630  -30.8270 C   0  0  0  0  0  0  0  0  0  0  0  0
   -1.5630   23.0170  -30.4220 C   0  0  0  0  0  0  0  0  0  0  0  0
   -1.2500   23.6320  -29.2020 C   0  0  0  0  0  0  0  0  0  0  0  0
    0.1260   23.7480  -28.7920 N   0  0  0  0  0  0  0  0  0  0  0  0
    0.6620   23.0670  -27.6130 C   0  0  0  0  0  0  0  0  0  0  0  0
    1.6550   23.9640  -26.8560 C   0  0  0  0  0  0  0  0  0  0  0  0
    1.8260   25.2780  -27.5160 N   0  0  0  0  0  0  0  0  0  0  0  0
    3.2590   25.5440  -27.7280 C   0  0  0  0  0  0  0  0  0  0  0  0
    1.2420   26.3670  -26.7110 C   0  0  0  0  0  0  0  0  0  0  0  0
   -2.3010   24.0880  -28.3680 C   0  0  0  0  0  0  0  0  0  0  0  0
   -2.0440   24.7300  -27.1420 C   0  0  0  0  0  0  0  0  0  0  0  0
   -3.0980   25.1490  -26.3330 C   0  0  0  0  0  0  0  0  0  0  0  0
   -4.4070   24.9270  -26.7430 C   0  0  0  0  0  0  0  0  0  0  0  0
   -4.6620   24.3220  -27.9340 N   0  0  0  0  0  0  0  0  0  0  0  0
   -3.6550   23.9170  -28.7710 C   0  0  0  0  0  0  0  0  0  0  0  0
   -5.6350   23.5390  -31.8500 C   0  0  0  0  0  0  0  0  0  0  0  0
   -6.9350   23.3800  -32.3360 C   0  0  0  0  0  0  0  0  0  0  0  0
   -8.6387   19.2383  -30.7425 H   0  0  0  0  0  0  0  0  0  0  0  0
   -9.3393   18.2301  -32.0538 H   0  0  0  0  0  0  0  0  0  0  0  0
   -7.5837   18.6104  -32.0538 H   0  0  0  0  0  0  0  0  0  0  0  0
   -7.9037   20.7677  -32.8229 H   0  0  0  0  0  0  0  0  0  0  0  0
   -9.3416   19.9414  -33.5744 H   0  0  0  0  0  0  0  0  0  0  0  0
  -10.8070   21.1474  -32.3884 H   0  0  0  0  0  0  0  0  0  0  0  0
   -9.8324   20.9615  -30.8627 H   0  0  0  0  0  0  0  0  0  0  0  0
   -9.3802   23.0096  -33.0829 H   0  0  0  0  0  0  0  0  0  0  0  0
  -10.0059   23.3204  -31.4201 H   0  0  0  0  0  0  0  0  0  0  0  0
   -8.3997   22.0330  -29.5527 H   0  0  0  0  0  0  0  0  0  0  0  0
   -6.0757   22.3018  -28.6898 H   0  0  0  0  0  0  0  0  0  0  0  0
   -3.1063   22.3803  -31.7905 H   0  0  0  0  0  0  0  0  0  0  0  0
   -0.7519   22.6509  -31.0685 H   0  0  0  0  0  0  0  0  0  0  0  0
    0.7190   24.4790  -29.2460 H   0  0  0  0  0  0  0  0  0  0  0  0
   -0.1688   22.8050  -26.9414 H   0  0  0  0  0  0  0  0  0  0  0  0
    1.1928   22.1624  -27.9446 H   0  0  0  0  0  0  0  0  0  0  0  0
    1.2809   24.1253  -25.8342 H   0  0  0  0  0  0  0  0  0  0  0  0
    2.6317   23.4581  -26.8455 H   0  0  0  0  0  0  0  0  0  0  0  0
    3.7625   25.6375  -26.7545 H   0  0  0  0  0  0  0  0  0  0  0  0
    3.7063   24.7135  -28.2939 H   0  0  0  0  0  0  0  0  0  0  0  0
    3.3785   26.4797  -28.2939 H   0  0  0  0  0  0  0  0  0  0  0  0
    1.3643   26.1389  -25.6419 H   0  0  0  0  0  0  0  0  0  0  0  0
    1.7545   27.3117  -26.9453 H   0  0  0  0  0  0  0  0  0  0  0  0
    0.1715   26.4627  -26.9453 H   0  0  0  0  0  0  0  0  0  0  0  0
   -1.0060   24.9017  -26.8211 H   0  0  0  0  0  0  0  0  0  0  0  0
   -2.8953   25.6522  -25.3761 H   0  0  0  0  0  0  0  0  0  0  0  0
   -5.2421   25.2425  -26.1003 H   0  0  0  0  0  0  0  0  0  0  0  0
   -5.6640   24.1670  -28.1780 H   0  0  0  0  0  0  0  0  0  0  0  0
   -4.8545   23.9585  -32.5017 H   0  0  0  0  0  0  0  0  0  0  0  0
   -7.1767   23.6901  -33.3633 H   0  0  0  0  0  0  0  0  0  0  0  0
  1  2  1  0
  2  3  1  0
  3  4  1  0
  4  5  1  0
  5  6  2  0
  6  7  1  0
  7  8  2  0
  8  9  1  0
  9 10  2  0
 10 11  1  0
 11 12  2  0
 12 13  1  0
 13 14  1  0
 14 15  1  0
 15 16  1  0
 16 17  1  0
 16 18  1  0
 12 19  1  0
 19 20  2  0
 20 21  1  0
 21 22  2  0
 22 23  1  0
 23 24  2  0
  8 25  1  0
 25 26  2  0
 26  5  1  0
 24  9  1  0
 24 19  1  0
  1 27  1  0
  1 28  1  0
  1 29  1  0
  2 30  1  0
  2 31  1  0
  3 32  1  0
  3 33  1  0
  4 34  1  0
  4 35  1  0
  6 36  1  0
  7 37  1  0
 10 38  1  0
 11 39  1  0
 13 40  1  0
 14 41  1  0
 14 42  1  0
 15 43  1  0
 15 44  1  0
 17 45  1  0
 17 46  1  0
 17 47  1  0
 18 48  1  0
 18 49  1  0
 18 50  1  0
 20 51  1  0
 21 52  1  0
 22 53  1  0
 23 54  1  0
 25 55  1  0
 26 56  1  0
M  CHG  1  23   1
M  END
>  <UniqueID>  (43) 
42

>  <SMILES>  (43) 
CCCCc1ccc(-c2ccc(NCCN(C)C)c3ccc[nH+]c23)cc1

>  <Energy>  (43) 
66.1176003382563

>  <Genealogy>  (43) 
CCCCc1ccc(-c2ccc(NCCN(C)C)c3ccc[nH+]c23)cc1 (protonated)
CCCCc1ccc(-c2ccc(NCCN(C)C)c3ccc[nH+]c23)cc1 (3D coordinates assigned)
CCCCc1ccc(-c2ccc(NCCN(C)C)c3ccc[nH+]c23)cc1 (optimized conformer: 66.1176003382563 kcal/mol)

>  <smiles>  (43) 
CCCCc1ccc(-c2ccc(NCCN(C)C)c3cccnc23)cc1

>  <score_type>  (43) 
oracle

>  <origin>  (43) 
adg

>  <m_score__min__energy>  (43) 
-7.9699999999999998

>  <m_primary>  (43) 
energy

$$$$
43:0
     RDKit          3D

 54 56  0  0  0  0  0  0  0  0999 V2000
   -9.0520   18.5430  -31.4910 C   0  0  0  0  0  0  0  0  0  0  0  0
   -7.6360   18.6590  -31.3860 O   0  0  0  0  0  0  0  0  0  0  0  0
   -6.7410   18.5070  -32.4570 C   0  0  0  0  0  0  0  0  0  0  0  0
   -6.6810   17.3220  -33.2190 C   0  0  0  0  0  0  0  0  0  0  0  0
   -5.7560   17.1990  -34.2600 C   0  0  0  0  0  0  0  0  0  0  0  0
   -4.8830   18.2490  -34.5510 C   0  0  0  0  0  0  0  0  0  0  0  0
   -4.9380   19.4300  -33.8070 C   0  0  0  0  0  0  0  0  0  0  0  0
   -5.8680   19.5670  -32.7670 C   0  0  0  0  0  0  0  0  0  0  0  0
   -5.9130   20.7900  -32.0170 N   0  0  0  0  0  0  0  0  0  0  0  0
   -7.1730   21.2130  -31.4000 C   0  0  0  0  0  0  0  0  0  0  0  0
   -6.9770   22.5040  -30.6060 C   0  0  0  0  0  0  0  0  0  0  0  0
   -6.2500   23.4780  -31.4380 N   0  0  0  0  0  0  0  0  0  0  0  0
   -6.2780   24.8590  -30.9060 C   0  0  0  0  0  0  0  0  0  0  0  0
   -5.0330   25.2420  -30.0550 C   0  0  2  0  0  0  0  0  0  0  0  0
   -3.9690   25.6750  -30.8670 O   0  0  0  0  0  0  0  0  0  0  0  0
   -4.5810   24.0750  -29.1640 C   0  0  0  0  0  0  0  0  0  0  0  0
   -3.1760   23.8690  -29.2870 O   0  0  0  0  0  0  0  0  0  0  0  0
   -2.5440   22.6200  -29.1940 C   0  0  0  0  0  0  0  0  0  0  0  0
   -1.5700   22.1960  -30.1190 C   0  0  0  0  0  0  0  0  0  0  0  0
   -0.9700   20.9400  -29.9820 C   0  0  0  0  0  0  0  0  0  0  0  0
   -1.3280   20.1010  -28.9250 C   0  0  0  0  0  0  0  0  0  0  0  0
   -2.2870   20.5160  -27.9880 C   0  0  0  0  0  0  0  0  0  0  0  0
   -2.7080   19.5970  -26.8780 C   0  0  0  0  0  0  0  0  0  0  0  0
   -2.9020   21.7700  -28.1390 C   0  0  0  0  0  0  0  0  0  0  0  0
   -4.8940   23.0410  -31.8600 C   0  0  0  0  0  0  0  0  0  0  0  0
   -4.6710   21.5220  -31.7510 C   0  0  0  0  0  0  0  0  0  0  0  0
   -9.4926   18.5069  -30.4838 H   0  0  0  0  0  0  0  0  0  0  0  0
   -9.4517   19.4114  -32.0352 H   0  0  0  0  0  0  0  0  0  0  0  0
   -9.3050   17.6211  -32.0352 H   0  0  0  0  0  0  0  0  0  0  0  0
   -7.3651   16.4907  -32.9933 H   0  0  0  0  0  0  0  0  0  0  0  0
   -5.7159   16.2724  -34.8514 H   0  0  0  0  0  0  0  0  0  0  0  0
   -4.1517   18.1463  -35.3663 H   0  0  0  0  0  0  0  0  0  0  0  0
   -4.2489   20.2557  -34.0381 H   0  0  0  0  0  0  0  0  0  0  0  0
   -7.9218   21.3833  -32.1876 H   0  0  0  0  0  0  0  0  0  0  0  0
   -7.5144   20.4236  -30.7142 H   0  0  0  0  0  0  0  0  0  0  0  0
   -7.9577   22.9173  -30.3276 H   0  0  0  0  0  0  0  0  0  0  0  0
   -6.3996   22.2931  -29.6938 H   0  0  0  0  0  0  0  0  0  0  0  0
   -6.3417   25.5545  -31.7559 H   0  0  0  0  0  0  0  0  0  0  0  0
   -7.1487   24.9214  -30.2367 H   0  0  0  0  0  0  0  0  0  0  0  0
   -5.3325   26.0767  -29.4042 H   0  0  0  0  0  0  0  0  0  0  0  0
   -3.4880   24.8700  -31.1980 H   0  0  0  0  0  0  0  0  0  0  0  0
   -4.8229   24.3049  -28.1158 H   0  0  0  0  0  0  0  0  0  0  0  0
   -5.1040   23.1610  -29.4819 H   0  0  0  0  0  0  0  0  0  0  0  0
   -1.2805   22.8544  -30.9513 H   0  0  0  0  0  0  0  0  0  0  0  0
   -0.2132   20.6120  -30.7098 H   0  0  0  0  0  0  0  0  0  0  0  0
   -0.8571   19.1118  -28.8263 H   0  0  0  0  0  0  0  0  0  0  0  0
   -2.4915   20.0697  -25.9086 H   0  0  0  0  0  0  0  0  0  0  0  0
   -3.7870   19.3981  -26.9560 H   0  0  0  0  0  0  0  0  0  0  0  0
   -2.1540   18.6499  -26.9560 H   0  0  0  0  0  0  0  0  0  0  0  0
   -3.6727   22.0880  -27.4215 H   0  0  0  0  0  0  0  0  0  0  0  0
   -4.7435   23.3397  -32.9079 H   0  0  0  0  0  0  0  0  0  0  0  0
   -4.1755   23.5208  -31.1791 H   0  0  0  0  0  0  0  0  0  0  0  0
   -3.9091   21.2165  -32.4833 H   0  0  0  0  0  0  0  0  0  0  0  0
   -4.3376   21.2884  -30.7291 H   0  0  0  0  0  0  0  0  0  0  0  0
  1  2  1  0
  2  3  1  0
  3  4  2  0
  4  5  1  0
  5  6  2  0
  6  7  1  0
  7  8  2  0
  8  9  1  0
  9 10  1  0
 10 11  1  0
 11 12  1  0
 12 13  1  0
 13 14  1  0
 14 15  1  0
 14 16  1  0
 16 17  1  0
 17 18  1  0
 18 19  2  0
 19 20  1  0
 20 21  2  0
 21 22  1  0
 22 23  1  0
 22 24  2  0
 12 25  1  0
 25 26  1  0
  8  3  1  0
 26  9  1  0
 24 18  1  0
  1 27  1  0
  1 28  1  0
  1 29  1  0
  4 30  1  0
  5 31  1  0
  6 32  1  0
  7 33  1  0
 10 34  1  0
 10 35  1  0
 11 36  1  0
 11 37  1  0
 13 38  1  0
 13 39  1  0
 14 40  1  1
 15 41  1  0
 16 42  1  0
 16 43  1  0
 19 44  1  0
 20 45  1  0
 21 46  1  0
 23 47  1  0
 23 48  1  0
 23 49  1  0
 24 50  1  0
 25 51  1  0
 25 52  1  0
 26 53  1  0
 26 54  1  0
M  END
>  <UniqueID>  (44) 
43

>  <SMILES>  (44) 
COc1ccccc1N1CCN(C[C@H](O)COc2cccc(C)c2)CC1

>  <Energy>  (44) 
66.65317749907283

>  <Genealogy>  (44) 
COc1ccccc1N1CCN(C[C@H](O)COc2cccc(C)c2)CC1 (chirality)
COc1ccccc1N1CCN(C[C@H](O)COc2cccc(C)c2)CC1 (3D coordinates assigned)
COc1ccccc1N1CCN(C[C@H](O)COc2cccc(C)c2)CC1 (nonaromatic ring conformer: 66.65317749907283 kcal/mol)

>  <smiles>  (44) 
COc1ccccc1N1CCN(CC(O)COc2cccc(C)c2)CC1

>  <score_type>  (44) 
oracle

>  <origin>  (44) 
adg

>  <m_score__min__energy>  (44) 
-8.5099999999999998

>  <m_primary>  (44) 
energy

$$$$
44:0
     RDKit          3D

 74 76  0  0  0  0  0  0  0  0999 V2000
   -8.5030   22.9390  -31.9070 C   0  0  0  0  0  0  0  0  0  0  0  0
   -8.5960   21.5280  -31.3300 C   0  0  0  0  0  0  0  0  0  0  0  0
   -8.3800   20.5240  -32.3980 N   0  0  0  0  0  0  0  0  0  0  0  0
   -9.4710   19.5220  -32.4230 C   0  0  0  0  0  0  0  0  0  0  0  0
   -9.0730   18.2860  -31.6200 C   0  0  0  0  0  0  0  0  0  0  0  0
   -7.0560   19.8720  -32.2620 C   0  0  0  0  0  0  0  0  0  0  0  0
   -6.1560   20.2200  -33.4560 C   0  0  0  0  0  0  0  0  0  0  0  0
   -4.8680   20.9240  -33.0100 C   0  0  0  0  0  0  0  0  0  0  0  0
   -5.1210   22.3340  -32.7020 N   0  0  0  0  0  0  0  0  0  0  0  0
   -4.6620   22.9680  -31.4920 C   0  0  0  0  0  0  0  0  0  0  0  0
   -5.4300   23.9470  -30.8310 C   0  0  0  0  0  0  0  0  0  0  0  0
   -4.9610   24.5460  -29.6580 C   0  0  0  0  0  0  0  0  0  0  0  0
   -3.7170   24.1760  -29.1280 C   0  0  0  0  0  0  0  0  0  0  0  0
   -3.2370   24.7580  -27.9930 N   0  0  0  0  0  0  0  0  0  0  0  0
   -2.0240   24.4070  -27.4760 C   0  0  0  0  0  0  0  0  0  0  0  0
   -1.5170   25.1240  -26.2900 C   0  0  0  0  0  0  0  0  0  0  0  0
   -1.6060   26.5230  -26.2300 C   0  0  0  0  0  0  0  0  0  0  0  0
   -1.1280   27.2120  -25.1110 C   0  0  0  0  0  0  0  0  0  0  0  0
   -0.5640   26.5070  -24.0450 C   0  0  0  0  0  0  0  0  0  0  0  0
   -0.4860   25.1120  -24.0910 C   0  0  0  0  0  0  0  0  0  0  0  0
   -0.9610   24.4200  -25.2090 C   0  0  0  0  0  0  0  0  0  0  0  0
   -1.2480   23.4260  -28.1390 C   0  0  0  0  0  0  0  0  0  0  0  0
    0.1640   23.0960  -27.7250 C   0  0  0  0  0  0  0  0  0  0  0  0
    0.2350   21.7650  -27.0970 N   0  0  0  0  0  0  0  0  0  0  0  0
    0.8560   20.7550  -27.9750 C   0  0  0  0  0  0  0  0  0  0  0  0
   -0.2260   19.8650  -28.6000 C   0  0  0  0  0  0  0  0  0  0  0  0
   -0.9470   19.0230  -27.5280 C   0  0  0  0  0  0  0  0  0  0  0  0
   -2.0550   19.7300  -26.8440 N   0  0  0  0  0  0  0  0  0  0  0  0
   -2.8480   18.8470  -25.9730 C   0  0  0  0  0  0  0  0  0  0  0  0
   -2.9200   20.4750  -27.7750 C   0  0  0  0  0  0  0  0  0  0  0  0
   -1.7370   22.8560  -29.2740 N   0  0  0  0  0  0  0  0  0  0  0  0
   -2.9470   23.1980  -29.7820 C   0  0  0  0  0  0  0  0  0  0  0  0
   -3.4160   22.6020  -30.9570 C   0  0  0  0  0  0  0  0  0  0  0  0
   -8.4549   23.6687  -31.0853 H   0  0  0  0  0  0  0  0  0  0  0  0
   -7.5974   23.0232  -32.5256 H   0  0  0  0  0  0  0  0  0  0  0  0
   -9.3898   23.1413  -32.5256 H   0  0  0  0  0  0  0  0  0  0  0  0
   -7.8285   21.4021  -30.5521 H   0  0  0  0  0  0  0  0  0  0  0  0
   -9.5966   21.3822  -30.8969 H   0  0  0  0  0  0  0  0  0  0  0  0
  -10.3787   19.9627  -31.9849 H   0  0  0  0  0  0  0  0  0  0  0  0
   -9.6614   19.2259  -33.4652 H   0  0  0  0  0  0  0  0  0  0  0  0
   -9.1446   18.5084  -30.5451 H   0  0  0  0  0  0  0  0  0  0  0  0
   -9.7487   17.4543  -31.8682 H   0  0  0  0  0  0  0  0  0  0  0  0
   -8.0389   18.0048  -31.8682 H   0  0  0  0  0  0  0  0  0  0  0  0
   -6.5762   20.2184  -31.3348 H   0  0  0  0  0  0  0  0  0  0  0  0
   -7.1994   18.7818  -32.2325 H   0  0  0  0  0  0  0  0  0  0  0  0
   -5.8906   19.2925  -33.9845 H   0  0  0  0  0  0  0  0  0  0  0  0
   -6.7102   20.9046  -34.1149 H   0  0  0  0  0  0  0  0  0  0  0  0
   -4.4771   20.4239  -32.1116 H   0  0  0  0  0  0  0  0  0  0  0  0
   -4.1366   20.8697  -33.8298 H   0  0  0  0  0  0  0  0  0  0  0  0
   -5.6400   22.9160  -33.3970 H   0  0  0  0  0  0  0  0  0  0  0  0
   -6.4069   24.2425  -31.2413 H   0  0  0  0  0  0  0  0  0  0  0  0
   -5.5692   25.3090  -29.1501 H   0  0  0  0  0  0  0  0  0  0  0  0
   -3.8030   25.4930  -27.5110 H   0  0  0  0  0  0  0  0  0  0  0  0
   -2.0535   27.0799  -27.0664 H   0  0  0  0  0  0  0  0  0  0  0  0
   -1.1961   28.3091  -25.0701 H   0  0  0  0  0  0  0  0  0  0  0  0
   -0.1809   27.0501  -23.1685 H   0  0  0  0  0  0  0  0  0  0  0  0
   -0.0503   24.5581  -23.2464 H   0  0  0  0  0  0  0  0  0  0  0  0
   -0.8993   23.3222  -25.2423 H   0  0  0  0  0  0  0  0  0  0  0  0
    0.8114   23.1088  -28.6142 H   0  0  0  0  0  0  0  0  0  0  0  0
    0.4979   23.8461  -26.9930 H   0  0  0  0  0  0  0  0  0  0  0  0
   -0.7500   21.4650  -26.9030 H   0  0  0  0  0  0  0  0  0  0  0  0
    1.4164   21.2624  -28.7741 H   0  0  0  0  0  0  0  0  0  0  0  0
    1.5376   20.1298  -27.3796 H   0  0  0  0  0  0  0  0  0  0  0  0
   -0.9630   20.5021  -29.1108 H   0  0  0  0  0  0  0  0  0  0  0  0
    0.2567   19.1801  -29.3127 H   0  0  0  0  0  0  0  0  0  0  0  0
   -1.3580   18.1254  -28.0132 H   0  0  0  0  0  0  0  0  0  0  0  0
   -0.1994   18.7861  -26.7567 H   0  0  0  0  0  0  0  0  0  0  0  0
   -2.6355   19.0836  -24.9200 H   0  0  0  0  0  0  0  0  0  0  0  0
   -3.9187   18.9989  -26.1741 H   0  0  0  0  0  0  0  0  0  0  0  0
   -2.5823   17.7987  -26.1741 H   0  0  0  0  0  0  0  0  0  0  0  0
   -3.6319   21.0882  -27.2030 H   0  0  0  0  0  0  0  0  0  0  0  0
   -2.3009   21.1271  -28.4086 H   0  0  0  0  0  0  0  0  0  0  0  0
   -3.4731   19.7660  -28.4086 H   0  0  0  0  0  0  0  0  0  0  0  0
   -2.8051   21.8416  -31.4655 H   0  0  0  0  0  0  0  0  0  0  0  0
  1  2  1  0
  2  3  1  0
  3  4  1  0
  4  5  1  0
  3  6  1  0
  6  7  1  0
  7  8  1  0
  8  9  1  0
  9 10  1  0
 10 11  2  0
 11 12  1  0
 12 13  2  0
 13 14  1  0
 14 15  2  0
 15 16  1  0
 16 17  2  0
 17 18  1  0
 18 19  2  0
 19 20  1  0
 20 21  2  0
 15 22  1  0
 22 23  1  0
 23 24  1  0
 24 25  1  0
 25 26  1  0
 26 27  1  0
 27 28  1  0
 28 29  1  0
 28 30  1  0
 22 31  2  0
 31 32  1  0
 32 33  2  0
 33 10  1  0
 32 13  1  0
 21 16  1  0
  1 34  1  0
  1 35  1  0
  1 36  1  0
  2 37  1  0
  2 38  1  0
  4 39  1  0
  4 40  1  0
  5 41  1  0
  5 42  1  0
  5 43  1  0
  6 44  1  0
  6 45  1  0
  7 46  1  0
  7 47  1  0
  8 48  1  0
  8 49  1  0
  9 50  1  0
 11 51  1  0
 12 52  1  0
 14 53  1  0
 17 54  1  0
 18 55  1  0
 19 56  1  0
 20 57  1  0
 21 58  1  0
 23 59  1  0
 23 60  1  0
 24 61  1  0
 25 62  1  0
 25 63  1  0
 26 64  1  0
 26 65  1  0
 27 66  1  0
 27 67  1  0
 29 68  1  0
 29 69  1  0
 29 70  1  0
 30 71  1  0
 30 72  1  0
 30 73  1  0
 33 74  1  0
M  CHG  1  14   1
M  END
>  <UniqueID>  (45) 
44

>  <SMILES>  (45) 
CCN(CC)CCCNc1ccc2[nH+]c(-c3ccccc3)c(CNCCCN(C)C)nc2c1

>  <Energy>  (45) 
76.49595486723517

>  <Genealogy>  (45) 
CCN(CC)CCCNc1ccc2[nH+]c(-c3ccccc3)c(CNCCCN(C)C)nc2c1 (protonated)
CCN(CC)CCCNc1ccc2[nH+]c(-c3ccccc3)c(CNCCCN(C)C)nc2c1 (3D coordinates assigned)
CCN(CC)CCCNc1ccc2[nH+]c(-c3ccccc3)c(CNCCCN(C)C)nc2c1 (optimized conformer: 76.49595486723517 kcal/mol)

>  <smiles>  (45) 
CCN(CC)CCCNc1ccc2nc(-c3ccccc3)c(CNCCCN(C)C)nc2c1

>  <score_type>  (45) 
oracle

>  <origin>  (45) 
adg

>  <m_score__min__energy>  (45) 
-7.8099999999999996

>  <m_primary>  (45) 
energy

$$$$
45:0
     RDKit          3D

 59 62  0  0  0  0  0  0  0  0999 V2000
   -6.5728   24.7617  -29.2015 H   0  0  0  0  0  0  0  0  0  0  0  0
   -5.9800   24.5090  -30.0930 C   0  0  0  0  0  0  0  0  0  0  0  0
   -4.5050   24.5800  -30.0120 C   0  0  0  0  0  0  0  0  0  0  0  0
   -3.8660   25.2990  -30.8300 O   0  0  0  0  0  0  0  0  0  0  0  0
   -3.7890   23.8650  -28.9840 N   0  0  0  0  0  0  0  0  0  0  0  0
   -2.8180   24.5570  -28.1650 C   0  0  0  0  0  0  0  0  0  0  0  0
   -3.0310   24.8620  -26.8590 N   0  0  0  0  0  0  0  0  0  0  0  0
   -1.9540   25.4840  -26.3140 C   0  0  0  0  0  0  0  0  0  0  0  0
   -1.8860   25.9260  -24.9880 C   0  0  0  0  0  0  0  0  0  0  0  0
   -2.7297   25.7877  -24.2958 H   0  0  0  0  0  0  0  0  0  0  0  0
   -0.6990   26.5530  -24.5750 C   0  0  0  0  0  0  0  0  0  0  0  0
    0.3660   26.7250  -25.4400 C   0  0  0  0  0  0  0  0  0  0  0  0
    0.3070   26.2850  -26.7710 C   0  0  0  0  0  0  0  0  0  0  0  0
    1.1523   26.4217  -27.4614 H   0  0  0  0  0  0  0  0  0  0  0  0
   -0.8770   25.6650  -27.1770 C   0  0  0  0  0  0  0  0  0  0  0  0
   -1.2680   25.0310  -28.6790 S   0  0  0  0  0  0  0  0  0  0  0  0
    1.5050   27.4070  -24.7870 C   0  0  0  0  0  0  0  0  0  0  0  0
    2.4008   26.7687  -24.7987 H   0  0  0  0  0  0  0  0  0  0  0  0
    1.7872   28.3395  -25.2977 H   0  0  0  0  0  0  0  0  0  0  0  0
    1.0230   27.6470  -23.3420 C   0  0  0  0  0  0  0  0  0  0  0  0
    1.6820   27.1216  -22.6352 H   0  0  0  0  0  0  0  0  0  0  0  0
    1.0443   28.7203  -23.1022 H   0  0  0  0  0  0  0  0  0  0  0  0
   -0.4130   27.0970  -23.2290 C   0  0  0  0  0  0  0  0  0  0  0  0
   -0.4688   26.3048  -22.4679 H   0  0  0  0  0  0  0  0  0  0  0  0
   -1.1366   27.8667  -22.9226 H   0  0  0  0  0  0  0  0  0  0  0  0
   -4.1740   22.4810  -28.6620 C   0  0  0  0  0  0  0  0  0  0  0  0
   -4.9537   22.1574  -29.3673 H   0  0  0  0  0  0  0  0  0  0  0  0
   -4.5396   22.4659  -27.6247 H   0  0  0  0  0  0  0  0  0  0  0  0
   -2.9850   21.5070  -28.7570 C   0  0  0  0  0  0  0  0  0  0  0  0
   -2.1360   22.0241  -29.2279 H   0  0  0  0  0  0  0  0  0  0  0  0
   -3.2964   20.6393  -29.3571 H   0  0  0  0  0  0  0  0  0  0  0  0
   -2.5720   21.0230  -27.4190 N   0  0  0  0  0  0  0  0  0  0  0  0
   -1.5100   21.8360  -26.7840 C   0  0  0  0  0  0  0  0  0  0  0  0
   -1.3084   21.4252  -25.7837 H   0  0  0  0  0  0  0  0  0  0  0  0
   -1.8767   22.8723  -26.7435 H   0  0  0  0  0  0  0  0  0  0  0  0
   -0.1990   21.8530  -27.5740 C   0  0  0  0  0  0  0  0  0  0  0  0
    0.6502   21.8640  -26.8749 H   0  0  0  0  0  0  0  0  0  0  0  0
   -0.1409   20.9555  -28.2074 H   0  0  0  0  0  0  0  0  0  0  0  0
   -0.1642   22.7517  -28.2074 H   0  0  0  0  0  0  0  0  0  0  0  0
   -2.4120   19.5570  -27.2380 C   0  0  0  0  0  0  0  0  0  0  0  0
   -2.5408   19.0773  -28.2195 H   0  0  0  0  0  0  0  0  0  0  0  0
   -1.4116   19.4113  -26.8043 H   0  0  0  0  0  0  0  0  0  0  0  0
   -3.3980   18.9060  -26.2590 C   0  0  0  0  0  0  0  0  0  0  0  0
   -3.0814   19.1150  -25.2265 H   0  0  0  0  0  0  0  0  0  0  0  0
   -4.4046   19.3177  -26.4243 H   0  0  0  0  0  0  0  0  0  0  0  0
   -3.4149   17.8186  -26.4243 H   0  0  0  0  0  0  0  0  0  0  0  0
   -6.6200   24.1480  -31.2130 C   0  0  0  0  0  0  0  0  0  0  0  0
   -6.8228   24.9208  -31.9691 H   0  0  0  0  0  0  0  0  0  0  0  0
   -7.0700   22.7610  -31.4880 C   0  0  0  0  0  0  0  0  0  0  0  0
   -6.1210   21.8180  -31.9180 C   0  0  0  0  0  0  0  0  0  0  0  0
   -5.0719   22.1213  -32.0497 H   0  0  0  0  0  0  0  0  0  0  0  0
   -6.4990   20.4970  -32.1800 C   0  0  0  0  0  0  0  0  0  0  0  0
   -5.7498   19.7697  -32.5259 H   0  0  0  0  0  0  0  0  0  0  0  0
   -7.8270   20.1000  -32.0030 C   0  0  0  0  0  0  0  0  0  0  0  0
   -8.2990   18.4420  -32.3270 Cl  0  0  0  0  0  0  0  0  0  0  0  0
   -8.7770   21.0240  -31.5590 C   0  0  0  0  0  0  0  0  0  0  0  0
   -9.8216   20.7107  -31.4152 H   0  0  0  0  0  0  0  0  0  0  0  0
   -8.4030   22.3460  -31.2970 C   0  0  0  0  0  0  0  0  0  0  0  0
   -9.1539   23.0661  -30.9397 H   0  0  0  0  0  0  0  0  0  0  0  0
  1  2  1  0
  2  3  1  0
  3  4  2  0
  3  5  1  0
  5  6  1  0
  6  7  2  0
  7  8  1  0
  8  9  2  0
  9 10  1  0
  9 11  1  0
 11 12  2  0
 12 13  1  0
 13 14  1  0
 13 15  2  0
 15 16  1  0
 12 17  1  0
 17 18  1  0
 17 19  1  0
 17 20  1  0
 20 21  1  0
 20 22  1  0
 20 23  1  0
 23 24  1  0
 23 25  1  0
  5 26  1  0
 26 27  1  0
 26 28  1  0
 26 29  1  0
 29 30  1  0
 29 31  1  0
 29 32  1  0
 32 33  1  0
 33 34  1  0
 33 35  1  0
 33 36  1  0
 36 37  1  0
 36 38  1  0
 36 39  1  0
 32 40  1  0
 40 41  1  0
 40 42  1  0
 40 43  1  0
 43 44  1  0
 43 45  1  0
 43 46  1  0
  2 47  2  0
 47 48  1  0
 47 49  1  0
 49 50  2  0
 50 51  1  0
 50 52  1  0
 52 53  1  0
 52 54  2  0
 54 55  1  0
 54 56  1  0
 56 57  1  0
 56 58  2  0
 58 59  1  0
 16  6  1  0
 58 49  1  0
 15  8  1  0
 23 11  1  0
M  END
>  <UniqueID>  (46) 
45

>  <SMILES>  (46) 
CCN(CC)CCN(C(=O)/C=C/c1ccc(Cl)cc1)c1nc2cc3c(cc2s1)CCC3

>  <Energy>  (46) 
114.4900210453608

>  <Genealogy>  (46) 
CCN(CC)CCN(C(=O)/C=C/c1ccc(Cl)cc1)c1nc2cc3c(cc2s1)CCC3 (cis-trans isomerization)
CCN(CC)CCN(C(=O)/C=C/c1ccc(Cl)cc1)c1nc2cc3c(cc2s1)CCC3 (3D coordinates assigned)
CCN(CC)CCN(C(=O)/C=C/c1ccc(Cl)cc1)c1nc2cc3c(cc2s1)CCC3 (nonaromatic ring conformer: 114.4900210453608 kcal/mol)

>  <smiles>  (46) 
CCN(CC)CCN(C(=O)C=Cc1ccc(Cl)cc1)c1nc2cc3c(cc2s1)CCC3

>  <score_type>  (46) 
oracle

>  <origin>  (46) 
adg

>  <m_score__min__energy>  (46) 
-10.369999999999999

>  <m_primary>  (46) 
energy

$$$$
46:0
     RDKit          3D

 47 49  0  0  0  0  0  0  0  0999 V2000
   -0.1960   26.5860  -26.6160 C   0  0  0  0  0  0  0  0  0  0  0  0
   -0.4610   25.5890  -27.6450 N   0  0  0  0  0  0  0  0  0  0  0  0
   -1.6390   25.3940  -28.2650 C   0  0  0  0  0  0  0  0  0  0  0  0
   -1.4960   24.3120  -29.1060 C   0  0  0  0  0  0  0  0  0  0  0  0
   -2.5510   23.6820  -29.9610 C   0  0  0  0  0  0  0  0  0  0  0  0
   -3.4870   24.6990  -30.4610 N   0  0  0  0  0  0  0  0  0  0  0  0
   -4.8300   24.5970  -29.8530 C   0  0  0  0  0  0  0  0  0  0  0  0
   -5.9420   25.0900  -30.8210 C   0  0  0  0  0  0  0  0  0  0  0  0
   -7.2400   24.3020  -30.6280 C   0  0  0  0  0  0  0  0  0  0  0  0
   -7.0290   22.8710  -30.9370 N   0  0  0  0  0  0  0  0  0  0  0  0
   -8.2090   22.0250  -30.6560 C   0  0  0  0  0  0  0  0  0  0  0  0
   -8.8650   21.4280  -31.9180 C   0  0  0  0  0  0  0  0  0  0  0  0
   -8.0880   20.2280  -32.3900 C   0  0  0  0  0  0  0  0  0  0  0  0
   -8.4370   18.9400  -31.9570 C   0  0  0  0  0  0  0  0  0  0  0  0
   -7.6830   17.8430  -32.3800 C   0  0  0  0  0  0  0  0  0  0  0  0
   -6.6130   18.0260  -33.1970 N   0  0  0  0  0  0  0  0  0  0  0  0
   -6.2430   19.2640  -33.6220 C   0  0  0  0  0  0  0  0  0  0  0  0
   -6.9690   20.3880  -33.2230 C   0  0  0  0  0  0  0  0  0  0  0  0
   -5.7390   22.2960  -30.4750 C   0  0  0  0  0  0  0  0  0  0  0  0
   -5.0690   23.1440  -29.3840 C   0  0  0  0  0  0  0  0  0  0  0  0
   -0.1960   23.8780  -28.9290 C   0  0  0  0  0  0  0  0  0  0  0  0
    0.4150   24.6720  -28.0270 N   0  0  0  0  0  0  0  0  0  0  0  0
   -0.3175   26.1291  -25.6228 H   0  0  0  0  0  0  0  0  0  0  0  0
    0.8328   26.9601  -26.7242 H   0  0  0  0  0  0  0  0  0  0  0  0
   -0.9033   27.4215  -26.7242 H   0  0  0  0  0  0  0  0  0  0  0  0
   -2.5522   25.9911  -28.1255 H   0  0  0  0  0  0  0  0  0  0  0  0
   -2.0723   23.1802  -30.8149 H   0  0  0  0  0  0  0  0  0  0  0  0
   -3.1096   22.9530  -29.3556 H   0  0  0  0  0  0  0  0  0  0  0  0
   -3.0860   25.6470  -30.2710 H   0  0  0  0  0  0  0  0  0  0  0  0
   -4.8766   25.2610  -28.9773 H   0  0  0  0  0  0  0  0  0  0  0  0
   -6.1379   26.1551  -30.6283 H   0  0  0  0  0  0  0  0  0  0  0  0
   -5.5947   24.9376  -31.8536 H   0  0  0  0  0  0  0  0  0  0  0  0
   -7.5720   24.4016  -29.5840 H   0  0  0  0  0  0  0  0  0  0  0  0
   -8.0044   24.7038  -31.3094 H   0  0  0  0  0  0  0  0  0  0  0  0
   -7.8939   21.1965  -30.0046 H   0  0  0  0  0  0  0  0  0  0  0  0
   -8.9607   22.6730  -30.1816 H   0  0  0  0  0  0  0  0  0  0  0  0
   -9.8956   21.1239  -31.6825 H   0  0  0  0  0  0  0  0  0  0  0  0
   -8.8700   22.1878  -32.7134 H   0  0  0  0  0  0  0  0  0  0  0  0
   -9.2987   18.7950  -31.2888 H   0  0  0  0  0  0  0  0  0  0  0  0
   -7.9559   16.8294  -32.0512 H   0  0  0  0  0  0  0  0  0  0  0  0
   -5.3701   19.3799  -34.2813 H   0  0  0  0  0  0  0  0  0  0  0  0
   -6.6667   21.3910  -33.5586 H   0  0  0  0  0  0  0  0  0  0  0  0
   -5.9263   21.2894  -30.0729 H   0  0  0  0  0  0  0  0  0  0  0  0
   -5.0589   22.2688  -31.3392 H   0  0  0  0  0  0  0  0  0  0  0  0
   -5.7176   23.1586  -28.4957 H   0  0  0  0  0  0  0  0  0  0  0  0
   -4.0922   22.6941  -29.1526 H   0  0  0  0  0  0  0  0  0  0  0  0
    0.2662   23.0217  -29.4420 H   0  0  0  0  0  0  0  0  0  0  0  0
  1  2  1  0
  2  3  1  0
  3  4  2  0
  4  5  1  0
  5  6  1  0
  6  7  1  0
  7  8  1  0
  8  9  1  0
  9 10  1  0
 10 11  1  0
 11 12  1  0
 12 13  1  0
 13 14  2  0
 14 15  1  0
 15 16  2  0
 16 17  1  0
 17 18  2  0
 10 19  1  0
 19 20  1  0
  4 21  1  0
 21 22  2  0
 22  2  1  0
 20  7  1  0
 18 13  1  0
  1 23  1  0
  1 24  1  0
  1 25  1  0
  3 26  1  0
  5 27  1  0
  5 28  1  0
  6 29  1  0
  7 30  1  0
  8 31  1  0
  8 32  1  0
  9 33  1  0
  9 34  1  0
 11 35  1  0
 11 36  1  0
 12 37  1  0
 12 38  1  0
 14 39  1  0
 15 40  1  0
 17 41  1  0
 18 42  1  0
 19 43  1  0
 19 44  1  0
 20 45  1  0
 20 46  1  0
 21 47  1  0
M  END
>  <UniqueID>  (47) 
46

>  <SMILES>  (47) 
Cn1cc(CNC2CCN(CCc3ccncc3)CC2)cn1

>  <Energy>  (47) 
86.06447896807016

>  <Genealogy>  (47) 
Cn1cc(CNC2CCN(CCc3ccncc3)CC2)cn1 (3D coordinates assigned)
Cn1cc(CNC2CCN(CCc3ccncc3)CC2)cn1 (nonaromatic ring conformer: 86.06447896807016 kcal/mol)

>  <smiles>  (47) 
Cn1cc(CNC2CCN(CCc3ccncc3)CC2)cn1

>  <score_type>  (47) 
oracle

>  <origin>  (47) 
adg

>  <m_score__min__energy>  (47) 
-8.5

>  <m_primary>  (47) 
energy

$$$$
47:0
     RDKit          3D

 67 70  0  0  1  0  0  0  0  0999 V2000
   -1.1590   18.2270  -34.2620 C   0  0  0  0  0  0  0  0  0  0  0  0
   -2.5270   18.2310  -33.8310 N   0  0  0  0  0  0  0  0  0  0  0  0
   -2.7860   19.1140  -32.7370 C   0  0  0  0  0  0  0  0  0  0  0  0
   -3.0940   16.9220  -33.7000 C   0  0  0  0  0  0  0  0  0  0  0  0
   -3.7580   16.4180  -34.9480 C   0  0  0  0  0  0  0  0  0  0  0  0
   -5.1420   16.3100  -34.6980 O   0  0  0  0  0  0  0  0  0  0  0  0
   -5.7830   17.4130  -34.1230 C   0  0  0  0  0  0  0  0  0  0  0  0
   -5.5070   18.7130  -34.5450 C   0  0  0  0  0  0  0  0  0  0  0  0
   -6.1390   19.8000  -33.9770 C   0  0  0  0  0  0  0  0  0  0  0  0
   -7.0560   19.5590  -32.9730 C   0  0  0  0  0  0  0  0  0  0  0  0
   -7.7400   20.5770  -32.3430 C   0  0  0  0  0  0  0  0  0  0  0  0
   -7.5200   21.8170  -32.6950 N   0  0  0  0  0  0  0  0  0  0  0  0
   -6.4710   22.5390  -32.0860 C   0  0  0  0  0  0  0  0  0  0  0  0
   -5.1270   22.2180  -32.2470 C   0  0  0  0  0  0  0  0  0  0  0  0
   -4.1310   22.9690  -31.6220 C   0  0  0  0  0  0  0  0  0  0  0  0
   -4.4820   24.0440  -30.8330 C   0  0  0  0  0  0  0  0  0  0  0  0
   -3.4770   24.8220  -30.1790 N   0  0  0  0  0  0  0  0  0  0  0  0
   -2.9410   24.4690  -28.8780 C   0  0  0  0  0  0  0  0  0  0  0  0
   -3.2450   23.0660  -28.4890 C   0  0  0  0  0  0  0  0  0  0  0  0
   -2.4870   22.4640  -27.3750 C   0  0  0  0  0  0  0  0  0  0  0  0
   -2.0640   21.1420  -27.4020 N   0  0  0  0  0  0  0  0  0  0  0  0
   -0.7260   20.7420  -27.4330 C   0  0  0  0  0  0  0  0  0  0  0  0
   -0.7020   19.2850  -27.9150 C   0  0  0  0  0  0  0  0  0  0  0  0
   -1.3530   18.4560  -27.0060 O   0  0  0  0  0  0  0  0  0  0  0  0
   -2.4790   18.9920  -26.4370 C   0  0  0  0  0  0  0  0  0  0  0  0
   -3.0490   20.1100  -27.3240 C   0  0  0  0  0  0  0  0  0  0  0  0
   -5.8190   24.3490  -30.6840 C   0  0  0  0  0  0  0  0  0  0  0  0
   -6.2530   25.7250  -29.6770 Cl  0  0  0  0  0  0  0  0  0  0  0  0
   -6.8310   23.6310  -31.2860 C   0  0  0  0  0  0  0  0  0  0  0  0
   -8.6350   20.3210  -31.3620 N   0  0  0  0  0  0  0  0  0  0  0  0
   -8.9060   19.0700  -30.9520 C   0  0  0  0  0  0  0  0  0  0  0  0
   -8.2340   18.0630  -31.5700 N   0  0  0  0  0  0  0  0  0  0  0  0
   -7.3350   18.2540  -32.5480 C   0  0  0  0  0  0  0  0  0  0  0  0
   -6.6950   17.1630  -33.1230 C   0  0  0  0  0  0  0  0  0  0  0  0
   -0.4976   18.2251  -33.3830 H   0  0  0  0  0  0  0  0  0  0  0  0
   -0.9677   17.3283  -34.8668 H   0  0  0  0  0  0  0  0  0  0  0  0
   -0.9625   19.1246  -34.8668 H   0  0  0  0  0  0  0  0  0  0  0  0
   -2.6290   18.5789  -31.7888 H   0  0  0  0  0  0  0  0  0  0  0  0
   -2.1023   19.9741  -32.7902 H   0  0  0  0  0  0  0  0  0  0  0  0
   -3.8260   19.4685  -32.7902 H   0  0  0  0  0  0  0  0  0  0  0  0
   -2.2899   16.2220  -33.4289 H   0  0  0  0  0  0  0  0  0  0  0  0
   -3.8748   16.9886  -32.9281 H   0  0  0  0  0  0  0  0  0  0  0  0
   -3.5827   17.1232  -35.7738 H   0  0  0  0  0  0  0  0  0  0  0  0
   -3.3450   15.4379  -35.2289 H   0  0  0  0  0  0  0  0  0  0  0  0
   -4.7711   18.8751  -35.3463 H   0  0  0  0  0  0  0  0  0  0  0  0
   -5.9198   20.8243  -34.3127 H   0  0  0  0  0  0  0  0  0  0  0  0
   -4.8457   21.3603  -32.8757 H   0  0  0  0  0  0  0  0  0  0  0  0
   -3.0718   22.7050  -31.7579 H   0  0  0  0  0  0  0  0  0  0  0  0
   -3.1120   25.6760  -30.6550 H   0  0  0  0  0  0  0  0  0  0  0  0
   -1.8489   24.5981  -28.9014 H   0  0  0  0  0  0  0  0  0  0  0  0
   -3.4149   25.1279  -28.1355 H   0  0  0  0  0  0  0  0  0  0  0  0
   -4.3097   23.0285  -28.2150 H   0  0  0  0  0  0  0  0  0  0  0  0
   -2.9495   22.4731  -29.3671 H   0  0  0  0  0  0  0  0  0  0  0  0
   -1.5802   23.0749  -27.2541 H   0  0  0  0  0  0  0  0  0  0  0  0
   -3.2344   22.4506  -26.5680 H   0  0  0  0  0  0  0  0  0  0  0  0
   -0.1578   21.3786  -28.1272 H   0  0  0  0  0  0  0  0  0  0  0  0
   -0.2669   20.8328  -26.4375 H   0  0  0  0  0  0  0  0  0  0  0  0
   -1.2068   19.2187  -28.8901 H   0  0  0  0  0  0  0  0  0  0  0  0
    0.3448   18.9590  -28.0046 H   0  0  0  0  0  0  0  0  0  0  0  0
   -3.2357   18.2025  -26.3183 H   0  0  0  0  0  0  0  0  0  0  0  0
   -2.2157   19.4148  -25.4562 H   0  0  0  0  0  0  0  0  0  0  0  0
   -3.2634   19.7189  -28.3295 H   0  0  0  0  0  0  0  0  0  0  0  0
   -3.9859   20.5005  -26.9001 H   0  0  0  0  0  0  0  0  0  0  0  0
   -7.8862   23.9068  -31.1426 H   0  0  0  0  0  0  0  0  0  0  0  0
   -9.1560   21.1100  -30.8850 H   0  0  0  0  0  0  0  0  0  0  0  0
   -9.6368   18.8706  -30.1544 H   0  0  0  0  0  0  0  0  0  0  0  0
   -6.9095   16.1365  -32.7910 H   0  0  0  0  0  0  0  0  0  0  0  0
  1  2  1  0
  2  3  1  0
  2  4  1  0
  4  5  1  0
  5  6  1  0
  6  7  1  0
  7  8  2  0
  8  9  1  0
  9 10  2  0
 10 11  1  0
 11 12  2  0
 12 13  1  0
 13 14  2  0
 14 15  1  0
 15 16  2  0
 16 17  1  0
 17 18  1  0
 18 19  1  0
 19 20  1  0
 20 21  1  0
 21 22  1  0
 22 23  1  0
 23 24  1  0
 24 25  1  0
 25 26  1  0
 16 27  1  0
 27 28  1  0
 27 29  2  0
 11 30  1  0
 30 31  1  0
 31 32  2  0
 32 33  1  0
 33 34  2  0
 34  7  1  0
 33 10  1  0
 29 13  1  0
 26 21  1  0
  1 35  1  0
  1 36  1  0
  1 37  1  0
  3 38  1  0
  3 39  1  0
  3 40  1  0
  4 41  1  0
  4 42  1  0
  5 43  1  0
  5 44  1  0
  8 45  1  0
  9 46  1  0
 14 47  1  0
 15 48  1  0
 17 49  1  0
 18 50  1  0
 18 51  1  0
 19 52  1  0
 19 53  1  0
 20 54  1  0
 20 55  1  0
 22 56  1  0
 22 57  1  0
 23 58  1  0
 23 59  1  0
 25 60  1  0
 25 61  1  0
 26 62  1  0
 26 63  1  0
 29 64  1  0
 30 65  1  0
 31 66  1  0
 34 67  1  0
M  END
>  <smiles>  (48) 
CN(C)CCOc1ccc2c(=Nc3ccc(NCCCN4CCOCC4)c(Cl)c3)[nH]cnc2c1

>  <score_type>  (48) 
oracle

>  <origin>  (48) 
adg

>  <m_score__min__energy>  (48) 
-9.5800000000000001

>  <m_primary>  (48) 
energy

$$$$
