0:0
     RDKit          3D

 45 46  0  0  0  0  0  0  0  0999 V2000
   -3.4460   21.8440  -28.4300 C   0  0  0  0  0  0  0  0  0  0  0  0
   -2.6440   20.7570  -29.1530 C   0  0  0  0  0  0  0  0  0  0  0  0
   -1.7540   21.3010  -30.2150 N   0  0  0  0  0  0  0  0  0  0  0  0
   -0.8640   22.3910  -29.7300 C   0  0  0  0  0  0  0  0  0  0  0  0
   -0.1290   22.0740  -28.4170 C   0  0  0  0  0  0  0  0  0  0  0  0
   -0.9760   20.2050  -30.8680 C   0  0  0  0  0  0  0  0  0  0  0  0
   -1.0690   20.2190  -32.4150 C   0  0  0  0  0  0  0  0  0  0  0  0
   -1.7700   21.3900  -32.9760 N   0  0  0  0  0  0  0  0  0  0  0  0
   -3.2050   21.1700  -33.1980 C   0  0  0  0  0  0  0  0  0  0  0  0
   -4.0170   22.1150  -32.3710 C   0  0  0  0  0  0  0  0  0  0  0  0
   -5.4090   22.1660  -32.3340 C   0  0  0  0  0  0  0  0  0  0  0  0
   -5.6850   23.1910  -31.4610 C   0  0  0  0  0  0  0  0  0  0  0  0
   -6.9010   23.7120  -31.0260 C   0  0  0  0  0  0  0  0  0  0  0  0
   -6.8640   24.7830  -30.1160 C   0  0  0  0  0  0  0  0  0  0  0  0
   -5.6290   25.3020  -29.6670 C   0  0  0  0  0  0  0  0  0  0  0  0
   -4.4080   24.7510  -30.1280 C   0  0  0  0  0  0  0  0  0  0  0  0
   -3.1510   25.2230  -29.7220 O   0  0  0  0  0  0  0  0  0  0  0  0
   -2.5440   24.9030  -28.4750 C   0  0  0  0  0  0  0  0  0  0  0  0
   -4.4850   23.6910  -31.0310 C   0  0  0  0  0  0  0  0  0  0  0  0
   -3.4930   23.0370  -31.5840 O   0  0  0  0  0  0  0  0  0  0  0  0
   -3.3474   21.7103  -27.3426 H   0  0  0  0  0  0  0  0  0  0  0  0
   -3.0605   22.8343  -28.7142 H   0  0  0  0  0  0  0  0  0  0  0  0
   -4.5059   21.7678  -28.7142 H   0  0  0  0  0  0  0  0  0  0  0  0
   -2.0248   20.2279  -28.4137 H   0  0  0  0  0  0  0  0  0  0  0  0
   -3.3655   20.0847  -29.6404 H   0  0  0  0  0  0  0  0  0  0  0  0
   -2.3700   21.7490  -30.9340 H   0  0  0  0  0  0  0  0  0  0  0  0
   -0.1108   22.5912  -30.5063 H   0  0  0  0  0  0  0  0  0  0  0  0
   -1.5107   23.2572  -29.5265 H   0  0  0  0  0  0  0  0  0  0  0  0
   -0.7669   22.3491  -27.5641 H   0  0  0  0  0  0  0  0  0  0  0  0
    0.0971   20.9984  -28.3738 H   0  0  0  0  0  0  0  0  0  0  0  0
    0.8085   22.6478  -28.3738 H   0  0  0  0  0  0  0  0  0  0  0  0
    0.0809   20.3097  -30.5816 H   0  0  0  0  0  0  0  0  0  0  0  0
   -1.4081   19.2529  -30.5261 H   0  0  0  0  0  0  0  0  0  0  0  0
   -0.0466   20.2039  -32.8207 H   0  0  0  0  0  0  0  0  0  0  0  0
   -1.6586   19.3354  -32.7006 H   0  0  0  0  0  0  0  0  0  0  0  0
   -1.6330   22.2260  -32.3650 H   0  0  0  0  0  0  0  0  0  0  0  0
   -3.4351   21.3311  -34.2615 H   0  0  0  0  0  0  0  0  0  0  0  0
   -3.4548   20.1392  -32.9063 H   0  0  0  0  0  0  0  0  0  0  0  0
   -6.1234   21.5313  -32.8788 H   0  0  0  0  0  0  0  0  0  0  0  0
   -7.8568   23.3000  -31.3819 H   0  0  0  0  0  0  0  0  0  0  0  0
   -7.8046   25.2207  -29.7504 H   0  0  0  0  0  0  0  0  0  0  0  0
   -5.6154   26.1399  -28.9544 H   0  0  0  0  0  0  0  0  0  0  0  0
   -3.1914   25.2443  -27.6538 H   0  0  0  0  0  0  0  0  0  0  0  0
   -2.4046   23.8142  -28.4037 H   0  0  0  0  0  0  0  0  0  0  0  0
   -1.5669   25.4032  -28.4037 H   0  0  0  0  0  0  0  0  0  0  0  0
  1  2  1  0
  2  3  1  0
  3  4  1  0
  4  5  1  0
  3  6  1  0
  6  7  1  0
  7  8  1  0
  8  9  1  0
  9 10  1  0
 10 11  2  0
 11 12  1  0
 12 13  2  0
 13 14  1  0
 14 15  2  0
 15 16  1  0
 16 17  1  0
 17 18  1  0
 16 19  2  0
 19 20  1  0
 20 10  1  0
 19 12  1  0
  1 21  1  0
  1 22  1  0
  1 23  1  0
  2 24  1  0
  2 25  1  0
  3 26  1  0
  4 27  1  0
  4 28  1  0
  5 29  1  0
  5 30  1  0
  5 31  1  0
  6 32  1  0
  6 33  1  0
  7 34  1  0
  7 35  1  0
  8 36  1  0
  9 37  1  0
  9 38  1  0
 11 39  1  0
 13 40  1  0
 14 41  1  0
 15 42  1  0
 18 43  1  0
 18 44  1  0
 18 45  1  0
M  CHG  1   3   1
M  END
>  <UniqueID>  (1) 
1

>  <SMILES>  (1) 
CC[NH+](CC)CCNCc1cc2cccc(OC)c2o1

>  <Energy>  (1) 
82.05128313022851

>  <Genealogy>  (1) 
CC[NH+](CC)CCNCc1cc2cccc(OC)c2o1 (protonated)
CC[NH+](CC)CCNCc1cc2cccc(OC)c2o1 (3D coordinates assigned)
CC[NH+](CC)CCNCc1cc2cccc(OC)c2o1 (optimized conformer: 82.05128313022851 kcal/mol)

>  <smiles>  (1) 
CCN(CC)CCNCc1cc2cccc(OC)c2o1

>  <score_type>  (1) 
oracle

>  <origin>  (1) 
adg

>  <m_score__min__energy>  (1) 
-4.9100000000000001

>  <m_primary>  (1) 
energy

$$$$
1:0
     RDKit          3D

 60 61  0  0  0  0  0  0  0  0999 V2000
   -0.1830   24.1130  -28.2270 C   0  0  0  0  0  0  0  0  0  0  0  0
   -1.0560   25.3580  -28.2220 C   0  0  0  0  0  0  0  0  0  0  0  0
   -1.9610   25.2920  -29.3040 O   0  0  0  0  0  0  0  0  0  0  0  0
   -2.6120   24.0390  -29.2990 C   0  0  0  0  0  0  0  0  0  0  0  0
   -3.6150   23.9930  -30.4440 C   0  0  0  0  0  0  0  0  0  0  0  0
   -4.0040   25.3110  -30.7730 O   0  0  0  0  0  0  0  0  0  0  0  0
   -5.4090   25.4510  -30.6890 C   0  0  0  0  0  0  0  0  0  0  0  0
   -6.0410   24.1400  -30.2110 C   0  0  0  0  0  0  0  0  0  0  0  0
   -7.1280   23.6610  -31.1840 C   0  0  0  0  0  0  0  0  0  0  0  0
   -6.5660   22.7950  -32.3380 C   0  0  0  0  0  0  0  0  0  0  0  0
   -7.3130   21.4420  -32.5340 C   0  0  2  0  0  0  0  0  0  0  0  0
   -8.3200   21.2120  -31.3760 C   0  0  0  0  0  0  0  0  0  0  0  0
   -8.7260   19.7380  -31.2160 C   0  0  0  0  0  0  0  0  0  0  0  0
   -8.6170   18.9900  -32.5390 C   0  0  0  0  0  0  0  0  0  0  0  0
   -7.1800   19.0620  -33.0940 C   0  0  0  0  0  0  0  0  0  0  0  0
   -6.4150   20.2500  -32.6150 N   0  0  0  0  0  0  0  0  0  0  0  0
   -5.2080   20.4570  -33.4550 C   0  0  0  0  0  0  0  0  0  0  0  0
   -3.9900   20.7810  -32.6230 C   0  0  0  0  0  0  0  0  0  0  0  0
   -4.0150   20.5790  -31.2350 C   0  0  0  0  0  0  0  0  0  0  0  0
   -2.8850   20.8580  -30.4610 C   0  0  0  0  0  0  0  0  0  0  0  0
   -1.7140   21.3400  -31.0590 C   0  0  0  0  0  0  0  0  0  0  0  0
   -0.6070   21.6040  -30.2390 O   0  0  0  0  0  0  0  0  0  0  0  0
   -0.1250   20.7210  -29.2310 C   0  0  0  0  0  0  0  0  0  0  0  0
   -1.6880   21.5390  -32.4530 C   0  0  0  0  0  0  0  0  0  0  0  0
   -2.8170   21.2600  -33.2270 C   0  0  0  0  0  0  0  0  0  0  0  0
    0.0295   23.8100  -27.1911 H   0  0  0  0  0  0  0  0  0  0  0  0
   -0.7088   23.2985  -28.7467 H   0  0  0  0  0  0  0  0  0  0  0  0
    0.7619   24.3298  -28.7467 H   0  0  0  0  0  0  0  0  0  0  0  0
   -1.6156   25.4117  -27.2765 H   0  0  0  0  0  0  0  0  0  0  0  0
   -0.4249   26.2536  -28.3207 H   0  0  0  0  0  0  0  0  0  0  0  0
   -1.8694   23.2377  -29.4276 H   0  0  0  0  0  0  0  0  0  0  0  0
   -3.1358   23.8978  -28.3421 H   0  0  0  0  0  0  0  0  0  0  0  0
   -3.1515   23.5164  -31.3204 H   0  0  0  0  0  0  0  0  0  0  0  0
   -4.4979   23.4118  -30.1393 H   0  0  0  0  0  0  0  0  0  0  0  0
   -5.6528   26.2532  -29.9770 H   0  0  0  0  0  0  0  0  0  0  0  0
   -5.8061   25.7003  -31.6841 H   0  0  0  0  0  0  0  0  0  0  0  0
   -5.2589   23.3698  -30.1392 H   0  0  0  0  0  0  0  0  0  0  0  0
   -6.5047   24.3144  -29.2289 H   0  0  0  0  0  0  0  0  0  0  0  0
   -7.8625   23.0643  -30.6233 H   0  0  0  0  0  0  0  0  0  0  0  0
   -7.5842   24.5548  -31.6346 H   0  0  0  0  0  0  0  0  0  0  0  0
   -6.6422   23.3711  -33.2720 H   0  0  0  0  0  0  0  0  0  0  0  0
   -5.5260   22.5503  -32.0761 H   0  0  0  0  0  0  0  0  0  0  0  0
   -7.8244   21.5336  -33.5036 H   0  0  0  0  0  0  0  0  0  0  0  0
   -7.8582   21.5521  -30.4373 H   0  0  0  0  0  0  0  0  0  0  0  0
   -9.2312   21.7799  -31.6151 H   0  0  0  0  0  0  0  0  0  0  0  0
   -8.0634   19.2613  -30.4786 H   0  0  0  0  0  0  0  0  0  0  0  0
   -9.7724   19.6994  -30.8791 H   0  0  0  0  0  0  0  0  0  0  0  0
   -8.8897   17.9362  -32.3806 H   0  0  0  0  0  0  0  0  0  0  0  0
   -9.2984   19.4578  -33.2649 H   0  0  0  0  0  0  0  0  0  0  0  0
   -6.6417   18.1538  -32.7851 H   0  0  0  0  0  0  0  0  0  0  0  0
   -7.2599   19.1485  -34.1877 H   0  0  0  0  0  0  0  0  0  0  0  0
   -5.0126   19.5390  -34.0287 H   0  0  0  0  0  0  0  0  0  0  0  0
   -5.4004   21.3095  -34.1230 H   0  0  0  0  0  0  0  0  0  0  0  0
   -4.9282   20.1992  -30.7535 H   0  0  0  0  0  0  0  0  0  0  0  0
   -2.9158   20.6976  -29.3732 H   0  0  0  0  0  0  0  0  0  0  0  0
   -0.3526   21.1380  -28.2389 H   0  0  0  0  0  0  0  0  0  0  0  0
   -0.6134   19.7412  -29.3378 H   0  0  0  0  0  0  0  0  0  0  0  0
    0.9633   20.6018  -29.3378 H   0  0  0  0  0  0  0  0  0  0  0  0
   -0.7739   21.9161  -32.9349 H   0  0  0  0  0  0  0  0  0  0  0  0
   -2.7866   21.4165  -34.3154 H   0  0  0  0  0  0  0  0  0  0  0  0
  1  2  1  0
  2  3  1  0
  3  4  1  0
  4  5  1  0
  5  6  1  0
  6  7  1  0
  7  8  1  0
  8  9  1  0
  9 10  1  0
 10 11  1  0
 11 12  1  0
 12 13  1  0
 13 14  1  0
 14 15  1  0
 15 16  1  0
 16 17  1  0
 17 18  1  0
 18 19  2  0
 19 20  1  0
 20 21  2  0
 21 22  1  0
 22 23  1  0
 21 24  1  0
 24 25  2  0
 16 11  1  0
 25 18  1  0
  1 26  1  0
  1 27  1  0
  1 28  1  0
  2 29  1  0
  2 30  1  0
  4 31  1  0
  4 32  1  0
  5 33  1  0
  5 34  1  0
  7 35  1  0
  7 36  1  0
  8 37  1  0
  8 38  1  0
  9 39  1  0
  9 40  1  0
 10 41  1  0
 10 42  1  0
 11 43  1  6
 12 44  1  0
 12 45  1  0
 13 46  1  0
 13 47  1  0
 14 48  1  0
 14 49  1  0
 15 50  1  0
 15 51  1  0
 17 52  1  0
 17 53  1  0
 19 54  1  0
 20 55  1  0
 23 56  1  0
 23 57  1  0
 23 58  1  0
 24 59  1  0
 25 60  1  0
M  END
>  <UniqueID>  (2) 
2

>  <SMILES>  (2) 
CCOCCOCCCC[C@@H]1CCCCN1Cc1ccc(OC)cc1

>  <Energy>  (2) 
62.86584274370337

>  <Genealogy>  (2) 
CCOCCOCCCC[C@@H]1CCCCN1Cc1ccc(OC)cc1 (chirality)
CCOCCOCCCC[C@@H]1CCCCN1Cc1ccc(OC)cc1 (3D coordinates assigned)
CCOCCOCCCC[C@@H]1CCCCN1Cc1ccc(OC)cc1 (nonaromatic ring conformer: 62.86584274370337 kcal/mol)

>  <smiles>  (2) 
CCOCCOCCCCC1CCCCN1Cc1ccc(OC)cc1

>  <score_type>  (2) 
oracle

>  <origin>  (2) 
adg

>  <m_score__min__energy>  (2) 
-8.4299999999999997

>  <m_primary>  (2) 
energy

$$$$
2:0
     RDKit          3D

 67 69  0  0  0  0  0  0  0  0999 V2000
   -0.2040   21.1590  -34.5710 C   0  0  0  0  0  0  0  0  0  0  0  0
   -0.3600   19.6410  -34.6190 C   0  0  0  0  0  0  0  0  0  0  0  0
   -0.6030   19.1090  -33.2590 N   0  0  0  0  0  0  0  0  0  0  0  0
    0.1440   19.8760  -32.2360 C   0  0  0  0  0  0  0  0  0  0  0  0
   -0.1320   19.3150  -30.8450 C   0  0  0  0  0  0  0  0  0  0  0  0
   -0.2830   17.6630  -33.1820 C   0  0  0  0  0  0  0  0  0  0  0  0
   -1.3650   16.8480  -33.8860 C   0  0  0  0  0  0  0  0  0  0  0  0
   -2.4610   16.6810  -33.0120 O   0  0  0  0  0  0  0  0  0  0  0  0
   -3.2810   15.6280  -33.4740 C   0  0  0  0  0  0  0  0  0  0  0  0
   -4.2170   15.1890  -32.3540 C   0  0  0  0  0  0  0  0  0  0  0  0
   -5.3110   16.0800  -32.2880 O   0  0  0  0  0  0  0  0  0  0  0  0
   -5.9130   16.1870  -33.5600 C   0  0  0  0  0  0  0  0  0  0  0  0
   -6.9630   17.2970  -33.5220 C   0  0  0  0  0  0  0  0  0  0  0  0
   -6.9950   17.9370  -32.2060 N   0  0  0  0  0  0  0  0  0  0  0  0
   -7.2420   19.3390  -31.9740 C   0  0  0  0  0  0  0  0  0  0  0  0
   -8.5430   19.8670  -31.9430 C   0  0  0  0  0  0  0  0  0  0  0  0
   -8.7510   21.2210  -31.6870 C   0  0  0  0  0  0  0  0  0  0  0  0
   -7.6680   22.0740  -31.4590 C   0  0  0  0  0  0  0  0  0  0  0  0
   -7.9110   23.3910  -31.1850 N   0  0  0  0  0  0  0  0  0  0  0  0
   -6.9100   24.2780  -30.9400 C   0  0  0  0  0  0  0  0  0  0  0  0
   -5.6050   23.8160  -30.9840 C   0  0  0  0  0  0  0  0  0  0  0  0
   -4.4090   24.4550  -30.7990 C   0  0  0  0  0  0  0  0  0  0  0  0
   -4.2510   25.6730  -30.5190 O   0  0  0  0  0  0  0  0  0  0  0  0
   -3.3990   23.5830  -30.9700 N   0  0  0  0  0  0  0  0  0  0  0  0
   -3.9280   22.3980  -31.2620 N   0  0  0  0  0  0  0  0  0  0  0  0
   -3.0700   21.2440  -31.5320 C   0  0  0  0  0  0  0  0  0  0  0  0
   -3.2510   20.7610  -32.9750 C   0  0  0  0  0  0  0  0  0  0  0  0
   -3.5150   19.3180  -32.9910 N   0  0  0  0  0  0  0  0  0  0  0  0
   -4.2120   18.9410  -34.2210 C   0  0  0  0  0  0  0  0  0  0  0  0
   -5.2910   22.5080  -31.2650 C   0  0  0  0  0  0  0  0  0  0  0  0
   -6.3330   21.5670  -31.5020 C   0  0  0  0  0  0  0  0  0  0  0  0
   -6.1480   20.1910  -31.7490 C   0  0  0  0  0  0  0  0  0  0  0  0
   -0.1699   21.4911  -33.5229 H   0  0  0  0  0  0  0  0  0  0  0  0
    0.7286   21.4480  -35.0778 H   0  0  0  0  0  0  0  0  0  0  0  0
   -1.0583   21.6316  -35.0778 H   0  0  0  0  0  0  0  0  0  0  0  0
   -1.2105   19.3834  -35.2673 H   0  0  0  0  0  0  0  0  0  0  0  0
    0.5641   19.1976  -35.0182 H   0  0  0  0  0  0  0  0  0  0  0  0
    1.2214   19.8081  -32.4471 H   0  0  0  0  0  0  0  0  0  0  0  0
   -0.1819   20.9261  -32.2686 H   0  0  0  0  0  0  0  0  0  0  0  0
    0.2192   20.0289  -30.0854 H   0  0  0  0  0  0  0  0  0  0  0  0
   -1.2130   19.1522  -30.7231 H   0  0  0  0  0  0  0  0  0  0  0  0
    0.3987   18.3592  -30.7231 H   0  0  0  0  0  0  0  0  0  0  0  0
    0.6860   17.4784  -33.6687 H   0  0  0  0  0  0  0  0  0  0  0  0
   -0.2348   17.3607  -32.1254 H   0  0  0  0  0  0  0  0  0  0  0  0
   -1.6941   17.3779  -34.7921 H   0  0  0  0  0  0  0  0  0  0  0  0
   -0.9627   15.8637  -34.1675 H   0  0  0  0  0  0  0  0  0  0  0  0
   -3.8737   15.9740  -34.3336 H   0  0  0  0  0  0  0  0  0  0  0  0
   -2.6522   14.7797  -33.7821 H   0  0  0  0  0  0  0  0  0  0  0  0
   -4.5826   14.1717  -32.5574 H   0  0  0  0  0  0  0  0  0  0  0  0
   -3.6763   15.1956  -31.3961 H   0  0  0  0  0  0  0  0  0  0  0  0
   -5.1470   16.4295  -34.3113 H   0  0  0  0  0  0  0  0  0  0  0  0
   -6.3907   15.2326  -33.8265 H   0  0  0  0  0  0  0  0  0  0  0  0
   -6.7181   18.0514  -34.2841 H   0  0  0  0  0  0  0  0  0  0  0  0
   -7.9502   16.8557  -33.7237 H   0  0  0  0  0  0  0  0  0  0  0  0
   -6.8180   17.3210  -31.3800 H   0  0  0  0  0  0  0  0  0  0  0  0
   -9.4044   19.2068  -32.1222 H   0  0  0  0  0  0  0  0  0  0  0  0
   -9.7754   21.6212  -31.6643 H   0  0  0  0  0  0  0  0  0  0  0  0
   -7.1302   25.3317  -30.7135 H   0  0  0  0  0  0  0  0  0  0  0  0
   -2.0195   21.5306  -31.3761 H   0  0  0  0  0  0  0  0  0  0  0  0
   -3.3483   20.4285  -30.8483 H   0  0  0  0  0  0  0  0  0  0  0  0
   -4.0986   21.2916  -33.4333 H   0  0  0  0  0  0  0  0  0  0  0  0
   -2.3316   20.9665  -33.5429 H   0  0  0  0  0  0  0  0  0  0  0  0
   -2.5930   18.8190  -32.9920 H   0  0  0  0  0  0  0  0  0  0  0  0
   -5.1535   18.4317  -33.9676 H   0  0  0  0  0  0  0  0  0  0  0  0
   -4.4305   19.8439  -34.8101 H   0  0  0  0  0  0  0  0  0  0  0  0
   -3.5760   18.2639  -34.8101 H   0  0  0  0  0  0  0  0  0  0  0  0
   -5.1288   19.7774  -31.7658 H   0  0  0  0  0  0  0  0  0  0  0  0
  1  2  1  0
  2  3  1  0
  3  4  1  0
  4  5  1  0
  3  6  1  0
  6  7  1  0
  7  8  1  0
  8  9  1  0
  9 10  1  0
 10 11  1  0
 11 12  1  0
 12 13  1  0
 13 14  1  0
 14 15  1  0
 15 16  2  0
 16 17  1  0
 17 18  2  0
 18 19  1  0
 19 20  2  0
 20 21  1  0
 21 22  1  0
 22 23  2  0
 22 24  1  0
 24 25  1  0
 25 26  1  0
 26 27  1  0
 27 28  1  0
 28 29  1  0
 25 30  1  0
 30 31  1  0
 31 32  2  0
 32 15  1  0
 31 18  1  0
 30 21  2  0
  1 33  1  0
  1 34  1  0
  1 35  1  0
  2 36  1  0
  2 37  1  0
  4 38  1  0
  4 39  1  0
  5 40  1  0
  5 41  1  0
  5 42  1  0
  6 43  1  0
  6 44  1  0
  7 45  1  0
  7 46  1  0
  9 47  1  0
  9 48  1  0
 10 49  1  0
 10 50  1  0
 12 51  1  0
 12 52  1  0
 13 53  1  0
 13 54  1  0
 14 55  1  0
 16 56  1  0
 17 57  1  0
 20 58  1  0
 26 59  1  0
 26 60  1  0
 27 61  1  0
 27 62  1  0
 28 63  1  0
 29 64  1  0
 29 65  1  0
 29 66  1  0
 32 67  1  0
M  CHG  1  24  -1
M  END
>  <UniqueID>  (3) 
3

>  <SMILES>  (3) 
CCN(CC)CCOCCOCCNc1ccc2ncc3c(=O)[n-]n(CCNC)c3c2c1

>  <Energy>  (3) 
108.32619310280779

>  <Genealogy>  (3) 
CCN(CC)CCOCCOCCNc1ccc2ncc3c(=O)[n-]n(CCNC)c3c2c1 (protonated)
CCN(CC)CCOCCOCCNc1ccc2ncc3c(=O)[n-]n(CCNC)c3c2c1 (3D coordinates assigned)
CCN(CC)CCOCCOCCNc1ccc2ncc3c(=O)[n-]n(CCNC)c3c2c1 (optimized conformer: 108.32619310280779 kcal/mol)

>  <smiles>  (3) 
CCN(CC)CCOCCOCCNc1ccc2ncc3c(=O)[nH]n(CCNC)c3c2c1

>  <score_type>  (3) 
oracle

>  <origin>  (3) 
adg

>  <m_score__min__energy>  (3) 
-9.3399999999999999

>  <m_primary>  (3) 
energy

$$$$
3:0
     RDKit          3D

 41 43  0  0  0  0  0  0  0  0999 V2000
   -3.0970   18.0000  -25.5610 O   0  0  0  0  0  0  0  0  0  0  0  0
   -2.6070   18.8790  -26.3170 C   0  0  0  0  0  0  0  0  0  0  0  0
   -1.2150   18.7580  -26.8430 C   0  0  0  0  0  0  0  0  0  0  0  0
   -1.2180   19.2420  -28.2980 C   0  0  0  0  0  0  0  0  0  0  0  0
   -1.7400   20.7180  -28.4820 C   0  0  0  0  0  0  0  0  0  0  0  0
   -0.5180   21.6740  -28.5460 C   0  0  0  0  0  0  0  0  0  0  0  0
   -0.9460   23.1400  -28.7120 C   0  0  0  0  0  0  0  0  0  0  0  0
   -2.1040   23.2770  -29.6100 N   0  0  0  0  0  0  0  0  0  0  0  0
   -2.7580   24.5600  -29.7120 C   0  0  0  0  0  0  0  0  0  0  0  0
   -2.3970   25.5080  -28.9620 O   0  0  0  0  0  0  0  0  0  0  0  0
   -3.7780   24.7770  -30.6980 N   0  0  0  0  0  0  0  0  0  0  0  0
   -5.0000   24.0390  -30.8400 C   0  0  0  0  0  0  0  0  0  0  0  0
   -5.9210   24.0570  -29.7840 C   0  0  0  0  0  0  0  0  0  0  0  0
   -7.1330   23.3680  -29.8900 C   0  0  0  0  0  0  0  0  0  0  0  0
   -7.4420   22.6700  -31.0600 C   0  0  0  0  0  0  0  0  0  0  0  0
   -6.5410   22.6670  -32.1290 C   0  0  0  0  0  0  0  0  0  0  0  0
   -5.3270   23.3530  -32.0260 C   0  0  0  0  0  0  0  0  0  0  0  0
   -2.4380   22.1860  -30.5380 C   0  0  0  0  0  0  0  0  0  0  0  0
   -2.5170   20.8140  -29.8330 C   0  0  0  0  0  0  0  0  0  0  0  0
   -2.6860   21.1530  -27.3010 C   0  0  0  0  0  0  0  0  0  0  0  0
   -3.3780   20.0130  -26.7070 N   0  0  0  0  0  0  0  0  0  0  0  0
   -0.5335   19.3796  -26.2436 H   0  0  0  0  0  0  0  0  0  0  0  0
   -0.8733   17.7139  -26.7869 H   0  0  0  0  0  0  0  0  0  0  0  0
   -0.1887   19.1888  -28.6823 H   0  0  0  0  0  0  0  0  0  0  0  0
   -1.9104   18.5887  -28.8491 H   0  0  0  0  0  0  0  0  0  0  0  0
    0.0599   21.5754  -27.6152 H   0  0  0  0  0  0  0  0  0  0  0  0
    0.0881   21.3946  -29.4204 H   0  0  0  0  0  0  0  0  0  0  0  0
   -1.2117   23.5465  -27.7250 H   0  0  0  0  0  0  0  0  0  0  0  0
   -0.1043   23.6920  -29.1557 H   0  0  0  0  0  0  0  0  0  0  0  0
   -5.6890   24.6167  -28.8659 H   0  0  0  0  0  0  0  0  0  0  0  0
   -7.8442   23.3756  -29.0509 H   0  0  0  0  0  0  0  0  0  0  0  0
   -8.3932   22.1233  -31.1401 H   0  0  0  0  0  0  0  0  0  0  0  0
   -6.7877   22.1238  -33.0531 H   0  0  0  0  0  0  0  0  0  0  0  0
   -4.6255   23.3570  -32.8733 H   0  0  0  0  0  0  0  0  0  0  0  0
   -3.4125   22.4018  -31.0002 H   0  0  0  0  0  0  0  0  0  0  0  0
   -1.6374   22.1299  -31.2903 H   0  0  0  0  0  0  0  0  0  0  0  0
   -3.5761   20.5939  -29.6334 H   0  0  0  0  0  0  0  0  0  0  0  0
   -2.0402   20.0924  -30.5126 H   0  0  0  0  0  0  0  0  0  0  0  0
   -2.0818   21.6456  -26.5249 H   0  0  0  0  0  0  0  0  0  0  0  0
   -3.4451   21.8372  -27.7078 H   0  0  0  0  0  0  0  0  0  0  0  0
   -4.4030   20.0560  -26.5130 H   0  0  0  0  0  0  0  0  0  0  0  0
  1  2  2  0
  2  3  1  0
  3  4  1  0
  4  5  1  0
  5  6  1  0
  6  7  1  0
  7  8  1  0
  8  9  1  0
  9 10  2  0
  9 11  1  0
 11 12  1  0
 12 13  2  0
 13 14  1  0
 14 15  2  0
 15 16  1  0
 16 17  2  0
  8 18  1  0
 18 19  1  0
  5 20  1  0
 20 21  1  0
 21  2  1  0
 19  5  1  0
 17 12  1  0
  3 22  1  0
  3 23  1  0
  4 24  1  0
  4 25  1  0
  6 26  1  0
  6 27  1  0
  7 28  1  0
  7 29  1  0
 13 30  1  0
 14 31  1  0
 15 32  1  0
 16 33  1  0
 17 34  1  0
 18 35  1  0
 18 36  1  0
 19 37  1  0
 19 38  1  0
 20 39  1  0
 20 40  1  0
 21 41  1  0
M  CHG  1  11  -1
M  END
>  <UniqueID>  (4) 
4

>  <SMILES>  (4) 
O=C1CCC2(CCN(C(=O)[N-]c3ccccc3)CC2)CN1

>  <Energy>  (4) 
54.88532307283357

>  <Genealogy>  (4) 
O=C1CCC2(CCN(C(=O)[N-]c3ccccc3)CC2)CN1 (protonated)
O=C1CCC2(CCN(C(=O)[N-]c3ccccc3)CC2)CN1 (3D coordinates assigned)
O=C1CCC2(CCN(C(=O)[N-]c3ccccc3)CC2)CN1 (nonaromatic ring conformer: 54.88532307283357 kcal/mol)

>  <smiles>  (4) 
O=C1CCC2(CCN(C(=O)Nc3ccccc3)CC2)CN1

>  <score_type>  (4) 
oracle

>  <origin>  (4) 
adg

>  <m_score__min__energy>  (4) 
-8.6300000000000008

>  <m_primary>  (4) 
energy

$$$$
4:0
     RDKit          3D

 43 45  0  0  0  0  0  0  0  0999 V2000
   -9.1000   21.5210  -30.8710 C   0  0  0  0  0  0  0  0  0  0  0  0
   -9.2630   20.9750  -32.2880 C   0  0  0  0  0  0  0  0  0  0  0  0
   -9.0020   19.4650  -32.3590 C   0  0  0  0  0  0  0  0  0  0  0  0
   -7.7520   19.1720  -33.0800 N   0  0  0  0  0  0  0  0  0  0  0  0
   -7.3310   17.7790  -32.8850 C   0  0  0  0  0  0  0  0  0  0  0  0
   -6.0540   17.7350  -32.0480 C   0  0  0  0  0  0  0  0  0  0  0  0
   -5.3760   19.0320  -32.0890 N   0  0  0  0  0  0  0  0  0  0  0  0
   -5.8230   20.1750  -31.5170 C   0  0  0  0  0  0  0  0  0  0  0  0
   -4.9650   21.2320  -31.8120 C   0  0  0  0  0  0  0  0  0  0  0  0
   -5.1360   22.6350  -31.3780 C   0  0  0  0  0  0  0  0  0  0  0  0
   -6.3660   23.2950  -31.5430 C   0  0  0  0  0  0  0  0  0  0  0  0
   -6.5210   24.6170  -31.1160 C   0  0  0  0  0  0  0  0  0  0  0  0
   -5.4530   25.2890  -30.5130 C   0  0  0  0  0  0  0  0  0  0  0  0
   -5.6080   26.5720  -30.0990 F   0  0  0  0  0  0  0  0  0  0  0  0
   -4.2320   24.6350  -30.3290 C   0  0  0  0  0  0  0  0  0  0  0  0
   -3.1970   25.2820  -29.7380 F   0  0  0  0  0  0  0  0  0  0  0  0
   -4.0740   23.3120  -30.7540 C   0  0  0  0  0  0  0  0  0  0  0  0
   -3.9560   20.6880  -32.5950 C   0  0  0  0  0  0  0  0  0  0  0  0
   -2.8010   21.2530  -33.1400 C   0  0  0  0  0  0  0  0  0  0  0  0
   -1.9510   20.4250  -33.8950 C   0  0  0  0  0  0  0  0  0  0  0  0
   -0.4930   21.0890  -34.6070 Cl  0  0  0  0  0  0  0  0  0  0  0  0
   -2.2630   19.0600  -34.0770 C   0  0  0  0  0  0  0  0  0  0  0  0
   -3.4180   18.5090  -33.4980 C   0  0  0  0  0  0  0  0  0  0  0  0
   -4.2450   19.3530  -32.7500 C   0  0  0  0  0  0  0  0  0  0  0  0
   -9.3361   20.7301  -30.1439 H   0  0  0  0  0  0  0  0  0  0  0  0
   -8.0626   21.8562  -30.7243 H   0  0  0  0  0  0  0  0  0  0  0  0
   -9.7839   22.3700  -30.7243 H   0  0  0  0  0  0  0  0  0  0  0  0
  -10.2899   21.1737  -32.6286 H   0  0  0  0  0  0  0  0  0  0  0  0
   -8.5247   21.4766  -32.9309 H   0  0  0  0  0  0  0  0  0  0  0  0
   -8.9282   19.0656  -31.3367 H   0  0  0  0  0  0  0  0  0  0  0  0
   -9.8347   18.9936  -32.9016 H   0  0  0  0  0  0  0  0  0  0  0  0
   -7.9370   19.3060  -34.1020 H   0  0  0  0  0  0  0  0  0  0  0  0
   -8.1274   17.2265  -32.3649 H   0  0  0  0  0  0  0  0  0  0  0  0
   -7.1382   17.3180  -33.8650 H   0  0  0  0  0  0  0  0  0  0  0  0
   -6.3108   17.4923  -31.0063 H   0  0  0  0  0  0  0  0  0  0  0  0
   -5.3826   16.9666  -32.4588 H   0  0  0  0  0  0  0  0  0  0  0  0
   -6.7341   20.2572  -30.9062 H   0  0  0  0  0  0  0  0  0  0  0  0
   -7.2110   22.7684  -32.0106 H   0  0  0  0  0  0  0  0  0  0  0  0
   -7.4844   25.1295  -31.2545 H   0  0  0  0  0  0  0  0  0  0  0  0
   -3.1136   22.7986  -30.5991 H   0  0  0  0  0  0  0  0  0  0  0  0
   -2.5628   22.3154  -32.9832 H   0  0  0  0  0  0  0  0  0  0  0  0
   -1.5963   18.4231  -34.6769 H   0  0  0  0  0  0  0  0  0  0  0  0
   -3.6648   17.4451  -33.6290 H   0  0  0  0  0  0  0  0  0  0  0  0
  1  2  1  0
  2  3  1  0
  3  4  1  0
  4  5  1  0
  5  6  1  0
  6  7  1  0
  7  8  1  0
  8  9  2  0
  9 10  1  0
 10 11  2  0
 11 12  1  0
 12 13  2  0
 13 14  1  0
 13 15  1  0
 15 16  1  0
 15 17  2  0
  9 18  1  0
 18 19  2  0
 19 20  1  0
 20 21  1  0
 20 22  2  0
 22 23  1  0
 23 24  2  0
 24  7  1  0
 17 10  1  0
 24 18  1  0
  1 25  1  0
  1 26  1  0
  1 27  1  0
  2 28  1  0
  2 29  1  0
  3 30  1  0
  3 31  1  0
  4 32  1  0
  5 33  1  0
  5 34  1  0
  6 35  1  0
  6 36  1  0
  8 37  1  0
 11 38  1  0
 12 39  1  0
 17 40  1  0
 19 41  1  0
 22 42  1  0
 23 43  1  0
M  END
>  <UniqueID>  (5) 
5

>  <SMILES>  (5) 
CCCNCCn1cc(-c2ccc(F)c(F)c2)c2cc(Cl)ccc21

>  <Energy>  (5) 
75.27368392094762

>  <Genealogy>  (5) 
CCCNCCn1cc(-c2ccc(F)c(F)c2)c2cc(Cl)ccc21 (3D coordinates assigned)
CCCNCCn1cc(-c2ccc(F)c(F)c2)c2cc(Cl)ccc21 (optimized conformer: 75.27368392094762 kcal/mol)

>  <smiles>  (5) 
CCCNCCn1cc(-c2ccc(F)c(F)c2)c2cc(Cl)ccc21

>  <score_type>  (5) 
oracle

>  <origin>  (5) 
adg

>  <m_score__min__energy>  (5) 
-8.3399999999999999

>  <m_primary>  (5) 
energy

$$$$
5:0
     RDKit          3D

 42 45  0  0  0  0  0  0  0  0999 V2000
   -6.2630   25.4330  -29.7260 C   0  0  0  0  0  0  0  0  0  0  0  0
   -5.3410   24.2510  -29.4530 C   0  0  0  0  0  0  0  0  0  0  0  0
   -5.8670   23.0630  -30.0370 O   0  0  0  0  0  0  0  0  0  0  0  0
   -7.2350   22.8480  -30.2530 C   0  0  0  0  0  0  0  0  0  0  0  0
   -7.9870   22.5080  -29.2990 O   0  0  0  0  0  0  0  0  0  0  0  0
   -7.8110   22.9670  -31.6430 C   0  0  2  0  0  0  0  0  0  0  0  0
   -9.1900   22.2980  -31.7340 C   0  0  0  0  0  0  0  0  0  0  0  0
   -9.1080   20.7840  -31.5040 C   0  0  0  0  0  0  0  0  0  0  0  0
   -7.9860   20.1300  -32.2750 C   0  0  0  0  0  0  0  0  0  0  0  0
   -7.9810   18.7320  -32.3980 C   0  0  0  0  0  0  0  0  0  0  0  0
   -6.9290   18.0790  -33.0430 C   0  0  0  0  0  0  0  0  0  0  0  0
   -5.8600   18.8210  -33.5690 C   0  0  0  0  0  0  0  0  0  0  0  0
   -5.8480   20.2140  -33.4420 C   0  0  0  0  0  0  0  0  0  0  0  0
   -6.8950   20.8780  -32.7820 C   0  0  0  0  0  0  0  0  0  0  0  0
   -6.8700   22.3890  -32.7160 C   0  0  0  0  0  0  0  0  0  0  0  0
   -4.7890   18.1350  -34.2330 N   0  0  0  0  0  0  0  0  0  0  0  0
   -4.8170   16.7060  -34.3480 C   0  0  0  0  0  0  0  0  0  0  0  0
   -3.7810   16.0130  -34.9910 C   0  0  0  0  0  0  0  0  0  0  0  0
   -3.8300   14.6190  -35.0910 C   0  0  0  0  0  0  0  0  0  0  0  0
   -4.9100   13.9130  -34.5510 C   0  0  0  0  0  0  0  0  0  0  0  0
   -5.9460   14.5990  -33.9090 C   0  0  0  0  0  0  0  0  0  0  0  0
   -5.9030   15.9930  -33.8060 C   0  0  0  0  0  0  0  0  0  0  0  0
   -6.9390   16.6840  -33.1640 O   0  0  0  0  0  0  0  0  0  0  0  0
   -6.5991   25.8639  -28.7714 H   0  0  0  0  0  0  0  0  0  0  0  0
   -5.7195   26.1966  -30.3018 H   0  0  0  0  0  0  0  0  0  0  0  0
   -7.1359   25.0918  -30.3018 H   0  0  0  0  0  0  0  0  0  0  0  0
   -4.3500   24.4579  -29.8833 H   0  0  0  0  0  0  0  0  0  0  0  0
   -5.2595   24.1070  -28.3655 H   0  0  0  0  0  0  0  0  0  0  0  0
   -7.9254   24.0427  -31.8422 H   0  0  0  0  0  0  0  0  0  0  0  0
   -9.8497   22.7382  -30.9717 H   0  0  0  0  0  0  0  0  0  0  0  0
   -9.5849   22.4679  -32.7465 H   0  0  0  0  0  0  0  0  0  0  0  0
   -8.9495   20.6005  -30.4311 H   0  0  0  0  0  0  0  0  0  0  0  0
  -10.0517   20.3454  -31.8606 H   0  0  0  0  0  0  0  0  0  0  0  0
   -8.8136   18.1454  -31.9824 H   0  0  0  0  0  0  0  0  0  0  0  0
   -5.0127   20.7935  -33.8620 H   0  0  0  0  0  0  0  0  0  0  0  0
   -5.8429   22.7117  -32.4903 H   0  0  0  0  0  0  0  0  0  0  0  0
   -7.2173   22.7636  -33.6902 H   0  0  0  0  0  0  0  0  0  0  0  0
   -3.9870   18.6750  -34.6310 H   0  0  0  0  0  0  0  0  0  0  0  0
   -2.9304   16.5657  -35.4164 H   0  0  0  0  0  0  0  0  0  0  0  0
   -3.0171   14.0763  -35.5956 H   0  0  0  0  0  0  0  0  0  0  0  0
   -4.9446   12.8165  -34.6314 H   0  0  0  0  0  0  0  0  0  0  0  0
   -6.7946   14.0421  -33.4851 H   0  0  0  0  0  0  0  0  0  0  0  0
  1  2  1  0
  2  3  1  0
  3  4  1  0
  4  5  2  0
  4  6  1  0
  6  7  1  0
  7  8  1  0
  8  9  1  0
  9 10  2  0
 10 11  1  0
 11 12  2  0
 12 13  1  0
 13 14  2  0
 14 15  1  0
 12 16  1  0
 16 17  1  0
 17 18  2  0
 18 19  1  0
 19 20  2  0
 20 21  1  0
 21 22  2  0
 22 23  1  0
 15  6  1  0
 22 17  1  0
 14  9  1  0
 23 11  1  0
  1 24  1  0
  1 25  1  0
  1 26  1  0
  2 27  1  0
  2 28  1  0
  6 29  1  6
  7 30  1  0
  7 31  1  0
  8 32  1  0
  8 33  1  0
 10 34  1  0
 13 35  1  0
 15 36  1  0
 15 37  1  0
 16 38  1  0
 18 39  1  0
 19 40  1  0
 20 41  1  0
 21 42  1  0
M  END
>  <UniqueID>  (6) 
6

>  <SMILES>  (6) 
CCOC(=O)[C@@H]1CCc2cc3c(cc2C1)Nc1ccccc1O3

>  <Energy>  (6) 
42.2687725447384

>  <Genealogy>  (6) 
CCOC(=O)[C@@H]1CCc2cc3c(cc2C1)Nc1ccccc1O3 (chirality)
CCOC(=O)[C@@H]1CCc2cc3c(cc2C1)Nc1ccccc1O3 (3D coordinates assigned)
CCOC(=O)[C@@H]1CCc2cc3c(cc2C1)Nc1ccccc1O3 (nonaromatic ring conformer: 42.2687725447384 kcal/mol)

>  <smiles>  (6) 
CCOC(=O)C1CCc2cc3c(cc2C1)Nc1ccccc1O3

>  <score_type>  (6) 
oracle

>  <origin>  (6) 
adg

>  <m_score__min__energy>  (6) 
-7.6299999999999999

>  <m_primary>  (6) 
energy

$$$$
6:0
     RDKit          3D

 32 33  0  0  0  0  0  0  0  0999 V2000
   -5.3440   17.9380  -34.8600 C   0  0  0  0  0  0  0  0  0  0  0  0
   -5.8580   19.0620  -34.0780 C   0  0  0  0  0  0  0  0  0  0  0  0
   -6.2810   19.9880  -33.4330 C   0  0  0  0  0  0  0  0  0  0  0  0
   -6.7840   21.0930  -32.6610 C   0  0  0  0  0  0  0  0  0  0  0  0
   -8.1180   21.1040  -32.2390 C   0  0  0  0  0  0  0  0  0  0  0  0
   -8.6100   22.1820  -31.4990 C   0  0  0  0  0  0  0  0  0  0  0  0
   -7.7740   23.2590  -31.1880 C   0  0  0  0  0  0  0  0  0  0  0  0
   -6.4370   23.2650  -31.6190 C   0  0  0  0  0  0  0  0  0  0  0  0
   -5.5470   24.4510  -31.3280 C   0  0  0  0  0  0  0  0  0  0  0  0
   -4.1280   24.0780  -31.2060 N   0  0  0  0  0  0  0  0  0  0  0  0
   -3.8380   23.2210  -30.0430 C   0  0  0  0  0  0  0  0  0  0  0  0
   -3.2590   23.9970  -28.8920 C   0  0  0  0  0  0  0  0  0  0  0  0
   -3.8020   24.0860  -27.6160 C   0  0  0  0  0  0  0  0  0  0  0  0
   -3.0490   24.8870  -26.7490 C   0  0  0  0  0  0  0  0  0  0  0  0
   -1.9050   25.4170  -27.3330 C   0  0  0  0  0  0  0  0  0  0  0  0
   -1.8330   24.8900  -28.9270 S   0  0  0  0  0  0  0  0  0  0  0  0
   -5.9420   22.1660  -32.3430 C   0  0  0  0  0  0  0  0  0  0  0  0
   -4.9845   17.1519  -34.1796 H   0  0  0  0  0  0  0  0  0  0  0  0
   -6.1472   17.5348  -35.4943 H   0  0  0  0  0  0  0  0  0  0  0  0
   -4.5136   18.2819  -35.4943 H   0  0  0  0  0  0  0  0  0  0  0  0
   -8.7804   20.2625  -32.4903 H   0  0  0  0  0  0  0  0  0  0  0  0
   -9.6566   22.1836  -31.1605 H   0  0  0  0  0  0  0  0  0  0  0  0
   -8.1649   24.1049  -30.6035 H   0  0  0  0  0  0  0  0  0  0  0  0
   -5.6508   25.1785  -32.1465 H   0  0  0  0  0  0  0  0  0  0  0  0
   -5.8636   24.8764  -30.3642 H   0  0  0  0  0  0  0  0  0  0  0  0
   -3.5170   24.9290  -31.2140 H   0  0  0  0  0  0  0  0  0  0  0  0
   -4.7727   22.7440  -29.7133 H   0  0  0  0  0  0  0  0  0  0  0  0
   -3.0931   22.4735  -30.3534 H   0  0  0  0  0  0  0  0  0  0  0  0
   -4.7307   23.5779  -27.3170 H   0  0  0  0  0  0  0  0  0  0  0  0
   -3.3359   25.0786  -25.7045 H   0  0  0  0  0  0  0  0  0  0  0  0
   -1.1719   26.0699  -26.8368 H   0  0  0  0  0  0  0  0  0  0  0  0
   -4.8891   22.1489  -32.6609 H   0  0  0  0  0  0  0  0  0  0  0  0
  1  2  1  0
  2  3  3  0
  3  4  1  0
  4  5  2  0
  5  6  1  0
  6  7  2  0
  7  8  1  0
  8  9  1  0
  9 10  1  0
 10 11  1  0
 11 12  1  0
 12 13  2  0
 13 14  1  0
 14 15  2  0
 15 16  1  0
  8 17  2  0
 17  4  1  0
 16 12  1  0
  1 18  1  0
  1 19  1  0
  1 20  1  0
  5 21  1  0
  6 22  1  0
  7 23  1  0
  9 24  1  0
  9 25  1  0
 10 26  1  0
 11 27  1  0
 11 28  1  0
 13 29  1  0
 14 30  1  0
 15 31  1  0
 17 32  1  0
M  END
>  <UniqueID>  (7) 
7

>  <SMILES>  (7) 
CC#Cc1cccc(CNCc2cccs2)c1

>  <Energy>  (7) 
51.137664512839514

>  <Genealogy>  (7) 
CC#Cc1cccc(CNCc2cccs2)c1 (3D coordinates assigned)
CC#Cc1cccc(CNCc2cccs2)c1 (optimized conformer: 51.137664512839514 kcal/mol)

>  <smiles>  (7) 
CC#Cc1cccc(CNCc2cccs2)c1

>  <score_type>  (7) 
oracle

>  <origin>  (7) 
adg

>  <m_score__min__energy>  (7) 
-6.8700000000000001

>  <m_primary>  (7) 
energy

$$$$
7:0
     RDKit          3D

 37 39  0  0  0  0  0  0  0  0999 V2000
   -1.2350   21.2910  -26.8840 Cl  0  0  0  0  0  0  0  0  0  0  0  0
   -1.7270   21.3800  -28.5650 C   0  0  0  0  0  0  0  0  0  0  0  0
   -1.2330   22.4000  -29.3860 C   0  0  0  0  0  0  0  0  0  0  0  0
   -1.6270   22.4710  -30.7270 C   0  0  0  0  0  0  0  0  0  0  0  0
   -2.5210   21.5290  -31.2480 C   0  0  0  0  0  0  0  0  0  0  0  0
   -3.0310   21.6320  -32.9630 S   0  0  0  0  0  0  0  0  0  0  0  0
   -4.6410   20.8990  -32.6380 C   0  0  0  0  0  0  0  0  0  0  0  0
   -4.9520   19.6710  -33.2370 C   0  0  0  0  0  0  0  0  0  0  0  0
   -6.1740   19.0460  -32.9790 C   0  0  0  0  0  0  0  0  0  0  0  0
   -7.1000   19.6480  -32.1240 C   0  0  0  0  0  0  0  0  0  0  0  0
   -8.7720   18.7940  -31.7720 Br  0  0  0  0  0  0  0  0  0  0  0  0
   -6.8070   20.8810  -31.5340 C   0  0  0  0  0  0  0  0  0  0  0  0
   -5.5820   21.5200  -31.7880 C   0  0  0  0  0  0  0  0  0  0  0  0
   -5.3210   22.8070  -31.2020 N   0  0  0  0  0  0  0  0  0  0  0  0
   -5.8290   23.9960  -31.8990 C   0  0  0  0  0  0  0  0  0  0  0  0
   -5.5320   25.2710  -31.1050 C   0  0  0  0  0  0  0  0  0  0  0  0
   -4.2080   25.1860  -30.4820 N   0  0  0  0  0  0  0  0  0  0  0  0
   -4.1830   24.1620  -29.4250 C   0  0  0  0  0  0  0  0  0  0  0  0
   -4.9700   22.8780  -29.7780 C   0  0  0  0  0  0  0  0  0  0  0  0
   -3.0030   20.5010  -30.4280 C   0  0  0  0  0  0  0  0  0  0  0  0
   -2.6100   20.4280  -29.0880 C   0  0  0  0  0  0  0  0  0  0  0  0
   -0.5352   23.1457  -28.9774 H   0  0  0  0  0  0  0  0  0  0  0  0
   -1.2329   23.2693  -31.3731 H   0  0  0  0  0  0  0  0  0  0  0  0
   -4.2283   19.1957  -33.9155 H   0  0  0  0  0  0  0  0  0  0  0  0
   -6.4073   18.0793  -33.4493 H   0  0  0  0  0  0  0  0  0  0  0  0
   -7.5413   21.3545  -30.8657 H   0  0  0  0  0  0  0  0  0  0  0  0
   -5.3474   24.0670  -32.8854 H   0  0  0  0  0  0  0  0  0  0  0  0
   -6.9193   23.8981  -32.0064 H   0  0  0  0  0  0  0  0  0  0  0  0
   -5.5585   26.1358  -31.7842 H   0  0  0  0  0  0  0  0  0  0  0  0
   -6.2911   25.3868  -30.3174 H   0  0  0  0  0  0  0  0  0  0  0  0
   -3.5010   24.9360  -31.2150 H   0  0  0  0  0  0  0  0  0  0  0  0
   -3.1354   23.8851  -29.2356 H   0  0  0  0  0  0  0  0  0  0  0  0
   -4.6695   24.6023  -28.5421 H   0  0  0  0  0  0  0  0  0  0  0  0
   -4.3522   22.0043  -29.5230 H   0  0  0  0  0  0  0  0  0  0  0  0
   -5.9077   22.8921  -29.2030 H   0  0  0  0  0  0  0  0  0  0  0  0
   -3.6926   19.7490  -30.8392 H   0  0  0  0  0  0  0  0  0  0  0  0
   -2.9946   19.6226  -28.4450 H   0  0  0  0  0  0  0  0  0  0  0  0
  1  2  1  0
  2  3  2  0
  3  4  1  0
  4  5  2  0
  5  6  1  0
  6  7  1  0
  7  8  2  0
  8  9  1  0
  9 10  2  0
 10 11  1  0
 10 12  1  0
 12 13  2  0
 13 14  1  0
 14 15  1  0
 15 16  1  0
 16 17  1  0
 17 18  1  0
 18 19  1  0
  5 20  1  0
 20 21  2  0
 21  2  1  0
 13  7  1  0
 19 14  1  0
  3 22  1  0
  4 23  1  0
  8 24  1  0
  9 25  1  0
 12 26  1  0
 15 27  1  0
 15 28  1  0
 16 29  1  0
 16 30  1  0
 17 31  1  0
 18 32  1  0
 18 33  1  0
 19 34  1  0
 19 35  1  0
 20 36  1  0
 21 37  1  0
M  END
>  <UniqueID>  (8) 
8

>  <SMILES>  (8) 
Clc1ccc(Sc2ccc(Br)cc2N2CCNCC2)cc1

>  <Energy>  (8) 
42.082729096437376

>  <Genealogy>  (8) 
Clc1ccc(Sc2ccc(Br)cc2N2CCNCC2)cc1 (3D coordinates assigned)
Clc1ccc(Sc2ccc(Br)cc2N2CCNCC2)cc1 (nonaromatic ring conformer: 42.082729096437376 kcal/mol)

>  <smiles>  (8) 
Clc1ccc(Sc2ccc(Br)cc2N2CCNCC2)cc1

>  <score_type>  (8) 
oracle

>  <origin>  (8) 
adg

>  <m_score__min__energy>  (8) 
-8.2899999999999991

>  <m_primary>  (8) 
energy

$$$$
8:0
     RDKit          3D

 49 52  0  0  0  0  0  0  0  0999 V2000
   -1.5810   21.2760  -29.6610 C   0  0  0  0  0  0  0  0  0  0  0  0
   -2.8730   21.2530  -28.8560 C   0  0  0  0  0  0  0  0  0  0  0  0
   -3.1790   22.5930  -28.3430 N   0  0  0  0  0  0  0  0  0  0  0  0
   -4.2570   23.3810  -28.6190 C   0  0  0  0  0  0  0  0  0  0  0  0
   -5.3590   23.0440  -29.5850 C   0  0  0  0  0  0  0  0  0  0  0  0
   -5.0540   23.6140  -30.9130 N   0  0  0  0  0  0  0  0  0  0  0  0
   -6.1990   23.5930  -31.8300 C   0  0  0  0  0  0  0  0  0  0  0  0
   -6.6540   22.1700  -32.1530 C   0  0  0  0  0  0  0  0  0  0  0  0
   -5.5480   21.2190  -32.3800 N   0  0  0  0  0  0  0  0  0  0  0  0
   -5.8650   19.8620  -32.8270 C   0  0  0  0  0  0  0  0  0  0  0  0
   -6.9110   19.1170  -32.2260 C   0  0  0  0  0  0  0  0  0  0  0  0
   -7.2100   17.8210  -32.6550 C   0  0  0  0  0  0  0  0  0  0  0  0
   -6.4770   17.2330  -33.6860 C   0  0  0  0  0  0  0  0  0  0  0  0
   -6.8570   15.6050  -34.2170 Cl  0  0  0  0  0  0  0  0  0  0  0  0
   -5.4400   17.9420  -34.2890 C   0  0  0  0  0  0  0  0  0  0  0  0
   -5.1330   19.2390  -33.8680 C   0  0  0  0  0  0  0  0  0  0  0  0
   -4.1450   21.5470  -32.0390 C   0  0  0  0  0  0  0  0  0  0  0  0
   -3.8930   22.9920  -31.5630 C   0  0  0  0  0  0  0  0  0  0  0  0
   -4.2480   24.5370  -27.9100 N   0  0  0  0  0  0  0  0  0  0  0  0
   -3.1410   24.4600  -27.1560 C   0  0  0  0  0  0  0  0  0  0  0  0
   -2.6730   25.3800  -26.2200 C   0  0  0  0  0  0  0  0  0  0  0  0
   -1.4920   25.0580  -25.5260 C   0  0  0  0  0  0  0  0  0  0  0  0
   -0.8220   23.8380  -25.7770 C   0  0  0  0  0  0  0  0  0  0  0  0
   -1.3260   22.9310  -26.7270 C   0  0  0  0  0  0  0  0  0  0  0  0
   -2.4940   23.2830  -27.4070 C   0  0  0  0  0  0  0  0  0  0  0  0
   -0.7216   21.2913  -28.9746 H   0  0  0  0  0  0  0  0  0  0  0  0
   -1.5280   20.3787  -30.2950 H   0  0  0  0  0  0  0  0  0  0  0  0
   -1.5600   22.1747  -30.2950 H   0  0  0  0  0  0  0  0  0  0  0  0
   -3.6968   20.9152  -29.5020 H   0  0  0  0  0  0  0  0  0  0  0  0
   -2.7524   20.5644  -28.0067 H   0  0  0  0  0  0  0  0  0  0  0  0
   -5.4490   21.9509  -29.6690 H   0  0  0  0  0  0  0  0  0  0  0  0
   -6.3054   23.4674  -29.2174 H   0  0  0  0  0  0  0  0  0  0  0  0
   -7.0354   24.1354  -31.3649 H   0  0  0  0  0  0  0  0  0  0  0  0
   -5.8868   24.0695  -32.7710 H   0  0  0  0  0  0  0  0  0  0  0  0
   -7.2588   21.8016  -31.3113 H   0  0  0  0  0  0  0  0  0  0  0  0
   -7.2221   22.2251  -33.0933 H   0  0  0  0  0  0  0  0  0  0  0  0
   -7.4960   19.5659  -31.4097 H   0  0  0  0  0  0  0  0  0  0  0  0
   -8.0277   17.2616  -32.1771 H   0  0  0  0  0  0  0  0  0  0  0  0
   -4.8599   17.4785  -35.1006 H   0  0  0  0  0  0  0  0  0  0  0  0
   -4.3100   19.7848  -34.3526 H   0  0  0  0  0  0  0  0  0  0  0  0
   -3.8241   20.8661  -31.2369 H   0  0  0  0  0  0  0  0  0  0  0  0
   -3.5753   21.4354  -32.9733 H   0  0  0  0  0  0  0  0  0  0  0  0
   -3.0592   22.9802  -30.8456 H   0  0  0  0  0  0  0  0  0  0  0  0
   -3.6697   23.5897  -32.4591 H   0  0  0  0  0  0  0  0  0  0  0  0
   -4.9540   25.3080  -27.9320 H   0  0  0  0  0  0  0  0  0  0  0  0
   -3.2069   26.3229  -26.0306 H   0  0  0  0  0  0  0  0  0  0  0  0
   -1.0869   25.7604  -24.7827 H   0  0  0  0  0  0  0  0  0  0  0  0
    0.0990   23.5968  -25.2260 H   0  0  0  0  0  0  0  0  0  0  0  0
   -0.8172   21.9766  -26.9275 H   0  0  0  0  0  0  0  0  0  0  0  0
  1  2  1  0
  2  3  1  0
  3  4  1  0
  4  5  1  0
  5  6  1  0
  6  7  1  0
  7  8  1  0
  8  9  1  0
  9 10  1  0
 10 11  2  0
 11 12  1  0
 12 13  2  0
 13 14  1  0
 13 15  1  0
 15 16  2  0
  9 17  1  0
 17 18  1  0
  4 19  2  0
 19 20  1  0
 20 21  2  0
 21 22  1  0
 22 23  2  0
 23 24  1  0
 24 25  2  0
 25  3  1  0
 18  6  1  0
 25 20  1  0
 16 10  1  0
  1 26  1  0
  1 27  1  0
  1 28  1  0
  2 29  1  0
  2 30  1  0
  5 31  1  0
  5 32  1  0
  7 33  1  0
  7 34  1  0
  8 35  1  0
  8 36  1  0
 11 37  1  0
 12 38  1  0
 15 39  1  0
 16 40  1  0
 17 41  1  0
 17 42  1  0
 18 43  1  0
 18 44  1  0
 19 45  1  0
 21 46  1  0
 22 47  1  0
 23 48  1  0
 24 49  1  0
M  CHG  1  19   1
M  END
>  <UniqueID>  (9) 
9

>  <SMILES>  (9) 
CCn1c(CN2CCN(c3ccc(Cl)cc3)CC2)[nH+]c2ccccc21

>  <Energy>  (9) 
98.34708234282591

>  <Genealogy>  (9) 
CCn1c(CN2CCN(c3ccc(Cl)cc3)CC2)[nH+]c2ccccc21 (protonated)
CCn1c(CN2CCN(c3ccc(Cl)cc3)CC2)[nH+]c2ccccc21 (3D coordinates assigned)
CCn1c(CN2CCN(c3ccc(Cl)cc3)CC2)[nH+]c2ccccc21 (nonaromatic ring conformer: 98.34708234282591 kcal/mol)

>  <smiles>  (9) 
CCn1c(CN2CCN(c3ccc(Cl)cc3)CC2)nc2ccccc21

>  <score_type>  (9) 
oracle

>  <origin>  (9) 
adg

>  <m_score__min__energy>  (9) 
-7.8200000000000003

>  <m_primary>  (9) 
energy

$$$$
9:0
     RDKit          3D

 45 47  0  0  0  0  0  0  0  0999 V2000
   -8.8330   23.0720  -31.9780 C   0  0  0  0  0  0  0  0  0  0  0  0
   -7.8030   22.6030  -30.9540 C   0  0  0  0  0  0  0  0  0  0  0  0
   -6.5840   22.0920  -31.6310 N   0  0  0  0  0  0  0  0  0  0  0  0
   -5.4430   22.8790  -31.6810 C   0  0  0  0  0  0  0  0  0  0  0  0
   -5.2930   24.1720  -30.8930 C   0  0  0  0  0  0  0  0  0  0  0  0
   -3.8770   24.5230  -30.6810 N   0  0  0  0  0  0  0  0  0  0  0  0
   -3.2110   23.6800  -29.6730 C   0  0  0  0  0  0  0  0  0  0  0  0
   -2.8050   24.4990  -28.4720 C   0  0  0  0  0  0  0  0  0  0  0  0
   -1.6010   25.2210  -28.4760 C   0  0  0  0  0  0  0  0  0  0  0  0
   -1.1740   25.8860  -27.3220 C   0  0  0  0  0  0  0  0  0  0  0  0
   -1.9460   25.8410  -26.1530 C   0  0  0  0  0  0  0  0  0  0  0  0
   -1.4750   26.5360  -24.9090 C   0  0  0  0  0  0  0  0  0  0  0  0
   -3.1830   25.1830  -26.1690 C   0  0  0  0  0  0  0  0  0  0  0  0
   -3.6130   24.5200  -27.3220 C   0  0  0  0  0  0  0  0  0  0  0  0
   -4.3220   22.4540  -32.4060 C   0  0  0  0  0  0  0  0  0  0  0  0
   -4.3100   21.2160  -33.0260 C   0  0  0  0  0  0  0  0  0  0  0  0
   -3.2750   20.8510  -33.6470 O   0  0  0  0  0  0  0  0  0  0  0  0
   -5.4330   20.3860  -32.9390 C   0  0  0  0  0  0  0  0  0  0  0  0
   -5.4160   19.1040  -33.5230 C   0  0  0  0  0  0  0  0  0  0  0  0
   -6.5320   18.2750  -33.4430 C   0  0  0  0  0  0  0  0  0  0  0  0
   -6.4900   16.6740  -34.1590 Cl  0  0  0  0  0  0  0  0  0  0  0  0
   -7.6820   18.7200  -32.8000 C   0  0  0  0  0  0  0  0  0  0  0  0
   -7.7200   19.9880  -32.2190 C   0  0  0  0  0  0  0  0  0  0  0  0
   -6.5900   20.8480  -32.2510 C   0  0  0  0  0  0  0  0  0  0  0  0
   -9.7137   23.4730  -31.4550 H   0  0  0  0  0  0  0  0  0  0  0  0
   -8.3916   23.8579  -32.6085 H   0  0  0  0  0  0  0  0  0  0  0  0
   -9.1360   22.2231  -32.6085 H   0  0  0  0  0  0  0  0  0  0  0  0
   -7.5283   23.4478  -30.3053 H   0  0  0  0  0  0  0  0  0  0  0  0
   -8.2427   21.7904  -30.3571 H   0  0  0  0  0  0  0  0  0  0  0  0
   -5.7823   24.9860  -31.4480 H   0  0  0  0  0  0  0  0  0  0  0  0
   -5.7607   24.0281  -29.9078 H   0  0  0  0  0  0  0  0  0  0  0  0
   -3.3850   24.3760  -31.5930 H   0  0  0  0  0  0  0  0  0  0  0  0
   -3.9029   22.8875  -29.3517 H   0  0  0  0  0  0  0  0  0  0  0  0
   -2.3077   23.2413  -30.1219 H   0  0  0  0  0  0  0  0  0  0  0  0
   -0.9910   25.2639  -29.3904 H   0  0  0  0  0  0  0  0  0  0  0  0
   -0.2278   26.4470  -27.3319 H   0  0  0  0  0  0  0  0  0  0  0  0
   -1.8422   25.9942  -24.0249 H   0  0  0  0  0  0  0  0  0  0  0  0
   -0.3753   26.5577  -24.8952 H   0  0  0  0  0  0  0  0  0  0  0  0
   -1.8623   27.5655  -24.8952 H   0  0  0  0  0  0  0  0  0  0  0  0
   -3.8181   25.1882  -25.2709 H   0  0  0  0  0  0  0  0  0  0  0  0
   -4.5887   24.0121  -27.3294 H   0  0  0  0  0  0  0  0  0  0  0  0
   -3.4427   23.1103  -32.4834 H   0  0  0  0  0  0  0  0  0  0  0  0
   -4.5137   18.7550  -34.0465 H   0  0  0  0  0  0  0  0  0  0  0  0
   -8.5669   18.0685  -32.7491 H   0  0  0  0  0  0  0  0  0  0  0  0
   -8.6429   20.3282  -31.7266 H   0  0  0  0  0  0  0  0  0  0  0  0
  1  2  1  0
  2  3  1  0
  3  4  1  0
  4  5  1  0
  5  6  1  0
  6  7  1  0
  7  8  1  0
  8  9  2  0
  9 10  1  0
 10 11  2  0
 11 12  1  0
 11 13  1  0
 13 14  2  0
  4 15  2  0
 15 16  1  0
 16 17  2  0
 16 18  1  0
 18 19  2  0
 19 20  1  0
 20 21  1  0
 20 22  2  0
 22 23  1  0
 23 24  2  0
 24  3  1  0
 14  8  1  0
 24 18  1  0
  1 25  1  0
  1 26  1  0
  1 27  1  0
  2 28  1  0
  2 29  1  0
  5 30  1  0
  5 31  1  0
  6 32  1  0
  7 33  1  0
  7 34  1  0
  9 35  1  0
 10 36  1  0
 12 37  1  0
 12 38  1  0
 12 39  1  0
 13 40  1  0
 14 41  1  0
 15 42  1  0
 19 43  1  0
 22 44  1  0
 23 45  1  0
M  END
>  <UniqueID>  (10) 
10

>  <SMILES>  (10) 
CCn1c(CNCc2ccc(C)cc2)cc(=O)c2cc(Cl)ccc21

>  <Energy>  (10) 
53.38762289125096

>  <Genealogy>  (10) 
CCn1c(CNCc2ccc(C)cc2)cc(=O)c2cc(Cl)ccc21 (3D coordinates assigned)
CCn1c(CNCc2ccc(C)cc2)cc(=O)c2cc(Cl)ccc21 (optimized conformer: 53.38762289125096 kcal/mol)

>  <smiles>  (10) 
CCn1c(CNCc2ccc(C)cc2)cc(=O)c2cc(Cl)ccc21

>  <score_type>  (10) 
oracle

>  <origin>  (10) 
adg

>  <m_score__min__energy>  (10) 
-9.3800000000000008

>  <m_primary>  (10) 
energy

$$$$
10:0
     RDKit          3D

 50 52  0  0  0  0  0  0  0  0999 V2000
   -3.8780   23.6380  -28.0090 C   0  0  0  0  0  0  0  0  0  0  0  0
   -4.9410   23.1350  -28.9830 C   0  0  0  0  0  0  0  0  0  0  0  0
   -4.6680   23.6440  -30.3470 N   0  0  0  0  0  0  0  0  0  0  0  0
   -4.8780   25.1100  -30.4480 C   0  0  0  0  0  0  0  0  0  0  0  0
   -6.1330   25.6170  -29.7250 C   0  0  0  0  0  0  0  0  0  0  0  0
   -3.3470   23.1830  -30.8420 C   0  0  0  0  0  0  0  0  0  0  0  0
   -3.4810   22.2680  -32.0680 C   0  0  0  0  0  0  0  0  0  0  0  0
   -4.7860   22.4580  -32.7210 N   0  0  0  0  0  0  0  0  0  0  0  0
   -5.4980   21.2040  -32.7990 C   0  0  0  0  0  0  0  0  0  0  0  0
   -4.9110   20.1720  -33.4590 N   0  0  0  0  0  0  0  0  0  0  0  0
   -5.4720   18.9430  -33.5570 C   0  0  0  0  0  0  0  0  0  0  0  0
   -4.7810   17.9310  -34.2350 C   0  0  0  0  0  0  0  0  0  0  0  0
   -5.3190   16.6480  -34.3160 C   0  0  0  0  0  0  0  0  0  0  0  0
   -6.5430   16.3650  -33.7130 C   0  0  0  0  0  0  0  0  0  0  0  0
   -7.2450   17.3670  -33.0370 C   0  0  0  0  0  0  0  0  0  0  0  0
   -6.7310   18.6830  -32.9650 C   0  0  0  0  0  0  0  0  0  0  0  0
   -7.4030   19.7510  -32.3140 C   0  0  0  0  0  0  0  0  0  0  0  0
   -6.7630   21.0050  -32.1890 C   0  0  0  0  0  0  0  0  0  0  0  0
   -7.4330   22.0460  -31.3110 C   0  0  0  0  0  0  0  0  0  0  0  0
   -8.9240   22.1940  -31.6460 C   0  0  0  0  0  0  0  0  0  0  0  0
   -9.6320   20.8630  -31.9850 C   0  0  0  0  0  0  0  0  0  0  0  0
   -8.7860   19.6150  -31.6980 C   0  0  0  0  0  0  0  0  0  0  0  0
   -4.2207   23.4758  -26.9764 H   0  0  0  0  0  0  0  0  0  0  0  0
   -2.9396   23.0884  -28.1745 H   0  0  0  0  0  0  0  0  0  0  0  0
   -3.7079   24.7121  -28.1745 H   0  0  0  0  0  0  0  0  0  0  0  0
   -4.9297   22.0351  -28.9967 H   0  0  0  0  0  0  0  0  0  0  0  0
   -5.9270   23.4968  -28.6559 H   0  0  0  0  0  0  0  0  0  0  0  0
   -4.0023   25.6146  -30.0139 H   0  0  0  0  0  0  0  0  0  0  0  0
   -5.0149   25.3369  -31.5156 H   0  0  0  0  0  0  0  0  0  0  0  0
   -5.9798   25.5551  -28.6375 H   0  0  0  0  0  0  0  0  0  0  0  0
   -6.3230   26.6624  -30.0096 H   0  0  0  0  0  0  0  0  0  0  0  0
   -6.9958   24.9969  -30.0096 H   0  0  0  0  0  0  0  0  0  0  0  0
   -2.7447   24.0611  -31.1180 H   0  0  0  0  0  0  0  0  0  0  0  0
   -2.8645   22.6071  -30.0386 H   0  0  0  0  0  0  0  0  0  0  0  0
   -2.6810   22.5056  -32.7846 H   0  0  0  0  0  0  0  0  0  0  0  0
   -3.4006   21.2218  -31.7379 H   0  0  0  0  0  0  0  0  0  0  0  0
   -4.6240   22.8100  -33.6930 H   0  0  0  0  0  0  0  0  0  0  0  0
   -5.3600   23.1810  -32.2330 H   0  0  0  0  0  0  0  0  0  0  0  0
   -3.8107   18.1495  -34.7050 H   0  0  0  0  0  0  0  0  0  0  0  0
   -4.7770   15.8580  -34.8564 H   0  0  0  0  0  0  0  0  0  0  0  0
   -6.9588   15.3482  -33.7693 H   0  0  0  0  0  0  0  0  0  0  0  0
   -8.2058   17.1301  -32.5567 H   0  0  0  0  0  0  0  0  0  0  0  0
   -7.3321   21.7433  -30.2583 H   0  0  0  0  0  0  0  0  0  0  0  0
   -6.9426   23.0141  -31.4905 H   0  0  0  0  0  0  0  0  0  0  0  0
   -9.4297   22.6425  -30.7782 H   0  0  0  0  0  0  0  0  0  0  0  0
   -8.9848   22.8228  -32.5465 H   0  0  0  0  0  0  0  0  0  0  0  0
  -10.5543   20.8002  -31.3888 H   0  0  0  0  0  0  0  0  0  0  0  0
   -9.8271   20.8731  -33.0675 H   0  0  0  0  0  0  0  0  0  0  0  0
   -8.6860   19.4888  -30.6098 H   0  0  0  0  0  0  0  0  0  0  0  0
   -9.2854   18.7397  -32.1390 H   0  0  0  0  0  0  0  0  0  0  0  0
  1  2  1  0
  2  3  1  0
  3  4  1  0
  4  5  1  0
  3  6  1  0
  6  7  1  0
  7  8  1  0
  8  9  1  0
  9 10  2  0
 10 11  1  0
 11 12  2  0
 12 13  1  0
 13 14  2  0
 14 15  1  0
 15 16  2  0
 16 17  1  0
 17 18  2  0
 18 19  1  0
 19 20  1  0
 20 21  1  0
 21 22  1  0
 18  9  1  0
 16 11  1  0
 22 17  1  0
  1 23  1  0
  1 24  1  0
  1 25  1  0
  2 26  1  0
  2 27  1  0
  4 28  1  0
  4 29  1  0
  5 30  1  0
  5 31  1  0
  5 32  1  0
  6 33  1  0
  6 34  1  0
  7 35  1  0
  7 36  1  0
  8 37  1  0
  8 38  1  0
 12 39  1  0
 13 40  1  0
 14 41  1  0
 15 42  1  0
 19 43  1  0
 19 44  1  0
 20 45  1  0
 20 46  1  0
 21 47  1  0
 21 48  1  0
 22 49  1  0
 22 50  1  0
M  CHG  1   8   1
M  END
>  <UniqueID>  (11) 
11

>  <SMILES>  (11) 
CCN(CC)CC[NH2+]c1nc2ccccc2c2c1CCCC2

>  <Energy>  (11) 
65.25448025751763

>  <Genealogy>  (11) 
CCN(CC)CC[NH2+]c1nc2ccccc2c2c1CCCC2 (protonated)
CCN(CC)CC[NH2+]c1nc2ccccc2c2c1CCCC2 (3D coordinates assigned)
CCN(CC)CC[NH2+]c1nc2ccccc2c2c1CCCC2 (nonaromatic ring conformer: 65.25448025751763 kcal/mol)

>  <smiles>  (11) 
CCN(CC)CCNc1nc2ccccc2c2c1CCCC2

>  <score_type>  (11) 
oracle

>  <origin>  (11) 
adg

>  <m_score__min__energy>  (11) 
-8.8800000000000008

>  <m_primary>  (11) 
energy

$$$$
11:0
     RDKit          3D

 64 68  0  0  0  0  0  0  0  0999 V2000
   -1.2120   19.4950  -27.4870 C   0  0  0  0  0  0  0  0  0  0  0  0
    0.1880   19.1120  -27.9620 C   0  0  0  0  0  0  0  0  0  0  0  0
    0.1860   19.2050  -29.2970 O   0  0  0  0  0  0  0  0  0  0  0  0
   -0.5010   18.9510  -30.4040 C   0  0  0  0  0  0  0  0  0  0  0  0
   -0.4770   17.6220  -30.9310 C   0  0  0  0  0  0  0  0  0  0  0  0
   -1.1020   17.3120  -32.1300 C   0  0  0  0  0  0  0  0  0  0  0  0
   -1.6780   18.2790  -32.8660 C   0  0  0  0  0  0  0  0  0  0  0  0
   -1.6660   19.5490  -32.2730 C   0  0  0  0  0  0  0  0  0  0  0  0
   -2.1070   20.5150  -33.0390 C   0  0  0  0  0  0  0  0  0  0  0  0
   -3.8080   19.8670  -32.8500 C   0  0  0  0  0  0  0  0  0  0  0  0
   -5.1690   19.3160  -31.8070 C   0  0  0  0  0  0  0  0  0  0  0  0
   -5.6440   18.8030  -32.7090 C   0  0  0  0  0  0  0  0  0  0  0  0
   -5.5990   17.4530  -33.1800 C   0  0  0  0  0  0  0  0  0  0  0  0
   -4.6770   17.0760  -34.0320 C   0  0  0  0  0  0  0  0  0  0  0  0
   -3.8280   18.0560  -34.1950 C   0  0  0  0  0  0  0  0  0  0  0  0
   -2.4710   16.8930  -35.3810 C   0  0  0  0  0  0  0  0  0  0  0  0
   -0.6390   16.8960  -35.4670 C   0  0  0  0  0  0  0  0  0  0  0  0
    0.4470   18.3960  -34.5700 C   0  0  0  0  0  0  0  0  0  0  0  0
    1.5460   18.3280  -34.7860 C   0  0  0  0  0  0  0  0  0  0  0  0
    2.2020   19.2250  -34.1260 C   0  0  0  0  0  0  0  0  0  0  0  0
    1.7420   20.3800  -33.4060 C   0  0  0  0  0  0  0  0  0  0  0  0
    0.5190   20.8130  -33.2710 C   0  0  0  0  0  0  0  0  0  0  0  0
   -0.2160   20.1190  -33.7970 C   0  0  0  0  0  0  0  0  0  0  0  0
   -1.2060   20.1650  -31.0490 C   0  0  0  0  0  0  0  0  0  0  0  0
   -1.7660   22.2520  -30.8700 O   0  0  0  0  0  0  0  0  0  0  0  0
   -2.2550   22.9450  -30.0570 C   0  0  0  0  0  0  0  0  0  0  0  0
   -3.5820   22.8140  -29.7170 C   0  0  0  0  0  0  0  0  0  0  0  0
   -3.9660   23.5770  -30.8720 N   0  0  0  0  0  0  0  0  0  0  0  0
   -4.8680   22.7240  -31.7410 C   0  0  0  0  0  0  0  0  0  0  0  0
   -6.0720   23.4160  -32.2840 C   0  0  0  0  0  0  0  0  0  0  0  0
   -6.4450   24.6100  -31.6240 O   0  0  0  0  0  0  0  0  0  0  0  0
   -6.0070   24.6220  -30.2980 C   0  0  0  0  0  0  0  0  0  0  0  0
   -4.5260   24.7830  -30.3660 C   0  0  0  0  0  0  0  0  0  0  0  0
   -1.2370   19.5018  -26.3873 H   0  0  0  0  0  0  0  0  0  0  0  0
   -1.4667   20.4958  -27.8658 H   0  0  0  0  0  0  0  0  0  0  0  0
   -1.9407   18.7632  -27.8658 H   0  0  0  0  0  0  0  0  0  0  0  0
    0.9331   19.8002  -27.5363 H   0  0  0  0  0  0  0  0  0  0  0  0
    0.4475   18.0929  -27.6393 H   0  0  0  0  0  0  0  0  0  0  0  0
    0.0470   16.8305  -30.3752 H   0  0  0  0  0  0  0  0  0  0  0  0
   -1.1266   16.2697  -32.4806 H   0  0  0  0  0  0  0  0  0  0  0  0
   -2.1228   18.0886  -33.8539 H   0  0  0  0  0  0  0  0  0  0  0  0
   -2.3645   21.5520  -33.3002 H   0  0  0  0  0  0  0  0  0  0  0  0
   -5.4323   19.4274  -30.7448 H   0  0  0  0  0  0  0  0  0  0  0  0
   -6.2514   19.4735  -33.3347 H   0  0  0  0  0  0  0  0  0  0  0  0
   -6.3438   16.7258  -32.8245 H   0  0  0  0  0  0  0  0  0  0  0  0
   -4.6262   16.0957  -34.5283 H   0  0  0  0  0  0  0  0  0  0  0  0
   -2.9574   16.1707  -36.0531 H   0  0  0  0  0  0  0  0  0  0  0  0
   -0.1166   16.0895  -36.0024 H   0  0  0  0  0  0  0  0  0  0  0  0
    2.0036   17.5962  -35.4679 H   0  0  0  0  0  0  0  0  0  0  0  0
    3.2924   19.0802  -34.1135 H   0  0  0  0  0  0  0  0  0  0  0  0
    2.5200   20.9747  -32.9049 H   0  0  0  0  0  0  0  0  0  0  0  0
    0.2357   21.7242  -32.7238 H   0  0  0  0  0  0  0  0  0  0  0  0
   -1.6792   22.7954  -29.1317 H   0  0  0  0  0  0  0  0  0  0  0  0
   -2.2252   23.9353  -30.5349 H   0  0  0  0  0  0  0  0  0  0  0  0
   -3.9455   21.7758  -29.7258 H   0  0  0  0  0  0  0  0  0  0  0  0
   -3.9282   23.1138  -28.7168 H   0  0  0  0  0  0  0  0  0  0  0  0
   -4.2737   22.3589  -32.5916 H   0  0  0  0  0  0  0  0  0  0  0  0
   -5.2465   21.9220  -31.0902 H   0  0  0  0  0  0  0  0  0  0  0  0
   -5.8742   23.6605  -33.3381 H   0  0  0  0  0  0  0  0  0  0  0  0
   -6.9097   22.7185  -32.1365 H   0  0  0  0  0  0  0  0  0  0  0  0
   -6.4599   25.4625  -29.7517 H   0  0  0  0  0  0  0  0  0  0  0  0
   -6.2923   23.7019  -29.7669 H   0  0  0  0  0  0  0  0  0  0  0  0
   -4.2735   25.6191  -31.0347 H   0  0  0  0  0  0  0  0  0  0  0  0
   -4.1226   24.9962  -29.3651 H   0  0  0  0  0  0  0  0  0  0  0  0
  1  2  1  0
  2  3  1  0
  3  4  1  0
  4  5  2  0
  5  6  1  0
  6  7  2  0
  7  8  1  0
  8  9  1  0
  9 10  1  0
 10 11  2  0
 11 12  1  0
 12 13  2  0
 13 14  1  0
 14 15  2  0
 15 16  1  0
 16 17  2  0
 17 18  1  0
 18 19  2  0
 19 20  1  0
 20 21  2  0
 21 22  1  0
 22 23  2  0
  8 24  2  0
 24 25  1  0
 25 26  1  0
 26 27  1  0
 27 28  1  0
 28 29  1  0
 29 30  1  0
 30 31  1  0
 31 32  1  0
 32 33  1  0
 24  4  1  0
 33 28  1  0
 23  9  1  0
 15 10  1  0
 23 18  1  0
  1 34  1  0
  1 35  1  0
  1 36  1  0
  2 37  1  0
  2 38  1  0
  5 39  1  0
  6 40  1  0
  7 41  1  0
  9 42  1  0
 11 43  1  0
 12 44  1  0
 13 45  1  0
 14 46  1  0
 16 47  1  0
 17 48  1  0
 19 49  1  0
 20 50  1  0
 21 51  1  0
 22 52  1  0
 26 53  1  0
 26 54  1  0
 27 55  1  0
 27 56  1  0
 29 57  1  0
 29 58  1  0
 30 59  1  0
 30 60  1  0
 32 61  1  0
 32 62  1  0
 33 63  1  0
 33 64  1  0
M  END
>  <UniqueID>  (12) 
12

>  <SMILES>  (12) 
CCOc1cccc(C2c3ccccc3C=Cc3ccccc32)c1OCCN1CCOCC1

>  <Energy>  (12) 
2853.9115168435114

>  <Genealogy>  (12) 
CCOc1cccc(C2c3ccccc3C=Cc3ccccc32)c1OCCN1CCOCC1 (3D coordinates assigned)
CCOc1cccc(C2c3ccccc3C=Cc3ccccc32)c1OCCN1CCOCC1 (nonaromatic ring conformer: 2853.9115168435114 kcal/mol)

>  <smiles>  (12) 
CCOc1cccc(C2c3ccccc3C=Cc3ccccc32)c1OCCN1CCOCC1

>  <score_type>  (12) 
oracle

>  <origin>  (12) 
adg

>  <m_score__min__energy>  (12) 
179.43000000000001

>  <m_primary>  (12) 
energy

$$$$
12:0
     RDKit          3D

 65 66  0  0  0  0  0  0  0  0999 V2000
   -0.1790   17.5590  -31.5890 C   0  0  0  0  0  0  0  0  0  0  0  0
    0.2410   18.5110  -32.7180 C   0  0  0  0  0  0  0  0  0  0  0  0
   -0.7260   18.6490  -33.8430 N   0  0  0  0  0  0  0  0  0  0  0  0
   -0.3640   19.6410  -34.8940 C   0  0  0  0  0  0  0  0  0  0  0  0
   -0.0160   21.0500  -34.3930 C   0  0  0  0  0  0  0  0  0  0  0  0
   -1.3370   17.3790  -34.3300 C   0  0  0  0  0  0  0  0  0  0  0  0
   -2.8680   17.3900  -34.4910 C   0  0  0  0  0  0  0  0  0  0  0  0
   -3.3410   18.7250  -34.4860 O   0  0  0  0  0  0  0  0  0  0  0  0
   -4.4990   18.8420  -33.6830 C   0  0  0  0  0  0  0  0  0  0  0  0
   -4.1300   19.4720  -32.3360 C   0  0  0  0  0  0  0  0  0  0  0  0
   -2.8370   20.1970  -32.4010 N   0  0  0  0  0  0  0  0  0  0  0  0
   -2.1530   20.2630  -31.0850 C   0  0  0  0  0  0  0  0  0  0  0  0
   -2.4760   21.5450  -30.2890 C   0  0  0  0  0  0  0  0  0  0  0  0
   -3.7870   22.0820  -30.7010 N   0  0  0  0  0  0  0  0  0  0  0  0
   -4.2290   23.1860  -29.8230 C   0  0  0  0  0  0  0  0  0  0  0  0
   -4.7990   24.3560  -30.6530 C   0  0  2  0  0  0  0  0  0  0  0  0
   -3.8810   25.4210  -30.6910 O   0  0  0  0  0  0  0  0  0  0  0  0
   -6.1600   24.8500  -30.1250 C   0  0  0  0  0  0  0  0  0  0  0  0
   -7.2390   24.3410  -30.9140 O   0  0  0  0  0  0  0  0  0  0  0  0
   -7.4490   23.0000  -31.2790 C   0  0  0  0  0  0  0  0  0  0  0  0
   -8.3610   22.2530  -30.5220 C   0  0  0  0  0  0  0  0  0  0  0  0
   -8.6220   20.9160  -30.8380 C   0  0  0  0  0  0  0  0  0  0  0  0
   -7.9660   20.3090  -31.9130 C   0  0  0  0  0  0  0  0  0  0  0  0
   -8.3220   18.4840  -32.3440 Br  0  0  0  0  0  0  0  0  0  0  0  0
   -7.0480   21.0410  -32.6700 C   0  0  0  0  0  0  0  0  0  0  0  0
   -6.7850   22.3790  -32.3570 C   0  0  0  0  0  0  0  0  0  0  0  0
   -3.7300   22.5300  -32.1100 C   0  0  0  0  0  0  0  0  0  0  0  0
   -2.9490   21.5420  -33.0060 C   0  0  0  0  0  0  0  0  0  0  0  0
    0.0285   18.0294  -30.6165 H   0  0  0  0  0  0  0  0  0  0  0  0
   -1.2549   17.3453  -31.6708 H   0  0  0  0  0  0  0  0  0  0  0  0
    0.3885   16.6203  -31.6708 H   0  0  0  0  0  0  0  0  0  0  0  0
    0.3932   19.5083  -32.2795 H   0  0  0  0  0  0  0  0  0  0  0  0
    1.1491   18.0719  -33.1567 H   0  0  0  0  0  0  0  0  0  0  0  0
   -1.5420   19.1170  -33.3740 H   0  0  0  0  0  0  0  0  0  0  0  0
    0.5086   19.2517  -35.4390 H   0  0  0  0  0  0  0  0  0  0  0  0
   -1.2640   19.7592  -35.5153 H   0  0  0  0  0  0  0  0  0  0  0  0
   -0.0140   21.0579  -33.2930 H   0  0  0  0  0  0  0  0  0  0  0  0
    0.9796   21.3354  -34.7635 H   0  0  0  0  0  0  0  0  0  0  0  0
   -0.7643   21.7661  -34.7635 H   0  0  0  0  0  0  0  0  0  0  0  0
   -0.8963   17.1469  -35.3108 H   0  0  0  0  0  0  0  0  0  0  0  0
   -1.1238   16.6286  -33.5545 H   0  0  0  0  0  0  0  0  0  0  0  0
   -3.1386   16.9102  -35.4431 H   0  0  0  0  0  0  0  0  0  0  0  0
   -3.3252   16.8394  -33.6556 H   0  0  0  0  0  0  0  0  0  0  0  0
   -5.2364   19.4780  -34.1947 H   0  0  0  0  0  0  0  0  0  0  0  0
   -4.9280   17.8434  -33.5135 H   0  0  0  0  0  0  0  0  0  0  0  0
   -4.9205   20.1797  -32.0457 H   0  0  0  0  0  0  0  0  0  0  0  0
   -4.0312   18.6635  -31.5967 H   0  0  0  0  0  0  0  0  0  0  0  0
   -2.4637   19.3938  -30.4868 H   0  0  0  0  0  0  0  0  0  0  0  0
   -1.0708   20.2675  -31.2818 H   0  0  0  0  0  0  0  0  0  0  0  0
   -2.5008   21.3095  -29.2148 H   0  0  0  0  0  0  0  0  0  0  0  0
   -1.6997   22.2981  -30.4897 H   0  0  0  0  0  0  0  0  0  0  0  0
   -5.0087   22.8143  -29.1419 H   0  0  0  0  0  0  0  0  0  0  0  0
   -3.3617   23.5498  -29.2525 H   0  0  0  0  0  0  0  0  0  0  0  0
   -4.9647   23.9744  -31.6713 H   0  0  0  0  0  0  0  0  0  0  0  0
   -3.7520   25.6700  -31.6440 H   0  0  0  0  0  0  0  0  0  0  0  0
   -6.2854   24.5119  -29.0858 H   0  0  0  0  0  0  0  0  0  0  0  0
   -6.1765   25.9484  -30.1814 H   0  0  0  0  0  0  0  0  0  0  0  0
   -8.8765   22.7225  -29.6712 H   0  0  0  0  0  0  0  0  0  0  0  0
   -9.3444   20.3412  -30.2399 H   0  0  0  0  0  0  0  0  0  0  0  0
   -6.5302   20.5638  -33.5150 H   0  0  0  0  0  0  0  0  0  0  0  0
   -6.0576   22.9487  -32.9540 H   0  0  0  0  0  0  0  0  0  0  0  0
   -4.7566   22.6212  -32.4945 H   0  0  0  0  0  0  0  0  0  0  0  0
   -3.2052   23.4964  -32.1360 H   0  0  0  0  0  0  0  0  0  0  0  0
   -3.4701   21.4528  -33.9706 H   0  0  0  0  0  0  0  0  0  0  0  0
   -1.9305   21.9380  -33.1321 H   0  0  0  0  0  0  0  0  0  0  0  0
  1  2  1  0
  2  3  1  0
  3  4  1  0
  4  5  1  0
  3  6  1  0
  6  7  1  0
  7  8  1  0
  8  9  1  0
  9 10  1  0
 10 11  1  0
 11 12  1  0
 12 13  1  0
 13 14  1  0
 14 15  1  0
 15 16  1  0
 16 17  1  0
 16 18  1  0
 18 19  1  0
 19 20  1  0
 20 21  2  0
 21 22  1  0
 22 23  2  0
 23 24  1  0
 23 25  1  0
 25 26  2  0
 14 27  1  0
 27 28  1  0
 28 11  1  0
 26 20  1  0
  1 29  1  0
  1 30  1  0
  1 31  1  0
  2 32  1  0
  2 33  1  0
  3 34  1  0
  4 35  1  0
  4 36  1  0
  5 37  1  0
  5 38  1  0
  5 39  1  0
  6 40  1  0
  6 41  1  0
  7 42  1  0
  7 43  1  0
  9 44  1  0
  9 45  1  0
 10 46  1  0
 10 47  1  0
 12 48  1  0
 12 49  1  0
 13 50  1  0
 13 51  1  0
 15 52  1  0
 15 53  1  0
 16 54  1  6
 17 55  1  0
 18 56  1  0
 18 57  1  0
 21 58  1  0
 22 59  1  0
 25 60  1  0
 26 61  1  0
 27 62  1  0
 27 63  1  0
 28 64  1  0
 28 65  1  0
M  CHG  1   3   1
M  END
>  <UniqueID>  (13) 
13

>  <SMILES>  (13) 
CC[NH+](CC)CCOCCN1CCN(C[C@H](O)COc2ccc(Br)cc2)CC1

>  <Energy>  (13) 
89.84605601595071

>  <Genealogy>  (13) 
CC[NH+](CC)CCOCCN1CCN(CC(O)COc2ccc(Br)cc2)CC1 (protonated)
CC[NH+](CC)CCOCCN1CCN(C[C@H](O)COc2ccc(Br)cc2)CC1 (chirality)
CC[NH+](CC)CCOCCN1CCN(C[C@H](O)COc2ccc(Br)cc2)CC1 (3D coordinates assigned)
CC[NH+](CC)CCOCCN1CCN(C[C@H](O)COc2ccc(Br)cc2)CC1 (nonaromatic ring conformer: 89.84605601595071 kcal/mol)

>  <smiles>  (13) 
CCN(CC)CCOCCN1CCN(CC(O)COc2ccc(Br)cc2)CC1

>  <score_type>  (13) 
oracle

>  <origin>  (13) 
adg

>  <m_score__min__energy>  (13) 
-7.3200000000000003

>  <m_primary>  (13) 
energy

$$$$
13:0
     RDKit          3D

 32 34  0  0  0  0  0  0  0  0999 V2000
   -5.6360   14.7510  -33.8820 C   0  0  0  0  0  0  0  0  0  0  0  0
   -6.4620   15.8000  -34.3780 O   0  0  0  0  0  0  0  0  0  0  0  0
   -6.4900   17.1010  -33.8540 C   0  0  0  0  0  0  0  0  0  0  0  0
   -5.7360   18.1530  -34.4070 C   0  0  0  0  0  0  0  0  0  0  0  0
   -5.7980   19.4340  -33.8500 C   0  0  0  0  0  0  0  0  0  0  0  0
   -6.6110   19.6890  -32.7310 C   0  0  0  0  0  0  0  0  0  0  0  0
   -6.6770   21.0500  -32.1390 C   0  0  0  0  0  0  0  0  0  0  0  0
   -7.9180   21.6860  -31.9550 C   0  0  0  0  0  0  0  0  0  0  0  0
   -7.9850   22.9660  -31.3970 C   0  0  0  0  0  0  0  0  0  0  0  0
   -6.8140   23.6330  -31.0140 C   0  0  0  0  0  0  0  0  0  0  0  0
   -6.8730   24.9180  -30.4530 C   0  0  0  0  0  0  0  0  0  0  0  0
   -5.6970   25.5740  -30.0780 C   0  0  0  0  0  0  0  0  0  0  0  0
   -4.4580   24.9530  -30.2580 C   0  0  0  0  0  0  0  0  0  0  0  0
   -4.3860   23.6740  -30.8140 C   0  0  0  0  0  0  0  0  0  0  0  0
   -5.5600   23.0040  -31.1950 C   0  0  0  0  0  0  0  0  0  0  0  0
   -5.5000   21.7190  -31.7560 C   0  0  0  0  0  0  0  0  0  0  0  0
   -7.3620   18.6330  -32.1830 C   0  0  0  0  0  0  0  0  0  0  0  0
   -7.2990   17.3540  -32.7420 C   0  0  0  0  0  0  0  0  0  0  0  0
   -5.6468   14.7647  -32.7821 H   0  0  0  0  0  0  0  0  0  0  0  0
   -6.0173   13.7834  -34.2404 H   0  0  0  0  0  0  0  0  0  0  0  0
   -4.6060   14.8947  -34.2404 H   0  0  0  0  0  0  0  0  0  0  0  0
   -5.0951   17.9666  -35.2813 H   0  0  0  0  0  0  0  0  0  0  0  0
   -5.2058   20.2494  -34.2908 H   0  0  0  0  0  0  0  0  0  0  0  0
   -8.8437   21.1718  -32.2527 H   0  0  0  0  0  0  0  0  0  0  0  0
   -8.9620   23.4519  -31.2579 H   0  0  0  0  0  0  0  0  0  0  0  0
   -7.8462   25.4098  -30.3081 H   0  0  0  0  0  0  0  0  0  0  0  0
   -5.7469   26.5818  -29.6400 H   0  0  0  0  0  0  0  0  0  0  0  0
   -3.5359   25.4737  -29.9605 H   0  0  0  0  0  0  0  0  0  0  0  0
   -3.4079   23.1904  -30.9538 H   0  0  0  0  0  0  0  0  0  0  0  0
   -4.5245   21.2307  -31.8975 H   0  0  0  0  0  0  0  0  0  0  0  0
   -8.0034   18.8156  -31.3082 H   0  0  0  0  0  0  0  0  0  0  0  0
   -7.8917   16.5380  -32.3029 H   0  0  0  0  0  0  0  0  0  0  0  0
  1  2  1  0
  2  3  1  0
  3  4  2  0
  4  5  1  0
  5  6  2  0
  6  7  1  0
  7  8  2  0
  8  9  1  0
  9 10  2  0
 10 11  1  0
 11 12  2  0
 12 13  1  0
 13 14  2  0
 14 15  1  0
 15 16  2  0
  6 17  1  0
 17 18  2  0
 18  3  1  0
 16  7  1  0
 15 10  1  0
  1 19  1  0
  1 20  1  0
  1 21  1  0
  4 22  1  0
  5 23  1  0
  8 24  1  0
  9 25  1  0
 11 26  1  0
 12 27  1  0
 13 28  1  0
 14 29  1  0
 16 30  1  0
 17 31  1  0
 18 32  1  0
M  END
>  <UniqueID>  (14) 
14

>  <SMILES>  (14) 
COc1ccc(-c2ccc3ccccc3c2)cc1

>  <Energy>  (14) 
42.37933238301831

>  <Genealogy>  (14) 
COc1ccc(-c2ccc3ccccc3c2)cc1 (3D coordinates assigned)
COc1ccc(-c2ccc3ccccc3c2)cc1 (optimized conformer: 42.37933238301831 kcal/mol)

>  <smiles>  (14) 
COc1ccc(-c2ccc3ccccc3c2)cc1

>  <score_type>  (14) 
oracle

>  <origin>  (14) 
adg

>  <m_score__min__energy>  (14) 
-7.3899999999999997

>  <m_primary>  (14) 
energy

$$$$
14:0
     RDKit          3D

 39 40  0  0  0  0  0  0  0  0999 V2000
   -0.4186   25.8506  -27.5407 H   0  0  0  0  0  0  0  0  0  0  0  0
   -1.0620   25.0810  -27.9920 C   0  0  0  0  0  0  0  0  0  0  0  0
   -1.9460   25.4260  -28.9640 N   0  0  0  0  0  0  0  0  0  0  0  0
   -2.7610   24.5210  -29.5650 C   0  0  0  0  0  0  0  0  0  0  0  0
   -3.5840   24.9440  -30.4840 N   0  0  0  0  0  0  0  0  0  0  0  0
   -4.9690   25.3830  -30.3090 C   0  0  0  0  0  0  0  0  0  0  0  0
   -5.1249   26.3170  -30.8688 H   0  0  0  0  0  0  0  0  0  0  0  0
   -5.1554   25.5439  -29.2369 H   0  0  0  0  0  0  0  0  0  0  0  0
   -5.9460   24.3190  -30.8240 C   0  0  0  0  0  0  0  0  0  0  0  0
   -6.5964   24.7649  -31.5909 H   0  0  0  0  0  0  0  0  0  0  0  0
   -6.5514   23.9526  -29.9819 H   0  0  0  0  0  0  0  0  0  0  0  0
   -5.2100   23.1890  -31.4100 N   0  0  0  0  0  0  0  0  0  0  0  0
   -4.4140   23.5830  -31.9660 H   0  0  0  0  0  0  0  0  0  0  0  0
   -6.0530   22.4200  -32.3340 C   0  0  0  0  0  0  0  0  0  0  0  0
   -5.7893   21.3542  -32.2661 H   0  0  0  0  0  0  0  0  0  0  0  0
   -5.8867   22.7814  -33.3596 H   0  0  0  0  0  0  0  0  0  0  0  0
   -7.5220   22.6000  -31.9730 C   0  0  0  0  0  0  0  0  0  0  0  0
   -7.6316   22.6134  -30.8786 H   0  0  0  0  0  0  0  0  0  0  0  0
   -7.8883   23.5497  -32.3899 H   0  0  0  0  0  0  0  0  0  0  0  0
   -8.1068   21.7668  -32.3899 H   0  0  0  0  0  0  0  0  0  0  0  0
   -2.6870   23.1700  -29.1720 C   0  0  0  0  0  0  0  0  0  0  0  0
   -3.3447   22.4242  -29.6424 H   0  0  0  0  0  0  0  0  0  0  0  0
   -1.7760   22.7750  -28.1820 C   0  0  0  0  0  0  0  0  0  0  0  0
   -1.7010   21.3430  -27.8140 C   0  0  0  0  0  0  0  0  0  0  0  0
   -2.7780   20.7150  -27.1630 C   0  0  0  0  0  0  0  0  0  0  0  0
   -3.6890   21.2874  -26.9339 H   0  0  0  0  0  0  0  0  0  0  0  0
   -2.6950   19.3660  -26.8060 C   0  0  0  0  0  0  0  0  0  0  0  0
   -3.5432   18.8776  -26.3040 H   0  0  0  0  0  0  0  0  0  0  0  0
   -1.5360   18.6370  -27.0860 C   0  0  0  0  0  0  0  0  0  0  0  0
   -1.4736   17.5749  -26.8066 H   0  0  0  0  0  0  0  0  0  0  0  0
   -0.4560   19.2570  -27.7210 C   0  0  0  0  0  0  0  0  0  0  0  0
    0.4570   18.6831  -27.9380 H   0  0  0  0  0  0  0  0  0  0  0  0
   -0.5350   20.6070  -28.0810 C   0  0  0  0  0  0  0  0  0  0  0  0
    0.3191   21.0934  -28.5748 H   0  0  0  0  0  0  0  0  0  0  0  0
   -0.9640   23.7510  -27.5600 C   0  0  0  0  0  0  0  0  0  0  0  0
    0.0110   23.4070  -26.4650 C   0  0  0  0  0  0  0  0  0  0  0  0
   -0.4627   23.5741  -25.4864 H   0  0  0  0  0  0  0  0  0  0  0  0
    0.3051   22.3508  -26.5544 H   0  0  0  0  0  0  0  0  0  0  0  0
    0.9028   24.0448  -26.5544 H   0  0  0  0  0  0  0  0  0  0  0  0
  1  2  1  0
  2  3  1  0
  3  4  1  0
  4  5  2  0
  5  6  1  0
  6  7  1  0
  6  8  1  0
  6  9  1  0
  9 10  1  0
  9 11  1  0
  9 12  1  0
 12 13  1  0
 12 14  1  0
 14 15  1  0
 14 16  1  0
 14 17  1  0
 17 18  1  0
 17 19  1  0
 17 20  1  0
  4 21  1  0
 21 22  1  0
 21 23  2  0
 23 24  1  0
 24 25  2  0
 25 26  1  0
 25 27  1  0
 27 28  1  0
 27 29  2  0
 29 30  1  0
 29 31  1  0
 31 32  1  0
 31 33  2  0
 33 34  1  0
 23 35  1  0
 35 36  1  0
 36 37  1  0
 36 38  1  0
 36 39  1  0
 35  2  2  0
 33 24  1  0
M  CHG  1   3  -1
M  END
>  <UniqueID>  (15) 
15

>  <SMILES>  (15) 
CCNCC/N=c1\cc(-c2ccccc2)c(C)c[n-]1

>  <Energy>  (15) 
43.98804684794234

>  <Genealogy>  (15) 
CCNCCN=c1cc(-c2ccccc2)c(C)c[n-]1 (protonated)
CCNCC/N=c1\cc(-c2ccccc2)c(C)c[n-]1 (cis-trans isomerization)
CCNCC/N=c1\cc(-c2ccccc2)c(C)c[n-]1 (3D coordinates assigned)
CCNCC/N=c1\cc(-c2ccccc2)c(C)c[n-]1 (optimized conformer: 43.98804684794234 kcal/mol)

>  <smiles>  (15) 
CCNCCN=c1cc(-c2ccccc2)c(C)c[nH]1

>  <score_type>  (15) 
oracle

>  <origin>  (15) 
adg

>  <m_score__min__energy>  (15) 
-8.2100000000000009

>  <m_primary>  (15) 
energy

$$$$
15:0
     RDKit          3D

 29 30  0  0  0  0  0  0  0  0999 V2000
   -1.2690   24.8720  -28.4170 C   0  0  0  0  0  0  0  0  0  0  0  0
   -2.2730   24.0740  -29.2410 C   0  0  0  0  0  0  0  0  0  0  0  0
   -3.1080   24.9490  -29.9980 O   0  0  0  0  0  0  0  0  0  0  0  0
   -4.4630   24.6980  -30.2420 C   0  0  0  0  0  0  0  0  0  0  0  0
   -5.0540   25.2410  -31.2150 O   0  0  0  0  0  0  0  0  0  0  0  0
   -5.2120   23.7720  -29.3390 C   0  0  0  0  0  0  0  0  0  0  0  0
   -6.1240   22.8970  -30.1470 C   0  0  0  0  0  0  0  0  0  0  0  0
   -7.4790   22.9660  -30.0330 N   0  0  0  0  0  0  0  0  0  0  0  0
   -7.8910   22.0220  -30.8960 C   0  0  0  0  0  0  0  0  0  0  0  0
   -9.1770   21.6990  -31.1820 N   0  0  0  0  0  0  0  0  0  0  0  0
   -9.4230   20.7230  -32.1070 C   0  0  0  0  0  0  0  0  0  0  0  0
   -8.3550   20.0650  -32.7600 C   0  0  0  0  0  0  0  0  0  0  0  0
   -7.0270   20.4140  -32.4540 C   0  0  0  0  0  0  0  0  0  0  0  0
   -6.8360   21.4090  -31.4970 C   0  0  0  0  0  0  0  0  0  0  0  0
   -5.7000   21.9380  -31.0170 N   0  0  0  0  0  0  0  0  0  0  0  0
   -4.3310   21.6400  -31.4360 C   0  0  0  0  0  0  0  0  0  0  0  0
   -1.4664   24.7151  -27.3463 H   0  0  0  0  0  0  0  0  0  0  0  0
   -0.2492   24.5352  -28.6551 H   0  0  0  0  0  0  0  0  0  0  0  0
   -1.3669   25.9415  -28.6551 H   0  0  0  0  0  0  0  0  0  0  0  0
   -1.7295   23.4085  -29.9279 H   0  0  0  0  0  0  0  0  0  0  0  0
   -2.9028   23.4838  -28.5591 H   0  0  0  0  0  0  0  0  0  0  0  0
   -4.4975   23.1432  -28.7876 H   0  0  0  0  0  0  0  0  0  0  0  0
   -5.8112   24.3631  -28.6308 H   0  0  0  0  0  0  0  0  0  0  0  0
  -10.4608   20.4470  -32.3455 H   0  0  0  0  0  0  0  0  0  0  0  0
   -8.5621   19.2826  -33.5050 H   0  0  0  0  0  0  0  0  0  0  0  0
   -6.1761   19.9228  -32.9487 H   0  0  0  0  0  0  0  0  0  0  0  0
   -3.6974   21.5021  -30.5474 H   0  0  0  0  0  0  0  0  0  0  0  0
   -4.3239   20.7193  -32.0379 H   0  0  0  0  0  0  0  0  0  0  0  0
   -3.9419   22.4745  -32.0379 H   0  0  0  0  0  0  0  0  0  0  0  0
  1  2  1  0
  2  3  1  0
  3  4  1  0
  4  5  2  0
  4  6  1  0
  6  7  1  0
  7  8  2  0
  8  9  1  0
  9 10  2  0
 10 11  1  0
 11 12  2  0
 12 13  1  0
 13 14  2  0
 14 15  1  0
 15 16  1  0
 15  7  1  0
 14  9  1  0
  1 17  1  0
  1 18  1  0
  1 19  1  0
  2 20  1  0
  2 21  1  0
  6 22  1  0
  6 23  1  0
 11 24  1  0
 12 25  1  0
 13 26  1  0
 16 27  1  0
 16 28  1  0
 16 29  1  0
M  END
>  <UniqueID>  (16) 
16

>  <SMILES>  (16) 
CCOC(=O)Cc1nc2ncccc2n1C

>  <Energy>  (16) 
61.779107016924335

>  <Genealogy>  (16) 
CCOC(=O)Cc1nc2ncccc2n1C (3D coordinates assigned)
CCOC(=O)Cc1nc2ncccc2n1C (optimized conformer: 61.779107016924335 kcal/mol)

>  <smiles>  (16) 
CCOC(=O)Cc1nc2ncccc2n1C

>  <score_type>  (16) 
oracle

>  <origin>  (16) 
adg

>  <m_score__min__energy>  (16) 
-6.0999999999999996

>  <m_primary>  (16) 
energy

$$$$
16:0
     RDKit          3D

 47 50  0  0  0  0  0  0  0  0999 V2000
   -0.8520   18.9360  -27.2010 C   0  0  0  0  0  0  0  0  0  0  0  0
   -1.4200   20.2490  -27.6500 C   0  0  0  0  0  0  0  0  0  0  0  0
   -0.5890   21.2140  -28.2410 C   0  0  0  0  0  0  0  0  0  0  0  0
   -1.1250   22.4220  -28.6960 C   0  0  0  0  0  0  0  0  0  0  0  0
   -2.4980   22.6740  -28.5740 C   0  0  0  0  0  0  0  0  0  0  0  0
   -3.1750   24.1710  -29.2090 S   0  0  0  0  0  0  0  0  0  0  0  0
   -4.3880   24.5650  -28.4150 O   0  0  0  0  0  0  0  0  0  0  0  0
   -2.1550   25.2700  -29.1010 O   0  0  0  0  0  0  0  0  0  0  0  0
   -3.6180   23.9470  -30.8420 O   0  0  0  0  0  0  0  0  0  0  0  0
   -4.7770   23.2470  -31.1790 C   0  0  0  0  0  0  0  0  0  0  0  0
   -6.0140   23.8130  -30.8600 C   0  0  0  0  0  0  0  0  0  0  0  0
   -7.1950   23.1330  -31.1410 C   0  0  0  0  0  0  0  0  0  0  0  0
   -7.1590   21.8820  -31.7690 C   0  0  0  0  0  0  0  0  0  0  0  0
   -8.3580   21.2110  -32.0600 C   0  0  0  0  0  0  0  0  0  0  0  0
   -8.3370   19.9720  -32.7100 C   0  0  0  0  0  0  0  0  0  0  0  0
   -9.5620   19.2940  -33.0040 N   0  0  0  0  0  0  0  0  0  0  0  0
   -7.1140   19.4040  -33.0790 C   0  0  0  0  0  0  0  0  0  0  0  0
   -5.9140   20.0600  -32.7940 C   0  0  0  0  0  0  0  0  0  0  0  0
   -5.9130   21.3000  -32.1200 C   0  0  0  0  0  0  0  0  0  0  0  0
   -4.7100   21.9880  -31.8080 C   0  0  0  0  0  0  0  0  0  0  0  0
   -3.3800   21.4050  -32.1020 C   0  0  0  0  0  0  0  0  0  0  0  0
   -2.6600   20.7370  -31.0970 C   0  0  0  0  0  0  0  0  0  0  0  0
   -1.3930   20.2130  -31.3690 C   0  0  0  0  0  0  0  0  0  0  0  0
   -0.8340   20.3570  -32.6420 C   0  0  0  0  0  0  0  0  0  0  0  0
   -1.5410   21.0260  -33.6450 C   0  0  0  0  0  0  0  0  0  0  0  0
   -2.8090   21.5520  -33.3770 C   0  0  0  0  0  0  0  0  0  0  0  0
   -3.3350   21.7020  -28.0070 C   0  0  0  0  0  0  0  0  0  0  0  0
   -2.7990   20.4950  -27.5500 C   0  0  0  0  0  0  0  0  0  0  0  0
   -0.8364   18.9000  -26.1017 H   0  0  0  0  0  0  0  0  0  0  0  0
   -1.4758   18.1158  -27.5860 H   0  0  0  0  0  0  0  0  0  0  0  0
    0.1729   18.8290  -27.5860 H   0  0  0  0  0  0  0  0  0  0  0  0
    0.4884   21.0186  -28.3464 H   0  0  0  0  0  0  0  0  0  0  0  0
   -0.4671   23.1770  -29.1512 H   0  0  0  0  0  0  0  0  0  0  0  0
   -6.0545   24.8035  -30.3832 H   0  0  0  0  0  0  0  0  0  0  0  0
   -8.1621   23.5806  -30.8683 H   0  0  0  0  0  0  0  0  0  0  0  0
   -9.3198   21.6624  -31.7751 H   0  0  0  0  0  0  0  0  0  0  0  0
   -9.9020   19.2060  -33.9880 H   0  0  0  0  0  0  0  0  0  0  0  0
  -10.1390   18.8770  -32.2410 H   0  0  0  0  0  0  0  0  0  0  0  0
   -7.0965   18.4339  -33.5973 H   0  0  0  0  0  0  0  0  0  0  0  0
   -4.9597   19.6052  -33.0981 H   0  0  0  0  0  0  0  0  0  0  0  0
   -3.0950   20.6261  -30.0928 H   0  0  0  0  0  0  0  0  0  0  0  0
   -0.8352   19.6867  -30.5804 H   0  0  0  0  0  0  0  0  0  0  0  0
    0.1629   19.9436  -32.8545 H   0  0  0  0  0  0  0  0  0  0  0  0
   -1.0997   21.1390  -34.6463 H   0  0  0  0  0  0  0  0  0  0  0  0
   -3.3608   22.0824  -34.1671 H   0  0  0  0  0  0  0  0  0  0  0  0
   -4.4155   21.8900  -27.9218 H   0  0  0  0  0  0  0  0  0  0  0  0
   -3.4603   19.7341  -27.1099 H   0  0  0  0  0  0  0  0  0  0  0  0
  1  2  1  0
  2  3  2  0
  3  4  1  0
  4  5  2  0
  5  6  1  0
  6  7  2  0
  6  8  2  0
  6  9  1  0
  9 10  1  0
 10 11  2  0
 11 12  1  0
 12 13  2  0
 13 14  1  0
 14 15  2  0
 15 16  1  0
 15 17  1  0
 17 18  2  0
 18 19  1  0
 19 20  2  0
 20 21  1  0
 21 22  2  0
 22 23  1  0
 23 24  2  0
 24 25  1  0
 25 26  2  0
  5 27  1  0
 27 28  2  0
 28  2  1  0
 20 10  1  0
 26 21  1  0
 19 13  1  0
  1 29  1  0
  1 30  1  0
  1 31  1  0
  3 32  1  0
  4 33  1  0
 11 34  1  0
 12 35  1  0
 14 36  1  0
 16 37  1  0
 16 38  1  0
 17 39  1  0
 18 40  1  0
 22 41  1  0
 23 42  1  0
 24 43  1  0
 25 44  1  0
 26 45  1  0
 27 46  1  0
 28 47  1  0
M  END
>  <UniqueID>  (17) 
17

>  <SMILES>  (17) 
Cc1ccc(S(=O)(=O)Oc2ccc3cc(N)ccc3c2-c2ccccc2)cc1

>  <Energy>  (17) 
66.5265256716537

>  <Genealogy>  (17) 
Cc1ccc(S(=O)(=O)Oc2ccc3cc(N)ccc3c2-c2ccccc2)cc1 (3D coordinates assigned)
Cc1ccc(S(=O)(=O)Oc2ccc3cc(N)ccc3c2-c2ccccc2)cc1 (optimized conformer: 66.5265256716537 kcal/mol)

>  <smiles>  (17) 
Cc1ccc(S(=O)(=O)Oc2ccc3cc(N)ccc3c2-c2ccccc2)cc1

>  <score_type>  (17) 
oracle

>  <origin>  (17) 
adg

>  <m_score__min__energy>  (17) 
-9.9000000000000004

>  <m_primary>  (17) 
energy

$$$$
17:0
     RDKit          3D

 53 55  0  0  0  0  0  0  0  0999 V2000
   -1.9400   15.5740  -35.1510 C   0  0  0  0  0  0  0  0  0  0  0  0
   -1.8070   16.9780  -35.3480 O   0  0  0  0  0  0  0  0  0  0  0  0
   -2.4180   17.9590  -34.5490 C   0  0  0  0  0  0  0  0  0  0  0  0
   -3.7440   17.8390  -34.1130 C   0  0  0  0  0  0  0  0  0  0  0  0
   -4.3240   18.8180  -33.2950 C   0  0  0  0  0  0  0  0  0  0  0  0
   -3.5810   19.9510  -32.9160 C   0  0  0  0  0  0  0  0  0  0  0  0
   -2.2590   20.1050  -33.4080 C   0  0  0  0  0  0  0  0  0  0  0  0
   -1.5370   21.2640  -33.1040 O   0  0  0  0  0  0  0  0  0  0  0  0
   -0.3790   21.2380  -32.2750 C   0  0  0  0  0  0  0  0  0  0  0  0
   -1.6640   19.0850  -34.1930 C   0  0  0  0  0  0  0  0  0  0  0  0
   -0.3350   19.1260  -34.6530 O   0  0  0  0  0  0  0  0  0  0  0  0
    0.2420   20.1110  -35.5030 C   0  0  0  0  0  0  0  0  0  0  0  0
   -4.0880   20.9140  -31.8900 C   0  0  0  0  0  0  0  0  0  0  0  0
   -3.3170   20.9580  -30.7240 C   0  0  0  0  0  0  0  0  0  0  0  0
   -3.2250   21.9680  -29.7800 C   0  0  0  0  0  0  0  0  0  0  0  0
   -3.6210   23.2960  -29.9150 C   0  0  0  0  0  0  0  0  0  0  0  0
   -3.1300   24.1090  -29.0830 O   0  0  0  0  0  0  0  0  0  0  0  0
   -4.5110   23.8130  -30.8620 C   0  0  0  0  0  0  0  0  0  0  0  0
   -4.6330   25.2190  -30.8620 O   0  0  0  0  0  0  0  0  0  0  0  0
   -5.6520   25.9640  -30.1980 C   0  0  0  0  0  0  0  0  0  0  0  0
   -5.3470   23.0480  -31.6920 C   0  0  0  0  0  0  0  0  0  0  0  0
   -5.2460   21.7030  -32.0970 C   0  0  0  0  0  0  0  0  0  0  0  0
   -6.5650   21.1300  -32.6410 C   0  0  2  0  0  0  0  0  0  0  0  0
   -7.4270   20.8310  -31.4980 N   0  0  0  0  0  0  0  0  0  0  0  0
   -8.8520   20.7090  -31.5700 C   0  0  0  0  0  0  0  0  0  0  0  0
   -9.4650   19.8090  -32.5890 C   0  0  0  0  0  0  0  0  0  0  0  0
   -9.5930   21.3780  -30.8020 O   0  0  0  0  0  0  0  0  0  0  0  0
   -6.4980   19.9090  -33.5710 C   0  0  0  0  0  0  0  0  0  0  0  0
   -5.7730   18.7190  -32.9420 C   0  0  0  0  0  0  0  0  0  0  0  0
   -1.9607   15.3553  -34.0732 H   0  0  0  0  0  0  0  0  0  0  0  0
   -2.8752   15.2258  -35.6138 H   0  0  0  0  0  0  0  0  0  0  0  0
   -1.0869   15.0564  -35.6138 H   0  0  0  0  0  0  0  0  0  0  0  0
   -4.3380   16.9644  -34.4169 H   0  0  0  0  0  0  0  0  0  0  0  0
   -0.6843   21.2449  -31.2183 H   0  0  0  0  0  0  0  0  0  0  0  0
    0.2007   20.3266  -32.4833 H   0  0  0  0  0  0  0  0  0  0  0  0
    0.2410   22.1225  -32.4833 H   0  0  0  0  0  0  0  0  0  0  0  0
    0.7037   20.8992  -34.8902 H   0  0  0  0  0  0  0  0  0  0  0  0
    1.0091   19.6436  -36.1379 H   0  0  0  0  0  0  0  0  0  0  0  0
   -0.5409   20.5515  -36.1379 H   0  0  0  0  0  0  0  0  0  0  0  0
   -2.6990   20.0690  -30.5298 H   0  0  0  0  0  0  0  0  0  0  0  0
   -2.7879   21.6879  -28.8102 H   0  0  0  0  0  0  0  0  0  0  0  0
   -5.5242   25.8706  -29.1095 H   0  0  0  0  0  0  0  0  0  0  0  0
   -5.5788   27.0230  -30.4862 H   0  0  0  0  0  0  0  0  0  0  0  0
   -6.6389   25.5730  -30.4862 H   0  0  0  0  0  0  0  0  0  0  0  0
   -6.2206   23.5856  -32.0893 H   0  0  0  0  0  0  0  0  0  0  0  0
   -6.9560   21.9150  -33.3050 H   0  0  0  0  0  0  0  0  0  0  0  0
  -10.0146   19.0021  -32.0823 H   0  0  0  0  0  0  0  0  0  0  0  0
  -10.1586   20.3862  -33.2182 H   0  0  0  0  0  0  0  0  0  0  0  0
   -8.6739   19.3750  -33.2182 H   0  0  0  0  0  0  0  0  0  0  0  0
   -7.5242   19.6020  -33.8212 H   0  0  0  0  0  0  0  0  0  0  0  0
   -5.9294   20.2063  -34.4645 H   0  0  0  0  0  0  0  0  0  0  0  0
   -5.8930   18.7448  -31.8489 H   0  0  0  0  0  0  0  0  0  0  0  0
   -6.1931   17.7747  -33.3186 H   0  0  0  0  0  0  0  0  0  0  0  0
  1  2  1  0
  2  3  1  0
  3  4  2  0
  4  5  1  0
  5  6  2  0
  6  7  1  0
  7  8  1  0
  8  9  1  0
  7 10  2  0
 10 11  1  0
 11 12  1  0
  6 13  1  0
 13 14  1  0
 14 15  2  0
 15 16  1  0
 16 17  2  0
 16 18  1  0
 18 19  1  0
 19 20  1  0
 18 21  2  0
 21 22  1  0
 22 23  1  0
 23 24  1  0
 24 25  1  0
 25 26  1  0
 25 27  2  0
 23 28  1  0
 28 29  1  0
 10  3  1  0
 22 13  2  0
 29  5  1  0
  1 30  1  0
  1 31  1  0
  1 32  1  0
  4 33  1  0
  9 34  1  0
  9 35  1  0
  9 36  1  0
 12 37  1  0
 12 38  1  0
 12 39  1  0
 14 40  1  0
 15 41  1  0
 20 42  1  0
 20 43  1  0
 20 44  1  0
 21 45  1  0
 23 46  1  6
 26 47  1  0
 26 48  1  0
 26 49  1  0
 28 50  1  0
 28 51  1  0
 29 52  1  0
 29 53  1  0
M  CHG  1  24  -1
M  END
>  <UniqueID>  (18) 
18

>  <SMILES>  (18) 
COc1cc2c(c(OC)c1OC)-c1ccc(=O)c(OC)cc1[C@H]([N-]C(C)=O)CC2

>  <Energy>  (18) 
114.58316038871374

>  <Genealogy>  (18) 
COc1cc2c(c(OC)c1OC)-c1ccc(=O)c(OC)cc1C([N-]C(C)=O)CC2 (protonated)
COc1cc2c(c(OC)c1OC)-c1ccc(=O)c(OC)cc1[C@H]([N-]C(C)=O)CC2 (chirality)
COc1cc2c(c(OC)c1OC)-c1ccc(=O)c(OC)cc1[C@H]([N-]C(C)=O)CC2 (3D coordinates assigned)
COc1cc2c(c(OC)c1OC)-c1ccc(=O)c(OC)cc1[C@H]([N-]C(C)=O)CC2 (nonaromatic ring conformer: 114.58316038871374 kcal/mol)

>  <smiles>  (18) 
COc1cc2c(c(OC)c1OC)-c1ccc(=O)c(OC)cc1C(NC(C)=O)CC2

>  <score_type>  (18) 
oracle

>  <origin>  (18) 
adg

>  <m_score__min__energy>  (18) 
-6.2699999999999996

>  <m_primary>  (18) 
energy

$$$$
18:0
     RDKit          3D

 42 44  0  0  0  0  0  0  0  0999 V2000
   -5.6630   15.8810  -33.1110 C   0  0  0  0  0  0  0  0  0  0  0  0
   -5.6230   16.0890  -34.5600 N   0  0  0  0  0  0  0  0  0  0  0  0
   -4.7180   17.1760  -34.9720 C   0  0  0  0  0  0  0  0  0  0  0  0
   -5.0820   18.5910  -34.4460 C   0  0  2  0  0  0  0  0  0  0  0  0
   -4.1570   19.0960  -33.3220 C   0  0  0  0  0  0  0  0  0  0  0  0
   -4.6030   20.4160  -32.8840 N   0  0  0  0  0  0  0  0  0  0  0  0
   -6.0010   20.6530  -32.6450 C   0  0  0  0  0  0  0  0  0  0  0  0
   -6.4550   21.7550  -31.8890 C   0  0  0  0  0  0  0  0  0  0  0  0
   -5.5190   22.6860  -31.2170 C   0  0  0  0  0  0  0  0  0  0  0  0
   -4.3510   22.1980  -30.6120 C   0  0  0  0  0  0  0  0  0  0  0  0
   -3.4580   23.0780  -29.9910 C   0  0  0  0  0  0  0  0  0  0  0  0
   -3.7110   24.4530  -29.9730 C   0  0  0  0  0  0  0  0  0  0  0  0
   -2.7850   25.2930  -29.3370 O   0  0  0  0  0  0  0  0  0  0  0  0
   -2.0230   24.9310  -28.1900 C   0  0  0  0  0  0  0  0  0  0  0  0
   -4.8760   24.9460  -30.5910 C   0  0  0  0  0  0  0  0  0  0  0  0
   -5.7690   24.0670  -31.2120 C   0  0  0  0  0  0  0  0  0  0  0  0
   -7.8370   21.9520  -31.7430 C   0  0  0  0  0  0  0  0  0  0  0  0
   -8.7320   21.0530  -32.3240 C   0  0  0  0  0  0  0  0  0  0  0  0
   -8.2740   19.9920  -33.0390 N   0  0  0  0  0  0  0  0  0  0  0  0
   -6.9400   19.7790  -33.2200 C   0  0  0  0  0  0  0  0  0  0  0  0
   -6.4850   18.6790  -34.0250 N   0  0  0  0  0  0  0  0  0  0  0  0
   -5.4792   16.8366  -32.5982 H   0  0  0  0  0  0  0  0  0  0  0  0
   -6.6519   15.4947  -32.8232 H   0  0  0  0  0  0  0  0  0  0  0  0
   -4.8879   15.1554  -32.8232 H   0  0  0  0  0  0  0  0  0  0  0  0
   -5.3820   15.1950  -35.0440 H   0  0  0  0  0  0  0  0  0  0  0  0
   -3.7085   16.9305  -34.6107 H   0  0  0  0  0  0  0  0  0  0  0  0
   -4.7979   17.2336  -36.0676 H   0  0  0  0  0  0  0  0  0  0  0  0
   -4.9277   19.2568  -35.3079 H   0  0  0  0  0  0  0  0  0  0  0  0
   -4.1936   18.3961  -32.4742 H   0  0  0  0  0  0  0  0  0  0  0  0
   -3.1250   19.1622  -33.6969 H   0  0  0  0  0  0  0  0  0  0  0  0
   -3.9040   21.1850  -32.7960 H   0  0  0  0  0  0  0  0  0  0  0  0
   -4.1365   21.1192  -30.6260 H   0  0  0  0  0  0  0  0  0  0  0  0
   -2.5489   22.6847  -29.5127 H   0  0  0  0  0  0  0  0  0  0  0  0
   -2.5814   25.1963  -27.2802 H   0  0  0  0  0  0  0  0  0  0  0  0
   -1.8349   23.8473  -28.2019 H   0  0  0  0  0  0  0  0  0  0  0  0
   -1.0641   25.4698  -28.2019 H   0  0  0  0  0  0  0  0  0  0  0  0
   -5.0845   26.0260  -30.5854 H   0  0  0  0  0  0  0  0  0  0  0  0
   -6.6731   24.4605  -31.6996 H   0  0  0  0  0  0  0  0  0  0  0  0
   -8.2137   22.8133  -31.1718 H   0  0  0  0  0  0  0  0  0  0  0  0
   -9.8148   21.2040  -32.2026 H   0  0  0  0  0  0  0  0  0  0  0  0
   -8.9670   19.3390  -33.4680 H   0  0  0  0  0  0  0  0  0  0  0  0
   -7.1950   18.0490  -34.4620 H   0  0  0  0  0  0  0  0  0  0  0  0
  1  2  1  0
  2  3  1  0
  3  4  1  0
  4  5  1  0
  5  6  1  0
  6  7  1  0
  7  8  2  0
  8  9  1  0
  9 10  2  0
 10 11  1  0
 11 12  2  0
 12 13  1  0
 13 14  1  0
 12 15  1  0
 15 16  2  0
  8 17  1  0
 17 18  2  0
 18 19  1  0
 19 20  2  0
 20 21  1  0
 21  4  1  0
 20  7  1  0
 16  9  1  0
  1 22  1  0
  1 23  1  0
  1 24  1  0
  2 25  1  0
  3 26  1  0
  3 27  1  0
  4 28  1  6
  5 29  1  0
  5 30  1  0
  6 31  1  0
 10 32  1  0
 11 33  1  0
 14 34  1  0
 14 35  1  0
 14 36  1  0
 15 37  1  0
 16 38  1  0
 17 39  1  0
 18 40  1  0
 19 41  1  0
 21 42  1  0
M  CHG  1  19   1
M  END
>  <UniqueID>  (19) 
19

>  <SMILES>  (19) 
CNC[C@@H]1CNc2c(-c3ccc(OC)cc3)cc[nH+]c2N1

>  <Energy>  (19) 
51.86818533215894

>  <Genealogy>  (19) 
CNCC1CNc2c(-c3ccc(OC)cc3)cc[nH+]c2N1 (protonated)
CNC[C@@H]1CNc2c(-c3ccc(OC)cc3)cc[nH+]c2N1 (chirality)
CNC[C@@H]1CNc2c(-c3ccc(OC)cc3)cc[nH+]c2N1 (3D coordinates assigned)
CNC[C@@H]1CNc2c(-c3ccc(OC)cc3)cc[nH+]c2N1 (nonaromatic ring conformer: 51.86818533215894 kcal/mol)

>  <smiles>  (19) 
CNCC1CNc2c(-c3ccc(OC)cc3)ccnc2N1

>  <score_type>  (19) 
oracle

>  <origin>  (19) 
adg

>  <m_score__min__energy>  (19) 
-7.2999999999999998

>  <m_primary>  (19) 
energy

$$$$
19:0
     RDKit          3D

 51 53  0  0  0  0  0  0  0  0999 V2000
   -4.0270   24.1740  -28.3020 C   0  0  0  0  0  0  0  0  0  0  0  0
   -3.1410   24.5130  -29.4890 C   0  0  0  0  0  0  0  0  0  0  0  0
   -3.8770   25.2920  -30.4100 O   0  0  0  0  0  0  0  0  0  0  0  0
   -5.2640   25.0670  -30.2470 C   0  0  0  0  0  0  0  0  0  0  0  0
   -5.6950   23.8470  -31.0160 C   0  0  0  0  0  0  0  0  0  0  0  0
   -4.8100   23.2330  -31.9420 C   0  0  0  0  0  0  0  0  0  0  0  0
   -5.1960   22.0750  -32.6420 C   0  0  0  0  0  0  0  0  0  0  0  0
   -6.4670   21.5590  -32.3920 C   0  0  0  0  0  0  0  0  0  0  0  0
   -7.3170   22.1440  -31.4990 C   0  0  0  0  0  0  0  0  0  0  0  0
   -6.9710   23.2890  -30.7880 C   0  0  0  0  0  0  0  0  0  0  0  0
   -8.4570   21.4390  -31.4290 N   0  0  0  0  0  0  0  0  0  0  0  0
   -8.2700   20.4090  -32.2930 C   0  0  0  0  0  0  0  0  0  0  0  0
   -9.3270   19.3750  -32.5570 C   0  0  0  0  0  0  0  0  0  0  0  0
   -9.1330   18.1660  -31.6510 C   0  0  0  0  0  0  0  0  0  0  0  0
   -7.0570   20.4640  -32.9140 N   0  0  0  0  0  0  0  0  0  0  0  0
   -6.4760   19.5110  -33.8650 C   0  0  0  0  0  0  0  0  0  0  0  0
   -5.0680   19.0880  -33.4360 C   0  0  0  0  0  0  0  0  0  0  0  0
   -4.7310   17.7660  -34.0160 N   0  0  0  0  0  0  0  0  0  0  0  0
   -5.8620   17.1590  -34.7560 C   0  0  0  0  0  0  0  0  0  0  0  0
   -6.7670   16.3050  -33.8450 C   0  0  0  0  0  0  0  0  0  0  0  0
   -6.6150   16.6780  -32.4920 O   0  0  0  0  0  0  0  0  0  0  0  0
   -5.3130   16.3440  -32.0430 C   0  0  0  0  0  0  0  0  0  0  0  0
   -4.2040   16.8240  -33.0100 C   0  0  0  0  0  0  0  0  0  0  0  0
   -3.4841   24.3817  -27.3681 H   0  0  0  0  0  0  0  0  0  0  0  0
   -4.9401   24.7863  -28.3393 H   0  0  0  0  0  0  0  0  0  0  0  0
   -4.2982   23.1086  -28.3393 H   0  0  0  0  0  0  0  0  0  0  0  0
   -2.2648   25.0814  -29.1438 H   0  0  0  0  0  0  0  0  0  0  0  0
   -2.8037   23.5858  -29.9754 H   0  0  0  0  0  0  0  0  0  0  0  0
   -5.4834   24.9180  -29.1794 H   0  0  0  0  0  0  0  0  0  0  0  0
   -5.8130   25.9403  -30.6291 H   0  0  0  0  0  0  0  0  0  0  0  0
   -3.8138   23.6668  -32.1134 H   0  0  0  0  0  0  0  0  0  0  0  0
   -4.5181   21.5932  -33.3620 H   0  0  0  0  0  0  0  0  0  0  0  0
   -7.6698   23.7447  -30.0711 H   0  0  0  0  0  0  0  0  0  0  0  0
   -9.2950   21.6350  -30.8380 H   0  0  0  0  0  0  0  0  0  0  0  0
  -10.3175   19.8140  -32.3668 H   0  0  0  0  0  0  0  0  0  0  0  0
   -9.2499   19.0488  -33.6047 H   0  0  0  0  0  0  0  0  0  0  0  0
   -9.1840   18.4840  -30.5992 H   0  0  0  0  0  0  0  0  0  0  0  0
   -9.9242   17.4281  -31.8498 H   0  0  0  0  0  0  0  0  0  0  0  0
   -8.1506   17.7127  -31.8498 H   0  0  0  0  0  0  0  0  0  0  0  0
   -7.1182   18.6194  -33.9169 H   0  0  0  0  0  0  0  0  0  0  0  0
   -6.4083   19.9985  -34.8488 H   0  0  0  0  0  0  0  0  0  0  0  0
   -4.3413   19.8350  -33.7879 H   0  0  0  0  0  0  0  0  0  0  0  0
   -5.0333   19.0177  -32.3388 H   0  0  0  0  0  0  0  0  0  0  0  0
   -6.4662   17.9635  -35.2007 H   0  0  0  0  0  0  0  0  0  0  0  0
   -5.4423   16.4977  -35.5284 H   0  0  0  0  0  0  0  0  0  0  0  0
   -7.8162   16.4489  -34.1426 H   0  0  0  0  0  0  0  0  0  0  0  0
   -6.4785   15.2490  -33.9531 H   0  0  0  0  0  0  0  0  0  0  0  0
   -5.1493   16.8112  -31.0607 H   0  0  0  0  0  0  0  0  0  0  0  0
   -5.2527   15.2470  -31.9880 H   0  0  0  0  0  0  0  0  0  0  0  0
   -3.4164   17.3260  -32.4289 H   0  0  0  0  0  0  0  0  0  0  0  0
   -3.8036   15.9457  -33.5375 H   0  0  0  0  0  0  0  0  0  0  0  0
  1  2  1  0
  2  3  1  0
  3  4  1  0
  4  5  1  0
  5  6  2  0
  6  7  1  0
  7  8  2  0
  8  9  1  0
  9 10  2  0
  9 11  1  0
 11 12  2  0
 12 13  1  0
 13 14  1  0
 12 15  1  0
 15 16  1  0
 16 17  1  0
 17 18  1  0
 18 19  1  0
 19 20  1  0
 20 21  1  0
 21 22  1  0
 22 23  1  0
 10  5  1  0
 23 18  1  0
 15  8  1  0
  1 24  1  0
  1 25  1  0
  1 26  1  0
  2 27  1  0
  2 28  1  0
  4 29  1  0
  4 30  1  0
  6 31  1  0
  7 32  1  0
 10 33  1  0
 11 34  1  0
 13 35  1  0
 13 36  1  0
 14 37  1  0
 14 38  1  0
 14 39  1  0
 16 40  1  0
 16 41  1  0
 17 42  1  0
 17 43  1  0
 19 44  1  0
 19 45  1  0
 20 46  1  0
 20 47  1  0
 22 48  1  0
 22 49  1  0
 23 50  1  0
 23 51  1  0
M  CHG  1  11   1
M  END
>  <UniqueID>  (20) 
20

>  <SMILES>  (20) 
CCOCc1ccc2c(c1)[nH+]c(CC)n2CCN1CCOCC1

>  <Energy>  (20) 
93.69423438189673

>  <Genealogy>  (20) 
CCOCc1ccc2c(c1)[nH+]c(CC)n2CCN1CCOCC1 (protonated)
CCOCc1ccc2c(c1)[nH+]c(CC)n2CCN1CCOCC1 (3D coordinates assigned)
CCOCc1ccc2c(c1)[nH+]c(CC)n2CCN1CCOCC1 (nonaromatic ring conformer: 93.69423438189673 kcal/mol)

>  <smiles>  (20) 
CCOCc1ccc2c(c1)nc(CC)n2CCN1CCOCC1

>  <score_type>  (20) 
oracle

>  <origin>  (20) 
adg

>  <m_score__min__energy>  (20) 
-7.5700000000000003

>  <m_primary>  (20) 
energy

$$$$
20:0
     RDKit          3D

 50 53  0  0  0  0  0  0  0  0999 V2000
   -5.9450   16.4360  -34.3150 C   0  0  0  0  0  0  0  0  0  0  0  0
   -6.5130   17.5900  -33.6310 N   0  0  0  0  0  0  0  0  0  0  0  0
   -6.0760   18.8370  -33.8050 N   0  0  0  0  0  0  0  0  0  0  0  0
   -6.8900   19.5960  -33.0460 C   0  0  0  0  0  0  0  0  0  0  0  0
   -6.8570   20.9690  -32.8360 C   0  0  0  0  0  0  0  0  0  0  0  0
   -7.8140   21.5180  -31.9490 C   0  0  0  0  0  0  0  0  0  0  0  0
   -7.7750   22.9880  -31.6220 C   0  0  0  0  0  0  0  0  0  0  0  0
   -7.0370   23.2370  -30.3620 N   0  0  0  0  0  0  0  0  0  0  0  0
   -6.7310   24.6550  -30.0560 C   0  0  0  0  0  0  0  0  0  0  0  0
   -5.5450   25.2420  -30.8530 C   0  0  0  0  0  0  0  0  0  0  0  0
   -4.1780   24.8650  -30.2590 C   0  0  0  0  0  0  0  0  0  0  0  0
   -3.7770   23.4770  -30.5380 N   0  0  0  0  0  0  0  0  0  0  0  0
   -2.4640   23.0170  -30.1450 C   0  0  0  0  0  0  0  0  0  0  0  0
   -1.7570   22.3680  -30.9640 O   0  0  0  0  0  0  0  0  0  0  0  0
   -1.9300   23.2680  -28.7900 C   0  0  0  0  0  0  0  0  0  0  0  0
   -1.4870   24.5550  -28.4330 C   0  0  0  0  0  0  0  0  0  0  0  0
   -1.5170   25.5710  -29.3350 F   0  0  0  0  0  0  0  0  0  0  0  0
   -0.9920   24.7940  -27.1480 C   0  0  0  0  0  0  0  0  0  0  0  0
   -0.9480   23.7610  -26.2080 C   0  0  0  0  0  0  0  0  0  0  0  0
   -1.3980   22.4830  -26.5510 C   0  0  0  0  0  0  0  0  0  0  0  0
   -1.8870   22.2330  -27.8380 C   0  0  0  0  0  0  0  0  0  0  0  0
   -2.3570   20.9950  -28.1360 F   0  0  0  0  0  0  0  0  0  0  0  0
   -4.7330   22.5160  -31.1040 C   0  0  0  0  0  0  0  0  0  0  0  0
   -5.9130   22.3040  -30.1400 C   0  0  0  0  0  0  0  0  0  0  0  0
   -8.7670   20.6690  -31.3180 C   0  0  0  0  0  0  0  0  0  0  0  0
   -8.7690   19.2830  -31.5650 C   0  0  0  0  0  0  0  0  0  0  0  0
   -7.8050   18.7910  -32.4380 C   0  0  0  0  0  0  0  0  0  0  0  0
   -7.5650   17.5300  -32.8190 N   0  0  0  0  0  0  0  0  0  0  0  0
   -5.5870   15.7087  -33.5715 H   0  0  0  0  0  0  0  0  0  0  0  0
   -6.7154   15.9674  -34.9450 H   0  0  0  0  0  0  0  0  0  0  0  0
   -5.1037   16.7606  -34.9450 H   0  0  0  0  0  0  0  0  0  0  0  0
   -6.1150   21.6056  -33.3401 H   0  0  0  0  0  0  0  0  0  0  0  0
   -7.2760   23.5249  -32.4422 H   0  0  0  0  0  0  0  0  0  0  0  0
   -8.8081   23.3446  -31.4969 H   0  0  0  0  0  0  0  0  0  0  0  0
   -7.6254   25.2552  -30.2793 H   0  0  0  0  0  0  0  0  0  0  0  0
   -6.4424   24.6904  -28.9951 H   0  0  0  0  0  0  0  0  0  0  0  0
   -5.5950   24.8647  -31.8851 H   0  0  0  0  0  0  0  0  0  0  0  0
   -5.6310   26.3379  -30.8123 H   0  0  0  0  0  0  0  0  0  0  0  0
   -3.4176   25.5383  -30.6815 H   0  0  0  0  0  0  0  0  0  0  0  0
   -4.2629   24.9629  -29.1667 H   0  0  0  0  0  0  0  0  0  0  0  0
   -0.6359   25.7985  -26.8757 H   0  0  0  0  0  0  0  0  0  0  0  0
   -0.5589   23.9538  -25.1973 H   0  0  0  0  0  0  0  0  0  0  0  0
   -1.3677   21.6724  -25.8080 H   0  0  0  0  0  0  0  0  0  0  0  0
   -5.1120   22.9026  -32.0616 H   0  0  0  0  0  0  0  0  0  0  0  0
   -4.2225   21.5543  -31.2607 H   0  0  0  0  0  0  0  0  0  0  0  0
   -6.2845   21.2764  -30.2667 H   0  0  0  0  0  0  0  0  0  0  0  0
   -5.5355   22.4918  -29.1240 H   0  0  0  0  0  0  0  0  0  0  0  0
   -9.5094   21.1005  -30.6304 H   0  0  0  0  0  0  0  0  0  0  0  0
   -9.5026   18.6170  -31.0873 H   0  0  0  0  0  0  0  0  0  0  0  0
   -8.0810   16.6640  -32.5430 H   0  0  0  0  0  0  0  0  0  0  0  0
  1  2  1  0
  2  3  1  0
  3  4  2  0
  4  5  1  0
  5  6  2  0
  6  7  1  0
  7  8  1  0
  8  9  1  0
  9 10  1  0
 10 11  1  0
 11 12  1  0
 12 13  1  0
 13 14  2  0
 13 15  1  0
 15 16  2  0
 16 17  1  0
 16 18  1  0
 18 19  2  0
 19 20  1  0
 20 21  2  0
 21 22  1  0
 12 23  1  0
 23 24  1  0
  6 25  1  0
 25 26  2  0
 26 27  1  0
 27 28  2  0
 28  2  1  0
 27  4  1  0
 24  8  1  0
 21 15  1  0
  1 29  1  0
  1 30  1  0
  1 31  1  0
  5 32  1  0
  7 33  1  0
  7 34  1  0
  9 35  1  0
  9 36  1  0
 10 37  1  0
 10 38  1  0
 11 39  1  0
 11 40  1  0
 18 41  1  0
 19 42  1  0
 20 43  1  0
 23 44  1  0
 23 45  1  0
 24 46  1  0
 24 47  1  0
 25 48  1  0
 26 49  1  0
 28 50  1  0
M  CHG  1  28   1
M  END
>  <UniqueID>  (21) 
21

>  <SMILES>  (21) 
Cn1nc2cc(CN3CCCN(C(=O)c4c(F)cccc4F)CC3)ccc2[nH+]1

>  <Energy>  (21) 
112.38652995710501

>  <Genealogy>  (21) 
Cn1nc2cc(CN3CCCN(C(=O)c4c(F)cccc4F)CC3)ccc2[nH+]1 (protonated)
Cn1nc2cc(CN3CCCN(C(=O)c4c(F)cccc4F)CC3)ccc2[nH+]1 (3D coordinates assigned)
Cn1nc2cc(CN3CCCN(C(=O)c4c(F)cccc4F)CC3)ccc2[nH+]1 (nonaromatic ring conformer: 112.38652995710501 kcal/mol)

>  <smiles>  (21) 
Cn1nc2ccc(CN3CCCN(C(=O)c4c(F)cccc4F)CC3)cc2n1

>  <score_type>  (21) 
oracle

>  <origin>  (21) 
adg

>  <m_score__min__energy>  (21) 
-6.8099999999999996

>  <m_primary>  (21) 
energy

$$$$
21:0
     RDKit          3D

 50 51  0  0  0  0  0  0  0  0999 V2000
   -5.8527   22.5202  -33.0149 H   0  0  0  0  0  0  0  0  0  0  0  0
   -5.8330   23.1010  -32.0810 C   0  0  0  0  0  0  0  0  0  0  0  0
   -4.6730   23.6790  -31.6690 N   0  0  0  0  0  0  0  0  0  0  0  0
   -4.5970   24.3950  -30.5120 C   0  0  0  0  0  0  0  0  0  0  0  0
   -3.4800   24.9450  -30.1380 N   0  0  0  0  0  0  0  0  0  0  0  0
   -2.6990   24.5480  -28.9630 C   0  0  2  0  0  0  0  0  0  0  0  0
   -3.2944   24.9094  -28.1115 H   0  0  0  0  0  0  0  0  0  0  0  0
   -1.3010   25.1610  -28.9590 C   0  0  0  0  0  0  0  0  0  0  0  0
   -1.3080   26.1224  -28.4244 H   0  0  0  0  0  0  0  0  0  0  0  0
   -0.9465   25.3558  -29.9819 H   0  0  0  0  0  0  0  0  0  0  0  0
   -0.3980   24.1620  -28.2390 C   0  0  0  0  0  0  0  0  0  0  0  0
   -0.1559   24.5332  -27.2322 H   0  0  0  0  0  0  0  0  0  0  0  0
    0.5434   24.0246  -28.7912 H   0  0  0  0  0  0  0  0  0  0  0  0
   -1.1600   22.8380  -28.1380 C   0  0  0  0  0  0  0  0  0  0  0  0
   -1.3499   22.5909  -27.0831 H   0  0  0  0  0  0  0  0  0  0  0  0
   -0.5773   22.0151  -28.5777 H   0  0  0  0  0  0  0  0  0  0  0  0
   -2.4860   23.0270  -28.8810 C   0  0  2  0  0  0  0  0  0  0  0  0
   -3.3349   22.5708  -28.3508 H   0  0  0  0  0  0  0  0  0  0  0  0
   -2.5130   22.3080  -30.1790 N   0  0  0  0  0  0  0  0  0  0  0  0
   -2.8130   22.9760  -30.9270 H   0  0  0  0  0  0  0  0  0  0  0  0
   -1.2510   21.6710  -30.5880 C   0  0  0  0  0  0  0  0  0  0  0  0
   -1.0061   20.8607  -29.8856 H   0  0  0  0  0  0  0  0  0  0  0  0
   -0.4461   22.4207  -30.5824 H   0  0  0  0  0  0  0  0  0  0  0  0
   -1.3970   21.0950  -31.9980 C   0  0  0  0  0  0  0  0  0  0  0  0
   -1.7009   20.0401  -31.9288 H   0  0  0  0  0  0  0  0  0  0  0  0
   -0.4314   21.1770  -32.5185 H   0  0  0  0  0  0  0  0  0  0  0  0
   -2.3740   21.8150  -32.7270 O   0  0  0  0  0  0  0  0  0  0  0  0
   -3.2990   20.9440  -33.3520 C   0  0  0  0  0  0  0  0  0  0  0  0
   -2.7483   20.1622  -33.8956 H   0  0  0  0  0  0  0  0  0  0  0  0
   -3.9197   21.5275  -34.0479 H   0  0  0  0  0  0  0  0  0  0  0  0
   -4.2080   20.2880  -32.3150 C   0  0  0  0  0  0  0  0  0  0  0  0
   -4.4155   21.0025  -31.5048 H   0  0  0  0  0  0  0  0  0  0  0  0
   -3.7102   19.3989  -31.9007 H   0  0  0  0  0  0  0  0  0  0  0  0
   -5.4210   19.9060  -32.9280 O   0  0  0  0  0  0  0  0  0  0  0  0
   -6.1790   19.0840  -32.0590 C   0  0  0  0  0  0  0  0  0  0  0  0
   -6.3934   19.6362  -31.1321 H   0  0  0  0  0  0  0  0  0  0  0  0
   -5.6018   18.1757  -31.8312 H   0  0  0  0  0  0  0  0  0  0  0  0
   -7.4930   18.6840  -32.7220 C   0  0  0  0  0  0  0  0  0  0  0  0
   -8.2402   18.4565  -31.9474 H   0  0  0  0  0  0  0  0  0  0  0  0
   -7.8548   19.5127  -33.3484 H   0  0  0  0  0  0  0  0  0  0  0  0
   -7.3317   17.7943  -33.3484 H   0  0  0  0  0  0  0  0  0  0  0  0
   -5.7340   24.5390  -29.7110 C   0  0  0  0  0  0  0  0  0  0  0  0
   -5.6825   25.1094  -28.7719 H   0  0  0  0  0  0  0  0  0  0  0  0
   -6.9360   23.9520  -30.1140 C   0  0  0  0  0  0  0  0  0  0  0  0
   -7.8314   24.0474  -29.4823 H   0  0  0  0  0  0  0  0  0  0  0  0
   -7.0050   23.2410  -31.3220 C   0  0  0  0  0  0  0  0  0  0  0  0
   -8.2820   22.5630  -31.7480 C   0  0  0  0  0  0  0  0  0  0  0  0
   -8.9130   21.9890  -30.6580 F   0  0  0  0  0  0  0  0  0  0  0  0
   -8.0250   21.5660  -32.6730 F   0  0  0  0  0  0  0  0  0  0  0  0
   -9.1270   23.4980  -32.3160 F   0  0  0  0  0  0  0  0  0  0  0  0
  1  2  1  0
  2  3  1  0
  3  4  1  0
  4  5  2  0
  5  6  1  0
  6  7  1  1
  6  8  1  0
  8  9  1  0
  8 10  1  0
  8 11  1  0
 11 12  1  0
 11 13  1  0
 11 14  1  0
 14 15  1  0
 14 16  1  0
 14 17  1  0
 17 18  1  1
 17 19  1  0
 19 20  1  0
 19 21  1  0
 21 22  1  0
 21 23  1  0
 21 24  1  0
 24 25  1  0
 24 26  1  0
 24 27  1  0
 27 28  1  0
 28 29  1  0
 28 30  1  0
 28 31  1  0
 31 32  1  0
 31 33  1  0
 31 34  1  0
 34 35  1  0
 35 36  1  0
 35 37  1  0
 35 38  1  0
 38 39  1  0
 38 40  1  0
 38 41  1  0
  4 42  1  0
 42 43  1  0
 42 44  2  0
 44 45  1  0
 44 46  1  0
 46 47  1  0
 47 48  1  0
 47 49  1  0
 47 50  1  0
 46  2  2  0
 17  6  1  0
M  CHG  1   3  -1
M  END
>  <UniqueID>  (22) 
22

>  <SMILES>  (22) 
CCOCCOCCN[C@H]1CCC[C@H]1/N=c1/ccc(C(F)(F)F)c[n-]1

>  <Energy>  (22) 
54.71164758639332

>  <Genealogy>  (22) 
CCOCCOCCNC1CCCC1N=c1ccc(C(F)(F)F)c[n-]1 (protonated)
CCOCCOCCN[C@H]1CCC[C@H]1N=c1ccc(C(F)(F)F)c[n-]1 (chirality)
CCOCCOCCN[C@H]1CCC[C@H]1/N=c1/ccc(C(F)(F)F)c[n-]1 (cis-trans isomerization)
CCOCCOCCN[C@H]1CCC[C@H]1/N=c1/ccc(C(F)(F)F)c[n-]1 (3D coordinates assigned)
CCOCCOCCN[C@H]1CCC[C@H]1/N=c1/ccc(C(F)(F)F)c[n-]1 (nonaromatic ring conformer: 54.71164758639332 kcal/mol)

>  <smiles>  (22) 
CCOCCOCCNC1CCCC1N=c1ccc(C(F)(F)F)c[nH]1

>  <score_type>  (22) 
oracle

>  <origin>  (22) 
adg

>  <m_score__min__energy>  (22) 
-8.4100000000000001

>  <m_primary>  (22) 
energy

$$$$
22:0
     RDKit          3D

 17 17  0  0  0  0  0  0  0  0999 V2000
   -6.1200   18.9580  -33.9010 C   0  0  0  0  0  0  0  0  0  0  0  0
   -6.9070   19.9530  -33.0900 C   0  0  0  0  0  0  0  0  0  0  0  0
   -8.2250   19.6370  -32.7170 C   0  0  0  0  0  0  0  0  0  0  0  0
   -8.9840   20.5320  -31.9670 C   0  0  0  0  0  0  0  0  0  0  0  0
   -8.4410   21.7550  -31.5790 C   0  0  0  0  0  0  0  0  0  0  0  0
   -7.1320   22.0940  -31.9370 C   0  0  0  0  0  0  0  0  0  0  0  0
   -6.4710   23.7990  -31.3560 Br  0  0  0  0  0  0  0  0  0  0  0  0
   -6.3490   21.1970  -32.6980 C   0  0  0  0  0  0  0  0  0  0  0  0
   -5.0030   21.5450  -33.0660 N   0  0  0  0  0  0  0  0  0  0  0  0
   -5.5818   18.2776  -33.2247 H   0  0  0  0  0  0  0  0  0  0  0  0
   -6.8060   18.3776  -34.5354 H   0  0  0  0  0  0  0  0  0  0  0  0
   -5.3972   19.4919  -34.5354 H   0  0  0  0  0  0  0  0  0  0  0  0
   -8.6610   18.6737  -33.0204 H   0  0  0  0  0  0  0  0  0  0  0  0
  -10.0139   20.2729  -31.6805 H   0  0  0  0  0  0  0  0  0  0  0  0
   -9.0454   22.4584  -30.9875 H   0  0  0  0  0  0  0  0  0  0  0  0
   -4.1750   21.1420  -32.5760 H   0  0  0  0  0  0  0  0  0  0  0  0
   -4.7960   22.2140  -33.8390 H   0  0  0  0  0  0  0  0  0  0  0  0
  1  2  1  0
  2  3  2  0
  3  4  1  0
  4  5  2  0
  5  6  1  0
  6  7  1  0
  6  8  2  0
  8  9  1  0
  8  2  1  0
  1 10  1  0
  1 11  1  0
  1 12  1  0
  3 13  1  0
  4 14  1  0
  5 15  1  0
  9 16  1  0
  9 17  1  0
M  END
>  <UniqueID>  (23) 
23

>  <SMILES>  (23) 
Cc1cccc(Br)c1N

>  <Energy>  (23) 
17.36401214359045

>  <Genealogy>  (23) 
Cc1cccc(Br)c1N (3D coordinates assigned)
Cc1cccc(Br)c1N (optimized conformer: 17.36401214359045 kcal/mol)

>  <smiles>  (23) 
Cc1cccc(Br)c1N

>  <score_type>  (23) 
oracle

>  <origin>  (23) 
adg

>  <m_score__min__energy>  (23) 
-4.9500000000000002

>  <m_primary>  (23) 
energy

$$$$
23:0
     RDKit          3D

 28 29  0  0  0  0  0  0  0  0999 V2000
   -2.0470   23.2350  -29.6350 C   0  0  0  0  0  0  0  0  0  0  0  0
   -2.7680   24.5360  -29.3070 C   0  0  0  0  0  0  0  0  0  0  0  0
   -3.4890   25.0270  -30.4830 N   0  0  0  0  0  0  0  0  0  0  0  0
   -5.1700   24.5850  -30.4190 S   0  0  0  0  0  0  0  0  0  0  0  0
   -5.9930   25.6860  -31.0270 O   0  0  0  0  0  0  0  0  0  0  0  0
   -5.5870   24.3960  -28.9870 O   0  0  0  0  0  0  0  0  0  0  0  0
   -5.4390   23.1010  -31.3320 C   0  0  0  0  0  0  0  0  0  0  0  0
   -4.3640   22.4780  -31.9790 C   0  0  0  0  0  0  0  0  0  0  0  0
   -4.5690   21.3040  -32.7090 C   0  0  0  0  0  0  0  0  0  0  0  0
   -5.8490   20.7480  -32.8020 C   0  0  0  0  0  0  0  0  0  0  0  0
   -6.9260   21.3460  -32.1230 C   0  0  0  0  0  0  0  0  0  0  0  0
   -6.7190   22.5340  -31.4060 C   0  0  0  0  0  0  0  0  0  0  0  0
   -8.2110   20.7040  -32.0860 N   0  0  0  0  0  0  0  0  0  0  0  0
   -8.3530   19.2960  -32.3240 C   0  0  0  0  0  0  0  0  0  0  0  0
   -9.4900   18.7610  -32.2420 O   0  0  0  0  0  0  0  0  0  0  0  0
   -7.1510   18.4520  -32.6200 C   0  0  0  0  0  0  0  0  0  0  0  0
   -6.1150   19.3080  -33.8470 S   0  0  0  0  0  0  0  0  0  0  0  0
   -1.7652   22.7265  -28.7012 H   0  0  0  0  0  0  0  0  0  0  0  0
   -2.7131   22.5841  -30.2203 H   0  0  0  0  0  0  0  0  0  0  0  0
   -1.1420   23.4548  -30.2203 H   0  0  0  0  0  0  0  0  0  0  0  0
   -3.4834   24.3587  -28.4905 H   0  0  0  0  0  0  0  0  0  0  0  0
   -2.0267   25.2890  -29.0012 H   0  0  0  0  0  0  0  0  0  0  0  0
   -3.3562   22.9138  -31.9123 H   0  0  0  0  0  0  0  0  0  0  0  0
   -3.7212   20.8158  -33.2119 H   0  0  0  0  0  0  0  0  0  0  0  0
   -7.5646   23.0226  -30.8998 H   0  0  0  0  0  0  0  0  0  0  0  0
   -9.0470   21.2450  -31.7710 H   0  0  0  0  0  0  0  0  0  0  0  0
   -6.5747   18.2939  -31.6965 H   0  0  0  0  0  0  0  0  0  0  0  0
   -7.4697   17.4771  -33.0175 H   0  0  0  0  0  0  0  0  0  0  0  0
  1  2  1  0
  2  3  1  0
  3  4  1  0
  4  5  2  0
  4  6  2  0
  4  7  1  0
  7  8  2  0
  8  9  1  0
  9 10  2  0
 10 11  1  0
 11 12  2  0
 11 13  1  0
 13 14  1  0
 14 15  2  0
 14 16  1  0
 16 17  1  0
 12  7  1  0
 17 10  1  0
  1 18  1  0
  1 19  1  0
  1 20  1  0
  2 21  1  0
  2 22  1  0
  8 23  1  0
  9 24  1  0
 12 25  1  0
 13 26  1  0
 16 27  1  0
 16 28  1  0
M  CHG  1   3  -1
M  END
>  <UniqueID>  (24) 
24

>  <SMILES>  (24) 
CC[N-]S(=O)(=O)c1ccc2c(c1)NC(=O)CS2

>  <Energy>  (24) 
28.494207581402257

>  <Genealogy>  (24) 
CC[N-]S(=O)(=O)c1ccc2c(c1)NC(=O)CS2 (protonated)
CC[N-]S(=O)(=O)c1ccc2c(c1)NC(=O)CS2 (3D coordinates assigned)
CC[N-]S(=O)(=O)c1ccc2c(c1)NC(=O)CS2 (nonaromatic ring conformer: 28.494207581402257 kcal/mol)

>  <smiles>  (24) 
CCNS(=O)(=O)c1ccc2c(c1)NC(=O)CS2

>  <score_type>  (24) 
oracle

>  <origin>  (24) 
adg

>  <m_score__min__energy>  (24) 
-8.5500000000000007

>  <m_primary>  (24) 
energy

$$$$
24:0
     RDKit          3D

 42 44  0  0  0  0  0  0  0  0999 V2000
   -5.1720   15.9520  -32.3580 C   0  0  0  0  0  0  0  0  0  0  0  0
   -3.9050   16.3160  -33.1280 C   0  0  0  0  0  0  0  0  0  0  0  0
   -4.0910   17.5860  -33.8630 N   0  0  0  0  0  0  0  0  0  0  0  0
   -5.5330   17.9050  -34.0330 C   0  0  0  0  0  0  0  0  0  0  0  0
   -5.7830   19.4060  -34.1750 C   0  0  0  0  0  0  0  0  0  0  0  0
   -5.2890   20.0770  -32.9720 N   0  0  0  0  0  0  0  0  0  0  0  0
   -5.9620   21.2270  -32.4390 C   0  0  0  0  0  0  0  0  0  0  0  0
   -7.3280   21.3010  -32.4570 N   0  0  0  0  0  0  0  0  0  0  0  0
   -7.9980   22.3940  -31.9650 C   0  0  0  0  0  0  0  0  0  0  0  0
   -9.4890   22.4110  -31.9640 C   0  0  0  0  0  0  0  0  0  0  0  0
   -7.3050   23.4450  -31.4300 N   0  0  0  0  0  0  0  0  0  0  0  0
   -5.9510   23.3790  -31.4230 C   0  0  0  0  0  0  0  0  0  0  0  0
   -5.2710   22.3130  -31.9100 C   0  0  0  0  0  0  0  0  0  0  0  0
   -3.9350   22.6360  -31.7640 C   0  0  0  0  0  0  0  0  0  0  0  0
   -3.8540   23.8630  -31.1860 N   0  0  0  0  0  0  0  0  0  0  0  0
   -5.0900   24.3130  -30.9900 N   0  0  0  0  0  0  0  0  0  0  0  0
   -5.4120   25.5840  -30.3480 C   0  0  0  0  0  0  0  0  0  0  0  0
   -6.5600   25.4010  -29.3650 C   0  0  0  0  0  0  0  0  0  0  0  0
   -4.0430   19.6160  -32.3540 C   0  0  0  0  0  0  0  0  0  0  0  0
   -3.2660   18.6910  -33.3050 C   0  0  0  0  0  0  0  0  0  0  0  0
   -4.9736   16.0090  -31.2776 H   0  0  0  0  0  0  0  0  0  0  0  0
   -5.9757   16.6556  -32.6208 H   0  0  0  0  0  0  0  0  0  0  0  0
   -5.4797   14.9291  -32.6208 H   0  0  0  0  0  0  0  0  0  0  0  0
   -3.0705   16.4267  -32.4199 H   0  0  0  0  0  0  0  0  0  0  0  0
   -3.6863   15.5160  -33.8507 H   0  0  0  0  0  0  0  0  0  0  0  0
   -5.9032   17.3979  -34.9362 H   0  0  0  0  0  0  0  0  0  0  0  0
   -6.0621   17.5598  -33.1325 H   0  0  0  0  0  0  0  0  0  0  0  0
   -5.2502   19.7886  -35.0581 H   0  0  0  0  0  0  0  0  0  0  0  0
   -6.8592   19.5980  -34.2975 H   0  0  0  0  0  0  0  0  0  0  0  0
   -9.8549   22.4152  -30.9267 H   0  0  0  0  0  0  0  0  0  0  0  0
   -9.8458   23.3133  -32.4823 H   0  0  0  0  0  0  0  0  0  0  0  0
   -9.8662   21.5171  -32.4823 H   0  0  0  0  0  0  0  0  0  0  0  0
   -3.0835   22.0076  -32.0642 H   0  0  0  0  0  0  0  0  0  0  0  0
   -4.5272   25.9530  -29.8086 H   0  0  0  0  0  0  0  0  0  0  0  0
   -5.7118   26.3094  -31.1187 H   0  0  0  0  0  0  0  0  0  0  0  0
   -6.1752   25.4623  -28.3363 H   0  0  0  0  0  0  0  0  0  0  0  0
   -7.3085   26.1912  -29.5242 H   0  0  0  0  0  0  0  0  0  0  0  0
   -7.0258   24.4173  -29.5242 H   0  0  0  0  0  0  0  0  0  0  0  0
   -3.4183   20.4879  -32.1101 H   0  0  0  0  0  0  0  0  0  0  0  0
   -4.2913   19.0528  -31.4423 H   0  0  0  0  0  0  0  0  0  0  0  0
   -2.8811   19.2943  -34.1404 H   0  0  0  0  0  0  0  0  0  0  0  0
   -2.4588   18.2280  -32.7185 H   0  0  0  0  0  0  0  0  0  0  0  0
  1  2  1  0
  2  3  1  0
  3  4  1  0
  4  5  1  0
  5  6  1  0
  6  7  1  0
  7  8  2  0
  8  9  1  0
  9 10  1  0
  9 11  2  0
 11 12  1  0
 12 13  2  0
 13 14  1  0
 14 15  2  0
 15 16  1  0
 16 17  1  0
 17 18  1  0
  6 19  1  0
 19 20  1  0
 20  3  1  0
 13  7  1  0
 16 12  1  0
  1 21  1  0
  1 22  1  0
  1 23  1  0
  2 24  1  0
  2 25  1  0
  4 26  1  0
  4 27  1  0
  5 28  1  0
  5 29  1  0
 10 30  1  0
 10 31  1  0
 10 32  1  0
 14 33  1  0
 17 34  1  0
 17 35  1  0
 18 36  1  0
 18 37  1  0
 18 38  1  0
 19 39  1  0
 19 40  1  0
 20 41  1  0
 20 42  1  0
M  END
>  <UniqueID>  (25) 
25

>  <SMILES>  (25) 
CCN1CCN(c2nc(C)nc3c2cnn3CC)CC1

>  <Energy>  (25) 
90.05930020926617

>  <Genealogy>  (25) 
CCN1CCN(c2nc(C)nc3c2cnn3CC)CC1 (3D coordinates assigned)
CCN1CCN(c2nc(C)nc3c2cnn3CC)CC1 (nonaromatic ring conformer: 90.05930020926617 kcal/mol)

>  <smiles>  (25) 
CCN1CCN(c2nc(C)nc3c2cnn3CC)CC1

>  <score_type>  (25) 
oracle

>  <origin>  (25) 
adg

>  <m_score__min__energy>  (25) 
-7.04

>  <m_primary>  (25) 
energy

$$$$
25:0
     RDKit          3D

 40 43  0  0  0  0  0  0  0  0999 V2000
    0.2150   20.5470  -34.2550 C   0  0  0  0  0  0  0  0  0  0  0  0
   -1.1820   20.2870  -33.9400 N   0  0  0  0  0  0  0  0  0  0  0  0
   -2.0610   21.1840  -33.4580 C   0  0  0  0  0  0  0  0  0  0  0  0
   -3.2980   20.5700  -33.3670 C   0  0  0  0  0  0  0  0  0  0  0  0
   -4.5720   21.1660  -32.8880 C   0  0  0  0  0  0  0  0  0  0  0  0
   -4.6000   22.4800  -32.3900 C   0  0  0  0  0  0  0  0  0  0  0  0
   -5.7950   23.0480  -31.9480 C   0  0  0  0  0  0  0  0  0  0  0  0
   -6.9870   22.3130  -31.9870 C   0  0  0  0  0  0  0  0  0  0  0  0
   -8.1860   22.8970  -31.5520 C   0  0  0  0  0  0  0  0  0  0  0  0
   -9.3750   22.1700  -31.5930 C   0  0  0  0  0  0  0  0  0  0  0  0
   -9.3810   20.8580  -32.0630 C   0  0  0  0  0  0  0  0  0  0  0  0
   -8.1950   20.2500  -32.5110 C   0  0  0  0  0  0  0  0  0  0  0  0
   -8.2220   18.8780  -32.9380 N   0  0  0  0  0  0  0  0  0  0  0  0
   -7.1830   17.9280  -32.6430 C   0  0  0  0  0  0  0  0  0  0  0  0
   -6.8670   17.5650  -31.3230 C   0  0  0  0  0  0  0  0  0  0  0  0
   -5.8900   16.6490  -31.0770 N   0  0  0  0  0  0  0  0  0  0  0  0
   -5.2020   16.0530  -32.0880 C   0  0  0  0  0  0  0  0  0  0  0  0
   -5.4940   16.3710  -33.4160 C   0  0  0  0  0  0  0  0  0  0  0  0
   -4.8170   15.7740  -34.4270 F   0  0  0  0  0  0  0  0  0  0  0  0
   -6.4920   17.3070  -33.6920 C   0  0  0  0  0  0  0  0  0  0  0  0
   -6.9820   20.9810  -32.4730 C   0  0  0  0  0  0  0  0  0  0  0  0
   -5.7680   20.4260  -32.9290 C   0  0  0  0  0  0  0  0  0  0  0  0
   -3.0850   19.2800  -33.8320 C   0  0  0  0  0  0  0  0  0  0  0  0
   -1.7900   19.1370  -34.1810 N   0  0  0  0  0  0  0  0  0  0  0  0
    0.7876   20.6536  -33.3218 H   0  0  0  0  0  0  0  0  0  0  0  0
    0.6209   19.7090  -34.8406 H   0  0  0  0  0  0  0  0  0  0  0  0
    0.2923   21.4749  -34.8406 H   0  0  0  0  0  0  0  0  0  0  0  0
   -1.8356   22.2251  -33.1837 H   0  0  0  0  0  0  0  0  0  0  0  0
   -3.6703   23.0664  -32.3484 H   0  0  0  0  0  0  0  0  0  0  0  0
   -5.8014   24.0797  -31.5664 H   0  0  0  0  0  0  0  0  0  0  0  0
   -8.1881   23.9313  -31.1775 H   0  0  0  0  0  0  0  0  0  0  0  0
  -10.3125   22.6341  -31.2529 H   0  0  0  0  0  0  0  0  0  0  0  0
  -10.3239   20.2919  -32.0837 H   0  0  0  0  0  0  0  0  0  0  0  0
   -9.0170   18.5700  -33.5440 H   0  0  0  0  0  0  0  0  0  0  0  0
   -7.4115   18.0230  -30.4841 H   0  0  0  0  0  0  0  0  0  0  0  0
   -5.6670   16.3920  -30.0890 H   0  0  0  0  0  0  0  0  0  0  0  0
   -4.4147   15.3197  -31.8591 H   0  0  0  0  0  0  0  0  0  0  0  0
   -6.7365   17.5576  -34.7348 H   0  0  0  0  0  0  0  0  0  0  0  0
   -5.7561   19.3989  -33.3227 H   0  0  0  0  0  0  0  0  0  0  0  0
   -3.8530   18.4959  -33.9047 H   0  0  0  0  0  0  0  0  0  0  0  0
  1  2  1  0
  2  3  1  0
  3  4  2  0
  4  5  1  0
  5  6  2  0
  6  7  1  0
  7  8  2  0
  8  9  1  0
  9 10  2  0
 10 11  1  0
 11 12  2  0
 12 13  1  0
 13 14  1  0
 14 15  2  0
 15 16  1  0
 16 17  2  0
 17 18  1  0
 18 19  1  0
 18 20  2  0
 12 21  1  0
 21 22  2  0
  4 23  1  0
 23 24  2  0
 24  2  1  0
 22  5  1  0
 21  8  1  0
 20 14  1  0
  1 25  1  0
  1 26  1  0
  1 27  1  0
  3 28  1  0
  6 29  1  0
  7 30  1  0
  9 31  1  0
 10 32  1  0
 11 33  1  0
 13 34  1  0
 15 35  1  0
 16 36  1  0
 17 37  1  0
 20 38  1  0
 22 39  1  0
 23 40  1  0
M  CHG  1  16   1
M  END
>  <UniqueID>  (26) 
26

>  <SMILES>  (26) 
Cn1cc(-c2ccc3cccc(Nc4c[nH+]cc(F)c4)c3c2)cn1

>  <Energy>  (26) 
86.16592895269132

>  <Genealogy>  (26) 
Cn1cc(-c2ccc3cccc(Nc4c[nH+]cc(F)c4)c3c2)cn1 (protonated)
Cn1cc(-c2ccc3cccc(Nc4c[nH+]cc(F)c4)c3c2)cn1 (3D coordinates assigned)
Cn1cc(-c2ccc3cccc(Nc4c[nH+]cc(F)c4)c3c2)cn1 (optimized conformer: 86.16592895269132 kcal/mol)

>  <smiles>  (26) 
Cn1cc(-c2ccc3cccc(Nc4cncc(F)c4)c3c2)cn1

>  <score_type>  (26) 
oracle

>  <origin>  (26) 
adg

>  <m_score__min__energy>  (26) 
-8.2100000000000009

>  <m_primary>  (26) 
energy

$$$$
26:0
     RDKit          3D

 39 40  0  0  0  0  0  0  0  0999 V2000
   -3.4670   18.9000  -26.3410 C   0  0  0  0  0  0  0  0  0  0  0  0
   -2.1100   19.5700  -26.5300 C   0  0  0  0  0  0  0  0  0  0  0  0
   -1.8920   19.8640  -27.8980 O   0  0  0  0  0  0  0  0  0  0  0  0
   -1.0370   20.9800  -28.0530 C   0  0  0  0  0  0  0  0  0  0  0  0
   -1.7710   22.2540  -27.7290 C   0  0  0  0  0  0  0  0  0  0  0  0
   -1.2890   23.1240  -26.7390 C   0  0  0  0  0  0  0  0  0  0  0  0
   -1.9780   24.3020  -26.4430 C   0  0  0  0  0  0  0  0  0  0  0  0
   -3.1600   24.6150  -27.1210 C   0  0  0  0  0  0  0  0  0  0  0  0
   -3.6710   23.7400  -28.0960 C   0  0  0  0  0  0  0  0  0  0  0  0
   -4.8730   24.0460  -28.8220 N   0  0  0  0  0  0  0  0  0  0  0  0
   -4.8990   24.7190  -30.0900 C   0  0  0  0  0  0  0  0  0  0  0  0
   -3.8600   25.2670  -30.5490 O   0  0  0  0  0  0  0  0  0  0  0  0
   -6.1900   24.8600  -30.8370 C   0  0  0  0  0  0  0  0  0  0  0  0
   -6.6180   23.5280  -31.3890 C   0  0  0  0  0  0  0  0  0  0  0  0
   -5.6670   22.6410  -31.9220 C   0  0  0  0  0  0  0  0  0  0  0  0
   -6.0650   21.3890  -32.4040 C   0  0  0  0  0  0  0  0  0  0  0  0
   -7.4100   21.0130  -32.3480 C   0  0  0  0  0  0  0  0  0  0  0  0
   -8.3590   21.8860  -31.8090 C   0  0  0  0  0  0  0  0  0  0  0  0
   -7.9660   23.1370  -31.3260 C   0  0  0  0  0  0  0  0  0  0  0  0
   -2.9600   22.5700  -28.4060 C   0  0  0  0  0  0  0  0  0  0  0  0
   -3.6780   18.7958  -25.2665 H   0  0  0  0  0  0  0  0  0  0  0  0
   -4.2485   19.5158  -26.8101 H   0  0  0  0  0  0  0  0  0  0  0  0
   -3.4532   17.9051  -26.8101 H   0  0  0  0  0  0  0  0  0  0  0  0
   -2.0827   20.5040  -25.9495 H   0  0  0  0  0  0  0  0  0  0  0  0
   -1.3222   18.8859  -26.1816 H   0  0  0  0  0  0  0  0  0  0  0  0
   -0.1774   20.8747  -27.3748 H   0  0  0  0  0  0  0  0  0  0  0  0
   -0.6926   21.0228  -29.0968 H   0  0  0  0  0  0  0  0  0  0  0  0
   -0.3656   22.8773  -26.1945 H   0  0  0  0  0  0  0  0  0  0  0  0
   -1.5895   24.9859  -25.6740 H   0  0  0  0  0  0  0  0  0  0  0  0
   -3.6924   25.5496  -26.8908 H   0  0  0  0  0  0  0  0  0  0  0  0
   -5.7890   23.8520  -28.3570 H   0  0  0  0  0  0  0  0  0  0  0  0
   -6.9658   25.2367  -30.1542 H   0  0  0  0  0  0  0  0  0  0  0  0
   -6.0483   25.5650  -31.6694 H   0  0  0  0  0  0  0  0  0  0  0  0
   -4.6068   22.9318  -31.9604 H   0  0  0  0  0  0  0  0  0  0  0  0
   -5.3189   20.7004  -32.8272 H   0  0  0  0  0  0  0  0  0  0  0  0
   -7.7219   20.0291  -32.7285 H   0  0  0  0  0  0  0  0  0  0  0  0
   -9.4169   21.5879  -31.7649 H   0  0  0  0  0  0  0  0  0  0  0  0
   -8.7146   23.8180  -30.8950 H   0  0  0  0  0  0  0  0  0  0  0  0
   -3.3380   21.8939  -29.1871 H   0  0  0  0  0  0  0  0  0  0  0  0
  1  2  1  0
  2  3  1  0
  3  4  1  0
  4  5  1  0
  5  6  2  0
  6  7  1  0
  7  8  2  0
  8  9  1  0
  9 10  1  0
 10 11  1  0
 11 12  2  0
 11 13  1  0
 13 14  1  0
 14 15  2  0
 15 16  1  0
 16 17  2  0
 17 18  1  0
 18 19  2  0
  9 20  2  0
 20  5  1  0
 19 14  1  0
  1 21  1  0
  1 22  1  0
  1 23  1  0
  2 24  1  0
  2 25  1  0
  4 26  1  0
  4 27  1  0
  6 28  1  0
  7 29  1  0
  8 30  1  0
 10 31  1  0
 13 32  1  0
 13 33  1  0
 15 34  1  0
 16 35  1  0
 17 36  1  0
 18 37  1  0
 19 38  1  0
 20 39  1  0
M  END
>  <UniqueID>  (27) 
27

>  <SMILES>  (27) 
CCOCc1cccc(NC(=O)Cc2ccccc2)c1

>  <Energy>  (27) 
40.27685003343084

>  <Genealogy>  (27) 
CCOCc1cccc(NC(=O)Cc2ccccc2)c1 (3D coordinates assigned)
CCOCc1cccc(NC(=O)Cc2ccccc2)c1 (optimized conformer: 40.27685003343084 kcal/mol)

>  <smiles>  (27) 
CCOCc1cccc(NC(=O)Cc2ccccc2)c1

>  <score_type>  (27) 
oracle

>  <origin>  (27) 
adg

>  <m_score__min__energy>  (27) 
-7.8399999999999999

>  <m_primary>  (27) 
energy

$$$$
27:0
     RDKit          3D

 38 39  0  0  0  0  0  0  0  0999 V2000
   -8.5520   19.2180  -32.1130 C   0  0  0  0  0  0  0  0  0  0  0  0
   -7.5520   20.2880  -32.5400 C   0  0  0  0  0  0  0  0  0  0  0  0
   -7.8530   21.5670  -31.8770 N   0  0  0  0  0  0  0  0  0  0  0  0
   -9.2530   21.9160  -31.6040 C   0  0  0  0  0  0  0  0  0  0  0  0
   -6.7740   22.4640  -31.5110 C   0  0  0  0  0  0  0  0  0  0  0  0
   -7.0170   23.7880  -31.1000 C   0  0  0  0  0  0  0  0  0  0  0  0
   -5.9470   24.6140  -30.7540 C   0  0  0  0  0  0  0  0  0  0  0  0
   -4.6310   24.1320  -30.8320 C   0  0  0  0  0  0  0  0  0  0  0  0
   -3.4940   24.9280  -30.4650 N   0  0  0  0  0  0  0  0  0  0  0  0
   -2.7820   24.8910  -29.2220 C   0  0  0  0  0  0  0  0  0  0  0  0
   -1.5930   25.2980  -29.1450 O   0  0  0  0  0  0  0  0  0  0  0  0
   -3.4260   24.2620  -28.0280 C   0  0  0  0  0  0  0  0  0  0  0  0
   -2.7620   22.9510  -27.7120 C   0  0  0  0  0  0  0  0  0  0  0  0
   -3.3580   21.7420  -28.1070 C   0  0  0  0  0  0  0  0  0  0  0  0
   -2.7260   20.5240  -27.8400 C   0  0  0  0  0  0  0  0  0  0  0  0
   -1.4910   20.5060  -27.1850 C   0  0  0  0  0  0  0  0  0  0  0  0
   -0.8860   21.7050  -26.7990 C   0  0  0  0  0  0  0  0  0  0  0  0
   -1.5150   22.9240  -27.0650 C   0  0  0  0  0  0  0  0  0  0  0  0
   -4.4290   22.8060  -31.2230 C   0  0  0  0  0  0  0  0  0  0  0  0
   -5.4860   22.0190  -31.5530 N   0  0  0  0  0  0  0  0  0  0  0  0
   -8.5941   19.1729  -31.0147 H   0  0  0  0  0  0  0  0  0  0  0  0
   -9.5476   19.4680  -32.5082 H   0  0  0  0  0  0  0  0  0  0  0  0
   -8.2353   18.2415  -32.5082 H   0  0  0  0  0  0  0  0  0  0  0  0
   -6.5371   19.9665  -32.2631 H   0  0  0  0  0  0  0  0  0  0  0  0
   -7.6214   20.4262  -33.6291 H   0  0  0  0  0  0  0  0  0  0  0  0
   -9.4155   21.9565  -30.5168 H   0  0  0  0  0  0  0  0  0  0  0  0
   -9.4789   22.8979  -32.0453 H   0  0  0  0  0  0  0  0  0  0  0  0
   -9.9134   21.1550  -32.0453 H   0  0  0  0  0  0  0  0  0  0  0  0
   -8.0473   24.1704  -31.0517 H   0  0  0  0  0  0  0  0  0  0  0  0
   -6.1351   25.6449  -30.4195 H   0  0  0  0  0  0  0  0  0  0  0  0
   -3.3282   24.9365  -27.1646 H   0  0  0  0  0  0  0  0  0  0  0  0
   -4.4893   24.0832  -28.2455 H   0  0  0  0  0  0  0  0  0  0  0  0
   -4.3263   21.7536  -28.6287 H   0  0  0  0  0  0  0  0  0  0  0  0
   -3.2004   19.5797  -28.1453 H   0  0  0  0  0  0  0  0  0  0  0  0
   -0.9951   19.5472  -26.9733 H   0  0  0  0  0  0  0  0  0  0  0  0
    0.0865   21.6892  -26.2852 H   0  0  0  0  0  0  0  0  0  0  0  0
   -1.0321   23.8662  -26.7667 H   0  0  0  0  0  0  0  0  0  0  0  0
   -3.4087   22.3971  -31.2639 H   0  0  0  0  0  0  0  0  0  0  0  0
  1  2  1  0
  2  3  1  0
  3  4  1  0
  3  5  1  0
  5  6  2  0
  6  7  1  0
  7  8  2  0
  8  9  1  0
  9 10  1  0
 10 11  2  0
 10 12  1  0
 12 13  1  0
 13 14  2  0
 14 15  1  0
 15 16  2  0
 16 17  1  0
 17 18  2  0
  8 19  1  0
 19 20  2  0
 20  5  1  0
 18 13  1  0
  1 21  1  0
  1 22  1  0
  1 23  1  0
  2 24  1  0
  2 25  1  0
  4 26  1  0
  4 27  1  0
  4 28  1  0
  6 29  1  0
  7 30  1  0
 12 31  1  0
 12 32  1  0
 14 33  1  0
 15 34  1  0
 16 35  1  0
 17 36  1  0
 18 37  1  0
 19 38  1  0
M  CHG  1   9  -1
M  END
>  <UniqueID>  (28) 
28

>  <SMILES>  (28) 
CCN(C)c1ccc([N-]C(=O)Cc2ccccc2)cn1

>  <Energy>  (28) 
37.23931257432581

>  <Genealogy>  (28) 
CCN(C)c1ccc([N-]C(=O)Cc2ccccc2)cn1 (protonated)
CCN(C)c1ccc([N-]C(=O)Cc2ccccc2)cn1 (3D coordinates assigned)
CCN(C)c1ccc([N-]C(=O)Cc2ccccc2)cn1 (optimized conformer: 37.23931257432581 kcal/mol)

>  <smiles>  (28) 
CCN(C)c1ccc(NC(=O)Cc2ccccc2)cn1

>  <score_type>  (28) 
oracle

>  <origin>  (28) 
adg

>  <m_score__min__energy>  (28) 
-8.7699999999999996

>  <m_primary>  (28) 
energy

$$$$
28:0
     RDKit          3D

 60 63  0  0  0  0  0  0  0  0999 V2000
   -3.3470   24.0660  -29.7870 C   0  0  0  0  0  0  0  0  0  0  0  0
   -4.4350   24.5800  -29.7090 C   0  0  0  0  0  0  0  0  0  0  0  0
   -5.7600   25.2060  -29.6140 C   0  0  0  0  0  0  0  0  0  0  0  0
   -6.7910   24.3950  -30.4020 C   0  0  0  0  0  0  0  0  0  0  0  0
   -6.2870   23.9580  -31.7930 C   0  0  0  0  0  0  0  0  0  0  0  0
   -6.3890   22.5040  -32.0020 N   0  0  0  0  0  0  0  0  0  0  0  0
   -5.3930   21.6120  -32.2930 C   0  0  0  0  0  0  0  0  0  0  0  0
   -3.9620   21.9710  -32.6460 C   0  0  0  0  0  0  0  0  0  0  0  0
   -3.0260   20.8250  -32.8750 N   0  0  0  0  0  0  0  0  0  0  0  0
   -1.9640   21.1690  -33.8400 C   0  0  0  0  0  0  0  0  0  0  0  0
   -1.2460   19.9070  -34.3390 C   0  0  0  0  0  0  0  0  0  0  0  0
   -1.2990   18.8090  -33.3610 N   0  0  0  0  0  0  0  0  0  0  0  0
   -0.9610   17.4790  -33.8130 C   0  0  0  0  0  0  0  0  0  0  0  0
   -0.3720   17.3240  -34.9190 O   0  0  0  0  0  0  0  0  0  0  0  0
   -1.3210   16.2530  -33.0200 C   0  0  0  0  0  0  0  0  0  0  0  0
   -2.5280   15.6700  -33.5100 O   0  0  0  0  0  0  0  0  0  0  0  0
   -3.7420   16.3520  -33.6960 C   0  0  0  0  0  0  0  0  0  0  0  0
   -4.7850   16.3200  -32.7500 C   0  0  0  0  0  0  0  0  0  0  0  0
   -5.9710   17.0210  -32.9880 C   0  0  0  0  0  0  0  0  0  0  0  0
   -6.1300   17.7540  -34.1670 C   0  0  0  0  0  0  0  0  0  0  0  0
   -5.0990   17.7920  -35.1080 C   0  0  0  0  0  0  0  0  0  0  0  0
   -3.9100   17.0950  -34.8720 C   0  0  0  0  0  0  0  0  0  0  0  0
   -1.4430   19.1040  -31.9240 C   0  0  0  0  0  0  0  0  0  0  0  0
   -2.4180   20.2690  -31.6440 C   0  0  0  0  0  0  0  0  0  0  0  0
   -5.8370   20.3320  -32.4190 N   0  0  0  0  0  0  0  0  0  0  0  0
   -7.1590   20.4430  -32.2230 C   0  0  0  0  0  0  0  0  0  0  0  0
   -8.1090   19.4280  -32.3100 C   0  0  0  0  0  0  0  0  0  0  0  0
   -9.4630   19.7830  -32.1800 C   0  0  0  0  0  0  0  0  0  0  0  0
   -9.8320   21.1350  -32.0010 C   0  0  0  0  0  0  0  0  0  0  0  0
   -8.8480   22.1380  -31.9280 C   0  0  0  0  0  0  0  0  0  0  0  0
   -7.5060   21.7460  -32.0080 C   0  0  0  0  0  0  0  0  0  0  0  0
   -2.3545   23.5971  -29.8582 H   0  0  0  0  0  0  0  0  0  0  0  0
   -6.0647   25.2511  -28.5580 H   0  0  0  0  0  0  0  0  0  0  0  0
   -5.7063   26.2206  -30.0356 H   0  0  0  0  0  0  0  0  0  0  0  0
   -7.0438   23.4945  -29.8231 H   0  0  0  0  0  0  0  0  0  0  0  0
   -7.6651   25.0438  -30.5603 H   0  0  0  0  0  0  0  0  0  0  0  0
   -6.8876   24.4672  -32.5611 H   0  0  0  0  0  0  0  0  0  0  0  0
   -5.2235   24.2304  -31.8624 H   0  0  0  0  0  0  0  0  0  0  0  0
   -3.9852   22.5734  -33.5661 H   0  0  0  0  0  0  0  0  0  0  0  0
   -3.5674   22.4996  -31.7658 H   0  0  0  0  0  0  0  0  0  0  0  0
   -3.6010   20.0600  -33.3060 H   0  0  0  0  0  0  0  0  0  0  0  0
   -2.4126   21.6910  -34.6981 H   0  0  0  0  0  0  0  0  0  0  0  0
   -1.2293   21.8154  -33.3377 H   0  0  0  0  0  0  0  0  0  0  0  0
   -1.7248   19.5733  -35.2714 H   0  0  0  0  0  0  0  0  0  0  0  0
   -0.1883   20.1634  -34.4990 H   0  0  0  0  0  0  0  0  0  0  0  0
   -0.5064   15.5184  -33.1017 H   0  0  0  0  0  0  0  0  0  0  0  0
   -1.4702   16.5433  -31.9695 H   0  0  0  0  0  0  0  0  0  0  0  0
   -4.6661   15.7420  -31.8216 H   0  0  0  0  0  0  0  0  0  0  0  0
   -6.7815   16.9954  -32.2448 H   0  0  0  0  0  0  0  0  0  0  0  0
   -7.0663   18.3004  -34.3536 H   0  0  0  0  0  0  0  0  0  0  0  0
   -5.2222   18.3705  -36.0354 H   0  0  0  0  0  0  0  0  0  0  0  0
   -3.1001   17.1303  -35.6155 H   0  0  0  0  0  0  0  0  0  0  0  0
   -1.8180   18.2029  -31.4166 H   0  0  0  0  0  0  0  0  0  0  0  0
   -0.4538   19.4040  -31.5480 H   0  0  0  0  0  0  0  0  0  0  0  0
   -3.2232   19.9025  -30.9903 H   0  0  0  0  0  0  0  0  0  0  0  0
   -1.8389   21.0755  -31.1705 H   0  0  0  0  0  0  0  0  0  0  0  0
   -7.8094   18.3825  -32.4751 H   0  0  0  0  0  0  0  0  0  0  0  0
  -10.2390   19.0043  -32.2178 H   0  0  0  0  0  0  0  0  0  0  0  0
  -10.8951   21.4051  -31.9182 H   0  0  0  0  0  0  0  0  0  0  0  0
   -9.1241   23.1964  -31.8118 H   0  0  0  0  0  0  0  0  0  0  0  0
  1  2  3  0
  2  3  1  0
  3  4  1  0
  4  5  1  0
  5  6  1  0
  6  7  1  0
  7  8  1  0
  8  9  1  0
  9 10  1  0
 10 11  1  0
 11 12  1  0
 12 13  1  0
 13 14  2  0
 13 15  1  0
 15 16  1  0
 16 17  1  0
 17 18  2  0
 18 19  1  0
 19 20  2  0
 20 21  1  0
 21 22  2  0
 12 23  1  0
 23 24  1  0
  7 25  2  0
 25 26  1  0
 26 27  2  0
 27 28  1  0
 28 29  2  0
 29 30  1  0
 30 31  2  0
 31  6  1  0
 24  9  1  0
 31 26  1  0
 22 17  1  0
  1 32  1  0
  3 33  1  0
  3 34  1  0
  4 35  1  0
  4 36  1  0
  5 37  1  0
  5 38  1  0
  8 39  1  0
  8 40  1  0
  9 41  1  0
 10 42  1  0
 10 43  1  0
 11 44  1  0
 11 45  1  0
 15 46  1  0
 15 47  1  0
 18 48  1  0
 19 49  1  0
 20 50  1  0
 21 51  1  0
 22 52  1  0
 23 53  1  0
 23 54  1  0
 24 55  1  0
 24 56  1  0
 27 57  1  0
 28 58  1  0
 29 59  1  0
 30 60  1  0
M  CHG  1   9   1
M  END
>  <UniqueID>  (29) 
29

>  <SMILES>  (29) 
C#CCCCn1c(C[NH+]2CCN(C(=O)COc3ccccc3)CC2)nc2ccccc21

>  <Energy>  (29) 
111.65517847880975

>  <Genealogy>  (29) 
C#CCCCn1c(C[NH+]2CCN(C(=O)COc3ccccc3)CC2)nc2ccccc21 (protonated)
C#CCCCn1c(C[NH+]2CCN(C(=O)COc3ccccc3)CC2)nc2ccccc21 (3D coordinates assigned)
C#CCCCn1c(C[NH+]2CCN(C(=O)COc3ccccc3)CC2)nc2ccccc21 (nonaromatic ring conformer: 111.65517847880975 kcal/mol)

>  <smiles>  (29) 
C#CCCCn1c(CN2CCN(C(=O)COc3ccccc3)CC2)nc2ccccc21

>  <score_type>  (29) 
oracle

>  <origin>  (29) 
adg

>  <m_score__min__energy>  (29) 
-8.0399999999999991

>  <m_primary>  (29) 
energy

$$$$
29:0
     RDKit          3D

 30 31  0  0  0  0  0  0  0  0999 V2000
   -0.3240   22.7550  -25.4890 C   0  0  0  0  0  0  0  0  0  0  0  0
   -0.2570   22.6080  -27.0170 C   0  0  0  0  0  0  0  0  0  0  0  0
   -1.5090   22.9720  -27.7160 N   0  0  0  0  0  0  0  0  0  0  0  0
   -1.9770   24.3430  -27.3970 C   0  0  0  0  0  0  0  0  0  0  0  0
   -3.4750   24.5480  -27.6940 C   0  0  0  0  0  0  0  0  0  0  0  0
   -3.9130   23.6630  -28.7790 N   0  0  0  0  0  0  0  0  0  0  0  0
   -4.3950   24.2200  -30.0150 C   0  0  0  0  0  0  0  0  0  0  0  0
   -3.8640   25.2690  -30.4730 O   0  0  0  0  0  0  0  0  0  0  0  0
   -5.4850   23.5860  -30.7780 C   0  0  0  0  0  0  0  0  0  0  0  0
   -6.7400   24.1660  -30.9650 C   0  0  0  0  0  0  0  0  0  0  0  0
   -7.6480   23.1310  -31.9310 S   0  0  0  0  0  0  0  0  0  0  0  0
   -6.4130   22.0030  -32.0750 C   0  0  0  0  0  0  0  0  0  0  0  0
   -6.5340   20.3820  -33.0690 Br  0  0  0  0  0  0  0  0  0  0  0  0
   -5.3070   22.3920  -31.4070 N   0  0  0  0  0  0  0  0  0  0  0  0
   -3.6310   22.2230  -28.6800 C   0  0  0  0  0  0  0  0  0  0  0  0
   -2.5660   21.9490  -27.6130 C   0  0  0  0  0  0  0  0  0  0  0  0
    0.0877   21.8516  -25.0153 H   0  0  0  0  0  0  0  0  0  0  0  0
    0.2634   23.6318  -25.1789 H   0  0  0  0  0  0  0  0  0  0  0  0
   -1.3711   22.8868  -25.1789 H   0  0  0  0  0  0  0  0  0  0  0  0
    0.5484   23.2571  -27.3912 H   0  0  0  0  0  0  0  0  0  0  0  0
   -0.0767   21.5430  -27.2248 H   0  0  0  0  0  0  0  0  0  0  0  0
   -1.8015   24.5342  -26.3281 H   0  0  0  0  0  0  0  0  0  0  0  0
   -1.4149   25.0411  -28.0347 H   0  0  0  0  0  0  0  0  0  0  0  0
   -4.0570   24.3241  -26.7878 H   0  0  0  0  0  0  0  0  0  0  0  0
   -3.6355   25.5918  -28.0016 H   0  0  0  0  0  0  0  0  0  0  0  0
   -7.0760   25.1293  -30.5537 H   0  0  0  0  0  0  0  0  0  0  0  0
   -4.5560   21.6921  -28.4109 H   0  0  0  0  0  0  0  0  0  0  0  0
   -3.2555   21.8697  -29.6517 H   0  0  0  0  0  0  0  0  0  0  0  0
   -3.0249   21.9921  -26.6142 H   0  0  0  0  0  0  0  0  0  0  0  0
   -2.1327   20.9499  -27.7683 H   0  0  0  0  0  0  0  0  0  0  0  0
  1  2  1  0
  2  3  1  0
  3  4  1  0
  4  5  1  0
  5  6  1  0
  6  7  1  0
  7  8  2  0
  7  9  1  0
  9 10  2  0
 10 11  1  0
 11 12  1  0
 12 13  1  0
 12 14  2  0
  6 15  1  0
 15 16  1  0
 16  3  1  0
 14  9  1  0
  1 17  1  0
  1 18  1  0
  1 19  1  0
  2 20  1  0
  2 21  1  0
  4 22  1  0
  4 23  1  0
  5 24  1  0
  5 25  1  0
 10 26  1  0
 15 27  1  0
 15 28  1  0
 16 29  1  0
 16 30  1  0
M  END
>  <UniqueID>  (30) 
30

>  <SMILES>  (30) 
CCN1CCN(C(=O)c2csc(Br)n2)CC1

>  <Energy>  (30) 
69.45555426439012

>  <Genealogy>  (30) 
CCN1CCN(C(=O)c2csc(Br)n2)CC1 (3D coordinates assigned)
CCN1CCN(C(=O)c2csc(Br)n2)CC1 (nonaromatic ring conformer: 69.45555426439012 kcal/mol)

>  <smiles>  (30) 
CCN1CCN(C(=O)c2csc(Br)n2)CC1

>  <score_type>  (30) 
oracle

>  <origin>  (30) 
adg

>  <m_score__min__energy>  (30) 
-6.4900000000000002

>  <m_primary>  (30) 
energy

$$$$
30:0
     RDKit          3D

 54 57  0  0  0  0  0  0  0  0999 V2000
   -6.0740   24.9850  -29.6870 C   0  0  0  0  0  0  0  0  0  0  0  0
   -5.1810   25.6310  -30.7400 C   0  0  0  0  0  0  0  0  0  0  0  0
   -3.8870   24.9390  -30.8110 N   0  0  0  0  0  0  0  0  0  0  0  0
   -3.7350   23.8940  -29.7760 C   0  0  0  0  0  0  0  0  0  0  0  0
   -4.0270   22.4800  -30.3090 C   0  0  0  0  0  0  0  0  0  0  0  0
   -4.2140   22.4690  -31.7600 N   0  0  0  0  0  0  0  0  0  0  0  0
   -4.4030   21.2290  -32.4480 C   0  0  0  0  0  0  0  0  0  0  0  0
   -3.3180   20.4740  -32.9770 C   0  0  0  0  0  0  0  0  0  0  0  0
   -1.9620   20.8290  -32.7220 C   0  0  0  0  0  0  0  0  0  0  0  0
   -1.6680   21.9400  -31.9090 O   0  0  0  0  0  0  0  0  0  0  0  0
   -0.8490   21.9380  -30.7390 C   0  0  0  0  0  0  0  0  0  0  0  0
   -1.0780   20.6710  -29.9210 C   0  0  0  0  0  0  0  0  0  0  0  0
   -0.9290   20.0430  -33.2620 C   0  0  0  0  0  0  0  0  0  0  0  0
   -1.2110   18.9160  -34.0180 C   0  0  0  0  0  0  0  0  0  0  0  0
   -2.5250   18.5420  -34.2650 C   0  0  0  0  0  0  0  0  0  0  0  0
   -3.6080   19.3080  -33.7760 C   0  0  0  0  0  0  0  0  0  0  0  0
   -4.9190   18.9390  -34.0420 N   0  0  0  0  0  0  0  0  0  0  0  0
   -5.2350   17.8210  -34.9530 C   0  0  0  0  0  0  0  0  0  0  0  0
   -5.9280   19.6250  -33.4230 C   0  0  0  0  0  0  0  0  0  0  0  0
   -7.2520   19.3250  -33.4580 N   0  0  0  0  0  0  0  0  0  0  0  0
   -7.8460   20.2680  -32.7020 C   0  0  0  0  0  0  0  0  0  0  0  0
   -9.2070   20.3700  -32.4120 C   0  0  0  0  0  0  0  0  0  0  0  0
   -9.6250   21.4120  -31.5660 C   0  0  0  0  0  0  0  0  0  0  0  0
   -8.6850   22.3130  -31.0240 C   0  0  0  0  0  0  0  0  0  0  0  0
   -7.3180   22.1870  -31.3250 C   0  0  0  0  0  0  0  0  0  0  0  0
   -6.9270   21.1560  -32.1850 C   0  0  0  0  0  0  0  0  0  0  0  0
   -5.6910   20.7400  -32.6490 C   0  0  0  0  0  0  0  0  0  0  0  0
   -5.7083   25.2495  -28.6838 H   0  0  0  0  0  0  0  0  0  0  0  0
   -7.1055   25.3474  -29.8086 H   0  0  0  0  0  0  0  0  0  0  0  0
   -6.0526   23.8920  -29.8086 H   0  0  0  0  0  0  0  0  0  0  0  0
   -5.6768   25.5732  -31.7202 H   0  0  0  0  0  0  0  0  0  0  0  0
   -5.0082   26.6818  -30.4643 H   0  0  0  0  0  0  0  0  0  0  0  0
   -3.1230   25.6480  -30.7390 H   0  0  0  0  0  0  0  0  0  0  0  0
   -2.7022   23.9209  -29.3983 H   0  0  0  0  0  0  0  0  0  0  0  0
   -4.4656   24.1059  -28.9815 H   0  0  0  0  0  0  0  0  0  0  0  0
   -3.1820   21.8232  -30.0548 H   0  0  0  0  0  0  0  0  0  0  0  0
   -4.9592   22.1273  -29.8436 H   0  0  0  0  0  0  0  0  0  0  0  0
   -4.1460   23.3450  -32.3230 H   0  0  0  0  0  0  0  0  0  0  0  0
    0.2083   21.9879  -31.0385 H   0  0  0  0  0  0  0  0  0  0  0  0
   -1.1131   22.8093  -30.1217 H   0  0  0  0  0  0  0  0  0  0  0  0
   -1.0341   20.9137  -28.8490 H   0  0  0  0  0  0  0  0  0  0  0  0
   -2.0663   20.2526  -30.1621 H   0  0  0  0  0  0  0  0  0  0  0  0
   -0.2987   19.9331  -30.1621 H   0  0  0  0  0  0  0  0  0  0  0  0
    0.1184   20.3266  -33.0819 H   0  0  0  0  0  0  0  0  0  0  0  0
   -0.3865   18.3127  -34.4258 H   0  0  0  0  0  0  0  0  0  0  0  0
   -2.7270   17.6336  -34.8515 H   0  0  0  0  0  0  0  0  0  0  0  0
   -5.4875   16.9275  -34.3631 H   0  0  0  0  0  0  0  0  0  0  0  0
   -6.0907   18.0955  -35.5873 H   0  0  0  0  0  0  0  0  0  0  0  0
   -4.3622   17.6070  -35.5873 H   0  0  0  0  0  0  0  0  0  0  0  0
   -7.7350   18.5230  -33.9180 H   0  0  0  0  0  0  0  0  0  0  0  0
   -9.9310   19.6566  -32.8326 H   0  0  0  0  0  0  0  0  0  0  0  0
  -10.6923   21.5254  -31.3251 H   0  0  0  0  0  0  0  0  0  0  0  0
   -9.0248   23.1214  -30.3599 H   0  0  0  0  0  0  0  0  0  0  0  0
   -6.5777   22.8788  -30.8968 H   0  0  0  0  0  0  0  0  0  0  0  0
  1  2  1  0
  2  3  1  0
  3  4  1  0
  4  5  1  0
  5  6  1  0
  6  7  1  0
  7  8  2  0
  8  9  1  0
  9 10  1  0
 10 11  1  0
 11 12  1  0
  9 13  2  0
 13 14  1  0
 14 15  2  0
 15 16  1  0
 16 17  2  0
 17 18  1  0
 17 19  1  0
 19 20  1  0
 20 21  1  0
 21 22  2  0
 22 23  1  0
 23 24  2  0
 24 25  1  0
 25 26  2  0
 26 27  1  0
 27  7  1  0
 16  8  1  0
 27 19  2  0
 26 21  1  0
  1 28  1  0
  1 29  1  0
  1 30  1  0
  2 31  1  0
  2 32  1  0
  3 33  1  0
  4 34  1  0
  4 35  1  0
  5 36  1  0
  5 37  1  0
  6 38  1  0
 11 39  1  0
 11 40  1  0
 12 41  1  0
 12 42  1  0
 12 43  1  0
 13 44  1  0
 14 45  1  0
 15 46  1  0
 18 47  1  0
 18 48  1  0
 18 49  1  0
 20 50  1  0
 22 51  1  0
 23 52  1  0
 24 53  1  0
 25 54  1  0
M  CHG  1  17   1
M  END
>  <UniqueID>  (31) 
31

>  <SMILES>  (31) 
CCNCCNc1c2c(OCC)cccc2[n+](C)c2[nH]c3ccccc3c12

>  <Energy>  (31) 
113.68200876843446

>  <Genealogy>  (31) 
CCNCCNc1c2c(OCC)cccc2[n+](C)c2[nH]c3ccccc3c12 (3D coordinates assigned)
CCNCCNc1c2c(OCC)cccc2[n+](C)c2[nH]c3ccccc3c12 (optimized conformer: 113.68200876843446 kcal/mol)

>  <smiles>  (31) 
CCNCCNc1c2c(OCC)cccc2[n+](C)c2[nH]c3ccccc3c12

>  <score_type>  (31) 
oracle

>  <origin>  (31) 
adg

>  <m_score__min__energy>  (31) 
-8.6999999999999993

>  <m_primary>  (31) 
energy

$$$$
31:0
     RDKit          3D

 33 34  0  0  0  0  0  0  0  0999 V2000
   -2.6530   24.5130  -29.3550 C   0  0  0  0  0  0  0  0  0  0  0  0
   -3.5030   24.9020  -30.4290 O   0  0  0  0  0  0  0  0  0  0  0  0
   -4.7230   24.2800  -30.7380 C   0  0  0  0  0  0  0  0  0  0  0  0
   -4.7990   23.1250  -31.5400 C   0  0  0  0  0  0  0  0  0  0  0  0
   -6.0390   22.5430  -31.8200 C   0  0  0  0  0  0  0  0  0  0  0  0
   -7.2150   23.1070  -31.3090 C   0  0  0  0  0  0  0  0  0  0  0  0
   -8.7730   22.3680  -31.6700 S   0  0  0  0  0  0  0  0  0  0  0  0
   -9.4090   21.9200  -30.3840 O   0  0  0  0  0  0  0  0  0  0  0  0
   -9.6750   23.3660  -32.3440 O   0  0  0  0  0  0  0  0  0  0  0  0
   -8.5530   20.9930  -32.7100 N   0  0  0  0  0  0  0  0  0  0  0  0
   -8.6050   19.7610  -31.9210 C   0  0  0  0  0  0  0  0  0  0  0  0
   -7.4390   18.8940  -32.2740 C   0  0  0  0  0  0  0  0  0  0  0  0
   -7.0440   17.8040  -31.5000 C   0  0  0  0  0  0  0  0  0  0  0  0
   -5.7340   17.0790  -32.2660 S   0  0  0  0  0  0  0  0  0  0  0  0
   -5.7470   18.1600  -33.5540 C   0  0  0  0  0  0  0  0  0  0  0  0
   -4.7600   18.1650  -34.6700 C   0  0  0  0  0  0  0  0  0  0  0  0
   -6.7190   19.0870  -33.4130 N   0  0  0  0  0  0  0  0  0  0  0  0
   -7.1410   24.2520  -30.5070 C   0  0  0  0  0  0  0  0  0  0  0  0
   -5.9010   24.8350  -30.2260 C   0  0  0  0  0  0  0  0  0  0  0  0
   -3.1454   24.7384  -28.3975 H   0  0  0  0  0  0  0  0  0  0  0  0
   -2.4522   23.4334  -29.4189 H   0  0  0  0  0  0  0  0  0  0  0  0
   -1.7047   25.0667  -29.4189 H   0  0  0  0  0  0  0  0  0  0  0  0
   -3.8797   22.6792  -31.9476 H   0  0  0  0  0  0  0  0  0  0  0  0
   -6.0913   21.6386  -32.4440 H   0  0  0  0  0  0  0  0  0  0  0  0
   -7.5970   21.0740  -33.1250 H   0  0  0  0  0  0  0  0  0  0  0  0
   -8.5664   20.0094  -30.8501 H   0  0  0  0  0  0  0  0  0  0  0  0
   -9.5403   19.2247  -32.1393 H   0  0  0  0  0  0  0  0  0  0  0  0
   -7.5063   17.4767  -30.5571 H   0  0  0  0  0  0  0  0  0  0  0  0
   -3.7402   18.1702  -34.2576 H   0  0  0  0  0  0  0  0  0  0  0  0
   -4.9010   17.2661  -35.2882 H   0  0  0  0  0  0  0  0  0  0  0  0
   -4.9101   19.0624  -35.2882 H   0  0  0  0  0  0  0  0  0  0  0  0
   -8.0607   24.6945  -30.0966 H   0  0  0  0  0  0  0  0  0  0  0  0
   -5.8515   25.7366  -29.5978 H   0  0  0  0  0  0  0  0  0  0  0  0
  1  2  1  0
  2  3  1  0
  3  4  2  0
  4  5  1  0
  5  6  2  0
  6  7  1  0
  7  8  2  0
  7  9  2  0
  7 10  1  0
 10 11  1  0
 11 12  1  0
 12 13  2  0
 13 14  1  0
 14 15  1  0
 15 16  1  0
 15 17  2  0
  6 18  1  0
 18 19  2  0
 19  3  1  0
 17 12  1  0
  1 20  1  0
  1 21  1  0
  1 22  1  0
  4 23  1  0
  5 24  1  0
 10 25  1  0
 11 26  1  0
 11 27  1  0
 13 28  1  0
 16 29  1  0
 16 30  1  0
 16 31  1  0
 18 32  1  0
 19 33  1  0
M  END
>  <UniqueID>  (32) 
32

>  <SMILES>  (32) 
COc1ccc(S(=O)(=O)NCc2csc(C)n2)cc1

>  <Energy>  (32) 
56.460613114367554

>  <Genealogy>  (32) 
COc1ccc(S(=O)(=O)NCc2csc(C)n2)cc1 (3D coordinates assigned)
COc1ccc(S(=O)(=O)NCc2csc(C)n2)cc1 (optimized conformer: 56.460613114367554 kcal/mol)

>  <smiles>  (32) 
COc1ccc(S(=O)(=O)NCc2csc(C)n2)cc1

>  <score_type>  (32) 
oracle

>  <origin>  (32) 
adg

>  <m_score__min__energy>  (32) 
-7.5800000000000001

>  <m_primary>  (32) 
energy

$$$$
32:0
     RDKit          3D

 45 47  0  0  0  0  0  0  0  0999 V2000
   -3.1670   23.6660  -31.8110 H   0  0  0  0  0  0  0  0  0  0  0  0
   -3.4820   23.9550  -30.8580 N   0  0  0  0  0  0  0  0  0  0  0  0
   -4.7320   24.1600  -30.5990 C   0  0  0  0  0  0  0  0  0  0  0  0
   -5.2990   24.9150  -29.2100 S   0  0  0  0  0  0  0  0  0  0  0  0
   -6.9130   24.7780  -29.6720 C   0  0  0  0  0  0  0  0  0  0  0  0
   -7.7807   25.1314  -29.0956 H   0  0  0  0  0  0  0  0  0  0  0  0
   -6.9600   24.1410  -30.9080 C   0  0  0  0  0  0  0  0  0  0  0  0
   -7.9052   23.9338  -31.4311 H   0  0  0  0  0  0  0  0  0  0  0  0
   -5.7460   23.7930  -31.4220 N   0  0  0  0  0  0  0  0  0  0  0  0
   -5.5830   23.0930  -32.7040 C   0  0  0  0  0  0  0  0  0  0  0  0
   -6.4105   23.3693  -33.3740 H   0  0  0  0  0  0  0  0  0  0  0  0
   -4.6195   23.3857  -33.1467 H   0  0  0  0  0  0  0  0  0  0  0  0
   -5.5890   21.5840  -32.4980 C   0  0  0  0  0  0  0  0  0  0  0  0
   -4.3380   20.9200  -32.5310 C   0  0  0  0  0  0  0  0  0  0  0  0
   -3.1720   21.6860  -32.7100 O   0  0  0  0  0  0  0  0  0  0  0  0
   -1.8420   21.1770  -32.8100 C   0  0  0  0  0  0  0  0  0  0  0  0
   -1.8770   20.1396  -33.1742 H   0  0  0  0  0  0  0  0  0  0  0  0
   -1.2711   21.8037  -33.5109 H   0  0  0  0  0  0  0  0  0  0  0  0
   -1.1530   21.2090  -31.4360 C   0  0  0  0  0  0  0  0  0  0  0  0
   -0.9294   20.1760  -31.1311 H   0  0  0  0  0  0  0  0  0  0  0  0
   -0.2387   21.8119  -31.5386 H   0  0  0  0  0  0  0  0  0  0  0  0
   -1.9850   21.8390  -30.3920 N   0  0  0  0  0  0  0  0  0  0  0  0
   -1.6930   22.8400  -30.2960 H   0  0  0  0  0  0  0  0  0  0  0  0
   -2.9830   21.8380  -30.7050 H   0  0  0  0  0  0  0  0  0  0  0  0
   -1.9050   21.1890  -29.0710 C   0  0  0  0  0  0  0  0  0  0  0  0
   -1.8592   20.0999  -29.2184 H   0  0  0  0  0  0  0  0  0  0  0  0
   -1.0049   21.5735  -28.5689 H   0  0  0  0  0  0  0  0  0  0  0  0
   -3.1030   21.5100  -28.1730 C   0  0  0  0  0  0  0  0  0  0  0  0
   -2.8024   21.4295  -27.1179 H   0  0  0  0  0  0  0  0  0  0  0  0
   -3.4512   22.5331  -28.3780 H   0  0  0  0  0  0  0  0  0  0  0  0
   -3.9161   20.7980  -28.3780 H   0  0  0  0  0  0  0  0  0  0  0  0
   -4.2800   19.5250  -32.3780 C   0  0  0  0  0  0  0  0  0  0  0  0
   -3.3052   19.0158  -32.4019 H   0  0  0  0  0  0  0  0  0  0  0  0
   -5.4380   18.7810  -32.1970 C   0  0  0  0  0  0  0  0  0  0  0  0
   -5.3724   17.6894  -32.0786 H   0  0  0  0  0  0  0  0  0  0  0  0
   -6.6860   19.4080  -32.1640 C   0  0  0  0  0  0  0  0  0  0  0  0
   -7.8400   18.6300  -31.9830 C   0  0  0  0  0  0  0  0  0  0  0  0
   -7.7515   17.5401  -31.8633 H   0  0  0  0  0  0  0  0  0  0  0  0
   -9.0970   19.2300  -31.9540 C   0  0  0  0  0  0  0  0  0  0  0  0
   -9.9974   18.6145  -31.8111 H   0  0  0  0  0  0  0  0  0  0  0  0
   -9.2130   20.6090  -32.1060 C   0  0  0  0  0  0  0  0  0  0  0  0
  -10.2071   21.0793  -32.0835 H   0  0  0  0  0  0  0  0  0  0  0  0
   -8.0750   21.4000  -32.2870 C   0  0  0  0  0  0  0  0  0  0  0  0
   -8.1838   22.4880  -32.4070 H   0  0  0  0  0  0  0  0  0  0  0  0
   -6.7830   20.8190  -32.3180 C   0  0  0  0  0  0  0  0  0  0  0  0
  1  2  1  0
  2  3  2  0
  3  4  1  0
  4  5  1  0
  5  6  1  0
  5  7  2  0
  7  8  1  0
  7  9  1  0
  9 10  1  0
 10 11  1  0
 10 12  1  0
 10 13  1  0
 13 14  2  0
 14 15  1  0
 15 16  1  0
 16 17  1  0
 16 18  1  0
 16 19  1  0
 19 20  1  0
 19 21  1  0
 19 22  1  0
 22 23  1  0
 22 24  1  0
 22 25  1  0
 25 26  1  0
 25 27  1  0
 25 28  1  0
 28 29  1  0
 28 30  1  0
 28 31  1  0
 14 32  1  0
 32 33  1  0
 32 34  2  0
 34 35  1  0
 34 36  1  0
 36 37  2  0
 37 38  1  0
 37 39  1  0
 39 40  1  0
 39 41  2  0
 41 42  1  0
 41 43  1  0
 43 44  1  0
 43 45  2  0
  9  3  1  0
 45 13  1  0
 45 36  1  0
M  CHG  1  22   1
M  END
>  <UniqueID>  (33) 
33

>  <SMILES>  (33) 
[H]/N=c1\sccn1Cc1c(OCC[NH2+]CC)ccc2ccccc12

>  <Energy>  (33) 
82.85421447073622

>  <Genealogy>  (33) 
CC[NH2+]CCOc1ccc2ccccc2c1Cn1ccsc1=N (protonated)
[H]/N=c1\sccn1Cc1c(OCC[NH2+]CC)ccc2ccccc12 (cis-trans isomerization)
[H]/N=c1\sccn1Cc1c(OCC[NH2+]CC)ccc2ccccc12 (3D coordinates assigned)
[H]/N=c1\sccn1Cc1c(OCC[NH2+]CC)ccc2ccccc12 (optimized conformer: 82.85421447073622 kcal/mol)

>  <smiles>  (33) 
CCNCCOc1ccc2ccccc2c1Cn1ccsc1=N

>  <score_type>  (33) 
oracle

>  <origin>  (33) 
adg

>  <m_score__min__energy>  (33) 
-7.6900000000000004

>  <m_primary>  (33) 
energy

$$$$
33:0
     RDKit          3D

 40 42  0  0  0  0  0  0  0  0999 V2000
   -5.4660   22.9500  -29.8150 C   0  0  0  0  0  0  0  0  0  0  0  0
   -4.8620   23.5750  -31.0030 N   0  0  0  0  0  0  0  0  0  0  0  0
   -4.8620   25.0390  -30.8350 C   0  0  0  0  0  0  0  0  0  0  0  0
   -3.4890   23.0610  -31.2080 C   0  0  0  0  0  0  0  0  0  0  0  0
   -3.4790   21.9470  -32.2670 C   0  0  0  0  0  0  0  0  0  0  0  0
   -4.6250   22.0840  -33.1840 N   0  0  0  0  0  0  0  0  0  0  0  0
   -5.5740   20.9940  -33.0800 C   0  0  0  0  0  0  0  0  0  0  0  0
   -5.2070   19.7220  -33.4090 N   0  0  0  0  0  0  0  0  0  0  0  0
   -6.0670   18.6740  -33.3260 C   0  0  0  0  0  0  0  0  0  0  0  0
   -5.6200   17.3230  -33.6910 C   0  0  0  0  0  0  0  0  0  0  0  0
   -6.4330   16.2050  -33.8430 C   0  0  0  0  0  0  0  0  0  0  0  0
   -5.7230   15.0500  -34.1970 C   0  0  0  0  0  0  0  0  0  0  0  0
   -4.3550   15.2520  -34.3230 C   0  0  0  0  0  0  0  0  0  0  0  0
   -4.0280   16.8690  -33.9950 S   0  0  0  0  0  0  0  0  0  0  0  0
   -7.3400   18.8780  -32.9030 N   0  0  0  0  0  0  0  0  0  0  0  0
   -7.7760   20.1170  -32.5600 C   0  0  0  0  0  0  0  0  0  0  0  0
   -9.0950   20.2940  -32.1300 C   0  0  0  0  0  0  0  0  0  0  0  0
   -9.5520   21.5670  -31.7760 C   0  0  0  0  0  0  0  0  0  0  0  0
   -8.6940   22.6650  -31.8520 C   0  0  0  0  0  0  0  0  0  0  0  0
   -7.3730   22.5010  -32.2800 C   0  0  0  0  0  0  0  0  0  0  0  0
   -6.8990   21.2230  -32.6390 C   0  0  0  0  0  0  0  0  0  0  0  0
   -5.0348   23.3962  -28.9067 H   0  0  0  0  0  0  0  0  0  0  0  0
   -6.5531   23.1175  -29.8253 H   0  0  0  0  0  0  0  0  0  0  0  0
   -5.2614   21.8692  -29.8253 H   0  0  0  0  0  0  0  0  0  0  0  0
   -3.8249   25.4033  -30.7932 H   0  0  0  0  0  0  0  0  0  0  0  0
   -5.3805   25.5057  -31.6855 H   0  0  0  0  0  0  0  0  0  0  0  0
   -5.3805   25.3009  -29.9009 H   0  0  0  0  0  0  0  0  0  0  0  0
   -2.8415   23.8844  -31.5438 H   0  0  0  0  0  0  0  0  0  0  0  0
   -3.1198   22.6488  -30.2573 H   0  0  0  0  0  0  0  0  0  0  0  0
   -2.5454   22.0081  -32.8454 H   0  0  0  0  0  0  0  0  0  0  0  0
   -3.5511   20.9754  -31.7563 H   0  0  0  0  0  0  0  0  0  0  0  0
   -5.1230   22.9790  -32.9630 H   0  0  0  0  0  0  0  0  0  0  0  0
   -4.2670   22.1150  -34.1670 H   0  0  0  0  0  0  0  0  0  0  0  0
   -7.5234   16.2253  -33.6998 H   0  0  0  0  0  0  0  0  0  0  0  0
   -6.2044   14.0744  -34.3599 H   0  0  0  0  0  0  0  0  0  0  0  0
   -3.6125   14.4860  -34.5913 H   0  0  0  0  0  0  0  0  0  0  0  0
   -9.7738   19.4305  -32.0702 H   0  0  0  0  0  0  0  0  0  0  0  0
  -10.5895   21.7033  -31.4370 H   0  0  0  0  0  0  0  0  0  0  0  0
   -9.0588   23.6647  -31.5737 H   0  0  0  0  0  0  0  0  0  0  0  0
   -6.7023   23.3711  -32.3367 H   0  0  0  0  0  0  0  0  0  0  0  0
  1  2  1  0
  2  3  1  0
  2  4  1  0
  4  5  1  0
  5  6  1  0
  6  7  1  0
  7  8  2  0
  8  9  1  0
  9 10  1  0
 10 11  2  0
 11 12  1  0
 12 13  2  0
 13 14  1  0
  9 15  2  0
 15 16  1  0
 16 17  2  0
 17 18  1  0
 18 19  2  0
 19 20  1  0
 20 21  2  0
 21  7  1  0
 14 10  1  0
 21 16  1  0
  1 22  1  0
  1 23  1  0
  1 24  1  0
  3 25  1  0
  3 26  1  0
  3 27  1  0
  4 28  1  0
  4 29  1  0
  5 30  1  0
  5 31  1  0
  6 32  1  0
  6 33  1  0
 11 34  1  0
 12 35  1  0
 13 36  1  0
 17 37  1  0
 18 38  1  0
 19 39  1  0
 20 40  1  0
M  CHG  1   6   1
M  END
>  <UniqueID>  (34) 
34

>  <SMILES>  (34) 
CN(C)CC[NH2+]c1nc(-c2cccs2)nc2ccccc12

>  <Energy>  (34) 
73.79577669214875

>  <Genealogy>  (34) 
CN(C)CC[NH2+]c1nc(-c2cccs2)nc2ccccc12 (protonated)
CN(C)CC[NH2+]c1nc(-c2cccs2)nc2ccccc12 (3D coordinates assigned)
CN(C)CC[NH2+]c1nc(-c2cccs2)nc2ccccc12 (optimized conformer: 73.79577669214875 kcal/mol)

>  <smiles>  (34) 
CN(C)CCNc1nc(-c2cccs2)nc2ccccc12

>  <score_type>  (34) 
oracle

>  <origin>  (34) 
adg

>  <m_score__min__energy>  (34) 
-7.3399999999999999

>  <m_primary>  (34) 
energy

$$$$
34:0
     RDKit          3D

 21 22  0  0  0  0  0  0  0  0999 V2000
   -5.7360   18.1340  -34.9670 C   0  0  0  0  0  0  0  0  0  0  0  0
   -5.5070   18.8650  -33.6490 C   0  0  0  0  0  0  0  0  0  0  0  0
   -6.8130   19.1430  -32.9580 C   0  0  0  0  0  0  0  0  0  0  0  0
   -7.7600   18.1450  -32.7130 C   0  0  0  0  0  0  0  0  0  0  0  0
   -9.1130   18.8320  -31.9710 S   0  0  0  0  0  0  0  0  0  0  0  0
   -8.5120   20.3970  -31.9640 C   0  0  0  0  0  0  0  0  0  0  0  0
   -9.1280   21.5500  -31.4860 C   0  0  0  0  0  0  0  0  0  0  0  0
   -8.4390   22.7670  -31.5970 C   0  0  0  0  0  0  0  0  0  0  0  0
   -7.1590   22.8050  -32.1800 C   0  0  0  0  0  0  0  0  0  0  0  0
   -6.5550   21.6290  -32.6570 C   0  0  0  0  0  0  0  0  0  0  0  0
   -7.2490   20.4160  -32.5400 C   0  0  0  0  0  0  0  0  0  0  0  0
   -6.0591   17.1025  -34.7629 H   0  0  0  0  0  0  0  0  0  0  0  0
   -6.5141   18.6545  -35.5446 H   0  0  0  0  0  0  0  0  0  0  0  0
   -4.8000   18.1175  -35.5446 H   0  0  0  0  0  0  0  0  0  0  0  0
   -4.8789   18.2418  -32.9955 H   0  0  0  0  0  0  0  0  0  0  0  0
   -5.0088   19.8229  -33.8594 H   0  0  0  0  0  0  0  0  0  0  0  0
   -7.6429   17.0804  -32.9637 H   0  0  0  0  0  0  0  0  0  0  0  0
  -10.1294   21.5080  -31.0328 H   0  0  0  0  0  0  0  0  0  0  0  0
   -8.9008   23.6943  -31.2271 H   0  0  0  0  0  0  0  0  0  0  0  0
   -6.6262   23.7638  -32.2632 H   0  0  0  0  0  0  0  0  0  0  0  0
   -5.5550   21.6595  -33.1143 H   0  0  0  0  0  0  0  0  0  0  0  0
  1  2  1  0
  2  3  1  0
  3  4  2  0
  4  5  1  0
  5  6  1  0
  6  7  2  0
  7  8  1  0
  8  9  2  0
  9 10  1  0
 10 11  2  0
 11  3  1  0
 11  6  1  0
  1 12  1  0
  1 13  1  0
  1 14  1  0
  2 15  1  0
  2 16  1  0
  4 17  1  0
  7 18  1  0
  8 19  1  0
  9 20  1  0
 10 21  1  0
M  END
>  <UniqueID>  (35) 
35

>  <SMILES>  (35) 
CCc1csc2ccccc12

>  <Energy>  (35) 
48.66377644745331

>  <Genealogy>  (35) 
CCc1csc2ccccc12 (3D coordinates assigned)
CCc1csc2ccccc12 (optimized conformer: 48.66377644745331 kcal/mol)

>  <smiles>  (35) 
CCc1csc2ccccc12

>  <score_type>  (35) 
oracle

>  <origin>  (35) 
adg

>  <m_score__min__energy>  (35) 
-5.7199999999999998

>  <m_primary>  (35) 
energy

$$$$
35:0
     RDKit          3D

 46 48  0  0  0  0  0  0  0  0999 V2000
   -2.4750   22.5830  -30.9590 C   0  0  0  0  0  0  0  0  0  0  0  0
   -2.6570   23.4330  -29.7420 C   0  0  0  0  0  0  0  0  0  0  0  0
   -1.6940   24.2430  -29.2620 N   0  0  0  0  0  0  0  0  0  0  0  0
   -2.1570   24.8080  -28.1580 N   0  0  0  0  0  0  0  0  0  0  0  0
   -1.3870   25.7570  -27.3610 C   0  0  0  0  0  0  0  0  0  0  0  0
   -3.4160   24.3810  -27.9150 C   0  0  0  0  0  0  0  0  0  0  0  0
   -4.2310   24.7840  -26.7210 C   0  0  0  0  0  0  0  0  0  0  0  0
   -3.7630   23.4670  -28.9020 C   0  0  0  0  0  0  0  0  0  0  0  0
   -5.0420   22.6690  -29.0420 C   0  0  0  0  0  0  0  0  0  0  0  0
   -6.1810   23.5000  -29.5130 N   0  0  0  0  0  0  0  0  0  0  0  0
   -5.8430   24.3100  -30.7120 C   0  0  0  0  0  0  0  0  0  0  0  0
   -5.5790   23.4380  -31.9540 C   0  0  0  0  0  0  0  0  0  0  0  0
   -6.4070   22.2300  -31.9250 N   0  0  0  0  0  0  0  0  0  0  0  0
   -5.9790   21.0360  -32.6090 C   0  0  0  0  0  0  0  0  0  0  0  0
   -4.6150   20.8130  -32.8640 C   0  0  0  0  0  0  0  0  0  0  0  0
   -4.1990   19.6440  -33.5120 C   0  0  0  0  0  0  0  0  0  0  0  0
   -5.1390   18.6870  -33.9010 C   0  0  0  0  0  0  0  0  0  0  0  0
   -6.4960   18.8950  -33.6430 C   0  0  0  0  0  0  0  0  0  0  0  0
   -6.9160   20.0610  -32.9970 C   0  0  0  0  0  0  0  0  0  0  0  0
   -7.6670   22.2770  -31.1820 C   0  0  0  0  0  0  0  0  0  0  0  0
   -7.4120   22.6800  -29.7170 C   0  0  0  0  0  0  0  0  0  0  0  0
   -2.2537   21.5494  -30.6546 H   0  0  0  0  0  0  0  0  0  0  0  0
   -3.3970   22.5992  -31.5588 H   0  0  0  0  0  0  0  0  0  0  0  0
   -1.6405   22.9753  -31.5588 H   0  0  0  0  0  0  0  0  0  0  0  0
   -1.5504   25.5556  -26.2920 H   0  0  0  0  0  0  0  0  0  0  0  0
   -0.3176   25.6496  -27.5950 H   0  0  0  0  0  0  0  0  0  0  0  0
   -1.7125   26.7814  -27.5950 H   0  0  0  0  0  0  0  0  0  0  0  0
   -3.6905   24.5167  -25.8010 H   0  0  0  0  0  0  0  0  0  0  0  0
   -4.4018   25.8704  -26.7434 H   0  0  0  0  0  0  0  0  0  0  0  0
   -5.1980   24.2602  -26.7434 H   0  0  0  0  0  0  0  0  0  0  0  0
   -4.8743   21.8573  -29.7652 H   0  0  0  0  0  0  0  0  0  0  0  0
   -5.3024   22.2765  -28.0479 H   0  0  0  0  0  0  0  0  0  0  0  0
   -6.4040   24.1810  -28.7500 H   0  0  0  0  0  0  0  0  0  0  0  0
   -6.6817   24.9881  -30.9282 H   0  0  0  0  0  0  0  0  0  0  0  0
   -4.9208   24.8674  -30.4912 H   0  0  0  0  0  0  0  0  0  0  0  0
   -5.8167   24.0169  -32.8586 H   0  0  0  0  0  0  0  0  0  0  0  0
   -4.5200   23.1404  -31.9581 H   0  0  0  0  0  0  0  0  0  0  0  0
   -3.8707   21.5608  -32.5528 H   0  0  0  0  0  0  0  0  0  0  0  0
   -3.1306   19.4789  -33.7151 H   0  0  0  0  0  0  0  0  0  0  0  0
   -4.8106   17.7692  -34.4107 H   0  0  0  0  0  0  0  0  0  0  0  0
   -7.2352   18.1399  -33.9487 H   0  0  0  0  0  0  0  0  0  0  0  0
   -7.9851   20.2172  -32.7908 H   0  0  0  0  0  0  0  0  0  0  0  0
   -8.3361   23.0143  -31.6495 H   0  0  0  0  0  0  0  0  0  0  0  0
   -8.1305   21.2796  -31.2022 H   0  0  0  0  0  0  0  0  0  0  0  0
   -8.2763   23.2616  -29.3638 H   0  0  0  0  0  0  0  0  0  0  0  0
   -7.2670   21.7467  -29.1532 H   0  0  0  0  0  0  0  0  0  0  0  0
  1  2  1  0
  2  3  2  0
  3  4  1  0
  4  5  1  0
  4  6  1  0
  6  7  1  0
  6  8  2  0
  8  9  1  0
  9 10  1  0
 10 11  1  0
 11 12  1  0
 12 13  1  0
 13 14  1  0
 14 15  2  0
 15 16  1  0
 16 17  2  0
 17 18  1  0
 18 19  2  0
 13 20  1  0
 20 21  1  0
  8  2  1  0
 21 10  1  0
 19 14  1  0
  1 22  1  0
  1 23  1  0
  1 24  1  0
  5 25  1  0
  5 26  1  0
  5 27  1  0
  7 28  1  0
  7 29  1  0
  7 30  1  0
  9 31  1  0
  9 32  1  0
 10 33  1  0
 11 34  1  0
 11 35  1  0
 12 36  1  0
 12 37  1  0
 15 38  1  0
 16 39  1  0
 17 40  1  0
 18 41  1  0
 19 42  1  0
 20 43  1  0
 20 44  1  0
 21 45  1  0
 21 46  1  0
M  CHG  1  10   1
M  END
>  <UniqueID>  (36) 
36

>  <SMILES>  (36) 
Cc1nn(C)c(C)c1C[NH+]1CCN(c2ccccc2)CC1

>  <Energy>  (36) 
87.33344630796915

>  <Genealogy>  (36) 
Cc1nn(C)c(C)c1C[NH+]1CCN(c2ccccc2)CC1 (protonated)
Cc1nn(C)c(C)c1C[NH+]1CCN(c2ccccc2)CC1 (3D coordinates assigned)
Cc1nn(C)c(C)c1C[NH+]1CCN(c2ccccc2)CC1 (nonaromatic ring conformer: 87.33344630796915 kcal/mol)

>  <smiles>  (36) 
Cc1nn(C)c(C)c1CN1CCN(c2ccccc2)CC1

>  <score_type>  (36) 
oracle

>  <origin>  (36) 
adg

>  <m_score__min__energy>  (36) 
-6.6500000000000004

>  <m_primary>  (36) 
energy

$$$$
36:0
     RDKit          3D

 51 53  0  0  0  0  0  0  0  0999 V2000
   -1.2490   26.0370  -28.1890 C   0  0  0  0  0  0  0  0  0  0  0  0
   -1.8810   25.2870  -29.2210 O   0  0  0  0  0  0  0  0  0  0  0  0
   -1.7750   23.8950  -29.3730 C   0  0  0  0  0  0  0  0  0  0  0  0
   -0.5770   23.2060  -29.0930 C   0  0  0  0  0  0  0  0  0  0  0  0
   -0.5020   21.8220  -29.2510 C   0  0  0  0  0  0  0  0  0  0  0  0
   -1.6180   21.1070  -29.6890 C   0  0  0  0  0  0  0  0  0  0  0  0
   -2.8140   21.7730  -29.9570 C   0  0  0  0  0  0  0  0  0  0  0  0
   -2.9010   23.1690  -29.8150 C   0  0  0  0  0  0  0  0  0  0  0  0
   -4.2080   23.8700  -30.0910 C   0  0  0  0  0  0  0  0  0  0  0  0
   -4.5630   23.7910  -31.5070 N   0  0  0  0  0  0  0  0  0  0  0  0
   -5.0560   22.6350  -32.2000 C   0  0  0  0  0  0  0  0  0  0  0  0
   -4.2210   21.8490  -32.7190 O   0  0  0  0  0  0  0  0  0  0  0  0
   -6.5300   22.3190  -32.3060 C   0  0  2  0  0  0  0  0  0  0  0  0
   -7.3610   23.6160  -32.4240 C   0  0  0  0  0  0  0  0  0  0  0  0
   -8.8020   23.4380  -31.9150 C   0  0  0  0  0  0  0  0  0  0  0  0
   -9.2660   21.9830  -32.0650 C   0  0  0  0  0  0  0  0  0  0  0  0
   -8.4360   21.0500  -31.2620 N   0  0  1  0  0  0  0  0  0  0  0  0
   -8.5500   19.4390  -31.9380 S   0  0  0  0  0  0  0  0  0  0  0  0
   -9.5550   19.4190  -33.0590 O   0  0  0  0  0  0  0  0  0  0  0  0
   -9.0060   18.4760  -30.8770 O   0  0  0  0  0  0  0  0  0  0  0  0
   -6.9780   18.9100  -32.5350 C   0  0  0  0  0  0  0  0  0  0  0  0
   -6.4630   19.4570  -33.7200 C   0  0  0  0  0  0  0  0  0  0  0  0
   -5.2150   19.0480  -34.1980 C   0  0  0  0  0  0  0  0  0  0  0  0
   -4.4790   18.0870  -33.4990 C   0  0  0  0  0  0  0  0  0  0  0  0
   -4.9890   17.5360  -32.3200 C   0  0  0  0  0  0  0  0  0  0  0  0
   -6.2360   17.9450  -31.8380 C   0  0  0  0  0  0  0  0  0  0  0  0
   -7.0140   21.4680  -31.1170 C   0  0  0  0  0  0  0  0  0  0  0  0
   -1.5707   25.6553  -27.2088 H   0  0  0  0  0  0  0  0  0  0  0  0
   -0.1572   25.9388  -28.2804 H   0  0  0  0  0  0  0  0  0  0  0  0
   -1.5308   27.0963  -28.2804 H   0  0  0  0  0  0  0  0  0  0  0  0
    0.3055   23.7643  -28.7472 H   0  0  0  0  0  0  0  0  0  0  0  0
    0.4373   21.2937  -29.0303 H   0  0  0  0  0  0  0  0  0  0  0  0
   -1.5542   20.0171  -29.8230 H   0  0  0  0  0  0  0  0  0  0  0  0
   -3.6959   21.2015  -30.2820 H   0  0  0  0  0  0  0  0  0  0  0  0
   -5.0019   23.3959  -29.4953 H   0  0  0  0  0  0  0  0  0  0  0  0
   -4.0984   24.9301  -29.8186 H   0  0  0  0  0  0  0  0  0  0  0  0
   -6.6772   21.7263  -33.2209 H   0  0  0  0  0  0  0  0  0  0  0  0
   -6.8721   24.4038  -31.8321 H   0  0  0  0  0  0  0  0  0  0  0  0
   -7.4126   23.8854  -33.4893 H   0  0  0  0  0  0  0  0  0  0  0  0
   -8.8452   23.7210  -30.8529 H   0  0  0  0  0  0  0  0  0  0  0  0
   -9.4654   24.0794  -32.5138 H   0  0  0  0  0  0  0  0  0  0  0  0
  -10.3110   21.9070  -31.7301 H   0  0  0  0  0  0  0  0  0  0  0  0
   -9.1665   21.7016  -33.1237 H   0  0  0  0  0  0  0  0  0  0  0  0
   -8.8510   20.9980  -30.3030 H   0  0  0  0  0  0  0  0  0  0  0  0
   -7.0430   20.2097  -34.2742 H   0  0  0  0  0  0  0  0  0  0  0  0
   -4.8118   19.4825  -35.1246 H   0  0  0  0  0  0  0  0  0  0  0  0
   -3.4978   17.7641  -33.8770 H   0  0  0  0  0  0  0  0  0  0  0  0
   -4.4087   16.7799  -31.7709 H   0  0  0  0  0  0  0  0  0  0  0  0
   -6.6360   17.5093  -30.9105 H   0  0  0  0  0  0  0  0  0  0  0  0
   -6.9113   22.0584  -30.1946 H   0  0  0  0  0  0  0  0  0  0  0  0
   -6.3978   20.5575  -31.0823 H   0  0  0  0  0  0  0  0  0  0  0  0
  1  2  1  0
  2  3  1  0
  3  4  2  0
  4  5  1  0
  5  6  2  0
  6  7  1  0
  7  8  2  0
  8  9  1  0
  9 10  1  0
 10 11  1  0
 11 12  2  0
 11 13  1  0
 13 14  1  0
 14 15  1  0
 15 16  1  0
 16 17  1  0
 17 18  1  0
 18 19  2  0
 18 20  2  0
 18 21  1  0
 21 22  2  0
 22 23  1  0
 23 24  2  0
 24 25  1  0
 25 26  2  0
 17 27  1  0
  8  3  1  0
 27 13  1  0
 26 21  1  0
  1 28  1  0
  1 29  1  0
  1 30  1  0
  4 31  1  0
  5 32  1  0
  6 33  1  0
  7 34  1  0
  9 35  1  0
  9 36  1  0
 13 37  1  6
 14 38  1  0
 14 39  1  0
 15 40  1  0
 15 41  1  0
 16 42  1  0
 16 43  1  0
 17 44  1  1
 22 45  1  0
 23 46  1  0
 24 47  1  0
 25 48  1  0
 26 49  1  0
 27 50  1  0
 27 51  1  0
M  CHG  2  10  -1  17   1
M  END
>  <UniqueID>  (37) 
37

>  <SMILES>  (37) 
COc1ccccc1C[N-]C(=O)[C@@H]1CCC[N@@H+](S(=O)(=O)c2ccccc2)C1

>  <Energy>  (37) 
54.961336581970556

>  <Genealogy>  (37) 
COc1ccccc1C[N-]C(=O)C1CCC[NH+](S(=O)(=O)c2ccccc2)C1 (protonated)
COc1ccccc1C[N-]C(=O)[C@@H]1CCC[N@@H+](S(=O)(=O)c2ccccc2)C1 (chirality)
COc1ccccc1C[N-]C(=O)[C@@H]1CCC[N@@H+](S(=O)(=O)c2ccccc2)C1 (3D coordinates assigned)
COc1ccccc1C[N-]C(=O)[C@@H]1CCC[N@@H+](S(=O)(=O)c2ccccc2)C1 (nonaromatic ring conformer: 54.961336581970556 kcal/mol)

>  <smiles>  (37) 
COc1ccccc1CNC(=O)C1CCCN(S(=O)(=O)c2ccccc2)C1

>  <score_type>  (37) 
oracle

>  <origin>  (37) 
adg

>  <m_score__min__energy>  (37) 
-9.8699999999999992

>  <m_primary>  (37) 
energy

$$$$
37:0
     RDKit          3D

 53 55  0  0  0  0  0  0  0  0999 V2000
   -9.1720   20.0360  -32.4360 C   0  0  0  0  0  0  0  0  0  0  0  0
   -9.4960   21.2880  -31.6220 C   0  0  0  0  0  0  0  0  0  0  0  0
   -8.2530   21.8950  -30.9530 C   0  0  0  0  0  0  0  0  0  0  0  0
   -7.2400   22.4970  -31.9480 C   0  0  0  0  0  0  0  0  0  0  0  0
   -5.7960   22.4460  -31.4440 C   0  0  0  0  0  0  0  0  0  0  0  0
   -5.2380   23.5530  -30.7570 C   0  0  0  0  0  0  0  0  0  0  0  0
   -5.9730   24.8530  -30.5260 C   0  0  0  0  0  0  0  0  0  0  0  0
   -3.9770   23.4290  -30.1790 C   0  0  0  0  0  0  0  0  0  0  0  0
   -3.2160   22.2700  -30.3450 C   0  0  0  0  0  0  0  0  0  0  0  0
   -1.8900   22.1940  -29.6030 C   0  0  0  0  0  0  0  0  0  0  0  0
   -1.8790   21.0580  -28.6110 C   0  0  0  0  0  0  0  0  0  0  0  0
   -3.0430   20.7350  -27.8920 C   0  0  0  0  0  0  0  0  0  0  0  0
   -3.0340   19.6840  -26.9700 C   0  0  0  0  0  0  0  0  0  0  0  0
   -1.8630   18.9540  -26.7520 C   0  0  0  0  0  0  0  0  0  0  0  0
   -0.6970   19.2770  -27.4520 C   0  0  0  0  0  0  0  0  0  0  0  0
   -0.7020   20.3270  -28.3750 C   0  0  0  0  0  0  0  0  0  0  0  0
   -3.6970   21.2390  -31.1250 N   0  0  0  0  0  0  0  0  0  0  0  0
   -2.8530   20.0500  -31.3780 C   0  0  0  0  0  0  0  0  0  0  0  0
   -4.9860   21.2850  -31.6260 C   0  0  0  0  0  0  0  0  0  0  0  0
   -5.5340   20.1100  -32.3530 C   0  0  0  0  0  0  0  0  0  0  0  0
   -5.4390   20.0370  -33.7530 C   0  0  0  0  0  0  0  0  0  0  0  0
   -5.9210   18.9130  -34.4310 C   0  0  0  0  0  0  0  0  0  0  0  0
   -6.4810   17.8500  -33.7160 C   0  0  0  0  0  0  0  0  0  0  0  0
   -6.5530   17.9050  -32.3220 C   0  0  0  0  0  0  0  0  0  0  0  0
   -6.0750   19.0290  -31.6400 C   0  0  0  0  0  0  0  0  0  0  0  0
   -8.9559   19.2008  -31.7536 H   0  0  0  0  0  0  0  0  0  0  0  0
  -10.0330   19.7780  -33.0702 H   0  0  0  0  0  0  0  0  0  0  0  0
   -8.2940   20.2280  -33.0702 H   0  0  0  0  0  0  0  0  0  0  0  0
   -9.9379   22.0397  -32.2925 H   0  0  0  0  0  0  0  0  0  0  0  0
  -10.1948   20.9956  -30.8244 H   0  0  0  0  0  0  0  0  0  0  0  0
   -8.5817   22.6912  -30.2688 H   0  0  0  0  0  0  0  0  0  0  0  0
   -7.7389   21.0751  -30.4301 H   0  0  0  0  0  0  0  0  0  0  0  0
   -7.3009   21.9351  -32.8917 H   0  0  0  0  0  0  0  0  0  0  0  0
   -7.5025   23.5570  -32.0803 H   0  0  0  0  0  0  0  0  0  0  0  0
   -6.0733   25.0304  -29.4450 H   0  0  0  0  0  0  0  0  0  0  0  0
   -5.4085   25.6795  -30.9824 H   0  0  0  0  0  0  0  0  0  0  0  0
   -6.9722   24.7954  -30.9824 H   0  0  0  0  0  0  0  0  0  0  0  0
   -3.5731   24.2591  -29.5808 H   0  0  0  0  0  0  0  0  0  0  0  0
   -1.0804   22.0407  -30.3317 H   0  0  0  0  0  0  0  0  0  0  0  0
   -1.7467   23.1356  -29.0527 H   0  0  0  0  0  0  0  0  0  0  0  0
   -3.9652   21.3119  -28.0556 H   0  0  0  0  0  0  0  0  0  0  0  0
   -3.9500   19.4316  -26.4156 H   0  0  0  0  0  0  0  0  0  0  0  0
   -1.8585   18.1248  -26.0293 H   0  0  0  0  0  0  0  0  0  0  0  0
    0.2256   18.7043  -27.2764 H   0  0  0  0  0  0  0  0  0  0  0  0
    0.2194   20.5822  -28.9190 H   0  0  0  0  0  0  0  0  0  0  0  0
   -2.5413   19.6108  -30.4189 H   0  0  0  0  0  0  0  0  0  0  0  0
   -3.4276   19.3078  -31.9516 H   0  0  0  0  0  0  0  0  0  0  0  0
   -1.9628   20.3476  -31.9516 H   0  0  0  0  0  0  0  0  0  0  0  0
   -4.9848   20.8653  -34.3165 H   0  0  0  0  0  0  0  0  0  0  0  0
   -5.8595   18.8651  -35.5282 H   0  0  0  0  0  0  0  0  0  0  0  0
   -6.8653   16.9695  -34.2517 H   0  0  0  0  0  0  0  0  0  0  0  0
   -6.9858   17.0641  -31.7603 H   0  0  0  0  0  0  0  0  0  0  0  0
   -6.1233   19.0656  -30.5417 H   0  0  0  0  0  0  0  0  0  0  0  0
  1  2  1  0
  2  3  1  0
  3  4  1  0
  4  5  1  0
  5  6  2  0
  6  7  1  0
  6  8  1  0
  8  9  2  0
  9 10  1  0
 10 11  1  0
 11 12  2  0
 12 13  1  0
 13 14  2  0
 14 15  1  0
 15 16  2  0
  9 17  1  0
 17 18  1  0
 17 19  2  0
 19 20  1  0
 20 21  2  0
 21 22  1  0
 22 23  2  0
 23 24  1  0
 24 25  2  0
 19  5  1  0
 25 20  1  0
 16 11  1  0
  1 26  1  0
  1 27  1  0
  1 28  1  0
  2 29  1  0
  2 30  1  0
  3 31  1  0
  3 32  1  0
  4 33  1  0
  4 34  1  0
  7 35  1  0
  7 36  1  0
  7 37  1  0
  8 38  1  0
 10 39  1  0
 10 40  1  0
 12 41  1  0
 13 42  1  0
 14 43  1  0
 15 44  1  0
 16 45  1  0
 18 46  1  0
 18 47  1  0
 18 48  1  0
 21 49  1  0
 22 50  1  0
 23 51  1  0
 24 52  1  0
 25 53  1  0
M  CHG  1  17   1
M  END
>  <UniqueID>  (38) 
38

>  <SMILES>  (38) 
CCCCc1c(C)cc(Cc2ccccc2)[n+](C)c1-c1ccccc1

>  <Energy>  (38) 
67.12200997034546

>  <Genealogy>  (38) 
CCCCc1c(C)cc(Cc2ccccc2)[n+](C)c1-c1ccccc1 (3D coordinates assigned)
CCCCc1c(C)cc(Cc2ccccc2)[n+](C)c1-c1ccccc1 (optimized conformer: 67.12200997034546 kcal/mol)

>  <smiles>  (38) 
CCCCc1c(C)cc(Cc2ccccc2)[n+](C)c1-c1ccccc1

>  <score_type>  (38) 
oracle

>  <origin>  (38) 
adg

>  <m_score__min__energy>  (38) 
-8.3100000000000005

>  <m_primary>  (38) 
energy

$$$$
38:0
     RDKit          3D

 39 40  0  0  0  0  0  0  0  0999 V2000
   -2.5350   23.4620  -29.8270 C   0  0  0  0  0  0  0  0  0  0  0  0
   -3.3870   24.2280  -30.6710 O   0  0  0  0  0  0  0  0  0  0  0  0
   -4.7850   24.0950  -30.7310 C   0  0  0  0  0  0  0  0  0  0  0  0
   -5.6360   24.9820  -30.0380 C   0  0  0  0  0  0  0  0  0  0  0  0
   -7.0220   24.8340  -30.1050 C   0  0  0  0  0  0  0  0  0  0  0  0
   -7.5790   23.8020  -30.8570 C   0  0  0  0  0  0  0  0  0  0  0  0
   -6.7540   22.9140  -31.5470 C   0  0  0  0  0  0  0  0  0  0  0  0
   -5.3530   23.0490  -31.4960 C   0  0  0  0  0  0  0  0  0  0  0  0
   -4.5020   22.0850  -32.2360 C   0  0  0  0  0  0  0  0  0  0  0  0
   -4.9050   20.8370  -32.5750 N   0  0  0  0  0  0  0  0  0  0  0  0
   -3.8370   20.3220  -33.2100 C   0  0  0  0  0  0  0  0  0  0  0  0
   -3.8400   19.0260  -33.8340 C   0  0  0  0  0  0  0  0  0  0  0  0
   -3.8450   17.9830  -34.3360 N   0  0  0  0  0  0  0  0  0  0  0  0
   -2.8350   21.2710  -33.2390 C   0  0  0  0  0  0  0  0  0  0  0  0
   -1.5340   21.1730  -33.8350 N   0  0  0  0  0  0  0  0  0  0  0  0
   -0.3120   20.9280  -33.0730 C   0  0  0  0  0  0  0  0  0  0  0  0
    0.9330   21.1980  -33.9250 C   0  0  0  0  0  0  0  0  0  0  0  0
    0.5990   22.0680  -35.0760 N   0  0  0  0  0  0  0  0  0  0  0  0
    0.2820   21.2620  -36.2660 C   0  0  0  0  0  0  0  0  0  0  0  0
    1.7050   22.9920  -35.3900 C   0  0  0  0  0  0  0  0  0  0  0  0
   -3.2750   22.3440  -32.6390 O   0  0  0  0  0  0  0  0  0  0  0  0
   -2.7729   23.6759  -28.7745 H   0  0  0  0  0  0  0  0  0  0  0  0
   -2.6872   22.3911  -30.0270 H   0  0  0  0  0  0  0  0  0  0  0  0
   -1.4863   23.7269  -30.0270 H   0  0  0  0  0  0  0  0  0  0  0  0
   -5.2031   25.7973  -29.4397 H   0  0  0  0  0  0  0  0  0  0  0  0
   -7.6758   25.5333  -29.5632 H   0  0  0  0  0  0  0  0  0  0  0  0
   -8.6719   23.6872  -30.9067 H   0  0  0  0  0  0  0  0  0  0  0  0
   -7.2018   22.1005  -32.1366 H   0  0  0  0  0  0  0  0  0  0  0  0
   -1.4280   21.5280  -34.8130 H   0  0  0  0  0  0  0  0  0  0  0  0
   -0.2971   21.5906  -32.1951 H   0  0  0  0  0  0  0  0  0  0  0  0
   -0.3001   19.8731  -32.7615 H   0  0  0  0  0  0  0  0  0  0  0  0
    1.6942   21.6947  -33.3054 H   0  0  0  0  0  0  0  0  0  0  0  0
    1.3171   20.2398  -34.3048 H   0  0  0  0  0  0  0  0  0  0  0  0
   -0.1039   20.2809  -35.9522 H   0  0  0  0  0  0  0  0  0  0  0  0
   -0.4793   21.7801  -36.8676 H   0  0  0  0  0  0  0  0  0  0  0  0
    1.1923   21.1226  -36.8676 H   0  0  0  0  0  0  0  0  0  0  0  0
    2.1494   23.3632  -34.4547 H   0  0  0  0  0  0  0  0  0  0  0  0
    2.4711   22.4617  -35.9747 H   0  0  0  0  0  0  0  0  0  0  0  0
    1.3194   23.8402  -35.9747 H   0  0  0  0  0  0  0  0  0  0  0  0
  1  2  1  0
  2  3  1  0
  3  4  2  0
  4  5  1  0
  5  6  2  0
  6  7  1  0
  7  8  2  0
  8  9  1  0
  9 10  2  0
 10 11  1  0
 11 12  1  0
 12 13  3  0
 11 14  2  0
 14 15  1  0
 15 16  1  0
 16 17  1  0
 17 18  1  0
 18 19  1  0
 18 20  1  0
 14 21  1  0
  8  3  1  0
 21  9  1  0
  1 22  1  0
  1 23  1  0
  1 24  1  0
  4 25  1  0
  5 26  1  0
  6 27  1  0
  7 28  1  0
 15 29  1  0
 16 30  1  0
 16 31  1  0
 17 32  1  0
 17 33  1  0
 19 34  1  0
 19 35  1  0
 19 36  1  0
 20 37  1  0
 20 38  1  0
 20 39  1  0
M  END
>  <UniqueID>  (39) 
39

>  <SMILES>  (39) 
COc1ccccc1-c1nc(C#N)c(NCCN(C)C)o1

>  <Energy>  (39) 
71.31528863044663

>  <Genealogy>  (39) 
COc1ccccc1-c1nc(C#N)c(NCCN(C)C)o1 (3D coordinates assigned)
COc1ccccc1-c1nc(C#N)c(NCCN(C)C)o1 (optimized conformer: 71.31528863044663 kcal/mol)

>  <smiles>  (39) 
COc1ccccc1-c1nc(C#N)c(NCCN(C)C)o1

>  <score_type>  (39) 
oracle

>  <origin>  (39) 
adg

>  <m_score__min__energy>  (39) 
-6.46

>  <m_primary>  (39) 
energy

$$$$
39:0
     RDKit          3D

 43 44  0  0  0  0  0  0  0  0999 V2000
   -3.2730   23.8040  -28.0990 C   0  0  0  0  0  0  0  0  0  0  0  0
   -2.5430   24.5410  -29.2170 C   0  0  0  0  0  0  0  0  0  0  0  0
   -3.4710   25.1860  -30.0880 O   0  0  0  0  0  0  0  0  0  0  0  0
   -4.7770   24.7460  -30.3670 C   0  0  0  0  0  0  0  0  0  0  0  0
   -5.9150   25.3360  -29.7820 C   0  0  0  0  0  0  0  0  0  0  0  0
   -7.1930   24.8620  -30.0900 C   0  0  0  0  0  0  0  0  0  0  0  0
   -7.3500   23.7980  -30.9780 C   0  0  0  0  0  0  0  0  0  0  0  0
   -6.2300   23.2020  -31.5600 C   0  0  0  0  0  0  0  0  0  0  0  0
   -4.9370   23.6720  -31.2590 C   0  0  0  0  0  0  0  0  0  0  0  0
   -3.7860   23.0990  -31.8250 O   0  0  0  0  0  0  0  0  0  0  0  0
   -3.5460   21.6970  -31.9230 C   0  0  0  0  0  0  0  0  0  0  0  0
   -4.3540   21.1240  -33.0900 C   0  0  0  0  0  0  0  0  0  0  0  0
   -5.0140   19.8530  -32.7200 N   0  0  0  0  0  0  0  0  0  0  0  0
   -5.6980   19.2310  -33.8840 C   0  0  0  0  0  0  0  0  0  0  0  0
   -6.8530   18.3230  -33.4460 C   0  0  0  0  0  0  0  0  0  0  0  0
   -7.9030   19.0980  -32.7490 N   0  0  0  0  0  0  0  0  0  0  0  0
   -8.7380   18.2060  -31.9280 C   0  0  0  0  0  0  0  0  0  0  0  0
   -7.3740   20.2320  -31.9510 C   0  0  0  0  0  0  0  0  0  0  0  0
   -5.9040   20.0260  -31.5440 C   0  0  0  0  0  0  0  0  0  0  0  0
   -2.9135   24.1669  -27.1248 H   0  0  0  0  0  0  0  0  0  0  0  0
   -4.3541   23.9888  -28.1829 H   0  0  0  0  0  0  0  0  0  0  0  0
   -3.0779   22.7247  -28.1829 H   0  0  0  0  0  0  0  0  0  0  0  0
   -1.8769   25.2971  -28.7758 H   0  0  0  0  0  0  0  0  0  0  0  0
   -1.9610   23.8115  -29.7993 H   0  0  0  0  0  0  0  0  0  0  0  0
   -5.7968   26.1740  -29.0793 H   0  0  0  0  0  0  0  0  0  0  0  0
   -8.0770   25.3290  -29.6312 H   0  0  0  0  0  0  0  0  0  0  0  0
   -8.3573   23.4282  -31.2199 H   0  0  0  0  0  0  0  0  0  0  0  0
   -6.3580   22.3609  -32.2573 H   0  0  0  0  0  0  0  0  0  0  0  0
   -2.4744   21.5192  -32.0961 H   0  0  0  0  0  0  0  0  0  0  0  0
   -3.8516   21.2053  -30.9877 H   0  0  0  0  0  0  0  0  0  0  0  0
   -5.1228   21.8534  -33.3847 H   0  0  0  0  0  0  0  0  0  0  0  0
   -3.6636   20.9247  -33.9229 H   0  0  0  0  0  0  0  0  0  0  0  0
   -6.0961   20.0271  -34.5304 H   0  0  0  0  0  0  0  0  0  0  0  0
   -4.9636   18.6147  -34.4233 H   0  0  0  0  0  0  0  0  0  0  0  0
   -7.2900   17.8434  -34.3342 H   0  0  0  0  0  0  0  0  0  0  0  0
   -6.4590   17.5652  -32.7528 H   0  0  0  0  0  0  0  0  0  0  0  0
   -8.5507   18.4061  -30.8627 H   0  0  0  0  0  0  0  0  0  0  0  0
   -9.7993   18.3865  -32.1539 H   0  0  0  0  0  0  0  0  0  0  0  0
   -8.4879   17.1589  -32.1539 H   0  0  0  0  0  0  0  0  0  0  0  0
   -7.4494   21.1514  -32.5501 H   0  0  0  0  0  0  0  0  0  0  0  0
   -7.9710   20.3019  -31.0298 H   0  0  0  0  0  0  0  0  0  0  0  0
   -5.5686   20.9039  -30.9723 H   0  0  0  0  0  0  0  0  0  0  0  0
   -5.8468   19.1084  -30.9401 H   0  0  0  0  0  0  0  0  0  0  0  0
  1  2  1  0
  2  3  1  0
  3  4  1  0
  4  5  2  0
  5  6  1  0
  6  7  2  0
  7  8  1  0
  8  9  2  0
  9 10  1  0
 10 11  1  0
 11 12  1  0
 12 13  1  0
 13 14  1  0
 14 15  1  0
 15 16  1  0
 16 17  1  0
 16 18  1  0
 18 19  1  0
  9  4  1  0
 19 13  1  0
  1 20  1  0
  1 21  1  0
  1 22  1  0
  2 23  1  0
  2 24  1  0
  5 25  1  0
  6 26  1  0
  7 27  1  0
  8 28  1  0
 11 29  1  0
 11 30  1  0
 12 31  1  0
 12 32  1  0
 14 33  1  0
 14 34  1  0
 15 35  1  0
 15 36  1  0
 17 37  1  0
 17 38  1  0
 17 39  1  0
 18 40  1  0
 18 41  1  0
 19 42  1  0
 19 43  1  0
M  END
>  <UniqueID>  (40) 
40

>  <SMILES>  (40) 
CCOc1ccccc1OCCN1CCN(C)CC1

>  <Energy>  (40) 
50.44221437711709

>  <Genealogy>  (40) 
CCOc1ccccc1OCCN1CCN(C)CC1 (3D coordinates assigned)
CCOc1ccccc1OCCN1CCN(C)CC1 (nonaromatic ring conformer: 50.44221437711709 kcal/mol)

>  <smiles>  (40) 
CCOc1ccccc1OCCN1CCN(C)CC1

>  <score_type>  (40) 
oracle

>  <origin>  (40) 
adg

>  <m_score__min__energy>  (40) 
-7.5099999999999998

>  <m_primary>  (40) 
energy

$$$$
