0:0
     RDKit          3D

 31 33  0  0  0  0  0  0  0  0999 V2000
   -1.4530   22.5480  -29.1810 C   0  0  0  0  0  0  0  0  0  0  0  0
   -1.6900   22.7740  -30.6710 C   0  0  0  0  0  0  0  0  0  0  0  0
   -3.1090   22.5900  -30.9980 N   0  0  0  0  0  0  0  0  0  0  0  0
   -3.6500   21.5260  -31.6440 C   0  0  0  0  0  0  0  0  0  0  0  0
   -4.9890   21.7320  -31.9090 C   0  0  0  0  0  0  0  0  0  0  0  0
   -5.3060   22.9630  -31.3610 C   0  0  0  0  0  0  0  0  0  0  0  0
   -6.5130   23.6780  -31.2940 C   0  0  0  0  0  0  0  0  0  0  0  0
   -8.1780   22.9990  -31.9510 Br  0  0  0  0  0  0  0  0  0  0  0  0
   -6.4930   24.9440  -30.6880 C   0  0  0  0  0  0  0  0  0  0  0  0
   -5.2980   25.4740  -30.1690 C   0  0  0  0  0  0  0  0  0  0  0  0
   -4.1010   24.7420  -30.2340 C   0  0  0  0  0  0  0  0  0  0  0  0
   -2.9360   25.2910  -29.7160 O   0  0  0  0  0  0  0  0  0  0  0  0
   -4.1310   23.4700  -30.8310 C   0  0  0  0  0  0  0  0  0  0  0  0
   -5.8400   20.7390  -32.6410 C   0  0  0  0  0  0  0  0  0  0  0  0
   -4.9480   19.7040  -33.3570 C   0  0  0  0  0  0  0  0  0  0  0  0
   -3.8560   19.2270  -32.4890 N   0  0  0  0  0  0  0  0  0  0  0  0
   -2.9150   20.3110  -32.1480 C   0  0  0  0  0  0  0  0  0  0  0  0
   -2.1291   23.1927  -28.6003 H   0  0  0  0  0  0  0  0  0  0  0  0
   -1.6493   21.4942  -28.9342 H   0  0  0  0  0  0  0  0  0  0  0  0
   -0.4097   22.7942  -28.9342 H   0  0  0  0  0  0  0  0  0  0  0  0
   -1.3873   23.7981  -30.9347 H   0  0  0  0  0  0  0  0  0  0  0  0
   -1.0954   22.0450  -31.2411 H   0  0  0  0  0  0  0  0  0  0  0  0
   -7.4224   25.5282  -30.6182 H   0  0  0  0  0  0  0  0  0  0  0  0
   -5.3009   26.4724  -29.7073 H   0  0  0  0  0  0  0  0  0  0  0  0
   -6.4942   20.2216  -31.9238 H   0  0  0  0  0  0  0  0  0  0  0  0
   -6.4494   21.2681  -33.3884 H   0  0  0  0  0  0  0  0  0  0  0  0
   -5.5677   18.8450  -33.6539 H   0  0  0  0  0  0  0  0  0  0  0  0
   -4.4984   20.1903  -34.2353 H   0  0  0  0  0  0  0  0  0  0  0  0
   -4.2700   18.8480  -31.6050 H   0  0  0  0  0  0  0  0  0  0  0  0
   -2.2267   19.9571  -31.3663 H   0  0  0  0  0  0  0  0  0  0  0  0
   -2.3581   20.5896  -33.0548 H   0  0  0  0  0  0  0  0  0  0  0  0
  1  2  1  0
  2  3  1  0
  3  4  1  0
  4  5  2  0
  5  6  1  0
  6  7  2  0
  7  8  1  0
  7  9  1  0
  9 10  2  0
 10 11  1  0
 11 12  1  0
 11 13  2  0
  5 14  1  0
 14 15  1  0
 15 16  1  0
 16 17  1  0
 13  3  1  0
 17  4  1  0
 13  6  1  0
  1 18  1  0
  1 19  1  0
  1 20  1  0
  2 21  1  0
  2 22  1  0
  9 23  1  0
 10 24  1  0
 14 25  1  0
 14 26  1  0
 15 27  1  0
 15 28  1  0
 16 29  1  0
 17 30  1  0
 17 31  1  0
M  CHG  1  12  -1
M  END
>  <UniqueID>  (1) 
1

>  <SMILES>  (1) 
CCn1c2c(c3c(Br)ccc([O-])c31)CCNC2

>  <Energy>  (1) 
70.09933414624591

>  <Genealogy>  (1) 
CCn1c2c(c3c(Br)ccc([O-])c31)CCNC2 (protonated)
CCn1c2c(c3c(Br)ccc([O-])c31)CCNC2 (3D coordinates assigned)
CCn1c2c(c3c(Br)ccc([O-])c31)CCNC2 (nonaromatic ring conformer: 70.09933414624591 kcal/mol)

>  <smiles>  (1) 
CCn1c2c(c3c(Br)ccc(O)c31)CCNC2

>  <score_type>  (1) 
oracle

>  <origin>  (1) 
adg

>  <m_score__min__energy>  (1) 
-9.6600000000000001

>  <m_primary>  (1) 
energy

$$$$
1:0
     RDKit          3D

 40 40  0  0  0  0  0  0  0  0999 V2000
   -3.1240   21.1730  -32.9430 C   0  0  0  0  0  0  0  0  0  0  0  0
   -3.4740   22.3030  -31.9820 C   0  0  0  0  0  0  0  0  0  0  0  0
   -2.7510   22.1090  -30.6990 N   0  0  0  0  0  0  0  0  0  0  0  0
   -3.4730   21.1830  -29.7960 C   0  0  0  0  0  0  0  0  0  0  0  0
   -2.7390   21.0260  -28.4630 C   0  0  0  0  0  0  0  0  0  0  0  0
   -2.4700   23.3960  -30.0180 C   0  0  0  0  0  0  0  0  0  0  0  0
   -3.7660   24.1350  -29.6700 C   0  0  0  0  0  0  0  0  0  0  0  0
   -3.8900   25.2990  -30.4590 O   0  0  0  0  0  0  0  0  0  0  0  0
   -5.2510   25.6640  -30.6090 C   0  0  0  0  0  0  0  0  0  0  0  0
   -6.1350   24.4400  -30.4060 C   0  0  0  0  0  0  0  0  0  0  0  0
   -6.2750   23.7390  -31.6390 O   0  0  0  0  0  0  0  0  0  0  0  0
   -7.1200   22.6380  -31.8340 C   0  0  0  0  0  0  0  0  0  0  0  0
   -8.5100   22.7020  -31.6070 C   0  0  0  0  0  0  0  0  0  0  0  0
   -9.3090   21.5740  -31.8170 C   0  0  0  0  0  0  0  0  0  0  0  0
   -8.7340   20.3770  -32.2520 C   0  0  0  0  0  0  0  0  0  0  0  0
   -7.3560   20.3060  -32.4790 C   0  0  0  0  0  0  0  0  0  0  0  0
   -6.5690   18.6710  -33.0750 Br  0  0  0  0  0  0  0  0  0  0  0  0
   -6.5540   21.4330  -32.2700 C   0  0  0  0  0  0  0  0  0  0  0  0
   -2.8463   20.2765  -32.3692 H   0  0  0  0  0  0  0  0  0  0  0  0
   -3.9945   20.9477  -33.5767 H   0  0  0  0  0  0  0  0  0  0  0  0
   -2.2786   21.4792  -33.5767 H   0  0  0  0  0  0  0  0  0  0  0  0
   -3.1796   23.2654  -32.4260 H   0  0  0  0  0  0  0  0  0  0  0  0
   -4.5579   22.2998  -31.7942 H   0  0  0  0  0  0  0  0  0  0  0  0
   -4.4810   21.5802  -29.6060 H   0  0  0  0  0  0  0  0  0  0  0  0
   -3.5297   20.1972  -30.2807 H   0  0  0  0  0  0  0  0  0  0  0  0
   -3.4468   21.1774  -27.6347 H   0  0  0  0  0  0  0  0  0  0  0  0
   -2.3091   20.0156  -28.3979 H   0  0  0  0  0  0  0  0  0  0  0  0
   -1.9334   21.7721  -28.3979 H   0  0  0  0  0  0  0  0  0  0  0  0
   -1.9110   23.1969  -29.0918 H   0  0  0  0  0  0  0  0  0  0  0  0
   -1.8814   24.0283  -30.6989 H   0  0  0  0  0  0  0  0  0  0  0  0
   -4.6240   23.4736  -29.8608 H   0  0  0  0  0  0  0  0  0  0  0  0
   -3.7419   24.4217  -28.6083 H   0  0  0  0  0  0  0  0  0  0  0  0
   -5.5089   26.4295  -29.8623 H   0  0  0  0  0  0  0  0  0  0  0  0
   -5.4115   26.0662  -31.6202 H   0  0  0  0  0  0  0  0  0  0  0  0
   -5.6753   23.7768  -29.6585 H   0  0  0  0  0  0  0  0  0  0  0  0
   -7.1267   24.7610  -30.0547 H   0  0  0  0  0  0  0  0  0  0  0  0
   -8.9671   23.6418  -31.2638 H   0  0  0  0  0  0  0  0  0  0  0  0
  -10.3932   21.6290  -31.6393 H   0  0  0  0  0  0  0  0  0  0  0  0
   -9.3650   19.4910  -32.4158 H   0  0  0  0  0  0  0  0  0  0  0  0
   -5.4704   21.3725  -32.4494 H   0  0  0  0  0  0  0  0  0  0  0  0
  1  2  1  0
  2  3  1  0
  3  4  1  0
  4  5  1  0
  3  6  1  0
  6  7  1  0
  7  8  1  0
  8  9  1  0
  9 10  1  0
 10 11  1  0
 11 12  1  0
 12 13  2  0
 13 14  1  0
 14 15  2  0
 15 16  1  0
 16 17  1  0
 16 18  2  0
 18 12  1  0
  1 19  1  0
  1 20  1  0
  1 21  1  0
  2 22  1  0
  2 23  1  0
  4 24  1  0
  4 25  1  0
  5 26  1  0
  5 27  1  0
  5 28  1  0
  6 29  1  0
  6 30  1  0
  7 31  1  0
  7 32  1  0
  9 33  1  0
  9 34  1  0
 10 35  1  0
 10 36  1  0
 13 37  1  0
 14 38  1  0
 15 39  1  0
 18 40  1  0
M  END
>  <UniqueID>  (2) 
2

>  <SMILES>  (2) 
CCN(CC)CCOCCOc1cccc(Br)c1

>  <Energy>  (2) 
35.96304580803772

>  <Genealogy>  (2) 
CCN(CC)CCOCCOc1cccc(Br)c1 (3D coordinates assigned)
CCN(CC)CCOCCOc1cccc(Br)c1 (optimized conformer: 35.96304580803772 kcal/mol)

>  <smiles>  (2) 
CCN(CC)CCOCCOc1cccc(Br)c1

>  <score_type>  (2) 
oracle

>  <origin>  (2) 
adg

>  <m_score__min__energy>  (2) 
-6.79

>  <m_primary>  (2) 
energy

$$$$
2:0
     RDKit          3D

 42 42  0  0  0  0  0  0  0  0999 V2000
   -1.3470   24.5350  -28.5100 C   0  0  0  0  0  0  0  0  0  0  0  0
   -0.7740   23.1880  -28.9460 C   0  0  0  0  0  0  0  0  0  0  0  0
   -1.8560   22.1830  -29.0590 N   0  0  0  0  0  0  0  0  0  0  0  0
   -2.5750   22.0210  -27.7750 C   0  0  0  0  0  0  0  0  0  0  0  0
   -2.7780   20.5400  -27.4650 C   0  0  0  0  0  0  0  0  0  0  0  0
   -1.3320   20.8860  -29.5480 C   0  0  0  0  0  0  0  0  0  0  0  0
   -2.0420   20.4910  -30.8540 C   0  0  0  0  0  0  0  0  0  0  0  0
   -2.5710   21.6610  -31.5860 N   0  0  0  0  0  0  0  0  0  0  0  0
   -3.9420   21.4490  -32.0250 C   0  0  0  0  0  0  0  0  0  0  0  0
   -4.2270   20.4020  -32.9360 C   0  0  0  0  0  0  0  0  0  0  0  0
   -2.9230   19.6240  -33.8470 Cl  0  0  0  0  0  0  0  0  0  0  0  0
   -5.5470   19.9760  -33.1430 C   0  0  0  0  0  0  0  0  0  0  0  0
   -5.8820   18.6390  -34.2500 Cl  0  0  0  0  0  0  0  0  0  0  0  0
   -6.5960   20.5850  -32.4390 C   0  0  0  0  0  0  0  0  0  0  0  0
   -7.9450   20.0830  -32.5880 C   0  0  0  0  0  0  0  0  0  0  0  0
   -9.0240   19.6830  -32.7060 N   0  0  0  0  0  0  0  0  0  0  0  0
   -6.3430   21.6970  -31.6170 C   0  0  0  0  0  0  0  0  0  0  0  0
   -7.6880   22.3980  -30.7010 Cl  0  0  0  0  0  0  0  0  0  0  0  0
   -5.0270   22.2040  -31.4880 C   0  0  0  0  0  0  0  0  0  0  0  0
   -4.7740   23.8240  -30.7760 S   0  0  0  0  0  0  0  0  0  0  0  0
   -5.3260   23.8680  -29.0850 C   0  0  0  0  0  0  0  0  0  0  0  0
   -3.3220   24.2070  -30.8460 O   0  0  0  0  0  0  0  0  0  0  0  0
   -5.5330   24.8610  -31.5560 O   0  0  0  0  0  0  0  0  0  0  0  0
   -1.3687   24.5859  -27.4114 H   0  0  0  0  0  0  0  0  0  0  0  0
   -0.7160   25.3462  -28.9023 H   0  0  0  0  0  0  0  0  0  0  0  0
   -2.3690   24.6430  -28.9023 H   0  0  0  0  0  0  0  0  0  0  0  0
   -0.2809   23.3021  -29.9227 H   0  0  0  0  0  0  0  0  0  0  0  0
   -0.0461   22.8480  -28.1946 H   0  0  0  0  0  0  0  0  0  0  0  0
   -1.9866   22.4832  -26.9687 H   0  0  0  0  0  0  0  0  0  0  0  0
   -3.5580   22.5088  -27.8512 H   0  0  0  0  0  0  0  0  0  0  0  0
   -2.7982   20.3929  -26.3751 H   0  0  0  0  0  0  0  0  0  0  0  0
   -3.7309   20.2019  -27.8983 H   0  0  0  0  0  0  0  0  0  0  0  0
   -1.9512   19.9580  -27.8983 H   0  0  0  0  0  0  0  0  0  0  0  0
   -0.2515   20.9762  -29.7336 H   0  0  0  0  0  0  0  0  0  0  0  0
   -1.5165   20.1123  -28.7882 H   0  0  0  0  0  0  0  0  0  0  0  0
   -1.3243   19.9651  -31.5007 H   0  0  0  0  0  0  0  0  0  0  0  0
   -2.8946   19.8480  -30.5901 H   0  0  0  0  0  0  0  0  0  0  0  0
   -1.9690   21.8410  -32.4230 H   0  0  0  0  0  0  0  0  0  0  0  0
   -2.4630   22.4890  -30.9670 H   0  0  0  0  0  0  0  0  0  0  0  0
   -4.4573   23.7988  -28.4138 H   0  0  0  0  0  0  0  0  0  0  0  0
   -5.8596   24.8115  -28.8979 H   0  0  0  0  0  0  0  0  0  0  0  0
   -6.0024   23.0209  -28.8979 H   0  0  0  0  0  0  0  0  0  0  0  0
  1  2  1  0
  2  3  1  0
  3  4  1  0
  4  5  1  0
  3  6  1  0
  6  7  1  0
  7  8  1  0
  8  9  1  0
  9 10  2  0
 10 11  1  0
 10 12  1  0
 12 13  1  0
 12 14  2  0
 14 15  1  0
 15 16  3  0
 14 17  1  0
 17 18  1  0
 17 19  2  0
 19 20  1  0
 20 21  1  0
 20 22  2  0
 20 23  2  0
 19  9  1  0
  1 24  1  0
  1 25  1  0
  1 26  1  0
  2 27  1  0
  2 28  1  0
  4 29  1  0
  4 30  1  0
  5 31  1  0
  5 32  1  0
  5 33  1  0
  6 34  1  0
  6 35  1  0
  7 36  1  0
  7 37  1  0
  8 38  1  0
  8 39  1  0
 21 40  1  0
 21 41  1  0
 21 42  1  0
M  CHG  1   8   1
M  END
>  <UniqueID>  (3) 
3

>  <SMILES>  (3) 
CCN(CC)CC[NH2+]c1c(Cl)c(Cl)c(C#N)c(Cl)c1S(C)(=O)=O

>  <Energy>  (3) 
52.44939182501391

>  <Genealogy>  (3) 
CCN(CC)CC[NH2+]c1c(Cl)c(Cl)c(C#N)c(Cl)c1S(C)(=O)=O (protonated)
CCN(CC)CC[NH2+]c1c(Cl)c(Cl)c(C#N)c(Cl)c1S(C)(=O)=O (3D coordinates assigned)
CCN(CC)CC[NH2+]c1c(Cl)c(Cl)c(C#N)c(Cl)c1S(C)(=O)=O (optimized conformer: 52.44939182501391 kcal/mol)

>  <smiles>  (3) 
CCN(CC)CCNc1c(Cl)c(Cl)c(C#N)c(Cl)c1S(C)(=O)=O

>  <score_type>  (3) 
oracle

>  <origin>  (3) 
adg

>  <m_score__min__energy>  (3) 
-7.7800000000000002

>  <m_primary>  (3) 
energy

$$$$
3:0
     RDKit          3D

 43 46  0  0  0  0  0  0  0  0999 V2000
   -3.2768   15.7192  -34.5397 H   0  0  0  0  0  0  0  0  0  0  0  0
   -3.6870   16.7000  -34.2570 C   0  0  0  0  0  0  0  0  0  0  0  0
   -4.9970   16.8200  -33.9470 N   0  0  0  0  0  0  0  0  0  0  0  0
   -5.5420   18.0040  -33.5670 C   0  0  0  0  0  0  0  0  0  0  0  0
   -6.9030   18.0330  -33.2410 C   0  0  0  0  0  0  0  0  0  0  0  0
   -7.5088   17.1202  -33.3401 H   0  0  0  0  0  0  0  0  0  0  0  0
   -7.4940   19.2110  -32.7920 C   0  0  0  0  0  0  0  0  0  0  0  0
   -9.1980   19.2400  -32.3760 Cl  0  0  0  0  0  0  0  0  0  0  0  0
   -6.7230   20.3590  -32.6520 C   0  0  0  0  0  0  0  0  0  0  0  0
   -7.1855   21.2833  -32.2755 H   0  0  0  0  0  0  0  0  0  0  0  0
   -5.3660   20.3500  -32.9850 C   0  0  0  0  0  0  0  0  0  0  0  0
   -4.7727   21.2672  -32.8554 H   0  0  0  0  0  0  0  0  0  0  0  0
   -4.7400   19.1830  -33.4860 C   0  0  0  0  0  0  0  0  0  0  0  0
   -3.3580   19.0790  -33.8750 C   0  0  0  0  0  0  0  0  0  0  0  0
   -2.4930   20.0570  -33.9900 N   0  0  0  0  0  0  0  0  0  0  0  0
   -1.8030   20.9420  -33.0530 C   0  0  0  0  0  0  0  0  0  0  0  0
   -1.0610   21.5395  -33.6029 H   0  0  0  0  0  0  0  0  0  0  0  0
   -2.5480   21.5957  -32.5758 H   0  0  0  0  0  0  0  0  0  0  0  0
   -1.0870   20.1360  -31.9580 C   0  0  0  0  0  0  0  0  0  0  0  0
   -1.8422   19.6545  -31.3194 H   0  0  0  0  0  0  0  0  0  0  0  0
   -0.4473   19.3875  -32.4485 H   0  0  0  0  0  0  0  0  0  0  0  0
   -0.1940   21.0260  -31.0850 C   0  0  0  0  0  0  0  0  0  0  0  0
    0.6774   20.4433  -30.7516 H   0  0  0  0  0  0  0  0  0  0  0  0
    0.1253   21.8927  -31.6824 H   0  0  0  0  0  0  0  0  0  0  0  0
   -0.9210   21.5140  -29.9100 N   0  0  0  0  0  0  0  0  0  0  0  0
   -1.3620   22.7240  -29.6870 C   0  0  0  0  0  0  0  0  0  0  0  0
   -0.5260   23.7430  -29.1840 C   0  0  0  0  0  0  0  0  0  0  0  0
    0.5292   23.5279  -28.9597 H   0  0  0  0  0  0  0  0  0  0  0  0
   -1.0370   25.0230  -28.9710 C   0  0  0  0  0  0  0  0  0  0  0  0
   -0.3810   25.8160  -28.5827 H   0  0  0  0  0  0  0  0  0  0  0  0
   -2.3390   25.2960  -29.2400 N   0  0  0  0  0  0  0  0  0  0  0  0
   -3.1840   24.3480  -29.7220 C   0  0  0  0  0  0  0  0  0  0  0  0
   -4.5140   24.6830  -29.9940 C   0  0  0  0  0  0  0  0  0  0  0  0
   -4.8715   25.7061  -29.8055 H   0  0  0  0  0  0  0  0  0  0  0  0
   -5.3910   23.7210  -30.5050 C   0  0  0  0  0  0  0  0  0  0  0  0
   -7.0580   24.1470  -30.8460 Cl  0  0  0  0  0  0  0  0  0  0  0  0
   -4.9400   22.4200  -30.7430 C   0  0  0  0  0  0  0  0  0  0  0  0
   -5.6329   21.6652  -31.1433 H   0  0  0  0  0  0  0  0  0  0  0  0
   -3.6130   22.0730  -30.4750 C   0  0  0  0  0  0  0  0  0  0  0  0
   -3.2665   21.0468  -30.6669 H   0  0  0  0  0  0  0  0  0  0  0  0
   -2.7160   23.0310  -29.9600 C   0  0  0  0  0  0  0  0  0  0  0  0
   -2.8580   17.8140  -34.2190 C   0  0  0  0  0  0  0  0  0  0  0  0
   -1.7912   17.7024  -34.4628 H   0  0  0  0  0  0  0  0  0  0  0  0
  1  2  1  0
  2  3  1  0
  3  4  1  0
  4  5  2  0
  5  6  1  0
  5  7  1  0
  7  8  1  0
  7  9  2  0
  9 10  1  0
  9 11  1  0
 11 12  1  0
 11 13  2  0
 13 14  1  0
 14 15  2  0
 15 16  1  0
 16 17  1  0
 16 18  1  0
 16 19  1  0
 19 20  1  0
 19 21  1  0
 19 22  1  0
 22 23  1  0
 22 24  1  0
 22 25  1  0
 25 26  2  0
 26 27  1  0
 27 28  1  0
 27 29  2  0
 29 30  1  0
 29 31  1  0
 31 32  1  0
 32 33  2  0
 33 34  1  0
 33 35  1  0
 35 36  1  0
 35 37  2  0
 37 38  1  0
 37 39  1  0
 39 40  1  0
 39 41  2  0
 14 42  1  0
 42 43  1  0
 42  2  2  0
 13  4  1  0
 41 26  1  0
 41 32  1  0
M  CHG  2   3  -1  31  -1
M  END
>  <UniqueID>  (4) 
4

>  <SMILES>  (4) 
Clc1ccc2/c(=N\CCC/N=c3\cc[n-]c4cc(Cl)ccc34)cc[n-]c2c1

>  <Energy>  (4) 
68.81037181515126

>  <Genealogy>  (4) 
Clc1ccc2c(=NCCCN=c3cc[n-]c4cc(Cl)ccc34)cc[n-]c2c1 (protonated)
Clc1ccc2/c(=N\CCC/N=c3\cc[n-]c4cc(Cl)ccc34)cc[n-]c2c1 (cis-trans isomerization)
Clc1ccc2/c(=N\CCC/N=c3\cc[n-]c4cc(Cl)ccc34)cc[n-]c2c1 (3D coordinates assigned)
Clc1ccc2/c(=N\CCC/N=c3\cc[n-]c4cc(Cl)ccc34)cc[n-]c2c1 (optimized conformer: 68.81037181515126 kcal/mol)

>  <smiles>  (4) 
Clc1ccc2c(=NCCCN=c3cc[nH]c4cc(Cl)ccc34)cc[nH]c2c1

>  <score_type>  (4) 
oracle

>  <origin>  (4) 
adg

>  <m_score__min__energy>  (4) 
-10.57

>  <m_primary>  (4) 
energy

$$$$
4:0
     RDKit          3D

 72 75  0  0  0  0  0  0  0  0999 V2000
   -6.8790   24.9620  -29.9170 C   0  0  0  0  0  0  0  0  0  0  0  0
   -5.6260   25.7240  -30.3510 C   0  0  0  0  0  0  0  0  0  0  0  0
   -4.6060   24.7940  -30.8910 N   0  0  0  0  0  0  0  0  0  0  0  0
   -3.6290   24.4580  -29.8380 C   0  0  0  0  0  0  0  0  0  0  0  0
   -5.2430   23.5660  -31.4190 C   0  0  0  0  0  0  0  0  0  0  0  0
   -4.1970   22.5960  -31.9820 C   0  0  0  0  0  0  0  0  0  0  0  0
   -4.7310   21.8490  -33.1220 N   0  0  0  0  0  0  0  0  0  0  0  0
   -5.0890   20.4610  -32.9930 C   0  0  0  0  0  0  0  0  0  0  0  0
   -6.3980   20.1320  -32.6120 C   0  0  0  0  0  0  0  0  0  0  0  0
   -7.2410   21.0870  -32.0050 C   0  0  0  0  0  0  0  0  0  0  0  0
   -8.5100   20.7270  -31.5580 C   0  0  0  0  0  0  0  0  0  0  0  0
   -8.9560   19.4190  -31.7040 C   0  0  0  0  0  0  0  0  0  0  0  0
   -8.1520   18.4710  -32.3380 C   0  0  0  0  0  0  0  0  0  0  0  0
   -6.8750   18.8220  -32.8450 C   0  0  0  0  0  0  0  0  0  0  0  0
   -6.1090   17.9360  -33.5740 N   0  0  0  0  0  0  0  0  0  0  0  0
   -6.7470   16.7460  -34.1840 C   0  0  0  0  0  0  0  0  0  0  0  0
   -4.7570   18.1810  -33.7600 C   0  0  0  0  0  0  0  0  0  0  0  0
   -3.9080   17.2010  -34.3210 C   0  0  0  0  0  0  0  0  0  0  0  0
   -2.5380   17.4270  -34.5710 C   0  0  0  0  0  0  0  0  0  0  0  0
   -1.6920   16.4300  -35.2270 N   0  0  0  0  0  0  0  0  0  0  0  0
   -1.9570   15.0050  -34.9440 C   0  0  0  0  0  0  0  0  0  0  0  0
   -1.9130   14.6930  -33.4340 C   0  0  0  0  0  0  0  0  0  0  0  0
   -0.4840   14.8050  -32.8890 C   0  0  0  0  0  0  0  0  0  0  0  0
   -0.0030   16.2030  -32.9620 N   0  0  0  0  0  0  0  0  0  0  0  0
   -0.1570   16.8590  -31.6530 C   0  0  0  0  0  0  0  0  0  0  0  0
    1.4110   16.2590  -33.3710 C   0  0  0  0  0  0  0  0  0  0  0  0
   -1.9850   18.6730  -34.1820 C   0  0  0  0  0  0  0  0  0  0  0  0
   -0.6280   18.9850  -34.4430 C   0  0  0  0  0  0  0  0  0  0  0  0
   -0.0370   20.1210  -33.8970 C   0  0  0  0  0  0  0  0  0  0  0  0
   -0.7710   20.9490  -33.0580 C   0  0  0  0  0  0  0  0  0  0  0  0
   -2.1220   20.6930  -32.8340 C   0  0  0  0  0  0  0  0  0  0  0  0
   -2.7840   19.6210  -33.4800 C   0  0  0  0  0  0  0  0  0  0  0  0
   -4.1960   19.4320  -33.3880 C   0  0  0  0  0  0  0  0  0  0  0  0
   -6.9279   24.9322  -28.8185 H   0  0  0  0  0  0  0  0  0  0  0  0
   -7.7718   25.4702  -30.3102 H   0  0  0  0  0  0  0  0  0  0  0  0
   -6.8385   23.9355  -30.3102 H   0  0  0  0  0  0  0  0  0  0  0  0
   -5.8981   26.4524  -31.1291 H   0  0  0  0  0  0  0  0  0  0  0  0
   -5.2052   26.2394  -29.4750 H   0  0  0  0  0  0  0  0  0  0  0  0
   -4.0862   24.6152  -28.8499 H   0  0  0  0  0  0  0  0  0  0  0  0
   -3.3282   23.4048  -29.9394 H   0  0  0  0  0  0  0  0  0  0  0  0
   -2.7441   25.1034  -29.9394 H   0  0  0  0  0  0  0  0  0  0  0  0
   -5.7923   23.0688  -30.6059 H   0  0  0  0  0  0  0  0  0  0  0  0
   -5.9269   23.8507  -32.2321 H   0  0  0  0  0  0  0  0  0  0  0  0
   -3.3156   23.1677  -32.3081 H   0  0  0  0  0  0  0  0  0  0  0  0
   -3.9233   21.8805  -31.1926 H   0  0  0  0  0  0  0  0  0  0  0  0
   -4.5580   22.2300  -34.0790 H   0  0  0  0  0  0  0  0  0  0  0  0
   -6.8933   22.1236  -31.8840 H   0  0  0  0  0  0  0  0  0  0  0  0
   -9.1605   21.4796  -31.0884 H   0  0  0  0  0  0  0  0  0  0  0  0
   -9.9451   19.1303  -31.3189 H   0  0  0  0  0  0  0  0  0  0  0  0
   -8.5135   17.4377  -32.4459 H   0  0  0  0  0  0  0  0  0  0  0  0
   -7.1066   16.0752  -33.3898 H   0  0  0  0  0  0  0  0  0  0  0  0
   -7.5956   17.0640  -34.8075 H   0  0  0  0  0  0  0  0  0  0  0  0
   -6.0125   16.2153  -34.8075 H   0  0  0  0  0  0  0  0  0  0  0  0
   -4.3337   16.2188  -34.5739 H   0  0  0  0  0  0  0  0  0  0  0  0
   -0.6940   16.5960  -34.9620 H   0  0  0  0  0  0  0  0  0  0  0  0
   -1.7810   16.5710  -36.2600 H   0  0  0  0  0  0  0  0  0  0  0  0
   -2.9540   14.7465  -35.3303 H   0  0  0  0  0  0  0  0  0  0  0  0
   -1.1715   14.4115  -35.4346 H   0  0  0  0  0  0  0  0  0  0  0  0
   -2.5580   15.4068  -32.9006 H   0  0  0  0  0  0  0  0  0  0  0  0
   -2.2663   13.6628  -33.2795 H   0  0  0  0  0  0  0  0  0  0  0  0
   -0.4707   14.4731  -31.8404 H   0  0  0  0  0  0  0  0  0  0  0  0
    0.1772   14.1718  -33.4988 H   0  0  0  0  0  0  0  0  0  0  0  0
    0.0154   16.1247  -30.8523 H   0  0  0  0  0  0  0  0  0  0  0  0
    0.5737   17.6765  -31.5643 H   0  0  0  0  0  0  0  0  0  0  0  0
   -1.1751   17.2660  -31.5643 H   0  0  0  0  0  0  0  0  0  0  0  0
    2.0507   16.2843  -32.4765 H   0  0  0  0  0  0  0  0  0  0  0  0
    1.6547   15.3698  -33.9710 H   0  0  0  0  0  0  0  0  0  0  0  0
    1.5836   17.1647  -33.9710 H   0  0  0  0  0  0  0  0  0  0  0  0
   -0.0329   18.3202  -35.0863 H   0  0  0  0  0  0  0  0  0  0  0  0
    1.0106   20.3625  -34.1300 H   0  0  0  0  0  0  0  0  0  0  0  0
   -0.2857   21.8072  -32.5702 H   0  0  0  0  0  0  0  0  0  0  0  0
   -2.6853   21.3362  -32.1419 H   0  0  0  0  0  0  0  0  0  0  0  0
  1  2  1  0
  2  3  1  0
  3  4  1  0
  3  5  1  0
  5  6  1  0
  6  7  1  0
  7  8  1  0
  8  9  2  0
  9 10  1  0
 10 11  2  0
 11 12  1  0
 12 13  2  0
 13 14  1  0
 14 15  2  0
 15 16  1  0
 15 17  1  0
 17 18  2  0
 18 19  1  0
 19 20  1  0
 20 21  1  0
 21 22  1  0
 22 23  1  0
 23 24  1  0
 24 25  1  0
 24 26  1  0
 19 27  2  0
 27 28  1  0
 28 29  2  0
 29 30  1  0
 30 31  2  0
 31 32  1  0
 32 33  2  0
 33  8  1  0
 14  9  1  0
 33 17  1  0
 32 27  1  0
  1 34  1  0
  1 35  1  0
  1 36  1  0
  2 37  1  0
  2 38  1  0
  4 39  1  0
  4 40  1  0
  4 41  1  0
  5 42  1  0
  5 43  1  0
  6 44  1  0
  6 45  1  0
  7 46  1  0
 10 47  1  0
 11 48  1  0
 12 49  1  0
 13 50  1  0
 16 51  1  0
 16 52  1  0
 16 53  1  0
 18 54  1  0
 20 55  1  0
 20 56  1  0
 21 57  1  0
 21 58  1  0
 22 59  1  0
 22 60  1  0
 23 61  1  0
 23 62  1  0
 25 63  1  0
 25 64  1  0
 25 65  1  0
 26 66  1  0
 26 67  1  0
 26 68  1  0
 28 69  1  0
 29 70  1  0
 30 71  1  0
 31 72  1  0
M  CHG  2  15   1  20   1
M  END
>  <UniqueID>  (5) 
5

>  <SMILES>  (5) 
CCN(C)CCNc1c2ccccc2[n+](C)c2cc([NH2+]CCCN(C)C)c3ccccc3c12

>  <Energy>  (5) 
124.17694631129318

>  <Genealogy>  (5) 
CCN(C)CCNc1c2ccccc2[n+](C)c2cc([NH2+]CCCN(C)C)c3ccccc3c12 (protonated)
CCN(C)CCNc1c2ccccc2[n+](C)c2cc([NH2+]CCCN(C)C)c3ccccc3c12 (3D coordinates assigned)
CCN(C)CCNc1c2ccccc2[n+](C)c2cc([NH2+]CCCN(C)C)c3ccccc3c12 (optimized conformer: 124.17694631129318 kcal/mol)

>  <smiles>  (5) 
CCN(C)CCNc1c2ccccc2[n+](C)c2cc(NCCCN(C)C)c3ccccc3c12

>  <score_type>  (5) 
oracle

>  <origin>  (5) 
adg

>  <m_score__min__energy>  (5) 
-8.1500000000000004

>  <m_primary>  (5) 
energy

$$$$
5:0
     RDKit          3D

 54 56  0  0  0  0  0  0  0  0999 V2000
   -2.8020   25.3000  -26.0030 C   0  0  0  0  0  0  0  0  0  0  0  0
   -4.2480   24.9010  -26.3100 C   0  0  0  0  0  0  0  0  0  0  0  0
   -4.4500   24.5820  -27.7370 N   0  0  0  0  0  0  0  0  0  0  0  0
   -3.3330   23.8120  -28.3200 C   0  0  0  0  0  0  0  0  0  0  0  0
   -3.1650   24.0830  -29.8250 C   0  0  0  0  0  0  0  0  0  0  0  0
   -3.8410   25.2740  -30.1840 O   0  0  0  0  0  0  0  0  0  0  0  0
   -5.0410   24.9750  -30.8660 C   0  0  0  0  0  0  0  0  0  0  0  0
   -5.5100   23.5770  -30.4590 C   0  0  0  0  0  0  0  0  0  0  0  0
   -6.5300   22.9960  -31.4470 C   0  0  0  0  0  0  0  0  0  0  0  0
   -5.8630   22.4080  -32.6100 N   0  0  0  0  0  0  0  0  0  0  0  0
   -5.7840   20.9840  -32.8040 C   0  0  0  0  0  0  0  0  0  0  0  0
   -6.9020   20.1670  -32.5520 C   0  0  0  0  0  0  0  0  0  0  0  0
   -8.0750   20.7030  -31.9780 C   0  0  0  0  0  0  0  0  0  0  0  0
   -9.1680   19.8870  -31.6970 C   0  0  0  0  0  0  0  0  0  0  0  0
   -9.1040   18.5240  -31.9560 C   0  0  0  0  0  0  0  0  0  0  0  0
   -7.9510   17.9680  -32.5090 C   0  0  0  0  0  0  0  0  0  0  0  0
   -6.8340   18.7780  -32.8400 C   0  0  0  0  0  0  0  0  0  0  0  0
   -5.6910   18.2420  -33.4030 N   0  0  0  0  0  0  0  0  0  0  0  0
   -5.7160   16.8760  -33.9710 C   0  0  0  0  0  0  0  0  0  0  0  0
   -4.5290   18.9890  -33.4500 C   0  0  0  0  0  0  0  0  0  0  0  0
   -3.2750   18.3990  -33.7550 C   0  0  0  0  0  0  0  0  0  0  0  0
   -2.1220   19.1750  -33.8630 C   0  0  0  0  0  0  0  0  0  0  0  0
   -2.1800   20.5490  -33.6620 C   0  0  0  0  0  0  0  0  0  0  0  0
   -0.7270   21.5200  -33.8220 Cl  0  0  0  0  0  0  0  0  0  0  0  0
   -3.3880   21.1520  -33.3170 C   0  0  0  0  0  0  0  0  0  0  0  0
   -4.5660   20.3840  -33.1820 C   0  0  0  0  0  0  0  0  0  0  0  0
   -2.6562   25.3402  -24.9135 H   0  0  0  0  0  0  0  0  0  0  0  0
   -2.1166   24.5574  -26.4375 H   0  0  0  0  0  0  0  0  0  0  0  0
   -2.5944   26.2890  -26.4375 H   0  0  0  0  0  0  0  0  0  0  0  0
   -4.5059   24.0160  -25.7097 H   0  0  0  0  0  0  0  0  0  0  0  0
   -4.8932   25.7566  -26.0618 H   0  0  0  0  0  0  0  0  0  0  0  0
   -4.5710   25.4680  -28.2810 H   0  0  0  0  0  0  0  0  0  0  0  0
   -5.3410   24.0430  -27.8410 H   0  0  0  0  0  0  0  0  0  0  0  0
   -2.4026   24.0909  -27.8036 H   0  0  0  0  0  0  0  0  0  0  0  0
   -3.5562   22.7425  -28.1918 H   0  0  0  0  0  0  0  0  0  0  0  0
   -2.0952   24.1875  -30.0585 H   0  0  0  0  0  0  0  0  0  0  0  0
   -3.5918   23.2423  -30.3917 H   0  0  0  0  0  0  0  0  0  0  0  0
   -5.8107   25.7143  -30.5996 H   0  0  0  0  0  0  0  0  0  0  0  0
   -4.8694   25.0079  -31.9520 H   0  0  0  0  0  0  0  0  0  0  0  0
   -4.6371   22.9089  -30.4175 H   0  0  0  0  0  0  0  0  0  0  0  0
   -5.9999   23.6582  -29.4774 H   0  0  0  0  0  0  0  0  0  0  0  0
   -7.1187   22.2178  -30.9392 H   0  0  0  0  0  0  0  0  0  0  0  0
   -7.1827   23.8106  -31.7940 H   0  0  0  0  0  0  0  0  0  0  0  0
   -5.5970   23.0430  -33.3950 H   0  0  0  0  0  0  0  0  0  0  0  0
   -8.1263   21.7779  -31.7500 H   0  0  0  0  0  0  0  0  0  0  0  0
  -10.0831   20.3225  -31.2694 H   0  0  0  0  0  0  0  0  0  0  0  0
   -9.9658   17.8809  -31.7241 H   0  0  0  0  0  0  0  0  0  0  0  0
   -7.9067   16.8842  -32.6916 H   0  0  0  0  0  0  0  0  0  0  0  0
   -5.7295   16.1394  -33.1541 H   0  0  0  0  0  0  0  0  0  0  0  0
   -6.6165   16.7529  -34.5906 H   0  0  0  0  0  0  0  0  0  0  0  0
   -4.8206   16.7201  -34.5906 H   0  0  0  0  0  0  0  0  0  0  0  0
   -3.2117   17.3116  -33.9087 H   0  0  0  0  0  0  0  0  0  0  0  0
   -1.1618   18.6977  -34.1084 H   0  0  0  0  0  0  0  0  0  0  0  0
   -3.4247   22.2383  -33.1479 H   0  0  0  0  0  0  0  0  0  0  0  0
  1  2  1  0
  2  3  1  0
  3  4  1  0
  4  5  1  0
  5  6  1  0
  6  7  1  0
  7  8  1  0
  8  9  1  0
  9 10  1  0
 10 11  1  0
 11 12  2  0
 12 13  1  0
 13 14  2  0
 14 15  1  0
 15 16  2  0
 16 17  1  0
 17 18  2  0
 18 19  1  0
 18 20  1  0
 20 21  2  0
 21 22  1  0
 22 23  2  0
 23 24  1  0
 23 25  1  0
 25 26  2  0
 26 11  1  0
 17 12  1  0
 26 20  1  0
  1 27  1  0
  1 28  1  0
  1 29  1  0
  2 30  1  0
  2 31  1  0
  3 32  1  0
  3 33  1  0
  4 34  1  0
  4 35  1  0
  5 36  1  0
  5 37  1  0
  7 38  1  0
  7 39  1  0
  8 40  1  0
  8 41  1  0
  9 42  1  0
  9 43  1  0
 10 44  1  0
 13 45  1  0
 14 46  1  0
 15 47  1  0
 16 48  1  0
 19 49  1  0
 19 50  1  0
 19 51  1  0
 21 52  1  0
 22 53  1  0
 25 54  1  0
M  CHG  2   3   1  18   1
M  END
>  <UniqueID>  (6) 
6

>  <SMILES>  (6) 
CC[NH2+]CCOCCCNc1c2ccccc2[n+](C)c2ccc(Cl)cc12

>  <Energy>  (6) 
77.03582452370003

>  <Genealogy>  (6) 
CC[NH2+]CCOCCCNc1c2ccccc2[n+](C)c2ccc(Cl)cc12 (protonated)
CC[NH2+]CCOCCCNc1c2ccccc2[n+](C)c2ccc(Cl)cc12 (3D coordinates assigned)
CC[NH2+]CCOCCCNc1c2ccccc2[n+](C)c2ccc(Cl)cc12 (optimized conformer: 77.03582452370003 kcal/mol)

>  <smiles>  (6) 
CCNCCOCCCNc1c2ccccc2[n+](C)c2ccc(Cl)cc12

>  <score_type>  (6) 
oracle

>  <origin>  (6) 
adg

>  <m_score__min__energy>  (6) 
-8.8499999999999996

>  <m_primary>  (6) 
energy

$$$$
6:0
     RDKit          3D

 70 72  0  0  0  0  0  0  0  0999 V2000
   -2.7450   20.0360  -27.1550 C   0  0  0  0  0  0  0  0  0  0  0  0
   -2.5900   21.0840  -28.2540 C   0  0  0  0  0  0  0  0  0  0  0  0
   -1.8500   20.5170  -29.4020 N   0  0  0  0  0  0  0  0  0  0  0  0
   -0.7140   19.6770  -28.9800 C   0  0  0  0  0  0  0  0  0  0  0  0
   -1.4470   21.5390  -30.3940 C   0  0  0  0  0  0  0  0  0  0  0  0
   -1.4980   21.0540  -31.8710 C   0  0  0  0  0  0  0  0  0  0  0  0
   -2.9320   20.9530  -32.4400 C   0  0  0  0  0  0  0  0  0  0  0  0
   -3.9320   20.4700  -31.4630 N   0  0  0  0  0  0  0  0  0  0  0  0
   -5.1910   21.2070  -31.5140 C   0  0  0  0  0  0  0  0  0  0  0  0
   -6.3830   20.5540  -31.9440 C   0  0  0  0  0  0  0  0  0  0  0  0
   -6.3850   19.1990  -32.3610 C   0  0  0  0  0  0  0  0  0  0  0  0
   -7.5670   18.5510  -32.7070 C   0  0  0  0  0  0  0  0  0  0  0  0
   -8.7750   19.2230  -32.6400 C   0  0  0  0  0  0  0  0  0  0  0  0
   -8.8050   20.5620  -32.2620 C   0  0  0  0  0  0  0  0  0  0  0  0
   -7.6140   21.2670  -31.9520 C   0  0  0  0  0  0  0  0  0  0  0  0
   -7.6410   22.6120  -31.6540 N   0  0  0  0  0  0  0  0  0  0  0  0
   -8.8410   23.4150  -31.9880 C   0  0  0  0  0  0  0  0  0  0  0  0
   -6.5430   23.2200  -31.0850 C   0  0  0  0  0  0  0  0  0  0  0  0
   -6.6460   24.5080  -30.5000 C   0  0  0  0  0  0  0  0  0  0  0  0
   -5.5280   25.1740  -30.0120 C   0  0  0  0  0  0  0  0  0  0  0  0
   -4.2700   24.5720  -30.0730 C   0  0  0  0  0  0  0  0  0  0  0  0
   -3.1040   25.2210  -29.6430 O   0  0  0  0  0  0  0  0  0  0  0  0
   -2.1540   24.6640  -28.7380 C   0  0  0  0  0  0  0  0  0  0  0  0
   -2.6130   24.9300  -27.3050 C   0  0  0  0  0  0  0  0  0  0  0  0
   -1.4320   24.8200  -26.3140 C   0  0  0  0  0  0  0  0  0  0  0  0
   -1.2990   25.9710  -25.3730 N   0  0  0  0  0  0  0  0  0  0  0  0
   -0.3950   25.6700  -24.2370 C   0  0  0  0  0  0  0  0  0  0  0  0
   -0.8420   27.1930  -26.0660 C   0  0  0  0  0  0  0  0  0  0  0  0
   -2.5410   26.2610  -24.8720 O   0  0  0  0  0  0  0  0  0  0  0  0
   -4.1570   23.2770  -30.5750 C   0  0  0  0  0  0  0  0  0  0  0  0
   -5.2820   22.5590  -31.0610 C   0  0  0  0  0  0  0  0  0  0  0  0
   -2.6730   20.5229  -26.1713 H   0  0  0  0  0  0  0  0  0  0  0  0
   -3.7253   19.5464  -27.2509 H   0  0  0  0  0  0  0  0  0  0  0  0
   -1.9484   19.2835  -27.2509 H   0  0  0  0  0  0  0  0  0  0  0  0
   -3.5861   21.4089  -28.5889 H   0  0  0  0  0  0  0  0  0  0  0  0
   -2.0289   21.9417  -27.8545 H   0  0  0  0  0  0  0  0  0  0  0  0
   -0.6702   19.6446  -27.8814 H   0  0  0  0  0  0  0  0  0  0  0  0
   -0.8462   18.6577  -29.3719 H   0  0  0  0  0  0  0  0  0  0  0  0
    0.2218   20.1020  -29.3719 H   0  0  0  0  0  0  0  0  0  0  0  0
   -2.1206   22.4026  -30.2917 H   0  0  0  0  0  0  0  0  0  0  0  0
   -0.3969   21.7876  -30.1806 H   0  0  0  0  0  0  0  0  0  0  0  0
   -0.9275   21.7624  -32.4896 H   0  0  0  0  0  0  0  0  0  0  0  0
   -1.0701   20.0409  -31.8929 H   0  0  0  0  0  0  0  0  0  0  0  0
   -3.2389   21.9515  -32.7848 H   0  0  0  0  0  0  0  0  0  0  0  0
   -2.9006   20.2156  -33.2556 H   0  0  0  0  0  0  0  0  0  0  0  0
   -3.5300   20.5450  -30.5040 H   0  0  0  0  0  0  0  0  0  0  0  0
   -4.0440   19.4420  -31.5600 H   0  0  0  0  0  0  0  0  0  0  0  0
   -5.4337   18.6491  -32.4121 H   0  0  0  0  0  0  0  0  0  0  0  0
   -7.5410   17.5013  -33.0348 H   0  0  0  0  0  0  0  0  0  0  0  0
   -9.7106   18.6992  -32.8853 H   0  0  0  0  0  0  0  0  0  0  0  0
   -9.7715   21.0839  -32.2025 H   0  0  0  0  0  0  0  0  0  0  0  0
   -9.3321   23.7437  -31.0602 H   0  0  0  0  0  0  0  0  0  0  0  0
   -8.5413   24.2951  -32.5758 H   0  0  0  0  0  0  0  0  0  0  0  0
   -9.5403   22.8022  -32.5758 H   0  0  0  0  0  0  0  0  0  0  0  0
   -7.6322   24.9903  -30.4310 H   0  0  0  0  0  0  0  0  0  0  0  0
   -5.6347   26.1784  -29.5764 H   0  0  0  0  0  0  0  0  0  0  0  0
   -2.0780   23.5794  -28.9051 H   0  0  0  0  0  0  0  0  0  0  0  0
   -1.1695   25.1258  -28.9036 H   0  0  0  0  0  0  0  0  0  0  0  0
   -3.0386   25.9426  -27.2460 H   0  0  0  0  0  0  0  0  0  0  0  0
   -3.3681   24.1774  -27.0342 H   0  0  0  0  0  0  0  0  0  0  0  0
   -1.5679   23.9048  -25.7191 H   0  0  0  0  0  0  0  0  0  0  0  0
   -0.5156   24.8082  -26.9224 H   0  0  0  0  0  0  0  0  0  0  0  0
   -0.9254   25.8466  -23.2896 H   0  0  0  0  0  0  0  0  0  0  0  0
   -0.0782   24.6179  -24.2893 H   0  0  0  0  0  0  0  0  0  0  0  0
    0.4893   26.3222  -24.2893 H   0  0  0  0  0  0  0  0  0  0  0  0
   -0.5582   27.9520  -25.3221 H   0  0  0  0  0  0  0  0  0  0  0  0
    0.0275   26.9539  -26.6960 H   0  0  0  0  0  0  0  0  0  0  0  0
   -1.6550   27.5831  -26.6960 H   0  0  0  0  0  0  0  0  0  0  0  0
   -2.4340   26.8970  -24.1140 H   0  0  0  0  0  0  0  0  0  0  0  0
   -3.1676   22.7968  -30.5955 H   0  0  0  0  0  0  0  0  0  0  0  0
  1  2  1  0
  2  3  1  0
  3  4  1  0
  3  5  1  0
  5  6  1  0
  6  7  1  0
  7  8  1  0
  8  9  1  0
  9 10  2  0
 10 11  1  0
 11 12  2  0
 12 13  1  0
 13 14  2  0
 14 15  1  0
 15 16  2  0
 16 17  1  0
 16 18  1  0
 18 19  2  0
 19 20  1  0
 20 21  2  0
 21 22  1  0
 22 23  1  0
 23 24  1  0
 24 25  1  0
 25 26  1  0
 26 27  1  0
 26 28  1  0
 26 29  1  0
 21 30  1  0
 30 31  2  0
 31  9  1  0
 15 10  1  0
 31 18  1  0
  1 32  1  0
  1 33  1  0
  1 34  1  0
  2 35  1  0
  2 36  1  0
  4 37  1  0
  4 38  1  0
  4 39  1  0
  5 40  1  0
  5 41  1  0
  6 42  1  0
  6 43  1  0
  7 44  1  0
  7 45  1  0
  8 46  1  0
  8 47  1  0
 11 48  1  0
 12 49  1  0
 13 50  1  0
 14 51  1  0
 17 52  1  0
 17 53  1  0
 17 54  1  0
 19 55  1  0
 20 56  1  0
 23 57  1  0
 23 58  1  0
 24 59  1  0
 24 60  1  0
 25 61  1  0
 25 62  1  0
 27 63  1  0
 27 64  1  0
 27 65  1  0
 28 66  1  0
 28 67  1  0
 28 68  1  0
 29 69  1  0
 30 70  1  0
M  CHG  3   8   1  16   1  26   1
M  END
>  <UniqueID>  (7) 
7

>  <SMILES>  (7) 
CCN(C)CCC[NH2+]c1c2ccccc2[n+](C)c2ccc(OCCC[N+](C)(C)O)cc12

>  <Energy>  (7) 
106.92765159987111

>  <Genealogy>  (7) 
CCN(C)CCC[NH2+]c1c2ccccc2[n+](C)c2ccc(OCCC[N+](C)(C)O)cc12 (protonated)
CCN(C)CCC[NH2+]c1c2ccccc2[n+](C)c2ccc(OCCC[N+](C)(C)O)cc12 (3D coordinates assigned)
CCN(C)CCC[NH2+]c1c2ccccc2[n+](C)c2ccc(OCCC[N+](C)(C)O)cc12 (optimized conformer: 106.92765159987111 kcal/mol)

>  <smiles>  (7) 
CCN(C)CCCNc1c2ccccc2[n+](C)c2ccc(OCCC[N+](C)(C)[O-])cc12

>  <score_type>  (7) 
oracle

>  <origin>  (7) 
adg

>  <m_score__min__energy>  (7) 
-7.79

>  <m_primary>  (7) 
energy

$$$$
7:0
     RDKit          3D

 54 56  0  0  0  0  0  0  0  0999 V2000
   -2.8220   19.0780  -26.6870 C   0  0  0  0  0  0  0  0  0  0  0  0
   -3.1110   20.3760  -27.4490 C   0  0  0  0  0  0  0  0  0  0  0  0
   -2.2980   20.5100  -28.6850 N   0  0  2  0  0  0  0  0  0  0  0  0
   -1.0710   19.6920  -28.6010 C   0  0  0  0  0  0  0  0  0  0  0  0
   -1.9280   21.9310  -28.9210 C   0  0  0  0  0  0  0  0  0  0  0  0
   -3.1420   22.8180  -29.1480 C   0  0  0  0  0  0  0  0  0  0  0  0
   -3.5040   23.7240  -28.1380 C   0  0  0  0  0  0  0  0  0  0  0  0
   -4.6000   24.5110  -28.2740 N   0  0  0  0  0  0  0  0  0  0  0  0
   -5.3850   24.4580  -29.3760 C   0  0  0  0  0  0  0  0  0  0  0  0
   -5.0810   23.5810  -30.4220 C   0  0  0  0  0  0  0  0  0  0  0  0
   -3.9270   22.7690  -30.3340 C   0  0  0  0  0  0  0  0  0  0  0  0
   -3.5860   21.8210  -31.4690 C   0  0  0  0  0  0  0  0  0  0  0  0
   -4.3590   22.1340  -32.7570 C   0  0  0  0  0  0  0  0  0  0  0  0
   -5.7860   22.3940  -32.4970 N   0  0  0  0  0  0  0  0  0  0  0  0
   -6.5000   21.2140  -31.9530 C   0  0  0  0  0  0  0  0  0  0  0  0
   -7.1810   20.4200  -33.0910 C   0  0  0  0  0  0  0  0  0  0  0  0
   -8.5570   19.8830  -32.6450 C   0  0  0  0  0  0  0  0  0  0  0  0
   -8.4480   18.7590  -31.5970 C   0  0  0  0  0  0  0  0  0  0  0  0
   -7.2470   17.8170  -31.8200 C   0  0  0  0  0  0  0  0  0  0  0  0
   -6.7320   17.8670  -33.2610 C   0  0  0  0  0  0  0  0  0  0  0  0
   -6.2650   19.2850  -33.6380 C   0  0  0  0  0  0  0  0  0  0  0  0
   -5.9500   23.5990  -31.6600 C   0  0  0  0  0  0  0  0  0  0  0  0
   -2.8649   19.2708  -25.6049 H   0  0  0  0  0  0  0  0  0  0  0  0
   -3.5735   18.3206  -26.9546 H   0  0  0  0  0  0  0  0  0  0  0  0
   -1.8202   18.7110  -26.9546 H   0  0  0  0  0  0  0  0  0  0  0  0
   -4.1757   20.3921  -27.7250 H   0  0  0  0  0  0  0  0  0  0  0  0
   -2.8488   21.2145  -26.7871 H   0  0  0  0  0  0  0  0  0  0  0  0
   -2.8580   20.1610  -29.4960 H   0  0  0  0  0  0  0  0  0  0  0  0
   -0.8155   19.5217  -27.5447 H   0  0  0  0  0  0  0  0  0  0  0  0
   -1.2401   18.7253  -29.0979 H   0  0  0  0  0  0  0  0  0  0  0  0
   -0.2437   20.2199  -29.0979 H   0  0  0  0  0  0  0  0  0  0  0  0
   -1.3783   22.3029  -28.0438 H   0  0  0  0  0  0  0  0  0  0  0  0
   -1.3108   21.9694  -29.8307 H   0  0  0  0  0  0  0  0  0  0  0  0
   -2.8920   23.7961  -27.2268 H   0  0  0  0  0  0  0  0  0  0  0  0
   -6.2683   25.1095  -29.4490 H   0  0  0  0  0  0  0  0  0  0  0  0
   -2.5087   21.8964  -31.6784 H   0  0  0  0  0  0  0  0  0  0  0  0
   -3.8695   20.8070  -31.1504 H   0  0  0  0  0  0  0  0  0  0  0  0
   -3.9165   23.0236  -33.2291 H   0  0  0  0  0  0  0  0  0  0  0  0
   -4.2889   21.2562  -33.4162 H   0  0  0  0  0  0  0  0  0  0  0  0
   -5.7801   20.5616  -31.4372 H   0  0  0  0  0  0  0  0  0  0  0  0
   -7.2718   21.5590  -31.2492 H   0  0  0  0  0  0  0  0  0  0  0  0
   -7.3503   21.1167  -33.9252 H   0  0  0  0  0  0  0  0  0  0  0  0
   -9.1345   20.7129  -32.2116 H   0  0  0  0  0  0  0  0  0  0  0  0
   -9.0516   19.4615  -33.5325 H   0  0  0  0  0  0  0  0  0  0  0  0
   -8.3482   19.2195  -30.6031 H   0  0  0  0  0  0  0  0  0  0  0  0
   -9.3575   18.1468  -31.6867 H   0  0  0  0  0  0  0  0  0  0  0  0
   -6.4330   18.1144  -31.1425 H   0  0  0  0  0  0  0  0  0  0  0  0
   -7.5820   16.7891  -31.6168 H   0  0  0  0  0  0  0  0  0  0  0  0
   -5.8858   17.1717  -33.3637 H   0  0  0  0  0  0  0  0  0  0  0  0
   -7.5537   17.5811  -33.9341 H   0  0  0  0  0  0  0  0  0  0  0  0
   -5.2520   19.4339  -33.2358 H   0  0  0  0  0  0  0  0  0  0  0  0
   -6.2987   19.3499  -34.7356 H   0  0  0  0  0  0  0  0  0  0  0  0
   -5.6860   24.4818  -32.2608 H   0  0  0  0  0  0  0  0  0  0  0  0
   -6.9978   23.6280  -31.3263 H   0  0  0  0  0  0  0  0  0  0  0  0
  1  2  1  0
  2  3  1  0
  3  4  1  0
  3  5  1  0
  5  6  1  0
  6  7  2  0
  7  8  1  0
  8  9  2  0
  9 10  1  0
 10 11  2  0
 11 12  1  0
 12 13  1  0
 13 14  1  0
 14 15  1  0
 15 16  1  0
 16 17  1  0
 17 18  1  0
 18 19  1  0
 19 20  1  0
 20 21  1  0
 14 22  1  0
 11  6  1  0
 21 16  1  0
 22 10  1  0
  1 23  1  0
  1 24  1  0
  1 25  1  0
  2 26  1  0
  2 27  1  0
  3 28  1  6
  4 29  1  0
  4 30  1  0
  4 31  1  0
  5 32  1  0
  5 33  1  0
  7 34  1  0
  9 35  1  0
 12 36  1  0
 12 37  1  0
 13 38  1  0
 13 39  1  0
 15 40  1  0
 15 41  1  0
 16 42  1  0
 17 43  1  0
 17 44  1  0
 18 45  1  0
 18 46  1  0
 19 47  1  0
 19 48  1  0
 20 49  1  0
 20 50  1  0
 21 51  1  0
 21 52  1  0
 22 53  1  0
 22 54  1  0
M  CHG  1   3   1
M  END
>  <UniqueID>  (8) 
8

>  <SMILES>  (8) 
CC[N@H+](C)Cc1cncc2c1CCN(CC1CCCCC1)C2

>  <Energy>  (8) 
65.80504599914126

>  <Genealogy>  (8) 
CC[NH+](C)Cc1cncc2c1CCN(CC1CCCCC1)C2 (protonated)
CC[N@H+](C)Cc1cncc2c1CCN(CC1CCCCC1)C2 (chirality)
CC[N@H+](C)Cc1cncc2c1CCN(CC1CCCCC1)C2 (3D coordinates assigned)
CC[N@H+](C)Cc1cncc2c1CCN(CC1CCCCC1)C2 (nonaromatic ring conformer: 65.80504599914126 kcal/mol)

>  <smiles>  (8) 
CCN(C)Cc1cncc2c1CCN(CC1CCCCC1)C2

>  <score_type>  (8) 
oracle

>  <origin>  (8) 
adg

>  <m_score__min__energy>  (8) 
-7.4800000000000004

>  <m_primary>  (8) 
energy

$$$$
8:0
     RDKit          3D

 32 33  0  0  0  0  0  0  0  0999 V2000
   -7.2720   18.1350  -31.6660 C   0  0  0  0  0  0  0  0  0  0  0  0
   -8.3320   18.9160  -32.4320 C   0  0  0  0  0  0  0  0  0  0  0  0
   -7.7100   19.9820  -33.2160 N   0  0  0  0  0  0  0  0  0  0  0  0
   -6.8490   20.9890  -32.6450 C   0  0  0  0  0  0  0  0  0  0  0  0
   -5.4600   20.8260  -32.7500 C   0  0  0  0  0  0  0  0  0  0  0  0
   -4.6020   21.7430  -32.1690 C   0  0  0  0  0  0  0  0  0  0  0  0
   -5.1170   22.8200  -31.4520 C   0  0  0  0  0  0  0  0  0  0  0  0
   -4.2410   23.7310  -30.8410 C   0  0  0  0  0  0  0  0  0  0  0  0
   -4.7430   24.8020  -30.1070 C   0  0  0  0  0  0  0  0  0  0  0  0
   -6.1180   24.9700  -29.9710 C   0  0  0  0  0  0  0  0  0  0  0  0
   -7.0030   24.0740  -30.5760 C   0  0  0  0  0  0  0  0  0  0  0  0
   -6.5240   22.9800  -31.3430 C   0  0  0  0  0  0  0  0  0  0  0  0
   -7.3730   22.0780  -31.9710 N   0  0  0  0  0  0  0  0  0  0  0  0
   -8.8420   22.2740  -31.9560 C   0  0  0  0  0  0  0  0  0  0  0  0
   -9.4760   21.5570  -30.7650 C   0  0  0  0  0  0  0  0  0  0  0  0
   -7.4367   18.2564  -30.5852 H   0  0  0  0  0  0  0  0  0  0  0  0
   -7.3397   17.0693  -31.9298 H   0  0  0  0  0  0  0  0  0  0  0  0
   -6.2742   18.5154  -31.9298 H   0  0  0  0  0  0  0  0  0  0  0  0
   -8.8675   18.2335  -33.1083 H   0  0  0  0  0  0  0  0  0  0  0  0
   -9.0349   19.3637  -31.7140 H   0  0  0  0  0  0  0  0  0  0  0  0
   -7.9350   20.0170  -34.2350 H   0  0  0  0  0  0  0  0  0  0  0  0
   -5.0503   19.9643  -33.2973 H   0  0  0  0  0  0  0  0  0  0  0  0
   -3.5137   21.6213  -32.2734 H   0  0  0  0  0  0  0  0  0  0  0  0
   -3.1538   23.5981  -30.9426 H   0  0  0  0  0  0  0  0  0  0  0  0
   -4.0526   25.5160  -29.6342 H   0  0  0  0  0  0  0  0  0  0  0  0
   -6.5103   25.8133  -29.3836 H   0  0  0  0  0  0  0  0  0  0  0  0
   -8.0869   24.2185  -30.4561 H   0  0  0  0  0  0  0  0  0  0  0  0
   -9.0610   23.3498  -31.8869 H   0  0  0  0  0  0  0  0  0  0  0  0
   -9.2618   21.8549  -32.8824 H   0  0  0  0  0  0  0  0  0  0  0  0
   -9.0926   21.9905  -29.8295 H   0  0  0  0  0  0  0  0  0  0  0  0
  -10.5687   21.6771  -30.8040 H   0  0  0  0  0  0  0  0  0  0  0  0
   -9.2231   20.4872  -30.8040 H   0  0  0  0  0  0  0  0  0  0  0  0
  1  2  1  0
  2  3  1  0
  3  4  1  0
  4  5  2  0
  5  6  1  0
  6  7  2  0
  7  8  1  0
  8  9  2  0
  9 10  1  0
 10 11  2  0
 11 12  1  0
 12 13  2  0
 13 14  1  0
 14 15  1  0
 13  4  1  0
 12  7  1  0
  1 16  1  0
  1 17  1  0
  1 18  1  0
  2 19  1  0
  2 20  1  0
  3 21  1  0
  5 22  1  0
  6 23  1  0
  8 24  1  0
  9 25  1  0
 10 26  1  0
 11 27  1  0
 14 28  1  0
 14 29  1  0
 15 30  1  0
 15 31  1  0
 15 32  1  0
M  CHG  1  13   1
M  END
>  <UniqueID>  (9) 
9

>  <SMILES>  (9) 
CCNc1ccc2ccccc2[n+]1CC

>  <Energy>  (9) 
40.42781146899609

>  <Genealogy>  (9) 
CCNc1ccc2ccccc2[n+]1CC (3D coordinates assigned)
CCNc1ccc2ccccc2[n+]1CC (optimized conformer: 40.42781146899609 kcal/mol)

>  <smiles>  (9) 
CCNc1ccc2ccccc2[n+]1CC

>  <score_type>  (9) 
oracle

>  <origin>  (9) 
adg

>  <m_score__min__energy>  (9) 
-5.9199999999999999

>  <m_primary>  (9) 
energy

$$$$
9:0
     RDKit          3D

 56 59  0  0  0  0  0  0  0  0999 V2000
   -6.4620   25.6050  -29.3690 C   0  0  0  0  0  0  0  0  0  0  0  0
   -5.7390   25.5340  -30.7170 C   0  0  0  0  0  0  0  0  0  0  0  0
   -4.7840   24.4080  -30.8340 N   0  0  0  0  0  0  0  0  0  0  0  0
   -4.2660   23.8750  -29.5500 C   0  0  0  0  0  0  0  0  0  0  0  0
   -2.7820   24.1780  -29.2840 C   0  0  0  0  0  0  0  0  0  0  0  0
   -5.1150   23.4060  -31.8690 C   0  0  0  0  0  0  0  0  0  0  0  0
   -3.8630   22.5860  -32.2380 C   0  0  0  0  0  0  0  0  0  0  0  0
   -4.0900   21.7130  -33.4080 N   0  0  0  0  0  0  0  0  0  0  0  0
   -3.7910   20.3060  -33.1390 C   0  0  0  0  0  0  0  0  0  0  0  0
   -2.4530   19.8620  -33.1710 C   0  0  0  0  0  0  0  0  0  0  0  0
   -1.3970   20.6790  -32.7150 C   0  0  0  0  0  0  0  0  0  0  0  0
   -0.0820   20.2220  -32.7440 C   0  0  0  0  0  0  0  0  0  0  0  0
    0.2040   18.9420  -33.2120 C   0  0  0  0  0  0  0  0  0  0  0  0
    1.8600   18.3600  -33.2100 Cl  0  0  0  0  0  0  0  0  0  0  0  0
   -0.8270   18.1160  -33.6620 C   0  0  0  0  0  0  0  0  0  0  0  0
   -2.1710   18.5660  -33.6690 C   0  0  0  0  0  0  0  0  0  0  0  0
   -3.1970   17.7880  -34.1630 N   0  0  0  0  0  0  0  0  0  0  0  0
   -2.8980   16.6480  -35.0580 C   0  0  0  0  0  0  0  0  0  0  0  0
   -4.5010   18.0800  -33.8110 C   0  0  0  0  0  0  0  0  0  0  0  0
   -5.5580   17.1820  -34.0890 C   0  0  0  0  0  0  0  0  0  0  0  0
   -6.8720   17.4860  -33.7520 C   0  0  0  0  0  0  0  0  0  0  0  0
   -7.1630   18.6310  -33.0130 C   0  0  0  0  0  0  0  0  0  0  0  0
   -8.4790   18.8640  -32.5810 C   0  0  0  0  0  0  0  0  0  0  0  0
   -8.7580   19.9260  -31.7230 C   0  0  0  0  0  0  0  0  0  0  0  0
   -7.7230   20.7310  -31.2530 C   0  0  0  0  0  0  0  0  0  0  0  0
   -6.4120   20.5150  -31.6870 C   0  0  0  0  0  0  0  0  0  0  0  0
   -6.1200   19.5180  -32.6440 C   0  0  0  0  0  0  0  0  0  0  0  0
   -4.8070   19.3110  -33.1630 C   0  0  0  0  0  0  0  0  0  0  0  0
   -5.7265   25.5328  -28.5542 H   0  0  0  0  0  0  0  0  0  0  0  0
   -7.0016   26.5605  -29.2922 H   0  0  0  0  0  0  0  0  0  0  0  0
   -7.1772   24.7728  -29.2922 H   0  0  0  0  0  0  0  0  0  0  0  0
   -6.4950   25.4291  -31.5091 H   0  0  0  0  0  0  0  0  0  0  0  0
   -5.1508   26.4589  -30.8098 H   0  0  0  0  0  0  0  0  0  0  0  0
   -4.8576   24.3133  -28.7328 H   0  0  0  0  0  0  0  0  0  0  0  0
   -4.3555   22.7802  -29.6078 H   0  0  0  0  0  0  0  0  0  0  0  0
   -2.6039   24.2144  -28.1991 H   0  0  0  0  0  0  0  0  0  0  0  0
   -2.1606   23.3882  -29.7313 H   0  0  0  0  0  0  0  0  0  0  0  0
   -2.5200   25.1482  -29.7313 H   0  0  0  0  0  0  0  0  0  0  0  0
   -5.8918   22.7291  -31.4838 H   0  0  0  0  0  0  0  0  0  0  0  0
   -5.4803   23.9257  -32.7670 H   0  0  0  0  0  0  0  0  0  0  0  0
   -3.0409   23.2796  -32.4683 H   0  0  0  0  0  0  0  0  0  0  0  0
   -3.6170   21.9426  -31.3804 H   0  0  0  0  0  0  0  0  0  0  0  0
   -5.0920   21.8460  -33.6690 H   0  0  0  0  0  0  0  0  0  0  0  0
   -3.5490   22.0720  -34.2200 H   0  0  0  0  0  0  0  0  0  0  0  0
   -1.6147   21.6872  -32.3327 H   0  0  0  0  0  0  0  0  0  0  0  0
    0.7330   20.8738  -32.3963 H   0  0  0  0  0  0  0  0  0  0  0  0
   -0.5932   17.1012  -34.0163 H   0  0  0  0  0  0  0  0  0  0  0  0
   -2.6648   15.7589  -34.4538 H   0  0  0  0  0  0  0  0  0  0  0  0
   -3.7722   16.4410  -35.6927 H   0  0  0  0  0  0  0  0  0  0  0  0
   -2.0347   16.8967  -35.6927 H   0  0  0  0  0  0  0  0  0  0  0  0
   -5.3358   16.2239  -34.5817 H   0  0  0  0  0  0  0  0  0  0  0  0
   -7.6866   16.8189  -34.0705 H   0  0  0  0  0  0  0  0  0  0  0  0
   -9.2922   18.2059  -32.9211 H   0  0  0  0  0  0  0  0  0  0  0  0
   -9.7950   20.1285  -31.4171 H   0  0  0  0  0  0  0  0  0  0  0  0
   -7.9380   21.5390  -30.5382 H   0  0  0  0  0  0  0  0  0  0  0  0
   -5.5967   21.1297  -31.2778 H   0  0  0  0  0  0  0  0  0  0  0  0
  1  2  1  0
  2  3  1  0
  3  4  1  0
  4  5  1  0
  3  6  1  0
  6  7  1  0
  7  8  1  0
  8  9  1  0
  9 10  2  0
 10 11  1  0
 11 12  2  0
 12 13  1  0
 13 14  1  0
 13 15  2  0
 15 16  1  0
 16 17  2  0
 17 18  1  0
 17 19  1  0
 19 20  2  0
 20 21  1  0
 21 22  2  0
 22 23  1  0
 23 24  2  0
 24 25  1  0
 25 26  2  0
 26 27  1  0
 27 28  2  0
 28  9  1  0
 16 10  1  0
 28 19  1  0
 27 22  1  0
  1 29  1  0
  1 30  1  0
  1 31  1  0
  2 32  1  0
  2 33  1  0
  4 34  1  0
  4 35  1  0
  5 36  1  0
  5 37  1  0
  5 38  1  0
  6 39  1  0
  6 40  1  0
  7 41  1  0
  7 42  1  0
  8 43  1  0
  8 44  1  0
 11 45  1  0
 12 46  1  0
 15 47  1  0
 18 48  1  0
 18 49  1  0
 18 50  1  0
 20 51  1  0
 21 52  1  0
 23 53  1  0
 24 54  1  0
 25 55  1  0
 26 56  1  0
M  CHG  2   8   1  17   1
M  END
>  <UniqueID>  (10) 
10

>  <SMILES>  (10) 
CCN(CC)CC[NH2+]c1c2ccc(Cl)cc2[n+](C)c2ccc3ccccc3c12

>  <Energy>  (10) 
115.3328037353916

>  <Genealogy>  (10) 
CCN(CC)CC[NH2+]c1c2ccc(Cl)cc2[n+](C)c2ccc3ccccc3c12 (protonated)
CCN(CC)CC[NH2+]c1c2ccc(Cl)cc2[n+](C)c2ccc3ccccc3c12 (3D coordinates assigned)
CCN(CC)CC[NH2+]c1c2ccc(Cl)cc2[n+](C)c2ccc3ccccc3c12 (optimized conformer: 115.3328037353916 kcal/mol)

>  <smiles>  (10) 
CCN(CC)CCNc1c2ccc(Cl)cc2[n+](C)c2ccc3ccccc3c12

>  <score_type>  (10) 
oracle

>  <origin>  (10) 
adg

>  <m_score__min__energy>  (10) 
-8.6999999999999993

>  <m_primary>  (10) 
energy

$$$$
10:0
     RDKit          3D

 64 67  0  0  0  0  0  0  0  0999 V2000
    0.2670   26.2460  -35.6890 C   0  0  0  0  0  0  0  0  0  0  0  0
    0.3570   24.9580  -36.4970 C   0  0  0  0  0  0  0  0  0  0  0  0
    0.9610   23.8950  -35.6600 N   0  0  0  0  0  0  0  0  0  0  0  0
    2.4380   23.9450  -35.6120 C   0  0  0  0  0  0  0  0  0  0  0  0
    2.9910   24.6780  -36.8310 C   0  0  0  0  0  0  0  0  0  0  0  0
    0.4340   22.5450  -35.9620 C   0  0  0  0  0  0  0  0  0  0  0  0
    0.5480   21.5520  -34.7880 C   0  0  0  0  0  0  0  0  0  0  0  0
   -0.6310   20.7730  -34.7010 O   0  0  0  0  0  0  0  0  0  0  0  0
   -0.4450   19.6390  -33.8750 C   0  0  0  0  0  0  0  0  0  0  0  0
   -1.7950   19.0370  -33.4760 C   0  0  0  0  0  0  0  0  0  0  0  0
   -2.8980   19.7670  -34.1010 N   0  0  0  0  0  0  0  0  0  0  0  0
   -4.1990   19.7840  -33.4930 C   0  0  0  0  0  0  0  0  0  0  0  0
   -5.0310   18.6660  -33.6430 C   0  0  0  0  0  0  0  0  0  0  0  0
   -4.6170   17.5470  -34.3990 C   0  0  0  0  0  0  0  0  0  0  0  0
   -5.4410   16.4320  -34.5290 C   0  0  0  0  0  0  0  0  0  0  0  0
   -6.6880   16.4140  -33.9150 C   0  0  0  0  0  0  0  0  0  0  0  0
   -7.1150   17.5100  -33.1640 C   0  0  0  0  0  0  0  0  0  0  0  0
   -6.2910   18.6540  -33.0050 C   0  0  0  0  0  0  0  0  0  0  0  0
   -6.7010   19.7480  -32.2740 N   0  0  0  0  0  0  0  0  0  0  0  0
   -7.9030   19.6360  -31.4150 C   0  0  0  0  0  0  0  0  0  0  0  0
   -5.9710   20.9270  -32.2780 C   0  0  0  0  0  0  0  0  0  0  0  0
   -6.6680   22.1380  -32.0600 C   0  0  0  0  0  0  0  0  0  0  0  0
   -7.8330   22.2040  -32.5490 O   0  0  0  0  0  0  0  0  0  0  0  0
   -6.2330   23.2100  -31.2490 C   0  0  0  0  0  0  0  0  0  0  0  0
   -7.2410   24.0450  -30.6950 C   0  0  0  0  0  0  0  0  0  0  0  0
   -6.9370   25.0500  -29.7800 C   0  0  0  0  0  0  0  0  0  0  0  0
   -5.6240   25.2650  -29.3970 C   0  0  0  0  0  0  0  0  0  0  0  0
   -4.6080   24.5010  -29.9590 C   0  0  0  0  0  0  0  0  0  0  0  0
   -4.8810   23.4850  -30.9050 C   0  0  0  0  0  0  0  0  0  0  0  0
   -3.7650   22.9480  -31.5540 C   0  0  0  0  0  0  0  0  0  0  0  0
   -3.6960   21.9280  -32.4920 C   0  0  0  0  0  0  0  0  0  0  0  0
   -4.6350   20.9120  -32.7500 C   0  0  0  0  0  0  0  0  0  0  0  0
    0.2837   26.0072  -34.6154 H   0  0  0  0  0  0  0  0  0  0  0  0
    1.1221   26.8931  -35.9341 H   0  0  0  0  0  0  0  0  0  0  0  0
   -0.6698   26.7679  -35.9341 H   0  0  0  0  0  0  0  0  0  0  0  0
   -0.6513   24.6500  -36.8107 H   0  0  0  0  0  0  0  0  0  0  0  0
    0.9812   25.1248  -37.3872 H   0  0  0  0  0  0  0  0  0  0  0  0
    2.7523   24.4728  -34.6995 H   0  0  0  0  0  0  0  0  0  0  0  0
    2.8276   22.9163  -35.6101 H   0  0  0  0  0  0  0  0  0  0  0  0
    3.6228   25.5154  -36.4999 H   0  0  0  0  0  0  0  0  0  0  0  0
    3.5914   23.9825  -37.4359 H   0  0  0  0  0  0  0  0  0  0  0  0
    2.1574   25.0644  -37.4359 H   0  0  0  0  0  0  0  0  0  0  0  0
   -0.6279   22.6405  -36.2328 H   0  0  0  0  0  0  0  0  0  0  0  0
    1.0448   22.1403  -36.7825 H   0  0  0  0  0  0  0  0  0  0  0  0
    1.4113   20.8904  -34.9522 H   0  0  0  0  0  0  0  0  0  0  0  0
    0.6825   22.1122  -33.8509 H   0  0  0  0  0  0  0  0  0  0  0  0
    0.1397   18.8849  -34.4222 H   0  0  0  0  0  0  0  0  0  0  0  0
    0.0895   19.9469  -32.9643 H   0  0  0  0  0  0  0  0  0  0  0  0
   -1.8301   17.9860  -33.7989 H   0  0  0  0  0  0  0  0  0  0  0  0
   -1.9017   19.1074  -32.3835 H   0  0  0  0  0  0  0  0  0  0  0  0
   -2.7260   20.3880  -34.9240 H   0  0  0  0  0  0  0  0  0  0  0  0
   -3.6329   17.5564  -34.8904 H   0  0  0  0  0  0  0  0  0  0  0  0
   -5.1051   15.5655  -35.1175 H   0  0  0  0  0  0  0  0  0  0  0  0
   -7.3395   15.5341  -34.0213 H   0  0  0  0  0  0  0  0  0  0  0  0
   -8.1063   17.4866  -32.6877 H   0  0  0  0  0  0  0  0  0  0  0  0
   -7.6018   19.6641  -30.3574 H   0  0  0  0  0  0  0  0  0  0  0  0
   -8.5831   20.4747  -31.6249 H   0  0  0  0  0  0  0  0  0  0  0  0
   -8.4165   18.6861  -31.6249 H   0  0  0  0  0  0  0  0  0  0  0  0
   -8.2879   23.8936  -30.9966 H   0  0  0  0  0  0  0  0  0  0  0  0
   -7.7407   25.6735  -29.3613 H   0  0  0  0  0  0  0  0  0  0  0  0
   -5.3859   26.0374  -28.6509 H   0  0  0  0  0  0  0  0  0  0  0  0
   -3.5663   24.6909  -29.6610 H   0  0  0  0  0  0  0  0  0  0  0  0
   -2.8003   23.4006  -31.2809 H   0  0  0  0  0  0  0  0  0  0  0  0
   -2.7896   21.9113  -33.1150 H   0  0  0  0  0  0  0  0  0  0  0  0
  1  2  1  0
  2  3  1  0
  3  4  1  0
  4  5  1  0
  3  6  1  0
  6  7  1  0
  7  8  1  0
  8  9  1  0
  9 10  1  0
 10 11  1  0
 11 12  1  0
 12 13  2  0
 13 14  1  0
 14 15  2  0
 15 16  1  0
 16 17  2  0
 17 18  1  0
 18 19  2  0
 19 20  1  0
 19 21  1  0
 21 22  1  0
 22 23  2  0
 22 24  1  0
 24 25  2  0
 25 26  1  0
 26 27  2  0
 27 28  1  0
 28 29  2  0
 29 30  1  0
 30 31  2  0
 31 32  1  0
 32 12  1  0
 18 13  1  0
 32 21  2  0
 29 24  1  0
  1 33  1  0
  1 34  1  0
  1 35  1  0
  2 36  1  0
  2 37  1  0
  4 38  1  0
  4 39  1  0
  5 40  1  0
  5 41  1  0
  5 42  1  0
  6 43  1  0
  6 44  1  0
  7 45  1  0
  7 46  1  0
  9 47  1  0
  9 48  1  0
 10 49  1  0
 10 50  1  0
 11 51  1  0
 14 52  1  0
 15 53  1  0
 16 54  1  0
 17 55  1  0
 20 56  1  0
 20 57  1  0
 20 58  1  0
 25 59  1  0
 26 60  1  0
 27 61  1  0
 28 62  1  0
 30 63  1  0
 31 64  1  0
M  CHG  1  19   1
M  END
>  <UniqueID>  (11) 
11

>  <SMILES>  (11) 
CCN(CC)CCOCCNc1c2ccccc2[n+](C)c2c(=O)c3ccccc3ccc12

>  <Energy>  (11) 
141.4229857070248

>  <Genealogy>  (11) 
CCN(CC)CCOCCNc1c2ccccc2[n+](C)c2c(=O)c3ccccc3ccc12 (3D coordinates assigned)
CCN(CC)CCOCCNc1c2ccccc2[n+](C)c2c(=O)c3ccccc3ccc12 (optimized conformer: 141.4229857070248 kcal/mol)

>  <smiles>  (11) 
CCN(CC)CCOCCNc1c2ccccc2[n+](C)c2c(=O)c3ccccc3ccc12

>  <score_type>  (11) 
oracle

>  <origin>  (11) 
adg

>  <m_score__min__energy>  (11) 
-9.1999999999999993

>  <m_primary>  (11) 
energy

$$$$
11:0
     RDKit          3D

 39 41  0  0  0  0  0  0  0  0999 V2000
   -6.5100   25.1480  -29.9340 C   0  0  0  0  0  0  0  0  0  0  0  0
   -5.0260   24.9250  -29.6690 C   0  0  0  0  0  0  0  0  0  0  0  0
   -4.3700   24.4580  -30.8450 O   0  0  0  0  0  0  0  0  0  0  0  0
   -4.7630   23.3060  -31.5390 C   0  0  0  0  0  0  0  0  0  0  0  0
   -5.4110   23.3950  -32.6170 O   0  0  0  0  0  0  0  0  0  0  0  0
   -4.4340   21.9580  -30.9800 C   0  0  0  0  0  0  0  0  0  0  0  0
   -4.0860   20.9860  -32.0750 C   0  0  0  0  0  0  0  0  0  0  0  0
   -4.9190   20.0800  -32.7590 C   0  0  0  0  0  0  0  0  0  0  0  0
   -6.3620   19.8610  -32.5270 C   0  0  0  0  0  0  0  0  0  0  0  0
   -6.9070   18.5710  -32.5150 C   0  0  0  0  0  0  0  0  0  0  0  0
   -8.2690   18.4000  -32.2610 C   0  0  0  0  0  0  0  0  0  0  0  0
   -9.0670   19.4790  -32.0400 N   0  0  0  0  0  0  0  0  0  0  0  0
   -8.5730   20.7500  -32.0820 C   0  0  0  0  0  0  0  0  0  0  0  0
   -9.4690   21.9180  -31.7890 C   0  0  0  0  0  0  0  0  0  0  0  0
   -7.2090   20.9590  -32.3220 C   0  0  0  0  0  0  0  0  0  0  0  0
   -4.2310   19.4500  -33.7480 N   0  0  0  0  0  0  0  0  0  0  0  0
   -2.9830   19.9350  -33.6810 C   0  0  0  0  0  0  0  0  0  0  0  0
   -1.9420   19.6110  -34.4840 N   0  0  0  0  0  0  0  0  0  0  0  0
   -0.7440   20.2350  -34.2750 C   0  0  0  0  0  0  0  0  0  0  0  0
   -0.6170   21.2000  -33.2450 C   0  0  0  0  0  0  0  0  0  0  0  0
   -1.6930   21.5060  -32.4590 N   0  0  0  0  0  0  0  0  0  0  0  0
   -2.8610   20.8580  -32.6900 C   0  0  0  0  0  0  0  0  0  0  0  0
   -7.0454   25.2285  -28.9765 H   0  0  0  0  0  0  0  0  0  0  0  0
   -6.6444   26.0764  -30.5084 H   0  0  0  0  0  0  0  0  0  0  0  0
   -6.9114   24.3001  -30.5084 H   0  0  0  0  0  0  0  0  0  0  0  0
   -4.5688   25.8743  -29.3530 H   0  0  0  0  0  0  0  0  0  0  0  0
   -4.9173   24.1679  -28.8785 H   0  0  0  0  0  0  0  0  0  0  0  0
   -3.5765   22.0519  -30.2975 H   0  0  0  0  0  0  0  0  0  0  0  0
   -5.3161   21.5781  -30.4437 H   0  0  0  0  0  0  0  0  0  0  0  0
   -6.2657   17.6977  -32.7046 H   0  0  0  0  0  0  0  0  0  0  0  0
   -8.6989   17.3877  -32.2395 H   0  0  0  0  0  0  0  0  0  0  0  0
  -10.0790   19.3180  -31.8380 H   0  0  0  0  0  0  0  0  0  0  0  0
   -9.5647   22.0427  -30.7003 H   0  0  0  0  0  0  0  0  0  0  0  0
   -9.0369   22.8303  -32.2260 H   0  0  0  0  0  0  0  0  0  0  0  0
  -10.4621   21.7370  -32.2260 H   0  0  0  0  0  0  0  0  0  0  0  0
   -6.8038   21.9813  -32.3495 H   0  0  0  0  0  0  0  0  0  0  0  0
   -4.5930   18.7390  -34.4220 H   0  0  0  0  0  0  0  0  0  0  0  0
    0.1220   19.9880  -34.9067 H   0  0  0  0  0  0  0  0  0  0  0  0
    0.3470   21.7027  -33.0779 H   0  0  0  0  0  0  0  0  0  0  0  0
  1  2  1  0
  2  3  1  0
  3  4  1  0
  4  5  2  0
  4  6  1  0
  6  7  1  0
  7  8  2  0
  8  9  1  0
  9 10  2  0
 10 11  1  0
 11 12  2  0
 12 13  1  0
 13 14  1  0
 13 15  2  0
  8 16  1  0
 16 17  1  0
 17 18  2  0
 18 19  1  0
 19 20  2  0
 20 21  1  0
 21 22  2  0
 22  7  1  0
 15  9  1  0
 22 17  1  0
  1 23  1  0
  1 24  1  0
  1 25  1  0
  2 26  1  0
  2 27  1  0
  6 28  1  0
  6 29  1  0
 10 30  1  0
 11 31  1  0
 12 32  1  0
 14 33  1  0
 14 34  1  0
 14 35  1  0
 15 36  1  0
 16 37  1  0
 19 38  1  0
 20 39  1  0
M  CHG  1  12   1
M  END
>  <UniqueID>  (12) 
12

>  <SMILES>  (12) 
CCOC(=O)Cc1c(-c2cc[nH+]c(C)c2)[nH]c2nccnc12

>  <Energy>  (12) 
75.1724264217256

>  <Genealogy>  (12) 
CCOC(=O)Cc1c(-c2cc[nH+]c(C)c2)[nH]c2nccnc12 (protonated)
CCOC(=O)Cc1c(-c2cc[nH+]c(C)c2)[nH]c2nccnc12 (3D coordinates assigned)
CCOC(=O)Cc1c(-c2cc[nH+]c(C)c2)[nH]c2nccnc12 (optimized conformer: 75.1724264217256 kcal/mol)

>  <smiles>  (12) 
CCOC(=O)Cc1c(-c2ccnc(C)c2)[nH]c2nccnc12

>  <score_type>  (12) 
oracle

>  <origin>  (12) 
adg

>  <m_score__min__energy>  (12) 
-7.0099999999999998

>  <m_primary>  (12) 
energy

$$$$
12:0
     RDKit          3D

 53 56  0  0  0  0  0  0  0  0999 V2000
   -0.4150   27.1700  -24.3100 Br  0  0  0  0  0  0  0  0  0  0  0  0
   -1.2010   26.2430  -25.7830 C   0  0  0  0  0  0  0  0  0  0  0  0
   -2.4080   25.5590  -25.6150 C   0  0  0  0  0  0  0  0  0  0  0  0
   -2.9880   24.8850  -26.6930 C   0  0  0  0  0  0  0  0  0  0  0  0
   -2.3650   24.8830  -27.9550 C   0  0  0  0  0  0  0  0  0  0  0  0
   -2.9710   24.1770  -29.0550 N   0  0  0  0  0  0  0  0  0  0  0  0
   -2.3440   23.4220  -29.9820 C   0  0  0  0  0  0  0  0  0  0  0  0
   -3.2940   22.8980  -30.8340 C   0  0  0  0  0  0  0  0  0  0  0  0
   -3.0280   21.9360  -31.9530 C   0  0  0  0  0  0  0  0  0  0  0  0
   -3.8800   20.7530  -31.7960 N   0  0  0  0  0  0  0  0  0  0  0  0
   -5.0060   20.7390  -32.7460 C   0  0  0  0  0  0  0  0  0  0  0  0
   -5.0910   19.4430  -33.5790 C   0  0  0  0  0  0  0  0  0  0  0  0
   -6.4760   18.9310  -33.6740 N   0  0  0  0  0  0  0  0  0  0  0  0
   -7.4640   19.9380  -33.2150 C   0  0  0  0  0  0  0  0  0  0  0  0
   -8.7510   19.2670  -32.7050 C   0  0  0  0  0  0  0  0  0  0  0  0
   -8.5380   18.4100  -31.5930 O   0  0  0  0  0  0  0  0  0  0  0  0
   -7.2510   17.8030  -31.5780 C   0  0  0  0  0  0  0  0  0  0  0  0
   -6.6250   17.6320  -32.9740 C   0  0  0  0  0  0  0  0  0  0  0  0
   -4.5060   23.4000  -30.3730 C   0  0  0  0  0  0  0  0  0  0  0  0
   -5.8610   23.1610  -30.9160 C   0  0  0  0  0  0  0  0  0  0  0  0
   -6.7960   22.4420  -30.1510 C   0  0  0  0  0  0  0  0  0  0  0  0
   -8.0880   22.2220  -30.6390 C   0  0  0  0  0  0  0  0  0  0  0  0
   -8.4620   22.7290  -31.8850 C   0  0  0  0  0  0  0  0  0  0  0  0
   -7.5460   23.4640  -32.6430 C   0  0  0  0  0  0  0  0  0  0  0  0
   -6.2540   23.6870  -32.1590 C   0  0  0  0  0  0  0  0  0  0  0  0
   -4.2770   24.1590  -29.2820 N   0  0  0  0  0  0  0  0  0  0  0  0
   -1.1530   25.5840  -28.1150 C   0  0  0  0  0  0  0  0  0  0  0  0
   -0.5780   26.2590  -27.0340 C   0  0  0  0  0  0  0  0  0  0  0  0
   -2.9024   25.5511  -24.6324 H   0  0  0  0  0  0  0  0  0  0  0  0
   -3.9398   24.3514  -26.5540 H   0  0  0  0  0  0  0  0  0  0  0  0
   -1.2590   23.2532  -30.0470 H   0  0  0  0  0  0  0  0  0  0  0  0
   -3.2498   22.4221  -32.9145 H   0  0  0  0  0  0  0  0  0  0  0  0
   -1.9713   21.6314  -31.9302 H   0  0  0  0  0  0  0  0  0  0  0  0
   -4.2460   20.7200  -30.8150 H   0  0  0  0  0  0  0  0  0  0  0  0
   -5.9418   20.8505  -32.1787 H   0  0  0  0  0  0  0  0  0  0  0  0
   -4.8451   21.5676  -33.4514 H   0  0  0  0  0  0  0  0  0  0  0  0
   -4.7187   19.6486  -34.5935 H   0  0  0  0  0  0  0  0  0  0  0  0
   -4.4811   18.6776  -33.0769 H   0  0  0  0  0  0  0  0  0  0  0  0
   -7.0209   20.5290  -32.3999 H   0  0  0  0  0  0  0  0  0  0  0  0
   -7.7234   20.5832  -34.0673 H   0  0  0  0  0  0  0  0  0  0  0  0
   -9.4602   20.0537  -32.4081 H   0  0  0  0  0  0  0  0  0  0  0  0
   -9.1394   18.6447  -33.5247 H   0  0  0  0  0  0  0  0  0  0  0  0
   -6.5798   18.4293  -30.9719 H   0  0  0  0  0  0  0  0  0  0  0  0
   -7.3792   16.7936  -31.1600 H   0  0  0  0  0  0  0  0  0  0  0  0
   -5.6325   17.1704  -32.8650 H   0  0  0  0  0  0  0  0  0  0  0  0
   -7.2934   16.9958  -33.5727 H   0  0  0  0  0  0  0  0  0  0  0  0
   -6.5099   22.0505  -29.1636 H   0  0  0  0  0  0  0  0  0  0  0  0
   -8.8108   21.6485  -30.0401 H   0  0  0  0  0  0  0  0  0  0  0  0
   -9.4768   22.5501  -32.2699 H   0  0  0  0  0  0  0  0  0  0  0  0
   -7.8426   23.8677  -33.6223 H   0  0  0  0  0  0  0  0  0  0  0  0
   -5.5411   24.2770  -32.7536 H   0  0  0  0  0  0  0  0  0  0  0  0
   -0.6563   25.6002  -29.0963 H   0  0  0  0  0  0  0  0  0  0  0  0
    0.3677   26.8044  -27.1685 H   0  0  0  0  0  0  0  0  0  0  0  0
  1  2  1  0
  2  3  2  0
  3  4  1  0
  4  5  2  0
  5  6  1  0
  6  7  1  0
  7  8  2  0
  8  9  1  0
  9 10  1  0
 10 11  1  0
 11 12  1  0
 12 13  1  0
 13 14  1  0
 14 15  1  0
 15 16  1  0
 16 17  1  0
 17 18  1  0
  8 19  1  0
 19 20  1  0
 20 21  2  0
 21 22  1  0
 22 23  2  0
 23 24  1  0
 24 25  2  0
 19 26  2  0
  5 27  1  0
 27 28  2  0
 28  2  1  0
 26  6  1  0
 18 13  1  0
 25 20  1  0
  3 29  1  0
  4 30  1  0
  7 31  1  0
  9 32  1  0
  9 33  1  0
 10 34  1  0
 11 35  1  0
 11 36  1  0
 12 37  1  0
 12 38  1  0
 14 39  1  0
 14 40  1  0
 15 41  1  0
 15 42  1  0
 17 43  1  0
 17 44  1  0
 18 45  1  0
 18 46  1  0
 21 47  1  0
 22 48  1  0
 23 49  1  0
 24 50  1  0
 25 51  1  0
 27 52  1  0
 28 53  1  0
M  END
>  <UniqueID>  (13) 
13

>  <SMILES>  (13) 
Brc1ccc(-n2cc(CNCCN3CCOCC3)c(-c3ccccc3)n2)cc1

>  <Energy>  (13) 
105.65272430761276

>  <Genealogy>  (13) 
Brc1ccc(-n2cc(CNCCN3CCOCC3)c(-c3ccccc3)n2)cc1 (3D coordinates assigned)
Brc1ccc(-n2cc(CNCCN3CCOCC3)c(-c3ccccc3)n2)cc1 (nonaromatic ring conformer: 105.65272430761276 kcal/mol)

>  <smiles>  (13) 
Brc1ccc(-n2cc(CNCCN3CCOCC3)c(-c3ccccc3)n2)cc1

>  <score_type>  (13) 
oracle

>  <origin>  (13) 
adg

>  <m_score__min__energy>  (13) 
-9.0600000000000005

>  <m_primary>  (13) 
energy

$$$$
13:0
     RDKit          3D

 39 41  0  0  0  0  0  0  0  0999 V2000
   -2.8680   23.7650  -31.2700 H   0  0  0  0  0  0  0  0  0  0  0  0
   -3.3420   22.8980  -31.6080 N   0  0  0  0  0  0  0  0  0  0  0  0
   -4.6330   22.7920  -31.6740 C   0  0  0  0  0  0  0  0  0  0  0  0
   -5.4710   23.8130  -31.1630 C   0  0  0  0  0  0  0  0  0  0  0  0
   -4.9390   25.0650  -30.5510 C   0  0  0  0  0  0  0  0  0  0  0  0
   -5.7380   25.9410  -30.1190 O   0  0  0  0  0  0  0  0  0  0  0  0
   -3.5300   25.2990  -30.4550 N   0  0  0  0  0  0  0  0  0  0  0  0
   -2.7350   24.8950  -29.3020 C   0  0  0  0  0  0  0  0  0  0  0  0
   -1.9055   24.2540  -29.6353 H   0  0  0  0  0  0  0  0  0  0  0  0
   -2.3312   25.7890  -28.8043 H   0  0  0  0  0  0  0  0  0  0  0  0
   -3.6140   24.1210  -28.3220 C   0  0  0  0  0  0  0  0  0  0  0  0
   -3.8469   24.7637  -27.4602 H   0  0  0  0  0  0  0  0  0  0  0  0
   -4.5398   23.8227  -28.8358 H   0  0  0  0  0  0  0  0  0  0  0  0
   -2.9070   22.8830  -27.8390 C   0  0  0  0  0  0  0  0  0  0  0  0
   -3.3790   21.6100  -28.2010 C   0  0  0  0  0  0  0  0  0  0  0  0
   -4.2837   21.5163  -28.8197 H   0  0  0  0  0  0  0  0  0  0  0  0
   -2.7020   20.4610  -27.7770 C   0  0  0  0  0  0  0  0  0  0  0  0
   -3.0802   19.4663  -28.0553 H   0  0  0  0  0  0  0  0  0  0  0  0
   -1.5470   20.5760  -27.0010 C   0  0  0  0  0  0  0  0  0  0  0  0
   -1.0175   19.6718  -26.6664 H   0  0  0  0  0  0  0  0  0  0  0  0
   -1.0630   21.8390  -26.6490 C   0  0  0  0  0  0  0  0  0  0  0  0
   -0.1513   21.9277  -26.0399 H   0  0  0  0  0  0  0  0  0  0  0  0
   -1.7360   22.9900  -27.0700 C   0  0  0  0  0  0  0  0  0  0  0  0
   -1.3474   23.9825  -26.7983 H   0  0  0  0  0  0  0  0  0  0  0  0
   -6.8640   23.6290  -31.2420 C   0  0  0  0  0  0  0  0  0  0  0  0
   -7.5355   24.4060  -30.8479 H   0  0  0  0  0  0  0  0  0  0  0  0
   -7.4120   22.4670  -31.8170 C   0  0  0  0  0  0  0  0  0  0  0  0
   -8.9030   22.2000  -31.9390 C   0  0  0  0  0  0  0  0  0  0  0  0
   -9.0788   23.1098  -32.5318 H   0  0  0  0  0  0  0  0  0  0  0  0
   -9.3480   20.7480  -32.0380 C   0  0  0  0  0  0  0  0  0  0  0  0
  -10.1933   20.4748  -32.6866 H   0  0  0  0  0  0  0  0  0  0  0  0
   -8.8521   19.7974  -32.2839 H   0  0  0  0  0  0  0  0  0  0  0  0
   -9.5940   21.5350  -30.7570 C   0  0  0  0  0  0  0  0  0  0  0  0
  -10.6170   21.8302  -30.4806 H   0  0  0  0  0  0  0  0  0  0  0  0
   -9.3494   21.3883  -29.6946 H   0  0  0  0  0  0  0  0  0  0  0  0
   -6.5330   21.4990  -32.3090 C   0  0  0  0  0  0  0  0  0  0  0  0
   -6.9348   20.5827  -32.7661 H   0  0  0  0  0  0  0  0  0  0  0  0
   -5.1880   21.6750  -32.2300 N   0  0  0  0  0  0  0  0  0  0  0  0
   -4.5720   20.9190  -32.6080 H   0  0  0  0  0  0  0  0  0  0  0  0
  1  2  1  0
  2  3  2  0
  3  4  1  0
  4  5  1  0
  5  6  2  0
  5  7  1  0
  7  8  1  0
  8  9  1  0
  8 10  1  0
  8 11  1  0
 11 12  1  0
 11 13  1  0
 11 14  1  0
 14 15  2  0
 15 16  1  0
 15 17  1  0
 17 18  1  0
 17 19  2  0
 19 20  1  0
 19 21  1  0
 21 22  1  0
 21 23  2  0
 23 24  1  0
  4 25  2  0
 25 26  1  0
 25 27  1  0
 27 28  1  0
 28 29  1  0
 28 30  1  0
 30 31  1  0
 30 32  1  0
 30 33  1  0
 33 34  1  0
 33 35  1  0
 27 36  2  0
 36 37  1  0
 36 38  1  0
 38 39  1  0
 38  3  1  0
 23 14  1  0
 33 28  1  0
M  CHG  1   7  -1
M  END
>  <UniqueID>  (14) 
14

>  <SMILES>  (14) 
[H]/N=c1\[nH]cc(C2CC2)cc1C(=O)[N-]CCc1ccccc1

>  <Energy>  (14) 
307.08070694834373

>  <Genealogy>  (14) 
N=c1[nH]cc(C2CC2)cc1C(=O)[N-]CCc1ccccc1 (protonated)
[H]/N=c1\[nH]cc(C2CC2)cc1C(=O)[N-]CCc1ccccc1 (cis-trans isomerization)
[H]/N=c1\[nH]cc(C2CC2)cc1C(=O)[N-]CCc1ccccc1 (3D coordinates assigned)
[H]/N=c1\[nH]cc(C2CC2)cc1C(=O)[N-]CCc1ccccc1 (nonaromatic ring conformer: 307.08070694834373 kcal/mol)

>  <smiles>  (14) 
N=c1[nH]cc(C2CC2)cc1C(=O)NCCc1ccccc1

>  <score_type>  (14) 
oracle

>  <origin>  (14) 
adg

>  <m_score__min__energy>  (14) 
-9.4100000000000001

>  <m_primary>  (14) 
energy

$$$$
14:0
     RDKit          3D

 40 42  0  0  0  0  0  0  0  0999 V2000
   -8.7090   19.0400  -31.6010 C   0  0  0  0  0  0  0  0  0  0  0  0
   -9.1060   20.3200  -32.3340 C   0  0  0  0  0  0  0  0  0  0  0  0
   -9.5020   21.4510  -31.3760 C   0  0  0  0  0  0  0  0  0  0  0  0
   -9.0920   23.1170  -32.0200 S   0  0  0  0  0  0  0  0  0  0  0  0
   -7.3480   23.0170  -31.6330 C   0  0  0  0  0  0  0  0  0  0  0  0
   -6.5470   22.1410  -32.3090 N   0  0  0  0  0  0  0  0  0  0  0  0
   -5.2110   22.0240  -32.0440 C   0  0  0  0  0  0  0  0  0  0  0  0
   -4.4070   21.0710  -32.7820 N   0  0  0  0  0  0  0  0  0  0  0  0
   -3.1270   21.4500  -33.3910 C   0  0  0  0  0  0  0  0  0  0  0  0
   -4.8220   19.6610  -32.8420 C   0  0  0  0  0  0  0  0  0  0  0  0
   -5.9620   19.4790  -33.8390 C   0  0  0  0  0  0  0  0  0  0  0  0
   -4.6990   22.8680  -31.0480 C   0  0  0  0  0  0  0  0  0  0  0  0
   -3.4340   22.9790  -30.6020 N   0  0  0  0  0  0  0  0  0  0  0  0
   -3.5660   23.9510  -29.6600 C   0  0  0  0  0  0  0  0  0  0  0  0
   -2.4470   24.4540  -28.8550 C   0  0  0  0  0  0  0  0  0  0  0  0
   -1.7670   23.7480  -27.8830 C   0  0  0  0  0  0  0  0  0  0  0  0
   -0.8090   24.6130  -27.4010 C   0  0  0  0  0  0  0  0  0  0  0  0
   -0.9640   25.7890  -28.1070 C   0  0  0  0  0  0  0  0  0  0  0  0
   -1.9480   25.6630  -28.9660 O   0  0  0  0  0  0  0  0  0  0  0  0
   -4.8330   24.4140  -29.5340 N   0  0  0  0  0  0  0  0  0  0  0  0
   -5.5110   23.7150  -30.4190 N   0  0  0  0  0  0  0  0  0  0  0  0
   -6.8110   23.8210  -30.6740 N   0  0  0  0  0  0  0  0  0  0  0  0
   -8.7611   19.2081  -30.5152 H   0  0  0  0  0  0  0  0  0  0  0  0
   -9.3978   18.2290  -31.8800 H   0  0  0  0  0  0  0  0  0  0  0  0
   -7.6822   18.7611  -31.8800 H   0  0  0  0  0  0  0  0  0  0  0  0
   -8.2535   20.6562  -32.9424 H   0  0  0  0  0  0  0  0  0  0  0  0
   -9.9830   20.0887  -32.9563 H   0  0  0  0  0  0  0  0  0  0  0  0
  -10.5872   21.3998  -31.2038 H   0  0  0  0  0  0  0  0  0  0  0  0
   -8.9299   21.3089  -30.4473 H   0  0  0  0  0  0  0  0  0  0  0  0
   -2.3944   21.6669  -32.5996 H   0  0  0  0  0  0  0  0  0  0  0  0
   -2.7585   20.6224  -34.0150 H   0  0  0  0  0  0  0  0  0  0  0  0
   -3.2685   22.3448  -34.0150 H   0  0  0  0  0  0  0  0  0  0  0  0
   -3.9660   19.0452  -33.1552 H   0  0  0  0  0  0  0  0  0  0  0  0
   -5.1694   19.3508  -31.8455 H   0  0  0  0  0  0  0  0  0  0  0  0
   -6.9054   19.3284  -33.2938 H   0  0  0  0  0  0  0  0  0  0  0  0
   -6.0429   20.3756  -34.4711 H   0  0  0  0  0  0  0  0  0  0  0  0
   -5.7597   18.6018  -34.4711 H   0  0  0  0  0  0  0  0  0  0  0  0
   -1.9513   22.7125  -27.5610 H   0  0  0  0  0  0  0  0  0  0  0  0
   -0.0698   24.4079  -26.6127 H   0  0  0  0  0  0  0  0  0  0  0  0
   -0.3549   26.6947  -27.9702 H   0  0  0  0  0  0  0  0  0  0  0  0
  1  2  1  0
  2  3  1  0
  3  4  1  0
  4  5  1  0
  5  6  1  0
  6  7  2  0
  7  8  1  0
  8  9  1  0
  8 10  1  0
 10 11  1  0
  7 12  1  0
 12 13  2  0
 13 14  1  0
 14 15  1  0
 15 16  2  0
 16 17  1  0
 17 18  2  0
 18 19  1  0
 14 20  2  0
 20 21  1  0
 21 22  1  0
 22  5  2  0
 21 12  1  0
 19 15  1  0
  1 23  1  0
  1 24  1  0
  1 25  1  0
  2 26  1  0
  2 27  1  0
  3 28  1  0
  3 29  1  0
  9 30  1  0
  9 31  1  0
  9 32  1  0
 10 33  1  0
 10 34  1  0
 11 35  1  0
 11 36  1  0
 11 37  1  0
 16 38  1  0
 17 39  1  0
 18 40  1  0
M  END
>  <UniqueID>  (15) 
15

>  <SMILES>  (15) 
CCCSc1nc(N(C)CC)c2nc(-c3ccco3)nn2n1

>  <Energy>  (15) 
97.56345423326161

>  <Genealogy>  (15) 
CCCSc1nc(N(C)CC)c2nc(-c3ccco3)nn2n1 (3D coordinates assigned)
CCCSc1nc(N(C)CC)c2nc(-c3ccco3)nn2n1 (optimized conformer: 97.56345423326161 kcal/mol)

>  <smiles>  (15) 
CCCSc1nc(N(C)CC)c2nc(-c3ccco3)nn2n1

>  <score_type>  (15) 
oracle

>  <origin>  (15) 
adg

>  <m_score__min__energy>  (15) 
-7.5700000000000003

>  <m_primary>  (15) 
energy

$$$$
15:0
     RDKit          3D

 57 58  0  0  0  0  0  0  0  0999 V2000
    0.3370   22.8980  -26.8370 C   0  0  0  0  0  0  0  0  0  0  0  0
    1.1370   23.9730  -27.5630 C   0  0  0  0  0  0  0  0  0  0  0  0
    0.2690   24.8950  -28.1940 O   0  0  0  0  0  0  0  0  0  0  0  0
   -0.5480   25.5710  -27.2540 C   0  0  0  0  0  0  0  0  0  0  0  0
   -2.0210   25.2780  -27.5230 C   0  0  0  0  0  0  0  0  0  0  0  0
   -2.2520   25.2130  -28.9260 O   0  0  0  0  0  0  0  0  0  0  0  0
   -2.6370   24.0590  -29.6210 C   0  0  0  0  0  0  0  0  0  0  0  0
   -2.0260   22.8100  -29.3980 C   0  0  0  0  0  0  0  0  0  0  0  0
   -2.3820   21.7030  -30.1690 C   0  0  0  0  0  0  0  0  0  0  0  0
   -3.3590   21.8200  -31.1650 C   0  0  0  0  0  0  0  0  0  0  0  0
   -3.6020   20.6760  -32.1150 C   0  0  0  0  0  0  0  0  0  0  0  0
   -4.5970   19.7400  -31.5660 N   0  0  0  0  0  0  0  0  0  0  0  0
   -5.0730   18.7600  -32.5620 C   0  0  0  0  0  0  0  0  0  0  0  0
   -6.4100   19.2210  -33.1580 C   0  0  0  0  0  0  0  0  0  0  0  0
   -7.4690   19.4680  -32.0610 C   0  0  0  0  0  0  0  0  0  0  0  0
   -7.4970   20.8600  -31.5510 N   0  0  0  0  0  0  0  0  0  0  0  0
   -6.8830   21.8290  -32.4820 C   0  0  0  0  0  0  0  0  0  0  0  0
   -7.3160   23.2630  -32.1400 C   0  0  0  0  0  0  0  0  0  0  0  0
   -8.7190   23.4720  -32.2170 O   0  0  0  0  0  0  0  0  0  0  0  0
   -9.4960   22.3170  -31.9260 C   0  0  0  0  0  0  0  0  0  0  0  0
   -8.7990   21.2980  -31.0010 C   0  0  0  0  0  0  0  0  0  0  0  0
   -4.0070   23.0500  -31.3560 C   0  0  0  0  0  0  0  0  0  0  0  0
   -3.6470   24.1730  -30.5890 C   0  0  0  0  0  0  0  0  0  0  0  0
   -4.2420   25.4300  -30.7810 O   0  0  0  0  0  0  0  0  0  0  0  0
   -5.5840   25.7500  -30.4290 C   0  0  0  0  0  0  0  0  0  0  0  0
    0.4395   23.0357  -25.7505 H   0  0  0  0  0  0  0  0  0  0  0  0
   -0.7235   22.9774  -27.1183 H   0  0  0  0  0  0  0  0  0  0  0  0
    0.7176   21.9050  -27.1183 H   0  0  0  0  0  0  0  0  0  0  0  0
    1.7672   24.5076  -26.8370 H   0  0  0  0  0  0  0  0  0  0  0  0
    1.7643   23.4934  -28.3288 H   0  0  0  0  0  0  0  0  0  0  0  0
   -0.2903   25.2322  -26.2397 H   0  0  0  0  0  0  0  0  0  0  0  0
   -0.3767   26.6537  -27.3453 H   0  0  0  0  0  0  0  0  0  0  0  0
   -2.2917   24.3159  -27.0635 H   0  0  0  0  0  0  0  0  0  0  0  0
   -2.6356   26.0815  -27.0909 H   0  0  0  0  0  0  0  0  0  0  0  0
   -1.2638   22.7066  -28.6116 H   0  0  0  0  0  0  0  0  0  0  0  0
   -1.8927   20.7336  -29.9935 H   0  0  0  0  0  0  0  0  0  0  0  0
   -3.9715   21.0743  -33.0715 H   0  0  0  0  0  0  0  0  0  0  0  0
   -2.6556   20.1356  -32.2640 H   0  0  0  0  0  0  0  0  0  0  0  0
   -5.4190   20.3110  -31.2580 H   0  0  0  0  0  0  0  0  0  0  0  0
   -4.3285   18.6679  -33.3665 H   0  0  0  0  0  0  0  0  0  0  0  0
   -5.2147   17.7864  -32.0700 H   0  0  0  0  0  0  0  0  0  0  0  0
   -6.2487   20.1558  -33.7149 H   0  0  0  0  0  0  0  0  0  0  0  0
   -6.7821   18.4264  -33.8215 H   0  0  0  0  0  0  0  0  0  0  0  0
   -8.4595   19.2324  -32.4774 H   0  0  0  0  0  0  0  0  0  0  0  0
   -7.2021   18.8233  -31.2107 H   0  0  0  0  0  0  0  0  0  0  0  0
   -5.7879   21.7556  -32.4086 H   0  0  0  0  0  0  0  0  0  0  0  0
   -7.2145   21.5947  -33.5044 H   0  0  0  0  0  0  0  0  0  0  0  0
   -6.9874   23.4894  -31.1149 H   0  0  0  0  0  0  0  0  0  0  0  0
   -6.8521   23.9244  -32.8865 H   0  0  0  0  0  0  0  0  0  0  0  0
  -10.4276   22.6423  -31.4398 H   0  0  0  0  0  0  0  0  0  0  0  0
   -9.6692   21.8049  -32.8840 H   0  0  0  0  0  0  0  0  0  0  0  0
   -8.6323   21.7642  -30.0187 H   0  0  0  0  0  0  0  0  0  0  0  0
   -9.4485   20.4146  -30.9132 H   0  0  0  0  0  0  0  0  0  0  0  0
   -4.8023   23.1367  -32.1110 H   0  0  0  0  0  0  0  0  0  0  0  0
   -5.6802   25.7729  -29.3335 H   0  0  0  0  0  0  0  0  0  0  0  0
   -5.8460   26.7358  -30.8408 H   0  0  0  0  0  0  0  0  0  0  0  0
   -6.2626   24.9885  -30.8408 H   0  0  0  0  0  0  0  0  0  0  0  0
  1  2  1  0
  2  3  1  0
  3  4  1  0
  4  5  1  0
  5  6  1  0
  6  7  1  0
  7  8  2  0
  8  9  1  0
  9 10  2  0
 10 11  1  0
 11 12  1  0
 12 13  1  0
 13 14  1  0
 14 15  1  0
 15 16  1  0
 16 17  1  0
 17 18  1  0
 18 19  1  0
 19 20  1  0
 20 21  1  0
 10 22  1  0
 22 23  2  0
 23 24  1  0
 24 25  1  0
 23  7  1  0
 21 16  1  0
  1 26  1  0
  1 27  1  0
  1 28  1  0
  2 29  1  0
  2 30  1  0
  4 31  1  0
  4 32  1  0
  5 33  1  0
  5 34  1  0
  8 35  1  0
  9 36  1  0
 11 37  1  0
 11 38  1  0
 12 39  1  0
 13 40  1  0
 13 41  1  0
 14 42  1  0
 14 43  1  0
 15 44  1  0
 15 45  1  0
 17 46  1  0
 17 47  1  0
 18 48  1  0
 18 49  1  0
 20 50  1  0
 20 51  1  0
 21 52  1  0
 21 53  1  0
 22 54  1  0
 25 55  1  0
 25 56  1  0
 25 57  1  0
M  END
>  <UniqueID>  (16) 
16

>  <SMILES>  (16) 
CCOCCOc1ccc(CNCCCN2CCOCC2)cc1OC

>  <Energy>  (16) 
63.14463559890778

>  <Genealogy>  (16) 
CCOCCOc1ccc(CNCCCN2CCOCC2)cc1OC (3D coordinates assigned)
CCOCCOc1ccc(CNCCCN2CCOCC2)cc1OC (nonaromatic ring conformer: 63.14463559890778 kcal/mol)

>  <smiles>  (16) 
CCOCCOc1ccc(CNCCCN2CCOCC2)cc1OC

>  <score_type>  (16) 
oracle

>  <origin>  (16) 
adg

>  <m_score__min__energy>  (16) 
-8.1099999999999994

>  <m_primary>  (16) 
energy

$$$$
16:0
     RDKit          3D

 53 54  0  0  0  0  0  0  0  0999 V2000
   -7.3807   21.2488  -33.4240 H   0  0  0  0  0  0  0  0  0  0  0  0
   -7.4500   20.2630  -32.9410 C   0  0  0  0  0  0  0  0  0  0  0  0
   -8.3900   20.1030  -31.9830 C   0  0  0  0  0  0  0  0  0  0  0  0
   -8.7800   18.7000  -31.5910 C   0  0  0  0  0  0  0  0  0  0  0  0
   -8.8026   18.6186  -30.4942 H   0  0  0  0  0  0  0  0  0  0  0  0
   -9.7763   18.4695  -31.9964 H   0  0  0  0  0  0  0  0  0  0  0  0
   -8.0456   17.9885  -31.9964 H   0  0  0  0  0  0  0  0  0  0  0  0
   -9.0320   21.2750  -31.2800 C   0  0  0  0  0  0  0  0  0  0  0  0
   -8.9559   21.1361  -30.1915 H   0  0  0  0  0  0  0  0  0  0  0  0
   -8.5162   22.2028  -31.5682 H   0  0  0  0  0  0  0  0  0  0  0  0
  -10.0916   21.3398  -31.5682 H   0  0  0  0  0  0  0  0  0  0  0  0
   -6.4870   19.1930  -33.4000 C   0  0  0  0  0  0  0  0  0  0  0  0
   -7.0727   18.3228  -33.7313 H   0  0  0  0  0  0  0  0  0  0  0  0
   -5.8853   19.6385  -34.2059 H   0  0  0  0  0  0  0  0  0  0  0  0
   -5.4940   18.7220  -32.3210 C   0  0  0  0  0  0  0  0  0  0  0  0
   -6.0476   18.5799  -31.3812 H   0  0  0  0  0  0  0  0  0  0  0  0
   -5.0404   17.7916  -32.6934 H   0  0  0  0  0  0  0  0  0  0  0  0
   -4.3490   19.6930  -32.0590 C   0  0  0  0  0  0  0  0  0  0  0  0
   -4.5350   20.6910  -31.1590 C   0  0  0  0  0  0  0  0  0  0  0  0
   -4.7914   20.3565  -30.1429 H   0  0  0  0  0  0  0  0  0  0  0  0
   -4.4440   22.2170  -31.3350 C   0  0  1  0  0  0  0  0  0  0  0  0
   -3.3845   22.3418  -31.6031 H   0  0  0  0  0  0  0  0  0  0  0  0
   -5.2050   22.7780  -32.5710 C   0  0  0  0  0  0  0  0  0  0  0  0
   -4.5280   23.4665  -33.0979 H   0  0  0  0  0  0  0  0  0  0  0  0
   -5.5020   21.8970  -33.1589 H   0  0  0  0  0  0  0  0  0  0  0  0
   -6.5080   23.5350  -32.2780 C   0  0  0  0  0  0  0  0  0  0  0  0
   -6.8227   24.0662  -33.1884 H   0  0  0  0  0  0  0  0  0  0  0  0
   -7.2648   22.8008  -31.9645 H   0  0  0  0  0  0  0  0  0  0  0  0
   -6.3390   24.5430  -31.1560 C   0  0  0  0  0  0  0  0  0  0  0  0
   -5.6014   25.3004  -31.4598 H   0  0  0  0  0  0  0  0  0  0  0  0
   -7.3124   25.0148  -30.9564 H   0  0  0  0  0  0  0  0  0  0  0  0
   -5.8550   23.8560  -29.8760 C   0  0  0  0  0  0  0  0  0  0  0  0
   -5.7499   24.6216  -29.0931 H   0  0  0  0  0  0  0  0  0  0  0  0
   -6.6042   23.0897  -29.6281 H   0  0  0  0  0  0  0  0  0  0  0  0
   -4.4890   23.1140  -30.0200 C   0  0  2  0  0  0  0  0  0  0  0  0
   -3.3380   24.1410  -30.0560 C   0  0  0  0  0  0  0  0  0  0  0  0
   -3.5310   25.2990  -30.3980 O   0  0  0  0  0  0  0  0  0  0  0  0
   -1.9260   23.7180  -29.7410 C   0  0  0  0  0  0  0  0  0  0  0  0
   -1.2951   24.6132  -29.6376 H   0  0  0  0  0  0  0  0  0  0  0  0
   -1.5553   23.0833  -30.5594 H   0  0  0  0  0  0  0  0  0  0  0  0
   -1.8810   22.9200  -28.4410 C   0  0  0  0  0  0  0  0  0  0  0  0
   -2.1386   23.5823  -27.6014 H   0  0  0  0  0  0  0  0  0  0  0  0
   -0.8670   22.5145  -28.3092 H   0  0  0  0  0  0  0  0  0  0  0  0
   -2.8730   21.7590  -28.4870 C   0  0  0  0  0  0  0  0  0  0  0  0
   -2.8314   21.2110  -27.5341 H   0  0  0  0  0  0  0  0  0  0  0  0
   -2.6018   21.0960  -29.3218 H   0  0  0  0  0  0  0  0  0  0  0  0
   -4.3060   22.2740  -28.7110 C   0  0  0  0  0  0  0  0  0  0  0  0
   -4.5835   22.9056  -27.8542 H   0  0  0  0  0  0  0  0  0  0  0  0
   -4.9485   21.3869  -28.8123 H   0  0  0  0  0  0  0  0  0  0  0  0
   -3.0290   19.4140  -32.7170 C   0  0  0  0  0  0  0  0  0  0  0  0
   -2.2618   19.2518  -31.9456 H   0  0  0  0  0  0  0  0  0  0  0  0
   -3.1147   18.5141  -33.3438 H   0  0  0  0  0  0  0  0  0  0  0  0
   -2.7432   20.2716  -33.3438 H   0  0  0  0  0  0  0  0  0  0  0  0
  1  2  1  0
  2  3  2  3
  3  4  1  0
  4  5  1  0
  4  6  1  0
  4  7  1  0
  3  8  1  0
  8  9  1  0
  8 10  1  0
  8 11  1  0
  2 12  1  0
 12 13  1  0
 12 14  1  0
 12 15  1  0
 15 16  1  0
 15 17  1  0
 15 18  1  0
 18 19  2  0
 19 20  1  0
 19 21  1  0
 21 22  1  6
 21 23  1  0
 23 24  1  0
 23 25  1  0
 23 26  1  0
 26 27  1  0
 26 28  1  0
 26 29  1  0
 29 30  1  0
 29 31  1  0
 29 32  1  0
 32 33  1  0
 32 34  1  0
 35 32  1  1
 35 36  1  0
 36 37  2  0
 36 38  1  0
 38 39  1  0
 38 40  1  0
 38 41  1  0
 41 42  1  0
 41 43  1  0
 41 44  1  0
 44 45  1  0
 44 46  1  0
 44 47  1  0
 47 48  1  0
 47 49  1  0
 18 50  1  0
 50 51  1  0
 50 52  1  0
 50 53  1  0
 35 21  1  0
 47 35  1  0
M  END
>  <UniqueID>  (17) 
17

>  <SMILES>  (17) 
CC(C)=CCC/C(C)=C/[C@H]1CCCC[C@@]12CCCCC2=O

>  <Energy>  (17) 
58.87432859917392

>  <Genealogy>  (17) 
CC(C)=CCCC(C)=C[C@H]1CCCC[C@@]12CCCCC2=O (chirality)
CC(C)=CCC/C(C)=C/[C@H]1CCCC[C@@]12CCCCC2=O (cis-trans isomerization)
CC(C)=CCC/C(C)=C/[C@H]1CCCC[C@@]12CCCCC2=O (3D coordinates assigned)
CC(C)=CCC/C(C)=C/[C@H]1CCCC[C@@]12CCCCC2=O (nonaromatic ring conformer: 58.87432859917392 kcal/mol)

>  <smiles>  (17) 
CC(C)=CCCC(C)=CC1CCCCC12CCCCC2=O

>  <score_type>  (17) 
oracle

>  <origin>  (17) 
adg

>  <m_score__min__energy>  (17) 
-8.6699999999999999

>  <m_primary>  (17) 
energy

$$$$
17:0
     RDKit          3D

 47 49  0  0  0  0  0  0  0  0999 V2000
   -4.0250   17.1340  -34.9560 C   0  0  0  0  0  0  0  0  0  0  0  0
   -4.4940   18.3220  -34.2500 N   0  0  0  0  0  0  0  0  0  0  0  0
   -5.7580   18.5130  -33.9100 N   0  0  0  0  0  0  0  0  0  0  0  0
   -5.8450   19.7090  -33.2910 C   0  0  0  0  0  0  0  0  0  0  0  0
   -7.1130   20.2730  -32.7690 C   0  0  0  0  0  0  0  0  0  0  0  0
   -8.2890   19.5010  -32.7060 C   0  0  0  0  0  0  0  0  0  0  0  0
   -9.4730   20.0530  -32.2090 C   0  0  0  0  0  0  0  0  0  0  0  0
   -9.5000   21.3770  -31.7680 C   0  0  0  0  0  0  0  0  0  0  0  0
   -8.3410   22.1530  -31.8230 C   0  0  0  0  0  0  0  0  0  0  0  0
   -7.1540   21.6080  -32.3210 C   0  0  0  0  0  0  0  0  0  0  0  0
   -4.5870   20.2960  -33.2420 C   0  0  0  0  0  0  0  0  0  0  0  0
   -3.7570   19.3850  -33.8620 C   0  0  0  0  0  0  0  0  0  0  0  0
   -2.2810   19.5720  -34.1070 C   0  0  0  0  0  0  0  0  0  0  0  0
   -1.8900   20.9940  -34.1140 N   0  0  0  0  0  0  0  0  0  0  0  0
   -1.2080   21.4450  -32.8840 C   0  0  0  0  0  0  0  0  0  0  0  0
   -2.0880   21.3640  -31.6200 C   0  0  0  0  0  0  0  0  0  0  0  0
   -2.6370   22.6840  -31.2400 N   0  0  0  0  0  0  0  0  0  0  0  0
   -2.1600   23.0730  -29.8990 C   0  0  0  0  0  0  0  0  0  0  0  0
   -2.8470   24.3690  -29.4230 C   0  0  0  0  0  0  0  0  0  0  0  0
   -3.6210   24.9480  -30.4540 O   0  0  0  0  0  0  0  0  0  0  0  0
   -4.6590   24.0610  -30.8250 C   0  0  0  0  0  0  0  0  0  0  0  0
   -4.1130   22.6870  -31.2680 C   0  0  0  0  0  0  0  0  0  0  0  0
   -3.7229   16.3688  -34.2257 H   0  0  0  0  0  0  0  0  0  0  0  0
   -4.8347   16.7390  -35.5872 H   0  0  0  0  0  0  0  0  0  0  0  0
   -3.1639   17.3986  -35.5872 H   0  0  0  0  0  0  0  0  0  0  0  0
   -8.2757   18.4564  -33.0503 H   0  0  0  0  0  0  0  0  0  0  0  0
  -10.3866   19.4419  -32.1653 H   0  0  0  0  0  0  0  0  0  0  0  0
  -10.4335   21.8084  -31.3776 H   0  0  0  0  0  0  0  0  0  0  0  0
   -8.3618   23.1958  -31.4736 H   0  0  0  0  0  0  0  0  0  0  0  0
   -6.2451   22.2262  -32.3634 H   0  0  0  0  0  0  0  0  0  0  0  0
   -4.3140   21.2686  -32.8067 H   0  0  0  0  0  0  0  0  0  0  0  0
   -1.7224   19.0556  -33.3125 H   0  0  0  0  0  0  0  0  0  0  0  0
   -2.0491   19.1546  -35.0979 H   0  0  0  0  0  0  0  0  0  0  0  0
   -2.7450   21.5810  -34.2470 H   0  0  0  0  0  0  0  0  0  0  0  0
   -1.2730   21.1700  -34.9410 H   0  0  0  0  0  0  0  0  0  0  0  0
   -0.3195   20.8153  -32.7291 H   0  0  0  0  0  0  0  0  0  0  0  0
   -0.9521   22.5049  -33.0293 H   0  0  0  0  0  0  0  0  0  0  0  0
   -2.9231   20.6744  -31.8125 H   0  0  0  0  0  0  0  0  0  0  0  0
   -1.4592   21.0068  -30.7912 H   0  0  0  0  0  0  0  0  0  0  0  0
   -2.3855   22.2643  -29.1883 H   0  0  0  0  0  0  0  0  0  0  0  0
   -1.0755   23.2495  -29.9501 H   0  0  0  0  0  0  0  0  0  0  0  0
   -3.5024   24.1351  -28.5711 H   0  0  0  0  0  0  0  0  0  0  0  0
   -2.0677   25.0873  -29.1286 H   0  0  0  0  0  0  0  0  0  0  0  0
   -5.3279   23.9167  -29.9637 H   0  0  0  0  0  0  0  0  0  0  0  0
   -5.1971   24.5038  -31.6761 H   0  0  0  0  0  0  0  0  0  0  0  0
   -4.4896   21.9107  -30.5857 H   0  0  0  0  0  0  0  0  0  0  0  0
   -4.4499   22.4846  -32.2954 H   0  0  0  0  0  0  0  0  0  0  0  0
  1  2  1  0
  2  3  1  0
  3  4  2  0
  4  5  1  0
  5  6  2  0
  6  7  1  0
  7  8  2  0
  8  9  1  0
  9 10  2  0
  4 11  1  0
 11 12  2  0
 12 13  1  0
 13 14  1  0
 14 15  1  0
 15 16  1  0
 16 17  1  0
 17 18  1  0
 18 19  1  0
 19 20  1  0
 20 21  1  0
 21 22  1  0
 12  2  1  0
 22 17  1  0
 10  5  1  0
  1 23  1  0
  1 24  1  0
  1 25  1  0
  6 26  1  0
  7 27  1  0
  8 28  1  0
  9 29  1  0
 10 30  1  0
 11 31  1  0
 13 32  1  0
 13 33  1  0
 14 34  1  0
 14 35  1  0
 15 36  1  0
 15 37  1  0
 16 38  1  0
 16 39  1  0
 18 40  1  0
 18 41  1  0
 19 42  1  0
 19 43  1  0
 21 44  1  0
 21 45  1  0
 22 46  1  0
 22 47  1  0
M  CHG  1  14   1
M  END
>  <UniqueID>  (18) 
18

>  <SMILES>  (18) 
Cn1nc(-c2ccccc2)cc1C[NH2+]CCN1CCOCC1

>  <Energy>  (18) 
87.18549634280409

>  <Genealogy>  (18) 
Cn1nc(-c2ccccc2)cc1C[NH2+]CCN1CCOCC1 (protonated)
Cn1nc(-c2ccccc2)cc1C[NH2+]CCN1CCOCC1 (3D coordinates assigned)
Cn1nc(-c2ccccc2)cc1C[NH2+]CCN1CCOCC1 (nonaromatic ring conformer: 87.18549634280409 kcal/mol)

>  <smiles>  (18) 
Cn1nc(-c2ccccc2)cc1CNCCN1CCOCC1

>  <score_type>  (18) 
oracle

>  <origin>  (18) 
adg

>  <m_score__min__energy>  (18) 
-7.6399999999999997

>  <m_primary>  (18) 
energy

$$$$
18:0
     RDKit          3D

 28 28  0  0  0  0  0  0  0  0999 V2000
   -3.0000   24.3910  -27.2530 C   0  0  0  0  0  0  0  0  0  0  0  0
   -1.7620   25.0560  -27.8620 C   0  0  0  0  0  0  0  0  0  0  0  0
   -1.6600   24.8380  -29.3160 N   0  0  0  0  0  0  0  0  0  0  0  0
   -2.3790   23.6380  -29.7680 C   0  0  0  0  0  0  0  0  0  0  0  0
   -3.7240   24.0090  -30.3270 C   0  0  0  0  0  0  0  0  0  0  0  0
   -4.0970   25.2370  -30.4340 N   0  0  0  0  0  0  0  0  0  0  0  0
   -5.4120   25.3050  -31.0610 C   0  0  0  0  0  0  0  0  0  0  0  0
   -5.7830   23.8480  -31.3770 C   0  0  0  0  0  0  0  0  0  0  0  0
   -4.6660   23.0850  -30.8540 N   0  0  0  0  0  0  0  0  0  0  0  0
   -4.5640   21.6260  -30.8890 C   0  0  0  0  0  0  0  0  0  0  0  0
   -4.5940   21.1250  -32.3280 C   0  0  0  0  0  0  0  0  0  0  0  0
   -2.9331   24.4269  -26.1556 H   0  0  0  0  0  0  0  0  0  0  0  0
   -3.9030   24.9254  -27.5830 H   0  0  0  0  0  0  0  0  0  0  0  0
   -3.0530   23.3430  -27.5830 H   0  0  0  0  0  0  0  0  0  0  0  0
   -1.8130   26.1380  -27.6706 H   0  0  0  0  0  0  0  0  0  0  0  0
   -0.8757   24.6029  -27.3938 H   0  0  0  0  0  0  0  0  0  0  0  0
   -2.0420   25.6710  -29.8220 H   0  0  0  0  0  0  0  0  0  0  0  0
   -1.7890   23.1350  -30.5483 H   0  0  0  0  0  0  0  0  0  0  0  0
   -2.5239   22.9658  -28.9094 H   0  0  0  0  0  0  0  0  0  0  0  0
   -6.1455   25.7491  -30.3719 H   0  0  0  0  0  0  0  0  0  0  0  0
   -5.4050   25.9328  -31.9642 H   0  0  0  0  0  0  0  0  0  0  0  0
   -6.7201   23.5647  -30.8754 H   0  0  0  0  0  0  0  0  0  0  0  0
   -5.9507   23.6751  -32.4503 H   0  0  0  0  0  0  0  0  0  0  0  0
   -3.6193   21.3174  -30.4175 H   0  0  0  0  0  0  0  0  0  0  0  0
   -5.4171   21.1958  -30.3439 H   0  0  0  0  0  0  0  0  0  0  0  0
   -4.6597   20.0270  -32.3327 H   0  0  0  0  0  0  0  0  0  0  0  0
   -5.4685   21.5469  -32.8450 H   0  0  0  0  0  0  0  0  0  0  0  0
   -3.6754   21.4395  -32.8450 H   0  0  0  0  0  0  0  0  0  0  0  0
  1  2  1  0
  2  3  1  0
  3  4  1  0
  4  5  1  0
  5  6  2  0
  6  7  1  0
  7  8  1  0
  8  9  1  0
  9 10  1  0
 10 11  1  0
  9  5  1  0
  1 12  1  0
  1 13  1  0
  1 14  1  0
  2 15  1  0
  2 16  1  0
  3 17  1  0
  4 18  1  0
  4 19  1  0
  7 20  1  0
  7 21  1  0
  8 22  1  0
  8 23  1  0
 10 24  1  0
 10 25  1  0
 11 26  1  0
 11 27  1  0
 11 28  1  0
M  END
>  <UniqueID>  (19) 
19

>  <SMILES>  (19) 
CCNCC1=NCCN1CC

>  <Energy>  (19) 
29.985420826232883

>  <Genealogy>  (19) 
CCNCC1=NCCN1CC (3D coordinates assigned)
CCNCC1=NCCN1CC (nonaromatic ring conformer: 29.985420826232883 kcal/mol)

>  <smiles>  (19) 
CCNCC1=NCCN1CC

>  <score_type>  (19) 
oracle

>  <origin>  (19) 
adg

>  <m_score__min__energy>  (19) 
-4.2699999999999996

>  <m_primary>  (19) 
energy

$$$$
19:0
     RDKit          3D

 59 62  0  0  0  0  0  0  0  0999 V2000
   -6.0020   25.6840  -30.0210 C   0  0  0  0  0  0  0  0  0  0  0  0
   -4.7400   25.1510  -30.6970 C   0  0  0  0  0  0  0  0  0  0  0  0
   -4.8170   23.6730  -30.8780 N   0  0  0  0  0  0  0  0  0  0  0  0
   -5.3970   23.0410  -29.6600 C   0  0  0  0  0  0  0  0  0  0  0  0
   -4.3280   22.8590  -28.5700 C   0  0  0  0  0  0  0  0  0  0  0  0
   -3.4570   23.1150  -31.1100 C   0  0  0  0  0  0  0  0  0  0  0  0
   -3.3890   22.2010  -32.3500 C   0  0  0  0  0  0  0  0  0  0  0  0
   -4.6100   22.1640  -33.1930 N   0  0  0  0  0  0  0  0  0  0  0  0
   -5.5620   21.1030  -32.8880 C   0  0  0  0  0  0  0  0  0  0  0  0
   -6.8990   21.3750  -32.4970 C   0  0  0  0  0  0  0  0  0  0  0  0
   -7.3140   22.6900  -32.1540 C   0  0  0  0  0  0  0  0  0  0  0  0
   -8.5800   22.9340  -31.6280 C   0  0  0  0  0  0  0  0  0  0  0  0
   -9.4490   21.8830  -31.3940 C   0  0  0  0  0  0  0  0  0  0  0  0
   -9.0820   20.5780  -31.7110 C   0  0  0  0  0  0  0  0  0  0  0  0
   -7.8110   20.2950  -32.2970 C   0  0  0  0  0  0  0  0  0  0  0  0
   -7.4480   19.0000  -32.6120 N   0  0  0  0  0  0  0  0  0  0  0  0
   -8.3570   17.8740  -32.3150 C   0  0  0  0  0  0  0  0  0  0  0  0
   -6.2170   18.7780  -33.2210 C   0  0  0  0  0  0  0  0  0  0  0  0
   -5.8610   17.5470  -33.8160 C   0  0  0  0  0  0  0  0  0  0  0  0
   -6.7350   16.7940  -34.3340 O   0  0  0  0  0  0  0  0  0  0  0  0
   -4.5100   17.2060  -33.9450 C   0  0  0  0  0  0  0  0  0  0  0  0
   -4.1090   15.9100  -34.3170 C   0  0  0  0  0  0  0  0  0  0  0  0
   -2.7490   15.6010  -34.3660 C   0  0  0  0  0  0  0  0  0  0  0  0
   -1.7850   16.5450  -33.9820 C   0  0  0  0  0  0  0  0  0  0  0  0
   -2.1590   17.8350  -33.5730 C   0  0  0  0  0  0  0  0  0  0  0  0
   -1.1360   18.6890  -33.1220 O   0  0  0  0  0  0  0  0  0  0  0  0
   -0.8130   19.9510  -33.6860 C   0  0  0  0  0  0  0  0  0  0  0  0
   -3.5300   18.1920  -33.6230 C   0  0  0  0  0  0  0  0  0  0  0  0
   -3.9340   19.4310  -33.3550 O   0  0  0  0  0  0  0  0  0  0  0  0
   -5.2190   19.7620  -33.1800 C   0  0  0  0  0  0  0  0  0  0  0  0
   -5.8821   25.6334  -28.9287 H   0  0  0  0  0  0  0  0  0  0  0  0
   -6.1668   26.7286  -30.3238 H   0  0  0  0  0  0  0  0  0  0  0  0
   -6.8657   25.0738  -30.3238 H   0  0  0  0  0  0  0  0  0  0  0  0
   -4.6295   25.6291  -31.6815 H   0  0  0  0  0  0  0  0  0  0  0  0
   -3.8748   25.3822  -30.0582 H   0  0  0  0  0  0  0  0  0  0  0  0
   -6.2017   23.6821  -29.2708 H   0  0  0  0  0  0  0  0  0  0  0  0
   -5.7904   22.0507  -29.9331 H   0  0  0  0  0  0  0  0  0  0  0  0
   -4.7979   22.9390  -27.5786 H   0  0  0  0  0  0  0  0  0  0  0  0
   -3.8614   21.8685  -28.6758 H   0  0  0  0  0  0  0  0  0  0  0  0
   -3.5599   23.6393  -28.6758 H   0  0  0  0  0  0  0  0  0  0  0  0
   -2.7540   23.9494  -31.2496 H   0  0  0  0  0  0  0  0  0  0  0  0
   -3.1962   22.5036  -30.2335 H   0  0  0  0  0  0  0  0  0  0  0  0
   -2.5552   22.5466  -32.9787 H   0  0  0  0  0  0  0  0  0  0  0  0
   -3.2631   21.1796  -31.9616 H   0  0  0  0  0  0  0  0  0  0  0  0
   -4.3270   22.1370  -34.2030 H   0  0  0  0  0  0  0  0  0  0  0  0
   -5.1010   23.0840  -33.0820 H   0  0  0  0  0  0  0  0  0  0  0  0
   -6.6220   23.5313  -32.3069 H   0  0  0  0  0  0  0  0  0  0  0  0
   -8.8898   23.9641  -31.3981 H   0  0  0  0  0  0  0  0  0  0  0  0
  -10.4377   22.0801  -30.9540 H   0  0  0  0  0  0  0  0  0  0  0  0
   -9.7809   19.7534  -31.5072 H   0  0  0  0  0  0  0  0  0  0  0  0
   -8.4516   17.7568  -31.2254 H   0  0  0  0  0  0  0  0  0  0  0  0
   -9.3469   18.0776  -32.7492 H   0  0  0  0  0  0  0  0  0  0  0  0
   -7.9493   16.9492  -32.7492 H   0  0  0  0  0  0  0  0  0  0  0  0
   -4.8608   15.1469  -34.5671 H   0  0  0  0  0  0  0  0  0  0  0  0
   -2.4293   14.6061  -34.7096 H   0  0  0  0  0  0  0  0  0  0  0  0
   -0.7200   16.2704  -34.0016 H   0  0  0  0  0  0  0  0  0  0  0  0
   -0.6274   20.6762  -32.8800 H   0  0  0  0  0  0  0  0  0  0  0  0
    0.0894   19.8547  -34.3075 H   0  0  0  0  0  0  0  0  0  0  0  0
   -1.6508   20.3001  -34.3075 H   0  0  0  0  0  0  0  0  0  0  0  0
  1  2  1  0
  2  3  1  0
  3  4  1  0
  4  5  1  0
  3  6  1  0
  6  7  1  0
  7  8  1  0
  8  9  1  0
  9 10  2  0
 10 11  1  0
 11 12  2  0
 12 13  1  0
 13 14  2  0
 14 15  1  0
 15 16  2  0
 16 17  1  0
 16 18  1  0
 18 19  1  0
 19 20  2  0
 19 21  1  0
 21 22  2  0
 22 23  1  0
 23 24  2  0
 24 25  1  0
 25 26  1  0
 26 27  1  0
 25 28  2  0
 28 29  1  0
 29 30  1  0
 30  9  1  0
 15 10  1  0
 30 18  2  0
 28 21  1  0
  1 31  1  0
  1 32  1  0
  1 33  1  0
  2 34  1  0
  2 35  1  0
  4 36  1  0
  4 37  1  0
  5 38  1  0
  5 39  1  0
  5 40  1  0
  6 41  1  0
  6 42  1  0
  7 43  1  0
  7 44  1  0
  8 45  1  0
  8 46  1  0
 11 47  1  0
 12 48  1  0
 13 49  1  0
 14 50  1  0
 17 51  1  0
 17 52  1  0
 17 53  1  0
 22 54  1  0
 23 55  1  0
 24 56  1  0
 27 57  1  0
 27 58  1  0
 27 59  1  0
M  CHG  2   8   1  16   1
M  END
>  <UniqueID>  (20) 
20

>  <SMILES>  (20) 
CCN(CC)CC[NH2+]c1c2ccccc2[n+](C)c2c(=O)c3cccc(OC)c3oc12

>  <Energy>  (20) 
114.2383228011096

>  <Genealogy>  (20) 
CCN(CC)CC[NH2+]c1c2ccccc2[n+](C)c2c(=O)c3cccc(OC)c3oc12 (protonated)
CCN(CC)CC[NH2+]c1c2ccccc2[n+](C)c2c(=O)c3cccc(OC)c3oc12 (3D coordinates assigned)
CCN(CC)CC[NH2+]c1c2ccccc2[n+](C)c2c(=O)c3cccc(OC)c3oc12 (optimized conformer: 114.2383228011096 kcal/mol)

>  <smiles>  (20) 
CCN(CC)CCNc1c2ccccc2[n+](C)c2c(=O)c3cccc(OC)c3oc12

>  <score_type>  (20) 
oracle

>  <origin>  (20) 
adg

>  <m_score__min__energy>  (20) 
-8.1899999999999995

>  <m_primary>  (20) 
energy

$$$$
20:0
     RDKit          3D

 42 44  0  0  0  0  0  0  0  0999 V2000
   -5.3240   25.4940  -30.1800 C   0  0  0  0  0  0  0  0  0  0  0  0
   -4.0620   24.9980  -30.6140 O   0  0  0  0  0  0  0  0  0  0  0  0
   -3.2530   24.1170  -29.8770 C   0  0  0  0  0  0  0  0  0  0  0  0
   -2.1660   24.5770  -29.1070 C   0  0  0  0  0  0  0  0  0  0  0  0
   -1.3830   23.6780  -28.3820 C   0  0  0  0  0  0  0  0  0  0  0  0
   -1.6720   22.3140  -28.4130 C   0  0  0  0  0  0  0  0  0  0  0  0
   -2.7450   21.8440  -29.1700 C   0  0  0  0  0  0  0  0  0  0  0  0
   -3.5420   22.7340  -29.9090 C   0  0  0  0  0  0  0  0  0  0  0  0
   -4.6940   22.2060  -30.7430 C   0  0  0  0  0  0  0  0  0  0  0  0
   -4.8010   22.8970  -32.0560 N   0  0  1  0  0  0  0  0  0  0  0  0
   -4.1500   22.1680  -33.1790 C   0  0  0  0  0  0  0  0  0  0  0  0
   -3.0660   21.1930  -32.7800 C   0  0  0  0  0  0  0  0  0  0  0  0
   -1.7570   21.5660  -32.4350 C   0  0  0  0  0  0  0  0  0  0  0  0
   -0.9280   20.4900  -32.1490 C   0  0  0  0  0  0  0  0  0  0  0  0
   -1.8130   19.0790  -32.3570 S   0  0  0  0  0  0  0  0  0  0  0  0
   -3.2540   19.8140  -32.8050 C   0  0  0  0  0  0  0  0  0  0  0  0
   -6.1710   23.3960  -32.3550 C   0  0  0  0  0  0  0  0  0  0  0  0
   -7.2790   22.3690  -32.2700 C   0  0  0  0  0  0  0  0  0  0  0  0
   -8.5060   22.5740  -31.6470 C   0  0  0  0  0  0  0  0  0  0  0  0
   -9.3020   21.4230  -31.5800 C   0  0  0  0  0  0  0  0  0  0  0  0
   -8.6950   20.2940  -32.1110 C   0  0  0  0  0  0  0  0  0  0  0  0
   -7.1680   20.7320  -32.6540 S   0  0  0  0  0  0  0  0  0  0  0  0
   -5.3548   25.5061  -29.0805 H   0  0  0  0  0  0  0  0  0  0  0  0
   -5.4676   26.5155  -30.5621 H   0  0  0  0  0  0  0  0  0  0  0  0
   -6.1247   24.8437  -30.5621 H   0  0  0  0  0  0  0  0  0  0  0  0
   -1.9333   25.6517  -29.0773 H   0  0  0  0  0  0  0  0  0  0  0  0
   -0.5358   24.0460  -27.7846 H   0  0  0  0  0  0  0  0  0  0  0  0
   -1.0530   21.6081  -27.8398 H   0  0  0  0  0  0  0  0  0  0  0  0
   -2.9691   20.7672  -29.1885 H   0  0  0  0  0  0  0  0  0  0  0  0
   -4.5397   21.1313  -30.9199 H   0  0  0  0  0  0  0  0  0  0  0  0
   -5.6252   22.3910  -30.1875 H   0  0  0  0  0  0  0  0  0  0  0  0
   -4.2390   23.7780  -31.9620 H   0  0  0  0  0  0  0  0  0  0  0  0
   -4.9292   21.6073  -33.7161 H   0  0  0  0  0  0  0  0  0  0  0  0
   -3.6550   22.9362  -33.7912 H   0  0  0  0  0  0  0  0  0  0  0  0
   -1.4202   22.6124  -32.3951 H   0  0  0  0  0  0  0  0  0  0  0  0
    0.1259   20.5514  -31.8398 H   0  0  0  0  0  0  0  0  0  0  0  0
   -4.1864   19.2952  -33.0723 H   0  0  0  0  0  0  0  0  0  0  0  0
   -6.4007   24.2002  -31.6405 H   0  0  0  0  0  0  0  0  0  0  0  0
   -6.1472   23.7236  -33.4048 H   0  0  0  0  0  0  0  0  0  0  0  0
   -8.8214   23.5481  -31.2449 H   0  0  0  0  0  0  0  0  0  0  0  0
  -10.3132   21.4151  -31.1471 H   0  0  0  0  0  0  0  0  0  0  0  0
   -9.1369   19.2882  -32.1665 H   0  0  0  0  0  0  0  0  0  0  0  0
  1  2  1  0
  2  3  1  0
  3  4  2  0
  4  5  1  0
  5  6  2  0
  6  7  1  0
  7  8  2  0
  8  9  1  0
  9 10  1  0
 10 11  1  0
 11 12  1  0
 12 13  1  0
 13 14  2  0
 14 15  1  0
 15 16  1  0
 10 17  1  0
 17 18  1  0
 18 19  2  0
 19 20  1  0
 20 21  2  0
 21 22  1  0
  8  3  1  0
 16 12  2  0
 22 18  1  0
  1 23  1  0
  1 24  1  0
  1 25  1  0
  4 26  1  0
  5 27  1  0
  6 28  1  0
  7 29  1  0
  9 30  1  0
  9 31  1  0
 10 32  1  1
 11 33  1  0
 11 34  1  0
 13 35  1  0
 14 36  1  0
 16 37  1  0
 17 38  1  0
 17 39  1  0
 19 40  1  0
 20 41  1  0
 21 42  1  0
M  CHG  1  10   1
M  END
>  <UniqueID>  (21) 
21

>  <SMILES>  (21) 
COc1ccccc1C[N@@H+](Cc1ccsc1)Cc1cccs1

>  <Energy>  (21) 
104.30213217048234

>  <Genealogy>  (21) 
COc1ccccc1C[NH+](Cc1ccsc1)Cc1cccs1 (protonated)
COc1ccccc1C[N@@H+](Cc1ccsc1)Cc1cccs1 (chirality)
COc1ccccc1C[N@@H+](Cc1ccsc1)Cc1cccs1 (3D coordinates assigned)
COc1ccccc1C[N@@H+](Cc1ccsc1)Cc1cccs1 (optimized conformer: 104.30213217048234 kcal/mol)

>  <smiles>  (21) 
COc1ccccc1CN(Cc1ccsc1)Cc1cccs1

>  <score_type>  (21) 
oracle

>  <origin>  (21) 
adg

>  <m_score__min__energy>  (21) 
-6.9299999999999997

>  <m_primary>  (21) 
energy

$$$$
21:0
     RDKit          3D

 70 73  0  0  0  0  0  0  0  0999 V2000
   -0.0170   20.5690  -32.3900 C   0  0  0  0  0  0  0  0  0  0  0  0
   -0.3800   20.4890  -33.8770 C   0  0  0  0  0  0  0  0  0  0  0  0
   -1.5950   21.2560  -34.2030 N   0  0  0  0  0  0  0  0  0  0  0  0
   -2.4910   21.4000  -33.0420 C   0  0  0  0  0  0  0  0  0  0  0  0
   -3.4150   20.1840  -32.8950 C   0  0  0  0  0  0  0  0  0  0  0  0
   -4.1890   20.2460  -31.6560 N   0  0  0  0  0  0  0  0  0  0  0  0
   -5.4400   20.9490  -31.6210 C   0  0  0  0  0  0  0  0  0  0  0  0
   -6.6380   20.2730  -31.9040 C   0  0  0  0  0  0  0  0  0  0  0  0
   -6.6380   18.8860  -32.1640 C   0  0  0  0  0  0  0  0  0  0  0  0
   -7.8310   18.2080  -32.3990 C   0  0  0  0  0  0  0  0  0  0  0  0
   -9.0410   18.8940  -32.3590 C   0  0  0  0  0  0  0  0  0  0  0  0
   -9.0630   20.2650  -32.1070 C   0  0  0  0  0  0  0  0  0  0  0  0
   -7.8620   20.9930  -31.9050 C   0  0  0  0  0  0  0  0  0  0  0  0
   -7.8630   22.3590  -31.6930 N   0  0  0  0  0  0  0  0  0  0  0  0
   -9.0840   23.1500  -31.9690 C   0  0  0  0  0  0  0  0  0  0  0  0
   -6.7160   22.9910  -31.2450 C   0  0  0  0  0  0  0  0  0  0  0  0
   -6.7350   24.3250  -30.7690 C   0  0  0  0  0  0  0  0  0  0  0  0
   -5.5620   24.9700  -30.3760 C   0  0  0  0  0  0  0  0  0  0  0  0
   -4.3310   24.3000  -30.4300 C   0  0  0  0  0  0  0  0  0  0  0  0
   -3.1180   24.9050  -30.0610 O   0  0  0  0  0  0  0  0  0  0  0  0
   -2.2860   24.5070  -28.9690 C   0  0  0  0  0  0  0  0  0  0  0  0
   -1.3520   23.3490  -29.4020 C   0  0  0  0  0  0  0  0  0  0  0  0
   -0.9760   22.3720  -28.3240 N   0  0  0  0  0  0  0  0  0  0  0  0
    0.3000   22.7890  -27.6820 C   0  0  0  0  0  0  0  0  0  0  0  0
   -0.7530   21.0380  -28.9830 C   0  0  0  0  0  0  0  0  0  0  0  0
   -1.0160   19.8480  -28.0450 C   0  0  0  0  0  0  0  0  0  0  0  0
   -2.4830   19.8250  -27.5850 C   0  0  0  0  0  0  0  0  0  0  0  0
   -3.1120   21.2270  -27.5670 C   0  0  0  0  0  0  0  0  0  0  0  0
   -2.0520   22.3010  -27.2740 C   0  0  0  0  0  0  0  0  0  0  0  0
   -4.3020   22.9710  -30.8490 C   0  0  0  0  0  0  0  0  0  0  0  0
   -5.4780   22.2990  -31.2380 C   0  0  0  0  0  0  0  0  0  0  0  0
   -0.9127   20.3716  -31.7828 H   0  0  0  0  0  0  0  0  0  0  0  0
    0.7544   19.8193  -32.1600 H   0  0  0  0  0  0  0  0  0  0  0  0
    0.3678   21.5735  -32.1600 H   0  0  0  0  0  0  0  0  0  0  0  0
    0.4582   20.8884  -34.4668 H   0  0  0  0  0  0  0  0  0  0  0  0
   -0.5764   19.4336  -34.1169 H   0  0  0  0  0  0  0  0  0  0  0  0
   -2.0990   20.7400  -34.9620 H   0  0  0  0  0  0  0  0  0  0  0  0
   -1.3320   22.2000  -34.5720 H   0  0  0  0  0  0  0  0  0  0  0  0
   -1.8831   21.5000  -32.1307 H   0  0  0  0  0  0  0  0  0  0  0  0
   -3.1149   22.2930  -33.1943 H   0  0  0  0  0  0  0  0  0  0  0  0
   -4.1083   20.1566  -33.7486 H   0  0  0  0  0  0  0  0  0  0  0  0
   -2.7917   19.2781  -32.8677 H   0  0  0  0  0  0  0  0  0  0  0  0
   -3.7910   19.8960  -30.7550 H   0  0  0  0  0  0  0  0  0  0  0  0
   -5.6860   18.3351  -32.1812 H   0  0  0  0  0  0  0  0  0  0  0  0
   -7.8171   17.1298  -32.6163 H   0  0  0  0  0  0  0  0  0  0  0  0
   -9.9837   18.3525  -32.5268 H   0  0  0  0  0  0  0  0  0  0  0  0
  -10.0279   20.7913  -32.0640 H   0  0  0  0  0  0  0  0  0  0  0  0
   -9.5486   23.4510  -31.0184 H   0  0  0  0  0  0  0  0  0  0  0  0
   -8.8169   24.0471  -32.5468 H   0  0  0  0  0  0  0  0  0  0  0  0
   -9.7936   22.5395  -32.5468 H   0  0  0  0  0  0  0  0  0  0  0  0
   -7.6928   24.8626  -30.7081 H   0  0  0  0  0  0  0  0  0  0  0  0
   -5.6028   26.0105  -30.0216 H   0  0  0  0  0  0  0  0  0  0  0  0
   -1.6766   25.3637  -28.6455 H   0  0  0  0  0  0  0  0  0  0  0  0
   -2.9221   24.1640  -28.1397 H   0  0  0  0  0  0  0  0  0  0  0  0
   -1.8576   22.7894  -30.2028 H   0  0  0  0  0  0  0  0  0  0  0  0
   -0.4109   23.8258  -29.7135 H   0  0  0  0  0  0  0  0  0  0  0  0
    0.1891   22.7528  -26.5882 H   0  0  0  0  0  0  0  0  0  0  0  0
    1.1061   22.1075  -27.9916 H   0  0  0  0  0  0  0  0  0  0  0  0
    0.5481   23.8150  -27.9916 H   0  0  0  0  0  0  0  0  0  0  0  0
   -1.4284   20.9578  -29.8475 H   0  0  0  0  0  0  0  0  0  0  0  0
    0.3052   20.9927  -29.2801 H   0  0  0  0  0  0  0  0  0  0  0  0
   -0.7912   18.9126  -28.5784 H   0  0  0  0  0  0  0  0  0  0  0  0
   -0.3717   19.9499  -27.1593 H   0  0  0  0  0  0  0  0  0  0  0  0
   -3.0590   19.1879  -28.2723 H   0  0  0  0  0  0  0  0  0  0  0  0
   -2.5068   19.4329  -26.5575 H   0  0  0  0  0  0  0  0  0  0  0  0
   -3.5682   21.4295  -28.5472 H   0  0  0  0  0  0  0  0  0  0  0  0
   -3.8737   21.2599  -26.7740 H   0  0  0  0  0  0  0  0  0  0  0  0
   -2.5515   23.2795  -27.2181 H   0  0  0  0  0  0  0  0  0  0  0  0
   -1.5660   22.0312  -26.3248 H   0  0  0  0  0  0  0  0  0  0  0  0
   -3.3414   22.4357  -30.8766 H   0  0  0  0  0  0  0  0  0  0  0  0
  1  2  1  0
  2  3  1  0
  3  4  1  0
  4  5  1  0
  5  6  1  0
  6  7  1  0
  7  8  2  0
  8  9  1  0
  9 10  2  0
 10 11  1  0
 11 12  2  0
 12 13  1  0
 13 14  2  0
 14 15  1  0
 14 16  1  0
 16 17  2  0
 17 18  1  0
 18 19  2  0
 19 20  1  0
 20 21  1  0
 21 22  1  0
 22 23  1  0
 23 24  1  0
 23 25  1  0
 25 26  1  0
 26 27  1  0
 27 28  1  0
 28 29  1  0
 19 30  1  0
 30 31  2  0
 31  7  1  0
 13  8  1  0
 31 16  1  0
 29 23  1  0
  1 32  1  0
  1 33  1  0
  1 34  1  0
  2 35  1  0
  2 36  1  0
  3 37  1  0
  3 38  1  0
  4 39  1  0
  4 40  1  0
  5 41  1  0
  5 42  1  0
  6 43  1  0
  9 44  1  0
 10 45  1  0
 11 46  1  0
 12 47  1  0
 15 48  1  0
 15 49  1  0
 15 50  1  0
 17 51  1  0
 18 52  1  0
 21 53  1  0
 21 54  1  0
 22 55  1  0
 22 56  1  0
 24 57  1  0
 24 58  1  0
 24 59  1  0
 25 60  1  0
 25 61  1  0
 26 62  1  0
 26 63  1  0
 27 64  1  0
 27 65  1  0
 28 66  1  0
 28 67  1  0
 29 68  1  0
 29 69  1  0
 30 70  1  0
M  CHG  3   3   1  14   1  23   1
M  END
>  <UniqueID>  (22) 
22

>  <SMILES>  (22) 
CC[NH2+]CCNc1c2ccccc2[n+](C)c2ccc(OCC[N+]3(C)CCCCC3)cc12

>  <Energy>  (22) 
111.18280372166882

>  <Genealogy>  (22) 
CC[NH2+]CCNc1c2ccccc2[n+](C)c2ccc(OCC[N+]3(C)CCCCC3)cc12 (protonated)
CC[NH2+]CCNc1c2ccccc2[n+](C)c2ccc(OCC[N+]3(C)CCCCC3)cc12 (3D coordinates assigned)
CC[NH2+]CCNc1c2ccccc2[n+](C)c2ccc(OCC[N+]3(C)CCCCC3)cc12 (nonaromatic ring conformer: 111.18280372166882 kcal/mol)

>  <smiles>  (22) 
CCNCCNc1c2ccccc2[n+](C)c2ccc(OCC[N+]3(C)CCCCC3)cc12

>  <score_type>  (22) 
oracle

>  <origin>  (22) 
adg

>  <m_score__min__energy>  (22) 
-8.5099999999999998

>  <m_primary>  (22) 
energy

$$$$
22:0
     RDKit          3D

 77 80  0  0  0  0  0  0  0  0999 V2000
   -9.1110   18.7620  -31.8580 C   0  0  0  0  0  0  0  0  0  0  0  0
   -7.6940   18.1930  -31.7690 C   0  0  0  0  0  0  0  0  0  0  0  0
   -6.9400   18.2620  -33.1150 C   0  0  0  0  0  0  0  0  0  0  0  0
   -5.4670   18.2140  -32.9510 N   0  0  0  0  0  0  0  0  0  0  0  0
   -4.9870   16.8110  -32.9550 C   0  0  0  0  0  0  0  0  0  0  0  0
   -5.8690   15.8960  -33.8080 C   0  0  0  0  0  0  0  0  0  0  0  0
   -4.7260   19.1090  -33.8810 C   0  0  0  0  0  0  0  0  0  0  0  0
   -3.8150   20.1540  -33.1920 C   0  0  0  0  0  0  0  0  0  0  0  0
   -3.9070   20.0920  -31.7200 N   0  0  0  0  0  0  0  0  0  0  0  0
   -4.2340   21.3890  -31.1360 C   0  0  0  0  0  0  0  0  0  0  0  0
   -5.5410   21.9330  -31.2900 C   0  0  0  0  0  0  0  0  0  0  0  0
   -6.5480   21.2620  -32.0330 C   0  0  0  0  0  0  0  0  0  0  0  0
   -7.8040   21.8310  -32.2230 C   0  0  0  0  0  0  0  0  0  0  0  0
   -8.0900   23.0790  -31.6960 C   0  0  0  0  0  0  0  0  0  0  0  0
   -7.1350   23.7520  -30.9410 C   0  0  0  0  0  0  0  0  0  0  0  0
   -5.8610   23.1810  -30.6850 C   0  0  0  0  0  0  0  0  0  0  0  0
   -4.9440   23.8170  -29.8770 N   0  0  0  0  0  0  0  0  0  0  0  0
   -5.3850   24.9220  -28.9920 C   0  0  0  0  0  0  0  0  0  0  0  0
   -3.6290   23.4030  -29.8580 C   0  0  0  0  0  0  0  0  0  0  0  0
   -2.6180   24.2140  -29.2790 C   0  0  0  0  0  0  0  0  0  0  0  0
   -1.2990   23.7800  -29.1730 C   0  0  0  0  0  0  0  0  0  0  0  0
   -0.3620   24.6480  -28.5830 O   0  0  0  0  0  0  0  0  0  0  0  0
    0.5340   24.3070  -27.5240 C   0  0  0  0  0  0  0  0  0  0  0  0
   -0.2420   23.6510  -26.3580 C   0  0  0  0  0  0  0  0  0  0  0  0
   -0.4350   24.4960  -25.1430 N   0  0  0  0  0  0  0  0  0  0  0  0
   -0.5740   23.5910  -24.1200 O   0  0  0  0  0  0  0  0  0  0  0  0
   -1.6980   25.3030  -25.2180 C   0  0  0  0  0  0  0  0  0  0  0  0
   -1.4570   26.7680  -25.6160 C   0  0  0  0  0  0  0  0  0  0  0  0
   -0.5300   27.4750  -24.6160 C   0  0  0  0  0  0  0  0  0  0  0  0
    0.5060   26.5320  -23.9820 C   0  0  0  0  0  0  0  0  0  0  0  0
    0.7920   25.3140  -24.8750 C   0  0  0  0  0  0  0  0  0  0  0  0
   -0.9600   22.5150  -29.6560 C   0  0  0  0  0  0  0  0  0  0  0  0
   -1.9180   21.7140  -30.2690 C   0  0  0  0  0  0  0  0  0  0  0  0
   -3.2580   22.1530  -30.4300 C   0  0  0  0  0  0  0  0  0  0  0  0
   -9.5067   18.9209  -30.8440 H   0  0  0  0  0  0  0  0  0  0  0  0
   -9.0880   19.7206  -32.3970 H   0  0  0  0  0  0  0  0  0  0  0  0
   -9.7574   18.0537  -32.3970 H   0  0  0  0  0  0  0  0  0  0  0  0
   -7.1301   18.7678  -31.0196 H   0  0  0  0  0  0  0  0  0  0  0  0
   -7.7781   17.1327  -31.4885 H   0  0  0  0  0  0  0  0  0  0  0  0
   -7.2524   17.4103  -33.7370 H   0  0  0  0  0  0  0  0  0  0  0  0
   -7.1899   19.2242  -33.5859 H   0  0  0  0  0  0  0  0  0  0  0  0
   -3.9629   16.7890  -33.3560 H   0  0  0  0  0  0  0  0  0  0  0  0
   -5.0219   16.4412  -31.9196 H   0  0  0  0  0  0  0  0  0  0  0  0
   -6.4814   15.2607  -33.1512 H   0  0  0  0  0  0  0  0  0  0  0  0
   -6.5264   16.5082  -34.4429 H   0  0  0  0  0  0  0  0  0  0  0  0
   -5.2331   15.2615  -34.4429 H   0  0  0  0  0  0  0  0  0  0  0  0
   -4.0968   18.4821  -34.5300 H   0  0  0  0  0  0  0  0  0  0  0  0
   -5.4876   19.6795  -34.4328 H   0  0  0  0  0  0  0  0  0  0  0  0
   -2.7729   19.9662  -33.4897 H   0  0  0  0  0  0  0  0  0  0  0  0
   -4.1488   21.1531  -33.5087 H   0  0  0  0  0  0  0  0  0  0  0  0
   -3.0010   19.7510  -31.3320 H   0  0  0  0  0  0  0  0  0  0  0  0
   -4.5530   19.3280  -31.4380 H   0  0  0  0  0  0  0  0  0  0  0  0
   -6.3315   20.2744  -32.4664 H   0  0  0  0  0  0  0  0  0  0  0  0
   -8.5716   21.2876  -32.7935 H   0  0  0  0  0  0  0  0  0  0  0  0
   -9.0733   23.5387  -31.8745 H   0  0  0  0  0  0  0  0  0  0  0  0
   -7.3718   24.7463  -30.5344 H   0  0  0  0  0  0  0  0  0  0  0  0
   -5.2646   24.6204  -27.9410 H   0  0  0  0  0  0  0  0  0  0  0  0
   -4.7746   25.8156  -29.1892 H   0  0  0  0  0  0  0  0  0  0  0  0
   -6.4429   25.1498  -29.1892 H   0  0  0  0  0  0  0  0  0  0  0  0
   -2.8839   25.2132  -28.9036 H   0  0  0  0  0  0  0  0  0  0  0  0
    1.2894   23.6014  -27.9002 H   0  0  0  0  0  0  0  0  0  0  0  0
    1.0235   25.2221  -27.1594 H   0  0  0  0  0  0  0  0  0  0  0  0
   -1.2368   23.3683  -26.7328 H   0  0  0  0  0  0  0  0  0  0  0  0
    0.3750   22.8004  -26.0326 H   0  0  0  0  0  0  0  0  0  0  0  0
   -0.1120   23.9410  -23.3130 H   0  0  0  0  0  0  0  0  0  0  0  0
   -2.3632   24.8429  -25.9635 H   0  0  0  0  0  0  0  0  0  0  0  0
   -2.1443   25.3063  -24.2126 H   0  0  0  0  0  0  0  0  0  0  0  0
   -0.9952   26.7965  -26.6140 H   0  0  0  0  0  0  0  0  0  0  0  0
   -2.4254   27.2898  -25.6191 H   0  0  0  0  0  0  0  0  0  0  0  0
    0.0048   28.2790  -25.1428 H   0  0  0  0  0  0  0  0  0  0  0  0
   -1.1606   27.8633  -23.8027 H   0  0  0  0  0  0  0  0  0  0  0  0
    1.4431   27.0864  -23.8254 H   0  0  0  0  0  0  0  0  0  0  0  0
    0.0976   26.1677  -23.0278 H   0  0  0  0  0  0  0  0  0  0  0  0
    1.1963   25.6679  -25.8349 H   0  0  0  0  0  0  0  0  0  0  0  0
    1.5110   24.6727  -24.3441 H   0  0  0  0  0  0  0  0  0  0  0  0
    0.0720   22.1489  -29.5512 H   0  0  0  0  0  0  0  0  0  0  0  0
   -1.6305   20.7181  -30.6372 H   0  0  0  0  0  0  0  0  0  0  0  0
  1  2  1  0
  2  3  1  0
  3  4  1  0
  4  5  1  0
  5  6  1  0
  4  7  1  0
  7  8  1  0
  8  9  1  0
  9 10  1  0
 10 11  2  0
 11 12  1  0
 12 13  2  0
 13 14  1  0
 14 15  2  0
 15 16  1  0
 16 17  2  0
 17 18  1  0
 17 19  1  0
 19 20  2  0
 20 21  1  0
 21 22  1  0
 22 23  1  0
 23 24  1  0
 24 25  1  0
 25 26  1  0
 25 27  1  0
 27 28  1  0
 28 29  1  0
 29 30  1  0
 30 31  1  0
 21 32  2  0
 32 33  1  0
 33 34  2  0
 34 10  1  0
 16 11  1  0
 34 19  1  0
 31 25  1  0
  1 35  1  0
  1 36  1  0
  1 37  1  0
  2 38  1  0
  2 39  1  0
  3 40  1  0
  3 41  1  0
  5 42  1  0
  5 43  1  0
  6 44  1  0
  6 45  1  0
  6 46  1  0
  7 47  1  0
  7 48  1  0
  8 49  1  0
  8 50  1  0
  9 51  1  0
  9 52  1  0
 12 53  1  0
 13 54  1  0
 14 55  1  0
 15 56  1  0
 18 57  1  0
 18 58  1  0
 18 59  1  0
 20 60  1  0
 23 61  1  0
 23 62  1  0
 24 63  1  0
 24 64  1  0
 26 65  1  0
 27 66  1  0
 27 67  1  0
 28 68  1  0
 28 69  1  0
 29 70  1  0
 29 71  1  0
 30 72  1  0
 30 73  1  0
 31 74  1  0
 31 75  1  0
 32 76  1  0
 33 77  1  0
M  CHG  3   9   1  17   1  25   1
M  END
>  <UniqueID>  (23) 
23

>  <SMILES>  (23) 
CCCN(CC)CC[NH2+]c1c2ccccc2[n+](C)c2cc(OCC[N+]3(O)CCCCC3)ccc12

>  <Energy>  (23) 
125.87507287931518

>  <Genealogy>  (23) 
CCCN(CC)CC[NH2+]c1c2ccccc2[n+](C)c2cc(OCC[N+]3(O)CCCCC3)ccc12 (protonated)
CCCN(CC)CC[NH2+]c1c2ccccc2[n+](C)c2cc(OCC[N+]3(O)CCCCC3)ccc12 (3D coordinates assigned)
CCCN(CC)CC[NH2+]c1c2ccccc2[n+](C)c2cc(OCC[N+]3(O)CCCCC3)ccc12 (nonaromatic ring conformer: 125.87507287931518 kcal/mol)

>  <smiles>  (23) 
CCCN(CC)CCNc1c2ccccc2[n+](C)c2cc(OCC[N+]3([O-])CCCCC3)ccc12

>  <score_type>  (23) 
oracle

>  <origin>  (23) 
adg

>  <m_score__min__energy>  (23) 
-7.71

>  <m_primary>  (23) 
energy

$$$$
23:0
     RDKit          3D

 48 49  0  0  0  0  0  0  0  0999 V2000
   -5.7350   17.6630  -34.9330 C   0  0  0  0  0  0  0  0  0  0  0  0
   -6.0980   19.0960  -34.5440 C   0  0  0  0  0  0  0  0  0  0  0  0
   -5.9660   19.3010  -33.0820 N   0  0  0  0  0  0  0  0  0  0  0  0
   -5.9660   18.0070  -32.3620 C   0  0  0  0  0  0  0  0  0  0  0  0
   -7.2580   17.8250  -31.5650 C   0  0  0  0  0  0  0  0  0  0  0  0
   -4.7650   20.1100  -32.7520 C   0  0  0  0  0  0  0  0  0  0  0  0
   -3.4950   19.3320  -33.1050 C   0  0  0  0  0  0  0  0  0  0  0  0
   -2.0240   20.2880  -32.7840 S   0  0  0  0  0  0  0  0  0  0  0  0
   -1.5180   21.1100  -34.1590 O   0  0  0  0  0  0  0  0  0  0  0  0
   -2.1400   21.3830  -31.4170 C   0  0  0  0  0  0  0  0  0  0  0  0
   -1.4070   21.1120  -30.2550 C   0  0  0  0  0  0  0  0  0  0  0  0
   -1.4230   22.0180  -29.1930 C   0  0  0  0  0  0  0  0  0  0  0  0
   -2.1610   23.2000  -29.2930 C   0  0  0  0  0  0  0  0  0  0  0  0
   -2.9100   23.4780  -30.4450 C   0  0  0  0  0  0  0  0  0  0  0  0
   -3.6210   24.7220  -30.5030 N   0  0  0  0  0  0  0  0  0  0  0  0
   -5.2490   25.0250  -29.9810 S   0  0  0  0  0  0  0  0  0  0  0  0
   -5.2760   24.9360  -28.4810 O   0  0  0  0  0  0  0  0  0  0  0  0
   -5.7080   26.4000  -30.3720 O   0  0  0  0  0  0  0  0  0  0  0  0
   -6.3170   23.8000  -30.6610 C   0  0  0  0  0  0  0  0  0  0  0  0
   -6.3390   23.5700  -32.0400 C   0  0  0  0  0  0  0  0  0  0  0  0
   -7.1540   22.5650  -32.5660 C   0  0  0  0  0  0  0  0  0  0  0  0
   -7.9510   21.8080  -31.7050 C   0  0  0  0  0  0  0  0  0  0  0  0
   -8.9950   20.5520  -32.3400 Cl  0  0  0  0  0  0  0  0  0  0  0  0
   -7.9200   22.0450  -30.3670 N   0  0  0  0  0  0  0  0  0  0  0  0
   -7.1270   23.0120  -29.8310 C   0  0  0  0  0  0  0  0  0  0  0  0
   -2.8970   22.5580  -31.5100 C   0  0  0  0  0  0  0  0  0  0  0  0
   -5.5831   17.0634  -34.0234 H   0  0  0  0  0  0  0  0  0  0  0  0
   -6.5510   17.2266  -35.5278 H   0  0  0  0  0  0  0  0  0  0  0  0
   -4.8097   17.6677  -35.5278 H   0  0  0  0  0  0  0  0  0  0  0  0
   -5.4251   19.7917  -35.0667 H   0  0  0  0  0  0  0  0  0  0  0  0
   -7.1438   19.2818  -34.8302 H   0  0  0  0  0  0  0  0  0  0  0  0
   -5.8750   17.1890  -33.0918 H   0  0  0  0  0  0  0  0  0  0  0  0
   -5.1173   17.9946  -31.6624 H   0  0  0  0  0  0  0  0  0  0  0  0
   -7.0325   17.8568  -30.4888 H   0  0  0  0  0  0  0  0  0  0  0  0
   -7.9608   18.6330  -31.8164 H   0  0  0  0  0  0  0  0  0  0  0  0
   -7.7102   16.8543  -31.8164 H   0  0  0  0  0  0  0  0  0  0  0  0
   -4.7888   21.0479  -33.3263 H   0  0  0  0  0  0  0  0  0  0  0  0
   -4.7644   20.3315  -31.6745 H   0  0  0  0  0  0  0  0  0  0  0  0
   -3.4611   18.4126  -32.5020 H   0  0  0  0  0  0  0  0  0  0  0  0
   -3.5240   19.0983  -34.1795 H   0  0  0  0  0  0  0  0  0  0  0  0
   -2.3220   21.5920  -34.4760 H   0  0  0  0  0  0  0  0  0  0  0  0
   -0.8188   20.1856  -30.1790 H   0  0  0  0  0  0  0  0  0  0  0  0
   -0.8541   21.8011  -28.2768 H   0  0  0  0  0  0  0  0  0  0  0  0
   -2.1543   23.9189  -28.4605 H   0  0  0  0  0  0  0  0  0  0  0  0
   -5.7151   24.1799  -32.7099 H   0  0  0  0  0  0  0  0  0  0  0  0
   -7.1678   22.3716  -33.6488 H   0  0  0  0  0  0  0  0  0  0  0  0
   -7.1213   23.1761  -28.7433 H   0  0  0  0  0  0  0  0  0  0  0  0
   -3.4831   22.7622  -32.4182 H   0  0  0  0  0  0  0  0  0  0  0  0
  1  2  1  0
  2  3  1  0
  3  4  1  0
  4  5  1  0
  3  6  1  0
  6  7  1  0
  7  8  1  0
  8  9  1  6
  8 10  1  0
 10 11  2  0
 11 12  1  0
 12 13  2  0
 13 14  1  0
 14 15  1  0
 15 16  1  0
 16 17  2  0
 16 18  2  0
 16 19  1  0
 19 20  2  0
 20 21  1  0
 21 22  2  0
 22 23  1  0
 22 24  1  0
 24 25  2  0
 14 26  2  0
 26 10  1  0
 25 19  1  0
  1 27  1  0
  1 28  1  0
  1 29  1  0
  2 30  1  0
  2 31  1  0
  4 32  1  0
  4 33  1  0
  5 34  1  0
  5 35  1  0
  5 36  1  0
  6 37  1  0
  6 38  1  0
  7 39  1  0
  7 40  1  0
  9 41  1  0
 11 42  1  0
 12 43  1  0
 13 44  1  0
 20 45  1  0
 21 46  1  0
 25 47  1  0
 26 48  1  0
M  CHG  2   8   1  15  -1
M  END
>  <UniqueID>  (24) 
24

>  <SMILES>  (24) 
CCN(CC)CC[S@@+](O)c1cccc([N-]S(=O)(=O)c2ccc(Cl)nc2)c1

>  <Energy>  (24) 
44.43096085488329

>  <Genealogy>  (24) 
CCN(CC)CC[S+](O)c1cccc([N-]S(=O)(=O)c2ccc(Cl)nc2)c1 (protonated)
CCN(CC)CC[S@@+](O)c1cccc([N-]S(=O)(=O)c2ccc(Cl)nc2)c1 (chirality)
CCN(CC)CC[S@@+](O)c1cccc([N-]S(=O)(=O)c2ccc(Cl)nc2)c1 (3D coordinates assigned)
CCN(CC)CC[S@@+](O)c1cccc([N-]S(=O)(=O)c2ccc(Cl)nc2)c1 (optimized conformer: 44.43096085488329 kcal/mol)

>  <smiles>  (24) 
CCN(CC)CC[S+]([O-])c1cccc(NS(=O)(=O)c2ccc(Cl)nc2)c1

>  <score_type>  (24) 
oracle

>  <origin>  (24) 
adg

>  <m_score__min__energy>  (24) 
-9.7899999999999991

>  <m_primary>  (24) 
energy

$$$$
24:0
     RDKit          3D

 45 47  0  0  0  0  0  0  0  0999 V2000
   -5.9740   25.6120  -29.8510 C   0  0  0  0  0  0  0  0  0  0  0  0
   -4.7650   24.7050  -29.6420 C   0  0  0  0  0  0  0  0  0  0  0  0
   -4.2360   24.2480  -30.9360 N   0  0  0  0  0  0  0  0  0  0  0  0
   -3.6030   22.9260  -30.8210 C   0  0  0  0  0  0  0  0  0  0  0  0
   -3.4830   22.2700  -32.2010 C   0  0  0  0  0  0  0  0  0  0  0  0
   -4.6610   22.5570  -33.0330 N   0  0  0  0  0  0  0  0  0  0  0  0
   -5.7420   21.6760  -32.6740 C   0  0  0  0  0  0  0  0  0  0  0  0
   -5.8030   20.3210  -32.9350 C   0  0  0  0  0  0  0  0  0  0  0  0
   -4.8960   19.4670  -33.5370 C   0  0  0  0  0  0  0  0  0  0  0  0
   -5.2660   18.1200  -33.6800 C   0  0  0  0  0  0  0  0  0  0  0  0
   -4.3840   17.2170  -34.2910 C   0  0  0  0  0  0  0  0  0  0  0  0
   -4.7430   15.8790  -34.4470 C   0  0  0  0  0  0  0  0  0  0  0  0
   -5.9830   15.4290  -33.9990 C   0  0  0  0  0  0  0  0  0  0  0  0
   -6.8780   16.3100  -33.3860 C   0  0  0  0  0  0  0  0  0  0  0  0
   -6.5450   17.6730  -33.2050 C   0  0  0  0  0  0  0  0  0  0  0  0
   -7.4160   18.5680  -32.5970 N   0  0  0  0  0  0  0  0  0  0  0  0
   -8.7270   18.1250  -32.0890 C   0  0  0  0  0  0  0  0  0  0  0  0
   -7.0220   19.8780  -32.4890 C   0  0  0  0  0  0  0  0  0  0  0  0
   -7.6940   20.9810  -31.9740 C   0  0  0  0  0  0  0  0  0  0  0  0
   -6.9050   22.0760  -32.1040 N   0  0  0  0  0  0  0  0  0  0  0  0
   -7.2510   23.4270  -31.6710 C   0  0  0  0  0  0  0  0  0  0  0  0
   -6.3782   25.9152  -28.8739 H   0  0  0  0  0  0  0  0  0  0  0  0
   -5.6687   26.5058  -30.4149 H   0  0  0  0  0  0  0  0  0  0  0  0
   -6.7467   25.0689  -30.4149 H   0  0  0  0  0  0  0  0  0  0  0  0
   -3.9820   25.2625  -29.1070 H   0  0  0  0  0  0  0  0  0  0  0  0
   -5.0744   23.8285  -29.0538 H   0  0  0  0  0  0  0  0  0  0  0  0
   -3.4960   24.9260  -31.2350 H   0  0  0  0  0  0  0  0  0  0  0  0
   -2.5993   23.0412  -30.3858 H   0  0  0  0  0  0  0  0  0  0  0  0
   -4.2238   22.2878  -30.1750 H   0  0  0  0  0  0  0  0  0  0  0  0
   -2.5853   22.6573  -32.7051 H   0  0  0  0  0  0  0  0  0  0  0  0
   -3.4123   21.1810  -32.0629 H   0  0  0  0  0  0  0  0  0  0  0  0
   -4.9630   23.5490  -32.8910 H   0  0  0  0  0  0  0  0  0  0  0  0
   -4.4310   22.4300  -34.0440 H   0  0  0  0  0  0  0  0  0  0  0  0
   -3.9199   19.8303  -33.8909 H   0  0  0  0  0  0  0  0  0  0  0  0
   -3.4042   17.5661  -34.6489 H   0  0  0  0  0  0  0  0  0  0  0  0
   -4.0449   15.1763  -34.9254 H   0  0  0  0  0  0  0  0  0  0  0  0
   -6.2597   14.3723  -34.1287 H   0  0  0  0  0  0  0  0  0  0  0  0
   -7.8539   15.9389  -33.0398 H   0  0  0  0  0  0  0  0  0  0  0  0
   -8.7145   18.1292  -30.9891 H   0  0  0  0  0  0  0  0  0  0  0  0
   -9.5099   18.8085  -32.4494 H   0  0  0  0  0  0  0  0  0  0  0  0
   -8.9349   17.1067  -32.4494 H   0  0  0  0  0  0  0  0  0  0  0  0
   -8.7016   20.9674  -31.5330 H   0  0  0  0  0  0  0  0  0  0  0  0
   -7.2616   23.4683  -30.5718 H   0  0  0  0  0  0  0  0  0  0  0  0
   -6.5060   24.1380  -32.0575 H   0  0  0  0  0  0  0  0  0  0  0  0
   -8.2461   23.6924  -32.0575 H   0  0  0  0  0  0  0  0  0  0  0  0
  1  2  1  0
  2  3  1  0
  3  4  1  0
  4  5  1  0
  5  6  1  0
  6  7  1  0
  7  8  2  0
  8  9  1  0
  9 10  2  0
 10 11  1  0
 11 12  2  0
 12 13  1  0
 13 14  2  0
 14 15  1  0
 15 16  2  0
 16 17  1  0
 16 18  1  0
 18 19  2  0
 19 20  1  0
 20 21  1  0
 20  7  1  0
 18  8  1  0
 15 10  1  0
  1 22  1  0
  1 23  1  0
  1 24  1  0
  2 25  1  0
  2 26  1  0
  3 27  1  0
  4 28  1  0
  4 29  1  0
  5 30  1  0
  5 31  1  0
  6 32  1  0
  6 33  1  0
  9 34  1  0
 11 35  1  0
 12 36  1  0
 13 37  1  0
 14 38  1  0
 17 39  1  0
 17 40  1  0
 17 41  1  0
 19 42  1  0
 21 43  1  0
 21 44  1  0
 21 45  1  0
M  CHG  2   6   1  16   1
M  END
>  <UniqueID>  (25) 
25

>  <SMILES>  (25) 
CCNCC[NH2+]c1c2cc3ccccc3[n+](C)c2cn1C

>  <Energy>  (25) 
84.65150425290201

>  <Genealogy>  (25) 
CCNCC[NH2+]c1c2cc3ccccc3[n+](C)c2cn1C (protonated)
CCNCC[NH2+]c1c2cc3ccccc3[n+](C)c2cn1C (3D coordinates assigned)
CCNCC[NH2+]c1c2cc3ccccc3[n+](C)c2cn1C (optimized conformer: 84.65150425290201 kcal/mol)

>  <smiles>  (25) 
CCNCCNc1c2cc3ccccc3[n+](C)c2cn1C

>  <score_type>  (25) 
oracle

>  <origin>  (25) 
adg

>  <m_score__min__energy>  (25) 
-6.8300000000000001

>  <m_primary>  (25) 
energy

$$$$
25:0
     RDKit          3D

 58 60  0  0  0  0  0  0  0  0999 V2000
   -1.0850   19.1000  -34.2610 C   0  0  0  0  0  0  0  0  0  0  0  0
   -1.7030   17.7970  -33.7450 C   0  0  0  0  0  0  0  0  0  0  0  0
   -2.8510   17.3660  -34.5610 N   0  0  0  0  0  0  0  0  0  0  0  0
   -4.1020   17.8350  -34.0100 C   0  0  0  0  0  0  0  0  0  0  0  0
   -5.1610   16.9490  -33.7970 C   0  0  0  0  0  0  0  0  0  0  0  0
   -6.3700   17.4010  -33.2690 C   0  0  0  0  0  0  0  0  0  0  0  0
   -6.5520   18.7600  -32.9110 C   0  0  0  0  0  0  0  0  0  0  0  0
   -5.4850   19.6630  -33.1540 C   0  0  0  0  0  0  0  0  0  0  0  0
   -4.2720   19.1880  -33.6910 C   0  0  0  0  0  0  0  0  0  0  0  0
   -5.6590   21.0300  -32.8830 C   0  0  0  0  0  0  0  0  0  0  0  0
   -4.5690   21.9480  -33.0650 N   0  0  0  0  0  0  0  0  0  0  0  0
   -3.6710   22.2320  -31.9480 C   0  0  0  0  0  0  0  0  0  0  0  0
   -4.3970   22.9220  -30.7840 C   0  0  0  0  0  0  0  0  0  0  0  0
   -3.9480   24.3310  -30.6440 N   0  0  0  0  0  0  0  0  0  0  0  0
   -3.2530   24.5400  -29.3510 C   0  0  0  0  0  0  0  0  0  0  0  0
   -1.9380   23.7660  -29.3300 C   0  0  0  0  0  0  0  0  0  0  0  0
   -5.0790   25.2720  -30.8010 C   0  0  0  0  0  0  0  0  0  0  0  0
   -6.1380   25.0400  -29.7210 C   0  0  0  0  0  0  0  0  0  0  0  0
   -6.9220   21.5010  -32.4860 C   0  0  0  0  0  0  0  0  0  0  0  0
   -7.1540   22.8800  -32.2990 C   0  0  0  0  0  0  0  0  0  0  0  0
   -8.4200   23.3490  -31.9590 C   0  0  0  0  0  0  0  0  0  0  0  0
   -9.4750   22.4560  -31.8070 C   0  0  0  0  0  0  0  0  0  0  0  0
   -9.2640   21.0870  -31.9620 C   0  0  0  0  0  0  0  0  0  0  0  0
   -7.9750   20.5740  -32.2660 C   0  0  0  0  0  0  0  0  0  0  0  0
   -7.7350   19.2160  -32.3590 N   0  0  0  0  0  0  0  0  0  0  0  0
   -8.7320   18.2500  -31.8460 C   0  0  0  0  0  0  0  0  0  0  0  0
   -0.7873   19.7276  -33.4081 H   0  0  0  0  0  0  0  0  0  0  0  0
   -0.2004   18.8692  -34.8728 H   0  0  0  0  0  0  0  0  0  0  0  0
   -1.8234   19.6390  -34.8728 H   0  0  0  0  0  0  0  0  0  0  0  0
   -0.9366   17.0082  -33.7666 H   0  0  0  0  0  0  0  0  0  0  0  0
   -2.0637   17.9757  -32.7213 H   0  0  0  0  0  0  0  0  0  0  0  0
   -2.7420   17.7540  -35.5280 H   0  0  0  0  0  0  0  0  0  0  0  0
   -2.8510   16.3230  -34.6500 H   0  0  0  0  0  0  0  0  0  0  0  0
   -5.0400   15.8849  -34.0481 H   0  0  0  0  0  0  0  0  0  0  0  0
   -7.1972   16.6898  -33.1279 H   0  0  0  0  0  0  0  0  0  0  0  0
   -3.4444   19.8920  -33.8626 H   0  0  0  0  0  0  0  0  0  0  0  0
   -4.6360   22.6300  -33.8540 H   0  0  0  0  0  0  0  0  0  0  0  0
   -3.2429   21.2850  -31.5875 H   0  0  0  0  0  0  0  0  0  0  0  0
   -2.8863   22.9130  -32.3090 H   0  0  0  0  0  0  0  0  0  0  0  0
   -5.4803   22.9058  -30.9742 H   0  0  0  0  0  0  0  0  0  0  0  0
   -4.1638   22.3833  -29.8537 H   0  0  0  0  0  0  0  0  0  0  0  0
   -3.0460   25.6122  -29.2186 H   0  0  0  0  0  0  0  0  0  0  0  0
   -3.8959   24.1788  -28.5348 H   0  0  0  0  0  0  0  0  0  0  0  0
   -1.6343   23.5873  -28.2880 H   0  0  0  0  0  0  0  0  0  0  0  0
   -2.0715   22.8024  -29.8435 H   0  0  0  0  0  0  0  0  0  0  0  0
   -1.1603   24.3504  -29.8435 H   0  0  0  0  0  0  0  0  0  0  0  0
   -4.7033   26.3028  -30.7212 H   0  0  0  0  0  0  0  0  0  0  0  0
   -5.5398   25.1055  -31.7858 H   0  0  0  0  0  0  0  0  0  0  0  0
   -5.6768   25.1410  -28.7275 H   0  0  0  0  0  0  0  0  0  0  0  0
   -6.9414   25.7834  -29.8296 H   0  0  0  0  0  0  0  0  0  0  0  0
   -6.5570   24.0288  -29.8296 H   0  0  0  0  0  0  0  0  0  0  0  0
   -6.3253   23.5926  -32.4232 H   0  0  0  0  0  0  0  0  0  0  0  0
   -8.5857   24.4263  -31.8106 H   0  0  0  0  0  0  0  0  0  0  0  0
  -10.4799   22.8314  -31.5635 H   0  0  0  0  0  0  0  0  0  0  0  0
  -10.1094   20.3927  -31.8470 H   0  0  0  0  0  0  0  0  0  0  0  0
   -8.7208   18.2608  -30.7461 H   0  0  0  0  0  0  0  0  0  0  0  0
   -9.7331   18.5306  -32.2053 H   0  0  0  0  0  0  0  0  0  0  0  0
   -8.4831   17.2406  -32.2053 H   0  0  0  0  0  0  0  0  0  0  0  0
  1  2  1  0
  2  3  1  0
  3  4  1  0
  4  5  2  0
  5  6  1  0
  6  7  2  0
  7  8  1  0
  8  9  2  0
  8 10  1  0
 10 11  1  0
 11 12  1  0
 12 13  1  0
 13 14  1  0
 14 15  1  0
 15 16  1  0
 14 17  1  0
 17 18  1  0
 10 19  2  0
 19 20  1  0
 20 21  2  0
 21 22  1  0
 22 23  2  0
 23 24  1  0
 24 25  2  0
 25 26  1  0
  9  4  1  0
 24 19  1  0
 25  7  1  0
  1 27  1  0
  1 28  1  0
  1 29  1  0
  2 30  1  0
  2 31  1  0
  3 32  1  0
  3 33  1  0
  5 34  1  0
  6 35  1  0
  9 36  1  0
 11 37  1  0
 12 38  1  0
 12 39  1  0
 13 40  1  0
 13 41  1  0
 15 42  1  0
 15 43  1  0
 16 44  1  0
 16 45  1  0
 16 46  1  0
 17 47  1  0
 17 48  1  0
 18 49  1  0
 18 50  1  0
 18 51  1  0
 20 52  1  0
 21 53  1  0
 22 54  1  0
 23 55  1  0
 26 56  1  0
 26 57  1  0
 26 58  1  0
M  CHG  2   3   1  25   1
M  END
>  <UniqueID>  (26) 
26

>  <SMILES>  (26) 
CC[NH2+]c1ccc2c(c1)c(NCCN(CC)CC)c1ccccc1[n+]2C

>  <Energy>  (26) 
81.58742892311244

>  <Genealogy>  (26) 
CC[NH2+]c1ccc2c(c1)c(NCCN(CC)CC)c1ccccc1[n+]2C (protonated)
CC[NH2+]c1ccc2c(c1)c(NCCN(CC)CC)c1ccccc1[n+]2C (3D coordinates assigned)
CC[NH2+]c1ccc2c(c1)c(NCCN(CC)CC)c1ccccc1[n+]2C (optimized conformer: 81.58742892311244 kcal/mol)

>  <smiles>  (26) 
CCNc1ccc2c(c1)c(NCCN(CC)CC)c1ccccc1[n+]2C

>  <score_type>  (26) 
oracle

>  <origin>  (26) 
adg

>  <m_score__min__energy>  (26) 
-8.1699999999999999

>  <m_primary>  (26) 
energy

$$$$
