0:0
     RDKit          3D

 36 37  0  0  0  0  0  0  0  0999 V2000
   -4.2870   20.5270  -32.2110 C   0  0  0  0  0  0  0  0  0  0  0  0
   -5.3850   20.9080  -33.1140 N   0  0  0  0  0  0  0  0  0  0  0  0
   -5.8700   19.7310  -33.8560 C   0  0  0  0  0  0  0  0  0  0  0  0
   -6.4550   21.5240  -32.3540 C   0  0  0  0  0  0  0  0  0  0  0  0
   -7.5860   20.9580  -32.3000 O   0  0  0  0  0  0  0  0  0  0  0  0
   -6.2480   22.7780  -31.5750 C   0  0  0  0  0  0  0  0  0  0  0  0
   -7.3420   23.3900  -30.9360 C   0  0  0  0  0  0  0  0  0  0  0  0
   -7.1650   24.5520  -30.1800 C   0  0  0  0  0  0  0  0  0  0  0  0
   -5.8930   25.1040  -30.0290 C   0  0  0  0  0  0  0  0  0  0  0  0
   -4.7860   24.4970  -30.6270 C   0  0  0  0  0  0  0  0  0  0  0  0
   -3.4880   25.0810  -30.4370 N   0  0  0  0  0  0  0  0  0  0  0  0
   -2.5520   24.7570  -29.3980 C   0  0  0  0  0  0  0  0  0  0  0  0
   -1.8020   25.6670  -28.9570 O   0  0  0  0  0  0  0  0  0  0  0  0
   -2.4700   23.4010  -28.8070 C   0  0  0  0  0  0  0  0  0  0  0  0
   -1.3050   22.6250  -28.9420 C   0  0  0  0  0  0  0  0  0  0  0  0
   -1.2250   21.3610  -28.3520 C   0  0  0  0  0  0  0  0  0  0  0  0
   -2.3100   20.8530  -27.6310 C   0  0  0  0  0  0  0  0  0  0  0  0
   -2.2030   19.2720  -26.8800 Cl  0  0  0  0  0  0  0  0  0  0  0  0
   -3.4800   21.6080  -27.5090 C   0  0  0  0  0  0  0  0  0  0  0  0
   -3.5640   22.8740  -28.0980 C   0  0  0  0  0  0  0  0  0  0  0  0
   -4.9710   23.3530  -31.4260 C   0  0  0  0  0  0  0  0  0  0  0  0
   -4.6146   20.6407  -31.1671 H   0  0  0  0  0  0  0  0  0  0  0  0
   -4.0073   19.4793  -32.3955 H   0  0  0  0  0  0  0  0  0  0  0  0
   -3.4185   21.1763  -32.3955 H   0  0  0  0  0  0  0  0  0  0  0  0
   -5.0210   21.5780  -33.8300 H   0  0  0  0  0  0  0  0  0  0  0  0
   -6.1897   18.9552  -33.1446 H   0  0  0  0  0  0  0  0  0  0  0  0
   -6.7216   20.0217  -34.4886 H   0  0  0  0  0  0  0  0  0  0  0  0
   -5.0608   19.3374  -34.4886 H   0  0  0  0  0  0  0  0  0  0  0  0
   -8.3455   22.9499  -31.0323 H   0  0  0  0  0  0  0  0  0  0  0  0
   -8.0315   25.0328  -29.7025 H   0  0  0  0  0  0  0  0  0  0  0  0
   -5.7610   26.0213  -29.4364 H   0  0  0  0  0  0  0  0  0  0  0  0
   -0.4515   23.0155  -29.5156 H   0  0  0  0  0  0  0  0  0  0  0  0
   -0.3066   20.7643  -28.4549 H   0  0  0  0  0  0  0  0  0  0  0  0
   -4.3367   21.2057  -26.9485 H   0  0  0  0  0  0  0  0  0  0  0  0
   -4.4903   23.4601  -28.0061 H   0  0  0  0  0  0  0  0  0  0  0  0
   -4.1086   22.9031  -31.9397 H   0  0  0  0  0  0  0  0  0  0  0  0
  1  2  1  0
  2  3  1  0
  2  4  1  0
  4  5  2  0
  4  6  1  0
  6  7  2  0
  7  8  1  0
  8  9  2  0
  9 10  1  0
 10 11  1  0
 11 12  1  0
 12 13  2  0
 12 14  1  0
 14 15  2  0
 15 16  1  0
 16 17  2  0
 17 18  1  0
 17 19  1  0
 19 20  2  0
 10 21  2  0
 21  6  1  0
 20 14  1  0
  1 22  1  0
  1 23  1  0
  1 24  1  0
  2 25  1  0
  3 26  1  0
  3 27  1  0
  3 28  1  0
  7 29  1  0
  8 30  1  0
  9 31  1  0
 15 32  1  0
 16 33  1  0
 19 34  1  0
 20 35  1  0
 21 36  1  0
M  CHG  2   2   1  11  -1
M  END
>  <UniqueID>  (1) 
1

>  <SMILES>  (1) 
C[NH+](C)C(=O)c1cccc([N-]C(=O)c2ccc(Cl)cc2)c1

>  <Energy>  (1) 
45.40882764978744

>  <Genealogy>  (1) 
C[NH+](C)C(=O)c1cccc([N-]C(=O)c2ccc(Cl)cc2)c1 (protonated)
C[NH+](C)C(=O)c1cccc([N-]C(=O)c2ccc(Cl)cc2)c1 (3D coordinates assigned)
C[NH+](C)C(=O)c1cccc([N-]C(=O)c2ccc(Cl)cc2)c1 (optimized conformer: 45.40882764978744 kcal/mol)

>  <smiles>  (1) 
CN(C)C(=O)c1cccc(NC(=O)c2ccc(Cl)cc2)c1

>  <score_type>  (1) 
oracle

>  <origin>  (1) 
adg

>  <m_score__min__energy>  (1) 
-9.0800000000000001

>  <m_primary>  (1) 
energy

$$$$
1:0
     RDKit          3D

 39 41  0  0  0  0  0  0  0  0999 V2000
   -1.9550   25.2740  -27.5710 C   0  0  0  0  0  0  0  0  0  0  0  0
   -2.1700   25.4020  -28.9720 O   0  0  0  0  0  0  0  0  0  0  0  0
   -2.9500   24.5220  -29.7380 C   0  0  0  0  0  0  0  0  0  0  0  0
   -2.4830   23.2590  -30.1430 C   0  0  0  0  0  0  0  0  0  0  0  0
   -3.3010   22.4160  -30.8980 C   0  0  0  0  0  0  0  0  0  0  0  0
   -4.5970   22.8120  -31.2570 C   0  0  0  0  0  0  0  0  0  0  0  0
   -5.0630   24.0920  -30.8760 C   0  0  0  0  0  0  0  0  0  0  0  0
   -4.2380   24.9260  -30.1050 C   0  0  0  0  0  0  0  0  0  0  0  0
   -6.4720   24.5450  -31.1890 C   0  0  0  0  0  0  0  0  0  0  0  0
   -7.0910   23.7550  -32.3420 C   0  0  0  0  0  0  0  0  0  0  0  0
   -6.8310   22.3310  -32.1400 N   0  0  0  0  0  0  0  0  0  0  0  0
   -7.8600   21.4820  -31.6110 C   0  0  0  0  0  0  0  0  0  0  0  0
   -8.6920   21.9540  -30.7890 O   0  0  0  0  0  0  0  0  0  0  0  0
   -7.9460   20.1020  -32.0010 N   0  0  0  0  0  0  0  0  0  0  0  0
   -9.0720   19.2510  -31.6590 C   0  0  0  0  0  0  0  0  0  0  0  0
   -8.6270   17.8300  -31.9760 C   0  0  0  0  0  0  0  0  0  0  0  0
   -7.3810   17.9620  -32.8490 C   0  0  0  0  0  0  0  0  0  0  0  0
   -6.8490   19.3690  -32.6110 C   0  0  0  0  0  0  0  0  0  0  0  0
   -5.4320   21.8970  -32.1190 C   0  0  0  0  0  0  0  0  0  0  0  0
   -2.7768   25.7633  -27.0277 H   0  0  0  0  0  0  0  0  0  0  0  0
   -1.9204   24.2082  -27.3012 H   0  0  0  0  0  0  0  0  0  0  0  0
   -1.0015   25.7516  -27.3012 H   0  0  0  0  0  0  0  0  0  0  0  0
   -1.4698   22.9340  -29.8641 H   0  0  0  0  0  0  0  0  0  0  0  0
   -2.9249   21.4318  -31.2141 H   0  0  0  0  0  0  0  0  0  0  0  0
   -4.6094   25.9107  -29.7850 H   0  0  0  0  0  0  0  0  0  0  0  0
   -7.0948   24.4096  -30.2925 H   0  0  0  0  0  0  0  0  0  0  0  0
   -6.4273   25.6020  -31.4902 H   0  0  0  0  0  0  0  0  0  0  0  0
   -8.1765   23.9311  -32.3683 H   0  0  0  0  0  0  0  0  0  0  0  0
   -6.6480   24.0811  -33.2946 H   0  0  0  0  0  0  0  0  0  0  0  0
   -9.3147   19.3473  -30.5904 H   0  0  0  0  0  0  0  0  0  0  0  0
   -9.9755   19.5281  -32.2219 H   0  0  0  0  0  0  0  0  0  0  0  0
   -8.3880   17.2888  -31.0486 H   0  0  0  0  0  0  0  0  0  0  0  0
   -9.4195   17.2654  -32.4890 H   0  0  0  0  0  0  0  0  0  0  0  0
   -6.6287   17.2144  -32.5570 H   0  0  0  0  0  0  0  0  0  0  0  0
   -7.6133   17.7933  -33.9109 H   0  0  0  0  0  0  0  0  0  0  0  0
   -5.9816   19.3426  -31.9350 H   0  0  0  0  0  0  0  0  0  0  0  0
   -6.5130   19.8414  -33.5459 H   0  0  0  0  0  0  0  0  0  0  0  0
   -5.3781   20.8747  -31.7165 H   0  0  0  0  0  0  0  0  0  0  0  0
   -5.0394   21.9268  -33.1461 H   0  0  0  0  0  0  0  0  0  0  0  0
  1  2  1  0
  2  3  1  0
  3  4  2  0
  4  5  1  0
  5  6  2  0
  6  7  1  0
  7  8  2  0
  7  9  1  0
  9 10  1  0
 10 11  1  0
 11 12  1  0
 12 13  2  0
 12 14  1  0
 14 15  1  0
 15 16  1  0
 16 17  1  0
 17 18  1  0
 11 19  1  0
  8  3  1  0
 18 14  1  0
 19  6  1  0
  1 20  1  0
  1 21  1  0
  1 22  1  0
  4 23  1  0
  5 24  1  0
  8 25  1  0
  9 26  1  0
  9 27  1  0
 10 28  1  0
 10 29  1  0
 15 30  1  0
 15 31  1  0
 16 32  1  0
 16 33  1  0
 17 34  1  0
 17 35  1  0
 18 36  1  0
 18 37  1  0
 19 38  1  0
 19 39  1  0
M  END
>  <UniqueID>  (2) 
2

>  <SMILES>  (2) 
COc1ccc2c(c1)CCN(C(=O)N1CCCC1)C2

>  <Energy>  (2) 
44.31038762909769

>  <Genealogy>  (2) 
COc1ccc2c(c1)CCN(C(=O)N1CCCC1)C2 (3D coordinates assigned)
COc1ccc2c(c1)CCN(C(=O)N1CCCC1)C2 (nonaromatic ring conformer: 44.31038762909769 kcal/mol)

>  <smiles>  (2) 
COc1ccc2c(c1)CCN(C(=O)N1CCCC1)C2

>  <score_type>  (2) 
oracle

>  <origin>  (2) 
adg

>  <m_score__min__energy>  (2) 
-7.3600000000000003

>  <m_primary>  (2) 
energy

$$$$
2:0
     RDKit          3D

 56 59  0  0  0  0  0  0  0  0999 V2000
   -0.6500   23.8240  -29.3470 C   0  0  0  0  0  0  0  0  0  0  0  0
   -1.3670   24.5190  -28.2400 C   0  0  0  0  0  0  0  0  0  0  0  0
   -0.8000   25.4430  -27.4380 N   0  0  0  0  0  0  0  0  0  0  0  0
   -1.7070   25.8130  -26.5440 N   0  0  0  0  0  0  0  0  0  0  0  0
   -1.4580   26.8140  -25.5130 C   0  0  0  0  0  0  0  0  0  0  0  0
   -2.8640   25.1500  -26.7600 C   0  0  0  0  0  0  0  0  0  0  0  0
   -4.1100   25.2900  -25.9400 C   0  0  0  0  0  0  0  0  0  0  0  0
   -2.6660   24.2970  -27.8270 C   0  0  0  0  0  0  0  0  0  0  0  0
   -3.6040   23.3640  -28.3790 N   0  0  0  0  0  0  0  0  0  0  0  0
   -4.1310   22.2740  -27.5510 C   0  0  0  0  0  0  0  0  0  0  0  0
   -3.1460   21.1380  -27.4710 C   0  0  0  0  0  0  0  0  0  0  0  0
   -1.9200   21.2180  -28.1490 C   0  0  0  0  0  0  0  0  0  0  0  0
   -1.0350   20.1420  -28.0980 C   0  0  0  0  0  0  0  0  0  0  0  0
   -1.3720   19.0000  -27.3720 C   0  0  0  0  0  0  0  0  0  0  0  0
   -2.5950   18.9540  -26.6990 C   0  0  0  0  0  0  0  0  0  0  0  0
   -3.4490   20.0130  -26.7570 N   0  0  0  0  0  0  0  0  0  0  0  0
   -4.4060   23.7790  -29.8660 S   0  0  0  0  0  0  0  0  0  0  0  0
   -5.6630   24.5290  -29.5250 O   0  0  0  0  0  0  0  0  0  0  0  0
   -3.5140   24.6690  -30.6870 O   0  0  0  0  0  0  0  0  0  0  0  0
   -4.7940   22.3370  -30.8160 C   0  0  0  0  0  0  0  0  0  0  0  0
   -3.8930   21.2650  -30.8400 C   0  0  0  0  0  0  0  0  0  0  0  0
   -4.1730   20.1110  -31.5730 C   0  0  0  0  0  0  0  0  0  0  0  0
   -5.3590   20.0130  -32.3170 C   0  0  0  0  0  0  0  0  0  0  0  0
   -5.6670   18.7860  -33.0900 C   0  0  0  0  0  0  0  0  0  0  0  0
   -6.7840   18.0020  -32.7480 C   0  0  0  0  0  0  0  0  0  0  0  0
   -7.0810   16.8390  -33.4660 C   0  0  0  0  0  0  0  0  0  0  0  0
   -6.2690   16.4500  -34.5340 C   0  0  0  0  0  0  0  0  0  0  0  0
   -5.1610   17.2230  -34.8880 C   0  0  0  0  0  0  0  0  0  0  0  0
   -4.8570   18.3870  -34.1730 C   0  0  0  0  0  0  0  0  0  0  0  0
   -3.7970   19.1390  -34.5640 F   0  0  0  0  0  0  0  0  0  0  0  0
   -6.2570   21.0930  -32.3110 C   0  0  0  0  0  0  0  0  0  0  0  0
   -5.9800   22.2520  -31.5760 C   0  0  0  0  0  0  0  0  0  0  0  0
   -7.1310   23.5810  -31.6650 Cl  0  0  0  0  0  0  0  0  0  0  0  0
    0.0793   23.1171  -28.9246 H   0  0  0  0  0  0  0  0  0  0  0  0
   -1.3752   23.2762  -29.9666 H   0  0  0  0  0  0  0  0  0  0  0  0
   -0.1250   24.5660  -29.9666 H   0  0  0  0  0  0  0  0  0  0  0  0
   -1.5724   26.3542  -24.5203 H   0  0  0  0  0  0  0  0  0  0  0  0
   -0.4353   27.2046  -25.6205 H   0  0  0  0  0  0  0  0  0  0  0  0
   -2.1785   27.6382  -25.6205 H   0  0  0  0  0  0  0  0  0  0  0  0
   -3.8509   25.2609  -24.8714 H   0  0  0  0  0  0  0  0  0  0  0  0
   -4.5967   26.2485  -26.1733 H   0  0  0  0  0  0  0  0  0  0  0  0
   -4.7973   24.4634  -26.1733 H   0  0  0  0  0  0  0  0  0  0  0  0
   -4.3266   22.6536  -26.5373 H   0  0  0  0  0  0  0  0  0  0  0  0
   -5.0605   21.9028  -28.0073 H   0  0  0  0  0  0  0  0  0  0  0  0
   -1.6591   22.1233  -28.7167 H   0  0  0  0  0  0  0  0  0  0  0  0
   -0.0731   20.1937  -28.6292 H   0  0  0  0  0  0  0  0  0  0  0  0
   -0.6819   18.1445  -27.3298 H   0  0  0  0  0  0  0  0  0  0  0  0
   -2.8691   18.0596  -26.1204 H   0  0  0  0  0  0  0  0  0  0  0  0
   -4.3560   19.9480  -26.2430 H   0  0  0  0  0  0  0  0  0  0  0  0
   -2.9525   21.3336  -30.2737 H   0  0  0  0  0  0  0  0  0  0  0  0
   -3.4601   19.2733  -31.5676 H   0  0  0  0  0  0  0  0  0  0  0  0
   -7.4284   18.3058  -31.9099 H   0  0  0  0  0  0  0  0  0  0  0  0
   -7.9545   16.2303  -33.1895 H   0  0  0  0  0  0  0  0  0  0  0  0
   -6.5025   15.5341  -35.0967 H   0  0  0  0  0  0  0  0  0  0  0  0
   -4.5252   16.9159  -35.7315 H   0  0  0  0  0  0  0  0  0  0  0  0
   -7.1894   21.0274  -32.8909 H   0  0  0  0  0  0  0  0  0  0  0  0
  1  2  1  0
  2  3  2  0
  3  4  1  0
  4  5  1  0
  4  6  1  0
  6  7  1  0
  6  8  2  0
  8  9  1  0
  9 10  1  0
 10 11  1  0
 11 12  2  0
 12 13  1  0
 13 14  2  0
 14 15  1  0
 15 16  2  0
  9 17  1  0
 17 18  2  0
 17 19  2  0
 17 20  1  0
 20 21  2  0
 21 22  1  0
 22 23  2  0
 23 24  1  0
 24 25  2  0
 25 26  1  0
 26 27  2  0
 27 28  1  0
 28 29  2  0
 29 30  1  0
 23 31  1  0
 31 32  2  0
 32 33  1  0
  8  2  1  0
 16 11  1  0
 32 20  1  0
 29 24  1  0
  1 34  1  0
  1 35  1  0
  1 36  1  0
  5 37  1  0
  5 38  1  0
  5 39  1  0
  7 40  1  0
  7 41  1  0
  7 42  1  0
 10 43  1  0
 10 44  1  0
 12 45  1  0
 13 46  1  0
 14 47  1  0
 15 48  1  0
 16 49  1  0
 21 50  1  0
 22 51  1  0
 25 52  1  0
 26 53  1  0
 27 54  1  0
 28 55  1  0
 31 56  1  0
M  CHG  1  16   1
M  END
>  <UniqueID>  (3) 
3

>  <SMILES>  (3) 
Cc1nn(C)c(C)c1N(Cc1cccc[nH+]1)S(=O)(=O)c1ccc(-c2ccccc2F)cc1Cl

>  <Energy>  (3) 
99.97516741460079

>  <Genealogy>  (3) 
Cc1nn(C)c(C)c1N(Cc1cccc[nH+]1)S(=O)(=O)c1ccc(-c2ccccc2F)cc1Cl (protonated)
Cc1nn(C)c(C)c1N(Cc1cccc[nH+]1)S(=O)(=O)c1ccc(-c2ccccc2F)cc1Cl (3D coordinates assigned)
Cc1nn(C)c(C)c1N(Cc1cccc[nH+]1)S(=O)(=O)c1ccc(-c2ccccc2F)cc1Cl (optimized conformer: 99.97516741460079 kcal/mol)

>  <smiles>  (3) 
Cc1nn(C)c(C)c1N(Cc1ccccn1)S(=O)(=O)c1ccc(-c2ccccc2F)cc1Cl

>  <score_type>  (3) 
oracle

>  <origin>  (3) 
adg

>  <m_score__min__energy>  (3) 
-9.9900000000000002

>  <m_primary>  (3) 
energy

$$$$
3:0
     RDKit          3D

 31 33  0  0  1  0  0  0  0  0999 V2000
   -4.6280   14.6600  -32.3700 C   0  0  0  0  0  0  0  0  0  0  0  0
   -5.1460   15.9960  -32.8000 C   0  0  0  0  0  0  0  0  0  0  0  0
   -5.0510   16.4280  -34.1180 C   0  0  0  0  0  0  0  0  0  0  0  0
   -5.5340   17.6650  -34.4990 C   0  0  0  0  0  0  0  0  0  0  0  0
   -6.1180   18.4820  -33.5570 C   0  0  0  0  0  0  0  0  0  0  0  0
   -6.6430   19.7700  -33.8540 N   0  0  0  0  0  0  0  0  0  0  0  0
   -7.4330   20.4120  -33.0650 C   0  0  0  0  0  0  0  0  0  0  0  0
   -8.7150   20.0300  -32.9320 N   0  0  0  0  0  0  0  0  0  0  0  0
   -9.4920   20.7360  -32.0950 C   0  0  0  0  0  0  0  0  0  0  0  0
   -9.0210   21.8000  -31.3990 N   0  0  0  0  0  0  0  0  0  0  0  0
   -7.7250   22.1940  -31.5260 C   0  0  0  0  0  0  0  0  0  0  0  0
   -7.2380   23.2920  -30.8090 C   0  0  0  0  0  0  0  0  0  0  0  0
   -5.9150   23.6190  -30.9990 C   0  0  0  0  0  0  0  0  0  0  0  0
   -5.2490   24.9850  -30.1260 Cl  0  0  0  0  0  0  0  0  0  0  0  0
   -5.0710   22.9360  -31.8400 C   0  0  0  0  0  0  0  0  0  0  0  0
   -5.5630   21.8460  -32.5500 C   0  0  0  0  0  0  0  0  0  0  0  0
   -6.8960   21.4930  -32.3770 C   0  0  0  0  0  0  0  0  0  0  0  0
   -6.2260   18.0700  -32.2250 C   0  0  0  0  0  0  0  0  0  0  0  0
   -5.7400   16.8330  -31.8550 C   0  0  0  0  0  0  0  0  0  0  0  0
   -4.6088   14.6105  -31.2713 H   0  0  0  0  0  0  0  0  0  0  0  0
   -5.2846   13.8689  -32.7613 H   0  0  0  0  0  0  0  0  0  0  0  0
   -3.6098   14.5183  -32.7613 H   0  0  0  0  0  0  0  0  0  0  0  0
   -4.5838   15.7745  -34.8694 H   0  0  0  0  0  0  0  0  0  0  0  0
   -5.4528   17.9943  -35.5454 H   0  0  0  0  0  0  0  0  0  0  0  0
   -9.0630   19.2100  -33.4750 H   0  0  0  0  0  0  0  0  0  0  0  0
  -10.5445   20.4417  -31.9699 H   0  0  0  0  0  0  0  0  0  0  0  0
   -7.8816   23.8662  -30.1263 H   0  0  0  0  0  0  0  0  0  0  0  0
   -4.0215   23.2464  -31.9504 H   0  0  0  0  0  0  0  0  0  0  0  0
   -4.9132   21.2774  -33.2315 H   0  0  0  0  0  0  0  0  0  0  0  0
   -6.6949   18.7273  -31.4779 H   0  0  0  0  0  0  0  0  0  0  0  0
   -5.8213   16.5046  -30.8083 H   0  0  0  0  0  0  0  0  0  0  0  0
  1  2  1  0
  2  3  2  0
  3  4  1  0
  4  5  2  0
  5  6  1  0
  6  7  2  0
  7  8  1  0
  8  9  1  0
  9 10  2  0
 10 11  1  0
 11 12  2  0
 12 13  1  0
 13 14  1  0
 13 15  2  0
 15 16  1  0
 16 17  2  0
  5 18  1  0
 18 19  2  0
 19  2  1  0
 17  7  1  0
 17 11  1  0
  1 20  1  0
  1 21  1  0
  1 22  1  0
  3 23  1  0
  4 24  1  0
  8 25  1  0
  9 26  1  0
 12 27  1  0
 15 28  1  0
 16 29  1  0
 18 30  1  0
 19 31  1  0
M  END
>  <smiles>  (4) 
Cc1ccc(N=c2[nH]cnc3cc(Cl)ccc23)cc1

>  <score_type>  (4) 
oracle

>  <origin>  (4) 
adg

>  <m_score__min__energy>  (4) 
-7.9000000000000004

>  <m_primary>  (4) 
energy

$$$$
4:0
     RDKit          3D

 45 47  0  0  0  0  0  0  0  0999 V2000
   -1.7363   26.0855  -28.4193 H   0  0  0  0  0  0  0  0  0  0  0  0
   -1.9650   25.0780  -28.7970 C   0  0  0  0  0  0  0  0  0  0  0  0
   -2.9400   24.9080  -29.7290 N   0  0  0  0  0  0  0  0  0  0  0  0
   -3.2640   23.6790  -30.2210 C   0  0  0  0  0  0  0  0  0  0  0  0
   -4.1970   23.5420  -31.1160 N   0  0  0  0  0  0  0  0  0  0  0  0
   -4.1140   22.6640  -32.2830 C   0  0  0  0  0  0  0  0  0  0  0  0
   -3.2179   22.0319  -32.1966 H   0  0  0  0  0  0  0  0  0  0  0  0
   -4.0568   23.2844  -33.1895 H   0  0  0  0  0  0  0  0  0  0  0  0
   -5.3360   21.7820  -32.3740 C   0  0  0  0  0  0  0  0  0  0  0  0
   -5.2170   20.4660  -32.8480 C   0  0  0  0  0  0  0  0  0  0  0  0
   -4.2361   20.0877  -33.1716 H   0  0  0  0  0  0  0  0  0  0  0  0
   -6.3380   19.6340  -32.9110 C   0  0  0  0  0  0  0  0  0  0  0  0
   -6.1610   17.8430  -33.5500 Br  0  0  0  0  0  0  0  0  0  0  0  0
   -7.5850   20.1070  -32.4970 C   0  0  0  0  0  0  0  0  0  0  0  0
   -8.4648   19.4485  -32.5455 H   0  0  0  0  0  0  0  0  0  0  0  0
   -7.7190   21.4150  -32.0210 C   0  0  0  0  0  0  0  0  0  0  0  0
   -9.2920   21.9580  -31.4540 Cl  0  0  0  0  0  0  0  0  0  0  0  0
   -6.5980   22.2620  -31.9660 C   0  0  0  0  0  0  0  0  0  0  0  0
   -6.7230   23.5690  -31.4880 O   0  0  0  0  0  0  0  0  0  0  0  0
   -6.8620   23.8470  -30.0990 C   0  0  0  0  0  0  0  0  0  0  0  0
   -6.2009   23.1819  -29.5241 H   0  0  0  0  0  0  0  0  0  0  0  0
   -7.9057   23.6797  -29.7944 H   0  0  0  0  0  0  0  0  0  0  0  0
   -6.4820   25.2940  -29.8310 C   0  0  0  0  0  0  0  0  0  0  0  0
   -5.9461   25.3593  -28.8726 H   0  0  0  0  0  0  0  0  0  0  0  0
   -7.3943   25.9071  -29.7881 H   0  0  0  0  0  0  0  0  0  0  0  0
   -5.6660   25.7600  -30.8460 F   0  0  0  0  0  0  0  0  0  0  0  0
   -2.5840   22.5490  -29.7550 C   0  0  0  0  0  0  0  0  0  0  0  0
   -2.8395   21.5508  -30.1401 H   0  0  0  0  0  0  0  0  0  0  0  0
   -1.5790   22.6970  -28.7980 C   0  0  0  0  0  0  0  0  0  0  0  0
   -1.0444   21.8124  -28.4216 H   0  0  0  0  0  0  0  0  0  0  0  0
   -1.2500   23.9710  -28.3160 C   0  0  0  0  0  0  0  0  0  0  0  0
   -0.1950   24.1420  -27.2570 C   0  0  0  0  0  0  0  0  0  0  0  0
   -0.2108   23.2717  -26.5844 H   0  0  0  0  0  0  0  0  0  0  0  0
    0.7894   24.2247  -27.7409 H   0  0  0  0  0  0  0  0  0  0  0  0
   -0.4570   25.3910  -26.4600 C   0  0  0  0  0  0  0  0  0  0  0  0
    0.0530   26.6270  -26.8900 C   0  0  0  0  0  0  0  0  0  0  0  0
    0.6228   26.6880  -27.8289 H   0  0  0  0  0  0  0  0  0  0  0  0
   -0.1610   27.7800  -26.1290 C   0  0  0  0  0  0  0  0  0  0  0  0
    0.2344   28.7468  -26.4738 H   0  0  0  0  0  0  0  0  0  0  0  0
   -0.8770   27.7060  -24.9300 C   0  0  0  0  0  0  0  0  0  0  0  0
   -1.0464   28.6145  -24.3335 H   0  0  0  0  0  0  0  0  0  0  0  0
   -1.3770   26.4780  -24.4900 C   0  0  0  0  0  0  0  0  0  0  0  0
   -1.9384   26.4202  -23.5458 H   0  0  0  0  0  0  0  0  0  0  0  0
   -1.1650   25.3220  -25.2480 C   0  0  0  0  0  0  0  0  0  0  0  0
   -1.5537   24.3556  -24.8944 H   0  0  0  0  0  0  0  0  0  0  0  0
  1  2  1  0
  2  3  1  0
  3  4  1  0
  4  5  2  0
  5  6  1  0
  6  7  1  0
  6  8  1  0
  6  9  1  0
  9 10  2  0
 10 11  1  0
 10 12  1  0
 12 13  1  0
 12 14  2  0
 14 15  1  0
 14 16  1  0
 16 17  1  0
 16 18  2  0
 18 19  1  0
 19 20  1  0
 20 21  1  0
 20 22  1  0
 20 23  1  0
 23 24  1  0
 23 25  1  0
 23 26  1  0
  4 27  1  0
 27 28  1  0
 27 29  2  0
 29 30  1  0
 29 31  1  0
 31 32  1  0
 32 33  1  0
 32 34  1  0
 32 35  1  0
 35 36  2  0
 36 37  1  0
 36 38  1  0
 38 39  1  0
 38 40  2  0
 40 41  1  0
 40 42  1  0
 42 43  1  0
 42 44  2  0
 44 45  1  0
 31  2  2  0
 44 35  1  0
 18  9  1  0
M  CHG  1   3  -1
M  END
>  <UniqueID>  (5) 
4

>  <SMILES>  (5) 
FCCOc1c(Cl)cc(Br)cc1C/N=c1/ccc(Cc2ccccc2)c[n-]1

>  <Energy>  (5) 
48.937178601760856

>  <Genealogy>  (5) 
FCCOc1c(Cl)cc(Br)cc1CN=c1ccc(Cc2ccccc2)c[n-]1 (protonated)
FCCOc1c(Cl)cc(Br)cc1C/N=c1/ccc(Cc2ccccc2)c[n-]1 (cis-trans isomerization)
FCCOc1c(Cl)cc(Br)cc1C/N=c1/ccc(Cc2ccccc2)c[n-]1 (3D coordinates assigned)
FCCOc1c(Cl)cc(Br)cc1C/N=c1/ccc(Cc2ccccc2)c[n-]1 (optimized conformer: 48.937178601760856 kcal/mol)

>  <smiles>  (5) 
FCCOc1c(Cl)cc(Br)cc1CN=c1ccc(Cc2ccccc2)c[nH]1

>  <score_type>  (5) 
oracle

>  <origin>  (5) 
adg

>  <m_score__min__energy>  (5) 
-10.82

>  <m_primary>  (5) 
energy

$$$$
5:0
     RDKit          3D

 28 28  0  0  0  0  0  0  0  0999 V2000
   -4.8870   24.9690  -30.4300 C   0  0  0  0  0  0  0  0  0  0  0  0
   -4.9900   24.5500  -28.9630 C   0  0  0  0  0  0  0  0  0  0  0  0
   -3.6800   23.9550  -28.4240 C   0  0  0  0  0  0  0  0  0  0  0  0
   -3.2970   24.5150  -27.0480 C   0  0  0  0  0  0  0  0  0  0  0  0
   -1.8740   24.8880  -27.0280 N   0  0  0  0  0  0  0  0  0  0  0  0
   -1.0350   24.5550  -28.1850 C   0  0  0  0  0  0  0  0  0  0  0  0
   -1.3170   25.5450  -25.8630 C   0  0  0  0  0  0  0  0  0  0  0  0
   -0.7060   24.8210  -24.8180 C   0  0  0  0  0  0  0  0  0  0  0  0
   -0.1970   25.4840  -23.7450 N   0  0  0  0  0  0  0  0  0  0  0  0
   -0.2630   26.8390  -23.6580 C   0  0  0  0  0  0  0  0  0  0  0  0
   -0.8620   27.5630  -24.6870 C   0  0  0  0  0  0  0  0  0  0  0  0
   -1.3710   26.9030  -25.7590 N   0  0  0  0  0  0  0  0  0  0  0  0
   -4.6248   26.0357  -30.4891 H   0  0  0  0  0  0  0  0  0  0  0  0
   -4.1089   24.3720  -30.9281 H   0  0  0  0  0  0  0  0  0  0  0  0
   -5.8532   24.8008  -30.9281 H   0  0  0  0  0  0  0  0  0  0  0  0
   -5.2489   25.4340  -28.3617 H   0  0  0  0  0  0  0  0  0  0  0  0
   -5.7630   23.7705  -28.8931 H   0  0  0  0  0  0  0  0  0  0  0  0
   -3.7973   22.8645  -28.3398 H   0  0  0  0  0  0  0  0  0  0  0  0
   -2.8785   24.2251  -29.1273 H   0  0  0  0  0  0  0  0  0  0  0  0
   -3.9085   25.4042  -26.8348 H   0  0  0  0  0  0  0  0  0  0  0  0
   -3.4760   23.7435  -26.2846 H   0  0  0  0  0  0  0  0  0  0  0  0
   -0.0654   24.1702  -27.8362 H   0  0  0  0  0  0  0  0  0  0  0  0
   -1.5367   23.7878  -28.7931 H   0  0  0  0  0  0  0  0  0  0  0  0
   -0.8740   25.4574  -28.7931 H   0  0  0  0  0  0  0  0  0  0  0  0
   -0.6414   23.7242  -24.8706 H   0  0  0  0  0  0  0  0  0  0  0  0
    0.2530   24.9440  -22.9740 H   0  0  0  0  0  0  0  0  0  0  0  0
    0.1529   27.3595  -22.7827 H   0  0  0  0  0  0  0  0  0  0  0  0
   -0.9220   28.6600  -24.6313 H   0  0  0  0  0  0  0  0  0  0  0  0
  1  2  1  0
  2  3  1  0
  3  4  1  0
  4  5  1  0
  5  6  1  0
  5  7  1  0
  7  8  2  0
  8  9  1  0
  9 10  2  0
 10 11  1  0
 11 12  2  0
 12  7  1  0
  1 13  1  0
  1 14  1  0
  1 15  1  0
  2 16  1  0
  2 17  1  0
  3 18  1  0
  3 19  1  0
  4 20  1  0
  4 21  1  0
  6 22  1  0
  6 23  1  0
  6 24  1  0
  8 25  1  0
  9 26  1  0
 10 27  1  0
 11 28  1  0
M  CHG  1   9   1
M  END
>  <UniqueID>  (6) 
5

>  <SMILES>  (6) 
CCCCN(C)c1c[nH+]ccn1

>  <Energy>  (6) 
20.459913390862663

>  <Genealogy>  (6) 
CCCCN(C)c1c[nH+]ccn1 (protonated)
CCCCN(C)c1c[nH+]ccn1 (3D coordinates assigned)
CCCCN(C)c1c[nH+]ccn1 (optimized conformer: 20.459913390862663 kcal/mol)

>  <smiles>  (6) 
CCCCN(C)c1cnccn1

>  <score_type>  (6) 
oracle

>  <origin>  (6) 
adg

>  <m_score__min__energy>  (6) 
-4.1500000000000004

>  <m_primary>  (6) 
energy

$$$$
6:0
     RDKit          3D

 53 54  0  0  0  0  0  0  0  0999 V2000
   -7.0183   23.4810  -29.2854 H   0  0  0  0  0  0  0  0  0  0  0  0
   -7.1270   23.4780  -30.3800 C   0  0  0  0  0  0  0  0  0  0  0  0
   -7.9830   22.6800  -30.9460 N   0  0  0  0  0  0  0  0  0  0  0  0
   -7.6730   21.4620  -31.6450 C   0  0  0  0  0  0  0  0  0  0  0  0
   -8.2690   20.2260  -31.3220 C   0  0  0  0  0  0  0  0  0  0  0  0
   -9.0130   20.1715  -30.5136 H   0  0  0  0  0  0  0  0  0  0  0  0
   -7.9190   19.0700  -32.0240 C   0  0  0  0  0  0  0  0  0  0  0  0
   -8.3938   18.1114  -31.7679 H   0  0  0  0  0  0  0  0  0  0  0  0
   -6.9650   19.1220  -33.0550 C   0  0  0  0  0  0  0  0  0  0  0  0
   -6.5890   17.9230  -33.7660 N   0  0  0  0  0  0  0  0  0  0  0  0
   -6.0370   17.3100  -33.1200 H   0  0  0  0  0  0  0  0  0  0  0  0
   -7.4370   17.3790  -34.0450 H   0  0  0  0  0  0  0  0  0  0  0  0
   -5.7600   18.2210  -34.9480 C   0  0  0  0  0  0  0  0  0  0  0  0
   -5.8444   19.2943  -35.1737 H   0  0  0  0  0  0  0  0  0  0  0  0
   -6.1299   17.5970  -35.7749 H   0  0  0  0  0  0  0  0  0  0  0  0
   -4.2710   17.8780  -34.7420 C   0  0  0  0  0  0  0  0  0  0  0  0
   -3.6573   18.7161  -35.1040 H   0  0  0  0  0  0  0  0  0  0  0  0
   -4.0468   16.9589  -35.3032 H   0  0  0  0  0  0  0  0  0  0  0  0
   -3.9640   17.6380  -33.3130 N   0  0  0  0  0  0  0  0  0  0  0  0
   -2.9320   18.5820  -32.8050 C   0  0  0  0  0  0  0  0  0  0  0  0
   -1.9312   18.1706  -33.0029 H   0  0  0  0  0  0  0  0  0  0  0  0
   -3.0670   18.7209  -31.7222 H   0  0  0  0  0  0  0  0  0  0  0  0
   -3.0750   19.9270  -33.5080 C   0  0  0  0  0  0  0  0  0  0  0  0
   -3.1600   20.7261  -32.7569 H   0  0  0  0  0  0  0  0  0  0  0  0
   -2.1910   20.1077  -34.1372 H   0  0  0  0  0  0  0  0  0  0  0  0
   -3.9772   19.9178  -34.1372 H   0  0  0  0  0  0  0  0  0  0  0  0
   -3.5800   16.2260  -33.0910 C   0  0  0  0  0  0  0  0  0  0  0  0
   -3.3814   15.7505  -34.0628 H   0  0  0  0  0  0  0  0  0  0  0  0
   -2.6800   16.2036  -32.4589 H   0  0  0  0  0  0  0  0  0  0  0  0
   -4.6940   15.4590  -32.3780 C   0  0  0  0  0  0  0  0  0  0  0  0
   -4.5628   15.5493  -31.2896 H   0  0  0  0  0  0  0  0  0  0  0  0
   -5.6697   15.8777  -32.6657 H   0  0  0  0  0  0  0  0  0  0  0  0
   -4.6510   14.3982  -32.6657 H   0  0  0  0  0  0  0  0  0  0  0  0
   -6.3620   20.3530  -33.3650 C   0  0  0  0  0  0  0  0  0  0  0  0
   -5.6124   20.4077  -34.1682 H   0  0  0  0  0  0  0  0  0  0  0  0
   -6.7090   21.5080  -32.6590 C   0  0  0  0  0  0  0  0  0  0  0  0
   -6.2198   22.4627  -32.9025 H   0  0  0  0  0  0  0  0  0  0  0  0
   -6.2900   24.3920  -31.2170 C   0  0  0  0  0  0  0  0  0  0  0  0
   -6.2552   24.0112  -32.2484 H   0  0  0  0  0  0  0  0  0  0  0  0
   -6.7332   25.3987  -31.2050 H   0  0  0  0  0  0  0  0  0  0  0  0
   -4.8930   24.4620  -30.6650 C   0  0  0  0  0  0  0  0  0  0  0  0
   -4.2550   25.5400  -30.8120 O   0  0  0  0  0  0  0  0  0  0  0  0
   -4.2320   23.3080  -29.9930 C   0  0  0  0  0  0  0  0  0  0  0  0
   -4.0950   23.2430  -28.5900 C   0  0  0  0  0  0  0  0  0  0  0  0
   -4.4789   24.0633  -27.9657 H   0  0  0  0  0  0  0  0  0  0  0  0
   -3.4750   22.1440  -27.9870 C   0  0  0  0  0  0  0  0  0  0  0  0
   -3.3727   22.1055  -26.8924 H   0  0  0  0  0  0  0  0  0  0  0  0
   -2.9860   21.0970  -28.7670 C   0  0  0  0  0  0  0  0  0  0  0  0
   -2.4990   20.2347  -28.2882 H   0  0  0  0  0  0  0  0  0  0  0  0
   -3.1150   21.1440  -30.1560 C   0  0  0  0  0  0  0  0  0  0  0  0
   -2.7299   20.3175  -30.7713 H   0  0  0  0  0  0  0  0  0  0  0  0
   -3.7330   22.2400  -30.7670 C   0  0  0  0  0  0  0  0  0  0  0  0
   -3.8308   22.2691  -31.8623 H   0  0  0  0  0  0  0  0  0  0  0  0
  1  2  1  0
  2  3  2  0
  3  4  1  0
  4  5  2  0
  5  6  1  0
  5  7  1  0
  7  8  1  0
  7  9  2  0
  9 10  1  0
 10 11  1  0
 10 12  1  0
 10 13  1  0
 13 14  1  0
 13 15  1  0
 13 16  1  0
 16 17  1  0
 16 18  1  0
 16 19  1  0
 19 20  1  0
 20 21  1  0
 20 22  1  0
 20 23  1  0
 23 24  1  0
 23 25  1  0
 23 26  1  0
 19 27  1  0
 27 28  1  0
 27 29  1  0
 27 30  1  0
 30 31  1  0
 30 32  1  0
 30 33  1  0
  9 34  1  0
 34 35  1  0
 34 36  2  0
 36 37  1  0
  2 38  1  0
 38 39  1  0
 38 40  1  0
 38 41  1  0
 41 42  2  0
 41 43  1  0
 43 44  2  0
 44 45  1  0
 44 46  1  0
 46 47  1  0
 46 48  2  0
 48 49  1  0
 48 50  1  0
 50 51  1  0
 50 52  2  0
 52 53  1  0
 36  4  1  0
 52 43  1  0
M  CHG  1  10   1
M  END
>  <UniqueID>  (7) 
6

>  <SMILES>  (7) 
CCN(CC)CC[NH2+]c1ccc(/N=C/CC(=O)c2ccccc2)cc1

>  <Energy>  (7) 
54.264729089280344

>  <Genealogy>  (7) 
CCN(CC)CC[NH2+]c1ccc(N=CCC(=O)c2ccccc2)cc1 (protonated)
CCN(CC)CC[NH2+]c1ccc(/N=C/CC(=O)c2ccccc2)cc1 (cis-trans isomerization)
CCN(CC)CC[NH2+]c1ccc(/N=C/CC(=O)c2ccccc2)cc1 (3D coordinates assigned)
CCN(CC)CC[NH2+]c1ccc(/N=C/CC(=O)c2ccccc2)cc1 (optimized conformer: 54.264729089280344 kcal/mol)

>  <smiles>  (7) 
CCN(CC)CCNc1ccc(N=CCC(=O)c2ccccc2)cc1

>  <score_type>  (7) 
oracle

>  <origin>  (7) 
adg

>  <m_score__min__energy>  (7) 
-7.8200000000000003

>  <m_primary>  (7) 
energy

$$$$
7:0
     RDKit          3D

 43 45  0  0  0  0  0  0  0  0999 V2000
   -0.8670   26.4200  -27.8610 C   0  0  0  0  0  0  0  0  0  0  0  0
   -1.6080   25.8950  -28.9560 O   0  0  0  0  0  0  0  0  0  0  0  0
   -1.9850   24.5490  -29.0890 C   0  0  0  0  0  0  0  0  0  0  0  0
   -1.2680   23.5070  -28.4700 C   0  0  0  0  0  0  0  0  0  0  0  0
   -1.6750   22.1790  -28.6290 C   0  0  0  0  0  0  0  0  0  0  0  0
   -2.7900   21.8780  -29.4110 C   0  0  0  0  0  0  0  0  0  0  0  0
   -3.5080   22.9040  -30.0300 C   0  0  0  0  0  0  0  0  0  0  0  0
   -3.1190   24.2460  -29.8610 C   0  0  0  0  0  0  0  0  0  0  0  0
   -3.8100   25.3010  -30.4780 O   0  0  0  0  0  0  0  0  0  0  0  0
   -5.2010   25.4640  -30.4840 C   0  0  0  0  0  0  0  0  0  0  0  0
   -5.7420   26.4540  -29.9220 O   0  0  0  0  0  0  0  0  0  0  0  0
   -6.0470   24.4910  -31.2460 C   0  0  0  0  0  0  0  0  0  0  0  0
   -6.5360   23.3310  -30.3620 C   0  0  0  0  0  0  0  0  0  0  0  0
   -7.7770   22.5650  -30.9040 C   0  0  0  0  0  0  0  0  0  0  0  0
   -7.5970   21.8750  -32.2030 N   0  0  0  0  0  0  0  0  0  0  0  0
   -6.2690   21.3390  -32.3830 C   0  0  0  0  0  0  0  0  0  0  0  0
   -5.2290   22.0510  -32.4020 O   0  0  0  0  0  0  0  0  0  0  0  0
   -6.2820   19.8960  -32.5740 C   0  0  0  0  0  0  0  0  0  0  0  0
   -5.2410   18.9880  -32.7600 C   0  0  0  0  0  0  0  0  0  0  0  0
   -5.5720   17.6290  -32.9150 C   0  0  0  0  0  0  0  0  0  0  0  0
   -6.9220   17.2160  -32.8810 C   0  0  0  0  0  0  0  0  0  0  0  0
   -7.9500   18.1570  -32.6910 C   0  0  0  0  0  0  0  0  0  0  0  0
   -7.5890   19.4950  -32.5400 C   0  0  0  0  0  0  0  0  0  0  0  0
   -8.4000   20.6850  -32.3300 C   0  0  0  0  0  0  0  0  0  0  0  0
   -9.6600   20.6930  -32.3130 O   0  0  0  0  0  0  0  0  0  0  0  0
   -1.3274   26.0938  -26.9167 H   0  0  0  0  0  0  0  0  0  0  0  0
    0.1689   26.0532  -27.9098 H   0  0  0  0  0  0  0  0  0  0  0  0
   -0.8696   27.5189  -27.9098 H   0  0  0  0  0  0  0  0  0  0  0  0
   -0.3836   23.7390  -27.8585 H   0  0  0  0  0  0  0  0  0  0  0  0
   -1.1150   21.3703  -28.1366 H   0  0  0  0  0  0  0  0  0  0  0  0
   -3.1042   20.8318  -29.5404 H   0  0  0  0  0  0  0  0  0  0  0  0
   -4.3819   22.6618  -30.6527 H   0  0  0  0  0  0  0  0  0  0  0  0
   -6.9216   25.0221  -31.6497 H   0  0  0  0  0  0  0  0  0  0  0  0
   -5.4306   24.0656  -32.0517 H   0  0  0  0  0  0  0  0  0  0  0  0
   -5.7107   22.6114  -30.2570 H   0  0  0  0  0  0  0  0  0  0  0  0
   -6.8476   23.7830  -29.4088 H   0  0  0  0  0  0  0  0  0  0  0  0
   -8.0584   21.8083  -30.1569 H   0  0  0  0  0  0  0  0  0  0  0  0
   -8.5461   23.3317  -31.0790 H   0  0  0  0  0  0  0  0  0  0  0  0
   -7.8180   22.5250  -32.9940 H   0  0  0  0  0  0  0  0  0  0  0  0
   -4.1936   19.3231  -32.7849 H   0  0  0  0  0  0  0  0  0  0  0  0
   -4.7755   16.8850  -33.0633 H   0  0  0  0  0  0  0  0  0  0  0  0
   -7.1712   16.1517  -33.0039 H   0  0  0  0  0  0  0  0  0  0  0  0
   -9.0050   17.8471  -32.6625 H   0  0  0  0  0  0  0  0  0  0  0  0
  1  2  1  0
  2  3  1  0
  3  4  2  0
  4  5  1  0
  5  6  2  0
  6  7  1  0
  7  8  2  0
  8  9  1  0
  9 10  1  0
 10 11  2  0
 10 12  1  0
 12 13  1  0
 13 14  1  0
 14 15  1  0
 15 16  1  0
 16 17  2  0
 16 18  1  0
 18 19  2  0
 19 20  1  0
 20 21  2  0
 21 22  1  0
 22 23  2  0
 23 24  1  0
 24 25  2  0
  8  3  1  0
 24 15  1  0
 23 18  1  0
  1 26  1  0
  1 27  1  0
  1 28  1  0
  4 29  1  0
  5 30  1  0
  6 31  1  0
  7 32  1  0
 12 33  1  0
 12 34  1  0
 13 35  1  0
 13 36  1  0
 14 37  1  0
 14 38  1  0
 15 39  1  0
 19 40  1  0
 20 41  1  0
 21 42  1  0
 22 43  1  0
M  CHG  1  15   1
M  END
>  <UniqueID>  (8) 
7

>  <SMILES>  (8) 
COc1ccccc1OC(=O)CCC[NH+]1C(=O)c2ccccc2C1=O

>  <Energy>  (8) 
75.2067109221844

>  <Genealogy>  (8) 
COc1ccccc1OC(=O)CCC[NH+]1C(=O)c2ccccc2C1=O (protonated)
COc1ccccc1OC(=O)CCC[NH+]1C(=O)c2ccccc2C1=O (3D coordinates assigned)
COc1ccccc1OC(=O)CCC[NH+]1C(=O)c2ccccc2C1=O (nonaromatic ring conformer: 75.2067109221844 kcal/mol)

>  <smiles>  (8) 
COc1ccccc1OC(=O)CCCN1C(=O)c2ccccc2C1=O

>  <score_type>  (8) 
oracle

>  <origin>  (8) 
adg

>  <m_score__min__energy>  (8) 
-9.4100000000000001

>  <m_primary>  (8) 
energy

$$$$
8:0
     RDKit          3D

 42 44  0  0  0  0  0  0  0  0999 V2000
    0.3370   21.5340  -35.7390 C   0  0  0  0  0  0  0  0  0  0  0  0
    0.2680   21.8910  -34.3620 O   0  0  0  0  0  0  0  0  0  0  0  0
   -0.5840   21.2830  -33.4280 C   0  0  0  0  0  0  0  0  0  0  0  0
   -0.4800   21.5220  -32.0440 C   0  0  0  0  0  0  0  0  0  0  0  0
   -1.3590   20.8970  -31.1550 C   0  0  0  0  0  0  0  0  0  0  0  0
   -2.3420   20.0290  -31.6340 C   0  0  0  0  0  0  0  0  0  0  0  0
   -2.4450   19.7670  -33.0080 C   0  0  0  0  0  0  0  0  0  0  0  0
   -3.5280   18.8660  -33.5270 C   0  0  0  0  0  0  0  0  0  0  0  0
   -4.6590   19.6540  -33.8830 O   0  0  0  0  0  0  0  0  0  0  0  0
   -5.6840   20.0240  -32.9980 C   0  0  0  0  0  0  0  0  0  0  0  0
   -5.5730   21.1430  -32.1500 C   0  0  0  0  0  0  0  0  0  0  0  0
   -6.6230   21.4970  -31.2940 C   0  0  0  0  0  0  0  0  0  0  0  0
   -6.4590   22.6420  -30.3790 C   0  0  0  0  0  0  0  0  0  0  0  0
   -5.3480   23.3890  -30.2770 C   0  0  0  0  0  0  0  0  0  0  0  0
   -3.8840   22.7570  -29.4500 S   0  0  0  0  0  0  0  0  0  0  0  0
   -3.1270   24.3630  -29.7200 C   0  0  0  0  0  0  0  0  0  0  0  0
   -1.9930   24.6520  -29.2580 O   0  0  0  0  0  0  0  0  0  0  0  0
   -3.8790   25.3000  -30.4780 N   0  0  0  0  0  0  0  0  0  0  0  0
   -5.1330   24.7370  -30.8140 C   0  0  0  0  0  0  0  0  0  0  0  0
   -5.9450   25.3450  -31.5600 O   0  0  0  0  0  0  0  0  0  0  0  0
   -7.7720   20.6950  -31.2460 C   0  0  0  0  0  0  0  0  0  0  0  0
   -7.8920   19.5840  -32.0830 C   0  0  0  0  0  0  0  0  0  0  0  0
   -6.8510   19.2440  -32.9680 C   0  0  0  0  0  0  0  0  0  0  0  0
   -6.9350   18.1380  -33.8280 O   0  0  0  0  0  0  0  0  0  0  0  0
   -6.4040   16.8490  -33.5370 C   0  0  0  0  0  0  0  0  0  0  0  0
   -1.5720   20.4100  -33.9000 C   0  0  0  0  0  0  0  0  0  0  0  0
    0.5450   20.4576  -35.8287 H   0  0  0  0  0  0  0  0  0  0  0  0
   -0.6222   21.7639  -36.2259 H   0  0  0  0  0  0  0  0  0  0  0  0
    1.1414   22.1048  -36.2259 H   0  0  0  0  0  0  0  0  0  0  0  0
    0.2951   22.2024  -31.6616 H   0  0  0  0  0  0  0  0  0  0  0  0
   -1.2761   21.0895  -30.0752 H   0  0  0  0  0  0  0  0  0  0  0  0
   -3.0385   19.5487  -30.9310 H   0  0  0  0  0  0  0  0  0  0  0  0
   -3.1635   18.3239  -34.4120 H   0  0  0  0  0  0  0  0  0  0  0  0
   -3.8113   18.1413  -32.7495 H   0  0  0  0  0  0  0  0  0  0  0  0
   -4.6523   21.7448  -32.1603 H   0  0  0  0  0  0  0  0  0  0  0  0
   -7.3097   22.9033  -29.7324 H   0  0  0  0  0  0  0  0  0  0  0  0
   -8.5831   20.9424  -30.5453 H   0  0  0  0  0  0  0  0  0  0  0  0
   -8.8048   18.9710  -32.0509 H   0  0  0  0  0  0  0  0  0  0  0  0
   -6.3480   16.7131  -32.4469 H   0  0  0  0  0  0  0  0  0  0  0  0
   -7.0574   16.0771  -33.9697 H   0  0  0  0  0  0  0  0  0  0  0  0
   -5.3965   16.7613  -33.9697 H   0  0  0  0  0  0  0  0  0  0  0  0
   -1.6650   20.2262  -34.9805 H   0  0  0  0  0  0  0  0  0  0  0  0
  1  2  1  0
  2  3  1  0
  3  4  2  0
  4  5  1  0
  5  6  2  0
  6  7  1  0
  7  8  1  0
  8  9  1  0
  9 10  1  0
 10 11  2  0
 11 12  1  0
 12 13  1  0
 13 14  2  3
 14 15  1  0
 15 16  1  0
 16 17  2  0
 16 18  1  0
 18 19  1  0
 19 20  2  0
 12 21  2  0
 21 22  1  0
 22 23  2  0
 23 24  1  0
 24 25  1  0
  7 26  2  0
 26  3  1  0
 23 10  1  0
 19 14  1  0
  1 27  1  0
  1 28  1  0
  1 29  1  0
  4 30  1  0
  5 31  1  0
  6 32  1  0
  8 33  1  0
  8 34  1  0
 11 35  1  0
 13 36  1  0
 21 37  1  0
 22 38  1  0
 25 39  1  0
 25 40  1  0
 25 41  1  0
 26 42  1  0
M  CHG  1  18  -1
M  END
>  <UniqueID>  (9) 
8

>  <SMILES>  (9) 
COc1cccc(COc2cc(C=C3SC(=O)[N-]C3=O)ccc2OC)c1

>  <Energy>  (9) 
68.69858838620506

>  <Genealogy>  (9) 
COc1cccc(COc2cc(C=C3SC(=O)[N-]C3=O)ccc2OC)c1 (protonated)
COc1cccc(COc2cc(C=C3SC(=O)[N-]C3=O)ccc2OC)c1 (3D coordinates assigned)
COc1cccc(COc2cc(C=C3SC(=O)[N-]C3=O)ccc2OC)c1 (nonaromatic ring conformer: 68.69858838620506 kcal/mol)

>  <smiles>  (9) 
COc1cccc(COc2cc(C=C3SC(=O)NC3=O)ccc2OC)c1

>  <score_type>  (9) 
oracle

>  <origin>  (9) 
adg

>  <m_score__min__energy>  (9) 
-9.9900000000000002

>  <m_primary>  (9) 
energy

$$$$
9:0
     RDKit          3D

 45 48  0  0  0  0  0  0  0  0999 V2000
   -5.7552   26.2098  -29.0988 H   0  0  0  0  0  0  0  0  0  0  0  0
   -5.7300   25.3030  -29.7210 C   0  0  0  0  0  0  0  0  0  0  0  0
   -6.9220   24.8150  -30.2970 C   0  0  0  0  0  0  0  0  0  0  0  0
   -7.8702   25.3447  -30.1229 H   0  0  0  0  0  0  0  0  0  0  0  0
   -6.9050   23.6560  -31.0920 C   0  0  0  0  0  0  0  0  0  0  0  0
   -7.8288   23.2626  -31.5413 H   0  0  0  0  0  0  0  0  0  0  0  0
   -5.6810   23.0210  -31.2930 C   0  0  0  0  0  0  0  0  0  0  0  0
   -4.5200   23.4930  -30.7420 C   0  0  0  0  0  0  0  0  0  0  0  0
   -4.5100   24.6380  -29.9370 C   0  0  0  0  0  0  0  0  0  0  0  0
   -3.5763   25.0064  -29.4871 H   0  0  0  0  0  0  0  0  0  0  0  0
   -3.5070   22.6200  -31.1150 C   0  0  0  0  0  0  0  0  0  0  0  0
   -2.2270   22.6130  -30.5820 C   0  0  0  0  0  0  0  0  0  0  0  0
   -2.0264   23.3230  -29.7662 H   0  0  0  0  0  0  0  0  0  0  0  0
   -1.1720   21.7980  -30.9760 C   0  0  0  0  0  0  0  0  0  0  0  0
   -0.3047   21.7712  -30.2999 H   0  0  0  0  0  0  0  0  0  0  0  0
   -1.0770   21.0040  -32.1320 C   0  0  0  0  0  0  0  0  0  0  0  0
   -2.1830   20.4780  -32.8700 C   0  0  0  0  0  0  0  0  0  0  0  0
   -1.9010   19.9280  -34.1400 C   0  0  0  0  0  0  0  0  0  0  0  0
   -2.7342   19.6534  -34.8036 H   0  0  0  0  0  0  0  0  0  0  0  0
   -0.5970   19.7260  -34.5700 C   0  0  0  0  0  0  0  0  0  0  0  0
   -0.3975   19.2732  -35.5524 H   0  0  0  0  0  0  0  0  0  0  0  0
    0.4480   20.1020  -33.7460 C   0  0  0  0  0  0  0  0  0  0  0  0
    1.4859   19.8946  -34.0458 H   0  0  0  0  0  0  0  0  0  0  0  0
    0.1950   20.7260  -32.5690 N   0  0  0  0  0  0  0  0  0  0  0  0
    1.0260   21.0400  -32.0160 H   0  0  0  0  0  0  0  0  0  0  0  0
   -3.5390   20.5010  -32.4470 C   0  0  0  0  0  0  0  0  0  0  0  0
   -4.3470   19.4850  -32.6280 N   0  0  0  0  0  0  0  0  0  0  0  0
   -5.0450   19.0180  -33.8310 C   0  0  0  0  0  0  0  0  0  0  0  0
   -5.0555   17.9181  -33.8390 H   0  0  0  0  0  0  0  0  0  0  0  0
   -4.5179   19.3996  -34.7179 H   0  0  0  0  0  0  0  0  0  0  0  0
   -6.4850   19.5350  -33.8520 C   0  0  0  0  0  0  0  0  0  0  0  0
   -7.0800   18.9205  -34.5437 H   0  0  0  0  0  0  0  0  0  0  0  0
   -6.4811   20.5839  -34.1833 H   0  0  0  0  0  0  0  0  0  0  0  0
   -7.0830   19.4630  -32.4990 N   0  0  0  0  0  0  0  0  0  0  0  0
   -7.1790   18.0710  -32.0280 C   0  0  0  0  0  0  0  0  0  0  0  0
   -7.1801   18.0553  -30.9281 H   0  0  0  0  0  0  0  0  0  0  0  0
   -8.1103   17.6208  -32.4020 H   0  0  0  0  0  0  0  0  0  0  0  0
   -6.3183   17.4972  -32.4020 H   0  0  0  0  0  0  0  0  0  0  0  0
   -8.4190   20.0810  -32.4800 C   0  0  0  0  0  0  0  0  0  0  0  0
   -8.7396   20.2293  -31.4383 H   0  0  0  0  0  0  0  0  0  0  0  0
   -8.3808   21.0529  -32.9938 H   0  0  0  0  0  0  0  0  0  0  0  0
   -9.1349   19.4226  -32.9938 H   0  0  0  0  0  0  0  0  0  0  0  0
   -4.1230   21.6470  -31.9010 C   0  0  0  0  0  0  0  0  0  0  0  0
   -5.4570   21.8940  -31.9840 N   0  0  0  0  0  0  0  0  0  0  0  0
   -6.1780   21.3280  -32.4860 H   0  0  0  0  0  0  0  0  0  0  0  0
  1  2  1  0
  2  3  2  0
  3  4  1  0
  3  5  1  0
  5  6  1  0
  5  7  2  0
  7  8  1  0
  8  9  2  0
  9 10  1  0
  8 11  1  0
 11 12  1  0
 12 13  1  0
 12 14  2  0
 14 15  1  0
 14 16  1  0
 16 17  2  0
 17 18  1  0
 18 19  1  0
 18 20  2  0
 20 21  1  0
 20 22  1  0
 22 23  1  0
 22 24  2  0
 24 25  1  0
 17 26  1  0
 26 27  2  0
 27 28  1  0
 28 29  1  0
 28 30  1  0
 28 31  1  0
 31 32  1  0
 31 33  1  0
 31 34  1  0
 34 35  1  0
 35 36  1  0
 35 37  1  0
 35 38  1  0
 34 39  1  0
 39 40  1  0
 39 41  1  0
 39 42  1  0
 26 43  1  0
 43 44  1  0
 44 45  1  0
  9  2  1  0
 43 11  2  0
 44  7  1  0
 24 16  1  0
M  CHG  1  24   1
M  END
>  <UniqueID>  (10) 
9

>  <SMILES>  (10) 
CN(C)CC/N=c1\c2ccc[nH+]c2ccc2c1[nH]c1ccccc12

>  <Energy>  (10) 
130.79991224219762

>  <Genealogy>  (10) 
CN(C)CCN=c1c2ccc[nH+]c2ccc2c1[nH]c1ccccc12 (protonated)
CN(C)CC/N=c1\c2ccc[nH+]c2ccc2c1[nH]c1ccccc12 (cis-trans isomerization)
CN(C)CC/N=c1\c2ccc[nH+]c2ccc2c1[nH]c1ccccc12 (3D coordinates assigned)
CN(C)CC/N=c1\c2ccc[nH+]c2ccc2c1[nH]c1ccccc12 (optimized conformer: 130.79991224219762 kcal/mol)

>  <smiles>  (10) 
CN(C)CCN=c1c2cccnc2ccc2c1[nH]c1ccccc12

>  <score_type>  (10) 
oracle

>  <origin>  (10) 
adg

>  <m_score__min__energy>  (10) 
-7.2999999999999998

>  <m_primary>  (10) 
energy

$$$$
10:0
     RDKit          3D

 53 56  0  0  0  0  0  0  0  0999 V2000
   -8.7210   21.6190  -31.4640 C   0  0  0  0  0  0  0  0  0  0  0  0
   -8.7830   20.1460  -31.8470 C   0  0  0  0  0  0  0  0  0  0  0  0
   -7.4820   19.6980  -32.3370 N   0  0  0  0  0  0  0  0  0  0  0  0
   -7.2530   18.6030  -33.0970 C   0  0  0  0  0  0  0  0  0  0  0  0
   -5.9130   18.5650  -33.4140 C   0  0  0  0  0  0  0  0  0  0  0  0
   -5.1840   17.6300  -34.1390 C   0  0  0  0  0  0  0  0  0  0  0  0
   -3.8040   17.8560  -34.2720 C   0  0  0  0  0  0  0  0  0  0  0  0
   -3.2280   18.9680  -33.7180 N   0  0  0  0  0  0  0  0  0  0  0  0
   -3.9470   19.9020  -33.0230 C   0  0  0  0  0  0  0  0  0  0  0  0
   -3.2540   21.0880  -32.4770 C   0  0  0  0  0  0  0  0  0  0  0  0
   -2.2900   21.5710  -33.1280 O   0  0  0  0  0  0  0  0  0  0  0  0
   -3.6940   21.7580  -31.2250 C   0  0  0  0  0  0  0  0  0  0  0  0
   -3.1700   21.3450  -29.9920 C   0  0  0  0  0  0  0  0  0  0  0  0
   -3.5640   21.9730  -28.8100 C   0  0  0  0  0  0  0  0  0  0  0  0
   -3.0190   21.5110  -27.4850 C   0  0  0  0  0  0  0  0  0  0  0  0
   -1.8670   20.5690  -27.7000 C   0  0  0  0  0  0  0  0  0  0  0  0
   -0.6610   21.0370  -28.2490 C   0  0  0  0  0  0  0  0  0  0  0  0
    0.4220   20.1700  -28.4110 C   0  0  0  0  0  0  0  0  0  0  0  0
    0.3160   18.8310  -28.0180 C   0  0  0  0  0  0  0  0  0  0  0  0
    1.6780   17.7450  -28.2180 Cl  0  0  0  0  0  0  0  0  0  0  0  0
   -0.8770   18.3620  -27.4580 C   0  0  0  0  0  0  0  0  0  0  0  0
   -1.9640   19.2270  -27.2950 C   0  0  0  0  0  0  0  0  0  0  0  0
   -4.5200   22.9920  -28.8710 C   0  0  0  0  0  0  0  0  0  0  0  0
   -5.0440   23.3940  -30.0680 N   0  0  0  0  0  0  0  0  0  0  0  0
   -6.0690   24.4530  -30.0630 C   0  0  0  0  0  0  0  0  0  0  0  0
   -5.4520   25.8100  -30.4160 C   0  0  0  0  0  0  0  0  0  0  0  0
   -4.1340   25.6570  -30.8680 O   0  0  0  0  0  0  0  0  0  0  0  0
   -4.6520   22.7930  -31.2400 C   0  0  0  0  0  0  0  0  0  0  0  0
   -5.1400   23.1740  -32.3410 O   0  0  0  0  0  0  0  0  0  0  0  0
   -5.3200   19.6690  -32.8570 C   0  0  0  0  0  0  0  0  0  0  0  0
   -6.3110   20.3570  -32.1800 C   0  0  0  0  0  0  0  0  0  0  0  0
   -8.7170   21.7130  -30.3680 H   0  0  0  0  0  0  0  0  0  0  0  0
   -7.8032   22.0661  -31.8737 H   0  0  0  0  0  0  0  0  0  0  0  0
   -9.5979   22.1416  -31.8737 H   0  0  0  0  0  0  0  0  0  0  0  0
   -9.0631   19.5524  -30.9643 H   0  0  0  0  0  0  0  0  0  0  0  0
   -9.5317   20.0126  -32.6418 H   0  0  0  0  0  0  0  0  0  0  0  0
   -8.0088   17.8673  -33.4092 H   0  0  0  0  0  0  0  0  0  0  0  0
   -5.6671   16.7504  -34.5895 H   0  0  0  0  0  0  0  0  0  0  0  0
   -3.1826   17.1357  -34.8243 H   0  0  0  0  0  0  0  0  0  0  0  0
   -2.4432   20.5201  -29.9562 H   0  0  0  0  0  0  0  0  0  0  0  0
   -2.6736   22.3827  -26.9098 H   0  0  0  0  0  0  0  0  0  0  0  0
   -3.8131   20.9881  -26.9318 H   0  0  0  0  0  0  0  0  0  0  0  0
   -0.5696   22.0904  -28.5524 H   0  0  0  0  0  0  0  0  0  0  0  0
    1.3607   20.5406  -28.8486 H   0  0  0  0  0  0  0  0  0  0  0  0
   -0.9604   17.3107  -27.1452 H   0  0  0  0  0  0  0  0  0  0  0  0
   -2.8980   18.8554  -26.8482 H   0  0  0  0  0  0  0  0  0  0  0  0
   -4.8552   23.4771  -27.9424 H   0  0  0  0  0  0  0  0  0  0  0  0
   -6.8454   24.2067  -30.8023 H   0  0  0  0  0  0  0  0  0  0  0  0
   -6.5055   24.5160  -29.0553 H   0  0  0  0  0  0  0  0  0  0  0  0
   -6.0516   26.2835  -31.2074 H   0  0  0  0  0  0  0  0  0  0  0  0
   -5.4435   26.4382  -29.5130 H   0  0  0  0  0  0  0  0  0  0  0  0
   -4.1600   24.9760  -31.5900 H   0  0  0  0  0  0  0  0  0  0  0  0
   -6.1701   21.2863  -31.6085 H   0  0  0  0  0  0  0  0  0  0  0  0
  1  2  1  0
  2  3  1  0
  3  4  1  0
  4  5  2  0
  5  6  1  0
  6  7  2  0
  7  8  1  0
  8  9  2  0
  9 10  1  0
 10 11  2  0
 10 12  1  0
 12 13  2  0
 13 14  1  0
 14 15  1  0
 15 16  1  0
 16 17  2  0
 17 18  1  0
 18 19  2  0
 19 20  1  0
 19 21  1  0
 21 22  2  0
 14 23  2  0
 23 24  1  0
 24 25  1  0
 25 26  1  0
 26 27  1  0
 24 28  1  0
 28 29  2  0
  9 30  1  0
 30 31  2  0
 31  3  1  0
 30  5  1  0
 28 12  1  0
 22 16  1  0
  1 32  1  0
  1 33  1  0
  1 34  1  0
  2 35  1  0
  2 36  1  0
  4 37  1  0
  6 38  1  0
  7 39  1  0
 13 40  1  0
 15 41  1  0
 15 42  1  0
 17 43  1  0
 18 44  1  0
 21 45  1  0
 22 46  1  0
 23 47  1  0
 25 48  1  0
 25 49  1  0
 26 50  1  0
 26 51  1  0
 27 52  1  0
 31 53  1  0
M  END
>  <UniqueID>  (11) 
10

>  <SMILES>  (11) 
CCn1cc2ccnc(C(=O)c3cc(Cc4ccc(Cl)cc4)cn(CCO)c3=O)c2c1

>  <Energy>  (11) 
93.29733898312061

>  <Genealogy>  (11) 
CCn1cc2ccnc(C(=O)c3cc(Cc4ccc(Cl)cc4)cn(CCO)c3=O)c2c1 (3D coordinates assigned)
CCn1cc2ccnc(C(=O)c3cc(Cc4ccc(Cl)cc4)cn(CCO)c3=O)c2c1 (optimized conformer: 93.29733898312061 kcal/mol)

>  <smiles>  (11) 
CCn1cc2ccnc(C(=O)c3cc(Cc4ccc(Cl)cc4)cn(CCO)c3=O)c2c1

>  <score_type>  (11) 
oracle

>  <origin>  (11) 
adg

>  <m_score__min__energy>  (11) 
-10.140000000000001

>  <m_primary>  (11) 
energy

$$$$
11:0
     RDKit          3D

 39 41  0  0  0  0  0  0  0  0999 V2000
   -6.4980   25.6430  -29.3480 C   0  0  0  0  0  0  0  0  0  0  0  0
   -6.5640   24.5430  -30.3190 N   0  0  0  0  0  0  0  0  0  0  0  0
   -7.2500   23.3840  -29.7170 C   0  0  0  0  0  0  0  0  0  0  0  0
   -7.5840   22.3650  -30.7580 C   0  0  0  0  0  0  0  0  0  0  0  0
   -6.7600   21.3600  -31.1210 N   0  0  0  0  0  0  0  0  0  0  0  0
   -7.4860   20.7370  -32.0750 C   0  0  0  0  0  0  0  0  0  0  0  0
   -7.0040   19.5490  -32.8210 C   0  0  0  0  0  0  0  0  0  0  0  0
   -6.1500   19.6780  -33.9340 C   0  0  0  0  0  0  0  0  0  0  0  0
   -5.7080   18.5430  -34.6230 C   0  0  0  0  0  0  0  0  0  0  0  0
   -6.1110   17.2710  -34.2110 C   0  0  0  0  0  0  0  0  0  0  0  0
   -6.9580   17.1300  -33.1100 C   0  0  0  0  0  0  0  0  0  0  0  0
   -7.4040   18.2600  -32.4190 C   0  0  0  0  0  0  0  0  0  0  0  0
   -8.6750   21.3440  -32.2600 N   0  0  0  0  0  0  0  0  0  0  0  0
   -8.7050   22.3430  -31.4350 O   0  0  0  0  0  0  0  0  0  0  0  0
   -4.9420   24.1230  -30.8340 S   0  0  0  0  0  0  0  0  0  0  0  0
   -4.0880   25.3610  -30.8680 O   0  0  0  0  0  0  0  0  0  0  0  0
   -4.9870   23.5630  -32.2280 O   0  0  0  0  0  0  0  0  0  0  0  0
   -4.1930   22.9430  -29.7560 C   0  0  0  0  0  0  0  0  0  0  0  0
   -4.1540   23.1760  -28.3740 C   0  0  0  0  0  0  0  0  0  0  0  0
   -3.5690   22.2380  -27.5170 C   0  0  0  0  0  0  0  0  0  0  0  0
   -3.0170   21.0630  -28.0380 C   0  0  0  0  0  0  0  0  0  0  0  0
   -2.2200   19.7810  -26.8670 Br  0  0  0  0  0  0  0  0  0  0  0  0
   -3.0500   20.8270  -29.4160 C   0  0  0  0  0  0  0  0  0  0  0  0
   -3.6350   21.7640  -30.2730 C   0  0  0  0  0  0  0  0  0  0  0  0
   -6.5226   25.2332  -28.3275 H   0  0  0  0  0  0  0  0  0  0  0  0
   -5.5645   26.2060  -29.4946 H   0  0  0  0  0  0  0  0  0  0  0  0
   -7.3575   26.3136  -29.4946 H   0  0  0  0  0  0  0  0  0  0  0  0
   -6.5919   22.9271  -28.9632 H   0  0  0  0  0  0  0  0  0  0  0  0
   -8.1840   23.7305  -29.2506 H   0  0  0  0  0  0  0  0  0  0  0  0
   -5.8286   20.6771  -34.2635 H   0  0  0  0  0  0  0  0  0  0  0  0
   -5.0415   18.6530  -35.4912 H   0  0  0  0  0  0  0  0  0  0  0  0
   -5.7613   16.3804  -34.7537 H   0  0  0  0  0  0  0  0  0  0  0  0
   -7.2748   16.1277  -32.7859 H   0  0  0  0  0  0  0  0  0  0  0  0
   -8.0730   18.1415  -31.5539 H   0  0  0  0  0  0  0  0  0  0  0  0
   -9.4380   21.1030  -32.9300 H   0  0  0  0  0  0  0  0  0  0  0  0
   -4.5852   24.1003  -27.9620 H   0  0  0  0  0  0  0  0  0  0  0  0
   -3.5430   22.4243  -26.4332 H   0  0  0  0  0  0  0  0  0  0  0  0
   -2.6153   19.9034  -29.8260 H   0  0  0  0  0  0  0  0  0  0  0  0
   -3.6579   21.5762  -31.3566 H   0  0  0  0  0  0  0  0  0  0  0  0
  1  2  1  0
  2  3  1  0
  3  4  1  0
  4  5  2  0
  5  6  1  0
  6  7  1  0
  7  8  2  0
  8  9  1  0
  9 10  2  0
 10 11  1  0
 11 12  2  0
  6 13  2  0
 13 14  1  0
  2 15  1  0
 15 16  2  0
 15 17  2  0
 15 18  1  0
 18 19  2  0
 19 20  1  0
 20 21  2  0
 21 22  1  0
 21 23  1  0
 23 24  2  0
 14  4  1  0
 24 18  1  0
 12  7  1  0
  1 25  1  0
  1 26  1  0
  1 27  1  0
  3 28  1  0
  3 29  1  0
  8 30  1  0
  9 31  1  0
 10 32  1  0
 11 33  1  0
 12 34  1  0
 13 35  1  0
 19 36  1  0
 20 37  1  0
 23 38  1  0
 24 39  1  0
M  CHG  1  13   1
M  END
>  <UniqueID>  (12) 
11

>  <SMILES>  (12) 
CN(Cc1nc(-c2ccccc2)[nH+]o1)S(=O)(=O)c1ccc(Br)cc1

>  <Energy>  (12) 
74.16153162032484

>  <Genealogy>  (12) 
CN(Cc1nc(-c2ccccc2)[nH+]o1)S(=O)(=O)c1ccc(Br)cc1 (protonated)
CN(Cc1nc(-c2ccccc2)[nH+]o1)S(=O)(=O)c1ccc(Br)cc1 (3D coordinates assigned)
CN(Cc1nc(-c2ccccc2)[nH+]o1)S(=O)(=O)c1ccc(Br)cc1 (optimized conformer: 74.16153162032484 kcal/mol)

>  <smiles>  (12) 
CN(Cc1nc(-c2ccccc2)no1)S(=O)(=O)c1ccc(Br)cc1

>  <score_type>  (12) 
oracle

>  <origin>  (12) 
adg

>  <m_score__min__energy>  (12) 
-9.0999999999999996

>  <m_primary>  (12) 
energy

$$$$
12:0
     RDKit          3D

 38 40  0  0  0  0  0  0  0  0999 V2000
   -6.0960   25.7470  -30.3870 O   0  0  0  0  0  0  0  0  0  0  0  0
   -5.1930   25.0260  -30.8860 C   0  0  0  0  0  0  0  0  0  0  0  0
   -5.5930   23.8830  -31.7770 C   0  0  0  0  0  0  0  0  0  0  0  0
   -7.0120   23.7580  -31.7860 O   0  0  0  0  0  0  0  0  0  0  0  0
   -7.6740   22.5380  -31.9550 C   0  0  0  0  0  0  0  0  0  0  0  0
   -9.0450   22.4580  -31.7250 C   0  0  0  0  0  0  0  0  0  0  0  0
   -9.6930   21.2410  -31.9070 C   0  0  0  0  0  0  0  0  0  0  0  0
   -8.9600   20.1290  -32.3230 C   0  0  0  0  0  0  0  0  0  0  0  0
   -9.5570   19.0370  -32.5260 O   0  0  0  0  0  0  0  0  0  0  0  0
   -7.6090   20.2460  -32.5310 N   0  0  0  0  0  0  0  0  0  0  0  0
   -6.8130   19.1350  -32.9850 C   0  0  0  0  0  0  0  0  0  0  0  0
   -6.1410   19.1850  -34.2190 C   0  0  0  0  0  0  0  0  0  0  0  0
   -5.3790   18.0950  -34.6510 C   0  0  0  0  0  0  0  0  0  0  0  0
   -5.2890   16.9460  -33.8610 C   0  0  0  0  0  0  0  0  0  0  0  0
   -5.9680   16.8810  -32.6420 C   0  0  0  0  0  0  0  0  0  0  0  0
   -6.7350   17.9670  -32.2080 C   0  0  0  0  0  0  0  0  0  0  0  0
   -7.0020   21.4240  -32.3530 N   0  0  0  0  0  0  0  0  0  0  0  0
   -3.8390   25.2250  -30.4610 N   0  0  0  0  0  0  0  0  0  0  0  0
   -3.1570   24.5280  -29.4090 C   0  0  0  0  0  0  0  0  0  0  0  0
   -1.8820   24.9270  -28.9710 C   0  0  0  0  0  0  0  0  0  0  0  0
   -1.2640   24.2630  -27.9080 C   0  0  0  0  0  0  0  0  0  0  0  0
   -1.9240   23.2170  -27.2570 C   0  0  0  0  0  0  0  0  0  0  0  0
   -3.2050   22.8370  -27.6670 C   0  0  0  0  0  0  0  0  0  0  0  0
   -3.8210   23.4920  -28.7380 C   0  0  0  0  0  0  0  0  0  0  0  0
   -5.0650   23.1120  -29.1270 F   0  0  0  0  0  0  0  0  0  0  0  0
   -5.2358   24.0738  -32.7998 H   0  0  0  0  0  0  0  0  0  0  0  0
   -5.1466   22.9515  -31.3988 H   0  0  0  0  0  0  0  0  0  0  0  0
   -9.6085   23.3463  -31.4034 H   0  0  0  0  0  0  0  0  0  0  0  0
  -10.7744   21.1558  -31.7245 H   0  0  0  0  0  0  0  0  0  0  0  0
   -6.2150   20.0851  -34.8470 H   0  0  0  0  0  0  0  0  0  0  0  0
   -4.8497   18.1422  -35.6141 H   0  0  0  0  0  0  0  0  0  0  0  0
   -4.6832   16.0923  -34.1991 H   0  0  0  0  0  0  0  0  0  0  0  0
   -5.8994   15.9745  -32.0226 H   0  0  0  0  0  0  0  0  0  0  0  0
   -7.2796   17.9064  -31.2542 H   0  0  0  0  0  0  0  0  0  0  0  0
   -1.3693   25.7645  -29.4666 H   0  0  0  0  0  0  0  0  0  0  0  0
   -0.2570   24.5639  -27.5832 H   0  0  0  0  0  0  0  0  0  0  0  0
   -1.4354   22.6930  -26.4223 H   0  0  0  0  0  0  0  0  0  0  0  0
   -3.7292   22.0218  -27.1467 H   0  0  0  0  0  0  0  0  0  0  0  0
  1  2  2  0
  2  3  1  0
  3  4  1  0
  4  5  1  0
  5  6  1  0
  6  7  2  0
  7  8  1  0
  8  9  2  0
  8 10  1  0
 10 11  1  0
 11 12  2  0
 12 13  1  0
 13 14  2  0
 14 15  1  0
 15 16  2  0
 10 17  1  0
  2 18  1  0
 18 19  1  0
 19 20  2  0
 20 21  1  0
 21 22  2  0
 22 23  1  0
 23 24  2  0
 24 25  1  0
 17  5  2  0
 24 19  1  0
 16 11  1  0
  3 26  1  0
  3 27  1  0
  6 28  1  0
  7 29  1  0
 12 30  1  0
 13 31  1  0
 14 32  1  0
 15 33  1  0
 16 34  1  0
 20 35  1  0
 21 36  1  0
 22 37  1  0
 23 38  1  0
M  CHG  1  18  -1
M  END
>  <UniqueID>  (13) 
12

>  <SMILES>  (13) 
O=C(COc1ccc(=O)n(-c2ccccc2)n1)[N-]c1ccccc1F

>  <Energy>  (13) 
47.91335473460311

>  <Genealogy>  (13) 
O=C(COc1ccc(=O)n(-c2ccccc2)n1)[N-]c1ccccc1F (protonated)
O=C(COc1ccc(=O)n(-c2ccccc2)n1)[N-]c1ccccc1F (3D coordinates assigned)
O=C(COc1ccc(=O)n(-c2ccccc2)n1)[N-]c1ccccc1F (optimized conformer: 47.91335473460311 kcal/mol)

>  <smiles>  (13) 
O=C(COc1ccc(=O)n(-c2ccccc2)n1)Nc1ccccc1F

>  <score_type>  (13) 
oracle

>  <origin>  (13) 
adg

>  <m_score__min__energy>  (13) 
-10.77

>  <m_primary>  (13) 
energy

$$$$
13:0
     RDKit          3D

 54 55  0  0  0  0  0  0  0  0999 V2000
   -2.9230   19.3490  -26.7950 C   0  0  0  0  0  0  0  0  0  0  0  0
   -2.6730   20.5770  -27.5340 N   0  0  0  0  0  0  0  0  0  0  0  0
   -3.0390   20.6950  -28.7040 N   0  0  0  0  0  0  0  0  0  0  0  0
   -3.4010   20.8160  -29.8750 N   0  0  0  0  0  0  0  0  0  0  0  0
   -2.4750   21.2850  -30.8990 C   0  0  0  0  0  0  0  0  0  0  0  0
   -3.0350   20.9890  -32.3080 C   0  0  0  0  0  0  0  0  0  0  0  0
   -4.3320   20.2660  -32.3190 N   0  0  0  0  0  0  0  0  0  0  0  0
   -4.1960   18.8540  -32.7330 C   0  0  0  0  0  0  0  0  0  0  0  0
   -5.5180   18.0930  -32.5010 C   0  0  0  0  0  0  0  0  0  0  0  0
   -6.7290   18.8930  -32.8280 N   0  0  0  0  0  0  0  0  0  0  0  0
   -7.5000   19.2900  -31.6290 C   0  0  0  0  0  0  0  0  0  0  0  0
   -8.7980   20.0000  -32.0460 C   0  0  0  0  0  0  0  0  0  0  0  0
   -8.6340   21.5270  -32.0970 C   0  0  0  0  0  0  0  0  0  0  0  0
   -8.1780   22.1180  -30.7840 C   0  0  0  0  0  0  0  0  0  0  0  0
   -8.8830   21.9450  -29.7510 O   0  0  0  0  0  0  0  0  0  0  0  0
   -6.9450   22.9380  -30.6860 C   0  0  0  0  0  0  0  0  0  0  0  0
   -6.6670   23.9010  -31.6710 C   0  0  0  0  0  0  0  0  0  0  0  0
   -5.5140   24.6830  -31.5920 C   0  0  0  0  0  0  0  0  0  0  0  0
   -4.6180   24.5100  -30.5350 C   0  0  0  0  0  0  0  0  0  0  0  0
   -3.4730   25.2970  -30.4700 O   0  0  0  0  0  0  0  0  0  0  0  0
   -4.8650   23.5480  -29.5460 C   0  0  0  0  0  0  0  0  0  0  0  0
   -3.9330   23.4010  -28.5080 O   0  0  0  0  0  0  0  0  0  0  0  0
   -3.8270   24.2760  -27.3890 C   0  0  0  0  0  0  0  0  0  0  0  0
   -6.0340   22.7630  -29.6270 C   0  0  0  0  0  0  0  0  0  0  0  0
   -6.4330   20.0410  -33.7080 C   0  0  0  0  0  0  0  0  0  0  0  0
   -5.3750   20.9860  -33.0980 C   0  0  0  0  0  0  0  0  0  0  0  0
   -2.8809   19.5557  -25.7154 H   0  0  0  0  0  0  0  0  0  0  0  0
   -3.9186   18.9606  -27.0554 H   0  0  0  0  0  0  0  0  0  0  0  0
   -2.1585   18.6022  -27.0554 H   0  0  0  0  0  0  0  0  0  0  0  0
   -2.3300   22.3696  -30.7871 H   0  0  0  0  0  0  0  0  0  0  0  0
   -1.5153   20.7609  -30.7792 H   0  0  0  0  0  0  0  0  0  0  0  0
   -3.1719   21.9470  -32.8309 H   0  0  0  0  0  0  0  0  0  0  0  0
   -2.3061   20.3286  -32.8005 H   0  0  0  0  0  0  0  0  0  0  0  0
   -4.6480   20.2560  -31.3200 H   0  0  0  0  0  0  0  0  0  0  0  0
   -3.9376   18.8133  -33.8015 H   0  0  0  0  0  0  0  0  0  0  0  0
   -3.4039   18.3821  -32.1330 H   0  0  0  0  0  0  0  0  0  0  0  0
   -5.5158   17.1914  -33.1311 H   0  0  0  0  0  0  0  0  0  0  0  0
   -5.5690   17.8528  -31.4288 H   0  0  0  0  0  0  0  0  0  0  0  0
   -7.7483   18.3930  -31.0428 H   0  0  0  0  0  0  0  0  0  0  0  0
   -6.8927   19.9778  -31.0222 H   0  0  0  0  0  0  0  0  0  0  0  0
   -9.0929   19.6419  -33.0434 H   0  0  0  0  0  0  0  0  0  0  0  0
   -9.5664   19.7679  -31.2939 H   0  0  0  0  0  0  0  0  0  0  0  0
   -7.8903   21.7736  -32.8690 H   0  0  0  0  0  0  0  0  0  0  0  0
   -9.6212   21.9555  -32.3244 H   0  0  0  0  0  0  0  0  0  0  0  0
   -7.3638   24.0394  -32.5109 H   0  0  0  0  0  0  0  0  0  0  0  0
   -5.3102   25.4385  -32.3651 H   0  0  0  0  0  0  0  0  0  0  0  0
   -3.8977   23.6924  -26.4592 H   0  0  0  0  0  0  0  0  0  0  0  0
   -2.8591   24.7976  -27.4218 H   0  0  0  0  0  0  0  0  0  0  0  0
   -4.6424   25.0136  -27.4218 H   0  0  0  0  0  0  0  0  0  0  0  0
   -6.2360   22.0062  -28.8547 H   0  0  0  0  0  0  0  0  0  0  0  0
   -6.0572   19.6623  -34.6699 H   0  0  0  0  0  0  0  0  0  0  0  0
   -7.3625   20.6145  -33.8391 H   0  0  0  0  0  0  0  0  0  0  0  0
   -4.8849   21.5369  -33.9143 H   0  0  0  0  0  0  0  0  0  0  0  0
   -5.8976   21.6600  -32.4033 H   0  0  0  0  0  0  0  0  0  0  0  0
  1  2  1  0
  2  3  2  0
  3  4  2  0
  4  5  1  0
  5  6  1  0
  6  7  1  0
  7  8  1  0
  8  9  1  0
  9 10  1  0
 10 11  1  0
 11 12  1  0
 12 13  1  0
 13 14  1  0
 14 15  2  0
 14 16  1  0
 16 17  2  0
 17 18  1  0
 18 19  2  0
 19 20  1  0
 19 21  1  0
 21 22  1  0
 22 23  1  0
 21 24  2  0
 10 25  1  0
 25 26  1  0
 26  7  1  0
 24 16  1  0
  1 27  1  0
  1 28  1  0
  1 29  1  0
  5 30  1  0
  5 31  1  0
  6 32  1  0
  6 33  1  0
  7 34  1  0
  8 35  1  0
  8 36  1  0
  9 37  1  0
  9 38  1  0
 11 39  1  0
 11 40  1  0
 12 41  1  0
 12 42  1  0
 13 43  1  0
 13 44  1  0
 17 45  1  0
 18 46  1  0
 23 47  1  0
 23 48  1  0
 23 49  1  0
 24 50  1  0
 25 51  1  0
 25 52  1  0
 26 53  1  0
 26 54  1  0
M  CHG  3   3   1   7   1  20  -1
M  END
>  <UniqueID>  (14) 
13

>  <SMILES>  (14) 
CN=[N+]=NCC[NH+]1CCN(CCCC(=O)c2ccc([O-])c(OC)c2)CC1

>  <Energy>  (14) 
61.077606918893736

>  <Genealogy>  (14) 
CN=[N+]=NCC[NH+]1CCN(CCCC(=O)c2ccc([O-])c(OC)c2)CC1 (protonated)
CN=[N+]=NCC[NH+]1CCN(CCCC(=O)c2ccc([O-])c(OC)c2)CC1 (3D coordinates assigned)
CN=[N+]=NCC[NH+]1CCN(CCCC(=O)c2ccc([O-])c(OC)c2)CC1 (nonaromatic ring conformer: 61.077606918893736 kcal/mol)

>  <smiles>  (14) 
CN=[N+]=NCCN1CCN(CCCC(=O)c2ccc(O)c(OC)c2)CC1

>  <score_type>  (14) 
oracle

>  <origin>  (14) 
adg

>  <m_score__min__energy>  (14) 
-9.7200000000000006

>  <m_primary>  (14) 
energy

$$$$
14:0
     RDKit          3D

 45 47  0  0  0  0  0  0  0  0999 V2000
   -6.9730   17.5090  -32.8210 C   0  0  0  0  0  0  0  0  0  0  0  0
   -7.5460   18.8700  -32.5560 C   0  0  0  0  0  0  0  0  0  0  0  0
   -8.9290   19.0300  -32.3830 C   0  0  0  0  0  0  0  0  0  0  0  0
   -9.4590   20.2890  -32.0900 C   0  0  0  0  0  0  0  0  0  0  0  0
   -8.6130   21.3930  -31.9580 C   0  0  0  0  0  0  0  0  0  0  0  0
   -7.2240   21.2490  -32.1190 C   0  0  0  0  0  0  0  0  0  0  0  0
   -6.3480   22.3820  -31.9610 N   0  0  0  0  0  0  0  0  0  0  0  0
   -6.8660   23.6420  -31.4060 C   0  0  0  0  0  0  0  0  0  0  0  0
   -5.7160   24.5580  -30.9740 C   0  0  0  0  0  0  0  0  0  0  0  0
   -4.6810   23.7500  -30.3070 N   0  0  0  0  0  0  0  0  0  0  0  0
   -3.7160   24.5480  -29.5210 C   0  0  0  0  0  0  0  0  0  0  0  0
   -3.4420   23.9900  -28.1100 C   0  0  0  0  0  0  0  0  0  0  0  0
   -2.5960   24.9160  -27.3590 N   0  0  0  0  0  0  0  0  0  0  0  0
   -2.7940   25.3050  -25.9680 C   0  0  0  0  0  0  0  0  0  0  0  0
   -1.6100   26.2440  -25.6240 C   0  0  0  0  0  0  0  0  0  0  0  0
   -0.7850   26.3030  -26.8250 N   0  0  0  0  0  0  0  0  0  0  0  0
   -1.3980   25.5100  -27.8110 C   0  0  0  0  0  0  0  0  0  0  0  0
   -0.9200   25.3420  -28.9650 O   0  0  0  0  0  0  0  0  0  0  0  0
   -4.0270   22.7620  -31.2000 C   0  0  0  0  0  0  0  0  0  0  0  0
   -4.9360   22.3070  -32.3580 C   0  0  0  0  0  0  0  0  0  0  0  0
   -6.6970   19.9770  -32.4040 C   0  0  0  0  0  0  0  0  0  0  0  0
   -6.7619   17.0075  -31.8650 H   0  0  0  0  0  0  0  0  0  0  0  0
   -7.6963   16.9123  -33.3962 H   0  0  0  0  0  0  0  0  0  0  0  0
   -6.0407   17.6093  -33.3962 H   0  0  0  0  0  0  0  0  0  0  0  0
   -9.5978   18.1619  -32.4783 H   0  0  0  0  0  0  0  0  0  0  0  0
  -10.5448   20.4113  -31.9630 H   0  0  0  0  0  0  0  0  0  0  0  0
   -9.0366   22.3814  -31.7266 H   0  0  0  0  0  0  0  0  0  0  0  0
   -7.4668   24.1539  -32.1722 H   0  0  0  0  0  0  0  0  0  0  0  0
   -7.4845   23.4124  -30.5258 H   0  0  0  0  0  0  0  0  0  0  0  0
   -5.2856   25.0509  -31.8582 H   0  0  0  0  0  0  0  0  0  0  0  0
   -6.0928   25.3238  -30.2800 H   0  0  0  0  0  0  0  0  0  0  0  0
   -2.7640   24.5794  -30.0713 H   0  0  0  0  0  0  0  0  0  0  0  0
   -4.1617   25.5448  -29.3877 H   0  0  0  0  0  0  0  0  0  0  0  0
   -4.3965   23.8574  -27.5795 H   0  0  0  0  0  0  0  0  0  0  0  0
   -2.9259   23.0227  -28.1994 H   0  0  0  0  0  0  0  0  0  0  0  0
   -3.7508   25.8348  -25.8501 H   0  0  0  0  0  0  0  0  0  0  0  0
   -2.8260   24.4302  -25.3018 H   0  0  0  0  0  0  0  0  0  0  0  0
   -1.9799   27.2468  -25.3642 H   0  0  0  0  0  0  0  0  0  0  0  0
   -1.0391   25.8742  -24.7595 H   0  0  0  0  0  0  0  0  0  0  0  0
    0.1020   26.8430  -26.9340 H   0  0  0  0  0  0  0  0  0  0  0  0
   -3.1203   23.2182  -31.6239 H   0  0  0  0  0  0  0  0  0  0  0  0
   -3.7935   21.8736  -30.5948 H   0  0  0  0  0  0  0  0  0  0  0  0
   -4.7690   22.9595  -33.2277 H   0  0  0  0  0  0  0  0  0  0  0  0
   -4.6925   21.2654  -32.6144 H   0  0  0  0  0  0  0  0  0  0  0  0
   -5.6096   19.8484  -32.5088 H   0  0  0  0  0  0  0  0  0  0  0  0
  1  2  1  0
  2  3  2  0
  3  4  1  0
  4  5  2  0
  5  6  1  0
  6  7  1  0
  7  8  1  0
  8  9  1  0
  9 10  1  0
 10 11  1  0
 11 12  1  0
 12 13  1  0
 13 14  1  0
 14 15  1  0
 15 16  1  0
 16 17  1  0
 17 18  2  0
 10 19  1  0
 19 20  1  0
  6 21  2  0
 21  2  1  0
 20  7  1  0
 17 13  1  0
  1 22  1  0
  1 23  1  0
  1 24  1  0
  3 25  1  0
  4 26  1  0
  5 27  1  0
  8 28  1  0
  8 29  1  0
  9 30  1  0
  9 31  1  0
 11 32  1  0
 11 33  1  0
 12 34  1  0
 12 35  1  0
 14 36  1  0
 14 37  1  0
 15 38  1  0
 15 39  1  0
 16 40  1  0
 19 41  1  0
 19 42  1  0
 20 43  1  0
 20 44  1  0
 21 45  1  0
M  END
>  <UniqueID>  (15) 
14

>  <SMILES>  (15) 
Cc1cccc(N2CCN(CCN3CCNC3=O)CC2)c1

>  <Energy>  (15) 
66.27156410786932

>  <Genealogy>  (15) 
Cc1cccc(N2CCN(CCN3CCNC3=O)CC2)c1 (3D coordinates assigned)
Cc1cccc(N2CCN(CCN3CCNC3=O)CC2)c1 (nonaromatic ring conformer: 66.27156410786932 kcal/mol)

>  <smiles>  (15) 
Cc1cccc(N2CCN(CCN3CCNC3=O)CC2)c1

>  <score_type>  (15) 
oracle

>  <origin>  (15) 
adg

>  <m_score__min__energy>  (15) 
-7.6200000000000001

>  <m_primary>  (15) 
energy

$$$$
15:0
     RDKit          3D

 54 57  0  0  0  0  0  0  0  0999 V2000
   -9.4940   23.4270  -32.3390 C   0  0  0  0  0  0  0  0  0  0  0  0
   -8.1040   23.6140  -32.5880 O   0  0  0  0  0  0  0  0  0  0  0  0
   -7.0930   22.7280  -32.1770 C   0  0  0  0  0  0  0  0  0  0  0  0
   -7.0160   21.4120  -32.6680 C   0  0  0  0  0  0  0  0  0  0  0  0
   -5.9910   20.5540  -32.2330 C   0  0  0  0  0  0  0  0  0  0  0  0
   -5.9110   19.1630  -32.7460 C   0  0  0  0  0  0  0  0  0  0  0  0
   -6.1660   18.0770  -31.8950 C   0  0  0  0  0  0  0  0  0  0  0  0
   -6.0910   16.7660  -32.3710 C   0  0  0  0  0  0  0  0  0  0  0  0
   -5.7540   16.5030  -33.7140 C   0  0  0  0  0  0  0  0  0  0  0  0
   -5.6760   15.1400  -34.2100 N   0  0  0  0  0  0  0  0  0  0  0  0
   -6.8890   14.3250  -34.3480 C   0  0  0  0  0  0  0  0  0  0  0  0
   -4.3820   14.5550  -34.5820 C   0  0  0  0  0  0  0  0  0  0  0  0
   -5.4980   17.5990  -34.5630 C   0  0  0  0  0  0  0  0  0  0  0  0
   -5.5750   18.9090  -34.0850 C   0  0  0  0  0  0  0  0  0  0  0  0
   -5.0740   21.0070  -31.3290 N   0  0  0  0  0  0  0  0  0  0  0  0
   -5.1200   22.2730  -30.8330 C   0  0  0  0  0  0  0  0  0  0  0  0
   -4.1840   22.6840  -29.9370 N   0  0  0  0  0  0  0  0  0  0  0  0
   -4.1750   23.9400  -29.4070 C   0  0  0  0  0  0  0  0  0  0  0  0
   -3.1500   24.3090  -28.4580 N   0  0  0  0  0  0  0  0  0  0  0  0
   -1.7820   24.5750  -28.9300 C   0  0  0  0  0  0  0  0  0  0  0  0
   -0.7640   24.1420  -27.8700 C   0  0  0  0  0  0  0  0  0  0  0  0
   -1.0150   24.7990  -26.4960 C   0  0  0  0  0  0  0  0  0  0  0  0
   -2.4260   25.3900  -26.3420 C   0  0  0  0  0  0  0  0  0  0  0  0
   -3.4870   24.5330  -27.0410 C   0  0  0  0  0  0  0  0  0  0  0  0
   -5.1750   24.8500  -29.7950 C   0  0  0  0  0  0  0  0  0  0  0  0
   -6.1490   24.4600  -30.7150 C   0  0  0  0  0  0  0  0  0  0  0  0
   -6.1320   23.1620  -31.2480 C   0  0  0  0  0  0  0  0  0  0  0  0
   -9.6721   23.4030  -31.2538 H   0  0  0  0  0  0  0  0  0  0  0  0
  -10.0614   24.2569  -32.7855 H   0  0  0  0  0  0  0  0  0  0  0  0
   -9.8219   22.4767  -32.7855 H   0  0  0  0  0  0  0  0  0  0  0  0
   -7.7600   21.0533  -33.3945 H   0  0  0  0  0  0  0  0  0  0  0  0
   -6.4276   18.2599  -30.8423 H   0  0  0  0  0  0  0  0  0  0  0  0
   -6.2976   15.9281  -31.6890 H   0  0  0  0  0  0  0  0  0  0  0  0
   -7.2729   14.0670  -33.3500 H   0  0  0  0  0  0  0  0  0  0  0  0
   -7.6524   14.8941  -34.8987 H   0  0  0  0  0  0  0  0  0  0  0  0
   -6.6506   13.4031  -34.8987 H   0  0  0  0  0  0  0  0  0  0  0  0
   -3.8193   14.3006  -33.6717 H   0  0  0  0  0  0  0  0  0  0  0  0
   -4.5485   13.6446  -35.1765 H   0  0  0  0  0  0  0  0  0  0  0  0
   -3.8085   15.2814  -35.1765 H   0  0  0  0  0  0  0  0  0  0  0  0
   -5.2341   17.4200  -35.6158 H   0  0  0  0  0  0  0  0  0  0  0  0
   -5.3704   19.7497  -34.7642 H   0  0  0  0  0  0  0  0  0  0  0  0
   -4.2980   20.3790  -31.0160 H   0  0  0  0  0  0  0  0  0  0  0  0
   -1.6019   24.0127  -29.8581 H   0  0  0  0  0  0  0  0  0  0  0  0
   -1.6696   25.6532  -29.1169 H   0  0  0  0  0  0  0  0  0  0  0  0
   -0.8214   23.0497  -27.7530 H   0  0  0  0  0  0  0  0  0  0  0  0
    0.2299   24.4638  -28.2144 H   0  0  0  0  0  0  0  0  0  0  0  0
   -0.8703   24.0376  -25.7154 H   0  0  0  0  0  0  0  0  0  0  0  0
   -0.3049   25.6341  -26.4045 H   0  0  0  0  0  0  0  0  0  0  0  0
   -2.6696   25.4532  -25.2712 H   0  0  0  0  0  0  0  0  0  0  0  0
   -2.4305   26.3852  -26.8106 H   0  0  0  0  0  0  0  0  0  0  0  0
   -3.5542   23.5606  -26.5312 H   0  0  0  0  0  0  0  0  0  0  0  0
   -4.4481   25.0660  -26.9941 H   0  0  0  0  0  0  0  0  0  0  0  0
   -5.1892   25.8663  -29.3743 H   0  0  0  0  0  0  0  0  0  0  0  0
   -6.9305   25.1704  -31.0226 H   0  0  0  0  0  0  0  0  0  0  0  0
  1  2  1  0
  2  3  1  0
  3  4  2  0
  4  5  1  0
  5  6  1  0
  6  7  2  0
  7  8  1  0
  8  9  2  0
  9 10  1  0
 10 11  1  0
 10 12  1  0
  9 13  1  0
 13 14  2  0
  5 15  2  0
 15 16  1  0
 16 17  2  0
 17 18  1  0
 18 19  1  0
 19 20  1  0
 20 21  1  0
 21 22  1  0
 22 23  1  0
 23 24  1  0
 18 25  2  0
 25 26  1  0
 26 27  2  0
 27  3  1  0
 14  6  1  0
 27 16  1  0
 24 19  1  0
  1 28  1  0
  1 29  1  0
  1 30  1  0
  4 31  1  0
  7 32  1  0
  8 33  1  0
 11 34  1  0
 11 35  1  0
 11 36  1  0
 12 37  1  0
 12 38  1  0
 12 39  1  0
 13 40  1  0
 14 41  1  0
 15 42  1  0
 20 43  1  0
 20 44  1  0
 21 45  1  0
 21 46  1  0
 22 47  1  0
 22 48  1  0
 23 49  1  0
 23 50  1  0
 24 51  1  0
 24 52  1  0
 25 53  1  0
 26 54  1  0
M  CHG  1  15   1
M  END
>  <UniqueID>  (16) 
15

>  <SMILES>  (16) 
COc1cc(-c2ccc(N(C)C)cc2)[nH+]c2nc(N3CCCCC3)ccc12

>  <Energy>  (16) 
69.3698622806082

>  <Genealogy>  (16) 
COc1cc(-c2ccc(N(C)C)cc2)[nH+]c2nc(N3CCCCC3)ccc12 (protonated)
COc1cc(-c2ccc(N(C)C)cc2)[nH+]c2nc(N3CCCCC3)ccc12 (3D coordinates assigned)
COc1cc(-c2ccc(N(C)C)cc2)[nH+]c2nc(N3CCCCC3)ccc12 (nonaromatic ring conformer: 69.3698622806082 kcal/mol)

>  <smiles>  (16) 
COc1cc(-c2ccc(N(C)C)cc2)nc2nc(N3CCCCC3)ccc12

>  <score_type>  (16) 
oracle

>  <origin>  (16) 
adg

>  <m_score__min__energy>  (16) 
-7.3600000000000003

>  <m_primary>  (16) 
energy

$$$$
16:0
     RDKit          3D

 26 27  0  0  0  0  0  0  0  0999 V2000
   -9.2489   21.5562  -31.4238 H   0  0  0  0  0  0  0  0  0  0  0  0
   -8.1870   21.8040  -31.5690 C   0  0  0  0  0  0  0  0  0  0  0  0
   -7.6340   22.9140  -30.9220 C   0  0  0  0  0  0  0  0  0  0  0  0
   -8.2616   23.5363  -30.2671 H   0  0  0  0  0  0  0  0  0  0  0  0
   -6.2830   23.2350  -31.1060 C   0  0  0  0  0  0  0  0  0  0  0  0
   -5.5930   24.6390  -30.2970 S   0  0  0  0  0  0  0  0  0  0  0  0
   -6.6510   25.6720  -30.0250 O   0  0  0  0  0  0  0  0  0  0  0  0
   -4.5420   25.2400  -31.1850 O   0  0  0  0  0  0  0  0  0  0  0  0
   -4.8600   24.1660  -28.7940 N   0  0  0  0  0  0  0  0  0  0  0  0
   -3.5840   24.0630  -28.5470 C   0  0  0  0  0  0  0  0  0  0  0  0
   -3.0600   23.0730  -27.6900 C   0  0  0  0  0  0  0  0  0  0  0  0
   -3.7320   22.3547  -27.1976 H   0  0  0  0  0  0  0  0  0  0  0  0
   -1.6830   23.0110  -27.4710 C   0  0  0  0  0  0  0  0  0  0  0  0
   -1.2661   22.2410  -26.8053 H   0  0  0  0  0  0  0  0  0  0  0  0
   -0.8360   23.9250  -28.0960 C   0  0  0  0  0  0  0  0  0  0  0  0
    0.8960   23.8570  -27.8290 Cl  0  0  0  0  0  0  0  0  0  0  0  0
   -1.3830   24.8960  -28.9360 C   0  0  0  0  0  0  0  0  0  0  0  0
   -0.7254   25.6242  -29.4333 H   0  0  0  0  0  0  0  0  0  0  0  0
   -2.7280   24.9450  -29.1420 N   0  0  0  0  0  0  0  0  0  0  0  0
   -3.1060   25.6830  -29.7780 H   0  0  0  0  0  0  0  0  0  0  0  0
   -5.4860   22.4320  -31.9350 C   0  0  0  0  0  0  0  0  0  0  0  0
   -4.4226   22.6750  -32.0772 H   0  0  0  0  0  0  0  0  0  0  0  0
   -6.0410   21.3230  -32.5810 C   0  0  0  0  0  0  0  0  0  0  0  0
   -5.4142   20.6965  -33.2326 H   0  0  0  0  0  0  0  0  0  0  0  0
   -7.3920   21.0090  -32.4000 C   0  0  0  0  0  0  0  0  0  0  0  0
   -7.9290   19.9340  -33.0270 F   0  0  0  0  0  0  0  0  0  0  0  0
  1  2  1  0
  2  3  2  0
  3  4  1  0
  3  5  1  0
  5  6  1  0
  6  7  2  0
  6  8  2  0
  6  9  1  0
  9 10  2  0
 10 11  1  0
 11 12  1  0
 11 13  2  0
 13 14  1  0
 13 15  1  0
 15 16  1  0
 15 17  2  0
 17 18  1  0
 17 19  1  0
 19 20  1  0
  5 21  2  0
 21 22  1  0
 21 23  1  0
 23 24  1  0
 23 25  2  0
 25 26  1  0
 25  2  1  0
 19 10  1  0
M  END
>  <UniqueID>  (17) 
16

>  <SMILES>  (17) 
O=S(=O)(/N=c1\ccc(Cl)c[nH]1)c1ccc(F)cc1

>  <Energy>  (17) 
32.40477607407094

>  <Genealogy>  (17) 
O=S(=O)(/N=c1\ccc(Cl)c[nH]1)c1ccc(F)cc1 (cis-trans isomerization)
O=S(=O)(/N=c1\ccc(Cl)c[nH]1)c1ccc(F)cc1 (3D coordinates assigned)
O=S(=O)(/N=c1\ccc(Cl)c[nH]1)c1ccc(F)cc1 (optimized conformer: 32.40477607407094 kcal/mol)

>  <smiles>  (17) 
O=S(=O)(N=c1ccc(Cl)c[nH]1)c1ccc(F)cc1

>  <score_type>  (17) 
oracle

>  <origin>  (17) 
adg

>  <m_score__min__energy>  (17) 
-7.4100000000000001

>  <m_primary>  (17) 
energy

$$$$
17:0
     RDKit          3D

 50 52  0  0  0  0  0  0  0  0999 V2000
   -4.3690   22.4700  -31.8420 C   0  0  0  0  0  0  0  0  0  0  0  0
   -4.8480   23.4740  -30.8980 N   0  0  0  0  0  0  0  0  0  0  0  0
   -5.5980   24.5490  -31.2110 C   0  0  0  0  0  0  0  0  0  0  0  0
   -5.9020   25.2620  -30.0680 C   0  0  0  0  0  0  0  0  0  0  0  0
   -5.3160   24.5890  -29.0130 C   0  0  0  0  0  0  0  0  0  0  0  0
   -4.6760   23.4910  -29.5570 C   0  0  0  0  0  0  0  0  0  0  0  0
   -3.9030   22.4740  -28.7620 C   0  0  0  0  0  0  0  0  0  0  0  0
   -2.5170   22.9340  -28.5410 N   0  0  0  0  0  0  0  0  0  0  0  0
   -2.2120   24.1530  -29.3260 C   0  0  0  0  0  0  0  0  0  0  0  0
   -1.9870   25.2650  -28.3200 C   0  0  2  0  0  0  0  0  0  0  0  0
   -1.1120   26.2840  -28.7580 O   0  0  0  0  0  0  0  0  0  0  0  0
   -0.5370   27.0070  -27.6600 C   0  0  0  0  0  0  0  0  0  0  0  0
   -1.2170   26.8080  -26.2610 C   0  0  0  0  0  0  0  0  0  0  0  0
   -1.5390   25.3860  -25.9520 N   0  0  0  0  0  0  0  0  0  0  0  0
   -0.8580   24.8580  -24.7490 C   0  0  0  0  0  0  0  0  0  0  0  0
    0.6070   25.3350  -24.5890 C   0  0  0  0  0  0  0  0  0  0  0  0
    0.7740   26.2720  -23.4530 N   0  0  0  0  0  0  0  0  0  0  0  0
   -0.5410   26.7870  -23.0320 C   0  0  0  0  0  0  0  0  0  0  0  0
    1.6600   27.3990  -23.8000 C   0  0  0  0  0  0  0  0  0  0  0  0
   -1.4170   24.5250  -27.1400 C   0  0  1  0  0  0  0  0  0  0  0  0
   -2.2590   23.2670  -27.1210 C   0  0  0  0  0  0  0  0  0  0  0  0
   -3.9597   21.6120  -31.2885 H   0  0  0  0  0  0  0  0  0  0  0  0
   -5.2037   22.1338  -32.4746 H   0  0  0  0  0  0  0  0  0  0  0  0
   -3.5825   22.9072  -32.4746 H   0  0  0  0  0  0  0  0  0  0  0  0
   -5.9206   24.8189  -32.2274 H   0  0  0  0  0  0  0  0  0  0  0  0
   -6.4955   26.1863  -30.0089 H   0  0  0  0  0  0  0  0  0  0  0  0
   -5.3517   24.8711  -27.9504 H   0  0  0  0  0  0  0  0  0  0  0  0
   -4.3945   22.3255  -27.7892 H   0  0  0  0  0  0  0  0  0  0  0  0
   -3.8784   21.5282  -29.3231 H   0  0  0  0  0  0  0  0  0  0  0  0
   -1.3067   23.9989  -29.9315 H   0  0  0  0  0  0  0  0  0  0  0  0
   -3.0331   24.3991  -30.0154 H   0  0  0  0  0  0  0  0  0  0  0  0
   -2.9163   25.8159  -28.1129 H   0  0  0  0  0  0  0  0  0  0  0  0
    0.5141   26.6959  -27.5684 H   0  0  0  0  0  0  0  0  0  0  0  0
   -0.6781   28.0701  -27.9046 H   0  0  0  0  0  0  0  0  0  0  0  0
   -0.5349   27.1867  -25.4856 H   0  0  0  0  0  0  0  0  0  0  0  0
   -2.1698   27.3573  -26.2839 H   0  0  0  0  0  0  0  0  0  0  0  0
   -1.4245   25.1797  -23.8626 H   0  0  0  0  0  0  0  0  0  0  0  0
   -0.8244   23.7640  -24.8589 H   0  0  0  0  0  0  0  0  0  0  0  0
    1.2481   24.4572  -24.4204 H   0  0  0  0  0  0  0  0  0  0  0  0
    0.8889   25.8685  -25.5087 H   0  0  0  0  0  0  0  0  0  0  0  0
    1.1880   25.7590  -22.6380 H   0  0  0  0  0  0  0  0  0  0  0  0
   -0.5923   26.8071  -21.9334 H   0  0  0  0  0  0  0  0  0  0  0  0
   -0.6786   27.8055  -23.4242 H   0  0  0  0  0  0  0  0  0  0  0  0
   -1.3337   26.1329  -23.4242 H   0  0  0  0  0  0  0  0  0  0  0  0
    2.0310   27.8710  -22.8783 H   0  0  0  0  0  0  0  0  0  0  0  0
    2.5109   27.0282  -24.3903 H   0  0  0  0  0  0  0  0  0  0  0  0
    1.0988   28.1383  -24.3903 H   0  0  0  0  0  0  0  0  0  0  0  0
   -0.3483   24.2672  -27.1772 H   0  0  0  0  0  0  0  0  0  0  0  0
   -1.7139   22.4484  -26.6283 H   0  0  0  0  0  0  0  0  0  0  0  0
   -3.1952   23.4143  -26.5626 H   0  0  0  0  0  0  0  0  0  0  0  0
  1  2  1  0
  2  3  1  0
  3  4  2  0
  4  5  1  0
  5  6  2  0
  6  7  1  0
  7  8  1  0
  8  9  1  0
  9 10  1  0
 10 11  1  0
 11 12  1  0
 12 13  1  0
 13 14  1  0
 14 15  1  0
 15 16  1  0
 16 17  1  0
 17 18  1  0
 17 19  1  0
 14 20  1  0
 20 21  1  0
  6  2  1  0
 21  8  1  0
 20 10  1  0
  1 22  1  0
  1 23  1  0
  1 24  1  0
  3 25  1  0
  4 26  1  0
  5 27  1  0
  7 28  1  0
  7 29  1  0
  9 30  1  0
  9 31  1  0
 10 32  1  1
 12 33  1  0
 12 34  1  0
 13 35  1  0
 13 36  1  0
 15 37  1  0
 15 38  1  0
 16 39  1  0
 16 40  1  0
 17 41  1  0
 18 42  1  0
 18 43  1  0
 18 44  1  0
 19 45  1  0
 19 46  1  0
 19 47  1  0
 20 48  1  6
 21 49  1  0
 21 50  1  0
M  CHG  1  17   1
M  END
>  <UniqueID>  (18) 
17

>  <SMILES>  (18) 
Cn1cccc1CN1C[C@@H]2OCCN(CC[NH+](C)C)[C@H]2C1

>  <Energy>  (18) 
101.43698412389006

>  <Genealogy>  (18) 
Cn1cccc1CN1CC2OCCN(CC[NH+](C)C)C2C1 (protonated)
Cn1cccc1CN1C[C@@H]2OCCN(CC[NH+](C)C)[C@H]2C1 (chirality)
Cn1cccc1CN1C[C@@H]2OCCN(CC[NH+](C)C)[C@H]2C1 (3D coordinates assigned)
Cn1cccc1CN1C[C@@H]2OCCN(CC[NH+](C)C)[C@H]2C1 (nonaromatic ring conformer: 101.43698412389006 kcal/mol)

>  <smiles>  (18) 
CN(C)CCN1CCOC2CN(Cc3cccn3C)CC21

>  <score_type>  (18) 
oracle

>  <origin>  (18) 
adg

>  <m_score__min__energy>  (18) 
-6.5300000000000002

>  <m_primary>  (18) 
energy

$$$$
18:0
     RDKit          3D

 53 55  0  0  0  0  0  0  0  0999 V2000
   -0.1120   22.8700  -28.0630 C   0  0  0  0  0  0  0  0  0  0  0  0
   -0.5250   23.9240  -27.0690 C   0  0  0  0  0  0  0  0  0  0  0  0
   -0.1530   23.7780  -25.7210 C   0  0  0  0  0  0  0  0  0  0  0  0
   -0.5160   24.7380  -24.7760 C   0  0  0  0  0  0  0  0  0  0  0  0
   -1.2500   25.8580  -25.1610 C   0  0  0  0  0  0  0  0  0  0  0  0
   -1.6270   26.0210  -26.4950 C   0  0  0  0  0  0  0  0  0  0  0  0
   -1.2750   25.0630  -27.4630 C   0  0  0  0  0  0  0  0  0  0  0  0
   -1.6830   25.2920  -28.9010 C   0  0  0  0  0  0  0  0  0  0  0  0
   -2.5890   24.2420  -29.3490 N   0  0  0  0  0  0  0  0  0  0  0  0
   -3.6840   24.4660  -30.2420 C   0  0  0  0  0  0  0  0  0  0  0  0
   -3.8670   25.6050  -30.7520 O   0  0  0  0  0  0  0  0  0  0  0  0
   -4.6070   23.3280  -30.5840 C   0  0  1  0  0  0  0  0  0  0  0  0
   -6.0780   23.7990  -30.6450 C   0  0  0  0  0  0  0  0  0  0  0  0
   -6.9560   22.8760  -31.5170 C   0  0  0  0  0  0  0  0  0  0  0  0
   -6.4120   21.5060  -31.5660 N   0  0  1  0  0  0  0  0  0  0  0  0
   -7.5370   20.4480  -32.3830 S   0  0  0  0  0  0  0  0  0  0  0  0
   -8.9350   20.9740  -32.1970 O   0  0  0  0  0  0  0  0  0  0  0  0
   -7.2200   20.4240  -33.8540 O   0  0  0  0  0  0  0  0  0  0  0  0
   -7.4020   18.8310  -31.7170 N   0  0  0  0  0  0  0  0  0  0  0  0
   -7.9820   17.8110  -32.6190 C   0  0  0  0  0  0  0  0  0  0  0  0
   -6.9170   17.0890  -33.4650 C   0  0  0  0  0  0  0  0  0  0  0  0
   -5.8460   17.9600  -33.7520 O   0  0  0  0  0  0  0  0  0  0  0  0
   -5.1170   18.2510  -32.5710 C   0  0  0  0  0  0  0  0  0  0  0  0
   -6.0150   18.5080  -31.3370 C   0  0  0  0  0  0  0  0  0  0  0  0
   -5.0970   21.4600  -32.2480 C   0  0  0  0  0  0  0  0  0  0  0  0
   -4.1900   22.6650  -31.9040 C   0  0  0  0  0  0  0  0  0  0  0  0
    0.2382   21.9764  -27.5256 H   0  0  0  0  0  0  0  0  0  0  0  0
   -0.9725   22.6044  -28.6946 H   0  0  0  0  0  0  0  0  0  0  0  0
    0.6999   23.2597  -28.6946 H   0  0  0  0  0  0  0  0  0  0  0  0
    0.4296   22.8988  -25.4086 H   0  0  0  0  0  0  0  0  0  0  0  0
   -0.2218   24.6103  -23.7238 H   0  0  0  0  0  0  0  0  0  0  0  0
   -1.5324   26.6139  -24.4135 H   0  0  0  0  0  0  0  0  0  0  0  0
   -2.2055   26.9080  -26.7925 H   0  0  0  0  0  0  0  0  0  0  0  0
   -2.1886   26.2654  -28.9830 H   0  0  0  0  0  0  0  0  0  0  0  0
   -0.7824   25.2775  -29.5325 H   0  0  0  0  0  0  0  0  0  0  0  0
   -4.5277   22.5783  -29.7830 H   0  0  0  0  0  0  0  0  0  0  0  0
   -6.1065   24.8148  -31.0662 H   0  0  0  0  0  0  0  0  0  0  0  0
   -6.4803   23.7755  -29.6215 H   0  0  0  0  0  0  0  0  0  0  0  0
   -6.9972   23.2816  -32.5387 H   0  0  0  0  0  0  0  0  0  0  0  0
   -7.9617   22.8338  -31.0733 H   0  0  0  0  0  0  0  0  0  0  0  0
   -6.3090   21.1490  -30.5870 H   0  0  0  0  0  0  0  0  0  0  0  0
   -8.5130   17.0644  -32.0102 H   0  0  0  0  0  0  0  0  0  0  0  0
   -8.6609   18.3291  -33.3123 H   0  0  0  0  0  0  0  0  0  0  0  0
   -6.5383   16.2200  -32.9069 H   0  0  0  0  0  0  0  0  0  0  0  0
   -7.3737   16.7604  -34.4102 H   0  0  0  0  0  0  0  0  0  0  0  0
   -4.4578   17.3985  -32.3501 H   0  0  0  0  0  0  0  0  0  0  0  0
   -4.5539   19.1770  -32.7590 H   0  0  0  0  0  0  0  0  0  0  0  0
   -6.0207   17.6052  -30.7085 H   0  0  0  0  0  0  0  0  0  0  0  0
   -5.6036   19.3710  -30.7930 H   0  0  0  0  0  0  0  0  0  0  0  0
   -5.2669   21.4492  -33.3347 H   0  0  0  0  0  0  0  0  0  0  0  0
   -4.5806   20.5526  -31.9017 H   0  0  0  0  0  0  0  0  0  0  0  0
   -4.2596   23.4066  -32.7134 H   0  0  0  0  0  0  0  0  0  0  0  0
   -3.1586   22.2987  -31.7940 H   0  0  0  0  0  0  0  0  0  0  0  0
  1  2  1  0
  2  3  2  0
  3  4  1  0
  4  5  2  0
  5  6  1  0
  6  7  2  0
  7  8  1  0
  8  9  1  0
  9 10  1  0
 10 11  2  0
 10 12  1  0
 12 13  1  0
 13 14  1  0
 14 15  1  0
 15 16  1  0
 16 17  2  0
 16 18  2  0
 16 19  1  0
 19 20  1  0
 20 21  1  0
 21 22  1  0
 22 23  1  0
 23 24  1  0
 15 25  1  0
 25 26  1  0
  7  2  1  0
 26 12  1  0
 24 19  1  0
  1 27  1  0
  1 28  1  0
  1 29  1  0
  3 30  1  0
  4 31  1  0
  5 32  1  0
  6 33  1  0
  8 34  1  0
  8 35  1  0
 12 36  1  1
 13 37  1  0
 13 38  1  0
 14 39  1  0
 14 40  1  0
 15 41  1  1
 20 42  1  0
 20 43  1  0
 21 44  1  0
 21 45  1  0
 23 46  1  0
 23 47  1  0
 24 48  1  0
 24 49  1  0
 25 50  1  0
 25 51  1  0
 26 52  1  0
 26 53  1  0
M  CHG  2   9  -1  15   1
M  END
>  <UniqueID>  (19) 
18

>  <SMILES>  (19) 
Cc1ccccc1C[N-]C(=O)C1CC[NH+](S(=O)(=O)N2CCOCC2)CC1

>  <Energy>  (19) 
63.54665887903703

>  <Genealogy>  (19) 
Cc1ccccc1C[N-]C(=O)C1CC[NH+](S(=O)(=O)N2CCOCC2)CC1 (protonated)
Cc1ccccc1C[N-]C(=O)C1CC[NH+](S(=O)(=O)N2CCOCC2)CC1 (3D coordinates assigned)
Cc1ccccc1C[N-]C(=O)C1CC[NH+](S(=O)(=O)N2CCOCC2)CC1 (nonaromatic ring conformer: 63.54665887903703 kcal/mol)

>  <smiles>  (19) 
Cc1ccccc1CNC(=O)C1CCN(S(=O)(=O)N2CCOCC2)CC1

>  <score_type>  (19) 
oracle

>  <origin>  (19) 
adg

>  <m_score__min__energy>  (19) 
-10.59

>  <m_primary>  (19) 
energy

$$$$
19:0
     RDKit          3D

 49 52  0  0  0  0  0  0  0  0999 V2000
   -8.7620   19.4300  -31.5770 C   0  0  0  0  0  0  0  0  0  0  0  0
   -9.1390   20.8670  -31.9330 C   0  0  0  0  0  0  0  0  0  0  0  0
   -7.9280   21.7510  -31.9200 C   0  0  0  0  0  0  0  0  0  0  0  0
   -7.9110   22.9990  -31.4010 N   0  0  0  0  0  0  0  0  0  0  0  0
   -6.6950   23.4960  -31.5860 N   0  0  0  0  0  0  0  0  0  0  0  0
   -6.2730   24.8090  -31.1020 C   0  0  0  0  0  0  0  0  0  0  0  0
   -5.0420   24.6780  -30.2620 C   0  0  0  0  0  0  0  0  0  0  0  0
   -4.9300   23.9500  -29.0970 C   0  0  0  0  0  0  0  0  0  0  0  0
   -3.6150   24.1320  -28.7270 C   0  0  0  0  0  0  0  0  0  0  0  0
   -2.9820   23.6190  -27.4770 C   0  0  0  0  0  0  0  0  0  0  0  0
   -2.9960   24.9390  -29.6100 N   0  0  0  0  0  0  0  0  0  0  0  0
   -3.8660   25.2660  -30.5540 N   0  0  0  0  0  0  0  0  0  0  0  0
   -5.9320   22.5820  -32.2200 C   0  0  0  0  0  0  0  0  0  0  0  0
   -6.6740   21.4540  -32.4240 C   0  0  0  0  0  0  0  0  0  0  0  0
   -6.1480   20.2420  -33.1310 C   0  0  0  0  0  0  0  0  0  0  0  0
   -4.6650   20.2020  -33.0810 N   0  0  0  0  0  0  0  0  0  0  0  0
   -4.1800   19.7090  -31.7720 C   0  0  0  0  0  0  0  0  0  0  0  0
   -2.8630   20.3260  -31.4160 C   0  0  0  0  0  0  0  0  0  0  0  0
   -1.6370   20.0790  -32.0050 C   0  0  0  0  0  0  0  0  0  0  0  0
   -0.6870   20.7850  -31.3600 N   0  0  0  0  0  0  0  0  0  0  0  0
   -1.2850   21.4710  -30.3960 N   0  0  0  0  0  0  0  0  0  0  0  0
   -0.5800   22.3010  -29.4300 C   0  0  0  0  0  0  0  0  0  0  0  0
   -2.6040   21.2060  -30.3880 C   0  0  0  0  0  0  0  0  0  0  0  0
   -4.0660   21.5090  -33.4770 C   0  0  0  0  0  0  0  0  0  0  0  0
   -4.4760   22.6790  -32.5510 C   0  0  0  0  0  0  0  0  0  0  0  0
   -8.7328   19.3189  -30.4830 H   0  0  0  0  0  0  0  0  0  0  0  0
   -9.5096   18.7403  -31.9958 H   0  0  0  0  0  0  0  0  0  0  0  0
   -7.7721   19.1961  -31.9958 H   0  0  0  0  0  0  0  0  0  0  0  0
   -9.5881   20.8844  -32.9370 H   0  0  0  0  0  0  0  0  0  0  0  0
   -9.8569   21.2395  -31.1875 H   0  0  0  0  0  0  0  0  0  0  0  0
   -6.0590   25.4616  -31.9613 H   0  0  0  0  0  0  0  0  0  0  0  0
   -7.0792   25.2434  -30.4926 H   0  0  0  0  0  0  0  0  0  0  0  0
   -5.7061   23.3630  -28.5842 H   0  0  0  0  0  0  0  0  0  0  0  0
   -3.5014   24.0400  -26.6035 H   0  0  0  0  0  0  0  0  0  0  0  0
   -3.0544   22.5217  -27.4530 H   0  0  0  0  0  0  0  0  0  0  0  0
   -1.9235   23.9172  -27.4530 H   0  0  0  0  0  0  0  0  0  0  0  0
   -6.5492   19.3398  -32.6463 H   0  0  0  0  0  0  0  0  0  0  0  0
   -6.4633   20.2847  -34.1840 H   0  0  0  0  0  0  0  0  0  0  0  0
   -4.9173   19.9644  -30.9967 H   0  0  0  0  0  0  0  0  0  0  0  0
   -4.0480   18.6189  -31.8372 H   0  0  0  0  0  0  0  0  0  0  0  0
   -1.4643   19.4127  -32.8630 H   0  0  0  0  0  0  0  0  0  0  0  0
   -0.8480   21.9855  -28.4108 H   0  0  0  0  0  0  0  0  0  0  0  0
    0.5049   22.1909  -29.5746 H   0  0  0  0  0  0  0  0  0  0  0  0
   -0.8642   23.3538  -29.5746 H   0  0  0  0  0  0  0  0  0  0  0  0
   -3.3437   21.6183  -29.6860 H   0  0  0  0  0  0  0  0  0  0  0  0
   -2.9705   21.4122  -33.4523 H   0  0  0  0  0  0  0  0  0  0  0  0
   -4.4400   21.7457  -34.4840 H   0  0  0  0  0  0  0  0  0  0  0  0
   -3.8873   22.6328  -31.6229 H   0  0  0  0  0  0  0  0  0  0  0  0
   -4.2850   23.6319  -33.0662 H   0  0  0  0  0  0  0  0  0  0  0  0
  1  2  1  0
  2  3  1  0
  3  4  2  0
  4  5  1  0
  5  6  1  0
  6  7  1  0
  7  8  2  0
  8  9  1  0
  9 10  1  0
  9 11  2  0
 11 12  1  0
  5 13  1  0
 13 14  2  0
 14 15  1  0
 15 16  1  0
 16 17  1  0
 17 18  1  0
 18 19  1  0
 19 20  2  0
 20 21  1  0
 21 22  1  0
 21 23  1  0
 16 24  1  0
 24 25  1  0
 14  3  1  0
 23 18  2  0
 12  7  1  0
 25 13  1  0
  1 26  1  0
  1 27  1  0
  1 28  1  0
  2 29  1  0
  2 30  1  0
  6 31  1  0
  6 32  1  0
  8 33  1  0
 10 34  1  0
 10 35  1  0
 10 36  1  0
 15 37  1  0
 15 38  1  0
 17 39  1  0
 17 40  1  0
 19 41  1  0
 22 42  1  0
 22 43  1  0
 22 44  1  0
 23 45  1  0
 24 46  1  0
 24 47  1  0
 25 48  1  0
 25 49  1  0
M  CHG  1  12  -1
M  END
>  <UniqueID>  (20) 
19

>  <SMILES>  (20) 
CCc1nn(Cc2cc(C)n[n-]2)c2c1CN(Cc1cnn(C)c1)CC2

>  <Energy>  (20) 
139.80163645373062

>  <Genealogy>  (20) 
CCc1nn(Cc2cc(C)n[n-]2)c2c1CN(Cc1cnn(C)c1)CC2 (protonated)
CCc1nn(Cc2cc(C)n[n-]2)c2c1CN(Cc1cnn(C)c1)CC2 (3D coordinates assigned)
CCc1nn(Cc2cc(C)n[n-]2)c2c1CN(Cc1cnn(C)c1)CC2 (nonaromatic ring conformer: 139.80163645373062 kcal/mol)

>  <smiles>  (20) 
CCc1nn(Cc2cc(C)n[nH]2)c2c1CN(Cc1cnn(C)c1)CC2

>  <score_type>  (20) 
oracle

>  <origin>  (20) 
adg

>  <m_score__min__energy>  (20) 
-10.26

>  <m_primary>  (20) 
energy

$$$$
20:0
     RDKit          3D

 17 17  0  0  0  0  0  0  0  0999 V2000
   -3.1430   24.1080  -29.8540 C   0  0  0  0  0  0  0  0  0  0  0  0
   -3.8100   25.2030  -30.4690 O   0  0  0  0  0  0  0  0  0  0  0  0
   -5.2030   25.3330  -30.4760 C   0  0  0  0  0  0  0  0  0  0  0  0
   -5.7390   26.4190  -30.1210 O   0  0  0  0  0  0  0  0  0  0  0  0
   -6.0460   24.1940  -30.9000 C   0  0  0  0  0  0  0  0  0  0  0  0
   -6.8170   23.4860  -29.9630 C   0  0  0  0  0  0  0  0  0  0  0  0
   -7.6100   22.4130  -30.3750 C   0  0  0  0  0  0  0  0  0  0  0  0
   -7.6270   22.0530  -31.7220 C   0  0  0  0  0  0  0  0  0  0  0  0
   -6.8790   22.7450  -32.6210 N   0  0  0  0  0  0  0  0  0  0  0  0
   -6.0980   23.7930  -32.2470 C   0  0  0  0  0  0  0  0  0  0  0  0
   -3.2043   24.2087  -28.7603 H   0  0  0  0  0  0  0  0  0  0  0  0
   -3.6214   23.1669  -30.1630 H   0  0  0  0  0  0  0  0  0  0  0  0
   -2.0873   24.1014  -30.1630 H   0  0  0  0  0  0  0  0  0  0  0  0
   -6.7960   23.7775  -28.9025 H   0  0  0  0  0  0  0  0  0  0  0  0
   -8.2154   21.8571  -29.6440 H   0  0  0  0  0  0  0  0  0  0  0  0
   -8.2465   21.2081  -32.0572 H   0  0  0  0  0  0  0  0  0  0  0  0
   -5.5040   24.3298  -33.0014 H   0  0  0  0  0  0  0  0  0  0  0  0
  1  2  1  0
  2  3  1  0
  3  4  2  0
  3  5  1  0
  5  6  2  0
  6  7  1  0
  7  8  2  0
  8  9  1  0
  9 10  2  0
 10  5  1  0
  1 11  1  0
  1 12  1  0
  1 13  1  0
  6 14  1  0
  7 15  1  0
  8 16  1  0
 10 17  1  0
M  END
>  <UniqueID>  (21) 
20

>  <SMILES>  (21) 
COC(=O)c1cccnc1

>  <Energy>  (21) 
14.564166799286983

>  <Genealogy>  (21) 
COC(=O)c1cccnc1 (3D coordinates assigned)
COC(=O)c1cccnc1 (optimized conformer: 14.564166799286983 kcal/mol)

>  <smiles>  (21) 
COC(=O)c1cccnc1

>  <score_type>  (21) 
oracle

>  <origin>  (21) 
adg

>  <m_score__min__energy>  (21) 
-4.5

>  <m_primary>  (21) 
energy

$$$$
21:0
     RDKit          3D

 36 39  0  0  0  0  0  0  0  0999 V2000
   -4.8240   22.5390  -32.7240 C   0  0  0  0  0  0  0  0  0  0  0  0
   -3.6690   21.9020  -32.4880 C   0  0  0  0  0  0  0  0  0  0  0  0
   -3.1090   21.2490  -33.5440 N   0  0  0  0  0  0  0  0  0  0  0  0
   -1.8600   20.7250  -33.5100 C   0  0  0  0  0  0  0  0  0  0  0  0
   -1.3630   20.0860  -34.6000 N   0  0  0  0  0  0  0  0  0  0  0  0
   -0.1020   19.5830  -34.5990 C   0  0  0  0  0  0  0  0  0  0  0  0
    0.6860   19.7190  -33.5010 N   0  0  0  0  0  0  0  0  0  0  0  0
    0.2360   20.3540  -32.3860 C   0  0  0  0  0  0  0  0  0  0  0  0
    0.9960   20.4600  -31.3860 O   0  0  0  0  0  0  0  0  0  0  0  0
   -1.0670   20.8790  -32.3640 C   0  0  0  0  0  0  0  0  0  0  0  0
   -1.6120   21.5220  -31.2450 C   0  0  0  0  0  0  0  0  0  0  0  0
   -2.9480   21.9770  -31.2490 C   0  0  0  0  0  0  0  0  0  0  0  0
   -3.4470   22.4260  -30.0700 C   0  0  0  0  0  0  0  0  0  0  0  0
   -2.6640   22.8970  -28.9140 C   0  0  0  0  0  0  0  0  0  0  0  0
   -2.1460   21.9070  -27.6530 S   0  0  0  0  0  0  0  0  0  0  0  0
   -1.5140   23.1920  -26.7740 C   0  0  0  0  0  0  0  0  0  0  0  0
   -0.9190   23.0650  -25.6710 O   0  0  0  0  0  0  0  0  0  0  0  0
   -1.7060   24.3810  -27.3980 N   0  0  0  0  0  0  0  0  0  0  0  0
   -1.2800   25.6550  -26.8770 C   0  0  0  0  0  0  0  0  0  0  0  0
   -0.5240   26.5330  -27.6720 C   0  0  0  0  0  0  0  0  0  0  0  0
   -0.1110   27.7680  -27.1620 C   0  0  0  0  0  0  0  0  0  0  0  0
   -0.4490   28.1370  -25.8560 C   0  0  0  0  0  0  0  0  0  0  0  0
    0.1160   29.8240  -25.1610 Br  0  0  0  0  0  0  0  0  0  0  0  0
   -1.2010   27.2680  -25.0590 C   0  0  0  0  0  0  0  0  0  0  0  0
   -1.6150   26.0320  -25.5650 C   0  0  0  0  0  0  0  0  0  0  0  0
   -2.3680   24.2210  -28.5810 C   0  0  0  0  0  0  0  0  0  0  0  0
   -2.7600   25.3000  -29.3680 O   0  0  0  0  0  0  0  0  0  0  0  0
   -5.3267   23.0852  -31.9122 H   0  0  0  0  0  0  0  0  0  0  0  0
   -5.2694   22.5158  -33.7295 H   0  0  0  0  0  0  0  0  0  0  0  0
    0.2825   19.0641  -35.4895 H   0  0  0  0  0  0  0  0  0  0  0  0
   -0.9899   21.6744  -30.3507 H   0  0  0  0  0  0  0  0  0  0  0  0
   -4.5421   22.4398  -29.9671 H   0  0  0  0  0  0  0  0  0  0  0  0
   -0.2559   26.2477  -28.7000 H   0  0  0  0  0  0  0  0  0  0  0  0
    0.4810   28.4506  -27.7894 H   0  0  0  0  0  0  0  0  0  0  0  0
   -1.4674   27.5575  -24.0318 H   0  0  0  0  0  0  0  0  0  0  0  0
   -2.2054   25.3517  -24.9336 H   0  0  0  0  0  0  0  0  0  0  0  0
  1  2  2  0
  2  3  1  0
  3  4  2  0
  4  5  1  0
  5  6  2  0
  6  7  1  0
  7  8  1  0
  8  9  2  0
  8 10  1  0
 10 11  2  0
 11 12  1  0
 12 13  2  3
 13 14  1  0
 14 15  1  0
 15 16  1  0
 16 17  2  0
 16 18  1  0
 18 19  1  0
 19 20  2  0
 20 21  1  0
 21 22  2  0
 22 23  1  0
 22 24  1  0
 24 25  2  0
 18 26  1  0
 26 27  1  0
 12  2  1  0
 26 14  2  0
 10  4  1  0
 25 19  1  0
  1 28  1  0
  1 29  1  0
  6 30  1  0
 11 31  1  0
 13 32  1  0
 20 33  1  0
 21 34  1  0
 24 35  1  0
 25 36  1  0
M  CHG  2   7  -1  27  -1
M  END
>  <UniqueID>  (22) 
21

>  <SMILES>  (22) 
C=c1nc2nc[n-]c(=O)c2cc1=Cc1sc(=O)n(-c2ccc(Br)cc2)c1[O-]

>  <Energy>  (22) 
104.00819078061812

>  <Genealogy>  (22) 
C=c1nc2nc[n-]c(=O)c2cc1=Cc1sc(=O)n(-c2ccc(Br)cc2)c1[O-] (protonated)
C=c1nc2nc[n-]c(=O)c2cc1=Cc1sc(=O)n(-c2ccc(Br)cc2)c1[O-] (3D coordinates assigned)
C=c1nc2nc[n-]c(=O)c2cc1=Cc1sc(=O)n(-c2ccc(Br)cc2)c1[O-] (optimized conformer: 104.00819078061812 kcal/mol)

>  <smiles>  (22) 
C=c1nc2nc[nH]c(=O)c2cc1=Cc1sc(=O)n(-c2ccc(Br)cc2)c1O

>  <score_type>  (22) 
oracle

>  <origin>  (22) 
adg

>  <m_score__min__energy>  (22) 
-12.130000000000001

>  <m_primary>  (22) 
energy

$$$$
22:0
     RDKit          3D

 51 54  0  0  0  0  0  0  0  0999 V2000
   -3.8700   24.5520  -26.8160 C   0  0  0  0  0  0  0  0  0  0  0  0
   -3.0980   24.5770  -28.0130 O   0  0  0  0  0  0  0  0  0  0  0  0
   -3.4200   23.8640  -29.1770 C   0  0  0  0  0  0  0  0  0  0  0  0
   -2.6760   22.7520  -29.6130 C   0  0  0  0  0  0  0  0  0  0  0  0
   -3.0390   22.0730  -30.7790 C   0  0  0  0  0  0  0  0  0  0  0  0
   -4.1570   22.4830  -31.5260 C   0  0  0  0  0  0  0  0  0  0  0  0
   -4.5450   21.7750  -32.7690 C   0  0  0  0  0  0  0  0  0  0  0  0
   -3.8550   21.9380  -33.8100 O   0  0  0  0  0  0  0  0  0  0  0  0
   -5.7150   20.8740  -32.8210 C   0  0  0  0  0  0  0  0  0  0  0  0
   -5.7580   19.5610  -33.2980 C   0  0  0  0  0  0  0  0  0  0  0  0
   -4.6090   18.7720  -33.8510 C   0  0  0  0  0  0  0  0  0  0  0  0
   -5.1190   17.4620  -34.4720 C   0  0  0  0  0  0  0  0  0  0  0  0
   -5.8520   16.5650  -33.5400 N   0  0  0  0  0  0  0  0  0  0  0  0
   -5.0780   16.1720  -32.3350 C   0  0  0  0  0  0  0  0  0  0  0  0
   -4.4280   14.7870  -32.4560 C   0  0  0  0  0  0  0  0  0  0  0  0
   -5.3830   13.8240  -32.8340 O   0  0  0  0  0  0  0  0  0  0  0  0
   -5.8120   14.1030  -34.1460 C   0  0  0  0  0  0  0  0  0  0  0  0
   -6.5640   15.4420  -34.2090 C   0  0  0  0  0  0  0  0  0  0  0  0
   -6.9850   19.0810  -33.2150 O   0  0  0  0  0  0  0  0  0  0  0  0
   -7.7470   20.0200  -32.7090 C   0  0  0  0  0  0  0  0  0  0  0  0
   -9.1170   19.9550  -32.4590 C   0  0  0  0  0  0  0  0  0  0  0  0
   -9.7460   21.1000  -31.9380 C   0  0  0  0  0  0  0  0  0  0  0  0
   -9.0010   22.2740  -31.6900 C   0  0  0  0  0  0  0  0  0  0  0  0
   -7.6190   22.3110  -31.9530 C   0  0  0  0  0  0  0  0  0  0  0  0
   -7.0190   21.1520  -32.4500 C   0  0  0  0  0  0  0  0  0  0  0  0
   -4.8880   23.6030  -31.0950 C   0  0  0  0  0  0  0  0  0  0  0  0
   -4.5240   24.2810  -29.9290 C   0  0  0  0  0  0  0  0  0  0  0  0
   -3.1977   24.5738  -25.9456 H   0  0  0  0  0  0  0  0  0  0  0  0
   -4.5333   25.4291  -26.7891 H   0  0  0  0  0  0  0  0  0  0  0  0
   -4.4751   23.6338  -26.7891 H   0  0  0  0  0  0  0  0  0  0  0  0
   -1.8041   22.4155  -29.0329 H   0  0  0  0  0  0  0  0  0  0  0  0
   -2.4449   21.2104  -31.1152 H   0  0  0  0  0  0  0  0  0  0  0  0
   -4.0978   19.3659  -34.6230 H   0  0  0  0  0  0  0  0  0  0  0  0
   -3.9088   18.5358  -33.0362 H   0  0  0  0  0  0  0  0  0  0  0  0
   -5.7955   17.7185  -35.3006 H   0  0  0  0  0  0  0  0  0  0  0  0
   -4.2250   16.9065  -34.7918 H   0  0  0  0  0  0  0  0  0  0  0  0
   -6.6180   17.1830  -33.1740 H   0  0  0  0  0  0  0  0  0  0  0  0
   -4.2851   16.9167  -32.1711 H   0  0  0  0  0  0  0  0  0  0  0  0
   -5.7853   16.1276  -31.4937 H   0  0  0  0  0  0  0  0  0  0  0  0
   -3.6331   14.8256  -33.2153 H   0  0  0  0  0  0  0  0  0  0  0  0
   -4.0072   14.5056  -31.4794 H   0  0  0  0  0  0  0  0  0  0  0  0
   -4.9349   14.1520  -34.8080 H   0  0  0  0  0  0  0  0  0  0  0  0
   -6.4950   13.3031  -34.4679 H   0  0  0  0  0  0  0  0  0  0  0  0
   -6.7123   15.7067  -35.2663 H   0  0  0  0  0  0  0  0  0  0  0  0
   -7.5137   15.3007  -33.6722 H   0  0  0  0  0  0  0  0  0  0  0  0
   -9.6880   19.0372  -32.6628 H   0  0  0  0  0  0  0  0  0  0  0  0
  -10.8245   21.0811  -31.7224 H   0  0  0  0  0  0  0  0  0  0  0  0
   -9.5046   23.1657  -31.2884 H   0  0  0  0  0  0  0  0  0  0  0  0
   -7.0307   23.2229  -31.7730 H   0  0  0  0  0  0  0  0  0  0  0  0
   -5.7532   23.9484  -31.6800 H   0  0  0  0  0  0  0  0  0  0  0  0
   -5.1108   25.1509  -29.5989 H   0  0  0  0  0  0  0  0  0  0  0  0
  1  2  1  0
  2  3  1  0
  3  4  2  0
  4  5  1  0
  5  6  2  0
  6  7  1  0
  7  8  2  0
  7  9  1  0
  9 10  2  0
 10 11  1  0
 11 12  1  0
 12 13  1  0
 13 14  1  0
 14 15  1  0
 15 16  1  0
 16 17  1  0
 17 18  1  0
 10 19  1  0
 19 20  1  0
 20 21  2  0
 21 22  1  0
 22 23  2  0
 23 24  1  0
 24 25  2  0
  6 26  1  0
 26 27  2  0
 27  3  1  0
 25  9  1  0
 18 13  1  0
 25 20  1  0
  1 28  1  0
  1 29  1  0
  1 30  1  0
  4 31  1  0
  5 32  1  0
 11 33  1  0
 11 34  1  0
 12 35  1  0
 12 36  1  0
 13 37  1  0
 14 38  1  0
 14 39  1  0
 15 40  1  0
 15 41  1  0
 17 42  1  0
 17 43  1  0
 18 44  1  0
 18 45  1  0
 21 46  1  0
 22 47  1  0
 23 48  1  0
 24 49  1  0
 26 50  1  0
 27 51  1  0
M  CHG  1  13   1
M  END
>  <UniqueID>  (23) 
22

>  <SMILES>  (23) 
COc1ccc(C(=O)c2c(CC[NH+]3CCOCC3)oc3ccccc23)cc1

>  <Energy>  (23) 
103.63440505682165

>  <Genealogy>  (23) 
COc1ccc(C(=O)c2c(CC[NH+]3CCOCC3)oc3ccccc23)cc1 (protonated)
COc1ccc(C(=O)c2c(CC[NH+]3CCOCC3)oc3ccccc23)cc1 (3D coordinates assigned)
COc1ccc(C(=O)c2c(CC[NH+]3CCOCC3)oc3ccccc23)cc1 (nonaromatic ring conformer: 103.63440505682165 kcal/mol)

>  <smiles>  (23) 
COc1ccc(C(=O)c2c(CCN3CCOCC3)oc3ccccc23)cc1

>  <score_type>  (23) 
oracle

>  <origin>  (23) 
adg

>  <m_score__min__energy>  (23) 
-7.8700000000000001

>  <m_primary>  (23) 
energy

$$$$
23:0
     RDKit          3D

 37 39  0  0  0  0  0  0  0  0999 V2000
   -5.3520   18.0710  -35.0120 C   0  0  0  0  0  0  0  0  0  0  0  0
   -5.5060   19.0380  -33.9190 N   0  0  0  0  0  0  0  0  0  0  0  0
   -4.3850   19.8440  -33.4910 C   0  0  0  0  0  0  0  0  0  0  0  0
   -3.0820   19.3180  -33.5130 C   0  0  0  0  0  0  0  0  0  0  0  0
   -2.0080   20.1050  -33.0960 C   0  0  0  0  0  0  0  0  0  0  0  0
   -2.2200   21.3770  -32.6660 N   0  0  0  0  0  0  0  0  0  0  0  0
   -3.4660   21.9160  -32.6290 C   0  0  0  0  0  0  0  0  0  0  0  0
   -4.5700   21.1640  -33.0390 C   0  0  0  0  0  0  0  0  0  0  0  0
   -6.7360   19.0550  -33.1710 C   0  0  0  0  0  0  0  0  0  0  0  0
   -7.2390   17.8700  -32.6070 C   0  0  0  0  0  0  0  0  0  0  0  0
   -8.4240   17.8900  -31.8650 C   0  0  0  0  0  0  0  0  0  0  0  0
   -9.1120   19.0910  -31.6760 C   0  0  0  0  0  0  0  0  0  0  0  0
   -8.6140   20.2770  -32.2260 C   0  0  0  0  0  0  0  0  0  0  0  0
   -9.4790   21.8250  -31.9550 S   0  0  0  0  0  0  0  0  0  0  0  0
   -7.9880   22.6710  -31.4330 C   0  0  0  0  0  0  0  0  0  0  0  0
   -7.5080   22.5050  -30.1280 C   0  0  0  0  0  0  0  0  0  0  0  0
   -6.3380   23.1580  -29.7240 C   0  0  0  0  0  0  0  0  0  0  0  0
   -5.6480   23.9770  -30.6220 C   0  0  0  0  0  0  0  0  0  0  0  0
   -6.1280   24.1460  -31.9260 C   0  0  0  0  0  0  0  0  0  0  0  0
   -7.2970   23.4950  -32.3300 C   0  0  0  0  0  0  0  0  0  0  0  0
   -7.4330   20.2590  -32.9760 C   0  0  0  0  0  0  0  0  0  0  0  0
   -5.1920   17.0665  -34.5931 H   0  0  0  0  0  0  0  0  0  0  0  0
   -6.2612   18.0695  -35.6311 H   0  0  0  0  0  0  0  0  0  0  0  0
   -4.4873   18.3521  -35.6311 H   0  0  0  0  0  0  0  0  0  0  0  0
   -2.9092   18.2880  -33.8583 H   0  0  0  0  0  0  0  0  0  0  0  0
   -0.9874   19.6952  -33.1152 H   0  0  0  0  0  0  0  0  0  0  0  0
   -3.6066   22.9480  -32.2751 H   0  0  0  0  0  0  0  0  0  0  0  0
   -5.5788   21.6015  -33.0087 H   0  0  0  0  0  0  0  0  0  0  0  0
   -6.6982   16.9228  -32.7499 H   0  0  0  0  0  0  0  0  0  0  0  0
   -8.8150   16.9587  -31.4295 H   0  0  0  0  0  0  0  0  0  0  0  0
  -10.0456   19.1042  -31.0945 H   0  0  0  0  0  0  0  0  0  0  0  0
   -8.0507   21.8612  -29.4203 H   0  0  0  0  0  0  0  0  0  0  0  0
   -5.9612   23.0266  -28.6989 H   0  0  0  0  0  0  0  0  0  0  0  0
   -4.7277   24.4888  -30.3040 H   0  0  0  0  0  0  0  0  0  0  0  0
   -5.5853   24.7910  -32.6327 H   0  0  0  0  0  0  0  0  0  0  0  0
   -7.6748   23.6301  -33.3542 H   0  0  0  0  0  0  0  0  0  0  0  0
   -7.0486   21.1916  -33.4148 H   0  0  0  0  0  0  0  0  0  0  0  0
  1  2  1  0
  2  3  1  0
  3  4  2  0
  4  5  1  0
  5  6  2  0
  6  7  1  0
  7  8  2  0
  2  9  1  0
  9 10  2  0
 10 11  1  0
 11 12  2  0
 12 13  1  0
 13 14  1  0
 14 15  1  0
 15 16  2  0
 16 17  1  0
 17 18  2  0
 18 19  1  0
 19 20  2  0
 13 21  2  0
  8  3  1  0
 21  9  1  0
 20 15  1  0
  1 22  1  0
  1 23  1  0
  1 24  1  0
  4 25  1  0
  5 26  1  0
  7 27  1  0
  8 28  1  0
 10 29  1  0
 11 30  1  0
 12 31  1  0
 16 32  1  0
 17 33  1  0
 18 34  1  0
 19 35  1  0
 20 36  1  0
 21 37  1  0
M  END
>  <UniqueID>  (24) 
23

>  <SMILES>  (24) 
CN(c1ccncc1)c1cccc(Sc2ccccc2)c1

>  <Energy>  (24) 
44.022170853078514

>  <Genealogy>  (24) 
CN(c1ccncc1)c1cccc(Sc2ccccc2)c1 (3D coordinates assigned)
CN(c1ccncc1)c1cccc(Sc2ccccc2)c1 (optimized conformer: 44.022170853078514 kcal/mol)

>  <smiles>  (24) 
CN(c1ccncc1)c1cccc(Sc2ccccc2)c1

>  <score_type>  (24) 
oracle

>  <origin>  (24) 
adg

>  <m_score__min__energy>  (24) 
-7.9900000000000002

>  <m_primary>  (24) 
energy

$$$$
24:0
     RDKit          3D

 27 29  0  0  0  0  0  0  0  0999 V2000
   -6.2920   25.6860  -29.7260 S   0  0  0  0  0  0  0  0  0  0  0  0
   -5.2700   24.6440  -30.4700 C   0  0  0  0  0  0  0  0  0  0  0  0
   -3.9350   24.7940  -30.4630 N   0  0  0  0  0  0  0  0  0  0  0  0
   -3.4290   23.7480  -31.1010 N   0  0  0  0  0  0  0  0  0  0  0  0
   -4.4640   22.9700  -31.4820 C   0  0  0  0  0  0  0  0  0  0  0  0
   -4.2950   21.7300  -32.2740 C   0  0  0  0  0  0  0  0  0  0  0  0
   -3.1100   21.4930  -32.9880 C   0  0  0  0  0  0  0  0  0  0  0  0
   -2.9810   20.3220  -33.7370 C   0  0  0  0  0  0  0  0  0  0  0  0
   -4.0290   19.4010  -33.7750 C   0  0  0  0  0  0  0  0  0  0  0  0
   -5.1990   19.6710  -33.0610 C   0  0  0  0  0  0  0  0  0  0  0  0
   -6.6540   18.4380  -33.0850 Br  0  0  0  0  0  0  0  0  0  0  0  0
   -5.3040   20.8180  -32.3390 N   0  0  0  0  0  0  0  0  0  0  0  0
   -5.6430   23.5100  -31.0970 N   0  0  0  0  0  0  0  0  0  0  0  0
   -6.9700   22.9720  -31.2280 C   0  0  0  0  0  0  0  0  0  0  0  0
   -7.8390   23.4670  -32.2130 C   0  0  0  0  0  0  0  0  0  0  0  0
   -9.1330   22.9480  -32.3350 C   0  0  0  0  0  0  0  0  0  0  0  0
   -9.5600   21.9270  -31.4800 C   0  0  0  0  0  0  0  0  0  0  0  0
   -8.6950   21.4240  -30.5040 C   0  0  0  0  0  0  0  0  0  0  0  0
   -7.4020   21.9430  -30.3790 C   0  0  0  0  0  0  0  0  0  0  0  0
   -2.2891   22.2245  -32.9576 H   0  0  0  0  0  0  0  0  0  0  0  0
   -2.0546   20.1254  -34.2965 H   0  0  0  0  0  0  0  0  0  0  0  0
   -3.9349   18.4741  -34.3598 H   0  0  0  0  0  0  0  0  0  0  0  0
   -7.5020   24.2651  -32.8909 H   0  0  0  0  0  0  0  0  0  0  0  0
   -9.8140   23.3431  -33.1032 H   0  0  0  0  0  0  0  0  0  0  0  0
  -10.5772   21.5195  -31.5756 H   0  0  0  0  0  0  0  0  0  0  0  0
   -9.0313   20.6193  -29.8336 H   0  0  0  0  0  0  0  0  0  0  0  0
   -6.7221   21.5427  -29.6125 H   0  0  0  0  0  0  0  0  0  0  0  0
  1  2  2  0
  2  3  1  0
  3  4  1  0
  4  5  2  0
  5  6  1  0
  6  7  2  0
  7  8  1  0
  8  9  2  0
  9 10  1  0
 10 11  1  0
 10 12  2  0
  5 13  1  0
 13 14  1  0
 14 15  2  0
 15 16  1  0
 16 17  2  0
 17 18  1  0
 18 19  2  0
 13  2  1  0
 19 14  1  0
 12  6  1  0
  7 20  1  0
  8 21  1  0
  9 22  1  0
 15 23  1  0
 16 24  1  0
 17 25  1  0
 18 26  1  0
 19 27  1  0
M  CHG  1   3  -1
M  END
>  <UniqueID>  (25) 
24

>  <SMILES>  (25) 
S=c1[n-]nc(-c2cccc(Br)n2)n1-c1ccccc1

>  <Energy>  (25) 
73.66732839383664

>  <Genealogy>  (25) 
S=c1[n-]nc(-c2cccc(Br)n2)n1-c1ccccc1 (protonated)
S=c1[n-]nc(-c2cccc(Br)n2)n1-c1ccccc1 (3D coordinates assigned)
S=c1[n-]nc(-c2cccc(Br)n2)n1-c1ccccc1 (optimized conformer: 73.66732839383664 kcal/mol)

>  <smiles>  (25) 
S=c1[nH]nc(-c2cccc(Br)n2)n1-c1ccccc1

>  <score_type>  (25) 
oracle

>  <origin>  (25) 
adg

>  <m_score__min__energy>  (25) 
-9.0999999999999996

>  <m_primary>  (25) 
energy

$$$$
25:0
     RDKit          3D

 57 60  0  0  0  0  0  0  0  0999 V2000
   -1.1150   25.7790  -27.8840 C   0  0  0  0  0  0  0  0  0  0  0  0
   -1.9880   25.6440  -29.0010 O   0  0  0  0  0  0  0  0  0  0  0  0
   -3.0340   24.7120  -29.0820 C   0  0  0  0  0  0  0  0  0  0  0  0
   -3.2120   23.8200  -28.0190 C   0  0  0  0  0  0  0  0  0  0  0  0
   -4.2420   22.8770  -28.0480 C   0  0  0  0  0  0  0  0  0  0  0  0
   -5.1050   22.8160  -29.1440 C   0  0  0  0  0  0  0  0  0  0  0  0
   -4.9380   23.6980  -30.2240 C   0  0  0  0  0  0  0  0  0  0  0  0
   -5.8870   23.6380  -31.3920 C   0  0  0  0  0  0  0  0  0  0  0  0
   -5.6830   22.3920  -32.1580 N   0  0  0  0  0  0  0  0  0  0  0  0
   -4.2640   22.1860  -32.4820 C   0  0  0  0  0  0  0  0  0  0  0  0
   -4.1360   20.9960  -33.4350 C   0  0  0  0  0  0  0  0  0  0  0  0
   -4.8690   19.7920  -32.9710 N   0  0  0  0  0  0  0  0  0  0  0  0
   -4.1580   18.5270  -33.3090 C   0  0  0  0  0  0  0  0  0  0  0  0
   -4.6370   17.7930  -34.6030 C   0  0  0  0  0  0  0  0  0  0  0  0
   -3.8320   16.4870  -34.8230 C   0  0  0  0  0  0  0  0  0  0  0  0
   -4.5000   15.2630  -34.1660 C   0  0  0  0  0  0  0  0  0  0  0  0
   -5.3690   15.6520  -33.1220 O   0  0  0  0  0  0  0  0  0  0  0  0
   -6.5050   16.3080  -33.6590 C   0  0  0  0  0  0  0  0  0  0  0  0
   -6.1440   17.4670  -34.6170 C   0  0  0  0  0  0  0  0  0  0  0  0
   -5.4530   19.9020  -31.6060 C   0  0  2  0  0  0  0  0  0  0  0  0
   -6.4170   18.7440  -31.2690 C   0  0  0  0  0  0  0  0  0  0  0  0
   -8.0120   19.2640  -31.8070 S   0  0  0  0  0  0  0  0  0  0  0  0
   -9.0550   19.0300  -30.7530 O   0  0  0  0  0  0  0  0  0  0  0  0
   -8.4000   18.6020  -33.1000 O   0  0  0  0  0  0  0  0  0  0  0  0
   -7.6850   20.9800  -32.0340 C   0  0  0  0  0  0  0  0  0  0  0  0
   -6.2810   21.2210  -31.4660 C   0  0  2  0  0  0  0  0  0  0  0  0
   -3.9040   24.6470  -30.1880 C   0  0  0  0  0  0  0  0  0  0  0  0
   -1.6941   25.6894  -26.9531 H   0  0  0  0  0  0  0  0  0  0  0  0
   -0.3510   24.9883  -27.9181 H   0  0  0  0  0  0  0  0  0  0  0  0
   -0.6255   26.7635  -27.9181 H   0  0  0  0  0  0  0  0  0  0  0  0
   -2.5350   23.8617  -27.1530 H   0  0  0  0  0  0  0  0  0  0  0  0
   -4.3735   22.1813  -27.2061 H   0  0  0  0  0  0  0  0  0  0  0  0
   -5.9179   22.0751  -29.1615 H   0  0  0  0  0  0  0  0  0  0  0  0
   -6.9218   23.6695  -31.0202 H   0  0  0  0  0  0  0  0  0  0  0  0
   -5.6958   24.4974  -32.0514 H   0  0  0  0  0  0  0  0  0  0  0  0
   -3.8613   23.0890  -32.9641 H   0  0  0  0  0  0  0  0  0  0  0  0
   -3.6986   21.9851  -31.5600 H   0  0  0  0  0  0  0  0  0  0  0  0
   -4.5344   21.2906  -34.4171 H   0  0  0  0  0  0  0  0  0  0  0  0
   -3.0697   20.7302  -33.4835 H   0  0  0  0  0  0  0  0  0  0  0  0
   -3.0910   18.7640  -33.4327 H   0  0  0  0  0  0  0  0  0  0  0  0
   -4.3743   17.8364  -32.4806 H   0  0  0  0  0  0  0  0  0  0  0  0
   -4.4533   18.5018  -35.4239 H   0  0  0  0  0  0  0  0  0  0  0  0
   -3.7460   16.3037  -35.9042 H   0  0  0  0  0  0  0  0  0  0  0  0
   -2.8454   16.6201  -34.3551 H   0  0  0  0  0  0  0  0  0  0  0  0
   -5.0764   14.7173  -34.9276 H   0  0  0  0  0  0  0  0  0  0  0  0
   -3.7122   14.6229  -33.7421 H   0  0  0  0  0  0  0  0  0  0  0  0
   -7.1049   15.5708  -34.2128 H   0  0  0  0  0  0  0  0  0  0  0  0
   -7.0603   16.7430  -32.8149 H   0  0  0  0  0  0  0  0  0  0  0  0
   -6.4348   17.1839  -35.6394 H   0  0  0  0  0  0  0  0  0  0  0  0
   -6.6843   18.3632  -34.2780 H   0  0  0  0  0  0  0  0  0  0  0  0
   -4.5941   19.8798  -30.9191 H   0  0  0  0  0  0  0  0  0  0  0  0
   -6.1147   17.8290  -31.7994 H   0  0  0  0  0  0  0  0  0  0  0  0
   -6.4104   18.5158  -30.1930 H   0  0  0  0  0  0  0  0  0  0  0  0
   -7.7140   21.2365  -33.1033 H   0  0  0  0  0  0  0  0  0  0  0  0
   -8.4369   21.6039  -31.5286 H   0  0  0  0  0  0  0  0  0  0  0  0
   -6.3001   21.4672  -30.3941 H   0  0  0  0  0  0  0  0  0  0  0  0
   -3.7724   25.3441  -31.0287 H   0  0  0  0  0  0  0  0  0  0  0  0
  1  2  1  0
  2  3  1  0
  3  4  2  0
  4  5  1  0
  5  6  2  0
  6  7  1  0
  7  8  1  0
  8  9  1  0
  9 10  1  0
 10 11  1  0
 11 12  1  0
 12 13  1  0
 13 14  1  0
 14 15  1  0
 15 16  1  0
 16 17  1  0
 17 18  1  0
 18 19  1  0
 12 20  1  0
 20 21  1  0
 21 22  1  0
 22 23  2  0
 22 24  2  0
 22 25  1  0
 25 26  1  0
  7 27  2  0
 27  3  1  0
 26  9  1  0
 19 14  1  0
 26 20  1  0
  1 28  1  0
  1 29  1  0
  1 30  1  0
  4 31  1  0
  5 32  1  0
  6 33  1  0
  8 34  1  0
  8 35  1  0
 10 36  1  0
 10 37  1  0
 11 38  1  0
 11 39  1  0
 13 40  1  0
 13 41  1  0
 14 42  1  0
 15 43  1  0
 15 44  1  0
 16 45  1  0
 16 46  1  0
 18 47  1  0
 18 48  1  0
 19 49  1  0
 19 50  1  0
 20 51  1  1
 21 52  1  0
 21 53  1  0
 25 54  1  0
 25 55  1  0
 26 56  1  1
 27 57  1  0
M  END
>  <UniqueID>  (26) 
25

>  <SMILES>  (26) 
COc1cccc(CN2CCN(CC3CCOCC3)[C@@H]3CS(=O)(=O)C[C@@H]32)c1

>  <Energy>  (26) 
83.74949667885107

>  <Genealogy>  (26) 
COc1cccc(CN2CCN(CC3CCOCC3)[C@@H]3CS(=O)(=O)C[C@@H]32)c1 (chirality)
COc1cccc(CN2CCN(CC3CCOCC3)[C@@H]3CS(=O)(=O)C[C@@H]32)c1 (3D coordinates assigned)
COc1cccc(CN2CCN(CC3CCOCC3)[C@@H]3CS(=O)(=O)C[C@@H]32)c1 (nonaromatic ring conformer: 83.74949667885107 kcal/mol)

>  <smiles>  (26) 
COc1cccc(CN2CCN(CC3CCOCC3)C3CS(=O)(=O)CC32)c1

>  <score_type>  (26) 
oracle

>  <origin>  (26) 
adg

>  <m_score__min__energy>  (26) 
-9.2100000000000009

>  <m_primary>  (26) 
energy

$$$$
26:0
     RDKit          3D

 40 42  0  0  1  0  0  0  0  0999 V2000
   -2.6150   24.2490  -28.5970 C   0  0  0  0  0  0  0  0  0  0  0  0
   -3.1070   24.9530  -29.7210 O   0  0  0  0  0  0  0  0  0  0  0  0
   -4.3120   24.5570  -30.2600 C   0  0  0  0  0  0  0  0  0  0  0  0
   -4.3810   23.4990  -31.1490 C   0  0  0  0  0  0  0  0  0  0  0  0
   -5.5560   23.0640  -31.7150 C   0  0  0  0  0  0  0  0  0  0  0  0
   -6.7190   23.7240  -31.3750 C   0  0  0  0  0  0  0  0  0  0  0  0
   -8.0110   23.3130  -31.9570 C   0  0  0  0  0  0  0  0  0  0  0  0
   -8.4660   22.1150  -31.3620 N   0  0  0  0  0  0  0  0  0  0  0  0
   -8.1860   20.9180  -31.7170 C   0  0  0  0  0  0  0  0  0  0  0  0
   -8.8100   19.8590  -31.1880 N   0  0  0  0  0  0  0  0  0  0  0  0
   -8.5490   18.5930  -31.5290 C   0  0  0  0  0  0  0  0  0  0  0  0
   -7.5600   18.4070  -32.4970 C   0  0  0  0  0  0  0  0  0  0  0  0
   -7.2430   17.1050  -32.8940 C   0  0  0  0  0  0  0  0  0  0  0  0
   -6.2570   16.9140  -33.8600 C   0  0  0  0  0  0  0  0  0  0  0  0
   -5.9500   15.6210  -34.2470 O   0  0  0  0  0  0  0  0  0  0  0  0
   -5.6130   18.0200  -34.4060 C   0  0  0  0  0  0  0  0  0  0  0  0
   -4.6330   17.7980  -35.3660 O   0  0  0  0  0  0  0  0  0  0  0  0
   -3.3610   17.3150  -34.9180 C   0  0  0  0  0  0  0  0  0  0  0  0
   -5.9290   19.3150  -34.0080 C   0  0  0  0  0  0  0  0  0  0  0  0
   -6.9200   19.5010  -33.0380 C   0  0  0  0  0  0  0  0  0  0  0  0
   -7.2290   20.7560  -32.6520 N   0  0  0  0  0  0  0  0  0  0  0  0
   -6.7180   24.8040  -30.4810 C   0  0  0  0  0  0  0  0  0  0  0  0
   -5.5090   25.1960  -29.9430 C   0  0  0  0  0  0  0  0  0  0  0  0
   -2.9595   24.7420  -27.6760 H   0  0  0  0  0  0  0  0  0  0  0  0
   -2.9876   23.2143  -28.6205 H   0  0  0  0  0  0  0  0  0  0  0  0
   -1.5153   24.2433  -28.6205 H   0  0  0  0  0  0  0  0  0  0  0  0
   -3.4488   22.9798  -31.4164 H   0  0  0  0  0  0  0  0  0  0  0  0
   -5.5685   22.2168  -32.4165 H   0  0  0  0  0  0  0  0  0  0  0  0
   -8.7534   24.1064  -31.7856 H   0  0  0  0  0  0  0  0  0  0  0  0
   -7.8764   23.1443  -33.0356 H   0  0  0  0  0  0  0  0  0  0  0  0
   -9.0829   17.7462  -31.0731 H   0  0  0  0  0  0  0  0  0  0  0  0
   -7.7641   16.2438  -32.4505 H   0  0  0  0  0  0  0  0  0  0  0  0
   -5.2210   15.4540  -34.9550 H   0  0  0  0  0  0  0  0  0  0  0  0
   -3.3386   17.3065  -33.8183 H   0  0  0  0  0  0  0  0  0  0  0  0
   -3.2026   16.2941  -35.2959 H   0  0  0  0  0  0  0  0  0  0  0  0
   -2.5650   17.9734  -35.2959 H   0  0  0  0  0  0  0  0  0  0  0  0
   -5.4085   20.1782  -34.4485 H   0  0  0  0  0  0  0  0  0  0  0  0
   -6.7220   21.5800  -33.0830 H   0  0  0  0  0  0  0  0  0  0  0  0
   -7.6514   25.3226  -30.2167 H   0  0  0  0  0  0  0  0  0  0  0  0
   -5.4897   26.0418  -29.2399 H   0  0  0  0  0  0  0  0  0  0  0  0
  1  2  1  0
  2  3  1  0
  3  4  2  0
  4  5  1  0
  5  6  2  0
  6  7  1  0
  7  8  1  0
  8  9  2  0
  9 10  1  0
 10 11  2  0
 11 12  1  0
 12 13  2  0
 13 14  1  0
 14 15  1  0
 14 16  2  0
 16 17  1  0
 17 18  1  0
 16 19  1  0
 19 20  2  0
 20 21  1  0
  6 22  1  0
 22 23  2  0
 23  3  1  0
 21  9  1  0
 20 12  1  0
  1 24  1  0
  1 25  1  0
  1 26  1  0
  4 27  1  0
  5 28  1  0
  7 29  1  0
  7 30  1  0
 11 31  1  0
 13 32  1  0
 15 33  1  0
 18 34  1  0
 18 35  1  0
 18 36  1  0
 19 37  1  0
 21 38  1  0
 22 39  1  0
 23 40  1  0
M  END
>  <smiles>  (27) 
COc1ccc(CN=c2ncc3cc(O)c(OC)cc3[nH]2)cc1

>  <score_type>  (27) 
oracle

>  <origin>  (27) 
adg

>  <m_score__min__energy>  (27) 
-8.1400000000000006

>  <m_primary>  (27) 
energy

$$$$
27:0
     RDKit          3D

 40 41  0  0  0  0  0  0  0  0999 V2000
   -2.9690   24.5590  -29.4130 C   0  0  0  0  0  0  0  0  0  0  0  0
   -3.8640   24.8920  -30.4690 O   0  0  0  0  0  0  0  0  0  0  0  0
   -4.9960   24.1380  -30.8130 C   0  0  0  0  0  0  0  0  0  0  0  0
   -6.0910   24.1480  -29.9410 C   0  0  0  0  0  0  0  0  0  0  0  0
   -7.2420   23.4130  -30.2370 C   0  0  0  0  0  0  0  0  0  0  0  0
   -7.3130   22.6450  -31.4100 C   0  0  0  0  0  0  0  0  0  0  0  0
   -8.5540   21.8360  -31.7280 C   0  0  0  0  0  0  0  0  0  0  0  0
   -8.2730   20.5220  -32.3720 N   0  0  0  0  0  0  0  0  0  0  0  0
   -9.5380   19.8530  -32.7410 C   0  0  0  0  0  0  0  0  0  0  0  0
   -7.3660   19.6380  -31.5740 C   0  0  1  0  0  0  0  0  0  0  0  0
   -7.8020   18.1720  -31.5790 C   0  0  0  0  0  0  0  0  0  0  0  0
   -7.2350   17.6140  -32.8710 C   0  0  0  0  0  0  0  0  0  0  0  0
   -6.0360   18.4100  -33.1980 N   0  0  1  0  0  0  0  0  0  0  0  0
   -6.0810   18.9190  -34.5800 C   0  0  0  0  0  0  0  0  0  0  0  0
   -5.9780   19.5110  -32.2170 C   0  0  0  0  0  0  0  0  0  0  0  0
   -6.2190   22.6440  -32.2920 C   0  0  0  0  0  0  0  0  0  0  0  0
   -5.0690   23.3800  -31.9960 C   0  0  0  0  0  0  0  0  0  0  0  0
   -3.4594   24.7415  -28.4454 H   0  0  0  0  0  0  0  0  0  0  0  0
   -2.6912   23.4974  -29.4888 H   0  0  0  0  0  0  0  0  0  0  0  0
   -2.0648   25.1809  -29.4888 H   0  0  0  0  0  0  0  0  0  0  0  0
   -6.0450   24.7396  -29.0148 H   0  0  0  0  0  0  0  0  0  0  0  0
   -8.0979   23.4363  -29.5465 H   0  0  0  0  0  0  0  0  0  0  0  0
   -9.0967   21.6519  -30.7891 H   0  0  0  0  0  0  0  0  0  0  0  0
   -9.1411   22.4243  -32.4486 H   0  0  0  0  0  0  0  0  0  0  0  0
  -10.0808   19.5660  -31.8283 H   0  0  0  0  0  0  0  0  0  0  0  0
  -10.1573   20.5415  -33.3347 H   0  0  0  0  0  0  0  0  0  0  0  0
   -9.3175   18.9536  -33.3347 H   0  0  0  0  0  0  0  0  0  0  0  0
   -7.3798   20.1073  -30.5793 H   0  0  0  0  0  0  0  0  0  0  0  0
   -7.3876   17.6397  -30.7101 H   0  0  0  0  0  0  0  0  0  0  0  0
   -8.8945   18.0593  -31.5174 H   0  0  0  0  0  0  0  0  0  0  0  0
   -6.9613   16.5570  -32.7375 H   0  0  0  0  0  0  0  0  0  0  0  0
   -7.9766   17.6720  -33.6814 H   0  0  0  0  0  0  0  0  0  0  0  0
   -5.1810   17.8110  -33.0970 H   0  0  0  0  0  0  0  0  0  0  0  0
   -6.1779   20.0146  -34.5642 H   0  0  0  0  0  0  0  0  0  0  0  0
   -5.1547   18.6403  -35.1037 H   0  0  0  0  0  0  0  0  0  0  0  0
   -6.9440   18.4821  -35.1037 H   0  0  0  0  0  0  0  0  0  0  0  0
   -5.2270   19.2859  -31.4454 H   0  0  0  0  0  0  0  0  0  0  0  0
   -5.6951   20.4522  -32.7111 H   0  0  0  0  0  0  0  0  0  0  0  0
   -6.2685   22.0593  -33.2224 H   0  0  0  0  0  0  0  0  0  0  0  0
   -4.2166   23.3668  -32.6912 H   0  0  0  0  0  0  0  0  0  0  0  0
  1  2  1  0
  2  3  1  0
  3  4  2  0
  4  5  1  0
  5  6  2  0
  6  7  1  0
  7  8  1  0
  8  9  1  0
  8 10  1  0
 10 11  1  0
 11 12  1  0
 12 13  1  0
 13 14  1  0
 13 15  1  0
  6 16  1  0
 16 17  2  0
 17  3  1  0
 15 10  1  0
  1 18  1  0
  1 19  1  0
  1 20  1  0
  4 21  1  0
  5 22  1  0
  7 23  1  0
  7 24  1  0
  9 25  1  0
  9 26  1  0
  9 27  1  0
 10 28  1  1
 11 29  1  0
 11 30  1  0
 12 31  1  0
 12 32  1  0
 13 33  1  6
 14 34  1  0
 14 35  1  0
 14 36  1  0
 15 37  1  0
 15 38  1  0
 16 39  1  0
 17 40  1  0
M  CHG  1  13   1
M  END
>  <UniqueID>  (28) 
26

>  <SMILES>  (28) 
COc1ccc(CN(C)[C@H]2CC[N@@H+](C)C2)cc1

>  <Energy>  (28) 
52.09276150984097

>  <Genealogy>  (28) 
COc1ccc(CN(C)C2CC[NH+](C)C2)cc1 (protonated)
COc1ccc(CN(C)[C@H]2CC[N@@H+](C)C2)cc1 (chirality)
COc1ccc(CN(C)[C@H]2CC[N@@H+](C)C2)cc1 (3D coordinates assigned)
COc1ccc(CN(C)[C@H]2CC[N@@H+](C)C2)cc1 (nonaromatic ring conformer: 52.09276150984097 kcal/mol)

>  <smiles>  (28) 
COc1ccc(CN(C)C2CCN(C)C2)cc1

>  <score_type>  (28) 
oracle

>  <origin>  (28) 
adg

>  <m_score__min__energy>  (28) 
-6.21

>  <m_primary>  (28) 
energy

$$$$
28:0
     RDKit          3D

 40 42  0  0  0  0  0  0  0  0999 V2000
   -5.7310   26.4130  -30.1580 C   0  0  0  0  0  0  0  0  0  0  0  0
   -5.7280   25.0350  -30.8200 C   0  0  2  0  0  0  0  0  0  0  0  0
   -6.7950   24.1250  -30.1710 C   0  0  0  0  0  0  0  0  0  0  0  0
   -6.8360   22.7800  -30.7970 N   0  0  0  0  0  0  0  0  0  0  0  0
   -8.0080   22.6070  -31.6780 C   0  0  0  0  0  0  0  0  0  0  0  0
   -8.1860   21.1590  -32.0280 C   0  0  0  0  0  0  0  0  0  0  0  0
   -9.3680   20.4590  -31.7990 C   0  0  0  0  0  0  0  0  0  0  0  0
   -9.1300   18.8810  -32.3220 S   0  0  0  0  0  0  0  0  0  0  0  0
   -7.5410   19.1490  -32.8180 C   0  0  0  0  0  0  0  0  0  0  0  0
   -6.6380   18.1430  -33.4200 C   0  0  0  0  0  0  0  0  0  0  0  0
   -5.6300   18.5450  -34.3160 C   0  0  0  0  0  0  0  0  0  0  0  0
   -4.7730   17.6000  -34.8880 C   0  0  0  0  0  0  0  0  0  0  0  0
   -4.9090   16.2470  -34.5720 C   0  0  0  0  0  0  0  0  0  0  0  0
   -5.9060   15.8360  -33.6840 C   0  0  0  0  0  0  0  0  0  0  0  0
   -6.7660   16.7760  -33.1100 C   0  0  0  0  0  0  0  0  0  0  0  0
   -7.1830   20.4340  -32.5910 N   0  0  0  0  0  0  0  0  0  0  0  0
   -5.5900   22.4490  -31.5220 C   0  0  0  0  0  0  0  0  0  0  0  0
   -4.3670   23.0730  -30.8160 C   0  0  1  0  0  0  0  0  0  0  0  0
   -3.0780   22.6670  -31.5300 C   0  0  0  0  0  0  0  0  0  0  0  0
   -4.4150   24.4940  -30.7350 O   0  0  0  0  0  0  0  0  0  0  0  0
   -5.7307   26.2944  -29.0644 H   0  0  0  0  0  0  0  0  0  0  0  0
   -4.8341   26.9700  -30.4666 H   0  0  0  0  0  0  0  0  0  0  0  0
   -6.6304   26.9661  -30.4666 H   0  0  0  0  0  0  0  0  0  0  0  0
   -5.9966   25.1140  -31.8838 H   0  0  0  0  0  0  0  0  0  0  0  0
   -6.5621   24.0119  -29.1019 H   0  0  0  0  0  0  0  0  0  0  0  0
   -7.7777   24.5972  -30.3172 H   0  0  0  0  0  0  0  0  0  0  0  0
   -8.9083   22.9685  -31.1596 H   0  0  0  0  0  0  0  0  0  0  0  0
   -7.8493   23.1820  -32.6022 H   0  0  0  0  0  0  0  0  0  0  0  0
  -10.2893   20.8655  -31.3564 H   0  0  0  0  0  0  0  0  0  0  0  0
   -5.5156   19.6096  -34.5679 H   0  0  0  0  0  0  0  0  0  0  0  0
   -3.9894   17.9235  -35.5890 H   0  0  0  0  0  0  0  0  0  0  0  0
   -4.2321   15.5056  -35.0216 H   0  0  0  0  0  0  0  0  0  0  0  0
   -6.0143   14.7698  -33.4360 H   0  0  0  0  0  0  0  0  0  0  0  0
   -7.5484   16.4454  -32.4111 H   0  0  0  0  0  0  0  0  0  0  0  0
   -5.4700   21.3560  -31.5539 H   0  0  0  0  0  0  0  0  0  0  0  0
   -5.6553   22.8551  -32.5422 H   0  0  0  0  0  0  0  0  0  0  0  0
   -4.3877   22.6841  -29.7873 H   0  0  0  0  0  0  0  0  0  0  0  0
   -2.3067   22.4241  -30.7843 H   0  0  0  0  0  0  0  0  0  0  0  0
   -3.2696   21.7857  -32.1598 H   0  0  0  0  0  0  0  0  0  0  0  0
   -2.7300   23.4990  -32.1598 H   0  0  0  0  0  0  0  0  0  0  0  0
  1  2  1  0
  2  3  1  0
  3  4  1  0
  4  5  1  0
  5  6  1  0
  6  7  2  0
  7  8  1  0
  8  9  1  0
  9 10  1  0
 10 11  2  0
 11 12  1  0
 12 13  2  0
 13 14  1  0
 14 15  2  0
  9 16  2  0
  4 17  1  0
 17 18  1  0
 18 19  1  0
 18 20  1  0
 20  2  1  0
 16  6  1  0
 15 10  1  0
  1 21  1  0
  1 22  1  0
  1 23  1  0
  2 24  1  6
  3 25  1  0
  3 26  1  0
  5 27  1  0
  5 28  1  0
  7 29  1  0
 11 30  1  0
 12 31  1  0
 13 32  1  0
 14 33  1  0
 15 34  1  0
 17 35  1  0
 17 36  1  0
 18 37  1  1
 19 38  1  0
 19 39  1  0
 19 40  1  0
M  END
>  <UniqueID>  (29) 
27

>  <SMILES>  (29) 
C[C@@H]1CN(Cc2csc(-c3ccccc3)n2)C[C@@H](C)O1

>  <Energy>  (29) 
80.49885764728361

>  <Genealogy>  (29) 
C[C@@H]1CN(Cc2csc(-c3ccccc3)n2)C[C@@H](C)O1 (chirality)
C[C@@H]1CN(Cc2csc(-c3ccccc3)n2)C[C@@H](C)O1 (3D coordinates assigned)
C[C@@H]1CN(Cc2csc(-c3ccccc3)n2)C[C@@H](C)O1 (nonaromatic ring conformer: 80.49885764728361 kcal/mol)

>  <smiles>  (29) 
CC1CN(Cc2csc(-c3ccccc3)n2)CC(C)O1

>  <score_type>  (29) 
oracle

>  <origin>  (29) 
adg

>  <m_score__min__energy>  (29) 
-8.2599999999999998

>  <m_primary>  (29) 
energy

$$$$
29:0
     RDKit          3D

 42 45  0  0  0  0  0  0  0  0999 V2000
   -2.1930   18.7870  -33.9970 C   0  0  0  0  0  0  0  0  0  0  0  0
   -2.2040   20.3110  -34.0440 C   0  0  0  0  0  0  0  0  0  0  0  0
   -3.1910   20.8620  -33.0640 C   0  0  0  0  0  0  0  0  0  0  0  0
   -4.0940   21.8170  -33.3430 N   0  0  0  0  0  0  0  0  0  0  0  0
   -4.7480   21.9540  -32.1740 C   0  0  0  0  0  0  0  0  0  0  0  0
   -5.9660   22.8220  -31.9940 C   0  0  2  0  0  0  0  0  0  0  0  0
   -5.6560   24.1080  -31.2200 C   0  0  0  0  0  0  0  0  0  0  0  0
   -6.8470   24.3210  -30.2910 C   0  0  0  0  0  0  0  0  0  0  0  0
   -7.5070   22.9570  -30.1350 C   0  0  0  0  0  0  0  0  0  0  0  0
   -7.0020   22.1380  -31.2250 N   0  0  0  0  0  0  0  0  0  0  0  0
   -7.7670   21.0490  -31.7700 C   0  0  0  0  0  0  0  0  0  0  0  0
   -9.0250   21.0540  -31.6640 O   0  0  0  0  0  0  0  0  0  0  0  0
   -7.1030   19.9320  -32.4670 C   0  0  0  0  0  0  0  0  0  0  0  0
   -6.7900   20.0360  -33.8340 C   0  0  0  0  0  0  0  0  0  0  0  0
   -6.1030   19.0040  -34.4840 C   0  0  0  0  0  0  0  0  0  0  0  0
   -5.7330   17.8570  -33.7740 C   0  0  0  0  0  0  0  0  0  0  0  0
   -5.0410   16.8570  -34.3830 N   0  0  0  0  0  0  0  0  0  0  0  0
   -4.6720   15.7420  -33.6980 C   0  0  0  0  0  0  0  0  0  0  0  0
   -5.0090   15.6190  -32.3460 C   0  0  0  0  0  0  0  0  0  0  0  0
   -5.7010   16.6150  -31.7320 N   0  0  0  0  0  0  0  0  0  0  0  0
   -6.0720   17.7330  -32.4110 C   0  0  0  0  0  0  0  0  0  0  0  0
   -6.7650   18.7620  -31.7660 C   0  0  0  0  0  0  0  0  0  0  0  0
   -4.2620   21.1180  -31.2310 N   0  0  0  0  0  0  0  0  0  0  0  0
   -3.2970   20.4690  -31.8160 O   0  0  0  0  0  0  0  0  0  0  0  0
   -2.1906   18.4525  -32.9491 H   0  0  0  0  0  0  0  0  0  0  0  0
   -3.0884   18.3981  -34.5040 H   0  0  0  0  0  0  0  0  0  0  0  0
   -1.2921   18.4110  -34.5040 H   0  0  0  0  0  0  0  0  0  0  0  0
   -1.2005   20.6874  -33.7965 H   0  0  0  0  0  0  0  0  0  0  0  0
   -2.4925   20.6321  -35.0558 H   0  0  0  0  0  0  0  0  0  0  0  0
   -4.2720   22.3000  -34.2520 H   0  0  0  0  0  0  0  0  0  0  0  0
   -6.3034   23.0521  -33.0154 H   0  0  0  0  0  0  0  0  0  0  0  0
   -4.7299   23.9926  -30.6377 H   0  0  0  0  0  0  0  0  0  0  0  0
   -5.5058   24.9641  -31.8941 H   0  0  0  0  0  0  0  0  0  0  0  0
   -6.5075   24.6953  -29.3140 H   0  0  0  0  0  0  0  0  0  0  0  0
   -7.5484   25.0637  -30.6989 H   0  0  0  0  0  0  0  0  0  0  0  0
   -7.2379   22.5112  -29.1661 H   0  0  0  0  0  0  0  0  0  0  0  0
   -8.6038   23.0353  -30.1657 H   0  0  0  0  0  0  0  0  0  0  0  0
   -7.0868   20.9338  -34.3960 H   0  0  0  0  0  0  0  0  0  0  0  0
   -5.8544   19.0949  -35.5517 H   0  0  0  0  0  0  0  0  0  0  0  0
   -4.1120   14.9417  -34.2038 H   0  0  0  0  0  0  0  0  0  0  0  0
   -4.7156   14.7210  -31.7826 H   0  0  0  0  0  0  0  0  0  0  0  0
   -7.0461   18.6554  -30.7079 H   0  0  0  0  0  0  0  0  0  0  0  0
  1  2  1  0
  2  3  1  0
  3  4  2  0
  4  5  1  0
  5  6  1  0
  6  7  1  0
  7  8  1  0
  8  9  1  0
  9 10  1  0
 10 11  1  0
 11 12  2  0
 11 13  1  0
 13 14  2  0
 14 15  1  0
 15 16  2  0
 16 17  1  0
 17 18  2  0
 18 19  1  0
 19 20  2  0
 20 21  1  0
 21 22  2  0
  5 23  2  0
 23 24  1  0
 24  3  1  0
 10  6  1  0
 22 13  1  0
 21 16  1  0
  1 25  1  0
  1 26  1  0
  1 27  1  0
  2 28  1  0
  2 29  1  0
  4 30  1  0
  6 31  1  6
  7 32  1  0
  7 33  1  0
  8 34  1  0
  8 35  1  0
  9 36  1  0
  9 37  1  0
 14 38  1  0
 15 39  1  0
 18 40  1  0
 19 41  1  0
 22 42  1  0
M  CHG  1   4   1
M  END
>  <UniqueID>  (30) 
28

>  <SMILES>  (30) 
CCc1[nH+]c([C@@H]2CCCN2C(=O)c2ccc3nccnc3c2)no1

>  <Energy>  (30) 
84.99326800910696

>  <Genealogy>  (30) 
CCc1[nH+]c(C2CCCN2C(=O)c2ccc3nccnc3c2)no1 (protonated)
CCc1[nH+]c([C@@H]2CCCN2C(=O)c2ccc3nccnc3c2)no1 (chirality)
CCc1[nH+]c([C@@H]2CCCN2C(=O)c2ccc3nccnc3c2)no1 (3D coordinates assigned)
CCc1[nH+]c([C@@H]2CCCN2C(=O)c2ccc3nccnc3c2)no1 (nonaromatic ring conformer: 84.99326800910696 kcal/mol)

>  <smiles>  (30) 
CCc1nc(C2CCCN2C(=O)c2ccc3nccnc3c2)no1

>  <score_type>  (30) 
oracle

>  <origin>  (30) 
adg

>  <m_score__min__energy>  (30) 
-8.0999999999999996

>  <m_primary>  (30) 
energy

$$$$
30:0
     RDKit          3D

 49 51  0  0  1  0  0  0  0  0999 V2000
   -2.4170   24.9170  -28.5140 C   0  0  0  0  0  0  0  0  0  0  0  0
   -3.0950   25.2580  -29.7120 O   0  0  0  0  0  0  0  0  0  0  0  0
   -4.2880   24.5640  -29.9770 C   0  0  0  0  0  0  0  0  0  0  0  0
   -5.4620   25.2460  -30.2160 C   0  0  0  0  0  0  0  0  0  0  0  0
   -6.6050   24.5180  -30.4710 C   0  0  0  0  0  0  0  0  0  0  0  0
   -6.6000   23.1390  -30.4940 C   0  0  0  0  0  0  0  0  0  0  0  0
   -7.8620   22.3810  -30.7750 C   0  0  0  0  0  0  0  0  0  0  0  0
   -7.7820   21.8050  -32.1040 N   0  0  0  0  0  0  0  0  0  0  0  0
   -6.8910   20.9870  -32.5000 C   0  0  0  0  0  0  0  0  0  0  0  0
   -5.6190   21.3120  -32.7400 N   0  0  0  0  0  0  0  0  0  0  0  0
   -4.9830   20.1940  -33.1400 C   0  0  0  0  0  0  0  0  0  0  0  0
   -3.5730   20.0910  -33.5060 C   0  0  0  0  0  0  0  0  0  0  0  0
   -3.0590   18.8710  -33.8930 C   0  0  0  0  0  0  0  0  0  0  0  0
   -1.7040   18.8590  -34.2270 C   0  0  0  0  0  0  0  0  0  0  0  0
   -0.9420   19.9850  -34.1730 C   0  0  0  0  0  0  0  0  0  0  0  0
   -1.4690   21.1470  -33.7960 N   0  0  0  0  0  0  0  0  0  0  0  0
   -2.7700   21.2120  -33.4650 C   0  0  0  0  0  0  0  0  0  0  0  0
   -5.8740   19.1890  -33.1400 N   0  0  0  0  0  0  0  0  0  0  0  0
   -7.0450   19.6580  -32.7510 N   0  0  0  0  0  0  0  0  0  0  0  0
   -8.2830   18.9550  -32.6020 C   0  0  0  0  0  0  0  0  0  0  0  0
   -9.4830   19.7650  -33.0120 C   0  0  0  0  0  0  0  0  0  0  0  0
   -8.3650   18.4130  -31.2090 C   0  0  0  0  0  0  0  0  0  0  0  0
   -5.4000   22.5110  -30.2480 C   0  0  0  0  0  0  0  0  0  0  0  0
   -4.2250   23.1900  -29.9870 C   0  0  0  0  0  0  0  0  0  0  0  0
   -3.0400   22.5520  -29.7440 O   0  0  0  0  0  0  0  0  0  0  0  0
   -2.8430   21.1730  -29.8740 C   0  0  0  0  0  0  0  0  0  0  0  0
   -3.0244   25.2225  -27.6493 H   0  0  0  0  0  0  0  0  0  0  0  0
   -2.2539   23.8296  -28.4818 H   0  0  0  0  0  0  0  0  0  0  0  0
   -1.4468   25.4344  -28.4818 H   0  0  0  0  0  0  0  0  0  0  0  0
   -5.4864   26.3457  -30.2036 H   0  0  0  0  0  0  0  0  0  0  0  0
   -7.5475   25.0522  -30.6615 H   0  0  0  0  0  0  0  0  0  0  0  0
   -7.9833   21.5788  -30.0322 H   0  0  0  0  0  0  0  0  0  0  0  0
   -8.7245   23.0612  -30.7165 H   0  0  0  0  0  0  0  0  0  0  0  0
   -3.6789   17.9633  -33.9358 H   0  0  0  0  0  0  0  0  0  0  0  0
   -1.2393   17.9133  -34.5426 H   0  0  0  0  0  0  0  0  0  0  0  0
    0.1228   19.9339  -34.4444 H   0  0  0  0  0  0  0  0  0  0  0  0
   -3.2018   22.1754  -33.1562 H   0  0  0  0  0  0  0  0  0  0  0  0
   -5.6730   18.1960  -33.4060 H   0  0  0  0  0  0  0  0  0  0  0  0
   -8.2990   18.1087  -33.3045 H   0  0  0  0  0  0  0  0  0  0  0  0
  -10.0096   20.1205  -32.1141 H   0  0  0  0  0  0  0  0  0  0  0  0
   -9.1558   20.6278  -33.6108 H   0  0  0  0  0  0  0  0  0  0  0  0
  -10.1608   19.1389  -33.6108 H   0  0  0  0  0  0  0  0  0  0  0  0
   -8.2407   19.2344  -30.4880 H   0  0  0  0  0  0  0  0  0  0  0  0
   -9.3453   17.9375  -31.0577 H   0  0  0  0  0  0  0  0  0  0  0  0
   -7.5692   17.6688  -31.0577 H   0  0  0  0  0  0  0  0  0  0  0  0
   -5.3751   21.4113  -30.2598 H   0  0  0  0  0  0  0  0  0  0  0  0
   -2.7777   20.7162  -28.8755 H   0  0  0  0  0  0  0  0  0  0  0  0
   -3.6873   20.7323  -30.4244 H   0  0  0  0  0  0  0  0  0  0  0  0
   -1.9091   20.9863  -30.4244 H   0  0  0  0  0  0  0  0  0  0  0  0
  1  2  1  0
  2  3  1  0
  3  4  2  0
  4  5  1  0
  5  6  2  0
  6  7  1  0
  7  8  1  0
  8  9  2  0
  9 10  1  0
 10 11  2  0
 11 12  1  0
 12 13  2  0
 13 14  1  0
 14 15  2  0
 15 16  1  0
 16 17  2  0
 11 18  1  0
 18 19  1  0
 19 20  1  0
 20 21  1  0
 20 22  1  0
  6 23  1  0
 23 24  2  0
 24 25  1  0
 25 26  1  0
 24  3  1  0
 19  9  1  0
 17 12  1  0
  1 27  1  0
  1 28  1  0
  1 29  1  0
  4 30  1  0
  5 31  1  0
  7 32  1  0
  7 33  1  0
 13 34  1  0
 14 35  1  0
 15 36  1  0
 17 37  1  0
 18 38  1  0
 20 39  1  0
 21 40  1  0
 21 41  1  0
 21 42  1  0
 22 43  1  0
 22 44  1  0
 22 45  1  0
 23 46  1  0
 26 47  1  0
 26 48  1  0
 26 49  1  0
M  END
>  <smiles>  (31) 
COc1ccc(CN=c2nc(-c3cccnc3)[nH]n2C(C)C)cc1OC

>  <score_type>  (31) 
oracle

>  <origin>  (31) 
adg

>  <m_score__min__energy>  (31) 
-8.3800000000000008

>  <m_primary>  (31) 
energy

$$$$
31:0
     RDKit          3D

 33 34  0  0  0  0  0  0  0  0999 V2000
   -3.5710   20.7330  -33.1970 C   0  0  0  0  0  0  0  0  0  0  0  0
   -4.1130   19.6290  -33.9150 O   0  0  0  0  0  0  0  0  0  0  0  0
   -5.2660   18.9270  -33.5340 C   0  0  0  0  0  0  0  0  0  0  0  0
   -5.5070   17.5980  -33.9350 C   0  0  0  0  0  0  0  0  0  0  0  0
   -6.6720   16.9430  -33.5280 C   0  0  0  0  0  0  0  0  0  0  0  0
   -7.6020   17.6010  -32.7210 C   0  0  0  0  0  0  0  0  0  0  0  0
   -7.3800   18.9200  -32.3120 C   0  0  0  0  0  0  0  0  0  0  0  0
   -8.3440   19.5370  -31.5020 O   0  0  0  0  0  0  0  0  0  0  0  0
   -9.2300   20.5630  -31.9410 C   0  0  0  0  0  0  0  0  0  0  0  0
   -8.5340   21.8830  -31.8580 C   0  0  0  0  0  0  0  0  0  0  0  0
   -9.0910   22.9090  -32.3330 O   0  0  0  0  0  0  0  0  0  0  0  0
   -7.2240   21.9620  -31.2750 N   0  0  0  0  0  0  0  0  0  0  0  0
   -6.5560   23.1950  -30.9540 C   0  0  0  0  0  0  0  0  0  0  0  0
   -7.1310   24.1490  -30.0970 C   0  0  0  0  0  0  0  0  0  0  0  0
   -6.4370   25.3210  -29.7910 C   0  0  0  0  0  0  0  0  0  0  0  0
   -5.1660   25.5260  -30.3320 C   0  0  0  0  0  0  0  0  0  0  0  0
   -4.6120   24.5840  -31.1420 N   0  0  0  0  0  0  0  0  0  0  0  0
   -5.2680   23.4350  -31.4550 C   0  0  0  0  0  0  0  0  0  0  0  0
   -6.2040   19.5790  -32.7240 C   0  0  0  0  0  0  0  0  0  0  0  0
   -3.6619   20.5479  -32.1165 H   0  0  0  0  0  0  0  0  0  0  0  0
   -2.5100   20.8561  -33.4600 H   0  0  0  0  0  0  0  0  0  0  0  0
   -4.1225   21.6477  -33.4600 H   0  0  0  0  0  0  0  0  0  0  0  0
   -4.7765   17.0751  -34.5698 H   0  0  0  0  0  0  0  0  0  0  0  0
   -6.8570   15.9058  -33.8443 H   0  0  0  0  0  0  0  0  0  0  0  0
   -8.5165   17.0780  -32.4044 H   0  0  0  0  0  0  0  0  0  0  0  0
   -9.5294   20.3699  -32.9817 H   0  0  0  0  0  0  0  0  0  0  0  0
  -10.1250   20.5766  -31.3016 H   0  0  0  0  0  0  0  0  0  0  0  0
   -6.6960   21.0700  -31.1470 H   0  0  0  0  0  0  0  0  0  0  0  0
   -8.1280   23.9722  -29.6673 H   0  0  0  0  0  0  0  0  0  0  0  0
   -6.8872   26.0761  -29.1298 H   0  0  0  0  0  0  0  0  0  0  0  0
   -4.6130   26.4490  -30.1032 H   0  0  0  0  0  0  0  0  0  0  0  0
   -4.7861   22.6895  -32.1047 H   0  0  0  0  0  0  0  0  0  0  0  0
   -6.0212   20.6160  -32.4060 H   0  0  0  0  0  0  0  0  0  0  0  0
  1  2  1  0
  2  3  1  0
  3  4  2  0
  4  5  1  0
  5  6  2  0
  6  7  1  0
  7  8  1  0
  8  9  1  0
  9 10  1  0
 10 11  2  0
 10 12  1  0
 12 13  1  0
 13 14  2  0
 14 15  1  0
 15 16  2  0
 16 17  1  0
 17 18  2  0
  7 19  2  0
 19  3  1  0
 18 13  1  0
  1 20  1  0
  1 21  1  0
  1 22  1  0
  4 23  1  0
  5 24  1  0
  6 25  1  0
  9 26  1  0
  9 27  1  0
 12 28  1  0
 14 29  1  0
 15 30  1  0
 16 31  1  0
 18 32  1  0
 19 33  1  0
M  END
>  <UniqueID>  (32) 
29

>  <SMILES>  (32) 
COc1cccc(OCC(=O)Nc2cccnc2)c1

>  <Energy>  (32) 
35.280065608265176

>  <Genealogy>  (32) 
COc1cccc(OCC(=O)Nc2cccnc2)c1 (3D coordinates assigned)
COc1cccc(OCC(=O)Nc2cccnc2)c1 (optimized conformer: 35.280065608265176 kcal/mol)

>  <smiles>  (32) 
COc1cccc(OCC(=O)Nc2cccnc2)c1

>  <score_type>  (32) 
oracle

>  <origin>  (32) 
adg

>  <m_score__min__energy>  (32) 
-6.4299999999999997

>  <m_primary>  (32) 
energy

$$$$
32:0
     RDKit          3D

 73 76  0  0  0  0  0  0  0  0999 V2000
   -5.1860   25.3820  -31.2340 O   0  0  0  0  0  0  0  0  0  0  0  0
   -4.5660   24.6290  -30.4360 C   0  0  0  0  0  0  0  0  0  0  0  0
   -5.2700   23.4150  -29.8890 C   0  0  0  0  0  0  0  0  0  0  0  0
   -6.7940   23.6070  -29.8640 C   0  0  0  0  0  0  0  0  0  0  0  0
   -7.4740   23.0580  -31.1270 C   0  0  0  0  0  0  0  0  0  0  0  0
   -7.5870   21.6020  -31.0470 N   0  0  0  0  0  0  0  0  0  0  0  0
   -8.6050   20.8680  -31.7430 C   0  0  0  0  0  0  0  0  0  0  0  0
   -9.5590   21.4840  -32.2990 O   0  0  0  0  0  0  0  0  0  0  0  0
   -8.5330   19.3630  -31.7800 C   0  0  0  0  0  0  0  0  0  0  0  0
   -7.1410   18.8130  -32.1320 C   0  0  0  0  0  0  0  0  0  0  0  0
   -6.5370   19.5120  -33.3600 C   0  0  0  0  0  0  0  0  0  0  0  0
   -5.1710   20.0540  -33.0390 C   0  0  0  0  0  0  0  0  0  0  0  0
   -4.9950   21.4240  -32.7780 C   0  0  0  0  0  0  0  0  0  0  0  0
   -3.7190   21.9300  -32.5070 C   0  0  0  0  0  0  0  0  0  0  0  0
   -2.6130   21.0770  -32.5080 C   0  0  0  0  0  0  0  0  0  0  0  0
   -2.7790   19.7160  -32.7830 C   0  0  0  0  0  0  0  0  0  0  0  0
   -4.0520   19.2050  -33.0530 C   0  0  0  0  0  0  0  0  0  0  0  0
   -3.2080   24.9500  -30.1070 N   0  0  0  0  0  0  0  0  0  0  0  0
   -2.3730   24.2730  -29.1180 C   0  0  1  0  0  0  0  0  0  0  0  0
   -1.9780   22.8850  -29.6460 C   0  0  0  0  0  0  0  0  0  0  0  0
   -2.2260   21.8080  -28.6290 C   0  0  0  0  0  0  0  0  0  0  0  0
   -3.3610   21.6680  -27.8330 C   0  0  0  0  0  0  0  0  0  0  0  0
   -3.2820   20.5360  -27.0960 N   0  0  0  0  0  0  0  0  0  0  0  0
   -2.1150   19.9580  -27.4280 C   0  0  0  0  0  0  0  0  0  0  0  0
   -1.6020   18.7530  -26.9490 C   0  0  0  0  0  0  0  0  0  0  0  0
   -0.3640   18.3140  -27.4560 C   0  0  0  0  0  0  0  0  0  0  0  0
    0.3250   19.0780  -28.4260 C   0  0  0  0  0  0  0  0  0  0  0  0
   -0.2180   20.2890  -28.8940 C   0  0  0  0  0  0  0  0  0  0  0  0
   -1.4450   20.7010  -28.3660 C   0  0  0  0  0  0  0  0  0  0  0  0
   -1.1640   25.1140  -28.7580 C   0  0  0  0  0  0  0  0  0  0  0  0
   -1.2350   26.3610  -28.9270 O   0  0  0  0  0  0  0  0  0  0  0  0
    0.0510   24.5730  -28.2170 N   0  0  0  0  0  0  0  0  0  0  0  0
    0.2250   23.9370  -26.9170 C   0  0  0  0  0  0  0  0  0  0  0  0
   -0.0630   24.9400  -25.8390 C   0  0  0  0  0  0  0  0  0  0  0  0
   -1.3620   25.4540  -25.6780 C   0  0  0  0  0  0  0  0  0  0  0  0
   -1.6210   26.4180  -24.6970 C   0  0  0  0  0  0  0  0  0  0  0  0
   -0.5870   26.8820  -23.8800 C   0  0  0  0  0  0  0  0  0  0  0  0
    0.7120   26.3870  -24.0440 C   0  0  0  0  0  0  0  0  0  0  0  0
    0.9750   25.4230  -25.0240 C   0  0  0  0  0  0  0  0  0  0  0  0
   -5.0300   22.5480  -30.5220 H   0  0  0  0  0  0  0  0  0  0  0  0
   -4.9269   23.2551  -28.8562 H   0  0  0  0  0  0  0  0  0  0  0  0
   -7.2018   23.0829  -28.9870 H   0  0  0  0  0  0  0  0  0  0  0  0
   -6.9952   24.6874  -29.8174 H   0  0  0  0  0  0  0  0  0  0  0  0
   -8.4789   23.4960  -31.2183 H   0  0  0  0  0  0  0  0  0  0  0  0
   -6.8676   23.3234  -32.0055 H   0  0  0  0  0  0  0  0  0  0  0  0
   -6.8950   21.0820  -30.4620 H   0  0  0  0  0  0  0  0  0  0  0  0
   -8.8167   18.9785  -30.7892 H   0  0  0  0  0  0  0  0  0  0  0  0
   -9.2173   19.0306  -32.5746 H   0  0  0  0  0  0  0  0  0  0  0  0
   -6.4717   18.9651  -31.2724 H   0  0  0  0  0  0  0  0  0  0  0  0
   -7.2491   17.7444  -32.3695 H   0  0  0  0  0  0  0  0  0  0  0  0
   -6.4548   18.7884  -34.1844 H   0  0  0  0  0  0  0  0  0  0  0  0
   -7.1913   20.3467  -33.6518 H   0  0  0  0  0  0  0  0  0  0  0  0
   -5.8627   22.1000  -32.7868 H   0  0  0  0  0  0  0  0  0  0  0  0
   -3.5867   23.0008  -32.2929 H   0  0  0  0  0  0  0  0  0  0  0  0
   -1.6109   21.4760  -32.2924 H   0  0  0  0  0  0  0  0  0  0  0  0
   -1.9064   19.0463  -32.7869 H   0  0  0  0  0  0  0  0  0  0  0  0
   -4.1776   18.1354  -33.2770 H   0  0  0  0  0  0  0  0  0  0  0  0
   -2.9458   24.1367  -28.1889 H   0  0  0  0  0  0  0  0  0  0  0  0
   -2.5691   22.6659  -30.5475 H   0  0  0  0  0  0  0  0  0  0  0  0
   -0.9015   22.8996  -29.8718 H   0  0  0  0  0  0  0  0  0  0  0  0
   -4.2017   22.3769  -27.8074 H   0  0  0  0  0  0  0  0  0  0  0  0
   -3.9950   20.1770  -26.4250 H   0  0  0  0  0  0  0  0  0  0  0  0
   -2.1480   18.1633  -26.1979 H   0  0  0  0  0  0  0  0  0  0  0  0
    0.0702   17.3700  -27.0949 H   0  0  0  0  0  0  0  0  0  0  0  0
    1.2904   18.7240  -28.8168 H   0  0  0  0  0  0  0  0  0  0  0  0
    0.3059   20.8916  -29.6505 H   0  0  0  0  0  0  0  0  0  0  0  0
   -0.4690   23.0884  -26.8259 H   0  0  0  0  0  0  0  0  0  0  0  0
    1.2578   23.5716  -26.8178 H   0  0  0  0  0  0  0  0  0  0  0  0
   -2.1770   25.0973  -26.3250 H   0  0  0  0  0  0  0  0  0  0  0  0
   -2.6404   26.8110  -24.5690 H   0  0  0  0  0  0  0  0  0  0  0  0
   -0.7939   27.6370  -23.1072 H   0  0  0  0  0  0  0  0  0  0  0  0
    1.5261   26.7556  -23.4027 H   0  0  0  0  0  0  0  0  0  0  0  0
    1.9983   25.0419  -25.1568 H   0  0  0  0  0  0  0  0  0  0  0  0
  1  2  2  0
  2  3  1  0
  3  4  1  0
  4  5  1  0
  5  6  1  0
  6  7  1  0
  7  8  2  0
  7  9  1  0
  9 10  1  0
 10 11  1  0
 11 12  1  0
 12 13  2  0
 13 14  1  0
 14 15  2  0
 15 16  1  0
 16 17  2  0
  2 18  1  0
 18 19  1  0
 19 20  1  0
 20 21  1  0
 21 22  2  0
 22 23  1  0
 23 24  1  0
 24 25  2  0
 25 26  1  0
 26 27  2  0
 27 28  1  0
 28 29  2  0
 19 30  1  0
 30 31  2  0
 30 32  1  0
 32 33  1  0
 33 34  1  0
 34 35  2  0
 35 36  1  0
 36 37  2  0
 37 38  1  0
 38 39  2  0
 17 12  1  0
 29 21  1  0
 39 34  1  0
 29 24  1  0
  3 40  1  0
  3 41  1  0
  4 42  1  0
  4 43  1  0
  5 44  1  0
  5 45  1  0
  6 46  1  0
  9 47  1  0
  9 48  1  0
 10 49  1  0
 10 50  1  0
 11 51  1  0
 11 52  1  0
 13 53  1  0
 14 54  1  0
 15 55  1  0
 16 56  1  0
 17 57  1  0
 19 58  1  1
 20 59  1  0
 20 60  1  0
 22 61  1  0
 23 62  1  0
 25 63  1  0
 26 64  1  0
 27 65  1  0
 28 66  1  0
 33 67  1  0
 33 68  1  0
 35 69  1  0
 36 70  1  0
 37 71  1  0
 38 72  1  0
 39 73  1  0
M  CHG  2  18  -1  32  -1
M  END
>  <UniqueID>  (33) 
30

>  <SMILES>  (33) 
O=C(CCCNC(=O)CCCc1ccccc1)[N-][C@@H](Cc1c[nH]c2ccccc12)C(=O)[N-]Cc1ccccc1

>  <Energy>  (33) 
94.24374282779644

>  <Genealogy>  (33) 
O=C(CCCNC(=O)CCCc1ccccc1)[N-]C(Cc1c[nH]c2ccccc12)C(=O)[N-]Cc1ccccc1 (protonated)
O=C(CCCNC(=O)CCCc1ccccc1)[N-][C@@H](Cc1c[nH]c2ccccc12)C(=O)[N-]Cc1ccccc1 (chirality)
O=C(CCCNC(=O)CCCc1ccccc1)[N-][C@@H](Cc1c[nH]c2ccccc12)C(=O)[N-]Cc1ccccc1 (3D coordinates assigned)
O=C(CCCNC(=O)CCCc1ccccc1)[N-][C@@H](Cc1c[nH]c2ccccc12)C(=O)[N-]Cc1ccccc1 (optimized conformer: 94.24374282779644 kcal/mol)

>  <smiles>  (33) 
O=C(CCCc1ccccc1)NCCCC(=O)NC(Cc1c[nH]c2ccccc12)C(=O)NCc1ccccc1

>  <score_type>  (33) 
oracle

>  <origin>  (33) 
adg

>  <m_score__min__energy>  (33) 
-13.84

>  <m_primary>  (33) 
energy

$$$$
33:0
     RDKit          3D

 37 40  0  0  0  0  0  0  0  0999 V2000
   -6.4730   25.3850  -29.7270 C   0  0  0  0  0  0  0  0  0  0  0  0
   -6.0960   24.2750  -30.5900 N   0  0  0  0  0  0  0  0  0  0  0  0
   -6.8820   23.2340  -30.9230 C   0  0  0  0  0  0  0  0  0  0  0  0
   -6.1780   22.4470  -31.8070 C   0  0  0  0  0  0  0  0  0  0  0  0
   -6.6240   21.2060  -32.3680 N   0  0  0  0  0  0  0  0  0  0  0  0
   -7.8860   20.9730  -32.7190 N   0  0  0  0  0  0  0  0  0  0  0  0
   -8.0180   19.7290  -33.1590 N   0  0  0  0  0  0  0  0  0  0  0  0
   -6.8040   19.1600  -33.0920 C   0  0  0  0  0  0  0  0  0  0  0  0
   -5.9220   20.0770  -32.6160 C   0  0  0  0  0  0  0  0  0  0  0  0
   -4.4840   19.7530  -32.3340 C   0  0  0  0  0  0  0  0  0  0  0  0
   -4.0130   18.5490  -33.1910 C   0  0  0  0  0  0  0  0  0  0  0  0
   -5.0130   17.4600  -33.2640 N   0  0  0  0  0  0  0  0  0  0  0  0
   -4.5580   16.1090  -33.4530 C   0  0  0  0  0  0  0  0  0  0  0  0
   -3.9910   15.7240  -34.6780 C   0  0  0  0  0  0  0  0  0  0  0  0
   -3.5580   14.4090  -34.8720 C   0  0  0  0  0  0  0  0  0  0  0  0
   -3.6900   13.4690  -33.8460 C   0  0  0  0  0  0  0  0  0  0  0  0
   -3.2700   12.1940  -34.0350 F   0  0  0  0  0  0  0  0  0  0  0  0
   -4.2610   13.8430  -32.6250 C   0  0  0  0  0  0  0  0  0  0  0  0
   -4.6950   15.1570  -32.4290 C   0  0  0  0  0  0  0  0  0  0  0  0
   -6.4130   17.7900  -33.3890 C   0  0  0  0  0  0  0  0  0  0  0  0
   -7.2750   16.9220  -33.6930 O   0  0  0  0  0  0  0  0  0  0  0  0
   -4.9500   23.0670  -31.9660 C   0  0  0  0  0  0  0  0  0  0  0  0
   -4.9320   24.1890  -31.2190 N   0  0  0  0  0  0  0  0  0  0  0  0
   -6.3702   25.0824  -28.6744 H   0  0  0  0  0  0  0  0  0  0  0  0
   -5.8164   26.2445  -29.9272 H   0  0  0  0  0  0  0  0  0  0  0  0
   -7.5173   25.6668  -29.9272 H   0  0  0  0  0  0  0  0  0  0  0  0
   -7.9017   23.0461  -30.5556 H   0  0  0  0  0  0  0  0  0  0  0  0
   -8.9120   19.2940  -33.4750 H   0  0  0  0  0  0  0  0  0  0  0  0
   -3.8634   20.6296  -32.5716 H   0  0  0  0  0  0  0  0  0  0  0  0
   -4.3836   19.4900  -31.2706 H   0  0  0  0  0  0  0  0  0  0  0  0
   -3.8082   18.9048  -34.2115 H   0  0  0  0  0  0  0  0  0  0  0  0
   -3.1141   18.1363  -32.7098 H   0  0  0  0  0  0  0  0  0  0  0  0
   -3.8869   16.4601  -35.4887 H   0  0  0  0  0  0  0  0  0  0  0  0
   -3.1128   14.1136  -35.8335 H   0  0  0  0  0  0  0  0  0  0  0  0
   -4.3685   13.1025  -31.8187 H   0  0  0  0  0  0  0  0  0  0  0  0
   -5.1459   15.4471  -31.4685 H   0  0  0  0  0  0  0  0  0  0  0  0
   -4.1256   22.7040  -32.5974 H   0  0  0  0  0  0  0  0  0  0  0  0
  1  2  1  0
  2  3  1  0
  3  4  2  0
  4  5  1  0
  5  6  1  0
  6  7  2  0
  7  8  1  0
  8  9  2  0
  9 10  1  0
 10 11  1  0
 11 12  1  0
 12 13  1  0
 13 14  2  0
 14 15  1  0
 15 16  2  0
 16 17  1  0
 16 18  1  0
 18 19  2  0
 12 20  1  0
 20 21  2  0
  4 22  1  0
 22 23  2  0
 23  2  1  0
  9  5  1  0
 19 13  1  0
 20  8  1  0
  1 24  1  0
  1 25  1  0
  1 26  1  0
  3 27  1  0
  7 28  1  0
 10 29  1  0
 10 30  1  0
 11 31  1  0
 11 32  1  0
 14 33  1  0
 15 34  1  0
 18 35  1  0
 19 36  1  0
 22 37  1  0
M  CHG  1   7   1
M  END
>  <UniqueID>  (34) 
31

>  <SMILES>  (34) 
Cn1cc(-n2n[nH+]c3c2CCN(c2ccc(F)cc2)C3=O)cn1

>  <Energy>  (34) 
121.09669534138844

>  <Genealogy>  (34) 
Cn1cc(-n2n[nH+]c3c2CCN(c2ccc(F)cc2)C3=O)cn1 (protonated)
Cn1cc(-n2n[nH+]c3c2CCN(c2ccc(F)cc2)C3=O)cn1 (3D coordinates assigned)
Cn1cc(-n2n[nH+]c3c2CCN(c2ccc(F)cc2)C3=O)cn1 (nonaromatic ring conformer: 121.09669534138844 kcal/mol)

>  <smiles>  (34) 
Cn1cc(-n2nnc3c2CCN(c2ccc(F)cc2)C3=O)cn1

>  <score_type>  (34) 
oracle

>  <origin>  (34) 
adg

>  <m_score__min__energy>  (34) 
-7.0999999999999996

>  <m_primary>  (34) 
energy

$$$$
34:0
     RDKit          3D

 42 43  0  0  0  0  0  0  0  0999 V2000
   -2.6500   24.4890  -29.3410 C   0  0  0  0  0  0  0  0  0  0  0  0
   -3.4950   24.9270  -30.4000 O   0  0  0  0  0  0  0  0  0  0  0  0
   -4.7640   24.3950  -30.6730 C   0  0  0  0  0  0  0  0  0  0  0  0
   -4.8510   23.2860  -31.5190 C   0  0  0  0  0  0  0  0  0  0  0  0
   -6.0910   22.7170  -31.8240 C   0  0  0  0  0  0  0  0  0  0  0  0
   -7.2780   23.2500  -31.2820 C   0  0  0  0  0  0  0  0  0  0  0  0
   -8.6140   22.6640  -31.5860 C   0  0  0  0  0  0  0  0  0  0  0  0
   -9.3840   23.2620  -32.3850 O   0  0  0  0  0  0  0  0  0  0  0  0
   -9.1140   21.3910  -30.9500 C   0  0  0  0  0  0  0  0  0  0  0  0
   -9.0870   20.2030  -31.9270 C   0  0  0  0  0  0  0  0  0  0  0  0
   -7.9590   20.2960  -32.9720 C   0  0  0  0  0  0  0  0  0  0  0  0
   -6.7880   19.4650  -32.6080 N   0  0  0  0  0  0  0  0  0  0  0  0
   -7.2040   18.1820  -31.9800 C   0  0  0  0  0  0  0  0  0  0  0  0
   -6.1290   17.0970  -32.1090 C   0  0  0  0  0  0  0  0  0  0  0  0
   -5.8480   16.7740  -33.5870 C   0  0  0  0  0  0  0  0  0  0  0  0
   -6.0780   17.9830  -34.5100 C   0  0  0  0  0  0  0  0  0  0  0  0
   -5.8580   19.3020  -33.7570 C   0  0  0  0  0  0  0  0  0  0  0  0
   -7.1830   24.3670  -30.4300 C   0  0  0  0  0  0  0  0  0  0  0  0
   -5.9410   24.9340  -30.1280 C   0  0  0  0  0  0  0  0  0  0  0  0
   -3.1172   24.7312  -28.3750 H   0  0  0  0  0  0  0  0  0  0  0  0
   -2.5033   23.4013  -29.4149 H   0  0  0  0  0  0  0  0  0  0  0  0
   -1.6767   24.9961  -29.4149 H   0  0  0  0  0  0  0  0  0  0  0  0
   -3.9343   22.8564  -31.9493 H   0  0  0  0  0  0  0  0  0  0  0  0
   -6.1408   21.8453  -32.4931 H   0  0  0  0  0  0  0  0  0  0  0  0
   -8.4768   21.1531  -30.0855 H   0  0  0  0  0  0  0  0  0  0  0  0
  -10.1584   21.5536  -30.6453 H   0  0  0  0  0  0  0  0  0  0  0  0
   -8.9502   19.2780  -31.3476 H   0  0  0  0  0  0  0  0  0  0  0  0
  -10.0401   20.2124  -32.4762 H   0  0  0  0  0  0  0  0  0  0  0  0
   -8.3470   19.9550  -33.9432 H   0  0  0  0  0  0  0  0  0  0  0  0
   -7.6277   21.3439  -33.0184 H   0  0  0  0  0  0  0  0  0  0  0  0
   -7.4025   18.3584  -30.9125 H   0  0  0  0  0  0  0  0  0  0  0  0
   -8.1049   17.8276  -32.5024 H   0  0  0  0  0  0  0  0  0  0  0  0
   -5.2015   17.4511  -31.6353 H   0  0  0  0  0  0  0  0  0  0  0  0
   -6.4902   16.1842  -31.6127 H   0  0  0  0  0  0  0  0  0  0  0  0
   -4.8012   16.4505  -33.6842 H   0  0  0  0  0  0  0  0  0  0  0  0
   -6.5471   15.9822  -33.8941 H   0  0  0  0  0  0  0  0  0  0  0  0
   -5.3748   17.9295  -35.3542 H   0  0  0  0  0  0  0  0  0  0  0  0
   -7.1170   17.9552  -34.8702 H   0  0  0  0  0  0  0  0  0  0  0  0
   -4.8248   19.3248  -33.3803 H   0  0  0  0  0  0  0  0  0  0  0  0
   -6.0505   20.1246  -34.4615 H   0  0  0  0  0  0  0  0  0  0  0  0
   -8.0971   24.7989  -29.9966 H   0  0  0  0  0  0  0  0  0  0  0  0
   -5.8855   25.8064  -29.4603 H   0  0  0  0  0  0  0  0  0  0  0  0
  1  2  1  0
  2  3  1  0
  3  4  2  0
  4  5  1  0
  5  6  2  0
  6  7  1  0
  7  8  2  0
  7  9  1  0
  9 10  1  0
 10 11  1  0
 11 12  1  0
 12 13  1  0
 13 14  1  0
 14 15  1  0
 15 16  1  0
 16 17  1  0
  6 18  1  0
 18 19  2  0
 19  3  1  0
 17 12  1  0
  1 20  1  0
  1 21  1  0
  1 22  1  0
  4 23  1  0
  5 24  1  0
  9 25  1  0
  9 26  1  0
 10 27  1  0
 10 28  1  0
 11 29  1  0
 11 30  1  0
 13 31  1  0
 13 32  1  0
 14 33  1  0
 14 34  1  0
 15 35  1  0
 15 36  1  0
 16 37  1  0
 16 38  1  0
 17 39  1  0
 17 40  1  0
 18 41  1  0
 19 42  1  0
M  END
>  <UniqueID>  (35) 
32

>  <SMILES>  (35) 
COc1ccc(C(=O)CCCN2CCCCC2)cc1

>  <Energy>  (35) 
46.11705012503294

>  <Genealogy>  (35) 
COc1ccc(C(=O)CCCN2CCCCC2)cc1 (3D coordinates assigned)
COc1ccc(C(=O)CCCN2CCCCC2)cc1 (nonaromatic ring conformer: 46.11705012503294 kcal/mol)

>  <smiles>  (35) 
COc1ccc(C(=O)CCCN2CCCCC2)cc1

>  <score_type>  (35) 
oracle

>  <origin>  (35) 
adg

>  <m_score__min__energy>  (35) 
-8.3499999999999996

>  <m_primary>  (35) 
energy

$$$$
35:0
     RDKit          3D

 45 48  0  0  0  0  0  0  0  0999 V2000
   -0.9830   25.4750  -25.5770 C   0  0  0  0  0  0  0  0  0  0  0  0
   -0.3290   24.7990  -26.7770 C   0  0  0  0  0  0  0  0  0  0  0  0
   -1.3460   24.1180  -27.6020 N   0  0  0  0  0  0  0  0  0  0  0  0
   -1.9260   24.7810  -28.6590 C   0  0  0  0  0  0  0  0  0  0  0  0
   -1.6000   25.9640  -28.9540 O   0  0  0  0  0  0  0  0  0  0  0  0
   -2.8880   24.1230  -29.4010 C   0  0  0  0  0  0  0  0  0  0  0  0
   -3.5780   24.5720  -30.4650 N   0  0  0  0  0  0  0  0  0  0  0  0
   -4.3750   23.5130  -30.7610 C   0  0  0  0  0  0  0  0  0  0  0  0
   -5.5540   23.5320  -32.1070 S   0  0  0  0  0  0  0  0  0  0  0  0
   -5.7610   21.7410  -32.0700 C   0  0  0  0  0  0  0  0  0  0  0  0
   -4.7140   20.8950  -32.4890 C   0  0  0  0  0  0  0  0  0  0  0  0
   -3.1890   21.5400  -33.0860 Cl  0  0  0  0  0  0  0  0  0  0  0  0
   -4.8790   19.5070  -32.4470 C   0  0  0  0  0  0  0  0  0  0  0  0
   -6.0780   18.9520  -31.9970 C   0  0  0  0  0  0  0  0  0  0  0  0
   -7.1230   19.7840  -31.5900 C   0  0  0  0  0  0  0  0  0  0  0  0
   -6.9740   21.1750  -31.6280 C   0  0  0  0  0  0  0  0  0  0  0  0
   -8.3270   22.1770  -31.1140 Cl  0  0  0  0  0  0  0  0  0  0  0  0
   -4.2070   22.4500  -29.9380 N   0  0  0  0  0  0  0  0  0  0  0  0
   -3.2570   22.8620  -29.0820 C   0  0  0  0  0  0  0  0  0  0  0  0
   -2.7190   22.1850  -28.0270 N   0  0  0  0  0  0  0  0  0  0  0  0
   -3.1170   20.8000  -27.7120 C   0  0  0  0  0  0  0  0  0  0  0  0
   -1.9510   19.8630  -27.8990 C   0  0  0  0  0  0  0  0  0  0  0  0
   -1.6690   18.8780  -26.9360 C   0  0  0  0  0  0  0  0  0  0  0  0
   -0.5690   18.0290  -27.0970 C   0  0  0  0  0  0  0  0  0  0  0  0
    0.2580   18.1590  -28.2150 C   0  0  0  0  0  0  0  0  0  0  0  0
   -0.0110   19.1390  -29.1740 C   0  0  0  0  0  0  0  0  0  0  0  0
   -1.1100   19.9900  -29.0180 C   0  0  0  0  0  0  0  0  0  0  0  0
   -1.7520   22.8300  -27.2810 C   0  0  0  0  0  0  0  0  0  0  0  0
   -1.2340   22.2410  -26.2900 O   0  0  0  0  0  0  0  0  0  0  0  0
   -0.5727   25.0509  -24.6486 H   0  0  0  0  0  0  0  0  0  0  0  0
   -0.7785   26.5554  -25.6083 H   0  0  0  0  0  0  0  0  0  0  0  0
   -2.0696   25.3064  -25.6083 H   0  0  0  0  0  0  0  0  0  0  0  0
    0.1827   25.5585  -27.3864 H   0  0  0  0  0  0  0  0  0  0  0  0
    0.3947   24.0535  -26.4157 H   0  0  0  0  0  0  0  0  0  0  0  0
   -4.0592   18.8488  -32.7705 H   0  0  0  0  0  0  0  0  0  0  0  0
   -6.1997   17.8593  -31.9630 H   0  0  0  0  0  0  0  0  0  0  0  0
   -8.0677   19.3440  -31.2379 H   0  0  0  0  0  0  0  0  0  0  0  0
   -4.7140   21.5410  -29.9800 H   0  0  0  0  0  0  0  0  0  0  0  0
   -3.4586   20.7496  -26.6676 H   0  0  0  0  0  0  0  0  0  0  0  0
   -3.9291   20.4990  -28.3901 H   0  0  0  0  0  0  0  0  0  0  0  0
   -2.3160   18.7746  -26.0524 H   0  0  0  0  0  0  0  0  0  0  0  0
   -0.3550   17.2580  -26.3421 H   0  0  0  0  0  0  0  0  0  0  0  0
    1.1217   17.4895  -28.3406 H   0  0  0  0  0  0  0  0  0  0  0  0
    0.6425   19.2414  -30.0529 H   0  0  0  0  0  0  0  0  0  0  0  0
   -1.3170   20.7617  -29.7741 H   0  0  0  0  0  0  0  0  0  0  0  0
  1  2  1  0
  2  3  1  0
  3  4  1  0
  4  5  2  0
  4  6  1  0
  6  7  1  0
  7  8  2  0
  8  9  1  0
  9 10  1  0
 10 11  2  0
 11 12  1  0
 11 13  1  0
 13 14  2  0
 14 15  1  0
 15 16  2  0
 16 17  1  0
  8 18  1  0
 18 19  1  0
 19 20  1  0
 20 21  1  0
 21 22  1  0
 22 23  2  0
 23 24  1  0
 24 25  2  0
 25 26  1  0
 26 27  2  0
 20 28  1  0
 28 29  2  0
 28  3  1  0
 19  6  2  0
 27 22  1  0
 16 10  1  0
  1 30  1  0
  1 31  1  0
  1 32  1  0
  2 33  1  0
  2 34  1  0
 13 35  1  0
 14 36  1  0
 15 37  1  0
 18 38  1  0
 21 39  1  0
 21 40  1  0
 23 41  1  0
 24 42  1  0
 25 43  1  0
 26 44  1  0
 27 45  1  0
M  END
>  <UniqueID>  (36) 
33

>  <SMILES>  (36) 
CCn1c(=O)c2nc(Sc3c(Cl)cccc3Cl)[nH]c2n(Cc2ccccc2)c1=O

>  <Energy>  (36) 
88.16322370302575

>  <Genealogy>  (36) 
CCn1c(=O)c2nc(Sc3c(Cl)cccc3Cl)[nH]c2n(Cc2ccccc2)c1=O (3D coordinates assigned)
CCn1c(=O)c2nc(Sc3c(Cl)cccc3Cl)[nH]c2n(Cc2ccccc2)c1=O (optimized conformer: 88.16322370302575 kcal/mol)

>  <smiles>  (36) 
CCn1c(=O)c2nc(Sc3c(Cl)cccc3Cl)[nH]c2n(Cc2ccccc2)c1=O

>  <score_type>  (36) 
oracle

>  <origin>  (36) 
adg

>  <m_score__min__energy>  (36) 
-8.8399999999999999

>  <m_primary>  (36) 
energy

$$$$
36:0
     RDKit          3D

 39 41  0  0  0  0  0  0  0  0999 V2000
   -9.1050   21.1390  -31.9070 C   0  0  0  0  0  0  0  0  0  0  0  0
   -8.3840   22.0430  -31.2400 C   0  0  0  0  0  0  0  0  0  0  0  0
   -7.9720   23.3410  -31.8730 C   0  0  0  0  0  0  0  0  0  0  0  0
   -6.8870   23.9540  -31.1150 N   0  0  0  0  0  0  0  0  0  0  0  0
   -5.5860   23.9680  -31.4690 C   0  0  0  0  0  0  0  0  0  0  0  0
   -4.9110   24.6950  -30.5190 C   0  0  0  0  0  0  0  0  0  0  0  0
   -3.4950   24.9010  -30.4750 N   0  0  0  0  0  0  0  0  0  0  0  0
   -2.6400   24.5490  -29.3820 C   0  0  0  0  0  0  0  0  0  0  0  0
   -1.8370   25.4110  -28.9380 O   0  0  0  0  0  0  0  0  0  0  0  0
   -2.7430   23.2380  -28.7100 C   0  0  0  0  0  0  0  0  0  0  0  0
   -2.5930   23.0640  -27.3840 N   0  0  0  0  0  0  0  0  0  0  0  0
   -2.6040   21.7300  -27.2020 C   0  0  0  0  0  0  0  0  0  0  0  0
   -2.7530   21.0850  -28.3380 O   0  0  0  0  0  0  0  0  0  0  0  0
   -2.8500   21.9820  -29.2940 C   0  0  0  0  0  0  0  0  0  0  0  0
   -3.0510   21.6380  -30.7170 C   0  0  0  0  0  0  0  0  0  0  0  0
   -2.0370   21.8490  -31.6660 C   0  0  0  0  0  0  0  0  0  0  0  0
   -2.2530   21.5330  -33.0090 C   0  0  0  0  0  0  0  0  0  0  0  0
   -3.4860   21.0220  -33.4210 C   0  0  0  0  0  0  0  0  0  0  0  0
   -4.5220   20.8450  -32.4930 C   0  0  0  0  0  0  0  0  0  0  0  0
   -5.8370   20.2710  -32.9290 C   0  0  0  0  0  0  0  0  0  0  0  0
   -4.2960   21.1470  -31.1410 C   0  0  0  0  0  0  0  0  0  0  0  0
   -5.8590   25.0890  -29.5920 C   0  0  0  0  0  0  0  0  0  0  0  0
   -7.0630   24.6310  -29.9880 N   0  0  0  0  0  0  0  0  0  0  0  0
   -9.3930   20.1963  -31.4187 H   0  0  0  0  0  0  0  0  0  0  0  0
   -9.4111   21.3368  -32.9449 H   0  0  0  0  0  0  0  0  0  0  0  0
   -8.0847   21.8323  -30.2027 H   0  0  0  0  0  0  0  0  0  0  0  0
   -7.6331   23.1510  -32.9021 H   0  0  0  0  0  0  0  0  0  0  0  0
   -8.8338   24.0246  -31.8792 H   0  0  0  0  0  0  0  0  0  0  0  0
   -5.1465   23.4863  -32.3548 H   0  0  0  0  0  0  0  0  0  0  0  0
   -2.4460   23.7960  -26.6540 H   0  0  0  0  0  0  0  0  0  0  0  0
   -2.5009   21.2397  -26.2227 H   0  0  0  0  0  0  0  0  0  0  0  0
   -1.0689   22.2648  -31.3500 H   0  0  0  0  0  0  0  0  0  0  0  0
   -1.4498   21.6870  -33.7446 H   0  0  0  0  0  0  0  0  0  0  0  0
   -3.6447   20.7576  -34.4769 H   0  0  0  0  0  0  0  0  0  0  0  0
   -6.4349   20.0100  -32.0433 H   0  0  0  0  0  0  0  0  0  0  0  0
   -6.3797   21.0141  -33.5318 H   0  0  0  0  0  0  0  0  0  0  0  0
   -5.6611   19.3678  -33.5318 H   0  0  0  0  0  0  0  0  0  0  0  0
   -5.1016   20.9976  -30.4071 H   0  0  0  0  0  0  0  0  0  0  0  0
   -5.6630   25.6776  -28.6836 H   0  0  0  0  0  0  0  0  0  0  0  0
  1  2  2  0
  2  3  1  0
  3  4  1  0
  4  5  1  0
  5  6  2  0
  6  7  1  0
  7  8  1  0
  8  9  2  0
  8 10  1  0
 10 11  1  0
 11 12  2  0
 12 13  1  0
 13 14  1  0
 14 15  1  0
 15 16  2  0
 16 17  1  0
 17 18  2  0
 18 19  1  0
 19 20  1  0
 19 21  2  0
  6 22  1  0
 22 23  2  0
 23  4  1  0
 14 10  2  0
 21 15  1  0
  1 24  1  0
  1 25  1  0
  2 26  1  0
  3 27  1  0
  3 28  1  0
  5 29  1  0
 11 30  1  0
 12 31  1  0
 16 32  1  0
 17 33  1  0
 18 34  1  0
 20 35  1  0
 20 36  1  0
 20 37  1  0
 21 38  1  0
 22 39  1  0
M  CHG  2   7  -1  11   1
M  END
>  <UniqueID>  (37) 
34

>  <SMILES>  (37) 
C=CCn1cc([N-]C(=O)c2[nH+]coc2-c2cccc(C)c2)cn1

>  <Energy>  (37) 
107.27504561006378

>  <Genealogy>  (37) 
C=CCn1cc([N-]C(=O)c2[nH+]coc2-c2cccc(C)c2)cn1 (protonated)
C=CCn1cc([N-]C(=O)c2[nH+]coc2-c2cccc(C)c2)cn1 (3D coordinates assigned)
C=CCn1cc([N-]C(=O)c2[nH+]coc2-c2cccc(C)c2)cn1 (optimized conformer: 107.27504561006378 kcal/mol)

>  <smiles>  (37) 
C=CCn1cc(NC(=O)c2ncoc2-c2cccc(C)c2)cn1

>  <score_type>  (37) 
oracle

>  <origin>  (37) 
adg

>  <m_score__min__energy>  (37) 
-8.3399999999999999

>  <m_primary>  (37) 
energy

$$$$
37:0
     RDKit          3D

 29 30  0  0  0  0  0  0  0  0999 V2000
   -5.7540   25.0040  -30.5230 C   0  0  0  0  0  0  0  0  0  0  0  0
   -6.8920   23.9870  -30.4620 C   0  0  0  0  0  0  0  0  0  0  0  0
   -7.4400   23.6500  -31.8560 C   0  0  0  0  0  0  0  0  0  0  0  0
   -6.5250   22.7860  -32.6030 N   0  0  0  0  0  0  0  0  0  0  0  0
   -6.7450   21.3730  -32.7280 C   0  0  0  0  0  0  0  0  0  0  0  0
   -7.7860   20.8400  -32.1580 N   0  0  0  0  0  0  0  0  0  0  0  0
   -8.1590   19.1590  -32.2350 S   0  0  0  0  0  0  0  0  0  0  0  0
   -8.1770   18.5840  -30.8480 O   0  0  0  0  0  0  0  0  0  0  0  0
   -9.4950   18.9700  -32.8970 O   0  0  0  0  0  0  0  0  0  0  0  0
   -6.9160   18.3890  -33.1790 C   0  0  0  0  0  0  0  0  0  0  0  0
   -6.9610   17.0080  -33.4100 C   0  0  0  0  0  0  0  0  0  0  0  0
   -5.9620   16.3930  -34.1680 C   0  0  0  0  0  0  0  0  0  0  0  0
   -4.9180   17.1560  -34.6960 C   0  0  0  0  0  0  0  0  0  0  0  0
   -4.8720   18.5340  -34.4650 C   0  0  0  0  0  0  0  0  0  0  0  0
   -5.8720   19.1640  -33.7040 C   0  0  0  0  0  0  0  0  0  0  0  0
   -5.8010   20.5850  -33.4820 N   0  0  0  0  0  0  0  0  0  0  0  0
   -5.4499   25.2757  -29.5014 H   0  0  0  0  0  0  0  0  0  0  0  0
   -4.8978   24.5646  -31.0558 H   0  0  0  0  0  0  0  0  0  0  0  0
   -6.0947   25.9040  -31.0558 H   0  0  0  0  0  0  0  0  0  0  0  0
   -6.5182   23.0639  -29.9950 H   0  0  0  0  0  0  0  0  0  0  0  0
   -7.7100   24.4285  -29.8738 H   0  0  0  0  0  0  0  0  0  0  0  0
   -8.4055   23.1349  -31.7445 H   0  0  0  0  0  0  0  0  0  0  0  0
   -7.5570   24.5902  -32.4149 H   0  0  0  0  0  0  0  0  0  0  0  0
   -5.6910   23.2000  -33.0790 H   0  0  0  0  0  0  0  0  0  0  0  0
   -7.7836   16.4076  -32.9942 H   0  0  0  0  0  0  0  0  0  0  0  0
   -5.9974   15.3086  -34.3490 H   0  0  0  0  0  0  0  0  0  0  0  0
   -4.1315   16.6723  -35.2939 H   0  0  0  0  0  0  0  0  0  0  0  0
   -4.0468   19.1300  -34.8820 H   0  0  0  0  0  0  0  0  0  0  0  0
   -4.9940   21.0980  -33.9040 H   0  0  0  0  0  0  0  0  0  0  0  0
  1  2  1  0
  2  3  1  0
  3  4  1  0
  4  5  1  0
  5  6  2  0
  6  7  1  0
  7  8  2  0
  7  9  2  0
  7 10  1  0
 10 11  2  0
 11 12  1  0
 12 13  2  0
 13 14  1  0
 14 15  2  0
 15 16  1  0
 16  5  1  0
 15 10  1  0
  1 17  1  0
  1 18  1  0
  1 19  1  0
  2 20  1  0
  2 21  1  0
  3 22  1  0
  3 23  1  0
  4 24  1  0
 11 25  1  0
 12 26  1  0
 13 27  1  0
 14 28  1  0
 16 29  1  0
M  END
>  <UniqueID>  (38) 
35

>  <SMILES>  (38) 
CCCNC1=NS(=O)(=O)c2ccccc2N1

>  <Energy>  (38) 
27.693425116065164

>  <Genealogy>  (38) 
CCCNC1=NS(=O)(=O)c2ccccc2N1 (3D coordinates assigned)
CCCNC1=NS(=O)(=O)c2ccccc2N1 (nonaromatic ring conformer: 27.693425116065164 kcal/mol)

>  <smiles>  (38) 
CCCNC1=NS(=O)(=O)c2ccccc2N1

>  <score_type>  (38) 
oracle

>  <origin>  (38) 
adg

>  <m_score__min__energy>  (38) 
-6.75

>  <m_primary>  (38) 
energy

$$$$
38:0
     RDKit          3D

 38 41  0  0  0  0  0  0  0  0999 V2000
   -3.5670   24.1570  -27.2230 O   0  0  0  0  0  0  0  0  0  0  0  0
   -2.7110   24.8670  -27.8190 C   0  0  0  0  0  0  0  0  0  0  0  0
   -2.7400   24.9720  -29.2550 N   0  0  0  0  0  0  0  0  0  0  0  0
   -3.6330   24.2210  -30.0950 C   0  0  0  0  0  0  0  0  0  0  0  0
   -4.8240   24.8030  -30.6170 C   0  0  0  0  0  0  0  0  0  0  0  0
   -5.7010   24.0460  -31.4170 C   0  0  0  0  0  0  0  0  0  0  0  0
   -5.3680   22.7180  -31.6560 C   0  0  0  0  0  0  0  0  0  0  0  0
   -6.0130   21.8240  -32.3530 O   0  0  0  0  0  0  0  0  0  0  0  0
   -5.2970   20.7120  -32.2770 C   0  0  0  0  0  0  0  0  0  0  0  0
   -5.6700   19.4310  -32.9330 C   0  0  0  0  0  0  0  0  0  0  0  0
   -4.7590   18.8380  -33.8310 C   0  0  0  0  0  0  0  0  0  0  0  0
   -5.0650   17.6360  -34.4710 C   0  0  0  0  0  0  0  0  0  0  0  0
   -6.2830   17.0040  -34.2280 C   0  0  0  0  0  0  0  0  0  0  0  0
   -7.1990   17.5730  -33.3430 C   0  0  0  0  0  0  0  0  0  0  0  0
   -6.9070   18.7790  -32.6930 C   0  0  0  0  0  0  0  0  0  0  0  0
   -8.1320   19.4140  -31.5960 Cl  0  0  0  0  0  0  0  0  0  0  0  0
   -4.1700   20.8610  -31.5260 N   0  0  0  0  0  0  0  0  0  0  0  0
   -4.2460   22.1480  -31.1480 C   0  0  0  0  0  0  0  0  0  0  0  0
   -3.3520   22.8610  -30.3530 C   0  0  0  0  0  0  0  0  0  0  0  0
   -1.6940   25.5860  -27.0150 C   0  0  0  0  0  0  0  0  0  0  0  0
   -1.9160   25.8040  -25.6430 C   0  0  0  0  0  0  0  0  0  0  0  0
   -0.9710   26.4840  -24.8700 C   0  0  0  0  0  0  0  0  0  0  0  0
    0.2020   26.9620  -25.4570 C   0  0  0  0  0  0  0  0  0  0  0  0
    0.4280   26.7660  -26.8220 C   0  0  0  0  0  0  0  0  0  0  0  0
   -0.5130   26.0860  -27.6000 C   0  0  0  0  0  0  0  0  0  0  0  0
   -2.1220   25.6650  -29.7300 H   0  0  0  0  0  0  0  0  0  0  0  0
   -5.0606   25.8536  -30.3929 H   0  0  0  0  0  0  0  0  0  0  0  0
   -6.6158   24.4892  -31.8373 H   0  0  0  0  0  0  0  0  0  0  0  0
   -3.7949   19.3289  -34.0297 H   0  0  0  0  0  0  0  0  0  0  0  0
   -4.3431   17.1865  -35.1688 H   0  0  0  0  0  0  0  0  0  0  0  0
   -6.5220   16.0569  -34.7338 H   0  0  0  0  0  0  0  0  0  0  0  0
   -8.1589   17.0703  -33.1539 H   0  0  0  0  0  0  0  0  0  0  0  0
   -2.4540   22.3795  -29.9385 H   0  0  0  0  0  0  0  0  0  0  0  0
   -2.8410   25.4362  -25.1749 H   0  0  0  0  0  0  0  0  0  0  0  0
   -1.1518   26.6430  -23.7967 H   0  0  0  0  0  0  0  0  0  0  0  0
    0.9473   27.4922  -24.8459 H   0  0  0  0  0  0  0  0  0  0  0  0
    1.3494   27.1481  -27.2856 H   0  0  0  0  0  0  0  0  0  0  0  0
   -0.3310   25.9401  -28.6750 H   0  0  0  0  0  0  0  0  0  0  0  0
  1  2  2  0
  2  3  1  0
  3  4  1  0
  4  5  2  0
  5  6  1  0
  6  7  2  0
  7  8  1  0
  8  9  1  0
  9 10  1  0
 10 11  2  0
 11 12  1  0
 12 13  2  0
 13 14  1  0
 14 15  2  0
 15 16  1  0
  9 17  2  0
 17 18  1  0
 18 19  2  0
  2 20  1  0
 20 21  2  0
 21 22  1  0
 22 23  2  0
 23 24  1  0
 24 25  2  0
 19  4  1  0
 25 20  1  0
 18  7  1  0
 15 10  1  0
  3 26  1  0
  5 27  1  0
  6 28  1  0
 11 29  1  0
 12 30  1  0
 13 31  1  0
 14 32  1  0
 19 33  1  0
 21 34  1  0
 22 35  1  0
 23 36  1  0
 24 37  1  0
 25 38  1  0
M  END
>  <UniqueID>  (39) 
36

>  <SMILES>  (39) 
O=C(Nc1ccc2oc(-c3ccccc3Cl)nc2c1)c1ccccc1

>  <Energy>  (39) 
90.66134106970715

>  <Genealogy>  (39) 
O=C(Nc1ccc2oc(-c3ccccc3Cl)nc2c1)c1ccccc1 (3D coordinates assigned)
O=C(Nc1ccc2oc(-c3ccccc3Cl)nc2c1)c1ccccc1 (optimized conformer: 90.66134106970715 kcal/mol)

>  <smiles>  (39) 
O=C(Nc1ccc2oc(-c3ccccc3Cl)nc2c1)c1ccccc1

>  <score_type>  (39) 
oracle

>  <origin>  (39) 
adg

>  <m_score__min__energy>  (39) 
-8.7799999999999994

>  <m_primary>  (39) 
energy

$$$$
39:0
     RDKit          3D

 31 34  0  0  0  0  0  0  0  0999 V2000
   -6.8710   15.1130  -34.2110 C   0  0  0  0  0  0  0  0  0  0  0  0
   -6.0870   16.3420  -34.2240 N   0  0  0  0  0  0  0  0  0  0  0  0
   -6.2990   17.4240  -33.4520 C   0  0  0  0  0  0  0  0  0  0  0  0
   -5.2860   18.3410  -33.6990 C   0  0  0  0  0  0  0  0  0  0  0  0
   -5.1050   19.6780  -33.0770 C   0  0  0  0  0  0  0  0  0  0  0  0
   -3.8130   20.1700  -32.8060 C   0  0  0  0  0  0  0  0  0  0  0  0
   -3.6320   21.4250  -32.2190 C   0  0  0  0  0  0  0  0  0  0  0  0
   -4.7420   22.2120  -31.8940 C   0  0  0  0  0  0  0  0  0  0  0  0
   -6.0550   21.7340  -32.1600 C   0  0  0  0  0  0  0  0  0  0  0  0
   -7.1800   22.5340  -31.8330 C   0  0  0  0  0  0  0  0  0  0  0  0
   -7.0110   23.8000  -31.2420 C   0  0  0  0  0  0  0  0  0  0  0  0
   -5.7100   24.2300  -30.9980 C   0  0  0  0  0  0  0  0  0  0  0  0
   -5.2120   25.3850  -30.4490 C   0  0  0  0  0  0  0  0  0  0  0  0
   -3.8610   25.2970  -30.4420 N   0  0  0  0  0  0  0  0  0  0  0  0
   -3.4940   24.1310  -30.9670 N   0  0  0  0  0  0  0  0  0  0  0  0
   -4.6180   23.4750  -31.3080 C   0  0  0  0  0  0  0  0  0  0  0  0
   -6.2220   20.4720  -32.7490 C   0  0  0  0  0  0  0  0  0  0  0  0
   -4.4720   17.7270  -34.6430 C   0  0  0  0  0  0  0  0  0  0  0  0
   -4.9830   16.5160  -34.9310 N   0  0  0  0  0  0  0  0  0  0  0  0
   -7.0632   14.8117  -33.1707 H   0  0  0  0  0  0  0  0  0  0  0  0
   -7.8279   15.2830  -34.7263 H   0  0  0  0  0  0  0  0  0  0  0  0
   -6.3135   14.3170  -34.7263 H   0  0  0  0  0  0  0  0  0  0  0  0
   -7.1320   17.5587  -32.7463 H   0  0  0  0  0  0  0  0  0  0  0  0
   -2.9350   19.5580  -33.0599 H   0  0  0  0  0  0  0  0  0  0  0  0
   -2.6166   21.7942  -32.0124 H   0  0  0  0  0  0  0  0  0  0  0  0
   -8.1934   22.1615  -32.0433 H   0  0  0  0  0  0  0  0  0  0  0  0
   -7.8764   24.4274  -30.9822 H   0  0  0  0  0  0  0  0  0  0  0  0
   -5.8064   26.2336  -30.0794 H   0  0  0  0  0  0  0  0  0  0  0  0
   -7.2354   20.0982  -32.9570 H   0  0  0  0  0  0  0  0  0  0  0  0
   -3.5608   18.1593  -35.0821 H   0  0  0  0  0  0  0  0  0  0  0  0
   -4.5790   15.8180  -35.5950 H   0  0  0  0  0  0  0  0  0  0  0  0
  1  2  1  0
  2  3  1  0
  3  4  2  0
  4  5  1  0
  5  6  2  0
  6  7  1  0
  7  8  2  0
  8  9  1  0
  9 10  1  0
 10 11  2  0
 11 12  1  0
 12 13  2  0
 13 14  1  0
 14 15  1  0
 15 16  2  0
  9 17  2  0
  4 18  1  0
 18 19  2  0
 19  2  1  0
 17  5  1  0
 16  8  1  0
 16 12  1  0
  1 20  1  0
  1 21  1  0
  1 22  1  0
  3 23  1  0
  6 24  1  0
  7 25  1  0
 10 26  1  0
 11 27  1  0
 13 28  1  0
 17 29  1  0
 18 30  1  0
 19 31  1  0
M  CHG  2  14  -1  19   1
M  END
>  <UniqueID>  (40) 
37

>  <SMILES>  (40) 
Cn1cc(-c2ccc3c(ccc4c[n-]nc43)c2)c[nH+]1

>  <Energy>  (40) 
108.06532805394717

>  <Genealogy>  (40) 
Cn1cc(-c2ccc3c(ccc4c[n-]nc43)c2)c[nH+]1 (protonated)
Cn1cc(-c2ccc3c(ccc4c[n-]nc43)c2)c[nH+]1 (3D coordinates assigned)
Cn1cc(-c2ccc3c(ccc4c[n-]nc43)c2)c[nH+]1 (optimized conformer: 108.06532805394717 kcal/mol)

>  <smiles>  (40) 
Cn1cc(-c2ccc3c(ccc4c[nH]nc43)c2)cn1

>  <score_type>  (40) 
oracle

>  <origin>  (40) 
adg

>  <m_score__min__energy>  (40) 
-9.5500000000000007

>  <m_primary>  (40) 
energy

$$$$
40:0
     RDKit          3D

 35 37  0  0  0  0  0  0  0  0999 V2000
   -1.8010   25.1620  -27.9030 C   0  0  0  0  0  0  0  0  0  0  0  0
   -2.3290   25.3060  -29.2170 O   0  0  0  0  0  0  0  0  0  0  0  0
   -3.3420   24.4990  -29.7560 C   0  0  0  0  0  0  0  0  0  0  0  0
   -4.6300   24.9920  -30.0350 C   0  0  0  0  0  0  0  0  0  0  0  0
   -5.6060   24.1470  -30.5730 C   0  0  0  0  0  0  0  0  0  0  0  0
   -5.3140   22.8010  -30.8520 C   0  0  0  0  0  0  0  0  0  0  0  0
   -6.3630   21.9160  -31.4170 C   0  0  0  0  0  0  0  0  0  0  0  0
   -7.6710   22.2760  -31.3030 N   0  0  0  0  0  0  0  0  0  0  0  0
   -8.6630   21.5000  -31.8030 C   0  0  0  0  0  0  0  0  0  0  0  0
   -8.3540   20.3090  -32.4520 C   0  0  0  0  0  0  0  0  0  0  0  0
   -7.0080   19.9400  -32.5800 C   0  0  0  0  0  0  0  0  0  0  0  0
   -6.6350   18.6770  -33.2670 C   0  0  0  0  0  0  0  0  0  0  0  0
   -7.1880   17.4520  -32.8500 C   0  0  0  0  0  0  0  0  0  0  0  0
   -6.8370   16.2620  -33.4940 C   0  0  0  0  0  0  0  0  0  0  0  0
   -5.9330   16.2800  -34.5590 C   0  0  0  0  0  0  0  0  0  0  0  0
   -5.3780   17.4900  -34.9810 C   0  0  0  0  0  0  0  0  0  0  0  0
   -5.7250   18.6840  -34.3410 C   0  0  0  0  0  0  0  0  0  0  0  0
   -6.0410   20.7550  -32.0630 N   0  0  0  0  0  0  0  0  0  0  0  0
   -4.0290   22.3120  -30.5600 C   0  0  0  0  0  0  0  0  0  0  0  0
   -3.0540   23.1560  -30.0210 C   0  0  0  0  0  0  0  0  0  0  0  0
   -2.5886   25.3768  -27.1658 H   0  0  0  0  0  0  0  0  0  0  0  0
   -1.4395   24.1325  -27.7639 H   0  0  0  0  0  0  0  0  0  0  0  0
   -0.9669   25.8655  -27.7639 H   0  0  0  0  0  0  0  0  0  0  0  0
   -4.8701   26.0456  -29.8293 H   0  0  0  0  0  0  0  0  0  0  0  0
   -6.6124   24.5400  -30.7798 H   0  0  0  0  0  0  0  0  0  0  0  0
   -9.7124   21.8118  -31.6957 H   0  0  0  0  0  0  0  0  0  0  0  0
   -9.1513   19.6687  -32.8572 H   0  0  0  0  0  0  0  0  0  0  0  0
   -7.9007   17.4308  -32.0123 H   0  0  0  0  0  0  0  0  0  0  0  0
   -7.2738   15.3088  -33.1613 H   0  0  0  0  0  0  0  0  0  0  0  0
   -5.6587   15.3423  -35.0645 H   0  0  0  0  0  0  0  0  0  0  0  0
   -4.6658   17.5040  -35.8192 H   0  0  0  0  0  0  0  0  0  0  0  0
   -5.2845   19.6337  -34.6786 H   0  0  0  0  0  0  0  0  0  0  0  0
   -5.0360   20.5080  -32.2090 H   0  0  0  0  0  0  0  0  0  0  0  0
   -3.7888   21.2568  -30.7572 H   0  0  0  0  0  0  0  0  0  0  0  0
   -2.0509   22.7605  -29.8032 H   0  0  0  0  0  0  0  0  0  0  0  0
  1  2  1  0
  2  3  1  0
  3  4  2  0
  4  5  1  0
  5  6  2  0
  6  7  1  0
  7  8  2  0
  8  9  1  0
  9 10  2  0
 10 11  1  0
 11 12  1  0
 12 13  2  0
 13 14  1  0
 14 15  2  0
 15 16  1  0
 16 17  2  0
 11 18  2  0
  6 19  1  0
 19 20  2  0
 20  3  1  0
 18  7  1  0
 17 12  1  0
  1 21  1  0
  1 22  1  0
  1 23  1  0
  4 24  1  0
  5 25  1  0
  9 26  1  0
 10 27  1  0
 13 28  1  0
 14 29  1  0
 15 30  1  0
 16 31  1  0
 17 32  1  0
 18 33  1  0
 19 34  1  0
 20 35  1  0
M  CHG  1  18   1
M  END
>  <UniqueID>  (41) 
38

>  <SMILES>  (41) 
COc1ccc(-c2nccc(-c3ccccc3)[nH+]2)cc1

>  <Energy>  (41) 
46.24041502117402

>  <Genealogy>  (41) 
COc1ccc(-c2nccc(-c3ccccc3)[nH+]2)cc1 (protonated)
COc1ccc(-c2nccc(-c3ccccc3)[nH+]2)cc1 (3D coordinates assigned)
COc1ccc(-c2nccc(-c3ccccc3)[nH+]2)cc1 (optimized conformer: 46.24041502117402 kcal/mol)

>  <smiles>  (41) 
COc1ccc(-c2nccc(-c3ccccc3)n2)cc1

>  <score_type>  (41) 
oracle

>  <origin>  (41) 
adg

>  <m_score__min__energy>  (41) 
-7.5700000000000003

>  <m_primary>  (41) 
energy

$$$$
41:0
     RDKit          3D

 32 34  0  0  0  0  0  0  0  0999 V2000
   -0.5040   25.4920  -27.8690 C   0  0  0  0  0  0  0  0  0  0  0  0
   -1.9860   25.1450  -27.6830 C   0  0  0  0  0  0  0  0  0  0  0  0
   -2.4190   25.3810  -26.2330 C   0  0  0  0  0  0  0  0  0  0  0  0
   -2.2660   23.7180  -28.0800 C   0  0  0  0  0  0  0  0  0  0  0  0
   -1.9680   22.6380  -27.3150 N   0  0  0  0  0  0  0  0  0  0  0  0
   -2.4160   21.5780  -27.9340 O   0  0  0  0  0  0  0  0  0  0  0  0
   -3.0020   21.9200  -29.0540 C   0  0  0  0  0  0  0  0  0  0  0  0
   -3.6150   21.0960  -29.9910 C   0  0  0  0  0  0  0  0  0  0  0  0
   -4.2020   21.7000  -31.1280 C   0  0  0  0  0  0  0  0  0  0  0  0
   -4.8690   20.8660  -32.1600 C   0  0  0  0  0  0  0  0  0  0  0  0
   -6.2710   20.8070  -32.2450 C   0  0  0  0  0  0  0  0  0  0  0  0
   -6.8840   20.0190  -33.2200 C   0  0  0  0  0  0  0  0  0  0  0  0
   -6.0920   19.2900  -34.1070 C   0  0  0  0  0  0  0  0  0  0  0  0
   -4.7380   19.3510  -34.0170 N   0  0  0  0  0  0  0  0  0  0  0  0
   -4.1150   20.1130  -33.0780 C   0  0  0  0  0  0  0  0  0  0  0  0
   -4.1510   23.1150  -31.2710 C   0  0  0  0  0  0  0  0  0  0  0  0
   -3.5220   23.9170  -30.2990 C   0  0  0  0  0  0  0  0  0  0  0  0
   -3.4880   25.2980  -30.4400 O   0  0  0  0  0  0  0  0  0  0  0  0
   -2.9470   23.2750  -29.2010 C   0  0  0  0  0  0  0  0  0  0  0  0
   -0.0271   25.6037  -26.8840 H   0  0  0  0  0  0  0  0  0  0  0  0
   -0.0061   24.6861  -28.4282 H   0  0  0  0  0  0  0  0  0  0  0  0
   -0.4156   26.4351  -28.4282 H   0  0  0  0  0  0  0  0  0  0  0  0
   -2.5684   25.8073  -28.3404 H   0  0  0  0  0  0  0  0  0  0  0  0
   -1.6605   24.9676  -25.5519 H   0  0  0  0  0  0  0  0  0  0  0  0
   -2.5239   26.4611  -26.0528 H   0  0  0  0  0  0  0  0  0  0  0  0
   -3.3835   24.8838  -26.0528 H   0  0  0  0  0  0  0  0  0  0  0  0
   -3.6429   20.0051  -29.8524 H   0  0  0  0  0  0  0  0  0  0  0  0
   -6.8873   21.3843  -31.5401 H   0  0  0  0  0  0  0  0  0  0  0  0
   -7.9809   19.9732  -33.2884 H   0  0  0  0  0  0  0  0  0  0  0  0
   -6.5641   18.6654  -34.8797 H   0  0  0  0  0  0  0  0  0  0  0  0
   -3.0161   20.1404  -33.0364 H   0  0  0  0  0  0  0  0  0  0  0  0
   -4.6088   23.5885  -32.1521 H   0  0  0  0  0  0  0  0  0  0  0  0
  1  2  1  0
  2  3  1  0
  2  4  1  0
  4  5  2  0
  5  6  1  0
  6  7  1  0
  7  8  2  0
  8  9  1  0
  9 10  1  0
 10 11  2  0
 11 12  1  0
 12 13  2  0
 13 14  1  0
 14 15  2  0
  9 16  2  0
 16 17  1  0
 17 18  1  0
 17 19  2  0
 19  4  1  0
 19  7  1  0
 15 10  1  0
  1 20  1  0
  1 21  1  0
  1 22  1  0
  2 23  1  0
  3 24  1  0
  3 25  1  0
  3 26  1  0
  8 27  1  0
 11 28  1  0
 12 29  1  0
 13 30  1  0
 15 31  1  0
 16 32  1  0
M  CHG  1  18  -1
M  END
>  <UniqueID>  (42) 
39

>  <SMILES>  (42) 
CC(C)c1noc2cc(-c3cccnc3)cc([O-])c12

>  <Energy>  (42) 
75.82697793356735

>  <Genealogy>  (42) 
CC(C)c1noc2cc(-c3cccnc3)cc([O-])c12 (protonated)
CC(C)c1noc2cc(-c3cccnc3)cc([O-])c12 (3D coordinates assigned)
CC(C)c1noc2cc(-c3cccnc3)cc([O-])c12 (optimized conformer: 75.82697793356735 kcal/mol)

>  <smiles>  (42) 
CC(C)c1noc2cc(-c3cccnc3)cc(O)c12

>  <score_type>  (42) 
oracle

>  <origin>  (42) 
adg

>  <m_score__min__energy>  (42) 
-9.3499999999999996

>  <m_primary>  (42) 
energy

$$$$
42:0
     RDKit          3D

 44 47  0  0  0  0  0  0  0  0999 V2000
   -1.4030   25.2970  -29.3100 O   0  0  0  0  0  0  0  0  0  0  0  0
   -2.3840   24.5080  -29.3560 C   0  0  0  0  0  0  0  0  0  0  0  0
   -3.6570   25.0130  -29.7740 N   0  0  0  0  0  0  0  0  0  0  0  0
   -4.7590   24.2270  -30.2510 C   0  0  0  0  0  0  0  0  0  0  0  0
   -6.0370   24.5050  -29.7680 C   0  0  0  0  0  0  0  0  0  0  0  0
   -7.1280   23.7680  -30.2160 C   0  0  0  0  0  0  0  0  0  0  0  0
   -6.9360   22.7610  -31.1610 C   0  0  0  0  0  0  0  0  0  0  0  0
   -5.6880   22.4960  -31.6560 N   0  0  0  0  0  0  0  0  0  0  0  0
   -5.5400   21.4510  -32.6840 C   0  0  0  0  0  0  0  0  0  0  0  0
   -6.4760   20.3050  -32.4040 C   0  0  0  0  0  0  0  0  0  0  0  0
   -6.0110   19.1620  -31.7340 C   0  0  0  0  0  0  0  0  0  0  0  0
   -6.8860   18.1090  -31.4450 C   0  0  0  0  0  0  0  0  0  0  0  0
   -8.2290   18.1930  -31.8190 C   0  0  0  0  0  0  0  0  0  0  0  0
   -8.7020   19.3300  -32.4800 C   0  0  0  0  0  0  0  0  0  0  0  0
   -7.8300   20.3850  -32.7700 C   0  0  0  0  0  0  0  0  0  0  0  0
   -4.6030   23.2270  -31.2360 C   0  0  0  0  0  0  0  0  0  0  0  0
   -3.4650   23.0170  -31.7370 O   0  0  0  0  0  0  0  0  0  0  0  0
   -2.2190   23.1410  -28.9420 N   0  0  0  0  0  0  0  0  0  0  0  0
   -0.9030   22.5170  -28.7750 C   0  0  0  0  0  0  0  0  0  0  0  0
   -1.2230   21.2340  -28.1060 C   0  0  0  0  0  0  0  0  0  0  0  0
   -0.3380   20.2270  -27.7160 C   0  0  0  0  0  0  0  0  0  0  0  0
   -0.8580   19.0850  -27.0850 C   0  0  0  0  0  0  0  0  0  0  0  0
   -2.2420   18.9700  -26.8550 C   0  0  0  0  0  0  0  0  0  0  0  0
   -3.1140   19.9960  -27.2550 C   0  0  0  0  0  0  0  0  0  0  0  0
   -2.5740   21.1230  -27.8790 C   0  0  0  0  0  0  0  0  0  0  0  0
   -3.2950   22.3130  -28.3890 C   0  0  0  0  0  0  0  0  0  0  0  0
   -6.1826   25.3087  -29.0312 H   0  0  0  0  0  0  0  0  0  0  0  0
   -8.1354   23.9781  -29.8275 H   0  0  0  0  0  0  0  0  0  0  0  0
   -7.7969   22.1733  -31.5124 H   0  0  0  0  0  0  0  0  0  0  0  0
   -5.7735   21.8773  -33.6708 H   0  0  0  0  0  0  0  0  0  0  0  0
   -4.5049   21.0790  -32.6691 H   0  0  0  0  0  0  0  0  0  0  0  0
   -4.9546   19.0941  -31.4351 H   0  0  0  0  0  0  0  0  0  0  0  0
   -6.5158   17.2144  -30.9229 H   0  0  0  0  0  0  0  0  0  0  0  0
   -8.9152   17.3635  -31.5931 H   0  0  0  0  0  0  0  0  0  0  0  0
   -9.7604   19.3954  -32.7724 H   0  0  0  0  0  0  0  0  0  0  0  0
   -8.2060   21.2805  -33.2865 H   0  0  0  0  0  0  0  0  0  0  0  0
   -0.4208   22.3453  -29.7486 H   0  0  0  0  0  0  0  0  0  0  0  0
   -0.1984   23.1391  -28.2036 H   0  0  0  0  0  0  0  0  0  0  0  0
    0.7422   20.3258  -27.8988 H   0  0  0  0  0  0  0  0  0  0  0  0
   -0.1812   18.2774  -26.7693 H   0  0  0  0  0  0  0  0  0  0  0  0
   -2.6423   18.0729  -26.3600 H   0  0  0  0  0  0  0  0  0  0  0  0
   -4.1970   19.9139  -27.0809 H   0  0  0  0  0  0  0  0  0  0  0  0
   -4.0182   22.0325  -29.1690 H   0  0  0  0  0  0  0  0  0  0  0  0
   -3.8826   22.8277  -27.6145 H   0  0  0  0  0  0  0  0  0  0  0  0
  1  2  2  0
  2  3  1  0
  3  4  1  0
  4  5  2  0
  5  6  1  0
  6  7  2  0
  7  8  1  0
  8  9  1  0
  9 10  1  0
 10 11  2  0
 11 12  1  0
 12 13  2  0
 13 14  1  0
 14 15  2  0
  8 16  1  0
 16 17  2  0
  2 18  1  0
 18 19  1  0
 19 20  1  0
 20 21  2  0
 21 22  1  0
 22 23  2  0
 23 24  1  0
 24 25  2  0
 25 26  1  0
 16  4  1  0
 26 18  1  0
 15 10  1  0
 25 20  1  0
  5 27  1  0
  6 28  1  0
  7 29  1  0
  9 30  1  0
  9 31  1  0
 11 32  1  0
 12 33  1  0
 13 34  1  0
 14 35  1  0
 15 36  1  0
 19 37  1  0
 19 38  1  0
 21 39  1  0
 22 40  1  0
 23 41  1  0
 24 42  1  0
 26 43  1  0
 26 44  1  0
M  CHG  1   3  -1
M  END
>  <UniqueID>  (43) 
40

>  <SMILES>  (43) 
O=C([N-]c1cccn(Cc2ccccc2)c1=O)N1Cc2ccccc2C1

>  <Energy>  (43) 
66.47981118951732

>  <Genealogy>  (43) 
O=C([N-]c1cccn(Cc2ccccc2)c1=O)N1Cc2ccccc2C1 (protonated)
O=C([N-]c1cccn(Cc2ccccc2)c1=O)N1Cc2ccccc2C1 (3D coordinates assigned)
O=C([N-]c1cccn(Cc2ccccc2)c1=O)N1Cc2ccccc2C1 (nonaromatic ring conformer: 66.47981118951732 kcal/mol)

>  <smiles>  (43) 
O=C(Nc1cccn(Cc2ccccc2)c1=O)N1Cc2ccccc2C1

>  <score_type>  (43) 
oracle

>  <origin>  (43) 
adg

>  <m_score__min__energy>  (43) 
-10.779999999999999

>  <m_primary>  (43) 
energy

$$$$
43:0
     RDKit          3D

 41 43  0  0  0  0  0  0  0  0999 V2000
   -3.8140   21.9910  -28.7310 C   0  0  0  0  0  0  0  0  0  0  0  0
   -4.3910   23.2810  -29.1380 N   0  0  0  0  0  0  0  0  0  0  0  0
   -4.2540   24.2860  -28.0720 C   0  0  0  0  0  0  0  0  0  0  0  0
   -3.7990   23.7450  -30.3810 C   0  0  0  0  0  0  0  0  0  0  0  0
   -3.4790   24.9200  -30.4880 O   0  0  0  0  0  0  0  0  0  0  0  0
   -3.6040   22.8340  -31.5740 C   0  0  0  0  0  0  0  0  0  0  0  0
   -4.8400   22.0970  -31.8640 N   0  0  0  0  0  0  0  0  0  0  0  0
   -4.7280   20.8380  -32.2960 N   0  0  0  0  0  0  0  0  0  0  0  0
   -5.8000   20.0510  -32.5690 C   0  0  0  0  0  0  0  0  0  0  0  0
   -5.5390   18.6890  -33.0820 C   0  0  0  0  0  0  0  0  0  0  0  0
   -5.7100   17.5810  -32.2400 C   0  0  0  0  0  0  0  0  0  0  0  0
   -5.4300   16.2920  -32.7040 C   0  0  0  0  0  0  0  0  0  0  0  0
   -4.9630   16.1030  -34.0100 C   0  0  0  0  0  0  0  0  0  0  0  0
   -4.6110   14.4860  -34.5900 Cl  0  0  0  0  0  0  0  0  0  0  0  0
   -4.7680   17.2060  -34.8470 C   0  0  0  0  0  0  0  0  0  0  0  0
   -5.0470   18.4960  -34.3850 C   0  0  0  0  0  0  0  0  0  0  0  0
   -7.0990   20.5620  -32.3580 C   0  0  0  0  0  0  0  0  0  0  0  0
   -8.2590   19.7810  -32.5420 C   0  0  0  0  0  0  0  0  0  0  0  0
   -9.5250   20.3300  -32.3250 C   0  0  0  0  0  0  0  0  0  0  0  0
   -9.6530   21.6550  -31.9100 C   0  0  0  0  0  0  0  0  0  0  0  0
   -8.5170   22.4360  -31.6970 C   0  0  0  0  0  0  0  0  0  0  0  0
   -7.2310   21.8970  -31.9080 C   0  0  0  0  0  0  0  0  0  0  0  0
   -6.0730   22.6570  -31.6650 C   0  0  0  0  0  0  0  0  0  0  0  0
   -6.1720   23.8490  -31.2600 O   0  0  0  0  0  0  0  0  0  0  0  0
   -3.7873   21.9314  -27.6329 H   0  0  0  0  0  0  0  0  0  0  0  0
   -4.4314   21.1716  -29.1278 H   0  0  0  0  0  0  0  0  0  0  0  0
   -2.7917   21.9051  -29.1278 H   0  0  0  0  0  0  0  0  0  0  0  0
   -5.4170   23.1300  -29.2940 H   0  0  0  0  0  0  0  0  0  0  0  0
   -4.3213   23.7920  -27.0915 H   0  0  0  0  0  0  0  0  0  0  0  0
   -3.2792   24.7873  -28.1638 H   0  0  0  0  0  0  0  0  0  0  0  0
   -5.0590   25.0300  -28.1638 H   0  0  0  0  0  0  0  0  0  0  0  0
   -3.3288   23.4389  -32.4506 H   0  0  0  0  0  0  0  0  0  0  0  0
   -2.8049   22.1135  -31.3453 H   0  0  0  0  0  0  0  0  0  0  0  0
   -6.0661   17.7265  -31.2095 H   0  0  0  0  0  0  0  0  0  0  0  0
   -5.5768   15.4257  -32.0422 H   0  0  0  0  0  0  0  0  0  0  0  0
   -4.3943   17.0586  -35.8710 H   0  0  0  0  0  0  0  0  0  0  0  0
   -4.8811   19.3620  -35.0426 H   0  0  0  0  0  0  0  0  0  0  0  0
   -8.1660   18.7317  -32.8588 H   0  0  0  0  0  0  0  0  0  0  0  0
  -10.4236   19.7153  -32.4820 H   0  0  0  0  0  0  0  0  0  0  0  0
  -10.6525   22.0856  -31.7501 H   0  0  0  0  0  0  0  0  0  0  0  0
   -8.6249   23.4783  -31.3625 H   0  0  0  0  0  0  0  0  0  0  0  0
  1  2  1  0
  2  3  1  0
  2  4  1  0
  4  5  2  0
  4  6  1  0
  6  7  1  0
  7  8  1  0
  8  9  2  0
  9 10  1  0
 10 11  2  0
 11 12  1  0
 12 13  2  0
 13 14  1  0
 13 15  1  0
 15 16  2  0
  9 17  1  0
 17 18  2  0
 18 19  1  0
 19 20  2  0
 20 21  1  0
 21 22  2  0
 22 23  1  0
 23 24  2  0
 23  7  1  0
 16 10  1  0
 22 17  1  0
  1 25  1  0
  1 26  1  0
  1 27  1  0
  2 28  1  0
  3 29  1  0
  3 30  1  0
  3 31  1  0
  6 32  1  0
  6 33  1  0
 11 34  1  0
 12 35  1  0
 15 36  1  0
 16 37  1  0
 18 38  1  0
 19 39  1  0
 20 40  1  0
 21 41  1  0
M  CHG  1   2   1
M  END
>  <UniqueID>  (44) 
41

>  <SMILES>  (44) 
C[NH+](C)C(=O)Cn1nc(-c2ccc(Cl)cc2)c2ccccc2c1=O

>  <Energy>  (44) 
57.51858364335308

>  <Genealogy>  (44) 
C[NH+](C)C(=O)Cn1nc(-c2ccc(Cl)cc2)c2ccccc2c1=O (protonated)
C[NH+](C)C(=O)Cn1nc(-c2ccc(Cl)cc2)c2ccccc2c1=O (3D coordinates assigned)
C[NH+](C)C(=O)Cn1nc(-c2ccc(Cl)cc2)c2ccccc2c1=O (optimized conformer: 57.51858364335308 kcal/mol)

>  <smiles>  (44) 
CN(C)C(=O)Cn1nc(-c2ccc(Cl)cc2)c2ccccc2c1=O

>  <score_type>  (44) 
oracle

>  <origin>  (44) 
adg

>  <m_score__min__energy>  (44) 
-7.75

>  <m_primary>  (44) 
energy

$$$$
44:0
     RDKit          3D

 22 23  0  0  0  0  0  0  0  0999 V2000
   -3.8750   24.1730  -27.4590 Br  0  0  0  0  0  0  0  0  0  0  0  0
   -4.4620   24.0410  -29.2680 C   0  0  0  0  0  0  0  0  0  0  0  0
   -4.9090   25.0630  -30.0800 C   0  0  0  0  0  0  0  0  0  0  0  0
   -5.2480   24.5570  -31.2820 N   0  0  0  0  0  0  0  0  0  0  0  0
   -5.0150   23.2530  -31.2460 N   0  0  0  0  0  0  0  0  0  0  0  0
   -5.3190   22.3430  -32.3440 C   0  0  0  0  0  0  0  0  0  0  0  0
   -6.7100   21.7960  -32.1830 C   0  0  0  0  0  0  0  0  0  0  0  0
   -7.0000   20.4760  -32.5620 C   0  0  0  0  0  0  0  0  0  0  0  0
   -8.3040   19.9810  -32.4490 C   0  0  0  0  0  0  0  0  0  0  0  0
   -9.3260   20.8040  -31.9690 C   0  0  0  0  0  0  0  0  0  0  0  0
   -9.0480   22.1250  -31.6030 C   0  0  0  0  0  0  0  0  0  0  0  0
   -7.7450   22.6220  -31.7150 C   0  0  0  0  0  0  0  0  0  0  0  0
   -4.5460   22.9010  -30.0350 C   0  0  0  0  0  0  0  0  0  0  0  0
   -4.9777   26.1224  -29.7920 H   0  0  0  0  0  0  0  0  0  0  0  0
   -5.2484   22.8858  -33.2981 H   0  0  0  0  0  0  0  0  0  0  0  0
   -4.5990   21.5114  -32.3360 H   0  0  0  0  0  0  0  0  0  0  0  0
   -6.1995   19.8284  -32.9492 H   0  0  0  0  0  0  0  0  0  0  0  0
   -8.5247   18.9429  -32.7384 H   0  0  0  0  0  0  0  0  0  0  0  0
  -10.3501   20.4127  -31.8789 H   0  0  0  0  0  0  0  0  0  0  0  0
   -9.8536   22.7729  -31.2272 H   0  0  0  0  0  0  0  0  0  0  0  0
   -7.5303   23.6640  -31.4354 H   0  0  0  0  0  0  0  0  0  0  0  0
   -4.2775   21.8834  -29.7149 H   0  0  0  0  0  0  0  0  0  0  0  0
  1  2  1  0
  2  3  1  0
  3  4  2  0
  4  5  1  0
  5  6  1  0
  6  7  1  0
  7  8  2  0
  8  9  1  0
  9 10  2  0
 10 11  1  0
 11 12  2  0
  5 13  1  0
 13  2  2  0
 12  7  1  0
  3 14  1  0
  6 15  1  0
  6 16  1  0
  8 17  1  0
  9 18  1  0
 10 19  1  0
 11 20  1  0
 12 21  1  0
 13 22  1  0
M  END
>  <UniqueID>  (45) 
42

>  <SMILES>  (45) 
Brc1cnn(Cc2ccccc2)c1

>  <Energy>  (45) 
50.489889228439154

>  <Genealogy>  (45) 
Brc1cnn(Cc2ccccc2)c1 (3D coordinates assigned)
Brc1cnn(Cc2ccccc2)c1 (optimized conformer: 50.489889228439154 kcal/mol)

>  <smiles>  (45) 
Brc1cnn(Cc2ccccc2)c1

>  <score_type>  (45) 
oracle

>  <origin>  (45) 
adg

>  <m_score__min__energy>  (45) 
-6.0800000000000001

>  <m_primary>  (45) 
energy

$$$$
45:0
     RDKit          3D

 41 45  0  0  0  0  0  0  0  0999 V2000
    1.4620   28.5750  -22.7900 C   0  0  0  0  0  0  0  0  0  0  0  0
    1.0490   28.4800  -24.1850 N   0  0  0  0  0  0  0  0  0  0  0  0
    1.4400   29.3190  -25.1390 N   0  0  0  0  0  0  0  0  0  0  0  0
    0.8630   28.9350  -26.3040 C   0  0  0  0  0  0  0  0  0  0  0  0
    0.0890   27.8180  -26.0590 C   0  0  0  0  0  0  0  0  0  0  0  0
   -0.7060   27.0330  -26.8880 C   0  0  0  0  0  0  0  0  0  0  0  0
   -0.8360   27.3270  -28.2060 F   0  0  0  0  0  0  0  0  0  0  0  0
   -1.3870   25.9370  -26.3050 C   0  0  0  0  0  0  0  0  0  0  0  0
   -2.2190   25.0850  -27.1150 N   0  0  0  0  0  0  0  0  0  0  0  0
   -3.5400   24.9150  -26.7700 C   0  0  0  0  0  0  0  0  0  0  0  0
   -4.3630   24.1240  -27.5180 N   0  0  0  0  0  0  0  0  0  0  0  0
   -3.8740   23.4960  -28.6170 C   0  0  0  0  0  0  0  0  0  0  0  0
   -4.6070   22.6630  -29.4680 C   0  0  0  0  0  0  0  0  0  0  0  0
   -3.8310   22.1560  -30.5220 C   0  0  0  0  0  0  0  0  0  0  0  0
   -4.2940   21.2460  -31.6020 C   0  0  0  0  0  0  0  0  0  0  0  0
   -3.3780   20.4830  -32.3520 C   0  0  0  0  0  0  0  0  0  0  0  0
   -3.8260   19.6300  -33.3660 C   0  0  0  0  0  0  0  0  0  0  0  0
   -5.1900   19.5300  -33.6480 C   0  0  0  0  0  0  0  0  0  0  0  0
   -5.7490   18.4610  -34.9210 Cl  0  0  0  0  0  0  0  0  0  0  0  0
   -6.1090   20.2850  -32.9140 C   0  0  0  0  0  0  0  0  0  0  0  0
   -5.6670   21.1380  -31.8990 C   0  0  0  0  0  0  0  0  0  0  0  0
   -2.2490   22.7640  -30.3670 S   0  0  0  0  0  0  0  0  0  0  0  0
   -2.5570   23.6520  -28.9790 C   0  0  0  0  0  0  0  0  0  0  0  0
   -1.7100   24.4530  -28.2240 C   0  0  0  0  0  0  0  0  0  0  0  0
   -0.4980   24.5790  -28.5510 O   0  0  0  0  0  0  0  0  0  0  0  0
   -1.2380   25.6750  -24.9160 C   0  0  0  0  0  0  0  0  0  0  0  0
   -0.4240   26.4920  -24.1110 C   0  0  0  0  0  0  0  0  0  0  0  0
    0.2270   27.5610  -24.7260 C   0  0  0  0  0  0  0  0  0  0  0  0
    0.5988   28.3764  -22.1377 H   0  0  0  0  0  0  0  0  0  0  0  0
    2.2507   27.8348  -22.5899 H   0  0  0  0  0  0  0  0  0  0  0  0
    1.8481   29.5854  -22.5899 H   0  0  0  0  0  0  0  0  0  0  0  0
    0.9898   29.4291  -27.2786 H   0  0  0  0  0  0  0  0  0  0  0  0
   -3.9381   25.4234  -25.8795 H   0  0  0  0  0  0  0  0  0  0  0  0
   -5.3650   24.0090  -27.2430 H   0  0  0  0  0  0  0  0  0  0  0  0
   -5.6730   22.4309  -29.3271 H   0  0  0  0  0  0  0  0  0  0  0  0
   -2.3015   20.5585  -32.1386 H   0  0  0  0  0  0  0  0  0  0  0  0
   -3.1017   19.0362  -33.9430 H   0  0  0  0  0  0  0  0  0  0  0  0
   -7.1836   20.2076  -33.1359 H   0  0  0  0  0  0  0  0  0  0  0  0
   -6.3970   21.7299  -31.3274 H   0  0  0  0  0  0  0  0  0  0  0  0
   -1.7662   24.8221  -24.4647 H   0  0  0  0  0  0  0  0  0  0  0  0
   -0.3052   26.2949  -23.0353 H   0  0  0  0  0  0  0  0  0  0  0  0
  1  2  1  0
  2  3  1  0
  3  4  2  0
  4  5  1  0
  5  6  2  0
  6  7  1  0
  6  8  1  0
  8  9  1  0
  9 10  1  0
 10 11  2  0
 11 12  1  0
 12 13  1  0
 13 14  2  0
 14 15  1  0
 15 16  2  0
 16 17  1  0
 17 18  2  0
 18 19  1  0
 18 20  1  0
 20 21  2  0
 14 22  1  0
 22 23  1  0
 23 24  1  0
 24 25  2  0
  8 26  2  0
 26 27  1  0
 27 28  2  0
 28  2  1  0
 28  5  1  0
 24  9  1  0
 23 12  2  0
 21 15  1  0
  1 29  1  0
  1 30  1  0
  1 31  1  0
  4 32  1  0
 10 33  1  0
 11 34  1  0
 13 35  1  0
 16 36  1  0
 17 37  1  0
 20 38  1  0
 21 39  1  0
 26 40  1  0
 27 41  1  0
M  CHG  1  11   1
M  END
>  <UniqueID>  (46) 
43

>  <SMILES>  (46) 
Cn1ncc2c(F)c(-n3c[nH+]c4cc(-c5ccc(Cl)cc5)sc4c3=O)ccc21

>  <Energy>  (46) 
129.25261117826838

>  <Genealogy>  (46) 
Cn1ncc2c(F)c(-n3c[nH+]c4cc(-c5ccc(Cl)cc5)sc4c3=O)ccc21 (protonated)
Cn1ncc2c(F)c(-n3c[nH+]c4cc(-c5ccc(Cl)cc5)sc4c3=O)ccc21 (3D coordinates assigned)
Cn1ncc2c(F)c(-n3c[nH+]c4cc(-c5ccc(Cl)cc5)sc4c3=O)ccc21 (optimized conformer: 129.25261117826838 kcal/mol)

>  <smiles>  (46) 
Cn1ncc2c(F)c(-n3cnc4cc(-c5ccc(Cl)cc5)sc4c3=O)ccc21

>  <score_type>  (46) 
oracle

>  <origin>  (46) 
adg

>  <m_score__min__energy>  (46) 
-7.5800000000000001

>  <m_primary>  (46) 
energy

$$$$
46:0
     RDKit          3D

 43 46  0  0  1  0  0  0  0  0999 V2000
   -2.5950   18.3310  -34.0810 C   0  0  0  0  0  0  0  0  0  0  0  0
   -2.4560   19.6040  -33.3930 N   0  0  0  0  0  0  0  0  0  0  0  0
   -1.3010   20.2250  -33.1410 N   0  0  0  0  0  0  0  0  0  0  0  0
   -1.5330   21.3830  -32.4880 C   0  0  0  0  0  0  0  0  0  0  0  0
   -2.9010   21.4810  -32.3300 C   0  0  0  0  0  0  0  0  0  0  0  0
   -3.7670   22.3980  -31.7610 C   0  0  0  0  0  0  0  0  0  0  0  0
   -3.2280   23.4430  -31.2290 N   0  0  0  0  0  0  0  0  0  0  0  0
   -3.1160   23.5620  -29.8160 C   0  0  0  0  0  0  0  0  0  0  0  0
   -1.9320   23.1160  -29.2340 C   0  0  0  0  0  0  0  0  0  0  0  0
   -1.7370   23.1920  -27.8860 C   0  0  0  0  0  0  0  0  0  0  0  0
   -2.7460   23.7260  -27.1030 C   0  0  0  0  0  0  0  0  0  0  0  0
   -3.9110   24.1630  -27.6900 C   0  0  0  0  0  0  0  0  0  0  0  0
   -4.1350   24.0960  -29.0550 C   0  0  0  0  0  0  0  0  0  0  0  0
   -5.6180   24.6530  -29.7970 S   0  0  0  0  0  0  0  0  0  0  0  0
   -6.2810   25.9170  -28.8250 N   0  0  0  0  0  0  0  0  0  0  0  0
   -5.3880   25.0720  -31.2110 O   0  0  0  0  0  0  0  0  0  0  0  0
   -6.6230   23.5120  -29.7230 O   0  0  0  0  0  0  0  0  0  0  0  0
   -5.1020   22.2030  -31.7650 N   0  0  0  0  0  0  0  0  0  0  0  0
   -5.6450   21.1070  -32.3250 C   0  0  0  0  0  0  0  0  0  0  0  0
   -7.0820   20.8640  -32.3490 C   0  0  0  0  0  0  0  0  0  0  0  0
   -7.6250   19.6850  -32.7450 C   0  0  0  0  0  0  0  0  0  0  0  0
   -9.0140   19.5290  -32.7400 C   0  0  0  0  0  0  0  0  0  0  0  0
   -9.8490   20.5620  -32.3360 C   0  0  0  0  0  0  0  0  0  0  0  0
   -9.2990   21.7630  -31.9320 C   0  0  0  0  0  0  0  0  0  0  0  0
   -7.9340   21.8730  -31.9530 C   0  0  0  0  0  0  0  0  0  0  0  0
   -4.7880   20.2250  -32.8740 N   0  0  0  0  0  0  0  0  0  0  0  0
   -3.4590   20.3580  -32.9030 C   0  0  0  0  0  0  0  0  0  0  0  0
   -2.6833   17.5220  -33.3409 H   0  0  0  0  0  0  0  0  0  0  0  0
   -3.4963   18.3514  -34.7113 H   0  0  0  0  0  0  0  0  0  0  0  0
   -1.7106   18.1564  -34.7113 H   0  0  0  0  0  0  0  0  0  0  0  0
   -0.7788   22.1079  -32.1478 H   0  0  0  0  0  0  0  0  0  0  0  0
   -1.1408   22.6954  -29.8720 H   0  0  0  0  0  0  0  0  0  0  0  0
   -0.8000   22.8373  -27.4319 H   0  0  0  0  0  0  0  0  0  0  0  0
   -2.6165   23.8008  -26.0132 H   0  0  0  0  0  0  0  0  0  0  0  0
   -4.6985   24.5837  -27.0475 H   0  0  0  0  0  0  0  0  0  0  0  0
   -6.4700   26.7910  -29.3350 H   0  0  0  0  0  0  0  0  0  0  0  0
   -5.7660   26.0360  -27.9260 H   0  0  0  0  0  0  0  0  0  0  0  0
   -5.6850   22.9220  -31.3270 H   0  0  0  0  0  0  0  0  0  0  0  0
   -6.9762   18.8575  -33.0678 H   0  0  0  0  0  0  0  0  0  0  0  0
   -9.4525   18.5727  -33.0612 H   0  0  0  0  0  0  0  0  0  0  0  0
  -10.9404   20.4251  -32.3376 H   0  0  0  0  0  0  0  0  0  0  0  0
   -9.9338   22.6000  -31.6055 H   0  0  0  0  0  0  0  0  0  0  0  0
   -7.4892   22.8270  -31.6336 H   0  0  0  0  0  0  0  0  0  0  0  0
  1  2  1  0
  2  3  1  0
  3  4  2  0
  4  5  1  0
  5  6  1  0
  6  7  2  0
  7  8  1  0
  8  9  2  0
  9 10  1  0
 10 11  2  0
 11 12  1  0
 12 13  2  0
 13 14  1  0
 14 15  1  0
 14 16  2  0
 14 17  2  0
  6 18  1  0
 18 19  1  0
 19 20  1  0
 20 21  2  0
 21 22  1  0
 22 23  2  0
 23 24  1  0
 24 25  2  0
 19 26  2  0
 26 27  1  0
 27  2  1  0
 27  5  2  0
 13  8  1  0
 25 20  1  0
  1 28  1  0
  1 29  1  0
  1 30  1  0
  4 31  1  0
  9 32  1  0
 10 33  1  0
 11 34  1  0
 12 35  1  0
 15 36  1  0
 15 37  1  0
 18 38  1  0
 21 39  1  0
 22 40  1  0
 23 41  1  0
 24 42  1  0
 25 43  1  0
M  END
>  <smiles>  (47) 
Cn1ncc2c(=Nc3ccccc3S(N)(=O)=O)[nH]c(-c3ccccc3)nc21

>  <score_type>  (47) 
oracle

>  <origin>  (47) 
adg

>  <m_score__min__energy>  (47) 
-9.5700000000000003

>  <m_primary>  (47) 
energy

$$$$
47:0
     RDKit          3D

 55 58  0  0  0  0  0  0  0  0999 V2000
   -3.2400   16.4970  -33.1230 C   0  0  0  0  0  0  0  0  0  0  0  0
   -4.5630   16.6910  -33.7420 N   0  0  0  0  0  0  0  0  0  0  0  0
   -4.5780   17.8850  -34.6340 C   0  0  0  0  0  0  0  0  0  0  0  0
   -5.7400   18.8500  -34.3620 C   0  0  0  0  0  0  0  0  0  0  0  0
   -5.8310   19.1020  -32.9250 N   0  0  0  0  0  0  0  0  0  0  0  0
   -5.8720   20.4470  -32.4270 C   0  0  0  0  0  0  0  0  0  0  0  0
   -4.6690   21.0940  -32.1440 C   0  0  0  0  0  0  0  0  0  0  0  0
   -4.6430   22.4180  -31.6710 C   0  0  0  0  0  0  0  0  0  0  0  0
   -3.3820   23.0680  -31.3840 N   0  0  0  0  0  0  0  0  0  0  0  0
   -2.2160   22.3570  -30.8500 C   0  0  0  0  0  0  0  0  0  0  0  0
   -1.6240   23.0960  -29.6410 C   0  0  0  0  0  0  0  0  0  0  0  0
   -2.3520   24.3650  -29.4060 N   0  0  0  0  0  0  0  0  0  0  0  0
   -3.5780   24.1430  -28.6260 C   0  0  0  0  0  0  0  0  0  0  0  0
   -3.2210   24.2860  -27.1570 C   0  0  0  0  0  0  0  0  0  0  0  0
   -1.9760   25.1520  -27.1360 C   0  0  0  0  0  0  0  0  0  0  0  0
   -1.5570   25.3040  -28.5950 C   0  0  0  0  0  0  0  0  0  0  0  0
   -5.8680   23.1030  -31.4810 C   0  0  0  0  0  0  0  0  0  0  0  0
   -5.8630   24.7730  -30.8960 Cl  0  0  0  0  0  0  0  0  0  0  0  0
   -7.0970   22.4540  -31.7590 C   0  0  0  0  0  0  0  0  0  0  0  0
   -8.2960   23.0950  -31.5790 N   0  0  0  0  0  0  0  0  0  0  0  0
   -9.4840   22.4840  -31.8330 C   0  0  0  0  0  0  0  0  0  0  0  0
   -9.5160   21.1700  -32.2870 C   0  0  0  0  0  0  0  0  0  0  0  0
   -8.3210   20.4840  -32.4870 C   0  0  0  0  0  0  0  0  0  0  0  0
   -7.0930   21.1160  -32.2310 C   0  0  0  0  0  0  0  0  0  0  0  0
   -5.7920   17.9830  -31.9810 C   0  0  0  0  0  0  0  0  0  0  0  0
   -5.6440   16.6500  -32.7290 C   0  0  0  0  0  0  0  0  0  0  0  0
   -3.3418   16.5119  -32.0278 H   0  0  0  0  0  0  0  0  0  0  0  0
   -2.8255   15.5285  -33.4395 H   0  0  0  0  0  0  0  0  0  0  0  0
   -2.5649   17.3058  -33.4395 H   0  0  0  0  0  0  0  0  0  0  0  0
   -3.6338   18.4322  -34.4960 H   0  0  0  0  0  0  0  0  0  0  0  0
   -4.7049   17.5141  -35.6618 H   0  0  0  0  0  0  0  0  0  0  0  0
   -5.5622   19.7979  -34.8910 H   0  0  0  0  0  0  0  0  0  0  0  0
   -6.6805   18.4049  -34.7188 H   0  0  0  0  0  0  0  0  0  0  0  0
   -3.7207   20.5572  -32.2940 H   0  0  0  0  0  0  0  0  0  0  0  0
   -3.2820   24.0910  -31.5570 H   0  0  0  0  0  0  0  0  0  0  0  0
   -2.5222   21.3472  -30.5392 H   0  0  0  0  0  0  0  0  0  0  0  0
   -1.4490   22.3033  -31.6366 H   0  0  0  0  0  0  0  0  0  0  0  0
   -1.7092   22.4583  -28.7488 H   0  0  0  0  0  0  0  0  0  0  0  0
   -0.5667   23.3226  -29.8431 H   0  0  0  0  0  0  0  0  0  0  0  0
   -4.3379   24.8891  -28.9015 H   0  0  0  0  0  0  0  0  0  0  0  0
   -3.9879   23.1424  -28.8279 H   0  0  0  0  0  0  0  0  0  0  0  0
   -4.0394   24.7727  -26.6062 H   0  0  0  0  0  0  0  0  0  0  0  0
   -3.0531   23.3108  -26.6766 H   0  0  0  0  0  0  0  0  0  0  0  0
   -2.1996   26.1352  -26.6963 H   0  0  0  0  0  0  0  0  0  0  0  0
   -1.1774   24.7018  -26.5281 H   0  0  0  0  0  0  0  0  0  0  0  0
   -1.7439   26.3350  -28.9300 H   0  0  0  0  0  0  0  0  0  0  0  0
   -0.4846   25.0856  -28.7056 H   0  0  0  0  0  0  0  0  0  0  0  0
   -8.3390   24.0800  -31.2380 H   0  0  0  0  0  0  0  0  0  0  0  0
  -10.4250   23.0323  -31.6785 H   0  0  0  0  0  0  0  0  0  0  0  0
  -10.4784   20.6761  -32.4867 H   0  0  0  0  0  0  0  0  0  0  0  0
   -8.3386   19.4445  -32.8464 H   0  0  0  0  0  0  0  0  0  0  0  0
   -4.9370   18.1130  -31.3013 H   0  0  0  0  0  0  0  0  0  0  0  0
   -6.7324   17.9672  -31.4106 H   0  0  0  0  0  0  0  0  0  0  0  0
   -5.4158   15.8586  -31.9999 H   0  0  0  0  0  0  0  0  0  0  0  0
   -6.5901   16.4516  -33.2540 H   0  0  0  0  0  0  0  0  0  0  0  0
  1  2  1  0
  2  3  1  0
  3  4  1  0
  4  5  1  0
  5  6  1  0
  6  7  2  0
  7  8  1  0
  8  9  1  0
  9 10  1  0
 10 11  1  0
 11 12  1  0
 12 13  1  0
 13 14  1  0
 14 15  1  0
 15 16  1  0
  8 17  2  0
 17 18  1  0
 17 19  1  0
 19 20  2  0
 20 21  1  0
 21 22  2  0
 22 23  1  0
 23 24  2  0
  5 25  1  0
 25 26  1  0
 26  2  1  0
 24  6  1  0
 16 12  1  0
 24 19  1  0
  1 27  1  0
  1 28  1  0
  1 29  1  0
  3 30  1  0
  3 31  1  0
  4 32  1  0
  4 33  1  0
  7 34  1  0
  9 35  1  0
 10 36  1  0
 10 37  1  0
 11 38  1  0
 11 39  1  0
 13 40  1  0
 13 41  1  0
 14 42  1  0
 14 43  1  0
 15 44  1  0
 15 45  1  0
 16 46  1  0
 16 47  1  0
 20 48  1  0
 21 49  1  0
 22 50  1  0
 23 51  1  0
 25 52  1  0
 25 53  1  0
 26 54  1  0
 26 55  1  0
M  CHG  1  20   1
M  END
>  <UniqueID>  (48) 
44

>  <SMILES>  (48) 
CN1CCN(c2cc(NCCN3CCCC3)c(Cl)c3[nH+]cccc23)CC1

>  <Energy>  (48) 
78.60321020226165

>  <Genealogy>  (48) 
CN1CCN(c2cc(NCCN3CCCC3)c(Cl)c3[nH+]cccc23)CC1 (protonated)
CN1CCN(c2cc(NCCN3CCCC3)c(Cl)c3[nH+]cccc23)CC1 (3D coordinates assigned)
CN1CCN(c2cc(NCCN3CCCC3)c(Cl)c3[nH+]cccc23)CC1 (nonaromatic ring conformer: 78.60321020226165 kcal/mol)

>  <smiles>  (48) 
CN1CCN(c2cc(NCCN3CCCC3)c(Cl)c3ncccc23)CC1

>  <score_type>  (48) 
oracle

>  <origin>  (48) 
adg

>  <m_score__min__energy>  (48) 
-7.8600000000000003

>  <m_primary>  (48) 
energy

$$$$
48:0
     RDKit          3D

 51 54  0  0  0  0  0  0  0  0999 V2000
   -9.2380   22.0900  -31.6460 C   0  0  0  0  0  0  0  0  0  0  0  0
   -8.0350   21.3370  -31.9990 N   0  0  0  0  0  0  0  0  0  0  0  0
   -8.0130   20.1670  -32.6590 C   0  0  0  0  0  0  0  0  0  0  0  0
   -6.6970   19.7500  -32.7530 C   0  0  0  0  0  0  0  0  0  0  0  0
   -6.1990   18.5000  -33.3860 C   0  0  0  0  0  0  0  0  0  0  0  0
   -5.0490   18.5160  -34.2010 C   0  0  0  0  0  0  0  0  0  0  0  0
   -4.5800   17.3410  -34.7930 C   0  0  0  0  0  0  0  0  0  0  0  0
   -5.2470   16.1340  -34.5800 C   0  0  0  0  0  0  0  0  0  0  0  0
   -6.3850   16.1000  -33.7750 C   0  0  0  0  0  0  0  0  0  0  0  0
   -6.8630   17.2710  -33.1770 C   0  0  0  0  0  0  0  0  0  0  0  0
   -7.9790   17.1970  -32.4080 F   0  0  0  0  0  0  0  0  0  0  0  0
   -5.9000   20.6630  -32.1570 N   0  0  0  0  0  0  0  0  0  0  0  0
   -6.7420   21.6240  -31.7230 C   0  0  0  0  0  0  0  0  0  0  0  0
   -6.2650   22.8220  -30.9990 C   0  0  0  0  0  0  0  0  0  0  0  0
   -6.5430   24.0990  -31.5110 C   0  0  0  0  0  0  0  0  0  0  0  0
   -6.0990   25.2400  -30.8400 C   0  0  0  0  0  0  0  0  0  0  0  0
   -5.3840   25.1200  -29.6460 C   0  0  0  0  0  0  0  0  0  0  0  0
   -5.1190   23.8510  -29.1070 C   0  0  0  0  0  0  0  0  0  0  0  0
   -4.3390   23.7100  -27.8190 C   0  0  0  0  0  0  0  0  0  0  0  0
   -3.1460   24.5900  -27.7920 N   0  0  0  0  0  0  0  0  0  0  0  0
   -2.0260   23.9410  -28.5250 C   0  0  0  0  0  0  0  0  0  0  0  0
   -0.6380   24.5270  -28.1810 C   0  0  0  0  0  0  0  0  0  0  0  0
   -0.7320   25.9460  -27.6170 C   0  0  0  0  0  0  0  0  0  0  0  0
    0.5350   26.3880  -27.2760 F   0  0  0  0  0  0  0  0  0  0  0  0
   -1.2390   26.7940  -28.5890 F   0  0  0  0  0  0  0  0  0  0  0  0
   -1.6370   25.9820  -26.3700 C   0  0  0  0  0  0  0  0  0  0  0  0
   -2.7510   24.9160  -26.4030 C   0  0  0  0  0  0  0  0  0  0  0  0
   -5.5740   22.7070  -29.7820 C   0  0  0  0  0  0  0  0  0  0  0  0
   -9.3274   22.1460  -30.5511 H   0  0  0  0  0  0  0  0  0  0  0  0
   -9.1692   23.1065  -32.0607 H   0  0  0  0  0  0  0  0  0  0  0  0
  -10.1222   21.5839  -32.0607 H   0  0  0  0  0  0  0  0  0  0  0  0
   -8.8891   19.6332  -33.0558 H   0  0  0  0  0  0  0  0  0  0  0  0
   -4.5159   19.4628  -34.3724 H   0  0  0  0  0  0  0  0  0  0  0  0
   -3.6827   17.3672  -35.4287 H   0  0  0  0  0  0  0  0  0  0  0  0
   -4.8753   15.2099  -35.0468 H   0  0  0  0  0  0  0  0  0  0  0  0
   -6.9097   15.1475  -33.6093 H   0  0  0  0  0  0  0  0  0  0  0  0
   -7.1137   24.2013  -32.4458 H   0  0  0  0  0  0  0  0  0  0  0  0
   -6.3129   26.2368  -31.2530 H   0  0  0  0  0  0  0  0  0  0  0  0
   -5.0277   26.0219  -29.1268 H   0  0  0  0  0  0  0  0  0  0  0  0
   -4.9945   23.9747  -26.9762 H   0  0  0  0  0  0  0  0  0  0  0  0
   -3.9941   22.6682  -27.7434 H   0  0  0  0  0  0  0  0  0  0  0  0
   -3.3860   25.4810  -28.2910 H   0  0  0  0  0  0  0  0  0  0  0  0
   -2.0223   22.8696  -28.2760 H   0  0  0  0  0  0  0  0  0  0  0  0
   -2.1951   24.1215  -29.5968 H   0  0  0  0  0  0  0  0  0  0  0  0
   -0.1560   23.8801  -27.4332 H   0  0  0  0  0  0  0  0  0  0  0  0
   -0.0512   24.5718  -29.1103 H   0  0  0  0  0  0  0  0  0  0  0  0
   -1.0141   25.8106  -25.4797 H   0  0  0  0  0  0  0  0  0  0  0  0
   -2.1252   26.9675  -26.3460 H   0  0  0  0  0  0  0  0  0  0  0  0
   -2.3866   24.0023  -25.9108 H   0  0  0  0  0  0  0  0  0  0  0  0
   -3.6303   25.3180  -25.8784 H   0  0  0  0  0  0  0  0  0  0  0  0
   -5.3874   21.7113  -29.3534 H   0  0  0  0  0  0  0  0  0  0  0  0
  1  2  1  0
  2  3  1  0
  3  4  2  0
  4  5  1  0
  5  6  2  0
  6  7  1  0
  7  8  2  0
  8  9  1  0
  9 10  2  0
 10 11  1  0
  4 12  1  0
 12 13  2  0
 13 14  1  0
 14 15  2  0
 15 16  1  0
 16 17  2  0
 17 18  1  0
 18 19  1  0
 19 20  1  0
 20 21  1  0
 21 22  1  0
 22 23  1  0
 23 24  1  0
 23 25  1  0
 23 26  1  0
 26 27  1  0
 18 28  2  0
 13  2  1  0
 28 14  1  0
 10  5  1  0
 27 20  1  0
  1 29  1  0
  1 30  1  0
  1 31  1  0
  3 32  1  0
  6 33  1  0
  7 34  1  0
  8 35  1  0
  9 36  1  0
 15 37  1  0
 16 38  1  0
 17 39  1  0
 19 40  1  0
 19 41  1  0
 20 42  1  0
 21 43  1  0
 21 44  1  0
 22 45  1  0
 22 46  1  0
 26 47  1  0
 26 48  1  0
 27 49  1  0
 27 50  1  0
 28 51  1  0
M  CHG  1  20   1
M  END
>  <UniqueID>  (49) 
45

>  <SMILES>  (49) 
Cn1cc(-c2ccccc2F)nc1-c1cccc(C[NH+]2CCC(F)(F)CC2)c1

>  <Energy>  (49) 
96.77295672154695

>  <Genealogy>  (49) 
Cn1cc(-c2ccccc2F)nc1-c1cccc(C[NH+]2CCC(F)(F)CC2)c1 (protonated)
Cn1cc(-c2ccccc2F)nc1-c1cccc(C[NH+]2CCC(F)(F)CC2)c1 (3D coordinates assigned)
Cn1cc(-c2ccccc2F)nc1-c1cccc(C[NH+]2CCC(F)(F)CC2)c1 (nonaromatic ring conformer: 96.77295672154695 kcal/mol)

>  <smiles>  (49) 
Cn1cc(-c2ccccc2F)nc1-c1cccc(CN2CCC(F)(F)CC2)c1

>  <score_type>  (49) 
oracle

>  <origin>  (49) 
adg

>  <m_score__min__energy>  (49) 
-8.5500000000000007

>  <m_primary>  (49) 
energy

$$$$
49:0
     RDKit          3D

 53 54  0  0  0  0  0  0  0  0999 V2000
   -8.8500   22.4730  -31.9490 C   0  0  0  0  0  0  0  0  0  0  0  0
   -8.2780   21.1000  -32.3090 C   0  0  0  0  0  0  0  0  0  0  0  0
   -8.7920   19.9830  -31.3780 C   0  0  0  0  0  0  0  0  0  0  0  0
   -8.6100   18.5630  -31.9490 C   0  0  0  0  0  0  0  0  0  0  0  0
   -7.1960   17.9770  -31.7900 C   0  0  0  0  0  0  0  0  0  0  0  0
   -6.2640   18.3490  -32.9510 C   0  0  0  0  0  0  0  0  0  0  0  0
   -5.0260   19.0960  -32.4430 C   0  0  0  0  0  0  0  0  0  0  0  0
   -4.7360   20.3340  -33.3030 C   0  0  0  0  0  0  0  0  0  0  0  0
   -3.7380   21.2010  -32.6560 N   0  0  0  0  0  0  0  0  0  0  0  0
   -2.3440   20.8770  -32.7710 C   0  0  0  0  0  0  0  0  0  0  0  0
   -1.9440   20.0000  -33.5820 O   0  0  0  0  0  0  0  0  0  0  0  0
   -1.4060   21.5580  -31.9460 N   0  0  0  0  0  0  0  0  0  0  0  0
   -1.8650   22.2920  -30.7720 C   0  0  2  0  0  0  0  0  0  0  0  0
   -1.8960   21.3730  -29.5860 C   0  0  0  0  0  0  0  0  0  0  0  0
   -3.0310   20.9470  -28.9230 C   0  0  0  0  0  0  0  0  0  0  0  0
   -2.5840   20.1010  -27.9310 C   0  0  0  0  0  0  0  0  0  0  0  0
   -1.2100   20.0590  -28.0510 C   0  0  0  0  0  0  0  0  0  0  0  0
   -0.8300   20.8260  -29.0480 O   0  0  0  0  0  0  0  0  0  0  0  0
   -3.2430   22.9000  -30.9770 C   0  0  0  0  0  0  0  0  0  0  0  0
   -3.6200   24.0120  -30.0640 C   0  0  0  0  0  0  0  0  0  0  0  0
   -3.6290   23.8160  -28.8170 O   0  0  0  0  0  0  0  0  0  0  0  0
   -4.0210   25.2490  -30.5780 O   0  0  0  0  0  0  0  0  0  0  0  0
   -5.3600   25.7200  -30.4920 C   0  0  0  0  0  0  0  0  0  0  0  0
   -4.1160   22.3710  -31.8830 C   0  0  0  0  0  0  0  0  0  0  0  0
   -5.4760   23.0020  -32.1050 C   0  0  0  0  0  0  0  0  0  0  0  0
   -8.8932   22.5768  -30.8548 H   0  0  0  0  0  0  0  0  0  0  0  0
   -8.2049   23.2600  -32.3667 H   0  0  0  0  0  0  0  0  0  0  0  0
   -9.8630   22.5692  -32.3667 H   0  0  0  0  0  0  0  0  0  0  0  0
   -8.5660   20.8579  -33.3427 H   0  0  0  0  0  0  0  0  0  0  0  0
   -7.1852   21.1531  -32.1953 H   0  0  0  0  0  0  0  0  0  0  0  0
   -8.2450   20.0464  -30.4257 H   0  0  0  0  0  0  0  0  0  0  0  0
   -9.8734   20.1419  -31.2544 H   0  0  0  0  0  0  0  0  0  0  0  0
   -9.3166   17.8948  -31.4349 H   0  0  0  0  0  0  0  0  0  0  0  0
   -8.7922   18.6399  -33.0311 H   0  0  0  0  0  0  0  0  0  0  0  0
   -6.7609   18.3578  -30.8542 H   0  0  0  0  0  0  0  0  0  0  0  0
   -7.2909   16.8812  -31.7796 H   0  0  0  0  0  0  0  0  0  0  0  0
   -5.9444   17.4302  -33.4644 H   0  0  0  0  0  0  0  0  0  0  0  0
   -6.8109   19.0064  -33.6429 H   0  0  0  0  0  0  0  0  0  0  0  0
   -5.1988   19.4129  -31.4039 H   0  0  0  0  0  0  0  0  0  0  0  0
   -4.1609   18.4192  -32.5020 H   0  0  0  0  0  0  0  0  0  0  0  0
   -4.3517   20.0107  -34.2817 H   0  0  0  0  0  0  0  0  0  0  0  0
   -5.6693   20.9032  -33.4256 H   0  0  0  0  0  0  0  0  0  0  0  0
   -0.3860   21.3570  -32.0540 H   0  0  0  0  0  0  0  0  0  0  0  0
   -1.1585   23.1173  -30.5997 H   0  0  0  0  0  0  0  0  0  0  0  0
   -4.0727   21.2248  -29.1412 H   0  0  0  0  0  0  0  0  0  0  0  0
   -3.1991   19.5666  -27.1920 H   0  0  0  0  0  0  0  0  0  0  0  0
   -0.5355   19.4727  -27.4097 H   0  0  0  0  0  0  0  0  0  0  0  0
   -5.6461   25.8206  -29.4346 H   0  0  0  0  0  0  0  0  0  0  0  0
   -5.4368   26.6991  -30.9874 H   0  0  0  0  0  0  0  0  0  0  0  0
   -6.0329   25.0046  -30.9874 H   0  0  0  0  0  0  0  0  0  0  0  0
   -5.9428   23.2186  -31.1328 H   0  0  0  0  0  0  0  0  0  0  0  0
   -5.3581   23.9374  -32.6717 H   0  0  0  0  0  0  0  0  0  0  0  0
   -6.1141   22.3080  -32.6717 H   0  0  0  0  0  0  0  0  0  0  0  0
  1  2  1  0
  2  3  1  0
  3  4  1  0
  4  5  1  0
  5  6  1  0
  6  7  1  0
  7  8  1  0
  8  9  1  0
  9 10  1  0
 10 11  2  0
 10 12  1  0
 12 13  1  0
 13 14  1  0
 14 15  2  0
 15 16  1  0
 16 17  2  0
 17 18  1  0
 13 19  1  0
 19 20  1  0
 20 21  2  0
 20 22  1  0
 22 23  1  0
 19 24  2  0
 24 25  1  0
 24  9  1  0
 18 14  1  0
  1 26  1  0
  1 27  1  0
  1 28  1  0
  2 29  1  0
  2 30  1  0
  3 31  1  0
  3 32  1  0
  4 33  1  0
  4 34  1  0
  5 35  1  0
  5 36  1  0
  6 37  1  0
  6 38  1  0
  7 39  1  0
  7 40  1  0
  8 41  1  0
  8 42  1  0
 12 43  1  0
 13 44  1  1
 15 45  1  0
 16 46  1  0
 17 47  1  0
 23 48  1  0
 23 49  1  0
 23 50  1  0
 25 51  1  0
 25 52  1  0
 25 53  1  0
M  END
>  <UniqueID>  (50) 
46

>  <SMILES>  (50) 
CCCCCCCCN1C(=O)N[C@H](c2ccco2)C(C(=O)OC)=C1C

>  <Energy>  (50) 
71.05883219617306

>  <Genealogy>  (50) 
CCCCCCCCN1C(=O)N[C@H](c2ccco2)C(C(=O)OC)=C1C (chirality)
CCCCCCCCN1C(=O)N[C@H](c2ccco2)C(C(=O)OC)=C1C (3D coordinates assigned)
CCCCCCCCN1C(=O)N[C@H](c2ccco2)C(C(=O)OC)=C1C (nonaromatic ring conformer: 71.05883219617306 kcal/mol)

>  <smiles>  (50) 
CCCCCCCCN1C(=O)NC(c2ccco2)C(C(=O)OC)=C1C

>  <score_type>  (50) 
oracle

>  <origin>  (50) 
adg

>  <m_score__min__energy>  (50) 
-7.3399999999999999

>  <m_primary>  (50) 
energy

$$$$
