0:0
     RDKit          3D

 24 23  0  0  0  0  0  0  0  0999 V2000
   -4.5950   25.6520  -27.4670 H   0  0  0  0  0  0  0  0  0  0  0  0
   -4.5540   24.7750  -26.9650 O   0  0  0  0  0  0  0  0  0  0  0  0
   -4.0820   23.6070  -27.5350 N   0  0  0  0  0  0  0  0  0  0  0  0
   -3.4920   23.5240  -28.6920 C   0  0  0  0  0  0  0  0  0  0  0  0
   -3.3275   22.5228  -29.1168 H   0  0  0  0  0  0  0  0  0  0  0  0
   -3.0290   24.6930  -29.4710 C   0  0  0  0  0  0  0  0  0  0  0  0
   -1.9170   25.2240  -29.2100 O   0  0  0  0  0  0  0  0  0  0  0  0
   -3.8540   25.2940  -30.4770 N   0  0  0  0  0  0  0  0  0  0  0  0
   -5.3150   25.2790  -30.5040 C   0  0  0  0  0  0  0  0  0  0  0  0
   -5.6746   26.2394  -30.9017 H   0  0  0  0  0  0  0  0  0  0  0  0
   -5.6766   25.1190  -29.4775 H   0  0  0  0  0  0  0  0  0  0  0  0
   -5.8530   24.1400  -31.3870 C   0  0  0  0  0  0  0  0  0  0  0  0
   -5.0723   23.3699  -31.4736 H   0  0  0  0  0  0  0  0  0  0  0  0
   -6.1155   24.5842  -32.3585 H   0  0  0  0  0  0  0  0  0  0  0  0
   -7.1290   23.4780  -30.8370 C   0  0  0  0  0  0  0  0  0  0  0  0
   -7.6288   24.1927  -30.1666 H   0  0  0  0  0  0  0  0  0  0  0  0
   -6.8148   22.5609  -30.3172 H   0  0  0  0  0  0  0  0  0  0  0  0
   -8.1320   23.0530  -31.9290 C   0  0  0  0  0  0  0  0  0  0  0  0
   -7.5721   22.7715  -32.8330 H   0  0  0  0  0  0  0  0  0  0  0  0
   -8.8020   23.9043  -32.1196 H   0  0  0  0  0  0  0  0  0  0  0  0
   -8.9950   21.8670  -31.4960 C   0  0  0  0  0  0  0  0  0  0  0  0
   -9.0291   21.8201  -30.3975 H   0  0  0  0  0  0  0  0  0  0  0  0
  -10.0145   21.9924  -31.8895 H   0  0  0  0  0  0  0  0  0  0  0  0
   -8.5621   20.9355  -31.8895 H   0  0  0  0  0  0  0  0  0  0  0  0
  1  2  1  0
  2  3  1  0
  3  4  2  0
  4  5  1  0
  4  6  1  0
  6  7  2  0
  6  8  1  0
  8  9  1  0
  9 10  1  0
  9 11  1  0
  9 12  1  0
 12 13  1  0
 12 14  1  0
 12 15  1  0
 15 16  1  0
 15 17  1  0
 15 18  1  0
 18 19  1  0
 18 20  1  0
 18 21  1  0
 21 22  1  0
 21 23  1  0
 21 24  1  0
M  CHG  1   8  -1
M  END
>  <UniqueID>  (1) 
1

>  <SMILES>  (1) 
CCCCC[N-]C(=O)/C=N\O

>  <Energy>  (1) 
19.16101680918604

>  <Genealogy>  (1) 
CCCCC[N-]C(=O)C=NO (protonated)
CCCCC[N-]C(=O)/C=N\O (cis-trans isomerization)
CCCCC[N-]C(=O)/C=N\O (3D coordinates assigned)
CCCCC[N-]C(=O)/C=N\O (optimized conformer: 19.16101680918604 kcal/mol)

>  <smiles>  (1) 
CCCCCNC(=O)C=NO

>  <score_type>  (1) 
oracle

>  <origin>  (1) 
adg

>  <m_score__min__energy>  (1) 
-6.5199999999999996

>  <m_primary>  (1) 
energy

$$$$
1:0
     RDKit          3D

 47 48  0  0  0  0  0  0  0  0999 V2000
   -2.7170   24.5450  -27.2110 C   0  0  0  0  0  0  0  0  0  0  0  0
   -2.1200   24.8120  -28.5950 C   0  0  0  0  0  0  0  0  0  0  0  0
   -3.0810   24.5320  -29.6900 N   0  0  0  0  0  0  0  0  0  0  0  0
   -2.7810   23.2870  -30.4440 C   0  0  0  0  0  0  0  0  0  0  0  0
   -3.4850   22.0350  -29.9020 C   0  0  0  0  0  0  0  0  0  0  0  0
   -4.4800   24.5460  -29.2020 C   0  0  0  0  0  0  0  0  0  0  0  0
   -5.3760   25.4620  -30.0440 C   0  0  0  0  0  0  0  0  0  0  0  0
   -7.0440   24.7560  -30.3110 S   0  0  0  0  0  0  0  0  0  0  0  0
   -6.4900   23.3940  -31.3430 C   0  0  0  0  0  0  0  0  0  0  0  0
   -5.4260   23.4770  -32.1670 N   0  0  0  0  0  0  0  0  0  0  0  0
   -5.3200   22.2950  -32.7490 N   0  0  0  0  0  0  0  0  0  0  0  0
   -6.3200   21.5120  -32.3030 C   0  0  0  0  0  0  0  0  0  0  0  0
   -6.5050   20.1050  -32.7200 C   0  0  0  0  0  0  0  0  0  0  0  0
   -7.2730   19.2410  -31.9260 C   0  0  0  0  0  0  0  0  0  0  0  0
   -7.4550   17.9080  -32.3040 C   0  0  0  0  0  0  0  0  0  0  0  0
   -6.8660   17.4130  -33.4720 C   0  0  0  0  0  0  0  0  0  0  0  0
   -7.0810   16.0690  -33.8090 O   0  0  0  0  0  0  0  0  0  0  0  0
   -6.0460   15.1480  -34.1430 C   0  0  0  0  0  0  0  0  0  0  0  0
   -6.0800   18.2730  -34.2610 C   0  0  0  0  0  0  0  0  0  0  0  0
   -5.8980   19.6070  -33.8840 C   0  0  0  0  0  0  0  0  0  0  0  0
   -7.0750   22.1780  -31.4000 N   0  0  0  0  0  0  0  0  0  0  0  0
   -8.2810   21.7310  -30.7060 C   0  0  0  0  0  0  0  0  0  0  0  0
   -2.0040   24.8639  -26.4364 H   0  0  0  0  0  0  0  0  0  0  0  0
   -3.6547   25.1095  -27.1010 H   0  0  0  0  0  0  0  0  0  0  0  0
   -2.9213   23.4697  -27.1010 H   0  0  0  0  0  0  0  0  0  0  0  0
   -1.8182   25.8683  -28.6516 H   0  0  0  0  0  0  0  0  0  0  0  0
   -1.2595   24.1390  -28.7242 H   0  0  0  0  0  0  0  0  0  0  0  0
   -3.0936   23.4330  -31.4885 H   0  0  0  0  0  0  0  0  0  0  0  0
   -1.7002   23.1097  -30.3420 H   0  0  0  0  0  0  0  0  0  0  0  0
   -3.4737   22.0551  -28.8022 H   0  0  0  0  0  0  0  0  0  0  0  0
   -4.5257   22.0166  -30.2577 H   0  0  0  0  0  0  0  0  0  0  0  0
   -2.9600   21.1362  -30.2577 H   0  0  0  0  0  0  0  0  0  0  0  0
   -4.8804   23.5223  -29.2439 H   0  0  0  0  0  0  0  0  0  0  0  0
   -4.4752   24.9312  -28.1717 H   0  0  0  0  0  0  0  0  0  0  0  0
   -5.4799   26.4270  -29.5264 H   0  0  0  0  0  0  0  0  0  0  0  0
   -4.9013   25.5812  -31.0291 H   0  0  0  0  0  0  0  0  0  0  0  0
   -4.5850   22.0430  -33.4470 H   0  0  0  0  0  0  0  0  0  0  0  0
   -7.7348   19.6148  -31.0003 H   0  0  0  0  0  0  0  0  0  0  0  0
   -8.0668   17.2423  -31.6775 H   0  0  0  0  0  0  0  0  0  0  0  0
   -5.5981   14.7495  -33.2207 H   0  0  0  0  0  0  0  0  0  0  0  0
   -6.4676   14.3209  -34.7330 H   0  0  0  0  0  0  0  0  0  0  0  0
   -5.2734   15.6628  -34.7330 H   0  0  0  0  0  0  0  0  0  0  0  0
   -5.6065   17.8940  -35.1787 H   0  0  0  0  0  0  0  0  0  0  0  0
   -5.2757   20.2702  -34.5029 H   0  0  0  0  0  0  0  0  0  0  0  0
   -8.1218   21.7900  -29.6192 H   0  0  0  0  0  0  0  0  0  0  0  0
   -9.1266   22.3754  -30.9882 H   0  0  0  0  0  0  0  0  0  0  0  0
   -8.5023   20.6911  -30.9882 H   0  0  0  0  0  0  0  0  0  0  0  0
  1  2  1  0
  2  3  1  0
  3  4  1  0
  4  5  1  0
  3  6  1  0
  6  7  1  0
  7  8  1  0
  8  9  1  0
  9 10  2  0
 10 11  1  0
 11 12  2  0
 12 13  1  0
 13 14  2  0
 14 15  1  0
 15 16  2  0
 16 17  1  0
 17 18  1  0
 16 19  1  0
 19 20  2  0
 12 21  1  0
 21 22  1  0
 21  9  1  0
 20 13  1  0
  1 23  1  0
  1 24  1  0
  1 25  1  0
  2 26  1  0
  2 27  1  0
  4 28  1  0
  4 29  1  0
  5 30  1  0
  5 31  1  0
  5 32  1  0
  6 33  1  0
  6 34  1  0
  7 35  1  0
  7 36  1  0
 11 37  1  0
 14 38  1  0
 15 39  1  0
 18 40  1  0
 18 41  1  0
 18 42  1  0
 19 43  1  0
 20 44  1  0
 22 45  1  0
 22 46  1  0
 22 47  1  0
M  CHG  1  11   1
M  END
>  <UniqueID>  (2) 
2

>  <SMILES>  (2) 
CCN(CC)CCSc1n[nH+]c(-c2ccc(OC)cc2)n1C

>  <Energy>  (2) 
80.68253621438161

>  <Genealogy>  (2) 
CCN(CC)CCSc1n[nH+]c(-c2ccc(OC)cc2)n1C (protonated)
CCN(CC)CCSc1n[nH+]c(-c2ccc(OC)cc2)n1C (3D coordinates assigned)
CCN(CC)CCSc1n[nH+]c(-c2ccc(OC)cc2)n1C (optimized conformer: 80.68253621438161 kcal/mol)

>  <smiles>  (2) 
CCN(CC)CCSc1nnc(-c2ccc(OC)cc2)n1C

>  <score_type>  (2) 
oracle

>  <origin>  (2) 
adg

>  <m_score__min__energy>  (2) 
-7.1900000000000004

>  <m_primary>  (2) 
energy

$$$$
2:0
     RDKit          3D

 55 57  0  0  0  0  0  0  0  0999 V2000
   -4.6630   23.8790  -31.6810 H   0  0  0  0  0  0  0  0  0  0  0  0
   -4.6250   23.0660  -32.2500 O   0  0  0  0  0  0  0  0  0  0  0  0
   -5.9310   22.5530  -32.3470 C   0  0  1  0  0  0  0  0  0  0  0  0
   -6.4161   22.9832  -33.2356 H   0  0  0  0  0  0  0  0  0  0  0  0
   -5.8940   21.0290  -32.5240 C   0  0  0  0  0  0  0  0  0  0  0  0
   -6.9224   20.6396  -32.5520 H   0  0  0  0  0  0  0  0  0  0  0  0
   -5.3794   20.7851  -33.4651 H   0  0  0  0  0  0  0  0  0  0  0  0
   -5.1940   20.4350  -31.4390 O   0  0  0  0  0  0  0  0  0  0  0  0
   -4.2420   21.1340  -30.7290 N   0  0  0  0  0  0  0  0  0  0  0  0
   -4.4890   22.0640  -30.3170 H   0  0  0  0  0  0  0  0  0  0  0  0
   -3.0400   20.6670  -30.5640 C   0  0  0  0  0  0  0  0  0  0  0  0
   -2.3340   20.4610  -29.3040 C   0  0  0  0  0  0  0  0  0  0  0  0
   -2.7020   20.7030  -27.9750 C   0  0  0  0  0  0  0  0  0  0  0  0
   -3.6926   21.1131  -27.7290 H   0  0  0  0  0  0  0  0  0  0  0  0
   -1.7720   20.4080  -26.9640 C   0  0  0  0  0  0  0  0  0  0  0  0
   -2.0332   20.5963  -25.9122 H   0  0  0  0  0  0  0  0  0  0  0  0
   -0.5070   19.8730  -27.2840 C   0  0  0  0  0  0  0  0  0  0  0  0
    0.2101   19.6412  -26.4828 H   0  0  0  0  0  0  0  0  0  0  0  0
   -0.1620   19.6360  -28.6240 C   0  0  0  0  0  0  0  0  0  0  0  0
    1.0490   19.1130  -28.9410 F   0  0  0  0  0  0  0  0  0  0  0  0
   -1.0890   19.9520  -29.6220 C   0  0  0  0  0  0  0  0  0  0  0  0
   -0.9500   19.7570  -31.1060 C   0  0  1  0  0  0  0  0  0  0  0  0
   -0.7240   18.6979  -31.2987 H   0  0  0  0  0  0  0  0  0  0  0  0
   -2.1940   20.2850  -31.6530 N   0  0  0  0  0  0  0  0  0  0  0  0
   -1.9700   21.1320  -32.8120 C   0  0  0  0  0  0  0  0  0  0  0  0
   -2.3037   22.1600  -32.6075 H   0  0  0  0  0  0  0  0  0  0  0  0
   -2.5334   20.7816  -33.6894 H   0  0  0  0  0  0  0  0  0  0  0  0
   -0.4610   21.0980  -33.0550 C   0  0  0  0  0  0  0  0  0  0  0  0
   -0.0866   22.1063  -33.2857 H   0  0  0  0  0  0  0  0  0  0  0  0
   -0.2010   20.4548  -33.9086 H   0  0  0  0  0  0  0  0  0  0  0  0
    0.1550   20.5850  -31.7520 C   0  0  0  0  0  0  0  0  0  0  0  0
    0.4427   21.4240  -31.1014 H   0  0  0  0  0  0  0  0  0  0  0  0
    1.0697   19.9988  -31.9247 H   0  0  0  0  0  0  0  0  0  0  0  0
   -6.7670   22.9610  -31.1200 C   0  0  0  0  0  0  0  0  0  0  0  0
   -7.2492   22.0685  -30.6946 H   0  0  0  0  0  0  0  0  0  0  0  0
   -7.5331   23.6869  -31.4302 H   0  0  0  0  0  0  0  0  0  0  0  0
   -5.9020   23.5770  -30.1050 N   0  0  0  0  0  0  0  0  0  0  0  0
   -4.9370   23.6330  -30.5020 H   0  0  0  0  0  0  0  0  0  0  0  0
   -6.3410   24.9410  -29.7780 C   0  0  0  0  0  0  0  0  0  0  0  0
   -6.3801   25.0590  -28.6850 H   0  0  0  0  0  0  0  0  0  0  0  0
   -7.3392   25.1120  -30.2074 H   0  0  0  0  0  0  0  0  0  0  0  0
   -5.3610   25.9600  -30.3630 C   0  0  0  0  0  0  0  0  0  0  0  0
   -5.0989   26.6929  -29.5858 H   0  0  0  0  0  0  0  0  0  0  0  0
   -5.8437   26.4567  -31.2175 H   0  0  0  0  0  0  0  0  0  0  0  0
   -4.1410   25.3090  -30.8350 N   0  0  0  0  0  0  0  0  0  0  0  0
   -3.1340   24.6270  -30.0710 C   0  0  0  0  0  0  0  0  0  0  0  0
   -3.1600   23.3680  -30.0490 O   0  0  0  0  0  0  0  0  0  0  0  0
   -2.1030   25.2960  -29.3280 N   0  0  0  0  0  0  0  0  0  0  0  0
   -1.8450   25.2470  -27.8930 C   0  0  0  0  0  0  0  0  0  0  0  0
   -1.7436   26.2734  -27.5107 H   0  0  0  0  0  0  0  0  0  0  0  0
   -0.9186   24.6787  -27.7231 H   0  0  0  0  0  0  0  0  0  0  0  0
   -2.9830   24.5510  -27.1560 C   0  0  0  0  0  0  0  0  0  0  0  0
   -2.8289   24.6452  -26.0709 H   0  0  0  0  0  0  0  0  0  0  0  0
   -3.9393   25.0189  -27.4326 H   0  0  0  0  0  0  0  0  0  0  0  0
   -3.0021   23.4865  -27.4326 H   0  0  0  0  0  0  0  0  0  0  0  0
  1  2  1  0
  2  3  1  0
  3  4  1  6
  3  5  1  0
  5  6  1  0
  5  7  1  0
  5  8  1  0
  8  9  1  0
  9 10  1  0
  9 11  2  0
 11 12  1  0
 12 13  2  0
 13 14  1  0
 13 15  1  0
 15 16  1  0
 15 17  2  0
 17 18  1  0
 17 19  1  0
 19 20  1  0
 19 21  2  0
 21 22  1  0
 22 23  1  1
 22 24  1  0
 24 25  1  0
 25 26  1  0
 25 27  1  0
 25 28  1  0
 28 29  1  0
 28 30  1  0
 28 31  1  0
 31 32  1  0
 31 33  1  0
  3 34  1  0
 34 35  1  0
 34 36  1  0
 34 37  1  0
 37 38  1  0
 37 39  1  0
 39 40  1  0
 39 41  1  0
 39 42  1  0
 42 43  1  0
 42 44  1  0
 42 45  1  0
 45 46  1  0
 46 47  2  0
 46 48  1  0
 48 49  1  0
 49 50  1  0
 49 51  1  0
 49 52  1  0
 52 53  1  0
 52 54  1  0
 52 55  1  0
 24 11  1  0
 21 12  1  0
 31 22  1  0
M  CHG  3   9   1  45  -1  48  -1
M  END
>  <UniqueID>  (3) 
3

>  <SMILES>  (3) 
CC[N-]C(=O)[N-]CCNC[C@@H](O)CO/[NH+]=C1\c2cccc(F)c2[C@@H]2CCCN12

>  <Energy>  (3) 
76.48335550912903

>  <Genealogy>  (3) 
CC[N-]C(=O)[N-]CCNCC(O)CO[NH+]=C1c2cccc(F)c2C2CCCN12 (protonated)
CC[N-]C(=O)[N-]CCNC[C@@H](O)CO[NH+]=C1c2cccc(F)c2[C@@H]2CCCN12 (chirality)
CC[N-]C(=O)[N-]CCNC[C@@H](O)CO/[NH+]=C1\c2cccc(F)c2[C@@H]2CCCN12 (cis-trans isomerization)
CC[N-]C(=O)[N-]CCNC[C@@H](O)CO/[NH+]=C1\c2cccc(F)c2[C@@H]2CCCN12 (3D coordinates assigned)
CC[N-]C(=O)[N-]CCNC[C@@H](O)CO/[NH+]=C1\c2cccc(F)c2[C@@H]2CCCN12 (nonaromatic ring conformer: 76.48335550912903 kcal/mol)

>  <smiles>  (3) 
CCNC(=O)NCCNCC(O)CON=C1c2cccc(F)c2C2CCCN12

>  <score_type>  (3) 
oracle

>  <origin>  (3) 
adg

>  <m_score__min__energy>  (3) 
-10.83

>  <m_primary>  (3) 
energy

$$$$
3:0
     RDKit          3D

 64 66  0  0  0  0  0  0  0  0999 V2000
   -2.7410   21.2400  -27.5410 C   0  0  0  0  0  0  0  0  0  0  0  0
   -3.1100   20.8940  -28.9830 C   0  0  0  0  0  0  0  0  0  0  0  0
   -3.4380   22.1220  -29.7500 N   0  0  0  0  0  0  0  0  0  0  0  0
   -4.3880   22.9770  -29.0010 C   0  0  0  0  0  0  0  0  0  0  0  0
   -4.4070   24.3850  -29.5960 C   0  0  0  0  0  0  0  0  0  0  0  0
   -2.2040   22.8690  -30.0960 C   0  0  0  0  0  0  0  0  0  0  0  0
   -1.0480   21.9190  -30.4600 C   0  0  0  0  0  0  0  0  0  0  0  0
   -1.4240   20.9760  -31.4470 O   0  0  0  0  0  0  0  0  0  0  0  0
   -0.7140   21.1730  -32.6560 C   0  0  0  0  0  0  0  0  0  0  0  0
   -1.6710   21.1590  -33.8510 C   0  0  0  0  0  0  0  0  0  0  0  0
   -3.1080   21.5290  -33.4130 C   0  0  0  0  0  0  0  0  0  0  0  0
   -3.7090   20.6740  -32.3490 N   0  0  0  0  0  0  0  0  0  0  0  0
   -5.1000   20.2870  -32.5370 C   0  0  0  0  0  0  0  0  0  0  0  0
   -6.1320   21.2170  -32.2470 C   0  0  0  0  0  0  0  0  0  0  0  0
   -5.8550   22.5920  -32.0580 C   0  0  0  0  0  0  0  0  0  0  0  0
   -6.8760   23.5030  -31.7990 C   0  0  0  0  0  0  0  0  0  0  0  0
   -8.1940   23.0720  -31.7420 C   0  0  0  0  0  0  0  0  0  0  0  0
   -8.4960   21.7250  -31.9220 C   0  0  0  0  0  0  0  0  0  0  0  0
   -7.4730   20.7670  -32.1460 C   0  0  0  0  0  0  0  0  0  0  0  0
   -7.7610   19.4250  -32.2600 N   0  0  0  0  0  0  0  0  0  0  0  0
   -9.0720   18.9080  -31.7980 C   0  0  0  0  0  0  0  0  0  0  0  0
   -6.8270   18.5620  -32.8020 C   0  0  0  0  0  0  0  0  0  0  0  0
   -7.2050   17.2650  -33.2260 C   0  0  0  0  0  0  0  0  0  0  0  0
   -6.2760   16.3760  -33.7450 C   0  0  0  0  0  0  0  0  0  0  0  0
   -4.9570   16.7600  -33.9060 C   0  0  0  0  0  0  0  0  0  0  0  0
   -4.5350   18.0540  -33.5570 C   0  0  0  0  0  0  0  0  0  0  0  0
   -3.2200   18.4520  -33.8450 O   0  0  0  0  0  0  0  0  0  0  0  0
   -2.1630   17.5920  -34.2600 C   0  0  0  0  0  0  0  0  0  0  0  0
   -5.4650   18.9700  -32.9590 C   0  0  0  0  0  0  0  0  0  0  0  0
   -3.3663   20.6536  -26.8517 H   0  0  0  0  0  0  0  0  0  0  0  0
   -1.6812   21.0025  -27.3667 H   0  0  0  0  0  0  0  0  0  0  0  0
   -2.9099   22.3129  -27.3667 H   0  0  0  0  0  0  0  0  0  0  0  0
   -2.2597   20.3859  -29.4613 H   0  0  0  0  0  0  0  0  0  0  0  0
   -3.9918   20.2365  -28.9743 H   0  0  0  0  0  0  0  0  0  0  0  0
   -5.3964   22.5419  -29.0632 H   0  0  0  0  0  0  0  0  0  0  0  0
   -4.0699   23.0341  -27.9496 H   0  0  0  0  0  0  0  0  0  0  0  0
   -4.4170   25.1263  -28.7834 H   0  0  0  0  0  0  0  0  0  0  0  0
   -3.5108   24.5330  -30.2164 H   0  0  0  0  0  0  0  0  0  0  0  0
   -5.3069   24.5088  -30.2164 H   0  0  0  0  0  0  0  0  0  0  0  0
   -2.4122   23.5232  -30.9554 H   0  0  0  0  0  0  0  0  0  0  0  0
   -1.9012   23.4577  -29.2176 H   0  0  0  0  0  0  0  0  0  0  0  0
   -0.2059   22.5150  -30.8415 H   0  0  0  0  0  0  0  0  0  0  0  0
   -0.7662   21.3651  -29.5523 H   0  0  0  0  0  0  0  0  0  0  0  0
   -0.1973   22.1434  -32.6179 H   0  0  0  0  0  0  0  0  0  0  0  0
    0.0152   20.3583  -32.7759 H   0  0  0  0  0  0  0  0  0  0  0  0
   -1.3238   21.8872  -34.5988 H   0  0  0  0  0  0  0  0  0  0  0  0
   -1.6842   20.1455  -34.2783 H   0  0  0  0  0  0  0  0  0  0  0  0
   -3.0905   22.5645  -33.0424 H   0  0  0  0  0  0  0  0  0  0  0  0
   -3.7366   21.3794  -34.3032 H   0  0  0  0  0  0  0  0  0  0  0  0
   -3.6110   21.1620  -31.4300 H   0  0  0  0  0  0  0  0  0  0  0  0
   -3.1180   19.8280  -32.1850 H   0  0  0  0  0  0  0  0  0  0  0  0
   -4.8156   22.9472  -32.1167 H   0  0  0  0  0  0  0  0  0  0  0  0
   -6.6376   24.5650  -31.6395 H   0  0  0  0  0  0  0  0  0  0  0  0
   -9.0010   23.7956  -31.5544 H   0  0  0  0  0  0  0  0  0  0  0  0
   -9.5456   21.3975  -31.8901 H   0  0  0  0  0  0  0  0  0  0  0  0
   -9.0956   18.8987  -30.6983 H   0  0  0  0  0  0  0  0  0  0  0  0
   -9.8759   19.5564  -32.1765 H   0  0  0  0  0  0  0  0  0  0  0  0
   -9.2169   17.8854  -32.1765 H   0  0  0  0  0  0  0  0  0  0  0  0
   -8.2574   16.9562  -33.1419 H   0  0  0  0  0  0  0  0  0  0  0  0
   -6.5894   15.3608  -34.0300 H   0  0  0  0  0  0  0  0  0  0  0  0
   -4.2287   16.0429  -34.3126 H   0  0  0  0  0  0  0  0  0  0  0  0
   -1.6566   17.1799  -33.3747 H   0  0  0  0  0  0  0  0  0  0  0  0
   -2.5749   16.7693  -34.8629 H   0  0  0  0  0  0  0  0  0  0  0  0
   -1.4413   18.1627  -34.8629 H   0  0  0  0  0  0  0  0  0  0  0  0
  1  2  1  0
  2  3  1  0
  3  4  1  0
  4  5  1  0
  3  6  1  0
  6  7  1  0
  7  8  1  0
  8  9  1  0
  9 10  1  0
 10 11  1  0
 11 12  1  0
 12 13  1  0
 13 14  2  0
 14 15  1  0
 15 16  2  0
 16 17  1  0
 17 18  2  0
 18 19  1  0
 19 20  2  0
 20 21  1  0
 20 22  1  0
 22 23  2  0
 23 24  1  0
 24 25  2  0
 25 26  1  0
 26 27  1  0
 27 28  1  0
 26 29  2  0
 29 13  1  0
 19 14  1  0
 29 22  1  0
  1 30  1  0
  1 31  1  0
  1 32  1  0
  2 33  1  0
  2 34  1  0
  4 35  1  0
  4 36  1  0
  5 37  1  0
  5 38  1  0
  5 39  1  0
  6 40  1  0
  6 41  1  0
  7 42  1  0
  7 43  1  0
  9 44  1  0
  9 45  1  0
 10 46  1  0
 10 47  1  0
 11 48  1  0
 11 49  1  0
 12 50  1  0
 12 51  1  0
 15 52  1  0
 16 53  1  0
 17 54  1  0
 18 55  1  0
 21 56  1  0
 21 57  1  0
 21 58  1  0
 23 59  1  0
 24 60  1  0
 25 61  1  0
 28 62  1  0
 28 63  1  0
 28 64  1  0
M  CHG  2  12   1  20   1
M  END
>  <UniqueID>  (4) 
4

>  <SMILES>  (4) 
CCN(CC)CCOCCC[NH2+]c1c2ccccc2[n+](C)c2cccc(OC)c12

>  <Energy>  (4) 
101.35828808816993

>  <Genealogy>  (4) 
CCN(CC)CCOCCC[NH2+]c1c2ccccc2[n+](C)c2cccc(OC)c12 (protonated)
CCN(CC)CCOCCC[NH2+]c1c2ccccc2[n+](C)c2cccc(OC)c12 (3D coordinates assigned)
CCN(CC)CCOCCC[NH2+]c1c2ccccc2[n+](C)c2cccc(OC)c12 (optimized conformer: 101.35828808816993 kcal/mol)

>  <smiles>  (4) 
CCN(CC)CCOCCCNc1c2ccccc2[n+](C)c2cccc(OC)c12

>  <score_type>  (4) 
oracle

>  <origin>  (4) 
adg

>  <m_score__min__energy>  (4) 
-7.5700000000000003

>  <m_primary>  (4) 
energy

$$$$
4:0
     RDKit          3D

 37 38  0  0  0  0  0  0  0  0999 V2000
   -6.3450   25.3280  -29.7030 C   0  0  0  0  0  0  0  0  0  0  0  0
   -5.3560   25.6880  -30.8040 C   0  0  0  0  0  0  0  0  0  0  0  0
   -3.9910   25.3150  -30.3930 N   0  0  0  0  0  0  0  0  0  0  0  0
   -3.9780   24.2790  -29.3490 C   0  0  0  0  0  0  0  0  0  0  0  0
   -2.9390   23.2270  -29.6500 C   0  0  0  0  0  0  0  0  0  0  0  0
   -1.9570   22.9230  -28.6930 C   0  0  0  0  0  0  0  0  0  0  0  0
   -0.9600   21.9860  -28.9750 C   0  0  0  0  0  0  0  0  0  0  0  0
    0.3730   21.5850  -27.6680 Br  0  0  0  0  0  0  0  0  0  0  0  0
   -0.9380   21.3430  -30.2140 C   0  0  0  0  0  0  0  0  0  0  0  0
   -1.9070   21.6380  -31.1740 C   0  0  0  0  0  0  0  0  0  0  0  0
   -2.9150   22.5860  -30.9060 C   0  0  0  0  0  0  0  0  0  0  0  0
   -3.8990   22.9180  -31.8530 O   0  0  0  0  0  0  0  0  0  0  0  0
   -4.5540   21.9960  -32.7230 C   0  0  0  0  0  0  0  0  0  0  0  0
   -6.0090   21.8710  -32.3580 C   0  0  0  0  0  0  0  0  0  0  0  0
   -6.7800   23.0260  -32.1480 C   0  0  0  0  0  0  0  0  0  0  0  0
   -8.1350   22.9200  -31.8200 C   0  0  0  0  0  0  0  0  0  0  0  0
   -8.7280   21.6600  -31.6920 C   0  0  0  0  0  0  0  0  0  0  0  0
  -10.0430   21.5610  -31.3750 F   0  0  0  0  0  0  0  0  0  0  0  0
   -7.9650   20.5050  -31.8900 C   0  0  0  0  0  0  0  0  0  0  0  0
   -8.5370   19.2810  -31.7630 F   0  0  0  0  0  0  0  0  0  0  0  0
   -6.6090   20.6080  -32.2190 C   0  0  0  0  0  0  0  0  0  0  0  0
   -5.8786   25.4978  -28.7213 H   0  0  0  0  0  0  0  0  0  0  0  0
   -7.2425   25.9571  -29.7963 H   0  0  0  0  0  0  0  0  0  0  0  0
   -6.6281   24.2692  -29.7963 H   0  0  0  0  0  0  0  0  0  0  0  0
   -5.6209   25.1461  -31.7239 H   0  0  0  0  0  0  0  0  0  0  0  0
   -5.3959   26.7720  -30.9867 H   0  0  0  0  0  0  0  0  0  0  0  0
   -3.4950   24.9200  -31.2260 H   0  0  0  0  0  0  0  0  0  0  0  0
   -3.7477   24.7463  -28.3802 H   0  0  0  0  0  0  0  0  0  0  0  0
   -4.9670   23.7984  -29.3172 H   0  0  0  0  0  0  0  0  0  0  0  0
   -1.9731   23.4261  -27.7149 H   0  0  0  0  0  0  0  0  0  0  0  0
   -0.1552   20.6022  -30.4340 H   0  0  0  0  0  0  0  0  0  0  0  0
   -1.8839   21.1266  -32.1476 H   0  0  0  0  0  0  0  0  0  0  0  0
   -4.4701   22.3541  -33.7597 H   0  0  0  0  0  0  0  0  0  0  0  0
   -4.0757   21.0105  -32.6229 H   0  0  0  0  0  0  0  0  0  0  0  0
   -6.3156   24.0187  -32.2420 H   0  0  0  0  0  0  0  0  0  0  0  0
   -8.7350   23.8284  -31.6625 H   0  0  0  0  0  0  0  0  0  0  0  0
   -6.0107   19.6973  -32.3693 H   0  0  0  0  0  0  0  0  0  0  0  0
  1  2  1  0
  2  3  1  0
  3  4  1  0
  4  5  1  0
  5  6  2  0
  6  7  1  0
  7  8  1  0
  7  9  2  0
  9 10  1  0
 10 11  2  0
 11 12  1  0
 12 13  1  0
 13 14  1  0
 14 15  2  0
 15 16  1  0
 16 17  2  0
 17 18  1  0
 17 19  1  0
 19 20  1  0
 19 21  2  0
 11  5  1  0
 21 14  1  0
  1 22  1  0
  1 23  1  0
  1 24  1  0
  2 25  1  0
  2 26  1  0
  3 27  1  0
  4 28  1  0
  4 29  1  0
  6 30  1  0
  9 31  1  0
 10 32  1  0
 13 33  1  0
 13 34  1  0
 15 35  1  0
 16 36  1  0
 21 37  1  0
M  END
>  <UniqueID>  (5) 
5

>  <SMILES>  (5) 
CCNCc1cc(Br)ccc1OCc1ccc(F)c(F)c1

>  <Energy>  (5) 
33.015621855566415

>  <Genealogy>  (5) 
CCNCc1cc(Br)ccc1OCc1ccc(F)c(F)c1 (3D coordinates assigned)
CCNCc1cc(Br)ccc1OCc1ccc(F)c(F)c1 (optimized conformer: 33.015621855566415 kcal/mol)

>  <smiles>  (5) 
CCNCc1cc(Br)ccc1OCc1ccc(F)c(F)c1

>  <score_type>  (5) 
oracle

>  <origin>  (5) 
adg

>  <m_score__min__energy>  (5) 
-7.4100000000000001

>  <m_primary>  (5) 
energy

$$$$
5:0
     RDKit          3D

 47 49  0  0  0  0  0  0  0  0999 V2000
   -2.3880   20.9340  -28.3520 C   0  0  0  0  0  0  0  0  0  0  0  0
   -3.1650   21.1950  -29.6420 C   0  0  0  0  0  0  0  0  0  0  0  0
   -2.4710   22.1930  -30.4860 N   0  0  0  0  0  0  0  0  0  0  0  0
   -1.4410   21.5390  -31.3250 C   0  0  0  0  0  0  0  0  0  0  0  0
   -1.9370   21.3460  -32.7580 C   0  0  0  0  0  0  0  0  0  0  0  0
   -1.9010   23.3000  -29.6740 C   0  0  0  0  0  0  0  0  0  0  0  0
   -3.0030   24.3040  -29.3360 C   0  0  0  0  0  0  0  0  0  0  0  0
   -3.6190   24.7930  -30.5260 O   0  0  0  0  0  0  0  0  0  0  0  0
   -5.0040   24.9390  -30.6740 C   0  0  0  0  0  0  0  0  0  0  0  0
   -5.5420   26.0750  -30.5560 O   0  0  0  0  0  0  0  0  0  0  0  0
   -5.8410   23.7670  -30.9750 C   0  0  0  0  0  0  0  0  0  0  0  0
   -5.3150   22.6720  -31.6970 C   0  0  0  0  0  0  0  0  0  0  0  0
   -6.1710   21.6030  -31.9390 C   0  0  0  0  0  0  0  0  0  0  0  0
   -7.4740   21.6010  -31.4990 C   0  0  0  0  0  0  0  0  0  0  0  0
   -7.9780   22.6840  -30.7900 C   0  0  0  0  0  0  0  0  0  0  0  0
   -7.1460   23.7400  -30.5460 N   0  0  0  0  0  0  0  0  0  0  0  0
   -8.1190   20.4670  -31.8460 N   0  0  0  0  0  0  0  0  0  0  0  0
   -7.1980   19.7440  -32.5180 C   0  0  0  0  0  0  0  0  0  0  0  0
   -7.3720   18.4870  -33.0940 C   0  0  0  0  0  0  0  0  0  0  0  0
   -6.2750   17.9070  -33.7590 C   0  0  0  0  0  0  0  0  0  0  0  0
   -5.0280   18.5820  -33.8260 C   0  0  0  0  0  0  0  0  0  0  0  0
   -3.8820   17.9660  -34.5730 C   0  0  0  0  0  0  0  0  0  0  0  0
   -4.8860   19.8610  -33.2460 C   0  0  0  0  0  0  0  0  0  0  0  0
   -5.9900   20.4060  -32.5960 C   0  0  0  0  0  0  0  0  0  0  0  0
   -3.0314   21.1501  -27.4863 H   0  0  0  0  0  0  0  0  0  0  0  0
   -2.0727   19.8806  -28.3206 H   0  0  0  0  0  0  0  0  0  0  0  0
   -1.5007   21.5834  -28.3206 H   0  0  0  0  0  0  0  0  0  0  0  0
   -3.2590   20.2530  -30.2023 H   0  0  0  0  0  0  0  0  0  0  0  0
   -4.1584   21.5878  -29.3796 H   0  0  0  0  0  0  0  0  0  0  0  0
   -0.5379   22.1669  -31.3393 H   0  0  0  0  0  0  0  0  0  0  0  0
   -1.2189   20.5504  -30.8969 H   0  0  0  0  0  0  0  0  0  0  0  0
   -2.9620   20.9472  -32.7406 H   0  0  0  0  0  0  0  0  0  0  0  0
   -1.9286   22.3130  -33.2823 H   0  0  0  0  0  0  0  0  0  0  0  0
   -1.2773   20.6390  -33.2823 H   0  0  0  0  0  0  0  0  0  0  0  0
   -1.4785   22.8924  -28.7438 H   0  0  0  0  0  0  0  0  0  0  0  0
   -1.1087   23.8043  -30.2466 H   0  0  0  0  0  0  0  0  0  0  0  0
   -3.7628   23.8104  -28.7122 H   0  0  0  0  0  0  0  0  0  0  0  0
   -2.5570   25.1509  -28.7938 H   0  0  0  0  0  0  0  0  0  0  0  0
   -4.2739   22.6655  -32.0521 H   0  0  0  0  0  0  0  0  0  0  0  0
   -9.0190   22.6913  -30.4345 H   0  0  0  0  0  0  0  0  0  0  0  0
   -9.1110   20.2080  -31.6420 H   0  0  0  0  0  0  0  0  0  0  0  0
   -8.3375   17.9637  -33.0310 H   0  0  0  0  0  0  0  0  0  0  0  0
   -6.3854   16.9200  -34.2318 H   0  0  0  0  0  0  0  0  0  0  0  0
   -3.1471   17.5710  -33.8562 H   0  0  0  0  0  0  0  0  0  0  0  0
   -4.2546   17.1466  -35.2053 H   0  0  0  0  0  0  0  0  0  0  0  0
   -3.4041   18.7288  -35.2053 H   0  0  0  0  0  0  0  0  0  0  0  0
   -3.9342   20.4092  -33.3056 H   0  0  0  0  0  0  0  0  0  0  0  0
  1  2  1  0
  2  3  1  0
  3  4  1  0
  4  5  1  0
  3  6  1  0
  6  7  1  0
  7  8  1  0
  8  9  1  0
  9 10  2  0
  9 11  1  0
 11 12  2  0
 12 13  1  0
 13 14  2  0
 14 15  1  0
 15 16  2  0
 14 17  1  0
 17 18  1  0
 18 19  2  0
 19 20  1  0
 20 21  2  0
 21 22  1  0
 21 23  1  0
 23 24  2  0
 16 11  1  0
 24 18  1  0
 24 13  1  0
  1 25  1  0
  1 26  1  0
  1 27  1  0
  2 28  1  0
  2 29  1  0
  4 30  1  0
  4 31  1  0
  5 32  1  0
  5 33  1  0
  5 34  1  0
  6 35  1  0
  6 36  1  0
  7 37  1  0
  7 38  1  0
 12 39  1  0
 15 40  1  0
 17 41  1  0
 19 42  1  0
 20 43  1  0
 22 44  1  0
 22 45  1  0
 22 46  1  0
 23 47  1  0
M  END
>  <UniqueID>  (6) 
6

>  <SMILES>  (6) 
CCN(CC)CCOC(=O)c1cc2c(cn1)[nH]c1ccc(C)cc12

>  <Energy>  (6) 
85.83241762746853

>  <Genealogy>  (6) 
CCN(CC)CCOC(=O)c1cc2c(cn1)[nH]c1ccc(C)cc12 (3D coordinates assigned)
CCN(CC)CCOC(=O)c1cc2c(cn1)[nH]c1ccc(C)cc12 (optimized conformer: 85.83241762746853 kcal/mol)

>  <smiles>  (6) 
CCN(CC)CCOC(=O)c1cc2c(cn1)[nH]c1ccc(C)cc12

>  <score_type>  (6) 
oracle

>  <origin>  (6) 
adg

>  <m_score__min__energy>  (6) 
-8.1699999999999999

>  <m_primary>  (6) 
energy

$$$$
6:0
     RDKit          3D

 39 41  0  0  0  0  0  0  0  0999 V2000
   -2.1560   20.9950  -32.9570 C   0  0  0  0  0  0  0  0  0  0  0  0
   -2.8940   19.9440  -33.7840 C   0  0  0  0  0  0  0  0  0  0  0  0
   -3.4040   18.9100  -32.9640 O   0  0  0  0  0  0  0  0  0  0  0  0
   -4.6650   18.4470  -33.4210 C   0  0  0  0  0  0  0  0  0  0  0  0
   -5.7480   19.3320  -32.8900 C   0  0  0  0  0  0  0  0  0  0  0  0
   -7.1010   19.0060  -32.8460 C   0  0  0  0  0  0  0  0  0  0  0  0
   -7.6990   20.1240  -32.3130 C   0  0  0  0  0  0  0  0  0  0  0  0
   -9.0370   20.3960  -32.0450 C   0  0  0  0  0  0  0  0  0  0  0  0
   -9.3550   21.6550  -31.5100 C   0  0  0  0  0  0  0  0  0  0  0  0
   -8.3400   22.6030  -31.2560 C   0  0  0  0  0  0  0  0  0  0  0  0
   -6.9830   22.3040  -31.5270 C   0  0  0  0  0  0  0  0  0  0  0  0
   -5.9370   23.2650  -31.2660 N   0  0  0  0  0  0  0  0  0  0  0  0
   -4.5730   23.0500  -31.7650 C   0  0  0  0  0  0  0  0  0  0  0  0
   -3.5510   23.6460  -30.7870 C   0  0  0  0  0  0  0  0  0  0  0  0
   -3.8320   25.0460  -30.3960 N   0  0  0  0  0  0  0  0  0  0  0  0
   -5.1480   25.5560  -30.8120 C   0  0  0  0  0  0  0  0  0  0  0  0
   -6.2520   24.5220  -30.5740 C   0  0  0  0  0  0  0  0  0  0  0  0
   -6.7080   21.0400  -32.0680 C   0  0  0  0  0  0  0  0  0  0  0  0
   -5.5450   20.5510  -32.4250 O   0  0  0  0  0  0  0  0  0  0  0  0
   -2.3015   20.7878  -31.8865 H   0  0  0  0  0  0  0  0  0  0  0  0
   -1.0825   20.9609  -33.1944 H   0  0  0  0  0  0  0  0  0  0  0  0
   -2.5525   21.9932  -33.1944 H   0  0  0  0  0  0  0  0  0  0  0  0
   -3.7289   20.4262  -34.3136 H   0  0  0  0  0  0  0  0  0  0  0  0
   -2.1834   19.5023  -34.4982 H   0  0  0  0  0  0  0  0  0  0  0  0
   -4.6846   18.4643  -34.5207 H   0  0  0  0  0  0  0  0  0  0  0  0
   -4.8269   17.4187  -33.0656 H   0  0  0  0  0  0  0  0  0  0  0  0
   -7.5814   18.0691  -33.1645 H   0  0  0  0  0  0  0  0  0  0  0  0
   -9.8198   19.6496  -32.2455 H   0  0  0  0  0  0  0  0  0  0  0  0
  -10.4029   21.9044  -31.2871 H   0  0  0  0  0  0  0  0  0  0  0  0
   -8.6070   23.5866  -30.8422 H   0  0  0  0  0  0  0  0  0  0  0  0
   -4.3899   21.9703  -31.8687 H   0  0  0  0  0  0  0  0  0  0  0  0
   -4.4659   23.5444  -32.7418 H   0  0  0  0  0  0  0  0  0  0  0  0
   -3.5433   23.0283  -29.8768 H   0  0  0  0  0  0  0  0  0  0  0  0
   -2.5813   23.6508  -31.3063 H   0  0  0  0  0  0  0  0  0  0  0  0
   -3.0990   25.6680  -30.8110 H   0  0  0  0  0  0  0  0  0  0  0  0
   -5.3782   26.4637  -30.2349 H   0  0  0  0  0  0  0  0  0  0  0  0
   -5.1079   25.7760  -31.8890 H   0  0  0  0  0  0  0  0  0  0  0  0
   -6.3405   24.3288  -29.4947 H   0  0  0  0  0  0  0  0  0  0  0  0
   -7.2003   24.9169  -30.9674 H   0  0  0  0  0  0  0  0  0  0  0  0
  1  2  1  0
  2  3  1  0
  3  4  1  0
  4  5  1  0
  5  6  2  0
  6  7  1  0
  7  8  2  0
  8  9  1  0
  9 10  2  0
 10 11  1  0
 11 12  1  0
 12 13  1  0
 13 14  1  0
 14 15  1  0
 15 16  1  0
 16 17  1  0
 11 18  2  0
 18 19  1  0
 19  5  1  0
 18  7  1  0
 17 12  1  0
  1 20  1  0
  1 21  1  0
  1 22  1  0
  2 23  1  0
  2 24  1  0
  4 25  1  0
  4 26  1  0
  6 27  1  0
  8 28  1  0
  9 29  1  0
 10 30  1  0
 13 31  1  0
 13 32  1  0
 14 33  1  0
 14 34  1  0
 15 35  1  0
 16 36  1  0
 16 37  1  0
 17 38  1  0
 17 39  1  0
M  END
>  <UniqueID>  (7) 
7

>  <SMILES>  (7) 
CCOCc1cc2cccc(N3CCNCC3)c2o1

>  <Energy>  (7) 
80.6142993892834

>  <Genealogy>  (7) 
CCOCc1cc2cccc(N3CCNCC3)c2o1 (3D coordinates assigned)
CCOCc1cc2cccc(N3CCNCC3)c2o1 (nonaromatic ring conformer: 80.6142993892834 kcal/mol)

>  <smiles>  (7) 
CCOCc1cc2cccc(N3CCNCC3)c2o1

>  <score_type>  (7) 
oracle

>  <origin>  (7) 
adg

>  <m_score__min__energy>  (7) 
-7.5599999999999996

>  <m_primary>  (7) 
energy

$$$$
7:0
     RDKit          3D

 28 29  0  0  0  0  0  0  0  0999 V2000
   -2.8320   21.2000  -32.6710 C   0  0  0  0  0  0  0  0  0  0  0  0
   -3.6010   22.2940  -32.0840 N   0  0  0  0  0  0  0  0  0  0  0  0
   -5.0350   22.2680  -31.9320 C   0  0  0  0  0  0  0  0  0  0  0  0
   -5.7730   21.0910  -32.2150 C   0  0  0  0  0  0  0  0  0  0  0  0
   -7.1570   21.1190  -32.0530 C   0  0  0  0  0  0  0  0  0  0  0  0
   -7.8060   22.2450  -31.6320 C   0  0  0  0  0  0  0  0  0  0  0  0
   -9.1540   21.9550  -31.5720 C   0  0  0  0  0  0  0  0  0  0  0  0
   -9.2600   20.6270  -31.9710 C   0  0  0  0  0  0  0  0  0  0  0  0
   -8.0380   20.1230  -32.2640 N   0  0  0  0  0  0  0  0  0  0  0  0
   -7.7470   18.7660  -32.7170 C   0  0  0  0  0  0  0  0  0  0  0  0
   -7.1270   23.4220  -31.3420 C   0  0  0  0  0  0  0  0  0  0  0  0
   -5.7180   23.4400  -31.4930 C   0  0  0  0  0  0  0  0  0  0  0  0
   -4.9700   24.5950  -31.2180 O   0  0  0  0  0  0  0  0  0  0  0  0
   -5.4160   25.6740  -30.4020 C   0  0  0  0  0  0  0  0  0  0  0  0
   -2.3992   20.5843  -31.8688 H   0  0  0  0  0  0  0  0  0  0  0  0
   -3.4936   20.5793  -33.2932 H   0  0  0  0  0  0  0  0  0  0  0  0
   -2.0240   21.6123  -33.2932 H   0  0  0  0  0  0  0  0  0  0  0  0
   -3.0640   23.1310  -31.7620 H   0  0  0  0  0  0  0  0  0  0  0  0
   -5.2648   20.1765  -32.5547 H   0  0  0  0  0  0  0  0  0  0  0  0
   -9.9697   22.6296  -31.2727 H   0  0  0  0  0  0  0  0  0  0  0  0
  -10.2034   20.0654  -32.0390 H   0  0  0  0  0  0  0  0  0  0  0  0
   -7.6064   18.1105  -31.8449 H   0  0  0  0  0  0  0  0  0  0  0  0
   -8.5858   18.3942  -33.3237 H   0  0  0  0  0  0  0  0  0  0  0  0
   -6.8295   18.7708  -33.3237 H   0  0  0  0  0  0  0  0  0  0  0  0
   -7.6694   24.3172  -31.0038 H   0  0  0  0  0  0  0  0  0  0  0  0
   -5.3039   25.4027  -29.3419 H   0  0  0  0  0  0  0  0  0  0  0  0
   -4.8142   26.5694  -30.6170 H   0  0  0  0  0  0  0  0  0  0  0  0
   -6.4743   25.8832  -30.6170 H   0  0  0  0  0  0  0  0  0  0  0  0
  1  2  1  0
  2  3  1  0
  3  4  2  0
  4  5  1  0
  5  6  2  0
  6  7  1  0
  7  8  2  0
  8  9  1  0
  9 10  1  0
  6 11  1  0
 11 12  2  0
 12 13  1  0
 13 14  1  0
 12  3  1  0
  9  5  1  0
  1 15  1  0
  1 16  1  0
  1 17  1  0
  2 18  1  0
  4 19  1  0
  7 20  1  0
  8 21  1  0
 10 22  1  0
 10 23  1  0
 10 24  1  0
 11 25  1  0
 14 26  1  0
 14 27  1  0
 14 28  1  0
M  END
>  <UniqueID>  (8) 
8

>  <SMILES>  (8) 
CNc1cc2c(ccn2C)cc1OC

>  <Energy>  (8) 
59.175456554163034

>  <Genealogy>  (8) 
CNc1cc2c(ccn2C)cc1OC (3D coordinates assigned)
CNc1cc2c(ccn2C)cc1OC (optimized conformer: 59.175456554163034 kcal/mol)

>  <smiles>  (8) 
CNc1cc2c(ccn2C)cc1OC

>  <score_type>  (8) 
oracle

>  <origin>  (8) 
adg

>  <m_score__min__energy>  (8) 
-5.5700000000000003

>  <m_primary>  (8) 
energy

$$$$
8:0
     RDKit          3D

 77 80  0  0  0  0  0  0  0  0999 V2000
    1.6280   22.1860  -35.7440 C   0  0  0  0  0  0  0  0  0  0  0  0
    0.1450   22.0180  -35.3790 C   0  0  0  0  0  0  0  0  0  0  0  0
   -0.2540   20.6340  -35.0270 N   0  0  0  0  0  0  0  0  0  0  0  0
    0.2660   19.5730  -35.9040 C   0  0  0  0  0  0  0  0  0  0  0  0
   -0.2050   20.3060  -33.5860 C   0  0  0  0  0  0  0  0  0  0  0  0
   -1.4260   20.8000  -32.7880 C   0  0  0  0  0  0  0  0  0  0  0  0
   -2.4830   21.2770  -33.6970 N   0  0  0  0  0  0  0  0  0  0  0  0
   -3.7980   21.0980  -33.1040 C   0  0  0  0  0  0  0  0  0  0  0  0
   -4.6070   19.9830  -33.4470 C   0  0  0  0  0  0  0  0  0  0  0  0
   -4.1070   18.9100  -34.2270 C   0  0  0  0  0  0  0  0  0  0  0  0
   -4.9040   17.8100  -34.5290 C   0  0  0  0  0  0  0  0  0  0  0  0
   -6.2050   17.7390  -34.0510 C   0  0  0  0  0  0  0  0  0  0  0  0
   -6.7240   18.7770  -33.2830 C   0  0  0  0  0  0  0  0  0  0  0  0
   -5.9510   19.9290  -32.9860 C   0  0  0  0  0  0  0  0  0  0  0  0
   -6.4750   20.9720  -32.2510 N   0  0  0  0  0  0  0  0  0  0  0  0
   -7.9390   21.0850  -32.0650 C   0  0  0  0  0  0  0  0  0  0  0  0
   -5.6330   21.9150  -31.6960 C   0  0  0  0  0  0  0  0  0  0  0  0
   -6.0800   22.7910  -30.6750 C   0  0  0  0  0  0  0  0  0  0  0  0
   -5.2340   23.7640  -30.1180 C   0  0  0  0  0  0  0  0  0  0  0  0
   -5.6660   24.6440  -29.1120 O   0  0  0  0  0  0  0  0  0  0  0  0
   -6.4920   25.7840  -29.3300 C   0  0  0  0  0  0  0  0  0  0  0  0
   -3.9170   23.8660  -30.5600 C   0  0  0  0  0  0  0  0  0  0  0  0
   -3.0880   24.8310  -29.9630 O   0  0  0  0  0  0  0  0  0  0  0  0
   -1.9640   24.5360  -29.1360 C   0  0  0  0  0  0  0  0  0  0  0  0
   -2.4310   24.4390  -27.6700 C   0  0  0  0  0  0  0  0  0  0  0  0
   -1.5290   25.0690  -26.6470 N   0  0  0  0  0  0  0  0  0  0  0  0
   -0.6770   24.0150  -26.0250 C   0  0  0  0  0  0  0  0  0  0  0  0
   -0.6440   26.0560  -27.3720 C   0  0  0  0  0  0  0  0  0  0  0  0
   -0.4810   27.4230  -26.6770 C   0  0  0  0  0  0  0  0  0  0  0  0
   -0.3170   27.2600  -25.1730 C   0  0  0  0  0  0  0  0  0  0  0  0
   -1.5090   26.5150  -24.5560 C   0  0  0  0  0  0  0  0  0  0  0  0
   -2.3510   25.7390  -25.5930 C   0  0  0  0  0  0  0  0  0  0  0  0
   -3.4520   23.0020  -31.5620 C   0  0  0  0  0  0  0  0  0  0  0  0
   -4.2860   22.0110  -32.1300 C   0  0  0  0  0  0  0  0  0  0  0  0
    2.2267   22.2538  -34.8237 H   0  0  0  0  0  0  0  0  0  0  0  0
    1.9606   21.3198  -36.3348 H   0  0  0  0  0  0  0  0  0  0  0  0
    1.7584   23.1047  -36.3348 H   0  0  0  0  0  0  0  0  0  0  0  0
   -0.0713   22.6665  -34.5172 H   0  0  0  0  0  0  0  0  0  0  0  0
   -0.4285   22.2872  -36.2783 H   0  0  0  0  0  0  0  0  0  0  0  0
    0.6676   18.7536  -35.2898 H   0  0  0  0  0  0  0  0  0  0  0  0
   -0.5469   19.1909  -36.5389 H   0  0  0  0  0  0  0  0  0  0  0  0
    1.0661   19.9814  -36.5389 H   0  0  0  0  0  0  0  0  0  0  0  0
   -0.1436   19.2126  -33.4823 H   0  0  0  0  0  0  0  0  0  0  0  0
    0.6744   20.8214  -33.1726 H   0  0  0  0  0  0  0  0  0  0  0  0
   -1.8191   19.9720  -32.1798 H   0  0  0  0  0  0  0  0  0  0  0  0
   -1.1128   21.6329  -32.1413 H   0  0  0  0  0  0  0  0  0  0  0  0
   -2.3340   22.2810  -33.9480 H   0  0  0  0  0  0  0  0  0  0  0  0
   -2.4150   20.7880  -34.6170 H   0  0  0  0  0  0  0  0  0  0  0  0
   -3.0726   18.9476  -34.5994 H   0  0  0  0  0  0  0  0  0  0  0  0
   -4.5018   16.9946  -35.1482 H   0  0  0  0  0  0  0  0  0  0  0  0
   -6.8269   16.8609  -34.2795 H   0  0  0  0  0  0  0  0  0  0  0  0
   -7.7522   18.7030  -32.8993 H   0  0  0  0  0  0  0  0  0  0  0  0
   -8.1717   21.1030  -30.9901 H   0  0  0  0  0  0  0  0  0  0  0  0
   -8.2975   22.0135  -32.5334 H   0  0  0  0  0  0  0  0  0  0  0  0
   -8.4358   20.2225  -32.5334 H   0  0  0  0  0  0  0  0  0  0  0  0
   -7.1143   22.7067  -30.3102 H   0  0  0  0  0  0  0  0  0  0  0  0
   -6.7977   26.2059  -28.3612 H   0  0  0  0  0  0  0  0  0  0  0  0
   -5.9307   26.5401  -29.8985 H   0  0  0  0  0  0  0  0  0  0  0  0
   -7.3853   25.4862  -29.8985 H   0  0  0  0  0  0  0  0  0  0  0  0
   -1.5196   23.5786  -29.4456 H   0  0  0  0  0  0  0  0  0  0  0  0
   -1.2113   25.3321  -29.2343 H   0  0  0  0  0  0  0  0  0  0  0  0
   -3.4142   24.9268  -27.5973 H   0  0  0  0  0  0  0  0  0  0  0  0
   -2.4420   23.3648  -27.4334 H   0  0  0  0  0  0  0  0  0  0  0  0
   -0.7394   24.0923  -24.9295 H   0  0  0  0  0  0  0  0  0  0  0  0
   -1.0300   23.0230  -26.3433 H   0  0  0  0  0  0  0  0  0  0  0  0
    0.3669   24.1522  -26.3433 H   0  0  0  0  0  0  0  0  0  0  0  0
    0.3542   25.6058  -27.4763 H   0  0  0  0  0  0  0  0  0  0  0  0
   -1.1363   26.2589  -28.3345 H   0  0  0  0  0  0  0  0  0  0  0  0
    0.4084   27.9277  -27.0822 H   0  0  0  0  0  0  0  0  0  0  0  0
   -1.3856   28.0197  -26.8659 H   0  0  0  0  0  0  0  0  0  0  0  0
    0.6028   26.6909  -24.9731 H   0  0  0  0  0  0  0  0  0  0  0  0
   -0.2633   28.2612  -24.7205 H   0  0  0  0  0  0  0  0  0  0  0  0
   -1.1265   25.8003  -23.8124 H   0  0  0  0  0  0  0  0  0  0  0  0
   -2.1669   27.2723  -24.1048 H   0  0  0  0  0  0  0  0  0  0  0  0
   -2.9328   24.9699  -25.0639 H   0  0  0  0  0  0  0  0  0  0  0  0
   -2.9943   26.4722  -26.1016 H   0  0  0  0  0  0  0  0  0  0  0  0
   -2.4143   23.0973  -31.9144 H   0  0  0  0  0  0  0  0  0  0  0  0
  1  2  1  0
  2  3  1  0
  3  4  1  0
  3  5  1  0
  5  6  1  0
  6  7  1  0
  7  8  1  0
  8  9  2  0
  9 10  1  0
 10 11  2  0
 11 12  1  0
 12 13  2  0
 13 14  1  0
 14 15  2  0
 15 16  1  0
 15 17  1  0
 17 18  2  0
 18 19  1  0
 19 20  1  0
 20 21  1  0
 19 22  2  0
 22 23  1  0
 23 24  1  0
 24 25  1  0
 25 26  1  0
 26 27  1  0
 26 28  1  0
 28 29  1  0
 29 30  1  0
 30 31  1  0
 31 32  1  0
 22 33  1  0
 33 34  2  0
 34  8  1  0
 14  9  1  0
 34 17  1  0
 32 26  1  0
  1 35  1  0
  1 36  1  0
  1 37  1  0
  2 38  1  0
  2 39  1  0
  4 40  1  0
  4 41  1  0
  4 42  1  0
  5 43  1  0
  5 44  1  0
  6 45  1  0
  6 46  1  0
  7 47  1  0
  7 48  1  0
 10 49  1  0
 11 50  1  0
 12 51  1  0
 13 52  1  0
 16 53  1  0
 16 54  1  0
 16 55  1  0
 18 56  1  0
 21 57  1  0
 21 58  1  0
 21 59  1  0
 24 60  1  0
 24 61  1  0
 25 62  1  0
 25 63  1  0
 27 64  1  0
 27 65  1  0
 27 66  1  0
 28 67  1  0
 28 68  1  0
 29 69  1  0
 29 70  1  0
 30 71  1  0
 30 72  1  0
 31 73  1  0
 31 74  1  0
 32 75  1  0
 32 76  1  0
 33 77  1  0
M  CHG  3   7   1  15   1  26   1
M  END
>  <UniqueID>  (9) 
9

>  <SMILES>  (9) 
CCN(C)CC[NH2+]c1c2ccccc2[n+](C)c2cc(OC)c(OCC[N+]3(C)CCCCC3)cc12

>  <Energy>  (9) 
126.40181243927222

>  <Genealogy>  (9) 
CCN(C)CC[NH2+]c1c2ccccc2[n+](C)c2cc(OC)c(OCC[N+]3(C)CCCCC3)cc12 (protonated)
CCN(C)CC[NH2+]c1c2ccccc2[n+](C)c2cc(OC)c(OCC[N+]3(C)CCCCC3)cc12 (3D coordinates assigned)
CCN(C)CC[NH2+]c1c2ccccc2[n+](C)c2cc(OC)c(OCC[N+]3(C)CCCCC3)cc12 (nonaromatic ring conformer: 126.40181243927222 kcal/mol)

>  <smiles>  (9) 
CCN(C)CCNc1c2ccccc2[n+](C)c2cc(OC)c(OCC[N+]3(C)CCCCC3)cc12

>  <score_type>  (9) 
oracle

>  <origin>  (9) 
adg

>  <m_score__min__energy>  (9) 
-7.8600000000000003

>  <m_primary>  (9) 
energy

$$$$
9:0
     RDKit          3D

 62 64  0  0  0  0  0  0  0  0999 V2000
   -5.8230   14.8460  -34.0660 C   0  0  0  0  0  0  0  0  0  0  0  0
   -6.8480   15.9750  -34.1430 C   0  0  0  0  0  0  0  0  0  0  0  0
   -6.2600   17.2450  -33.6550 N   0  0  0  0  0  0  0  0  0  0  0  0
   -5.5890   17.0530  -32.3480 C   0  0  0  0  0  0  0  0  0  0  0  0
   -6.4580   17.6180  -31.2270 C   0  0  0  0  0  0  0  0  0  0  0  0
   -5.3320   17.8140  -34.6610 C   0  0  0  0  0  0  0  0  0  0  0  0
   -4.6630   19.1100  -34.1620 C   0  0  0  0  0  0  0  0  0  0  0  0
   -3.3510   18.8780  -33.6900 O   0  0  0  0  0  0  0  0  0  0  0  0
   -2.4920   19.9350  -34.0670 C   0  0  0  0  0  0  0  0  0  0  0  0
   -2.5360   21.0260  -32.9990 C   0  0  0  0  0  0  0  0  0  0  0  0
   -3.4940   20.6880  -31.9480 N   0  0  0  0  0  0  0  0  0  0  0  0
   -4.2830   21.7090  -31.3240 C   0  0  0  0  0  0  0  0  0  0  0  0
   -3.6780   22.6490  -30.4760 C   0  0  0  0  0  0  0  0  0  0  0  0
   -2.2990   22.5770  -30.1900 C   0  0  0  0  0  0  0  0  0  0  0  0
   -1.7090   23.4820  -29.3100 C   0  0  0  0  0  0  0  0  0  0  0  0
   -2.4830   24.4570  -28.6920 C   0  0  0  0  0  0  0  0  0  0  0  0
   -3.8480   24.5490  -28.9640 C   0  0  0  0  0  0  0  0  0  0  0  0
   -4.4720   23.6670  -29.8840 C   0  0  0  0  0  0  0  0  0  0  0  0
   -5.8180   23.7630  -30.1900 N   0  0  0  0  0  0  0  0  0  0  0  0
   -6.5790   24.9730  -29.8060 C   0  0  0  0  0  0  0  0  0  0  0  0
   -6.4460   22.7370  -30.8730 C   0  0  0  0  0  0  0  0  0  0  0  0
   -7.8580   22.6600  -30.9740 C   0  0  0  0  0  0  0  0  0  0  0  0
   -8.4750   21.6430  -31.7010 C   0  0  0  0  0  0  0  0  0  0  0  0
   -7.7120   20.6580  -32.3360 C   0  0  0  0  0  0  0  0  0  0  0  0
   -8.3520   19.6220  -33.1080 N   0  0  0  0  0  0  0  0  0  0  0  0
   -9.3460   18.9230  -32.2920 C   0  0  0  0  0  0  0  0  0  0  0  0
   -6.3170   20.7040  -32.2320 C   0  0  0  0  0  0  0  0  0  0  0  0
   -5.6780   21.7120  -31.4820 C   0  0  0  0  0  0  0  0  0  0  0  0
   -5.6120   14.6136  -33.0117 H   0  0  0  0  0  0  0  0  0  0  0  0
   -6.2242   13.9518  -34.5654 H   0  0  0  0  0  0  0  0  0  0  0  0
   -4.8943   15.1592  -34.5654 H   0  0  0  0  0  0  0  0  0  0  0  0
   -7.1683   16.1024  -35.1876 H   0  0  0  0  0  0  0  0  0  0  0  0
   -7.7100   15.7162  -33.5106 H   0  0  0  0  0  0  0  0  0  0  0  0
   -5.4261   15.9787  -32.1765 H   0  0  0  0  0  0  0  0  0  0  0  0
   -4.6235   17.5799  -32.3569 H   0  0  0  0  0  0  0  0  0  0  0  0
   -6.0283   17.3386  -30.2537 H   0  0  0  0  0  0  0  0  0  0  0  0
   -6.4963   18.7142  -31.3098 H   0  0  0  0  0  0  0  0  0  0  0  0
   -7.4755   17.2082  -31.3098 H   0  0  0  0  0  0  0  0  0  0  0  0
   -4.5497   17.0728  -34.8818 H   0  0  0  0  0  0  0  0  0  0  0  0
   -5.9150   18.0576  -35.5614 H   0  0  0  0  0  0  0  0  0  0  0  0
   -4.6201   19.8304  -34.9921 H   0  0  0  0  0  0  0  0  0  0  0  0
   -5.2613   19.5027  -33.3266 H   0  0  0  0  0  0  0  0  0  0  0  0
   -1.4637   19.5564  -34.1634 H   0  0  0  0  0  0  0  0  0  0  0  0
   -2.8195   20.3500  -35.0317 H   0  0  0  0  0  0  0  0  0  0  0  0
   -1.5361   21.1347  -32.5536 H   0  0  0  0  0  0  0  0  0  0  0  0
   -2.8503   21.9683  -33.4716 H   0  0  0  0  0  0  0  0  0  0  0  0
   -3.7030   19.6930  -31.7110 H   0  0  0  0  0  0  0  0  0  0  0  0
   -1.6835   21.7994  -30.6659 H   0  0  0  0  0  0  0  0  0  0  0  0
   -0.6299   23.4247  -29.1043 H   0  0  0  0  0  0  0  0  0  0  0  0
   -2.0170   25.1593  -27.9852 H   0  0  0  0  0  0  0  0  0  0  0  0
   -4.4503   25.3174  -28.4573 H   0  0  0  0  0  0  0  0  0  0  0  0
   -6.6243   25.0450  -28.7093 H   0  0  0  0  0  0  0  0  0  0  0  0
   -6.0789   25.8648  -30.2117 H   0  0  0  0  0  0  0  0  0  0  0  0
   -7.5994   24.9085  -30.2117 H   0  0  0  0  0  0  0  0  0  0  0  0
   -8.4777   23.4161  -30.4698 H   0  0  0  0  0  0  0  0  0  0  0  0
   -9.5721   21.6151  -31.7758 H   0  0  0  0  0  0  0  0  0  0  0  0
   -7.6420   18.9320  -33.4510 H   0  0  0  0  0  0  0  0  0  0  0  0
   -8.8240   20.0380  -33.9460 H   0  0  0  0  0  0  0  0  0  0  0  0
   -9.1221   19.0805  -31.2266 H   0  0  0  0  0  0  0  0  0  0  0  0
  -10.3481   19.3163  -32.5181 H   0  0  0  0  0  0  0  0  0  0  0  0
   -9.3148   17.8469  -32.5181 H   0  0  0  0  0  0  0  0  0  0  0  0
   -5.7102   19.9421  -32.7432 H   0  0  0  0  0  0  0  0  0  0  0  0
  1  2  1  0
  2  3  1  0
  3  4  1  0
  4  5  1  0
  3  6  1  0
  6  7  1  0
  7  8  1  0
  8  9  1  0
  9 10  1  0
 10 11  1  0
 11 12  1  0
 12 13  2  0
 13 14  1  0
 14 15  2  0
 15 16  1  0
 16 17  2  0
 17 18  1  0
 18 19  2  0
 19 20  1  0
 19 21  1  0
 21 22  2  0
 22 23  1  0
 23 24  2  0
 24 25  1  0
 25 26  1  0
 24 27  1  0
 27 28  2  0
 28 12  1  0
 18 13  1  0
 28 21  1  0
  1 29  1  0
  1 30  1  0
  1 31  1  0
  2 32  1  0
  2 33  1  0
  4 34  1  0
  4 35  1  0
  5 36  1  0
  5 37  1  0
  5 38  1  0
  6 39  1  0
  6 40  1  0
  7 41  1  0
  7 42  1  0
  9 43  1  0
  9 44  1  0
 10 45  1  0
 10 46  1  0
 11 47  1  0
 14 48  1  0
 15 49  1  0
 16 50  1  0
 17 51  1  0
 20 52  1  0
 20 53  1  0
 20 54  1  0
 22 55  1  0
 23 56  1  0
 25 57  1  0
 25 58  1  0
 26 59  1  0
 26 60  1  0
 26 61  1  0
 27 62  1  0
M  CHG  2  19   1  25   1
M  END
>  <UniqueID>  (10) 
10

>  <SMILES>  (10) 
CCN(CC)CCOCCNc1c2ccccc2[n+](C)c2ccc([NH2+]C)cc12

>  <Energy>  (10) 
83.48192508698423

>  <Genealogy>  (10) 
CCN(CC)CCOCCNc1c2ccccc2[n+](C)c2ccc([NH2+]C)cc12 (protonated)
CCN(CC)CCOCCNc1c2ccccc2[n+](C)c2ccc([NH2+]C)cc12 (3D coordinates assigned)
CCN(CC)CCOCCNc1c2ccccc2[n+](C)c2ccc([NH2+]C)cc12 (optimized conformer: 83.48192508698423 kcal/mol)

>  <smiles>  (10) 
CCN(CC)CCOCCNc1c2ccccc2[n+](C)c2ccc(NC)cc12

>  <score_type>  (10) 
oracle

>  <origin>  (10) 
adg

>  <m_score__min__energy>  (10) 
-7.9800000000000004

>  <m_primary>  (10) 
energy

$$$$
10:0
     RDKit          3D

 67 70  0  0  0  0  0  0  0  0999 V2000
   -5.9100   25.2990  -30.0770 C   0  0  0  0  0  0  0  0  0  0  0  0
   -4.8890   24.1770  -29.9270 C   0  0  0  0  0  0  0  0  0  0  0  0
   -4.0710   24.0510  -31.1430 N   0  0  0  0  0  0  0  0  0  0  0  0
   -3.1430   22.9120  -31.0500 C   0  0  0  0  0  0  0  0  0  0  0  0
   -3.2820   21.9820  -32.2690 C   0  0  0  0  0  0  0  0  0  0  0  0
   -4.5020   22.2380  -33.0600 N   0  0  0  0  0  0  0  0  0  0  0  0
   -5.5320   21.2380  -32.8410 C   0  0  0  0  0  0  0  0  0  0  0  0
   -6.8450   21.5770  -32.3980 C   0  0  0  0  0  0  0  0  0  0  0  0
   -7.2100   22.9180  -32.1400 C   0  0  0  0  0  0  0  0  0  0  0  0
   -8.5040   23.2430  -31.7380 C   0  0  0  0  0  0  0  0  0  0  0  0
   -9.4690   22.2520  -31.6150 C   0  0  0  0  0  0  0  0  0  0  0  0
   -9.1460   20.9210  -31.8640 C   0  0  0  0  0  0  0  0  0  0  0  0
   -7.8290   20.5430  -32.2230 C   0  0  0  0  0  0  0  0  0  0  0  0
   -7.4980   19.2140  -32.4300 N   0  0  0  0  0  0  0  0  0  0  0  0
   -8.3850   18.1230  -31.9940 C   0  0  0  0  0  0  0  0  0  0  0  0
   -6.2740   18.9330  -32.9770 C   0  0  0  0  0  0  0  0  0  0  0  0
   -5.2910   19.8880  -33.1280 C   0  0  0  0  0  0  0  0  0  0  0  0
   -4.1450   19.3380  -33.5980 N   0  0  0  0  0  0  0  0  0  0  0  0
   -4.4230   18.0330  -33.7780 C   0  0  0  0  0  0  0  0  0  0  0  0
   -3.5530   17.0630  -34.2790 C   0  0  0  0  0  0  0  0  0  0  0  0
   -4.0550   15.7600  -34.4980 C   0  0  0  0  0  0  0  0  0  0  0  0
   -3.2520   14.7260  -34.9970 O   0  0  0  0  0  0  0  0  0  0  0  0
   -2.2310   14.0660  -34.2510 C   0  0  0  0  0  0  0  0  0  0  0  0
   -2.5700   14.0950  -32.7460 C   0  0  0  0  0  0  0  0  0  0  0  0
   -3.3360   12.9140  -32.2330 N   0  0  0  0  0  0  0  0  0  0  0  0
   -2.3680   11.9800  -31.6040 C   0  0  0  0  0  0  0  0  0  0  0  0
   -4.0170   12.1910  -33.3370 C   0  0  0  0  0  0  0  0  0  0  0  0
   -4.3290   13.3120  -31.2090 C   0  0  0  0  0  0  0  0  0  0  0  0
   -5.4110   15.4810  -34.2260 C   0  0  0  0  0  0  0  0  0  0  0  0
   -6.2630   16.4670  -33.6980 C   0  0  0  0  0  0  0  0  0  0  0  0
   -5.7270   17.7370  -33.4410 C   0  0  0  0  0  0  0  0  0  0  0  0
   -6.2243   25.6443  -29.0810 H   0  0  0  0  0  0  0  0  0  0  0  0
   -5.4570   26.1356  -30.6291 H   0  0  0  0  0  0  0  0  0  0  0  0
   -6.7855   24.9267  -30.6291 H   0  0  0  0  0  0  0  0  0  0  0  0
   -4.2330   24.3979  -29.0721 H   0  0  0  0  0  0  0  0  0  0  0  0
   -5.4255   23.2309  -29.7626 H   0  0  0  0  0  0  0  0  0  0  0  0
   -3.4900   24.9220  -31.2230 H   0  0  0  0  0  0  0  0  0  0  0  0
   -2.1117   23.2919  -31.0038 H   0  0  0  0  0  0  0  0  0  0  0  0
   -3.3848   22.3378  -30.1435 H   0  0  0  0  0  0  0  0  0  0  0  0
   -2.4069   22.1256  -32.9198 H   0  0  0  0  0  0  0  0  0  0  0  0
   -3.3495   20.9522  -31.8883 H   0  0  0  0  0  0  0  0  0  0  0  0
   -4.2480   22.3190  -34.0690 H   0  0  0  0  0  0  0  0  0  0  0  0
   -4.8780   23.1830  -32.8170 H   0  0  0  0  0  0  0  0  0  0  0  0
   -6.4622   23.7160  -32.2582 H   0  0  0  0  0  0  0  0  0  0  0  0
   -8.7623   24.2892  -31.5171 H   0  0  0  0  0  0  0  0  0  0  0  0
  -10.4940   22.5202  -31.3193 H   0  0  0  0  0  0  0  0  0  0  0  0
   -9.9263   20.1502  -31.7806 H   0  0  0  0  0  0  0  0  0  0  0  0
   -8.4122   18.0896  -30.8948 H   0  0  0  0  0  0  0  0  0  0  0  0
   -9.3997   18.2987  -32.3807 H   0  0  0  0  0  0  0  0  0  0  0  0
   -8.0059   17.1655  -32.3807 H   0  0  0  0  0  0  0  0  0  0  0  0
   -3.2330   19.7980  -33.8000 H   0  0  0  0  0  0  0  0  0  0  0  0
   -2.5029   17.3067  -34.4979 H   0  0  0  0  0  0  0  0  0  0  0  0
   -2.1534   13.0212  -34.5862 H   0  0  0  0  0  0  0  0  0  0  0  0
   -1.2744   14.5839  -34.4143 H   0  0  0  0  0  0  0  0  0  0  0  0
   -1.6245   14.1541  -32.1870 H   0  0  0  0  0  0  0  0  0  0  0  0
   -3.2265   14.9657  -32.6017 H   0  0  0  0  0  0  0  0  0  0  0  0
   -2.4451   12.0544  -30.5092 H   0  0  0  0  0  0  0  0  0  0  0  0
   -2.5945   10.9505  -31.9184 H   0  0  0  0  0  0  0  0  0  0  0  0
   -1.3473   12.2432  -31.9184 H   0  0  0  0  0  0  0  0  0  0  0  0
   -4.7138   11.4513  -32.9160 H   0  0  0  0  0  0  0  0  0  0  0  0
   -4.5746   12.9089  -33.9564 H   0  0  0  0  0  0  0  0  0  0  0  0
   -3.2670   11.6773  -33.9564 H   0  0  0  0  0  0  0  0  0  0  0  0
   -3.9092   13.1437  -30.2063 H   0  0  0  0  0  0  0  0  0  0  0  0
   -4.5735   14.3776  -31.3301 H   0  0  0  0  0  0  0  0  0  0  0  0
   -5.2418   12.7103  -31.3301 H   0  0  0  0  0  0  0  0  0  0  0  0
   -5.8081   14.4757  -34.4303 H   0  0  0  0  0  0  0  0  0  0  0  0
   -7.3212   16.2481  -33.4921 H   0  0  0  0  0  0  0  0  0  0  0  0
  1  2  1  0
  2  3  1  0
  3  4  1  0
  4  5  1  0
  5  6  1  0
  6  7  1  0
  7  8  2  0
  8  9  1  0
  9 10  2  0
 10 11  1  0
 11 12  2  0
 12 13  1  0
 13 14  2  0
 14 15  1  0
 14 16  1  0
 16 17  2  0
 17 18  1  0
 18 19  1  0
 19 20  2  0
 20 21  1  0
 21 22  1  0
 22 23  1  0
 23 24  1  0
 24 25  1  0
 25 26  1  0
 25 27  1  0
 25 28  1  0
 21 29  2  0
 29 30  1  0
 30 31  2  0
 17  7  1  0
 31 19  1  0
 13  8  1  0
 31 16  1  0
  1 32  1  0
  1 33  1  0
  1 34  1  0
  2 35  1  0
  2 36  1  0
  3 37  1  0
  4 38  1  0
  4 39  1  0
  5 40  1  0
  5 41  1  0
  6 42  1  0
  6 43  1  0
  9 44  1  0
 10 45  1  0
 11 46  1  0
 12 47  1  0
 15 48  1  0
 15 49  1  0
 15 50  1  0
 18 51  1  0
 20 52  1  0
 23 53  1  0
 23 54  1  0
 24 55  1  0
 24 56  1  0
 26 57  1  0
 26 58  1  0
 26 59  1  0
 27 60  1  0
 27 61  1  0
 27 62  1  0
 28 63  1  0
 28 64  1  0
 28 65  1  0
 29 66  1  0
 30 67  1  0
M  CHG  3   6   1  14   1  25   1
M  END
>  <UniqueID>  (11) 
11

>  <SMILES>  (11) 
CCNCC[NH2+]c1c2ccccc2[n+](C)c2c1[nH]c1cc(OCC[N+](C)(C)C)ccc12

>  <Energy>  (11) 
130.71699112654568

>  <Genealogy>  (11) 
CCNCC[NH2+]c1c2ccccc2[n+](C)c2c1[nH]c1cc(OCC[N+](C)(C)C)ccc12 (protonated)
CCNCC[NH2+]c1c2ccccc2[n+](C)c2c1[nH]c1cc(OCC[N+](C)(C)C)ccc12 (3D coordinates assigned)
CCNCC[NH2+]c1c2ccccc2[n+](C)c2c1[nH]c1cc(OCC[N+](C)(C)C)ccc12 (optimized conformer: 130.71699112654568 kcal/mol)

>  <smiles>  (11) 
CCNCCNc1c2ccccc2[n+](C)c2c1[nH]c1cc(OCC[N+](C)(C)C)ccc12

>  <score_type>  (11) 
oracle

>  <origin>  (11) 
adg

>  <m_score__min__energy>  (11) 
-7.8099999999999996

>  <m_primary>  (11) 
energy

$$$$
11:0
     RDKit          3D

 52 54  0  0  0  0  0  0  0  0999 V2000
   -2.5050   19.2640  -33.8480 C   0  0  0  0  0  0  0  0  0  0  0  0
   -3.1830   18.0780  -33.1680 C   0  0  0  0  0  0  0  0  0  0  0  0
   -3.9940   17.3210  -34.1490 N   0  0  0  0  0  0  0  0  0  0  0  0
   -3.1480   16.7630  -35.2280 C   0  0  0  0  0  0  0  0  0  0  0  0
   -2.9160   15.2700  -35.0060 C   0  0  0  0  0  0  0  0  0  0  0  0
   -4.7870   16.2590  -33.4840 C   0  0  0  0  0  0  0  0  0  0  0  0
   -6.1330   16.0640  -34.1970 C   0  0  0  0  0  0  0  0  0  0  0  0
   -7.2410   16.5340  -33.3670 N   0  0  0  0  0  0  0  0  0  0  0  0
   -7.3340   17.8830  -32.8980 C   0  0  0  0  0  0  0  0  0  0  0  0
   -6.3210   18.7850  -33.0210 N   0  0  0  0  0  0  0  0  0  0  0  0
   -6.7010   19.9480  -32.4480 C   0  0  0  0  0  0  0  0  0  0  0  0
   -7.9400   19.9700  -31.8990 C   0  0  0  0  0  0  0  0  0  0  0  0
   -8.7080   18.4960  -32.0830 S   0  0  0  0  0  0  0  0  0  0  0  0
   -8.3000   21.4500  -31.1820 S   0  0  0  0  0  0  0  0  0  0  0  0
   -6.7670   22.0840  -31.6040 C   0  0  0  0  0  0  0  0  0  0  0  0
   -6.2350   23.3420  -31.3370 C   0  0  0  0  0  0  0  0  0  0  0  0
   -7.1540   24.5870  -30.4280 S   0  0  0  0  0  0  0  0  0  0  0  0
   -5.6920   25.2760  -29.5690 C   0  0  0  0  0  0  0  0  0  0  0  0
   -4.8600   24.1720  -28.9070 C   0  0  0  0  0  0  0  0  0  0  0  0
   -3.4190   24.5090  -28.9320 N   0  0  0  0  0  0  0  0  0  0  0  0
   -2.8870   24.5350  -27.5590 C   0  0  0  0  0  0  0  0  0  0  0  0
   -2.6600   23.5290  -29.7300 C   0  0  0  0  0  0  0  0  0  0  0  0
   -4.9780   23.6170  -31.7930 N   0  0  0  0  0  0  0  0  0  0  0  0
   -4.2530   22.7110  -32.4620 N   0  0  0  0  0  0  0  0  0  0  0  0
   -4.7290   21.4620  -32.7290 C   0  0  0  0  0  0  0  0  0  0  0  0
   -6.0100   21.1420  -32.2950 C   0  0  0  0  0  0  0  0  0  0  0  0
   -2.1127   19.9502  -33.0830 H   0  0  0  0  0  0  0  0  0  0  0  0
   -1.6770   18.9026  -34.4756 H   0  0  0  0  0  0  0  0  0  0  0  0
   -3.2365   19.7941  -34.4756 H   0  0  0  0  0  0  0  0  0  0  0  0
   -2.4149   17.4151  -32.7430 H   0  0  0  0  0  0  0  0  0  0  0  0
   -3.8414   18.4505  -32.3694 H   0  0  0  0  0  0  0  0  0  0  0  0
   -3.6500   16.9117  -36.1954 H   0  0  0  0  0  0  0  0  0  0  0  0
   -2.1767   17.2792  -35.2222 H   0  0  0  0  0  0  0  0  0  0  0  0
   -2.8834   15.0605  -33.9266 H   0  0  0  0  0  0  0  0  0  0  0  0
   -3.7362   14.6991  -35.4657 H   0  0  0  0  0  0  0  0  0  0  0  0
   -1.9612   14.9750  -35.4657 H   0  0  0  0  0  0  0  0  0  0  0  0
   -4.2228   15.3151  -33.5121 H   0  0  0  0  0  0  0  0  0  0  0  0
   -4.9770   16.5575  -32.4425 H   0  0  0  0  0  0  0  0  0  0  0  0
   -6.1253   16.6300  -35.1402 H   0  0  0  0  0  0  0  0  0  0  0  0
   -6.2731   14.9905  -34.3916 H   0  0  0  0  0  0  0  0  0  0  0  0
   -7.9830   15.8530  -33.0890 H   0  0  0  0  0  0  0  0  0  0  0  0
   -5.0648   25.8071  -30.3001 H   0  0  0  0  0  0  0  0  0  0  0  0
   -6.0433   25.9622  -28.7843 H   0  0  0  0  0  0  0  0  0  0  0  0
   -5.1841   24.0542  -27.8625 H   0  0  0  0  0  0  0  0  0  0  0  0
   -5.0115   23.2359  -29.4645 H   0  0  0  0  0  0  0  0  0  0  0  0
   -3.7203   24.4943  -26.8421 H   0  0  0  0  0  0  0  0  0  0  0  0
   -2.2278   23.6680  -27.4047 H   0  0  0  0  0  0  0  0  0  0  0  0
   -2.3155   25.4621  -27.4047 H   0  0  0  0  0  0  0  0  0  0  0  0
   -2.1275   22.8414  -29.0565 H   0  0  0  0  0  0  0  0  0  0  0  0
   -3.3532   22.9572  -30.3645 H   0  0  0  0  0  0  0  0  0  0  0  0
   -1.9330   24.0571  -30.3645 H   0  0  0  0  0  0  0  0  0  0  0  0
   -4.1164   20.7278  -33.2728 H   0  0  0  0  0  0  0  0  0  0  0  0
  1  2  1  0
  2  3  1  0
  3  4  1  0
  4  5  1  0
  3  6  1  0
  6  7  1  0
  7  8  1  0
  8  9  1  0
  9 10  2  0
 10 11  1  0
 11 12  2  0
 12 13  1  0
 12 14  1  0
 14 15  1  0
 15 16  2  0
 16 17  1  0
 17 18  1  0
 18 19  1  0
 19 20  1  0
 20 21  1  0
 20 22  1  0
 16 23  1  0
 23 24  2  0
 24 25  1  0
 25 26  2  0
 13  9  1  0
 26 15  1  0
 26 11  1  0
  1 27  1  0
  1 28  1  0
  1 29  1  0
  2 30  1  0
  2 31  1  0
  4 32  1  0
  4 33  1  0
  5 34  1  0
  5 35  1  0
  5 36  1  0
  6 37  1  0
  6 38  1  0
  7 39  1  0
  7 40  1  0
  8 41  1  0
 18 42  1  0
 18 43  1  0
 19 44  1  0
 19 45  1  0
 21 46  1  0
 21 47  1  0
 21 48  1  0
 22 49  1  0
 22 50  1  0
 22 51  1  0
 25 52  1  0
M  END
>  <UniqueID>  (12) 
12

>  <SMILES>  (12) 
CCN(CC)CCNc1nc2c(s1)sc1c(SCCN(C)C)nncc12

>  <Energy>  (12) 
121.55317457296125

>  <Genealogy>  (12) 
CCN(CC)CCNc1nc2c(s1)sc1c(SCCN(C)C)nncc12 (3D coordinates assigned)
CCN(CC)CCNc1nc2c(s1)sc1c(SCCN(C)C)nncc12 (optimized conformer: 121.55317457296125 kcal/mol)

>  <smiles>  (12) 
CCN(CC)CCNc1nc2c(s1)sc1c(SCCN(C)C)nncc12

>  <score_type>  (12) 
oracle

>  <origin>  (12) 
adg

>  <m_score__min__energy>  (12) 
-8.1799999999999997

>  <m_primary>  (12) 
energy

$$$$
12:0
     RDKit          3D

 46 49  0  0  0  0  0  0  0  0999 V2000
   -7.1360   16.8890  -32.7810 F   0  0  0  0  0  0  0  0  0  0  0  0
   -7.0190   17.8360  -31.7750 C   0  0  2  0  0  0  0  0  0  0  0  0
   -8.3910   18.1890  -31.2190 C   0  0  0  0  0  0  0  0  0  0  0  0
   -9.2700   18.8660  -32.2840 C   0  0  0  0  0  0  0  0  0  0  0  0
   -8.6220   20.0080  -32.9820 N   0  0  1  0  0  0  0  0  0  0  0  0
   -8.8880   21.3410  -32.3780 C   0  0  0  0  0  0  0  0  0  0  0  0
   -7.7210   21.9680  -31.6530 C   0  0  0  0  0  0  0  0  0  0  0  0
   -7.6600   21.9420  -30.2500 C   0  0  0  0  0  0  0  0  0  0  0  0
   -6.5630   22.4870  -29.5800 C   0  0  0  0  0  0  0  0  0  0  0  0
   -5.4910   23.0470  -30.2980 C   0  0  0  0  0  0  0  0  0  0  0  0
   -4.3270   23.6330  -29.5850 C   0  0  0  0  0  0  0  0  0  0  0  0
   -3.0970   23.8070  -30.2440 C   0  0  0  0  0  0  0  0  0  0  0  0
   -2.0350   24.3460  -29.5900 N   0  0  0  0  0  0  0  0  0  0  0  0
   -2.1140   24.7330  -28.2890 C   0  0  0  0  0  0  0  0  0  0  0  0
   -0.9960   25.2820  -27.6500 C   0  0  0  0  0  0  0  0  0  0  0  0
   -1.0800   25.6770  -26.3110 C   0  0  0  0  0  0  0  0  0  0  0  0
   -2.2790   25.5240  -25.6070 C   0  0  0  0  0  0  0  0  0  0  0  0
   -3.4010   24.9760  -26.2380 C   0  0  0  0  0  0  0  0  0  0  0  0
   -3.3250   24.5790  -27.5810 C   0  0  0  0  0  0  0  0  0  0  0  0
   -4.4300   24.0270  -28.2400 C   0  0  0  0  0  0  0  0  0  0  0  0
   -5.5370   23.0350  -31.7030 C   0  0  0  0  0  0  0  0  0  0  0  0
   -6.6340   22.4880  -32.3730 C   0  0  0  0  0  0  0  0  0  0  0  0
   -7.2070   19.7770  -33.3820 C   0  0  0  0  0  0  0  0  0  0  0  0
   -6.3460   19.0930  -32.3080 C   0  0  0  0  0  0  0  0  0  0  0  0
   -6.4023   17.4110  -30.9694 H   0  0  0  0  0  0  0  0  0  0  0  0
   -8.8869   17.2682  -30.8780 H   0  0  0  0  0  0  0  0  0  0  0  0
   -8.2560   18.8916  -30.3834 H   0  0  0  0  0  0  0  0  0  0  0  0
   -9.5401   18.1112  -33.0373 H   0  0  0  0  0  0  0  0  0  0  0  0
  -10.1427   19.2766  -31.7551 H   0  0  0  0  0  0  0  0  0  0  0  0
   -9.1340   20.0670  -33.8950 H   0  0  0  0  0  0  0  0  0  0  0  0
   -9.1933   22.0241  -33.1843 H   0  0  0  0  0  0  0  0  0  0  0  0
   -9.6660   21.1794  -31.6174 H   0  0  0  0  0  0  0  0  0  0  0  0
   -8.4817   21.4894  -29.6755 H   0  0  0  0  0  0  0  0  0  0  0  0
   -6.5369   22.4783  -28.4803 H   0  0  0  0  0  0  0  0  0  0  0  0
   -2.9939   23.5046  -31.2966 H   0  0  0  0  0  0  0  0  0  0  0  0
   -0.0516   25.4027  -28.2009 H   0  0  0  0  0  0  0  0  0  0  0  0
   -0.2010   26.1090  -25.8102 H   0  0  0  0  0  0  0  0  0  0  0  0
   -2.3399   25.8356  -24.5538 H   0  0  0  0  0  0  0  0  0  0  0  0
   -4.3421   24.8566  -25.6812 H   0  0  0  0  0  0  0  0  0  0  0  0
   -5.3819   23.9013  -27.7033 H   0  0  0  0  0  0  0  0  0  0  0  0
   -4.7022   23.4599  -32.2796 H   0  0  0  0  0  0  0  0  0  0  0  0
   -6.6461   22.4646  -33.4727 H   0  0  0  0  0  0  0  0  0  0  0  0
   -7.2029   19.1432  -34.2810 H   0  0  0  0  0  0  0  0  0  0  0  0
   -6.7639   20.7690  -33.5540 H   0  0  0  0  0  0  0  0  0  0  0  0
   -5.3752   18.8204  -32.7475 H   0  0  0  0  0  0  0  0  0  0  0  0
   -6.2122   19.7954  -31.4721 H   0  0  0  0  0  0  0  0  0  0  0  0
  1  2  1  0
  2  3  1  0
  3  4  1  0
  4  5  1  0
  5  6  1  0
  6  7  1  0
  7  8  2  0
  8  9  1  0
  9 10  2  0
 10 11  1  0
 11 12  2  0
 12 13  1  0
 13 14  2  0
 14 15  1  0
 15 16  2  0
 16 17  1  0
 17 18  2  0
 18 19  1  0
 19 20  2  0
 10 21  1  0
 21 22  2  0
  5 23  1  0
 23 24  1  0
 24  2  1  0
 22  7  1  0
 20 11  1  0
 19 14  1  0
  2 25  1  1
  3 26  1  0
  3 27  1  0
  4 28  1  0
  4 29  1  0
  5 30  1  6
  6 31  1  0
  6 32  1  0
  8 33  1  0
  9 34  1  0
 12 35  1  0
 15 36  1  0
 16 37  1  0
 17 38  1  0
 18 39  1  0
 20 40  1  0
 21 41  1  0
 22 42  1  0
 23 43  1  0
 23 44  1  0
 24 45  1  0
 24 46  1  0
M  CHG  1   5   1
M  END
>  <UniqueID>  (13) 
13

>  <SMILES>  (13) 
FC1CC[NH+](Cc2ccc(-c3cnc4ccccc4c3)cc2)CC1

>  <Energy>  (13) 
65.50516694834036

>  <Genealogy>  (13) 
FC1CC[NH+](Cc2ccc(-c3cnc4ccccc4c3)cc2)CC1 (protonated)
FC1CC[NH+](Cc2ccc(-c3cnc4ccccc4c3)cc2)CC1 (3D coordinates assigned)
FC1CC[NH+](Cc2ccc(-c3cnc4ccccc4c3)cc2)CC1 (nonaromatic ring conformer: 65.50516694834036 kcal/mol)

>  <smiles>  (13) 
FC1CCN(Cc2ccc(-c3cnc4ccccc4c3)cc2)CC1

>  <score_type>  (13) 
oracle

>  <origin>  (13) 
adg

>  <m_score__min__energy>  (13) 
-7.96

>  <m_primary>  (13) 
energy

$$$$
13:0
     RDKit          3D

 83 88  0  0  0  0  0  0  0  0999 V2000
    0.2730   22.0360  -27.6000 C   0  0  0  0  0  0  0  0  0  0  0  0
   -1.2010   21.6240  -27.6440 C   0  0  0  0  0  0  0  0  0  0  0  0
   -1.4080   20.3380  -28.3760 N   0  0  0  0  0  0  0  0  0  0  0  0
   -1.6080   19.1850  -27.4590 C   0  0  0  0  0  0  0  0  0  0  0  0
   -2.9590   19.2340  -26.7390 C   0  0  0  0  0  0  0  0  0  0  0  0
   -2.5160   20.4420  -29.3610 C   0  0  0  0  0  0  0  0  0  0  0  0
   -2.4340   21.6890  -30.2660 C   0  0  0  0  0  0  0  0  0  0  0  0
   -3.2380   21.5140  -31.4750 N   0  0  0  0  0  0  0  0  0  0  0  0
   -4.6690   21.6440  -31.4600 C   0  0  0  0  0  0  0  0  0  0  0  0
   -5.2380   22.8330  -30.9710 C   0  0  0  0  0  0  0  0  0  0  0  0
   -4.4230   23.9280  -30.6060 C   0  0  0  0  0  0  0  0  0  0  0  0
   -4.9890   25.1190  -30.1550 C   0  0  0  0  0  0  0  0  0  0  0  0
   -6.3710   25.2470  -30.0780 C   0  0  0  0  0  0  0  0  0  0  0  0
   -7.1930   24.1760  -30.4250 C   0  0  0  0  0  0  0  0  0  0  0  0
   -6.6460   22.9360  -30.8460 C   0  0  0  0  0  0  0  0  0  0  0  0
   -7.4450   21.8520  -31.1460 N   0  0  0  0  0  0  0  0  0  0  0  0
   -8.8640   21.8470  -30.7290 C   0  0  0  0  0  0  0  0  0  0  0  0
   -6.9180   20.7740  -31.8340 C   0  0  0  0  0  0  0  0  0  0  0  0
   -7.7600   19.8090  -32.4290 C   0  0  0  0  0  0  0  0  0  0  0  0
   -7.2430   18.7080  -33.0960 C   0  0  0  0  0  0  0  0  0  0  0  0
   -5.8640   18.5390  -33.2290 C   0  0  0  0  0  0  0  0  0  0  0  0
   -5.3280   17.4060  -33.8630 O   0  0  0  0  0  0  0  0  0  0  0  0
   -5.9200   16.1120  -33.8570 C   0  0  0  0  0  0  0  0  0  0  0  0
   -4.9890   19.5150  -32.7110 C   0  0  0  0  0  0  0  0  0  0  0  0
   -3.6040   19.3890  -32.9110 O   0  0  0  0  0  0  0  0  0  0  0  0
   -2.9820   19.1540  -34.1770 C   0  0  0  0  0  0  0  0  0  0  0  0
   -1.4740   19.4690  -34.1220 C   0  0  0  0  0  0  0  0  0  0  0  0
   -0.8530   18.8770  -32.9230 N   0  0  0  0  0  0  0  0  0  0  0  0
   -0.9820   17.5140  -32.7500 C   0  0  0  0  0  0  0  0  0  0  0  0
   -0.4290   16.8620  -31.6370 C   0  0  0  0  0  0  0  0  0  0  0  0
    0.2600   17.6460  -30.7270 C   0  0  0  0  0  0  0  0  0  0  0  0
    0.4110   18.9990  -30.9020 C   0  0  0  0  0  0  0  0  0  0  0  0
    1.0970   19.5310  -29.9070 O   0  0  0  0  0  0  0  0  0  0  0  0
    1.3950   18.5450  -29.0840 C   0  0  0  0  0  0  0  0  0  0  0  0
    2.1060   18.6210  -27.8900 C   0  0  0  0  0  0  0  0  0  0  0  0
    2.3020   17.4310  -27.1620 C   0  0  0  0  0  0  0  0  0  0  0  0
    1.7870   16.2050  -27.6400 C   0  0  0  0  0  0  0  0  0  0  0  0
    1.0730   16.1530  -28.8510 C   0  0  0  0  0  0  0  0  0  0  0  0
    0.8970   17.3460  -29.5460 C   0  0  0  0  0  0  0  0  0  0  0  0
   -0.1310   19.6410  -32.0180 C   0  0  0  0  0  0  0  0  0  0  0  0
    0.0210   21.1350  -32.1530 C   0  0  0  0  0  0  0  0  0  0  0  0
   -5.5080   20.6310  -31.9870 C   0  0  0  0  0  0  0  0  0  0  0  0
    0.5973   22.1266  -26.5528 H   0  0  0  0  0  0  0  0  0  0  0  0
    0.8821   21.2737  -28.1078 H   0  0  0  0  0  0  0  0  0  0  0  0
    0.3986   23.0037  -28.1078 H   0  0  0  0  0  0  0  0  0  0  0  0
   -1.5667   21.5073  -26.6132 H   0  0  0  0  0  0  0  0  0  0  0  0
   -1.7544   22.4093  -28.1797 H   0  0  0  0  0  0  0  0  0  0  0  0
   -0.5570   20.1260  -28.9530 H   0  0  0  0  0  0  0  0  0  0  0  0
   -1.5541   18.2554  -28.0446 H   0  0  0  0  0  0  0  0  0  0  0  0
   -0.8198   19.2274  -26.6928 H   0  0  0  0  0  0  0  0  0  0  0  0
   -2.7952   19.2281  -25.6513 H   0  0  0  0  0  0  0  0  0  0  0  0
   -3.4935   20.1521  -27.0243 H   0  0  0  0  0  0  0  0  0  0  0  0
   -3.5586   18.3570  -27.0243 H   0  0  0  0  0  0  0  0  0  0  0  0
   -2.4952   19.5477  -30.0011 H   0  0  0  0  0  0  0  0  0  0  0  0
   -3.4487   20.5273  -28.7841 H   0  0  0  0  0  0  0  0  0  0  0  0
   -2.8063   22.5620  -29.7099 H   0  0  0  0  0  0  0  0  0  0  0  0
   -1.3851   21.8386  -30.5617 H   0  0  0  0  0  0  0  0  0  0  0  0
   -2.7640   21.2810  -32.3760 H   0  0  0  0  0  0  0  0  0  0  0  0
   -3.3290   23.8394  -30.6787 H   0  0  0  0  0  0  0  0  0  0  0  0
   -4.3419   25.9581  -29.8598 H   0  0  0  0  0  0  0  0  0  0  0  0
   -6.8167   26.1951  -29.7427 H   0  0  0  0  0  0  0  0  0  0  0  0
   -8.2853   24.2941  -30.3715 H   0  0  0  0  0  0  0  0  0  0  0  0
   -8.9234   21.8468  -29.6306 H   0  0  0  0  0  0  0  0  0  0  0  0
   -9.3652   22.7434  -31.1231 H   0  0  0  0  0  0  0  0  0  0  0  0
   -9.3588   20.9471  -31.1231 H   0  0  0  0  0  0  0  0  0  0  0  0
   -8.8509   19.9332  -32.3620 H   0  0  0  0  0  0  0  0  0  0  0  0
   -7.9269   17.9605  -33.5245 H   0  0  0  0  0  0  0  0  0  0  0  0
   -6.0707   15.7826  -32.8184 H   0  0  0  0  0  0  0  0  0  0  0  0
   -6.8902   16.1502  -34.3740 H   0  0  0  0  0  0  0  0  0  0  0  0
   -5.2567   15.4029  -34.3740 H   0  0  0  0  0  0  0  0  0  0  0  0
   -3.1185   18.0982  -34.4538 H   0  0  0  0  0  0  0  0  0  0  0  0
   -3.4494   19.8131  -34.9234 H   0  0  0  0  0  0  0  0  0  0  0  0
   -0.9878   19.0577  -35.0190 H   0  0  0  0  0  0  0  0  0  0  0  0
   -1.3458   20.5607  -34.0798 H   0  0  0  0  0  0  0  0  0  0  0  0
   -1.5301   16.9258  -33.5007 H   0  0  0  0  0  0  0  0  0  0  0  0
   -0.5380   15.7768  -31.4939 H   0  0  0  0  0  0  0  0  0  0  0  0
    2.5025   19.5803  -27.5261 H   0  0  0  0  0  0  0  0  0  0  0  0
    2.8601   17.4563  -26.2144 H   0  0  0  0  0  0  0  0  0  0  0  0
    1.9457   15.2837  -27.0604 H   0  0  0  0  0  0  0  0  0  0  0  0
    0.6687   15.2046  -29.2345 H   0  0  0  0  0  0  0  0  0  0  0  0
    0.0674   21.5907  -31.1529 H   0  0  0  0  0  0  0  0  0  0  0  0
    0.9468   21.3612  -32.7023 H   0  0  0  0  0  0  0  0  0  0  0  0
   -0.8403   21.5430  -32.7023 H   0  0  0  0  0  0  0  0  0  0  0  0
  1  2  1  0
  2  3  1  0
  3  4  1  0
  4  5  1  0
  3  6  1  0
  6  7  1  0
  7  8  1  0
  8  9  1  0
  9 10  2  0
 10 11  1  0
 11 12  2  0
 12 13  1  0
 13 14  2  0
 14 15  1  0
 15 16  2  0
 16 17  1  0
 16 18  1  0
 18 19  2  0
 19 20  1  0
 20 21  2  0
 21 22  1  0
 22 23  1  0
 21 24  1  0
 24 25  1  0
 25 26  1  0
 26 27  1  0
 27 28  1  0
 28 29  2  0
 29 30  1  0
 30 31  2  0
 31 32  1  0
 32 33  1  0
 33 34  1  0
 34 35  2  0
 35 36  1  0
 36 37  2  0
 37 38  1  0
 38 39  2  0
 32 40  2  0
 40 41  1  0
 24 42  2  0
 42  9  1  0
 15 10  1  0
 42 18  1  0
 40 28  1  0
 39 31  1  0
 39 34  1  0
  1 43  1  0
  1 44  1  0
  1 45  1  0
  2 46  1  0
  2 47  1  0
  3 48  1  0
  4 49  1  0
  4 50  1  0
  5 51  1  0
  5 52  1  0
  5 53  1  0
  6 54  1  0
  6 55  1  0
  7 56  1  0
  7 57  1  0
  8 58  1  0
 11 59  1  0
 12 60  1  0
 13 61  1  0
 14 62  1  0
 17 63  1  0
 17 64  1  0
 17 65  1  0
 19 66  1  0
 20 67  1  0
 23 68  1  0
 23 69  1  0
 23 70  1  0
 26 71  1  0
 26 72  1  0
 27 73  1  0
 27 74  1  0
 29 75  1  0
 30 76  1  0
 35 77  1  0
 36 78  1  0
 37 79  1  0
 38 80  1  0
 41 81  1  0
 41 82  1  0
 41 83  1  0
M  CHG  3   3   1  16   1  28   1
M  END
>  <UniqueID>  (14) 
14

>  <SMILES>  (14) 
CC[NH+](CC)CCNc1c2ccccc2[n+](C)c2ccc(OC)c(OCC[n+]3ccc4c(oc5ccccc54)c3C)c12

>  <Energy>  (14) 
171.35624200060983

>  <Genealogy>  (14) 
CC[NH+](CC)CCNc1c2ccccc2[n+](C)c2ccc(OC)c(OCC[n+]3ccc4c(oc5ccccc54)c3C)c12 (protonated)
CC[NH+](CC)CCNc1c2ccccc2[n+](C)c2ccc(OC)c(OCC[n+]3ccc4c(oc5ccccc54)c3C)c12 (3D coordinates assigned)
CC[NH+](CC)CCNc1c2ccccc2[n+](C)c2ccc(OC)c(OCC[n+]3ccc4c(oc5ccccc54)c3C)c12 (optimized conformer: 171.35624200060983 kcal/mol)

>  <smiles>  (14) 
CCN(CC)CCNc1c2ccccc2[n+](C)c2ccc(OC)c(OCC[n+]3ccc4c(oc5ccccc54)c3C)c12

>  <score_type>  (14) 
oracle

>  <origin>  (14) 
adg

>  <m_score__min__energy>  (14) 
-9.3900000000000006

>  <m_primary>  (14) 
energy

$$$$
14:0
     RDKit          3D

 38 39  0  0  0  0  0  0  0  0999 V2000
   -6.3710   17.2310  -33.7220 C   0  0  0  0  0  0  0  0  0  0  0  0
   -6.0300   18.5640  -34.3850 C   0  0  0  0  0  0  0  0  0  0  0  0
   -6.7820   19.6840  -33.7970 N   0  0  0  0  0  0  0  0  0  0  0  0
   -6.8460   19.6990  -32.3220 C   0  0  0  0  0  0  0  0  0  0  0  0
   -6.2570   20.9680  -31.6480 C   0  0  2  0  0  0  0  0  0  0  0  0
   -6.3220   22.2030  -32.5600 C   0  0  0  0  0  0  0  0  0  0  0  0
   -5.8340   23.4560  -31.8240 C   0  0  0  0  0  0  0  0  0  0  0  0
   -4.5630   23.2460  -31.0240 C   0  0  0  0  0  0  0  0  0  0  0  0
   -4.1020   21.9410  -30.7260 C   0  0  0  0  0  0  0  0  0  0  0  0
   -2.9260   21.7720  -29.9840 C   0  0  0  0  0  0  0  0  0  0  0  0
   -2.2280   22.8740  -29.4980 C   0  0  0  0  0  0  0  0  0  0  0  0
   -2.6970   24.1750  -29.7410 C   0  0  0  0  0  0  0  0  0  0  0  0
   -2.0290   25.3090  -29.2510 O   0  0  0  0  0  0  0  0  0  0  0  0
   -1.2780   25.3460  -28.0430 C   0  0  0  0  0  0  0  0  0  0  0  0
   -3.8670   24.3620  -30.4910 C   0  0  0  0  0  0  0  0  0  0  0  0
   -4.3200   25.6710  -30.6780 O   0  0  0  0  0  0  0  0  0  0  0  0
   -4.7880   20.7100  -31.2700 C   0  0  0  0  0  0  0  0  0  0  0  0
   -6.3413   17.3471  -32.6286 H   0  0  0  0  0  0  0  0  0  0  0  0
   -7.3788   16.9155  -34.0300 H   0  0  0  0  0  0  0  0  0  0  0  0
   -5.6385   16.4703  -34.0300 H   0  0  0  0  0  0  0  0  0  0  0  0
   -4.9539   18.7561  -34.2620 H   0  0  0  0  0  0  0  0  0  0  0  0
   -6.3043   18.4932  -35.4479 H   0  0  0  0  0  0  0  0  0  0  0  0
   -7.7500   19.6930  -34.1930 H   0  0  0  0  0  0  0  0  0  0  0  0
   -7.9022   19.6156  -32.0262 H   0  0  0  0  0  0  0  0  0  0  0  0
   -6.2266   18.8565  -31.9808 H   0  0  0  0  0  0  0  0  0  0  0  0
   -6.8657   21.1748  -30.7554 H   0  0  0  0  0  0  0  0  0  0  0  0
   -5.6862   22.0331  -33.4414 H   0  0  0  0  0  0  0  0  0  0  0  0
   -7.3676   22.3598  -32.8634 H   0  0  0  0  0  0  0  0  0  0  0  0
   -5.6478   24.2439  -32.5686 H   0  0  0  0  0  0  0  0  0  0  0  0
   -6.6207   23.7295  -31.1054 H   0  0  0  0  0  0  0  0  0  0  0  0
   -2.5501   20.7579  -29.7833 H   0  0  0  0  0  0  0  0  0  0  0  0
   -1.3038   22.7248  -28.9204 H   0  0  0  0  0  0  0  0  0  0  0  0
   -1.9639   25.3122  -27.1837 H   0  0  0  0  0  0  0  0  0  0  0  0
   -0.6006   24.4801  -28.0057 H   0  0  0  0  0  0  0  0  0  0  0  0
   -0.6890   26.2743  -28.0057 H   0  0  0  0  0  0  0  0  0  0  0  0
   -3.8660   26.4840  -30.2830 H   0  0  0  0  0  0  0  0  0  0  0  0
   -4.2476   20.3732  -32.1670 H   0  0  0  0  0  0  0  0  0  0  0  0
   -4.7775   19.9462  -30.4785 H   0  0  0  0  0  0  0  0  0  0  0  0
  1  2  1  0
  2  3  1  0
  3  4  1  0
  4  5  1  0
  5  6  1  0
  6  7  1  0
  7  8  1  0
  8  9  2  0
  9 10  1  0
 10 11  2  0
 11 12  1  0
 12 13  1  0
 13 14  1  0
 12 15  2  0
 15 16  1  0
  9 17  1  0
 17  5  1  0
 15  8  1  0
  1 18  1  0
  1 19  1  0
  1 20  1  0
  2 21  1  0
  2 22  1  0
  3 23  1  0
  4 24  1  0
  4 25  1  0
  5 26  1  1
  6 27  1  0
  6 28  1  0
  7 29  1  0
  7 30  1  0
 10 31  1  0
 11 32  1  0
 14 33  1  0
 14 34  1  0
 14 35  1  0
 16 36  1  0
 17 37  1  0
 17 38  1  0
M  END
>  <UniqueID>  (15) 
15

>  <SMILES>  (15) 
CCNC[C@@H]1CCc2c(ccc(OC)c2O)C1

>  <Energy>  (15) 
38.81702486583213

>  <Genealogy>  (15) 
CCNC[C@@H]1CCc2c(ccc(OC)c2O)C1 (chirality)
CCNC[C@@H]1CCc2c(ccc(OC)c2O)C1 (3D coordinates assigned)
CCNC[C@@H]1CCc2c(ccc(OC)c2O)C1 (nonaromatic ring conformer: 38.81702486583213 kcal/mol)

>  <smiles>  (15) 
CCNCC1CCc2c(ccc(OC)c2O)C1

>  <score_type>  (15) 
oracle

>  <origin>  (15) 
adg

>  <m_score__min__energy>  (15) 
-8.2599999999999998

>  <m_primary>  (15) 
energy

$$$$
15:0
     RDKit          3D

 56 58  0  0  0  0  0  0  0  0999 V2000
   -0.4860   21.9510  -29.3340 C   0  0  0  0  0  0  0  0  0  0  0  0
   -1.4740   22.9040  -30.0240 C   0  0  0  0  0  0  0  0  0  0  0  0
   -2.8920   22.6650  -29.6660 N   0  0  0  0  0  0  0  0  0  0  0  0
   -3.1630   21.2410  -29.3870 C   0  0  0  0  0  0  0  0  0  0  0  0
   -3.3590   23.5530  -28.5770 C   0  0  0  0  0  0  0  0  0  0  0  0
   -4.4410   24.5240  -29.0700 C   0  0  0  0  0  0  0  0  0  0  0  0
   -4.2210   24.8770  -30.4790 N   0  0  0  0  0  0  0  0  0  0  0  0
   -5.4820   25.1400  -31.1920 C   0  0  0  0  0  0  0  0  0  0  0  0
   -5.9960   23.9090  -31.9540 C   0  0  0  0  0  0  0  0  0  0  0  0
   -5.2370   22.7160  -31.5730 N   0  0  0  0  0  0  0  0  0  0  0  0
   -5.4180   21.4520  -32.2370 C   0  0  0  0  0  0  0  0  0  0  0  0
   -6.6680   20.8030  -32.2070 C   0  0  0  0  0  0  0  0  0  0  0  0
   -7.7850   21.3980  -31.5770 C   0  0  0  0  0  0  0  0  0  0  0  0
   -8.9960   20.7150  -31.4770 C   0  0  0  0  0  0  0  0  0  0  0  0
   -9.1160   19.4340  -31.9960 C   0  0  0  0  0  0  0  0  0  0  0  0
   -8.0440   18.8460  -32.6670 C   0  0  0  0  0  0  0  0  0  0  0  0
   -6.8150   19.5370  -32.8360 C   0  0  0  0  0  0  0  0  0  0  0  0
   -5.7800   19.0090  -33.5860 N   0  0  0  0  0  0  0  0  0  0  0  0
   -6.0290   17.8560  -34.4800 C   0  0  0  0  0  0  0  0  0  0  0  0
   -4.5210   19.5820  -33.5330 C   0  0  0  0  0  0  0  0  0  0  0  0
   -3.3860   18.9410  -34.0900 C   0  0  0  0  0  0  0  0  0  0  0  0
   -2.1290   19.5430  -34.0660 C   0  0  0  0  0  0  0  0  0  0  0  0
   -1.9500   20.7990  -33.4750 C   0  0  0  0  0  0  0  0  0  0  0  0
   -0.6490   21.4210  -33.4510 N   0  0  0  0  0  0  0  0  0  0  0  0
   -0.0020   21.5010  -32.3880 O   0  0  0  0  0  0  0  0  0  0  0  0
   -0.1020   21.9460  -34.6000 O   0  0  0  0  0  0  0  0  0  0  0  0
   -3.0510   21.4320  -32.8830 C   0  0  0  0  0  0  0  0  0  0  0  0
   -4.3330   20.8340  -32.8880 C   0  0  0  0  0  0  0  0  0  0  0  0
   -0.5854   22.0469  -28.2427 H   0  0  0  0  0  0  0  0  0  0  0  0
   -0.7061   20.9154  -29.6326 H   0  0  0  0  0  0  0  0  0  0  0  0
    0.5409   22.2083  -29.6326 H   0  0  0  0  0  0  0  0  0  0  0  0
   -1.2149   23.9350  -29.7412 H   0  0  0  0  0  0  0  0  0  0  0  0
   -1.3847   22.7263  -31.1059 H   0  0  0  0  0  0  0  0  0  0  0  0
   -3.1937   21.0799  -28.2993 H   0  0  0  0  0  0  0  0  0  0  0  0
   -4.1309   20.9589  -29.8269 H   0  0  0  0  0  0  0  0  0  0  0  0
   -2.3663   20.6231  -29.8269 H   0  0  0  0  0  0  0  0  0  0  0  0
   -3.7741   22.9366  -27.7660 H   0  0  0  0  0  0  0  0  0  0  0  0
   -2.5018   24.1427  -28.2200 H   0  0  0  0  0  0  0  0  0  0  0  0
   -5.4272   24.0478  -28.9671 H   0  0  0  0  0  0  0  0  0  0  0  0
   -4.3943   25.4414  -28.4648 H   0  0  0  0  0  0  0  0  0  0  0  0
   -3.7140   24.0920  -30.9540 H   0  0  0  0  0  0  0  0  0  0  0  0
   -6.2441   25.4449  -30.4597 H   0  0  0  0  0  0  0  0  0  0  0  0
   -5.2892   25.9328  -31.9298 H   0  0  0  0  0  0  0  0  0  0  0  0
   -7.0585   23.7534  -31.7157 H   0  0  0  0  0  0  0  0  0  0  0  0
   -5.8705   24.0808  -33.0332 H   0  0  0  0  0  0  0  0  0  0  0  0
   -4.6610   22.7510  -30.7010 H   0  0  0  0  0  0  0  0  0  0  0  0
   -7.6974   22.4124  -31.1606 H   0  0  0  0  0  0  0  0  0  0  0  0
   -9.8571   21.1920  -30.9862 H   0  0  0  0  0  0  0  0  0  0  0  0
  -10.0593   18.8805  -31.8780 H   0  0  0  0  0  0  0  0  0  0  0  0
   -8.1524   17.8292  -33.0724 H   0  0  0  0  0  0  0  0  0  0  0  0
   -6.2229   16.9581  -33.8749 H   0  0  0  0  0  0  0  0  0  0  0  0
   -6.9025   18.0661  -35.1147 H   0  0  0  0  0  0  0  0  0  0  0  0
   -5.1467   17.6869  -35.1147 H   0  0  0  0  0  0  0  0  0  0  0  0
   -3.4995   17.9485  -34.5505 H   0  0  0  0  0  0  0  0  0  0  0  0
   -1.2689   19.0256  -34.5162 H   0  0  0  0  0  0  0  0  0  0  0  0
   -2.9158   22.4134  -32.4049 H   0  0  0  0  0  0  0  0  0  0  0  0
  1  2  1  0
  2  3  1  0
  3  4  1  0
  3  5  1  0
  5  6  1  0
  6  7  1  0
  7  8  1  0
  8  9  1  0
  9 10  1  0
 10 11  1  0
 11 12  2  0
 12 13  1  0
 13 14  2  0
 14 15  1  0
 15 16  2  0
 16 17  1  0
 17 18  2  0
 18 19  1  0
 18 20  1  0
 20 21  2  0
 21 22  1  0
 22 23  2  0
 23 24  1  0
 24 25  2  0
 24 26  1  0
 23 27  1  0
 27 28  2  0
 28 11  1  0
 17 12  1  0
 28 20  1  0
  1 29  1  0
  1 30  1  0
  1 31  1  0
  2 32  1  0
  2 33  1  0
  4 34  1  0
  4 35  1  0
  4 36  1  0
  5 37  1  0
  5 38  1  0
  6 39  1  0
  6 40  1  0
  7 41  1  0
  8 42  1  0
  8 43  1  0
  9 44  1  0
  9 45  1  0
 10 46  1  0
 13 47  1  0
 14 48  1  0
 15 49  1  0
 16 50  1  0
 19 51  1  0
 19 52  1  0
 19 53  1  0
 21 54  1  0
 22 55  1  0
 27 56  1  0
M  CHG  3  18   1  24   1  26  -1
M  END
>  <UniqueID>  (16) 
16

>  <SMILES>  (16) 
CCN(C)CCNCCNc1c2ccccc2[n+](C)c2ccc([N+](=O)[O-])cc12

>  <Energy>  (16) 
85.08768835873043

>  <Genealogy>  (16) 
CCN(C)CCNCCNc1c2ccccc2[n+](C)c2ccc([N+](=O)[O-])cc12 (3D coordinates assigned)
CCN(C)CCNCCNc1c2ccccc2[n+](C)c2ccc([N+](=O)[O-])cc12 (optimized conformer: 85.08768835873043 kcal/mol)

>  <smiles>  (16) 
CCN(C)CCNCCNc1c2ccccc2[n+](C)c2ccc([N+](=O)[O-])cc12

>  <score_type>  (16) 
oracle

>  <origin>  (16) 
adg

>  <m_score__min__energy>  (16) 
-9.9600000000000009

>  <m_primary>  (16) 
energy

$$$$
16:0
     RDKit          3D

 47 48  0  0  0  0  0  0  0  0999 V2000
   -3.4880   25.2800  -30.4590 O   0  0  0  0  0  0  0  0  0  0  0  0
   -4.6930   25.0710  -30.7610 C   0  0  0  0  0  0  0  0  0  0  0  0
   -5.0010   24.3030  -31.8720 O   0  0  0  0  0  0  0  0  0  0  0  0
   -5.7880   25.6770  -29.9500 C   0  0  0  0  0  0  0  0  0  0  0  0
   -6.9540   24.6940  -29.8070 C   0  0  0  0  0  0  0  0  0  0  0  0
   -6.4470   23.2390  -29.7070 C   0  0  0  0  0  0  0  0  0  0  0  0
   -6.5310   22.5380  -31.0000 N   0  0  0  0  0  0  0  0  0  0  0  0
   -7.8590   22.6940  -31.6230 C   0  0  0  0  0  0  0  0  0  0  0  0
   -8.5360   21.3420  -31.8820 C   0  0  0  0  0  0  0  0  0  0  0  0
   -7.6880   20.2570  -31.4880 O   0  0  0  0  0  0  0  0  0  0  0  0
   -7.0450   19.3460  -32.3460 C   0  0  0  0  0  0  0  0  0  0  0  0
   -7.5360   18.0440  -32.5810 C   0  0  0  0  0  0  0  0  0  0  0  0
   -6.8610   17.1810  -33.4470 C   0  0  0  0  0  0  0  0  0  0  0  0
   -5.7000   17.6020  -34.0880 C   0  0  0  0  0  0  0  0  0  0  0  0
   -5.2030   18.8860  -33.8610 C   0  0  0  0  0  0  0  0  0  0  0  0
   -5.8690   19.7640  -32.9860 C   0  0  0  0  0  0  0  0  0  0  0  0
   -5.3790   21.0500  -32.7010 O   0  0  0  0  0  0  0  0  0  0  0  0
   -4.1820   21.6230  -33.2290 C   0  0  0  0  0  0  0  0  0  0  0  0
   -3.0760   21.5730  -32.2090 C   0  0  0  0  0  0  0  0  0  0  0  0
   -1.7750   21.1820  -32.5750 C   0  0  0  0  0  0  0  0  0  0  0  0
   -0.7510   21.1580  -31.6200 C   0  0  0  0  0  0  0  0  0  0  0  0
   -1.0200   21.5100  -30.2900 C   0  0  0  0  0  0  0  0  0  0  0  0
   -2.3170   21.8800  -29.9130 C   0  0  0  0  0  0  0  0  0  0  0  0
   -3.3410   21.9130  -30.8700 C   0  0  0  0  0  0  0  0  0  0  0  0
   -5.4022   25.9293  -28.9513 H   0  0  0  0  0  0  0  0  0  0  0  0
   -6.1470   26.5847  -30.4572 H   0  0  0  0  0  0  0  0  0  0  0  0
   -7.5213   24.9398  -28.8972 H   0  0  0  0  0  0  0  0  0  0  0  0
   -7.5940   24.7800  -30.6975 H   0  0  0  0  0  0  0  0  0  0  0  0
   -5.3981   23.2499  -29.3758 H   0  0  0  0  0  0  0  0  0  0  0  0
   -7.0845   22.7045  -28.9874 H   0  0  0  0  0  0  0  0  0  0  0  0
   -6.3570   21.5180  -30.8370 H   0  0  0  0  0  0  0  0  0  0  0  0
   -5.7820   22.8990  -31.6350 H   0  0  0  0  0  0  0  0  0  0  0  0
   -8.4978   23.2882  -30.9530 H   0  0  0  0  0  0  0  0  0  0  0  0
   -7.7222   23.1961  -32.5921 H   0  0  0  0  0  0  0  0  0  0  0  0
   -9.4725   21.2931  -31.3071 H   0  0  0  0  0  0  0  0  0  0  0  0
   -8.7389   21.2535  -32.9595 H   0  0  0  0  0  0  0  0  0  0  0  0
   -8.4552   17.7071  -32.0794 H   0  0  0  0  0  0  0  0  0  0  0  0
   -7.2479   16.1664  -33.6227 H   0  0  0  0  0  0  0  0  0  0  0  0
   -5.1736   16.9222  -34.7741 H   0  0  0  0  0  0  0  0  0  0  0  0
   -4.2844   19.2140  -34.3695 H   0  0  0  0  0  0  0  0  0  0  0  0
   -3.8753   21.0598  -34.1227 H   0  0  0  0  0  0  0  0  0  0  0  0
   -4.3768   22.6738  -33.4897 H   0  0  0  0  0  0  0  0  0  0  0  0
   -1.5614   20.8941  -33.6150 H   0  0  0  0  0  0  0  0  0  0  0  0
    0.2668   20.8622  -31.9142 H   0  0  0  0  0  0  0  0  0  0  0  0
   -0.2128   21.4956  -29.5429 H   0  0  0  0  0  0  0  0  0  0  0  0
   -2.5321   22.1444  -28.8671 H   0  0  0  0  0  0  0  0  0  0  0  0
   -4.3583   22.2067  -30.5719 H   0  0  0  0  0  0  0  0  0  0  0  0
  1  2  2  0
  2  3  1  0
  2  4  1  0
  4  5  1  0
  5  6  1  0
  6  7  1  0
  7  8  1  0
  8  9  1  0
  9 10  1  0
 10 11  1  0
 11 12  2  0
 12 13  1  0
 13 14  2  0
 14 15  1  0
 15 16  2  0
 16 17  1  0
 17 18  1  0
 18 19  1  0
 19 20  2  0
 20 21  1  0
 21 22  2  0
 22 23  1  0
 23 24  2  0
 16 11  1  0
 24 19  1  0
  4 25  1  0
  4 26  1  0
  5 27  1  0
  5 28  1  0
  6 29  1  0
  6 30  1  0
  7 31  1  0
  7 32  1  0
  8 33  1  0
  8 34  1  0
  9 35  1  0
  9 36  1  0
 12 37  1  0
 13 38  1  0
 14 39  1  0
 15 40  1  0
 18 41  1  0
 18 42  1  0
 20 43  1  0
 21 44  1  0
 22 45  1  0
 23 46  1  0
 24 47  1  0
M  CHG  2   3  -1   7   1
M  END
>  <UniqueID>  (17) 
17

>  <SMILES>  (17) 
O=C([O-])CCC[NH2+]CCOc1ccccc1OCc1ccccc1

>  <Energy>  (17) 
43.424412197086646

>  <Genealogy>  (17) 
O=C([O-])CCC[NH2+]CCOc1ccccc1OCc1ccccc1 (protonated)
O=C([O-])CCC[NH2+]CCOc1ccccc1OCc1ccccc1 (3D coordinates assigned)
O=C([O-])CCC[NH2+]CCOc1ccccc1OCc1ccccc1 (optimized conformer: 43.424412197086646 kcal/mol)

>  <smiles>  (17) 
O=C([O-])CCCNCCOc1ccccc1OCc1ccccc1

>  <score_type>  (17) 
oracle

>  <origin>  (17) 
adg

>  <m_score__min__energy>  (17) 
-8.1600000000000001

>  <m_primary>  (17) 
energy

$$$$
17:0
     RDKit          3D

 43 44  0  0  0  0  0  0  0  0999 V2000
   -2.1010   25.0710  -26.8700 C   0  0  0  0  0  0  0  0  0  0  0  0
   -1.3250   25.6360  -28.0480 C   0  0  0  0  0  0  0  0  0  0  0  0
   -1.9880   25.2960  -29.2460 O   0  0  0  0  0  0  0  0  0  0  0  0
   -2.9120   24.2610  -28.9960 C   0  0  0  0  0  0  0  0  0  0  0  0
   -3.9560   24.2320  -30.0720 C   0  0  0  0  0  0  0  0  0  0  0  0
   -4.1840   25.2760  -30.7410 O   0  0  0  0  0  0  0  0  0  0  0  0
   -4.6130   23.0060  -30.4330 N   0  0  0  0  0  0  0  0  0  0  0  0
   -3.7810   21.7960  -30.5580 C   0  0  0  0  0  0  0  0  0  0  0  0
   -3.0660   21.6740  -31.9140 C   0  0  0  0  0  0  0  0  0  0  0  0
   -3.9640   22.0110  -33.1170 C   0  0  0  0  0  0  0  0  0  0  0  0
   -5.3860   21.7420  -32.8500 N   0  0  0  0  0  0  0  0  0  0  0  0
   -5.8840   20.3940  -32.9550 C   0  0  0  0  0  0  0  0  0  0  0  0
   -5.2470   19.4440  -33.7650 C   0  0  0  0  0  0  0  0  0  0  0  0
   -5.7540   18.1860  -33.8520 N   0  0  0  0  0  0  0  0  0  0  0  0
   -6.8670   17.8280  -33.1590 C   0  0  0  0  0  0  0  0  0  0  0  0
   -7.4940   18.7640  -32.3290 C   0  0  0  0  0  0  0  0  0  0  0  0
   -8.7330   18.4080  -31.5750 C   0  0  0  0  0  0  0  0  0  0  0  0
   -6.9880   20.0230  -32.2520 N   0  0  0  0  0  0  0  0  0  0  0  0
   -6.2460   22.8120  -32.3220 C   0  0  0  0  0  0  0  0  0  0  0  0
   -6.0370   23.0240  -30.8090 C   0  0  0  0  0  0  0  0  0  0  0  0
   -1.6383   25.4079  -25.9306 H   0  0  0  0  0  0  0  0  0  0  0  0
   -3.1419   25.4241  -26.9133 H   0  0  0  0  0  0  0  0  0  0  0  0
   -2.0846   23.9720  -26.9133 H   0  0  0  0  0  0  0  0  0  0  0  0
   -1.2655   26.7307  -27.9583 H   0  0  0  0  0  0  0  0  0  0  0  0
   -0.3082   25.2163  -28.0563 H   0  0  0  0  0  0  0  0  0  0  0  0
   -2.3824   23.2971  -28.9767 H   0  0  0  0  0  0  0  0  0  0  0  0
   -3.3992   24.4395  -28.0261 H   0  0  0  0  0  0  0  0  0  0  0  0
   -3.0195   21.8148  -29.7645 H   0  0  0  0  0  0  0  0  0  0  0  0
   -4.4560   20.9318  -30.4720 H   0  0  0  0  0  0  0  0  0  0  0  0
   -2.2076   22.3618  -31.9175 H   0  0  0  0  0  0  0  0  0  0  0  0
   -2.7608   20.6229  -32.0240 H   0  0  0  0  0  0  0  0  0  0  0  0
   -3.8457   23.0777  -33.3580 H   0  0  0  0  0  0  0  0  0  0  0  0
   -3.6539   21.3708  -33.9560 H   0  0  0  0  0  0  0  0  0  0  0  0
   -4.3414   19.7152  -34.3274 H   0  0  0  0  0  0  0  0  0  0  0  0
   -5.2820   17.4830  -34.4630 H   0  0  0  0  0  0  0  0  0  0  0  0
   -7.2722   16.8094  -33.2500 H   0  0  0  0  0  0  0  0  0  0  0  0
   -8.5340   18.4652  -30.4947 H   0  0  0  0  0  0  0  0  0  0  0  0
   -9.5368   19.1115  -31.8375 H   0  0  0  0  0  0  0  0  0  0  0  0
   -9.0408   17.3851  -31.8375 H   0  0  0  0  0  0  0  0  0  0  0  0
   -6.0113   23.7491  -32.8481 H   0  0  0  0  0  0  0  0  0  0  0  0
   -7.2937   22.5181  -32.4835 H   0  0  0  0  0  0  0  0  0  0  0  0
   -6.4653   23.9968  -30.5257 H   0  0  0  0  0  0  0  0  0  0  0  0
   -6.5346   22.1968  -30.2816 H   0  0  0  0  0  0  0  0  0  0  0  0
  1  2  1  0
  2  3  1  0
  3  4  1  0
  4  5  1  0
  5  6  2  0
  5  7  1  0
  7  8  1  0
  8  9  1  0
  9 10  1  0
 10 11  1  0
 11 12  1  0
 12 13  2  0
 13 14  1  0
 14 15  2  0
 15 16  1  0
 16 17  1  0
 16 18  2  0
 11 19  1  0
 19 20  1  0
 20  7  1  0
 18 12  1  0
  1 21  1  0
  1 22  1  0
  1 23  1  0
  2 24  1  0
  2 25  1  0
  4 26  1  0
  4 27  1  0
  8 28  1  0
  8 29  1  0
  9 30  1  0
  9 31  1  0
 10 32  1  0
 10 33  1  0
 13 34  1  0
 14 35  1  0
 15 36  1  0
 17 37  1  0
 17 38  1  0
 17 39  1  0
 19 40  1  0
 19 41  1  0
 20 42  1  0
 20 43  1  0
M  CHG  1  14   1
M  END
>  <UniqueID>  (18) 
18

>  <SMILES>  (18) 
CCOCC(=O)N1CCCN(c2c[nH+]cc(C)n2)CC1

>  <Energy>  (18) 
48.139588801807506

>  <Genealogy>  (18) 
CCOCC(=O)N1CCCN(c2c[nH+]cc(C)n2)CC1 (protonated)
CCOCC(=O)N1CCCN(c2c[nH+]cc(C)n2)CC1 (3D coordinates assigned)
CCOCC(=O)N1CCCN(c2c[nH+]cc(C)n2)CC1 (nonaromatic ring conformer: 48.139588801807506 kcal/mol)

>  <smiles>  (18) 
CCOCC(=O)N1CCCN(c2cncc(C)n2)CC1

>  <score_type>  (18) 
oracle

>  <origin>  (18) 
adg

>  <m_score__min__energy>  (18) 
-5.3499999999999996

>  <m_primary>  (18) 
energy

$$$$
18:0
     RDKit          3D

 66 69  0  0  0  0  0  0  0  0999 V2000
   -1.2460   25.2690  -27.4560 C   0  0  0  0  0  0  0  0  0  0  0  0
   -2.5360   24.6360  -27.9650 C   0  0  0  0  0  0  0  0  0  0  0  0
   -2.7740   24.9980  -29.3260 O   0  0  0  0  0  0  0  0  0  0  0  0
   -3.8700   24.5890  -30.1060 C   0  0  0  0  0  0  0  0  0  0  0  0
   -5.0710   25.3240  -30.1570 C   0  0  0  0  0  0  0  0  0  0  0  0
   -6.1270   24.9030  -30.9670 C   0  0  0  0  0  0  0  0  0  0  0  0
   -6.0100   23.7360  -31.7330 C   0  0  0  0  0  0  0  0  0  0  0  0
   -7.1140   23.3310  -32.6730 C   0  0  0  0  0  0  0  0  0  0  0  0
   -8.4180   23.0210  -31.9200 C   0  0  0  0  0  0  0  0  0  0  0  0
   -8.3170   21.7770  -31.1310 N   0  0  0  0  0  0  0  0  0  0  0  0
   -8.7470   20.5920  -31.9080 C   0  0  0  0  0  0  0  0  0  0  0  0
   -8.3440   19.2660  -31.2390 C   0  0  0  0  0  0  0  0  0  0  0  0
   -7.3830   18.4770  -32.0790 C   0  0  0  0  0  0  0  0  0  0  0  0
   -7.6120   17.2240  -32.6410 C   0  0  0  0  0  0  0  0  0  0  0  0
   -6.5660   16.8640  -33.4230 N   0  0  0  0  0  0  0  0  0  0  0  0
   -6.4660   15.6470  -34.2230 C   0  0  0  0  0  0  0  0  0  0  0  0
   -5.6860   17.8850  -33.3760 C   0  0  0  0  0  0  0  0  0  0  0  0
   -4.4690   18.0030  -34.0530 C   0  0  0  0  0  0  0  0  0  0  0  0
   -3.7290   19.1860  -33.8740 C   0  0  0  0  0  0  0  0  0  0  0  0
   -4.2150   20.2170  -33.0410 C   0  0  0  0  0  0  0  0  0  0  0  0
   -5.4450   20.0750  -32.3760 C   0  0  0  0  0  0  0  0  0  0  0  0
   -6.1550   18.8880  -32.5640 C   0  0  0  0  0  0  0  0  0  0  0  0
   -4.8230   22.9920  -31.6760 C   0  0  0  0  0  0  0  0  0  0  0  0
   -3.7570   23.4050  -30.8610 C   0  0  0  0  0  0  0  0  0  0  0  0
   -2.4630   22.6300  -30.8810 C   0  0  0  0  0  0  0  0  0  0  0  0
   -2.5970   21.3970  -30.0810 N   0  0  0  0  0  0  0  0  0  0  0  0
   -3.3060   21.6180  -28.8170 C   0  0  0  0  0  0  0  0  0  0  0  0
   -2.8210   20.5480  -27.8530 C   0  0  0  0  0  0  0  0  0  0  0  0
   -1.4930   20.0700  -28.4170 C   0  0  0  0  0  0  0  0  0  0  0  0
   -1.2900   20.8550  -29.7030 C   0  0  0  0  0  0  0  0  0  0  0  0
   -1.2466   25.2687  -26.3560 H   0  0  0  0  0  0  0  0  0  0  0  0
   -0.3846   24.6912  -27.8224 H   0  0  0  0  0  0  0  0  0  0  0  0
   -1.1759   26.3038  -27.8224 H   0  0  0  0  0  0  0  0  0  0  0  0
   -2.4545   23.5415  -27.8916 H   0  0  0  0  0  0  0  0  0  0  0  0
   -3.3737   24.9987  -27.3512 H   0  0  0  0  0  0  0  0  0  0  0  0
   -5.1774   26.2374  -29.5533 H   0  0  0  0  0  0  0  0  0  0  0  0
   -7.0560   25.4908  -31.0040 H   0  0  0  0  0  0  0  0  0  0  0  0
   -7.2981   24.1523  -33.3813 H   0  0  0  0  0  0  0  0  0  0  0  0
   -6.7977   22.4188  -33.2001 H   0  0  0  0  0  0  0  0  0  0  0  0
   -8.6429   23.8559  -31.2400 H   0  0  0  0  0  0  0  0  0  0  0  0
   -9.2174   22.8884  -32.6639 H   0  0  0  0  0  0  0  0  0  0  0  0
   -7.3150   21.6450  -30.8600 H   0  0  0  0  0  0  0  0  0  0  0  0
   -8.8710   21.8610  -30.2450 H   0  0  0  0  0  0  0  0  0  0  0  0
   -9.8420   20.6163  -32.0101 H   0  0  0  0  0  0  0  0  0  0  0  0
   -8.2466   20.6364  -32.8866 H   0  0  0  0  0  0  0  0  0  0  0  0
   -7.8699   19.4871  -30.2713 H   0  0  0  0  0  0  0  0  0  0  0  0
   -9.2544   18.6623  -31.1099 H   0  0  0  0  0  0  0  0  0  0  0  0
   -8.5123   16.6143  -32.4742 H   0  0  0  0  0  0  0  0  0  0  0  0
   -6.3943   14.7749  -33.5564 H   0  0  0  0  0  0  0  0  0  0  0  0
   -7.3593   15.5510  -34.8577 H   0  0  0  0  0  0  0  0  0  0  0  0
   -5.5690   15.6981  -34.8577 H   0  0  0  0  0  0  0  0  0  0  0  0
   -4.1016   17.1967  -34.7049 H   0  0  0  0  0  0  0  0  0  0  0  0
   -2.7639   19.3087  -34.3873 H   0  0  0  0  0  0  0  0  0  0  0  0
   -3.6271   21.1376  -32.9116 H   0  0  0  0  0  0  0  0  0  0  0  0
   -5.8356   20.8736  -31.7282 H   0  0  0  0  0  0  0  0  0  0  0  0
   -4.7259   22.0752  -32.2760 H   0  0  0  0  0  0  0  0  0  0  0  0
   -2.2140   22.3647  -31.9191 H   0  0  0  0  0  0  0  0  0  0  0  0
   -1.6642   23.2525  -30.4514 H   0  0  0  0  0  0  0  0  0  0  0  0
   -3.0740   22.6180  -28.4218 H   0  0  0  0  0  0  0  0  0  0  0  0
   -4.3953   21.5597  -28.9583 H   0  0  0  0  0  0  0  0  0  0  0  0
   -2.6823   20.9705  -26.8469 H   0  0  0  0  0  0  0  0  0  0  0  0
   -3.5448   19.7253  -27.7565 H   0  0  0  0  0  0  0  0  0  0  0  0
   -0.6778   20.2767  -27.7080 H   0  0  0  0  0  0  0  0  0  0  0  0
   -1.4940   18.9850  -28.5978 H   0  0  0  0  0  0  0  0  0  0  0  0
   -0.5744   21.6738  -29.5375 H   0  0  0  0  0  0  0  0  0  0  0  0
   -0.8858   20.2110  -30.4979 H   0  0  0  0  0  0  0  0  0  0  0  0
  1  2  1  0
  2  3  1  0
  3  4  1  0
  4  5  2  0
  5  6  1  0
  6  7  2  0
  7  8  1  0
  8  9  1  0
  9 10  1  0
 10 11  1  0
 11 12  1  0
 12 13  1  0
 13 14  2  0
 14 15  1  0
 15 16  1  0
 15 17  1  0
 17 18  2  0
 18 19  1  0
 19 20  2  0
 20 21  1  0
 21 22  2  0
  7 23  1  0
 23 24  2  0
 24 25  1  0
 25 26  1  0
 26 27  1  0
 27 28  1  0
 28 29  1  0
 29 30  1  0
 24  4  1  0
 30 26  1  0
 22 13  1  0
 22 17  1  0
  1 31  1  0
  1 32  1  0
  1 33  1  0
  2 34  1  0
  2 35  1  0
  5 36  1  0
  6 37  1  0
  8 38  1  0
  8 39  1  0
  9 40  1  0
  9 41  1  0
 10 42  1  0
 10 43  1  0
 11 44  1  0
 11 45  1  0
 12 46  1  0
 12 47  1  0
 14 48  1  0
 16 49  1  0
 16 50  1  0
 16 51  1  0
 18 52  1  0
 19 53  1  0
 20 54  1  0
 21 55  1  0
 23 56  1  0
 25 57  1  0
 25 58  1  0
 27 59  1  0
 27 60  1  0
 28 61  1  0
 28 62  1  0
 29 63  1  0
 29 64  1  0
 30 65  1  0
 30 66  1  0
M  CHG  1  10   1
M  END
>  <UniqueID>  (19) 
19

>  <SMILES>  (19) 
CCOc1ccc(CC[NH2+]CCc2cn(C)c3ccccc23)cc1CN1CCCC1

>  <Energy>  (19) 
95.48082503749563

>  <Genealogy>  (19) 
CCOc1ccc(CC[NH2+]CCc2cn(C)c3ccccc23)cc1CN1CCCC1 (protonated)
CCOc1ccc(CC[NH2+]CCc2cn(C)c3ccccc23)cc1CN1CCCC1 (3D coordinates assigned)
CCOc1ccc(CC[NH2+]CCc2cn(C)c3ccccc23)cc1CN1CCCC1 (nonaromatic ring conformer: 95.48082503749563 kcal/mol)

>  <smiles>  (19) 
CCOc1ccc(CCNCCc2cn(C)c3ccccc23)cc1CN1CCCC1

>  <score_type>  (19) 
oracle

>  <origin>  (19) 
adg

>  <m_score__min__energy>  (19) 
-8.4000000000000004

>  <m_primary>  (19) 
energy

$$$$
19:0
     RDKit          3D

 46 48  0  0  0  0  0  0  0  0999 V2000
   -6.7410   24.9930  -30.0900 C   0  0  0  0  0  0  0  0  0  0  0  0
   -5.3810   25.5650  -30.5170 C   0  0  0  0  0  0  0  0  0  0  0  0
   -4.3480   24.5300  -30.7550 N   0  0  0  0  0  0  0  0  0  0  0  0
   -3.3050   24.5130  -29.7070 C   0  0  0  0  0  0  0  0  0  0  0  0
   -3.8970   24.1170  -28.3560 C   0  0  0  0  0  0  0  0  0  0  0  0
   -4.9230   23.1940  -31.0390 C   0  0  0  0  0  0  0  0  0  0  0  0
   -3.8970   22.3540  -31.8000 C   0  0  0  0  0  0  0  0  0  0  0  0
   -4.4330   21.9140  -33.0860 N   0  0  0  0  0  0  0  0  0  0  0  0
   -4.7380   20.5340  -33.3080 C   0  0  0  0  0  0  0  0  0  0  0  0
   -6.0320   20.0540  -33.0980 C   0  0  0  0  0  0  0  0  0  0  0  0
   -6.3450   18.7360  -33.3260 C   0  0  0  0  0  0  0  0  0  0  0  0
   -5.3870   17.8370  -33.7690 C   0  0  0  0  0  0  0  0  0  0  0  0
   -4.0840   18.3250  -33.9710 C   0  0  0  0  0  0  0  0  0  0  0  0
   -3.7690   19.6440  -33.7260 N   0  0  0  0  0  0  0  0  0  0  0  0
   -2.3920   20.0940  -33.9650 C   0  0  0  0  0  0  0  0  0  0  0  0
   -7.6160   18.4910  -33.0810 O   0  0  0  0  0  0  0  0  0  0  0  0
   -8.1490   19.6330  -32.6960 C   0  0  0  0  0  0  0  0  0  0  0  0
   -9.4740   19.8660  -32.3340 C   0  0  0  0  0  0  0  0  0  0  0  0
   -9.8340   21.1730  -31.9570 C   0  0  0  0  0  0  0  0  0  0  0  0
   -8.8730   22.2080  -31.9520 C   0  0  0  0  0  0  0  0  0  0  0  0
   -7.5400   21.9500  -32.3210 C   0  0  0  0  0  0  0  0  0  0  0  0
   -7.2100   20.6450  -32.6880 C   0  0  0  0  0  0  0  0  0  0  0  0
   -6.7999   24.9682  -28.9919 H   0  0  0  0  0  0  0  0  0  0  0  0
   -7.5468   25.6285  -30.4862 H   0  0  0  0  0  0  0  0  0  0  0  0
   -6.8503   23.9727  -30.4862 H   0  0  0  0  0  0  0  0  0  0  0  0
   -5.5209   26.1363  -31.4466 H   0  0  0  0  0  0  0  0  0  0  0  0
   -5.0219   26.1931  -29.6884 H   0  0  0  0  0  0  0  0  0  0  0  0
   -2.5262   23.7878  -29.9855 H   0  0  0  0  0  0  0  0  0  0  0  0
   -2.8765   25.5225  -29.6209 H   0  0  0  0  0  0  0  0  0  0  0  0
   -3.2766   24.5320  -27.5480 H   0  0  0  0  0  0  0  0  0  0  0  0
   -4.9198   24.5134  -28.2735 H   0  0  0  0  0  0  0  0  0  0  0  0
   -3.9210   23.0204  -28.2735 H   0  0  0  0  0  0  0  0  0  0  0  0
   -5.1774   22.6946  -30.0925 H   0  0  0  0  0  0  0  0  0  0  0  0
   -5.8322   23.3059  -31.6479 H   0  0  0  0  0  0  0  0  0  0  0  0
   -2.9946   22.9586  -31.9739 H   0  0  0  0  0  0  0  0  0  0  0  0
   -3.6547   21.4657  -31.1982 H   0  0  0  0  0  0  0  0  0  0  0  0
   -4.4820   22.5690  -33.8990 H   0  0  0  0  0  0  0  0  0  0  0  0
   -5.6369   16.7821  -33.9553 H   0  0  0  0  0  0  0  0  0  0  0  0
   -3.3014   17.6411  -34.3313 H   0  0  0  0  0  0  0  0  0  0  0  0
   -1.8877   20.2588  -33.0014 H   0  0  0  0  0  0  0  0  0  0  0  0
   -1.8494   19.3264  -34.5363 H   0  0  0  0  0  0  0  0  0  0  0  0
   -2.4073   21.0339  -34.5363 H   0  0  0  0  0  0  0  0  0  0  0  0
  -10.2156   19.0536  -32.3426 H   0  0  0  0  0  0  0  0  0  0  0  0
  -10.8717   21.3903  -31.6640 H   0  0  0  0  0  0  0  0  0  0  0  0
   -9.1695   23.2253  -31.6568 H   0  0  0  0  0  0  0  0  0  0  0  0
   -6.7843   22.7493  -32.3202 H   0  0  0  0  0  0  0  0  0  0  0  0
  1  2  1  0
  2  3  1  0
  3  4  1  0
  4  5  1  0
  3  6  1  0
  6  7  1  0
  7  8  1  0
  8  9  1  0
  9 10  2  0
 10 11  1  0
 11 12  2  0
 12 13  1  0
 13 14  2  0
 14 15  1  0
 11 16  1  0
 16 17  1  0
 17 18  2  0
 18 19  1  0
 19 20  2  0
 20 21  1  0
 21 22  2  0
 14  9  1  0
 22 17  1  0
 22 10  1  0
  1 23  1  0
  1 24  1  0
  1 25  1  0
  2 26  1  0
  2 27  1  0
  4 28  1  0
  4 29  1  0
  5 30  1  0
  5 31  1  0
  5 32  1  0
  6 33  1  0
  6 34  1  0
  7 35  1  0
  7 36  1  0
  8 37  1  0
 12 38  1  0
 13 39  1  0
 15 40  1  0
 15 41  1  0
 15 42  1  0
 18 43  1  0
 19 44  1  0
 20 45  1  0
 21 46  1  0
M  CHG  1  14   1
M  END
>  <UniqueID>  (20) 
20

>  <SMILES>  (20) 
CCN(CC)CCNc1c2c(cc[n+]1C)oc1ccccc12

>  <Energy>  (20) 
95.94818139562247

>  <Genealogy>  (20) 
CCN(CC)CCNc1c2c(cc[n+]1C)oc1ccccc12 (3D coordinates assigned)
CCN(CC)CCNc1c2c(cc[n+]1C)oc1ccccc12 (optimized conformer: 95.94818139562247 kcal/mol)

>  <smiles>  (20) 
CCN(CC)CCNc1c2c(cc[n+]1C)oc1ccccc12

>  <score_type>  (20) 
oracle

>  <origin>  (20) 
adg

>  <m_score__min__energy>  (20) 
-7.8200000000000003

>  <m_primary>  (20) 
energy

$$$$
20:0
     RDKit          3D

 41 43  0  0  0  0  0  0  0  0999 V2000
   -3.8620   23.2070  -29.3120 C   0  0  0  0  0  0  0  0  0  0  0  0
   -3.4670   24.5450  -29.9280 C   0  0  0  0  0  0  0  0  0  0  0  0
   -4.2380   24.7830  -31.1520 N   0  0  0  0  0  0  0  0  0  0  0  0
   -5.6540   24.9940  -30.8320 C   0  0  0  0  0  0  0  0  0  0  0  0
   -6.4860   23.7770  -31.2450 C   0  0  0  0  0  0  0  0  0  0  0  0
   -5.7130   22.8900  -32.1140 N   0  0  0  0  0  0  0  0  0  0  0  0
   -6.0300   21.5030  -32.2890 C   0  0  0  0  0  0  0  0  0  0  0  0
   -5.1660   20.5140  -32.7460 C   0  0  0  0  0  0  0  0  0  0  0  0
   -3.7120   20.6320  -33.0000 C   0  0  0  0  0  0  0  0  0  0  0  0
   -2.9130   21.5290  -32.2690 C   0  0  0  0  0  0  0  0  0  0  0  0
   -1.5390   21.6110  -32.5100 C   0  0  0  0  0  0  0  0  0  0  0  0
   -0.9450   20.7950  -33.4760 C   0  0  0  0  0  0  0  0  0  0  0  0
    0.9380   20.9130  -33.8050 Br  0  0  0  0  0  0  0  0  0  0  0  0
   -1.7260   19.8900  -34.1960 C   0  0  0  0  0  0  0  0  0  0  0  0
   -3.1020   19.8030  -33.9570 C   0  0  0  0  0  0  0  0  0  0  0  0
   -5.8600   19.3680  -32.9500 N   0  0  0  0  0  0  0  0  0  0  0  0
   -7.1260   19.6950  -32.6190 C   0  0  0  0  0  0  0  0  0  0  0  0
   -8.2250   18.8430  -32.6980 C   0  0  0  0  0  0  0  0  0  0  0  0
   -9.4830   19.3690  -32.3690 C   0  0  0  0  0  0  0  0  0  0  0  0
   -9.6130   20.7180  -31.9930 C   0  0  0  0  0  0  0  0  0  0  0  0
   -8.4760   21.5310  -31.9350 C   0  0  0  0  0  0  0  0  0  0  0  0
   -7.2670   20.9750  -32.2280 N   0  0  0  0  0  0  0  0  0  0  0  0
   -3.8384   23.2871  -28.2152 H   0  0  0  0  0  0  0  0  0  0  0  0
   -4.8777   22.9387  -29.6383 H   0  0  0  0  0  0  0  0  0  0  0  0
   -3.1549   22.4301  -29.6383 H   0  0  0  0  0  0  0  0  0  0  0  0
   -3.6698   25.3512  -29.2077 H   0  0  0  0  0  0  0  0  0  0  0  0
   -2.3954   24.5252  -30.1755 H   0  0  0  0  0  0  0  0  0  0  0  0
   -3.8800   25.6650  -31.5900 H   0  0  0  0  0  0  0  0  0  0  0  0
   -5.7601   25.1539  -29.7489 H   0  0  0  0  0  0  0  0  0  0  0  0
   -6.0152   25.8746  -31.3834 H   0  0  0  0  0  0  0  0  0  0  0  0
   -6.7889   23.2244  -30.3434 H   0  0  0  0  0  0  0  0  0  0  0  0
   -7.3719   24.1260  -31.7958 H   0  0  0  0  0  0  0  0  0  0  0  0
   -4.8790   23.2750  -32.6160 H   0  0  0  0  0  0  0  0  0  0  0  0
   -3.3726   22.1703  -31.5025 H   0  0  0  0  0  0  0  0  0  0  0  0
   -0.9232   22.3202  -31.9374 H   0  0  0  0  0  0  0  0  0  0  0  0
   -1.2588   19.2434  -34.9533 H   0  0  0  0  0  0  0  0  0  0  0  0
   -3.7102   19.0811  -34.5218 H   0  0  0  0  0  0  0  0  0  0  0  0
   -8.1104   17.7938  -33.0077 H   0  0  0  0  0  0  0  0  0  0  0  0
  -10.3726   18.7230  -32.4053 H   0  0  0  0  0  0  0  0  0  0  0  0
  -10.6022   21.1311  -31.7462 H   0  0  0  0  0  0  0  0  0  0  0  0
   -8.5560   22.5930  -31.6596 H   0  0  0  0  0  0  0  0  0  0  0  0
  1  2  1  0
  2  3  1  0
  3  4  1  0
  4  5  1  0
  5  6  1  0
  6  7  1  0
  7  8  2  0
  8  9  1  0
  9 10  2  0
 10 11  1  0
 11 12  2  0
 12 13  1  0
 12 14  1  0
 14 15  2  0
  8 16  1  0
 16 17  2  0
 17 18  1  0
 18 19  2  0
 19 20  1  0
 20 21  2  0
 21 22  1  0
 22  7  1  0
 15  9  1  0
 22 17  1  0
  1 23  1  0
  1 24  1  0
  1 25  1  0
  2 26  1  0
  2 27  1  0
  3 28  1  0
  4 29  1  0
  4 30  1  0
  5 31  1  0
  5 32  1  0
  6 33  1  0
 10 34  1  0
 11 35  1  0
 14 36  1  0
 15 37  1  0
 18 38  1  0
 19 39  1  0
 20 40  1  0
 21 41  1  0
M  END
>  <UniqueID>  (21) 
21

>  <SMILES>  (21) 
CCNCCNc1c(-c2ccc(Br)cc2)nc2ccccn12

>  <Energy>  (21) 
78.51359748739934

>  <Genealogy>  (21) 
CCNCCNc1c(-c2ccc(Br)cc2)nc2ccccn12 (3D coordinates assigned)
CCNCCNc1c(-c2ccc(Br)cc2)nc2ccccn12 (optimized conformer: 78.51359748739934 kcal/mol)

>  <smiles>  (21) 
CCNCCNc1c(-c2ccc(Br)cc2)nc2ccccn12

>  <score_type>  (21) 
oracle

>  <origin>  (21) 
adg

>  <m_score__min__energy>  (21) 
-8.0999999999999996

>  <m_primary>  (21) 
energy

$$$$
21:0
     RDKit          3D

 59 63  0  0  0  0  0  0  0  0999 V2000
   -3.1090   18.8020  -26.0500 C   0  0  0  0  0  0  0  0  0  0  0  0
   -2.0780   19.6740  -26.7720 C   0  0  0  0  0  0  0  0  0  0  0  0
   -2.4980   20.0350  -28.1350 N   0  0  0  0  0  0  0  0  0  0  0  0
   -3.0980   21.3750  -28.1940 C   0  0  0  0  0  0  0  0  0  0  0  0
   -3.2780   21.8060  -29.6510 C   0  0  0  0  0  0  0  0  0  0  0  0
   -2.4380   21.0450  -30.5010 O   0  0  0  0  0  0  0  0  0  0  0  0
   -1.4850   21.8630  -31.1570 C   0  0  0  0  0  0  0  0  0  0  0  0
   -0.9840   21.1880  -32.4360 C   0  0  0  0  0  0  0  0  0  0  0  0
   -2.0220   21.1780  -33.4670 N   0  0  0  0  0  0  0  0  0  0  0  0
   -2.9520   20.0910  -33.5570 C   0  0  0  0  0  0  0  0  0  0  0  0
   -4.3090   20.2770  -33.2180 C   0  0  0  0  0  0  0  0  0  0  0  0
   -5.1950   19.1770  -33.3000 C   0  0  0  0  0  0  0  0  0  0  0  0
   -4.7780   18.0070  -33.9090 N   0  0  0  0  0  0  0  0  0  0  0  0
   -5.7680   17.0550  -34.4540 C   0  0  0  0  0  0  0  0  0  0  0  0
   -3.4310   17.7630  -34.0850 C   0  0  0  0  0  0  0  0  0  0  0  0
   -2.9460   16.4730  -34.4190 C   0  0  0  0  0  0  0  0  0  0  0  0
   -1.5820   16.2440  -34.6020 C   0  0  0  0  0  0  0  0  0  0  0  0
   -0.6710   17.2830  -34.4460 C   0  0  0  0  0  0  0  0  0  0  0  0
   -1.1180   18.5560  -34.0990 C   0  0  0  0  0  0  0  0  0  0  0  0
   -2.4940   18.8120  -33.9130 C   0  0  0  0  0  0  0  0  0  0  0  0
   -6.5620   19.3150  -32.6840 C   0  0  0  0  0  0  0  0  0  0  0  0
   -7.3280   18.2120  -32.4490 N   0  0  0  0  0  0  0  0  0  0  0  0
   -8.5670   18.2760  -31.8990 C   0  0  0  0  0  0  0  0  0  0  0  0
   -9.1080   19.5050  -31.5350 C   0  0  0  0  0  0  0  0  0  0  0  0
   -8.3430   20.6650  -31.7020 C   0  0  0  0  0  0  0  0  0  0  0  0
   -8.8460   21.9110  -31.3020 C   0  0  0  0  0  0  0  0  0  0  0  0
   -8.0590   23.0570  -31.4280 C   0  0  0  0  0  0  0  0  0  0  0  0
   -6.7620   22.9660  -31.9350 C   0  0  0  0  0  0  0  0  0  0  0  0
   -6.2400   21.7240  -32.3420 C   0  0  0  0  0  0  0  0  0  0  0  0
   -7.0430   20.5730  -32.2570 C   0  0  0  0  0  0  0  0  0  0  0  0
   -4.8420   21.6070  -32.8030 C   0  0  0  0  0  0  0  0  0  0  0  0
   -4.1210   22.6390  -32.8490 O   0  0  0  0  0  0  0  0  0  0  0  0
   -2.9825   18.9090  -24.9625 H   0  0  0  0  0  0  0  0  0  0  0  0
   -4.1226   19.1211  -26.3344 H   0  0  0  0  0  0  0  0  0  0  0  0
   -2.9626   17.7495  -26.3344 H   0  0  0  0  0  0  0  0  0  0  0  0
   -1.9300   20.5973  -26.1927 H   0  0  0  0  0  0  0  0  0  0  0  0
   -1.1478   19.0925  -26.8529 H   0  0  0  0  0  0  0  0  0  0  0  0
   -1.6690   20.0010  -28.7760 H   0  0  0  0  0  0  0  0  0  0  0  0
   -4.0786   21.3569  -27.6960 H   0  0  0  0  0  0  0  0  0  0  0  0
   -2.4339   22.0899  -27.6862 H   0  0  0  0  0  0  0  0  0  0  0  0
   -4.3264   21.6531  -29.9468 H   0  0  0  0  0  0  0  0  0  0  0  0
   -3.0089   22.8686  -29.7435 H   0  0  0  0  0  0  0  0  0  0  0  0
   -1.9513   22.8253  -31.4151 H   0  0  0  0  0  0  0  0  0  0  0  0
   -0.6308   22.0224  -30.4825 H   0  0  0  0  0  0  0  0  0  0  0  0
   -0.1085   21.7371  -32.8128 H   0  0  0  0  0  0  0  0  0  0  0  0
   -0.7155   20.1477  -32.2001 H   0  0  0  0  0  0  0  0  0  0  0  0
   -2.0600   21.9270  -34.1970 H   0  0  0  0  0  0  0  0  0  0  0  0
   -6.2894   16.5536  -33.6253 H   0  0  0  0  0  0  0  0  0  0  0  0
   -6.4983   17.5987  -35.0712 H   0  0  0  0  0  0  0  0  0  0  0  0
   -5.2533   16.3039  -35.0712 H   0  0  0  0  0  0  0  0  0  0  0  0
   -3.6557   15.6406  -34.5355 H   0  0  0  0  0  0  0  0  0  0  0  0
   -1.2261   15.2384  -34.8705 H   0  0  0  0  0  0  0  0  0  0  0  0
    0.4031   17.0996  -34.5967 H   0  0  0  0  0  0  0  0  0  0  0  0
   -0.3907   19.3709  -33.9684 H   0  0  0  0  0  0  0  0  0  0  0  0
   -9.1451   17.3537  -31.7406 H   0  0  0  0  0  0  0  0  0  0  0  0
  -10.1253   19.5643  -31.1207 H   0  0  0  0  0  0  0  0  0  0  0  0
   -9.8625   21.9857  -30.8882 H   0  0  0  0  0  0  0  0  0  0  0  0
   -8.4625   24.0350  -31.1267 H   0  0  0  0  0  0  0  0  0  0  0  0
   -6.1431   23.8717  -32.0171 H   0  0  0  0  0  0  0  0  0  0  0  0
  1  2  1  0
  2  3  1  0
  3  4  1  0
  4  5  1  0
  5  6  1  0
  6  7  1  0
  7  8  1  0
  8  9  1  0
  9 10  1  0
 10 11  2  0
 11 12  1  0
 12 13  2  0
 13 14  1  0
 13 15  1  0
 15 16  2  0
 16 17  1  0
 17 18  2  0
 18 19  1  0
 19 20  2  0
 12 21  1  0
 21 22  2  0
 22 23  1  0
 23 24  2  0
 24 25  1  0
 25 26  2  0
 26 27  1  0
 27 28  2  0
 28 29  1  0
 29 30  2  0
 29 31  1  0
 31 32  2  0
 20 10  1  0
 30 21  1  0
 31 11  1  0
 20 15  1  0
 30 25  1  0
  1 33  1  0
  1 34  1  0
  1 35  1  0
  2 36  1  0
  2 37  1  0
  3 38  1  0
  4 39  1  0
  4 40  1  0
  5 41  1  0
  5 42  1  0
  7 43  1  0
  7 44  1  0
  8 45  1  0
  8 46  1  0
  9 47  1  0
 14 48  1  0
 14 49  1  0
 14 50  1  0
 16 51  1  0
 17 52  1  0
 18 53  1  0
 19 54  1  0
 23 55  1  0
 24 56  1  0
 26 57  1  0
 27 58  1  0
 28 59  1  0
M  CHG  1  13   1
M  END
>  <UniqueID>  (22) 
22

>  <SMILES>  (22) 
CCNCCOCCNc1c2c([n+](C)c3ccccc13)-c1nccc3cccc(c13)C2=O

>  <Energy>  (22) 
98.29229499728423

>  <Genealogy>  (22) 
CCNCCOCCNc1c2c([n+](C)c3ccccc13)-c1nccc3cccc(c13)C2=O (3D coordinates assigned)
CCNCCOCCNc1c2c([n+](C)c3ccccc13)-c1nccc3cccc(c13)C2=O (nonaromatic ring conformer: 98.29229499728423 kcal/mol)

>  <smiles>  (22) 
CCNCCOCCNc1c2c([n+](C)c3ccccc13)-c1nccc3cccc(c13)C2=O

>  <score_type>  (22) 
oracle

>  <origin>  (22) 
adg

>  <m_score__min__energy>  (22) 
-10.31

>  <m_primary>  (22) 
energy

$$$$
22:0
     RDKit          3D

 74 76  0  0  0  0  0  0  0  0999 V2000
   -2.5480   24.1890  -28.6950 C   0  0  0  0  0  0  0  0  0  0  0  0
   -3.9580   23.7360  -28.3280 C   0  0  0  0  0  0  0  0  0  0  0  0
   -4.7350   23.3950  -29.5410 N   0  0  0  0  0  0  0  0  0  0  0  0
   -5.2340   24.5280  -30.3610 C   0  0  0  0  0  0  0  0  0  0  0  0
   -6.4170   25.3000  -29.7570 C   0  0  0  0  0  0  0  0  0  0  0  0
   -4.1790   22.2650  -30.3170 C   0  0  0  0  0  0  0  0  0  0  0  0
   -3.6490   22.6710  -31.6980 C   0  0  0  0  0  0  0  0  0  0  0  0
   -4.6300   22.3380  -32.7290 N   0  0  0  0  0  0  0  0  0  0  0  0
   -5.3550   21.0960  -32.6950 C   0  0  0  0  0  0  0  0  0  0  0  0
   -6.7080   21.0740  -32.3140 C   0  0  0  0  0  0  0  0  0  0  0  0
   -7.3720   22.2600  -31.9290 C   0  0  0  0  0  0  0  0  0  0  0  0
   -8.6990   22.2270  -31.5090 C   0  0  0  0  0  0  0  0  0  0  0  0
   -9.3820   21.0190  -31.4550 C   0  0  0  0  0  0  0  0  0  0  0  0
   -8.7540   19.8390  -31.8490 C   0  0  0  0  0  0  0  0  0  0  0  0
   -7.4170   19.8430  -32.3250 C   0  0  0  0  0  0  0  0  0  0  0  0
   -6.8020   18.6910  -32.7770 N   0  0  0  0  0  0  0  0  0  0  0  0
   -7.6080   17.4840  -33.0630 C   0  0  0  0  0  0  0  0  0  0  0  0
   -5.4350   18.6730  -32.9840 C   0  0  0  0  0  0  0  0  0  0  0  0
   -4.7250   17.4610  -33.1770 C   0  0  0  0  0  0  0  0  0  0  0  0
   -3.3520   17.4580  -33.4160 C   0  0  0  0  0  0  0  0  0  0  0  0
   -2.6360   18.6570  -33.4620 C   0  0  0  0  0  0  0  0  0  0  0  0
   -1.2090   18.6510  -33.6780 N   0  0  0  0  0  0  0  0  0  0  0  0
   -0.5190   18.2220  -32.4510 C   0  0  0  0  0  0  0  0  0  0  0  0
    0.3280   19.3510  -31.8350 C   0  0  0  0  0  0  0  0  0  0  0  0
   -0.2990   20.7500  -31.9380 C   0  0  0  0  0  0  0  0  0  0  0  0
    0.0810   21.4060  -33.1990 N   0  0  0  0  0  0  0  0  0  0  0  0
    1.2250   20.7370  -33.8380 C   0  0  0  0  0  0  0  0  0  0  0  0
    0.9070   20.3660  -35.2950 C   0  0  0  0  0  0  0  0  0  0  0  0
    0.5990   21.5820  -36.1780 C   0  0  0  0  0  0  0  0  0  0  0  0
    0.0190   22.6710  -35.3960 N   0  0  0  0  0  0  0  0  0  0  0  0
   -3.3080   19.8610  -33.2210 C   0  0  0  0  0  0  0  0  0  0  0  0
   -4.6970   19.8860  -32.9790 C   0  0  0  0  0  0  0  0  0  0  0  0
   -1.9717   24.3742  -27.7766 H   0  0  0  0  0  0  0  0  0  0  0  0
   -2.0532   23.4046  -29.2865 H   0  0  0  0  0  0  0  0  0  0  0  0
   -2.6026   25.1148  -29.2865 H   0  0  0  0  0  0  0  0  0  0  0  0
   -3.8944   22.8495  -27.6799 H   0  0  0  0  0  0  0  0  0  0  0  0
   -4.4666   24.5587  -27.8042 H   0  0  0  0  0  0  0  0  0  0  0  0
   -4.4040   25.2353  -30.5055 H   0  0  0  0  0  0  0  0  0  0  0  0
   -5.6033   24.0874  -31.2988 H   0  0  0  0  0  0  0  0  0  0  0  0
   -6.3579   25.2614  -28.6593 H   0  0  0  0  0  0  0  0  0  0  0  0
   -6.3792   26.3478  -30.0896 H   0  0  0  0  0  0  0  0  0  0  0  0
   -7.3609   24.8435  -30.0896 H   0  0  0  0  0  0  0  0  0  0  0  0
   -3.3514   21.8227  -29.7430 H   0  0  0  0  0  0  0  0  0  0  0  0
   -5.0003   21.5524  -30.4831 H   0  0  0  0  0  0  0  0  0  0  0  0
   -3.4604   23.7546  -31.7114 H   0  0  0  0  0  0  0  0  0  0  0  0
   -2.7148   22.1265  -31.9000 H   0  0  0  0  0  0  0  0  0  0  0  0
   -4.6500   22.9120  -33.6010 H   0  0  0  0  0  0  0  0  0  0  0  0
   -6.8350   23.2195  -31.9614 H   0  0  0  0  0  0  0  0  0  0  0  0
   -9.2070   23.1588  -31.2196 H   0  0  0  0  0  0  0  0  0  0  0  0
  -10.4228   20.9935  -31.0998 H   0  0  0  0  0  0  0  0  0  0  0  0
   -9.3040   18.8882  -31.7901 H   0  0  0  0  0  0  0  0  0  0  0  0
   -7.9191   17.0181  -32.1164 H   0  0  0  0  0  0  0  0  0  0  0  0
   -8.4990   17.7670  -33.6427 H   0  0  0  0  0  0  0  0  0  0  0  0
   -7.0052   16.7694  -33.6427 H   0  0  0  0  0  0  0  0  0  0  0  0
   -5.2680   16.5052  -33.1373 H   0  0  0  0  0  0  0  0  0  0  0  0
   -2.8274   16.5034  -33.5698 H   0  0  0  0  0  0  0  0  0  0  0  0
   -0.9070   19.6160  -33.9470 H   0  0  0  0  0  0  0  0  0  0  0  0
   -0.9670   18.0050  -34.4650 H   0  0  0  0  0  0  0  0  0  0  0  0
   -1.2712   17.9016  -31.7151 H   0  0  0  0  0  0  0  0  0  0  0  0
    0.1589   17.3971  -32.7156 H   0  0  0  0  0  0  0  0  0  0  0  0
    0.4828   19.1219  -30.7703 H   0  0  0  0  0  0  0  0  0  0  0  0
    1.2654   19.3864  -32.4094 H   0  0  0  0  0  0  0  0  0  0  0  0
   -1.3943   20.6574  -31.8964 H   0  0  0  0  0  0  0  0  0  0  0  0
    0.0679   21.3613  -31.1003 H   0  0  0  0  0  0  0  0  0  0  0  0
   -0.7330   21.3260  -33.8540 H   0  0  0  0  0  0  0  0  0  0  0  0
    2.0921   21.4136  -33.8208 H   0  0  0  0  0  0  0  0  0  0  0  0
    1.4438   19.8132  -33.2825 H   0  0  0  0  0  0  0  0  0  0  0  0
    1.7744   19.8382  -35.7181 H   0  0  0  0  0  0  0  0  0  0  0  0
    0.0048   19.7368  -35.2812 H   0  0  0  0  0  0  0  0  0  0  0  0
    1.5319   21.9324  -36.6438 H   0  0  0  0  0  0  0  0  0  0  0  0
   -0.1286   21.2791  -36.9454 H   0  0  0  0  0  0  0  0  0  0  0  0
    0.6670   22.8890  -34.6060 H   0  0  0  0  0  0  0  0  0  0  0  0
   -0.8600   22.3140  -34.9560 H   0  0  0  0  0  0  0  0  0  0  0  0
   -2.7425   20.8045  -33.2204 H   0  0  0  0  0  0  0  0  0  0  0  0
  1  2  1  0
  2  3  1  0
  3  4  1  0
  4  5  1  0
  3  6  1  0
  6  7  1  0
  7  8  1  0
  8  9  1  0
  9 10  2  0
 10 11  1  0
 11 12  2  0
 12 13  1  0
 13 14  2  0
 14 15  1  0
 15 16  2  0
 16 17  1  0
 16 18  1  0
 18 19  2  0
 19 20  1  0
 20 21  2  0
 21 22  1  0
 22 23  1  0
 23 24  1  0
 24 25  1  0
 25 26  1  0
 26 27  1  0
 27 28  1  0
 28 29  1  0
 29 30  1  0
 21 31  1  0
 31 32  2  0
 32  9  1  0
 15 10  1  0
 32 18  1  0
  1 33  1  0
  1 34  1  0
  1 35  1  0
  2 36  1  0
  2 37  1  0
  4 38  1  0
  4 39  1  0
  5 40  1  0
  5 41  1  0
  5 42  1  0
  6 43  1  0
  6 44  1  0
  7 45  1  0
  7 46  1  0
  8 47  1  0
 11 48  1  0
 12 49  1  0
 13 50  1  0
 14 51  1  0
 17 52  1  0
 17 53  1  0
 17 54  1  0
 19 55  1  0
 20 56  1  0
 22 57  1  0
 22 58  1  0
 23 59  1  0
 23 60  1  0
 24 61  1  0
 24 62  1  0
 25 63  1  0
 25 64  1  0
 26 65  1  0
 27 66  1  0
 27 67  1  0
 28 68  1  0
 28 69  1  0
 29 70  1  0
 29 71  1  0
 30 72  1  0
 30 73  1  0
 31 74  1  0
M  CHG  2  16   1  22   1
M  END
>  <UniqueID>  (23) 
23

>  <SMILES>  (23) 
CCN(CC)CCNc1c2ccccc2[n+](C)c2ccc([NH2+]CCCNCCCN)cc12

>  <Energy>  (23) 
97.79142276469632

>  <Genealogy>  (23) 
CCN(CC)CCNc1c2ccccc2[n+](C)c2ccc([NH2+]CCCNCCCN)cc12 (protonated)
CCN(CC)CCNc1c2ccccc2[n+](C)c2ccc([NH2+]CCCNCCCN)cc12 (3D coordinates assigned)
CCN(CC)CCNc1c2ccccc2[n+](C)c2ccc([NH2+]CCCNCCCN)cc12 (optimized conformer: 97.79142276469632 kcal/mol)

>  <smiles>  (23) 
CCN(CC)CCNc1c2ccccc2[n+](C)c2ccc(NCCCNCCCN)cc12

>  <score_type>  (23) 
oracle

>  <origin>  (23) 
adg

>  <m_score__min__energy>  (23) 
-8.0800000000000001

>  <m_primary>  (23) 
energy

$$$$
