0:0
     RDKit          3D

 39 41  0  0  0  0  0  0  0  0999 V2000
   -3.3830   24.5470  -27.0070 C   0  0  0  0  0  0  0  0  0  0  0  0
   -4.2020   23.3750  -27.5340 C   0  0  0  0  0  0  0  0  0  0  0  0
   -3.8240   23.0650  -28.9160 N   0  0  0  0  0  0  0  0  0  0  0  0
   -4.1350   23.7840  -30.0170 C   0  0  0  0  0  0  0  0  0  0  0  0
   -5.3240   25.1300  -30.0660 S   0  0  0  0  0  0  0  0  0  0  0  0
   -6.1540   24.5490  -31.5890 C   0  0  0  0  0  0  0  0  0  0  0  0
   -6.8520   23.2400  -31.3680 C   0  0  0  0  0  0  0  0  0  0  0  0
   -7.2130   22.9230  -30.2030 O   0  0  0  0  0  0  0  0  0  0  0  0
   -7.1290   22.3780  -32.4850 N   0  0  0  0  0  0  0  0  0  0  0  0
   -7.4730   20.9790  -32.3930 C   0  0  0  0  0  0  0  0  0  0  0  0
   -8.7900   20.5700  -32.1030 C   0  0  0  0  0  0  0  0  0  0  0  0
   -9.1000   19.2160  -31.9590 C   0  0  0  0  0  0  0  0  0  0  0  0
   -8.1030   18.2510  -32.0930 C   0  0  0  0  0  0  0  0  0  0  0  0
   -6.7910   18.6390  -32.3650 C   0  0  0  0  0  0  0  0  0  0  0  0
   -6.4670   19.9920  -32.5100 C   0  0  0  0  0  0  0  0  0  0  0  0
   -4.6390   20.4400  -32.8810 Br  0  0  0  0  0  0  0  0  0  0  0  0
   -3.4800   23.3420  -31.1050 N   0  0  0  0  0  0  0  0  0  0  0  0
   -2.7340   22.3220  -30.7140 N   0  0  0  0  0  0  0  0  0  0  0  0
   -2.9420   22.1520  -29.3920 C   0  0  0  0  0  0  0  0  0  0  0  0
   -2.2740   21.0770  -28.6260 C   0  0  0  0  0  0  0  0  0  0  0  0
   -2.8840   20.3230  -27.6280 C   0  0  0  0  0  0  0  0  0  0  0  0
   -2.0190   19.4180  -27.0000 C   0  0  0  0  0  0  0  0  0  0  0  0
   -0.7210   19.4570  -27.4860 C   0  0  0  0  0  0  0  0  0  0  0  0
   -0.6540   20.6220  -28.6940 S   0  0  0  0  0  0  0  0  0  0  0  0
   -3.3914   24.5350  -25.9071 H   0  0  0  0  0  0  0  0  0  0  0  0
   -2.3470   24.4615  -27.3667 H   0  0  0  0  0  0  0  0  0  0  0  0
   -3.8194   25.4905  -27.3667 H   0  0  0  0  0  0  0  0  0  0  0  0
   -4.0199   22.4930  -26.9024 H   0  0  0  0  0  0  0  0  0  0  0  0
   -5.2678   23.6458  -27.5088 H   0  0  0  0  0  0  0  0  0  0  0  0
   -6.8938   25.3004  -31.9020 H   0  0  0  0  0  0  0  0  0  0  0  0
   -5.3891   24.4059  -32.3664 H   0  0  0  0  0  0  0  0  0  0  0  0
   -7.0480   22.8040  -33.4350 H   0  0  0  0  0  0  0  0  0  0  0  0
   -9.5819   21.3249  -31.9889 H   0  0  0  0  0  0  0  0  0  0  0  0
  -10.1335   18.9102  -31.7393 H   0  0  0  0  0  0  0  0  0  0  0  0
   -8.3506   17.1847  -31.9844 H   0  0  0  0  0  0  0  0  0  0  0  0
   -6.0056   17.8755  -32.4662 H   0  0  0  0  0  0  0  0  0  0  0  0
   -3.9452   20.4279  -27.3579 H   0  0  0  0  0  0  0  0  0  0  0  0
   -2.3396   18.7393  -26.1959 H   0  0  0  0  0  0  0  0  0  0  0  0
    0.1176   18.8343  -27.1410 H   0  0  0  0  0  0  0  0  0  0  0  0
  1  2  1  0
  2  3  1  0
  3  4  1  0
  4  5  1  0
  5  6  1  0
  6  7  1  0
  7  8  2  0
  7  9  1  0
  9 10  1  0
 10 11  2  0
 11 12  1  0
 12 13  2  0
 13 14  1  0
 14 15  2  0
 15 16  1  0
  4 17  2  0
 17 18  1  0
 18 19  2  0
 19 20  1  0
 20 21  2  0
 21 22  1  0
 22 23  2  0
 23 24  1  0
 19  3  1  0
 24 20  1  0
 15 10  1  0
  1 25  1  0
  1 26  1  0
  1 27  1  0
  2 28  1  0
  2 29  1  0
  6 30  1  0
  6 31  1  0
  9 32  1  0
 11 33  1  0
 12 34  1  0
 13 35  1  0
 14 36  1  0
 21 37  1  0
 22 38  1  0
 23 39  1  0
M  END
>  <UniqueID>  (1) 
1

>  <SMILES>  (1) 
CCn1c(SCC(=O)Nc2ccccc2Br)nnc1-c1cccs1

>  <Energy>  (1) 
97.90722594770429

>  <Genealogy>  (1) 
CCn1c(SCC(=O)Nc2ccccc2Br)nnc1-c1cccs1 (3D coordinates assigned)
CCn1c(SCC(=O)Nc2ccccc2Br)nnc1-c1cccs1 (optimized conformer: 97.90722594770429 kcal/mol)

>  <smiles>  (1) 
CCn1c(SCC(=O)Nc2ccccc2Br)nnc1-c1cccs1

>  <score_type>  (1) 
oracle

>  <origin>  (1) 
adg

>  <m_score__min__energy>  (1) 
-9.1099999999999994

>  <m_primary>  (1) 
energy

$$$$
1:0
     RDKit          3D

 51 52  0  0  0  0  0  0  0  0999 V2000
   -2.2100   21.0930  -27.4330 C   0  0  0  0  0  0  0  0  0  0  0  0
   -0.7900   21.5950  -27.6360 C   0  0  0  0  0  0  0  0  0  0  0  0
   -0.6950   22.2410  -28.9030 O   0  0  0  0  0  0  0  0  0  0  0  0
   -1.7770   22.5140  -29.7550 C   0  0  0  0  0  0  0  0  0  0  0  0
   -2.2570   21.5380  -30.6470 C   0  0  0  0  0  0  0  0  0  0  0  0
   -3.3400   21.8060  -31.4920 C   0  0  0  0  0  0  0  0  0  0  0  0
   -3.8190   20.7530  -32.4640 C   0  0  0  0  0  0  0  0  0  0  0  0
   -4.9340   21.2400  -33.2950 N   0  0  0  0  0  0  0  0  0  0  0  0
   -6.0210   20.2510  -33.3930 C   0  0  0  0  0  0  0  0  0  0  0  0
   -7.2460   20.7430  -32.6680 C   0  0  0  0  0  0  0  0  0  0  0  0
   -7.2010   21.9210  -31.9080 C   0  0  0  0  0  0  0  0  0  0  0  0
   -8.3340   22.3440  -31.2120 C   0  0  0  0  0  0  0  0  0  0  0  0
   -9.5010   21.5800  -31.2720 C   0  0  0  0  0  0  0  0  0  0  0  0
   -9.5260   20.4310  -31.9970 N   0  0  0  0  0  0  0  0  0  0  0  0
   -8.4350   19.9970  -32.6850 C   0  0  0  0  0  0  0  0  0  0  0  0
   -3.9480   23.0650  -31.4550 C   0  0  0  0  0  0  0  0  0  0  0  0
   -3.4840   24.0560  -30.5730 C   0  0  0  0  0  0  0  0  0  0  0  0
   -4.0740   25.3290  -30.5140 O   0  0  0  0  0  0  0  0  0  0  0  0
   -5.4600   25.5930  -30.7240 C   0  0  0  0  0  0  0  0  0  0  0  0
   -6.2120   25.4170  -29.4160 C   0  0  0  0  0  0  0  0  0  0  0  0
   -2.4000   23.7890  -29.7210 C   0  0  0  0  0  0  0  0  0  0  0  0
   -1.9960   24.8340  -28.8680 O   0  0  0  0  0  0  0  0  0  0  0  0
   -2.2310   24.9280  -27.4650 C   0  0  0  0  0  0  0  0  0  0  0  0
   -3.6330   24.4300  -27.1540 C   0  0  0  0  0  0  0  0  0  0  0  0
   -2.4220   21.0181  -26.3562 H   0  0  0  0  0  0  0  0  0  0  0  0
   -2.9173   21.7956  -27.8979 H   0  0  0  0  0  0  0  0  0  0  0  0
   -2.3186   20.1020  -27.8979 H   0  0  0  0  0  0  0  0  0  0  0  0
   -0.5355   22.3095  -26.8393 H   0  0  0  0  0  0  0  0  0  0  0  0
   -0.0909   20.7464  -27.6019 H   0  0  0  0  0  0  0  0  0  0  0  0
   -1.7743   20.5501  -30.6809 H   0  0  0  0  0  0  0  0  0  0  0  0
   -2.9836   20.4687  -33.1207 H   0  0  0  0  0  0  0  0  0  0  0  0
   -4.1777   19.8904  -31.8832 H   0  0  0  0  0  0  0  0  0  0  0  0
   -5.3030   22.1400  -32.9040 H   0  0  0  0  0  0  0  0  0  0  0  0
   -4.5630   21.4290  -34.2550 H   0  0  0  0  0  0  0  0  0  0  0  0
   -6.2680   20.0878  -34.4524 H   0  0  0  0  0  0  0  0  0  0  0  0
   -5.6885   19.3089  -32.9327 H   0  0  0  0  0  0  0  0  0  0  0  0
   -6.2736   22.5107  -31.8607 H   0  0  0  0  0  0  0  0  0  0  0  0
   -8.3079   23.2715  -30.6211 H   0  0  0  0  0  0  0  0  0  0  0  0
  -10.4012   21.9085  -30.7318 H   0  0  0  0  0  0  0  0  0  0  0  0
   -8.4850   19.0584  -33.2564 H   0  0  0  0  0  0  0  0  0  0  0  0
   -4.7960   23.2813  -32.1214 H   0  0  0  0  0  0  0  0  0  0  0  0
   -5.5865   26.6247  -31.0839 H   0  0  0  0  0  0  0  0  0  0  0  0
   -5.8577   24.8925  -31.4731 H   0  0  0  0  0  0  0  0  0  0  0  0
   -5.5240   25.5780  -28.5730 H   0  0  0  0  0  0  0  0  0  0  0  0
   -7.0330   26.1473  -29.3639 H   0  0  0  0  0  0  0  0  0  0  0  0
   -6.6236   24.3982  -29.3639 H   0  0  0  0  0  0  0  0  0  0  0  0
   -1.4950   24.3121  -26.9274 H   0  0  0  0  0  0  0  0  0  0  0  0
   -2.1338   25.9760  -27.1453 H   0  0  0  0  0  0  0  0  0  0  0  0
   -3.7712   24.3809  -26.0638 H   0  0  0  0  0  0  0  0  0  0  0  0
   -4.3718   25.1207  -27.5866 H   0  0  0  0  0  0  0  0  0  0  0  0
   -3.7706   23.4280  -27.5866 H   0  0  0  0  0  0  0  0  0  0  0  0
  1  2  1  0
  2  3  1  0
  3  4  1  0
  4  5  2  0
  5  6  1  0
  6  7  1  0
  7  8  1  0
  8  9  1  0
  9 10  1  0
 10 11  2  0
 11 12  1  0
 12 13  2  0
 13 14  1  0
 14 15  2  0
  6 16  2  0
 16 17  1  0
 17 18  1  0
 18 19  1  0
 19 20  1  0
 17 21  2  0
 21 22  1  0
 22 23  1  0
 23 24  1  0
 21  4  1  0
 15 10  1  0
  1 25  1  0
  1 26  1  0
  1 27  1  0
  2 28  1  0
  2 29  1  0
  5 30  1  0
  7 31  1  0
  7 32  1  0
  8 33  1  0
  8 34  1  0
  9 35  1  0
  9 36  1  0
 11 37  1  0
 12 38  1  0
 13 39  1  0
 15 40  1  0
 16 41  1  0
 19 42  1  0
 19 43  1  0
 20 44  1  0
 20 45  1  0
 20 46  1  0
 23 47  1  0
 23 48  1  0
 24 49  1  0
 24 50  1  0
 24 51  1  0
M  CHG  1   8   1
M  END
>  <UniqueID>  (2) 
2

>  <SMILES>  (2) 
CCOc1cc(C[NH2+]Cc2cccnc2)cc(OCC)c1OCC

>  <Energy>  (2) 
42.45203435276357

>  <Genealogy>  (2) 
CCOc1cc(C[NH2+]Cc2cccnc2)cc(OCC)c1OCC (protonated)
CCOc1cc(C[NH2+]Cc2cccnc2)cc(OCC)c1OCC (3D coordinates assigned)
CCOc1cc(C[NH2+]Cc2cccnc2)cc(OCC)c1OCC (optimized conformer: 42.45203435276357 kcal/mol)

>  <smiles>  (2) 
CCOc1cc(CNCc2cccnc2)cc(OCC)c1OCC

>  <score_type>  (2) 
oracle

>  <origin>  (2) 
adg

>  <m_score__min__energy>  (2) 
-6.9800000000000004

>  <m_primary>  (2) 
energy

$$$$
2:0
     RDKit          3D

 45 47  0  0  0  0  0  0  0  0999 V2000
   -6.4910   17.4090  -31.2050 C   0  0  0  0  0  0  0  0  0  0  0  0
   -5.5270   16.9020  -32.2900 C   0  0  0  0  0  0  0  0  0  0  0  0
   -5.9270   17.2650  -33.6740 N   0  0  0  0  0  0  0  0  0  0  0  0
   -6.8550   16.3000  -34.3130 C   0  0  0  0  0  0  0  0  0  0  0  0
   -6.3320   14.8680  -34.2160 C   0  0  0  0  0  0  0  0  0  0  0  0
   -4.7640   17.5640  -34.5410 C   0  0  0  0  0  0  0  0  0  0  0  0
   -3.7530   18.4170  -33.7660 C   0  0  0  0  0  0  0  0  0  0  0  0
   -4.3050   19.8170  -33.4840 C   0  0  0  0  0  0  0  0  0  0  0  0
   -5.6680   19.9320  -34.0010 N   0  0  0  0  0  0  0  0  0  0  0  0
   -6.7630   20.1930  -33.1140 C   0  0  0  0  0  0  0  0  0  0  0  0
   -7.8180   19.3300  -33.0920 N   0  0  0  0  0  0  0  0  0  0  0  0
   -8.8750   19.5230  -32.2600 C   0  0  0  0  0  0  0  0  0  0  0  0
   -8.9150   20.6030  -31.4390 N   0  0  0  0  0  0  0  0  0  0  0  0
   -7.9080   21.5120  -31.4290 C   0  0  0  0  0  0  0  0  0  0  0  0
   -7.9880   22.6360  -30.5840 C   0  0  0  0  0  0  0  0  0  0  0  0
   -6.9460   23.5570  -30.6270 C   0  0  0  0  0  0  0  0  0  0  0  0
   -5.8780   23.3990  -31.4480 C   0  0  0  0  0  0  0  0  0  0  0  0
   -5.7510   22.3050  -32.2990 C   0  0  0  0  0  0  0  0  0  0  0  0
   -6.7820   21.3330  -32.2850 C   0  0  0  0  0  0  0  0  0  0  0  0
   -5.0120   24.4630  -31.2840 O   0  0  0  0  0  0  0  0  0  0  0  0
   -5.5710   25.3430  -30.2980 C   0  0  0  0  0  0  0  0  0  0  0  0
   -6.8060   24.7290  -29.9080 O   0  0  0  0  0  0  0  0  0  0  0  0
   -6.0731   17.1892  -30.2115 H   0  0  0  0  0  0  0  0  0  0  0  0
   -6.6267   18.4952  -31.3136 H   0  0  0  0  0  0  0  0  0  0  0  0
   -7.4629   16.9054  -31.3136 H   0  0  0  0  0  0  0  0  0  0  0  0
   -4.5320   17.3285  -32.0948 H   0  0  0  0  0  0  0  0  0  0  0  0
   -5.5364   15.8034  -32.2347 H   0  0  0  0  0  0  0  0  0  0  0  0
   -7.8319   16.3580  -33.8106 H   0  0  0  0  0  0  0  0  0  0  0  0
   -6.9444   16.5622  -35.3776 H   0  0  0  0  0  0  0  0  0  0  0  0
   -6.2291   14.5861  -33.1577 H   0  0  0  0  0  0  0  0  0  0  0  0
   -7.0388   14.1852  -34.7102 H   0  0  0  0  0  0  0  0  0  0  0  0
   -5.3515   14.8015  -34.7102 H   0  0  0  0  0  0  0  0  0  0  0  0
   -4.2872   16.6228  -34.8519 H   0  0  0  0  0  0  0  0  0  0  0  0
   -5.1026   18.1155  -35.4305 H   0  0  0  0  0  0  0  0  0  0  0  0
   -3.5255   17.9225  -32.8101 H   0  0  0  0  0  0  0  0  0  0  0  0
   -2.8446   18.5193  -34.3778 H   0  0  0  0  0  0  0  0  0  0  0  0
   -4.3113   19.9940  -32.3983 H   0  0  0  0  0  0  0  0  0  0  0  0
   -3.6669   20.5629  -33.9805 H   0  0  0  0  0  0  0  0  0  0  0  0
   -5.8890   19.3850  -34.8630 H   0  0  0  0  0  0  0  0  0  0  0  0
   -7.8120   18.4890  -33.7120 H   0  0  0  0  0  0  0  0  0  0  0  0
   -9.7034   18.7993  -32.2519 H   0  0  0  0  0  0  0  0  0  0  0  0
   -8.8465   22.7810  -29.9118 H   0  0  0  0  0  0  0  0  0  0  0  0
   -4.8788   22.1984  -32.9608 H   0  0  0  0  0  0  0  0  0  0  0  0
   -4.8956   25.4347  -29.4346 H   0  0  0  0  0  0  0  0  0  0  0  0
   -5.7216   26.3596  -30.6903 H   0  0  0  0  0  0  0  0  0  0  0  0
  1  2  1  0
  2  3  1  0
  3  4  1  0
  4  5  1  0
  3  6  1  0
  6  7  1  0
  7  8  1  0
  8  9  1  0
  9 10  1  0
 10 11  2  0
 11 12  1  0
 12 13  2  0
 13 14  1  0
 14 15  2  0
 15 16  1  0
 16 17  2  0
 17 18  1  0
 18 19  2  0
 17 20  1  0
 20 21  1  0
 21 22  1  0
 19 10  1  0
 19 14  1  0
 22 16  1  0
  1 23  1  0
  1 24  1  0
  1 25  1  0
  2 26  1  0
  2 27  1  0
  4 28  1  0
  4 29  1  0
  5 30  1  0
  5 31  1  0
  5 32  1  0
  6 33  1  0
  6 34  1  0
  7 35  1  0
  7 36  1  0
  8 37  1  0
  8 38  1  0
  9 39  1  0
 11 40  1  0
 12 41  1  0
 15 42  1  0
 18 43  1  0
 21 44  1  0
 21 45  1  0
M  CHG  1  11   1
M  END
>  <UniqueID>  (3) 
3

>  <SMILES>  (3) 
CCN(CC)CCCNc1[nH+]cnc2cc3c(cc12)OCO3

>  <Energy>  (3) 
80.13838340548281

>  <Genealogy>  (3) 
CCN(CC)CCCNc1[nH+]cnc2cc3c(cc12)OCO3 (protonated)
CCN(CC)CCCNc1[nH+]cnc2cc3c(cc12)OCO3 (3D coordinates assigned)
CCN(CC)CCCNc1[nH+]cnc2cc3c(cc12)OCO3 (nonaromatic ring conformer: 80.13838340548281 kcal/mol)

>  <smiles>  (3) 
CCN(CC)CCCNc1ncnc2cc3c(cc12)OCO3

>  <score_type>  (3) 
oracle

>  <origin>  (3) 
adg

>  <m_score__min__energy>  (3) 
-6.6699999999999999

>  <m_primary>  (3) 
energy

$$$$
3:0
     RDKit          3D

 44 46  0  0  0  0  0  0  0  0999 V2000
   -6.8050   17.2700  -33.3500 C   0  0  0  0  0  0  0  0  0  0  0  0
   -7.3310   17.8460  -32.0360 C   0  0  0  0  0  0  0  0  0  0  0  0
   -8.6970   18.5350  -32.1910 C   0  0  0  0  0  0  0  0  0  0  0  0
   -8.6330   19.6820  -33.1140 N   0  0  0  0  0  0  0  0  0  0  0  0
   -8.5740   20.9660  -32.3940 C   0  0  0  0  0  0  0  0  0  0  0  0
   -7.1530   21.4320  -32.1850 C   0  0  0  0  0  0  0  0  0  0  0  0
   -6.0660   20.7620  -32.7530 C   0  0  0  0  0  0  0  0  0  0  0  0
   -4.6420   21.5710  -32.3470 S   0  0  0  0  0  0  0  0  0  0  0  0
   -5.3890   22.7790  -31.4540 C   0  0  0  0  0  0  0  0  0  0  0  0
   -4.7880   23.8550  -30.7980 C   0  0  0  0  0  0  0  0  0  0  0  0
   -3.3900   23.9890  -30.8440 O   0  0  0  0  0  0  0  0  0  0  0  0
   -2.4530   23.0050  -30.4070 C   0  0  0  0  0  0  0  0  0  0  0  0
   -2.4440   22.9090  -28.8800 C   0  0  0  0  0  0  0  0  0  0  0  0
   -1.5030   23.8750  -28.3210 N   0  0  0  0  0  0  0  0  0  0  0  0
   -1.8010   25.0180  -27.6810 C   0  0  0  0  0  0  0  0  0  0  0  0
   -0.6180   25.6580  -27.3920 C   0  0  0  0  0  0  0  0  0  0  0  0
    0.4180   24.9300  -27.8590 N   0  0  0  0  0  0  0  0  0  0  0  0
   -0.1610   23.8500  -28.4240 C   0  0  0  0  0  0  0  0  0  0  0  0
   -5.6310   24.7580  -30.1130 C   0  0  0  0  0  0  0  0  0  0  0  0
   -7.0250   24.5670  -30.1110 C   0  0  0  0  0  0  0  0  0  0  0  0
   -7.5990   23.4770  -30.7820 C   0  0  0  0  0  0  0  0  0  0  0  0
   -6.7630   22.5760  -31.4560 C   0  0  0  0  0  0  0  0  0  0  0  0
   -6.0774   16.4733  -33.1359 H   0  0  0  0  0  0  0  0  0  0  0  0
   -7.6427   16.8554  -33.9300 H   0  0  0  0  0  0  0  0  0  0  0  0
   -6.3162   18.0667  -33.9300 H   0  0  0  0  0  0  0  0  0  0  0  0
   -7.4312   17.0270  -31.3085 H   0  0  0  0  0  0  0  0  0  0  0  0
   -6.6129   18.6074  -31.6975 H   0  0  0  0  0  0  0  0  0  0  0  0
   -9.4213   17.8048  -32.5811 H   0  0  0  0  0  0  0  0  0  0  0  0
   -9.0037   18.9094  -31.2032 H   0  0  0  0  0  0  0  0  0  0  0  0
   -7.7670   19.6070  -33.6940 H   0  0  0  0  0  0  0  0  0  0  0  0
   -9.4620   19.6730  -33.7540 H   0  0  0  0  0  0  0  0  0  0  0  0
   -9.1148   21.7256  -32.9775 H   0  0  0  0  0  0  0  0  0  0  0  0
   -9.0337   20.8226  -31.4050 H   0  0  0  0  0  0  0  0  0  0  0  0
   -6.1288   19.8517  -33.3673 H   0  0  0  0  0  0  0  0  0  0  0  0
   -2.7318   22.0281  -30.8288 H   0  0  0  0  0  0  0  0  0  0  0  0
   -1.4488   23.2954  -30.7495 H   0  0  0  0  0  0  0  0  0  0  0  0
   -3.4530   23.1205  -28.4964 H   0  0  0  0  0  0  0  0  0  0  0  0
   -2.1358   21.8950  -28.5853 H   0  0  0  0  0  0  0  0  0  0  0  0
   -2.8104   25.3778  -27.4325 H   0  0  0  0  0  0  0  0  0  0  0  0
   -0.5299   26.6173  -26.8610 H   0  0  0  0  0  0  0  0  0  0  0  0
    0.4003   23.0405  -28.9135 H   0  0  0  0  0  0  0  0  0  0  0  0
   -5.1954   25.6150  -29.5784 H   0  0  0  0  0  0  0  0  0  0  0  0
   -7.6713   25.2797  -29.5778 H   0  0  0  0  0  0  0  0  0  0  0  0
   -8.6893   23.3314  -30.7793 H   0  0  0  0  0  0  0  0  0  0  0  0
  1  2  1  0
  2  3  1  0
  3  4  1  0
  4  5  1  0
  5  6  1  0
  6  7  2  0
  7  8  1  0
  8  9  1  0
  9 10  2  0
 10 11  1  0
 11 12  1  0
 12 13  1  0
 13 14  1  0
 14 15  1  0
 15 16  2  0
 16 17  1  0
 17 18  2  0
 10 19  1  0
 19 20  2  0
 20 21  1  0
 21 22  2  0
 22  6  1  0
 22  9  1  0
 18 14  1  0
  1 23  1  0
  1 24  1  0
  1 25  1  0
  2 26  1  0
  2 27  1  0
  3 28  1  0
  3 29  1  0
  4 30  1  0
  4 31  1  0
  5 32  1  0
  5 33  1  0
  7 34  1  0
 12 35  1  0
 12 36  1  0
 13 37  1  0
 13 38  1  0
 15 39  1  0
 16 40  1  0
 18 41  1  0
 19 42  1  0
 20 43  1  0
 21 44  1  0
M  CHG  1   4   1
M  END
>  <UniqueID>  (4) 
4

>  <SMILES>  (4) 
CCC[NH2+]Cc1csc2c(OCCn3ccnc3)cccc12

>  <Energy>  (4) 
98.44917522690221

>  <Genealogy>  (4) 
CCC[NH2+]Cc1csc2c(OCCn3ccnc3)cccc12 (protonated)
CCC[NH2+]Cc1csc2c(OCCn3ccnc3)cccc12 (3D coordinates assigned)
CCC[NH2+]Cc1csc2c(OCCn3ccnc3)cccc12 (optimized conformer: 98.44917522690221 kcal/mol)

>  <smiles>  (4) 
CCCNCc1csc2c(OCCn3ccnc3)cccc12

>  <score_type>  (4) 
oracle

>  <origin>  (4) 
adg

>  <m_score__min__energy>  (4) 
-7.1600000000000001

>  <m_primary>  (4) 
energy

$$$$
4:0
     RDKit          3D

 56 60  0  0  0  0  0  0  0  0999 V2000
   -9.1130   19.3120  -32.0450 C   0  0  0  0  0  0  0  0  0  0  0  0
   -7.7560   18.8980  -32.5330 C   0  0  0  0  0  0  0  0  0  0  0  0
   -7.1150   19.6300  -33.5440 C   0  0  0  0  0  0  0  0  0  0  0  0
   -5.8390   19.2620  -33.9780 C   0  0  0  0  0  0  0  0  0  0  0  0
   -5.1810   18.1730  -33.3870 C   0  0  0  0  0  0  0  0  0  0  0  0
   -5.8060   17.4470  -32.3650 C   0  0  0  0  0  0  0  0  0  0  0  0
   -7.0940   17.8110  -31.9400 C   0  0  0  0  0  0  0  0  0  0  0  0
   -5.1100   16.2480  -31.7830 C   0  0  0  0  0  0  0  0  0  0  0  0
   -5.1200   15.0880  -32.7820 C   0  0  0  0  0  0  0  0  0  0  0  0
   -4.3160   15.2560  -34.0690 C   0  0  0  0  0  0  0  0  0  0  0  0
   -4.1720   14.1010  -34.8570 C   0  0  0  0  0  0  0  0  0  0  0  0
   -3.4860   14.1390  -36.0680 C   0  0  0  0  0  0  0  0  0  0  0  0
   -2.9480   15.3410  -36.5070 C   0  0  0  0  0  0  0  0  0  0  0  0
   -3.0910   16.4610  -35.7560 N   0  0  0  0  0  0  0  0  0  0  0  0
   -3.7430   16.4710  -34.5590 C   0  0  0  0  0  0  0  0  0  0  0  0
   -3.8390   17.7680  -33.8450 C   0  0  0  0  0  0  0  0  0  0  0  0
   -2.7350   18.5110  -33.5550 C   0  0  0  0  0  0  0  0  0  0  0  0
   -2.4550   19.8510  -34.2040 C   0  0  0  0  0  0  0  0  0  0  0  0
   -2.2410   20.9490  -33.1420 C   0  0  0  0  0  0  0  0  0  0  0  0
   -1.5750   20.4850  -31.8940 N   0  0  0  0  0  0  0  0  0  0  0  0
   -2.5120   20.4040  -30.7500 C   0  0  0  0  0  0  0  0  0  0  0  0
   -3.3510   21.6520  -30.6690 C   0  0  0  0  0  0  0  0  0  0  0  0
   -4.7420   21.5980  -30.8420 C   0  0  0  0  0  0  0  0  0  0  0  0
   -5.5000   22.7680  -30.7740 C   0  0  0  0  0  0  0  0  0  0  0  0
   -4.8580   23.9850  -30.5350 C   0  0  0  0  0  0  0  0  0  0  0  0
   -5.8670   25.6010  -30.4380 Br  0  0  0  0  0  0  0  0  0  0  0  0
   -3.5090   24.0230  -30.3720 N   0  0  0  0  0  0  0  0  0  0  0  0
   -2.7490   22.8960  -30.4340 C   0  0  0  0  0  0  0  0  0  0  0  0
   -0.8210   19.2270  -32.0760 C   0  0  0  0  0  0  0  0  0  0  0  0
   -1.7400   18.0700  -32.4990 C   0  0  0  0  0  0  0  0  0  0  0  0
   -9.1220   19.3147  -30.9450 H   0  0  0  0  0  0  0  0  0  0  0  0
   -9.3439   20.3215  -32.4161 H   0  0  0  0  0  0  0  0  0  0  0  0
   -9.8680   18.6033  -32.4161 H   0  0  0  0  0  0  0  0  0  0  0  0
   -7.6190   20.4967  -33.9965 H   0  0  0  0  0  0  0  0  0  0  0  0
   -5.3493   19.8272  -34.7847 H   0  0  0  0  0  0  0  0  0  0  0  0
   -7.5869   17.2415  -31.1383 H   0  0  0  0  0  0  0  0  0  0  0  0
   -4.0691   16.5129  -31.5456 H   0  0  0  0  0  0  0  0  0  0  0  0
   -5.6386   15.9370  -30.8698 H   0  0  0  0  0  0  0  0  0  0  0  0
   -4.7267   14.2023  -32.2616 H   0  0  0  0  0  0  0  0  0  0  0  0
   -6.1661   15.0146  -33.1140 H   0  0  0  0  0  0  0  0  0  0  0  0
   -4.6082   13.1521  -34.5115 H   0  0  0  0  0  0  0  0  0  0  0  0
   -3.3715   13.2259  -36.6707 H   0  0  0  0  0  0  0  0  0  0  0  0
   -2.4061   15.3849  -37.4633 H   0  0  0  0  0  0  0  0  0  0  0  0
   -1.5492   19.7682  -34.8226 H   0  0  0  0  0  0  0  0  0  0  0  0
   -3.3218   20.1274  -34.8223 H   0  0  0  0  0  0  0  0  0  0  0  0
   -1.6207   21.7406  -33.5876 H   0  0  0  0  0  0  0  0  0  0  0  0
   -3.2423   21.2977  -32.8490 H   0  0  0  0  0  0  0  0  0  0  0  0
   -3.1703   19.5326  -30.8817 H   0  0  0  0  0  0  0  0  0  0  0  0
   -1.9324   20.3029  -29.8206 H   0  0  0  0  0  0  0  0  0  0  0  0
   -5.2355   20.6333  -31.0313 H   0  0  0  0  0  0  0  0  0  0  0  0
   -6.5913   22.7319  -30.9072 H   0  0  0  0  0  0  0  0  0  0  0  0
   -1.6592   22.9613  -30.2993 H   0  0  0  0  0  0  0  0  0  0  0  0
   -0.0574   19.3782  -32.8532 H   0  0  0  0  0  0  0  0  0  0  0  0
   -0.3573   18.9627  -31.1142 H   0  0  0  0  0  0  0  0  0  0  0  0
   -1.1243   17.2544  -32.9059 H   0  0  0  0  0  0  0  0  0  0  0  0
   -2.3006   17.7323  -31.6149 H   0  0  0  0  0  0  0  0  0  0  0  0
  1  2  1  0
  2  3  2  0
  3  4  1  0
  4  5  2  0
  5  6  1  0
  6  7  2  0
  6  8  1  0
  8  9  1  0
  9 10  1  0
 10 11  2  0
 11 12  1  0
 12 13  2  0
 13 14  1  0
 14 15  2  0
 15 16  1  0
 16 17  2  3
 17 18  1  0
 18 19  1  0
 19 20  1  0
 20 21  1  0
 21 22  1  0
 22 23  2  0
 23 24  1  0
 24 25  2  0
 25 26  1  0
 25 27  1  0
 27 28  2  0
 20 29  1  0
 29 30  1  0
  7  2  1  0
 15 10  1  0
 30 17  1  0
 16  5  1  0
 28 22  1  0
  1 31  1  0
  1 32  1  0
  1 33  1  0
  3 34  1  0
  4 35  1  0
  7 36  1  0
  8 37  1  0
  8 38  1  0
  9 39  1  0
  9 40  1  0
 11 41  1  0
 12 42  1  0
 13 43  1  0
 18 44  1  0
 18 45  1  0
 19 46  1  0
 19 47  1  0
 21 48  1  0
 21 49  1  0
 23 50  1  0
 24 51  1  0
 28 52  1  0
 29 53  1  0
 29 54  1  0
 30 55  1  0
 30 56  1  0
M  END
>  <UniqueID>  (5) 
5

>  <SMILES>  (5) 
Cc1ccc2c(c1)CCc1cccnc1C2=C1CCN(Cc2ccc(Br)nc2)CC1

>  <Energy>  (5) 
91.8225404624364

>  <Genealogy>  (5) 
Cc1ccc2c(c1)CCc1cccnc1C2=C1CCN(Cc2ccc(Br)nc2)CC1 (3D coordinates assigned)
Cc1ccc2c(c1)CCc1cccnc1C2=C1CCN(Cc2ccc(Br)nc2)CC1 (nonaromatic ring conformer: 91.8225404624364 kcal/mol)

>  <smiles>  (5) 
Cc1ccc2c(c1)CCc1cccnc1C2=C1CCN(Cc2ccc(Br)nc2)CC1

>  <score_type>  (5) 
oracle

>  <origin>  (5) 
adg

>  <m_score__min__energy>  (5) 
-7.9400000000000004

>  <m_primary>  (5) 
energy

$$$$
5:0
     RDKit          3D

 55 59  0  0  0  0  0  0  0  0999 V2000
   -6.6570   25.2810  -29.7410 C   0  0  0  0  0  0  0  0  0  0  0  0
   -5.3250   24.9480  -29.0760 C   0  0  0  0  0  0  0  0  0  0  0  0
   -4.2950   24.7980  -30.0540 O   0  0  0  0  0  0  0  0  0  0  0  0
   -4.0840   23.6590  -30.8480 C   0  0  0  0  0  0  0  0  0  0  0  0
   -5.0030   23.3880  -31.8690 C   0  0  0  0  0  0  0  0  0  0  0  0
   -4.8430   22.2710  -32.6930 C   0  0  0  0  0  0  0  0  0  0  0  0
   -3.7450   21.4160  -32.5150 C   0  0  0  0  0  0  0  0  0  0  0  0
   -3.5970   20.2530  -33.3400 N   0  0  0  0  0  0  0  0  0  0  0  0
   -2.4320   19.8680  -33.9170 C   0  0  0  0  0  0  0  0  0  0  0  0
   -1.4030   20.5960  -33.9550 O   0  0  0  0  0  0  0  0  0  0  0  0
   -2.4610   18.5960  -34.3820 N   0  0  0  0  0  0  0  0  0  0  0  0
   -1.3260   17.8090  -34.8730 C   0  0  0  0  0  0  0  0  0  0  0  0
   -0.6900   16.9850  -33.7420 C   0  0  0  0  0  0  0  0  0  0  0  0
   -0.0580   17.8680  -32.6980 C   0  0  0  0  0  0  0  0  0  0  0  0
    0.8520   18.8690  -33.0750 C   0  0  0  0  0  0  0  0  0  0  0  0
    1.3820   19.7360  -32.1130 C   0  0  0  0  0  0  0  0  0  0  0  0
    1.0020   19.6150  -30.7730 C   0  0  0  0  0  0  0  0  0  0  0  0
    0.0940   18.6250  -30.3920 C   0  0  0  0  0  0  0  0  0  0  0  0
   -0.4350   17.7530  -31.3480 C   0  0  0  0  0  0  0  0  0  0  0  0
   -3.6950   18.1610  -34.0610 C   0  0  0  0  0  0  0  0  0  0  0  0
   -4.2310   16.8860  -34.2150 C   0  0  0  0  0  0  0  0  0  0  0  0
   -5.4910   16.6540  -33.7520 N   0  0  0  0  0  0  0  0  0  0  0  0
   -6.2430   17.6320  -33.1590 C   0  0  0  0  0  0  0  0  0  0  0  0
   -7.5390   17.3360  -32.7250 C   0  0  0  0  0  0  0  0  0  0  0  0
   -8.3370   18.3320  -32.1560 C   0  0  0  0  0  0  0  0  0  0  0  0
   -9.5930   18.0230  -31.7450 F   0  0  0  0  0  0  0  0  0  0  0  0
   -7.8510   19.6410  -32.0350 C   0  0  0  0  0  0  0  0  0  0  0  0
   -8.6860   20.6750  -31.4810 C   0  0  0  0  0  0  0  0  0  0  0  0
   -9.3580   21.5060  -31.0370 N   0  0  0  0  0  0  0  0  0  0  0  0
   -6.5530   19.9510  -32.4640 C   0  0  0  0  0  0  0  0  0  0  0  0
   -5.7220   18.9490  -32.9960 C   0  0  0  0  0  0  0  0  0  0  0  0
   -4.3990   19.1630  -33.4390 C   0  0  0  0  0  0  0  0  0  0  0  0
   -2.8290   21.6730  -31.4890 C   0  0  0  0  0  0  0  0  0  0  0  0
   -2.9890   22.7900  -30.6640 C   0  0  0  0  0  0  0  0  0  0  0  0
   -7.4157   25.4707  -28.9675 H   0  0  0  0  0  0  0  0  0  0  0  0
   -6.5400   26.1775  -30.3675 H   0  0  0  0  0  0  0  0  0  0  0  0
   -6.9757   24.4349  -30.3675 H   0  0  0  0  0  0  0  0  0  0  0  0
   -5.0526   25.7608  -28.3867 H   0  0  0  0  0  0  0  0  0  0  0  0
   -5.4314   24.0008  -28.5269 H   0  0  0  0  0  0  0  0  0  0  0  0
   -5.8592   24.0610  -32.0239 H   0  0  0  0  0  0  0  0  0  0  0  0
   -5.5794   22.0616  -33.4828 H   0  0  0  0  0  0  0  0  0  0  0  0
   -1.6769   17.1261  -35.6608 H   0  0  0  0  0  0  0  0  0  0  0  0
   -0.5678   18.5007  -35.2687 H   0  0  0  0  0  0  0  0  0  0  0  0
   -1.4692   16.3716  -33.2660 H   0  0  0  0  0  0  0  0  0  0  0  0
    0.0969   16.3526  -34.1788 H   0  0  0  0  0  0  0  0  0  0  0  0
    1.1489   18.9718  -34.1292 H   0  0  0  0  0  0  0  0  0  0  0  0
    2.0993   20.5146  -32.4118 H   0  0  0  0  0  0  0  0  0  0  0  0
    1.4182   20.2994  -30.0191 H   0  0  0  0  0  0  0  0  0  0  0  0
   -0.2056   18.5311  -29.3378 H   0  0  0  0  0  0  0  0  0  0  0  0
   -1.1490   16.9737  -31.0431 H   0  0  0  0  0  0  0  0  0  0  0  0
   -3.6518   16.0856  -34.6985 H   0  0  0  0  0  0  0  0  0  0  0  0
   -7.9321   16.3142  -32.8320 H   0  0  0  0  0  0  0  0  0  0  0  0
   -6.1824   20.9836  -32.3841 H   0  0  0  0  0  0  0  0  0  0  0  0
   -1.9790   20.9929  -31.3309 H   0  0  0  0  0  0  0  0  0  0  0  0
   -2.2574   22.9919  -29.8677 H   0  0  0  0  0  0  0  0  0  0  0  0
  1  2  1  0
  2  3  1  0
  3  4  1  0
  4  5  2  0
  5  6  1  0
  6  7  2  0
  7  8  1  0
  8  9  1  0
  9 10  2  0
  9 11  1  0
 11 12  1  0
 12 13  1  0
 13 14  1  0
 14 15  2  0
 15 16  1  0
 16 17  2  0
 17 18  1  0
 18 19  2  0
 11 20  1  0
 20 21  2  0
 21 22  1  0
 22 23  2  0
 23 24  1  0
 24 25  2  0
 25 26  1  0
 25 27  1  0
 27 28  1  0
 28 29  3  0
 27 30  2  0
 30 31  1  0
 31 32  2  0
  7 33  1  0
 33 34  2  0
 34  4  1  0
 32  8  1  0
 19 14  1  0
 32 20  1  0
 31 23  1  0
  1 35  1  0
  1 36  1  0
  1 37  1  0
  2 38  1  0
  2 39  1  0
  5 40  1  0
  6 41  1  0
 12 42  1  0
 12 43  1  0
 13 44  1  0
 13 45  1  0
 15 46  1  0
 16 47  1  0
 17 48  1  0
 18 49  1  0
 19 50  1  0
 21 51  1  0
 24 52  1  0
 30 53  1  0
 33 54  1  0
 34 55  1  0
M  END
>  <UniqueID>  (6) 
6

>  <SMILES>  (6) 
CCOc1ccc(-n2c(=O)n(CCc3ccccc3)c3cnc4cc(F)c(C#N)cc4c32)cc1

>  <Energy>  (6) 
109.10220295526032

>  <Genealogy>  (6) 
CCOc1ccc(-n2c(=O)n(CCc3ccccc3)c3cnc4cc(F)c(C#N)cc4c32)cc1 (3D coordinates assigned)
CCOc1ccc(-n2c(=O)n(CCc3ccccc3)c3cnc4cc(F)c(C#N)cc4c32)cc1 (optimized conformer: 109.10220295526032 kcal/mol)

>  <smiles>  (6) 
CCOc1ccc(-n2c(=O)n(CCc3ccccc3)c3cnc4cc(F)c(C#N)cc4c32)cc1

>  <score_type>  (6) 
oracle

>  <origin>  (6) 
adg

>  <m_score__min__energy>  (6) 
-9.2100000000000009

>  <m_primary>  (6) 
energy

$$$$
6:0
     RDKit          3D

 45 46  0  0  0  0  0  0  0  0999 V2000
   -8.7540   18.5830  -31.6070 C   0  0  0  0  0  0  0  0  0  0  0  0
   -8.9840   19.7480  -32.5640 C   0  0  0  0  0  0  0  0  0  0  0  0
   -7.7490   20.3340  -32.9300 O   0  0  0  0  0  0  0  0  0  0  0  0
   -6.7890   19.3360  -33.2080 C   0  0  0  0  0  0  0  0  0  0  0  0
   -5.6870   19.3950  -32.1530 C   0  0  0  0  0  0  0  0  0  0  0  0
   -4.7050   20.4220  -32.4980 N   0  0  0  0  0  0  0  0  0  0  0  0
   -3.9000   20.3610  -33.5440 N   0  0  0  0  0  0  0  0  0  0  0  0
   -3.1800   21.4730  -33.5740 N   0  0  0  0  0  0  0  0  0  0  0  0
   -3.5020   22.2750  -32.5700 N   0  0  0  0  0  0  0  0  0  0  0  0
   -4.4720   21.6130  -31.9050 C   0  0  0  0  0  0  0  0  0  0  0  0
   -5.1290   22.1180  -30.6470 C   0  0  2  0  0  0  0  0  0  0  0  0
   -6.0810   23.1100  -30.9920 O   0  0  0  0  0  0  0  0  0  0  0  0
   -7.4060   22.6350  -30.8330 C   0  0  0  0  0  0  0  0  0  0  0  0
   -8.2970   23.1690  -31.9510 C   0  0  0  0  0  0  0  0  0  0  0  0
   -4.0790   22.7070  -29.7210 C   0  0  0  0  0  0  0  0  0  0  0  0
   -3.4700   21.8850  -28.7540 C   0  0  0  0  0  0  0  0  0  0  0  0
   -2.4940   22.3960  -27.8970 C   0  0  0  0  0  0  0  0  0  0  0  0
   -2.1080   23.7310  -27.9970 C   0  0  0  0  0  0  0  0  0  0  0  0
   -2.6940   24.5610  -28.9560 C   0  0  0  0  0  0  0  0  0  0  0  0
   -3.6810   24.0610  -29.8290 C   0  0  0  0  0  0  0  0  0  0  0  0
   -4.2760   24.8770  -30.8090 O   0  0  0  0  0  0  0  0  0  0  0  0
   -5.3880   25.7390  -30.5820 C   0  0  0  0  0  0  0  0  0  0  0  0
   -8.8247   18.9414  -30.5694 H   0  0  0  0  0  0  0  0  0  0  0  0
   -9.5168   17.8097  -31.7807 H   0  0  0  0  0  0  0  0  0  0  0  0
   -7.7545   18.1576  -31.7807 H   0  0  0  0  0  0  0  0  0  0  0  0
   -9.4932   19.3806  -33.4672 H   0  0  0  0  0  0  0  0  0  0  0  0
   -9.6050   20.5053  -32.0631 H   0  0  0  0  0  0  0  0  0  0  0  0
   -7.2689   18.3465  -33.1844 H   0  0  0  0  0  0  0  0  0  0  0  0
   -6.3567   19.5052  -34.2052 H   0  0  0  0  0  0  0  0  0  0  0  0
   -6.1329   19.6336  -31.1762 H   0  0  0  0  0  0  0  0  0  0  0  0
   -5.1819   18.4188  -32.1099 H   0  0  0  0  0  0  0  0  0  0  0  0
   -2.4580   21.6880  -34.2940 H   0  0  0  0  0  0  0  0  0  0  0  0
   -5.6320   21.2878  -30.1297 H   0  0  0  0  0  0  0  0  0  0  0  0
   -7.4037   21.5355  -30.8645 H   0  0  0  0  0  0  0  0  0  0  0  0
   -7.7976   22.9831  -29.8658 H   0  0  0  0  0  0  0  0  0  0  0  0
   -9.1628   23.6879  -31.5137 H   0  0  0  0  0  0  0  0  0  0  0  0
   -7.7235   23.8724  -32.5726 H   0  0  0  0  0  0  0  0  0  0  0  0
   -8.6469   22.3316  -32.5726 H   0  0  0  0  0  0  0  0  0  0  0  0
   -3.7664   20.8288  -28.6729 H   0  0  0  0  0  0  0  0  0  0  0  0
   -2.0294   21.7444  -27.1423 H   0  0  0  0  0  0  0  0  0  0  0  0
   -1.3401   24.1324  -27.3193 H   0  0  0  0  0  0  0  0  0  0  0  0
   -2.3825   25.6133  -29.0303 H   0  0  0  0  0  0  0  0  0  0  0  0
   -5.5435   25.8596  -29.4997 H   0  0  0  0  0  0  0  0  0  0  0  0
   -5.1891   26.7212  -31.0355 H   0  0  0  0  0  0  0  0  0  0  0  0
   -6.2896   25.3015  -31.0355 H   0  0  0  0  0  0  0  0  0  0  0  0
  1  2  1  0
  2  3  1  0
  3  4  1  0
  4  5  1  0
  5  6  1  0
  6  7  1  0
  7  8  2  0
  8  9  1  0
  9 10  2  0
 10 11  1  0
 11 12  1  0
 12 13  1  0
 13 14  1  0
 11 15  1  0
 15 16  2  0
 16 17  1  0
 17 18  2  0
 18 19  1  0
 19 20  2  0
 20 21  1  0
 21 22  1  0
 10  6  1  0
 20 15  1  0
  1 23  1  0
  1 24  1  0
  1 25  1  0
  2 26  1  0
  2 27  1  0
  4 28  1  0
  4 29  1  0
  5 30  1  0
  5 31  1  0
  8 32  1  0
 11 33  1  1
 13 34  1  0
 13 35  1  0
 14 36  1  0
 14 37  1  0
 14 38  1  0
 16 39  1  0
 17 40  1  0
 18 41  1  0
 19 42  1  0
 22 43  1  0
 22 44  1  0
 22 45  1  0
M  CHG  1   8   1
M  END
>  <UniqueID>  (7) 
7

>  <SMILES>  (7) 
CCOCCn1n[nH+]nc1[C@H](OCC)c1ccccc1OC

>  <Energy>  (7) 
80.16375058035048

>  <Genealogy>  (7) 
CCOCCn1n[nH+]nc1C(OCC)c1ccccc1OC (protonated)
CCOCCn1n[nH+]nc1[C@H](OCC)c1ccccc1OC (chirality)
CCOCCn1n[nH+]nc1[C@H](OCC)c1ccccc1OC (3D coordinates assigned)
CCOCCn1n[nH+]nc1[C@H](OCC)c1ccccc1OC (optimized conformer: 80.16375058035048 kcal/mol)

>  <smiles>  (7) 
CCOCCn1nnnc1C(OCC)c1ccccc1OC

>  <score_type>  (7) 
oracle

>  <origin>  (7) 
adg

>  <m_score__min__energy>  (7) 
-6.7800000000000002

>  <m_primary>  (7) 
energy

$$$$
7:0
     RDKit          3D

 46 48  0  0  0  0  0  0  0  0999 V2000
   -2.2710   24.1400  -29.3250 C   0  0  0  0  0  0  0  0  0  0  0  0
   -3.1630   24.8110  -30.2080 O   0  0  0  0  0  0  0  0  0  0  0  0
   -4.5190   24.4880  -30.3610 C   0  0  0  0  0  0  0  0  0  0  0  0
   -5.4710   25.3040  -29.7390 C   0  0  0  0  0  0  0  0  0  0  0  0
   -6.8340   25.0250  -29.8630 C   0  0  0  0  0  0  0  0  0  0  0  0
   -7.2590   23.9260  -30.6110 C   0  0  0  0  0  0  0  0  0  0  0  0
   -6.3200   23.0960  -31.2430 C   0  0  0  0  0  0  0  0  0  0  0  0
   -6.7600   21.9680  -32.0210 N   0  0  0  0  0  0  0  0  0  0  0  0
   -8.1900   21.6260  -32.0520 C   0  0  0  0  0  0  0  0  0  0  0  0
   -8.4040   20.1300  -31.8080 C   0  0  0  0  0  0  0  0  0  0  0  0
   -8.5660   19.4150  -33.0720 N   0  0  0  0  0  0  0  0  0  0  0  0
   -5.8080   21.2530  -32.8320 C   0  0  0  0  0  0  0  0  0  0  0  0
   -4.6730   21.7500  -33.0710 O   0  0  0  0  0  0  0  0  0  0  0  0
   -6.1520   20.0050  -33.3630 O   0  0  0  0  0  0  0  0  0  0  0  0
   -5.1920   19.0500  -33.8130 C   0  0  2  0  0  0  0  0  0  0  0  0
   -5.7360   18.1810  -34.9640 C   0  0  0  0  0  0  0  0  0  0  0  0
   -5.6310   16.7550  -34.3930 C   0  0  2  0  0  0  0  0  0  0  0  0
   -6.7200   16.5740  -33.3200 C   0  0  0  0  0  0  0  0  0  0  0  0
   -6.1940   17.4280  -32.1550 C   0  0  0  0  0  0  0  0  0  0  0  0
   -4.8810   18.0050  -32.7190 C   0  0  1  0  0  0  0  0  0  0  0  0
   -4.3780   16.8470  -33.5510 C   0  0  0  0  0  0  0  0  0  0  0  0
   -4.9510   23.3790  -31.1160 C   0  0  0  0  0  0  0  0  0  0  0  0
   -2.5554   24.3539  -28.2842 H   0  0  0  0  0  0  0  0  0  0  0  0
   -2.3240   23.0560  -29.5042 H   0  0  0  0  0  0  0  0  0  0  0  0
   -1.2442   24.4915  -29.5042 H   0  0  0  0  0  0  0  0  0  0  0  0
   -5.1432   26.1718  -29.1479 H   0  0  0  0  0  0  0  0  0  0  0  0
   -7.5739   25.6728  -29.3701 H   0  0  0  0  0  0  0  0  0  0  0  0
   -8.3334   23.7096  -30.7055 H   0  0  0  0  0  0  0  0  0  0  0  0
   -8.7128   22.1960  -31.2698 H   0  0  0  0  0  0  0  0  0  0  0  0
   -8.5883   21.8785  -33.0458 H   0  0  0  0  0  0  0  0  0  0  0  0
   -7.5328   19.7238  -31.2732 H   0  0  0  0  0  0  0  0  0  0  0  0
   -9.3173   19.9980  -31.2092 H   0  0  0  0  0  0  0  0  0  0  0  0
   -8.3150   20.0750  -33.8440 H   0  0  0  0  0  0  0  0  0  0  0  0
   -7.8580   18.6450  -33.1060 H   0  0  0  0  0  0  0  0  0  0  0  0
   -4.3204   19.6538  -34.1058 H   0  0  0  0  0  0  0  0  0  0  0  0
   -6.7798   18.4391  -35.1962 H   0  0  0  0  0  0  0  0  0  0  0  0
   -5.1866   18.3141  -35.9076 H   0  0  0  0  0  0  0  0  0  0  0  0
   -5.6779   15.9839  -35.1760 H   0  0  0  0  0  0  0  0  0  0  0  0
   -7.6926   16.9448  -33.6758 H   0  0  0  0  0  0  0  0  0  0  0  0
   -6.8921   15.5225  -33.0467 H   0  0  0  0  0  0  0  0  0  0  0  0
   -6.9022   18.2303  -31.9008 H   0  0  0  0  0  0  0  0  0  0  0  0
   -6.0544   16.8570  -31.2253 H   0  0  0  0  0  0  0  0  0  0  0  0
   -4.2403   18.4172  -31.9255 H   0  0  0  0  0  0  0  0  0  0  0  0
   -3.4812   17.0949  -34.1378 H   0  0  0  0  0  0  0  0  0  0  0  0
   -4.0413   15.9413  -33.0254 H   0  0  0  0  0  0  0  0  0  0  0  0
   -4.2109   22.7313  -31.6087 H   0  0  0  0  0  0  0  0  0  0  0  0
  1  2  1  0
  2  3  1  0
  3  4  2  0
  4  5  1  0
  5  6  2  0
  6  7  1  0
  7  8  1  0
  8  9  1  0
  9 10  1  0
 10 11  1  0
  8 12  1  0
 12 13  2  0
 12 14  1  0
 14 15  1  0
 15 16  1  0
 16 17  1  0
 17 18  1  0
 18 19  1  0
 19 20  1  0
 20 21  1  0
  7 22  2  0
 22  3  1  0
 20 15  1  0
 21 17  1  0
  1 23  1  0
  1 24  1  0
  1 25  1  0
  4 26  1  0
  5 27  1  0
  6 28  1  0
  9 29  1  0
  9 30  1  0
 10 31  1  0
 10 32  1  0
 11 33  1  0
 11 34  1  0
 15 35  1  6
 16 36  1  0
 16 37  1  0
 17 38  1  6
 18 39  1  0
 18 40  1  0
 19 41  1  0
 19 42  1  0
 20 43  1  1
 21 44  1  0
 21 45  1  0
 22 46  1  0
M  END
>  <UniqueID>  (8) 
8

>  <SMILES>  (8) 
COc1cccc(N(CCN)C(=O)O[C@@H]2C[C@@H]3CCC2C3)c1

>  <Energy>  (8) 
69.08673711313665

>  <Genealogy>  (8) 
COc1cccc(N(CCN)C(=O)O[C@@H]2C[C@@H]3CCC2C3)c1 (chirality)
COc1cccc(N(CCN)C(=O)O[C@@H]2C[C@@H]3CCC2C3)c1 (3D coordinates assigned)
COc1cccc(N(CCN)C(=O)O[C@@H]2C[C@@H]3CCC2C3)c1 (nonaromatic ring conformer: 69.08673711313665 kcal/mol)

>  <smiles>  (8) 
COc1cccc(N(CCN)C(=O)OC2CC3CCC2C3)c1

>  <score_type>  (8) 
oracle

>  <origin>  (8) 
adg

>  <m_score__min__energy>  (8) 
-7.6900000000000004

>  <m_primary>  (8) 
energy

$$$$
8:0
     RDKit          3D

 53 56  0  0  0  0  0  0  0  0999 V2000
    0.9780   19.7680  -36.5130 C   0  0  0  0  0  0  0  0  0  0  0  0
   -0.1130   19.7440  -35.4360 C   0  0  0  0  0  0  0  0  0  0  0  0
   -0.3040   21.0740  -34.7970 N   0  0  2  0  0  0  0  0  0  0  0  0
    0.9000   21.9120  -34.9820 C   0  0  0  0  0  0  0  0  0  0  0  0
   -0.5990   20.9350  -33.3470 C   0  0  0  0  0  0  0  0  0  0  0  0
   -1.8630   20.0960  -33.0740 C   0  0  0  0  0  0  0  0  0  0  0  0
   -3.0310   20.6670  -33.7470 N   0  0  0  0  0  0  0  0  0  0  0  0
   -4.3730   20.3570  -33.3280 C   0  0  0  0  0  0  0  0  0  0  0  0
   -4.9500   19.1160  -33.6560 C   0  0  0  0  0  0  0  0  0  0  0  0
   -4.1880   18.1080  -34.2860 C   0  0  0  0  0  0  0  0  0  0  0  0
   -4.7510   16.8670  -34.5780 C   0  0  0  0  0  0  0  0  0  0  0  0
   -6.0670   16.5990  -34.2230 C   0  0  0  0  0  0  0  0  0  0  0  0
   -6.8360   17.5760  -33.5890 C   0  0  0  0  0  0  0  0  0  0  0  0
   -6.3060   18.8630  -33.3160 C   0  0  0  0  0  0  0  0  0  0  0  0
   -7.0640   19.8500  -32.7130 N   0  0  0  0  0  0  0  0  0  0  0  0
   -8.5340   19.7020  -32.6280 C   0  0  0  0  0  0  0  0  0  0  0  0
   -6.4520   20.9850  -32.2100 C   0  0  0  0  0  0  0  0  0  0  0  0
   -7.1390   21.8850  -31.3560 C   0  0  0  0  0  0  0  0  0  0  0  0
   -6.5410   23.0730  -30.9180 C   0  0  0  0  0  0  0  0  0  0  0  0
   -7.2460   23.9680  -30.0950 C   0  0  0  0  0  0  0  0  0  0  0  0
   -6.6460   25.1600  -29.6760 C   0  0  0  0  0  0  0  0  0  0  0  0
   -5.3410   25.4640  -30.0700 C   0  0  0  0  0  0  0  0  0  0  0  0
   -4.6290   24.5780  -30.8820 C   0  0  0  0  0  0  0  0  0  0  0  0
   -5.2230   23.3780  -31.3080 C   0  0  0  0  0  0  0  0  0  0  0  0
   -4.5120   22.4770  -32.1050 C   0  0  0  0  0  0  0  0  0  0  0  0
   -5.1010   21.2710  -32.5420 C   0  0  0  0  0  0  0  0  0  0  0  0
    1.9672   19.7898  -36.0324 H   0  0  0  0  0  0  0  0  0  0  0  0
    0.8945   18.8678  -37.1396 H   0  0  0  0  0  0  0  0  0  0  0  0
    0.8550   20.6637  -37.1396 H   0  0  0  0  0  0  0  0  0  0  0  0
   -1.0613   19.4347  -35.8998 H   0  0  0  0  0  0  0  0  0  0  0  0
    0.2009   19.0367  -34.6542 H   0  0  0  0  0  0  0  0  0  0  0  0
   -1.0980   21.5700  -35.2600 H   0  0  0  0  0  0  0  0  0  0  0  0
    1.3051   22.1939  -33.9989 H   0  0  0  0  0  0  0  0  0  0  0  0
    1.6584   21.3456  -35.5423 H   0  0  0  0  0  0  0  0  0  0  0  0
    0.6323   22.8199  -35.5423 H   0  0  0  0  0  0  0  0  0  0  0  0
    0.2583   20.4486  -32.8587 H   0  0  0  0  0  0  0  0  0  0  0  0
   -0.7773   21.9438  -32.9464 H   0  0  0  0  0  0  0  0  0  0  0  0
   -1.7010   19.0723  -33.4425 H   0  0  0  0  0  0  0  0  0  0  0  0
   -2.0519   20.0919  -31.9904 H   0  0  0  0  0  0  0  0  0  0  0  0
   -2.8850   21.1590  -34.6570 H   0  0  0  0  0  0  0  0  0  0  0  0
   -3.1382   18.3044  -34.5493 H   0  0  0  0  0  0  0  0  0  0  0  0
   -4.1527   16.0990  -35.0901 H   0  0  0  0  0  0  0  0  0  0  0  0
   -6.5043   15.6138  -34.4422 H   0  0  0  0  0  0  0  0  0  0  0  0
   -7.8706   17.3440  -33.2961 H   0  0  0  0  0  0  0  0  0  0  0  0
   -8.8389   19.6713  -31.5716 H   0  0  0  0  0  0  0  0  0  0  0  0
   -9.0178   20.5560  -33.1246 H   0  0  0  0  0  0  0  0  0  0  0  0
   -8.8379   18.7687  -33.1246 H   0  0  0  0  0  0  0  0  0  0  0  0
   -8.1622   21.6450  -31.0312 H   0  0  0  0  0  0  0  0  0  0  0  0
   -8.2726   23.7304  -29.7795 H   0  0  0  0  0  0  0  0  0  0  0  0
   -7.2029   25.8593  -29.0350 H   0  0  0  0  0  0  0  0  0  0  0  0
   -4.8729   26.4032  -29.7402 H   0  0  0  0  0  0  0  0  0  0  0  0
   -3.6008   24.8203  -31.1887 H   0  0  0  0  0  0  0  0  0  0  0  0
   -3.4774   22.7112  -32.3963 H   0  0  0  0  0  0  0  0  0  0  0  0
  1  2  1  0
  2  3  1  0
  3  4  1  0
  3  5  1  0
  5  6  1  0
  6  7  1  0
  7  8  1  0
  8  9  2  0
  9 10  1  0
 10 11  2  0
 11 12  1  0
 12 13  2  0
 13 14  1  0
 14 15  2  0
 15 16  1  0
 15 17  1  0
 17 18  2  0
 18 19  1  0
 19 20  2  0
 20 21  1  0
 21 22  2  0
 22 23  1  0
 23 24  2  0
 24 25  1  0
 25 26  2  0
 26  8  1  0
 14  9  1  0
 26 17  1  0
 24 19  1  0
  1 27  1  0
  1 28  1  0
  1 29  1  0
  2 30  1  0
  2 31  1  0
  3 32  1  6
  4 33  1  0
  4 34  1  0
  4 35  1  0
  5 36  1  0
  5 37  1  0
  6 38  1  0
  6 39  1  0
  7 40  1  0
 10 41  1  0
 11 42  1  0
 12 43  1  0
 13 44  1  0
 16 45  1  0
 16 46  1  0
 16 47  1  0
 18 48  1  0
 20 49  1  0
 21 50  1  0
 22 51  1  0
 23 52  1  0
 25 53  1  0
M  CHG  2   3   1  15   1
M  END
>  <UniqueID>  (9) 
9

>  <SMILES>  (9) 
CC[N@H+](C)CCNc1c2ccccc2[n+](C)c2cc3ccccc3cc12

>  <Energy>  (9) 
84.70905695371597

>  <Genealogy>  (9) 
CC[NH+](C)CCNc1c2ccccc2[n+](C)c2cc3ccccc3cc12 (protonated)
CC[N@H+](C)CCNc1c2ccccc2[n+](C)c2cc3ccccc3cc12 (chirality)
CC[N@H+](C)CCNc1c2ccccc2[n+](C)c2cc3ccccc3cc12 (3D coordinates assigned)
CC[N@H+](C)CCNc1c2ccccc2[n+](C)c2cc3ccccc3cc12 (optimized conformer: 84.70905695371597 kcal/mol)

>  <smiles>  (9) 
CCN(C)CCNc1c2ccccc2[n+](C)c2cc3ccccc3cc12

>  <score_type>  (9) 
oracle

>  <origin>  (9) 
adg

>  <m_score__min__energy>  (9) 
-7.8499999999999996

>  <m_primary>  (9) 
energy

$$$$
9:0
     RDKit          3D

 40 41  0  0  0  0  0  0  0  0999 V2000
   -2.8860   24.6020  -27.0850 C   0  0  0  0  0  0  0  0  0  0  0  0
   -1.8650   25.2690  -27.9950 C   0  0  0  0  0  0  0  0  0  0  0  0
   -2.3750   25.2970  -29.3320 O   0  0  0  0  0  0  0  0  0  0  0  0
   -3.4120   24.4790  -29.8100 C   0  0  0  0  0  0  0  0  0  0  0  0
   -4.7490   24.9300  -29.9150 C   0  0  0  0  0  0  0  0  0  0  0  0
   -5.7440   24.0950  -30.4380 C   0  0  0  0  0  0  0  0  0  0  0  0
   -5.4280   22.7880  -30.8260 C   0  0  0  0  0  0  0  0  0  0  0  0
   -6.6670   21.7170  -31.4750 S   0  0  0  0  0  0  0  0  0  0  0  0
   -7.2410   22.3410  -32.7170 O   0  0  0  0  0  0  0  0  0  0  0  0
   -7.7730   21.5510  -30.4700 O   0  0  0  0  0  0  0  0  0  0  0  0
   -5.9640   20.1650  -31.8620 N   0  0  0  0  0  0  0  0  0  0  0  0
   -6.9570   19.0730  -31.7140 C   0  0  0  0  0  0  0  0  0  0  0  0
   -7.5540   18.6280  -33.0600 C   0  0  0  0  0  0  0  0  0  0  0  0
   -6.5170   18.2290  -34.0550 N   0  0  0  0  0  0  0  0  0  0  0  0
   -6.4200   16.7570  -34.1690 C   0  0  0  0  0  0  0  0  0  0  0  0
   -5.1780   18.8130  -33.7810 C   0  0  0  0  0  0  0  0  0  0  0  0
   -5.3190   20.2190  -33.1890 C   0  0  0  0  0  0  0  0  0  0  0  0
   -4.1070   22.3290  -30.6980 C   0  0  0  0  0  0  0  0  0  0  0  0
   -3.1030   23.1710  -30.2050 C   0  0  0  0  0  0  0  0  0  0  0  0
   -1.4420   22.5730  -30.0940 Cl  0  0  0  0  0  0  0  0  0  0  0  0
   -2.6128   24.7805  -26.0345 H   0  0  0  0  0  0  0  0  0  0  0  0
   -3.8829   25.0236  -27.2813 H   0  0  0  0  0  0  0  0  0  0  0  0
   -2.9004   23.5198  -27.2813 H   0  0  0  0  0  0  0  0  0  0  0  0
   -1.6804   26.2970  -27.6499 H   0  0  0  0  0  0  0  0  0  0  0  0
   -0.9220   24.7031  -27.9705 H   0  0  0  0  0  0  0  0  0  0  0  0
   -5.0092   25.9458  -29.5828 H   0  0  0  0  0  0  0  0  0  0  0  0
   -6.7740   24.4663  -30.5439 H   0  0  0  0  0  0  0  0  0  0  0  0
   -6.4631   18.2092  -31.2452 H   0  0  0  0  0  0  0  0  0  0  0  0
   -7.7817   19.4552  -31.0945 H   0  0  0  0  0  0  0  0  0  0  0  0
   -8.2177   17.7690  -32.8820 H   0  0  0  0  0  0  0  0  0  0  0  0
   -8.0976   19.4877  -33.4787 H   0  0  0  0  0  0  0  0  0  0  0  0
   -6.8280   18.5880  -34.9920 H   0  0  0  0  0  0  0  0  0  0  0  0
   -6.3907   16.3125  -33.1632 H   0  0  0  0  0  0  0  0  0  0  0  0
   -7.2948   16.3730  -34.7143 H   0  0  0  0  0  0  0  0  0  0  0  0
   -5.5024   16.4911  -34.7143 H   0  0  0  0  0  0  0  0  0  0  0  0
   -4.6420   18.1710  -33.0664 H   0  0  0  0  0  0  0  0  0  0  0  0
   -4.6174   18.8782  -34.7252 H   0  0  0  0  0  0  0  0  0  0  0  0
   -4.3207   20.6695  -33.0870 H   0  0  0  0  0  0  0  0  0  0  0  0
   -5.9444   20.8245  -33.8615 H   0  0  0  0  0  0  0  0  0  0  0  0
   -3.8586   21.2974  -30.9880 H   0  0  0  0  0  0  0  0  0  0  0  0
  1  2  1  0
  2  3  1  0
  3  4  1  0
  4  5  2  0
  5  6  1  0
  6  7  2  0
  7  8  1  0
  8  9  2  0
  8 10  2  0
  8 11  1  0
 11 12  1  0
 12 13  1  0
 13 14  1  0
 14 15  1  0
 14 16  1  0
 16 17  1  0
  7 18  1  0
 18 19  2  0
 19 20  1  0
 19  4  1  0
 17 11  1  0
  1 21  1  0
  1 22  1  0
  1 23  1  0
  2 24  1  0
  2 25  1  0
  5 26  1  0
  6 27  1  0
 12 28  1  0
 12 29  1  0
 13 30  1  0
 13 31  1  0
 14 32  1  0
 15 33  1  0
 15 34  1  0
 15 35  1  0
 16 36  1  0
 16 37  1  0
 17 38  1  0
 17 39  1  0
 18 40  1  0
M  CHG  1  14   1
M  END
>  <UniqueID>  (10) 
10

>  <SMILES>  (10) 
CCOc1ccc(S(=O)(=O)N2CC[NH+](C)CC2)cc1Cl

>  <Energy>  (10) 
49.21477537269053

>  <Genealogy>  (10) 
CCOc1ccc(S(=O)(=O)N2CC[NH+](C)CC2)cc1Cl (protonated)
CCOc1ccc(S(=O)(=O)N2CC[NH+](C)CC2)cc1Cl (3D coordinates assigned)
CCOc1ccc(S(=O)(=O)N2CC[NH+](C)CC2)cc1Cl (nonaromatic ring conformer: 49.21477537269053 kcal/mol)

>  <smiles>  (10) 
CCOc1ccc(S(=O)(=O)N2CCN(C)CC2)cc1Cl

>  <score_type>  (10) 
oracle

>  <origin>  (10) 
adg

>  <m_score__min__energy>  (10) 
-7.0800000000000001

>  <m_primary>  (10) 
energy

$$$$
10:0
     RDKit          3D

 48 51  0  0  0  0  0  0  0  0999 V2000
   -7.3940   23.3050  -31.8970 C   0  0  0  0  0  0  0  0  0  0  0  0
   -5.9370   23.3630  -31.5450 C   0  0  0  0  0  0  0  0  0  0  0  0
   -4.9410   22.5140  -31.9980 C   0  0  0  0  0  0  0  0  0  0  0  0
   -5.0540   21.3440  -32.9330 C   0  0  0  0  0  0  0  0  0  0  0  0
   -6.0360   20.3660  -32.4250 N   0  0  0  0  0  0  0  0  0  0  0  0
   -5.4250   19.4100  -31.4630 C   0  0  0  0  0  0  0  0  0  0  0  0
   -6.3380   18.1830  -31.1810 C   0  0  1  0  0  0  0  0  0  0  0  0
   -7.7640   18.5190  -31.5850 C   0  0  0  0  0  0  0  0  0  0  0  0
   -7.5930   18.4620  -33.0920 C   0  0  1  0  0  0  0  0  0  0  0  0
   -6.7730   19.7210  -33.5430 C   0  0  0  0  0  0  0  0  0  0  0  0
   -6.8840   17.1790  -33.2920 N   0  0  0  0  0  0  0  0  0  0  0  0
   -6.2250   16.9280  -34.5880 C   0  0  0  0  0  0  0  0  0  0  0  0
   -4.7380   17.1300  -34.4910 C   0  0  0  0  0  0  0  0  0  0  0  0
   -3.8530   16.0460  -34.5910 C   0  0  0  0  0  0  0  0  0  0  0  0
   -2.4790   16.2740  -34.4900 C   0  0  0  0  0  0  0  0  0  0  0  0
   -2.0000   17.5700  -34.2970 C   0  0  0  0  0  0  0  0  0  0  0  0
   -2.9090   18.6270  -34.2080 C   0  0  0  0  0  0  0  0  0  0  0  0
   -4.2440   18.3870  -34.3080 N   0  0  0  0  0  0  0  0  0  0  0  0
   -5.9950   17.0270  -32.1330 C   0  0  0  0  0  0  0  0  0  0  0  0
   -3.7660   23.0400  -31.4930 C   0  0  0  0  0  0  0  0  0  0  0  0
   -4.0430   24.1480  -30.7790 N   0  0  0  0  0  0  0  0  0  0  0  0
   -5.3530   24.3410  -30.8200 N   0  0  0  0  0  0  0  0  0  0  0  0
   -6.0180   25.4700  -30.1780 C   0  0  0  0  0  0  0  0  0  0  0  0
   -7.9933   23.2811  -30.9749 H   0  0  0  0  0  0  0  0  0  0  0  0
   -7.6643   24.1931  -32.4871 H   0  0  0  0  0  0  0  0  0  0  0  0
   -7.5928   22.3982  -32.4871 H   0  0  0  0  0  0  0  0  0  0  0  0
   -5.3779   21.7013  -33.9217 H   0  0  0  0  0  0  0  0  0  0  0  0
   -4.0720   20.8541  -33.0084 H   0  0  0  0  0  0  0  0  0  0  0  0
   -4.4716   19.0521  -31.8789 H   0  0  0  0  0  0  0  0  0  0  0  0
   -5.2771   19.9420  -30.5116 H   0  0  0  0  0  0  0  0  0  0  0  0
   -6.2106   17.9265  -30.1189 H   0  0  0  0  0  0  0  0  0  0  0  0
   -8.4844   17.7714  -31.2215 H   0  0  0  0  0  0  0  0  0  0  0  0
   -8.1626   19.4633  -31.1858 H   0  0  0  0  0  0  0  0  0  0  0  0
   -8.5187   18.4902  -33.6856 H   0  0  0  0  0  0  0  0  0  0  0  0
   -6.0466   19.4103  -34.3084 H   0  0  0  0  0  0  0  0  0  0  0  0
   -7.4904   20.4583  -33.9324 H   0  0  0  0  0  0  0  0  0  0  0  0
   -6.4267   15.8921  -34.8983 H   0  0  0  0  0  0  0  0  0  0  0  0
   -6.6254   17.6392  -35.3255 H   0  0  0  0  0  0  0  0  0  0  0  0
   -4.2374   15.0273  -34.7473 H   0  0  0  0  0  0  0  0  0  0  0  0
   -1.7747   15.4322  -34.5626 H   0  0  0  0  0  0  0  0  0  0  0  0
   -0.9191   17.7574  -34.2159 H   0  0  0  0  0  0  0  0  0  0  0  0
   -2.5449   19.6539  -34.0570 H   0  0  0  0  0  0  0  0  0  0  0  0
   -6.1725   16.0601  -31.6395 H   0  0  0  0  0  0  0  0  0  0  0  0
   -4.9365   17.0517  -32.4314 H   0  0  0  0  0  0  0  0  0  0  0  0
   -2.7619   22.6192  -31.6499 H   0  0  0  0  0  0  0  0  0  0  0  0
   -5.9535   25.3605  -29.0854 H   0  0  0  0  0  0  0  0  0  0  0  0
   -5.5270   26.4061  -30.4823 H   0  0  0  0  0  0  0  0  0  0  0  0
   -7.0748   25.4945  -30.4823 H   0  0  0  0  0  0  0  0  0  0  0  0
  1  2  1  0
  2  3  2  0
  3  4  1  0
  4  5  1  0
  5  6  1  0
  6  7  1  0
  7  8  1  0
  8  9  1  0
  9 10  1  0
  9 11  1  0
 11 12  1  0
 12 13  1  0
 13 14  2  0
 14 15  1  0
 15 16  2  0
 16 17  1  0
 17 18  2  0
 11 19  1  0
  3 20  1  0
 20 21  2  0
 21 22  1  0
 22 23  1  0
 22  2  1  0
 10  5  1  0
 18 13  1  0
 19  7  1  0
  1 24  1  0
  1 25  1  0
  1 26  1  0
  4 27  1  0
  4 28  1  0
  6 29  1  0
  6 30  1  0
  7 31  1  1
  8 32  1  0
  8 33  1  0
  9 34  1  6
 10 35  1  0
 10 36  1  0
 12 37  1  0
 12 38  1  0
 14 39  1  0
 15 40  1  0
 16 41  1  0
 17 42  1  0
 19 43  1  0
 19 44  1  0
 20 45  1  0
 23 46  1  0
 23 47  1  0
 23 48  1  0
M  END
>  <UniqueID>  (11) 
11

>  <SMILES>  (11) 
Cc1c(CN2C[C@H]3C[C@@H](C2)N(Cc2ccccn2)C3)cnn1C

>  <Energy>  (11) 
107.37637115363658

>  <Genealogy>  (11) 
Cc1c(CN2C[C@H]3C[C@@H](C2)N(Cc2ccccn2)C3)cnn1C (chirality)
Cc1c(CN2C[C@H]3C[C@@H](C2)N(Cc2ccccn2)C3)cnn1C (3D coordinates assigned)
Cc1c(CN2C[C@H]3C[C@@H](C2)N(Cc2ccccn2)C3)cnn1C (nonaromatic ring conformer: 107.37637115363658 kcal/mol)

>  <smiles>  (11) 
Cc1c(CN2CC3CC(C2)N(Cc2ccccn2)C3)cnn1C

>  <score_type>  (11) 
oracle

>  <origin>  (11) 
adg

>  <m_score__min__energy>  (11) 
-8.1899999999999995

>  <m_primary>  (11) 
energy

$$$$
11:0
     RDKit          3D

 43 46  0  0  0  0  0  0  0  0999 V2000
   -6.4610   24.1740  -32.1160 C   0  0  0  0  0  0  0  0  0  0  0  0
   -6.0290   22.7860  -31.9750 N   0  0  0  0  0  0  0  0  0  0  0  0
   -6.4990   21.7910  -32.7040 N   0  0  0  0  0  0  0  0  0  0  0  0
   -5.8300   20.6800  -32.3350 C   0  0  0  0  0  0  0  0  0  0  0  0
   -6.0280   19.3290  -32.9150 C   0  0  0  0  0  0  0  0  0  0  0  0
   -6.7560   18.3340  -32.2320 C   0  0  0  0  0  0  0  0  0  0  0  0
   -6.9300   17.0680  -32.8000 C   0  0  0  0  0  0  0  0  0  0  0  0
   -6.3790   16.7770  -34.0490 C   0  0  0  0  0  0  0  0  0  0  0  0
   -6.5490   15.5480  -34.5960 F   0  0  0  0  0  0  0  0  0  0  0  0
   -5.6540   17.7520  -34.7360 C   0  0  0  0  0  0  0  0  0  0  0  0
   -5.4770   19.0200  -34.1730 C   0  0  0  0  0  0  0  0  0  0  0  0
   -4.9280   20.9460  -31.3620 N   0  0  0  0  0  0  0  0  0  0  0  0
   -5.0900   22.2710  -31.1510 C   0  0  0  0  0  0  0  0  0  0  0  0
   -4.2930   23.0250  -30.1590 C   0  0  0  0  0  0  0  0  0  0  0  0
   -2.9020   23.1150  -30.3050 C   0  0  0  0  0  0  0  0  0  0  0  0
   -2.1390   23.8080  -29.3640 C   0  0  0  0  0  0  0  0  0  0  0  0
   -2.7730   24.4070  -28.2610 C   0  0  0  0  0  0  0  0  0  0  0  0
   -2.0070   25.1530  -27.2300 C   0  0  0  0  0  0  0  0  0  0  0  0
   -2.5730   25.3940  -25.9670 C   0  0  0  0  0  0  0  0  0  0  0  0
   -1.8610   26.0990  -24.9960 C   0  0  0  0  0  0  0  0  0  0  0  0
   -0.5780   26.5730  -25.2910 C   0  0  0  0  0  0  0  0  0  0  0  0
    0.2030   27.3380  -24.2630 C   0  0  0  0  0  0  0  0  0  0  0  0
   -0.3800   27.1740  -23.0200 F   0  0  0  0  0  0  0  0  0  0  0  0
    1.5040   26.8700  -24.2220 F   0  0  0  0  0  0  0  0  0  0  0  0
    0.2230   28.6880  -24.5730 F   0  0  0  0  0  0  0  0  0  0  0  0
   -0.0480   26.3470  -26.5240 N   0  0  0  0  0  0  0  0  0  0  0  0
   -0.7190   25.6600  -27.4860 C   0  0  0  0  0  0  0  0  0  0  0  0
   -4.1210   24.2740  -28.1240 N   0  0  0  0  0  0  0  0  0  0  0  0
   -4.8850   23.6070  -29.0290 C   0  0  0  0  0  0  0  0  0  0  0  0
   -6.5992   24.6181  -31.1192 H   0  0  0  0  0  0  0  0  0  0  0  0
   -5.6970   24.7416  -32.6675 H   0  0  0  0  0  0  0  0  0  0  0  0
   -7.4121   24.2078  -32.6675 H   0  0  0  0  0  0  0  0  0  0  0  0
   -7.2320   21.8900  -33.4400 H   0  0  0  0  0  0  0  0  0  0  0  0
   -7.1902   18.5547  -31.2457 H   0  0  0  0  0  0  0  0  0  0  0  0
   -7.5029   16.2992  -32.2608 H   0  0  0  0  0  0  0  0  0  0  0  0
   -5.2215   17.5229  -35.7211 H   0  0  0  0  0  0  0  0  0  0  0  0
   -4.9019   19.7829  -34.7183 H   0  0  0  0  0  0  0  0  0  0  0  0
   -2.4095   22.6374  -31.1649 H   0  0  0  0  0  0  0  0  0  0  0  0
   -1.0483   23.8851  -29.4844 H   0  0  0  0  0  0  0  0  0  0  0  0
   -3.5843   25.0244  -25.7421 H   0  0  0  0  0  0  0  0  0  0  0  0
   -2.3049   26.2808  -24.0061 H   0  0  0  0  0  0  0  0  0  0  0  0
   -0.2532   25.4994  -28.4695 H   0  0  0  0  0  0  0  0  0  0  0  0
   -5.9709   23.5236  -28.8744 H   0  0  0  0  0  0  0  0  0  0  0  0
  1  2  1  0
  2  3  1  0
  3  4  2  0
  4  5  1  0
  5  6  2  0
  6  7  1  0
  7  8  2  0
  8  9  1  0
  8 10  1  0
 10 11  2  0
  4 12  1  0
 12 13  2  0
 13 14  1  0
 14 15  2  0
 15 16  1  0
 16 17  2  0
 17 18  1  0
 18 19  2  0
 19 20  1  0
 20 21  2  0
 21 22  1  0
 22 23  1  0
 22 24  1  0
 22 25  1  0
 21 26  1  0
 26 27  2  0
 17 28  1  0
 28 29  2  0
 13  2  1  0
 29 14  1  0
 11  5  1  0
 27 18  1  0
  1 30  1  0
  1 31  1  0
  1 32  1  0
  3 33  1  0
  6 34  1  0
  7 35  1  0
 10 36  1  0
 11 37  1  0
 15 38  1  0
 16 39  1  0
 19 40  1  0
 20 41  1  0
 27 42  1  0
 29 43  1  0
M  CHG  1   3   1
M  END
>  <UniqueID>  (12) 
12

>  <SMILES>  (12) 
Cn1[nH+]c(-c2ccc(F)cc2)nc1-c1ccc(-c2ccc(C(F)(F)F)nc2)nc1

>  <Energy>  (12) 
92.26888268672288

>  <Genealogy>  (12) 
Cn1[nH+]c(-c2ccc(F)cc2)nc1-c1ccc(-c2ccc(C(F)(F)F)nc2)nc1 (protonated)
Cn1[nH+]c(-c2ccc(F)cc2)nc1-c1ccc(-c2ccc(C(F)(F)F)nc2)nc1 (3D coordinates assigned)
Cn1[nH+]c(-c2ccc(F)cc2)nc1-c1ccc(-c2ccc(C(F)(F)F)nc2)nc1 (optimized conformer: 92.26888268672288 kcal/mol)

>  <smiles>  (12) 
Cn1nc(-c2ccc(F)cc2)nc1-c1ccc(-c2ccc(C(F)(F)F)nc2)nc1

>  <score_type>  (12) 
oracle

>  <origin>  (12) 
adg

>  <m_score__min__energy>  (12) 
-7.2999999999999998

>  <m_primary>  (12) 
energy

$$$$
12:0
     RDKit          3D

 52 55  0  0  0  0  0  0  0  0999 V2000
   -6.8580   17.5770  -32.9670 C   0  0  0  0  0  0  0  0  0  0  0  0
   -6.8630   18.9510  -33.3390 O   0  0  0  0  0  0  0  0  0  0  0  0
   -7.6390   19.9440  -32.7200 C   0  0  0  0  0  0  0  0  0  0  0  0
   -9.0470   19.8950  -32.7170 C   0  0  0  0  0  0  0  0  0  0  0  0
   -9.7870   20.8840  -32.0630 C   0  0  0  0  0  0  0  0  0  0  0  0
   -9.1330   21.9270  -31.4050 C   0  0  0  0  0  0  0  0  0  0  0  0
   -7.7390   21.9890  -31.4040 C   0  0  0  0  0  0  0  0  0  0  0  0
   -6.9840   21.0090  -32.0700 C   0  0  0  0  0  0  0  0  0  0  0  0
   -5.5490   21.0830  -32.0600 N   0  0  0  0  0  0  0  0  0  0  0  0
   -4.8660   22.1880  -32.7380 C   0  0  0  0  0  0  0  0  0  0  0  0
   -3.4320   22.3450  -32.2030 C   0  0  0  0  0  0  0  0  0  0  0  0
   -3.3370   22.0120  -30.7640 N   0  0  0  0  0  0  0  0  0  0  0  0
   -4.0490   22.9760  -29.8920 C   0  0  0  0  0  0  0  0  0  0  0  0
   -3.6130   24.3940  -30.1670 C   0  0  0  0  0  0  0  0  0  0  0  0
   -4.3580   25.1350  -30.8590 O   0  0  0  0  0  0  0  0  0  0  0  0
   -2.3630   24.9200  -29.6950 N   0  0  0  0  0  0  0  0  0  0  0  0
   -1.9060   24.9320  -28.3360 C   0  0  0  0  0  0  0  0  0  0  0  0
   -1.7070   23.7140  -27.6770 C   0  0  0  0  0  0  0  0  0  0  0  0
   -1.2770   23.6870  -26.3490 C   0  0  0  0  0  0  0  0  0  0  0  0
   -1.0220   24.8850  -25.6660 C   0  0  0  0  0  0  0  0  0  0  0  0
   -0.5960   24.8730  -24.3290 C   0  0  0  0  0  0  0  0  0  0  0  0
   -0.3380   26.0740  -23.6630 C   0  0  0  0  0  0  0  0  0  0  0  0
   -0.5000   27.2940  -24.3250 C   0  0  0  0  0  0  0  0  0  0  0  0
   -0.9230   27.3200  -25.6570 C   0  0  0  0  0  0  0  0  0  0  0  0
   -1.1890   26.1220  -26.3360 C   0  0  0  0  0  0  0  0  0  0  0  0
   -1.6160   26.1350  -27.6730 C   0  0  0  0  0  0  0  0  0  0  0  0
   -3.7090   20.6010  -30.4780 C   0  0  0  0  0  0  0  0  0  0  0  0
   -4.7460   20.0160  -31.4580 C   0  0  0  0  0  0  0  0  0  0  0  0
   -6.8577   17.4941  -31.8701 H   0  0  0  0  0  0  0  0  0  0  0  0
   -7.7544   17.0843  -33.3717 H   0  0  0  0  0  0  0  0  0  0  0  0
   -5.9581   17.0908  -33.3717 H   0  0  0  0  0  0  0  0  0  0  0  0
   -9.5668   19.0738  -33.2322 H   0  0  0  0  0  0  0  0  0  0  0  0
  -10.8861   20.8404  -32.0668 H   0  0  0  0  0  0  0  0  0  0  0  0
   -9.7175   22.7013  -30.8864 H   0  0  0  0  0  0  0  0  0  0  0  0
   -7.2284   22.8097  -30.8789 H   0  0  0  0  0  0  0  0  0  0  0  0
   -4.8289   21.9824  -33.8180 H   0  0  0  0  0  0  0  0  0  0  0  0
   -5.4204   23.1189  -32.5479 H   0  0  0  0  0  0  0  0  0  0  0  0
   -2.7671   21.6745  -32.7672 H   0  0  0  0  0  0  0  0  0  0  0  0
   -3.1361   23.3970  -32.3283 H   0  0  0  0  0  0  0  0  0  0  0  0
   -5.1305   22.8924  -30.0746 H   0  0  0  0  0  0  0  0  0  0  0  0
   -3.8100   22.7374  -28.8451 H   0  0  0  0  0  0  0  0  0  0  0  0
   -1.8909   22.7694  -28.2098 H   0  0  0  0  0  0  0  0  0  0  0  0
   -1.1378   22.7234  -25.8370 H   0  0  0  0  0  0  0  0  0  0  0  0
   -0.4648   23.9154  -23.8038 H   0  0  0  0  0  0  0  0  0  0  0  0
   -0.0063   26.0591  -22.6143 H   0  0  0  0  0  0  0  0  0  0  0  0
   -0.2941   28.2364  -23.7964 H   0  0  0  0  0  0  0  0  0  0  0  0
   -1.0476   28.2828  -26.1742 H   0  0  0  0  0  0  0  0  0  0  0  0
   -1.7239   27.0924  -28.2039 H   0  0  0  0  0  0  0  0  0  0  0  0
   -2.7986   19.9858  -30.5295 H   0  0  0  0  0  0  0  0  0  0  0  0
   -4.1715   20.5893  -29.4800 H   0  0  0  0  0  0  0  0  0  0  0  0
   -4.2213   19.4664  -32.2534 H   0  0  0  0  0  0  0  0  0  0  0  0
   -5.4142   19.3402  -30.9040 H   0  0  0  0  0  0  0  0  0  0  0  0
  1  2  1  0
  2  3  1  0
  3  4  2  0
  4  5  1  0
  5  6  2  0
  6  7  1  0
  7  8  2  0
  8  9  1  0
  9 10  1  0
 10 11  1  0
 11 12  1  0
 12 13  1  0
 13 14  1  0
 14 15  2  0
 14 16  1  0
 16 17  1  0
 17 18  2  0
 18 19  1  0
 19 20  2  0
 20 21  1  0
 21 22  2  0
 22 23  1  0
 23 24  2  0
 24 25  1  0
 25 26  2  0
 12 27  1  0
 27 28  1  0
  8  3  1  0
 28  9  1  0
 26 17  1  0
 25 20  1  0
  1 29  1  0
  1 30  1  0
  1 31  1  0
  4 32  1  0
  5 33  1  0
  6 34  1  0
  7 35  1  0
 10 36  1  0
 10 37  1  0
 11 38  1  0
 11 39  1  0
 13 40  1  0
 13 41  1  0
 18 42  1  0
 19 43  1  0
 21 44  1  0
 22 45  1  0
 23 46  1  0
 24 47  1  0
 26 48  1  0
 27 49  1  0
 27 50  1  0
 28 51  1  0
 28 52  1  0
M  CHG  1  16  -1
M  END
>  <UniqueID>  (13) 
13

>  <SMILES>  (13) 
COc1ccccc1N1CCN(CC(=O)[N-]c2ccc3ccccc3c2)CC1

>  <Energy>  (13) 
74.55416458969246

>  <Genealogy>  (13) 
COc1ccccc1N1CCN(CC(=O)[N-]c2ccc3ccccc3c2)CC1 (protonated)
COc1ccccc1N1CCN(CC(=O)[N-]c2ccc3ccccc3c2)CC1 (3D coordinates assigned)
COc1ccccc1N1CCN(CC(=O)[N-]c2ccc3ccccc3c2)CC1 (nonaromatic ring conformer: 74.55416458969246 kcal/mol)

>  <smiles>  (13) 
COc1ccccc1N1CCN(CC(=O)Nc2ccc3ccccc3c2)CC1

>  <score_type>  (13) 
oracle

>  <origin>  (13) 
adg

>  <m_score__min__energy>  (13) 
-10.640000000000001

>  <m_primary>  (13) 
energy

$$$$
13:0
     RDKit          3D

 57 60  0  0  0  0  0  0  0  0999 V2000
    0.9890   19.7350  -32.3630 C   0  0  0  0  0  0  0  0  0  0  0  0
   -0.3380   20.2640  -32.6640 N   0  0  0  0  0  0  0  0  0  0  0  0
   -1.1120   19.9390  -33.7170 C   0  0  0  0  0  0  0  0  0  0  0  0
   -2.2740   20.6280  -33.7390 N   0  0  0  0  0  0  0  0  0  0  0  0
   -2.2160   21.4240  -32.6510 C   0  0  0  0  0  0  0  0  0  0  0  0
   -1.0260   21.2080  -31.9920 C   0  0  0  0  0  0  0  0  0  0  0  0
   -0.5740   21.8990  -30.7300 C   0  0  0  0  0  0  0  0  0  0  0  0
   -0.4150   20.9500  -29.5960 N   0  0  0  0  0  0  0  0  0  0  0  0
    0.0390   21.6020  -28.3360 C   0  0  0  0  0  0  0  0  0  0  0  0
   -1.1200   22.0910  -27.4430 C   0  0  0  0  0  0  0  0  0  0  0  0
   -2.3250   22.3240  -28.2570 N   0  0  0  0  0  0  0  0  0  0  0  0
   -3.3850   23.0070  -27.4890 C   0  0  0  0  0  0  0  0  0  0  0  0
   -3.2360   24.5290  -27.6200 C   0  0  0  0  0  0  0  0  0  0  0  0
   -2.5320   24.9260  -28.9240 C   0  0  0  0  0  0  0  0  0  0  0  0
   -3.4740   25.2710  -29.9420 O   0  0  0  0  0  0  0  0  0  0  0  0
   -4.5440   24.4700  -30.3730 C   0  0  0  0  0  0  0  0  0  0  0  0
   -5.8890   24.8420  -30.2090 C   0  0  0  0  0  0  0  0  0  0  0  0
   -6.9140   23.9960  -30.6420 C   0  0  0  0  0  0  0  0  0  0  0  0
   -6.6190   22.7630  -31.2570 C   0  0  0  0  0  0  0  0  0  0  0  0
   -7.7010   21.8480  -31.7060 C   0  0  0  0  0  0  0  0  0  0  0  0
   -9.0780   22.0530  -31.5920 C   0  0  0  0  0  0  0  0  0  0  0  0
   -9.8470   20.9960  -32.0930 C   0  0  0  0  0  0  0  0  0  0  0  0
   -9.0960   19.9510  -32.6100 C   0  0  0  0  0  0  0  0  0  0  0  0
   -7.4730   20.3440  -32.4370 S   0  0  0  0  0  0  0  0  0  0  0  0
   -5.2690   22.4060  -31.4310 C   0  0  0  0  0  0  0  0  0  0  0  0
   -4.2470   23.2530  -30.9940 C   0  0  0  0  0  0  0  0  0  0  0  0
   -2.8120   21.0480  -28.8220 C   0  0  0  0  0  0  0  0  0  0  0  0
   -1.6570   20.1750  -29.3700 C   0  0  0  0  0  0  0  0  0  0  0  0
    1.1237   19.6813  -31.2726 H   0  0  0  0  0  0  0  0  0  0  0  0
    1.0890   18.7283  -32.7948 H   0  0  0  0  0  0  0  0  0  0  0  0
    1.7542   20.3968  -32.7948 H   0  0  0  0  0  0  0  0  0  0  0  0
   -0.8293   19.1945  -34.4758 H   0  0  0  0  0  0  0  0  0  0  0  0
   -2.9964   22.1338  -32.3394 H   0  0  0  0  0  0  0  0  0  0  0  0
    0.3926   22.3882  -30.9207 H   0  0  0  0  0  0  0  0  0  0  0  0
   -1.3455   22.6319  -30.4514 H   0  0  0  0  0  0  0  0  0  0  0  0
    0.3200   20.2560  -29.8730 H   0  0  0  0  0  0  0  0  0  0  0  0
    0.6365   20.8765  -27.7645 H   0  0  0  0  0  0  0  0  0  0  0  0
    0.6223   22.4893  -28.6232 H   0  0  0  0  0  0  0  0  0  0  0  0
   -1.3381   21.3285  -26.6807 H   0  0  0  0  0  0  0  0  0  0  0  0
   -0.8265   23.0336  -26.9577 H   0  0  0  0  0  0  0  0  0  0  0  0
   -4.3684   22.7032  -27.8772 H   0  0  0  0  0  0  0  0  0  0  0  0
   -3.2976   22.7273  -26.4288 H   0  0  0  0  0  0  0  0  0  0  0  0
   -4.2360   24.9868  -27.6024 H   0  0  0  0  0  0  0  0  0  0  0  0
   -2.6216   24.8844  -26.7796 H   0  0  0  0  0  0  0  0  0  0  0  0
   -1.8816   25.7917  -28.7302 H   0  0  0  0  0  0  0  0  0  0  0  0
   -1.9432   24.0657  -29.2749 H   0  0  0  0  0  0  0  0  0  0  0  0
   -6.1367   25.8043  -29.7372 H   0  0  0  0  0  0  0  0  0  0  0  0
   -7.9628   24.2962  -30.5011 H   0  0  0  0  0  0  0  0  0  0  0  0
   -9.5168   22.9597  -31.1501 H   0  0  0  0  0  0  0  0  0  0  0  0
  -10.9469   20.9944  -32.0780 H   0  0  0  0  0  0  0  0  0  0  0  0
   -9.4938   19.0271  -33.0552 H   0  0  0  0  0  0  0  0  0  0  0  0
   -5.0159   21.4514  -31.9155 H   0  0  0  0  0  0  0  0  0  0  0  0
   -3.1972   22.9590  -31.1402 H   0  0  0  0  0  0  0  0  0  0  0  0
   -3.3364   20.4882  -28.0335 H   0  0  0  0  0  0  0  0  0  0  0  0
   -3.4852   21.2835  -29.6595 H   0  0  0  0  0  0  0  0  0  0  0  0
   -1.4460   19.3747  -28.6455 H   0  0  0  0  0  0  0  0  0  0  0  0
   -1.9778   19.7692  -30.3408 H   0  0  0  0  0  0  0  0  0  0  0  0
  1  2  1  0
  2  3  1  0
  3  4  2  0
  4  5  1  0
  5  6  2  0
  6  7  1  0
  7  8  1  0
  8  9  1  0
  9 10  1  0
 10 11  1  0
 11 12  1  0
 12 13  1  0
 13 14  1  0
 14 15  1  0
 15 16  1  0
 16 17  2  0
 17 18  1  0
 18 19  2  0
 19 20  1  0
 20 21  2  0
 21 22  1  0
 22 23  2  0
 23 24  1  0
 19 25  1  0
 25 26  2  0
 11 27  1  0
 27 28  1  0
  6  2  1  0
 28  8  1  0
 26 16  1  0
 24 20  1  0
  1 29  1  0
  1 30  1  0
  1 31  1  0
  3 32  1  0
  5 33  1  0
  7 34  1  0
  7 35  1  0
  8 36  1  0
  9 37  1  0
  9 38  1  0
 10 39  1  0
 10 40  1  0
 12 41  1  0
 12 42  1  0
 13 43  1  0
 13 44  1  0
 14 45  1  0
 14 46  1  0
 17 47  1  0
 18 48  1  0
 21 49  1  0
 22 50  1  0
 23 51  1  0
 25 52  1  0
 26 53  1  0
 27 54  1  0
 27 55  1  0
 28 56  1  0
 28 57  1  0
M  CHG  1   8   1
M  END
>  <UniqueID>  (14) 
14

>  <SMILES>  (14) 
Cn1cncc1C[NH+]1CCN(CCCOc2ccc(-c3cccs3)cc2)CC1

>  <Energy>  (14) 
125.48545064562656

>  <Genealogy>  (14) 
Cn1cncc1C[NH+]1CCN(CCCOc2ccc(-c3cccs3)cc2)CC1 (protonated)
Cn1cncc1C[NH+]1CCN(CCCOc2ccc(-c3cccs3)cc2)CC1 (3D coordinates assigned)
Cn1cncc1C[NH+]1CCN(CCCOc2ccc(-c3cccs3)cc2)CC1 (nonaromatic ring conformer: 125.48545064562656 kcal/mol)

>  <smiles>  (14) 
Cn1cncc1CN1CCN(CCCOc2ccc(-c3cccs3)cc2)CC1

>  <score_type>  (14) 
oracle

>  <origin>  (14) 
adg

>  <m_score__min__energy>  (14) 
-8.8200000000000003

>  <m_primary>  (14) 
energy

$$$$
14:0
     RDKit          3D

 43 44  0  0  0  0  0  0  0  0999 V2000
   -8.7410   19.0090  -31.3200 C   0  0  0  0  0  0  0  0  0  0  0  0
   -8.9490   19.6650  -32.6810 C   0  0  0  0  0  0  0  0  0  0  0  0
   -8.5730   21.0430  -32.6420 O   0  0  0  0  0  0  0  0  0  0  0  0
   -7.4630   21.5680  -31.9610 C   0  0  0  0  0  0  0  0  0  0  0  0
   -6.1340   21.2720  -32.3220 C   0  0  0  0  0  0  0  0  0  0  0  0
   -5.0680   21.8250  -31.6080 C   0  0  0  0  0  0  0  0  0  0  0  0
   -5.3080   22.6920  -30.5280 C   0  0  0  0  0  0  0  0  0  0  0  0
   -4.2290   23.2540  -29.7620 N   0  0  0  0  0  0  0  0  0  0  0  0
   -3.6420   24.5410  -30.0310 C   0  0  0  0  0  0  0  0  0  0  0  0
   -4.2330   25.3650  -30.7760 O   0  0  0  0  0  0  0  0  0  0  0  0
   -2.3970   24.9210  -29.4350 N   0  0  0  0  0  0  0  0  0  0  0  0
   -2.1290   24.8770  -28.0030 C   0  0  0  0  0  0  0  0  0  0  0  0
   -2.4880   23.4960  -27.4560 C   0  0  0  0  0  0  0  0  0  0  0  0
   -1.3760   22.5490  -27.6990 N   0  0  0  0  0  0  0  0  0  0  0  0
   -1.5050   21.3210  -26.8910 C   0  0  0  0  0  0  0  0  0  0  0  0
   -2.6670   20.4270  -27.3890 C   0  0  0  0  0  0  0  0  0  0  0  0
   -3.1090   20.7630  -28.6930 O   0  0  0  0  0  0  0  0  0  0  0  0
   -2.0000   20.9570  -29.5450 C   0  0  0  0  0  0  0  0  0  0  0  0
   -1.2140   22.2200  -29.1350 C   0  0  0  0  0  0  0  0  0  0  0  0
   -6.6320   22.9630  -30.1540 C   0  0  0  0  0  0  0  0  0  0  0  0
   -7.6980   22.4110  -30.8700 C   0  0  0  0  0  0  0  0  0  0  0  0
   -8.9707   19.7335  -30.5248 H   0  0  0  0  0  0  0  0  0  0  0  0
   -9.4073   18.1387  -31.2268 H   0  0  0  0  0  0  0  0  0  0  0  0
   -7.6950   18.6816  -31.2268 H   0  0  0  0  0  0  0  0  0  0  0  0
   -8.3344   19.1444  -33.4301 H   0  0  0  0  0  0  0  0  0  0  0  0
  -10.0144   19.5972  -32.9463 H   0  0  0  0  0  0  0  0  0  0  0  0
   -5.9343   20.6016  -33.1709 H   0  0  0  0  0  0  0  0  0  0  0  0
   -4.0341   21.5803  -31.8929 H   0  0  0  0  0  0  0  0  0  0  0  0
   -3.9220   22.7380  -28.9080 H   0  0  0  0  0  0  0  0  0  0  0  0
   -1.0620   25.0755  -27.8241 H   0  0  0  0  0  0  0  0  0  0  0  0
   -2.7361   25.6403  -27.4943 H   0  0  0  0  0  0  0  0  0  0  0  0
   -2.6735   23.5698  -26.3743 H   0  0  0  0  0  0  0  0  0  0  0  0
   -3.3913   23.1299  -27.9659 H   0  0  0  0  0  0  0  0  0  0  0  0
   -0.5655   20.7524  -26.9542 H   0  0  0  0  0  0  0  0  0  0  0  0
   -1.7191   21.6147  -25.8528 H   0  0  0  0  0  0  0  0  0  0  0  0
   -2.3265   19.3811  -27.3937 H   0  0  0  0  0  0  0  0  0  0  0  0
   -3.5151   20.5816  -26.7058 H   0  0  0  0  0  0  0  0  0  0  0  0
   -1.3369   20.0817  -29.4802 H   0  0  0  0  0  0  0  0  0  0  0  0
   -2.3628   21.0843  -30.5756 H   0  0  0  0  0  0  0  0  0  0  0  0
   -0.1463   22.0530  -29.3402 H   0  0  0  0  0  0  0  0  0  0  0  0
   -1.6110   23.0642  -29.7178 H   0  0  0  0  0  0  0  0  0  0  0  0
   -6.8331   23.6147  -29.2909 H   0  0  0  0  0  0  0  0  0  0  0  0
   -8.7316   22.6418  -30.5726 H   0  0  0  0  0  0  0  0  0  0  0  0
  1  2  1  0
  2  3  1  0
  3  4  1  0
  4  5  2  0
  5  6  1  0
  6  7  2  0
  7  8  1  0
  8  9  1  0
  9 10  2  0
  9 11  1  0
 11 12  1  0
 12 13  1  0
 13 14  1  0
 14 15  1  0
 15 16  1  0
 16 17  1  0
 17 18  1  0
 18 19  1  0
  7 20  1  0
 20 21  2  0
 21  4  1  0
 19 14  1  0
  1 22  1  0
  1 23  1  0
  1 24  1  0
  2 25  1  0
  2 26  1  0
  5 27  1  0
  6 28  1  0
  8 29  1  0
 12 30  1  0
 12 31  1  0
 13 32  1  0
 13 33  1  0
 15 34  1  0
 15 35  1  0
 16 36  1  0
 16 37  1  0
 18 38  1  0
 18 39  1  0
 19 40  1  0
 19 41  1  0
 20 42  1  0
 21 43  1  0
M  CHG  1  11  -1
M  END
>  <UniqueID>  (15) 
15

>  <SMILES>  (15) 
CCOc1ccc(NC(=O)[N-]CCN2CCOCC2)cc1

>  <Energy>  (15) 
51.52724266733534

>  <Genealogy>  (15) 
CCOc1ccc(NC(=O)[N-]CCN2CCOCC2)cc1 (protonated)
CCOc1ccc(NC(=O)[N-]CCN2CCOCC2)cc1 (3D coordinates assigned)
CCOc1ccc(NC(=O)[N-]CCN2CCOCC2)cc1 (nonaromatic ring conformer: 51.52724266733534 kcal/mol)

>  <smiles>  (15) 
CCOc1ccc(NC(=O)NCCN2CCOCC2)cc1

>  <score_type>  (15) 
oracle

>  <origin>  (15) 
adg

>  <m_score__min__energy>  (15) 
-7.6500000000000004

>  <m_primary>  (15) 
energy

$$$$
15:0
     RDKit          3D

 26 27  0  0  0  0  0  0  0  0999 V2000
   -2.2810   25.0080  -26.9660 C   0  0  0  0  0  0  0  0  0  0  0  0
   -1.8100   24.7020  -28.3840 C   0  0  0  0  0  0  0  0  0  0  0  0
   -2.6790   25.2960  -29.3430 O   0  0  0  0  0  0  0  0  0  0  0  0
   -3.8480   24.6720  -29.7870 C   0  0  0  0  0  0  0  0  0  0  0  0
   -4.7370   24.0010  -28.9760 C   0  0  0  0  0  0  0  0  0  0  0  0
   -5.7370   23.5590  -29.8160 C   0  0  0  0  0  0  0  0  0  0  0  0
   -5.3820   23.9870  -31.0830 C   0  0  0  0  0  0  0  0  0  0  0  0
   -6.1760   23.7830  -32.3320 C   0  0  0  0  0  0  0  0  0  0  0  0
   -7.2020   22.7730  -32.1020 N   0  0  0  0  0  0  0  0  0  0  0  0
   -7.0560   21.4460  -32.2720 C   0  0  0  0  0  0  0  0  0  0  0  0
   -8.2730   20.8530  -32.0270 C   0  0  0  0  0  0  0  0  0  0  0  0
   -8.6920   18.9950  -32.1230 Br  0  0  0  0  0  0  0  0  0  0  0  0
   -9.1300   21.8890  -31.7200 C   0  0  0  0  0  0  0  0  0  0  0  0
   -8.4550   23.0550  -31.7790 N   0  0  0  0  0  0  0  0  0  0  0  0
   -4.2510   24.6510  -31.0360 O   0  0  0  0  0  0  0  0  0  0  0  0
   -1.5857   24.5563  -26.2432 H   0  0  0  0  0  0  0  0  0  0  0  0
   -2.3092   26.0974  -26.8161 H   0  0  0  0  0  0  0  0  0  0  0  0
   -3.2878   24.5911  -26.8161 H   0  0  0  0  0  0  0  0  0  0  0  0
   -0.7943   25.1014  -28.5210 H   0  0  0  0  0  0  0  0  0  0  0  0
   -1.8148   23.6118  -28.5303 H   0  0  0  0  0  0  0  0  0  0  0  0
   -4.6643   23.8499  -27.8888 H   0  0  0  0  0  0  0  0  0  0  0  0
   -6.6325   22.9845  -29.5365 H   0  0  0  0  0  0  0  0  0  0  0  0
   -6.6540   24.7308  -32.6204 H   0  0  0  0  0  0  0  0  0  0  0  0
   -5.5074   23.4464  -33.1381 H   0  0  0  0  0  0  0  0  0  0  0  0
   -6.1284   20.9276  -32.5563 H   0  0  0  0  0  0  0  0  0  0  0  0
  -10.1951   21.7813  -31.4671 H   0  0  0  0  0  0  0  0  0  0  0  0
  1  2  1  0
  2  3  1  0
  3  4  1  0
  4  5  2  0
  5  6  1  0
  6  7  2  0
  7  8  1  0
  8  9  1  0
  9 10  1  0
 10 11  2  0
 11 12  1  0
 11 13  1  0
 13 14  2  0
  7 15  1  0
 15  4  1  0
 14  9  1  0
  1 16  1  0
  1 17  1  0
  1 18  1  0
  2 19  1  0
  2 20  1  0
  5 21  1  0
  6 22  1  0
  8 23  1  0
  8 24  1  0
 10 25  1  0
 13 26  1  0
M  END
>  <UniqueID>  (16) 
16

>  <SMILES>  (16) 
CCOc1ccc(Cn2cc(Br)cn2)o1

>  <Energy>  (16) 
75.07684021258075

>  <Genealogy>  (16) 
CCOc1ccc(Cn2cc(Br)cn2)o1 (3D coordinates assigned)
CCOc1ccc(Cn2cc(Br)cn2)o1 (optimized conformer: 75.07684021258075 kcal/mol)

>  <smiles>  (16) 
CCOc1ccc(Cn2cc(Br)cn2)o1

>  <score_type>  (16) 
oracle

>  <origin>  (16) 
adg

>  <m_score__min__energy>  (16) 
-7.0199999999999996

>  <m_primary>  (16) 
energy

$$$$
16:0
     RDKit          3D

 62 65  0  0  0  0  0  0  0  0999 V2000
   -6.8620   24.5690  -30.0610 C   0  0  0  0  0  0  0  0  0  0  0  0
   -5.6940   25.5340  -30.2290 C   0  0  0  0  0  0  0  0  0  0  0  0
   -4.4680   24.9140  -29.8390 O   0  0  0  0  0  0  0  0  0  0  0  0
   -3.8360   23.8540  -30.5120 C   0  0  0  0  0  0  0  0  0  0  0  0
   -2.5460   23.4930  -30.1080 C   0  0  0  0  0  0  0  0  0  0  0  0
   -1.8720   22.4410  -30.7350 C   0  0  0  0  0  0  0  0  0  0  0  0
   -2.4790   21.7320  -31.7830 C   0  0  0  0  0  0  0  0  0  0  0  0
   -1.7840   20.6500  -32.4340 N   0  0  0  0  0  0  0  0  0  0  0  0
   -1.3110   20.8170  -33.8160 C   0  0  0  0  0  0  0  0  0  0  0  0
   -0.6510   19.5390  -34.3550 C   0  0  0  0  0  0  0  0  0  0  0  0
   -1.4450   18.3470  -34.0100 N   0  0  0  0  0  0  0  0  0  0  0  0
   -1.4050   17.1980  -34.8840 C   0  0  0  0  0  0  0  0  0  0  0  0
   -0.4320   17.0570  -35.6740 O   0  0  0  0  0  0  0  0  0  0  0  0
   -2.4710   16.1220  -34.8250 C   0  0  0  0  0  0  0  0  0  0  0  0
   -3.7860   16.5990  -34.3460 N   0  0  0  0  0  0  0  0  0  0  0  0
   -4.5420   15.6080  -33.5590 C   0  0  0  0  0  0  0  0  0  0  0  0
   -5.5950   16.3470  -32.7280 C   0  0  0  0  0  0  0  0  0  0  0  0
   -6.1880   17.4520  -33.4990 N   0  0  0  0  0  0  0  0  0  0  0  0
   -6.8960   18.5070  -32.8200 C   0  0  0  0  0  0  0  0  0  0  0  0
   -8.0660   18.2290  -32.0900 C   0  0  0  0  0  0  0  0  0  0  0  0
   -8.7650   19.2600  -31.4540 C   0  0  0  0  0  0  0  0  0  0  0  0
   -8.3090   20.5770  -31.5440 C   0  0  0  0  0  0  0  0  0  0  0  0
   -8.9900   21.5740  -30.9290 F   0  0  0  0  0  0  0  0  0  0  0  0
   -7.1520   20.8670  -32.2710 C   0  0  0  0  0  0  0  0  0  0  0  0
   -6.4490   19.8390  -32.9080 C   0  0  0  0  0  0  0  0  0  0  0  0
   -6.0730   17.4350  -34.9660 C   0  0  0  0  0  0  0  0  0  0  0  0
   -4.6030   17.2480  -35.3980 C   0  0  0  0  0  0  0  0  0  0  0  0
   -2.0580   18.2330  -32.6750 C   0  0  0  0  0  0  0  0  0  0  0  0
   -1.6030   19.3640  -31.7530 C   0  0  0  0  0  0  0  0  0  0  0  0
   -3.7700   22.1010  -32.1970 C   0  0  0  0  0  0  0  0  0  0  0  0
   -4.4450   23.1510  -31.5690 C   0  0  0  0  0  0  0  0  0  0  0  0
   -7.0548   24.4097  -28.9898 H   0  0  0  0  0  0  0  0  0  0  0  0
   -7.7591   24.9929  -30.5360 H   0  0  0  0  0  0  0  0  0  0  0  0
   -6.6149   23.6081  -30.5360 H   0  0  0  0  0  0  0  0  0  0  0  0
   -5.6255   25.8381  -31.2839 H   0  0  0  0  0  0  0  0  0  0  0  0
   -5.8657   26.4124  -29.5895 H   0  0  0  0  0  0  0  0  0  0  0  0
   -2.0577   24.0421  -29.2894 H   0  0  0  0  0  0  0  0  0  0  0  0
   -0.8591   22.1671  -30.4047 H   0  0  0  0  0  0  0  0  0  0  0  0
   -2.1681   21.0718  -34.4567 H   0  0  0  0  0  0  0  0  0  0  0  0
   -0.5576   21.6184  -33.8235 H   0  0  0  0  0  0  0  0  0  0  0  0
   -0.5683   19.6113  -35.4495 H   0  0  0  0  0  0  0  0  0  0  0  0
    0.3448   19.4402  -33.8982 H   0  0  0  0  0  0  0  0  0  0  0  0
   -2.6010   15.7090  -35.8362 H   0  0  0  0  0  0  0  0  0  0  0  0
   -2.1233   15.3712  -34.1002 H   0  0  0  0  0  0  0  0  0  0  0  0
   -5.0366   14.8960  -34.2360 H   0  0  0  0  0  0  0  0  0  0  0  0
   -3.8605   15.0540  -32.8967 H   0  0  0  0  0  0  0  0  0  0  0  0
   -6.3883   15.6412  -32.4408 H   0  0  0  0  0  0  0  0  0  0  0  0
   -5.1097   16.7624  -31.8325 H   0  0  0  0  0  0  0  0  0  0  0  0
   -8.4333   17.1946  -32.0190 H   0  0  0  0  0  0  0  0  0  0  0  0
   -9.6764   19.0330  -30.8814 H   0  0  0  0  0  0  0  0  0  0  0  0
   -6.7935   21.9045  -32.3426 H   0  0  0  0  0  0  0  0  0  0  0  0
   -5.5402   20.0731  -33.4819 H   0  0  0  0  0  0  0  0  0  0  0  0
   -6.6747   16.6053  -35.3654 H   0  0  0  0  0  0  0  0  0  0  0  0
   -6.4369   18.3956  -35.3595 H   0  0  0  0  0  0  0  0  0  0  0  0
   -4.5769   16.6224  -36.3024 H   0  0  0  0  0  0  0  0  0  0  0  0
   -4.1783   18.2450  -35.5868 H   0  0  0  0  0  0  0  0  0  0  0  0
   -3.1523   18.2746  -32.7791 H   0  0  0  0  0  0  0  0  0  0  0  0
   -1.7438   17.2770  -32.2307 H   0  0  0  0  0  0  0  0  0  0  0  0
   -2.2025   19.3494  -30.8308 H   0  0  0  0  0  0  0  0  0  0  0  0
   -0.5410   19.2279  -31.5009 H   0  0  0  0  0  0  0  0  0  0  0  0
   -4.2536   21.5585  -33.0228 H   0  0  0  0  0  0  0  0  0  0  0  0
   -5.4559   23.4294  -31.9017 H   0  0  0  0  0  0  0  0  0  0  0  0
  1  2  1  0
  2  3  1  0
  3  4  1  0
  4  5  2  0
  5  6  1  0
  6  7  2  0
  7  8  1  0
  8  9  1  0
  9 10  1  0
 10 11  1  0
 11 12  1  0
 12 13  2  0
 12 14  1  0
 14 15  1  0
 15 16  1  0
 16 17  1  0
 17 18  1  0
 18 19  1  0
 19 20  2  0
 20 21  1  0
 21 22  2  0
 22 23  1  0
 22 24  1  0
 24 25  2  0
 18 26  1  0
 26 27  1  0
 11 28  1  0
 28 29  1  0
  7 30  1  0
 30 31  2  0
 31  4  1  0
 29  8  1  0
 27 15  1  0
 25 19  1  0
  1 32  1  0
  1 33  1  0
  1 34  1  0
  2 35  1  0
  2 36  1  0
  5 37  1  0
  6 38  1  0
  9 39  1  0
  9 40  1  0
 10 41  1  0
 10 42  1  0
 14 43  1  0
 14 44  1  0
 16 45  1  0
 16 46  1  0
 17 47  1  0
 17 48  1  0
 20 49  1  0
 21 50  1  0
 24 51  1  0
 25 52  1  0
 26 53  1  0
 26 54  1  0
 27 55  1  0
 27 56  1  0
 28 57  1  0
 28 58  1  0
 29 59  1  0
 29 60  1  0
 30 61  1  0
 31 62  1  0
M  END
>  <UniqueID>  (17) 
17

>  <SMILES>  (17) 
CCOc1ccc(N2CCN(C(=O)CN3CCN(c4ccc(F)cc4)CC3)CC2)cc1

>  <Energy>  (17) 
81.5337833001751

>  <Genealogy>  (17) 
CCOc1ccc(N2CCN(C(=O)CN3CCN(c4ccc(F)cc4)CC3)CC2)cc1 (3D coordinates assigned)
CCOc1ccc(N2CCN(C(=O)CN3CCN(c4ccc(F)cc4)CC3)CC2)cc1 (nonaromatic ring conformer: 81.5337833001751 kcal/mol)

>  <smiles>  (17) 
CCOc1ccc(N2CCN(C(=O)CN3CCN(c4ccc(F)cc4)CC3)CC2)cc1

>  <score_type>  (17) 
oracle

>  <origin>  (17) 
adg

>  <m_score__min__energy>  (17) 
-8.9900000000000002

>  <m_primary>  (17) 
energy

$$$$
17:0
     RDKit          3D

 53 55  0  0  0  0  0  0  0  0999 V2000
   -6.0110   23.4030  -32.0040 C   0  0  0  0  0  0  0  0  0  0  0  0
   -7.0900   22.7540  -31.1400 C   0  0  0  0  0  0  0  0  0  0  0  0
   -8.1290   21.9990  -31.9760 C   0  0  0  0  0  0  0  0  0  0  0  0
   -7.8030   20.5510  -32.0110 N   0  0  0  0  0  0  0  0  0  0  0  0
   -8.7590   19.7480  -31.2180 C   0  0  0  0  0  0  0  0  0  0  0  0
   -8.7090   18.2800  -31.6390 C   0  0  0  0  0  0  0  0  0  0  0  0
   -7.6950   20.0490  -33.4000 C   0  0  0  0  0  0  0  0  0  0  0  0
   -6.3030   19.5340  -33.6560 C   0  0  0  0  0  0  0  0  0  0  0  0
   -6.0850   18.4620  -34.5340 C   0  0  0  0  0  0  0  0  0  0  0  0
   -4.7880   18.0130  -34.7860 C   0  0  0  0  0  0  0  0  0  0  0  0
   -3.6980   18.6310  -34.1690 C   0  0  0  0  0  0  0  0  0  0  0  0
   -3.8950   19.7090  -33.2860 C   0  0  0  0  0  0  0  0  0  0  0  0
   -2.7370   20.3720  -32.6340 C   0  0  0  0  0  0  0  0  0  0  0  0
   -1.4570   20.3040  -33.2100 C   0  0  0  0  0  0  0  0  0  0  0  0
   -0.3700   20.9240  -32.5930 C   0  0  0  0  0  0  0  0  0  0  0  0
   -0.5450   21.6260  -31.3980 C   0  0  0  0  0  0  0  0  0  0  0  0
   -1.8200   21.7240  -30.8140 C   0  0  0  0  0  0  0  0  0  0  0  0
   -2.0220   22.4160  -29.5700 N   0  0  0  0  0  0  0  0  0  0  0  0
   -2.5930   23.7300  -29.4680 C   0  0  0  0  0  0  0  0  0  0  0  0
   -3.2180   24.2280  -30.4440 O   0  0  0  0  0  0  0  0  0  0  0  0
   -2.4900   24.4970  -28.2140 C   0  0  0  0  0  0  0  0  0  0  0  0
   -3.4140   24.4770  -27.1720 C   0  0  0  0  0  0  0  0  0  0  0  0
   -3.0680   25.3160  -26.1070 C   0  0  0  0  0  0  0  0  0  0  0  0
   -1.8770   25.9950  -26.3130 C   0  0  0  0  0  0  0  0  0  0  0  0
   -1.1390   27.1280  -25.1990 Cl  0  0  0  0  0  0  0  0  0  0  0  0
   -1.2480   25.5630  -27.8090 S   0  0  0  0  0  0  0  0  0  0  0  0
   -2.9050   21.0800  -31.4290 C   0  0  0  0  0  0  0  0  0  0  0  0
   -5.2060   20.1520  -33.0350 C   0  0  0  0  0  0  0  0  0  0  0  0
   -5.2491   23.8613  -31.3563 H   0  0  0  0  0  0  0  0  0  0  0  0
   -5.5404   22.6380  -32.6390 H   0  0  0  0  0  0  0  0  0  0  0  0
   -6.4663   24.1773  -32.6390 H   0  0  0  0  0  0  0  0  0  0  0  0
   -6.6106   22.0459  -30.4481 H   0  0  0  0  0  0  0  0  0  0  0  0
   -7.6129   23.5550  -30.5969 H   0  0  0  0  0  0  0  0  0  0  0  0
   -9.1248   22.1368  -31.5294 H   0  0  0  0  0  0  0  0  0  0  0  0
   -8.1205   22.3943  -33.0025 H   0  0  0  0  0  0  0  0  0  0  0  0
   -8.5001   19.8271  -30.1518 H   0  0  0  0  0  0  0  0  0  0  0  0
   -9.7748   20.1322  -31.3930 H   0  0  0  0  0  0  0  0  0  0  0  0
   -8.6873   17.6422  -30.7431 H   0  0  0  0  0  0  0  0  0  0  0  0
   -9.5995   18.0399  -32.2385 H   0  0  0  0  0  0  0  0  0  0  0  0
   -7.8042   18.1011  -32.2385 H   0  0  0  0  0  0  0  0  0  0  0  0
   -8.4181   19.2337  -33.5497 H   0  0  0  0  0  0  0  0  0  0  0  0
   -7.9093   20.8714  -34.0984 H   0  0  0  0  0  0  0  0  0  0  0  0
   -6.9393   17.9736  -35.0255 H   0  0  0  0  0  0  0  0  0  0  0  0
   -4.6236   17.1696  -35.4728 H   0  0  0  0  0  0  0  0  0  0  0  0
   -2.6785   18.2727  -34.3746 H   0  0  0  0  0  0  0  0  0  0  0  0
   -1.3110   19.7582  -34.1538 H   0  0  0  0  0  0  0  0  0  0  0  0
    0.6288   20.8598  -33.0494 H   0  0  0  0  0  0  0  0  0  0  0  0
    0.3183   22.1040  -30.9120 H   0  0  0  0  0  0  0  0  0  0  0  0
   -1.8290   21.8930  -28.6870 H   0  0  0  0  0  0  0  0  0  0  0  0
   -4.3260   23.8621  -27.1850 H   0  0  0  0  0  0  0  0  0  0  0  0
   -3.6788   25.4257  -25.1988 H   0  0  0  0  0  0  0  0  0  0  0  0
   -3.9002   21.1292  -30.9630 H   0  0  0  0  0  0  0  0  0  0  0  0
   -5.3737   20.9918  -32.3446 H   0  0  0  0  0  0  0  0  0  0  0  0
  1  2  1  0
  2  3  1  0
  3  4  1  0
  4  5  1  0
  5  6  1  0
  4  7  1  0
  7  8  1  0
  8  9  2  0
  9 10  1  0
 10 11  2  0
 11 12  1  0
 12 13  1  0
 13 14  2  0
 14 15  1  0
 15 16  2  0
 16 17  1  0
 17 18  1  0
 18 19  1  0
 19 20  2  0
 19 21  1  0
 21 22  2  0
 22 23  1  0
 23 24  2  0
 24 25  1  0
 24 26  1  0
 17 27  2  0
 12 28  2  0
 28  8  1  0
 27 13  1  0
 26 21  1  0
  1 29  1  0
  1 30  1  0
  1 31  1  0
  2 32  1  0
  2 33  1  0
  3 34  1  0
  3 35  1  0
  5 36  1  0
  5 37  1  0
  6 38  1  0
  6 39  1  0
  6 40  1  0
  7 41  1  0
  7 42  1  0
  9 43  1  0
 10 44  1  0
 11 45  1  0
 14 46  1  0
 15 47  1  0
 16 48  1  0
 18 49  1  0
 22 50  1  0
 23 51  1  0
 27 52  1  0
 28 53  1  0
M  END
>  <UniqueID>  (18) 
18

>  <SMILES>  (18) 
CCCN(CC)Cc1cccc(-c2cccc(NC(=O)c3ccc(Cl)s3)c2)c1

>  <Energy>  (18) 
86.14542449567983

>  <Genealogy>  (18) 
CCCN(CC)Cc1cccc(-c2cccc(NC(=O)c3ccc(Cl)s3)c2)c1 (3D coordinates assigned)
CCCN(CC)Cc1cccc(-c2cccc(NC(=O)c3ccc(Cl)s3)c2)c1 (optimized conformer: 86.14542449567983 kcal/mol)

>  <smiles>  (18) 
CCCN(CC)Cc1cccc(-c2cccc(NC(=O)c3ccc(Cl)s3)c2)c1

>  <score_type>  (18) 
oracle

>  <origin>  (18) 
adg

>  <m_score__min__energy>  (18) 
-9.4299999999999997

>  <m_primary>  (18) 
energy

$$$$
18:0
     RDKit          3D

 41 42  0  0  0  0  0  0  0  0999 V2000
   -7.4870   23.3580  -30.9060 C   0  0  0  0  0  0  0  0  0  0  0  0
   -6.1810   22.7550  -31.3860 C   0  0  0  0  0  0  0  0  0  0  0  0
   -4.9270   23.3250  -31.0290 C   0  0  0  0  0  0  0  0  0  0  0  0
   -4.7840   24.5360  -30.1320 C   0  0  0  0  0  0  0  0  0  0  0  0
   -3.8620   25.4390  -30.6780 O   0  0  0  0  0  0  0  0  0  0  0  0
   -3.7530   22.7720  -31.5610 C   0  0  0  0  0  0  0  0  0  0  0  0
   -3.8000   21.6780  -32.3560 N   0  0  0  0  0  0  0  0  0  0  0  0
   -4.9680   21.0680  -32.6740 C   0  0  0  0  0  0  0  0  0  0  0  0
   -4.9440   19.9270  -33.4840 C   0  0  0  0  0  0  0  0  0  0  0  0
   -6.1330   19.2620  -33.8160 C   0  0  0  0  0  0  0  0  0  0  0  0
   -6.1040   18.0970  -34.6690 N   0  0  0  0  0  0  0  0  0  0  0  0
   -4.7230   17.6800  -34.9680 C   0  0  0  0  0  0  0  0  0  0  0  0
   -4.3430   16.3670  -34.2600 C   0  0  0  0  0  0  0  0  0  0  0  0
   -5.4840   15.8430  -33.4790 N   0  0  0  0  0  0  0  0  0  0  0  0
   -5.3750   16.2260  -32.0590 C   0  0  0  0  0  0  0  0  0  0  0  0
   -5.5410   14.3760  -33.5830 C   0  0  0  0  0  0  0  0  0  0  0  0
   -7.3520   19.7550  -33.3240 C   0  0  0  0  0  0  0  0  0  0  0  0
   -7.3840   20.8960  -32.5190 C   0  0  0  0  0  0  0  0  0  0  0  0
   -6.1940   21.5800  -32.1880 C   0  0  0  0  0  0  0  0  0  0  0  0
   -7.5047   23.3662  -29.8062 H   0  0  0  0  0  0  0  0  0  0  0  0
   -7.5753   24.3880  -31.2818 H   0  0  0  0  0  0  0  0  0  0  0  0
   -8.3283   22.7572  -31.2818 H   0  0  0  0  0  0  0  0  0  0  0  0
   -5.7612   25.0310  -30.0320 H   0  0  0  0  0  0  0  0  0  0  0  0
   -4.4242   24.2099  -29.1450 H   0  0  0  0  0  0  0  0  0  0  0  0
   -4.1710   25.6490  -31.5960 H   0  0  0  0  0  0  0  0  0  0  0  0
   -2.7818   23.2334  -31.3291 H   0  0  0  0  0  0  0  0  0  0  0  0
   -3.9836   19.5484  -33.8637 H   0  0  0  0  0  0  0  0  0  0  0  0
   -6.5910   17.3090  -34.1820 H   0  0  0  0  0  0  0  0  0  0  0  0
   -6.6260   18.2740  -35.5590 H   0  0  0  0  0  0  0  0  0  0  0  0
   -4.6238   17.5377  -36.0542 H   0  0  0  0  0  0  0  0  0  0  0  0
   -4.0472   18.4672  -34.6026 H   0  0  0  0  0  0  0  0  0  0  0  0
   -4.0498   15.6221  -35.0144 H   0  0  0  0  0  0  0  0  0  0  0  0
   -3.5069   16.5656  -33.5733 H   0  0  0  0  0  0  0  0  0  0  0  0
   -5.6212   15.3608  -31.4259 H   0  0  0  0  0  0  0  0  0  0  0  0
   -4.3474   16.5556  -31.8460 H   0  0  0  0  0  0  0  0  0  0  0  0
   -6.0751   17.0473  -31.8460 H   0  0  0  0  0  0  0  0  0  0  0  0
   -5.5580   13.9373  -32.5744 H   0  0  0  0  0  0  0  0  0  0  0  0
   -6.4512   14.0820  -34.1262 H   0  0  0  0  0  0  0  0  0  0  0  0
   -4.6563   14.0123  -34.1262 H   0  0  0  0  0  0  0  0  0  0  0  0
   -8.2901   19.2382  -33.5747 H   0  0  0  0  0  0  0  0  0  0  0  0
   -8.3475   21.2660  -32.1385 H   0  0  0  0  0  0  0  0  0  0  0  0
  1  2  1  0
  2  3  2  0
  3  4  1  0
  4  5  1  0
  3  6  1  0
  6  7  2  0
  7  8  1  0
  8  9  2  0
  9 10  1  0
 10 11  1  0
 11 12  1  0
 12 13  1  0
 13 14  1  0
 14 15  1  0
 14 16  1  0
 10 17  2  0
 17 18  1  0
 18 19  2  0
 19  2  1  0
 19  8  1  0
  1 20  1  0
  1 21  1  0
  1 22  1  0
  4 23  1  0
  4 24  1  0
  5 25  1  0
  6 26  1  0
  9 27  1  0
 11 28  1  0
 11 29  1  0
 12 30  1  0
 12 31  1  0
 13 32  1  0
 13 33  1  0
 15 34  1  0
 15 35  1  0
 15 36  1  0
 16 37  1  0
 16 38  1  0
 16 39  1  0
 17 40  1  0
 18 41  1  0
M  CHG  1  11   1
M  END
>  <UniqueID>  (19) 
19

>  <SMILES>  (19) 
Cc1c(CO)cnc2cc([NH2+]CCN(C)C)ccc12

>  <Energy>  (19) 
49.52788547631606

>  <Genealogy>  (19) 
Cc1c(CO)cnc2cc([NH2+]CCN(C)C)ccc12 (protonated)
Cc1c(CO)cnc2cc([NH2+]CCN(C)C)ccc12 (3D coordinates assigned)
Cc1c(CO)cnc2cc([NH2+]CCN(C)C)ccc12 (optimized conformer: 49.52788547631606 kcal/mol)

>  <smiles>  (19) 
Cc1c(CO)cnc2cc(NCCN(C)C)ccc12

>  <score_type>  (19) 
oracle

>  <origin>  (19) 
adg

>  <m_score__min__energy>  (19) 
-6.9400000000000004

>  <m_primary>  (19) 
energy

$$$$
19:0
     RDKit          3D

 55 58  0  0  0  0  0  0  0  0999 V2000
   -3.1720   20.8720  -30.6020 C   0  0  0  0  0  0  0  0  0  0  0  0
   -3.2840   22.0390  -29.7130 N   0  0  0  0  0  0  0  0  0  0  0  0
   -2.4130   23.1880  -30.0530 C   0  0  0  0  0  0  0  0  0  0  0  0
   -2.8590   24.5310  -29.4510 C   0  0  0  0  0  0  0  0  0  0  0  0
   -3.5780   25.3000  -30.4600 N   0  0  0  0  0  0  0  0  0  0  0  0
   -5.0000   25.2600  -30.6220 C   0  0  0  0  0  0  0  0  0  0  0  0
   -5.6530   26.3360  -30.5800 O   0  0  0  0  0  0  0  0  0  0  0  0
   -5.7160   23.9900  -30.8300 C   0  0  0  0  0  0  0  0  0  0  0  0
   -6.7900   23.6440  -30.0000 C   0  0  0  0  0  0  0  0  0  0  0  0
   -7.4660   22.4350  -30.1850 C   0  0  0  0  0  0  0  0  0  0  0  0
   -7.0860   21.5690  -31.2220 C   0  0  0  0  0  0  0  0  0  0  0  0
   -7.7500   20.3540  -31.4250 C   0  0  0  0  0  0  0  0  0  0  0  0
   -7.3520   19.5110  -32.4690 C   0  0  0  0  0  0  0  0  0  0  0  0
   -6.3160   19.9160  -33.3220 C   0  0  0  0  0  0  0  0  0  0  0  0
   -5.6850   21.1080  -33.1230 N   0  0  0  0  0  0  0  0  0  0  0  0
   -6.0280   21.9280  -32.0870 C   0  0  0  0  0  0  0  0  0  0  0  0
   -5.3430   23.1360  -31.8780 C   0  0  0  0  0  0  0  0  0  0  0  0
   -5.9400   19.0160  -34.4660 C   0  0  0  0  0  0  0  0  0  0  0  0
   -5.8500   17.5650  -33.9760 C   0  0  0  0  0  0  0  0  0  0  0  0
   -7.0850   17.0960  -33.1610 C   0  0  0  0  0  0  0  0  0  0  0  0
   -8.0670   18.2170  -32.7540 C   0  0  0  0  0  0  0  0  0  0  0  0
   -3.3810   21.7090  -28.2750 C   0  0  0  0  0  0  0  0  0  0  0  0
   -2.4840   20.5720  -27.8450 C   0  0  0  0  0  0  0  0  0  0  0  0
   -2.9840   19.5450  -27.0230 C   0  0  0  0  0  0  0  0  0  0  0  0
   -2.1600   18.4820  -26.6440 C   0  0  0  0  0  0  0  0  0  0  0  0
   -0.8340   18.4310  -27.0830 C   0  0  0  0  0  0  0  0  0  0  0  0
   -0.3310   19.4420  -27.9040 C   0  0  0  0  0  0  0  0  0  0  0  0
   -1.1540   20.5050  -28.2910 C   0  0  0  0  0  0  0  0  0  0  0  0
   -3.0842   19.9574  -29.9972 H   0  0  0  0  0  0  0  0  0  0  0  0
   -4.0681   20.8073  -31.2367 H   0  0  0  0  0  0  0  0  0  0  0  0
   -2.2800   20.9789  -31.2367 H   0  0  0  0  0  0  0  0  0  0  0  0
   -1.3985   22.9689  -29.6885 H   0  0  0  0  0  0  0  0  0  0  0  0
   -2.4638   23.3045  -31.1456 H   0  0  0  0  0  0  0  0  0  0  0  0
   -3.5195   24.3462  -28.5910 H   0  0  0  0  0  0  0  0  0  0  0  0
   -1.9754   25.0961  -29.1194 H   0  0  0  0  0  0  0  0  0  0  0  0
   -7.1032   24.3282  -29.1976 H   0  0  0  0  0  0  0  0  0  0  0  0
   -8.2965   22.1619  -29.5174 H   0  0  0  0  0  0  0  0  0  0  0  0
   -8.5816   20.0626  -30.7666 H   0  0  0  0  0  0  0  0  0  0  0  0
   -4.9240   21.3960  -33.7790 H   0  0  0  0  0  0  0  0  0  0  0  0
   -4.5095   23.4138  -32.5398 H   0  0  0  0  0  0  0  0  0  0  0  0
   -6.7036   19.0888  -35.2544 H   0  0  0  0  0  0  0  0  0  0  0  0
   -4.9636   19.3258  -34.8669 H   0  0  0  0  0  0  0  0  0  0  0  0
   -5.7453   16.9096  -34.8532 H   0  0  0  0  0  0  0  0  0  0  0  0
   -4.9836   17.5104  -33.3005 H   0  0  0  0  0  0  0  0  0  0  0  0
   -7.6367   16.3643  -33.7694 H   0  0  0  0  0  0  0  0  0  0  0  0
   -6.6915   16.6784  -32.2225 H   0  0  0  0  0  0  0  0  0  0  0  0
   -8.7823   18.3786  -33.5739 H   0  0  0  0  0  0  0  0  0  0  0  0
   -8.5831   17.9022  -31.8350 H   0  0  0  0  0  0  0  0  0  0  0  0
   -3.1083   22.6033  -27.6955 H   0  0  0  0  0  0  0  0  0  0  0  0
   -4.4162   21.3855  -28.0912 H   0  0  0  0  0  0  0  0  0  0  0  0
   -4.0277   19.5792  -26.6774 H   0  0  0  0  0  0  0  0  0  0  0  0
   -2.5557   17.6837  -25.9989 H   0  0  0  0  0  0  0  0  0  0  0  0
   -0.1867   17.5942  -26.7816 H   0  0  0  0  0  0  0  0  0  0  0  0
    0.7135   19.4027  -28.2469 H   0  0  0  0  0  0  0  0  0  0  0  0
   -0.7572   21.2927  -28.9483 H   0  0  0  0  0  0  0  0  0  0  0  0
  1  2  1  0
  2  3  1  0
  3  4  1  0
  4  5  1  0
  5  6  1  0
  6  7  2  0
  6  8  1  0
  8  9  2  0
  9 10  1  0
 10 11  2  0
 11 12  1  0
 12 13  2  0
 13 14  1  0
 14 15  2  0
 15 16  1  0
 16 17  2  0
 14 18  1  0
 18 19  1  0
 19 20  1  0
 20 21  1  0
  2 22  1  0
 22 23  1  0
 23 24  2  0
 24 25  1  0
 25 26  2  0
 26 27  1  0
 27 28  2  0
 17  8  1  0
 28 23  1  0
 16 11  1  0
 21 13  1  0
  1 29  1  0
  1 30  1  0
  1 31  1  0
  3 32  1  0
  3 33  1  0
  4 34  1  0
  4 35  1  0
  9 36  1  0
 10 37  1  0
 12 38  1  0
 15 39  1  0
 17 40  1  0
 18 41  1  0
 18 42  1  0
 19 43  1  0
 19 44  1  0
 20 45  1  0
 20 46  1  0
 21 47  1  0
 21 48  1  0
 22 49  1  0
 22 50  1  0
 24 51  1  0
 25 52  1  0
 26 53  1  0
 27 54  1  0
 28 55  1  0
M  CHG  2   5  -1  15   1
M  END
>  <UniqueID>  (20) 
20

>  <SMILES>  (20) 
CN(CC[N-]C(=O)c1ccc2cc3c([nH+]c2c1)CCCC3)Cc1ccccc1

>  <Energy>  (20) 
72.08750433891952

>  <Genealogy>  (20) 
CN(CC[N-]C(=O)c1ccc2cc3c([nH+]c2c1)CCCC3)Cc1ccccc1 (protonated)
CN(CC[N-]C(=O)c1ccc2cc3c([nH+]c2c1)CCCC3)Cc1ccccc1 (3D coordinates assigned)
CN(CC[N-]C(=O)c1ccc2cc3c([nH+]c2c1)CCCC3)Cc1ccccc1 (nonaromatic ring conformer: 72.08750433891952 kcal/mol)

>  <smiles>  (20) 
CN(CCNC(=O)c1ccc2cc3c(nc2c1)CCCC3)Cc1ccccc1

>  <score_type>  (20) 
oracle

>  <origin>  (20) 
adg

>  <m_score__min__energy>  (20) 
-11.51

>  <m_primary>  (20) 
energy

$$$$
20:0
     RDKit          3D

 34 36  0  0  0  0  0  0  0  0999 V2000
   -6.1100   14.1900  -34.2290 C   0  0  0  0  0  0  0  0  0  0  0  0
   -5.4900   15.4200  -34.5890 O   0  0  0  0  0  0  0  0  0  0  0  0
   -5.7830   16.6570  -33.9960 C   0  0  0  0  0  0  0  0  0  0  0  0
   -5.7410   17.8050  -34.7980 C   0  0  0  0  0  0  0  0  0  0  0  0
   -6.0260   19.0610  -34.2550 C   0  0  0  0  0  0  0  0  0  0  0  0
   -6.3620   19.1830  -32.9000 C   0  0  0  0  0  0  0  0  0  0  0  0
   -6.6540   20.4750  -32.3380 N   0  0  0  0  0  0  0  0  0  0  0  0
   -7.9470   20.8280  -31.9940 C   0  0  0  0  0  0  0  0  0  0  0  0
   -9.0970   19.8790  -32.1800 C   0  0  0  0  0  0  0  0  0  0  0  0
   -8.2090   22.0640  -31.4750 N   0  0  0  0  0  0  0  0  0  0  0  0
   -7.1800   22.9190  -31.2950 C   0  0  0  0  0  0  0  0  0  0  0  0
   -7.2130   24.2000  -30.8000 C   0  0  0  0  0  0  0  0  0  0  0  0
   -5.8710   24.5790  -30.8470 C   0  0  0  0  0  0  0  0  0  0  0  0
   -5.3420   25.9250  -30.4790 C   0  0  0  0  0  0  0  0  0  0  0  0
   -5.1070   23.5840  -31.3600 N   0  0  0  0  0  0  0  0  0  0  0  0
   -5.9330   22.5840  -31.6140 N   0  0  0  0  0  0  0  0  0  0  0  0
   -5.6340   21.3740  -32.1380 C   0  0  0  0  0  0  0  0  0  0  0  0
   -4.4420   21.0880  -32.4400 O   0  0  0  0  0  0  0  0  0  0  0  0
   -6.4010   18.0390  -32.0910 C   0  0  0  0  0  0  0  0  0  0  0  0
   -6.1160   16.7830  -32.6330 C   0  0  0  0  0  0  0  0  0  0  0  0
   -6.1516   14.1074  -33.1329 H   0  0  0  0  0  0  0  0  0  0  0  0
   -7.1307   14.1604  -34.6380 H   0  0  0  0  0  0  0  0  0  0  0  0
   -5.5267   13.3519  -34.6380 H   0  0  0  0  0  0  0  0  0  0  0  0
   -5.4817   17.7172  -35.8634 H   0  0  0  0  0  0  0  0  0  0  0  0
   -5.9864   19.9562  -34.8930 H   0  0  0  0  0  0  0  0  0  0  0  0
   -9.4766   19.5657  -31.1963 H   0  0  0  0  0  0  0  0  0  0  0  0
   -9.8998   20.3810  -32.7399 H   0  0  0  0  0  0  0  0  0  0  0  0
   -8.7565   18.9955  -32.7399 H   0  0  0  0  0  0  0  0  0  0  0  0
   -8.0801   24.7813  -30.4534 H   0  0  0  0  0  0  0  0  0  0  0  0
   -5.3056   26.0177  -29.3835 H   0  0  0  0  0  0  0  0  0  0  0  0
   -4.3293   26.0462  -30.8911 H   0  0  0  0  0  0  0  0  0  0  0  0
   -6.0012   26.7033  -30.8911 H   0  0  0  0  0  0  0  0  0  0  0  0
   -6.6570   18.1303  -31.0251 H   0  0  0  0  0  0  0  0  0  0  0  0
   -6.1518   15.8892  -31.9929 H   0  0  0  0  0  0  0  0  0  0  0  0
  1  2  1  0
  2  3  1  0
  3  4  2  0
  4  5  1  0
  5  6  2  0
  6  7  1  0
  7  8  1  0
  8  9  1  0
  8 10  2  0
 10 11  1  0
 11 12  2  0
 12 13  1  0
 13 14  1  0
 13 15  2  0
 15 16  1  0
 16 17  1  0
 17 18  2  0
  6 19  1  0
 19 20  2  0
 20  3  1  0
 17  7  1  0
 16 11  1  0
  1 21  1  0
  1 22  1  0
  1 23  1  0
  4 24  1  0
  5 25  1  0
  9 26  1  0
  9 27  1  0
  9 28  1  0
 12 29  1  0
 14 30  1  0
 14 31  1  0
 14 32  1  0
 19 33  1  0
 20 34  1  0
M  END
>  <UniqueID>  (21) 
21

>  <SMILES>  (21) 
COc1ccc(-n2c(C)nc3cc(C)nn3c2=O)cc1

>  <Energy>  (21) 
80.49959928929339

>  <Genealogy>  (21) 
COc1ccc(-n2c(C)nc3cc(C)nn3c2=O)cc1 (3D coordinates assigned)
COc1ccc(-n2c(C)nc3cc(C)nn3c2=O)cc1 (optimized conformer: 80.49959928929339 kcal/mol)

>  <smiles>  (21) 
COc1ccc(-n2c(C)nc3cc(C)nn3c2=O)cc1

>  <score_type>  (21) 
oracle

>  <origin>  (21) 
adg

>  <m_score__min__energy>  (21) 
-7.1100000000000003

>  <m_primary>  (21) 
energy

$$$$
21:0
     RDKit          3D

 55 59  0  0  0  0  0  0  0  0999 V2000
   -6.6820   17.9120  -32.7910 C   0  0  0  0  0  0  0  0  0  0  0  0
   -7.5000   18.4510  -31.6200 C   0  0  0  0  0  0  0  0  0  0  0  0
   -8.1740   19.7080  -31.9830 N   0  0  0  0  0  0  0  0  0  0  0  0
   -9.4840   19.6350  -32.6390 C   0  0  0  0  0  0  0  0  0  0  0  0
   -7.5500   20.9960  -31.7430 C   0  0  0  0  0  0  0  0  0  0  0  0
   -8.2950   22.1920  -31.8180 C   0  0  0  0  0  0  0  0  0  0  0  0
   -7.6900   23.4270  -31.5720 C   0  0  0  0  0  0  0  0  0  0  0  0
   -6.3350   23.4920  -31.2440 C   0  0  0  0  0  0  0  0  0  0  0  0
   -5.5770   22.3200  -31.1690 C   0  0  0  0  0  0  0  0  0  0  0  0
   -4.1780   22.3860  -30.8400 N   0  0  0  0  0  0  0  0  0  0  0  0
   -3.7530   23.0190  -29.6070 C   0  0  0  0  0  0  0  0  0  0  0  0
   -4.6800   23.5780  -28.7010 C   0  0  0  0  0  0  0  0  0  0  0  0
   -4.2440   24.1870  -27.5220 C   0  0  0  0  0  0  0  0  0  0  0  0
   -2.8810   24.2490  -27.2290 C   0  0  0  0  0  0  0  0  0  0  0  0
   -1.9500   23.7070  -28.1160 C   0  0  0  0  0  0  0  0  0  0  0  0
   -2.3780   23.0960  -29.3030 C   0  0  0  0  0  0  0  0  0  0  0  0
   -1.4140   22.5580  -30.2140 N   0  0  0  0  0  0  0  0  0  0  0  0
   -1.8220   21.9450  -31.4420 C   0  0  0  0  0  0  0  0  0  0  0  0
   -0.8550   21.4480  -32.3280 C   0  0  0  0  0  0  0  0  0  0  0  0
   -1.2330   20.8460  -33.5400 C   0  0  0  0  0  0  0  0  0  0  0  0
   -0.2040   20.3420  -34.4860 C   0  0  0  0  0  0  0  0  0  0  0  0
    0.6770   21.2350  -35.1250 C   0  0  0  0  0  0  0  0  0  0  0  0
    1.6550   20.7580  -36.0040 C   0  0  0  0  0  0  0  0  0  0  0  0
    1.7620   19.3890  -36.2570 C   0  0  0  0  0  0  0  0  0  0  0  0
    0.8920   18.4940  -35.6320 C   0  0  0  0  0  0  0  0  0  0  0  0
   -0.0870   18.9640  -34.7500 C   0  0  0  0  0  0  0  0  0  0  0  0
   -2.5980   20.7360  -33.8460 C   0  0  0  0  0  0  0  0  0  0  0  0
   -3.5660   21.2260  -32.9670 C   0  0  0  0  0  0  0  0  0  0  0  0
   -3.1910   21.8490  -31.7590 C   0  0  0  0  0  0  0  0  0  0  0  0
   -6.1810   21.0790  -31.4160 C   0  0  0  0  0  0  0  0  0  0  0  0
   -5.8213   17.3449  -32.4068 H   0  0  0  0  0  0  0  0  0  0  0  0
   -7.3118   17.2514  -33.4050 H   0  0  0  0  0  0  0  0  0  0  0  0
   -6.3235   18.7514  -33.4050 H   0  0  0  0  0  0  0  0  0  0  0  0
   -8.2574   17.7053  -31.3366 H   0  0  0  0  0  0  0  0  0  0  0  0
   -6.8199   18.6479  -30.7781 H   0  0  0  0  0  0  0  0  0  0  0  0
  -10.2745   19.5909  -31.8754 H   0  0  0  0  0  0  0  0  0  0  0  0
   -9.6299   20.5264  -33.2668 H   0  0  0  0  0  0  0  0  0  0  0  0
   -9.5299   18.7329  -33.2668 H   0  0  0  0  0  0  0  0  0  0  0  0
   -9.3643   22.1515  -32.0731 H   0  0  0  0  0  0  0  0  0  0  0  0
   -8.2834   24.3509  -31.6370 H   0  0  0  0  0  0  0  0  0  0  0  0
   -5.8635   24.4656  -31.0445 H   0  0  0  0  0  0  0  0  0  0  0  0
   -5.7559   23.5336  -28.9256 H   0  0  0  0  0  0  0  0  0  0  0  0
   -4.9761   24.6184  -26.8234 H   0  0  0  0  0  0  0  0  0  0  0  0
   -2.5402   24.7255  -26.2980 H   0  0  0  0  0  0  0  0  0  0  0  0
   -0.8762   23.7594  -27.8830 H   0  0  0  0  0  0  0  0  0  0  0  0
   -0.3960   22.6200  -29.9830 H   0  0  0  0  0  0  0  0  0  0  0  0
    0.2114   21.5304  -32.0711 H   0  0  0  0  0  0  0  0  0  0  0  0
    0.5958   22.3148  -34.9318 H   0  0  0  0  0  0  0  0  0  0  0  0
    2.3410   21.4627  -36.4968 H   0  0  0  0  0  0  0  0  0  0  0  0
    2.5317   19.0159  -36.9486 H   0  0  0  0  0  0  0  0  0  0  0  0
    0.9764   17.4159  -35.8336 H   0  0  0  0  0  0  0  0  0  0  0  0
   -0.7689   18.2532  -34.2602 H   0  0  0  0  0  0  0  0  0  0  0  0
   -2.9085   20.2592  -34.7874 H   0  0  0  0  0  0  0  0  0  0  0  0
   -4.6318   21.1250  -33.2195 H   0  0  0  0  0  0  0  0  0  0  0  0
   -5.5800   20.1598  -31.3540 H   0  0  0  0  0  0  0  0  0  0  0  0
  1  2  1  0
  2  3  1  0
  3  4  1  0
  3  5  1  0
  5  6  2  0
  6  7  1  0
  7  8  2  0
  8  9  1  0
  9 10  1  0
 10 11  1  0
 11 12  2  0
 12 13  1  0
 13 14  2  0
 14 15  1  0
 15 16  2  0
 16 17  1  0
 17 18  1  0
 18 19  2  0
 19 20  1  0
 20 21  1  0
 21 22  2  0
 22 23  1  0
 23 24  2  0
 24 25  1  0
 25 26  2  0
 20 27  2  0
 27 28  1  0
 28 29  2  0
  9 30  2  0
 30  5  1  0
 29 10  1  0
 16 11  1  0
 29 18  1  0
 26 21  1  0
  1 31  1  0
  1 32  1  0
  1 33  1  0
  2 34  1  0
  2 35  1  0
  4 36  1  0
  4 37  1  0
  4 38  1  0
  6 39  1  0
  7 40  1  0
  8 41  1  0
 12 42  1  0
 13 43  1  0
 14 44  1  0
 15 45  1  0
 17 46  1  0
 19 47  1  0
 22 48  1  0
 23 49  1  0
 24 50  1  0
 25 51  1  0
 26 52  1  0
 27 53  1  0
 28 54  1  0
 30 55  1  0
M  END
>  <UniqueID>  (22) 
22

>  <SMILES>  (22) 
CCN(C)c1cccc(N2c3ccccc3Nc3cc(-c4ccccc4)ccc32)c1

>  <Energy>  (22) 
78.0638787120012

>  <Genealogy>  (22) 
CCN(C)c1cccc(N2c3ccccc3Nc3cc(-c4ccccc4)ccc32)c1 (3D coordinates assigned)
CCN(C)c1cccc(N2c3ccccc3Nc3cc(-c4ccccc4)ccc32)c1 (nonaromatic ring conformer: 78.0638787120012 kcal/mol)

>  <smiles>  (22) 
CCN(C)c1cccc(N2c3ccccc3Nc3cc(-c4ccccc4)ccc32)c1

>  <score_type>  (22) 
oracle

>  <origin>  (22) 
adg

>  <m_score__min__energy>  (22) 
-9.4900000000000002

>  <m_primary>  (22) 
energy

$$$$
22:0
     RDKit          3D

 52 55  0  0  0  0  0  0  0  0999 V2000
   -0.4680   20.5850  -34.6590 C   0  0  0  0  0  0  0  0  0  0  0  0
   -1.0090   21.6110  -33.8330 O   0  0  0  0  0  0  0  0  0  0  0  0
   -1.8590   21.3830  -32.7410 C   0  0  0  0  0  0  0  0  0  0  0  0
   -1.4390   20.6900  -31.5890 C   0  0  0  0  0  0  0  0  0  0  0  0
   -2.3260   20.4890  -30.5280 C   0  0  0  0  0  0  0  0  0  0  0  0
   -3.6330   20.9740  -30.6040 C   0  0  0  0  0  0  0  0  0  0  0  0
   -4.0630   21.6680  -31.7430 C   0  0  0  0  0  0  0  0  0  0  0  0
   -5.4090   22.1680  -31.8220 N   0  0  0  0  0  0  0  0  0  0  0  0
   -5.8530   23.3830  -31.4410 C   0  0  0  0  0  0  0  0  0  0  0  0
   -4.8160   24.7220  -30.8420 S   0  0  0  0  0  0  0  0  0  0  0  0
   -5.3790   24.6030  -29.1040 C   0  0  0  0  0  0  0  0  0  0  0  0
   -4.3490   23.9120  -28.2010 C   0  0  0  0  0  0  0  0  0  0  0  0
   -2.9880   24.4360  -28.4370 N   0  0  0  0  0  0  0  0  0  0  0  0
   -2.4220   24.9880  -27.1880 C   0  0  0  0  0  0  0  0  0  0  0  0
   -0.9220   25.3050  -27.3500 C   0  0  0  0  0  0  0  0  0  0  0  0
   -0.5500   25.3000  -28.7130 O   0  0  0  0  0  0  0  0  0  0  0  0
   -0.6900   23.9920  -29.2410 C   0  0  0  0  0  0  0  0  0  0  0  0
   -2.0900   23.3980  -28.9770 C   0  0  0  0  0  0  0  0  0  0  0  0
   -7.1940   23.4610  -31.4970 N   0  0  0  0  0  0  0  0  0  0  0  0
   -7.6320   22.2810  -31.9120 N   0  0  0  0  0  0  0  0  0  0  0  0
   -6.5510   21.5000  -32.1060 C   0  0  0  0  0  0  0  0  0  0  0  0
   -6.6430   20.1050  -32.5890 C   0  0  0  0  0  0  0  0  0  0  0  0
   -7.4890   19.1950  -31.9310 C   0  0  0  0  0  0  0  0  0  0  0  0
   -7.5910   17.8740  -32.3800 C   0  0  0  0  0  0  0  0  0  0  0  0
   -6.8630   17.4550  -33.4970 C   0  0  0  0  0  0  0  0  0  0  0  0
   -6.0360   18.3570  -34.1700 C   0  0  0  0  0  0  0  0  0  0  0  0
   -5.9310   19.6780  -33.7240 C   0  0  0  0  0  0  0  0  0  0  0  0
   -3.1710   21.8650  -32.8090 C   0  0  0  0  0  0  0  0  0  0  0  0
   -0.0481   19.7887  -34.0269 H   0  0  0  0  0  0  0  0  0  0  0  0
   -1.2635   20.1680  -35.2941 H   0  0  0  0  0  0  0  0  0  0  0  0
    0.3255   21.0058  -35.2941 H   0  0  0  0  0  0  0  0  0  0  0  0
   -0.4102   20.3060  -31.5243 H   0  0  0  0  0  0  0  0  0  0  0  0
   -1.9935   19.9471  -29.6304 H   0  0  0  0  0  0  0  0  0  0  0  0
   -4.3277   20.8108  -29.7669 H   0  0  0  0  0  0  0  0  0  0  0  0
   -5.5597   25.6182  -28.7210 H   0  0  0  0  0  0  0  0  0  0  0  0
   -6.2970   23.9972  -29.0898 H   0  0  0  0  0  0  0  0  0  0  0  0
   -4.6218   24.0849  -27.1495 H   0  0  0  0  0  0  0  0  0  0  0  0
   -4.3511   22.8367  -28.4330 H   0  0  0  0  0  0  0  0  0  0  0  0
   -2.9585   25.9126  -26.9285 H   0  0  0  0  0  0  0  0  0  0  0  0
   -2.5362   24.2378  -26.3916 H   0  0  0  0  0  0  0  0  0  0  0  0
   -0.7157   26.2980  -26.9240 H   0  0  0  0  0  0  0  0  0  0  0  0
   -0.3409   24.5331  -26.8242 H   0  0  0  0  0  0  0  0  0  0  0  0
   -0.5212   24.0296  -30.3273 H   0  0  0  0  0  0  0  0  0  0  0  0
    0.0478   23.3475  -28.7407 H   0  0  0  0  0  0  0  0  0  0  0  0
   -2.5052   23.0125  -29.9198 H   0  0  0  0  0  0  0  0  0  0  0  0
   -2.0023   22.5818  -28.2448 H   0  0  0  0  0  0  0  0  0  0  0  0
   -8.0735   19.5233  -31.0589 H   0  0  0  0  0  0  0  0  0  0  0  0
   -8.2453   17.1639  -31.8530 H   0  0  0  0  0  0  0  0  0  0  0  0
   -6.9414   16.4148  -33.8461 H   0  0  0  0  0  0  0  0  0  0  0  0
   -5.4667   18.0279  -35.0518 H   0  0  0  0  0  0  0  0  0  0  0  0
   -5.2874   20.3877  -34.2644 H   0  0  0  0  0  0  0  0  0  0  0  0
   -3.5069   22.4039  -33.7072 H   0  0  0  0  0  0  0  0  0  0  0  0
  1  2  1  0
  2  3  1  0
  3  4  2  0
  4  5  1  0
  5  6  2  0
  6  7  1  0
  7  8  1  0
  8  9  1  0
  9 10  1  0
 10 11  1  0
 11 12  1  0
 12 13  1  0
 13 14  1  0
 14 15  1  0
 15 16  1  0
 16 17  1  0
 17 18  1  0
  9 19  2  0
 19 20  1  0
 20 21  2  0
 21 22  1  0
 22 23  2  0
 23 24  1  0
 24 25  2  0
 25 26  1  0
 26 27  2  0
  7 28  2  0
 28  3  1  0
 21  8  1  0
 27 22  1  0
 18 13  1  0
  1 29  1  0
  1 30  1  0
  1 31  1  0
  4 32  1  0
  5 33  1  0
  6 34  1  0
 11 35  1  0
 11 36  1  0
 12 37  1  0
 12 38  1  0
 14 39  1  0
 14 40  1  0
 15 41  1  0
 15 42  1  0
 17 43  1  0
 17 44  1  0
 18 45  1  0
 18 46  1  0
 23 47  1  0
 24 48  1  0
 25 49  1  0
 26 50  1  0
 27 51  1  0
 28 52  1  0
M  END
>  <UniqueID>  (23) 
23

>  <SMILES>  (23) 
COc1cccc(-n2c(SCCN3CCOCC3)nnc2-c2ccccc2)c1

>  <Energy>  (23) 
102.54239367748727

>  <Genealogy>  (23) 
COc1cccc(-n2c(SCCN3CCOCC3)nnc2-c2ccccc2)c1 (3D coordinates assigned)
COc1cccc(-n2c(SCCN3CCOCC3)nnc2-c2ccccc2)c1 (nonaromatic ring conformer: 102.54239367748727 kcal/mol)

>  <smiles>  (23) 
COc1cccc(-n2c(SCCN3CCOCC3)nnc2-c2ccccc2)c1

>  <score_type>  (23) 
oracle

>  <origin>  (23) 
adg

>  <m_score__min__energy>  (23) 
-9.3499999999999996

>  <m_primary>  (23) 
energy

$$$$
23:0
     RDKit          3D

 43 46  0  0  0  0  0  0  0  0999 V2000
   -5.8800   14.8820  -34.1020 C   0  0  0  0  0  0  0  0  0  0  0  0
   -6.8240   15.9320  -34.2810 O   0  0  0  0  0  0  0  0  0  0  0  0
   -6.7210   17.2010  -33.6910 C   0  0  0  0  0  0  0  0  0  0  0  0
   -7.2240   17.4790  -32.4060 C   0  0  0  0  0  0  0  0  0  0  0  0
   -7.0920   18.7590  -31.8600 C   0  0  0  0  0  0  0  0  0  0  0  0
   -6.4500   19.7770  -32.5800 C   0  0  0  0  0  0  0  0  0  0  0  0
   -6.2980   21.1210  -31.9810 C   0  0  0  0  0  0  0  0  0  0  0  0
   -7.5940   22.0520  -31.4150 S   0  0  0  0  0  0  0  0  0  0  0  0
   -6.6590   23.3590  -30.9410 C   0  0  0  0  0  0  0  0  0  0  0  0
   -7.0860   24.5440  -30.3480 C   0  0  0  0  0  0  0  0  0  0  0  0
   -6.1200   25.4990  -30.0020 C   0  0  0  0  0  0  0  0  0  0  0  0
   -4.7560   25.2490  -30.2450 C   0  0  0  0  0  0  0  0  0  0  0  0
   -4.3480   24.0440  -30.8420 C   0  0  0  0  0  0  0  0  0  0  0  0
   -5.3190   23.0990  -31.2020 C   0  0  0  0  0  0  0  0  0  0  0  0
   -5.1000   21.8370  -31.7900 C   0  0  0  0  0  0  0  0  0  0  0  0
   -3.7550   21.3030  -32.1080 C   0  0  0  0  0  0  0  0  0  0  0  0
   -3.3000   21.3220  -33.4350 C   0  0  0  0  0  0  0  0  0  0  0  0
   -2.0510   20.7920  -33.7620 C   0  0  0  0  0  0  0  0  0  0  0  0
   -1.2470   20.2340  -32.7680 C   0  0  0  0  0  0  0  0  0  0  0  0
   -1.6870   20.2080  -31.4430 C   0  0  0  0  0  0  0  0  0  0  0  0
   -2.9440   20.7440  -31.0970 C   0  0  0  0  0  0  0  0  0  0  0  0
   -3.4110   20.7420  -29.7730 O   0  0  0  0  0  0  0  0  0  0  0  0
   -2.9530   21.6230  -28.7530 C   0  0  0  0  0  0  0  0  0  0  0  0
   -5.9660   19.5020  -33.8700 C   0  0  0  0  0  0  0  0  0  0  0  0
   -6.0980   18.2220  -34.4150 C   0  0  0  0  0  0  0  0  0  0  0  0
   -5.7240   14.7085  -33.0270 H   0  0  0  0  0  0  0  0  0  0  0  0
   -6.2611   13.9625  -34.5703 H   0  0  0  0  0  0  0  0  0  0  0  0
   -4.9253   15.1635  -34.5703 H   0  0  0  0  0  0  0  0  0  0  0  0
   -7.7228   16.6861  -31.8294 H   0  0  0  0  0  0  0  0  0  0  0  0
   -7.4947   18.9694  -30.8582 H   0  0  0  0  0  0  0  0  0  0  0  0
   -8.1537   24.7261  -30.1560 H   0  0  0  0  0  0  0  0  0  0  0  0
   -6.4289   26.4476  -29.5387 H   0  0  0  0  0  0  0  0  0  0  0  0
   -4.0044   26.0021  -29.9656 H   0  0  0  0  0  0  0  0  0  0  0  0
   -3.2816   23.8450  -31.0243 H   0  0  0  0  0  0  0  0  0  0  0  0
   -3.9319   21.7576  -34.2230 H   0  0  0  0  0  0  0  0  0  0  0  0
   -1.7003   20.8143  -34.8044 H   0  0  0  0  0  0  0  0  0  0  0  0
   -0.2644   19.8136  -33.0284 H   0  0  0  0  0  0  0  0  0  0  0  0
   -1.0484   19.7662  -30.6639 H   0  0  0  0  0  0  0  0  0  0  0  0
   -3.1778   21.1906  -27.7669 H   0  0  0  0  0  0  0  0  0  0  0  0
   -1.8667   21.7653  -28.8520 H   0  0  0  0  0  0  0  0  0  0  0  0
   -3.4605   22.5939  -28.8520 H   0  0  0  0  0  0  0  0  0  0  0  0
   -5.4808   20.2981  -34.4538 H   0  0  0  0  0  0  0  0  0  0  0  0
   -5.7082   18.0159  -35.4228 H   0  0  0  0  0  0  0  0  0  0  0  0
  1  2  1  0
  2  3  1  0
  3  4  2  0
  4  5  1  0
  5  6  2  0
  6  7  1  0
  7  8  1  0
  8  9  1  0
  9 10  2  0
 10 11  1  0
 11 12  2  0
 12 13  1  0
 13 14  2  0
 14 15  1  0
 15 16  1  0
 16 17  2  0
 17 18  1  0
 18 19  2  0
 19 20  1  0
 20 21  2  0
 21 22  1  0
 22 23  1  0
  6 24  1  0
 24 25  2  0
 25  3  1  0
 15  7  2  0
 21 16  1  0
 14  9  1  0
  1 26  1  0
  1 27  1  0
  1 28  1  0
  4 29  1  0
  5 30  1  0
 10 31  1  0
 11 32  1  0
 12 33  1  0
 13 34  1  0
 17 35  1  0
 18 36  1  0
 19 37  1  0
 20 38  1  0
 23 39  1  0
 23 40  1  0
 23 41  1  0
 24 42  1  0
 25 43  1  0
M  END
>  <UniqueID>  (24) 
24

>  <SMILES>  (24) 
COc1ccc(-c2sc3ccccc3c2-c2ccccc2OC)cc1

>  <Energy>  (24) 
86.99020590027901

>  <Genealogy>  (24) 
COc1ccc(-c2sc3ccccc3c2-c2ccccc2OC)cc1 (3D coordinates assigned)
COc1ccc(-c2sc3ccccc3c2-c2ccccc2OC)cc1 (optimized conformer: 86.99020590027901 kcal/mol)

>  <smiles>  (24) 
COc1ccc(-c2sc3ccccc3c2-c2ccccc2OC)cc1

>  <score_type>  (24) 
oracle

>  <origin>  (24) 
adg

>  <m_score__min__energy>  (24) 
-8.0199999999999996

>  <m_primary>  (24) 
energy

$$$$
24:0
     RDKit          3D

 47 50  0  0  0  0  0  0  0  0999 V2000
   -7.8830   23.4230  -31.9250 C   0  0  0  0  0  0  0  0  0  0  0  0
   -6.6290   23.7950  -31.1880 C   0  0  0  0  0  0  0  0  0  0  0  0
   -6.5830   24.9720  -30.4270 C   0  0  0  0  0  0  0  0  0  0  0  0
   -5.4060   25.3440  -29.7720 C   0  0  0  0  0  0  0  0  0  0  0  0
   -4.2610   24.5490  -29.8790 C   0  0  0  0  0  0  0  0  0  0  0  0
   -3.1190   24.9210  -29.2410 N   0  0  0  0  0  0  0  0  0  0  0  0
   -1.9810   24.1840  -29.3220 C   0  0  0  0  0  0  0  0  0  0  0  0
   -1.9580   23.0100  -30.0750 C   0  0  0  0  0  0  0  0  0  0  0  0
   -3.1120   22.5910  -30.7460 C   0  0  0  0  0  0  0  0  0  0  0  0
   -3.0700   21.3770  -31.5080 N   0  0  0  0  0  0  0  0  0  0  0  0
   -2.1020   21.2280  -32.5960 C   0  0  0  0  0  0  0  0  0  0  0  0
   -2.7520   20.5750  -33.8350 C   0  0  0  0  0  0  0  0  0  0  0  0
   -3.9190   19.7050  -33.5330 N   0  0  0  0  0  0  0  0  0  0  0  0
   -5.2020   20.3750  -33.8460 C   0  0  0  0  0  0  0  0  0  0  0  0
   -6.3630   19.6830  -33.1790 C   0  0  0  0  0  0  0  0  0  0  0  0
   -7.2770   20.4240  -32.4130 C   0  0  0  0  0  0  0  0  0  0  0  0
   -8.3640   19.7890  -31.8060 C   0  0  0  0  0  0  0  0  0  0  0  0
   -8.5490   18.4130  -31.9610 C   0  0  0  0  0  0  0  0  0  0  0  0
   -9.6040   17.7980  -31.3730 F   0  0  0  0  0  0  0  0  0  0  0  0
   -7.6440   17.6680  -32.7250 C   0  0  0  0  0  0  0  0  0  0  0  0
   -6.5540   18.3000  -33.3330 C   0  0  0  0  0  0  0  0  0  0  0  0
   -3.8670   19.1410  -32.1640 C   0  0  0  0  0  0  0  0  0  0  0  0
   -3.8940   20.2420  -31.0960 C   0  0  0  0  0  0  0  0  0  0  0  0
   -4.2880   23.3660  -30.6550 C   0  0  0  0  0  0  0  0  0  0  0  0
   -5.4770   23.0030  -31.3140 C   0  0  0  0  0  0  0  0  0  0  0  0
   -8.6773   23.1874  -31.2015 H   0  0  0  0  0  0  0  0  0  0  0  0
   -8.2007   24.2656  -32.5568 H   0  0  0  0  0  0  0  0  0  0  0  0
   -7.6898   22.5435  -32.5568 H   0  0  0  0  0  0  0  0  0  0  0  0
   -7.4783   25.6059  -30.3452 H   0  0  0  0  0  0  0  0  0  0  0  0
   -5.3803   26.2647  -29.1707 H   0  0  0  0  0  0  0  0  0  0  0  0
   -1.0751   24.5138  -28.7924 H   0  0  0  0  0  0  0  0  0  0  0  0
   -1.0350   22.4152  -30.1411 H   0  0  0  0  0  0  0  0  0  0  0  0
   -1.7181   22.2208  -32.8733 H   0  0  0  0  0  0  0  0  0  0  0  0
   -1.2842   20.5795  -32.2487 H   0  0  0  0  0  0  0  0  0  0  0  0
   -3.0867   21.3765  -34.5099 H   0  0  0  0  0  0  0  0  0  0  0  0
   -1.9860   19.9258  -34.2843 H   0  0  0  0  0  0  0  0  0  0  0  0
   -5.1566   21.4164  -33.4945 H   0  0  0  0  0  0  0  0  0  0  0  0
   -5.3556   20.3357  -34.9345 H   0  0  0  0  0  0  0  0  0  0  0  0
   -7.1371   21.5081  -32.2902 H   0  0  0  0  0  0  0  0  0  0  0  0
   -9.0755   20.3740  -31.2048 H   0  0  0  0  0  0  0  0  0  0  0  0
   -7.7897   16.5846  -32.8477 H   0  0  0  0  0  0  0  0  0  0  0  0
   -5.8443   17.7120  -33.9335 H   0  0  0  0  0  0  0  0  0  0  0  0
   -4.7343   18.4805  -32.0173 H   0  0  0  0  0  0  0  0  0  0  0  0
   -2.9248   18.5833  -32.0582 H   0  0  0  0  0  0  0  0  0  0  0  0
   -4.9305   20.5809  -30.9519 H   0  0  0  0  0  0  0  0  0  0  0  0
   -3.4933   19.8349  -30.1559 H   0  0  0  0  0  0  0  0  0  0  0  0
   -5.5039   22.0931  -31.9316 H   0  0  0  0  0  0  0  0  0  0  0  0
  1  2  1  0
  2  3  2  0
  3  4  1  0
  4  5  2  0
  5  6  1  0
  6  7  2  0
  7  8  1  0
  8  9  2  0
  9 10  1  0
 10 11  1  0
 11 12  1  0
 12 13  1  0
 13 14  1  0
 14 15  1  0
 15 16  2  0
 16 17  1  0
 17 18  2  0
 18 19  1  0
 18 20  1  0
 20 21  2  0
 13 22  1  0
 22 23  1  0
  9 24  1  0
 24 25  2  0
 25  2  1  0
 24  5  1  0
 23 10  1  0
 21 15  1  0
  1 26  1  0
  1 27  1  0
  1 28  1  0
  3 29  1  0
  4 30  1  0
  7 31  1  0
  8 32  1  0
 11 33  1  0
 11 34  1  0
 12 35  1  0
 12 36  1  0
 14 37  1  0
 14 38  1  0
 16 39  1  0
 17 40  1  0
 20 41  1  0
 21 42  1  0
 22 43  1  0
 22 44  1  0
 23 45  1  0
 23 46  1  0
 25 47  1  0
M  END
>  <UniqueID>  (25) 
25

>  <SMILES>  (25) 
Cc1ccc2nccc(N3CCN(Cc4ccc(F)cc4)CC3)c2c1

>  <Energy>  (25) 
67.52240534714664

>  <Genealogy>  (25) 
Cc1ccc2nccc(N3CCN(Cc4ccc(F)cc4)CC3)c2c1 (3D coordinates assigned)
Cc1ccc2nccc(N3CCN(Cc4ccc(F)cc4)CC3)c2c1 (nonaromatic ring conformer: 67.52240534714664 kcal/mol)

>  <smiles>  (25) 
Cc1ccc2nccc(N3CCN(Cc4ccc(F)cc4)CC3)c2c1

>  <score_type>  (25) 
oracle

>  <origin>  (25) 
adg

>  <m_score__min__energy>  (25) 
-8.9499999999999993

>  <m_primary>  (25) 
energy

$$$$
25:0
     RDKit          3D

 41 43  0  0  1  0  0  0  0  0999 V2000
   -6.1180   25.8160  -29.3720 C   0  0  0  0  0  0  0  0  0  0  0  0
   -5.8270   24.6830  -30.3020 C   0  0  0  0  0  0  0  0  0  0  0  0
   -4.5830   24.1630  -30.3240 N   0  0  0  0  0  0  0  0  0  0  0  0
   -4.3080   23.1290  -31.1700 C   0  0  0  0  0  0  0  0  0  0  0  0
   -5.2840   22.6150  -31.9960 C   0  0  0  0  0  0  0  0  0  0  0  0
   -4.7680   21.6150  -32.7230 N   0  0  0  0  0  0  0  0  0  0  0  0
   -3.4560   21.4750  -32.3740 C   0  0  0  0  0  0  0  0  0  0  0  0
   -3.2020   22.4030  -31.4330 N   0  0  0  0  0  0  0  0  0  0  0  0
   -1.9400   22.6650  -30.7340 C   0  0  0  0  0  0  0  0  0  0  0  0
   -2.1610   22.9010  -29.2690 C   0  0  0  0  0  0  0  0  0  0  0  0
   -1.6110   24.2660  -28.8430 C   0  0  0  0  0  0  0  0  0  0  0  0
   -2.4010   25.2930  -29.3240 O   0  0  0  0  0  0  0  0  0  0  0  0
   -6.5460   23.1710  -31.9460 C   0  0  0  0  0  0  0  0  0  0  0  0
   -7.5270   22.7580  -32.6810 N   0  0  0  0  0  0  0  0  0  0  0  0
   -8.6060   21.9520  -32.1280 C   0  0  0  0  0  0  0  0  0  0  0  0
   -8.2010   20.5280  -32.2690 C   0  0  0  0  0  0  0  0  0  0  0  0
   -8.8170   19.5540  -31.5030 C   0  0  0  0  0  0  0  0  0  0  0  0
   -8.4900   18.2160  -31.5850 C   0  0  0  0  0  0  0  0  0  0  0  0
   -7.5030   17.8200  -32.4680 C   0  0  0  0  0  0  0  0  0  0  0  0
   -6.8760   18.7760  -33.2420 C   0  0  0  0  0  0  0  0  0  0  0  0
   -5.5060   18.1900  -34.4630 Br  0  0  0  0  0  0  0  0  0  0  0  0
   -7.2190   20.1100  -33.1440 C   0  0  0  0  0  0  0  0  0  0  0  0
   -6.7820   24.1900  -31.1000 N   0  0  0  0  0  0  0  0  0  0  0  0
   -6.0288   25.4689  -28.3320 H   0  0  0  0  0  0  0  0  0  0  0  0
   -5.3998   26.6300  -29.5497 H   0  0  0  0  0  0  0  0  0  0  0  0
   -7.1396   26.1831  -29.5497 H   0  0  0  0  0  0  0  0  0  0  0  0
   -2.7431   20.7440  -32.7833 H   0  0  0  0  0  0  0  0  0  0  0  0
   -1.2751   21.7978  -30.8599 H   0  0  0  0  0  0  0  0  0  0  0  0
   -1.4886   23.5708  -31.1650 H   0  0  0  0  0  0  0  0  0  0  0  0
   -3.2400   22.8663  -29.0579 H   0  0  0  0  0  0  0  0  0  0  0  0
   -1.6322   22.1188  -28.7046 H   0  0  0  0  0  0  0  0  0  0  0  0
   -1.5860   24.3163  -27.7444 H   0  0  0  0  0  0  0  0  0  0  0  0
   -0.5988   24.3799  -29.2584 H   0  0  0  0  0  0  0  0  0  0  0  0
   -3.3160   25.2890  -28.9740 H   0  0  0  0  0  0  0  0  0  0  0  0
   -8.7561   22.1988  -31.0666 H   0  0  0  0  0  0  0  0  0  0  0  0
   -9.5512   22.1456  -32.6564 H   0  0  0  0  0  0  0  0  0  0  0  0
   -9.6028   19.8602  -30.7968 H   0  0  0  0  0  0  0  0  0  0  0  0
   -9.0071   17.4755  -30.9570 H   0  0  0  0  0  0  0  0  0  0  0  0
   -7.2216   16.7600  -32.5527 H   0  0  0  0  0  0  0  0  0  0  0  0
   -6.7021   20.8502  -33.7724 H   0  0  0  0  0  0  0  0  0  0  0  0
   -7.7330   24.6090  -31.0640 H   0  0  0  0  0  0  0  0  0  0  0  0
  1  2  1  0
  2  3  2  0
  3  4  1  0
  4  5  2  0
  5  6  1  0
  6  7  2  0
  7  8  1  0
  8  9  1  0
  9 10  1  0
 10 11  1  0
 11 12  1  0
  5 13  1  0
 13 14  2  0
 14 15  1  0
 15 16  1  0
 16 17  2  0
 17 18  1  0
 18 19  2  0
 19 20  1  0
 20 21  1  0
 20 22  2  0
 13 23  1  0
 23  2  1  0
  8  4  1  0
 22 16  1  0
  1 24  1  0
  1 25  1  0
  1 26  1  0
  7 27  1  0
  9 28  1  0
  9 29  1  0
 10 30  1  0
 10 31  1  0
 11 32  1  0
 11 33  1  0
 12 34  1  0
 15 35  1  0
 15 36  1  0
 17 37  1  0
 18 38  1  0
 19 39  1  0
 22 40  1  0
 23 41  1  0
M  END
>  <smiles>  (26) 
Cc1nc2c(ncn2CCCO)c(=NCc2cccc(Br)c2)[nH]1

>  <score_type>  (26) 
oracle

>  <origin>  (26) 
adg

>  <m_score__min__energy>  (26) 
-8.8100000000000005

>  <m_primary>  (26) 
energy

$$$$
26:0
     RDKit          3D

 56 59  0  0  0  0  0  0  0  0999 V2000
    0.1290   25.2390  -26.1260 C   0  0  0  0  0  0  0  0  0  0  0  0
   -1.1750   24.9920  -26.8230 C   0  0  0  0  0  0  0  0  0  0  0  0
   -2.3840   25.1380  -26.1260 C   0  0  0  0  0  0  0  0  0  0  0  0
   -3.6010   24.8750  -26.7610 C   0  0  0  0  0  0  0  0  0  0  0  0
   -3.6300   24.4670  -28.1040 C   0  0  0  0  0  0  0  0  0  0  0  0
   -4.8930   24.1840  -28.7270 N   0  0  0  0  0  0  0  0  0  0  0  0
   -5.1630   24.3880  -30.1230 C   0  0  0  0  0  0  0  0  0  0  0  0
   -4.3720   25.0700  -30.8310 O   0  0  0  0  0  0  0  0  0  0  0  0
   -6.4580   23.8920  -30.7150 C   0  0  2  0  0  0  0  0  0  0  0  0
   -7.0550   22.7430  -29.8900 C   0  0  0  0  0  0  0  0  0  0  0  0
   -8.4060   22.2840  -30.4650 C   0  0  0  0  0  0  0  0  0  0  0  0
   -8.5350   22.5580  -31.9790 C   0  0  0  0  0  0  0  0  0  0  0  0
   -7.2380   22.4670  -32.6780 N   0  0  0  0  0  0  0  0  0  0  0  0
   -6.7010   21.0860  -32.7220 C   0  0  0  0  0  0  0  0  0  0  0  0
   -5.4460   20.9620  -31.8470 C   0  0  0  0  0  0  0  0  0  0  0  0
   -4.3290   20.3380  -32.5810 N   0  0  0  0  0  0  0  0  0  0  0  0
   -3.1040   21.0880  -32.7400 C   0  0  0  0  0  0  0  0  0  0  0  0
   -3.0320   22.2920  -32.3740 O   0  0  0  0  0  0  0  0  0  0  0  0
   -1.8800   20.4140  -33.2800 C   0  0  0  0  0  0  0  0  0  0  0  0
   -2.2310   19.4000  -34.2160 O   0  0  0  0  0  0  0  0  0  0  0  0
   -3.3840   18.6230  -34.0810 C   0  0  0  0  0  0  0  0  0  0  0  0
   -3.4860   17.4290  -34.8020 C   0  0  0  0  0  0  0  0  0  0  0  0
   -4.6280   16.6350  -34.6880 C   0  0  0  0  0  0  0  0  0  0  0  0
   -5.6740   17.0360  -33.8590 C   0  0  0  0  0  0  0  0  0  0  0  0
   -5.5880   18.2340  -33.1440 C   0  0  0  0  0  0  0  0  0  0  0  0
   -4.4390   19.0510  -33.2460 C   0  0  0  0  0  0  0  0  0  0  0  0
   -6.2530   23.4700  -32.1930 C   0  0  0  0  0  0  0  0  0  0  0  0
   -2.4160   24.2860  -28.7900 C   0  0  0  0  0  0  0  0  0  0  0  0
   -1.1980   24.5460  -28.1540 C   0  0  0  0  0  0  0  0  0  0  0  0
   -0.0258   25.2097  -25.0373 H   0  0  0  0  0  0  0  0  0  0  0  0
    0.8520   24.4618  -26.4146 H   0  0  0  0  0  0  0  0  0  0  0  0
    0.5177   26.2267  -26.4146 H   0  0  0  0  0  0  0  0  0  0  0  0
   -2.3739   25.4611  -25.0746 H   0  0  0  0  0  0  0  0  0  0  0  0
   -4.5430   24.9885  -26.2044 H   0  0  0  0  0  0  0  0  0  0  0  0
   -5.6920   23.9080  -28.1130 H   0  0  0  0  0  0  0  0  0  0  0  0
   -7.1802   24.7213  -30.6872 H   0  0  0  0  0  0  0  0  0  0  0  0
   -6.3551   21.8944  -29.8988 H   0  0  0  0  0  0  0  0  0  0  0  0
   -7.2191   23.1020  -28.8633 H   0  0  0  0  0  0  0  0  0  0  0  0
   -8.5122   21.2027  -30.2931 H   0  0  0  0  0  0  0  0  0  0  0  0
   -9.1949   22.8571  -29.9559 H   0  0  0  0  0  0  0  0  0  0  0  0
   -9.2240   21.8194  -32.4146 H   0  0  0  0  0  0  0  0  0  0  0  0
   -8.9131   23.5834  -32.1041 H   0  0  0  0  0  0  0  0  0  0  0  0
   -7.4679   20.3888  -32.3537 H   0  0  0  0  0  0  0  0  0  0  0  0
   -6.4321   20.8448  -33.7610 H   0  0  0  0  0  0  0  0  0  0  0  0
   -5.1399   21.9661  -31.5183 H   0  0  0  0  0  0  0  0  0  0  0  0
   -5.6901   20.3228  -30.9857 H   0  0  0  0  0  0  0  0  0  0  0  0
   -1.2473   21.1623  -33.7797 H   0  0  0  0  0  0  0  0  0  0  0  0
   -1.3366   19.9488  -32.4443 H   0  0  0  0  0  0  0  0  0  0  0  0
   -2.6634   17.1147  -35.4611 H   0  0  0  0  0  0  0  0  0  0  0  0
   -4.7024   15.6935  -35.2520 H   0  0  0  0  0  0  0  0  0  0  0  0
   -6.5715   16.4068  -33.7669 H   0  0  0  0  0  0  0  0  0  0  0  0
   -6.4216   18.5436  -32.4964 H   0  0  0  0  0  0  0  0  0  0  0  0
   -5.2449   23.0415  -32.2937 H   0  0  0  0  0  0  0  0  0  0  0  0
   -6.3921   24.3739  -32.8042 H   0  0  0  0  0  0  0  0  0  0  0  0
   -2.4244   23.9377  -29.8334 H   0  0  0  0  0  0  0  0  0  0  0  0
   -0.2537   24.4004  -28.6990 H   0  0  0  0  0  0  0  0  0  0  0  0
  1  2  1  0
  2  3  2  0
  3  4  1  0
  4  5  2  0
  5  6  1  0
  6  7  1  0
  7  8  2  0
  7  9  1  0
  9 10  1  0
 10 11  1  0
 11 12  1  0
 12 13  1  0
 13 14  1  0
 14 15  1  0
 15 16  1  0
 16 17  1  0
 17 18  2  0
 17 19  1  0
 19 20  1  0
 20 21  1  0
 21 22  2  0
 22 23  1  0
 23 24  2  0
 24 25  1  0
 25 26  2  0
 13 27  1  0
  5 28  1  0
 28 29  2  0
 29  2  1  0
 27  9  1  0
 26 16  1  0
 26 21  1  0
  1 30  1  0
  1 31  1  0
  1 32  1  0
  3 33  1  0
  4 34  1  0
  6 35  1  0
  9 36  1  6
 10 37  1  0
 10 38  1  0
 11 39  1  0
 11 40  1  0
 12 41  1  0
 12 42  1  0
 14 43  1  0
 14 44  1  0
 15 45  1  0
 15 46  1  0
 19 47  1  0
 19 48  1  0
 22 49  1  0
 23 50  1  0
 24 51  1  0
 25 52  1  0
 27 53  1  0
 27 54  1  0
 28 55  1  0
 29 56  1  0
M  END
>  <UniqueID>  (27) 
26

>  <SMILES>  (27) 
Cc1ccc(NC(=O)[C@@H]2CCCN(CCN3C(=O)COc4ccccc43)C2)cc1

>  <Energy>  (27) 
72.892804446979

>  <Genealogy>  (27) 
Cc1ccc(NC(=O)[C@@H]2CCCN(CCN3C(=O)COc4ccccc43)C2)cc1 (chirality)
Cc1ccc(NC(=O)[C@@H]2CCCN(CCN3C(=O)COc4ccccc43)C2)cc1 (3D coordinates assigned)
Cc1ccc(NC(=O)[C@@H]2CCCN(CCN3C(=O)COc4ccccc43)C2)cc1 (nonaromatic ring conformer: 72.892804446979 kcal/mol)

>  <smiles>  (27) 
Cc1ccc(NC(=O)C2CCCN(CCN3C(=O)COc4ccccc43)C2)cc1

>  <score_type>  (27) 
oracle

>  <origin>  (27) 
adg

>  <m_score__min__energy>  (27) 
-10.02

>  <m_primary>  (27) 
energy

$$$$
27:0
     RDKit          3D

 43 45  0  0  0  0  0  0  0  0999 V2000
    2.0610   24.5620  -27.7440 C   0  0  0  0  0  0  0  0  0  0  0  0
    0.7120   24.9030  -28.0410 O   0  0  0  0  0  0  0  0  0  0  0  0
   -0.2510   25.2700  -27.0850 C   0  0  0  0  0  0  0  0  0  0  0  0
    0.0820   26.0430  -25.9540 C   0  0  0  0  0  0  0  0  0  0  0  0
   -0.9040   26.4070  -25.0350 C   0  0  0  0  0  0  0  0  0  0  0  0
   -2.2280   26.0120  -25.2310 C   0  0  0  0  0  0  0  0  0  0  0  0
   -2.5710   25.2430  -26.3460 C   0  0  0  0  0  0  0  0  0  0  0  0
   -1.5860   24.8550  -27.2700 C   0  0  0  0  0  0  0  0  0  0  0  0
   -1.9740   24.0510  -28.4800 C   0  0  0  0  0  0  0  0  0  0  0  0
   -2.5630   24.9350  -29.4770 N   0  0  0  0  0  0  0  0  0  0  0  0
   -3.8630   24.7770  -30.0580 C   0  0  0  0  0  0  0  0  0  0  0  0
   -4.2870   25.6650  -30.8440 O   0  0  0  0  0  0  0  0  0  0  0  0
   -4.7200   23.5630  -29.8040 C   0  0  0  0  0  0  0  0  0  0  0  0
   -6.0620   23.6540  -30.5430 C   0  0  0  0  0  0  0  0  0  0  0  0
   -5.9360   23.3350  -32.0370 C   0  0  0  0  0  0  0  0  0  0  0  0
   -6.0590   21.8940  -32.2550 N   0  0  0  0  0  0  0  0  0  0  0  0
   -5.0950   21.0340  -32.6870 C   0  0  0  0  0  0  0  0  0  0  0  0
   -3.2740   21.5300  -32.9960 Br  0  0  0  0  0  0  0  0  0  0  0  0
   -5.5520   19.7720  -32.9080 N   0  0  0  0  0  0  0  0  0  0  0  0
   -6.8550   19.8770  -32.5990 C   0  0  0  0  0  0  0  0  0  0  0  0
   -7.7820   18.8900  -32.6780 N   0  0  0  0  0  0  0  0  0  0  0  0
   -9.0810   19.1770  -32.3550 C   0  0  0  0  0  0  0  0  0  0  0  0
   -9.4500   20.4830  -31.9500 C   0  0  0  0  0  0  0  0  0  0  0  0
   -8.4770   21.4960  -31.8840 C   0  0  0  0  0  0  0  0  0  0  0  0
   -7.1710   21.1430  -32.2160 C   0  0  0  0  0  0  0  0  0  0  0  0
    2.1988   24.5272  -26.6532 H   0  0  0  0  0  0  0  0  0  0  0  0
    2.2935   23.5768  -28.1746 H   0  0  0  0  0  0  0  0  0  0  0  0
    2.7337   25.3183  -28.1746 H   0  0  0  0  0  0  0  0  0  0  0  0
    1.1230   26.3607  -25.7949 H   0  0  0  0  0  0  0  0  0  0  0  0
   -0.6362   27.0074  -24.1531 H   0  0  0  0  0  0  0  0  0  0  0  0
   -3.0022   26.3063  -24.5071 H   0  0  0  0  0  0  0  0  0  0  0  0
   -3.6170   24.9399  -26.5012 H   0  0  0  0  0  0  0  0  0  0  0  0
   -1.0808   23.5660  -28.9008 H   0  0  0  0  0  0  0  0  0  0  0  0
   -2.7053   23.2814  -28.1920 H   0  0  0  0  0  0  0  0  0  0  0  0
   -4.1822   22.6678  -30.1495 H   0  0  0  0  0  0  0  0  0  0  0  0
   -4.9248   23.5062  -28.7247 H   0  0  0  0  0  0  0  0  0  0  0  0
   -6.7636   22.9392  -30.0882 H   0  0  0  0  0  0  0  0  0  0  0  0
   -6.4219   24.6895  -30.4530 H   0  0  0  0  0  0  0  0  0  0  0  0
   -6.7325   23.8558  -32.5887 H   0  0  0  0  0  0  0  0  0  0  0  0
   -4.9516   23.6707  -32.3952 H   0  0  0  0  0  0  0  0  0  0  0  0
   -9.8443   18.3869  -32.4105 H   0  0  0  0  0  0  0  0  0  0  0  0
  -10.4951   20.7043  -31.6877 H   0  0  0  0  0  0  0  0  0  0  0  0
   -8.7357   22.5220  -31.5834 H   0  0  0  0  0  0  0  0  0  0  0  0
  1  2  1  0
  2  3  1  0
  3  4  2  0
  4  5  1  0
  5  6  2  0
  6  7  1  0
  7  8  2  0
  8  9  1  0
  9 10  1  0
 10 11  1  0
 11 12  2  0
 11 13  1  0
 13 14  1  0
 14 15  1  0
 15 16  1  0
 16 17  1  0
 17 18  1  0
 17 19  2  0
 19 20  1  0
 20 21  2  0
 21 22  1  0
 22 23  2  0
 23 24  1  0
 24 25  2  0
  8  3  1  0
 25 16  1  0
 25 20  1  0
  1 26  1  0
  1 27  1  0
  1 28  1  0
  4 29  1  0
  5 30  1  0
  6 31  1  0
  7 32  1  0
  9 33  1  0
  9 34  1  0
 13 35  1  0
 13 36  1  0
 14 37  1  0
 14 38  1  0
 15 39  1  0
 15 40  1  0
 22 41  1  0
 23 42  1  0
 24 43  1  0
M  CHG  1  10  -1
M  END
>  <UniqueID>  (28) 
27

>  <SMILES>  (28) 
COc1ccccc1C[N-]C(=O)CCCn1c(Br)nc2ncccc21

>  <Energy>  (28) 
76.03552254694735

>  <Genealogy>  (28) 
COc1ccccc1C[N-]C(=O)CCCn1c(Br)nc2ncccc21 (protonated)
COc1ccccc1C[N-]C(=O)CCCn1c(Br)nc2ncccc21 (3D coordinates assigned)
COc1ccccc1C[N-]C(=O)CCCn1c(Br)nc2ncccc21 (optimized conformer: 76.03552254694735 kcal/mol)

>  <smiles>  (28) 
COc1ccccc1CNC(=O)CCCn1c(Br)nc2ncccc21

>  <score_type>  (28) 
oracle

>  <origin>  (28) 
adg

>  <m_score__min__energy>  (28) 
-10.779999999999999

>  <m_primary>  (28) 
energy

$$$$
28:0
     RDKit          3D

 39 39  0  0  0  0  0  0  0  0999 V2000
   -3.4780   23.3810  -30.0230 C   0  0  0  0  0  0  0  0  0  0  0  0
   -4.2060   24.1960  -30.9320 O   0  0  0  0  0  0  0  0  0  0  0  0
   -5.3690   24.8790  -30.5660 C   0  0  0  0  0  0  0  0  0  0  0  0
   -5.3780   26.1380  -30.4920 O   0  0  0  0  0  0  0  0  0  0  0  0
   -6.6300   24.1130  -30.2900 C   0  0  0  0  0  0  0  0  0  0  0  0
   -7.0880   23.2630  -31.4920 C   0  0  0  0  0  0  0  0  0  0  0  0
   -5.9880   22.9110  -32.4100 N   0  0  0  0  0  0  0  0  0  0  0  0
   -5.9490   21.4960  -32.6990 C   0  0  0  0  0  0  0  0  0  0  0  0
   -7.1090   20.7180  -32.5960 C   0  0  0  0  0  0  0  0  0  0  0  0
   -7.0680   19.3350  -32.8370 C   0  0  0  0  0  0  0  0  0  0  0  0
   -8.2130   18.5290  -32.7220 O   0  0  0  0  0  0  0  0  0  0  0  0
   -9.1030   18.5440  -31.6100 C   0  0  0  0  0  0  0  0  0  0  0  0
   -5.8590   18.7180  -33.1990 C   0  0  0  0  0  0  0  0  0  0  0  0
   -5.9010   17.3270  -33.4180 O   0  0  0  0  0  0  0  0  0  0  0  0
   -5.6260   16.3090  -32.4610 C   0  0  0  0  0  0  0  0  0  0  0  0
   -4.6800   19.4980  -33.3190 C   0  0  0  0  0  0  0  0  0  0  0  0
   -3.4670   18.8890  -33.6780 O   0  0  0  0  0  0  0  0  0  0  0  0
   -3.3350   17.8070  -34.5950 C   0  0  0  0  0  0  0  0  0  0  0  0
   -4.7450   20.8830  -33.0720 C   0  0  0  0  0  0  0  0  0  0  0  0
   -3.7320   23.6654  -28.9912 H   0  0  0  0  0  0  0  0  0  0  0  0
   -3.7391   22.3251  -30.1872 H   0  0  0  0  0  0  0  0  0  0  0  0
   -2.3995   23.5218  -30.1872 H   0  0  0  0  0  0  0  0  0  0  0  0
   -6.4552   23.4452  -29.4336 H   0  0  0  0  0  0  0  0  0  0  0  0
   -7.4235   24.8456  -30.0810 H   0  0  0  0  0  0  0  0  0  0  0  0
   -7.5365   22.3334  -31.1117 H   0  0  0  0  0  0  0  0  0  0  0  0
   -7.8085   23.8671  -32.0629 H   0  0  0  0  0  0  0  0  0  0  0  0
   -6.0670   23.4740  -33.2900 H   0  0  0  0  0  0  0  0  0  0  0  0
   -5.0820   23.1790  -31.9600 H   0  0  0  0  0  0  0  0  0  0  0  0
   -8.0620   21.1951  -32.3235 H   0  0  0  0  0  0  0  0  0  0  0  0
   -8.5226   18.5342  -30.6757 H   0  0  0  0  0  0  0  0  0  0  0  0
   -9.7217   19.4527  -31.6478 H   0  0  0  0  0  0  0  0  0  0  0  0
   -9.7520   17.6567  -31.6478 H   0  0  0  0  0  0  0  0  0  0  0  0
   -5.7370   16.7197  -31.4466 H   0  0  0  0  0  0  0  0  0  0  0  0
   -6.3314   15.4762  -32.5986 H   0  0  0  0  0  0  0  0  0  0  0  0
   -4.5972   15.9447  -32.5986 H   0  0  0  0  0  0  0  0  0  0  0  0
   -3.2202   16.8658  -34.0374 H   0  0  0  0  0  0  0  0  0  0  0  0
   -4.2330   17.7511  -35.2279 H   0  0  0  0  0  0  0  0  0  0  0  0
   -2.4499   17.9686  -35.2279 H   0  0  0  0  0  0  0  0  0  0  0  0
   -3.8358   21.4938  -33.1735 H   0  0  0  0  0  0  0  0  0  0  0  0
  1  2  1  0
  2  3  1  0
  3  4  2  0
  3  5  1  0
  5  6  1  0
  6  7  1  0
  7  8  1  0
  8  9  2  0
  9 10  1  0
 10 11  1  0
 11 12  1  0
 10 13  2  0
 13 14  1  0
 14 15  1  0
 13 16  1  0
 16 17  1  0
 17 18  1  0
 16 19  2  0
 19  8  1  0
  1 20  1  0
  1 21  1  0
  1 22  1  0
  5 23  1  0
  5 24  1  0
  6 25  1  0
  6 26  1  0
  7 27  1  0
  7 28  1  0
  9 29  1  0
 12 30  1  0
 12 31  1  0
 12 32  1  0
 15 33  1  0
 15 34  1  0
 15 35  1  0
 18 36  1  0
 18 37  1  0
 18 38  1  0
 19 39  1  0
M  CHG  1   7   1
M  END
>  <UniqueID>  (29) 
28

>  <SMILES>  (29) 
COC(=O)CC[NH2+]c1cc(OC)c(OC)c(OC)c1

>  <Energy>  (29) 
33.62835639071425

>  <Genealogy>  (29) 
COC(=O)CC[NH2+]c1cc(OC)c(OC)c(OC)c1 (protonated)
COC(=O)CC[NH2+]c1cc(OC)c(OC)c(OC)c1 (3D coordinates assigned)
COC(=O)CC[NH2+]c1cc(OC)c(OC)c(OC)c1 (optimized conformer: 33.62835639071425 kcal/mol)

>  <smiles>  (29) 
COC(=O)CCNc1cc(OC)c(OC)c(OC)c1

>  <score_type>  (29) 
oracle

>  <origin>  (29) 
adg

>  <m_score__min__energy>  (29) 
-4.5

>  <m_primary>  (29) 
energy

$$$$
29:0
     RDKit          3D

 63 67  0  0  1  0  0  0  0  0999 V2000
   -9.0570   18.5430  -31.9270 C   0  0  0  0  0  0  0  0  0  0  0  0
   -9.4760   19.7950  -32.6760 C   0  0  0  0  0  0  0  0  0  0  0  0
   -8.7300   20.9470  -32.1910 N   0  0  0  0  0  0  0  0  0  0  0  0
   -7.4890   20.9840  -31.6620 C   0  0  0  0  0  0  0  0  0  0  0  0
   -7.2430   22.3140  -31.3650 C   0  0  0  0  0  0  0  0  0  0  0  0
   -6.0500   22.8930  -30.7740 C   0  0  0  0  0  0  0  0  0  0  0  0
   -6.2400   23.9640  -29.9060 C   0  0  0  0  0  0  0  0  0  0  0  0
   -5.1380   24.5790  -29.2980 C   0  0  0  0  0  0  0  0  0  0  0  0
   -3.8590   24.1080  -29.5710 C   0  0  0  0  0  0  0  0  0  0  0  0
   -2.8060   24.6970  -29.0010 N   0  0  0  0  0  0  0  0  0  0  0  0
   -1.5500   24.2410  -29.2770 C   0  0  0  0  0  0  0  0  0  0  0  0
   -0.5300   24.7810  -28.7510 N   0  0  0  0  0  0  0  0  0  0  0  0
    0.3360   24.1300  -27.7800 C   0  0  0  0  0  0  0  0  0  0  0  0
   -0.5030   23.5280  -26.6940 C   0  0  0  0  0  0  0  0  0  0  0  0
   -0.1920   22.1450  -26.5390 N   0  0  0  0  0  0  0  0  0  0  0  0
   -1.2240   21.2980  -26.0530 C   0  0  0  0  0  0  0  0  0  0  0  0
   -2.1740   20.8350  -27.1410 C   0  0  0  0  0  0  0  0  0  0  0  0
   -1.5110   20.4130  -28.2710 O   0  0  0  0  0  0  0  0  0  0  0  0
   -0.1370   20.2890  -28.0750 C   0  0  0  0  0  0  0  0  0  0  0  0
    0.5020   21.5970  -27.6870 C   0  0  0  0  0  0  0  0  0  0  0  0
   -1.3650   23.1890  -30.1280 N   0  0  0  0  0  0  0  0  0  0  0  0
   -2.4360   22.5750  -30.7180 C   0  0  0  0  0  0  0  0  0  0  0  0
   -2.1340   21.4730  -31.5490 N   0  0  0  0  0  0  0  0  0  0  0  0
   -1.4550   20.2740  -31.1170 C   0  0  0  0  0  0  0  0  0  0  0  0
   -1.1220   19.4870  -32.3760 C   0  0  0  0  0  0  0  0  0  0  0  0
   -2.3230   19.1220  -32.9370 O   0  0  0  0  0  0  0  0  0  0  0  0
   -3.0180   20.2020  -33.4450 C   0  0  0  0  0  0  0  0  0  0  0  0
   -2.5330   21.5390  -32.9440 C   0  0  0  0  0  0  0  0  0  0  0  0
   -3.7000   23.0350  -30.4420 C   0  0  0  0  0  0  0  0  0  0  0  0
   -4.7930   22.4450  -31.0310 C   0  0  0  0  0  0  0  0  0  0  0  0
   -8.3450   23.0530  -31.7220 C   0  0  0  0  0  0  0  0  0  0  0  0
   -9.2290   22.1720  -32.2230 N   0  0  0  0  0  0  0  0  0  0  0  0
   -9.1182   18.7259  -30.8440 H   0  0  0  0  0  0  0  0  0  0  0  0
   -9.7263   17.7129  -32.1971 H   0  0  0  0  0  0  0  0  0  0  0  0
   -8.0229   18.2830  -32.1971 H   0  0  0  0  0  0  0  0  0  0  0  0
   -9.2770   19.6595  -33.7493 H   0  0  0  0  0  0  0  0  0  0  0  0
  -10.5496   19.9684  -32.5108 H   0  0  0  0  0  0  0  0  0  0  0  0
   -6.8118   20.1324  -31.5000 H   0  0  0  0  0  0  0  0  0  0  0  0
   -7.2568   24.3281  -29.6971 H   0  0  0  0  0  0  0  0  0  0  0  0
   -5.2833   25.4261  -28.6115 H   0  0  0  0  0  0  0  0  0  0  0  0
   -2.9270   25.5010  -28.3490 H   0  0  0  0  0  0  0  0  0  0  0  0
    0.9164   23.3389  -28.2773 H   0  0  0  0  0  0  0  0  0  0  0  0
    1.0252   24.8696  -27.3464 H   0  0  0  0  0  0  0  0  0  0  0  0
   -0.3040   24.0531  -25.7481 H   0  0  0  0  0  0  0  0  0  0  0  0
   -1.5646   23.6285  -26.9640 H   0  0  0  0  0  0  0  0  0  0  0  0
   -0.7623   20.4128  -25.5911 H   0  0  0  0  0  0  0  0  0  0  0  0
   -1.8128   21.8800  -25.3286 H   0  0  0  0  0  0  0  0  0  0  0  0
   -2.7765   20.0007  -26.7525 H   0  0  0  0  0  0  0  0  0  0  0  0
   -2.8052   21.6909  -27.4221 H   0  0  0  0  0  0  0  0  0  0  0  0
    0.0421   19.5559  -27.2747 H   0  0  0  0  0  0  0  0  0  0  0  0
    0.3118   19.9621  -29.0246 H   0  0  0  0  0  0  0  0  0  0  0  0
    1.5588   21.4288  -27.4321 H   0  0  0  0  0  0  0  0  0  0  0  0
    0.4388   22.3028  -28.5283 H   0  0  0  0  0  0  0  0  0  0  0  0
   -0.5329   20.5336  -30.5764 H   0  0  0  0  0  0  0  0  0  0  0  0
   -2.0853   19.6844  -30.4350 H   0  0  0  0  0  0  0  0  0  0  0  0
   -0.5504   20.1140  -33.0761 H   0  0  0  0  0  0  0  0  0  0  0  0
   -0.5073   18.6050  -32.1430 H   0  0  0  0  0  0  0  0  0  0  0  0
   -2.9232   20.1890  -34.5408 H   0  0  0  0  0  0  0  0  0  0  0  0
   -4.0592   20.0959  -33.1065 H   0  0  0  0  0  0  0  0  0  0  0  0
   -1.6696   21.8550  -33.5479 H   0  0  0  0  0  0  0  0  0  0  0  0
   -3.3586   22.2604  -33.0326 H   0  0  0  0  0  0  0  0  0  0  0  0
   -4.6483   21.5992  -31.7193 H   0  0  0  0  0  0  0  0  0  0  0  0
   -8.4769   24.1402  -31.6193 H   0  0  0  0  0  0  0  0  0  0  0  0
  1  2  1  0
  2  3  1  0
  3  4  1  0
  4  5  2  0
  5  6  1  0
  6  7  2  0
  7  8  1  0
  8  9  2  0
  9 10  1  0
 10 11  1  0
 11 12  2  0
 12 13  1  0
 13 14  1  0
 14 15  1  0
 15 16  1  0
 16 17  1  0
 17 18  1  0
 18 19  1  0
 19 20  1  0
 11 21  1  0
 21 22  2  0
 22 23  1  0
 23 24  1  0
 24 25  1  0
 25 26  1  0
 26 27  1  0
 27 28  1  0
 22 29  1  0
 29 30  2  0
  5 31  1  0
 31 32  2  0
 32  3  1  0
 30  6  1  0
 29  9  1  0
 20 15  1  0
 28 23  1  0
  1 33  1  0
  1 34  1  0
  1 35  1  0
  2 36  1  0
  2 37  1  0
  4 38  1  0
  7 39  1  0
  8 40  1  0
 10 41  1  0
 13 42  1  0
 13 43  1  0
 14 44  1  0
 14 45  1  0
 16 46  1  0
 16 47  1  0
 17 48  1  0
 17 49  1  0
 19 50  1  0
 19 51  1  0
 20 52  1  0
 20 53  1  0
 24 54  1  0
 24 55  1  0
 25 56  1  0
 25 57  1  0
 27 58  1  0
 27 59  1  0
 28 60  1  0
 28 61  1  0
 30 62  1  0
 31 63  1  0
M  END
>  <smiles>  (30) 
CCn1cc(-c2ccc3[nH]c(=NCCN4CCOCC4)nc(N4CCOCC4)c3c2)cn1

>  <score_type>  (30) 
oracle

>  <origin>  (30) 
adg

>  <m_score__min__energy>  (30) 
-8.7400000000000002

>  <m_primary>  (30) 
energy

$$$$
30:0
     RDKit          3D

 46 47  0  0  0  0  0  0  0  0999 V2000
   -4.7030   17.4940  -35.2530 C   0  0  0  0  0  0  0  0  0  0  0  0
   -5.5450   16.6460  -34.3090 C   0  0  0  0  0  0  0  0  0  0  0  0
   -6.8020   17.2600  -34.0900 O   0  0  0  0  0  0  0  0  0  0  0  0
   -7.2690   16.9900  -32.7830 C   0  0  0  0  0  0  0  0  0  0  0  0
   -7.6880   18.3080  -32.0940 C   0  0  0  0  0  0  0  0  0  0  0  0
   -7.3270   19.5360  -32.8470 N   0  0  2  0  0  0  0  0  0  0  0  0
   -5.8520   19.7540  -32.8530 C   0  0  0  0  0  0  0  0  0  0  0  0
   -5.4650   21.2260  -32.9400 C   0  0  0  0  0  0  0  0  0  0  0  0
   -6.0920   21.9180  -31.8110 N   0  0  0  0  0  0  0  0  0  0  0  0
   -5.4700   23.2250  -31.4980 C   0  0  0  0  0  0  0  0  0  0  0  0
   -4.2770   23.1370  -30.5610 C   0  0  0  0  0  0  0  0  0  0  0  0
   -3.8560   21.8800  -30.0940 C   0  0  0  0  0  0  0  0  0  0  0  0
   -2.7590   21.7720  -29.2380 C   0  0  0  0  0  0  0  0  0  0  0  0
   -2.0750   22.9170  -28.8300 C   0  0  0  0  0  0  0  0  0  0  0  0
   -2.4880   24.1740  -29.2730 C   0  0  0  0  0  0  0  0  0  0  0  0
   -3.5950   24.3000  -30.1370 C   0  0  0  0  0  0  0  0  0  0  0  0
   -4.0380   25.5550  -30.5890 O   0  0  0  0  0  0  0  0  0  0  0  0
   -5.3710   26.0380  -30.4630 C   0  0  0  0  0  0  0  0  0  0  0  0
   -7.5490   21.9950  -31.9910 C   0  0  0  0  0  0  0  0  0  0  0  0
   -8.1390   20.6760  -32.4350 C   0  0  0  0  0  0  0  0  0  0  0  0
   -9.3570   20.6010  -32.5200 O   0  0  0  0  0  0  0  0  0  0  0  0
   -4.0473   18.1544  -34.6665 H   0  0  0  0  0  0  0  0  0  0  0  0
   -4.0894   16.8373  -35.8872 H   0  0  0  0  0  0  0  0  0  0  0  0
   -5.3641   18.1029  -35.8872 H   0  0  0  0  0  0  0  0  0  0  0  0
   -5.6988   15.6515  -34.7533 H   0  0  0  0  0  0  0  0  0  0  0  0
   -5.0197   16.5504  -33.3472 H   0  0  0  0  0  0  0  0  0  0  0  0
   -8.1356   16.3147  -32.8371 H   0  0  0  0  0  0  0  0  0  0  0  0
   -6.4651   16.5156  -32.2010 H   0  0  0  0  0  0  0  0  0  0  0  0
   -8.7798   18.2946  -31.9610 H   0  0  0  0  0  0  0  0  0  0  0  0
   -7.1402   18.3518  -31.1411 H   0  0  0  0  0  0  0  0  0  0  0  0
   -7.5930   19.3560  -33.8440 H   0  0  0  0  0  0  0  0  0  0  0  0
   -5.4326   19.3360  -31.9259 H   0  0  0  0  0  0  0  0  0  0  0  0
   -5.4507   19.2561  -33.7480 H   0  0  0  0  0  0  0  0  0  0  0  0
   -4.3714   21.3300  -32.8828 H   0  0  0  0  0  0  0  0  0  0  0  0
   -5.8035   21.6581  -33.8933 H   0  0  0  0  0  0  0  0  0  0  0  0
   -5.1356   23.6828  -32.4407 H   0  0  0  0  0  0  0  0  0  0  0  0
   -6.2346   23.8241  -30.9819 H   0  0  0  0  0  0  0  0  0  0  0  0
   -4.3957   20.9736  -30.4058 H   0  0  0  0  0  0  0  0  0  0  0  0
   -2.4334   20.7825  -28.8846 H   0  0  0  0  0  0  0  0  0  0  0  0
   -1.2086   22.8289  -28.1580 H   0  0  0  0  0  0  0  0  0  0  0  0
   -1.9458   25.0734  -28.9457 H   0  0  0  0  0  0  0  0  0  0  0  0
   -5.6281   26.1311  -29.3975 H   0  0  0  0  0  0  0  0  0  0  0  0
   -5.4516   27.0225  -30.9471 H   0  0  0  0  0  0  0  0  0  0  0  0
   -6.0635   25.3336  -30.9471 H   0  0  0  0  0  0  0  0  0  0  0  0
   -8.0094   22.2853  -31.0351 H   0  0  0  0  0  0  0  0  0  0  0  0
   -7.7540   22.7383  -32.7756 H   0  0  0  0  0  0  0  0  0  0  0  0
  1  2  1  0
  2  3  1  0
  3  4  1  0
  4  5  1  0
  5  6  1  0
  6  7  1  0
  7  8  1  0
  8  9  1  0
  9 10  1  0
 10 11  1  0
 11 12  2  0
 12 13  1  0
 13 14  2  0
 14 15  1  0
 15 16  2  0
 16 17  1  0
 17 18  1  0
  9 19  1  0
 19 20  1  0
 20 21  2  0
 20  6  1  0
 16 11  1  0
  1 22  1  0
  1 23  1  0
  1 24  1  0
  2 25  1  0
  2 26  1  0
  4 27  1  0
  4 28  1  0
  5 29  1  0
  5 30  1  0
  6 31  1  6
  7 32  1  0
  7 33  1  0
  8 34  1  0
  8 35  1  0
 10 36  1  0
 10 37  1  0
 12 38  1  0
 13 39  1  0
 14 40  1  0
 15 41  1  0
 18 42  1  0
 18 43  1  0
 18 44  1  0
 19 45  1  0
 19 46  1  0
M  CHG  1   6   1
M  END
>  <UniqueID>  (31) 
29

>  <SMILES>  (31) 
CCOCC[N@@H+]1CCN(Cc2ccccc2OC)CC1=O

>  <Energy>  (31) 
57.227816134040076

>  <Genealogy>  (31) 
CCOCC[NH+]1CCN(Cc2ccccc2OC)CC1=O (protonated)
CCOCC[N@@H+]1CCN(Cc2ccccc2OC)CC1=O (chirality)
CCOCC[N@@H+]1CCN(Cc2ccccc2OC)CC1=O (3D coordinates assigned)
CCOCC[N@@H+]1CCN(Cc2ccccc2OC)CC1=O (nonaromatic ring conformer: 57.227816134040076 kcal/mol)

>  <smiles>  (31) 
CCOCCN1CCN(Cc2ccccc2OC)CC1=O

>  <score_type>  (31) 
oracle

>  <origin>  (31) 
adg

>  <m_score__min__energy>  (31) 
-6.4699999999999998

>  <m_primary>  (31) 
energy

$$$$
31:0
     RDKit          3D

 40 42  0  0  0  0  0  0  0  0999 V2000
   -5.7910   26.3420  -28.4660 H   0  0  0  0  0  0  0  0  0  0  0  0
   -6.5250   26.0620  -29.0680 O   0  0  0  0  0  0  0  0  0  0  0  0
   -5.9710   24.8800  -29.8270 S   0  0  0  0  0  4  0  0  0  0  0  0
   -6.7010   24.2970  -30.8950 N   0  0  0  0  0  0  0  0  0  0  0  0
   -6.4040   23.0280  -31.4990 C   0  0  0  0  0  0  0  0  0  0  0  0
   -5.2070   22.7880  -32.1980 C   0  0  0  0  0  0  0  0  0  0  0  0
   -4.4769   23.6006  -32.3269 H   0  0  0  0  0  0  0  0  0  0  0  0
   -4.9400   21.5250  -32.7290 C   0  0  0  0  0  0  0  0  0  0  0  0
   -4.0048   21.3533  -33.2821 H   0  0  0  0  0  0  0  0  0  0  0  0
   -5.8540   20.4710  -32.5640 C   0  0  0  0  0  0  0  0  0  0  0  0
   -7.0510   20.7020  -31.8520 C   0  0  0  0  0  0  0  0  0  0  0  0
   -7.3000   21.9710  -31.3040 C   0  0  0  0  0  0  0  0  0  0  0  0
   -8.2128   22.1364  -30.7128 H   0  0  0  0  0  0  0  0  0  0  0  0
   -8.0300   19.5850  -31.5980 C   0  0  0  0  0  0  0  0  0  0  0  0
   -9.0464   20.0037  -31.5565 H   0  0  0  0  0  0  0  0  0  0  0  0
   -7.7639   19.1043  -30.6450 H   0  0  0  0  0  0  0  0  0  0  0  0
   -7.9740   18.5230  -32.7030 C   0  0  0  0  0  0  0  0  0  0  0  0
   -8.3415   18.9700  -33.6385 H   0  0  0  0  0  0  0  0  0  0  0  0
   -8.5992   17.6774  -32.3803 H   0  0  0  0  0  0  0  0  0  0  0  0
   -6.5420   17.9780  -32.9440 C   0  0  0  0  0  0  0  0  0  0  0  0
   -6.5650   17.0990  -34.2140 C   0  0  0  0  0  0  0  0  0  0  0  0
   -6.5928   16.0380  -33.9251 H   0  0  0  0  0  0  0  0  0  0  0  0
   -7.4571   17.3400  -34.8106 H   0  0  0  0  0  0  0  0  0  0  0  0
   -5.6615   17.2930  -34.8106 H   0  0  0  0  0  0  0  0  0  0  0  0
   -6.0790   17.1160  -31.7510 C   0  0  0  0  0  0  0  0  0  0  0  0
   -6.3484   17.6176  -30.8098 H   0  0  0  0  0  0  0  0  0  0  0  0
   -6.5705   16.1329  -31.7963 H   0  0  0  0  0  0  0  0  0  0  0  0
   -4.9880   16.9829  -31.7963 H   0  0  0  0  0  0  0  0  0  0  0  0
   -5.5670   19.1280  -33.1270 C   0  0  0  0  0  0  0  0  0  0  0  0
   -4.4660   18.9210  -33.7110 O   0  0  0  0  0  0  0  0  0  0  0  0
   -4.6070   24.2270  -29.3510 C   0  0  0  0  0  0  0  0  0  0  0  0
   -3.4290   24.8120  -29.7000 N   0  0  0  0  0  0  0  0  0  0  0  0
   -2.2280   24.2960  -29.3210 C   0  0  0  0  0  0  0  0  0  0  0  0
   -1.2950   24.7951  -29.6216 H   0  0  0  0  0  0  0  0  0  0  0  0
   -2.1810   23.1320  -28.5500 C   0  0  0  0  0  0  0  0  0  0  0  0
   -1.2140   22.7091  -28.2400 H   0  0  0  0  0  0  0  0  0  0  0  0
   -3.3750   22.5110  -28.1770 C   0  0  0  0  0  0  0  0  0  0  0  0
   -3.3528   21.5940  -27.5699 H   0  0  0  0  0  0  0  0  0  0  0  0
   -4.5970   23.0560  -28.5760 C   0  0  0  0  0  0  0  0  0  0  0  0
   -5.5420   22.5732  -28.2863 H   0  0  0  0  0  0  0  0  0  0  0  0
  1  2  1  0
  2  3  1  0
  3  4  2  0
  4  5  1  0
  5  6  2  0
  6  7  1  0
  6  8  1  0
  8  9  1  0
  8 10  2  0
 10 11  1  0
 11 12  2  0
 12 13  1  0
 11 14  1  0
 14 15  1  0
 14 16  1  0
 14 17  1  0
 17 18  1  0
 17 19  1  0
 17 20  1  0
 20 21  1  0
 21 22  1  0
 21 23  1  0
 21 24  1  0
 20 25  1  0
 25 26  1  0
 25 27  1  0
 25 28  1  0
 20 29  1  0
 29 30  2  0
  3 31  1  0
 31 32  2  0
 32 33  1  0
 33 34  1  0
 33 35  2  0
 35 36  1  0
 35 37  1  0
 37 38  1  0
 37 39  2  0
 39 40  1  0
 12  5  1  0
 39 31  1  0
 29 10  1  0
M  CHG  1   3   1
M  RAD  1   3   2
M  END
>  <UniqueID>  (32) 
30

>  <SMILES>  (32) 
CC1(C)CCc2cc(/N=[S+](\O)c3ccccn3)ccc2C1=O

>  <Energy>  (32) 
45.16878571733012

>  <Genealogy>  (32) 
CC1(C)CCc2cc(N=[S+](O)c3ccccn3)ccc2C1=O (protonated)
CC1(C)CCc2cc(N=[S+](O)c3ccccn3)ccc2C1=O (chirality)
CC1(C)CCc2cc(/N=[S+](\O)c3ccccn3)ccc2C1=O (cis-trans isomerization)
CC1(C)CCc2cc(/N=[S+](\O)c3ccccn3)ccc2C1=O (3D coordinates assigned)
CC1(C)CCc2cc(/N=[S+](\O)c3ccccn3)ccc2C1=O (nonaromatic ring conformer: 45.16878571733012 kcal/mol)

>  <smiles>  (32) 
CC1(C)CCc2cc(N=[S+]([O-])c3ccccn3)ccc2C1=O

>  <score_type>  (32) 
oracle

>  <origin>  (32) 
adg

>  <m_score__min__energy>  (32) 
-8.8399999999999999

>  <m_primary>  (32) 
energy

$$$$
32:0
     RDKit          3D

 54 56  0  0  0  0  0  0  0  0999 V2000
   -3.6680   18.3930  -34.1210 C   0  0  0  0  0  0  0  0  0  0  0  0
   -4.8190   17.7800  -34.9220 C   0  0  0  0  0  0  0  0  0  0  0  0
   -6.1160   18.4000  -34.6020 N   0  0  0  0  0  0  0  0  0  0  0  0
   -6.8620   17.6570  -33.5710 C   0  0  0  0  0  0  0  0  0  0  0  0
   -7.7730   18.6170  -32.7960 C   0  0  0  0  0  0  0  0  0  0  0  0
   -7.4480   20.0140  -33.1010 N   0  0  0  0  0  0  0  0  0  0  0  0
   -6.7770   20.9040  -32.1870 C   0  0  0  0  0  0  0  0  0  0  0  0
   -5.5030   20.5990  -31.6710 C   0  0  0  0  0  0  0  0  0  0  0  0
   -4.8480   21.5000  -30.8250 C   0  0  0  0  0  0  0  0  0  0  0  0
   -3.6170   21.2020  -30.3490 N   0  0  0  0  0  0  0  0  0  0  0  0
   -2.9350   22.0510  -29.5350 C   0  0  0  0  0  0  0  0  0  0  0  0
   -1.5800   21.5860  -29.0220 C   0  0  0  0  0  0  0  0  0  0  0  0
   -1.6470   20.8470  -27.7400 N   0  0  0  0  0  0  0  0  0  0  0  0
   -1.1690   21.6480  -26.6040 C   0  0  0  0  0  0  0  0  0  0  0  0
   -2.9820   20.2890  -27.4670 C   0  0  0  0  0  0  0  0  0  0  0  0
   -3.4890   23.2680  -29.1980 N   0  0  0  0  0  0  0  0  0  0  0  0
   -2.7550   24.2410  -28.4290 C   0  0  0  0  0  0  0  0  0  0  0  0
   -1.6070   24.8500  -28.9610 C   0  0  0  0  0  0  0  0  0  0  0  0
   -0.8780   25.7670  -28.1980 C   0  0  0  0  0  0  0  0  0  0  0  0
   -1.2790   26.0670  -26.8920 C   0  0  0  0  0  0  0  0  0  0  0  0
   -0.5690   26.9530  -26.1520 F   0  0  0  0  0  0  0  0  0  0  0  0
   -2.4070   25.4460  -26.3470 C   0  0  0  0  0  0  0  0  0  0  0  0
   -3.1380   24.5300  -27.1090 C   0  0  0  0  0  0  0  0  0  0  0  0
   -4.7450   23.5980  -29.6450 C   0  0  0  0  0  0  0  0  0  0  0  0
   -5.2600   24.7090  -29.3300 O   0  0  0  0  0  0  0  0  0  0  0  0
   -5.4590   22.7110  -30.4700 C   0  0  0  0  0  0  0  0  0  0  0  0
   -6.7440   23.0050  -30.9570 C   0  0  0  0  0  0  0  0  0  0  0  0
   -7.3990   22.1050  -31.8060 C   0  0  0  0  0  0  0  0  0  0  0  0
   -8.6290   22.4230  -32.2810 F   0  0  0  0  0  0  0  0  0  0  0  0
   -3.8713   18.2847  -33.0454 H   0  0  0  0  0  0  0  0  0  0  0  0
   -2.7305   17.8747  -34.3709 H   0  0  0  0  0  0  0  0  0  0  0  0
   -3.5749   19.4602  -34.3709 H   0  0  0  0  0  0  0  0  0  0  0  0
   -4.6162   17.9177  -35.9943 H   0  0  0  0  0  0  0  0  0  0  0  0
   -4.8818   16.7139  -34.6583 H   0  0  0  0  0  0  0  0  0  0  0  0
   -6.6960   18.4690  -35.4720 H   0  0  0  0  0  0  0  0  0  0  0  0
   -7.4748   16.8804  -34.0521 H   0  0  0  0  0  0  0  0  0  0  0  0
   -6.1508   17.1892  -32.8743 H   0  0  0  0  0  0  0  0  0  0  0  0
   -8.8194   18.4225  -33.0739 H   0  0  0  0  0  0  0  0  0  0  0  0
   -7.6218   18.4499  -31.7193 H   0  0  0  0  0  0  0  0  0  0  0  0
   -7.6300   20.3420  -34.0770 H   0  0  0  0  0  0  0  0  0  0  0  0
   -5.0199   19.6466  -31.9347 H   0  0  0  0  0  0  0  0  0  0  0  0
   -1.1303   20.9268  -29.7791 H   0  0  0  0  0  0  0  0  0  0  0  0
   -0.9795   22.4894  -28.8397 H   0  0  0  0  0  0  0  0  0  0  0  0
   -1.4605   21.1595  -25.6625 H   0  0  0  0  0  0  0  0  0  0  0  0
   -0.0731   21.7317  -26.6497 H   0  0  0  0  0  0  0  0  0  0  0  0
   -1.6157   22.6522  -26.6497 H   0  0  0  0  0  0  0  0  0  0  0  0
   -3.1370   20.2242  -26.3799 H   0  0  0  0  0  0  0  0  0  0  0  0
   -3.7495   20.9416  -27.9086 H   0  0  0  0  0  0  0  0  0  0  0  0
   -3.0568   19.2843  -27.9086 H   0  0  0  0  0  0  0  0  0  0  0  0
   -1.2800   24.6046  -29.9822 H   0  0  0  0  0  0  0  0  0  0  0  0
    0.0116   26.2530  -28.6251 H   0  0  0  0  0  0  0  0  0  0  0  0
   -2.7193   25.6784  -25.3182 H   0  0  0  0  0  0  0  0  0  0  0  0
   -4.0172   24.0333  -26.6728 H   0  0  0  0  0  0  0  0  0  0  0  0
   -7.2369   23.9456  -30.6701 H   0  0  0  0  0  0  0  0  0  0  0  0
  1  2  1  0
  2  3  1  0
  3  4  1  0
  4  5  1  0
  5  6  1  0
  6  7  1  0
  7  8  2  0
  8  9  1  0
  9 10  1  0
 10 11  2  0
 11 12  1  0
 12 13  1  0
 13 14  1  0
 13 15  1  0
 11 16  1  0
 16 17  1  0
 17 18  2  0
 18 19  1  0
 19 20  2  0
 20 21  1  0
 20 22  1  0
 22 23  2  0
 16 24  1  0
 24 25  2  0
 24 26  1  0
 26 27  1  0
 27 28  2  0
 28 29  1  0
 28  7  1  0
 26  9  2  0
 23 17  1  0
  1 30  1  0
  1 31  1  0
  1 32  1  0
  2 33  1  0
  2 34  1  0
  3 35  1  0
  4 36  1  0
  4 37  1  0
  5 38  1  0
  5 39  1  0
  6 40  1  0
  8 41  1  0
 12 42  1  0
 12 43  1  0
 14 44  1  0
 14 45  1  0
 14 46  1  0
 15 47  1  0
 15 48  1  0
 15 49  1  0
 18 50  1  0
 19 51  1  0
 22 52  1  0
 23 53  1  0
 27 54  1  0
M  END
>  <UniqueID>  (33) 
31

>  <SMILES>  (33) 
CCNCCNc1cc2nc(CN(C)C)n(-c3ccc(F)cc3)c(=O)c2cc1F

>  <Energy>  (33) 
69.98532116767856

>  <Genealogy>  (33) 
CCNCCNc1cc2nc(CN(C)C)n(-c3ccc(F)cc3)c(=O)c2cc1F (3D coordinates assigned)
CCNCCNc1cc2nc(CN(C)C)n(-c3ccc(F)cc3)c(=O)c2cc1F (optimized conformer: 69.98532116767856 kcal/mol)

>  <smiles>  (33) 
CCNCCNc1cc2nc(CN(C)C)n(-c3ccc(F)cc3)c(=O)c2cc1F

>  <score_type>  (33) 
oracle

>  <origin>  (33) 
adg

>  <m_score__min__energy>  (33) 
-8.0899999999999999

>  <m_primary>  (33) 
energy

$$$$
33:0
     RDKit          3D

 67 71  0  0  0  0  0  0  0  0999 V2000
   -7.2010   19.3510  -32.7240 C   0  0  0  0  0  0  0  0  0  0  0  0
   -8.1600   20.1800  -31.9710 N   0  0  0  0  0  0  0  0  0  0  0  0
   -9.4980   20.0820  -32.5830 C   0  0  0  0  0  0  0  0  0  0  0  0
   -7.7410   21.5980  -31.7790 C   0  0  0  0  0  0  0  0  0  0  0  0
   -6.4440   21.9830  -32.5300 C   0  0  0  0  0  0  0  0  0  0  0  0
   -6.1210   23.4660  -32.3130 C   0  0  0  0  0  0  0  0  0  0  0  0
   -6.0850   23.7670  -30.8760 N   0  0  0  0  0  0  0  0  0  0  0  0
   -5.1070   24.6950  -30.3690 C   0  0  0  0  0  0  0  0  0  0  0  0
   -4.7010   25.6380  -31.1020 O   0  0  0  0  0  0  0  0  0  0  0  0
   -4.5320   24.5450  -28.9880 C   0  0  0  0  0  0  0  0  0  0  0  0
   -3.1640   24.0480  -29.0630 N   0  0  0  0  0  0  0  0  0  0  0  0
   -2.0530   24.7310  -28.7210 C   0  0  0  0  0  0  0  0  0  0  0  0
   -0.9710   23.9160  -28.9820 C   0  0  0  0  0  0  0  0  0  0  0  0
    0.4010   24.1720  -28.6600 N   0  0  0  0  0  0  0  0  0  0  0  0
    1.0130   23.8570  -27.4040 C   0  0  0  0  0  0  0  0  0  0  0  0
    1.9000   22.9670  -27.3650 O   0  0  0  0  0  0  0  0  0  0  0  0
    0.6760   24.5960  -26.1730 C   0  0  0  0  0  0  0  0  0  0  0  0
    0.7380   24.1450  -24.8520 C   0  0  0  0  0  0  0  0  0  0  0  0
    0.3090   25.1270  -24.0260 N   0  0  0  0  0  0  0  0  0  0  0  0
   -0.0220   26.1660  -24.7680 N   0  0  0  0  0  0  0  0  0  0  0  0
   -0.4760   27.3750  -24.3510 C   0  0  0  0  0  0  0  0  0  0  0  0
   -0.7440   28.3440  -25.3260 C   0  0  0  0  0  0  0  0  0  0  0  0
   -0.5290   28.0190  -26.6800 C   0  0  0  0  0  0  0  0  0  0  0  0
   -0.0610   26.7870  -27.0360 N   0  0  0  0  0  0  0  0  0  0  0  0
    0.1790   25.8780  -26.0580 C   0  0  0  0  0  0  0  0  0  0  0  0
   -1.4990   22.7310  -29.4620 C   0  0  0  0  0  0  0  0  0  0  0  0
   -0.7580   21.5140  -29.8670 C   0  0  0  0  0  0  0  0  0  0  0  0
   -0.0680   20.7650  -28.8950 C   0  0  0  0  0  0  0  0  0  0  0  0
    0.7280   19.6780  -29.2670 C   0  0  0  0  0  0  0  0  0  0  0  0
    1.6030   18.7710  -28.0430 Cl  0  0  0  0  0  0  0  0  0  0  0  0
    0.8500   19.3310  -30.6140 C   0  0  0  0  0  0  0  0  0  0  0  0
    0.1650   20.0590  -31.5890 C   0  0  0  0  0  0  0  0  0  0  0  0
   -0.6590   21.1340  -31.2270 C   0  0  0  0  0  0  0  0  0  0  0  0
   -1.3550   21.8100  -32.2390 O   0  0  0  0  0  0  0  0  0  0  0  0
   -2.6640   21.4270  -32.6650 C   0  0  0  0  0  0  0  0  0  0  0  0
   -3.4410   21.1250  -31.5550 F   0  0  0  0  0  0  0  0  0  0  0  0
   -2.5680   20.3020  -33.4730 F   0  0  0  0  0  0  0  0  0  0  0  0
   -2.8420   22.8460  -29.5180 N   0  0  0  0  0  0  0  0  0  0  0  0
   -7.2600   23.4040  -30.0690 C   0  0  0  0  0  0  0  0  0  0  0  0
   -7.6050   21.9240  -30.2780 C   0  0  0  0  0  0  0  0  0  0  0  0
   -6.5618   18.7985  -32.0196 H   0  0  0  0  0  0  0  0  0  0  0  0
   -7.7502   18.6386  -33.3571 H   0  0  0  0  0  0  0  0  0  0  0  0
   -6.5755   19.9975  -33.3571 H   0  0  0  0  0  0  0  0  0  0  0  0
  -10.2600   20.0262  -31.7916 H   0  0  0  0  0  0  0  0  0  0  0  0
   -9.6817   20.9691  -33.2070 H   0  0  0  0  0  0  0  0  0  0  0  0
   -9.5505   19.1776  -33.2070 H   0  0  0  0  0  0  0  0  0  0  0  0
   -8.5415   22.2068  -32.2247 H   0  0  0  0  0  0  0  0  0  0  0  0
   -5.6113   21.3716  -32.1521 H   0  0  0  0  0  0  0  0  0  0  0  0
   -6.5875   21.8027  -33.6056 H   0  0  0  0  0  0  0  0  0  0  0  0
   -5.1411   23.6943  -32.7577 H   0  0  0  0  0  0  0  0  0  0  0  0
   -6.8994   24.0789  -32.7910 H   0  0  0  0  0  0  0  0  0  0  0  0
   -4.5360   25.5231  -28.4846 H   0  0  0  0  0  0  0  0  0  0  0  0
   -5.1436   23.8279  -28.4208 H   0  0  0  0  0  0  0  0  0  0  0  0
   -2.0161   25.7505  -28.3096 H   0  0  0  0  0  0  0  0  0  0  0  0
    1.0812   23.1495  -24.5340 H   0  0  0  0  0  0  0  0  0  0  0  0
    0.2400   25.0820  -22.9850 H   0  0  0  0  0  0  0  0  0  0  0  0
   -0.6285   27.5869  -23.2824 H   0  0  0  0  0  0  0  0  0  0  0  0
   -1.1151   29.3393  -25.0403 H   0  0  0  0  0  0  0  0  0  0  0  0
   -0.7406   28.7663  -27.4589 H   0  0  0  0  0  0  0  0  0  0  0  0
   -0.1561   21.0377  -27.8330 H   0  0  0  0  0  0  0  0  0  0  0  0
    1.4865   18.4832  -30.9074 H   0  0  0  0  0  0  0  0  0  0  0  0
    0.2727   19.7869  -32.6494 H   0  0  0  0  0  0  0  0  0  0  0  0
   -3.1265   22.2528  -33.2256 H   0  0  0  0  0  0  0  0  0  0  0  0
   -7.0397   23.5798  -29.0057 H   0  0  0  0  0  0  0  0  0  0  0  0
   -8.1157   24.0210  -30.3804 H   0  0  0  0  0  0  0  0  0  0  0  0
   -6.8064   21.3034  -29.8455 H   0  0  0  0  0  0  0  0  0  0  0  0
   -8.5650   21.7135  -29.7840 H   0  0  0  0  0  0  0  0  0  0  0  0
  1  2  1  0
  2  3  1  0
  2  4  1  0
  4  5  1  0
  5  6  1  0
  6  7  1  0
  7  8  1  0
  8  9  2  0
  8 10  1  0
 10 11  1  0
 11 12  1  0
 12 13  2  0
 13 14  1  0
 14 15  1  0
 15 16  2  0
 15 17  1  0
 17 18  1  0
 18 19  2  0
 19 20  1  0
 20 21  1  0
 21 22  2  0
 22 23  1  0
 23 24  2  0
 24 25  1  0
 13 26  1  0
 26 27  1  0
 27 28  2  0
 28 29  1  0
 29 30  1  0
 29 31  2  0
 31 32  1  0
 32 33  2  0
 33 34  1  0
 34 35  1  0
 35 36  1  0
 35 37  1  0
 26 38  2  0
  7 39  1  0
 39 40  1  0
 40  4  1  0
 38 11  1  0
 25 17  2  0
 33 27  1  0
 25 20  1  0
  1 41  1  0
  1 42  1  0
  1 43  1  0
  3 44  1  0
  3 45  1  0
  3 46  1  0
  4 47  1  0
  5 48  1  0
  5 49  1  0
  6 50  1  0
  6 51  1  0
 10 52  1  0
 10 53  1  0
 12 54  1  0
 18 55  1  0
 19 56  1  0
 21 57  1  0
 22 58  1  0
 23 59  1  0
 28 60  1  0
 31 61  1  0
 32 62  1  0
 35 63  1  0
 39 64  1  0
 39 65  1  0
 40 66  1  0
 40 67  1  0
M  CHG  2  14  -1  19   1
M  END
>  <UniqueID>  (34) 
32

>  <SMILES>  (34) 
CN(C)C1CCN(C(=O)Cn2cc([N-]C(=O)c3c[nH+]n4cccnc34)c(-c3cc(Cl)ccc3OC(F)F)n2)CC1

>  <Energy>  (34) 
159.02065359632397

>  <Genealogy>  (34) 
CN(C)C1CCN(C(=O)Cn2cc([N-]C(=O)c3c[nH+]n4cccnc34)c(-c3cc(Cl)ccc3OC(F)F)n2)CC1 (protonated)
CN(C)C1CCN(C(=O)Cn2cc([N-]C(=O)c3c[nH+]n4cccnc34)c(-c3cc(Cl)ccc3OC(F)F)n2)CC1 (3D coordinates assigned)
CN(C)C1CCN(C(=O)Cn2cc([N-]C(=O)c3c[nH+]n4cccnc34)c(-c3cc(Cl)ccc3OC(F)F)n2)CC1 (nonaromatic ring conformer: 159.02065359632397 kcal/mol)

>  <smiles>  (34) 
CN(C)C1CCN(C(=O)Cn2cc(NC(=O)c3cnn4cccnc34)c(-c3cc(Cl)ccc3OC(F)F)n2)CC1

>  <score_type>  (34) 
oracle

>  <origin>  (34) 
adg

>  <m_score__min__energy>  (34) 
-11.43

>  <m_primary>  (34) 
energy

$$$$
34:0
     RDKit          3D

 46 47  0  0  0  0  0  0  0  0999 V2000
   -6.5030   17.4720  -32.6360 C   0  0  0  0  0  0  0  0  0  0  0  0
   -6.0830   18.5590  -31.6500 C   0  0  0  0  0  0  0  0  0  0  0  0
   -6.4340   19.9000  -32.1590 N   0  0  0  0  0  0  0  0  0  0  0  0
   -7.6010   19.9920  -33.0740 C   0  0  0  0  0  0  0  0  0  0  0  0
   -8.9690   19.7890  -32.4050 C   0  0  0  0  0  0  0  0  0  0  0  0
   -5.2740   20.7430  -32.5300 C   0  0  0  0  0  0  0  0  0  0  0  0
   -3.9340   19.9980  -32.5630 C   0  0  0  0  0  0  0  0  0  0  0  0
   -3.0040   20.5800  -31.6540 O   0  0  0  0  0  0  0  0  0  0  0  0
   -3.2040   21.8420  -31.0870 C   0  0  0  0  0  0  0  0  0  0  0  0
   -3.1380   22.8790  -31.8030 O   0  0  0  0  0  0  0  0  0  0  0  0
   -3.5530   21.9750  -29.6260 C   0  0  1  0  0  0  0  0  0  0  0  0
   -2.2700   22.1630  -28.8390 C   0  0  0  0  0  0  0  0  0  0  0  0
   -1.4490   20.9670  -28.4690 C   0  0  0  0  0  0  0  0  0  0  0  0
   -1.7950   23.3520  -28.6110 N   0  0  0  0  0  0  0  0  0  0  0  0
   -2.5190   24.5330  -28.9620 C   0  0  0  0  0  0  0  0  0  0  0  0
   -1.9730   25.6620  -28.8510 O   0  0  0  0  0  0  0  0  0  0  0  0
   -3.8690   24.4270  -29.4190 N   0  0  0  0  0  0  0  0  0  0  0  0
   -4.5550   23.1320  -29.3380 C   0  0  1  0  0  0  0  0  0  0  0  0
   -5.7880   23.1000  -30.2230 C   0  0  0  0  0  0  0  0  0  0  0  0
   -6.9730   22.4070  -29.9720 C   0  0  0  0  0  0  0  0  0  0  0  0
   -7.9910   22.6790  -30.8930 C   0  0  0  0  0  0  0  0  0  0  0  0
   -7.6420   23.6170  -31.8530 C   0  0  0  0  0  0  0  0  0  0  0  0
   -6.0660   24.1060  -31.5480 S   0  0  0  0  0  0  0  0  0  0  0  0
   -6.8453   16.5860  -32.0811 H   0  0  0  0  0  0  0  0  0  0  0  0
   -7.3209   17.8470  -33.2687 H   0  0  0  0  0  0  0  0  0  0  0  0
   -5.6454   17.1996  -33.2687 H   0  0  0  0  0  0  0  0  0  0  0  0
   -6.5960   18.3926  -30.6913 H   0  0  0  0  0  0  0  0  0  0  0  0
   -4.9922   18.5091  -31.5174 H   0  0  0  0  0  0  0  0  0  0  0  0
   -7.5928   20.9893  -33.5380 H   0  0  0  0  0  0  0  0  0  0  0  0
   -7.4887   19.1719  -33.7984 H   0  0  0  0  0  0  0  0  0  0  0  0
   -8.8488   19.8068  -31.3117 H   0  0  0  0  0  0  0  0  0  0  0  0
   -9.6507   20.5958  -32.7121 H   0  0  0  0  0  0  0  0  0  0  0  0
   -9.3870   18.8190  -32.7121 H   0  0  0  0  0  0  0  0  0  0  0  0
   -5.4592   21.1622  -33.5300 H   0  0  0  0  0  0  0  0  0  0  0  0
   -5.1850   21.5147  -31.7512 H   0  0  0  0  0  0  0  0  0  0  0  0
   -4.0998   18.9469  -32.2843 H   0  0  0  0  0  0  0  0  0  0  0  0
   -3.5199   20.0662  -33.5798 H   0  0  0  0  0  0  0  0  0  0  0  0
   -4.0662   21.0540  -29.3124 H   0  0  0  0  0  0  0  0  0  0  0  0
   -1.3930   20.8854  -27.3735 H   0  0  0  0  0  0  0  0  0  0  0  0
   -1.9159   20.0601  -28.8808 H   0  0  0  0  0  0  0  0  0  0  0  0
   -0.4349   21.0767  -28.8808 H   0  0  0  0  0  0  0  0  0  0  0  0
   -4.4070   25.3100  -29.5610 H   0  0  0  0  0  0  0  0  0  0  0  0
   -4.9267   22.9846  -28.3132 H   0  0  0  0  0  0  0  0  0  0  0  0
   -7.0955   21.7116  -29.1286 H   0  0  0  0  0  0  0  0  0  0  0  0
   -8.9774   22.1934  -30.8586 H   0  0  0  0  0  0  0  0  0  0  0  0
   -8.2847   23.9769  -32.6700 H   0  0  0  0  0  0  0  0  0  0  0  0
  1  2  1  0
  2  3  1  0
  3  4  1  0
  4  5  1  0
  3  6  1  0
  6  7  1  0
  7  8  1  0
  8  9  1  0
  9 10  2  0
  9 11  1  0
 11 12  1  0
 12 13  1  0
 12 14  2  0
 14 15  1  0
 15 16  2  0
 15 17  1  0
 17 18  1  0
 18 19  1  0
 19 20  2  0
 20 21  1  0
 21 22  2  0
 22 23  1  0
 18 11  1  0
 23 19  1  0
  1 24  1  0
  1 25  1  0
  1 26  1  0
  2 27  1  0
  2 28  1  0
  4 29  1  0
  4 30  1  0
  5 31  1  0
  5 32  1  0
  5 33  1  0
  6 34  1  0
  6 35  1  0
  7 36  1  0
  7 37  1  0
 11 38  1  1
 13 39  1  0
 13 40  1  0
 13 41  1  0
 17 42  1  0
 18 43  1  1
 20 44  1  0
 21 45  1  0
 22 46  1  0
M  END
>  <UniqueID>  (35) 
33

>  <SMILES>  (35) 
CCN(CC)CCOC(=O)[C@H]1C(C)=NC(=O)N[C@H]1c1cccs1

>  <Energy>  (35) 
69.43962265325747

>  <Genealogy>  (35) 
CCN(CC)CCOC(=O)[C@H]1C(C)=NC(=O)N[C@H]1c1cccs1 (chirality)
CCN(CC)CCOC(=O)[C@H]1C(C)=NC(=O)N[C@H]1c1cccs1 (3D coordinates assigned)
CCN(CC)CCOC(=O)[C@H]1C(C)=NC(=O)N[C@H]1c1cccs1 (nonaromatic ring conformer: 69.43962265325747 kcal/mol)

>  <smiles>  (35) 
CCN(CC)CCOC(=O)C1C(C)=NC(=O)NC1c1cccs1

>  <score_type>  (35) 
oracle

>  <origin>  (35) 
adg

>  <m_score__min__energy>  (35) 
-6.6500000000000004

>  <m_primary>  (35) 
energy

$$$$
35:0
     RDKit          3D

 51 54  0  0  0  0  0  0  0  0999 V2000
   -6.4160   25.3150  -29.7580 C   0  0  0  0  0  0  0  0  0  0  0  0
   -5.3480   24.7500  -30.6370 C   0  0  0  0  0  0  0  0  0  0  0  0
   -4.3100   25.4390  -30.8380 O   0  0  0  0  0  0  0  0  0  0  0  0
   -5.4550   23.4180  -31.2790 C   0  0  0  0  0  0  0  0  0  0  0  0
   -4.3850   22.7390  -31.8550 C   0  0  0  0  0  0  0  0  0  0  0  0
   -4.7830   21.5420  -32.3440 N   0  0  0  0  0  0  0  0  0  0  0  0
   -3.9240   20.5640  -33.0140 C   0  0  0  0  0  0  0  0  0  0  0  0
   -2.8470   20.0580  -32.0890 C   0  0  0  0  0  0  0  0  0  0  0  0
   -2.2860   18.9620  -32.3620 O   0  0  0  0  0  0  0  0  0  0  0  0
   -2.4300   20.8020  -30.9250 N   0  0  0  0  0  0  0  0  0  0  0  0
   -2.9140   20.4210  -29.5860 C   0  0  0  0  0  0  0  0  0  0  0  0
   -2.2390   21.2390  -28.4800 C   0  0  0  0  0  0  0  0  0  0  0  0
   -2.2190   22.6540  -28.8560 N   0  0  0  0  0  0  0  0  0  0  0  0
   -2.5310   23.6530  -27.8740 C   0  0  0  0  0  0  0  0  0  0  0  0
   -3.8660   23.8480  -27.4900 C   0  0  0  0  0  0  0  0  0  0  0  0
   -4.1890   24.8130  -26.5330 C   0  0  0  0  0  0  0  0  0  0  0  0
   -3.1830   25.5940  -25.9590 C   0  0  0  0  0  0  0  0  0  0  0  0
   -1.8510   25.4150  -26.3440 C   0  0  0  0  0  0  0  0  0  0  0  0
   -1.5180   24.4480  -27.3020 C   0  0  0  0  0  0  0  0  0  0  0  0
   -0.1430   24.2980  -27.7070 C   0  0  0  0  0  0  0  0  0  0  0  0
    0.9610   24.1780  -28.0340 N   0  0  0  0  0  0  0  0  0  0  0  0
   -1.7820   23.0670  -30.1960 C   0  0  1  0  0  0  0  0  0  0  0  0
   -0.6840   23.9060  -30.0920 F   0  0  0  0  0  0  0  0  0  0  0  0
   -1.4110   21.8550  -31.0600 C   0  0  0  0  0  0  0  0  0  0  0  0
   -6.1090   21.4600  -32.1080 C   0  0  0  0  0  0  0  0  0  0  0  0
   -6.9780   20.4270  -32.4740 C   0  0  0  0  0  0  0  0  0  0  0  0
   -8.3360   20.5560  -32.1420 C   0  0  0  0  0  0  0  0  0  0  0  0
   -8.8010   21.7030  -31.4710 C   0  0  0  0  0  0  0  0  0  0  0  0
   -7.9130   22.7360  -31.1250 C   0  0  0  0  0  0  0  0  0  0  0  0
   -6.5600   22.5870  -31.4540 C   0  0  0  0  0  0  0  0  0  0  0  0
   -6.1388   25.1683  -28.7037 H   0  0  0  0  0  0  0  0  0  0  0  0
   -6.5277   26.3902  -29.9616 H   0  0  0  0  0  0  0  0  0  0  0  0
   -7.3677   24.8024  -29.9616 H   0  0  0  0  0  0  0  0  0  0  0  0
   -3.3556   23.1235  -31.9057 H   0  0  0  0  0  0  0  0  0  0  0  0
   -4.5391   19.7148  -33.3465 H   0  0  0  0  0  0  0  0  0  0  0  0
   -3.4424   21.0548  -33.8726 H   0  0  0  0  0  0  0  0  0  0  0  0
   -4.0002   20.5885  -29.5396 H   0  0  0  0  0  0  0  0  0  0  0  0
   -2.6688   19.3610  -29.4239 H   0  0  0  0  0  0  0  0  0  0  0  0
   -2.7997   21.1178  -27.5414 H   0  0  0  0  0  0  0  0  0  0  0  0
   -1.2071   20.8838  -28.3419 H   0  0  0  0  0  0  0  0  0  0  0  0
   -4.6614   23.2388  -27.9441 H   0  0  0  0  0  0  0  0  0  0  0  0
   -5.2367   24.9581  -26.2310 H   0  0  0  0  0  0  0  0  0  0  0  0
   -3.4392   26.3509  -25.2030 H   0  0  0  0  0  0  0  0  0  0  0  0
   -1.0620   26.0351  -25.8936 H   0  0  0  0  0  0  0  0  0  0  0  0
   -2.6180   23.5957  -30.6773 H   0  0  0  0  0  0  0  0  0  0  0  0
   -1.3473   22.1658  -32.1133 H   0  0  0  0  0  0  0  0  0  0  0  0
   -0.4407   21.4597  -30.7251 H   0  0  0  0  0  0  0  0  0  0  0  0
   -6.6079   19.5387  -33.0069 H   0  0  0  0  0  0  0  0  0  0  0  0
   -9.0417   19.7552  -32.4080 H   0  0  0  0  0  0  0  0  0  0  0  0
   -9.8673   21.7914  -31.2156 H   0  0  0  0  0  0  0  0  0  0  0  0
   -8.2717   23.6387  -30.6088 H   0  0  0  0  0  0  0  0  0  0  0  0
  1  2  1  0
  2  3  2  0
  2  4  1  0
  4  5  2  0
  5  6  1  0
  6  7  1  0
  7  8  1  0
  8  9  2  0
  8 10  1  0
 10 11  1  0
 11 12  1  0
 12 13  1  0
 13 14  1  0
 14 15  2  0
 15 16  1  0
 16 17  2  0
 17 18  1  0
 18 19  2  0
 19 20  1  0
 20 21  3  0
 13 22  1  0
 22 23  1  0
 22 24  1  0
  6 25  1  0
 25 26  2  0
 26 27  1  0
 27 28  2  0
 28 29  1  0
 29 30  2  0
 30  4  1  0
 24 10  1  0
 30 25  1  0
 19 14  1  0
  1 31  1  0
  1 32  1  0
  1 33  1  0
  5 34  1  0
  7 35  1  0
  7 36  1  0
 11 37  1  0
 11 38  1  0
 12 39  1  0
 12 40  1  0
 15 41  1  0
 16 42  1  0
 17 43  1  0
 18 44  1  0
 22 45  1  6
 24 46  1  0
 24 47  1  0
 26 48  1  0
 27 49  1  0
 28 50  1  0
 29 51  1  0
M  END
>  <UniqueID>  (36) 
34

>  <SMILES>  (36) 
CC(=O)c1cn(CC(=O)N2CCN(c3ccccc3C#N)[C@@H](F)C2)c2ccccc12

>  <Energy>  (36) 
93.67794693257618

>  <Genealogy>  (36) 
CC(=O)c1cn(CC(=O)N2CCN(c3ccccc3C#N)[C@@H](F)C2)c2ccccc12 (chirality)
CC(=O)c1cn(CC(=O)N2CCN(c3ccccc3C#N)[C@@H](F)C2)c2ccccc12 (3D coordinates assigned)
CC(=O)c1cn(CC(=O)N2CCN(c3ccccc3C#N)[C@@H](F)C2)c2ccccc12 (nonaromatic ring conformer: 93.67794693257618 kcal/mol)

>  <smiles>  (36) 
CC(=O)c1cn(CC(=O)N2CCN(c3ccccc3C#N)C(F)C2)c2ccccc12

>  <score_type>  (36) 
oracle

>  <origin>  (36) 
adg

>  <m_score__min__energy>  (36) 
-9.5500000000000007

>  <m_primary>  (36) 
energy

$$$$
36:0
     RDKit          3D

 62 63  0  0  0  0  0  0  0  0999 V2000
   -2.0860   19.7220  -26.5640 C   0  0  0  0  0  0  0  0  0  0  0  0
   -1.2340   21.0010  -26.5280 C   0  0  0  0  0  0  0  0  0  0  0  0
   -0.0170   20.9490  -27.3800 N   0  0  0  0  0  0  0  0  0  0  0  0
    0.0780   19.6910  -28.1560 C   0  0  0  0  0  0  0  0  0  0  0  0
    0.0890   20.0100  -29.6460 C   0  0  0  0  0  0  0  0  0  0  0  0
    0.2120   22.1480  -28.2180 C   0  0  0  0  0  0  0  0  0  0  0  0
    0.3270   23.4210  -27.3750 C   0  0  0  0  0  0  0  0  0  0  0  0
    0.1540   24.5430  -28.2150 O   0  0  0  0  0  0  0  0  0  0  0  0
   -0.9060   25.3410  -27.7260 C   0  0  0  0  0  0  0  0  0  0  0  0
   -2.0560   24.4370  -27.2820 C   0  0  0  0  0  0  0  0  0  0  0  0
   -3.1670   24.4850  -28.2370 N   0  0  0  0  0  0  0  0  0  0  0  0
   -3.3480   23.5580  -29.3290 C   0  0  0  0  0  0  0  0  0  0  0  0
   -2.9250   22.2320  -29.1450 C   0  0  0  0  0  0  0  0  0  0  0  0
   -3.0770   21.2810  -30.1540 C   0  0  0  0  0  0  0  0  0  0  0  0
   -3.6610   21.6350  -31.3730 C   0  0  0  0  0  0  0  0  0  0  0  0
   -3.7840   20.6220  -32.4770 C   0  0  0  0  0  0  0  0  0  0  0  0
   -4.8060   19.6290  -32.1190 N   0  0  0  0  0  0  0  0  0  0  0  0
   -5.8790   19.5590  -33.1230 C   0  0  0  0  0  0  0  0  0  0  0  0
   -7.1220   20.2920  -32.6770 C   0  0  0  0  0  0  0  0  0  0  0  0
   -7.0440   21.6080  -32.1990 C   0  0  0  0  0  0  0  0  0  0  0  0
   -8.2000   22.2630  -31.7670 C   0  0  0  0  0  0  0  0  0  0  0  0
   -9.4230   21.5920  -31.8120 C   0  0  0  0  0  0  0  0  0  0  0  0
   -9.4830   20.3140  -32.2710 N   0  0  0  0  0  0  0  0  0  0  0  0
   -8.3730   19.6550  -32.6980 C   0  0  0  0  0  0  0  0  0  0  0  0
   -4.0650   22.9590  -31.5840 C   0  0  0  0  0  0  0  0  0  0  0  0
   -3.9120   23.9350  -30.5750 C   0  0  0  0  0  0  0  0  0  0  0  0
   -4.2900   25.2690  -30.7980 O   0  0  0  0  0  0  0  0  0  0  0  0
   -5.5690   25.8170  -30.4950 C   0  0  0  0  0  0  0  0  0  0  0  0
   -2.3027   19.3967  -25.5358 H   0  0  0  0  0  0  0  0  0  0  0  0
   -3.0300   19.9250  -27.0910 H   0  0  0  0  0  0  0  0  0  0  0  0
   -1.5350   18.9291  -27.0910 H   0  0  0  0  0  0  0  0  0  0  0  0
   -1.8578   21.8403  -26.8691 H   0  0  0  0  0  0  0  0  0  0  0  0
   -0.8877   21.1200  -25.4907 H   0  0  0  0  0  0  0  0  0  0  0  0
    1.0055   19.1642  -27.8874 H   0  0  0  0  0  0  0  0  0  0  0  0
   -0.7876   19.0527  -27.9251 H   0  0  0  0  0  0  0  0  0  0  0  0
    0.1266   21.1002  -29.7873 H   0  0  0  0  0  0  0  0  0  0  0  0
    0.9718   19.5491  -30.1132 H   0  0  0  0  0  0  0  0  0  0  0  0
   -0.8234   19.6110  -30.1132 H   0  0  0  0  0  0  0  0  0  0  0  0
    1.1443   22.0121  -28.7858 H   0  0  0  0  0  0  0  0  0  0  0  0
   -0.6499   22.2623  -28.8918 H   0  0  0  0  0  0  0  0  0  0  0  0
   -0.4498   23.4195  -26.5961 H   0  0  0  0  0  0  0  0  0  0  0  0
    1.3165   23.4629  -26.8962 H   0  0  0  0  0  0  0  0  0  0  0  0
   -0.5539   25.9350  -26.8697 H   0  0  0  0  0  0  0  0  0  0  0  0
   -1.2547   26.0174  -28.5203 H   0  0  0  0  0  0  0  0  0  0  0  0
   -1.6908   23.4020  -27.2081 H   0  0  0  0  0  0  0  0  0  0  0  0
   -2.4201   24.7904  -26.3060 H   0  0  0  0  0  0  0  0  0  0  0  0
   -3.8110   25.3100  -28.1960 H   0  0  0  0  0  0  0  0  0  0  0  0
   -2.4662   21.9382  -28.1894 H   0  0  0  0  0  0  0  0  0  0  0  0
   -2.7358   20.2483  -29.9894 H   0  0  0  0  0  0  0  0  0  0  0  0
   -4.0756   21.1287  -33.4088 H   0  0  0  0  0  0  0  0  0  0  0  0
   -2.8172   20.1175  -32.6211 H   0  0  0  0  0  0  0  0  0  0  0  0
   -5.2170   19.8820  -31.1910 H   0  0  0  0  0  0  0  0  0  0  0  0
   -5.5184   20.0092  -34.0597 H   0  0  0  0  0  0  0  0  0  0  0  0
   -6.1421   18.5004  -33.2648 H   0  0  0  0  0  0  0  0  0  0  0  0
   -6.0733   22.1243  -32.1642 H   0  0  0  0  0  0  0  0  0  0  0  0
   -8.1468   23.2969  -31.3952 H   0  0  0  0  0  0  0  0  0  0  0  0
  -10.3398   22.0982  -31.4755 H   0  0  0  0  0  0  0  0  0  0  0  0
   -8.4554   18.6199  -33.0609 H   0  0  0  0  0  0  0  0  0  0  0  0
   -4.5081   23.2430  -32.5499 H   0  0  0  0  0  0  0  0  0  0  0  0
   -5.6955   25.8712  -29.4036 H   0  0  0  0  0  0  0  0  0  0  0  0
   -5.6460   26.8271  -30.9237 H   0  0  0  0  0  0  0  0  0  0  0  0
   -6.3535   25.1760  -30.9237 H   0  0  0  0  0  0  0  0  0  0  0  0
  1  2  1  0
  2  3  1  0
  3  4  1  0
  4  5  1  0
  3  6  1  0
  6  7  1  0
  7  8  1  0
  8  9  1  0
  9 10  1  0
 10 11  1  0
 11 12  1  0
 12 13  2  0
 13 14  1  0
 14 15  2  0
 15 16  1  0
 16 17  1  0
 17 18  1  0
 18 19  1  0
 19 20  2  0
 20 21  1  0
 21 22  2  0
 22 23  1  0
 23 24  2  0
 15 25  1  0
 25 26  2  0
 26 27  1  0
 27 28  1  0
 26 12  1  0
 24 19  1  0
  1 29  1  0
  1 30  1  0
  1 31  1  0
  2 32  1  0
  2 33  1  0
  4 34  1  0
  4 35  1  0
  5 36  1  0
  5 37  1  0
  5 38  1  0
  6 39  1  0
  6 40  1  0
  7 41  1  0
  7 42  1  0
  9 43  1  0
  9 44  1  0
 10 45  1  0
 10 46  1  0
 11 47  1  0
 13 48  1  0
 14 49  1  0
 16 50  1  0
 16 51  1  0
 17 52  1  0
 18 53  1  0
 18 54  1  0
 20 55  1  0
 21 56  1  0
 22 57  1  0
 24 58  1  0
 25 59  1  0
 28 60  1  0
 28 61  1  0
 28 62  1  0
M  END
>  <UniqueID>  (37) 
35

>  <SMILES>  (37) 
CCN(CC)CCOCCNc1ccc(CNCc2cccnc2)cc1OC

>  <Energy>  (37) 
62.89319990180322

>  <Genealogy>  (37) 
CCN(CC)CCOCCNc1ccc(CNCc2cccnc2)cc1OC (3D coordinates assigned)
CCN(CC)CCOCCNc1ccc(CNCc2cccnc2)cc1OC (optimized conformer: 62.89319990180322 kcal/mol)

>  <smiles>  (37) 
CCN(CC)CCOCCNc1ccc(CNCc2cccnc2)cc1OC

>  <score_type>  (37) 
oracle

>  <origin>  (37) 
adg

>  <m_score__min__energy>  (37) 
-7.8499999999999996

>  <m_primary>  (37) 
energy

$$$$
37:0
     RDKit          3D

 44 45  0  0  0  0  0  0  0  0999 V2000
   -3.8770   18.5700  -26.3460 C   0  0  0  0  0  0  0  0  0  0  0  0
   -2.4730   19.0460  -25.9870 C   0  0  0  0  0  0  0  0  0  0  0  0
   -1.7670   19.5130  -27.1880 N   0  0  0  0  0  0  0  0  0  0  0  0
   -0.7120   18.6700  -27.7650 C   0  0  0  0  0  0  0  0  0  0  0  0
   -2.0520   20.8230  -27.7350 C   0  0  0  0  0  0  0  0  0  0  0  0
   -1.9210   21.9260  -26.9480 N   0  0  0  0  0  0  0  0  0  0  0  0
   -2.1230   23.1820  -27.4250 C   0  0  0  0  0  0  0  0  0  0  0  0
   -1.9920   24.3470  -26.4880 C   0  0  0  0  0  0  0  0  0  0  0  0
   -2.4730   23.3540  -28.7750 C   0  0  0  0  0  0  0  0  0  0  0  0
   -2.5940   24.6820  -29.3980 C   0  0  0  0  0  0  0  0  0  0  0  0
   -1.9040   25.6340  -28.9490 O   0  0  0  0  0  0  0  0  0  0  0  0
   -3.5270   24.9320  -30.4600 N   0  0  0  0  0  0  0  0  0  0  0  0
   -4.9720   25.1090  -30.3110 C   0  0  0  0  0  0  0  0  0  0  0  0
   -5.7300   23.8830  -30.7500 C   0  0  0  0  0  0  0  0  0  0  0  0
   -5.2950   23.1400  -31.8580 C   0  0  0  0  0  0  0  0  0  0  0  0
   -6.0450   22.0510  -32.3150 C   0  0  0  0  0  0  0  0  0  0  0  0
   -7.2300   21.6820  -31.6600 C   0  0  0  0  0  0  0  0  0  0  0  0
   -8.0750   20.5690  -32.2050 C   0  0  0  0  0  0  0  0  0  0  0  0
   -7.6570   22.4140  -30.5420 C   0  0  0  0  0  0  0  0  0  0  0  0
   -6.9050   23.4990  -30.0820 C   0  0  0  0  0  0  0  0  0  0  0  0
   -2.6600   22.2120  -29.5580 C   0  0  0  0  0  0  0  0  0  0  0  0
   -2.4420   20.9780  -29.0360 N   0  0  0  0  0  0  0  0  0  0  0  0
   -4.4457   18.3772  -25.4243 H   0  0  0  0  0  0  0  0  0  0  0  0
   -4.3873   19.3454  -26.9363 H   0  0  0  0  0  0  0  0  0  0  0  0
   -3.8105   17.6442  -26.9363 H   0  0  0  0  0  0  0  0  0  0  0  0
   -2.5443   19.8723  -25.2644 H   0  0  0  0  0  0  0  0  0  0  0  0
   -1.9134   18.2068  -25.5482 H   0  0  0  0  0  0  0  0  0  0  0  0
   -0.1303   18.2052  -26.9554 H   0  0  0  0  0  0  0  0  0  0  0  0
   -1.1684   17.8850  -28.3859 H   0  0  0  0  0  0  0  0  0  0  0  0
   -0.0471   19.2884  -28.3859 H   0  0  0  0  0  0  0  0  0  0  0  0
   -2.0323   23.9882  -25.4490 H   0  0  0  0  0  0  0  0  0  0  0  0
   -1.0313   24.8530  -26.6641 H   0  0  0  0  0  0  0  0  0  0  0  0
   -2.8163   25.0537  -26.6641 H   0  0  0  0  0  0  0  0  0  0  0  0
   -5.1998   25.3098  -29.2537 H   0  0  0  0  0  0  0  0  0  0  0  0
   -5.2825   25.9511  -30.9470 H   0  0  0  0  0  0  0  0  0  0  0  0
   -4.3606   23.4149  -32.3693 H   0  0  0  0  0  0  0  0  0  0  0  0
   -5.7042   21.4812  -33.1920 H   0  0  0  0  0  0  0  0  0  0  0  0
   -8.5094   19.9968  -31.3720 H   0  0  0  0  0  0  0  0  0  0  0  0
   -8.8830   20.9901  -32.8213 H   0  0  0  0  0  0  0  0  0  0  0  0
   -7.4523   19.9039  -32.8213 H   0  0  0  0  0  0  0  0  0  0  0  0
   -8.5868   22.1332  -30.0255 H   0  0  0  0  0  0  0  0  0  0  0  0
   -7.2350   24.0552  -29.1922 H   0  0  0  0  0  0  0  0  0  0  0  0
   -2.9858   22.3135  -30.6037 H   0  0  0  0  0  0  0  0  0  0  0  0
   -2.5680   20.1560  -29.6680 H   0  0  0  0  0  0  0  0  0  0  0  0
  1  2  1  0
  2  3  1  0
  3  4  1  0
  3  5  1  0
  5  6  2  0
  6  7  1  0
  7  8  1  0
  7  9  2  0
  9 10  1  0
 10 11  2  0
 10 12  1  0
 12 13  1  0
 13 14  1  0
 14 15  2  0
 15 16  1  0
 16 17  2  0
 17 18  1  0
 17 19  1  0
 19 20  2  0
  9 21  1  0
 21 22  2  0
 22  5  1  0
 20 14  1  0
  1 23  1  0
  1 24  1  0
  1 25  1  0
  2 26  1  0
  2 27  1  0
  4 28  1  0
  4 29  1  0
  4 30  1  0
  8 31  1  0
  8 32  1  0
  8 33  1  0
 13 34  1  0
 13 35  1  0
 15 36  1  0
 16 37  1  0
 18 38  1  0
 18 39  1  0
 18 40  1  0
 19 41  1  0
 20 42  1  0
 21 43  1  0
 22 44  1  0
M  CHG  2  12  -1  22   1
M  END
>  <UniqueID>  (38) 
36

>  <SMILES>  (38) 
CCN(C)c1nc(C)c(C(=O)[N-]Cc2ccc(C)cc2)c[nH+]1

>  <Energy>  (38) 
41.86780113164342

>  <Genealogy>  (38) 
CCN(C)c1nc(C)c(C(=O)[N-]Cc2ccc(C)cc2)c[nH+]1 (protonated)
CCN(C)c1nc(C)c(C(=O)[N-]Cc2ccc(C)cc2)c[nH+]1 (3D coordinates assigned)
CCN(C)c1nc(C)c(C(=O)[N-]Cc2ccc(C)cc2)c[nH+]1 (optimized conformer: 41.86780113164342 kcal/mol)

>  <smiles>  (38) 
CCN(C)c1ncc(C(=O)NCc2ccc(C)cc2)c(C)n1

>  <score_type>  (38) 
oracle

>  <origin>  (38) 
adg

>  <m_score__min__energy>  (38) 
-8.9199999999999999

>  <m_primary>  (38) 
energy

$$$$
38:0
     RDKit          3D

 72 74  0  0  1  0  0  0  0  0999 V2000
   -5.7020   18.1890  -34.8570 C   0  0  0  0  0  0  0  0  0  0  0  0
   -5.6000   17.3180  -33.6010 C   0  0  0  0  0  0  0  0  0  0  0  0
   -5.6670   18.1860  -32.5400 O   0  0  0  0  0  0  0  0  0  0  0  0
   -6.4840   17.6970  -31.5430 C   0  0  0  0  0  0  0  0  0  0  0  0
   -7.8480   18.2740  -31.6040 C   0  0  0  0  0  0  0  0  0  0  0  0
   -8.0480   18.9430  -32.7930 O   0  0  0  0  0  0  0  0  0  0  0  0
   -8.9400   19.9710  -32.6460 C   0  0  0  0  0  0  0  0  0  0  0  0
   -8.3180   21.2240  -32.1900 N   0  0  0  0  0  0  0  0  0  0  0  0
   -8.9040   22.2980  -31.6400 C   0  0  0  0  0  0  0  0  0  0  0  0
   -7.9890   23.2520  -31.3650 N   0  0  0  0  0  0  0  0  0  0  0  0
   -6.7810   22.7850  -31.7450 C   0  0  0  0  0  0  0  0  0  0  0  0
   -4.6700   21.3800  -32.6610 C   0  0  0  0  0  0  0  0  0  0  0  0
   -3.6900   20.6840  -33.0990 N   0  0  0  0  0  0  0  0  0  0  0  0
   -5.4730   24.8330  -29.8430 C   0  0  0  0  0  0  0  0  0  0  0  0
   -4.2290   24.4050  -29.1060 C   0  0  0  0  0  0  0  0  0  0  0  0
   -4.2370   24.2460  -27.7360 C   0  0  0  0  0  0  0  0  0  0  0  0
   -3.0570   23.8500  -27.1050 C   0  0  0  0  0  0  0  0  0  0  0  0
   -1.8970   23.6200  -27.8510 C   0  0  0  0  0  0  0  0  0  0  0  0
   -1.8850   23.7790  -29.2250 C   0  0  0  0  0  0  0  0  0  0  0  0
   -3.0510   24.1660  -29.8200 C   0  0  0  0  0  0  0  0  0  0  0  0
   -4.4370   22.6140  -32.1640 N   0  0  0  0  0  0  0  0  0  0  0  0
   -5.4990   23.2930  -31.7160 C   0  0  0  0  0  0  0  0  0  0  0  0
   -5.3240   24.4700  -31.2400 N   0  0  0  0  0  0  0  0  0  0  0  0
   -2.3810   20.8250  -32.5320 C   0  0  0  0  0  0  0  0  0  0  0  0
   -1.7730   21.8930  -32.8670 O   0  0  0  0  0  0  0  0  0  0  0  0
   -1.8130   19.8020  -31.6440 C   0  0  0  0  0  0  0  0  0  0  0  0
   -1.2480   20.3880  -30.4080 C   0  0  0  0  0  0  0  0  0  0  0  0
   -2.0140   20.4260  -29.1570 C   0  0  0  0  0  0  0  0  0  0  0  0
   -1.2180   20.2530  -27.9730 N   0  0  0  0  0  0  0  0  0  0  0  0
   -0.7370   18.8180  -27.9670 C   0  0  0  0  0  0  0  0  0  0  0  0
    0.7470   18.7520  -28.0250 C   0  0  0  0  0  0  0  0  0  0  0  0
   -2.1120   20.2860  -26.7730 C   0  0  0  0  0  0  0  0  0  0  0  0
   -2.7960   18.9500  -26.5720 C   0  0  0  0  0  0  0  0  0  0  0  0
   -5.9090   20.8610  -32.7020 N   0  0  0  0  0  0  0  0  0  0  0  0
   -6.9880   21.5170  -32.2610 C   0  0  0  0  0  0  0  0  0  0  0  0
   -5.8253   19.2420  -34.5639 H   0  0  0  0  0  0  0  0  0  0  0  0
   -4.7849   18.0797  -35.4545 H   0  0  0  0  0  0  0  0  0  0  0  0
   -6.5690   17.8707  -35.4545 H   0  0  0  0  0  0  0  0  0  0  0  0
   -6.4333   16.6009  -33.5630 H   0  0  0  0  0  0  0  0  0  0  0  0
   -4.6690   16.7323  -33.5879 H   0  0  0  0  0  0  0  0  0  0  0  0
   -6.5564   16.6044  -31.6483 H   0  0  0  0  0  0  0  0  0  0  0  0
   -6.0415   17.9773  -30.5757 H   0  0  0  0  0  0  0  0  0  0  0  0
   -8.5860   17.4628  -31.5190 H   0  0  0  0  0  0  0  0  0  0  0  0
   -7.9641   18.9884  -30.7757 H   0  0  0  0  0  0  0  0  0  0  0  0
   -9.4232   20.1548  -33.6169 H   0  0  0  0  0  0  0  0  0  0  0  0
   -9.6614   19.6668  -31.8734 H   0  0  0  0  0  0  0  0  0  0  0  0
   -9.9819   22.3890  -31.4404 H   0  0  0  0  0  0  0  0  0  0  0  0
   -5.6020   25.9217  -29.7536 H   0  0  0  0  0  0  0  0  0  0  0  0
   -6.3562   24.3363  -29.4150 H   0  0  0  0  0  0  0  0  0  0  0  0
   -5.1527   24.4272  -27.1540 H   0  0  0  0  0  0  0  0  0  0  0  0
   -3.0393   23.7179  -26.0131 H   0  0  0  0  0  0  0  0  0  0  0  0
   -0.9770   23.3068  -27.3357 H   0  0  0  0  0  0  0  0  0  0  0  0
   -0.9732   23.6009  -29.8140 H   0  0  0  0  0  0  0  0  0  0  0  0
   -3.0644   24.2959  -30.9122 H   0  0  0  0  0  0  0  0  0  0  0  0
   -3.4900   23.0190  -32.1290 H   0  0  0  0  0  0  0  0  0  0  0  0
   -2.6062   19.0913  -31.3689 H   0  0  0  0  0  0  0  0  0  0  0  0
   -0.9968   19.3003  -32.1844 H   0  0  0  0  0  0  0  0  0  0  0  0
   -0.3275   19.8263  -30.1911 H   0  0  0  0  0  0  0  0  0  0  0  0
   -1.1670   21.4538  -30.6677 H   0  0  0  0  0  0  0  0  0  0  0  0
   -2.5210   21.4001  -29.0925 H   0  0  0  0  0  0  0  0  0  0  0  0
   -2.7172   19.5808  -29.1913 H   0  0  0  0  0  0  0  0  0  0  0  0
   -1.0830   18.3267  -27.0456 H   0  0  0  0  0  0  0  0  0  0  0  0
   -1.1448   18.3086  -28.8525 H   0  0  0  0  0  0  0  0  0  0  0  0
    1.1534   18.7339  -27.0030 H   0  0  0  0  0  0  0  0  0  0  0  0
    1.0529   17.8394  -28.5575 H   0  0  0  0  0  0  0  0  0  0  0  0
    1.1327   19.6339  -28.5575 H   0  0  0  0  0  0  0  0  0  0  0  0
   -1.5107   20.5204  -25.8822 H   0  0  0  0  0  0  0  0  0  0  0  0
   -2.8825   21.0553  -26.9297 H   0  0  0  0  0  0  0  0  0  0  0  0
   -2.8989   18.7490  -25.4954 H   0  0  0  0  0  0  0  0  0  0  0  0
   -3.7924   18.9745  -27.0373 H   0  0  0  0  0  0  0  0  0  0  0  0
   -2.1935   18.1559  -27.0373 H   0  0  0  0  0  0  0  0  0  0  0  0
   -6.0870   19.8930  -33.0920 H   0  0  0  0  0  0  0  0  0  0  0  0
  1  2  1  0
  2  3  1  0
  3  4  1  0
  4  5  1  0
  5  6  1  0
  6  7  1  0
  7  8  1  0
  8  9  1  0
  9 10  2  0
 10 11  1  0
 11 12  1  0
 12 13  2  0
 13 14  1  0
 14 15  1  0
 15 16  2  0
 16 17  1  0
 17 18  2  0
 18 19  1  0
 19 20  2  0
 12 21  1  0
 21 22  1  0
 22 23  2  0
 23 24  1  0
 24 25  2  0
 24 26  1  0
 26 27  1  0
 27 28  1  0
 28 29  1  0
 29 30  1  0
 30 31  1  0
 29 32  1  0
 32 33  1  0
 22 34  1  0
 34 35  1  0
 35  8  1  0
 35 11  2  0
 20 15  1  0
  1 36  1  0
  1 37  1  0
  1 38  1  0
  2 39  1  0
  2 40  1  0
  4 41  1  0
  4 42  1  0
  5 43  1  0
  5 44  1  0
  7 45  1  0
  7 46  1  0
  9 47  1  0
 14 48  1  0
 14 49  1  0
 16 50  1  0
 17 51  1  0
 18 52  1  0
 19 53  1  0
 20 54  1  0
 21 55  1  0
 26 56  1  0
 26 57  1  0
 27 58  1  0
 27 59  1  0
 28 60  1  0
 28 61  1  0
 30 62  1  0
 30 63  1  0
 31 64  1  0
 31 65  1  0
 31 66  1  0
 32 67  1  0
 32 68  1  0
 33 69  1  0
 33 70  1  0
 33 71  1  0
 34 72  1  0
M  END
>  <smiles>  (39) 
CCOCCOCn1cnc2c(=NCc3ccccc3)[nH]c(=NC(=O)CCCN(CC)CC)[nH]c21

>  <score_type>  (39) 
oracle

>  <origin>  (39) 
adg

>  <m_score__min__energy>  (39) 
-8.4199999999999999

>  <m_primary>  (39) 
energy

$$$$
39:0
     RDKit          3D

 38 40  0  0  0  0  0  0  0  0999 V2000
   -3.2490   23.7610  -30.4720 C   0  0  0  0  0  0  0  0  0  0  0  0
   -3.9470   25.0460  -30.5280 N   0  0  0  0  0  0  0  0  0  0  0  0
   -5.1650   25.0000  -29.7100 C   0  0  0  0  0  0  0  0  0  0  0  0
   -6.4130   24.9150  -30.6010 C   0  0  0  0  0  0  0  0  0  0  0  0
   -6.1780   24.1330  -31.9060 C   0  0  0  0  0  0  0  0  0  0  0  0
   -6.9930   22.8540  -31.9660 C   0  0  0  0  0  0  0  0  0  0  0  0
   -8.3060   22.9220  -31.6020 N   0  0  0  0  0  0  0  0  0  0  0  0
   -9.1100   21.8330  -31.6020 C   0  0  0  0  0  0  0  0  0  0  0  0
   -8.6180   20.5880  -31.9760 C   0  0  0  0  0  0  0  0  0  0  0  0
   -7.2660   20.4400  -32.3570 C   0  0  0  0  0  0  0  0  0  0  0  0
   -6.4350   21.6000  -32.3460 C   0  0  0  0  0  0  0  0  0  0  0  0
   -5.0810   21.4770  -32.7100 C   0  0  0  0  0  0  0  0  0  0  0  0
   -4.5450   20.2510  -33.0820 C   0  0  0  0  0  0  0  0  0  0  0  0
   -5.3400   19.1050  -33.1040 C   0  0  0  0  0  0  0  0  0  0  0  0
   -4.7670   17.8810  -33.4870 C   0  0  0  0  0  0  0  0  0  0  0  0
   -5.5370   16.7220  -33.5180 C   0  0  0  0  0  0  0  0  0  0  0  0
   -6.8830   16.7710  -33.1700 C   0  0  0  0  0  0  0  0  0  0  0  0
   -7.4710   17.9790  -32.7870 C   0  0  0  0  0  0  0  0  0  0  0  0
   -6.7140   19.1780  -32.7430 C   0  0  0  0  0  0  0  0  0  0  0  0
   -3.0931   23.4739  -29.4216 H   0  0  0  0  0  0  0  0  0  0  0  0
   -3.8539   22.9929  -30.9761 H   0  0  0  0  0  0  0  0  0  0  0  0
   -2.2754   23.8503  -30.9761 H   0  0  0  0  0  0  0  0  0  0  0  0
   -4.2280   25.2100  -31.5230 H   0  0  0  0  0  0  0  0  0  0  0  0
   -5.1275   24.1167  -29.0555 H   0  0  0  0  0  0  0  0  0  0  0  0
   -5.2219   25.9186  -29.1075 H   0  0  0  0  0  0  0  0  0  0  0  0
   -7.2131   24.4161  -30.0344 H   0  0  0  0  0  0  0  0  0  0  0  0
   -6.6831   25.9436  -30.8820 H   0  0  0  0  0  0  0  0  0  0  0  0
   -6.4588   24.7716  -32.7565 H   0  0  0  0  0  0  0  0  0  0  0  0
   -5.1141   23.8562  -31.9454 H   0  0  0  0  0  0  0  0  0  0  0  0
   -8.7210   23.8340  -31.3060 H   0  0  0  0  0  0  0  0  0  0  0  0
  -10.1637   21.9344  -31.3029 H   0  0  0  0  0  0  0  0  0  0  0  0
   -9.2851   19.7134  -31.9753 H   0  0  0  0  0  0  0  0  0  0  0  0
   -4.4358   22.3678  -32.6997 H   0  0  0  0  0  0  0  0  0  0  0  0
   -3.4834   20.1830  -33.3620 H   0  0  0  0  0  0  0  0  0  0  0  0
   -3.7033   17.8382  -33.7641 H   0  0  0  0  0  0  0  0  0  0  0  0
   -5.0811   15.7669  -33.8178 H   0  0  0  0  0  0  0  0  0  0  0  0
   -7.4881   15.8528  -33.1966 H   0  0  0  0  0  0  0  0  0  0  0  0
   -8.5368   18.0008  -32.5155 H   0  0  0  0  0  0  0  0  0  0  0  0
  1  2  1  0
  2  3  1  0
  3  4  1  0
  4  5  1  0
  5  6  1  0
  6  7  2  0
  7  8  1  0
  8  9  2  0
  9 10  1  0
 10 11  2  0
 11 12  1  0
 12 13  2  0
 13 14  1  0
 14 15  2  0
 15 16  1  0
 16 17  2  0
 17 18  1  0
 18 19  2  0
 11  6  1  0
 19 14  1  0
 19 10  1  0
  1 20  1  0
  1 21  1  0
  1 22  1  0
  2 23  1  0
  3 24  1  0
  3 25  1  0
  4 26  1  0
  4 27  1  0
  5 28  1  0
  5 29  1  0
  7 30  1  0
  8 31  1  0
  9 32  1  0
 12 33  1  0
 13 34  1  0
 15 35  1  0
 16 36  1  0
 17 37  1  0
 18 38  1  0
M  CHG  1   7   1
M  END
>  <UniqueID>  (40) 
37

>  <SMILES>  (40) 
CNCCCc1[nH+]ccc2c1ccc1ccccc12

>  <Energy>  (40) 
48.23829283150529

>  <Genealogy>  (40) 
CNCCCc1[nH+]ccc2c1ccc1ccccc12 (protonated)
CNCCCc1[nH+]ccc2c1ccc1ccccc12 (3D coordinates assigned)
CNCCCc1[nH+]ccc2c1ccc1ccccc12 (optimized conformer: 48.23829283150529 kcal/mol)

>  <smiles>  (40) 
CNCCCc1nccc2c1ccc1ccccc12

>  <score_type>  (40) 
oracle

>  <origin>  (40) 
adg

>  <m_score__min__energy>  (40) 
-8.3100000000000005

>  <m_primary>  (40) 
energy

$$$$
40:0
     RDKit          3D

 44 46  0  0  0  0  0  0  0  0999 V2000
   -8.8350   19.8850  -31.3290 C   0  0  0  0  0  0  0  0  0  0  0  0
   -8.1780   20.7560  -32.4020 C   0  0  0  0  0  0  0  0  0  0  0  0
   -6.7070   20.8300  -32.2060 N   0  0  0  0  0  0  0  0  0  0  0  0
   -5.9070   19.7400  -32.5200 C   0  0  0  0  0  0  0  0  0  0  0  0
   -6.4640   18.4130  -33.0080 C   0  0  0  0  0  0  0  0  0  0  0  0
   -6.4570   18.3730  -34.4750 N   0  0  0  0  0  0  0  0  0  0  0  0
   -5.1330   18.0090  -34.9980 C   0  0  0  0  0  0  0  0  0  0  0  0
   -4.6080   16.7950  -34.2780 C   0  0  0  0  0  0  0  0  0  0  0  0
   -3.3160   16.7930  -33.7280 C   0  0  0  0  0  0  0  0  0  0  0  0
   -2.8550   15.6780  -33.0200 C   0  0  0  0  0  0  0  0  0  0  0  0
   -3.6820   14.5620  -32.8540 C   0  0  0  0  0  0  0  0  0  0  0  0
   -3.2340   13.4840  -32.1640 F   0  0  0  0  0  0  0  0  0  0  0  0
   -4.9700   14.5610  -33.3960 C   0  0  0  0  0  0  0  0  0  0  0  0
   -5.4340   15.6720  -34.1050 C   0  0  0  0  0  0  0  0  0  0  0  0
   -4.5140   19.8260  -32.3970 C   0  0  0  0  0  0  0  0  0  0  0  0
   -3.9150   20.9880  -31.9420 C   0  0  0  0  0  0  0  0  0  0  0  0
   -2.6590   21.0300  -31.8380 O   0  0  0  0  0  0  0  0  0  0  0  0
   -4.7060   22.0910  -31.6050 C   0  0  0  0  0  0  0  0  0  0  0  0
   -4.1080   23.2780  -31.1360 C   0  0  0  0  0  0  0  0  0  0  0  0
   -4.8870   24.3880  -30.8030 C   0  0  0  0  0  0  0  0  0  0  0  0
   -4.2690   25.5870  -30.3280 N   0  0  0  0  0  0  0  0  0  0  0  0
   -6.2730   24.3190  -30.9390 C   0  0  0  0  0  0  0  0  0  0  0  0
   -6.8830   23.1530  -31.4020 C   0  0  0  0  0  0  0  0  0  0  0  0
   -6.1200   22.0060  -31.7460 C   0  0  0  0  0  0  0  0  0  0  0  0
   -8.5545   20.2569  -30.3325 H   0  0  0  0  0  0  0  0  0  0  0  0
   -9.9284   19.9269  -31.4416 H   0  0  0  0  0  0  0  0  0  0  0  0
   -8.4944   18.8452  -31.4416 H   0  0  0  0  0  0  0  0  0  0  0  0
   -8.3870   20.3247  -33.3921 H   0  0  0  0  0  0  0  0  0  0  0  0
   -8.5914   21.7726  -32.3273 H   0  0  0  0  0  0  0  0  0  0  0  0
   -5.8435   17.5925  -32.6185 H   0  0  0  0  0  0  0  0  0  0  0  0
   -7.4980   18.3024  -32.6494 H   0  0  0  0  0  0  0  0  0  0  0  0
   -6.6840   19.3360  -34.8200 H   0  0  0  0  0  0  0  0  0  0  0  0
   -5.2145   17.7878  -36.0725 H   0  0  0  0  0  0  0  0  0  0  0  0
   -4.4403   18.8488  -34.8402 H   0  0  0  0  0  0  0  0  0  0  0  0
   -2.6647   17.6704  -33.8542 H   0  0  0  0  0  0  0  0  0  0  0  0
   -1.8411   15.6788  -32.5934 H   0  0  0  0  0  0  0  0  0  0  0  0
   -5.6201   13.6835  -33.2642 H   0  0  0  0  0  0  0  0  0  0  0  0
   -6.4490   15.6673  -34.5289 H   0  0  0  0  0  0  0  0  0  0  0  0
   -3.8897   18.9609  -32.6649 H   0  0  0  0  0  0  0  0  0  0  0  0
   -3.0143   23.3306  -31.0310 H   0  0  0  0  0  0  0  0  0  0  0  0
   -4.5840   26.0350  -29.4390 H   0  0  0  0  0  0  0  0  0  0  0  0
   -3.4910   26.0360  -30.8610 H   0  0  0  0  0  0  0  0  0  0  0  0
   -6.8906   25.1913  -30.6790 H   0  0  0  0  0  0  0  0  0  0  0  0
   -7.9779   23.1215  -31.5027 H   0  0  0  0  0  0  0  0  0  0  0  0
  1  2  1  0
  2  3  1  0
  3  4  1  0
  4  5  1  0
  5  6  1  0
  6  7  1  0
  7  8  1  0
  8  9  2  0
  9 10  1  0
 10 11  2  0
 11 12  1  0
 11 13  1  0
 13 14  2  0
  4 15  2  0
 15 16  1  0
 16 17  2  0
 16 18  1  0
 18 19  2  0
 19 20  1  0
 20 21  1  0
 20 22  2  0
 22 23  1  0
 23 24  2  0
 24  3  1  0
 14  8  1  0
 24 18  1  0
  1 25  1  0
  1 26  1  0
  1 27  1  0
  2 28  1  0
  2 29  1  0
  5 30  1  0
  5 31  1  0
  6 32  1  0
  7 33  1  0
  7 34  1  0
  9 35  1  0
 10 36  1  0
 13 37  1  0
 14 38  1  0
 15 39  1  0
 19 40  1  0
 21 41  1  0
 21 42  1  0
 22 43  1  0
 23 44  1  0
M  END
>  <UniqueID>  (41) 
38

>  <SMILES>  (41) 
CCn1c(CNCc2ccc(F)cc2)cc(=O)c2cc(N)ccc21

>  <Energy>  (41) 
55.14290659890381

>  <Genealogy>  (41) 
CCn1c(CNCc2ccc(F)cc2)cc(=O)c2cc(N)ccc21 (3D coordinates assigned)
CCn1c(CNCc2ccc(F)cc2)cc(=O)c2cc(N)ccc21 (optimized conformer: 55.14290659890381 kcal/mol)

>  <smiles>  (41) 
CCn1c(CNCc2ccc(F)cc2)cc(=O)c2cc(N)ccc21

>  <score_type>  (41) 
oracle

>  <origin>  (41) 
adg

>  <m_score__min__energy>  (41) 
-8.0999999999999996

>  <m_primary>  (41) 
energy

$$$$
