0:0
     RDKit          3D

 32 33  0  0  0  0  0  0  0  0999 V2000
   -3.8910   24.1730  -28.0790 C   0  0  0  0  0  0  0  0  0  0  0  0
   -3.0180   24.5480  -29.2660 C   0  0  0  0  0  0  0  0  0  0  0  0
   -3.8250   24.6340  -30.4340 O   0  0  0  0  0  0  0  0  0  0  0  0
   -4.9210   23.8210  -30.7790 C   0  0  0  0  0  0  0  0  0  0  0  0
   -6.1210   24.4950  -31.0450 C   0  0  0  0  0  0  0  0  0  0  0  0
   -7.2740   23.8020  -31.4150 C   0  0  0  0  0  0  0  0  0  0  0  0
   -7.2500   22.4100  -31.5130 C   0  0  0  0  0  0  0  0  0  0  0  0
   -8.7360   21.5200  -31.9810 S   0  0  0  0  0  0  0  0  0  0  0  0
   -7.8200   20.0640  -32.5130 C   0  0  0  0  0  0  0  0  0  0  0  0
   -6.8580   20.2150  -33.5220 C   0  0  0  0  0  0  0  0  0  0  0  0
   -6.1400   19.1110  -33.9850 C   0  0  0  0  0  0  0  0  0  0  0  0
   -6.3730   17.8450  -33.4390 C   0  0  0  0  0  0  0  0  0  0  0  0
   -5.3930   16.3350  -34.0760 Br  0  0  0  0  0  0  0  0  0  0  0  0
   -7.3220   17.6860  -32.4240 C   0  0  0  0  0  0  0  0  0  0  0  0
   -8.0480   18.7900  -31.9480 C   0  0  0  0  0  0  0  0  0  0  0  0
   -8.9980   18.5980  -30.8910 N   0  0  0  0  0  0  0  0  0  0  0  0
   -6.0680   21.7160  -31.2460 C   0  0  0  0  0  0  0  0  0  0  0  0
   -4.9000   22.3980  -30.8710 C   0  0  0  0  0  0  0  0  0  0  0  0
   -3.3930   21.2790  -30.4650 Br  0  0  0  0  0  0  0  0  0  0  0  0
   -3.3576   24.4021  -27.1447 H   0  0  0  0  0  0  0  0  0  0  0  0
   -4.8280   24.7480  -28.1168 H   0  0  0  0  0  0  0  0  0  0  0  0
   -4.1190   23.0976  -28.1168 H   0  0  0  0  0  0  0  0  0  0  0  0
   -2.5394   25.5203  -29.0776 H   0  0  0  0  0  0  0  0  0  0  0  0
   -2.2421   23.7816  -29.4096 H   0  0  0  0  0  0  0  0  0  0  0  0
   -6.1542   25.5912  -30.9604 H   0  0  0  0  0  0  0  0  0  0  0  0
   -8.2018   24.3526  -31.6294 H   0  0  0  0  0  0  0  0  0  0  0  0
   -6.6679   21.2097  -33.9514 H   0  0  0  0  0  0  0  0  0  0  0  0
   -5.3903   19.2371  -34.7800 H   0  0  0  0  0  0  0  0  0  0  0  0
   -7.5011   16.6889  -31.9954 H   0  0  0  0  0  0  0  0  0  0  0  0
   -9.5380   17.7070  -30.8190 H   0  0  0  0  0  0  0  0  0  0  0  0
   -9.1540   19.3150  -30.1490 H   0  0  0  0  0  0  0  0  0  0  0  0
   -6.0521   20.6194  -31.3308 H   0  0  0  0  0  0  0  0  0  0  0  0
  1  2  1  0
  2  3  1  0
  3  4  1  0
  4  5  2  0
  5  6  1  0
  6  7  2  0
  7  8  1  0
  8  9  1  0
  9 10  2  0
 10 11  1  0
 11 12  2  0
 12 13  1  0
 12 14  1  0
 14 15  2  0
 15 16  1  0
  7 17  1  0
 17 18  2  0
 18 19  1  0
 18  4  1  0
 15  9  1  0
  1 20  1  0
  1 21  1  0
  1 22  1  0
  2 23  1  0
  2 24  1  0
  5 25  1  0
  6 26  1  0
 10 27  1  0
 11 28  1  0
 14 29  1  0
 16 30  1  0
 16 31  1  0
 17 32  1  0
M  END
>  <UniqueID>  (1) 
1

>  <SMILES>  (1) 
CCOc1ccc(Sc2ccc(Br)cc2N)cc1Br

>  <Energy>  (1) 
31.674516368630215

>  <Genealogy>  (1) 
CCOc1ccc(Sc2ccc(Br)cc2N)cc1Br (3D coordinates assigned)
CCOc1ccc(Sc2ccc(Br)cc2N)cc1Br (optimized conformer: 31.674516368630215 kcal/mol)

>  <smiles>  (1) 
CCOc1ccc(Sc2ccc(Br)cc2N)cc1Br

>  <score_type>  (1) 
oracle

>  <origin>  (1) 
adg

>  <m_score__min__energy>  (1) 
-8.1799999999999997

>  <m_primary>  (1) 
energy

$$$$
1:0
     RDKit          3D

 53 56  0  0  0  0  0  0  0  0999 V2000
   -9.4660   22.0410  -31.8920 C   0  0  0  0  0  0  0  0  0  0  0  0
   -8.5990   23.2850  -32.0340 C   0  0  0  0  0  0  0  0  0  0  0  0
   -7.1850   22.9400  -31.8830 N   0  0  0  0  0  0  0  0  0  0  0  0
   -6.5410   21.9390  -32.5300 C   0  0  0  0  0  0  0  0  0  0  0  0
   -5.2280   21.8470  -32.0850 C   0  0  0  0  0  0  0  0  0  0  0  0
   -4.2180   20.8120  -32.4810 C   0  0  0  0  0  0  0  0  0  0  0  0
   -4.4810   19.4950  -31.7280 C   0  0  0  0  0  0  0  0  0  0  0  0
   -4.5970   18.3200  -32.6340 N   0  0  0  0  0  0  0  0  0  0  0  0
   -5.7370   17.4310  -32.3080 C   0  0  0  0  0  0  0  0  0  0  0  0
   -7.1020   18.1220  -32.5270 C   0  0  0  0  0  0  0  0  0  0  0  0
   -7.0210   19.2270  -33.4950 N   0  0  0  0  0  0  0  0  0  0  0  0
   -6.1030   18.9070  -34.5900 C   0  0  0  0  0  0  0  0  0  0  0  0
   -4.6610   18.7400  -34.0610 C   0  0  0  0  0  0  0  0  0  0  0  0
   -5.0920   22.8150  -31.1090 C   0  0  0  0  0  0  0  0  0  0  0  0
   -4.0110   23.1340  -30.2900 C   0  0  0  0  0  0  0  0  0  0  0  0
   -4.1760   24.1600  -29.3310 C   0  0  0  0  0  0  0  0  0  0  0  0
   -3.0550   24.5270  -28.4270 C   0  0  0  0  0  0  0  0  0  0  0  0
   -3.2630   24.6380  -27.0380 C   0  0  0  0  0  0  0  0  0  0  0  0
   -2.2060   24.9800  -26.1900 C   0  0  0  0  0  0  0  0  0  0  0  0
   -0.9330   25.2160  -26.7150 C   0  0  0  0  0  0  0  0  0  0  0  0
   -0.7140   25.1080  -28.0900 C   0  0  0  0  0  0  0  0  0  0  0  0
   -1.7680   24.7660  -28.9430 C   0  0  0  0  0  0  0  0  0  0  0  0
   -5.4260   24.8280  -29.2340 C   0  0  0  0  0  0  0  0  0  0  0  0
   -6.4990   24.4780  -30.0740 C   0  0  0  0  0  0  0  0  0  0  0  0
   -6.2960   23.4610  -31.0090 C   0  0  0  0  0  0  0  0  0  0  0  0
   -9.6194   21.8208  -30.8252 H   0  0  0  0  0  0  0  0  0  0  0  0
  -10.4392   22.2154  -32.3741 H   0  0  0  0  0  0  0  0  0  0  0  0
   -8.9655   21.1883  -32.3741 H   0  0  0  0  0  0  0  0  0  0  0  0
   -8.7601   23.7278  -33.0280 H   0  0  0  0  0  0  0  0  0  0  0  0
   -8.8766   24.0053  -31.2504 H   0  0  0  0  0  0  0  0  0  0  0  0
   -6.9924   21.2924  -33.2969 H   0  0  0  0  0  0  0  0  0  0  0  0
   -4.2885   20.6315  -33.5638 H   0  0  0  0  0  0  0  0  0  0  0  0
   -3.2122   21.1764  -32.2250 H   0  0  0  0  0  0  0  0  0  0  0  0
   -3.6496   19.3184  -31.0298 H   0  0  0  0  0  0  0  0  0  0  0  0
   -5.4420   19.6022  -31.2037 H   0  0  0  0  0  0  0  0  0  0  0  0
   -3.7210   17.7550  -32.5200 H   0  0  0  0  0  0  0  0  0  0  0  0
   -5.6850   16.5394  -32.9501 H   0  0  0  0  0  0  0  0  0  0  0  0
   -5.6619   17.1648  -31.2433 H   0  0  0  0  0  0  0  0  0  0  0  0
   -7.8196   17.3767  -32.9006 H   0  0  0  0  0  0  0  0  0  0  0  0
   -7.4240   18.5428  -31.5630 H   0  0  0  0  0  0  0  0  0  0  0  0
   -7.9740   19.3800  -33.9000 H   0  0  0  0  0  0  0  0  0  0  0  0
   -6.4234   17.9694  -35.0678 H   0  0  0  0  0  0  0  0  0  0  0  0
   -6.1198   19.7310  -35.3185 H   0  0  0  0  0  0  0  0  0  0  0  0
   -4.1522   17.9791  -34.6711 H   0  0  0  0  0  0  0  0  0  0  0  0
   -4.1747   19.7242  -34.1308 H   0  0  0  0  0  0  0  0  0  0  0  0
   -3.0535   22.6013  -30.3869 H   0  0  0  0  0  0  0  0  0  0  0  0
   -4.2632   24.4544  -26.6185 H   0  0  0  0  0  0  0  0  0  0  0  0
   -2.3768   25.0636  -25.1066 H   0  0  0  0  0  0  0  0  0  0  0  0
   -0.1034   25.4868  -26.0454 H   0  0  0  0  0  0  0  0  0  0  0  0
    0.2889   25.2922  -28.5026 H   0  0  0  0  0  0  0  0  0  0  0  0
   -1.5896   24.6832  -30.0253 H   0  0  0  0  0  0  0  0  0  0  0  0
   -5.5567   25.6296  -28.4922 H   0  0  0  0  0  0  0  0  0  0  0  0
   -7.4693   24.9904  -29.9965 H   0  0  0  0  0  0  0  0  0  0  0  0
  1  2  1  0
  2  3  1  0
  3  4  1  0
  4  5  2  0
  5  6  1  0
  6  7  1  0
  7  8  1  0
  8  9  1  0
  9 10  1  0
 10 11  1  0
 11 12  1  0
 12 13  1  0
  5 14  1  0
 14 15  2  0
 15 16  1  0
 16 17  1  0
 17 18  2  0
 18 19  1  0
 19 20  2  0
 20 21  1  0
 21 22  2  0
 16 23  2  0
 23 24  1  0
 24 25  2  0
 25  3  1  0
 13  8  1  0
 25 14  1  0
 22 17  1  0
  1 26  1  0
  1 27  1  0
  1 28  1  0
  2 29  1  0
  2 30  1  0
  4 31  1  0
  6 32  1  0
  6 33  1  0
  7 34  1  0
  7 35  1  0
  8 36  1  0
  9 37  1  0
  9 38  1  0
 10 39  1  0
 10 40  1  0
 11 41  1  0
 12 42  1  0
 12 43  1  0
 13 44  1  0
 13 45  1  0
 15 46  1  0
 18 47  1  0
 19 48  1  0
 20 49  1  0
 21 50  1  0
 22 51  1  0
 23 52  1  0
 24 53  1  0
M  CHG  1   8   1
M  END
>  <UniqueID>  (2) 
2

>  <SMILES>  (2) 
CCn1cc(CC[NH+]2CCNCC2)c2cc(-c3ccccc3)ccc21

>  <Energy>  (2) 
99.01352985532249

>  <Genealogy>  (2) 
CCn1cc(CC[NH+]2CCNCC2)c2cc(-c3ccccc3)ccc21 (protonated)
CCn1cc(CC[NH+]2CCNCC2)c2cc(-c3ccccc3)ccc21 (3D coordinates assigned)
CCn1cc(CC[NH+]2CCNCC2)c2cc(-c3ccccc3)ccc21 (nonaromatic ring conformer: 99.01352985532249 kcal/mol)

>  <smiles>  (2) 
CCn1cc(CCN2CCNCC2)c2cc(-c3ccccc3)ccc21

>  <score_type>  (2) 
oracle

>  <origin>  (2) 
adg

>  <m_score__min__energy>  (2) 
-7.9000000000000004

>  <m_primary>  (2) 
energy

$$$$
2:0
     RDKit          3D

 41 43  0  0  0  0  0  0  0  0999 V2000
   -8.1700   18.5450  -31.9270 C   0  0  0  0  0  0  0  0  0  0  0  0
   -9.0910   19.7520  -32.0570 C   0  0  0  0  0  0  0  0  0  0  0  0
   -8.3990   20.8590  -32.6340 O   0  0  0  0  0  0  0  0  0  0  0  0
   -7.3790   21.5990  -32.0140 C   0  0  0  0  0  0  0  0  0  0  0  0
   -7.6370   22.6400  -31.1000 C   0  0  0  0  0  0  0  0  0  0  0  0
   -6.5800   23.3400  -30.5120 C   0  0  0  0  0  0  0  0  0  0  0  0
   -5.2550   23.0120  -30.8250 C   0  0  0  0  0  0  0  0  0  0  0  0
   -3.9110   23.8680  -30.0710 S   0  0  0  0  0  0  0  0  0  0  0  0
   -3.8620   25.2860  -30.5700 O   0  0  0  0  0  0  0  0  0  0  0  0
   -2.6330   23.1840  -30.4710 O   0  0  0  0  0  0  0  0  0  0  0  0
   -4.0590   23.8330  -28.3260 N   0  0  0  0  0  0  0  0  0  0  0  0
   -2.9740   24.5540  -27.6370 C   0  0  0  0  0  0  0  0  0  0  0  0
   -1.6060   23.8830  -27.8210 C   0  0  0  0  0  0  0  0  0  0  0  0
   -1.6760   22.3880  -27.6680 C   0  0  0  0  0  0  0  0  0  0  0  0
   -0.4840   21.6560  -27.5470 C   0  0  0  0  0  0  0  0  0  0  0  0
   -0.5160   20.2620  -27.4610 C   0  0  0  0  0  0  0  0  0  0  0  0
   -1.7370   19.5870  -27.5020 C   0  0  0  0  0  0  0  0  0  0  0  0
   -2.9300   20.3040  -27.6340 C   0  0  0  0  0  0  0  0  0  0  0  0
   -2.9080   21.7040  -27.7360 C   0  0  0  0  0  0  0  0  0  0  0  0
   -4.2150   22.4580  -27.8180 C   0  0  0  0  0  0  0  0  0  0  0  0
   -4.9950   21.9730  -31.7260 C   0  0  0  0  0  0  0  0  0  0  0  0
   -6.0510   21.2730  -32.3160 C   0  0  0  0  0  0  0  0  0  0  0  0
   -8.0021   18.3249  -30.8624 H   0  0  0  0  0  0  0  0  0  0  0  0
   -8.6356   17.6746  -32.4124 H   0  0  0  0  0  0  0  0  0  0  0  0
   -7.2075   18.7642  -32.4124 H   0  0  0  0  0  0  0  0  0  0  0  0
   -9.9446   19.4867  -32.6981 H   0  0  0  0  0  0  0  0  0  0  0  0
   -9.4395   20.0387  -31.0538 H   0  0  0  0  0  0  0  0  0  0  0  0
   -8.6750   22.9028  -30.8482 H   0  0  0  0  0  0  0  0  0  0  0  0
   -6.7897   24.1521  -29.8003 H   0  0  0  0  0  0  0  0  0  0  0  0
   -2.9210   25.5768  -28.0383 H   0  0  0  0  0  0  0  0  0  0  0  0
   -3.2037   24.5502  -26.5612 H   0  0  0  0  0  0  0  0  0  0  0  0
   -1.2297   24.1180  -28.8276 H   0  0  0  0  0  0  0  0  0  0  0  0
   -0.9349   24.2693  -27.0398 H   0  0  0  0  0  0  0  0  0  0  0  0
    0.4810   22.1834  -27.5198 H   0  0  0  0  0  0  0  0  0  0  0  0
    0.4218   19.6959  -27.3609 H   0  0  0  0  0  0  0  0  0  0  0  0
   -1.7607   18.4896  -27.4304 H   0  0  0  0  0  0  0  0  0  0  0  0
   -3.8906   19.7685  -27.6581 H   0  0  0  0  0  0  0  0  0  0  0  0
   -4.8928   21.9114  -28.4901 H   0  0  0  0  0  0  0  0  0  0  0  0
   -4.6168   22.5296  -26.7965 H   0  0  0  0  0  0  0  0  0  0  0  0
   -3.9562   21.7065  -31.9705 H   0  0  0  0  0  0  0  0  0  0  0  0
   -5.8371   20.4587  -33.0239 H   0  0  0  0  0  0  0  0  0  0  0  0
  1  2  1  0
  2  3  1  0
  3  4  1  0
  4  5  2  0
  5  6  1  0
  6  7  2  0
  7  8  1  0
  8  9  2  0
  8 10  2  0
  8 11  1  0
 11 12  1  0
 12 13  1  0
 13 14  1  0
 14 15  2  0
 15 16  1  0
 16 17  2  0
 17 18  1  0
 18 19  2  0
 19 20  1  0
  7 21  1  0
 21 22  2  0
 22  4  1  0
 20 11  1  0
 19 14  1  0
  1 23  1  0
  1 24  1  0
  1 25  1  0
  2 26  1  0
  2 27  1  0
  5 28  1  0
  6 29  1  0
 12 30  1  0
 12 31  1  0
 13 32  1  0
 13 33  1  0
 15 34  1  0
 16 35  1  0
 17 36  1  0
 18 37  1  0
 20 38  1  0
 20 39  1  0
 21 40  1  0
 22 41  1  0
M  END
>  <UniqueID>  (3) 
3

>  <SMILES>  (3) 
CCOc1ccc(S(=O)(=O)N2CCc3ccccc3C2)cc1

>  <Energy>  (3) 
44.99818700405173

>  <Genealogy>  (3) 
CCOc1ccc(S(=O)(=O)N2CCc3ccccc3C2)cc1 (3D coordinates assigned)
CCOc1ccc(S(=O)(=O)N2CCc3ccccc3C2)cc1 (nonaromatic ring conformer: 44.99818700405173 kcal/mol)

>  <smiles>  (3) 
CCOc1ccc(S(=O)(=O)N2CCc3ccccc3C2)cc1

>  <score_type>  (3) 
oracle

>  <origin>  (3) 
adg

>  <m_score__min__energy>  (3) 
-8.1799999999999997

>  <m_primary>  (3) 
energy

$$$$
3:0
     RDKit          3D

 79 82  0  0  0  0  0  0  0  0999 V2000
    0.7140   23.3490  -24.5750 C   0  0  0  0  0  0  0  0  0  0  0  0
    1.9330   24.2400  -24.8710 C   0  0  0  0  0  0  0  0  0  0  0  0
    2.5050   24.9600  -23.6950 N   0  0  0  0  0  0  0  0  0  0  0  0
    3.6570   24.2540  -23.0730 C   0  0  0  0  0  0  0  0  0  0  0  0
    4.4220   25.1170  -22.0610 C   0  0  0  0  0  0  0  0  0  0  0  0
    2.7220   26.4110  -23.9480 C   0  0  0  0  0  0  0  0  0  0  0  0
    1.4990   27.3110  -23.7070 C   0  0  0  0  0  0  0  0  0  0  0  0
    0.3370   26.4720  -23.3880 N   0  0  0  0  0  0  0  0  0  0  0  0
   -0.9410   27.1790  -23.5750 C   0  0  0  0  0  0  0  0  0  0  0  0
   -1.5520   26.9650  -24.9650 C   0  0  0  0  0  0  0  0  0  0  0  0
   -0.6260   26.2890  -25.8130 O   0  0  0  0  0  0  0  0  0  0  0  0
   -0.9810   25.3120  -26.7550 C   0  0  0  0  0  0  0  0  0  0  0  0
   -2.2350   24.7020  -26.6410 C   0  0  0  0  0  0  0  0  0  0  0  0
   -2.6420   23.7370  -27.5670 C   0  0  0  0  0  0  0  0  0  0  0  0
   -1.7990   23.3710  -28.6300 C   0  0  0  0  0  0  0  0  0  0  0  0
   -2.2340   22.3630  -29.6320 C   0  0  0  0  0  0  0  0  0  0  0  0
   -1.6590   21.0820  -29.6340 C   0  0  0  0  0  0  0  0  0  0  0  0
   -2.0160   20.1740  -30.5350 O   0  0  0  0  0  0  0  0  0  0  0  0
   -2.9220   20.4140  -31.4760 C   0  0  0  0  0  0  0  0  0  0  0  0
   -3.2380   19.4130  -32.4010 C   0  0  0  0  0  0  0  0  0  0  0  0
   -4.1810   19.6550  -33.4180 C   0  0  0  0  0  0  0  0  0  0  0  0
   -4.5060   18.7020  -34.3960 O   0  0  0  0  0  0  0  0  0  0  0  0
   -5.7390   17.9870  -34.4800 C   0  0  0  0  0  0  0  0  0  0  0  0
   -6.0530   17.2290  -33.1800 C   0  0  0  0  0  0  0  0  0  0  0  0
   -6.7310   18.1120  -32.1180 C   0  0  0  0  0  0  0  0  0  0  0  0
   -7.9930   18.6960  -32.6290 N   0  0  0  0  0  0  0  0  0  0  0  0
   -8.9860   18.8940  -31.5560 C   0  0  0  0  0  0  0  0  0  0  0  0
   -9.0200   20.3760  -31.1910 C   0  0  0  0  0  0  0  0  0  0  0  0
   -8.0220   21.0460  -32.1110 C   0  0  0  0  0  0  0  0  0  0  0  0
   -7.7720   20.0290  -33.2050 C   0  0  0  0  0  0  0  0  0  0  0  0
   -4.8230   20.8980  -33.4740 C   0  0  0  0  0  0  0  0  0  0  0  0
   -4.5140   21.9030  -32.5540 C   0  0  0  0  0  0  0  0  0  0  0  0
   -3.5580   21.6710  -31.5500 C   0  0  0  0  0  0  0  0  0  0  0  0
   -3.1970   22.6600  -30.6160 C   0  0  0  0  0  0  0  0  0  0  0  0
   -3.7170   23.8090  -30.6730 O   0  0  0  0  0  0  0  0  0  0  0  0
   -0.5320   23.9680  -28.7340 C   0  0  0  0  0  0  0  0  0  0  0  0
   -0.1250   24.9320  -27.8060 C   0  0  0  0  0  0  0  0  0  0  0  0
    0.5846   23.2544  -23.4867 H   0  0  0  0  0  0  0  0  0  0  0  0
   -0.1870   23.8029  -25.0133 H   0  0  0  0  0  0  0  0  0  0  0  0
    0.8730   22.3527  -25.0133 H   0  0  0  0  0  0  0  0  0  0  0  0
    2.7231   23.6030  -25.2952 H   0  0  0  0  0  0  0  0  0  0  0  0
    1.5757   25.0212  -25.5581 H   0  0  0  0  0  0  0  0  0  0  0  0
    1.7430   24.9340  -22.9760 H   0  0  0  0  0  0  0  0  0  0  0  0
    3.2803   23.3596  -22.5551 H   0  0  0  0  0  0  0  0  0  0  0  0
    4.3587   23.9998  -23.8811 H   0  0  0  0  0  0  0  0  0  0  0  0
    4.1511   24.8114  -21.0396 H   0  0  0  0  0  0  0  0  0  0  0  0
    5.5038   24.9834  -22.2089 H   0  0  0  0  0  0  0  0  0  0  0  0
    4.1596   26.1750  -22.2089 H   0  0  0  0  0  0  0  0  0  0  0  0
    3.5315   26.7537  -23.2868 H   0  0  0  0  0  0  0  0  0  0  0  0
    2.9589   26.5006  -25.0185 H   0  0  0  0  0  0  0  0  0  0  0  0
    1.7029   27.9916  -22.8672 H   0  0  0  0  0  0  0  0  0  0  0  0
    1.2910   27.9016  -24.6114 H   0  0  0  0  0  0  0  0  0  0  0  0
    0.3560   25.6120  -23.9850 H   0  0  0  0  0  0  0  0  0  0  0  0
   -1.6545   26.8171  -22.8200 H   0  0  0  0  0  0  0  0  0  0  0  0
   -0.7379   28.2549  -23.4694 H   0  0  0  0  0  0  0  0  0  0  0  0
   -2.4660   26.3603  -24.8706 H   0  0  0  0  0  0  0  0  0  0  0  0
   -1.7921   27.9440  -25.4053 H   0  0  0  0  0  0  0  0  0  0  0  0
   -2.9060   24.9840  -25.8162 H   0  0  0  0  0  0  0  0  0  0  0  0
   -3.6283   23.2612  -27.4628 H   0  0  0  0  0  0  0  0  0  0  0  0
   -0.9017   20.8268  -28.8781 H   0  0  0  0  0  0  0  0  0  0  0  0
   -2.7468   18.4311  -32.3333 H   0  0  0  0  0  0  0  0  0  0  0  0
   -6.5512   18.7014  -34.6799 H   0  0  0  0  0  0  0  0  0  0  0  0
   -5.6503   17.2494  -35.2912 H   0  0  0  0  0  0  0  0  0  0  0  0
   -6.7226   16.3891  -33.4170 H   0  0  0  0  0  0  0  0  0  0  0  0
   -5.0961   16.8854  -32.7601 H   0  0  0  0  0  0  0  0  0  0  0  0
   -6.9527   17.4997  -31.2314 H   0  0  0  0  0  0  0  0  0  0  0  0
   -6.0467   18.9343  -31.8620 H   0  0  0  0  0  0  0  0  0  0  0  0
   -9.9789   18.5759  -31.9067 H   0  0  0  0  0  0  0  0  0  0  0  0
   -8.7109   18.2962  -30.6745 H   0  0  0  0  0  0  0  0  0  0  0  0
  -10.0272   20.7879  -31.3521 H   0  0  0  0  0  0  0  0  0  0  0  0
   -8.7706   20.5398  -30.1322 H   0  0  0  0  0  0  0  0  0  0  0  0
   -8.4409   21.9728  -32.5301 H   0  0  0  0  0  0  0  0  0  0  0  0
   -7.0980   21.3328  -31.5877 H   0  0  0  0  0  0  0  0  0  0  0  0
   -8.4680   20.1972  -34.0400 H   0  0  0  0  0  0  0  0  0  0  0  0
   -6.7454   20.1190  -33.5897 H   0  0  0  0  0  0  0  0  0  0  0  0
   -5.5789   21.0853  -34.2508 H   0  0  0  0  0  0  0  0  0  0  0  0
   -5.0199   22.8778  -32.6155 H   0  0  0  0  0  0  0  0  0  0  0  0
    0.1446   23.6755  -29.5505 H   0  0  0  0  0  0  0  0  0  0  0  0
    0.8684   25.3953  -27.8978 H   0  0  0  0  0  0  0  0  0  0  0  0
  1  2  1  0
  2  3  1  0
  3  4  1  0
  4  5  1  0
  3  6  1  0
  6  7  1  0
  7  8  1  0
  8  9  1  0
  9 10  1  0
 10 11  1  0
 11 12  1  0
 12 13  2  0
 13 14  1  0
 14 15  2  0
 15 16  1  0
 16 17  2  0
 17 18  1  0
 18 19  1  0
 19 20  2  0
 20 21  1  0
 21 22  1  0
 22 23  1  0
 23 24  1  0
 24 25  1  0
 25 26  1  0
 26 27  1  0
 27 28  1  0
 28 29  1  0
 29 30  1  0
 21 31  2  0
 31 32  1  0
 32 33  2  0
 33 34  1  0
 34 35  2  0
 15 36  1  0
 36 37  2  0
 37 12  1  0
 34 16  1  0
 33 19  1  0
 30 26  1  0
  1 38  1  0
  1 39  1  0
  1 40  1  0
  2 41  1  0
  2 42  1  0
  3 43  1  0
  4 44  1  0
  4 45  1  0
  5 46  1  0
  5 47  1  0
  5 48  1  0
  6 49  1  0
  6 50  1  0
  7 51  1  0
  7 52  1  0
  8 53  1  0
  9 54  1  0
  9 55  1  0
 10 56  1  0
 10 57  1  0
 13 58  1  0
 14 59  1  0
 17 60  1  0
 20 61  1  0
 23 62  1  0
 23 63  1  0
 24 64  1  0
 24 65  1  0
 25 66  1  0
 25 67  1  0
 27 68  1  0
 27 69  1  0
 28 70  1  0
 28 71  1  0
 29 72  1  0
 29 73  1  0
 30 74  1  0
 30 75  1  0
 31 76  1  0
 32 77  1  0
 36 78  1  0
 37 79  1  0
M  CHG  1   3   1
M  END
>  <UniqueID>  (4) 
4

>  <SMILES>  (4) 
CC[NH+](CC)CCNCCOc1ccc(-c2coc3cc(OCCCN4CCCC4)ccc3c2=O)cc1

>  <Energy>  (4) 
97.55741181972164

>  <Genealogy>  (4) 
CC[NH+](CC)CCNCCOc1ccc(-c2coc3cc(OCCCN4CCCC4)ccc3c2=O)cc1 (protonated)
CC[NH+](CC)CCNCCOc1ccc(-c2coc3cc(OCCCN4CCCC4)ccc3c2=O)cc1 (3D coordinates assigned)
CC[NH+](CC)CCNCCOc1ccc(-c2coc3cc(OCCCN4CCCC4)ccc3c2=O)cc1 (nonaromatic ring conformer: 97.55741181972164 kcal/mol)

>  <smiles>  (4) 
CCN(CC)CCNCCOc1ccc(-c2coc3cc(OCCCN4CCCC4)ccc3c2=O)cc1

>  <score_type>  (4) 
oracle

>  <origin>  (4) 
adg

>  <m_score__min__energy>  (4) 
-8.1199999999999992

>  <m_primary>  (4) 
energy

$$$$
4:0
     RDKit          3D

 52 54  0  0  0  0  0  0  0  0999 V2000
   -6.0350   25.6440  -30.0600 C   0  0  0  0  0  0  0  0  0  0  0  0
   -4.6350   25.2380  -30.5110 C   0  0  0  0  0  0  0  0  0  0  0  0
   -4.5610   23.7660  -30.6740 N   0  0  0  0  0  0  0  0  0  0  0  0
   -5.2170   23.0800  -29.5370 C   0  0  0  0  0  0  0  0  0  0  0  0
   -4.3110   23.0790  -28.3090 C   0  0  0  0  0  0  0  0  0  0  0  0
   -3.1590   23.3130  -30.8420 C   0  0  0  0  0  0  0  0  0  0  0  0
   -3.0960   21.8160  -31.1870 C   0  0  0  0  0  0  0  0  0  0  0  0
   -3.0050   21.5480  -32.6970 C   0  0  0  0  0  0  0  0  0  0  0  0
   -4.3010   21.7540  -33.3460 N   0  0  0  0  0  0  0  0  0  0  0  0
   -5.4420   20.9360  -33.0500 C   0  0  0  0  0  0  0  0  0  0  0  0
   -6.6670   21.4660  -32.5690 C   0  0  0  0  0  0  0  0  0  0  0  0
   -6.8630   22.8560  -32.4550 C   0  0  0  0  0  0  0  0  0  0  0  0
   -8.0610   23.3660  -31.9600 C   0  0  0  0  0  0  0  0  0  0  0  0
   -9.0900   22.5060  -31.5870 C   0  0  0  0  0  0  0  0  0  0  0  0
   -8.9390   21.1250  -31.7210 C   0  0  0  0  0  0  0  0  0  0  0  0
   -7.7390   20.5720  -32.2230 C   0  0  0  0  0  0  0  0  0  0  0  0
   -7.5880   19.2040  -32.3890 N   0  0  0  0  0  0  0  0  0  0  0  0
   -8.6530   18.2510  -32.0360 C   0  0  0  0  0  0  0  0  0  0  0  0
   -6.4120   18.7390  -32.8970 C   0  0  0  0  0  0  0  0  0  0  0  0
   -6.0940   17.4850  -33.1170 O   0  0  0  0  0  0  0  0  0  0  0  0
   -4.8610   17.4660  -33.5850 C   0  0  0  0  0  0  0  0  0  0  0  0
   -4.1280   16.2210  -33.9500 C   0  0  0  0  0  0  0  0  0  0  0  0
   -4.3480   18.7540  -33.6760 C   0  0  0  0  0  0  0  0  0  0  0  0
   -5.3730   19.5610  -33.2290 C   0  0  0  0  0  0  0  0  0  0  0  0
   -6.0770   25.6562  -28.9609 H   0  0  0  0  0  0  0  0  0  0  0  0
   -6.2685   26.6469  -30.4470 H   0  0  0  0  0  0  0  0  0  0  0  0
   -6.7688   24.9216  -30.4470 H   0  0  0  0  0  0  0  0  0  0  0  0
   -4.4070   25.7227  -31.4718 H   0  0  0  0  0  0  0  0  0  0  0  0
   -3.9053   25.5540  -29.7510 H   0  0  0  0  0  0  0  0  0  0  0  0
   -6.1543   23.6017  -29.2932 H   0  0  0  0  0  0  0  0  0  0  0  0
   -5.4222   22.0383  -29.8246 H   0  0  0  0  0  0  0  0  0  0  0  0
   -4.9279   23.0797  -27.3982 H   0  0  0  0  0  0  0  0  0  0  0  0
   -3.6770   22.1802  -28.3218 H   0  0  0  0  0  0  0  0  0  0  0  0
   -3.6751   23.9764  -28.3218 H   0  0  0  0  0  0  0  0  0  0  0  0
   -2.6909   23.8884  -31.6543 H   0  0  0  0  0  0  0  0  0  0  0  0
   -2.6247   23.4748  -29.8942 H   0  0  0  0  0  0  0  0  0  0  0  0
   -2.2101   21.3818  -30.7005 H   0  0  0  0  0  0  0  0  0  0  0  0
   -4.0295   21.3576  -30.8286 H   0  0  0  0  0  0  0  0  0  0  0  0
   -2.2679   22.2337  -33.1402 H   0  0  0  0  0  0  0  0  0  0  0  0
   -2.6993   20.5024  -32.8493 H   0  0  0  0  0  0  0  0  0  0  0  0
   -4.3070   22.2950  -34.2400 H   0  0  0  0  0  0  0  0  0  0  0  0
   -6.0621   23.5457  -32.7599 H   0  0  0  0  0  0  0  0  0  0  0  0
   -8.1945   24.4536  -31.8634 H   0  0  0  0  0  0  0  0  0  0  0  0
  -10.0275   22.9171  -31.1844 H   0  0  0  0  0  0  0  0  0  0  0  0
   -9.7648   20.4582  -31.4321 H   0  0  0  0  0  0  0  0  0  0  0  0
   -8.7329   18.1795  -30.9412 H   0  0  0  0  0  0  0  0  0  0  0  0
   -9.6098   18.6000  -32.4515 H   0  0  0  0  0  0  0  0  0  0  0  0
   -8.4120   17.2614  -32.4515 H   0  0  0  0  0  0  0  0  0  0  0  0
   -3.8188   15.6958  -33.0343 H   0  0  0  0  0  0  0  0  0  0  0  0
   -4.7860   15.5684  -34.5426 H   0  0  0  0  0  0  0  0  0  0  0  0
   -3.2381   16.4798  -34.5426 H   0  0  0  0  0  0  0  0  0  0  0  0
   -3.3509   19.0604  -34.0252 H   0  0  0  0  0  0  0  0  0  0  0  0
  1  2  1  0
  2  3  1  0
  3  4  1  0
  4  5  1  0
  3  6  1  0
  6  7  1  0
  7  8  1  0
  8  9  1  0
  9 10  1  0
 10 11  2  0
 11 12  1  0
 12 13  2  0
 13 14  1  0
 14 15  2  0
 15 16  1  0
 16 17  2  0
 17 18  1  0
 17 19  1  0
 19 20  1  0
 20 21  1  0
 21 22  1  0
 21 23  2  0
 23 24  1  0
 24 10  1  0
 16 11  1  0
 24 19  2  0
  1 25  1  0
  1 26  1  0
  1 27  1  0
  2 28  1  0
  2 29  1  0
  4 30  1  0
  4 31  1  0
  5 32  1  0
  5 33  1  0
  5 34  1  0
  6 35  1  0
  6 36  1  0
  7 37  1  0
  7 38  1  0
  8 39  1  0
  8 40  1  0
  9 41  1  0
 12 42  1  0
 13 43  1  0
 14 44  1  0
 15 45  1  0
 18 46  1  0
 18 47  1  0
 18 48  1  0
 22 49  1  0
 22 50  1  0
 22 51  1  0
 23 52  1  0
M  CHG  1  17   1
M  END
>  <UniqueID>  (5) 
5

>  <SMILES>  (5) 
CCN(CC)CCCNc1c2ccccc2[n+](C)c2oc(C)cc12

>  <Energy>  (5) 
90.5383374807944

>  <Genealogy>  (5) 
CCN(CC)CCCNc1c2ccccc2[n+](C)c2oc(C)cc12 (3D coordinates assigned)
CCN(CC)CCCNc1c2ccccc2[n+](C)c2oc(C)cc12 (optimized conformer: 90.5383374807944 kcal/mol)

>  <smiles>  (5) 
CCN(CC)CCCNc1c2ccccc2[n+](C)c2oc(C)cc12

>  <score_type>  (5) 
oracle

>  <origin>  (5) 
adg

>  <m_score__min__energy>  (5) 
-8.1799999999999997

>  <m_primary>  (5) 
energy

$$$$
5:0
     RDKit          3D

 65 69  0  0  0  0  0  0  0  0999 V2000
   -6.2860   25.5650  -29.4050 C   0  0  0  0  0  0  0  0  0  0  0  0
   -5.1910   25.4740  -30.4730 C   0  0  0  0  0  0  0  0  0  0  0  0
   -4.1930   24.4050  -30.2380 N   0  0  0  0  0  0  0  0  0  0  0  0
   -3.3830   24.5320  -29.0030 C   0  0  0  0  0  0  0  0  0  0  0  0
   -3.8430   23.6450  -27.8330 C   0  0  0  0  0  0  0  0  0  0  0  0
   -4.6310   23.0360  -30.5810 C   0  0  0  0  0  0  0  0  0  0  0  0
   -5.7960   23.0750  -31.5790 C   0  0  0  0  0  0  0  0  0  0  0  0
   -5.5090   22.2600  -32.7610 N   0  0  0  0  0  0  0  0  0  0  0  0
   -5.5260   20.8240  -32.6940 C   0  0  0  0  0  0  0  0  0  0  0  0
   -6.7180   20.1730  -32.3450 C   0  0  0  0  0  0  0  0  0  0  0  0
   -7.7700   20.8720  -31.7170 C   0  0  0  0  0  0  0  0  0  0  0  0
   -8.9550   20.2170  -31.3820 C   0  0  0  0  0  0  0  0  0  0  0  0
   -9.1100   18.8660  -31.6710 C   0  0  0  0  0  0  0  0  0  0  0  0
   -8.0890   18.1650  -32.3120 C   0  0  0  0  0  0  0  0  0  0  0  0
   -6.8810   18.8080  -32.6720 C   0  0  0  0  0  0  0  0  0  0  0  0
   -5.8980   18.1500  -33.3780 N   0  0  0  0  0  0  0  0  0  0  0  0
   -6.2940   17.0120  -34.2340 C   0  0  0  0  0  0  0  0  0  0  0  0
   -4.6180   18.6740  -33.4390 C   0  0  0  0  0  0  0  0  0  0  0  0
   -3.4860   17.8780  -33.8230 C   0  0  0  0  0  0  0  0  0  0  0  0
   -3.4480   16.3720  -33.7080 C   0  0  0  0  0  0  0  0  0  0  0  0
   -2.3140   18.5450  -34.1900 C   0  0  0  0  0  0  0  0  0  0  0  0
   -1.2110   17.9940  -34.7480 N   0  0  0  0  0  0  0  0  0  0  0  0
   -0.3490   19.0160  -34.9100 C   0  0  0  0  0  0  0  0  0  0  0  0
    0.9120   18.9590  -35.5000 C   0  0  0  0  0  0  0  0  0  0  0  0
    1.6360   20.1570  -35.6280 C   0  0  0  0  0  0  0  0  0  0  0  0
    1.0840   21.3760  -35.1810 C   0  0  0  0  0  0  0  0  0  0  0  0
   -0.1910   21.4100  -34.5910 C   0  0  0  0  0  0  0  0  0  0  0  0
   -0.8800   20.2020  -34.4460 C   0  0  0  0  0  0  0  0  0  0  0  0
   -2.1480   19.8940  -33.9670 C   0  0  0  0  0  0  0  0  0  0  0  0
   -3.1110   20.6480  -33.2840 C   0  0  0  0  0  0  0  0  0  0  0  0
   -2.6940   21.9200  -32.5850 C   0  0  0  0  0  0  0  0  0  0  0  0
   -4.4110   20.0640  -33.1260 C   0  0  0  0  0  0  0  0  0  0  0  0
   -5.8277   25.5269  -28.4058 H   0  0  0  0  0  0  0  0  0  0  0  0
   -6.8338   26.5118  -29.5213 H   0  0  0  0  0  0  0  0  0  0  0  0
   -6.9826   24.7216  -29.5213 H   0  0  0  0  0  0  0  0  0  0  0  0
   -5.6726   25.2873  -31.4442 H   0  0  0  0  0  0  0  0  0  0  0  0
   -4.6427   26.4271  -30.4418 H   0  0  0  0  0  0  0  0  0  0  0  0
   -2.3441   24.2647  -29.2466 H   0  0  0  0  0  0  0  0  0  0  0  0
   -3.4968   25.5725  -28.6648 H   0  0  0  0  0  0  0  0  0  0  0  0
   -3.5896   24.1337  -26.8807 H   0  0  0  0  0  0  0  0  0  0  0  0
   -4.9315   23.4971  -27.8909 H   0  0  0  0  0  0  0  0  0  0  0  0
   -3.3369   22.6701  -27.8909 H   0  0  0  0  0  0  0  0  0  0  0  0
   -3.7888   22.4889  -31.0298 H   0  0  0  0  0  0  0  0  0  0  0  0
   -4.9673   22.5312  -29.6633 H   0  0  0  0  0  0  0  0  0  0  0  0
   -6.7017   22.6889  -31.0884 H   0  0  0  0  0  0  0  0  0  0  0  0
   -5.9432   24.1163  -31.9016 H   0  0  0  0  0  0  0  0  0  0  0  0
   -5.0220   22.7160  -33.5650 H   0  0  0  0  0  0  0  0  0  0  0  0
   -7.6549   21.9421  -31.4897 H   0  0  0  0  0  0  0  0  0  0  0  0
   -9.7678   20.7700  -30.8886 H   0  0  0  0  0  0  0  0  0  0  0  0
  -10.0402   18.3487  -31.3934 H   0  0  0  0  0  0  0  0  0  0  0  0
   -8.2245   17.0977  -32.5409 H   0  0  0  0  0  0  0  0  0  0  0  0
   -6.5896   16.1624  -33.6009 H   0  0  0  0  0  0  0  0  0  0  0  0
   -7.1418   17.3085  -34.8691 H   0  0  0  0  0  0  0  0  0  0  0  0
   -5.4453   16.7181  -34.8691 H   0  0  0  0  0  0  0  0  0  0  0  0
   -3.4408   16.0854  -32.6460 H   0  0  0  0  0  0  0  0  0  0  0  0
   -4.3356   15.9444  -34.1971 H   0  0  0  0  0  0  0  0  0  0  0  0
   -2.5399   15.9897  -34.1971 H   0  0  0  0  0  0  0  0  0  0  0  0
   -1.0630   17.0010  -35.0360 H   0  0  0  0  0  0  0  0  0  0  0  0
    1.3285   18.0048  -35.8551 H   0  0  0  0  0  0  0  0  0  0  0  0
    2.6390   20.1440  -36.0794 H   0  0  0  0  0  0  0  0  0  0  0  0
    1.6567   22.3081  -35.2953 H   0  0  0  0  0  0  0  0  0  0  0  0
   -0.6337   22.3587  -34.2533 H   0  0  0  0  0  0  0  0  0  0  0  0
   -2.7423   21.7727  -31.4960 H   0  0  0  0  0  0  0  0  0  0  0  0
   -1.6645   22.1771  -32.8749 H   0  0  0  0  0  0  0  0  0  0  0  0
   -3.3714   22.7367  -32.8749 H   0  0  0  0  0  0  0  0  0  0  0  0
  1  2  1  0
  2  3  1  0
  3  4  1  0
  4  5  1  0
  3  6  1  0
  6  7  1  0
  7  8  1  0
  8  9  1  0
  9 10  2  0
 10 11  1  0
 11 12  2  0
 12 13  1  0
 13 14  2  0
 14 15  1  0
 15 16  2  0
 16 17  1  0
 16 18  1  0
 18 19  2  0
 19 20  1  0
 19 21  1  0
 21 22  1  0
 22 23  1  0
 23 24  2  0
 24 25  1  0
 25 26  2  0
 26 27  1  0
 27 28  2  0
 28 29  1  0
 29 30  1  0
 30 31  1  0
 30 32  2  0
 32  9  1  0
 15 10  1  0
 32 18  1  0
 29 21  2  0
 28 23  1  0
  1 33  1  0
  1 34  1  0
  1 35  1  0
  2 36  1  0
  2 37  1  0
  4 38  1  0
  4 39  1  0
  5 40  1  0
  5 41  1  0
  5 42  1  0
  6 43  1  0
  6 44  1  0
  7 45  1  0
  7 46  1  0
  8 47  1  0
 11 48  1  0
 12 49  1  0
 13 50  1  0
 14 51  1  0
 17 52  1  0
 17 53  1  0
 17 54  1  0
 20 55  1  0
 20 56  1  0
 20 57  1  0
 22 58  1  0
 24 59  1  0
 25 60  1  0
 26 61  1  0
 27 62  1  0
 31 63  1  0
 31 64  1  0
 31 65  1  0
M  CHG  1  16   1
M  END
>  <UniqueID>  (6) 
6

>  <SMILES>  (6) 
CCN(CC)CCNc1c2ccccc2[n+](C)c2c(C)c3[nH]c4ccccc4c3c(C)c12

>  <Energy>  (6) 
164.45418127615756

>  <Genealogy>  (6) 
CCN(CC)CCNc1c2ccccc2[n+](C)c2c(C)c3[nH]c4ccccc4c3c(C)c12 (3D coordinates assigned)
CCN(CC)CCNc1c2ccccc2[n+](C)c2c(C)c3[nH]c4ccccc4c3c(C)c12 (optimized conformer: 164.45418127615756 kcal/mol)

>  <smiles>  (6) 
CCN(CC)CCNc1c2ccccc2[n+](C)c2c(C)c3[nH]c4ccccc4c3c(C)c12

>  <score_type>  (6) 
oracle

>  <origin>  (6) 
adg

>  <m_score__min__energy>  (6) 
-10.08

>  <m_primary>  (6) 
energy

$$$$
6:0
     RDKit          3D

 37 39  0  0  0  0  0  0  0  0999 V2000
    1.1752   24.6566  -25.9009 H   0  0  0  0  0  0  0  0  0  0  0  0
    0.3680   24.4570  -26.6210 C   0  0  0  0  0  0  0  0  0  0  0  0
   -0.1840   23.2140  -26.9170 C   0  0  0  0  0  0  0  0  0  0  0  0
    0.0910   22.2434  -26.4784 H   0  0  0  0  0  0  0  0  0  0  0  0
   -1.1500   23.4530  -27.8770 C   0  0  0  0  0  0  0  0  0  0  0  0
   -2.0400   22.5860  -28.5190 C   0  0  0  0  0  0  0  0  0  0  0  0
   -2.0390   21.1640  -28.2990 N   0  0  0  0  0  0  0  0  0  0  0  0
   -3.0750   20.5060  -27.4980 C   0  0  0  0  0  0  0  0  0  0  0  0
   -3.6337   21.2622  -26.9271 H   0  0  0  0  0  0  0  0  0  0  0  0
   -3.7664   19.9659  -28.1616 H   0  0  0  0  0  0  0  0  0  0  0  0
   -2.4160   19.5190  -26.5310 C   0  0  0  0  0  0  0  0  0  0  0  0
   -1.8300   20.0794  -25.7877 H   0  0  0  0  0  0  0  0  0  0  0  0
   -3.2035   18.9326  -26.0351 H   0  0  0  0  0  0  0  0  0  0  0  0
   -1.5580   18.6310  -27.2250 O   0  0  0  0  0  0  0  0  0  0  0  0
   -0.4790   19.3500  -27.7960 C   0  0  0  0  0  0  0  0  0  0  0  0
    0.0358   19.9157  -27.0054 H   0  0  0  0  0  0  0  0  0  0  0  0
    0.2113   18.6345  -28.2667 H   0  0  0  0  0  0  0  0  0  0  0  0
   -0.9800   20.3250  -28.8660 C   0  0  0  0  0  0  0  0  0  0  0  0
   -0.1478   20.9609  -29.2022 H   0  0  0  0  0  0  0  0  0  0  0  0
   -1.3764   19.7601  -29.7226 H   0  0  0  0  0  0  0  0  0  0  0  0
   -2.9360   23.1400  -29.3880 N   0  0  0  0  0  0  0  0  0  0  0  0
   -2.9630   24.4830  -29.6330 C   0  0  0  0  0  0  0  0  0  0  0  0
   -3.8330   24.9630  -30.4720 N   0  0  0  0  0  0  0  0  0  0  0  0
   -5.0350   24.2630  -30.9240 C   0  0  0  0  0  0  0  0  0  0  0  0
   -4.7735   23.2268  -31.1844 H   0  0  0  0  0  0  0  0  0  0  0  0
   -5.4403   24.7855  -31.8030 H   0  0  0  0  0  0  0  0  0  0  0  0
   -6.0990   24.2520  -29.8220 C   0  0  0  0  0  0  0  0  0  0  0  0
   -5.7122   23.6963  -28.9551 H   0  0  0  0  0  0  0  0  0  0  0  0
   -7.0057   23.7708  -30.2174 H   0  0  0  0  0  0  0  0  0  0  0  0
   -6.4550   25.6700  -29.3860 C   0  0  0  0  0  0  0  0  0  0  0  0
   -6.4684   25.7233  -28.2874 H   0  0  0  0  0  0  0  0  0  0  0  0
   -5.7055   26.3732  -29.7781 H   0  0  0  0  0  0  0  0  0  0  0  0
   -7.4478   25.9358  -29.7781 H   0  0  0  0  0  0  0  0  0  0  0  0
   -2.0730   25.3000  -28.9960 N   0  0  0  0  0  0  0  0  0  0  0  0
   -1.2040   24.7620  -28.1470 N   0  0  0  0  0  0  0  0  0  0  0  0
   -0.2880   25.3980  -27.4020 C   0  0  0  0  0  0  0  0  0  0  0  0
   -0.0905   26.4801  -27.4088 H   0  0  0  0  0  0  0  0  0  0  0  0
  1  2  1  0
  2  3  1  0
  3  4  1  0
  3  5  2  0
  5  6  1  0
  6  7  1  0
  7  8  1  0
  8  9  1  0
  8 10  1  0
  8 11  1  0
 11 12  1  0
 11 13  1  0
 11 14  1  0
 14 15  1  0
 15 16  1  0
 15 17  1  0
 15 18  1  0
 18 19  1  0
 18 20  1  0
  6 21  2  0
 21 22  1  0
 22 23  2  0
 23 24  1  0
 24 25  1  0
 24 26  1  0
 24 27  1  0
 27 28  1  0
 27 29  1  0
 27 30  1  0
 30 31  1  0
 30 32  1  0
 30 33  1  0
 22 34  1  0
 34 35  1  0
 35 36  1  0
 36 37  1  0
 36  2  2  0
 35  5  1  0
 18  7  1  0
M  CHG  1  34  -1
M  END
>  <UniqueID>  (7) 
7

>  <SMILES>  (7) 
CCC/N=c1/nc(N2CCOCC2)c2cccn2[n-]1

>  <Energy>  (7) 
72.23088032107428

>  <Genealogy>  (7) 
CCCN=c1nc(N2CCOCC2)c2cccn2[n-]1 (protonated)
CCC/N=c1/nc(N2CCOCC2)c2cccn2[n-]1 (cis-trans isomerization)
CCC/N=c1/nc(N2CCOCC2)c2cccn2[n-]1 (3D coordinates assigned)
CCC/N=c1/nc(N2CCOCC2)c2cccn2[n-]1 (nonaromatic ring conformer: 72.23088032107428 kcal/mol)

>  <smiles>  (7) 
CCCN=c1nc(N2CCOCC2)c2cccn2[nH]1

>  <score_type>  (7) 
oracle

>  <origin>  (7) 
adg

>  <m_score__min__energy>  (7) 
-7.29

>  <m_primary>  (7) 
energy

$$$$
7:0
     RDKit          3D

 38 39  0  0  0  0  0  0  0  0999 V2000
   -1.2940   26.0730  -26.6940 C   0  0  0  0  0  0  0  0  0  0  0  0
   -1.1190   26.2320  -28.1970 C   0  0  0  0  0  0  0  0  0  0  0  0
   -2.0440   25.3840  -28.8720 O   0  0  0  0  0  0  0  0  0  0  0  0
   -2.2780   24.0380  -28.5450 C   0  0  0  0  0  0  0  0  0  0  0  0
   -1.2290   23.1020  -28.4550 C   0  0  0  0  0  0  0  0  0  0  0  0
   -1.4940   21.7730  -28.1170 C   0  0  0  0  0  0  0  0  0  0  0  0
   -2.8020   21.3610  -27.8660 C   0  0  0  0  0  0  0  0  0  0  0  0
   -3.0540   20.0710  -27.5310 F   0  0  0  0  0  0  0  0  0  0  0  0
   -3.8520   22.2770  -27.9540 C   0  0  0  0  0  0  0  0  0  0  0  0
   -3.6050   23.6190  -28.2970 C   0  0  0  0  0  0  0  0  0  0  0  0
   -4.7000   24.5620  -28.3500 N   0  0  0  0  0  0  0  0  0  0  0  0
   -5.6160   24.2610  -29.4620 C   0  0  0  0  0  0  0  0  0  0  0  0
   -5.0190   24.6370  -30.7880 C   0  0  0  0  0  0  0  0  0  0  0  0
   -4.1720   25.5680  -30.8520 O   0  0  0  0  0  0  0  0  0  0  0  0
   -5.3780   23.8960  -31.9600 N   0  0  0  0  0  0  0  0  0  0  0  0
   -6.7460   23.7700  -32.4460 C   0  0  0  0  0  0  0  0  0  0  0  0
   -7.2720   22.3980  -32.1700 C   0  0  0  0  0  0  0  0  0  0  0  0
   -8.4190   22.0980  -31.4490 C   0  0  0  0  0  0  0  0  0  0  0  0
   -8.6820   20.7240  -31.3790 C   0  0  0  0  0  0  0  0  0  0  0  0
   -7.7460   19.9430  -32.0470 C   0  0  0  0  0  0  0  0  0  0  0  0
   -6.5930   20.9630  -32.7250 S   0  0  0  0  0  0  0  0  0  0  0  0
   -0.5779   26.7236  -26.1706 H   0  0  0  0  0  0  0  0  0  0  0  0
   -2.3193   26.3550  -26.4124 H   0  0  0  0  0  0  0  0  0  0  0  0
   -1.1113   25.0255  -26.4124 H   0  0  0  0  0  0  0  0  0  0  0  0
   -1.3061   27.2784  -28.4799 H   0  0  0  0  0  0  0  0  0  0  0  0
   -0.0924   25.9555  -28.4794 H   0  0  0  0  0  0  0  0  0  0  0  0
   -0.1946   23.4199  -28.6522 H   0  0  0  0  0  0  0  0  0  0  0  0
   -0.6684   21.0494  -28.0487 H   0  0  0  0  0  0  0  0  0  0  0  0
   -4.8818   21.9465  -27.7533 H   0  0  0  0  0  0  0  0  0  0  0  0
   -5.2350   24.5250  -27.4520 H   0  0  0  0  0  0  0  0  0  0  0  0
   -4.3400   25.5410  -28.4440 H   0  0  0  0  0  0  0  0  0  0  0  0
   -5.8351   23.1830  -29.4621 H   0  0  0  0  0  0  0  0  0  0  0  0
   -6.5347   24.8489  -29.3194 H   0  0  0  0  0  0  0  0  0  0  0  0
   -7.3810   24.5108  -31.9380 H   0  0  0  0  0  0  0  0  0  0  0  0
   -6.7568   23.9449  -33.5320 H   0  0  0  0  0  0  0  0  0  0  0  0
   -9.0569   22.8616  -30.9801 H   0  0  0  0  0  0  0  0  0  0  0  0
   -9.5472   20.3029  -30.8460 H   0  0  0  0  0  0  0  0  0  0  0  0
   -7.7574   18.8455  -32.1198 H   0  0  0  0  0  0  0  0  0  0  0  0
  1  2  1  0
  2  3  1  0
  3  4  1  0
  4  5  2  0
  5  6  1  0
  6  7  2  0
  7  8  1  0
  7  9  1  0
  9 10  2  0
 10 11  1  0
 11 12  1  0
 12 13  1  0
 13 14  2  0
 13 15  1  0
 15 16  1  0
 16 17  1  0
 17 18  2  0
 18 19  1  0
 19 20  2  0
 20 21  1  0
 10  4  1  0
 21 17  1  0
  1 22  1  0
  1 23  1  0
  1 24  1  0
  2 25  1  0
  2 26  1  0
  5 27  1  0
  6 28  1  0
  9 29  1  0
 11 30  1  0
 11 31  1  0
 12 32  1  0
 12 33  1  0
 16 34  1  0
 16 35  1  0
 18 36  1  0
 19 37  1  0
 20 38  1  0
M  CHG  2  11   1  15  -1
M  END
>  <UniqueID>  (8) 
8

>  <SMILES>  (8) 
CCOc1ccc(F)cc1[NH2+]CC(=O)[N-]Cc1cccs1

>  <Energy>  (8) 
57.25081888793999

>  <Genealogy>  (8) 
CCOc1ccc(F)cc1[NH2+]CC(=O)[N-]Cc1cccs1 (protonated)
CCOc1ccc(F)cc1[NH2+]CC(=O)[N-]Cc1cccs1 (3D coordinates assigned)
CCOc1ccc(F)cc1[NH2+]CC(=O)[N-]Cc1cccs1 (optimized conformer: 57.25081888793999 kcal/mol)

>  <smiles>  (8) 
CCOc1ccc(F)cc1NCC(=O)NCc1cccs1

>  <score_type>  (8) 
oracle

>  <origin>  (8) 
adg

>  <m_score__min__energy>  (8) 
-7.8899999999999997

>  <m_primary>  (8) 
energy

$$$$
8:0
     RDKit          3D

 53 56  0  0  0  0  0  0  0  0999 V2000
   -2.7580   14.9560  -35.7000 C   0  0  0  0  0  0  0  0  0  0  0  0
   -3.3450   15.3690  -34.4700 O   0  0  0  0  0  0  0  0  0  0  0  0
   -3.5790   16.7060  -34.1170 C   0  0  0  0  0  0  0  0  0  0  0  0
   -4.7280   17.3400  -34.6300 C   0  0  0  0  0  0  0  0  0  0  0  0
   -4.9980   18.6760  -34.3010 C   0  0  0  0  0  0  0  0  0  0  0  0
   -4.1130   19.3390  -33.5110 N   0  0  0  0  0  0  0  0  0  0  0  0
   -4.1310   20.5910  -33.0120 C   0  0  0  0  0  0  0  0  0  0  0  0
   -5.2110   21.5340  -33.1930 N   0  0  0  0  0  0  0  0  0  0  0  0
   -6.0900   21.6110  -32.0110 C   0  0  0  0  0  0  0  0  0  0  0  0
   -7.1380   20.5280  -32.0070 C   0  0  0  0  0  0  0  0  0  0  0  0
   -8.4740   20.8330  -32.3160 C   0  0  0  0  0  0  0  0  0  0  0  0
   -9.4500   19.8310  -32.2870 C   0  0  0  0  0  0  0  0  0  0  0  0
   -9.0990   18.5220  -31.9480 C   0  0  0  0  0  0  0  0  0  0  0  0
   -7.7720   18.2120  -31.6360 C   0  0  0  0  0  0  0  0  0  0  0  0
   -6.7930   19.2090  -31.6630 C   0  0  0  0  0  0  0  0  0  0  0  0
   -3.0520   20.7050  -32.1330 C   0  0  0  0  0  0  0  0  0  0  0  0
   -2.7640   21.8090  -31.1970 C   0  0  0  0  0  0  0  0  0  0  0  0
   -1.8160   21.6650  -30.1800 C   0  0  0  0  0  0  0  0  0  0  0  0
   -1.5610   22.7140  -29.2950 C   0  0  0  0  0  0  0  0  0  0  0  0
   -2.2650   23.9280  -29.4080 C   0  0  0  0  0  0  0  0  0  0  0  0
   -2.0330   25.0070  -28.5410 O   0  0  0  0  0  0  0  0  0  0  0  0
   -2.2670   24.9770  -27.1370 C   0  0  0  0  0  0  0  0  0  0  0  0
   -3.2340   24.0740  -30.4130 C   0  0  0  0  0  0  0  0  0  0  0  0
   -3.9270   25.2930  -30.4980 O   0  0  0  0  0  0  0  0  0  0  0  0
   -5.3400   25.4260  -30.3940 C   0  0  0  0  0  0  0  0  0  0  0  0
   -3.4840   23.0090  -31.3000 C   0  0  0  0  0  0  0  0  0  0  0  0
   -2.3570   19.5430  -32.1150 N   0  0  0  0  0  0  0  0  0  0  0  0
   -3.0280   18.7510  -32.9760 C   0  0  0  0  0  0  0  0  0  0  0  0
   -2.7130   17.4240  -33.2620 C   0  0  0  0  0  0  0  0  0  0  0  0
   -1.8743   14.3342  -35.4940 H   0  0  0  0  0  0  0  0  0  0  0  0
   -3.4900   14.3728  -36.2780 H   0  0  0  0  0  0  0  0  0  0  0  0
   -2.4563   15.8419  -36.2780 H   0  0  0  0  0  0  0  0  0  0  0  0
   -5.4134   16.7867  -35.2888 H   0  0  0  0  0  0  0  0  0  0  0  0
   -5.9045   19.1755  -34.6734 H   0  0  0  0  0  0  0  0  0  0  0  0
   -4.7900   22.4770  -33.3600 H   0  0  0  0  0  0  0  0  0  0  0  0
   -5.7750   21.2930  -34.0400 H   0  0  0  0  0  0  0  0  0  0  0  0
   -5.4743   21.5110  -31.1050 H   0  0  0  0  0  0  0  0  0  0  0  0
   -6.6081   22.5810  -32.0391 H   0  0  0  0  0  0  0  0  0  0  0  0
   -8.7537   21.8631  -32.5817 H   0  0  0  0  0  0  0  0  0  0  0  0
  -10.4946   20.0741  -32.5313 H   0  0  0  0  0  0  0  0  0  0  0  0
   -9.8671   17.7349  -31.9266 H   0  0  0  0  0  0  0  0  0  0  0  0
   -7.4977   17.1808  -31.3686 H   0  0  0  0  0  0  0  0  0  0  0  0
   -5.7504   18.9614  -31.4146 H   0  0  0  0  0  0  0  0  0  0  0  0
   -1.2666   20.7177  -30.0762 H   0  0  0  0  0  0  0  0  0  0  0  0
   -0.8057   22.5914  -28.5048 H   0  0  0  0  0  0  0  0  0  0  0  0
   -1.3128   25.0993  -26.6036 H   0  0  0  0  0  0  0  0  0  0  0  0
   -2.9487   25.7951  -26.8613 H   0  0  0  0  0  0  0  0  0  0  0  0
   -2.7203   24.0134  -26.8613 H   0  0  0  0  0  0  0  0  0  0  0  0
   -5.6286   25.4532  -29.3329 H   0  0  0  0  0  0  0  0  0  0  0  0
   -5.6576   26.3580  -30.8844 H   0  0  0  0  0  0  0  0  0  0  0  0
   -5.8260   24.5696  -30.8844 H   0  0  0  0  0  0  0  0  0  0  0  0
   -4.2509   23.1189  -32.0809 H   0  0  0  0  0  0  0  0  0  0  0  0
   -1.8171   16.9497  -32.8350 H   0  0  0  0  0  0  0  0  0  0  0  0
  1  2  1  0
  2  3  1  0
  3  4  1  0
  4  5  2  0
  5  6  1  0
  6  7  1  0
  7  8  1  0
  8  9  1  0
  9 10  1  0
 10 11  2  0
 11 12  1  0
 12 13  2  0
 13 14  1  0
 14 15  2  0
  7 16  2  0
 16 17  1  0
 17 18  2  0
 18 19  1  0
 19 20  2  0
 20 21  1  0
 21 22  1  0
 20 23  1  0
 23 24  1  0
 24 25  1  0
 23 26  2  0
 16 27  1  0
 27 28  2  0
 28 29  1  0
 29  3  2  0
 28  6  1  0
 15 10  1  0
 26 17  1  0
  1 30  1  0
  1 31  1  0
  1 32  1  0
  4 33  1  0
  5 34  1  0
  8 35  1  0
  8 36  1  0
  9 37  1  0
  9 38  1  0
 11 39  1  0
 12 40  1  0
 13 41  1  0
 14 42  1  0
 15 43  1  0
 18 44  1  0
 19 45  1  0
 22 46  1  0
 22 47  1  0
 22 48  1  0
 25 49  1  0
 25 50  1  0
 25 51  1  0
 26 52  1  0
 29 53  1  0
M  CHG  1   8   1
M  END
>  <UniqueID>  (9) 
9

>  <SMILES>  (9) 
COc1ccn2c([NH2+]Cc3ccccc3)c(-c3ccc(OC)c(OC)c3)nc2c1

>  <Energy>  (9) 
97.1021089206282

>  <Genealogy>  (9) 
COc1ccn2c([NH2+]Cc3ccccc3)c(-c3ccc(OC)c(OC)c3)nc2c1 (protonated)
COc1ccn2c([NH2+]Cc3ccccc3)c(-c3ccc(OC)c(OC)c3)nc2c1 (3D coordinates assigned)
COc1ccn2c([NH2+]Cc3ccccc3)c(-c3ccc(OC)c(OC)c3)nc2c1 (optimized conformer: 97.1021089206282 kcal/mol)

>  <smiles>  (9) 
COc1ccn2c(NCc3ccccc3)c(-c3ccc(OC)c(OC)c3)nc2c1

>  <score_type>  (9) 
oracle

>  <origin>  (9) 
adg

>  <m_score__min__energy>  (9) 
-8.5700000000000003

>  <m_primary>  (9) 
energy

$$$$
9:0
     RDKit          3D

 48 49  0  0  0  0  0  0  0  0999 V2000
   -1.1360   24.9260  -28.0380 C   0  0  0  0  0  0  0  0  0  0  0  0
   -2.5700   24.8230  -27.7180 N   0  0  0  0  0  0  0  0  0  0  0  0
   -2.8060   25.3340  -26.3570 C   0  0  0  0  0  0  0  0  0  0  0  0
   -3.0420   23.4250  -27.8400 C   0  0  0  0  0  0  0  0  0  0  0  0
   -4.4850   23.3960  -28.3610 C   0  0  0  0  0  0  0  0  0  0  0  0
   -4.4990   23.5340  -29.8360 N   0  0  0  0  0  0  0  0  0  0  0  0
   -5.1870   24.7750  -30.2600 C   0  0  0  0  0  0  0  0  0  0  0  0
   -5.9640   24.5220  -31.5600 C   0  0  0  0  0  0  0  0  0  0  0  0
   -5.3290   23.4800  -32.3670 N   0  0  0  0  0  0  0  0  0  0  0  0
   -3.1280   23.4580  -30.3970 C   0  0  0  0  0  0  0  0  0  0  0  0
   -2.8950   22.0850  -31.0300 C   0  0  0  0  0  0  0  0  0  0  0  0
   -4.1130   21.2750  -30.9240 N   0  0  0  0  0  0  0  0  0  0  0  0
   -4.4450   20.5040  -32.4440 S   0  0  0  0  0  0  0  0  0  0  0  0
   -3.4020   19.4560  -32.7160 O   0  0  0  0  0  0  0  0  0  0  0  0
   -4.3960   21.5290  -33.5430 O   0  0  0  0  0  0  0  0  0  0  0  0
   -6.0690   19.8110  -32.3860 C   0  0  0  0  0  0  0  0  0  0  0  0
   -6.2380   18.4630  -32.7460 C   0  0  0  0  0  0  0  0  0  0  0  0
   -7.5060   17.8630  -32.7210 C   0  0  0  0  0  0  0  0  0  0  0  0
   -8.6330   18.5970  -32.3370 C   0  0  0  0  0  0  0  0  0  0  0  0
   -8.4850   19.9380  -31.9810 C   0  0  0  0  0  0  0  0  0  0  0  0
   -9.5330   20.7150  -31.6060 N   0  0  0  0  0  0  0  0  0  0  0  0
   -8.7520   22.1430  -31.3220 S   0  0  0  0  0  0  0  0  0  0  0  0
   -7.1540   21.8620  -31.6410 N   0  0  0  0  0  0  0  0  0  0  0  0
   -7.2000   20.5540  -32.0030 C   0  0  0  0  0  0  0  0  0  0  0  0
   -0.5543   24.9678  -27.1053 H   0  0  0  0  0  0  0  0  0  0  0  0
   -0.8270   24.0477  -28.6238 H   0  0  0  0  0  0  0  0  0  0  0  0
   -0.9557   25.8394  -28.6238 H   0  0  0  0  0  0  0  0  0  0  0  0
   -2.4629   24.5912  -25.6218 H   0  0  0  0  0  0  0  0  0  0  0  0
   -2.2503   26.2728  -26.2163 H   0  0  0  0  0  0  0  0  0  0  0  0
   -3.8811   25.5197  -26.2163 H   0  0  0  0  0  0  0  0  0  0  0  0
   -2.3916   22.8819  -28.5414 H   0  0  0  0  0  0  0  0  0  0  0  0
   -3.0085   22.9473  -26.8497 H   0  0  0  0  0  0  0  0  0  0  0  0
   -4.9534   22.4409  -28.0809 H   0  0  0  0  0  0  0  0  0  0  0  0
   -5.0440   24.2328  -27.9168 H   0  0  0  0  0  0  0  0  0  0  0  0
   -5.8865   25.0918  -29.4724 H   0  0  0  0  0  0  0  0  0  0  0  0
   -4.4396   25.5636  -30.4317 H   0  0  0  0  0  0  0  0  0  0  0  0
   -6.9877   24.2067  -31.3096 H   0  0  0  0  0  0  0  0  0  0  0  0
   -5.9746   25.4541  -32.1441 H   0  0  0  0  0  0  0  0  0  0  0  0
   -5.0950   22.6690  -31.7490 H   0  0  0  0  0  0  0  0  0  0  0  0
   -6.0110   23.1490  -33.0900 H   0  0  0  0  0  0  0  0  0  0  0  0
   -3.0045   24.2376  -31.1631 H   0  0  0  0  0  0  0  0  0  0  0  0
   -2.3987   23.6101  -29.5877 H   0  0  0  0  0  0  0  0  0  0  0  0
   -2.6322   22.2119  -32.0906 H   0  0  0  0  0  0  0  0  0  0  0  0
   -2.0743   21.5768  -30.5025 H   0  0  0  0  0  0  0  0  0  0  0  0
   -4.9150   21.9170  -30.7210 H   0  0  0  0  0  0  0  0  0  0  0  0
   -5.3635   17.8698  -33.0518 H   0  0  0  0  0  0  0  0  0  0  0  0
   -7.6148   16.8061  -33.0059 H   0  0  0  0  0  0  0  0  0  0  0  0
   -9.6251   18.1223  -32.3159 H   0  0  0  0  0  0  0  0  0  0  0  0
  1  2  1  0
  2  3  1  0
  2  4  1  0
  4  5  1  0
  5  6  1  0
  6  7  1  0
  7  8  1  0
  8  9  1  0
  6 10  1  0
 10 11  1  0
 11 12  1  0
 12 13  1  0
 13 14  2  0
 13 15  2  0
 13 16  1  0
 16 17  2  0
 17 18  1  0
 18 19  2  0
 19 20  1  0
 20 21  2  0
 21 22  1  0
 22 23  1  0
 23 24  2  0
 24 16  1  0
 24 20  1  0
  1 25  1  0
  1 26  1  0
  1 27  1  0
  3 28  1  0
  3 29  1  0
  3 30  1  0
  4 31  1  0
  4 32  1  0
  5 33  1  0
  5 34  1  0
  7 35  1  0
  7 36  1  0
  8 37  1  0
  8 38  1  0
  9 39  1  0
  9 40  1  0
 10 41  1  0
 10 42  1  0
 11 43  1  0
 11 44  1  0
 12 45  1  0
 17 46  1  0
 18 47  1  0
 19 48  1  0
M  END
>  <UniqueID>  (10) 
10

>  <SMILES>  (10) 
CN(C)CCN(CCN)CCNS(=O)(=O)c1cccc2nsnc12

>  <Energy>  (10) 
79.11344610462477

>  <Genealogy>  (10) 
CN(C)CCN(CCN)CCNS(=O)(=O)c1cccc2nsnc12 (3D coordinates assigned)
CN(C)CCN(CCN)CCNS(=O)(=O)c1cccc2nsnc12 (optimized conformer: 79.11344610462477 kcal/mol)

>  <smiles>  (10) 
CN(C)CCN(CCN)CCNS(=O)(=O)c1cccc2nsnc12

>  <score_type>  (10) 
oracle

>  <origin>  (10) 
adg

>  <m_score__min__energy>  (10) 
-6.5099999999999998

>  <m_primary>  (10) 
energy

$$$$
10:0
     RDKit          3D

 51 53  0  0  0  0  0  0  0  0999 V2000
   -2.0610   21.9620  -30.5880 C   0  0  0  0  0  0  0  0  0  0  0  0
   -2.4690   23.3090  -30.0070 C   0  0  0  0  0  0  0  0  0  0  0  0
   -3.7480   23.7340  -30.5670 N   0  0  0  0  0  0  0  0  0  0  0  0
   -4.5820   22.9740  -31.3010 C   0  0  0  0  0  0  0  0  0  0  0  0
   -5.6440   23.7620  -31.6850 C   0  0  0  0  0  0  0  0  0  0  0  0
   -6.8600   23.3340  -32.4550 C   0  0  0  0  0  0  0  0  0  0  0  0
   -7.9930   23.0470  -31.5450 N   0  0  1  0  0  0  0  0  0  0  0  0
   -9.2740   22.8130  -32.2440 C   0  0  0  0  0  0  0  0  0  0  0  0
   -9.8880   21.5550  -31.6110 C   0  0  2  0  0  0  0  0  0  0  0  0
   -9.2490   21.5450  -30.2330 C   0  0  0  0  0  0  0  0  0  0  0  0
   -7.8250   21.8840  -30.6400 C   0  0  1  0  0  0  0  0  0  0  0  0
   -7.2060   20.6140  -31.3260 C   0  0  0  0  0  0  0  0  0  0  0  0
   -8.2290   19.6530  -31.8160 N   0  0  0  0  0  0  0  0  0  0  0  0
   -7.6320   18.6450  -32.7170 C   0  0  0  0  0  0  0  0  0  0  0  0
   -6.1510   18.3610  -32.3800 C   0  0  0  0  0  0  0  0  0  0  0  0
   -5.1890   18.6160  -33.4780 N   0  0  0  0  0  0  0  0  0  0  0  0
   -5.7220   18.2980  -34.8120 C   0  0  0  0  0  0  0  0  0  0  0  0
   -4.5920   19.9600  -33.4450 C   0  0  0  0  0  0  0  0  0  0  0  0
   -9.4480   20.2820  -32.3890 C   0  0  0  0  0  0  0  0  0  0  0  0
   -5.3930   25.0070  -31.1380 C   0  0  0  0  0  0  0  0  0  0  0  0
   -4.2240   24.9670  -30.4700 N   0  0  0  0  0  0  0  0  0  0  0  0
   -1.8480   21.2589  -29.7693 H   0  0  0  0  0  0  0  0  0  0  0  0
   -2.8797   21.5666  -31.2072 H   0  0  0  0  0  0  0  0  0  0  0  0
   -1.1605   22.0874  -31.2072 H   0  0  0  0  0  0  0  0  0  0  0  0
   -2.5625   23.2200  -28.9146 H   0  0  0  0  0  0  0  0  0  0  0  0
   -1.7015   24.0555  -30.2592 H   0  0  0  0  0  0  0  0  0  0  0  0
   -4.4403   21.9119  -31.5499 H   0  0  0  0  0  0  0  0  0  0  0  0
   -7.1494   24.1392  -33.1463 H   0  0  0  0  0  0  0  0  0  0  0  0
   -6.6168   22.4164  -33.0108 H   0  0  0  0  0  0  0  0  0  0  0  0
   -8.1160   23.8830  -30.9210 H   0  0  0  0  0  0  0  0  0  0  0  0
   -9.9449   23.6740  -32.1077 H   0  0  0  0  0  0  0  0  0  0  0  0
   -9.1209   22.6820  -33.3254 H   0  0  0  0  0  0  0  0  0  0  0  0
  -10.9880   21.5611  -31.6060 H   0  0  0  0  0  0  0  0  0  0  0  0
   -9.6829   22.3079  -29.5698 H   0  0  0  0  0  0  0  0  0  0  0  0
   -9.3719   20.6159  -29.6572 H   0  0  0  0  0  0  0  0  0  0  0  0
   -7.1363   22.1438  -29.8226 H   0  0  0  0  0  0  0  0  0  0  0  0
   -6.5964   20.9412  -32.1812 H   0  0  0  0  0  0  0  0  0  0  0  0
   -6.6067   20.0923  -30.5653 H   0  0  0  0  0  0  0  0  0  0  0  0
   -8.2013   17.7082  -32.6264 H   0  0  0  0  0  0  0  0  0  0  0  0
   -7.6736   19.0429  -33.7417 H   0  0  0  0  0  0  0  0  0  0  0  0
   -5.8691   18.9964  -31.5275 H   0  0  0  0  0  0  0  0  0  0  0  0
   -6.0898   17.2834  -32.1676 H   0  0  0  0  0  0  0  0  0  0  0  0
   -6.6623   17.7370  -34.7070 H   0  0  0  0  0  0  0  0  0  0  0  0
   -5.9113   19.2309  -35.3632 H   0  0  0  0  0  0  0  0  0  0  0  0
   -4.9909   17.6883  -35.3632 H   0  0  0  0  0  0  0  0  0  0  0  0
   -4.4526   20.2737  -32.3999 H   0  0  0  0  0  0  0  0  0  0  0  0
   -3.6177   19.9410  -33.9552 H   0  0  0  0  0  0  0  0  0  0  0  0
   -5.2593   20.6702  -33.9552 H   0  0  0  0  0  0  0  0  0  0  0  0
   -9.2426   20.5609  -33.4331 H   0  0  0  0  0  0  0  0  0  0  0  0
  -10.2653   19.5493  -32.3173 H   0  0  0  0  0  0  0  0  0  0  0  0
   -6.0437   25.8888  -31.2332 H   0  0  0  0  0  0  0  0  0  0  0  0
  1  2  1  0
  2  3  1  0
  3  4  1  0
  4  5  2  0
  5  6  1  0
  6  7  1  0
  7  8  1  0
  8  9  1  0
  9 10  1  0
 10 11  1  0
 11 12  1  0
 12 13  1  0
 13 14  1  0
 14 15  1  0
 15 16  1  0
 16 17  1  0
 16 18  1  0
 13 19  1  0
  5 20  1  0
 20 21  2  0
 21  3  1  0
 11  7  1  0
 19  9  1  0
  1 22  1  0
  1 23  1  0
  1 24  1  0
  2 25  1  0
  2 26  1  0
  4 27  1  0
  6 28  1  0
  6 29  1  0
  7 30  1  1
  8 31  1  0
  8 32  1  0
  9 33  1  1
 10 34  1  0
 10 35  1  0
 11 36  1  1
 12 37  1  0
 12 38  1  0
 14 39  1  0
 14 40  1  0
 15 41  1  0
 15 42  1  0
 17 43  1  0
 17 44  1  0
 17 45  1  0
 18 46  1  0
 18 47  1  0
 18 48  1  0
 19 49  1  0
 19 50  1  0
 20 51  1  0
M  CHG  1   7   1
M  END
>  <UniqueID>  (11) 
11

>  <SMILES>  (11) 
CCn1cc(C[N@H+]2C[C@@H]3CC2CN(CCN(C)C)C3)cn1

>  <Energy>  (11) 
108.62611425232525

>  <Genealogy>  (11) 
CCn1cc(C[NH+]2CC3CC2CN(CCN(C)C)C3)cn1 (protonated)
CCn1cc(C[N@H+]2C[C@@H]3CC2CN(CCN(C)C)C3)cn1 (chirality)
CCn1cc(C[N@H+]2C[C@@H]3CC2CN(CCN(C)C)C3)cn1 (3D coordinates assigned)
CCn1cc(C[N@H+]2C[C@@H]3CC2CN(CCN(C)C)C3)cn1 (nonaromatic ring conformer: 108.62611425232525 kcal/mol)

>  <smiles>  (11) 
CCn1cc(CN2CC3CC2CN(CCN(C)C)C3)cn1

>  <score_type>  (11) 
oracle

>  <origin>  (11) 
adg

>  <m_score__min__energy>  (11) 
-6.3700000000000001

>  <m_primary>  (11) 
energy

$$$$
11:0
     RDKit          3D

 40 40  0  0  0  0  0  0  0  0999 V2000
   -8.7750   21.6250  -31.1220 C   0  0  0  0  0  0  0  0  0  0  0  0
   -8.1600   22.7250  -31.9730 C   0  0  0  0  0  0  0  0  0  0  0  0
   -6.9740   23.1760  -31.3560 O   0  0  0  0  0  0  0  0  0  0  0  0
   -7.2440   24.2600  -30.4870 C   0  0  0  0  0  0  0  0  0  0  0  0
   -5.9880   24.6650  -29.7020 C   0  0  0  0  0  0  0  0  0  0  0  0
   -5.1860   25.7780  -30.3860 C   0  0  0  0  0  0  0  0  0  0  0  0
   -3.8820   25.2820  -30.8100 N   0  0  0  0  0  0  0  0  0  0  0  0
   -3.1180   24.3560  -30.0350 C   0  0  0  0  0  0  0  0  0  0  0  0
   -2.3600   24.7680  -29.1150 O   0  0  0  0  0  0  0  0  0  0  0  0
   -3.2740   22.8880  -30.2660 C   0  0  0  0  0  0  0  0  0  0  0  0
   -4.2760   22.6490  -31.3050 N   0  0  0  0  0  0  0  0  0  0  0  0
   -4.4200   21.4010  -32.0150 C   0  0  0  0  0  0  0  0  0  0  0  0
   -5.6210   20.6650  -31.9560 C   0  0  0  0  0  0  0  0  0  0  0  0
   -5.7570   19.4710  -32.6690 C   0  0  0  0  0  0  0  0  0  0  0  0
   -7.2680   18.5810  -32.6150 Cl  0  0  0  0  0  0  0  0  0  0  0  0
   -4.6960   18.9910  -33.4380 C   0  0  0  0  0  0  0  0  0  0  0  0
   -3.5040   19.7120  -33.5130 C   0  0  0  0  0  0  0  0  0  0  0  0
   -3.3550   20.9240  -32.8090 C   0  0  0  0  0  0  0  0  0  0  0  0
   -2.1630   21.6670  -32.8680 O   0  0  0  0  0  0  0  0  0  0  0  0
   -0.8580   21.1120  -32.7470 C   0  0  0  0  0  0  0  0  0  0  0  0
   -8.6401   21.8663  -30.0573 H   0  0  0  0  0  0  0  0  0  0  0  0
   -9.8488   21.5448  -31.3465 H   0  0  0  0  0  0  0  0  0  0  0  0
   -8.2810   20.6682  -31.3465 H   0  0  0  0  0  0  0  0  0  0  0  0
   -7.9281   22.3309  -32.9734 H   0  0  0  0  0  0  0  0  0  0  0  0
   -8.8692   23.5603  -32.0688 H   0  0  0  0  0  0  0  0  0  0  0  0
   -7.5892   25.1192  -31.0808 H   0  0  0  0  0  0  0  0  0  0  0  0
   -8.0187   23.9491  -29.7706 H   0  0  0  0  0  0  0  0  0  0  0  0
   -6.2955   25.0162  -28.7059 H   0  0  0  0  0  0  0  0  0  0  0  0
   -5.3376   23.7799  -29.6432 H   0  0  0  0  0  0  0  0  0  0  0  0
   -5.7408   26.1354  -31.2660 H   0  0  0  0  0  0  0  0  0  0  0  0
   -5.0381   26.6006  -29.6708 H   0  0  0  0  0  0  0  0  0  0  0  0
   -2.3101   22.4649  -30.5852 H   0  0  0  0  0  0  0  0  0  0  0  0
   -3.6008   22.4080  -29.3317 H   0  0  0  0  0  0  0  0  0  0  0  0
   -4.8460   23.4700  -31.6090 H   0  0  0  0  0  0  0  0  0  0  0  0
   -6.4574   21.0335  -31.3440 H   0  0  0  0  0  0  0  0  0  0  0  0
   -4.7997   18.0428  -33.9858 H   0  0  0  0  0  0  0  0  0  0  0  0
   -2.6739   19.3316  -34.1264 H   0  0  0  0  0  0  0  0  0  0  0  0
   -0.6029   21.0035  -31.6825 H   0  0  0  0  0  0  0  0  0  0  0  0
   -0.8327   20.1253  -33.2325 H   0  0  0  0  0  0  0  0  0  0  0  0
   -0.1297   21.7783  -33.2325 H   0  0  0  0  0  0  0  0  0  0  0  0
  1  2  1  0
  2  3  1  0
  3  4  1  0
  4  5  1  0
  5  6  1  0
  6  7  1  0
  7  8  1  0
  8  9  2  0
  8 10  1  0
 10 11  1  0
 11 12  1  0
 12 13  2  0
 13 14  1  0
 14 15  1  0
 14 16  2  0
 16 17  1  0
 17 18  2  0
 18 19  1  0
 19 20  1  0
 18 12  1  0
  1 21  1  0
  1 22  1  0
  1 23  1  0
  2 24  1  0
  2 25  1  0
  4 26  1  0
  4 27  1  0
  5 28  1  0
  5 29  1  0
  6 30  1  0
  6 31  1  0
 10 32  1  0
 10 33  1  0
 11 34  1  0
 13 35  1  0
 16 36  1  0
 17 37  1  0
 20 38  1  0
 20 39  1  0
 20 40  1  0
M  CHG  1   7  -1
M  END
>  <UniqueID>  (12) 
12

>  <SMILES>  (12) 
CCOCCC[N-]C(=O)CNc1cc(Cl)ccc1OC

>  <Energy>  (12) 
27.167164984278227

>  <Genealogy>  (12) 
CCOCCC[N-]C(=O)CNc1cc(Cl)ccc1OC (protonated)
CCOCCC[N-]C(=O)CNc1cc(Cl)ccc1OC (3D coordinates assigned)
CCOCCC[N-]C(=O)CNc1cc(Cl)ccc1OC (optimized conformer: 27.167164984278227 kcal/mol)

>  <smiles>  (12) 
CCOCCCNC(=O)CNc1cc(Cl)ccc1OC

>  <score_type>  (12) 
oracle

>  <origin>  (12) 
adg

>  <m_score__min__energy>  (12) 
-8.1300000000000008

>  <m_primary>  (12) 
energy

$$$$
12:0
     RDKit          3D

 58 61  0  0  0  0  0  0  0  0999 V2000
   -3.6230   23.4480  -28.1780 C   0  0  0  0  0  0  0  0  0  0  0  0
   -3.3030   24.5540  -29.1930 C   0  0  0  0  0  0  0  0  0  0  0  0
   -3.9090   24.3430  -30.5330 N   0  0  0  0  0  0  0  0  0  0  0  0
   -5.0230   25.2860  -30.7840 C   0  0  0  0  0  0  0  0  0  0  0  0
   -6.1190   25.1240  -29.7360 C   0  0  0  0  0  0  0  0  0  0  0  0
   -4.3150   22.9410  -30.8020 C   0  0  0  0  0  0  0  0  0  0  0  0
   -3.5940   22.3220  -32.0100 C   0  0  0  0  0  0  0  0  0  0  0  0
   -4.5370   21.9950  -33.0800 N   0  0  0  0  0  0  0  0  0  0  0  0
   -5.6460   21.1100  -32.8680 C   0  0  0  0  0  0  0  0  0  0  0  0
   -5.4800   19.7440  -33.0610 C   0  0  0  0  0  0  0  0  0  0  0  0
   -6.5330   18.8670  -32.8880 C   0  0  0  0  0  0  0  0  0  0  0  0
   -7.7480   19.2780  -32.4000 N   0  0  0  0  0  0  0  0  0  0  0  0
   -8.7270   18.2840  -31.9290 C   0  0  0  0  0  0  0  0  0  0  0  0
   -7.9890   20.6380  -32.2880 C   0  0  0  0  0  0  0  0  0  0  0  0
   -9.2770   21.1440  -31.9840 C   0  0  0  0  0  0  0  0  0  0  0  0
   -9.4880   22.5110  -31.8040 C   0  0  0  0  0  0  0  0  0  0  0  0
   -8.4310   23.4070  -31.9240 C   0  0  0  0  0  0  0  0  0  0  0  0
   -7.1590   22.9490  -32.2610 C   0  0  0  0  0  0  0  0  0  0  0  0
   -6.9240   21.5780  -32.4830 C   0  0  0  0  0  0  0  0  0  0  0  0
   -6.0640   17.5290  -33.2750 C   0  0  0  0  0  0  0  0  0  0  0  0
   -6.7530   16.3280  -33.4900 C   0  0  0  0  0  0  0  0  0  0  0  0
   -6.0360   15.2100  -33.9440 C   0  0  0  0  0  0  0  0  0  0  0  0
   -4.6610   15.3000  -34.2290 C   0  0  0  0  0  0  0  0  0  0  0  0
   -3.9970   14.1480  -34.6800 O   0  0  0  0  0  0  0  0  0  0  0  0
   -2.8460   14.1610  -35.5170 C   0  0  0  0  0  0  0  0  0  0  0  0
   -3.9990   16.5370  -34.0710 C   0  0  0  0  0  0  0  0  0  0  0  0
   -4.7220   17.6350  -33.6040 C   0  0  0  0  0  0  0  0  0  0  0  0
   -4.2310   19.0420  -33.4970 C   0  0  0  0  0  0  0  0  0  0  0  0
   -3.5088   23.8426  -27.1576 H   0  0  0  0  0  0  0  0  0  0  0  0
   -4.6575   23.1040  -28.3245 H   0  0  0  0  0  0  0  0  0  0  0  0
   -2.9320   22.6048  -28.3245 H   0  0  0  0  0  0  0  0  0  0  0  0
   -3.6750   25.5085  -28.7923 H   0  0  0  0  0  0  0  0  0  0  0  0
   -2.2121   24.5482  -29.3343 H   0  0  0  0  0  0  0  0  0  0  0  0
   -4.6385   26.3159  -30.7469 H   0  0  0  0  0  0  0  0  0  0  0  0
   -5.4494   25.0709  -31.7749 H   0  0  0  0  0  0  0  0  0  0  0  0
   -5.6775   25.1893  -28.7306 H   0  0  0  0  0  0  0  0  0  0  0  0
   -6.8664   25.9214  -29.8607 H   0  0  0  0  0  0  0  0  0  0  0  0
   -6.6037   24.1445  -29.8607 H   0  0  0  0  0  0  0  0  0  0  0  0
   -4.0893   22.3350  -29.9122 H   0  0  0  0  0  0  0  0  0  0  0  0
   -5.3903   22.9512  -31.0337 H   0  0  0  0  0  0  0  0  0  0  0  0
   -2.8532   23.0399  -32.3919 H   0  0  0  0  0  0  0  0  0  0  0  0
   -3.1028   21.3935  -31.6835 H   0  0  0  0  0  0  0  0  0  0  0  0
   -4.5200   22.5640  -33.9570 H   0  0  0  0  0  0  0  0  0  0  0  0
   -8.7380   18.2728  -30.8291 H   0  0  0  0  0  0  0  0  0  0  0  0
   -9.7271   18.5486  -32.3030 H   0  0  0  0  0  0  0  0  0  0  0  0
   -8.4473   17.2881  -32.3030 H   0  0  0  0  0  0  0  0  0  0  0  0
  -10.1236   20.4481  -31.8885 H   0  0  0  0  0  0  0  0  0  0  0  0
  -10.4957   22.8824  -31.5659 H   0  0  0  0  0  0  0  0  0  0  0  0
   -8.5998   24.4803  -31.7523 H   0  0  0  0  0  0  0  0  0  0  0  0
   -6.3296   23.6655  -32.3547 H   0  0  0  0  0  0  0  0  0  0  0  0
   -7.8356   16.2625  -33.3064 H   0  0  0  0  0  0  0  0  0  0  0  0
   -6.5562   14.2502  -34.0789 H   0  0  0  0  0  0  0  0  0  0  0  0
   -1.9396   14.1712  -34.8939 H   0  0  0  0  0  0  0  0  0  0  0  0
   -2.8443   13.2628  -36.1520 H   0  0  0  0  0  0  0  0  0  0  0  0
   -2.8645   15.0590  -36.1520 H   0  0  0  0  0  0  0  0  0  0  0  0
   -2.9301   16.6335  -34.3123 H   0  0  0  0  0  0  0  0  0  0  0  0
   -3.4315   19.1356  -32.7473 H   0  0  0  0  0  0  0  0  0  0  0  0
   -3.7844   19.4395  -34.4203 H   0  0  0  0  0  0  0  0  0  0  0  0
  1  2  1  0
  2  3  1  0
  3  4  1  0
  4  5  1  0
  3  6  1  0
  6  7  1  0
  7  8  1  0
  8  9  1  0
  9 10  2  0
 10 11  1  0
 11 12  2  0
 12 13  1  0
 12 14  1  0
 14 15  2  0
 15 16  1  0
 16 17  2  0
 17 18  1  0
 18 19  2  0
 11 20  1  0
 20 21  2  0
 21 22  1  0
 22 23  2  0
 23 24  1  0
 24 25  1  0
 23 26  1  0
 26 27  2  0
 27 28  1  0
 19  9  1  0
 27 20  1  0
 28 10  1  0
 19 14  1  0
  1 29  1  0
  1 30  1  0
  1 31  1  0
  2 32  1  0
  2 33  1  0
  4 34  1  0
  4 35  1  0
  5 36  1  0
  5 37  1  0
  5 38  1  0
  6 39  1  0
  6 40  1  0
  7 41  1  0
  7 42  1  0
  8 43  1  0
 13 44  1  0
 13 45  1  0
 13 46  1  0
 15 47  1  0
 16 48  1  0
 17 49  1  0
 18 50  1  0
 21 51  1  0
 22 52  1  0
 25 53  1  0
 25 54  1  0
 25 55  1  0
 26 56  1  0
 28 57  1  0
 28 58  1  0
M  CHG  1  12   1
M  END
>  <UniqueID>  (13) 
13

>  <SMILES>  (13) 
CCN(CC)CCNc1c2c([n+](C)c3ccccc13)-c1ccc(OC)cc1C2

>  <Energy>  (13) 
102.15992952347762

>  <Genealogy>  (13) 
CCN(CC)CCNc1c2c([n+](C)c3ccccc13)-c1ccc(OC)cc1C2 (3D coordinates assigned)
CCN(CC)CCNc1c2c([n+](C)c3ccccc13)-c1ccc(OC)cc1C2 (nonaromatic ring conformer: 102.15992952347762 kcal/mol)

>  <smiles>  (13) 
CCN(CC)CCNc1c2c([n+](C)c3ccccc13)-c1ccc(OC)cc1C2

>  <score_type>  (13) 
oracle

>  <origin>  (13) 
adg

>  <m_score__min__energy>  (13) 
-9.1699999999999999

>  <m_primary>  (13) 
energy

$$$$
13:0
     RDKit          3D

 39 41  0  0  0  0  0  0  0  0999 V2000
   -3.3510   21.8140  -31.5560 C   0  0  0  0  0  0  0  0  0  0  0  0
   -4.3510   22.2940  -32.6060 C   0  0  0  0  0  0  0  0  0  0  0  0
   -5.7430   22.1650  -32.1060 N   0  0  0  0  0  0  0  0  0  0  0  0
   -6.3250   23.2150  -31.4130 C   0  0  0  0  0  0  0  0  0  0  0  0
   -5.6430   24.5610  -31.2220 C   0  0  0  0  0  0  0  0  0  0  0  0
   -5.5200   24.9130  -29.7970 N   0  0  0  0  0  0  0  0  0  0  0  0
   -4.9770   23.8170  -28.9790 C   0  0  0  0  0  0  0  0  0  0  0  0
   -3.6430   24.1990  -28.4120 C   0  0  0  0  0  0  0  0  0  0  0  0
   -3.3420   24.3420  -27.0640 C   0  0  0  0  0  0  0  0  0  0  0  0
   -2.0170   24.7340  -26.8330 C   0  0  0  0  0  0  0  0  0  0  0  0
   -1.2700   24.8860  -27.9950 C   0  0  0  0  0  0  0  0  0  0  0  0
   -2.2590   24.5330  -29.3090 S   0  0  0  0  0  0  0  0  0  0  0  0
   -7.6260   23.0960  -30.9090 C   0  0  0  0  0  0  0  0  0  0  0  0
   -8.3600   21.9410  -31.1150 C   0  0  0  0  0  0  0  0  0  0  0  0
   -9.5390   21.8750  -30.6700 O   0  0  0  0  0  0  0  0  0  0  0  0
   -7.7900   20.8720  -31.8140 C   0  0  0  0  0  0  0  0  0  0  0  0
   -8.5270   19.6920  -32.0350 C   0  0  0  0  0  0  0  0  0  0  0  0
   -7.9570   18.6170  -32.7080 C   0  0  0  0  0  0  0  0  0  0  0  0
   -6.6450   18.6970  -33.1630 C   0  0  0  0  0  0  0  0  0  0  0  0
   -5.9280   17.3270  -33.9930 Cl  0  0  0  0  0  0  0  0  0  0  0  0
   -5.8980   19.8590  -32.9590 C   0  0  0  0  0  0  0  0  0  0  0  0
   -6.4550   20.9850  -32.2950 C   0  0  0  0  0  0  0  0  0  0  0  0
   -3.7537   22.0073  -30.5508 H   0  0  0  0  0  0  0  0  0  0  0  0
   -3.1782   20.7348  -31.6805 H   0  0  0  0  0  0  0  0  0  0  0  0
   -2.4009   22.3542  -31.6805 H   0  0  0  0  0  0  0  0  0  0  0  0
   -4.1485   23.3494  -32.8410 H   0  0  0  0  0  0  0  0  0  0  0  0
   -4.2411   21.6732  -33.5074 H   0  0  0  0  0  0  0  0  0  0  0  0
   -4.6377   24.5173  -31.6663 H   0  0  0  0  0  0  0  0  0  0  0  0
   -6.2583   25.3295  -31.7128 H   0  0  0  0  0  0  0  0  0  0  0  0
   -4.8510   25.7160  -29.7360 H   0  0  0  0  0  0  0  0  0  0  0  0
   -5.6727   23.6010  -28.1548 H   0  0  0  0  0  0  0  0  0  0  0  0
   -4.8534   22.9264  -29.6127 H   0  0  0  0  0  0  0  0  0  0  0  0
   -4.0704   24.1653  -26.2588 H   0  0  0  0  0  0  0  0  0  0  0  0
   -1.6066   24.9053  -25.8269 H   0  0  0  0  0  0  0  0  0  0  0  0
   -0.2129   25.1858  -28.0466 H   0  0  0  0  0  0  0  0  0  0  0  0
   -8.0691   23.9290  -30.3436 H   0  0  0  0  0  0  0  0  0  0  0  0
   -9.5629   19.6203  -31.6719 H   0  0  0  0  0  0  0  0  0  0  0  0
   -8.5439   17.7028  -32.8807 H   0  0  0  0  0  0  0  0  0  0  0  0
   -4.8595   19.9035  -33.3189 H   0  0  0  0  0  0  0  0  0  0  0  0
  1  2  1  0
  2  3  1  0
  3  4  1  0
  4  5  1  0
  5  6  1  0
  6  7  1  0
  7  8  1  0
  8  9  2  0
  9 10  1  0
 10 11  2  0
 11 12  1  0
  4 13  2  0
 13 14  1  0
 14 15  2  0
 14 16  1  0
 16 17  2  0
 17 18  1  0
 18 19  2  0
 19 20  1  0
 19 21  1  0
 21 22  2  0
 22  3  1  0
 12  8  1  0
 22 16  1  0
  1 23  1  0
  1 24  1  0
  1 25  1  0
  2 26  1  0
  2 27  1  0
  5 28  1  0
  5 29  1  0
  6 30  1  0
  7 31  1  0
  7 32  1  0
  9 33  1  0
 10 34  1  0
 11 35  1  0
 13 36  1  0
 17 37  1  0
 18 38  1  0
 21 39  1  0
M  END
>  <UniqueID>  (14) 
14

>  <SMILES>  (14) 
CCn1c(CNCc2cccs2)cc(=O)c2ccc(Cl)cc21

>  <Energy>  (14) 
74.93338082934787

>  <Genealogy>  (14) 
CCn1c(CNCc2cccs2)cc(=O)c2ccc(Cl)cc21 (3D coordinates assigned)
CCn1c(CNCc2cccs2)cc(=O)c2ccc(Cl)cc21 (optimized conformer: 74.93338082934787 kcal/mol)

>  <smiles>  (14) 
CCn1c(CNCc2cccs2)cc(=O)c2ccc(Cl)cc21

>  <score_type>  (14) 
oracle

>  <origin>  (14) 
adg

>  <m_score__min__energy>  (14) 
-8.8200000000000003

>  <m_primary>  (14) 
energy

$$$$
14:0
     RDKit          3D

 46 47  0  0  0  0  0  0  0  0999 V2000
   -3.8500   22.1110  -32.3800 C   0  0  0  0  0  0  0  0  0  0  0  0
   -4.4390   22.6380  -31.0750 C   0  0  0  0  0  0  0  0  0  0  0  0
   -5.0710   23.9600  -31.2960 N   0  0  0  0  0  0  0  0  0  0  0  0
   -4.9340   24.8500  -30.1160 C   0  0  0  0  0  0  0  0  0  0  0  0
   -6.1870   25.6810  -29.8010 C   0  0  0  0  0  0  0  0  0  0  0  0
   -6.4600   23.8290  -31.7920 C   0  0  0  0  0  0  0  0  0  0  0  0
   -7.3130   22.9670  -30.8510 C   0  0  0  0  0  0  0  0  0  0  0  0
   -8.2040   22.0970  -31.6190 N   0  0  0  0  0  0  0  0  0  0  0  0
   -7.8500   20.7860  -32.1040 C   0  0  0  0  0  0  0  0  0  0  0  0
   -8.6540   19.6920  -31.7590 C   0  0  0  0  0  0  0  0  0  0  0  0
   -8.3400   18.4080  -32.2050 C   0  0  0  0  0  0  0  0  0  0  0  0
   -7.2060   18.1820  -33.0020 C   0  0  0  0  0  0  0  0  0  0  0  0
   -6.4000   19.2820  -33.3740 C   0  0  0  0  0  0  0  0  0  0  0  0
   -6.7150   20.5690  -32.9060 C   0  0  0  0  0  0  0  0  0  0  0  0
   -5.1650   19.0780  -34.2130 C   0  0  0  0  0  0  0  0  0  0  0  0
   -4.1640   18.1400  -33.5170 C   0  0  0  0  0  0  0  0  0  0  0  0
   -4.3950   16.7100  -33.7930 N   0  0  0  0  0  0  0  0  0  0  0  0
   -5.5520   16.1580  -33.0720 C   0  0  0  0  0  0  0  0  0  0  0  0
   -6.9190   16.7690  -33.4890 C   0  0  0  0  0  0  0  0  0  0  0  0
   -3.0474   21.3928  -32.1564 H   0  0  0  0  0  0  0  0  0  0  0  0
   -4.6379   21.6108  -32.9623 H   0  0  0  0  0  0  0  0  0  0  0  0
   -3.4401   22.9494  -32.9623 H   0  0  0  0  0  0  0  0  0  0  0  0
   -5.1961   21.9304  -30.7061 H   0  0  0  0  0  0  0  0  0  0  0  0
   -3.6326   22.7449  -30.3345 H   0  0  0  0  0  0  0  0  0  0  0  0
   -4.7049   24.2265  -29.2392 H   0  0  0  0  0  0  0  0  0  0  0  0
   -4.1332   25.5658  -30.3531 H   0  0  0  0  0  0  0  0  0  0  0  0
   -6.3088   25.7618  -28.7108 H   0  0  0  0  0  0  0  0  0  0  0  0
   -6.0783   26.6866  -30.2333 H   0  0  0  0  0  0  0  0  0  0  0  0
   -7.0711   25.1896  -30.2333 H   0  0  0  0  0  0  0  0  0  0  0  0
   -6.9094   24.8303  -31.8656 H   0  0  0  0  0  0  0  0  0  0  0  0
   -6.4307   23.3403  -32.7770 H   0  0  0  0  0  0  0  0  0  0  0  0
   -6.6510   22.3476  -30.2279 H   0  0  0  0  0  0  0  0  0  0  0  0
   -7.9216   23.6284  -30.2168 H   0  0  0  0  0  0  0  0  0  0  0  0
   -9.1610   22.4630  -31.8280 H   0  0  0  0  0  0  0  0  0  0  0  0
   -9.5427   19.8471  -31.1295 H   0  0  0  0  0  0  0  0  0  0  0  0
   -8.9880   17.5630  -31.9293 H   0  0  0  0  0  0  0  0  0  0  0  0
   -6.0661   21.4171  -33.1700 H   0  0  0  0  0  0  0  0  0  0  0  0
   -5.4564   18.6382  -35.1782 H   0  0  0  0  0  0  0  0  0  0  0  0
   -4.6805   20.0545  -34.3602 H   0  0  0  0  0  0  0  0  0  0  0  0
   -3.1510   18.3995  -33.8583 H   0  0  0  0  0  0  0  0  0  0  0  0
   -4.2934   18.2814  -32.4338 H   0  0  0  0  0  0  0  0  0  0  0  0
   -3.5310   16.1490  -33.6050 H   0  0  0  0  0  0  0  0  0  0  0  0
   -5.5883   15.0744  -33.2579 H   0  0  0  0  0  0  0  0  0  0  0  0
   -5.4079   16.4061  -32.0101 H   0  0  0  0  0  0  0  0  0  0  0  0
   -6.9595   16.7793  -34.5882 H   0  0  0  0  0  0  0  0  0  0  0  0
   -7.6802   16.1351  -33.0107 H   0  0  0  0  0  0  0  0  0  0  0  0
  1  2  1  0
  2  3  1  0
  3  4  1  0
  4  5  1  0
  3  6  1  0
  6  7  1  0
  7  8  1  0
  8  9  1  0
  9 10  2  0
 10 11  1  0
 11 12  2  0
 12 13  1  0
 13 14  2  0
 13 15  1  0
 15 16  1  0
 16 17  1  0
 17 18  1  0
 18 19  1  0
 14  9  1  0
 19 12  1  0
  1 20  1  0
  1 21  1  0
  1 22  1  0
  2 23  1  0
  2 24  1  0
  4 25  1  0
  4 26  1  0
  5 27  1  0
  5 28  1  0
  5 29  1  0
  6 30  1  0
  6 31  1  0
  7 32  1  0
  7 33  1  0
  8 34  1  0
 10 35  1  0
 11 36  1  0
 14 37  1  0
 15 38  1  0
 15 39  1  0
 16 40  1  0
 16 41  1  0
 17 42  1  0
 18 43  1  0
 18 44  1  0
 19 45  1  0
 19 46  1  0
M  END
>  <UniqueID>  (15) 
15

>  <SMILES>  (15) 
CCN(CC)CCNc1ccc2c(c1)CCNCC2

>  <Energy>  (15) 
54.68055708187918

>  <Genealogy>  (15) 
CCN(CC)CCNc1ccc2c(c1)CCNCC2 (3D coordinates assigned)
CCN(CC)CCNc1ccc2c(c1)CCNCC2 (nonaromatic ring conformer: 54.68055708187918 kcal/mol)

>  <smiles>  (15) 
CCN(CC)CCNc1ccc2c(c1)CCNCC2

>  <score_type>  (15) 
oracle

>  <origin>  (15) 
adg

>  <m_score__min__energy>  (15) 
-6.1799999999999997

>  <m_primary>  (15) 
energy

$$$$
15:0
     RDKit          3D

 62 64  0  0  0  0  0  0  0  0999 V2000
   -0.4640   22.2880  -23.5400 C   0  0  0  0  0  0  0  0  0  0  0  0
   -0.1940   22.9170  -24.9150 C   0  0  0  0  0  0  0  0  0  0  0  0
    0.2190   24.3390  -24.8630 N   0  0  0  0  0  0  0  0  0  0  0  0
   -0.8920   25.2660  -24.5580 C   0  0  0  0  0  0  0  0  0  0  0  0
   -0.3690   26.4410  -23.7410 C   0  0  0  0  0  0  0  0  0  0  0  0
    1.0400   24.7550  -26.0210 C   0  0  0  0  0  0  0  0  0  0  0  0
    0.8420   23.8040  -27.2060 C   0  0  0  0  0  0  0  0  0  0  0  0
    0.3240   24.5230  -28.3210 O   0  0  0  0  0  0  0  0  0  0  0  0
   -1.0440   24.7060  -28.5440 C   0  0  0  0  0  0  0  0  0  0  0  0
   -1.4540   25.5990  -29.3380 O   0  0  0  0  0  0  0  0  0  0  0  0
   -2.0290   23.8670  -27.7890 C   0  0  0  0  0  0  0  0  0  0  0  0
   -3.3770   24.5800  -27.6310 C   0  0  0  0  0  0  0  0  0  0  0  0
   -4.4200   23.8900  -28.3900 N   0  0  0  0  0  0  0  0  0  0  0  0
   -4.5180   23.9580  -29.8190 C   0  0  0  0  0  0  0  0  0  0  0  0
   -3.8420   24.7990  -30.4670 O   0  0  0  0  0  0  0  0  0  0  0  0
   -5.4440   23.0650  -30.5320 C   0  0  0  0  0  0  0  0  0  0  0  0
   -6.8260   23.1190  -30.3950 C   0  0  0  0  0  0  0  0  0  0  0  0
   -7.3080   22.1320  -31.2220 C   0  0  0  0  0  0  0  0  0  0  0  0
   -8.6210   21.7450  -31.4850 C   0  0  0  0  0  0  0  0  0  0  0  0
   -8.8260   20.6990  -32.3990 C   0  0  0  0  0  0  0  0  0  0  0  0
   -7.7290   20.0780  -33.0340 C   0  0  0  0  0  0  0  0  0  0  0  0
   -6.4140   20.4910  -32.7520 C   0  0  0  0  0  0  0  0  0  0  0  0
   -6.2330   21.5280  -31.8290 C   0  0  0  0  0  0  0  0  0  0  0  0
   -5.0750   22.0900  -31.4110 N   0  0  0  0  0  0  0  0  0  0  0  0
   -3.7350   21.8640  -31.9700 C   0  0  0  0  0  0  0  0  0  0  0  0
   -2.7610   21.5400  -30.8680 C   0  0  0  0  0  0  0  0  0  0  0  0
   -1.4040   21.8820  -30.9930 C   0  0  0  0  0  0  0  0  0  0  0  0
   -0.4970   21.5460  -29.9840 C   0  0  0  0  0  0  0  0  0  0  0  0
   -0.9340   20.8590  -28.8480 C   0  0  0  0  0  0  0  0  0  0  0  0
   -2.2810   20.5050  -28.7190 C   0  0  0  0  0  0  0  0  0  0  0  0
   -3.1910   20.8420  -29.7260 C   0  0  0  0  0  0  0  0  0  0  0  0
   -0.1622   22.9910  -22.7496 H   0  0  0  0  0  0  0  0  0  0  0  0
   -1.5369   22.0655  -23.4428 H   0  0  0  0  0  0  0  0  0  0  0  0
    0.1138   21.3570  -23.4428 H   0  0  0  0  0  0  0  0  0  0  0  0
    0.6062   22.3433  -25.4054 H   0  0  0  0  0  0  0  0  0  0  0  0
   -1.1437   22.8842  -25.4691 H   0  0  0  0  0  0  0  0  0  0  0  0
   -1.3264   25.6382  -25.4976 H   0  0  0  0  0  0  0  0  0  0  0  0
   -1.6627   24.7344  -23.9806 H   0  0  0  0  0  0  0  0  0  0  0  0
   -0.4693   26.2157  -22.6690 H   0  0  0  0  0  0  0  0  0  0  0  0
    0.6905   26.6125  -23.9821 H   0  0  0  0  0  0  0  0  0  0  0  0
   -0.9506   27.3430  -23.9821 H   0  0  0  0  0  0  0  0  0  0  0  0
    0.7470   25.7714  -26.3229 H   0  0  0  0  0  0  0  0  0  0  0  0
    2.0994   24.7304  -25.7258 H   0  0  0  0  0  0  0  0  0  0  0  0
    1.8081   23.3542  -27.4785 H   0  0  0  0  0  0  0  0  0  0  0  0
    0.1317   23.0135  -26.9222 H   0  0  0  0  0  0  0  0  0  0  0  0
   -2.1859   22.9244  -28.3338 H   0  0  0  0  0  0  0  0  0  0  0  0
   -1.6208   23.6786  -26.7851 H   0  0  0  0  0  0  0  0  0  0  0  0
   -3.6550   24.5947  -26.5668 H   0  0  0  0  0  0  0  0  0  0  0  0
   -3.2810   25.6063  -28.0151 H   0  0  0  0  0  0  0  0  0  0  0  0
   -5.2280   23.4800  -27.8740 H   0  0  0  0  0  0  0  0  0  0  0  0
   -7.4087   23.8039  -29.7614 H   0  0  0  0  0  0  0  0  0  0  0  0
   -9.4692   22.2430  -30.9924 H   0  0  0  0  0  0  0  0  0  0  0  0
   -9.8488   20.3611  -32.6218 H   0  0  0  0  0  0  0  0  0  0  0  0
   -7.9035   19.2653  -33.7545 H   0  0  0  0  0  0  0  0  0  0  0  0
   -5.5531   20.0131  -33.2424 H   0  0  0  0  0  0  0  0  0  0  0  0
   -3.7739   21.0242  -32.6794 H   0  0  0  0  0  0  0  0  0  0  0  0
   -3.4026   22.7763  -32.4868 H   0  0  0  0  0  0  0  0  0  0  0  0
   -1.0540   22.4163  -31.8885 H   0  0  0  0  0  0  0  0  0  0  0  0
    0.5629   21.8228  -30.0842 H   0  0  0  0  0  0  0  0  0  0  0  0
   -0.2183   20.5966  -28.0550 H   0  0  0  0  0  0  0  0  0  0  0  0
   -2.6243   19.9619  -27.8261 H   0  0  0  0  0  0  0  0  0  0  0  0
   -4.2491   20.5593  -29.6239 H   0  0  0  0  0  0  0  0  0  0  0  0
  1  2  1  0
  2  3  1  0
  3  4  1  0
  4  5  1  0
  3  6  1  0
  6  7  1  0
  7  8  1  0
  8  9  1  0
  9 10  2  0
  9 11  1  0
 11 12  1  0
 12 13  1  0
 13 14  1  0
 14 15  2  0
 14 16  1  0
 16 17  2  0
 17 18  1  0
 18 19  2  0
 19 20  1  0
 20 21  2  0
 21 22  1  0
 22 23  2  0
 23 24  1  0
 24 25  1  0
 25 26  1  0
 26 27  2  0
 27 28  1  0
 28 29  2  0
 29 30  1  0
 30 31  2  0
 24 16  1  0
 31 26  1  0
 23 18  1  0
  1 32  1  0
  1 33  1  0
  1 34  1  0
  2 35  1  0
  2 36  1  0
  4 37  1  0
  4 38  1  0
  5 39  1  0
  5 40  1  0
  5 41  1  0
  6 42  1  0
  6 43  1  0
  7 44  1  0
  7 45  1  0
 11 46  1  0
 11 47  1  0
 12 48  1  0
 12 49  1  0
 13 50  1  0
 17 51  1  0
 19 52  1  0
 20 53  1  0
 21 54  1  0
 22 55  1  0
 25 56  1  0
 25 57  1  0
 27 58  1  0
 28 59  1  0
 29 60  1  0
 30 61  1  0
 31 62  1  0
M  END
>  <UniqueID>  (16) 
16

>  <SMILES>  (16) 
CCN(CC)CCOC(=O)CCNC(=O)c1cc2ccccc2n1Cc1ccccc1

>  <Energy>  (16) 
90.46661047026156

>  <Genealogy>  (16) 
CCN(CC)CCOC(=O)CCNC(=O)c1cc2ccccc2n1Cc1ccccc1 (3D coordinates assigned)
CCN(CC)CCOC(=O)CCNC(=O)c1cc2ccccc2n1Cc1ccccc1 (optimized conformer: 90.46661047026156 kcal/mol)

>  <smiles>  (16) 
CCN(CC)CCOC(=O)CCNC(=O)c1cc2ccccc2n1Cc1ccccc1

>  <score_type>  (16) 
oracle

>  <origin>  (16) 
adg

>  <m_score__min__energy>  (16) 
-9.8300000000000001

>  <m_primary>  (16) 
energy

$$$$
16:0
     RDKit          3D

 50 52  0  0  0  0  0  0  0  0999 V2000
   -4.6620   14.8150  -32.0450 C   0  0  0  0  0  0  0  0  0  0  0  0
   -5.3200   15.4100  -33.1590 O   0  0  0  0  0  0  0  0  0  0  0  0
   -5.7920   16.7300  -33.1890 C   0  0  0  0  0  0  0  0  0  0  0  0
   -5.6040   17.5750  -34.2990 C   0  0  0  0  0  0  0  0  0  0  0  0
   -6.0970   18.8820  -34.2810 C   0  0  0  0  0  0  0  0  0  0  0  0
   -6.7970   19.3660  -33.1630 C   0  0  0  0  0  0  0  0  0  0  0  0
   -7.3210   20.7890  -33.1400 C   0  0  0  0  0  0  0  0  0  0  0  0
   -6.4130   21.7700  -32.4900 N   0  0  1  0  0  0  0  0  0  0  0  0
   -7.0040   22.3620  -31.2630 C   0  0  0  0  0  0  0  0  0  0  0  0
   -5.9740   23.1370  -30.4070 C   0  0  0  0  0  0  0  0  0  0  0  0
   -4.7510   23.5680  -31.2230 C   0  0  1  0  0  0  0  0  0  0  0  0
   -3.8450   24.2560  -30.3570 O   0  0  0  0  0  0  0  0  0  0  0  0
   -3.1080   23.7150  -29.2860 C   0  0  0  0  0  0  0  0  0  0  0  0
   -3.4590   22.4210  -28.8750 C   0  0  0  0  0  0  0  0  0  0  0  0
   -2.7760   21.7880  -27.8380 C   0  0  0  0  0  0  0  0  0  0  0  0
   -1.7330   22.4440  -27.1880 C   0  0  0  0  0  0  0  0  0  0  0  0
   -1.3790   23.7400  -27.5660 C   0  0  0  0  0  0  0  0  0  0  0  0
   -2.0670   24.4000  -28.6070 C   0  0  0  0  0  0  0  0  0  0  0  0
   -1.7490   25.7200  -28.9570 O   0  0  0  0  0  0  0  0  0  0  0  0
   -0.8350   26.5540  -28.2520 C   0  0  0  0  0  0  0  0  0  0  0  0
   -4.0660   22.3320  -31.8560 C   0  0  0  0  0  0  0  0  0  0  0  0
   -5.0670   21.2180  -32.2310 C   0  0  0  0  0  0  0  0  0  0  0  0
   -6.9660   18.5270  -32.0490 C   0  0  0  0  0  0  0  0  0  0  0  0
   -6.4730   17.2180  -32.0680 C   0  0  0  0  0  0  0  0  0  0  0  0
   -5.0943   15.2059  -31.1121 H   0  0  0  0  0  0  0  0  0  0  0  0
   -4.7941   13.7236  -32.0812 H   0  0  0  0  0  0  0  0  0  0  0  0
   -3.5893   15.0559  -32.0812 H   0  0  0  0  0  0  0  0  0  0  0  0
   -5.0666   17.2046  -35.1844 H   0  0  0  0  0  0  0  0  0  0  0  0
   -5.9358   19.5377  -35.1494 H   0  0  0  0  0  0  0  0  0  0  0  0
   -7.4873   21.1107  -34.1787 H   0  0  0  0  0  0  0  0  0  0  0  0
   -8.2438   20.7728  -32.5416 H   0  0  0  0  0  0  0  0  0  0  0  0
   -6.3040   22.5450  -33.1880 H   0  0  0  0  0  0  0  0  0  0  0  0
   -7.4278   21.5513  -30.6521 H   0  0  0  0  0  0  0  0  0  0  0  0
   -7.7725   23.0811  -31.5828 H   0  0  0  0  0  0  0  0  0  0  0  0
   -5.6398   22.4898  -29.5828 H   0  0  0  0  0  0  0  0  0  0  0  0
   -6.4649   24.0457  -30.0285 H   0  0  0  0  0  0  0  0  0  0  0  0
   -5.0617   24.2372  -32.0389 H   0  0  0  0  0  0  0  0  0  0  0  0
   -4.2854   21.8979  -29.3784 H   0  0  0  0  0  0  0  0  0  0  0  0
   -3.0606   20.7702  -27.5328 H   0  0  0  0  0  0  0  0  0  0  0  0
   -1.1880   21.9401  -26.3762 H   0  0  0  0  0  0  0  0  0  0  0  0
   -0.5553   24.2525  -27.0474 H   0  0  0  0  0  0  0  0  0  0  0  0
   -0.9789   26.4227  -27.1694 H   0  0  0  0  0  0  0  0  0  0  0  0
    0.1954   26.2783  -28.5210 H   0  0  0  0  0  0  0  0  0  0  0  0
   -1.0154   27.6052  -28.5210 H   0  0  0  0  0  0  0  0  0  0  0  0
   -3.3411   21.9249  -31.1357 H   0  0  0  0  0  0  0  0  0  0  0  0
   -3.5777   22.6638  -32.7842 H   0  0  0  0  0  0  0  0  0  0  0  0
   -5.1286   20.4978  -31.4019 H   0  0  0  0  0  0  0  0  0  0  0  0
   -4.7112   20.7262  -33.1484 H   0  0  0  0  0  0  0  0  0  0  0  0
   -7.4890   18.9015  -31.1567 H   0  0  0  0  0  0  0  0  0  0  0  0
   -6.6219   16.5666  -31.1942 H   0  0  0  0  0  0  0  0  0  0  0  0
  1  2  1  0
  2  3  1  0
  3  4  2  0
  4  5  1  0
  5  6  2  0
  6  7  1  0
  7  8  1  0
  8  9  1  0
  9 10  1  0
 10 11  1  0
 11 12  1  0
 12 13  1  0
 13 14  2  0
 14 15  1  0
 15 16  2  0
 16 17  1  0
 17 18  2  0
 18 19  1  0
 19 20  1  0
 11 21  1  0
 21 22  1  0
  6 23  1  0
 23 24  2  0
 24  3  1  0
 22  8  1  0
 18 13  1  0
  1 25  1  0
  1 26  1  0
  1 27  1  0
  4 28  1  0
  5 29  1  0
  7 30  1  0
  7 31  1  0
  8 32  1  6
  9 33  1  0
  9 34  1  0
 10 35  1  0
 10 36  1  0
 11 37  1  6
 14 38  1  0
 15 39  1  0
 16 40  1  0
 17 41  1  0
 20 42  1  0
 20 43  1  0
 20 44  1  0
 21 45  1  0
 21 46  1  0
 22 47  1  0
 22 48  1  0
 23 49  1  0
 24 50  1  0
M  CHG  1   8   1
M  END
>  <UniqueID>  (17) 
17

>  <SMILES>  (17) 
COc1ccc(C[NH+]2CCC(Oc3ccccc3OC)CC2)cc1

>  <Energy>  (17) 
62.982808954582985

>  <Genealogy>  (17) 
COc1ccc(C[NH+]2CCC(Oc3ccccc3OC)CC2)cc1 (protonated)
COc1ccc(C[NH+]2CCC(Oc3ccccc3OC)CC2)cc1 (3D coordinates assigned)
COc1ccc(C[NH+]2CCC(Oc3ccccc3OC)CC2)cc1 (nonaromatic ring conformer: 62.982808954582985 kcal/mol)

>  <smiles>  (17) 
COc1ccc(CN2CCC(Oc3ccccc3OC)CC2)cc1

>  <score_type>  (17) 
oracle

>  <origin>  (17) 
adg

>  <m_score__min__energy>  (17) 
-8.2300000000000004

>  <m_primary>  (17) 
energy

$$$$
17:0
     RDKit          3D

 45 47  0  0  0  0  0  0  0  0999 V2000
   -1.4090   26.7800  -25.2080 C   0  0  0  0  0  0  0  0  0  0  0  0
   -2.1280   25.5620  -25.3720 O   0  0  0  0  0  0  0  0  0  0  0  0
   -2.5590   25.0580  -26.6080 C   0  0  0  0  0  0  0  0  0  0  0  0
   -3.8630   24.5650  -26.8090 C   0  0  0  0  0  0  0  0  0  0  0  0
   -4.2440   24.0720  -28.0610 C   0  0  0  0  0  0  0  0  0  0  0  0
   -3.3370   24.0680  -29.1320 C   0  0  0  0  0  0  0  0  0  0  0  0
   -3.7250   23.5470  -30.4180 N   0  0  0  0  0  0  0  0  0  0  0  0
   -5.0730   23.8270  -30.9380 C   0  0  0  0  0  0  0  0  0  0  0  0
   -5.3810   22.9810  -32.1790 C   0  0  0  0  0  0  0  0  0  0  0  0
   -4.9090   21.6050  -31.9690 N   0  0  0  0  0  0  0  0  0  0  0  0
   -5.8070   20.4870  -32.1090 C   0  0  0  0  0  0  0  0  0  0  0  0
   -7.1750   20.6980  -32.3250 C   0  0  0  0  0  0  0  0  0  0  0  0
   -8.0180   19.5900  -32.4400 C   0  0  0  0  0  0  0  0  0  0  0  0
   -9.4860   19.7750  -32.6560 C   0  0  0  0  0  0  0  0  0  0  0  0
   -7.5020   18.3400  -32.3250 N   0  0  0  0  0  0  0  0  0  0  0  0
   -6.1760   18.1420  -32.1040 C   0  0  0  0  0  0  0  0  0  0  0  0
   -5.6410   16.7490  -32.0000 C   0  0  0  0  0  0  0  0  0  0  0  0
   -5.3370   19.2100  -32.0000 N   0  0  0  0  0  0  0  0  0  0  0  0
   -3.5230   21.3680  -31.5350 C   0  0  0  0  0  0  0  0  0  0  0  0
   -2.8160   22.6830  -31.1840 C   0  0  0  0  0  0  0  0  0  0  0  0
   -2.0350   24.5550  -28.9250 C   0  0  0  0  0  0  0  0  0  0  0  0
   -1.6540   25.0460  -27.6740 C   0  0  0  0  0  0  0  0  0  0  0  0
   -1.2846   26.9908  -24.1356 H   0  0  0  0  0  0  0  0  0  0  0  0
   -0.4200   26.6885  -25.6809 H   0  0  0  0  0  0  0  0  0  0  0  0
   -1.9669   27.6017  -25.6809 H   0  0  0  0  0  0  0  0  0  0  0  0
   -4.5841   24.5678  -25.9784 H   0  0  0  0  0  0  0  0  0  0  0  0
   -5.2629   23.6842  -28.2076 H   0  0  0  0  0  0  0  0  0  0  0  0
   -5.8126   23.5984  -30.1565 H   0  0  0  0  0  0  0  0  0  0  0  0
   -5.1207   24.8886  -31.2223 H   0  0  0  0  0  0  0  0  0  0  0  0
   -6.4667   22.9724  -32.3556 H   0  0  0  0  0  0  0  0  0  0  0  0
   -4.8687   23.4131  -33.0513 H   0  0  0  0  0  0  0  0  0  0  0  0
   -7.5784   21.7184  -32.4027 H   0  0  0  0  0  0  0  0  0  0  0  0
   -9.9946   19.8391  -31.6827 H   0  0  0  0  0  0  0  0  0  0  0  0
   -9.6594   20.7021  -33.2221 H   0  0  0  0  0  0  0  0  0  0  0  0
   -9.8840   18.9199  -33.2221 H   0  0  0  0  0  0  0  0  0  0  0  0
   -5.5357   16.4749  -30.9399 H   0  0  0  0  0  0  0  0  0  0  0  0
   -6.3354   16.0519  -32.4918 H   0  0  0  0  0  0  0  0  0  0  0  0
   -4.6585   16.6959  -32.4918 H   0  0  0  0  0  0  0  0  0  0  0  0
   -4.3170   19.0420  -31.8500 H   0  0  0  0  0  0  0  0  0  0  0  0
   -3.5316   20.7180  -30.6477 H   0  0  0  0  0  0  0  0  0  0  0  0
   -2.9772   20.8906  -32.3621 H   0  0  0  0  0  0  0  0  0  0  0  0
   -1.9219   22.4673  -30.5806 H   0  0  0  0  0  0  0  0  0  0  0  0
   -2.5219   23.1963  -32.1113 H   0  0  0  0  0  0  0  0  0  0  0  0
   -1.3113   24.5495  -29.7534 H   0  0  0  0  0  0  0  0  0  0  0  0
   -0.6327   25.4267  -27.5260 H   0  0  0  0  0  0  0  0  0  0  0  0
  1  2  1  0
  2  3  1  0
  3  4  2  0
  4  5  1  0
  5  6  2  0
  6  7  1  0
  7  8  1  0
  8  9  1  0
  9 10  1  0
 10 11  1  0
 11 12  2  0
 12 13  1  0
 13 14  1  0
 13 15  2  0
 15 16  1  0
 16 17  1  0
 16 18  2  0
 10 19  1  0
 19 20  1  0
  6 21  1  0
 21 22  2  0
 22  3  1  0
 20  7  1  0
 18 11  1  0
  1 23  1  0
  1 24  1  0
  1 25  1  0
  4 26  1  0
  5 27  1  0
  8 28  1  0
  8 29  1  0
  9 30  1  0
  9 31  1  0
 12 32  1  0
 14 33  1  0
 14 34  1  0
 14 35  1  0
 17 36  1  0
 17 37  1  0
 17 38  1  0
 18 39  1  0
 19 40  1  0
 19 41  1  0
 20 42  1  0
 20 43  1  0
 21 44  1  0
 22 45  1  0
M  CHG  1  18   1
M  END
>  <UniqueID>  (18) 
18

>  <SMILES>  (18) 
COc1ccc(N2CCN(c3cc(C)nc(C)[nH+]3)CC2)cc1

>  <Energy>  (18) 
51.773965198212075

>  <Genealogy>  (18) 
COc1ccc(N2CCN(c3cc(C)nc(C)[nH+]3)CC2)cc1 (protonated)
COc1ccc(N2CCN(c3cc(C)nc(C)[nH+]3)CC2)cc1 (3D coordinates assigned)
COc1ccc(N2CCN(c3cc(C)nc(C)[nH+]3)CC2)cc1 (nonaromatic ring conformer: 51.773965198212075 kcal/mol)

>  <smiles>  (18) 
COc1ccc(N2CCN(c3cc(C)nc(C)n3)CC2)cc1

>  <score_type>  (18) 
oracle

>  <origin>  (18) 
adg

>  <m_score__min__energy>  (18) 
-6.6200000000000001

>  <m_primary>  (18) 
energy

$$$$
18:0
     RDKit          3D

 36 38  0  0  0  0  0  0  0  0999 V2000
   -7.1380   17.5330  -33.1180 C   0  0  0  0  0  0  0  0  0  0  0  0
   -7.2150   18.9520  -32.6400 C   0  0  0  0  0  0  0  0  0  0  0  0
   -8.4790   19.5530  -32.4200 C   0  0  0  0  0  0  0  0  0  0  0  0
   -8.5600   20.8940  -31.9920 C   0  0  0  0  0  0  0  0  0  0  0  0
   -9.8810   21.5540  -31.7260 C   0  0  0  0  0  0  0  0  0  0  0  0
   -7.3580   21.5800  -31.8190 C   0  0  0  0  0  0  0  0  0  0  0  0
   -7.0940   22.8690  -31.4010 C   0  0  0  0  0  0  0  0  0  0  0  0
   -5.7070   22.9800  -31.4200 C   0  0  0  0  0  0  0  0  0  0  0  0
   -4.9880   24.1860  -31.0980 C   0  0  0  0  0  0  0  0  0  0  0  0
   -4.4090   25.1540  -30.8390 N   0  0  0  0  0  0  0  0  0  0  0  0
   -5.1290   21.8230  -31.8340 N   0  0  0  0  0  0  0  0  0  0  0  0
   -3.7260   21.5680  -32.0120 C   0  0  0  0  0  0  0  0  0  0  0  0
   -3.1890   21.4280  -33.2990 C   0  0  0  0  0  0  0  0  0  0  0  0
   -1.8260   21.1730  -33.4720 C   0  0  0  0  0  0  0  0  0  0  0  0
   -0.9780   21.0520  -32.3600 C   0  0  0  0  0  0  0  0  0  0  0  0
    0.4870   20.7790  -32.5620 C   0  0  0  0  0  0  0  0  0  0  0  0
   -1.5160   21.1870  -31.0640 C   0  0  0  0  0  0  0  0  0  0  0  0
   -0.4250   21.0290  -29.4950 Br  0  0  0  0  0  0  0  0  0  0  0  0
   -2.8820   21.4410  -30.8980 C   0  0  0  0  0  0  0  0  0  0  0  0
   -6.1540   20.9780  -32.0720 C   0  0  0  0  0  0  0  0  0  0  0  0
   -6.0670   19.6800  -32.4690 N   0  0  0  0  0  0  0  0  0  0  0  0
   -7.1013   16.8558  -32.2519 H   0  0  0  0  0  0  0  0  0  0  0  0
   -8.0250   17.3024  -33.7264 H   0  0  0  0  0  0  0  0  0  0  0  0
   -6.2313   17.3997  -33.7264 H   0  0  0  0  0  0  0  0  0  0  0  0
   -9.3989   18.9724  -32.5834 H   0  0  0  0  0  0  0  0  0  0  0  0
  -10.0393   21.6331  -30.6403 H   0  0  0  0  0  0  0  0  0  0  0  0
   -9.8846   22.5598  -32.1713 H   0  0  0  0  0  0  0  0  0  0  0  0
  -10.6875   20.9529  -32.1713 H   0  0  0  0  0  0  0  0  0  0  0  0
   -7.8228   23.6416  -31.1147 H   0  0  0  0  0  0  0  0  0  0  0  0
   -3.8442   21.5194  -34.1779 H   0  0  0  0  0  0  0  0  0  0  0  0
   -1.4148   21.0664  -34.4867 H   0  0  0  0  0  0  0  0  0  0  0  0
    0.9811   20.6869  -31.5836 H   0  0  0  0  0  0  0  0  0  0  0  0
    0.6112   19.8423  -33.1251 H   0  0  0  0  0  0  0  0  0  0  0  0
    0.9403   21.6081  -33.1251 H   0  0  0  0  0  0  0  0  0  0  0  0
   -3.2982   21.5421  -29.8848 H   0  0  0  0  0  0  0  0  0  0  0  0
   -5.1360   19.2360  -32.6290 H   0  0  0  0  0  0  0  0  0  0  0  0
  1  2  1  0
  2  3  2  0
  3  4  1  0
  4  5  1  0
  4  6  2  0
  6  7  1  0
  7  8  2  0
  8  9  1  0
  9 10  3  0
  8 11  1  0
 11 12  1  0
 12 13  2  0
 13 14  1  0
 14 15  2  0
 15 16  1  0
 15 17  1  0
 17 18  1  0
 17 19  2  0
 11 20  1  0
 20 21  2  0
 21  2  1  0
 20  6  1  0
 19 12  1  0
  1 22  1  0
  1 23  1  0
  1 24  1  0
  3 25  1  0
  5 26  1  0
  5 27  1  0
  5 28  1  0
  7 29  1  0
 13 30  1  0
 14 31  1  0
 16 32  1  0
 16 33  1  0
 16 34  1  0
 19 35  1  0
 21 36  1  0
M  CHG  1  21   1
M  END
>  <UniqueID>  (19) 
19

>  <SMILES>  (19) 
Cc1cc(C)c2cc(C#N)n(-c3ccc(C)c(Br)c3)c2[nH+]1

>  <Energy>  (19) 
77.29836560026096

>  <Genealogy>  (19) 
Cc1cc(C)c2cc(C#N)n(-c3ccc(C)c(Br)c3)c2[nH+]1 (protonated)
Cc1cc(C)c2cc(C#N)n(-c3ccc(C)c(Br)c3)c2[nH+]1 (3D coordinates assigned)
Cc1cc(C)c2cc(C#N)n(-c3ccc(C)c(Br)c3)c2[nH+]1 (optimized conformer: 77.29836560026096 kcal/mol)

>  <smiles>  (19) 
Cc1cc(C)c2cc(C#N)n(-c3ccc(C)c(Br)c3)c2n1

>  <score_type>  (19) 
oracle

>  <origin>  (19) 
adg

>  <m_score__min__energy>  (19) 
-7.7400000000000002

>  <m_primary>  (19) 
energy

$$$$
19:0
     RDKit          3D

 60 63  0  0  0  0  0  0  0  0999 V2000
   -1.3949   25.6538  -25.3232 H   0  0  0  0  0  0  0  0  0  0  0  0
   -2.0660   25.3290  -26.1320 C   0  0  0  0  0  0  0  0  0  0  0  0
   -1.5590   24.9710  -27.3390 N   0  0  0  0  0  0  0  0  0  0  0  0
   -2.3670   24.5570  -28.3530 C   0  0  0  0  0  0  0  0  0  0  0  0
   -1.8720   24.2480  -29.5120 N   0  0  0  0  0  0  0  0  0  0  0  0
   -1.8330   22.6510  -30.1870 S   0  0  0  0  0  0  0  0  0  0  0  0
   -0.4220   22.2990  -30.5670 O   0  0  0  0  0  0  0  0  0  0  0  0
   -2.3540   21.6540  -29.1890 O   0  0  0  0  0  0  0  0  0  0  0  0
   -2.8280   22.6310  -31.6100 N   0  0  0  0  0  0  0  0  0  0  0  0
   -3.3470   21.2830  -31.8240 C   0  0  0  0  0  0  0  0  0  0  0  0
   -3.3520   20.7360  -30.8697 H   0  0  0  0  0  0  0  0  0  0  0  0
   -4.3726   21.3425  -32.2171 H   0  0  0  0  0  0  0  0  0  0  0  0
   -2.4740   20.5630  -32.8090 C   0  0  0  0  0  0  0  0  0  0  0  0
   -2.7310   19.2200  -33.1270 C   0  0  0  0  0  0  0  0  0  0  0  0
   -3.5815   18.6998  -32.6623 H   0  0  0  0  0  0  0  0  0  0  0  0
   -1.9090   18.5410  -34.0330 C   0  0  0  0  0  0  0  0  0  0  0  0
   -2.1204   17.4918  -34.2870 H   0  0  0  0  0  0  0  0  0  0  0  0
   -0.8170   19.1960  -34.6170 C   0  0  0  0  0  0  0  0  0  0  0  0
   -0.1722   18.6612  -35.3298 H   0  0  0  0  0  0  0  0  0  0  0  0
   -0.5470   20.5260  -34.2950 C   0  0  0  0  0  0  0  0  0  0  0  0
    0.3133   21.0376  -34.7513 H   0  0  0  0  0  0  0  0  0  0  0  0
   -1.3690   21.2110  -33.3920 C   0  0  0  0  0  0  0  0  0  0  0  0
   -1.1505   22.2586  -33.1375 H   0  0  0  0  0  0  0  0  0  0  0  0
   -3.7600   24.4880  -28.1390 C   0  0  0  0  0  0  0  0  0  0  0  0
   -4.6780   24.0380  -29.2110 C   0  0  0  0  0  0  0  0  0  0  0  0
   -5.0890   22.6980  -29.2810 C   0  0  0  0  0  0  0  0  0  0  0  0
   -4.7914   21.9934  -28.4905 H   0  0  0  0  0  0  0  0  0  0  0  0
   -5.8730   22.2530  -30.3470 C   0  0  0  0  0  0  0  0  0  0  0  0
   -6.1910   21.2009  -30.3916 H   0  0  0  0  0  0  0  0  0  0  0  0
   -6.2570   23.1430  -31.3620 C   0  0  0  0  0  0  0  0  0  0  0  0
   -6.9990   22.6340  -32.5710 C   0  0  0  0  0  0  0  0  0  0  0  0
   -6.2750   22.3958  -33.3641 H   0  0  0  0  0  0  0  0  0  0  0  0
   -7.6967   23.4141  -32.9096 H   0  0  0  0  0  0  0  0  0  0  0  0
   -7.7690   21.4250  -32.2430 N   0  0  0  0  0  0  0  0  0  0  0  0
   -7.2670   20.1410  -32.6470 C   0  0  0  0  0  0  0  0  0  0  0  0
   -6.4020   20.0310  -33.7470 C   0  0  0  0  0  0  0  0  0  0  0  0
   -6.1075   20.9326  -34.3040 H   0  0  0  0  0  0  0  0  0  0  0  0
   -5.9130   18.7810  -34.1380 C   0  0  0  0  0  0  0  0  0  0  0  0
   -5.2334   18.7009  -34.9993 H   0  0  0  0  0  0  0  0  0  0  0  0
   -6.2880   17.6330  -33.4340 C   0  0  0  0  0  0  0  0  0  0  0  0
   -5.9019   16.6498  -33.7408 H   0  0  0  0  0  0  0  0  0  0  0  0
   -7.1520   17.7330  -32.3420 C   0  0  0  0  0  0  0  0  0  0  0  0
   -7.4453   16.8287  -31.7887 H   0  0  0  0  0  0  0  0  0  0  0  0
   -7.6450   18.9820  -31.9510 C   0  0  0  0  0  0  0  0  0  0  0  0
   -8.3316   19.0565  -31.0948 H   0  0  0  0  0  0  0  0  0  0  0  0
   -8.9150   21.4930  -31.3240 C   0  0  0  0  0  0  0  0  0  0  0  0
   -8.9830   22.5072  -30.9035 H   0  0  0  0  0  0  0  0  0  0  0  0
   -8.7703   20.7590  -30.5176 H   0  0  0  0  0  0  0  0  0  0  0  0
  -10.2070   21.1680  -32.0630 C   0  0  0  0  0  0  0  0  0  0  0  0
  -11.0058   20.9671  -31.3339 H   0  0  0  0  0  0  0  0  0  0  0  0
  -10.4931   22.0222  -32.6943 H   0  0  0  0  0  0  0  0  0  0  0  0
  -10.0549   20.2801  -32.6943 H   0  0  0  0  0  0  0  0  0  0  0  0
   -5.8800   24.4930  -31.2710 C   0  0  0  0  0  0  0  0  0  0  0  0
   -6.1979   25.2035  -32.0482 H   0  0  0  0  0  0  0  0  0  0  0  0
   -5.1030   24.9380  -30.1980 C   0  0  0  0  0  0  0  0  0  0  0  0
   -4.8236   25.9996  -30.1277 H   0  0  0  0  0  0  0  0  0  0  0  0
   -4.2620   24.8690  -26.9290 N   0  0  0  0  0  0  0  0  0  0  0  0
   -5.2920   24.8290  -26.7520 H   0  0  0  0  0  0  0  0  0  0  0  0
   -3.4440   25.2820  -25.9250 C   0  0  0  0  0  0  0  0  0  0  0  0
   -3.8673   25.5778  -24.9537 H   0  0  0  0  0  0  0  0  0  0  0  0
  1  2  1  0
  2  3  1  0
  3  4  1  0
  4  5  2  0
  5  6  1  0
  6  7  2  0
  6  8  2  0
  6  9  1  0
  9 10  1  0
 10 11  1  0
 10 12  1  0
 10 13  1  0
 13 14  2  0
 14 15  1  0
 14 16  1  0
 16 17  1  0
 16 18  2  0
 18 19  1  0
 18 20  1  0
 20 21  1  0
 20 22  2  0
 22 23  1  0
  4 24  1  0
 24 25  1  0
 25 26  2  0
 26 27  1  0
 26 28  1  0
 28 29  1  0
 28 30  2  0
 30 31  1  0
 31 32  1  0
 31 33  1  0
 31 34  1  0
 34 35  1  0
 35 36  2  0
 36 37  1  0
 36 38  1  0
 38 39  1  0
 38 40  2  0
 40 41  1  0
 40 42  1  0
 42 43  1  0
 42 44  2  0
 44 45  1  0
 34 46  1  0
 46 47  1  0
 46 48  1  0
 46 49  1  0
 49 50  1  0
 49 51  1  0
 49 52  1  0
 30 53  1  0
 53 54  1  0
 53 55  2  0
 55 56  1  0
 24 57  2  0
 57 58  1  0
 57 59  1  0
 59 60  1  0
 59  2  2  0
 22 13  1  0
 55 25  1  0
 44 35  1  0
M  CHG  3   3  -1   9  -1  57   1
M  END
>  <UniqueID>  (20) 
20

>  <SMILES>  (20) 
CCN(Cc1ccc(-c2[nH+]cc[n-]/c2=N/S(=O)(=O)[N-]Cc2ccccc2)cc1)c1ccccc1

>  <Energy>  (20) 
67.9146763635236

>  <Genealogy>  (20) 
CCN(Cc1ccc(-c2[nH+]cc[n-]c2=NS(=O)(=O)[N-]Cc2ccccc2)cc1)c1ccccc1 (protonated)
CCN(Cc1ccc(-c2[nH+]cc[n-]/c2=N/S(=O)(=O)[N-]Cc2ccccc2)cc1)c1ccccc1 (cis-trans isomerization)
CCN(Cc1ccc(-c2[nH+]cc[n-]/c2=N/S(=O)(=O)[N-]Cc2ccccc2)cc1)c1ccccc1 (3D coordinates assigned)
CCN(Cc1ccc(-c2[nH+]cc[n-]/c2=N/S(=O)(=O)[N-]Cc2ccccc2)cc1)c1ccccc1 (optimized conformer: 67.9146763635236 kcal/mol)

>  <smiles>  (20) 
CCN(Cc1ccc(-c2ncc[nH]c2=NS(=O)(=O)NCc2ccccc2)cc1)c1ccccc1

>  <score_type>  (20) 
oracle

>  <origin>  (20) 
adg

>  <m_score__min__energy>  (20) 
-11.17

>  <m_primary>  (20) 
energy

$$$$
20:0
     RDKit          3D

 52 55  0  0  0  0  0  0  0  0999 V2000
   -1.6100   23.7650  -29.1350 C   0  0  0  0  0  0  0  0  0  0  0  0
   -2.9280   24.5350  -29.1960 C   0  0  0  0  0  0  0  0  0  0  0  0
   -3.6180   24.2820  -30.4830 N   0  0  0  0  0  0  0  0  0  0  0  0
   -4.7840   25.1780  -30.6540 C   0  0  0  0  0  0  0  0  0  0  0  0
   -5.9310   24.7480  -29.7430 C   0  0  0  0  0  0  0  0  0  0  0  0
   -3.9880   22.8520  -30.6460 C   0  0  0  0  0  0  0  0  0  0  0  0
   -3.4930   22.3350  -31.9990 C   0  0  0  0  0  0  0  0  0  0  0  0
   -4.5900   22.2380  -32.9610 N   0  0  0  0  0  0  0  0  0  0  0  0
   -5.5860   21.2130  -32.8150 C   0  0  0  0  0  0  0  0  0  0  0  0
   -6.9070   21.5530  -32.4720 C   0  0  0  0  0  0  0  0  0  0  0  0
   -7.2970   22.9030  -32.3350 C   0  0  0  0  0  0  0  0  0  0  0  0
   -8.6040   23.2360  -31.9900 C   0  0  0  0  0  0  0  0  0  0  0  0
   -9.5470   22.2340  -31.7860 C   0  0  0  0  0  0  0  0  0  0  0  0
   -9.1850   20.8930  -31.9180 C   0  0  0  0  0  0  0  0  0  0  0  0
   -7.8580   20.5240  -32.2530 C   0  0  0  0  0  0  0  0  0  0  0  0
   -7.4860   19.2000  -32.3670 N   0  0  0  0  0  0  0  0  0  0  0  0
   -8.3020   18.1750  -31.6840 C   0  0  0  0  0  0  0  0  0  0  0  0
   -6.2800   18.8700  -32.9590 C   0  0  0  0  0  0  0  0  0  0  0  0
   -5.2670   19.8690  -33.0800 C   0  0  0  0  0  0  0  0  0  0  0  0
   -3.9480   19.5010  -33.4550 C   0  0  0  0  0  0  0  0  0  0  0  0
   -3.6420   18.1860  -33.8000 C   0  0  0  0  0  0  0  0  0  0  0  0
   -4.6650   17.2550  -33.8190 C   0  0  0  0  0  0  0  0  0  0  0  0
   -4.5700   15.6810  -34.3890 S   0  0  0  0  0  0  0  0  0  0  0  0
   -6.2140   15.3620  -34.2220 C   0  0  0  0  0  0  0  0  0  0  0  0
   -6.8480   16.4950  -33.7230 C   0  0  0  0  0  0  0  0  0  0  0  0
   -5.9680   17.5640  -33.4450 C   0  0  0  0  0  0  0  0  0  0  0  0
   -1.3294   23.6011  -28.0841 H   0  0  0  0  0  0  0  0  0  0  0  0
   -1.7288   22.7942  -29.6385 H   0  0  0  0  0  0  0  0  0  0  0  0
   -0.8227   24.3452  -29.6385 H   0  0  0  0  0  0  0  0  0  0  0  0
   -3.5755   24.2103  -28.3682 H   0  0  0  0  0  0  0  0  0  0  0  0
   -2.7156   25.6110  -29.1118 H   0  0  0  0  0  0  0  0  0  0  0  0
   -4.4888   26.2073  -30.4021 H   0  0  0  0  0  0  0  0  0  0  0  0
   -5.1223   25.1238  -31.6993 H   0  0  0  0  0  0  0  0  0  0  0  0
   -5.6270   24.8620  -28.6920 H   0  0  0  0  0  0  0  0  0  0  0  0
   -6.8115   25.3771  -29.9403 H   0  0  0  0  0  0  0  0  0  0  0  0
   -6.1810   23.6951  -29.9403 H   0  0  0  0  0  0  0  0  0  0  0  0
   -3.5273   22.2622  -29.8398 H   0  0  0  0  0  0  0  0  0  0  0  0
   -5.0827   22.7544  -30.6003 H   0  0  0  0  0  0  0  0  0  0  0  0
   -2.7322   23.0261  -32.3908 H   0  0  0  0  0  0  0  0  0  0  0  0
   -3.0669   21.3313  -31.8539 H   0  0  0  0  0  0  0  0  0  0  0  0
   -4.4500   22.6490  -33.9120 H   0  0  0  0  0  0  0  0  0  0  0  0
   -6.5592   23.7014  -32.5029 H   0  0  0  0  0  0  0  0  0  0  0  0
   -8.8911   24.2920  -31.8787 H   0  0  0  0  0  0  0  0  0  0  0  0
  -10.5808   22.4995  -31.5199 H   0  0  0  0  0  0  0  0  0  0  0  0
   -9.9411   20.1099  -31.7596 H   0  0  0  0  0  0  0  0  0  0  0  0
   -8.2059   18.2957  -30.5949 H   0  0  0  0  0  0  0  0  0  0  0  0
   -9.3565   18.2925  -31.9743 H   0  0  0  0  0  0  0  0  0  0  0  0
   -7.9511   17.1737  -31.9743 H   0  0  0  0  0  0  0  0  0  0  0  0
   -3.1565   20.2647  -33.4735 H   0  0  0  0  0  0  0  0  0  0  0  0
   -2.6113   17.8952  -34.0513 H   0  0  0  0  0  0  0  0  0  0  0  0
   -6.7078   14.4103  -34.4680 H   0  0  0  0  0  0  0  0  0  0  0  0
   -7.9343   16.5530  -33.5600 H   0  0  0  0  0  0  0  0  0  0  0  0
  1  2  1  0
  2  3  1  0
  3  4  1  0
  4  5  1  0
  3  6  1  0
  6  7  1  0
  7  8  1  0
  8  9  1  0
  9 10  2  0
 10 11  1  0
 11 12  2  0
 12 13  1  0
 13 14  2  0
 14 15  1  0
 15 16  2  0
 16 17  1  0
 16 18  1  0
 18 19  2  0
 19 20  1  0
 20 21  2  0
 21 22  1  0
 22 23  1  0
 23 24  1  0
 24 25  2  0
 25 26  1  0
 19  9  1  0
 26 22  2  0
 15 10  1  0
 26 18  1  0
  1 27  1  0
  1 28  1  0
  1 29  1  0
  2 30  1  0
  2 31  1  0
  4 32  1  0
  4 33  1  0
  5 34  1  0
  5 35  1  0
  5 36  1  0
  6 37  1  0
  6 38  1  0
  7 39  1  0
  7 40  1  0
  8 41  1  0
 11 42  1  0
 12 43  1  0
 13 44  1  0
 14 45  1  0
 17 46  1  0
 17 47  1  0
 17 48  1  0
 20 49  1  0
 21 50  1  0
 24 51  1  0
 25 52  1  0
M  CHG  1  16   1
M  END
>  <UniqueID>  (21) 
21

>  <SMILES>  (21) 
CCN(CC)CCNc1c2ccccc2[n+](C)c2c1ccc1sccc12

>  <Energy>  (21) 
117.16926932596485

>  <Genealogy>  (21) 
CCN(CC)CCNc1c2ccccc2[n+](C)c2c1ccc1sccc12 (3D coordinates assigned)
CCN(CC)CCNc1c2ccccc2[n+](C)c2c1ccc1sccc12 (optimized conformer: 117.16926932596485 kcal/mol)

>  <smiles>  (21) 
CCN(CC)CCNc1c2ccccc2[n+](C)c2c1ccc1sccc12

>  <score_type>  (21) 
oracle

>  <origin>  (21) 
adg

>  <m_score__min__energy>  (21) 
-9.3800000000000008

>  <m_primary>  (21) 
energy

$$$$
21:0
     RDKit          3D

 83 86  0  0  0  0  0  0  0  0999 V2000
   -3.1080   20.6270  -27.5440 C   0  0  0  0  0  0  0  0  0  0  0  0
   -3.3030   21.8430  -28.4620 C   0  0  0  0  0  0  0  0  0  0  0  0
   -3.4550   23.1380  -27.7480 N   0  0  0  0  0  0  0  0  0  0  0  0
   -2.1980   23.6370  -27.1440 C   0  0  0  0  0  0  0  0  0  0  0  0
   -2.3600   25.0610  -26.6040 C   0  0  0  0  0  0  0  0  0  0  0  0
   -4.1180   24.1660  -28.5850 C   0  0  0  0  0  0  0  0  0  0  0  0
   -3.5640   24.1610  -30.0230 C   0  0  0  0  0  0  0  0  0  0  0  0
   -4.1930   25.1390  -30.8320 O   0  0  0  0  0  0  0  0  0  0  0  0
   -5.5030   24.7530  -31.2070 C   0  0  0  0  0  0  0  0  0  0  0  0
   -5.5550   23.2260  -31.3260 C   0  0  0  0  0  0  0  0  0  0  0  0
   -5.6960   22.7520  -32.7180 N   0  0  0  0  0  0  0  0  0  0  0  0
   -5.6550   21.2980  -32.8300 C   0  0  0  0  0  0  0  0  0  0  0  0
   -6.8320   20.5270  -32.6220 C   0  0  0  0  0  0  0  0  0  0  0  0
   -8.0590   21.1190  -32.2280 C   0  0  0  0  0  0  0  0  0  0  0  0
   -9.1770   20.3410  -31.9370 C   0  0  0  0  0  0  0  0  0  0  0  0
   -9.1090   18.9590  -32.0350 C   0  0  0  0  0  0  0  0  0  0  0  0
   -7.9360   18.3500  -32.4680 C   0  0  0  0  0  0  0  0  0  0  0  0
   -6.7920   19.1170  -32.8150 C   0  0  0  0  0  0  0  0  0  0  0  0
   -5.6620   18.5180  -33.3260 N   0  0  0  0  0  0  0  0  0  0  0  0
   -5.7400   17.1450  -33.8730 C   0  0  0  0  0  0  0  0  0  0  0  0
   -4.4680   19.2080  -33.3600 C   0  0  0  0  0  0  0  0  0  0  0  0
   -3.2410   18.5340  -33.6110 C   0  0  0  0  0  0  0  0  0  0  0  0
   -2.0260   19.2300  -33.6950 C   0  0  0  0  0  0  0  0  0  0  0  0
   -0.8020   18.5970  -33.9710 O   0  0  0  0  0  0  0  0  0  0  0  0
    0.1870   18.2210  -33.0090 C   0  0  0  0  0  0  0  0  0  0  0  0
   -0.4400   18.0290  -31.6020 C   0  0  0  0  0  0  0  0  0  0  0  0
    0.1570   18.8720  -30.5110 N   0  0  0  0  0  0  0  0  0  0  0  0
    1.5220   19.2520  -30.9710 C   0  0  0  0  0  0  0  0  0  0  0  0
   -0.6440   20.1250  -30.3330 C   0  0  0  0  0  0  0  0  0  0  0  0
   -0.1330   21.0260  -29.1900 C   0  0  0  0  0  0  0  0  0  0  0  0
    0.3010   20.2340  -27.9440 C   0  0  0  0  0  0  0  0  0  0  0  0
   -0.2170   18.7990  -27.9770 C   0  0  0  0  0  0  0  0  0  0  0  0
    0.2800   18.0690  -29.2380 C   0  0  0  0  0  0  0  0  0  0  0  0
   -2.0170   20.6020  -33.4920 C   0  0  0  0  0  0  0  0  0  0  0  0
   -3.1970   21.2870  -33.2170 C   0  0  0  0  0  0  0  0  0  0  0  0
   -4.4410   20.6140  -33.1330 C   0  0  0  0  0  0  0  0  0  0  0  0
   -3.1596   20.9487  -26.4934 H   0  0  0  0  0  0  0  0  0  0  0  0
   -3.8992   19.8885  -27.7406 H   0  0  0  0  0  0  0  0  0  0  0  0
   -2.1256   20.1729  -27.7406 H   0  0  0  0  0  0  0  0  0  0  0  0
   -2.4280   21.9169  -29.1245 H   0  0  0  0  0  0  0  0  0  0  0  0
   -4.2434   21.6749  -29.0074 H   0  0  0  0  0  0  0  0  0  0  0  0
   -1.9106   22.9717  -26.3165 H   0  0  0  0  0  0  0  0  0  0  0  0
   -1.4224   23.6503  -27.9240 H   0  0  0  0  0  0  0  0  0  0  0  0
   -2.3575   25.0386  -25.5042 H   0  0  0  0  0  0  0  0  0  0  0  0
   -1.5271   25.6851  -26.9600 H   0  0  0  0  0  0  0  0  0  0  0  0
   -3.3118   25.4821  -26.9600 H   0  0  0  0  0  0  0  0  0  0  0  0
   -5.1981   23.9601  -28.6166 H   0  0  0  0  0  0  0  0  0  0  0  0
   -3.9224   25.1534  -28.1414 H   0  0  0  0  0  0  0  0  0  0  0  0
   -2.4841   24.3675  -29.9893 H   0  0  0  0  0  0  0  0  0  0  0  0
   -3.7638   23.1729  -30.4632 H   0  0  0  0  0  0  0  0  0  0  0  0
   -6.2199   25.0886  -30.4431 H   0  0  0  0  0  0  0  0  0  0  0  0
   -5.7650   25.2114  -32.1720 H   0  0  0  0  0  0  0  0  0  0  0  0
   -4.6254   22.8116  -30.9087 H   0  0  0  0  0  0  0  0  0  0  0  0
   -6.4446   22.8868  -30.7750 H   0  0  0  0  0  0  0  0  0  0  0  0
   -5.0060   23.2310  -33.3360 H   0  0  0  0  0  0  0  0  0  0  0  0
   -6.6070   23.0950  -33.0980 H   0  0  0  0  0  0  0  0  0  0  0  0
   -8.1291   22.2140  -32.1507 H   0  0  0  0  0  0  0  0  0  0  0  0
  -10.1162   20.8236  -31.6287 H   0  0  0  0  0  0  0  0  0  0  0  0
   -9.9825   18.3450  -31.7704 H   0  0  0  0  0  0  0  0  0  0  0  0
   -7.8934   17.2534  -32.5432 H   0  0  0  0  0  0  0  0  0  0  0  0
   -5.7811   16.4222  -33.0449 H   0  0  0  0  0  0  0  0  0  0  0  0
   -6.6452   17.0471  -34.4903 H   0  0  0  0  0  0  0  0  0  0  0  0
   -4.8518   16.9452  -34.4903 H   0  0  0  0  0  0  0  0  0  0  0  0
   -3.2449   17.4419  -33.7423 H   0  0  0  0  0  0  0  0  0  0  0  0
    0.6539   17.2765  -33.3253 H   0  0  0  0  0  0  0  0  0  0  0  0
    0.9362   19.0241  -32.9489 H   0  0  0  0  0  0  0  0  0  0  0  0
   -1.5106   18.2718  -31.6714 H   0  0  0  0  0  0  0  0  0  0  0  0
   -0.2415   16.9841  -31.3213 H   0  0  0  0  0  0  0  0  0  0  0  0
    2.1665   19.4314  -30.0978 H   0  0  0  0  0  0  0  0  0  0  0  0
    1.9446   18.4373  -31.5774 H   0  0  0  0  0  0  0  0  0  0  0  0
    1.4628   20.1678  -31.5774 H   0  0  0  0  0  0  0  0  0  0  0  0
   -0.6066   20.6981  -31.2711 H   0  0  0  0  0  0  0  0  0  0  0  0
   -1.6677   19.8196  -30.0706 H   0  0  0  0  0  0  0  0  0  0  0  0
    0.7297   21.6013  -29.5570 H   0  0  0  0  0  0  0  0  0  0  0  0
   -0.9661   21.6785  -28.8897 H   0  0  0  0  0  0  0  0  0  0  0  0
    1.3999   20.2151  -27.8988 H   0  0  0  0  0  0  0  0  0  0  0  0
   -0.1222   20.7304  -27.0583 H   0  0  0  0  0  0  0  0  0  0  0  0
    0.1428   18.2648  -27.0853 H   0  0  0  0  0  0  0  0  0  0  0  0
   -1.3167   18.8206  -27.9916 H   0  0  0  0  0  0  0  0  0  0  0  0
    1.3401   17.8139  -29.0929 H   0  0  0  0  0  0  0  0  0  0  0  0
   -0.3603   17.1832  -29.3617 H   0  0  0  0  0  0  0  0  0  0  0  0
   -1.0675   21.1545  -33.5489 H   0  0  0  0  0  0  0  0  0  0  0  0
   -3.1630   22.3754  -33.0614 H   0  0  0  0  0  0  0  0  0  0  0  0
  1  2  1  0
  2  3  1  0
  3  4  1  0
  4  5  1  0
  3  6  1  0
  6  7  1  0
  7  8  1  0
  8  9  1  0
  9 10  1  0
 10 11  1  0
 11 12  1  0
 12 13  2  0
 13 14  1  0
 14 15  2  0
 15 16  1  0
 16 17  2  0
 17 18  1  0
 18 19  2  0
 19 20  1  0
 19 21  1  0
 21 22  2  0
 22 23  1  0
 23 24  1  0
 24 25  1  0
 25 26  1  0
 26 27  1  0
 27 28  1  0
 27 29  1  0
 29 30  1  0
 30 31  1  0
 31 32  1  0
 32 33  1  0
 23 34  2  0
 34 35  1  0
 35 36  2  0
 36 12  1  0
 18 13  1  0
 36 21  1  0
 33 27  1  0
  1 37  1  0
  1 38  1  0
  1 39  1  0
  2 40  1  0
  2 41  1  0
  4 42  1  0
  4 43  1  0
  5 44  1  0
  5 45  1  0
  5 46  1  0
  6 47  1  0
  6 48  1  0
  7 49  1  0
  7 50  1  0
  9 51  1  0
  9 52  1  0
 10 53  1  0
 10 54  1  0
 11 55  1  0
 11 56  1  0
 14 57  1  0
 15 58  1  0
 16 59  1  0
 17 60  1  0
 20 61  1  0
 20 62  1  0
 20 63  1  0
 22 64  1  0
 25 65  1  0
 25 66  1  0
 26 67  1  0
 26 68  1  0
 28 69  1  0
 28 70  1  0
 28 71  1  0
 29 72  1  0
 29 73  1  0
 30 74  1  0
 30 75  1  0
 31 76  1  0
 31 77  1  0
 32 78  1  0
 32 79  1  0
 33 80  1  0
 33 81  1  0
 34 82  1  0
 35 83  1  0
M  CHG  3  11   1  19   1  27   1
M  END
>  <UniqueID>  (22) 
22

>  <SMILES>  (22) 
CCN(CC)CCOCC[NH2+]c1c2ccccc2[n+](C)c2cc(OCC[N+]3(C)CCCCC3)ccc12

>  <Energy>  (22) 
132.98362860069966

>  <Genealogy>  (22) 
CCN(CC)CCOCC[NH2+]c1c2ccccc2[n+](C)c2cc(OCC[N+]3(C)CCCCC3)ccc12 (protonated)
CCN(CC)CCOCC[NH2+]c1c2ccccc2[n+](C)c2cc(OCC[N+]3(C)CCCCC3)ccc12 (3D coordinates assigned)
CCN(CC)CCOCC[NH2+]c1c2ccccc2[n+](C)c2cc(OCC[N+]3(C)CCCCC3)ccc12 (nonaromatic ring conformer: 132.98362860069966 kcal/mol)

>  <smiles>  (22) 
CCN(CC)CCOCCNc1c2ccccc2[n+](C)c2cc(OCC[N+]3(C)CCCCC3)ccc12

>  <score_type>  (22) 
oracle

>  <origin>  (22) 
adg

>  <m_score__min__energy>  (22) 
-8.4299999999999997

>  <m_primary>  (22) 
energy

$$$$
22:0
     RDKit          3D

 57 57  0  0  0  0  0  0  0  0999 V2000
   -1.2070   25.8470  -26.6560 C   0  0  0  0  0  0  0  0  0  0  0  0
   -0.9950   26.2820  -28.1000 C   0  0  0  0  0  0  0  0  0  0  0  0
   -0.7210   25.1120  -28.9420 N   0  0  0  0  0  0  0  0  0  0  0  0
   -0.1170   24.0380  -28.1440 C   0  0  0  0  0  0  0  0  0  0  0  0
   -0.1700   22.7080  -28.9020 C   0  0  0  0  0  0  0  0  0  0  0  0
   -1.2710   22.7120  -29.8740 N   0  0  0  0  0  0  0  0  0  0  0  0
   -1.9700   21.4220  -29.8540 C   0  0  0  0  0  0  0  0  0  0  0  0
   -3.2600   21.5360  -29.0410 C   0  0  0  0  0  0  0  0  0  0  0  0
   -4.2360   22.3440  -29.7740 N   0  0  0  0  0  0  0  0  0  0  0  0
   -4.0730   24.0290  -29.3620 S   0  0  0  0  0  0  0  0  0  0  0  0
   -3.3240   24.2030  -28.0670 O   0  0  0  0  0  0  0  0  0  0  0  0
   -3.3180   24.7320  -30.4550 O   0  0  0  0  0  0  0  0  0  0  0  0
   -5.6910   24.7760  -29.2240 C   0  0  0  0  0  0  0  0  0  0  0  0
   -6.1740   25.3090  -30.5720 C   0  0  0  0  0  0  0  0  0  0  0  0
   -5.6810   24.4510  -31.6550 N   0  0  0  0  0  0  0  0  0  0  0  0
   -6.8060   23.8040  -32.3440 C   0  0  0  0  0  0  0  0  0  0  0  0
   -7.5030   22.7970  -31.4220 C   0  0  0  0  0  0  0  0  0  0  0  0
   -7.3250   21.3760  -31.9040 C   0  0  0  0  0  0  0  0  0  0  0  0
   -8.4360   20.5150  -31.9220 C   0  0  0  0  0  0  0  0  0  0  0  0
   -8.2990   19.1890  -32.3360 C   0  0  0  0  0  0  0  0  0  0  0  0
   -7.0510   18.7070  -32.7310 C   0  0  0  0  0  0  0  0  0  0  0  0
   -5.9360   19.5460  -32.7090 C   0  0  0  0  0  0  0  0  0  0  0  0
   -6.0580   20.8880  -32.2930 C   0  0  0  0  0  0  0  0  0  0  0  0
   -4.9510   21.7500  -32.2480 O   0  0  0  0  0  0  0  0  0  0  0  0
   -3.8290   21.6730  -33.1210 C   0  0  0  0  0  0  0  0  0  0  0  0
   -0.8272   26.6262  -25.9788 H   0  0  0  0  0  0  0  0  0  0  0  0
   -2.2808   25.6938  -26.4731 H   0  0  0  0  0  0  0  0  0  0  0  0
   -0.6661   24.9068  -26.4731 H   0  0  0  0  0  0  0  0  0  0  0  0
   -1.9007   26.7888  -28.4644 H   0  0  0  0  0  0  0  0  0  0  0  0
   -0.1377   26.9696  -28.1476 H   0  0  0  0  0  0  0  0  0  0  0  0
   -1.6380   24.7640  -29.3130 H   0  0  0  0  0  0  0  0  0  0  0  0
    0.9321   24.2916  -27.9318 H   0  0  0  0  0  0  0  0  0  0  0  0
   -0.6807   23.9338  -27.2052 H   0  0  0  0  0  0  0  0  0  0  0  0
    0.7811   22.5563  -29.4334 H   0  0  0  0  0  0  0  0  0  0  0  0
   -0.3360   21.8944  -28.1806 H   0  0  0  0  0  0  0  0  0  0  0  0
   -1.9560   23.4480  -29.5810 H   0  0  0  0  0  0  0  0  0  0  0  0
   -2.2144   21.1246  -30.8844 H   0  0  0  0  0  0  0  0  0  0  0  0
   -1.3182   20.6664  -29.3911 H   0  0  0  0  0  0  0  0  0  0  0  0
   -3.6732   20.5313  -28.8683 H   0  0  0  0  0  0  0  0  0  0  0  0
   -3.0409   22.0165  -28.0761 H   0  0  0  0  0  0  0  0  0  0  0  0
   -4.0270   22.2560  -30.7950 H   0  0  0  0  0  0  0  0  0  0  0  0
   -6.4042   24.0213  -28.8609 H   0  0  0  0  0  0  0  0  0  0  0  0
   -5.6248   25.6195  -28.5210 H   0  0  0  0  0  0  0  0  0  0  0  0
   -7.2738   25.3193  -30.5870 H   0  0  0  0  0  0  0  0  0  0  0  0
   -5.7901   26.3297  -30.7159 H   0  0  0  0  0  0  0  0  0  0  0  0
   -5.0980   23.7000  -31.2160 H   0  0  0  0  0  0  0  0  0  0  0  0
   -7.5304   24.5725  -32.6518 H   0  0  0  0  0  0  0  0  0  0  0  0
   -6.4194   23.2679  -33.2233 H   0  0  0  0  0  0  0  0  0  0  0  0
   -7.0774   22.8859  -30.4116 H   0  0  0  0  0  0  0  0  0  0  0  0
   -8.5792   23.0244  -31.4199 H   0  0  0  0  0  0  0  0  0  0  0  0
   -9.4214   20.8892  -31.6073 H   0  0  0  0  0  0  0  0  0  0  0  0
   -9.1752   18.5241  -32.3508 H   0  0  0  0  0  0  0  0  0  0  0  0
   -6.9454   17.6629  -33.0607 H   0  0  0  0  0  0  0  0  0  0  0  0
   -4.9545   19.1576  -33.0185 H   0  0  0  0  0  0  0  0  0  0  0  0
   -2.9056   21.6096  -32.5266 H   0  0  0  0  0  0  0  0  0  0  0  0
   -3.9187   20.7789  -33.7555 H   0  0  0  0  0  0  0  0  0  0  0  0
   -3.7958   22.5710  -33.7555 H   0  0  0  0  0  0  0  0  0  0  0  0
  1  2  1  0
  2  3  1  0
  3  4  1  0
  4  5  1  0
  5  6  1  0
  6  7  1  0
  7  8  1  0
  8  9  1  0
  9 10  1  0
 10 11  2  0
 10 12  2  0
 10 13  1  0
 13 14  1  0
 14 15  1  0
 15 16  1  0
 16 17  1  0
 17 18  1  0
 18 19  2  0
 19 20  1  0
 20 21  2  0
 21 22  1  0
 22 23  2  0
 23 24  1  0
 24 25  1  0
 23 18  1  0
  1 26  1  0
  1 27  1  0
  1 28  1  0
  2 29  1  0
  2 30  1  0
  3 31  1  0
  4 32  1  0
  4 33  1  0
  5 34  1  0
  5 35  1  0
  6 36  1  0
  7 37  1  0
  7 38  1  0
  8 39  1  0
  8 40  1  0
  9 41  1  0
 13 42  1  0
 13 43  1  0
 14 44  1  0
 14 45  1  0
 15 46  1  0
 16 47  1  0
 16 48  1  0
 17 49  1  0
 17 50  1  0
 19 51  1  0
 20 52  1  0
 21 53  1  0
 22 54  1  0
 25 55  1  0
 25 56  1  0
 25 57  1  0
M  END
>  <UniqueID>  (23) 
23

>  <SMILES>  (23) 
CCNCCNCCNS(=O)(=O)CCNCCc1ccccc1OC

>  <Energy>  (23) 
31.51610073262431

>  <Genealogy>  (23) 
CCNCCNCCNS(=O)(=O)CCNCCc1ccccc1OC (3D coordinates assigned)
CCNCCNCCNS(=O)(=O)CCNCCc1ccccc1OC (optimized conformer: 31.51610073262431 kcal/mol)

>  <smiles>  (23) 
CCNCCNCCNS(=O)(=O)CCNCCc1ccccc1OC

>  <score_type>  (23) 
oracle

>  <origin>  (23) 
adg

>  <m_score__min__energy>  (23) 
-6.1799999999999997

>  <m_primary>  (23) 
energy

$$$$
23:0
     RDKit          3D

 35 36  0  0  0  0  0  0  0  0999 V2000
   -3.1740   24.0200  -28.0660 C   0  0  0  0  0  0  0  0  0  0  0  0
   -2.3940   24.3610  -29.3250 C   0  0  0  0  0  0  0  0  0  0  0  0
   -3.2770   24.9200  -30.2930 O   0  0  0  0  0  0  0  0  0  0  0  0
   -4.6210   24.5500  -30.4610 C   0  0  0  0  0  0  0  0  0  0  0  0
   -5.6690   25.3040  -29.8950 C   0  0  0  0  0  0  0  0  0  0  0  0
   -6.9980   24.9220  -30.0840 C   0  0  0  0  0  0  0  0  0  0  0  0
   -7.3010   23.7890  -30.8390 C   0  0  0  0  0  0  0  0  0  0  0  0
   -6.2740   23.0330  -31.4050 C   0  0  0  0  0  0  0  0  0  0  0  0
   -4.9290   23.3970  -31.2150 C   0  0  0  0  0  0  0  0  0  0  0  0
   -3.8470   22.5480  -31.8410 C   0  0  0  0  0  0  0  0  0  0  0  0
   -4.2960   22.0110  -33.1250 N   0  0  0  0  0  0  0  0  0  0  0  0
   -4.8210   20.6830  -33.2800 C   0  0  0  0  0  0  0  0  0  0  0  0
   -6.1510   20.3180  -33.1600 C   0  0  0  0  0  0  0  0  0  0  0  0
   -6.1960   18.9540  -33.3840 C   0  0  0  0  0  0  0  0  0  0  0  0
   -4.8980   18.5470  -33.6300 C   0  0  0  0  0  0  0  0  0  0  0  0
   -4.0660   19.6030  -33.5650 N   0  0  0  0  0  0  0  0  0  0  0  0
   -2.6210   19.5700  -33.7740 C   0  0  0  0  0  0  0  0  0  0  0  0
   -2.5750   24.2819  -27.1813 H   0  0  0  0  0  0  0  0  0  0  0  0
   -4.1156   24.5886  -28.0527 H   0  0  0  0  0  0  0  0  0  0  0  0
   -3.3960   22.9427  -28.0527 H   0  0  0  0  0  0  0  0  0  0  0  0
   -1.6066   25.0899  -29.0826 H   0  0  0  0  0  0  0  0  0  0  0  0
   -1.9351   23.4475  -29.7311 H   0  0  0  0  0  0  0  0  0  0  0  0
   -5.4377   26.1999  -29.3001 H   0  0  0  0  0  0  0  0  0  0  0  0
   -7.8085   25.5159  -29.6364 H   0  0  0  0  0  0  0  0  0  0  0  0
   -8.3495   23.4916  -30.9882 H   0  0  0  0  0  0  0  0  0  0  0  0
   -6.5186   22.1443  -32.0053 H   0  0  0  0  0  0  0  0  0  0  0  0
   -2.9499   23.1644  -32.0002 H   0  0  0  0  0  0  0  0  0  0  0  0
   -3.6168   21.7105  -31.1660 H   0  0  0  0  0  0  0  0  0  0  0  0
   -4.2500   22.6390  -33.9580 H   0  0  0  0  0  0  0  0  0  0  0  0
   -7.0002   20.9791  -32.9325 H   0  0  0  0  0  0  0  0  0  0  0  0
   -7.0919   18.3160  -33.3693 H   0  0  0  0  0  0  0  0  0  0  0  0
   -4.5907   17.5133  -33.8468 H   0  0  0  0  0  0  0  0  0  0  0  0
   -2.1098   19.5583  -32.8001 H   0  0  0  0  0  0  0  0  0  0  0  0
   -2.3529   18.6655  -34.3397 H   0  0  0  0  0  0  0  0  0  0  0  0
   -2.3119   20.4613  -34.3397 H   0  0  0  0  0  0  0  0  0  0  0  0
  1  2  1  0
  2  3  1  0
  3  4  1  0
  4  5  2  0
  5  6  1  0
  6  7  2  0
  7  8  1  0
  8  9  2  0
  9 10  1  0
 10 11  1  0
 11 12  1  0
 12 13  2  0
 13 14  1  0
 14 15  2  0
 15 16  1  0
 16 17  1  0
  9  4  1  0
 16 12  1  0
  1 18  1  0
  1 19  1  0
  1 20  1  0
  2 21  1  0
  2 22  1  0
  5 23  1  0
  6 24  1  0
  7 25  1  0
  8 26  1  0
 10 27  1  0
 10 28  1  0
 11 29  1  0
 13 30  1  0
 14 31  1  0
 15 32  1  0
 17 33  1  0
 17 34  1  0
 17 35  1  0
M  END
>  <UniqueID>  (24) 
24

>  <SMILES>  (24) 
CCOc1ccccc1CNc1cccn1C

>  <Energy>  (24) 
55.16575690272227

>  <Genealogy>  (24) 
CCOc1ccccc1CNc1cccn1C (3D coordinates assigned)
CCOc1ccccc1CNc1cccn1C (optimized conformer: 55.16575690272227 kcal/mol)

>  <smiles>  (24) 
CCOc1ccccc1CNc1cccn1C

>  <score_type>  (24) 
oracle

>  <origin>  (24) 
adg

>  <m_score__min__energy>  (24) 
-6.4500000000000002

>  <m_primary>  (24) 
energy

$$$$
24:0
     RDKit          3D

 55 58  0  0  0  0  0  0  0  0999 V2000
   -6.2855   22.8435  -29.3891 H   0  0  0  0  0  0  0  0  0  0  0  0
   -5.2790   23.2640  -29.5310 C   0  0  0  0  0  0  0  0  0  0  0  0
   -4.6150   24.5450  -28.6650 S   0  0  0  0  0  0  0  0  0  0  0  0
   -3.1600   24.4880  -29.5130 C   0  0  0  0  0  0  0  0  0  0  0  0
   -2.1360   25.2600  -29.3140 N   0  0  0  0  0  0  0  0  0  0  0  0
   -1.6110   25.6080  -27.9990 C   0  0  0  0  0  0  0  0  0  0  0  0
   -2.2239   25.1206  -27.2265 H   0  0  0  0  0  0  0  0  0  0  0  0
   -1.6462   26.7016  -27.8860 H   0  0  0  0  0  0  0  0  0  0  0  0
   -0.1520   25.1470  -27.8480 C   0  0  0  0  0  0  0  0  0  0  0  0
    0.2280   25.5211  -26.8859 H   0  0  0  0  0  0  0  0  0  0  0  0
    0.3931   25.5504  -28.7141 H   0  0  0  0  0  0  0  0  0  0  0  0
    0.0380   23.6800  -27.8800 N   0  0  0  0  0  0  0  0  0  0  0  0
   -0.4710   22.9240  -26.7160 C   0  0  0  0  0  0  0  0  0  0  0  0
   -0.5700   23.6156  -25.8664 H   0  0  0  0  0  0  0  0  0  0  0  0
    0.2480   22.1171  -26.5112 H   0  0  0  0  0  0  0  0  0  0  0  0
   -1.8440   22.2610  -26.9720 C   0  0  0  0  0  0  0  0  0  0  0  0
   -2.6280   23.0133  -26.8005 H   0  0  0  0  0  0  0  0  0  0  0  0
   -1.9164   21.4064  -26.2832 H   0  0  0  0  0  0  0  0  0  0  0  0
   -2.0110   21.7170  -28.3500 N   0  0  0  0  0  0  0  0  0  0  0  0
   -2.6270   22.3890  -28.8670 H   0  0  0  0  0  0  0  0  0  0  0  0
   -2.7490   20.4290  -28.3640 C   0  0  0  0  0  0  0  0  0  0  0  0
   -2.3338   19.8039  -29.1683 H   0  0  0  0  0  0  0  0  0  0  0  0
   -3.8096   20.6779  -28.5165 H   0  0  0  0  0  0  0  0  0  0  0  0
   -2.6710   19.6350  -27.0500 C   0  0  0  0  0  0  0  0  0  0  0  0
   -2.7391   20.3279  -26.1983 H   0  0  0  0  0  0  0  0  0  0  0  0
   -3.5029   18.9167  -27.0057 H   0  0  0  0  0  0  0  0  0  0  0  0
   -1.7152   19.0923  -27.0057 H   0  0  0  0  0  0  0  0  0  0  0  0
   -0.7460   21.6510  -29.1100 C   0  0  0  0  0  0  0  0  0  0  0  0
   -0.9481   21.2708  -30.1222 H   0  0  0  0  0  0  0  0  0  0  0  0
   -0.0473   20.9774  -28.5922 H   0  0  0  0  0  0  0  0  0  0  0  0
   -0.1220   23.0470  -29.2070 C   0  0  0  0  0  0  0  0  0  0  0  0
   -0.7709   23.6829  -29.8271 H   0  0  0  0  0  0  0  0  0  0  0  0
    0.8777   22.9401  -29.6533 H   0  0  0  0  0  0  0  0  0  0  0  0
   -3.1570   23.5130  -30.4430 N   0  0  0  0  0  0  0  0  0  0  0  0
   -4.3330   22.8260  -30.4610 C   0  0  0  0  0  0  0  0  0  0  0  0
   -4.5750   21.7040  -31.3910 C   0  0  0  0  0  0  0  0  0  0  0  0
   -5.7000   20.9480  -31.2570 N   0  0  0  0  0  0  0  0  0  0  0  0
   -5.9740   19.9020  -32.0820 C   0  0  0  0  0  0  0  0  0  0  0  0
   -7.1450   19.1610  -31.8990 C   0  0  0  0  0  0  0  0  0  0  0  0
   -7.8417   19.4254  -31.0898 H   0  0  0  0  0  0  0  0  0  0  0  0
   -7.4310   18.0870  -32.7410 C   0  0  0  0  0  0  0  0  0  0  0  0
   -8.3535   17.5063  -32.5933 H   0  0  0  0  0  0  0  0  0  0  0  0
   -6.5520   17.7450  -33.7710 C   0  0  0  0  0  0  0  0  0  0  0  0
   -6.7868   16.8951  -34.4287 H   0  0  0  0  0  0  0  0  0  0  0  0
   -5.3660   18.4800  -33.9750 C   0  0  0  0  0  0  0  0  0  0  0  0
   -4.4650   18.1560  -35.0050 O   0  0  0  0  0  0  0  0  0  0  0  0
   -3.6700   16.9750  -35.0410 C   0  0  0  0  0  0  0  0  0  0  0  0
   -3.4507   16.6492  -34.0135 H   0  0  0  0  0  0  0  0  0  0  0  0
   -4.2177   16.1803  -35.5686 H   0  0  0  0  0  0  0  0  0  0  0  0
   -2.7276   17.1833  -35.5686 H   0  0  0  0  0  0  0  0  0  0  0  0
   -5.0780   19.5660  -33.1220 C   0  0  0  0  0  0  0  0  0  0  0  0
   -3.9130   20.3340  -33.2750 C   0  0  0  0  0  0  0  0  0  0  0  0
   -3.1983   20.0940  -34.0760 H   0  0  0  0  0  0  0  0  0  0  0  0
   -3.6600   21.4020  -32.4120 C   0  0  0  0  0  0  0  0  0  0  0  0
   -2.7474   22.0044  -32.5316 H   0  0  0  0  0  0  0  0  0  0  0  0
  1  2  1  0
  2  3  1  0
  3  4  1  0
  4  5  2  0
  5  6  1  0
  6  7  1  0
  6  8  1  0
  6  9  1  0
  9 10  1  0
  9 11  1  0
  9 12  1  0
 12 13  1  0
 13 14  1  0
 13 15  1  0
 13 16  1  0
 16 17  1  0
 16 18  1  0
 16 19  1  0
 19 20  1  0
 19 21  1  0
 21 22  1  0
 21 23  1  0
 21 24  1  0
 24 25  1  0
 24 26  1  0
 24 27  1  0
 19 28  1  0
 28 29  1  0
 28 30  1  0
 28 31  1  0
 31 32  1  0
 31 33  1  0
  4 34  1  0
 34 35  1  0
 35 36  1  0
 36 37  2  0
 37 38  1  0
 38 39  2  0
 39 40  1  0
 39 41  1  0
 41 42  1  0
 41 43  2  0
 43 44  1  0
 43 45  1  0
 45 46  1  0
 46 47  1  0
 47 48  1  0
 47 49  1  0
 47 50  1  0
 45 51  2  0
 51 52  1  0
 52 53  1  0
 52 54  2  0
 54 55  1  0
 35  2  2  0
 54 36  1  0
 31 12  1  0
 51 38  1  0
M  CHG  2  19   1  34  -1
M  END
>  <UniqueID>  (25) 
25

>  <SMILES>  (25) 
CC[NH+]1CCN(CC/N=c2/[n-]c(-c3ccc4c(OC)cccc4n3)cs2)CC1

>  <Energy>  (25) 
108.23520631739572

>  <Genealogy>  (25) 
CC[NH+]1CCN(CCN=c2[n-]c(-c3ccc4c(OC)cccc4n3)cs2)CC1 (protonated)
CC[NH+]1CCN(CC/N=c2/[n-]c(-c3ccc4c(OC)cccc4n3)cs2)CC1 (cis-trans isomerization)
CC[NH+]1CCN(CC/N=c2/[n-]c(-c3ccc4c(OC)cccc4n3)cs2)CC1 (3D coordinates assigned)
CC[NH+]1CCN(CC/N=c2/[n-]c(-c3ccc4c(OC)cccc4n3)cs2)CC1 (nonaromatic ring conformer: 108.23520631739572 kcal/mol)

>  <smiles>  (25) 
CCN1CCN(CCN=c2[nH]c(-c3ccc4c(OC)cccc4n3)cs2)CC1

>  <score_type>  (25) 
oracle

>  <origin>  (25) 
adg

>  <m_score__min__energy>  (25) 
-8.6500000000000004

>  <m_primary>  (25) 
energy

$$$$
25:0
     RDKit          3D

 41 42  0  0  0  0  0  0  0  0999 V2000
    0.2269   25.6323  -27.9482 H   0  0  0  0  0  0  0  0  0  0  0  0
   -0.6080   24.9800  -28.2440 C   0  0  0  0  0  0  0  0  0  0  0  0
   -1.6400   25.4860  -28.9680 N   0  0  0  0  0  0  0  0  0  0  0  0
   -2.6990   24.7270  -29.3570 C   0  0  0  0  0  0  0  0  0  0  0  0
   -3.6380   25.2930  -30.0640 N   0  0  0  0  0  0  0  0  0  0  0  0
   -4.7940   24.6720  -30.6460 C   0  0  0  0  0  0  0  0  0  0  0  0
   -5.4010   25.2690  -31.5740 O   0  0  0  0  0  0  0  0  0  0  0  0
   -5.3370   23.4640  -30.0880 N   0  0  0  0  0  0  0  0  0  0  0  0
   -5.0940   23.2380  -29.0970 H   0  0  0  0  0  0  0  0  0  0  0  0
   -6.2640   22.6050  -30.7750 C   0  0  0  0  0  0  0  0  0  0  0  0
   -5.8250   21.6500  -31.7100 C   0  0  0  0  0  0  0  0  0  0  0  0
   -4.7533   21.5644  -31.9427 H   0  0  0  0  0  0  0  0  0  0  0  0
   -6.7440   20.8090  -32.3450 C   0  0  0  0  0  0  0  0  0  0  0  0
   -6.3916   20.0672  -33.0768 H   0  0  0  0  0  0  0  0  0  0  0  0
   -8.1130   20.9060  -32.0540 C   0  0  0  0  0  0  0  0  0  0  0  0
   -9.0950   19.9760  -32.7080 C   0  0  0  0  0  0  0  0  0  0  0  0
   -9.0117   20.0682  -33.8010 H   0  0  0  0  0  0  0  0  0  0  0  0
  -10.1130   20.2424  -32.3876 H   0  0  0  0  0  0  0  0  0  0  0  0
   -8.8080   18.5650  -32.3070 C   0  0  0  0  0  0  0  0  0  0  0  0
   -9.4000   18.0630  -31.3130 O   0  0  0  0  0  0  0  0  0  0  0  0
   -7.9240   17.7990  -33.0760 O   0  0  0  0  0  0  0  0  0  0  0  0
   -6.5790   17.5270  -32.6880 C   0  0  0  0  0  0  0  0  0  0  0  0
   -6.4886   16.4645  -32.4179 H   0  0  0  0  0  0  0  0  0  0  0  0
   -6.3233   18.1619  -31.8269 H   0  0  0  0  0  0  0  0  0  0  0  0
   -5.6180   17.8370  -33.8290 C   0  0  0  0  0  0  0  0  0  0  0  0
   -4.6476   18.1500  -33.4163 H   0  0  0  0  0  0  0  0  0  0  0  0
   -5.4806   16.9376  -34.4472 H   0  0  0  0  0  0  0  0  0  0  0  0
   -6.0320   18.6472  -34.4472 H   0  0  0  0  0  0  0  0  0  0  0  0
   -8.5470   21.8350  -31.0960 C   0  0  0  0  0  0  0  0  0  0  0  0
   -9.6155   21.9019  -30.8433 H   0  0  0  0  0  0  0  0  0  0  0  0
   -7.6280   22.6760  -30.4610 C   0  0  0  0  0  0  0  0  0  0  0  0
   -7.9782   23.3988  -29.7094 H   0  0  0  0  0  0  0  0  0  0  0  0
   -2.7170   23.3550  -29.0230 C   0  0  0  0  0  0  0  0  0  0  0  0
   -3.5444   22.7141  -29.3617 H   0  0  0  0  0  0  0  0  0  0  0  0
   -1.6740   22.8140  -28.2570 C   0  0  0  0  0  0  0  0  0  0  0  0
   -1.6600   21.3510  -27.9250 C   0  0  0  0  0  0  0  0  0  0  0  0
   -1.6588   21.2229  -26.8325 H   0  0  0  0  0  0  0  0  0  0  0  0
   -2.5536   20.8701  -28.3495 H   0  0  0  0  0  0  0  0  0  0  0  0
   -0.7574   20.8873  -28.3495 H   0  0  0  0  0  0  0  0  0  0  0  0
   -0.6050   23.6350  -27.8750 C   0  0  0  0  0  0  0  0  0  0  0  0
    0.2295   23.2224  -27.2891 H   0  0  0  0  0  0  0  0  0  0  0  0
  1  2  1  0
  2  3  1  0
  3  4  1  0
  4  5  2  0
  5  6  1  0
  6  7  2  0
  6  8  1  0
  8  9  1  0
  8 10  1  0
 10 11  2  0
 11 12  1  0
 11 13  1  0
 13 14  1  0
 13 15  2  0
 15 16  1  0
 16 17  1  0
 16 18  1  0
 16 19  1  0
 19 20  2  0
 19 21  1  0
 21 22  1  0
 22 23  1  0
 22 24  1  0
 22 25  1  0
 25 26  1  0
 25 27  1  0
 25 28  1  0
 15 29  1  0
 29 30  1  0
 29 31  2  0
 31 32  1  0
  4 33  1  0
 33 34  1  0
 33 35  2  0
 35 36  1  0
 36 37  1  0
 36 38  1  0
 36 39  1  0
 35 40  1  0
 40 41  1  0
 40  2  2  0
 31 10  1  0
M  CHG  1   3  -1
M  END
>  <UniqueID>  (26) 
26

>  <SMILES>  (26) 
CCOC(=O)Cc1ccc(NC(=O)/N=c2\cc(C)cc[n-]2)cc1

>  <Energy>  (26) 
45.69672565074343

>  <Genealogy>  (26) 
CCOC(=O)Cc1ccc(NC(=O)N=c2cc(C)cc[n-]2)cc1 (protonated)
CCOC(=O)Cc1ccc(NC(=O)/N=c2\cc(C)cc[n-]2)cc1 (cis-trans isomerization)
CCOC(=O)Cc1ccc(NC(=O)/N=c2\cc(C)cc[n-]2)cc1 (3D coordinates assigned)
CCOC(=O)Cc1ccc(NC(=O)/N=c2\cc(C)cc[n-]2)cc1 (optimized conformer: 45.69672565074343 kcal/mol)

>  <smiles>  (26) 
CCOC(=O)Cc1ccc(NC(=O)N=c2cc(C)cc[nH]2)cc1

>  <score_type>  (26) 
oracle

>  <origin>  (26) 
adg

>  <m_score__min__energy>  (26) 
-9.1500000000000004

>  <m_primary>  (26) 
energy

$$$$
26:0
     RDKit          3D

 41 43  0  0  0  0  0  0  0  0999 V2000
   -8.7150   19.5150  -31.5940 C   0  0  0  0  0  0  0  0  0  0  0  0
   -8.5000   20.8370  -32.3220 C   0  0  0  0  0  0  0  0  0  0  0  0
   -7.0770   21.1780  -32.3430 N   0  0  0  0  0  0  0  0  0  0  0  0
   -6.4900   22.3510  -31.9840 C   0  0  0  0  0  0  0  0  0  0  0  0
   -7.3850   23.7610  -31.3240 S   0  0  0  0  0  0  0  0  0  0  0  0
   -6.0480   24.2790  -30.1890 C   0  0  0  0  0  0  0  0  0  0  0  0
   -5.2460   25.4450  -30.7610 C   0  0  0  0  0  0  0  0  0  0  0  0
   -3.8610   25.2690  -30.4750 O   0  0  0  0  0  0  0  0  0  0  0  0
   -3.3270   24.1680  -29.7910 C   0  0  0  0  0  0  0  0  0  0  0  0
   -3.3720   24.1700  -28.3900 C   0  0  0  0  0  0  0  0  0  0  0  0
   -2.8510   23.0950  -27.6630 C   0  0  0  0  0  0  0  0  0  0  0  0
   -2.2790   22.0090  -28.3310 C   0  0  0  0  0  0  0  0  0  0  0  0
   -2.2300   21.9960  -29.7270 C   0  0  0  0  0  0  0  0  0  0  0  0
   -2.7510   23.0680  -30.4580 C   0  0  0  0  0  0  0  0  0  0  0  0
   -5.1490   22.3770  -32.2020 N   0  0  0  0  0  0  0  0  0  0  0  0
   -4.9070   21.1610  -32.7240 C   0  0  0  0  0  0  0  0  0  0  0  0
   -3.6870   20.6460  -33.1500 C   0  0  0  0  0  0  0  0  0  0  0  0
   -3.6940   19.3450  -33.6960 C   0  0  0  0  0  0  0  0  0  0  0  0
   -2.4180   18.7160  -34.1560 C   0  0  0  0  0  0  0  0  0  0  0  0
   -4.8700   18.6390  -33.7780 N   0  0  0  0  0  0  0  0  0  0  0  0
   -6.0610   19.1570  -33.3550 C   0  0  0  0  0  0  0  0  0  0  0  0
   -6.0580   20.4420  -32.8180 C   0  0  0  0  0  0  0  0  0  0  0  0
   -8.6872   19.6859  -30.5077 H   0  0  0  0  0  0  0  0  0  0  0  0
   -9.6930   19.0968  -31.8745 H   0  0  0  0  0  0  0  0  0  0  0  0
   -7.9200   18.8084  -31.8745 H   0  0  0  0  0  0  0  0  0  0  0  0
   -8.8671   20.7466  -33.3550 H   0  0  0  0  0  0  0  0  0  0  0  0
   -9.0509   21.6301  -31.7952 H   0  0  0  0  0  0  0  0  0  0  0  0
   -6.4923   24.5871  -29.2310 H   0  0  0  0  0  0  0  0  0  0  0  0
   -5.3657   23.4275  -30.0496 H   0  0  0  0  0  0  0  0  0  0  0  0
   -5.3907   25.4872  -31.8506 H   0  0  0  0  0  0  0  0  0  0  0  0
   -5.5937   26.3825  -30.3026 H   0  0  0  0  0  0  0  0  0  0  0  0
   -3.8201   25.0228  -27.8589 H   0  0  0  0  0  0  0  0  0  0  0  0
   -2.8915   23.1043  -26.5638 H   0  0  0  0  0  0  0  0  0  0  0  0
   -1.8676   21.1650  -27.7580 H   0  0  0  0  0  0  0  0  0  0  0  0
   -1.7805   21.1405  -30.2524 H   0  0  0  0  0  0  0  0  0  0  0  0
   -2.7112   23.0529  -31.5572 H   0  0  0  0  0  0  0  0  0  0  0  0
   -2.7573   21.2277  -33.0649 H   0  0  0  0  0  0  0  0  0  0  0  0
   -1.8189   18.4207  -33.2820 H   0  0  0  0  0  0  0  0  0  0  0  0
   -2.6453   17.8267  -34.7622 H   0  0  0  0  0  0  0  0  0  0  0  0
   -1.8511   19.4379  -34.7622 H   0  0  0  0  0  0  0  0  0  0  0  0
   -6.9926   18.5778  -33.4359 H   0  0  0  0  0  0  0  0  0  0  0  0
  1  2  1  0
  2  3  1  0
  3  4  1  0
  4  5  1  0
  5  6  1  0
  6  7  1  0
  7  8  1  0
  8  9  1  0
  9 10  2  0
 10 11  1  0
 11 12  2  0
 12 13  1  0
 13 14  2  0
  4 15  2  0
 15 16  1  0
 16 17  2  0
 17 18  1  0
 18 19  1  0
 18 20  2  0
 20 21  1  0
 21 22  2  0
 22  3  1  0
 14  9  1  0
 22 16  1  0
  1 23  1  0
  1 24  1  0
  1 25  1  0
  2 26  1  0
  2 27  1  0
  6 28  1  0
  6 29  1  0
  7 30  1  0
  7 31  1  0
 10 32  1  0
 11 33  1  0
 12 34  1  0
 13 35  1  0
 14 36  1  0
 17 37  1  0
 19 38  1  0
 19 39  1  0
 19 40  1  0
 21 41  1  0
M  END
>  <UniqueID>  (27) 
27

>  <SMILES>  (27) 
CCn1c(SCCOc2ccccc2)nc2cc(C)ncc21

>  <Energy>  (27) 
71.09384434369012

>  <Genealogy>  (27) 
CCn1c(SCCOc2ccccc2)nc2cc(C)ncc21 (3D coordinates assigned)
CCn1c(SCCOc2ccccc2)nc2cc(C)ncc21 (optimized conformer: 71.09384434369012 kcal/mol)

>  <smiles>  (27) 
CCn1c(SCCOc2ccccc2)nc2cc(C)ncc21

>  <score_type>  (27) 
oracle

>  <origin>  (27) 
adg

>  <m_score__min__energy>  (27) 
-7.9000000000000004

>  <m_primary>  (27) 
energy

$$$$
27:0
     RDKit          3D

 40 42  0  0  0  0  0  0  0  0999 V2000
   -0.8450   26.6610  -27.8400 C   0  0  0  0  0  0  0  0  0  0  0  0
   -1.4230   25.2880  -27.9760 C   0  0  0  0  0  0  0  0  0  0  0  0
   -1.0270   24.2640  -27.1120 C   0  0  0  0  0  0  0  0  0  0  0  0
   -1.5870   22.9950  -27.2780 C   0  0  0  0  0  0  0  0  0  0  0  0
   -1.1900   21.8680  -26.3790 C   0  0  0  0  0  0  0  0  0  0  0  0
   -2.4930   22.7860  -28.2690 N   0  0  0  0  0  0  0  0  0  0  0  0
   -2.8740   23.7890  -29.1070 C   0  0  0  0  0  0  0  0  0  0  0  0
   -3.8360   23.5450  -30.1540 N   0  0  0  0  0  0  0  0  0  0  0  0
   -5.1610   24.1840  -30.0720 C   0  0  0  0  0  0  0  0  0  0  0  0
   -5.9830   23.9430  -31.3380 C   0  0  0  0  0  0  0  0  0  0  0  0
   -5.9240   22.5220  -31.6980 N   0  0  0  0  0  0  0  0  0  0  0  0
   -7.1310   21.7640  -31.9050 C   0  0  0  0  0  0  0  0  0  0  0  0
   -8.3800   22.3030  -31.5500 C   0  0  0  0  0  0  0  0  0  0  0  0
   -9.5510   21.5680  -31.7630 C   0  0  0  0  0  0  0  0  0  0  0  0
   -9.4860   20.2950  -32.3340 C   0  0  0  0  0  0  0  0  0  0  0  0
   -8.2510   19.7540  -32.6960 C   0  0  0  0  0  0  0  0  0  0  0  0
   -7.0770   20.4850  -32.4850 C   0  0  0  0  0  0  0  0  0  0  0  0
   -4.6200   21.8430  -31.7680 C   0  0  0  0  0  0  0  0  0  0  0  0
   -3.4700   22.7690  -31.3520 C   0  0  0  0  0  0  0  0  0  0  0  0
   -2.3320   25.0290  -28.9520 N   0  0  0  0  0  0  0  0  0  0  0  0
   -0.7399   26.9106  -26.7739 H   0  0  0  0  0  0  0  0  0  0  0  0
    0.1428   26.6925  -28.3231 H   0  0  0  0  0  0  0  0  0  0  0  0
   -1.5128   27.3895  -28.3231 H   0  0  0  0  0  0  0  0  0  0  0  0
   -0.2898   24.4530  -26.3178 H   0  0  0  0  0  0  0  0  0  0  0  0
   -1.2998   22.1797  -25.3298 H   0  0  0  0  0  0  0  0  0  0  0  0
   -1.8362   20.9992  -26.5729 H   0  0  0  0  0  0  0  0  0  0  0  0
   -0.1419   21.5960  -26.5729 H   0  0  0  0  0  0  0  0  0  0  0  0
   -5.7041   23.7696  -29.2098 H   0  0  0  0  0  0  0  0  0  0  0  0
   -5.0130   25.2682  -29.9599 H   0  0  0  0  0  0  0  0  0  0  0  0
   -7.0287   24.2318  -31.1564 H   0  0  0  0  0  0  0  0  0  0  0  0
   -5.5728   24.5465  -32.1611 H   0  0  0  0  0  0  0  0  0  0  0  0
   -8.4366   23.3065  -31.1030 H   0  0  0  0  0  0  0  0  0  0  0  0
  -10.5251   21.9935  -31.4802 H   0  0  0  0  0  0  0  0  0  0  0  0
  -10.4083   19.7185  -32.4985 H   0  0  0  0  0  0  0  0  0  0  0  0
   -8.2010   18.7522  -33.1475 H   0  0  0  0  0  0  0  0  0  0  0  0
   -6.1063   20.0563  -32.7747 H   0  0  0  0  0  0  0  0  0  0  0  0
   -4.6360   20.9720  -31.0963 H   0  0  0  0  0  0  0  0  0  0  0  0
   -4.4507   21.5365  -32.8108 H   0  0  0  0  0  0  0  0  0  0  0  0
   -2.5792   22.1624  -31.1315 H   0  0  0  0  0  0  0  0  0  0  0  0
   -3.2609   23.4669  -32.1762 H   0  0  0  0  0  0  0  0  0  0  0  0
  1  2  1  0
  2  3  2  0
  3  4  1  0
  4  5  1  0
  4  6  2  0
  6  7  1  0
  7  8  1  0
  8  9  1  0
  9 10  1  0
 10 11  1  0
 11 12  1  0
 12 13  2  0
 13 14  1  0
 14 15  2  0
 15 16  1  0
 16 17  2  0
 11 18  1  0
 18 19  1  0
  7 20  2  0
 20  2  1  0
 19  8  1  0
 17 12  1  0
  1 21  1  0
  1 22  1  0
  1 23  1  0
  3 24  1  0
  5 25  1  0
  5 26  1  0
  5 27  1  0
  9 28  1  0
  9 29  1  0
 10 30  1  0
 10 31  1  0
 13 32  1  0
 14 33  1  0
 15 34  1  0
 16 35  1  0
 17 36  1  0
 18 37  1  0
 18 38  1  0
 19 39  1  0
 19 40  1  0
M  END
>  <UniqueID>  (28) 
28

>  <SMILES>  (28) 
Cc1cc(C)nc(N2CCN(c3ccccc3)CC2)n1

>  <Energy>  (28) 
44.27196708048097

>  <Genealogy>  (28) 
Cc1cc(C)nc(N2CCN(c3ccccc3)CC2)n1 (3D coordinates assigned)
Cc1cc(C)nc(N2CCN(c3ccccc3)CC2)n1 (nonaromatic ring conformer: 44.27196708048097 kcal/mol)

>  <smiles>  (28) 
Cc1cc(C)nc(N2CCN(c3ccccc3)CC2)n1

>  <score_type>  (28) 
oracle

>  <origin>  (28) 
adg

>  <m_score__min__energy>  (28) 
-7.0499999999999998

>  <m_primary>  (28) 
energy

$$$$
28:0
     RDKit          3D

 45 48  0  0  0  0  0  0  0  0999 V2000
   -2.9760   24.9510  -26.4330 C   0  0  0  0  0  0  0  0  0  0  0  0
   -2.5690   23.8510  -27.2410 O   0  0  0  0  0  0  0  0  0  0  0  0
   -3.3150   23.3360  -28.3120 C   0  0  0  0  0  0  0  0  0  0  0  0
   -3.1290   22.0320  -28.8000 C   0  0  0  0  0  0  0  0  0  0  0  0
   -3.8990   21.5600  -29.8640 C   0  0  0  0  0  0  0  0  0  0  0  0
   -4.8700   22.3820  -30.4680 C   0  0  0  0  0  0  0  0  0  0  0  0
   -5.0470   23.6980  -29.9860 C   0  0  0  0  0  0  0  0  0  0  0  0
   -4.2790   24.1560  -28.9050 C   0  0  0  0  0  0  0  0  0  0  0  0
   -6.1140   24.5960  -30.5650 C   0  0  0  0  0  0  0  0  0  0  0  0
   -6.5010   24.1830  -31.9870 C   0  0  0  0  0  0  0  0  0  0  0  0
   -6.8250   22.6910  -32.0340 C   0  0  0  0  0  0  0  0  0  0  0  0
   -5.6660   21.9120  -31.5810 N   0  0  0  0  0  0  0  0  0  0  0  0
   -5.3550   20.6800  -32.2580 C   0  0  0  0  0  0  0  0  0  0  0  0
   -6.3160   19.6560  -32.3210 C   0  0  0  0  0  0  0  0  0  0  0  0
   -7.9490   19.8610  -31.5930 S   0  0  0  0  0  0  0  0  0  0  0  0
   -8.4800   18.1630  -31.9720 C   0  0  0  0  0  0  0  0  0  0  0  0
   -6.0120   18.4660  -32.9880 C   0  0  0  0  0  0  0  0  0  0  0  0
   -4.7930   18.2860  -33.5610 N   0  0  0  0  0  0  0  0  0  0  0  0
   -3.8380   19.2590  -33.5290 C   0  0  0  0  0  0  0  0  0  0  0  0
   -2.5950   19.0480  -34.1470 C   0  0  0  0  0  0  0  0  0  0  0  0
   -1.6230   20.0520  -34.1360 C   0  0  0  0  0  0  0  0  0  0  0  0
   -0.0740   19.7800  -34.9150 Cl  0  0  0  0  0  0  0  0  0  0  0  0
   -1.8860   21.2740  -33.5140 C   0  0  0  0  0  0  0  0  0  0  0  0
   -3.1170   21.4970  -32.8920 C   0  0  0  0  0  0  0  0  0  0  0  0
   -4.1010   20.4910  -32.8790 C   0  0  0  0  0  0  0  0  0  0  0  0
   -2.8766   24.6824  -25.3709 H   0  0  0  0  0  0  0  0  0  0  0  0
   -2.3405   25.8218  -26.6520 H   0  0  0  0  0  0  0  0  0  0  0  0
   -4.0252   25.1984  -26.6520 H   0  0  0  0  0  0  0  0  0  0  0  0
   -2.3721   21.3791  -28.3409 H   0  0  0  0  0  0  0  0  0  0  0  0
   -3.7459   20.5357  -30.2346 H   0  0  0  0  0  0  0  0  0  0  0  0
   -4.4376   25.1738  -28.5191 H   0  0  0  0  0  0  0  0  0  0  0  0
   -7.0071   24.5449  -29.9248 H   0  0  0  0  0  0  0  0  0  0  0  0
   -5.7118   25.6190  -30.6058 H   0  0  0  0  0  0  0  0  0  0  0  0
   -7.3843   24.7567  -32.3041 H   0  0  0  0  0  0  0  0  0  0  0  0
   -5.6572   24.3882  -32.6622 H   0  0  0  0  0  0  0  0  0  0  0  0
   -7.6828   22.4835  -31.3774 H   0  0  0  0  0  0  0  0  0  0  0  0
   -7.0699   22.4066  -33.0680 H   0  0  0  0  0  0  0  0  0  0  0  0
   -8.6515   17.6145  -31.0341 H   0  0  0  0  0  0  0  0  0  0  0  0
   -9.4120   18.1919  -32.5556 H   0  0  0  0  0  0  0  0  0  0  0  0
   -7.6976   17.6558  -32.5556 H   0  0  0  0  0  0  0  0  0  0  0  0
   -6.7664   17.6678  -33.0497 H   0  0  0  0  0  0  0  0  0  0  0  0
   -4.6030   17.3790  -34.0440 H   0  0  0  0  0  0  0  0  0  0  0  0
   -2.3854   18.0883  -34.6419 H   0  0  0  0  0  0  0  0  0  0  0  0
   -1.1209   22.0644  -33.5137 H   0  0  0  0  0  0  0  0  0  0  0  0
   -3.3183   22.4648  -32.4095 H   0  0  0  0  0  0  0  0  0  0  0  0
  1  2  1  0
  2  3  1  0
  3  4  2  0
  4  5  1  0
  5  6  2  0
  6  7  1  0
  7  8  2  0
  7  9  1  0
  9 10  1  0
 10 11  1  0
 11 12  1  0
 12 13  1  0
 13 14  2  0
 14 15  1  0
 15 16  1  0
 14 17  1  0
 17 18  2  0
 18 19  1  0
 19 20  2  0
 20 21  1  0
 21 22  1  0
 21 23  2  0
 23 24  1  0
 24 25  2  0
  8  3  1  0
 25 13  1  0
 12  6  1  0
 25 19  1  0
  1 26  1  0
  1 27  1  0
  1 28  1  0
  4 29  1  0
  5 30  1  0
  8 31  1  0
  9 32  1  0
  9 33  1  0
 10 34  1  0
 10 35  1  0
 11 36  1  0
 11 37  1  0
 16 38  1  0
 16 39  1  0
 16 40  1  0
 17 41  1  0
 18 42  1  0
 20 43  1  0
 23 44  1  0
 24 45  1  0
M  CHG  1  18   1
M  END
>  <UniqueID>  (29) 
29

>  <SMILES>  (29) 
COc1ccc2c(c1)CCCN2c1c(SC)c[nH+]c2cc(Cl)ccc12

>  <Energy>  (29) 
54.13374791609954

>  <Genealogy>  (29) 
COc1ccc2c(c1)CCCN2c1c(SC)c[nH+]c2cc(Cl)ccc12 (protonated)
COc1ccc2c(c1)CCCN2c1c(SC)c[nH+]c2cc(Cl)ccc12 (3D coordinates assigned)
COc1ccc2c(c1)CCCN2c1c(SC)c[nH+]c2cc(Cl)ccc12 (nonaromatic ring conformer: 54.13374791609954 kcal/mol)

>  <smiles>  (29) 
COc1ccc2c(c1)CCCN2c1c(SC)cnc2cc(Cl)ccc12

>  <score_type>  (29) 
oracle

>  <origin>  (29) 
adg

>  <m_score__min__energy>  (29) 
-7.8499999999999996

>  <m_primary>  (29) 
energy

$$$$
29:0
     RDKit          3D

 36 36  0  0  0  0  0  0  0  0999 V2000
   -2.7780   21.9130  -31.8830 C   0  0  0  0  0  0  0  0  0  0  0  0
   -2.2640   21.8880  -30.4480 C   0  0  0  0  0  0  0  0  0  0  0  0
   -3.3280   22.1190  -29.5280 O   0  0  0  0  0  0  0  0  0  0  0  0
   -3.4730   23.3030  -28.7980 C   0  0  0  0  0  0  0  0  0  0  0  0
   -4.0800   23.3100  -27.6920 O   0  0  0  0  0  0  0  0  0  0  0  0
   -2.9430   24.5810  -29.3620 C   0  0  0  0  0  0  0  0  0  0  0  0
   -3.7290   24.9800  -30.5230 N   0  0  0  0  0  0  0  0  0  0  0  0
   -5.0880   25.4220  -30.4440 C   0  0  0  0  0  0  0  0  0  0  0  0
   -5.3630   26.6530  -30.4610 O   0  0  0  0  0  0  0  0  0  0  0  0
   -6.1860   24.4150  -30.2900 C   0  0  0  0  0  0  0  0  0  0  0  0
   -5.6390   23.0520  -30.3230 N   0  0  0  0  0  0  0  0  0  0  0  0
   -6.5850   22.1570  -30.9400 C   0  0  0  0  0  0  0  0  0  0  0  0
   -6.1530   21.1860  -31.8610 C   0  0  0  0  0  0  0  0  0  0  0  0
   -7.0660   20.2960  -32.4330 C   0  0  0  0  0  0  0  0  0  0  0  0
   -8.4230   20.3490  -32.0800 C   0  0  0  0  0  0  0  0  0  0  0  0
   -9.4090   19.4180  -32.7200 C   0  0  0  0  0  0  0  0  0  0  0  0
   -8.8590   21.3200  -31.1670 C   0  0  0  0  0  0  0  0  0  0  0  0
   -7.9460   22.2100  -30.5920 C   0  0  0  0  0  0  0  0  0  0  0  0
   -3.8767   21.9664  -31.8781 H   0  0  0  0  0  0  0  0  0  0  0  0
   -2.3705   22.7924  -32.4032 H   0  0  0  0  0  0  0  0  0  0  0  0
   -2.4577   20.9982  -32.4032 H   0  0  0  0  0  0  0  0  0  0  0  0
   -1.8155   20.9049  -30.2421 H   0  0  0  0  0  0  0  0  0  0  0  0
   -1.5131   22.6827  -30.3273 H   0  0  0  0  0  0  0  0  0  0  0  0
   -3.0002   25.3682  -28.5958 H   0  0  0  0  0  0  0  0  0  0  0  0
   -1.8971   24.4328  -29.6688 H   0  0  0  0  0  0  0  0  0  0  0  0
   -6.6952   24.5781  -29.3287 H   0  0  0  0  0  0  0  0  0  0  0  0
   -6.8982   24.5339  -31.1198 H   0  0  0  0  0  0  0  0  0  0  0  0
   -5.4310   22.7310  -29.3480 H   0  0  0  0  0  0  0  0  0  0  0  0
   -4.7410   23.0440  -30.8640 H   0  0  0  0  0  0  0  0  0  0  0  0
   -5.0888   21.1266  -32.1331 H   0  0  0  0  0  0  0  0  0  0  0  0
   -6.7192   19.5503  -33.1635 H   0  0  0  0  0  0  0  0  0  0  0  0
   -9.9719   18.8865  -31.9386 H   0  0  0  0  0  0  0  0  0  0  0  0
  -10.1058   19.9953  -33.3454 H   0  0  0  0  0  0  0  0  0  0  0  0
   -8.8726   18.6893  -33.3454 H   0  0  0  0  0  0  0  0  0  0  0  0
   -9.9247   21.3820  -30.9016 H   0  0  0  0  0  0  0  0  0  0  0  0
   -8.2951   22.9561  -29.8629 H   0  0  0  0  0  0  0  0  0  0  0  0
  1  2  1  0
  2  3  1  0
  3  4  1  0
  4  5  2  0
  4  6  1  0
  6  7  1  0
  7  8  1  0
  8  9  2  0
  8 10  1  0
 10 11  1  0
 11 12  1  0
 12 13  2  0
 13 14  1  0
 14 15  2  0
 15 16  1  0
 15 17  1  0
 17 18  2  0
 18 12  1  0
  1 19  1  0
  1 20  1  0
  1 21  1  0
  2 22  1  0
  2 23  1  0
  6 24  1  0
  6 25  1  0
 10 26  1  0
 10 27  1  0
 11 28  1  0
 11 29  1  0
 13 30  1  0
 14 31  1  0
 16 32  1  0
 16 33  1  0
 16 34  1  0
 17 35  1  0
 18 36  1  0
M  CHG  2   7  -1  11   1
M  END
>  <UniqueID>  (30) 
30

>  <SMILES>  (30) 
CCOC(=O)C[N-]C(=O)C[NH2+]c1ccc(C)cc1

>  <Energy>  (30) 
24.876809105604522

>  <Genealogy>  (30) 
CCOC(=O)C[N-]C(=O)C[NH2+]c1ccc(C)cc1 (protonated)
CCOC(=O)C[N-]C(=O)C[NH2+]c1ccc(C)cc1 (3D coordinates assigned)
CCOC(=O)C[N-]C(=O)C[NH2+]c1ccc(C)cc1 (optimized conformer: 24.876809105604522 kcal/mol)

>  <smiles>  (30) 
CCOC(=O)CNC(=O)CNc1ccc(C)cc1

>  <score_type>  (30) 
oracle

>  <origin>  (30) 
adg

>  <m_score__min__energy>  (30) 
-6.2199999999999998

>  <m_primary>  (30) 
energy

$$$$
30:0
     RDKit          3D

 74 77  0  0  0  0  0  0  0  0999 V2000
   -2.6880   18.9260  -26.6390 C   0  0  0  0  0  0  0  0  0  0  0  0
   -2.5620   20.0620  -27.6480 C   0  0  0  0  0  0  0  0  0  0  0  0
   -1.5540   19.7680  -28.5970 O   0  0  0  0  0  0  0  0  0  0  0  0
   -0.2860   20.1680  -28.1160 C   0  0  0  0  0  0  0  0  0  0  0  0
    0.5620   18.9300  -27.8250 C   0  0  0  0  0  0  0  0  0  0  0  0
   -0.0660   17.7620  -28.3260 O   0  0  0  0  0  0  0  0  0  0  0  0
    0.8530   16.9220  -29.0030 C   0  0  0  0  0  0  0  0  0  0  0  0
    0.7710   17.1550  -30.5110 C   0  0  0  0  0  0  0  0  0  0  0  0
    0.4460   18.5570  -30.7930 N   0  0  0  0  0  0  0  0  0  0  0  0
    0.0150   18.7640  -32.1820 C   0  0  0  0  0  0  0  0  0  0  0  0
   -1.1840   19.6770  -32.2840 C   0  0  0  0  0  0  0  0  0  0  0  0
   -2.4450   19.1520  -32.6020 C   0  0  0  0  0  0  0  0  0  0  0  0
   -3.5510   19.9970  -32.7190 C   0  0  0  0  0  0  0  0  0  0  0  0
   -3.4150   21.3820  -32.5330 C   0  0  0  0  0  0  0  0  0  0  0  0
   -4.6260   22.2740  -32.6810 C   0  0  0  0  0  0  0  0  0  0  0  0
   -5.2080   22.6370  -31.3550 N   0  0  0  0  0  0  0  0  0  0  0  0
   -4.4810   21.9440  -30.2500 C   0  0  0  0  0  0  0  0  0  0  0  0
   -3.8670   22.8740  -29.2120 C   0  0  0  0  0  0  0  0  0  0  0  0
   -2.4740   23.0160  -29.0850 C   0  0  0  0  0  0  0  0  0  0  0  0
   -1.9500   23.8760  -28.1200 C   0  0  0  0  0  0  0  0  0  0  0  0
   -2.8090   24.5800  -27.2770 C   0  0  0  0  0  0  0  0  0  0  0  0
   -4.1850   24.4040  -27.4080 C   0  0  0  0  0  0  0  0  0  0  0  0
   -4.6830   23.5640  -28.3550 N   0  0  0  0  0  0  0  0  0  0  0  0
   -6.7020   22.5150  -31.3070 C   0  0  1  0  0  0  0  0  0  0  0  0
   -7.4380   23.4150  -32.3470 C   0  0  0  0  0  0  0  0  0  0  0  0
   -8.9880   23.2580  -32.3150 C   0  0  0  0  0  0  0  0  0  0  0  0
   -9.5010   22.0490  -31.5040 C   0  0  0  0  0  0  0  0  0  0  0  0
   -8.5790   20.8770  -31.6730 C   0  0  0  0  0  0  0  0  0  0  0  0
   -9.0580   19.5970  -31.9780 C   0  0  0  0  0  0  0  0  0  0  0  0
   -8.1560   18.5670  -32.2400 C   0  0  0  0  0  0  0  0  0  0  0  0
   -6.7860   18.8320  -32.2050 C   0  0  0  0  0  0  0  0  0  0  0  0
   -6.3430   20.0780  -31.8960 N   0  0  0  0  0  0  0  0  0  0  0  0
   -7.1930   21.0970  -31.5920 C   0  0  0  0  0  0  0  0  0  0  0  0
   -2.1610   21.9010  -32.1660 C   0  0  0  0  0  0  0  0  0  0  0  0
   -1.0520   21.0550  -32.0520 C   0  0  0  0  0  0  0  0  0  0  0  0
   -2.6426   19.3350  -25.6189 H   0  0  0  0  0  0  0  0  0  0  0  0
   -3.6488   18.4107  -26.7851 H   0  0  0  0  0  0  0  0  0  0  0  0
   -1.8635   18.2127  -26.7851 H   0  0  0  0  0  0  0  0  0  0  0  0
   -3.5224   20.1934  -28.1680 H   0  0  0  0  0  0  0  0  0  0  0  0
   -2.2922   20.9854  -27.1146 H   0  0  0  0  0  0  0  0  0  0  0  0
    0.2158   20.7861  -28.8750 H   0  0  0  0  0  0  0  0  0  0  0  0
   -0.4116   20.7519  -27.1923 H   0  0  0  0  0  0  0  0  0  0  0  0
    1.5452   19.0451  -28.3047 H   0  0  0  0  0  0  0  0  0  0  0  0
    0.6776   18.8292  -26.7357 H   0  0  0  0  0  0  0  0  0  0  0  0
    1.8727   17.1453  -28.6560 H   0  0  0  0  0  0  0  0  0  0  0  0
    0.6041   15.8722  -28.7885 H   0  0  0  0  0  0  0  0  0  0  0  0
    1.7399   16.9079  -30.9695 H   0  0  0  0  0  0  0  0  0  0  0  0
   -0.0187   16.5137  -30.9295 H   0  0  0  0  0  0  0  0  0  0  0  0
   -0.3150   18.8710  -30.1460 H   0  0  0  0  0  0  0  0  0  0  0  0
    0.8470   19.2094  -32.7472 H   0  0  0  0  0  0  0  0  0  0  0  0
   -0.2735   17.7851  -32.5926 H   0  0  0  0  0  0  0  0  0  0  0  0
   -2.5636   18.0699  -32.7600 H   0  0  0  0  0  0  0  0  0  0  0  0
   -4.5375   19.5736  -32.9590 H   0  0  0  0  0  0  0  0  0  0  0  0
   -4.3290   23.1948  -33.2044 H   0  0  0  0  0  0  0  0  0  0  0  0
   -5.3891   21.7253  -33.2525 H   0  0  0  0  0  0  0  0  0  0  0  0
   -5.1910   21.2787  -29.7369 H   0  0  0  0  0  0  0  0  0  0  0  0
   -3.6443   21.4048  -30.7182 H   0  0  0  0  0  0  0  0  0  0  0  0
   -1.7994   22.4506  -29.7447 H   0  0  0  0  0  0  0  0  0  0  0  0
   -0.8611   23.9986  -28.0242 H   0  0  0  0  0  0  0  0  0  0  0  0
   -2.4053   25.2660  -26.5178 H   0  0  0  0  0  0  0  0  0  0  0  0
   -4.8720   24.9470  -26.7423 H   0  0  0  0  0  0  0  0  0  0  0  0
   -5.7200   23.4510  -28.4160 H   0  0  0  0  0  0  0  0  0  0  0  0
   -6.9375   22.8285  -30.2793 H   0  0  0  0  0  0  0  0  0  0  0  0
   -7.1896   24.4657  -32.1363 H   0  0  0  0  0  0  0  0  0  0  0  0
   -7.1005   23.0998  -33.3454 H   0  0  0  0  0  0  0  0  0  0  0  0
   -9.4151   24.1711  -31.8748 H   0  0  0  0  0  0  0  0  0  0  0  0
   -9.3030   23.0884  -33.3552 H   0  0  0  0  0  0  0  0  0  0  0  0
   -9.5500   22.3211  -30.4393 H   0  0  0  0  0  0  0  0  0  0  0  0
  -10.5009   21.7722  -31.8696 H   0  0  0  0  0  0  0  0  0  0  0  0
  -10.1407   19.4052  -32.0107 H   0  0  0  0  0  0  0  0  0  0  0  0
   -8.5203   17.5553  -32.4720 H   0  0  0  0  0  0  0  0  0  0  0  0
   -6.0651   18.0315  -32.4277 H   0  0  0  0  0  0  0  0  0  0  0  0
   -2.0510   22.9773  -31.9675 H   0  0  0  0  0  0  0  0  0  0  0  0
   -0.0715   21.4723  -31.7791 H   0  0  0  0  0  0  0  0  0  0  0  0
  1  2  1  0
  2  3  1  0
  3  4  1  0
  4  5  1  0
  5  6  1  0
  6  7  1  0
  7  8  1  0
  8  9  1  0
  9 10  1  0
 10 11  1  0
 11 12  2  0
 12 13  1  0
 13 14  2  0
 14 15  1  0
 15 16  1  0
 16 17  1  0
 17 18  1  0
 18 19  2  0
 19 20  1  0
 20 21  2  0
 21 22  1  0
 22 23  2  0
 16 24  1  0
 24 25  1  0
 25 26  1  0
 26 27  1  0
 27 28  1  0
 28 29  2  0
 29 30  1  0
 30 31  2  0
 31 32  1  0
 32 33  2  0
 14 34  1  0
 34 35  2  0
 35 11  1  0
 23 18  1  0
 33 24  1  0
 33 28  1  0
  1 36  1  0
  1 37  1  0
  1 38  1  0
  2 39  1  0
  2 40  1  0
  4 41  1  0
  4 42  1  0
  5 43  1  0
  5 44  1  0
  7 45  1  0
  7 46  1  0
  8 47  1  0
  8 48  1  0
  9 49  1  0
 10 50  1  0
 10 51  1  0
 12 52  1  0
 13 53  1  0
 15 54  1  0
 15 55  1  0
 17 56  1  0
 17 57  1  0
 19 58  1  0
 20 59  1  0
 21 60  1  0
 22 61  1  0
 23 62  1  0
 24 63  1  1
 25 64  1  0
 25 65  1  0
 26 66  1  0
 26 67  1  0
 27 68  1  0
 27 69  1  0
 29 70  1  0
 30 71  1  0
 31 72  1  0
 34 73  1  0
 35 74  1  0
M  CHG  1  23   1
M  END
>  <UniqueID>  (31) 
31

>  <SMILES>  (31) 
CCOCCOCCNCc1ccc(CN(Cc2cccc[nH+]2)[C@H]2CCCc3cccnc32)cc1

>  <Energy>  (31) 
98.57305505773256

>  <Genealogy>  (31) 
CCOCCOCCNCc1ccc(CN(Cc2cccc[nH+]2)C2CCCc3cccnc32)cc1 (protonated)
CCOCCOCCNCc1ccc(CN(Cc2cccc[nH+]2)[C@H]2CCCc3cccnc32)cc1 (chirality)
CCOCCOCCNCc1ccc(CN(Cc2cccc[nH+]2)[C@H]2CCCc3cccnc32)cc1 (3D coordinates assigned)
CCOCCOCCNCc1ccc(CN(Cc2cccc[nH+]2)[C@H]2CCCc3cccnc32)cc1 (nonaromatic ring conformer: 98.57305505773256 kcal/mol)

>  <smiles>  (31) 
CCOCCOCCNCc1ccc(CN(Cc2ccccn2)C2CCCc3cccnc32)cc1

>  <score_type>  (31) 
oracle

>  <origin>  (31) 
adg

>  <m_score__min__energy>  (31) 
-9.1699999999999999

>  <m_primary>  (31) 
energy

$$$$
31:0
     RDKit          3D

 52 54  0  0  0  0  0  0  0  0999 V2000
   -6.7860   24.3880  -30.5310 C   0  0  0  0  0  0  0  0  0  0  0  0
   -5.5440   25.2360  -30.7880 C   0  0  0  0  0  0  0  0  0  0  0  0
   -4.3390   24.3750  -30.8560 N   0  0  0  0  0  0  0  0  0  0  0  0
   -3.4990   24.5330  -29.6460 C   0  0  0  0  0  0  0  0  0  0  0  0
   -4.1360   23.8110  -28.4630 C   0  0  0  0  0  0  0  0  0  0  0  0
   -4.7080   22.9570  -31.0690 C   0  0  0  0  0  0  0  0  0  0  0  0
   -3.8080   22.3340  -32.1390 C   0  0  0  0  0  0  0  0  0  0  0  0
   -4.6170   21.7830  -33.2240 N   0  0  0  0  0  0  0  0  0  0  0  0
   -5.1300   20.4410  -33.1520 C   0  0  0  0  0  0  0  0  0  0  0  0
   -6.4560   20.2100  -32.7440 C   0  0  0  0  0  0  0  0  0  0  0  0
   -7.2890   21.2690  -32.3230 C   0  0  0  0  0  0  0  0  0  0  0  0
   -8.6060   21.0270  -31.9340 C   0  0  0  0  0  0  0  0  0  0  0  0
   -9.1140   19.7320  -31.9600 C   0  0  0  0  0  0  0  0  0  0  0  0
   -8.3140   18.6740  -32.3880 C   0  0  0  0  0  0  0  0  0  0  0  0
   -6.9770   18.8920  -32.8030 C   0  0  0  0  0  0  0  0  0  0  0  0
   -6.1920   17.8590  -33.2730 N   0  0  0  0  0  0  0  0  0  0  0  0
   -6.8570   16.6680  -33.8430 C   0  0  0  0  0  0  0  0  0  0  0  0
   -4.8240   18.0250  -33.3850 C   0  0  0  0  0  0  0  0  0  0  0  0
   -3.9040   16.9270  -33.4400 C   0  0  0  0  0  0  0  0  0  0  0  0
   -4.2500   15.5260  -32.9960 C   0  0  0  0  0  0  0  0  0  0  0  0
   -2.5620   17.1640  -33.7800 C   0  0  0  0  0  0  0  0  0  0  0  0
   -2.0870   18.4580  -33.9420 C   0  0  0  0  0  0  0  0  0  0  0  0
   -2.9300   19.5410  -33.7280 C   0  0  0  0  0  0  0  0  0  0  0  0
   -4.2930   19.3450  -33.4340 C   0  0  0  0  0  0  0  0  0  0  0  0
   -6.9402   24.2827  -29.4470 H   0  0  0  0  0  0  0  0  0  0  0  0
   -7.6631   24.8767  -30.9804 H   0  0  0  0  0  0  0  0  0  0  0  0
   -6.6502   23.3932  -30.9804 H   0  0  0  0  0  0  0  0  0  0  0  0
   -5.6614   25.7721  -31.7413 H   0  0  0  0  0  0  0  0  0  0  0  0
   -5.4244   25.9549  -29.9641 H   0  0  0  0  0  0  0  0  0  0  0  0
   -2.5028   24.1076  -29.8374 H   0  0  0  0  0  0  0  0  0  0  0  0
   -3.4115   25.6033  -29.4077 H   0  0  0  0  0  0  0  0  0  0  0  0
   -3.7570   24.2406  -27.5240 H   0  0  0  0  0  0  0  0  0  0  0  0
   -5.2287   23.9301  -28.5059 H   0  0  0  0  0  0  0  0  0  0  0  0
   -3.8817   22.7417  -28.5059 H   0  0  0  0  0  0  0  0  0  0  0  0
   -4.5878   22.4042  -30.1256 H   0  0  0  0  0  0  0  0  0  0  0  0
   -5.7546   22.9038  -31.4034 H   0  0  0  0  0  0  0  0  0  0  0  0
   -3.1366   23.1061  -32.5429 H   0  0  0  0  0  0  0  0  0  0  0  0
   -3.2196   21.5235  -31.6841 H   0  0  0  0  0  0  0  0  0  0  0  0
   -4.5880   22.2620  -34.1510 H   0  0  0  0  0  0  0  0  0  0  0  0
   -6.8951   22.2958  -32.3016 H   0  0  0  0  0  0  0  0  0  0  0  0
   -9.2441   21.8609  -31.6062 H   0  0  0  0  0  0  0  0  0  0  0  0
  -10.1498   19.5426  -31.6419 H   0  0  0  0  0  0  0  0  0  0  0  0
   -8.7268   17.6545  -32.4038 H   0  0  0  0  0  0  0  0  0  0  0  0
   -7.2169   16.0235  -33.0275 H   0  0  0  0  0  0  0  0  0  0  0  0
   -7.7087   16.9850  -34.4628 H   0  0  0  0  0  0  0  0  0  0  0  0
   -6.1403   16.1093  -34.4628 H   0  0  0  0  0  0  0  0  0  0  0  0
   -4.2609   15.4819  -31.8969 H   0  0  0  0  0  0  0  0  0  0  0  0
   -5.2425   15.2531  -33.3838 H   0  0  0  0  0  0  0  0  0  0  0  0
   -3.4986   14.8224  -33.3838 H   0  0  0  0  0  0  0  0  0  0  0  0
   -1.8788   16.3133  -33.9196 H   0  0  0  0  0  0  0  0  0  0  0  0
   -1.0416   18.6261  -34.2402 H   0  0  0  0  0  0  0  0  0  0  0  0
   -2.5283   20.5632  -33.7889 H   0  0  0  0  0  0  0  0  0  0  0  0
  1  2  1  0
  2  3  1  0
  3  4  1  0
  4  5  1  0
  3  6  1  0
  6  7  1  0
  7  8  1  0
  8  9  1  0
  9 10  2  0
 10 11  1  0
 11 12  2  0
 12 13  1  0
 13 14  2  0
 14 15  1  0
 15 16  2  0
 16 17  1  0
 16 18  1  0
 18 19  2  0
 19 20  1  0
 19 21  1  0
 21 22  2  0
 22 23  1  0
 23 24  2  0
 24  9  1  0
 15 10  1  0
 24 18  1  0
  1 25  1  0
  1 26  1  0
  1 27  1  0
  2 28  1  0
  2 29  1  0
  4 30  1  0
  4 31  1  0
  5 32  1  0
  5 33  1  0
  5 34  1  0
  6 35  1  0
  6 36  1  0
  7 37  1  0
  7 38  1  0
  8 39  1  0
 11 40  1  0
 12 41  1  0
 13 42  1  0
 14 43  1  0
 17 44  1  0
 17 45  1  0
 17 46  1  0
 20 47  1  0
 20 48  1  0
 20 49  1  0
 21 50  1  0
 22 51  1  0
 23 52  1  0
M  CHG  1  16   1
M  END
>  <UniqueID>  (32) 
32

>  <SMILES>  (32) 
CCN(CC)CCNc1c2ccccc2[n+](C)c2c(C)cccc12

>  <Energy>  (32) 
85.43734773204966

>  <Genealogy>  (32) 
CCN(CC)CCNc1c2ccccc2[n+](C)c2c(C)cccc12 (3D coordinates assigned)
CCN(CC)CCNc1c2ccccc2[n+](C)c2c(C)cccc12 (optimized conformer: 85.43734773204966 kcal/mol)

>  <smiles>  (32) 
CCN(CC)CCNc1c2ccccc2[n+](C)c2c(C)cccc12

>  <score_type>  (32) 
oracle

>  <origin>  (32) 
adg

>  <m_score__min__energy>  (32) 
-8.5999999999999996

>  <m_primary>  (32) 
energy

$$$$
32:0
     RDKit          3D

 44 45  0  0  0  0  0  0  0  0999 V2000
   -6.1400   25.3390  -29.6320 C   0  0  0  0  0  0  0  0  0  0  0  0
   -5.2270   25.4100  -30.8530 C   0  0  0  0  0  0  0  0  0  0  0  0
   -3.8770   25.2260  -30.4720 O   0  0  0  0  0  0  0  0  0  0  0  0
   -3.7600   24.3490  -29.3650 C   0  0  0  0  0  0  0  0  0  0  0  0
   -3.4570   22.9260  -29.8450 C   0  0  0  0  0  0  0  0  0  0  0  0
   -2.7790   22.9460  -31.0870 O   0  0  0  0  0  0  0  0  0  0  0  0
   -1.8800   21.8570  -31.2040 C   0  0  0  0  0  0  0  0  0  0  0  0
   -2.1810   21.0590  -32.4830 C   0  0  0  0  0  0  0  0  0  0  0  0
   -3.2410   21.6790  -33.2980 N   0  0  0  0  0  0  0  0  0  0  0  0
   -4.4110   20.7950  -33.4530 C   0  0  0  0  0  0  0  0  0  0  0  0
   -4.8190   20.1510  -32.1180 C   0  0  0  0  0  0  0  0  0  0  0  0
   -6.3030   19.8900  -32.0430 C   0  0  0  0  0  0  0  0  0  0  0  0
   -6.8010   18.5710  -32.0620 C   0  0  0  0  0  0  0  0  0  0  0  0
   -8.1860   18.3270  -32.0190 C   0  0  0  0  0  0  0  0  0  0  0  0
   -9.0970   19.3940  -31.9610 C   0  0  0  0  0  0  0  0  0  0  0  0
   -8.6040   20.7000  -31.9470 C   0  0  0  0  0  0  0  0  0  0  0  0
   -9.3750   21.8660  -31.8950 C   0  0  0  0  0  0  0  0  0  0  0  0
   -8.6030   23.0260  -31.8970 C   0  0  0  0  0  0  0  0  0  0  0  0
   -6.9700   22.5950  -31.9600 S   0  0  0  0  0  0  0  0  0  0  0  0
   -7.2370   20.9350  -31.9890 C   0  0  0  0  0  0  0  0  0  0  0  0
   -5.5322   25.3863  -28.7164 H   0  0  0  0  0  0  0  0  0  0  0  0
   -6.8426   26.1852  -29.6498 H   0  0  0  0  0  0  0  0  0  0  0  0
   -6.7033   24.3943  -29.6498 H   0  0  0  0  0  0  0  0  0  0  0  0
   -5.5129   24.6222  -31.5654 H   0  0  0  0  0  0  0  0  0  0  0  0
   -5.3336   26.4000  -31.3205 H   0  0  0  0  0  0  0  0  0  0  0  0
   -2.9437   24.6939  -28.7133 H   0  0  0  0  0  0  0  0  0  0  0  0
   -4.7092   24.3451  -28.8092 H   0  0  0  0  0  0  0  0  0  0  0  0
   -2.8266   22.4206  -29.0986 H   0  0  0  0  0  0  0  0  0  0  0  0
   -4.4079   22.3879  -29.9721 H   0  0  0  0  0  0  0  0  0  0  0  0
   -0.8494   22.2390  -31.2475 H   0  0  0  0  0  0  0  0  0  0  0  0
   -1.9979   21.1973  -30.3317 H   0  0  0  0  0  0  0  0  0  0  0  0
   -1.2626   20.9983  -33.0854 H   0  0  0  0  0  0  0  0  0  0  0  0
   -2.5322   20.0616  -32.1801 H   0  0  0  0  0  0  0  0  0  0  0  0
   -3.5440   22.5530  -32.8080 H   0  0  0  0  0  0  0  0  0  0  0  0
   -2.8630   21.9460  -34.2380 H   0  0  0  0  0  0  0  0  0  0  0  0
   -5.2558   21.3860  -33.8364 H   0  0  0  0  0  0  0  0  0  0  0  0
   -4.1421   19.9905  -34.1533 H   0  0  0  0  0  0  0  0  0  0  0  0
   -4.2850   19.1957  -32.0073 H   0  0  0  0  0  0  0  0  0  0  0  0
   -4.5573   20.8509  -31.3107 H   0  0  0  0  0  0  0  0  0  0  0  0
   -6.1000   17.7247  -32.1109 H   0  0  0  0  0  0  0  0  0  0  0  0
   -8.5582   17.2920  -32.0309 H   0  0  0  0  0  0  0  0  0  0  0  0
  -10.1800   19.2041  -31.9272 H   0  0  0  0  0  0  0  0  0  0  0  0
  -10.4743   21.8671  -31.8566 H   0  0  0  0  0  0  0  0  0  0  0  0
   -8.9927   24.0541  -31.8631 H   0  0  0  0  0  0  0  0  0  0  0  0
  1  2  1  0
  2  3  1  0
  3  4  1  0
  4  5  1  0
  5  6  1  0
  6  7  1  0
  7  8  1  0
  8  9  1  0
  9 10  1  0
 10 11  1  0
 11 12  1  0
 12 13  2  0
 13 14  1  0
 14 15  2  0
 15 16  1  0
 16 17  1  0
 17 18  2  0
 18 19  1  0
 19 20  1  0
 20 12  1  0
 20 16  2  0
  1 21  1  0
  1 22  1  0
  1 23  1  0
  2 24  1  0
  2 25  1  0
  4 26  1  0
  4 27  1  0
  5 28  1  0
  5 29  1  0
  7 30  1  0
  7 31  1  0
  8 32  1  0
  8 33  1  0
  9 34  1  0
  9 35  1  0
 10 36  1  0
 10 37  1  0
 11 38  1  0
 11 39  1  0
 13 40  1  0
 14 41  1  0
 15 42  1  0
 17 43  1  0
 18 44  1  0
M  CHG  1   9   1
M  END
>  <UniqueID>  (33) 
33

>  <SMILES>  (33) 
CCOCCOCC[NH2+]CCc1cccc2ccsc12

>  <Energy>  (33) 
72.92497050653519

>  <Genealogy>  (33) 
CCOCCOCC[NH2+]CCc1cccc2ccsc12 (protonated)
CCOCCOCC[NH2+]CCc1cccc2ccsc12 (3D coordinates assigned)
CCOCCOCC[NH2+]CCc1cccc2ccsc12 (optimized conformer: 72.92497050653519 kcal/mol)

>  <smiles>  (33) 
CCOCCOCCNCCc1cccc2ccsc12

>  <score_type>  (33) 
oracle

>  <origin>  (33) 
adg

>  <m_score__min__energy>  (33) 
-6.9100000000000001

>  <m_primary>  (33) 
energy

$$$$
