0:0
     RDKit          3D

 75 78  0  0  0  0  0  0  0  0999 V2000
   -1.5500   26.1020  -26.9650 C   0  0  0  0  0  0  0  0  0  0  0  0
   -1.0390   25.3680  -28.1580 C   0  0  0  0  0  0  0  0  0  0  0  0
    0.1090   24.8500  -28.1320 O   0  0  0  0  0  0  0  0  0  0  0  0
   -1.8400   25.2950  -29.3390 N   0  0  0  0  0  0  0  0  0  0  0  0
   -3.1320   24.6200  -29.3870 C   0  0  0  0  0  0  0  0  0  0  0  0
   -3.0130   23.0620  -29.6050 C   0  0  0  0  0  0  0  0  0  0  0  0
   -1.6990   22.6260  -28.9630 N   0  0  0  0  0  0  0  0  0  0  0  0
   -1.7010   21.3900  -28.1280 C   0  0  0  0  0  0  0  0  0  0  0  0
   -1.7270   20.1110  -28.9680 C   0  0  0  0  0  0  0  0  0  0  0  0
   -0.7630   20.2040  -30.0650 N   0  0  0  0  0  0  0  0  0  0  0  0
   -0.7770   19.2040  -31.0950 C   0  0  0  0  0  0  0  0  0  0  0  0
   -0.8510   17.9870  -30.7730 O   0  0  0  0  0  0  0  0  0  0  0  0
   -0.7990   19.5980  -32.5520 C   0  0  2  0  0  0  0  0  0  0  0  0
    0.2500   20.6500  -32.8860 C   0  0  0  0  0  0  0  0  0  0  0  0
   -0.2530   21.4130  -34.0430 N   0  0  0  0  0  0  0  0  0  0  0  0
    0.5190   21.2520  -35.3040 C   0  0  0  0  0  0  0  0  0  0  0  0
    1.9320   21.8190  -35.1340 C   0  0  0  0  0  0  0  0  0  0  0  0
    0.5720   19.8010  -35.8360 C   0  0  0  0  0  0  0  0  0  0  0  0
   -1.6910   21.1090  -34.1880 C   0  0  0  0  0  0  0  0  0  0  0  0
   -2.1000   20.2610  -32.9810 C   0  0  1  0  0  0  0  0  0  0  0  0
   -3.2160   19.2690  -33.2610 C   0  0  0  0  0  0  0  0  0  0  0  0
   -2.9300   17.8920  -33.2880 C   0  0  0  0  0  0  0  0  0  0  0  0
   -3.9320   16.9630  -33.5850 C   0  0  0  0  0  0  0  0  0  0  0  0
   -5.2300   17.3980  -33.8610 C   0  0  0  0  0  0  0  0  0  0  0  0
   -6.4850   16.2310  -34.2370 Cl  0  0  0  0  0  0  0  0  0  0  0  0
   -5.5280   18.7630  -33.8430 C   0  0  0  0  0  0  0  0  0  0  0  0
   -4.5280   19.6950  -33.5490 C   0  0  0  0  0  0  0  0  0  0  0  0
    0.2010   21.3080  -30.0800 C   0  0  0  0  0  0  0  0  0  0  0  0
   -0.5180   22.6630  -29.8970 C   0  0  0  0  0  0  0  0  0  0  0  0
   -4.2400   22.3870  -28.8940 C   0  0  0  0  0  0  0  0  0  0  0  0
   -5.6060   22.7230  -29.5200 C   0  0  0  0  0  0  0  0  0  0  0  0
   -5.6110   22.6480  -31.0620 C   0  0  0  0  0  0  0  0  0  0  0  0
   -4.3400   22.0150  -31.6340 C   0  0  0  0  0  0  0  0  0  0  0  0
   -3.0660   22.7340  -31.1540 C   0  0  0  0  0  0  0  0  0  0  0  0
   -1.2015   25.6015  -26.0495 H   0  0  0  0  0  0  0  0  0  0  0  0
   -1.1756   27.1362  -26.9827 H   0  0  0  0  0  0  0  0  0  0  0  0
   -2.6498   26.1098  -26.9827 H   0  0  0  0  0  0  0  0  0  0  0  0
   -3.6561   24.8008  -28.4370 H   0  0  0  0  0  0  0  0  0  0  0  0
   -3.6820   25.0288  -30.2474 H   0  0  0  0  0  0  0  0  0  0  0  0
   -1.4940   23.3650  -28.2460 H   0  0  0  0  0  0  0  0  0  0  0  0
   -0.7940   21.3841  -27.5056 H   0  0  0  0  0  0  0  0  0  0  0  0
   -2.6143   21.4041  -27.5151 H   0  0  0  0  0  0  0  0  0  0  0  0
   -1.4692   19.2527  -28.3302 H   0  0  0  0  0  0  0  0  0  0  0  0
   -2.7351   19.9792  -29.3879 H   0  0  0  0  0  0  0  0  0  0  0  0
   -0.6314   18.6398  -33.0657 H   0  0  0  0  0  0  0  0  0  0  0  0
    0.3979   21.3211  -32.0271 H   0  0  0  0  0  0  0  0  0  0  0  0
    1.2164   20.1787  -33.1185 H   0  0  0  0  0  0  0  0  0  0  0  0
   -0.0256   21.8245  -36.0692 H   0  0  0  0  0  0  0  0  0  0  0  0
    2.1634   21.9118  -34.0626 H   0  0  0  0  0  0  0  0  0  0  0  0
    2.6581   21.1426  -35.6087 H   0  0  0  0  0  0  0  0  0  0  0  0
    1.9891   22.8097  -35.6087 H   0  0  0  0  0  0  0  0  0  0  0  0
    0.5976   19.1004  -34.9884 H   0  0  0  0  0  0  0  0  0  0  0  0
   -0.3195   19.6024  -36.4490 H   0  0  0  0  0  0  0  0  0  0  0  0
    1.4756   19.6680  -36.4490 H   0  0  0  0  0  0  0  0  0  0  0  0
   -2.2731   22.0422  -34.2073 H   0  0  0  0  0  0  0  0  0  0  0  0
   -1.8825   20.5687  -35.1268 H   0  0  0  0  0  0  0  0  0  0  0  0
   -2.5459   20.8764  -32.1857 H   0  0  0  0  0  0  0  0  0  0  0  0
   -1.9091   17.5429  -33.0736 H   0  0  0  0  0  0  0  0  0  0  0  0
   -3.6976   15.8884  -33.6013 H   0  0  0  0  0  0  0  0  0  0  0  0
   -6.5507   19.1048  -34.0604 H   0  0  0  0  0  0  0  0  0  0  0  0
   -4.7672   20.7687  -33.5425 H   0  0  0  0  0  0  0  0  0  0  0  0
    0.9225   21.1686  -29.2615 H   0  0  0  0  0  0  0  0  0  0  0  0
    0.7201   21.3112  -31.0498 H   0  0  0  0  0  0  0  0  0  0  0  0
    0.2097   23.3867  -29.5011 H   0  0  0  0  0  0  0  0  0  0  0  0
   -0.9114   22.9427  -30.8854 H   0  0  0  0  0  0  0  0  0  0  0  0
   -4.1028   21.2963  -28.9341 H   0  0  0  0  0  0  0  0  0  0  0  0
   -4.2615   22.7808  -27.8671 H   0  0  0  0  0  0  0  0  0  0  0  0
   -6.3505   22.0111  -29.1342 H   0  0  0  0  0  0  0  0  0  0  0  0
   -5.8414   23.7619  -29.2455 H   0  0  0  0  0  0  0  0  0  0  0  0
   -6.4758   22.0476  -31.3810 H   0  0  0  0  0  0  0  0  0  0  0  0
   -5.6646   23.6791  -31.4415 H   0  0  0  0  0  0  0  0  0  0  0  0
   -4.2942   20.9629  -31.3162 H   0  0  0  0  0  0  0  0  0  0  0  0
   -4.3837   22.1004  -32.7298 H   0  0  0  0  0  0  0  0  0  0  0  0
   -2.2042   22.0944  -31.3950 H   0  0  0  0  0  0  0  0  0  0  0  0
   -3.0538   23.7054  -31.6699 H   0  0  0  0  0  0  0  0  0  0  0  0
  1  2  1  0
  2  3  2  0
  2  4  1  0
  4  5  1  0
  5  6  1  0
  6  7  1  0
  7  8  1  0
  8  9  1  0
  9 10  1  0
 10 11  1  0
 11 12  2  0
 11 13  1  0
 13 14  1  0
 14 15  1  0
 15 16  1  0
 16 17  1  0
 16 18  1  0
 15 19  1  0
 19 20  1  0
 20 21  1  0
 21 22  2  0
 22 23  1  0
 23 24  2  0
 24 25  1  0
 24 26  1  0
 26 27  2  0
 10 28  1  0
 28 29  1  0
  6 30  1  0
 30 31  1  0
 31 32  1  0
 32 33  1  0
 33 34  1  0
 34  6  1  0
 29  7  1  0
 20 13  1  0
 27 21  1  0
  1 35  1  0
  1 36  1  0
  1 37  1  0
  5 38  1  0
  5 39  1  0
  7 40  1  0
  8 41  1  0
  8 42  1  0
  9 43  1  0
  9 44  1  0
 13 45  1  6
 14 46  1  0
 14 47  1  0
 16 48  1  0
 17 49  1  0
 17 50  1  0
 17 51  1  0
 18 52  1  0
 18 53  1  0
 18 54  1  0
 19 55  1  0
 19 56  1  0
 20 57  1  1
 22 58  1  0
 23 59  1  0
 26 60  1  0
 27 61  1  0
 28 62  1  0
 28 63  1  0
 29 64  1  0
 29 65  1  0
 30 66  1  0
 30 67  1  0
 31 68  1  0
 31 69  1  0
 32 70  1  0
 32 71  1  0
 33 72  1  0
 33 73  1  0
 34 74  1  0
 34 75  1  0
M  CHG  2   4  -1   7   1
M  END
>  <UniqueID>  (1) 
1

>  <SMILES>  (1) 
CC(=O)[N-]CC1([NH+]2CCN(C(=O)[C@@H]3CN(C(C)C)C[C@H]3c3ccc(Cl)cc3)CC2)CCCCC1

>  <Energy>  (1) 
110.95366302397639

>  <Genealogy>  (1) 
CC(=O)[N-]CC1([NH+]2CCN(C(=O)C3CN(C(C)C)CC3c3ccc(Cl)cc3)CC2)CCCCC1 (protonated)
CC(=O)[N-]CC1([NH+]2CCN(C(=O)[C@@H]3CN(C(C)C)C[C@H]3c3ccc(Cl)cc3)CC2)CCCCC1 (chirality)
CC(=O)[N-]CC1([NH+]2CCN(C(=O)[C@@H]3CN(C(C)C)C[C@H]3c3ccc(Cl)cc3)CC2)CCCCC1 (3D coordinates assigned)
CC(=O)[N-]CC1([NH+]2CCN(C(=O)[C@@H]3CN(C(C)C)C[C@H]3c3ccc(Cl)cc3)CC2)CCCCC1 (nonaromatic ring conformer: 110.95366302397639 kcal/mol)

>  <smiles>  (1) 
CC(=O)NCC1(N2CCN(C(=O)C3CN(C(C)C)CC3c3ccc(Cl)cc3)CC2)CCCCC1

>  <score_type>  (1) 
oracle

>  <origin>  (1) 
adg

>  <m_score__min__energy>  (1) 
-10.07

>  <m_primary>  (1) 
energy

$$$$
1:0
     RDKit          3D

 34 36  0  0  0  0  0  0  0  0999 V2000
   -6.2960   13.9920  -34.2210 C   0  0  0  0  0  0  0  0  0  0  0  0
   -6.8820   15.2870  -34.1600 O   0  0  0  0  0  0  0  0  0  0  0  0
   -6.1530   16.4830  -34.0730 C   0  0  0  0  0  0  0  0  0  0  0  0
   -4.8320   16.5950  -34.5430 C   0  0  0  0  0  0  0  0  0  0  0  0
   -4.1480   17.8090  -34.4330 C   0  0  0  0  0  0  0  0  0  0  0  0
   -4.7710   18.9180  -33.8570 C   0  0  0  0  0  0  0  0  0  0  0  0
   -6.0910   18.8250  -33.3820 C   0  0  0  0  0  0  0  0  0  0  0  0
   -6.7540   20.0020  -32.7710 C   0  0  0  0  0  0  0  0  0  0  0  0
   -8.1120   20.1250  -32.7460 N   0  0  0  0  0  0  0  0  0  0  0  0
   -8.3990   21.5680  -31.9790 S   0  0  0  0  0  0  0  0  0  0  0  0
   -6.8150   21.9960  -31.7020 C   0  0  0  0  0  0  0  0  0  0  0  0
   -6.3170   23.2160  -31.0320 C   0  0  0  0  0  0  0  0  0  0  0  0
   -7.2210   24.1430  -30.4890 C   0  0  0  0  0  0  0  0  0  0  0  0
   -6.7380   25.2920  -29.8610 C   0  0  0  0  0  0  0  0  0  0  0  0
   -5.4010   25.5120  -29.7750 N   0  0  0  0  0  0  0  0  0  0  0  0
   -4.4950   24.6350  -30.2910 C   0  0  0  0  0  0  0  0  0  0  0  0
   -3.1220   24.8810  -30.1920 O   0  0  0  0  0  0  0  0  0  0  0  0
   -2.2670   24.1350  -29.3330 C   0  0  0  0  0  0  0  0  0  0  0  0
   -4.9400   23.4720  -30.9290 C   0  0  0  0  0  0  0  0  0  0  0  0
   -6.0290   21.0190  -32.2030 N   0  0  0  0  0  0  0  0  0  0  0  0
   -6.7730   17.6000  -33.4960 C   0  0  0  0  0  0  0  0  0  0  0  0
   -6.1266   13.6177  -33.2006 H   0  0  0  0  0  0  0  0  0  0  0  0
   -6.9724   13.3082  -34.7548 H   0  0  0  0  0  0  0  0  0  0  0  0
   -5.3359   14.0488  -34.7548 H   0  0  0  0  0  0  0  0  0  0  0  0
   -4.3360   15.7251  -34.9982 H   0  0  0  0  0  0  0  0  0  0  0  0
   -3.1149   17.8911  -34.8016 H   0  0  0  0  0  0  0  0  0  0  0  0
   -4.2259   19.8699  -33.7744 H   0  0  0  0  0  0  0  0  0  0  0  0
   -8.3042   23.9646  -30.5582 H   0  0  0  0  0  0  0  0  0  0  0  0
   -7.4424   26.0213  -29.4346 H   0  0  0  0  0  0  0  0  0  0  0  0
   -2.5184   24.3543  -28.2848 H   0  0  0  0  0  0  0  0  0  0  0  0
   -2.4014   23.0603  -29.5251 H   0  0  0  0  0  0  0  0  0  0  0  0
   -1.2204   24.4138  -29.5251 H   0  0  0  0  0  0  0  0  0  0  0  0
   -4.2136   22.7604  -31.3486 H   0  0  0  0  0  0  0  0  0  0  0  0
   -7.8062   17.5175  -33.1276 H   0  0  0  0  0  0  0  0  0  0  0  0
  1  2  1  0
  2  3  1  0
  3  4  2  0
  4  5  1  0
  5  6  2  0
  6  7  1  0
  7  8  1  0
  8  9  2  0
  9 10  1  0
 10 11  1  0
 11 12  1  0
 12 13  2  0
 13 14  1  0
 14 15  2  0
 15 16  1  0
 16 17  1  0
 17 18  1  0
 16 19  2  0
 11 20  2  0
  7 21  2  0
 21  3  1  0
 20  8  1  0
 19 12  1  0
  1 22  1  0
  1 23  1  0
  1 24  1  0
  4 25  1  0
  5 26  1  0
  6 27  1  0
 13 28  1  0
 14 29  1  0
 18 30  1  0
 18 31  1  0
 18 32  1  0
 19 33  1  0
 21 34  1  0
M  END
>  <UniqueID>  (2) 
2

>  <SMILES>  (2) 
COc1cccc(-c2nsc(-c3ccnc(OC)c3)n2)c1

>  <Energy>  (2) 
72.85930606768774

>  <Genealogy>  (2) 
COc1cccc(-c2nsc(-c3ccnc(OC)c3)n2)c1 (3D coordinates assigned)
COc1cccc(-c2nsc(-c3ccnc(OC)c3)n2)c1 (optimized conformer: 72.85930606768774 kcal/mol)

>  <smiles>  (2) 
COc1cccc(-c2nsc(-c3ccnc(OC)c3)n2)c1

>  <score_type>  (2) 
oracle

>  <origin>  (2) 
adg

>  <m_score__min__energy>  (2) 
-7.7199999999999998

>  <m_primary>  (2) 
energy

$$$$
2:0
     RDKit          3D

 46 48  0  0  0  0  0  0  0  0999 V2000
   -6.4420   25.6730  -29.3490 C   0  0  0  0  0  0  0  0  0  0  0  0
   -5.4780   24.8950  -30.2520 C   0  0  0  0  0  0  0  0  0  0  0  0
   -5.7630   23.4360  -30.3010 N   0  0  0  0  0  0  0  0  0  0  0  0
   -4.9160   22.7380  -29.2980 C   0  0  0  0  0  0  0  0  0  0  0  0
   -3.6200   22.1680  -29.8860 C   0  0  0  0  0  0  0  0  0  0  0  0
   -7.2130   23.1100  -30.1830 C   0  0  0  0  0  0  0  0  0  0  0  0
   -7.9820   23.0730  -31.5200 C   0  0  0  0  0  0  0  0  0  0  0  0
   -7.1890   22.3870  -32.5410 N   0  0  0  0  0  0  0  0  0  0  0  0
   -7.1210   20.9540  -32.6270 C   0  0  0  0  0  0  0  0  0  0  0  0
   -8.3110   20.2310  -32.4450 C   0  0  0  0  0  0  0  0  0  0  0  0
   -8.3350   18.8470  -32.5760 C   0  0  0  0  0  0  0  0  0  0  0  0
   -7.1720   18.1620  -32.9000 C   0  0  0  0  0  0  0  0  0  0  0  0
   -5.9740   18.8570  -33.0780 C   0  0  0  0  0  0  0  0  0  0  0  0
   -4.5850   17.9930  -33.4650 S   0  0  0  0  0  0  0  0  0  0  0  0
   -3.2360   18.9790  -33.6070 C   0  0  0  0  0  0  0  0  0  0  0  0
   -1.9920   18.4210  -33.9200 C   0  0  0  0  0  0  0  0  0  0  0  0
   -0.8670   19.2370  -34.0130 C   0  0  0  0  0  0  0  0  0  0  0  0
   -0.9820   20.6090  -33.7940 C   0  0  0  0  0  0  0  0  0  0  0  0
   -2.2240   21.1690  -33.4830 C   0  0  0  0  0  0  0  0  0  0  0  0
   -3.3870   20.3660  -33.3820 C   0  0  0  0  0  0  0  0  0  0  0  0
   -4.6440   20.9710  -33.0510 C   0  0  0  0  0  0  0  0  0  0  0  0
   -4.6320   22.2150  -32.8340 O   0  0  0  0  0  0  0  0  0  0  0  0
   -5.8980   20.2690  -32.9320 C   0  0  0  0  0  0  0  0  0  0  0  0
   -6.1972   25.4754  -28.2949 H   0  0  0  0  0  0  0  0  0  0  0  0
   -6.3462   26.7498  -29.5520 H   0  0  0  0  0  0  0  0  0  0  0  0
   -7.4743   25.3520  -29.5520 H   0  0  0  0  0  0  0  0  0  0  0  0
   -5.5526   25.2994  -31.2722 H   0  0  0  0  0  0  0  0  0  0  0  0
   -4.4692   25.0151  -29.8302 H   0  0  0  0  0  0  0  0  0  0  0  0
   -5.4550   23.0990  -31.2440 H   0  0  0  0  0  0  0  0  0  0  0  0
   -4.6538   23.4535  -28.5047 H   0  0  0  0  0  0  0  0  0  0  0  0
   -5.5000   21.8881  -28.9152 H   0  0  0  0  0  0  0  0  0  0  0  0
   -2.9459   21.8715  -29.0689 H   0  0  0  0  0  0  0  0  0  0  0  0
   -3.8537   21.2896  -30.5055 H   0  0  0  0  0  0  0  0  0  0  0  0
   -3.1305   22.9339  -30.5055 H   0  0  0  0  0  0  0  0  0  0  0  0
   -7.3034   22.1213  -29.7095 H   0  0  0  0  0  0  0  0  0  0  0  0
   -7.6638   23.9198  -29.5905 H   0  0  0  0  0  0  0  0  0  0  0  0
   -8.9323   22.5376  -31.3777 H   0  0  0  0  0  0  0  0  0  0  0  0
   -8.1772   24.1040  -31.8502 H   0  0  0  0  0  0  0  0  0  0  0  0
   -6.6740   22.9590  -33.2480 H   0  0  0  0  0  0  0  0  0  0  0  0
   -9.2381   20.7677  -32.1950 H   0  0  0  0  0  0  0  0  0  0  0  0
   -9.2744   18.2956  -32.4231 H   0  0  0  0  0  0  0  0  0  0  0  0
   -7.1942   17.0685  -33.0169 H   0  0  0  0  0  0  0  0  0  0  0  0
   -1.9023   17.3383  -34.0926 H   0  0  0  0  0  0  0  0  0  0  0  0
    0.1116   18.7991  -34.2591 H   0  0  0  0  0  0  0  0  0  0  0  0
   -0.0928   21.2524  -33.8662 H   0  0  0  0  0  0  0  0  0  0  0  0
   -2.3001   22.2532  -33.3135 H   0  0  0  0  0  0  0  0  0  0  0  0
  1  2  1  0
  2  3  1  0
  3  4  1  0
  4  5  1  0
  3  6  1  0
  6  7  1  0
  7  8  1  0
  8  9  1  0
  9 10  2  0
 10 11  1  0
 11 12  2  0
 12 13  1  0
 13 14  1  0
 14 15  1  0
 15 16  2  0
 16 17  1  0
 17 18  2  0
 18 19  1  0
 19 20  2  0
 20 21  1  0
 21 22  2  0
 21 23  1  0
 23  9  1  0
 23 13  2  0
 20 15  1  0
  1 24  1  0
  1 25  1  0
  1 26  1  0
  2 27  1  0
  2 28  1  0
  3 29  1  0
  4 30  1  0
  4 31  1  0
  5 32  1  0
  5 33  1  0
  5 34  1  0
  6 35  1  0
  6 36  1  0
  7 37  1  0
  7 38  1  0
  8 39  1  0
 10 40  1  0
 11 41  1  0
 12 42  1  0
 16 43  1  0
 17 44  1  0
 18 45  1  0
 19 46  1  0
M  CHG  1   3   1
M  END
>  <UniqueID>  (3) 
3

>  <SMILES>  (3) 
CC[NH+](CC)CCNc1cccc2sc3ccccc3c(=O)c12

>  <Energy>  (3) 
69.40982445630101

>  <Genealogy>  (3) 
CC[NH+](CC)CCNc1cccc2sc3ccccc3c(=O)c12 (protonated)
CC[NH+](CC)CCNc1cccc2sc3ccccc3c(=O)c12 (3D coordinates assigned)
CC[NH+](CC)CCNc1cccc2sc3ccccc3c(=O)c12 (optimized conformer: 69.40982445630101 kcal/mol)

>  <smiles>  (3) 
CCN(CC)CCNc1cccc2sc3ccccc3c(=O)c12

>  <score_type>  (3) 
oracle

>  <origin>  (3) 
adg

>  <m_score__min__energy>  (3) 
-7.8899999999999997

>  <m_primary>  (3) 
energy

$$$$
3:0
     RDKit          3D

 44 46  0  0  0  0  0  0  0  0999 V2000
   -2.1430   24.6460  -28.4410 C   0  0  0  0  0  0  0  0  0  0  0  0
   -2.7040   24.9330  -29.7180 O   0  0  0  0  0  0  0  0  0  0  0  0
   -3.5320   24.0590  -30.4400 C   0  0  0  0  0  0  0  0  0  0  0  0
   -3.0460   22.8600  -30.9940 C   0  0  0  0  0  0  0  0  0  0  0  0
   -3.9000   22.0150  -31.7080 C   0  0  0  0  0  0  0  0  0  0  0  0
   -3.4270   20.8620  -32.2310 N   0  0  0  0  0  0  0  0  0  0  0  0
   -4.2150   20.0130  -32.9400 C   0  0  0  0  0  0  0  0  0  0  0  0
   -3.5820   18.7440  -33.4420 C   0  0  0  0  0  0  0  0  0  0  0  0
   -5.5460   20.3160  -33.1470 N   0  0  0  0  0  0  0  0  0  0  0  0
   -6.4270   19.4460  -33.9610 C   0  0  0  0  0  0  0  0  0  0  0  0
   -7.1670   18.4140  -33.0940 C   0  0  0  0  0  0  0  0  0  0  0  0
   -6.4690   17.0800  -33.0820 C   0  0  0  0  0  0  0  0  0  0  0  0
   -6.5740   16.2140  -34.1840 C   0  0  0  0  0  0  0  0  0  0  0  0
   -5.8900   14.9960  -34.1900 C   0  0  0  0  0  0  0  0  0  0  0  0
   -5.0970   14.6320  -33.0980 C   0  0  0  0  0  0  0  0  0  0  0  0
   -4.9850   15.4890  -31.9990 C   0  0  0  0  0  0  0  0  0  0  0  0
   -5.6670   16.7100  -31.9900 C   0  0  0  0  0  0  0  0  0  0  0  0
   -6.0690   21.4700  -32.6080 C   0  0  0  0  0  0  0  0  0  0  0  0
   -7.2920   21.7460  -32.7630 O   0  0  0  0  0  0  0  0  0  0  0  0
   -5.2500   22.3520  -31.8790 C   0  0  0  0  0  0  0  0  0  0  0  0
   -5.7390   23.5490  -31.3260 C   0  0  0  0  0  0  0  0  0  0  0  0
   -4.8810   24.4050  -30.6060 C   0  0  0  0  0  0  0  0  0  0  0  0
   -5.3340   25.6090  -30.0410 O   0  0  0  0  0  0  0  0  0  0  0  0
   -6.5570   25.7580  -29.3270 C   0  0  0  0  0  0  0  0  0  0  0  0
   -2.8265   24.9957  -27.6533 H   0  0  0  0  0  0  0  0  0  0  0  0
   -1.9936   23.5607  -28.3417 H   0  0  0  0  0  0  0  0  0  0  0  0
   -1.1755   25.1599  -28.3417 H   0  0  0  0  0  0  0  0  0  0  0  0
   -1.9885   22.5865  -30.8643 H   0  0  0  0  0  0  0  0  0  0  0  0
   -3.2732   18.1250  -32.5867 H   0  0  0  0  0  0  0  0  0  0  0  0
   -4.3087   18.1886  -34.0532 H   0  0  0  0  0  0  0  0  0  0  0  0
   -2.7012   18.9904  -34.0532 H   0  0  0  0  0  0  0  0  0  0  0  0
   -7.1677   20.0734  -34.4784 H   0  0  0  0  0  0  0  0  0  0  0  0
   -5.7993   18.9010  -34.6814 H   0  0  0  0  0  0  0  0  0  0  0  0
   -7.2251   18.7932  -32.0631 H   0  0  0  0  0  0  0  0  0  0  0  0
   -8.1695   18.2680  -33.5226 H   0  0  0  0  0  0  0  0  0  0  0  0
   -7.1973   16.4965  -35.0452 H   0  0  0  0  0  0  0  0  0  0  0  0
   -5.9756   14.3223  -35.0554 H   0  0  0  0  0  0  0  0  0  0  0  0
   -4.5611   13.6714  -33.1033 H   0  0  0  0  0  0  0  0  0  0  0  0
   -4.3598   15.2026  -31.1405 H   0  0  0  0  0  0  0  0  0  0  0  0
   -5.5749   17.3829  -31.1247 H   0  0  0  0  0  0  0  0  0  0  0  0
   -6.7974   23.8190  -31.4561 H   0  0  0  0  0  0  0  0  0  0  0  0
   -6.3557   25.7335  -28.2458 H   0  0  0  0  0  0  0  0  0  0  0  0
   -7.0214   26.7194  -29.5918 H   0  0  0  0  0  0  0  0  0  0  0  0
   -7.2386   24.9363  -29.5918 H   0  0  0  0  0  0  0  0  0  0  0  0
  1  2  1  0
  2  3  1  0
  3  4  2  0
  4  5  1  0
  5  6  1  0
  6  7  2  0
  7  8  1  0
  7  9  1  0
  9 10  1  0
 10 11  1  0
 11 12  1  0
 12 13  2  0
 13 14  1  0
 14 15  2  0
 15 16  1  0
 16 17  2  0
  9 18  1  0
 18 19  2  0
 18 20  1  0
 20 21  1  0
 21 22  2  0
 22 23  1  0
 23 24  1  0
 22  3  1  0
 20  5  2  0
 17 12  1  0
  1 25  1  0
  1 26  1  0
  1 27  1  0
  4 28  1  0
  8 29  1  0
  8 30  1  0
  8 31  1  0
 10 32  1  0
 10 33  1  0
 11 34  1  0
 11 35  1  0
 13 36  1  0
 14 37  1  0
 15 38  1  0
 16 39  1  0
 17 40  1  0
 21 41  1  0
 24 42  1  0
 24 43  1  0
 24 44  1  0
M  END
>  <UniqueID>  (4) 
4

>  <SMILES>  (4) 
COc1cc2nc(C)n(CCc3ccccc3)c(=O)c2cc1OC

>  <Energy>  (4) 
49.928359832160375

>  <Genealogy>  (4) 
COc1cc2nc(C)n(CCc3ccccc3)c(=O)c2cc1OC (3D coordinates assigned)
COc1cc2nc(C)n(CCc3ccccc3)c(=O)c2cc1OC (optimized conformer: 49.928359832160375 kcal/mol)

>  <smiles>  (4) 
COc1cc2nc(C)n(CCc3ccccc3)c(=O)c2cc1OC

>  <score_type>  (4) 
oracle

>  <origin>  (4) 
adg

>  <m_score__min__energy>  (4) 
-7.9500000000000002

>  <m_primary>  (4) 
energy

$$$$
4:0
     RDKit          3D

 32 34  0  0  0  0  0  0  0  0999 V2000
   -2.6830   25.6680  -25.8010 C   0  0  0  0  0  0  0  0  0  0  0  0
   -4.2390   24.9240  -26.3810 S   0  0  0  0  0  0  0  0  0  0  0  0
   -3.4960   24.2460  -27.8670 C   0  0  0  0  0  0  0  0  0  0  0  0
   -2.1310   23.8970  -27.9000 C   0  0  0  0  0  0  0  0  0  0  0  0
   -1.5550   23.3620  -29.0760 C   0  0  0  0  0  0  0  0  0  0  0  0
   -2.3380   23.1710  -30.2310 C   0  0  0  0  0  0  0  0  0  0  0  0
   -3.6810   23.5290  -30.1650 C   0  0  0  0  0  0  0  0  0  0  0  0
   -4.6010   23.4380  -31.0930 O   0  0  0  0  0  0  0  0  0  0  0  0
   -5.7140   23.8990  -30.5440 C   0  0  0  0  0  0  0  0  0  0  0  0
   -7.0300   23.9370  -31.2500 C   0  0  0  0  0  0  0  0  0  0  0  0
   -7.4270   22.5480  -31.6640 C   0  0  0  0  0  0  0  0  0  0  0  0
   -8.7300   22.0810  -31.4200 C   0  0  0  0  0  0  0  0  0  0  0  0
   -9.1100   20.8030  -31.8420 C   0  0  0  0  0  0  0  0  0  0  0  0
   -8.1980   19.9880  -32.5160 C   0  0  0  0  0  0  0  0  0  0  0  0
   -6.9050   20.4500  -32.7750 C   0  0  0  0  0  0  0  0  0  0  0  0
   -6.5190   21.7280  -32.3560 C   0  0  0  0  0  0  0  0  0  0  0  0
   -5.5390   24.2910  -29.2570 N   0  0  0  0  0  0  0  0  0  0  0  0
   -4.2380   24.0500  -29.0340 C   0  0  0  0  0  0  0  0  0  0  0  0
   -2.6677   25.6753  -24.7011 H   0  0  0  0  0  0  0  0  0  0  0  0
   -1.8329   25.0789  -26.1756 H   0  0  0  0  0  0  0  0  0  0  0  0
   -2.6078   26.6995  -26.1756 H   0  0  0  0  0  0  0  0  0  0  0  0
   -1.5088   24.0417  -27.0045 H   0  0  0  0  0  0  0  0  0  0  0  0
   -0.4884   23.0933  -29.0885 H   0  0  0  0  0  0  0  0  0  0  0  0
   -1.9037   22.7540  -31.1516 H   0  0  0  0  0  0  0  0  0  0  0  0
   -7.7945   24.3492  -30.5750 H   0  0  0  0  0  0  0  0  0  0  0  0
   -6.9436   24.5714  -32.1445 H   0  0  0  0  0  0  0  0  0  0  0  0
   -9.4532   22.7228  -30.8954 H   0  0  0  0  0  0  0  0  0  0  0  0
  -10.1288   20.4392  -31.6427 H   0  0  0  0  0  0  0  0  0  0  0  0
   -8.4978   18.9815  -32.8433 H   0  0  0  0  0  0  0  0  0  0  0  0
   -6.1893   19.8079  -33.3092 H   0  0  0  0  0  0  0  0  0  0  0  0
   -5.5029   22.0917  -32.5686 H   0  0  0  0  0  0  0  0  0  0  0  0
   -6.2530   24.6740  -28.5970 H   0  0  0  0  0  0  0  0  0  0  0  0
  1  2  1  0
  2  3  1  0
  3  4  2  0
  4  5  1  0
  5  6  2  0
  6  7  1  0
  7  8  1  0
  8  9  1  0
  9 10  1  0
 10 11  1  0
 11 12  2  0
 12 13  1  0
 13 14  2  0
 14 15  1  0
 15 16  2  0
  9 17  2  0
 17 18  1  0
 18  3  1  0
 18  7  2  0
 16 11  1  0
  1 19  1  0
  1 20  1  0
  1 21  1  0
  4 22  1  0
  5 23  1  0
  6 24  1  0
 10 25  1  0
 10 26  1  0
 12 27  1  0
 13 28  1  0
 14 29  1  0
 15 30  1  0
 16 31  1  0
 17 32  1  0
M  CHG  1  17   1
M  END
>  <UniqueID>  (5) 
5

>  <SMILES>  (5) 
CSc1cccc2oc(Cc3ccccc3)[nH+]c12

>  <Energy>  (5) 
66.68105506299077

>  <Genealogy>  (5) 
CSc1cccc2oc(Cc3ccccc3)[nH+]c12 (protonated)
CSc1cccc2oc(Cc3ccccc3)[nH+]c12 (3D coordinates assigned)
CSc1cccc2oc(Cc3ccccc3)[nH+]c12 (optimized conformer: 66.68105506299077 kcal/mol)

>  <smiles>  (5) 
CSc1cccc2oc(Cc3ccccc3)nc12

>  <score_type>  (5) 
oracle

>  <origin>  (5) 
adg

>  <m_score__min__energy>  (5) 
-6.5099999999999998

>  <m_primary>  (5) 
energy

$$$$
5:0
     RDKit          3D

 57 61  0  0  0  0  0  0  0  0999 V2000
   -1.6220   25.9100  -25.4270 C   0  0  0  0  0  0  0  0  0  0  0  0
   -0.7410   25.7260  -26.5310 O   0  0  0  0  0  0  0  0  0  0  0  0
   -0.9610   24.8220  -27.5810 C   0  0  0  0  0  0  0  0  0  0  0  0
    0.0040   23.8460  -27.8250 C   0  0  0  0  0  0  0  0  0  0  0  0
   -0.1660   22.9230  -28.8540 C   0  0  0  0  0  0  0  0  0  0  0  0
   -1.3120   22.9490  -29.6650 C   0  0  0  0  0  0  0  0  0  0  0  0
   -2.3070   23.9410  -29.4330 C   0  0  0  0  0  0  0  0  0  0  0  0
   -2.1110   24.8690  -28.3910 C   0  0  0  0  0  0  0  0  0  0  0  0
   -3.5110   24.1240  -30.3010 C   0  0  0  0  0  0  0  0  0  0  0  0
   -3.8920   25.3030  -30.5430 O   0  0  0  0  0  0  0  0  0  0  0  0
   -4.2710   23.0210  -30.8470 N   0  0  0  0  0  0  0  0  0  0  0  0
   -5.3760   23.3000  -31.7690 C   0  0  0  0  0  0  0  0  0  0  0  0
   -3.9420   21.6370  -30.5050 C   0  0  0  0  0  0  0  0  0  0  0  0
   -2.6130   21.3070  -31.0980 C   0  0  0  0  0  0  0  0  0  0  0  0
   -2.2900   20.4270  -32.1230 C   0  0  0  0  0  0  0  0  0  0  0  0
   -3.1840   19.5630  -32.9120 C   0  0  0  0  0  0  0  0  0  0  0  0
   -4.2350   18.9010  -32.3880 N   0  0  0  0  0  0  0  0  0  0  0  0
   -4.7150   18.2630  -33.4760 C   0  0  0  0  0  0  0  0  0  0  0  0
   -5.9370   17.3970  -33.4560 C   0  0  0  0  0  0  0  0  0  0  0  0
   -7.1650   18.2200  -33.4370 N   0  0  0  0  0  0  0  0  0  0  0  0
   -6.8550   19.6610  -33.6280 C   0  0  0  0  0  0  0  0  0  0  0  0
   -6.8130   20.4310  -32.2970 C   0  0  0  0  0  0  0  0  0  0  0  0
   -8.0920   20.3390  -31.5490 N   0  0  0  0  0  0  0  0  0  0  0  0
   -8.9030   21.5550  -31.7190 C   0  0  0  0  0  0  0  0  0  0  0  0
   -8.8890   19.1370  -31.8840 C   0  0  0  0  0  0  0  0  0  0  0  0
   -7.9810   17.9510  -32.2250 C   0  0  0  0  0  0  0  0  0  0  0  0
   -4.0060   18.5280  -34.5890 N   0  0  0  0  0  0  0  0  0  0  0  0
   -3.0650   19.3330  -34.1960 O   0  0  0  0  0  0  0  0  0  0  0  0
   -0.9210   20.5310  -32.3010 C   0  0  0  0  0  0  0  0  0  0  0  0
   -0.4110   21.4380  -31.4480 N   0  0  0  0  0  0  0  0  0  0  0  0
   -1.4400   21.9260  -30.7260 C   0  0  0  0  0  0  0  0  0  0  0  0
   -1.0619   25.7930  -24.4875 H   0  0  0  0  0  0  0  0  0  0  0  0
   -2.0586   26.9187  -25.4705 H   0  0  0  0  0  0  0  0  0  0  0  0
   -2.4258   25.1604  -25.4705 H   0  0  0  0  0  0  0  0  0  0  0  0
    0.9077   23.8045  -27.1993 H   0  0  0  0  0  0  0  0  0  0  0  0
    0.6085   22.1629  -29.0340 H   0  0  0  0  0  0  0  0  0  0  0  0
   -2.8700   25.6437  -28.2074 H   0  0  0  0  0  0  0  0  0  0  0  0
   -6.2848   23.5295  -31.1933 H   0  0  0  0  0  0  0  0  0  0  0  0
   -5.1163   24.1608  -32.4028 H   0  0  0  0  0  0  0  0  0  0  0  0
   -5.5560   22.4191  -32.4028 H   0  0  0  0  0  0  0  0  0  0  0  0
   -3.8988   21.5250  -29.4116 H   0  0  0  0  0  0  0  0  0  0  0  0
   -4.7111   20.9574  -30.9009 H   0  0  0  0  0  0  0  0  0  0  0  0
   -5.9430   16.7614  -34.3538 H   0  0  0  0  0  0  0  0  0  0  0  0
   -5.9145   16.7773  -32.5474 H   0  0  0  0  0  0  0  0  0  0  0  0
   -5.8747   19.7498  -34.1190 H   0  0  0  0  0  0  0  0  0  0  0  0
   -7.6544   20.0982  -34.2444 H   0  0  0  0  0  0  0  0  0  0  0  0
   -6.0083   20.0145  -31.6733 H   0  0  0  0  0  0  0  0  0  0  0  0
   -6.6357   21.4916  -32.5287 H   0  0  0  0  0  0  0  0  0  0  0  0
   -9.1716   21.9577  -30.7312 H   0  0  0  0  0  0  0  0  0  0  0  0
   -8.3246   22.3065  -32.2764 H   0  0  0  0  0  0  0  0  0  0  0  0
   -9.8191   21.3098  -32.2764 H   0  0  0  0  0  0  0  0  0  0  0  0
   -9.5184   18.8714  -31.0218 H   0  0  0  0  0  0  0  0  0  0  0  0
   -9.5118   19.3641  -32.7618 H   0  0  0  0  0  0  0  0  0  0  0  0
   -7.3079   17.7607  -31.3761 H   0  0  0  0  0  0  0  0  0  0  0  0
   -8.6170   17.0760  -32.4247 H   0  0  0  0  0  0  0  0  0  0  0  0
   -0.3354   19.9558  -33.0333 H   0  0  0  0  0  0  0  0  0  0  0  0
    0.5910   21.7230  -31.3860 H   0  0  0  0  0  0  0  0  0  0  0  0
  1  2  1  0
  2  3  1  0
  3  4  2  0
  4  5  1  0
  5  6  2  0
  6  7  1  0
  7  8  2  0
  7  9  1  0
  9 10  2  0
  9 11  1  0
 11 12  1  0
 11 13  1  0
 13 14  1  0
 14 15  1  0
 15 16  1  0
 16 17  2  0
 17 18  1  0
 18 19  1  0
 19 20  1  0
 20 21  1  0
 21 22  1  0
 22 23  1  0
 23 24  1  0
 23 25  1  0
 25 26  1  0
 18 27  2  0
 27 28  1  0
 15 29  2  0
 29 30  1  0
 30 31  1  0
  8  3  1  0
 31 14  2  0
 31  6  1  0
 28 16  1  0
 26 20  1  0
  1 32  1  0
  1 33  1  0
  1 34  1  0
  4 35  1  0
  5 36  1  0
  8 37  1  0
 12 38  1  0
 12 39  1  0
 12 40  1  0
 13 41  1  0
 13 42  1  0
 19 43  1  0
 19 44  1  0
 21 45  1  0
 21 46  1  0
 22 47  1  0
 22 48  1  0
 24 49  1  0
 24 50  1  0
 24 51  1  0
 25 52  1  0
 25 53  1  0
 26 54  1  0
 26 55  1  0
 29 56  1  0
 30 57  1  0
M  END
>  <UniqueID>  (6) 
6

>  <SMILES>  (6) 
COc1ccc2c(c1)C(=O)N(C)Cc1c(-c3nc(CN4CCN(C)CC4)no3)c[nH]c1-2

>  <Energy>  (6) 
142.45727115148944

>  <Genealogy>  (6) 
COc1ccc2c(c1)C(=O)N(C)Cc1c(-c3nc(CN4CCN(C)CC4)no3)c[nH]c1-2 (3D coordinates assigned)
COc1ccc2c(c1)C(=O)N(C)Cc1c(-c3nc(CN4CCN(C)CC4)no3)c[nH]c1-2 (nonaromatic ring conformer: 142.45727115148944 kcal/mol)

>  <smiles>  (6) 
COc1ccc2c(c1)C(=O)N(C)Cc1c(-c3nc(CN4CCN(C)CC4)no3)c[nH]c1-2

>  <score_type>  (6) 
oracle

>  <origin>  (6) 
adg

>  <m_score__min__energy>  (6) 
-9.4000000000000004

>  <m_primary>  (6) 
energy

$$$$
6:0
     RDKit          3D

 55 57  0  0  0  0  0  0  0  0999 V2000
   -9.1640   21.7120  -31.5570 C   0  0  0  0  0  0  0  0  0  0  0  0
   -8.7550   20.2980  -31.6260 N   0  0  0  0  0  0  0  0  0  0  0  0
   -9.4870   19.6400  -32.7210 C   0  0  0  0  0  0  0  0  0  0  0  0
   -7.3010   20.1710  -31.8610 C   0  0  0  0  0  0  0  0  0  0  0  0
   -6.9590   19.0440  -32.8520 C   0  0  0  0  0  0  0  0  0  0  0  0
   -5.9220   19.4560  -33.9180 C   0  0  0  0  0  0  0  0  0  0  0  0
   -4.4990   19.6150  -33.3590 C   0  0  0  0  0  0  0  0  0  0  0  0
   -4.0000   21.0650  -33.4310 C   0  0  0  0  0  0  0  0  0  0  0  0
   -3.1400   21.3660  -32.2760 N   0  0  0  0  0  0  0  0  0  0  0  0
   -1.6810   21.3190  -32.4310 C   0  0  0  0  0  0  0  0  0  0  0  0
   -3.7260   21.6410  -30.9860 C   0  0  0  0  0  0  0  0  0  0  0  0
   -3.4770   20.8900  -30.0040 O   0  0  0  0  0  0  0  0  0  0  0  0
   -4.6130   22.8020  -30.7760 C   0  0  0  0  0  0  0  0  0  0  0  0
   -5.6450   23.0360  -31.6970 C   0  0  0  0  0  0  0  0  0  0  0  0
   -6.5460   24.0840  -31.4970 C   0  0  0  0  0  0  0  0  0  0  0  0
   -6.4230   24.9080  -30.3780 C   0  0  0  0  0  0  0  0  0  0  0  0
   -5.3900   24.6960  -29.4610 C   0  0  0  0  0  0  0  0  0  0  0  0
   -4.4710   23.6510  -29.6530 C   0  0  0  0  0  0  0  0  0  0  0  0
   -3.3820   23.4890  -28.7270 N   0  0  0  0  0  0  0  0  0  0  0  0
   -3.2160   22.2470  -27.6250 S   0  0  0  0  0  0  0  0  0  0  0  0
   -1.7390   22.6840  -26.9900 C   0  0  0  0  0  0  0  0  0  0  0  0
   -0.9790   22.0840  -25.9920 C   0  0  0  0  0  0  0  0  0  0  0  0
    0.2560   22.6690  -25.6720 C   0  0  0  0  0  0  0  0  0  0  0  0
    0.6910   23.8300  -26.3420 C   0  0  0  0  0  0  0  0  0  0  0  0
   -0.1040   24.4200  -27.3400 C   0  0  0  0  0  0  0  0  0  0  0  0
   -1.3310   23.8290  -27.6590 C   0  0  0  0  0  0  0  0  0  0  0  0
   -2.2610   24.2590  -28.6270 C   0  0  0  0  0  0  0  0  0  0  0  0
   -2.0820   25.2860  -29.3380 O   0  0  0  0  0  0  0  0  0  0  0  0
   -9.2523   22.0172  -30.5039 H   0  0  0  0  0  0  0  0  0  0  0  0
   -8.4097   22.3367  -32.0578 H   0  0  0  0  0  0  0  0  0  0  0  0
  -10.1353   21.8376  -32.0578 H   0  0  0  0  0  0  0  0  0  0  0  0
  -10.2429   18.9605  -32.3004 H   0  0  0  0  0  0  0  0  0  0  0  0
   -9.9829   20.4019  -33.3403 H   0  0  0  0  0  0  0  0  0  0  0  0
   -8.7821   19.0660  -33.3403 H   0  0  0  0  0  0  0  0  0  0  0  0
   -6.9249   21.1223  -32.2655 H   0  0  0  0  0  0  0  0  0  0  0  0
   -6.8278   19.9245  -30.8991 H   0  0  0  0  0  0  0  0  0  0  0  0
   -6.5558   18.1920  -32.2849 H   0  0  0  0  0  0  0  0  0  0  0  0
   -7.8869   18.7886  -33.3847 H   0  0  0  0  0  0  0  0  0  0  0  0
   -5.9039   18.6852  -34.7025 H   0  0  0  0  0  0  0  0  0  0  0  0
   -6.2292   20.4384  -34.3059 H   0  0  0  0  0  0  0  0  0  0  0  0
   -4.4944   19.2917  -32.3076 H   0  0  0  0  0  0  0  0  0  0  0  0
   -3.8267   18.9983  -33.9735 H   0  0  0  0  0  0  0  0  0  0  0  0
   -3.4250   21.2054  -34.3582 H   0  0  0  0  0  0  0  0  0  0  0  0
   -4.8662   21.7429  -33.4190 H   0  0  0  0  0  0  0  0  0  0  0  0
   -1.2071   21.3037  -31.4384 H   0  0  0  0  0  0  0  0  0  0  0  0
   -1.4002   20.4113  -32.9854 H   0  0  0  0  0  0  0  0  0  0  0  0
   -1.3424   22.2067  -32.9854 H   0  0  0  0  0  0  0  0  0  0  0  0
   -5.7451   22.3902  -32.5818 H   0  0  0  0  0  0  0  0  0  0  0  0
   -7.3537   24.2600  -32.2227 H   0  0  0  0  0  0  0  0  0  0  0  0
   -7.1405   25.7261  -30.2172 H   0  0  0  0  0  0  0  0  0  0  0  0
   -5.2959   25.3518  -28.5829 H   0  0  0  0  0  0  0  0  0  0  0  0
   -1.3334   21.1821  -25.4714 H   0  0  0  0  0  0  0  0  0  0  0  0
    0.8886   22.2183  -24.8931 H   0  0  0  0  0  0  0  0  0  0  0  0
    1.6611   24.2785  -26.0817 H   0  0  0  0  0  0  0  0  0  0  0  0
    0.2324   25.3290  -27.8601 H   0  0  0  0  0  0  0  0  0  0  0  0
  1  2  1  0
  2  3  1  0
  2  4  1  0
  4  5  1  0
  5  6  1  0
  6  7  1  0
  7  8  1  0
  8  9  1  0
  9 10  1  0
  9 11  1  0
 11 12  2  0
 11 13  1  0
 13 14  2  0
 14 15  1  0
 15 16  2  0
 16 17  1  0
 17 18  2  0
 18 19  1  0
 19 20  1  0
 20 21  1  0
 21 22  2  0
 22 23  1  0
 23 24  2  0
 24 25  1  0
 25 26  2  0
 26 27  1  0
 27 28  2  0
 18 13  1  0
 27 19  1  0
 26 21  1  0
  1 29  1  0
  1 30  1  0
  1 31  1  0
  3 32  1  0
  3 33  1  0
  3 34  1  0
  4 35  1  0
  4 36  1  0
  5 37  1  0
  5 38  1  0
  6 39  1  0
  6 40  1  0
  7 41  1  0
  7 42  1  0
  8 43  1  0
  8 44  1  0
 10 45  1  0
 10 46  1  0
 10 47  1  0
 14 48  1  0
 15 49  1  0
 16 50  1  0
 17 51  1  0
 22 52  1  0
 23 53  1  0
 24 54  1  0
 25 55  1  0
M  END
>  <UniqueID>  (7) 
7

>  <SMILES>  (7) 
CN(C)CCCCCN(C)C(=O)c1ccccc1-n1sc2ccccc2c1=O

>  <Energy>  (7) 
98.47905292845019

>  <Genealogy>  (7) 
CN(C)CCCCCN(C)C(=O)c1ccccc1-n1sc2ccccc2c1=O (3D coordinates assigned)
CN(C)CCCCCN(C)C(=O)c1ccccc1-n1sc2ccccc2c1=O (optimized conformer: 98.47905292845019 kcal/mol)

>  <smiles>  (7) 
CN(C)CCCCCN(C)C(=O)c1ccccc1-n1sc2ccccc2c1=O

>  <score_type>  (7) 
oracle

>  <origin>  (7) 
adg

>  <m_score__min__energy>  (7) 
-9.5500000000000007

>  <m_primary>  (7) 
energy

$$$$
7:0
     RDKit          3D

 50 52  0  0  1  0  0  0  0  0999 V2000
   -0.5830   20.7850  -34.5800 C   0  0  0  0  0  0  0  0  0  0  0  0
   -0.7590   21.1830  -33.1530 C   0  0  0  0  0  0  0  0  0  0  0  0
   -2.1280   21.0050  -32.6530 N   0  0  0  0  0  0  0  0  0  0  0  0
   -2.0740   20.7960  -31.2170 C   0  0  0  0  0  0  0  0  0  0  0  0
   -0.8280   21.4820  -30.6970 C   0  0  0  0  0  0  0  0  0  0  0  0
   -2.6200   19.8250  -33.3090 C   0  0  0  0  0  0  0  0  0  0  0  0
   -4.0020   19.3800  -32.8830 C   0  0  0  0  0  0  0  0  0  0  0  0
   -4.8910   20.3970  -33.4710 N   0  0  0  0  0  0  0  0  0  0  0  0
   -5.3770   21.3090  -32.7250 C   0  0  0  0  0  0  0  0  0  0  0  0
   -4.6530   22.3150  -32.2460 N   0  0  0  0  0  0  0  0  0  0  0  0
   -5.2850   23.2160  -31.4660 C   0  0  0  0  0  0  0  0  0  0  0  0
   -4.6220   24.2020  -30.9790 N   0  0  0  0  0  0  0  0  0  0  0  0
   -3.9160   24.1840  -29.7490 C   0  0  0  0  0  0  0  0  0  0  0  0
   -2.5360   24.1820  -29.6560 C   0  0  0  0  0  0  0  0  0  0  0  0
   -1.9760   24.1730  -28.3800 C   0  0  0  0  0  0  0  0  0  0  0  0
   -2.7640   24.1690  -27.2370 C   0  0  0  0  0  0  0  0  0  0  0  0
   -4.1430   24.1720  -27.3340 C   0  0  0  0  0  0  0  0  0  0  0  0
   -4.7090   24.1790  -28.5930 C   0  0  0  0  0  0  0  0  0  0  0  0
   -6.5970   23.1330  -31.1620 N   0  0  0  0  0  0  0  0  0  0  0  0
   -7.3390   22.1380  -31.6280 C   0  0  0  0  0  0  0  0  0  0  0  0
   -8.6900   21.9880  -31.3560 C   0  0  0  0  0  0  0  0  0  0  0  0
   -9.3970   20.9170  -31.8810 C   0  0  0  0  0  0  0  0  0  0  0  0
   -8.8100   19.9580  -32.6860 C   0  0  0  0  0  0  0  0  0  0  0  0
   -7.4670   20.1150  -32.9510 C   0  0  0  0  0  0  0  0  0  0  0  0
   -6.7430   21.1910  -32.4290 C   0  0  0  0  0  0  0  0  0  0  0  0
   -0.1386   19.7799  -34.6282 H   0  0  0  0  0  0  0  0  0  0  0  0
   -1.5618   20.7776  -35.0820 H   0  0  0  0  0  0  0  0  0  0  0  0
    0.0811   21.5040  -35.0820 H   0  0  0  0  0  0  0  0  0  0  0  0
   -0.0825   20.5726  -32.5367 H   0  0  0  0  0  0  0  0  0  0  0  0
   -0.5318   22.2574  -33.0895 H   0  0  0  0  0  0  0  0  0  0  0  0
   -2.9662   21.2297  -30.7417 H   0  0  0  0  0  0  0  0  0  0  0  0
   -2.0463   19.7210  -30.9855 H   0  0  0  0  0  0  0  0  0  0  0  0
   -0.8383   21.4763  -29.5971 H   0  0  0  0  0  0  0  0  0  0  0  0
    0.0628   20.9472  -31.0581 H   0  0  0  0  0  0  0  0  0  0  0  0
   -0.8035   22.5207  -31.0581 H   0  0  0  0  0  0  0  0  0  0  0  0
   -2.6444   20.0222  -34.3909 H   0  0  0  0  0  0  0  0  0  0  0  0
   -1.9364   19.0109  -33.0261 H   0  0  0  0  0  0  0  0  0  0  0  0
   -4.2323   18.3804  -33.2801 H   0  0  0  0  0  0  0  0  0  0  0  0
   -4.1074   19.3007  -31.7909 H   0  0  0  0  0  0  0  0  0  0  0  0
   -3.6220   22.4200  -32.4600 H   0  0  0  0  0  0  0  0  0  0  0  0
   -1.9038   24.1873  -30.5562 H   0  0  0  0  0  0  0  0  0  0  0  0
   -0.8810   24.1690  -28.2757 H   0  0  0  0  0  0  0  0  0  0  0  0
   -2.2870   24.1634  -26.2458 H   0  0  0  0  0  0  0  0  0  0  0  0
   -4.7725   24.1689  -26.4319 H   0  0  0  0  0  0  0  0  0  0  0  0
   -5.8046   24.1807  -28.6912 H   0  0  0  0  0  0  0  0  0  0  0  0
   -7.0280   23.8660  -30.5500 H   0  0  0  0  0  0  0  0  0  0  0  0
   -9.2043   22.7232  -30.7197 H   0  0  0  0  0  0  0  0  0  0  0  0
  -10.4682   20.8265  -31.6477 H   0  0  0  0  0  0  0  0  0  0  0  0
   -9.3853   19.1137  -33.0936 H   0  0  0  0  0  0  0  0  0  0  0  0
   -6.9538   19.3783  -33.5866 H   0  0  0  0  0  0  0  0  0  0  0  0
  1  2  1  0
  2  3  1  0
  3  4  1  0
  4  5  1  0
  3  6  1  0
  6  7  1  0
  7  8  1  0
  8  9  2  0
  9 10  1  0
 10 11  1  0
 11 12  2  0
 12 13  1  0
 13 14  2  0
 14 15  1  0
 15 16  2  0
 16 17  1  0
 17 18  2  0
 11 19  1  0
 19 20  1  0
 20 21  2  0
 21 22  1  0
 22 23  2  0
 23 24  1  0
 24 25  2  0
 25  9  1  0
 18 13  1  0
 25 20  1  0
  1 26  1  0
  1 27  1  0
  1 28  1  0
  2 29  1  0
  2 30  1  0
  4 31  1  0
  4 32  1  0
  5 33  1  0
  5 34  1  0
  5 35  1  0
  6 36  1  0
  6 37  1  0
  7 38  1  0
  7 39  1  0
 10 40  1  0
 14 41  1  0
 15 42  1  0
 16 43  1  0
 17 44  1  0
 18 45  1  0
 19 46  1  0
 21 47  1  0
 22 48  1  0
 23 49  1  0
 24 50  1  0
M  END
>  <smiles>  (8) 
CCN(CC)CCN=c1[nH]c(=Nc2ccccc2)[nH]c2ccccc12

>  <score_type>  (8) 
oracle

>  <origin>  (8) 
adg

>  <m_score__min__energy>  (8) 
-7.9500000000000002

>  <m_primary>  (8) 
energy

$$$$
8:0
     RDKit          3D

 35 37  0  0  1  0  0  0  0  0999 V2000
   -6.3520   16.4140  -33.5240 C   0  0  0  0  0  0  0  0  0  0  0  0
   -6.8380   17.7440  -33.0910 C   0  0  0  0  0  0  0  0  0  0  0  0
   -6.4460   18.8340  -33.8350 C   0  0  0  0  0  0  0  0  0  0  0  0
   -6.9050   20.0670  -33.4200 C   0  0  0  0  0  0  0  0  0  0  0  0
   -7.7180   20.1850  -32.3110 C   0  0  0  0  0  0  0  0  0  0  0  0
   -8.2210   21.5560  -31.8630 C   0  0  0  0  0  0  0  0  0  0  0  0
   -7.2710   22.4650  -32.4390 N   0  0  0  0  0  0  0  0  0  0  0  0
   -6.1870   22.8510  -31.9040 C   0  0  0  0  0  0  0  0  0  0  0  0
   -5.0220   22.2220  -32.2890 C   0  0  0  0  0  0  0  0  0  0  0  0
   -3.8030   22.5850  -31.7520 C   0  0  0  0  0  0  0  0  0  0  0  0
   -2.5230   21.9300  -32.1420 C   0  0  0  0  0  0  0  0  0  0  0  0
   -3.8310   23.5810  -30.8420 N   0  0  0  0  0  0  0  0  0  0  0  0
   -4.9890   24.1810  -30.4830 C   0  0  0  0  0  0  0  0  0  0  0  0
   -5.1520   25.1730  -29.5990 N   0  0  0  0  0  0  0  0  0  0  0  0
   -6.4640   25.4310  -29.5810 C   0  0  0  0  0  0  0  0  0  0  0  0
   -7.1400   24.5840  -30.4720 C   0  0  0  0  0  0  0  0  0  0  0  0
   -6.1880   23.8310  -31.0040 N   0  0  0  0  0  0  0  0  0  0  0  0
   -8.0860   19.0490  -31.5910 C   0  0  0  0  0  0  0  0  0  0  0  0
   -7.6400   17.8070  -31.9860 C   0  0  0  0  0  0  0  0  0  0  0  0
   -6.1276   15.7998  -32.6395 H   0  0  0  0  0  0  0  0  0  0  0  0
   -7.1273   15.9188  -34.1271 H   0  0  0  0  0  0  0  0  0  0  0  0
   -5.4401   16.5353  -34.1271 H   0  0  0  0  0  0  0  0  0  0  0  0
   -5.7982   18.7270  -34.7176 H   0  0  0  0  0  0  0  0  0  0  0  0
   -6.6189   20.9689  -33.9810 H   0  0  0  0  0  0  0  0  0  0  0  0
   -9.2332   21.7487  -32.2480 H   0  0  0  0  0  0  0  0  0  0  0  0
   -8.2952   21.6493  -30.7695 H   0  0  0  0  0  0  0  0  0  0  0  0
   -5.0646   21.4168  -33.0372 H   0  0  0  0  0  0  0  0  0  0  0  0
   -1.9663   21.6451  -31.2371 H   0  0  0  0  0  0  0  0  0  0  0  0
   -2.7379   21.0311  -32.7384 H   0  0  0  0  0  0  0  0  0  0  0  0
   -1.9197   22.6302  -32.7384 H   0  0  0  0  0  0  0  0  0  0  0  0
   -4.4160   25.6610  -29.0280 H   0  0  0  0  0  0  0  0  0  0  0  0
   -6.9448   26.1982  -28.9564 H   0  0  0  0  0  0  0  0  0  0  0  0
   -8.2193   24.5520  -30.6821 H   0  0  0  0  0  0  0  0  0  0  0  0
   -8.7331   19.1447  -30.7067 H   0  0  0  0  0  0  0  0  0  0  0  0
   -7.9192   16.8986  -31.4321 H   0  0  0  0  0  0  0  0  0  0  0  0
  1  2  1  0
  2  3  2  0
  3  4  1  0
  4  5  2  0
  5  6  1  0
  6  7  1  0
  7  8  2  0
  8  9  1  0
  9 10  2  0
 10 11  1  0
 10 12  1  0
 12 13  2  0
 13 14  1  0
 14 15  1  0
 15 16  2  0
 16 17  1  0
  5 18  1  0
 18 19  2  0
 19  2  1  0
 17  8  1  0
 17 13  1  0
  1 20  1  0
  1 21  1  0
  1 22  1  0
  3 23  1  0
  4 24  1  0
  6 25  1  0
  6 26  1  0
  9 27  1  0
 11 28  1  0
 11 29  1  0
 11 30  1  0
 14 31  1  0
 15 32  1  0
 16 33  1  0
 18 34  1  0
 19 35  1  0
M  END
>  <smiles>  (9) 
Cc1ccc(CN=c2cc(C)nc3[nH]ccn23)cc1

>  <score_type>  (9) 
oracle

>  <origin>  (9) 
adg

>  <m_score__min__energy>  (9) 
-7.8499999999999996

>  <m_primary>  (9) 
energy

$$$$
9:0
     RDKit          3D

 33 34  0  0  0  0  0  0  0  0999 V2000
   -9.5110   20.7760  -32.0440 C   0  0  0  0  0  0  0  0  0  0  0  0
   -8.8560   21.9790  -31.6530 O   0  0  0  0  0  0  0  0  0  0  0  0
   -7.4660   22.1690  -31.6810 C   0  0  0  0  0  0  0  0  0  0  0  0
   -6.6000   21.3010  -32.3660 C   0  0  0  0  0  0  0  0  0  0  0  0
   -5.2240   21.5370  -32.3700 C   0  0  0  0  0  0  0  0  0  0  0  0
   -4.6850   22.6420  -31.6830 C   0  0  0  0  0  0  0  0  0  0  0  0
   -3.3060   22.9110  -31.6810 O   0  0  0  0  0  0  0  0  0  0  0  0
   -2.2950   21.9470  -31.4110 C   0  0  0  0  0  0  0  0  0  0  0  0
   -5.5510   23.5040  -30.9840 C   0  0  0  0  0  0  0  0  0  0  0  0
   -4.9170   24.8970  -30.1000 S   0  0  0  0  0  0  0  0  0  0  0  0
   -5.3490   24.7960  -28.6650 O   0  0  0  0  0  0  0  0  0  0  0  0
   -5.4430   26.1790  -30.6830 O   0  0  0  0  0  0  0  0  0  0  0  0
   -3.1840   24.9270  -30.1630 N   0  0  0  0  0  0  0  0  0  0  0  0
   -2.3120   24.5350  -29.0950 C   0  0  0  0  0  0  0  0  0  0  0  0
   -2.6610   23.5410  -28.1640 C   0  0  0  0  0  0  0  0  0  0  0  0
   -1.7750   23.2070  -27.1380 C   0  0  0  0  0  0  0  0  0  0  0  0
   -0.5490   23.8680  -27.0500 C   0  0  0  0  0  0  0  0  0  0  0  0
   -0.2260   24.8270  -27.9580 N   0  0  0  0  0  0  0  0  0  0  0  0
   -1.0710   25.1690  -28.9650 C   0  0  0  0  0  0  0  0  0  0  0  0
   -6.9330   23.2670  -30.9990 C   0  0  0  0  0  0  0  0  0  0  0  0
   -9.8157   20.2163  -31.1474 H   0  0  0  0  0  0  0  0  0  0  0  0
  -10.4003   21.0208  -32.6433 H   0  0  0  0  0  0  0  0  0  0  0  0
   -8.8227   20.1619  -32.6433 H   0  0  0  0  0  0  0  0  0  0  0  0
   -7.0078   20.4312  -32.9018 H   0  0  0  0  0  0  0  0  0  0  0  0
   -4.5552   20.8541  -32.9143 H   0  0  0  0  0  0  0  0  0  0  0  0
   -2.1769   21.8344  -30.3232 H   0  0  0  0  0  0  0  0  0  0  0  0
   -2.5830   20.9806  -31.8505 H   0  0  0  0  0  0  0  0  0  0  0  0
   -1.3434   22.2807  -31.8505 H   0  0  0  0  0  0  0  0  0  0  0  0
   -3.6304   23.0273  -28.2438 H   0  0  0  0  0  0  0  0  0  0  0  0
   -2.0407   22.4302  -26.4059 H   0  0  0  0  0  0  0  0  0  0  0  0
    0.1565   23.6129  -26.2455 H   0  0  0  0  0  0  0  0  0  0  0  0
   -0.7781   25.9492  -29.6829 H   0  0  0  0  0  0  0  0  0  0  0  0
   -7.6070   23.9544  -30.4669 H   0  0  0  0  0  0  0  0  0  0  0  0
  1  2  1  0
  2  3  1  0
  3  4  2  0
  4  5  1  0
  5  6  2  0
  6  7  1  0
  7  8  1  0
  6  9  1  0
  9 10  1  0
 10 11  2  0
 10 12  2  0
 10 13  1  0
 13 14  1  0
 14 15  2  0
 15 16  1  0
 16 17  2  0
 17 18  1  0
 18 19  2  0
  9 20  2  0
 20  3  1  0
 19 14  1  0
  1 21  1  0
  1 22  1  0
  1 23  1  0
  4 24  1  0
  5 25  1  0
  8 26  1  0
  8 27  1  0
  8 28  1  0
 15 29  1  0
 16 30  1  0
 17 31  1  0
 19 32  1  0
 20 33  1  0
M  CHG  1  13  -1
M  END
>  <UniqueID>  (10) 
8

>  <SMILES>  (10) 
COc1ccc(OC)c(S(=O)(=O)[N-]c2cccnc2)c1

>  <Energy>  (10) 
36.82590170099155

>  <Genealogy>  (10) 
COc1ccc(OC)c(S(=O)(=O)[N-]c2cccnc2)c1 (protonated)
COc1ccc(OC)c(S(=O)(=O)[N-]c2cccnc2)c1 (3D coordinates assigned)
COc1ccc(OC)c(S(=O)(=O)[N-]c2cccnc2)c1 (optimized conformer: 36.82590170099155 kcal/mol)

>  <smiles>  (10) 
COc1ccc(OC)c(S(=O)(=O)Nc2cccnc2)c1

>  <score_type>  (10) 
oracle

>  <origin>  (10) 
adg

>  <m_score__min__energy>  (10) 
-7.7699999999999996

>  <m_primary>  (10) 
energy

$$$$
10:0
     RDKit          3D

 38 40  0  0  1  0  0  0  0  0999 V2000
   -1.9330   25.2160  -27.5090 C   0  0  0  0  0  0  0  0  0  0  0  0
   -2.1300   25.2980  -28.9010 O   0  0  0  0  0  0  0  0  0  0  0  0
   -2.4060   24.1690  -29.6650 C   0  0  0  0  0  0  0  0  0  0  0  0
   -1.5480   23.1090  -29.5370 C   0  0  0  0  0  0  0  0  0  0  0  0
   -1.8080   21.9940  -30.2870 C   0  0  0  0  0  0  0  0  0  0  0  0
   -0.9730   20.9540  -30.1670 N   0  0  0  0  0  0  0  0  0  0  0  0
   -1.1880   19.8410  -30.8810 C   0  0  0  0  0  0  0  0  0  0  0  0
   -2.2440   19.8190  -31.6940 N   0  0  0  0  0  0  0  0  0  0  0  0
   -3.1100   20.8460  -31.8450 C   0  0  0  0  0  0  0  0  0  0  0  0
   -4.0460   20.7230  -32.6190 N   0  0  0  0  0  0  0  0  0  0  0  0
   -5.3310   20.3170  -32.4830 C   0  0  0  0  0  0  0  0  0  0  0  0
   -5.7090   18.9530  -32.5840 C   0  0  0  0  0  0  0  0  0  0  0  0
   -7.0570   18.6520  -32.5510 C   0  0  0  0  0  0  0  0  0  0  0  0
   -8.0350   19.6180  -32.4220 C   0  0  0  0  0  0  0  0  0  0  0  0
   -9.4830   19.2840  -32.3870 C   0  0  0  0  0  0  0  0  0  0  0  0
   -7.6400   20.9030  -32.3290 N   0  0  0  0  0  0  0  0  0  0  0  0
   -6.3480   21.2940  -32.3530 C   0  0  0  0  0  0  0  0  0  0  0  0
   -2.9150   21.9970  -31.1270 C   0  0  0  0  0  0  0  0  0  0  0  0
   -3.7530   23.0670  -31.2340 C   0  0  0  0  0  0  0  0  0  0  0  0
   -3.4980   24.2240  -30.4680 C   0  0  0  0  0  0  0  0  0  0  0  0
   -4.2860   25.3370  -30.5160 O   0  0  0  0  0  0  0  0  0  0  0  0
   -5.6460   25.2450  -30.1470 C   0  0  0  0  0  0  0  0  0  0  0  0
   -2.8281   25.5886  -26.9894 H   0  0  0  0  0  0  0  0  0  0  0  0
   -1.7536   24.1685  -27.2251 H   0  0  0  0  0  0  0  0  0  0  0  0
   -1.0634   25.8269  -27.2251 H   0  0  0  0  0  0  0  0  0  0  0  0
   -0.6837   23.1522  -28.8579 H   0  0  0  0  0  0  0  0  0  0  0  0
   -0.1470   20.9750  -29.5290 H   0  0  0  0  0  0  0  0  0  0  0  0
   -0.5156   18.9743  -30.7990 H   0  0  0  0  0  0  0  0  0  0  0  0
   -4.9529   18.1605  -32.6853 H   0  0  0  0  0  0  0  0  0  0  0  0
   -7.3639   17.5987  -32.6308 H   0  0  0  0  0  0  0  0  0  0  0  0
   -9.8164   19.2071  -31.3416 H   0  0  0  0  0  0  0  0  0  0  0  0
  -10.0540   20.0740  -32.8968 H   0  0  0  0  0  0  0  0  0  0  0  0
   -9.6502   18.3237  -32.8968 H   0  0  0  0  0  0  0  0  0  0  0  0
   -6.0881   22.3598  -32.2725 H   0  0  0  0  0  0  0  0  0  0  0  0
   -4.6193   23.0286  -31.9108 H   0  0  0  0  0  0  0  0  0  0  0  0
   -5.7287   25.2394  -29.0501 H   0  0  0  0  0  0  0  0  0  0  0  0
   -6.1949   26.1081  -30.5517 H   0  0  0  0  0  0  0  0  0  0  0  0
   -6.0737   24.3159  -30.5517 H   0  0  0  0  0  0  0  0  0  0  0  0
  1  2  1  0
  2  3  1  0
  3  4  2  0
  4  5  1  0
  5  6  1  0
  6  7  1  0
  7  8  2  0
  8  9  1  0
  9 10  2  0
 10 11  1  0
 11 12  2  0
 12 13  1  0
 13 14  2  0
 14 15  1  0
 14 16  1  0
 16 17  2  0
  9 18  1  0
 18 19  1  0
 19 20  2  0
 20 21  1  0
 21 22  1  0
 20  3  1  0
 18  5  2  0
 17 11  1  0
  1 23  1  0
  1 24  1  0
  1 25  1  0
  4 26  1  0
  6 27  1  0
  7 28  1  0
 12 29  1  0
 13 30  1  0
 15 31  1  0
 15 32  1  0
 15 33  1  0
 17 34  1  0
 19 35  1  0
 22 36  1  0
 22 37  1  0
 22 38  1  0
M  END
>  <smiles>  (11) 
COc1cc2[nH]cnc(=Nc3ccc(C)nc3)c2cc1OC

>  <score_type>  (11) 
oracle

>  <origin>  (11) 
adg

>  <m_score__min__energy>  (11) 
-7.3099999999999996

>  <m_primary>  (11) 
energy

$$$$
11:0
     RDKit          3D

 37 39  0  0  1  0  0  0  0  0999 V2000
   -0.8690   26.3950  -27.8330 C   0  0  0  0  0  0  0  0  0  0  0  0
   -1.4650   25.6720  -28.9500 N   0  0  0  0  0  0  0  0  0  0  0  0
   -1.8110   24.4310  -28.8660 C   0  0  0  0  0  0  0  0  0  0  0  0
   -1.0370   23.5700  -28.0990 C   0  0  0  0  0  0  0  0  0  0  0  0
   -1.4590   22.2560  -28.0490 C   0  0  0  0  0  0  0  0  0  0  0  0
   -0.6780   21.2700  -27.2440 C   0  0  0  0  0  0  0  0  0  0  0  0
   -1.5440   20.6130  -26.2660 N   0  0  0  0  0  0  0  0  0  0  0  0
   -2.3760   19.5190  -26.6250 C   0  0  0  0  0  0  0  0  0  0  0  0
   -3.1970   18.9290  -25.6040 N   0  0  0  0  0  0  0  0  0  0  0  0
   -2.3640   19.1160  -27.8060 O   0  0  0  0  0  0  0  0  0  0  0  0
   -2.5550   21.8450  -28.7090 N   0  0  0  0  0  0  0  0  0  0  0  0
   -3.2610   22.7280  -29.4350 C   0  0  0  0  0  0  0  0  0  0  0  0
   -4.4380   22.3000  -30.1450 C   0  0  0  0  0  0  0  0  0  0  0  0
   -5.7200   22.7960  -30.1830 C   0  0  0  0  0  0  0  0  0  0  0  0
   -6.6310   22.1840  -30.9470 C   0  0  0  0  0  0  0  0  0  0  0  0
   -7.9900   22.5380  -31.1190 C   0  0  0  0  0  0  0  0  0  0  0  0
   -8.7830   21.7900  -31.9510 C   0  0  0  0  0  0  0  0  0  0  0  0
   -8.3610   20.6910  -32.6560 C   0  0  0  0  0  0  0  0  0  0  0  0
   -7.0380   20.3270  -32.5030 C   0  0  0  0  0  0  0  0  0  0  0  0
   -6.2580   21.0850  -31.6690 C   0  0  0  0  0  0  0  0  0  0  0  0
   -4.4480   20.8410  -31.2680 S   0  0  0  0  0  0  0  0  0  0  0  0
   -2.9080   24.0190  -29.5260 N   0  0  0  0  0  0  0  0  0  0  0  0
   -1.2245   25.9637  -26.8856 H   0  0  0  0  0  0  0  0  0  0  0  0
    0.2266   26.3121  -27.8853 H   0  0  0  0  0  0  0  0  0  0  0  0
   -1.1594   27.4547  -27.8853 H   0  0  0  0  0  0  0  0  0  0  0  0
   -0.1404   23.9144  -27.5628 H   0  0  0  0  0  0  0  0  0  0  0  0
   -0.2490   20.5119  -27.9158 H   0  0  0  0  0  0  0  0  0  0  0  0
    0.1254   21.7998  -26.7113 H   0  0  0  0  0  0  0  0  0  0  0  0
   -1.5470   20.9580  -25.2810 H   0  0  0  0  0  0  0  0  0  0  0  0
   -2.7380   18.4050  -24.8170 H   0  0  0  0  0  0  0  0  0  0  0  0
   -4.2340   18.9970  -25.6100 H   0  0  0  0  0  0  0  0  0  0  0  0
   -2.8460   20.8280  -28.6450 H   0  0  0  0  0  0  0  0  0  0  0  0
   -5.9923   23.6837  -29.5932 H   0  0  0  0  0  0  0  0  0  0  0  0
   -8.4075   23.4069  -30.5892 H   0  0  0  0  0  0  0  0  0  0  0  0
   -9.8346   22.0933  -32.0613 H   0  0  0  0  0  0  0  0  0  0  0  0
   -9.0428   20.1281  -33.3104 H   0  0  0  0  0  0  0  0  0  0  0  0
   -6.6234   19.4569  -33.0332 H   0  0  0  0  0  0  0  0  0  0  0  0
  1  2  1  0
  2  3  2  0
  3  4  1  0
  4  5  2  0
  5  6  1  0
  6  7  1  0
  7  8  1  0
  8  9  1  0
  8 10  2  0
  5 11  1  0
 11 12  1  0
 12 13  1  0
 13 14  2  0
 14 15  1  0
 15 16  2  0
 16 17  1  0
 17 18  2  0
 18 19  1  0
 19 20  2  0
 20 21  1  0
 12 22  2  0
 22  3  1  0
 21 13  1  0
 20 15  1  0
  1 23  1  0
  1 24  1  0
  1 25  1  0
  4 26  1  0
  6 27  1  0
  6 28  1  0
  7 29  1  0
  9 30  1  0
  9 31  1  0
 11 32  1  0
 14 33  1  0
 16 34  1  0
 17 35  1  0
 18 36  1  0
 19 37  1  0
M  END
>  <smiles>  (12) 
CN=c1cc(CNC(N)=O)[nH]c(-c2cc3ccccc3s2)n1

>  <score_type>  (12) 
oracle

>  <origin>  (12) 
adg

>  <m_score__min__energy>  (12) 
-7.7800000000000002

>  <m_primary>  (12) 
energy

$$$$
12:0
     RDKit          3D

 46 48  0  0  0  0  0  0  0  0999 V2000
   -1.8010   21.9430  -31.2740 C   0  0  0  0  0  0  0  0  0  0  0  0
   -3.2840   22.0090  -31.4470 C   0  0  0  0  0  0  0  0  0  0  0  0
   -3.9520   21.3570  -32.4170 N   0  0  0  0  0  0  0  0  0  0  0  0
   -5.2430   21.6020  -32.2540 N   0  0  0  0  0  0  0  0  0  0  0  0
   -6.2790   20.9930  -33.0880 C   0  0  0  0  0  0  0  0  0  0  0  0
   -6.1040   19.4990  -33.1280 C   0  0  0  0  0  0  0  0  0  0  0  0
   -7.0230   18.6680  -32.4700 C   0  0  0  0  0  0  0  0  0  0  0  0
   -6.8820   17.2780  -32.5230 C   0  0  0  0  0  0  0  0  0  0  0  0
   -5.8190   16.6970  -33.2330 C   0  0  0  0  0  0  0  0  0  0  0  0
   -5.6830   15.2640  -33.2980 N   0  0  0  0  0  0  0  0  0  0  0  0
   -4.8270   14.5530  -32.3380 C   0  0  0  0  0  0  0  0  0  0  0  0
   -4.3180   13.2440  -32.8930 C   0  0  0  0  0  0  0  0  0  0  0  0
   -4.7470   12.7340  -34.0600 C   0  0  0  0  0  0  0  0  0  0  0  0
   -5.6810   13.4880  -34.9700 C   0  0  0  0  0  0  0  0  0  0  0  0
   -6.5440   14.4690  -34.1810 C   0  0  0  0  0  0  0  0  0  0  0  0
   -4.9040   17.5320  -33.8990 C   0  0  0  0  0  0  0  0  0  0  0  0
   -5.0440   18.9210  -33.8440 C   0  0  0  0  0  0  0  0  0  0  0  0
   -5.4240   22.4020  -31.1760 C   0  0  0  0  0  0  0  0  0  0  0  0
   -6.7540   22.8140  -30.6180 C   0  0  0  0  0  0  0  0  0  0  0  0
   -4.1820   22.6630  -30.6180 C   0  0  0  0  0  0  0  0  0  0  0  0
   -3.8680   23.4970  -29.4090 C   0  0  0  0  0  0  0  0  0  0  0  0
   -3.3420   24.8330  -29.8250 C   0  0  0  0  0  0  0  0  0  0  0  0
   -2.3000   25.2960  -29.2940 O   0  0  0  0  0  0  0  0  0  0  0  0
   -3.9780   25.5500  -30.8310 O   0  0  0  0  0  0  0  0  0  0  0  0
   -1.5571   21.9321  -30.2014 H   0  0  0  0  0  0  0  0  0  0  0  0
   -1.4171   21.0269  -31.7466 H   0  0  0  0  0  0  0  0  0  0  0  0
   -1.3373   22.8214  -31.7466 H   0  0  0  0  0  0  0  0  0  0  0  0
   -7.2682   21.2317  -32.6704 H   0  0  0  0  0  0  0  0  0  0  0  0
   -6.1962   21.3910  -34.1101 H   0  0  0  0  0  0  0  0  0  0  0  0
   -7.8588   19.1123  -31.9095 H   0  0  0  0  0  0  0  0  0  0  0  0
   -7.6088   16.6351  -32.0049 H   0  0  0  0  0  0  0  0  0  0  0  0
   -3.9665   15.1915  -32.0892 H   0  0  0  0  0  0  0  0  0  0  0  0
   -5.4302   14.3312  -31.4453 H   0  0  0  0  0  0  0  0  0  0  0  0
   -3.5650   12.6849  -32.3183 H   0  0  0  0  0  0  0  0  0  0  0  0
   -4.4047   11.7328  -34.3606 H   0  0  0  0  0  0  0  0  0  0  0  0
   -5.0888   14.0456  -35.7105 H   0  0  0  0  0  0  0  0  0  0  0  0
   -6.3421   12.7644  -35.4693 H   0  0  0  0  0  0  0  0  0  0  0  0
   -7.0735   15.1360  -34.8772 H   0  0  0  0  0  0  0  0  0  0  0  0
   -7.2797   13.9146  -33.5799 H   0  0  0  0  0  0  0  0  0  0  0  0
   -4.0728   17.0886  -34.4669 H   0  0  0  0  0  0  0  0  0  0  0  0
   -4.3198   19.5650  -34.3645 H   0  0  0  0  0  0  0  0  0  0  0  0
   -6.7106   22.8006  -29.5189 H   0  0  0  0  0  0  0  0  0  0  0  0
   -6.9976   23.8297  -30.9629 H   0  0  0  0  0  0  0  0  0  0  0  0
   -7.5291   22.1139  -30.9629 H   0  0  0  0  0  0  0  0  0  0  0  0
   -4.7838   23.6359  -28.8157 H   0  0  0  0  0  0  0  0  0  0  0  0
   -3.1045   22.9826  -28.8069 H   0  0  0  0  0  0  0  0  0  0  0  0
  1  2  1  0
  2  3  2  0
  3  4  1  0
  4  5  1  0
  5  6  1  0
  6  7  2  0
  7  8  1  0
  8  9  2  0
  9 10  1  0
 10 11  1  0
 11 12  1  0
 12 13  2  0
 13 14  1  0
 14 15  1  0
  9 16  1  0
 16 17  2  0
  4 18  1  0
 18 19  1  0
 18 20  2  0
 20 21  1  0
 21 22  1  0
 22 23  2  0
 22 24  1  0
 20  2  1  0
 17  6  1  0
 15 10  1  0
  1 25  1  0
  1 26  1  0
  1 27  1  0
  5 28  1  0
  5 29  1  0
  7 30  1  0
  8 31  1  0
 11 32  1  0
 11 33  1  0
 12 34  1  0
 13 35  1  0
 14 36  1  0
 14 37  1  0
 15 38  1  0
 15 39  1  0
 16 40  1  0
 17 41  1  0
 19 42  1  0
 19 43  1  0
 19 44  1  0
 21 45  1  0
 21 46  1  0
M  CHG  1  24  -1
M  END
>  <UniqueID>  (13) 
9

>  <SMILES>  (13) 
Cc1nn(Cc2ccc(N3CC=CCC3)cc2)c(C)c1CC(=O)[O-]

>  <Energy>  (13) 
75.61388380310969

>  <Genealogy>  (13) 
Cc1nn(Cc2ccc(N3CC=CCC3)cc2)c(C)c1CC(=O)[O-] (protonated)
Cc1nn(Cc2ccc(N3CC=CCC3)cc2)c(C)c1CC(=O)[O-] (3D coordinates assigned)
Cc1nn(Cc2ccc(N3CC=CCC3)cc2)c(C)c1CC(=O)[O-] (nonaromatic ring conformer: 75.61388380310969 kcal/mol)

>  <smiles>  (13) 
Cc1nn(Cc2ccc(N3CC=CCC3)cc2)c(C)c1CC(=O)O

>  <score_type>  (13) 
oracle

>  <origin>  (13) 
adg

>  <m_score__min__energy>  (13) 
-11.199999999999999

>  <m_primary>  (13) 
energy

$$$$
13:0
     RDKit          3D

 43 47  0  0  0  0  0  0  0  0999 V2000
   -1.2330   25.8140  -27.7120 C   0  0  0  0  0  0  0  0  0  0  0  0
   -1.8850   25.6490  -28.9670 O   0  0  0  0  0  0  0  0  0  0  0  0
   -2.3750   24.4330  -29.4680 C   0  0  0  0  0  0  0  0  0  0  0  0
   -1.6700   23.2330  -29.2540 C   0  0  0  0  0  0  0  0  0  0  0  0
   -2.1480   22.0240  -29.7500 C   0  0  0  0  0  0  0  0  0  0  0  0
   -3.3440   21.9810  -30.4730 C   0  0  0  0  0  0  0  0  0  0  0  0
   -3.8200   20.7670  -30.9750 C   0  0  0  0  0  0  0  0  0  0  0  0
   -5.0190   20.7300  -31.7090 C   0  0  0  0  0  0  0  0  0  0  0  0
   -5.7420   21.8860  -31.8820 N   0  0  0  0  0  0  0  0  0  0  0  0
   -5.2760   23.0850  -31.4160 C   0  0  0  0  0  0  0  0  0  0  0  0
   -4.0710   23.1660  -30.6960 C   0  0  0  0  0  0  0  0  0  0  0  0
   -3.5930   24.4020  -30.1990 C   0  0  0  0  0  0  0  0  0  0  0  0
   -4.3660   25.5540  -30.4570 O   0  0  0  0  0  0  0  0  0  0  0  0
   -5.7240   25.7730  -30.0930 C   0  0  0  0  0  0  0  0  0  0  0  0
   -6.9940   21.8720  -32.6610 C   0  0  0  0  0  0  0  0  0  0  0  0
   -7.7980   20.5980  -32.3910 C   0  0  0  0  0  0  0  0  0  0  0  0
   -6.9330   19.3890  -32.6030 C   0  0  0  0  0  0  0  0  0  0  0  0
   -7.4960   18.1930  -33.0970 C   0  0  0  0  0  0  0  0  0  0  0  0
   -6.6580   17.0980  -33.2630 C   0  0  0  0  0  0  0  0  0  0  0  0
   -5.3370   17.1520  -32.9600 C   0  0  0  0  0  0  0  0  0  0  0  0
   -4.7400   18.3020  -32.4560 C   0  0  0  0  0  0  0  0  0  0  0  0
   -5.5550   19.4440  -32.2500 C   0  0  0  0  0  0  0  0  0  0  0  0
   -4.7530   15.9310  -33.2350 O   0  0  0  0  0  0  0  0  0  0  0  0
   -5.7700   15.0540  -33.7370 C   0  0  0  0  0  0  0  0  0  0  0  0
   -6.9710   15.8390  -33.7390 O   0  0  0  0  0  0  0  0  0  0  0  0
   -1.9513   25.6322  -26.8990 H   0  0  0  0  0  0  0  0  0  0  0  0
   -0.4017   25.0979  -27.6337 H   0  0  0  0  0  0  0  0  0  0  0  0
   -0.8424   26.8393  -27.6337 H   0  0  0  0  0  0  0  0  0  0  0  0
   -0.7278   23.2516  -28.6866 H   0  0  0  0  0  0  0  0  0  0  0  0
   -1.5822   21.0975  -29.5724 H   0  0  0  0  0  0  0  0  0  0  0  0
   -3.2564   19.8395  -30.7959 H   0  0  0  0  0  0  0  0  0  0  0  0
   -5.8538   24.0011  -31.6079 H   0  0  0  0  0  0  0  0  0  0  0  0
   -5.8120   25.7872  -28.9966 H   0  0  0  0  0  0  0  0  0  0  0  0
   -6.0619   26.7372  -30.5005 H   0  0  0  0  0  0  0  0  0  0  0  0
   -6.3479   24.9639  -30.5005 H   0  0  0  0  0  0  0  0  0  0  0  0
   -7.6009   22.7457  -32.3810 H   0  0  0  0  0  0  0  0  0  0  0  0
   -6.7397   21.9040  -33.7307 H   0  0  0  0  0  0  0  0  0  0  0  0
   -8.1599   20.6091  -31.3523 H   0  0  0  0  0  0  0  0  0  0  0  0
   -8.6516   20.5567  -33.0836 H   0  0  0  0  0  0  0  0  0  0  0  0
   -8.5662   18.1299  -33.3432 H   0  0  0  0  0  0  0  0  0  0  0  0
   -3.6651   18.3254  -32.2235 H   0  0  0  0  0  0  0  0  0  0  0  0
   -5.5244   14.7209  -34.7562 H   0  0  0  0  0  0  0  0  0  0  0  0
   -5.8714   14.1461  -33.1242 H   0  0  0  0  0  0  0  0  0  0  0  0
  1  2  1  0
  2  3  1  0
  3  4  2  0
  4  5  1  0
  5  6  2  0
  6  7  1  0
  7  8  2  0
  8  9  1  0
  9 10  2  0
 10 11  1  0
 11 12  2  0
 12 13  1  0
 13 14  1  0
  9 15  1  0
 15 16  1  0
 16 17  1  0
 17 18  2  0
 18 19  1  0
 19 20  2  0
 20 21  1  0
 21 22  2  0
 20 23  1  0
 23 24  1  0
 24 25  1  0
 12  3  1  0
 22 17  1  0
 11  6  1  0
 25 19  1  0
 22  8  1  0
  1 26  1  0
  1 27  1  0
  1 28  1  0
  4 29  1  0
  5 30  1  0
  7 31  1  0
 10 32  1  0
 14 33  1  0
 14 34  1  0
 14 35  1  0
 15 36  1  0
 15 37  1  0
 16 38  1  0
 16 39  1  0
 18 40  1  0
 21 41  1  0
 24 42  1  0
 24 43  1  0
M  CHG  1   9   1
M  END
>  <UniqueID>  (14) 
10

>  <SMILES>  (14) 
COc1ccc2cc3[n+](cc2c1OC)CCc1cc2c(cc1-3)OCO2

>  <Energy>  (14) 
89.00520609369956

>  <Genealogy>  (14) 
COc1ccc2cc3[n+](cc2c1OC)CCc1cc2c(cc1-3)OCO2 (3D coordinates assigned)
COc1ccc2cc3[n+](cc2c1OC)CCc1cc2c(cc1-3)OCO2 (nonaromatic ring conformer: 89.00520609369956 kcal/mol)

>  <smiles>  (14) 
COc1ccc2cc3[n+](cc2c1OC)CCc1cc2c(cc1-3)OCO2

>  <score_type>  (14) 
oracle

>  <origin>  (14) 
adg

>  <m_score__min__energy>  (14) 
-8.3200000000000003

>  <m_primary>  (14) 
energy

$$$$
14:0
     RDKit          3D

 35 37  0  0  0  0  0  0  0  0999 V2000
   -2.2770   24.7930  -28.6140 C   0  0  0  0  0  0  0  0  0  0  0  0
   -3.1110   25.2430  -29.6780 O   0  0  0  0  0  0  0  0  0  0  0  0
   -4.2890   24.6010  -30.0860 C   0  0  0  0  0  0  0  0  0  0  0  0
   -5.4540   25.3100  -30.4320 C   0  0  0  0  0  0  0  0  0  0  0  0
   -6.6040   24.6240  -30.8320 C   0  0  0  0  0  0  0  0  0  0  0  0
   -6.6190   23.2190  -30.8930 C   0  0  0  0  0  0  0  0  0  0  0  0
   -7.8180   22.5120  -31.2900 N   0  0  0  0  0  0  0  0  0  0  0  0
   -8.8730   23.2200  -32.0220 C   0  0  0  0  0  0  0  0  0  0  0  0
   -8.0210   21.1010  -30.9200 C   0  0  0  0  0  0  0  0  0  0  0  0
   -7.3390   20.1960  -31.9050 C   0  0  0  0  0  0  0  0  0  0  0  0
   -6.4950   20.7350  -32.8970 C   0  0  0  0  0  0  0  0  0  0  0  0
   -5.8930   19.8920  -33.8400 C   0  0  0  0  0  0  0  0  0  0  0  0
   -6.1520   18.5250  -33.7740 C   0  0  0  0  0  0  0  0  0  0  0  0
   -5.6360   17.6100  -34.6260 N   0  0  0  0  0  0  0  0  0  0  0  0
   -6.2990   16.2120  -34.0500 S   0  0  0  0  0  0  0  0  0  0  0  0
   -7.2270   16.6750  -32.7560 N   0  0  0  0  0  0  0  0  0  0  0  0
   -7.0100   18.0170  -32.7650 C   0  0  0  0  0  0  0  0  0  0  0  0
   -7.5820   18.8530  -31.8630 N   0  0  0  0  0  0  0  0  0  0  0  0
   -5.4480   22.5180  -30.5490 C   0  0  0  0  0  0  0  0  0  0  0  0
   -4.2990   23.2040  -30.1500 C   0  0  0  0  0  0  0  0  0  0  0  0
   -2.7439   25.0449  -27.6504 H   0  0  0  0  0  0  0  0  0  0  0  0
   -2.1481   23.7029  -28.6851 H   0  0  0  0  0  0  0  0  0  0  0  0
   -1.2951   25.2837  -28.6851 H   0  0  0  0  0  0  0  0  0  0  0  0
   -5.4597   26.4091  -30.3875 H   0  0  0  0  0  0  0  0  0  0  0  0
   -7.5080   25.1895  -31.1023 H   0  0  0  0  0  0  0  0  0  0  0  0
   -9.5667   23.6855  -31.3064 H   0  0  0  0  0  0  0  0  0  0  0  0
   -8.4214   23.9986  -32.6544 H   0  0  0  0  0  0  0  0  0  0  0  0
   -9.4224   22.5070  -32.6544 H   0  0  0  0  0  0  0  0  0  0  0  0
   -7.6030   20.9258  -29.9177 H   0  0  0  0  0  0  0  0  0  0  0  0
   -9.0993   20.8835  -30.9243 H   0  0  0  0  0  0  0  0  0  0  0  0
   -6.3089   21.8186  -32.9307 H   0  0  0  0  0  0  0  0  0  0  0  0
   -5.2297   20.3010  -34.6163 H   0  0  0  0  0  0  0  0  0  0  0  0
   -4.9900   17.7530  -35.4340 H   0  0  0  0  0  0  0  0  0  0  0  0
   -5.4378   21.4190  -30.5949 H   0  0  0  0  0  0  0  0  0  0  0  0
   -3.3929   22.6401  -29.8834 H   0  0  0  0  0  0  0  0  0  0  0  0
  1  2  1  0
  2  3  1  0
  3  4  2  0
  4  5  1  0
  5  6  2  0
  6  7  1  0
  7  8  1  0
  7  9  1  0
  9 10  1  0
 10 11  1  0
 11 12  2  0
 12 13  1  0
 13 14  2  0
 14 15  1  0
 15 16  1  0
 16 17  2  0
 17 18  1  0
  6 19  1  0
 19 20  2  0
 20  3  1  0
 18 10  2  0
 17 13  1  0
  1 21  1  0
  1 22  1  0
  1 23  1  0
  4 24  1  0
  5 25  1  0
  8 26  1  0
  8 27  1  0
  8 28  1  0
  9 29  1  0
  9 30  1  0
 11 31  1  0
 12 32  1  0
 14 33  1  0
 19 34  1  0
 20 35  1  0
M  CHG  1  14   1
M  END
>  <UniqueID>  (15) 
11

>  <SMILES>  (15) 
COc1ccc(N(C)Cc2ccc3[nH+]snc3n2)cc1

>  <Energy>  (15) 
78.59005024596729

>  <Genealogy>  (15) 
COc1ccc(N(C)Cc2ccc3[nH+]snc3n2)cc1 (protonated)
COc1ccc(N(C)Cc2ccc3[nH+]snc3n2)cc1 (3D coordinates assigned)
COc1ccc(N(C)Cc2ccc3[nH+]snc3n2)cc1 (optimized conformer: 78.59005024596729 kcal/mol)

>  <smiles>  (15) 
COc1ccc(N(C)Cc2ccc3nsnc3n2)cc1

>  <score_type>  (15) 
oracle

>  <origin>  (15) 
adg

>  <m_score__min__energy>  (15) 
-7.7599999999999998

>  <m_primary>  (15) 
energy

$$$$
15:0
     RDKit          3D

 43 46  0  0  0  0  0  0  0  0999 V2000
   -4.4230   24.4260  -27.9110 C   0  0  0  0  0  0  0  0  0  0  0  0
   -3.7090   23.1880  -28.3850 C   0  0  0  0  0  0  0  0  0  0  0  0
   -2.9040   22.4780  -27.4770 C   0  0  0  0  0  0  0  0  0  0  0  0
   -2.2350   21.3180  -27.8750 C   0  0  0  0  0  0  0  0  0  0  0  0
   -2.3670   20.8490  -29.1800 C   0  0  0  0  0  0  0  0  0  0  0  0
   -3.1720   21.5350  -30.0930 C   0  0  0  0  0  0  0  0  0  0  0  0
   -3.8570   22.7000  -29.7090 C   0  0  0  0  0  0  0  0  0  0  0  0
   -4.8650   23.5330  -30.9040 S   0  0  0  0  0  0  0  0  0  0  0  0
   -4.5140   23.0350  -32.2780 O   0  0  0  0  0  0  0  0  0  0  0  0
   -4.6200   25.0150  -30.8450 O   0  0  0  0  0  0  0  0  0  0  0  0
   -6.5360   23.2160  -30.5590 N   0  0  0  0  0  0  0  0  0  0  0  0
   -7.2970   22.1670  -31.1820 C   0  0  0  0  0  0  0  0  0  0  0  0
   -8.6940   22.2750  -31.2310 C   0  0  0  0  0  0  0  0  0  0  0  0
   -9.4620   21.2720  -31.8250 C   0  0  0  0  0  0  0  0  0  0  0  0
   -8.8440   20.1520  -32.3830 C   0  0  0  0  0  0  0  0  0  0  0  0
   -7.4430   20.0230  -32.3580 C   0  0  0  0  0  0  0  0  0  0  0  0
   -6.7670   18.8430  -32.9490 C   0  0  0  0  0  0  0  0  0  0  0  0
   -7.2300   17.5280  -32.9480 C   0  0  0  0  0  0  0  0  0  0  0  0
   -6.3090   16.7890  -33.5800 N   0  0  0  0  0  0  0  0  0  0  0  0
   -6.2870   15.4560  -33.8380 C   0  0  0  0  0  0  0  0  0  0  0  0
   -5.1800   14.9340  -34.5230 C   0  0  0  0  0  0  0  0  0  0  0  0
   -4.1390   15.7980  -34.9200 C   0  0  0  0  0  0  0  0  0  0  0  0
   -4.2080   17.1710  -34.6310 C   0  0  0  0  0  0  0  0  0  0  0  0
   -5.3320   17.6310  -33.9460 C   0  0  0  0  0  0  0  0  0  0  0  0
   -5.5660   18.9070  -33.5810 N   0  0  0  0  0  0  0  0  0  0  0  0
   -6.6780   21.0410  -31.7570 C   0  0  0  0  0  0  0  0  0  0  0  0
   -4.4338   24.4447  -26.8112 H   0  0  0  0  0  0  0  0  0  0  0  0
   -3.9004   25.3176  -28.2878 H   0  0  0  0  0  0  0  0  0  0  0  0
   -5.4565   24.4202  -28.2878 H   0  0  0  0  0  0  0  0  0  0  0  0
   -2.7999   22.8394  -26.4433 H   0  0  0  0  0  0  0  0  0  0  0  0
   -1.6033   20.7744  -27.1571 H   0  0  0  0  0  0  0  0  0  0  0  0
   -1.8367   19.9372  -29.4922 H   0  0  0  0  0  0  0  0  0  0  0  0
   -3.2704   21.1594  -31.1222 H   0  0  0  0  0  0  0  0  0  0  0  0
   -6.9710   23.7680  -29.7860 H   0  0  0  0  0  0  0  0  0  0  0  0
   -9.1887   23.1569  -30.7980 H   0  0  0  0  0  0  0  0  0  0  0  0
  -10.5577   21.3647  -31.8533 H   0  0  0  0  0  0  0  0  0  0  0  0
   -9.4566   19.3642  -32.8458 H   0  0  0  0  0  0  0  0  0  0  0  0
   -8.1725   17.1662  -32.5112 H   0  0  0  0  0  0  0  0  0  0  0  0
   -7.1137   14.8043  -33.5189 H   0  0  0  0  0  0  0  0  0  0  0  0
   -5.1244   13.8588  -34.7487 H   0  0  0  0  0  0  0  0  0  0  0  0
   -3.2686   15.3951  -35.4586 H   0  0  0  0  0  0  0  0  0  0  0  0
   -3.4044   17.8583  -34.9341 H   0  0  0  0  0  0  0  0  0  0  0  0
   -5.5815   20.9552  -31.7365 H   0  0  0  0  0  0  0  0  0  0  0  0
  1  2  1  0
  2  3  2  0
  3  4  1  0
  4  5  2  0
  5  6  1  0
  6  7  2  0
  7  8  1  0
  8  9  2  0
  8 10  2  0
  8 11  1  0
 11 12  1  0
 12 13  2  0
 13 14  1  0
 14 15  2  0
 15 16  1  0
 16 17  1  0
 17 18  2  0
 18 19  1  0
 19 20  1  0
 20 21  2  0
 21 22  1  0
 22 23  2  0
 23 24  1  0
 24 25  2  0
 16 26  2  0
  7  2  1  0
 26 12  1  0
 25 17  1  0
 24 19  1  0
  1 27  1  0
  1 28  1  0
  1 29  1  0
  3 30  1  0
  4 31  1  0
  5 32  1  0
  6 33  1  0
 11 34  1  0
 13 35  1  0
 14 36  1  0
 15 37  1  0
 18 38  1  0
 20 39  1  0
 21 40  1  0
 22 41  1  0
 23 42  1  0
 26 43  1  0
M  END
>  <UniqueID>  (16) 
12

>  <SMILES>  (16) 
Cc1ccccc1S(=O)(=O)Nc1cccc(-c2cn3ccccc3n2)c1

>  <Energy>  (16) 
88.61748036263548

>  <Genealogy>  (16) 
Cc1ccccc1S(=O)(=O)Nc1cccc(-c2cn3ccccc3n2)c1 (3D coordinates assigned)
Cc1ccccc1S(=O)(=O)Nc1cccc(-c2cn3ccccc3n2)c1 (optimized conformer: 88.61748036263548 kcal/mol)

>  <smiles>  (16) 
Cc1ccccc1S(=O)(=O)Nc1cccc(-c2cn3ccccc3n2)c1

>  <score_type>  (16) 
oracle

>  <origin>  (16) 
adg

>  <m_score__min__energy>  (16) 
-9.5899999999999999

>  <m_primary>  (16) 
energy

$$$$
16:0
     RDKit          3D

 54 56  0  0  0  0  0  0  0  0999 V2000
   -9.8864   20.0165  -31.9334 H   0  0  0  0  0  0  0  0  0  0  0  0
   -8.8120   20.1860  -31.7690 C   0  0  0  0  0  0  0  0  0  0  0  0
   -8.4490   21.1370  -30.8970 C   0  0  0  0  0  0  0  0  0  0  0  0
   -8.2520   20.8593  -29.8510 H   0  0  0  0  0  0  0  0  0  0  0  0
   -8.3040   22.5800  -31.3160 C   0  0  0  0  0  0  0  0  0  0  0  0
   -8.9928   23.1899  -30.7131 H   0  0  0  0  0  0  0  0  0  0  0  0
   -8.5365   22.6333  -32.3898 H   0  0  0  0  0  0  0  0  0  0  0  0
   -6.9330   23.1040  -31.1370 N   0  0  0  0  0  0  0  0  0  0  0  0
   -6.0340   22.7740  -32.2530 C   0  0  0  0  0  0  0  0  0  0  0  0
   -6.2869   23.3977  -33.1231 H   0  0  0  0  0  0  0  0  0  0  0  0
   -6.1513   21.7118  -32.5136 H   0  0  0  0  0  0  0  0  0  0  0  0
   -4.5730   23.0400  -31.8390 C   0  0  0  0  0  0  0  0  0  0  0  0
   -4.0022   23.3208  -32.7364 H   0  0  0  0  0  0  0  0  0  0  0  0
   -4.1942   22.1168  -31.3762 H   0  0  0  0  0  0  0  0  0  0  0  0
   -4.4310   24.1250  -30.8320 N   0  0  0  0  0  0  0  0  0  0  0  0
   -4.3290   23.6210  -29.4450 C   0  0  0  0  0  0  0  0  0  0  0  0
   -4.5705   22.5479  -29.4334 H   0  0  0  0  0  0  0  0  0  0  0  0
   -5.0356   24.1814  -28.8152 H   0  0  0  0  0  0  0  0  0  0  0  0
   -2.9400   23.8190  -28.9010 C   0  0  0  0  0  0  0  0  0  0  0  0
   -2.3240   24.8760  -29.2050 O   0  0  0  0  0  0  0  0  0  0  0  0
   -2.2800   22.8570  -27.9870 C   0  0  0  0  0  0  0  0  0  0  0  0
   -1.3450   23.0560  -26.9690 C   0  0  0  0  0  0  0  0  0  0  0  0
   -0.7630   24.3450  -26.4900 C   0  0  0  0  0  0  0  0  0  0  0  0
   -0.7570   24.3583  -25.3901 H   0  0  0  0  0  0  0  0  0  0  0  0
    0.2669   24.4435  -26.8635 H   0  0  0  0  0  0  0  0  0  0  0  0
   -1.3702   25.1827  -26.8635 H   0  0  0  0  0  0  0  0  0  0  0  0
   -1.0280   21.8690  -26.4140 N   0  0  0  0  0  0  0  0  0  0  0  0
   -1.7390   20.9370  -27.0270 N   0  0  0  0  0  0  0  0  0  0  0  0
   -1.6260   19.5110  -26.7410 C   0  0  0  0  0  0  0  0  0  0  0  0
   -0.9189   19.3618  -25.9116 H   0  0  0  0  0  0  0  0  0  0  0  0
   -1.2645   18.9923  -27.6412 H   0  0  0  0  0  0  0  0  0  0  0  0
   -2.9850   18.9420  -26.3520 C   0  0  0  0  0  0  0  0  0  0  0  0
   -3.0678   18.9073  -25.2557 H   0  0  0  0  0  0  0  0  0  0  0  0
   -3.7810   19.5824  -26.7598 H   0  0  0  0  0  0  0  0  0  0  0  0
   -3.0873   17.9255  -26.7598 H   0  0  0  0  0  0  0  0  0  0  0  0
   -2.5030   21.4930  -27.9840 C   0  0  0  0  0  0  0  0  0  0  0  0
   -3.1900   20.9529  -28.6521 H   0  0  0  0  0  0  0  0  0  0  0  0
   -5.4920   25.1450  -30.9690 C   0  0  0  0  0  0  0  0  0  0  0  0
   -5.4049   25.6133  -31.9605 H   0  0  0  0  0  0  0  0  0  0  0  0
   -5.3558   25.8790  -30.1611 H   0  0  0  0  0  0  0  0  0  0  0  0
   -6.9100   24.5480  -30.8260 C   0  0  0  0  0  0  0  0  0  0  0  0
   -7.5877   25.0715  -31.5165 H   0  0  0  0  0  0  0  0  0  0  0  0
   -7.2309   24.6773  -29.7818 H   0  0  0  0  0  0  0  0  0  0  0  0
   -7.8490   19.3490  -32.5250 C   0  0  0  0  0  0  0  0  0  0  0  0
   -7.7340   17.9570  -32.3270 C   0  0  0  0  0  0  0  0  0  0  0  0
   -8.3828   17.4527  -31.5957 H   0  0  0  0  0  0  0  0  0  0  0  0
   -6.7990   17.2150  -33.0560 C   0  0  0  0  0  0  0  0  0  0  0  0
   -6.7190   16.1291  -32.8999 H   0  0  0  0  0  0  0  0  0  0  0  0
   -5.9670   17.8480  -33.9810 C   0  0  0  0  0  0  0  0  0  0  0  0
   -5.2379   17.2603  -34.5581 H   0  0  0  0  0  0  0  0  0  0  0  0
   -6.0610   19.2270  -34.1730 C   0  0  0  0  0  0  0  0  0  0  0  0
   -5.4005   19.7263  -34.8971 H   0  0  0  0  0  0  0  0  0  0  0  0
   -6.9930   19.9760  -33.4470 C   0  0  0  0  0  0  0  0  0  0  0  0
   -7.0565   21.0636  -33.5987 H   0  0  0  0  0  0  0  0  0  0  0  0
  1  2  1  0
  2  3  2  0
  3  4  1  0
  3  5  1  0
  5  6  1  0
  5  7  1  0
  5  8  1  0
  8  9  1  0
  9 10  1  0
  9 11  1  0
  9 12  1  0
 12 13  1  0
 12 14  1  0
 12 15  1  0
 15 16  1  0
 16 17  1  0
 16 18  1  0
 16 19  1  0
 19 20  2  0
 19 21  1  0
 21 22  1  0
 22 23  1  0
 23 24  1  0
 23 25  1  0
 23 26  1  0
 22 27  2  0
 27 28  1  0
 28 29  1  0
 29 30  1  0
 29 31  1  0
 29 32  1  0
 32 33  1  0
 32 34  1  0
 32 35  1  0
 28 36  1  0
 36 37  1  0
 15 38  1  0
 38 39  1  0
 38 40  1  0
 38 41  1  0
 41 42  1  0
 41 43  1  0
  2 44  1  0
 44 45  2  0
 45 46  1  0
 45 47  1  0
 47 48  1  0
 47 49  2  0
 49 50  1  0
 49 51  1  0
 51 52  1  0
 51 53  2  0
 53 54  1  0
 41  8  1  0
 53 44  1  0
 36 21  2  0
M  END
>  <UniqueID>  (17) 
13

>  <SMILES>  (17) 
CCn1cc(C(=O)CN2CCN(C/C=C/c3ccccc3)CC2)c(C)n1

>  <Energy>  (17) 
96.11645839929123

>  <Genealogy>  (17) 
CCn1cc(C(=O)CN2CCN(C/C=C/c3ccccc3)CC2)c(C)n1 (cis-trans isomerization)
CCn1cc(C(=O)CN2CCN(C/C=C/c3ccccc3)CC2)c(C)n1 (3D coordinates assigned)
CCn1cc(C(=O)CN2CCN(C/C=C/c3ccccc3)CC2)c(C)n1 (nonaromatic ring conformer: 96.11645839929123 kcal/mol)

>  <smiles>  (17) 
CCn1cc(C(=O)CN2CCN(CC=Cc3ccccc3)CC2)c(C)n1

>  <score_type>  (17) 
oracle

>  <origin>  (17) 
adg

>  <m_score__min__energy>  (17) 
-9.7300000000000004

>  <m_primary>  (17) 
energy

$$$$
17:0
     RDKit          3D

 38 41  0  0  0  0  0  0  0  0999 V2000
   -4.9170   25.3030  -30.2040 C   0  0  0  0  0  0  0  0  0  0  0  0
   -3.4980   25.2710  -30.3140 O   0  0  0  0  0  0  0  0  0  0  0  0
   -2.6480   24.5010  -29.5020 C   0  0  0  0  0  0  0  0  0  0  0  0
   -1.9990   25.0580  -28.3800 C   0  0  0  0  0  0  0  0  0  0  0  0
   -1.1420   24.2800  -27.6000 C   0  0  0  0  0  0  0  0  0  0  0  0
   -0.9220   22.9430  -27.9210 C   0  0  0  0  0  0  0  0  0  0  0  0
   -1.5590   22.3750  -29.0250 C   0  0  0  0  0  0  0  0  0  0  0  0
   -2.4250   23.1430  -29.8290 C   0  0  0  0  0  0  0  0  0  0  0  0
   -3.1110   22.5160  -30.9880 C   0  0  0  0  0  0  0  0  0  0  0  0
   -2.3870   21.9650  -32.0540 C   0  0  0  0  0  0  0  0  0  0  0  0
   -3.0870   21.3760  -33.1060 C   0  0  0  0  0  0  0  0  0  0  0  0
   -4.4450   21.3520  -33.0940 N   0  0  0  0  0  0  0  0  0  0  0  0
   -5.1420   21.9150  -32.0660 C   0  0  0  0  0  0  0  0  0  0  0  0
   -6.5760   21.8830  -32.0460 N   0  0  0  0  0  0  0  0  0  0  0  0
   -7.3860   22.9680  -31.9540 C   0  0  0  0  0  0  0  0  0  0  0  0
   -8.7260   22.5900  -31.9670 C   0  0  0  0  0  0  0  0  0  0  0  0
   -8.7000   21.2210  -32.0880 C   0  0  0  0  0  0  0  0  0  0  0  0
   -9.7400   20.3580  -32.2010 N   0  0  0  0  0  0  0  0  0  0  0  0
   -9.4800   19.0280  -32.3760 C   0  0  0  0  0  0  0  0  0  0  0  0
   -8.1490   18.5620  -32.4620 C   0  0  0  0  0  0  0  0  0  0  0  0
   -7.0810   19.4700  -32.3540 C   0  0  0  0  0  0  0  0  0  0  0  0
   -7.3960   20.8140  -32.1410 C   0  0  0  0  0  0  0  0  0  0  0  0
   -4.4700   22.4720  -31.0240 N   0  0  0  0  0  0  0  0  0  0  0  0
   -5.2024   25.3094  -29.1417 H   0  0  0  0  0  0  0  0  0  0  0  0
   -5.3023   26.2101  -30.6927 H   0  0  0  0  0  0  0  0  0  0  0  0
   -5.3428   24.4142  -30.6927 H   0  0  0  0  0  0  0  0  0  0  0  0
   -2.1695   26.1127  -28.1181 H   0  0  0  0  0  0  0  0  0  0  0  0
   -0.6387   24.7245  -26.7288 H   0  0  0  0  0  0  0  0  0  0  0  0
   -0.2453   22.3339  -27.3036 H   0  0  0  0  0  0  0  0  0  0  0  0
   -1.3834   21.3171  -29.2702 H   0  0  0  0  0  0  0  0  0  0  0  0
   -1.2875   21.9967  -32.0605 H   0  0  0  0  0  0  0  0  0  0  0  0
   -2.5380   20.9295  -33.9481 H   0  0  0  0  0  0  0  0  0  0  0  0
   -4.9460   20.8660  -33.8700 H   0  0  0  0  0  0  0  0  0  0  0  0
   -7.0315   24.0066  -31.8792 H   0  0  0  0  0  0  0  0  0  0  0  0
   -9.6091   23.2420  -31.8962 H   0  0  0  0  0  0  0  0  0  0  0  0
  -10.3138   18.3143  -32.4505 H   0  0  0  0  0  0  0  0  0  0  0  0
   -7.9487   17.4910  -32.6131 H   0  0  0  0  0  0  0  0  0  0  0  0
   -6.0365   19.1345  -32.4342 H   0  0  0  0  0  0  0  0  0  0  0  0
  1  2  1  0
  2  3  1  0
  3  4  2  0
  4  5  1  0
  5  6  2  0
  6  7  1  0
  7  8  2  0
  8  9  1  0
  9 10  2  0
 10 11  1  0
 11 12  2  0
 12 13  1  0
 13 14  1  0
 14 15  1  0
 15 16  2  0
 16 17  1  0
 17 18  2  0
 18 19  1  0
 19 20  2  0
 20 21  1  0
 21 22  2  0
 13 23  2  0
  8  3  1  0
 23  9  1  0
 22 14  1  0
 22 17  1  0
  1 24  1  0
  1 25  1  0
  1 26  1  0
  4 27  1  0
  5 28  1  0
  6 29  1  0
  7 30  1  0
 10 31  1  0
 11 32  1  0
 12 33  1  0
 15 34  1  0
 16 35  1  0
 19 36  1  0
 20 37  1  0
 21 38  1  0
M  CHG  1  12   1
M  END
>  <UniqueID>  (18) 
14

>  <SMILES>  (18) 
COc1ccccc1-c1cc[nH+]c(-n2ccc3ncccc32)n1

>  <Energy>  (18) 
88.17402118247466

>  <Genealogy>  (18) 
COc1ccccc1-c1cc[nH+]c(-n2ccc3ncccc32)n1 (protonated)
COc1ccccc1-c1cc[nH+]c(-n2ccc3ncccc32)n1 (3D coordinates assigned)
COc1ccccc1-c1cc[nH+]c(-n2ccc3ncccc32)n1 (optimized conformer: 88.17402118247466 kcal/mol)

>  <smiles>  (18) 
COc1ccccc1-c1ccnc(-n2ccc3ncccc32)n1

>  <score_type>  (18) 
oracle

>  <origin>  (18) 
adg

>  <m_score__min__energy>  (18) 
-8

>  <m_primary>  (18) 
energy

$$$$
18:0
     RDKit          3D

 44 46  0  0  0  0  0  0  0  0999 V2000
   -4.9440   20.8820  -33.1210 C   0  0  0  0  0  0  0  0  0  0  0  0
   -5.7090   20.5150  -31.8550 C   0  0  0  0  0  0  0  0  0  0  0  0
   -7.0400   19.9990  -32.1910 N   0  0  0  0  0  0  0  0  0  0  0  0
   -8.2250   20.4610  -31.7400 C   0  0  0  0  0  0  0  0  0  0  0  0
   -8.4480   21.9590  -30.7790 S   0  0  0  0  0  0  0  0  0  0  0  0
   -7.9570   23.0480  -32.1550 C   0  0  0  0  0  0  0  0  0  0  0  0
   -6.5740   23.6360  -31.8870 C   0  0  0  0  0  0  0  0  0  0  0  0
   -6.3300   23.7150  -30.4290 N   0  0  0  0  0  0  0  0  0  0  0  0
   -6.4960   25.0860  -29.9090 C   0  0  0  0  0  0  0  0  0  0  0  0
   -5.3520   26.0180  -30.3760 C   0  0  0  0  0  0  0  0  0  0  0  0
   -4.2230   25.3110  -30.8620 O   0  0  0  0  0  0  0  0  0  0  0  0
   -3.9070   24.2430  -29.9960 C   0  0  0  0  0  0  0  0  0  0  0  0
   -5.0080   23.1630  -30.0450 C   0  0  0  0  0  0  0  0  0  0  0  0
   -9.2370   19.6340  -32.0560 N   0  0  0  0  0  0  0  0  0  0  0  0
   -8.7070   18.6100  -32.7070 N   0  0  0  0  0  0  0  0  0  0  0  0
   -7.3800   18.8330  -32.7890 C   0  0  0  0  0  0  0  0  0  0  0  0
   -6.4520   17.8590  -33.3920 C   0  0  0  0  0  0  0  0  0  0  0  0
   -5.8420   17.9190  -34.6320 C   0  0  0  0  0  0  0  0  0  0  0  0
   -5.1370   16.8270  -34.8230 O   0  0  0  0  0  0  0  0  0  0  0  0
   -5.2750   16.0500  -33.7730 C   0  0  0  0  0  0  0  0  0  0  0  0
   -4.6130   14.7210  -33.6220 C   0  0  0  0  0  0  0  0  0  0  0  0
   -6.1030   16.6420  -32.8440 C   0  0  0  0  0  0  0  0  0  0  0  0
   -3.9832   21.3429  -32.8482 H   0  0  0  0  0  0  0  0  0  0  0  0
   -4.7598   19.9742  -33.7143 H   0  0  0  0  0  0  0  0  0  0  0  0
   -5.5368   21.5938  -33.7143 H   0  0  0  0  0  0  0  0  0  0  0  0
   -5.1499   19.7437  -31.3049 H   0  0  0  0  0  0  0  0  0  0  0  0
   -5.8228   21.4159  -31.2342 H   0  0  0  0  0  0  0  0  0  0  0  0
   -7.9311   22.4666  -33.0884 H   0  0  0  0  0  0  0  0  0  0  0  0
   -8.6862   23.8666  -32.2457 H   0  0  0  0  0  0  0  0  0  0  0  0
   -5.8097   22.9944  -32.3498 H   0  0  0  0  0  0  0  0  0  0  0  0
   -6.5228   24.6474  -32.3165 H   0  0  0  0  0  0  0  0  0  0  0  0
   -7.4540   25.4899  -30.2683 H   0  0  0  0  0  0  0  0  0  0  0  0
   -6.4744   25.0408  -28.8101 H   0  0  0  0  0  0  0  0  0  0  0  0
   -5.7332   26.6646  -31.1801 H   0  0  0  0  0  0  0  0  0  0  0  0
   -5.0241   26.5991  -29.5014 H   0  0  0  0  0  0  0  0  0  0  0  0
   -2.9495   23.7980  -30.3046 H   0  0  0  0  0  0  0  0  0  0  0  0
   -3.8326   24.6285  -28.9685 H   0  0  0  0  0  0  0  0  0  0  0  0
   -4.7186   22.3976  -30.7801 H   0  0  0  0  0  0  0  0  0  0  0  0
   -5.1043   22.7385  -29.0348 H   0  0  0  0  0  0  0  0  0  0  0  0
   -5.9329   18.7507  -35.3462 H   0  0  0  0  0  0  0  0  0  0  0  0
   -4.4971   14.4884  -32.5531 H   0  0  0  0  0  0  0  0  0  0  0  0
   -5.2309   13.9471  -34.1008 H   0  0  0  0  0  0  0  0  0  0  0  0
   -3.6230   14.7480  -34.1008 H   0  0  0  0  0  0  0  0  0  0  0  0
   -6.4182   16.2319  -31.8732 H   0  0  0  0  0  0  0  0  0  0  0  0
  1  2  1  0
  2  3  1  0
  3  4  1  0
  4  5  1  0
  5  6  1  0
  6  7  1  0
  7  8  1  0
  8  9  1  0
  9 10  1  0
 10 11  1  0
 11 12  1  0
 12 13  1  0
  4 14  2  0
 14 15  1  0
 15 16  2  0
 16 17  1  0
 17 18  2  0
 18 19  1  0
 19 20  1  0
 20 21  1  0
 20 22  2  0
 16  3  1  0
 22 17  1  0
 13  8  1  0
  1 23  1  0
  1 24  1  0
  1 25  1  0
  2 26  1  0
  2 27  1  0
  6 28  1  0
  6 29  1  0
  7 30  1  0
  7 31  1  0
  9 32  1  0
  9 33  1  0
 10 34  1  0
 10 35  1  0
 12 36  1  0
 12 37  1  0
 13 38  1  0
 13 39  1  0
 18 40  1  0
 21 41  1  0
 21 42  1  0
 21 43  1  0
 22 44  1  0
M  END
>  <UniqueID>  (19) 
15

>  <SMILES>  (19) 
CCn1c(SCCN2CCOCC2)nnc1-c1coc(C)c1

>  <Energy>  (19) 
111.5891648962018

>  <Genealogy>  (19) 
CCn1c(SCCN2CCOCC2)nnc1-c1coc(C)c1 (3D coordinates assigned)
CCn1c(SCCN2CCOCC2)nnc1-c1coc(C)c1 (nonaromatic ring conformer: 111.5891648962018 kcal/mol)

>  <smiles>  (19) 
CCn1c(SCCN2CCOCC2)nnc1-c1coc(C)c1

>  <score_type>  (19) 
oracle

>  <origin>  (19) 
adg

>  <m_score__min__energy>  (19) 
-8.0099999999999998

>  <m_primary>  (19) 
energy

$$$$
19:0
     RDKit          3D

 29 30  0  0  0  0  0  0  0  0999 V2000
   -4.3060   21.0290  -31.9250 C   0  0  0  0  0  0  0  0  0  0  0  0
   -5.3440   21.6840  -32.7140 N   0  0  0  0  0  0  0  0  0  0  0  0
   -6.7500   21.6160  -32.3960 C   0  0  0  0  0  0  0  0  0  0  0  0
   -7.4530   22.7600  -31.9680 C   0  0  0  0  0  0  0  0  0  0  0  0
   -8.8040   22.6750  -31.6230 C   0  0  0  0  0  0  0  0  0  0  0  0
   -9.4720   21.4540  -31.6970 C   0  0  0  0  0  0  0  0  0  0  0  0
   -8.7930   20.3120  -32.1250 C   0  0  0  0  0  0  0  0  0  0  0  0
   -7.4380   20.3840  -32.4810 C   0  0  0  0  0  0  0  0  0  0  0  0
   -6.7790   19.2030  -32.9500 N   0  0  0  0  0  0  0  0  0  0  0  0
   -6.1110   19.1320  -34.2350 C   0  0  0  0  0  0  0  0  0  0  0  0
   -5.8560   17.6500  -34.4790 C   0  0  0  0  0  0  0  0  0  0  0  0
   -6.0670   16.9580  -33.1320 C   0  0  0  0  0  0  0  0  0  0  0  0
   -6.9060   17.9150  -32.2970 C   0  0  0  0  0  0  0  0  0  0  0  0
   -4.5194   21.1637  -30.8543 H   0  0  0  0  0  0  0  0  0  0  0  0
   -4.2873   19.9552  -32.1629 H   0  0  0  0  0  0  0  0  0  0  0  0
   -3.3287   21.4743  -32.1629 H   0  0  0  0  0  0  0  0  0  0  0  0
   -5.0290   22.2270  -33.5500 H   0  0  0  0  0  0  0  0  0  0  0  0
   -6.9337   23.7277  -31.9051 H   0  0  0  0  0  0  0  0  0  0  0  0
   -9.3426   23.5751  -31.2917 H   0  0  0  0  0  0  0  0  0  0  0  0
  -10.5342   21.3903  -31.4182 H   0  0  0  0  0  0  0  0  0  0  0  0
   -9.3234   19.3501  -32.1835 H   0  0  0  0  0  0  0  0  0  0  0  0
   -6.7533   19.5470  -35.0257 H   0  0  0  0  0  0  0  0  0  0  0  0
   -5.1774   19.7137  -34.2426 H   0  0  0  0  0  0  0  0  0  0  0  0
   -6.5634   17.2583  -35.2248 H   0  0  0  0  0  0  0  0  0  0  0  0
   -4.8419   17.4745  -34.8673 H   0  0  0  0  0  0  0  0  0  0  0  0
   -6.5984   16.0049  -33.2708 H   0  0  0  0  0  0  0  0  0  0  0  0
   -5.1093   16.7284  -32.6420 H   0  0  0  0  0  0  0  0  0  0  0  0
   -7.9576   17.5927  -32.2815 H   0  0  0  0  0  0  0  0  0  0  0  0
   -6.5690   17.9503  -31.2505 H   0  0  0  0  0  0  0  0  0  0  0  0
  1  2  1  0
  2  3  1  0
  3  4  2  0
  4  5  1  0
  5  6  2  0
  6  7  1  0
  7  8  2  0
  8  9  1  0
  9 10  1  0
 10 11  1  0
 11 12  1  0
 12 13  1  0
  8  3  1  0
 13  9  1  0
  1 14  1  0
  1 15  1  0
  1 16  1  0
  2 17  1  0
  4 18  1  0
  5 19  1  0
  6 20  1  0
  7 21  1  0
 10 22  1  0
 10 23  1  0
 11 24  1  0
 11 25  1  0
 12 26  1  0
 12 27  1  0
 13 28  1  0
 13 29  1  0
M  END
>  <UniqueID>  (20) 
16

>  <SMILES>  (20) 
CNc1ccccc1N1CCCC1

>  <Energy>  (20) 
33.0675537608576

>  <Genealogy>  (20) 
CNc1ccccc1N1CCCC1 (3D coordinates assigned)
CNc1ccccc1N1CCCC1 (nonaromatic ring conformer: 33.0675537608576 kcal/mol)

>  <smiles>  (20) 
CNc1ccccc1N1CCCC1

>  <score_type>  (20) 
oracle

>  <origin>  (20) 
adg

>  <m_score__min__energy>  (20) 
-5.6600000000000001

>  <m_primary>  (20) 
energy

$$$$
20:0
     RDKit          3D

 37 39  0  0  0  0  0  0  0  0999 V2000
   -9.2510   20.0490  -32.6350 C   0  0  0  0  0  0  0  0  0  0  0  0
   -8.7370   20.9940  -31.6320 N   0  0  0  0  0  0  0  0  0  0  0  0
   -9.8630   21.5700  -30.8770 C   0  0  0  0  0  0  0  0  0  0  0  0
   -7.9400   22.0470  -32.2940 C   0  0  0  0  0  0  0  0  0  0  0  0
   -6.5230   22.0590  -31.7820 C   0  0  0  0  0  0  0  0  0  0  0  0
   -5.5760   21.0270  -31.8430 C   0  0  0  0  0  0  0  0  0  0  0  0
   -5.7720   19.6800  -32.4210 C   0  0  0  0  0  0  0  0  0  0  0  0
   -6.1970   18.6250  -31.5980 C   0  0  0  0  0  0  0  0  0  0  0  0
   -6.3890   17.3460  -32.1310 C   0  0  0  0  0  0  0  0  0  0  0  0
   -6.1670   17.1130  -33.4910 C   0  0  0  0  0  0  0  0  0  0  0  0
   -6.4300   15.3670  -34.2180 Br  0  0  0  0  0  0  0  0  0  0  0  0
   -5.7620   18.1630  -34.3210 C   0  0  0  0  0  0  0  0  0  0  0  0
   -5.5700   19.4420  -33.7900 C   0  0  0  0  0  0  0  0  0  0  0  0
   -4.3840   21.4510  -31.3600 N   0  0  0  0  0  0  0  0  0  0  0  0
   -4.5640   22.7270  -30.9850 C   0  0  0  0  0  0  0  0  0  0  0  0
   -3.6120   23.5870  -30.4390 C   0  0  0  0  0  0  0  0  0  0  0  0
   -4.0080   24.9030  -30.1400 C   0  0  0  0  0  0  0  0  0  0  0  0
   -5.3290   25.3290  -30.3970 C   0  0  0  0  0  0  0  0  0  0  0  0
   -6.2680   24.4400  -30.9530 C   0  0  0  0  0  0  0  0  0  0  0  0
   -5.8510   23.1360  -31.2290 C   0  0  0  0  0  0  0  0  0  0  0  0
   -9.7171   19.1921  -32.1265 H   0  0  0  0  0  0  0  0  0  0  0  0
   -9.9992   20.5532  -33.2643 H   0  0  0  0  0  0  0  0  0  0  0  0
   -8.4212   19.6949  -33.2643 H   0  0  0  0  0  0  0  0  0  0  0  0
   -9.6700   21.4713  -29.7986 H   0  0  0  0  0  0  0  0  0  0  0  0
   -9.9709   22.6340  -31.1343 H   0  0  0  0  0  0  0  0  0  0  0  0
  -10.7890   21.0348  -31.1343 H   0  0  0  0  0  0  0  0  0  0  0  0
   -7.9285   21.8605  -33.3780 H   0  0  0  0  0  0  0  0  0  0  0  0
   -8.3988   23.0222  -32.0737 H   0  0  0  0  0  0  0  0  0  0  0  0
   -6.3800   18.8051  -30.5284 H   0  0  0  0  0  0  0  0  0  0  0  0
   -6.7152   16.5225  -31.4788 H   0  0  0  0  0  0  0  0  0  0  0  0
   -5.5943   17.9824  -35.3930 H   0  0  0  0  0  0  0  0  0  0  0  0
   -5.2589   20.2665  -34.4484 H   0  0  0  0  0  0  0  0  0  0  0  0
   -3.4980   20.9000  -31.2970 H   0  0  0  0  0  0  0  0  0  0  0  0
   -2.5835   23.2469  -30.2481 H   0  0  0  0  0  0  0  0  0  0  0  0
   -3.2831   25.6054  -29.7027 H   0  0  0  0  0  0  0  0  0  0  0  0
   -5.6263   26.3615  -30.1614 H   0  0  0  0  0  0  0  0  0  0  0  0
   -7.2984   24.7623  -31.1636 H   0  0  0  0  0  0  0  0  0  0  0  0
  1  2  1  0
  2  3  1  0
  2  4  1  0
  4  5  1  0
  5  6  2  0
  6  7  1  0
  7  8  2  0
  8  9  1  0
  9 10  2  0
 10 11  1  0
 10 12  1  0
 12 13  2  0
  6 14  1  0
 14 15  1  0
 15 16  2  0
 16 17  1  0
 17 18  2  0
 18 19  1  0
 19 20  2  0
 20  5  1  0
 13  7  1  0
 20 15  1  0
  1 21  1  0
  1 22  1  0
  1 23  1  0
  3 24  1  0
  3 25  1  0
  3 26  1  0
  4 27  1  0
  4 28  1  0
  8 29  1  0
  9 30  1  0
 12 31  1  0
 13 32  1  0
 14 33  1  0
 16 34  1  0
 17 35  1  0
 18 36  1  0
 19 37  1  0
M  END
>  <UniqueID>  (21) 
17

>  <SMILES>  (21) 
CN(C)Cc1c(-c2ccc(Br)cc2)[nH]c2ccccc12

>  <Energy>  (21) 
75.95341261348247

>  <Genealogy>  (21) 
CN(C)Cc1c(-c2ccc(Br)cc2)[nH]c2ccccc12 (3D coordinates assigned)
CN(C)Cc1c(-c2ccc(Br)cc2)[nH]c2ccccc12 (optimized conformer: 75.95341261348247 kcal/mol)

>  <smiles>  (21) 
CN(C)Cc1c(-c2ccc(Br)cc2)[nH]c2ccccc12

>  <score_type>  (21) 
oracle

>  <origin>  (21) 
adg

>  <m_score__min__energy>  (21) 
-7.54

>  <m_primary>  (21) 
energy

$$$$
21:0
     RDKit          3D

 48 51  0  0  0  0  0  0  0  0999 V2000
  -10.1454   20.1320  -32.0223 H   0  0  0  0  0  0  0  0  0  0  0  0
   -9.1050   20.4580  -32.1680 C   0  0  0  0  0  0  0  0  0  0  0  0
   -8.7190   21.7470  -31.7940 C   0  0  0  0  0  0  0  0  0  0  0  0
   -9.4580   22.4363  -31.3596 H   0  0  0  0  0  0  0  0  0  0  0  0
   -7.3960   22.1640  -31.9700 C   0  0  0  0  0  0  0  0  0  0  0  0
   -6.9390   23.7930  -31.4900 Cl  0  0  0  0  0  0  0  0  0  0  0  0
   -6.4450   21.2810  -32.5100 C   0  0  0  0  0  0  0  0  0  0  0  0
   -5.0930   21.7240  -32.7020 N   0  0  0  0  0  0  0  0  0  0  0  0
   -4.1410   21.7260  -31.8070 C   0  0  0  0  0  0  0  0  0  0  0  0
   -4.4040   22.0060  -30.4600 C   0  0  0  0  0  0  0  0  0  0  0  0
   -5.4315   22.2299  -30.1373 H   0  0  0  0  0  0  0  0  0  0  0  0
   -3.3730   22.0020  -29.5310 C   0  0  0  0  0  0  0  0  0  0  0  0
   -3.6015   22.2125  -28.4758 H   0  0  0  0  0  0  0  0  0  0  0  0
   -2.0800   21.7430  -29.8940 N   0  0  0  0  0  0  0  0  0  0  0  0
   -1.0810   21.7360  -28.8020 C   0  0  0  0  0  0  0  0  0  0  0  0
   -1.5983   21.5920  -27.8420 H   0  0  0  0  0  0  0  0  0  0  0  0
   -0.3696   20.9167  -28.9828 H   0  0  0  0  0  0  0  0  0  0  0  0
   -0.3040   23.0580  -28.7600 C   0  0  0  0  0  0  0  0  0  0  0  0
    0.7744   22.8454  -28.8039 H   0  0  0  0  0  0  0  0  0  0  0  0
   -0.6050   23.6744  -29.6199 H   0  0  0  0  0  0  0  0  0  0  0  0
   -0.6040   23.7980  -27.5130 N   0  0  0  0  0  0  0  0  0  0  0  0
   -2.0520   23.9020  -27.2560 C   0  0  0  0  0  0  0  0  0  0  0  0
   -2.5046   22.9045  -27.3564 H   0  0  0  0  0  0  0  0  0  0  0  0
   -2.1927   24.2977  -26.2393 H   0  0  0  0  0  0  0  0  0  0  0  0
   -2.7410   24.8680  -28.2500 C   0  0  0  0  0  0  0  0  0  0  0  0
   -3.3226   24.2739  -28.9703 H   0  0  0  0  0  0  0  0  0  0  0  0
   -3.3813   25.5429  -27.6630 H   0  0  0  0  0  0  0  0  0  0  0  0
   -1.8210   25.6730  -28.9670 O   0  0  0  0  0  0  0  0  0  0  0  0
   -0.8750   26.2320  -28.0790 C   0  0  0  0  0  0  0  0  0  0  0  0
   -0.2536   26.9577  -28.6241 H   0  0  0  0  0  0  0  0  0  0  0  0
   -1.4127   26.7288  -27.2580 H   0  0  0  0  0  0  0  0  0  0  0  0
    0.0320   25.1360  -27.4840 C   0  0  0  0  0  0  0  0  0  0  0  0
    0.9652   25.0960  -28.0650 H   0  0  0  0  0  0  0  0  0  0  0  0
    0.2225   25.3936  -26.4317 H   0  0  0  0  0  0  0  0  0  0  0  0
   -1.7740   21.4600  -31.2150 C   0  0  0  0  0  0  0  0  0  0  0  0
   -0.4540   21.1660  -31.6380 C   0  0  0  0  0  0  0  0  0  0  0  0
    0.3621   21.1600  -30.9004 H   0  0  0  0  0  0  0  0  0  0  0  0
   -0.1730   20.8840  -32.9750 C   0  0  0  0  0  0  0  0  0  0  0  0
    0.8591   20.6570  -33.2804 H   0  0  0  0  0  0  0  0  0  0  0  0
   -1.1890   20.8880  -33.9240 C   0  0  0  0  0  0  0  0  0  0  0  0
   -0.9050   20.6130  -35.2210 F   0  0  0  0  0  0  0  0  0  0  0  0
   -2.4980   21.1690  -33.5420 C   0  0  0  0  0  0  0  0  0  0  0  0
   -3.2970   21.1674  -34.2980 H   0  0  0  0  0  0  0  0  0  0  0  0
   -2.8120   21.4560  -32.1960 C   0  0  0  0  0  0  0  0  0  0  0  0
   -6.8440   19.9880  -32.9070 C   0  0  0  0  0  0  0  0  0  0  0  0
   -5.7100   18.8750  -33.6620 Cl  0  0  0  0  0  0  0  0  0  0  0  0
   -8.1710   19.5820  -32.7270 C   0  0  0  0  0  0  0  0  0  0  0  0
   -8.4799   18.5697  -33.0266 H   0  0  0  0  0  0  0  0  0  0  0  0
  1  2  1  0
  2  3  2  0
  3  4  1  0
  3  5  1  0
  5  6  1  0
  5  7  2  0
  7  8  1  0
  8  9  2  0
  9 10  1  0
 10 11  1  0
 10 12  2  0
 12 13  1  0
 12 14  1  0
 14 15  1  0
 15 16  1  0
 15 17  1  0
 15 18  1  0
 18 19  1  0
 18 20  1  0
 18 21  1  0
 21 22  1  0
 22 23  1  0
 22 24  1  0
 22 25  1  0
 25 26  1  0
 25 27  1  0
 25 28  1  0
 28 29  1  0
 29 30  1  0
 29 31  1  0
 29 32  1  0
 32 33  1  0
 32 34  1  0
 14 35  1  0
 35 36  2  0
 36 37  1  0
 36 38  1  0
 38 39  1  0
 38 40  2  0
 40 41  1  0
 40 42  1  0
 42 43  1  0
 42 44  2  0
  7 45  1  0
 45 46  1  0
 45 47  2  0
 47 48  1  0
 47  2  1  0
 44  9  1  0
 32 21  1  0
 44 35  1  0
M  END
>  <UniqueID>  (22) 
18

>  <SMILES>  (22) 
Fc1ccc2c(c1)/c(=N/c1c(Cl)cccc1Cl)ccn2CCN1CCOCC1

>  <Energy>  (22) 
83.35700852609955

>  <Genealogy>  (22) 
Fc1ccc2c(c1)/c(=N/c1c(Cl)cccc1Cl)ccn2CCN1CCOCC1 (cis-trans isomerization)
Fc1ccc2c(c1)/c(=N/c1c(Cl)cccc1Cl)ccn2CCN1CCOCC1 (3D coordinates assigned)
Fc1ccc2c(c1)/c(=N/c1c(Cl)cccc1Cl)ccn2CCN1CCOCC1 (nonaromatic ring conformer: 83.35700852609955 kcal/mol)

>  <smiles>  (22) 
Fc1ccc2c(c1)c(=Nc1c(Cl)cccc1Cl)ccn2CCN1CCOCC1

>  <score_type>  (22) 
oracle

>  <origin>  (22) 
adg

>  <m_score__min__energy>  (22) 
-8.8900000000000006

>  <m_primary>  (22) 
energy

$$$$
22:0
     RDKit          3D

 49 52  0  0  0  0  0  0  0  0999 V2000
   -0.2147   23.9287  -25.9948 H   0  0  0  0  0  0  0  0  0  0  0  0
   -0.8820   24.2180  -26.8200 C   0  0  0  0  0  0  0  0  0  0  0  0
   -2.2240   23.8270  -26.8040 C   0  0  0  0  0  0  0  0  0  0  0  0
   -2.6150   23.2380  -25.9613 H   0  0  0  0  0  0  0  0  0  0  0  0
   -3.0690   24.1840  -27.8580 C   0  0  0  0  0  0  0  0  0  0  0  0
   -4.1279   23.8872  -27.8332 H   0  0  0  0  0  0  0  0  0  0  0  0
   -2.5780   24.9170  -28.9460 C   0  0  0  0  0  0  0  0  0  0  0  0
   -3.4880   25.2910  -29.9950 N   0  0  0  0  0  0  0  0  0  0  0  0
   -4.3730   24.5290  -30.5710 C   0  0  0  0  0  0  0  0  0  0  0  0
   -4.0260   23.3380  -31.1320 N   0  0  0  0  0  0  0  0  0  0  0  0
   -4.9520   22.5320  -31.7130 C   0  0  0  0  0  0  0  0  0  0  0  0
   -4.5770   21.3170  -32.2900 C   0  0  0  0  0  0  0  0  0  0  0  0
   -3.5239   20.9994  -32.2789 H   0  0  0  0  0  0  0  0  0  0  0  0
   -5.5580   20.5020  -32.8860 C   0  0  0  0  0  0  0  0  0  0  0  0
   -5.2110   19.2000  -33.5110 C   0  0  0  0  0  0  0  0  0  0  0  0
   -3.8790   18.9220  -33.8460 C   0  0  0  0  0  0  0  0  0  0  0  0
   -3.1033   19.6757  -33.6454 H   0  0  0  0  0  0  0  0  0  0  0  0
   -3.5150   17.6950  -34.4350 C   0  0  0  0  0  0  0  0  0  0  0  0
   -2.1790   17.4290  -34.7750 O   0  0  0  0  0  0  0  0  0  0  0  0
   -1.0420   18.0300  -34.1640 C   0  0  0  0  0  0  0  0  0  0  0  0
   -1.1427   17.9768  -33.0699 H   0  0  0  0  0  0  0  0  0  0  0  0
   -0.1328   17.4947  -34.4750 H   0  0  0  0  0  0  0  0  0  0  0  0
   -0.9722   19.0828  -34.4750 H   0  0  0  0  0  0  0  0  0  0  0  0
   -4.5170   16.7230  -34.6850 C   0  0  0  0  0  0  0  0  0  0  0  0
   -4.2600   15.4680  -35.2710 O   0  0  0  0  0  0  0  0  0  0  0  0
   -3.2030   14.5750  -34.9380 C   0  0  0  0  0  0  0  0  0  0  0  0
   -3.1160   14.5015  -33.8439 H   0  0  0  0  0  0  0  0  0  0  0  0
   -3.4176   13.5806  -35.3564 H   0  0  0  0  0  0  0  0  0  0  0  0
   -2.2584   14.9527  -35.3564 H   0  0  0  0  0  0  0  0  0  0  0  0
   -5.8500   16.9940  -34.3380 C   0  0  0  0  0  0  0  0  0  0  0  0
   -6.8140   16.0030  -34.5920 O   0  0  0  0  0  0  0  0  0  0  0  0
   -6.6910   14.6360  -34.2130 C   0  0  0  0  0  0  0  0  0  0  0  0
   -6.6841   14.5589  -33.1157 H   0  0  0  0  0  0  0  0  0  0  0  0
   -7.5415   14.0660  -34.6152 H   0  0  0  0  0  0  0  0  0  0  0  0
   -5.7524   14.2270  -34.6152 H   0  0  0  0  0  0  0  0  0  0  0  0
   -6.1900   18.2250  -33.7510 C   0  0  0  0  0  0  0  0  0  0  0  0
   -7.2361   18.4260  -33.4767 H   0  0  0  0  0  0  0  0  0  0  0  0
   -6.8600   20.9120  -32.8730 N   0  0  0  0  0  0  0  0  0  0  0  0
   -7.2490   22.0890  -32.3160 C   0  0  0  0  0  0  0  0  0  0  0  0
   -8.3095   22.3809  -32.3307 H   0  0  0  0  0  0  0  0  0  0  0  0
   -6.3000   22.9290  -31.7240 C   0  0  0  0  0  0  0  0  0  0  0  0
   -6.6540   24.1140  -31.1530 N   0  0  0  0  0  0  0  0  0  0  0  0
   -7.6530   24.4220  -31.1490 H   0  0  0  0  0  0  0  0  0  0  0  0
   -5.7190   24.9180  -30.5750 C   0  0  0  0  0  0  0  0  0  0  0  0
   -6.0196   25.8698  -30.1127 H   0  0  0  0  0  0  0  0  0  0  0  0
   -1.2320   25.3350  -28.9400 C   0  0  0  0  0  0  0  0  0  0  0  0
   -0.8436   25.9455  -29.7686 H   0  0  0  0  0  0  0  0  0  0  0  0
   -0.3890   24.9760  -27.8840 C   0  0  0  0  0  0  0  0  0  0  0  0
    0.6648   25.2913  -27.8914 H   0  0  0  0  0  0  0  0  0  0  0  0
  1  2  1  0
  2  3  2  0
  3  4  1  0
  3  5  1  0
  5  6  1  0
  5  7  2  0
  7  8  1  0
  8  9  2  0
  9 10  1  0
 10 11  1  0
 11 12  2  0
 12 13  1  0
 12 14  1  0
 14 15  1  0
 15 16  2  0
 16 17  1  0
 16 18  1  0
 18 19  1  0
 19 20  1  0
 20 21  1  0
 20 22  1  0
 20 23  1  0
 18 24  2  0
 24 25  1  0
 25 26  1  0
 26 27  1  0
 26 28  1  0
 26 29  1  0
 24 30  1  0
 30 31  1  0
 31 32  1  0
 32 33  1  0
 32 34  1  0
 32 35  1  0
 30 36  2  0
 36 37  1  0
 14 38  2  0
 38 39  1  0
 39 40  1  0
 39 41  2  0
 41 42  1  0
 42 43  1  0
 42 44  2  0
 44 45  1  0
  7 46  1  0
 46 47  1  0
 46 48  2  0
 48 49  1  0
 48  2  1  0
 44  9  1  0
 41 11  1  0
 36 15  1  0
M  CHG  2  10  -1  42   1
M  END
>  <UniqueID>  (23) 
19

>  <SMILES>  (23) 
COc1cc(-c2cc3[n-]/c(=N\c4ccccc4)c[nH+]c3cn2)cc(OC)c1OC

>  <Energy>  (23) 
69.72596725141777

>  <Genealogy>  (23) 
COc1cc(-c2cc3[n-]c(=Nc4ccccc4)c[nH+]c3cn2)cc(OC)c1OC (protonated)
COc1cc(-c2cc3[n-]/c(=N\c4ccccc4)c[nH+]c3cn2)cc(OC)c1OC (cis-trans isomerization)
COc1cc(-c2cc3[n-]/c(=N\c4ccccc4)c[nH+]c3cn2)cc(OC)c1OC (3D coordinates assigned)
COc1cc(-c2cc3[n-]/c(=N\c4ccccc4)c[nH+]c3cn2)cc(OC)c1OC (optimized conformer: 69.72596725141777 kcal/mol)

>  <smiles>  (23) 
COc1cc(-c2cc3[nH]c(=Nc4ccccc4)cnc3cn2)cc(OC)c1OC

>  <score_type>  (23) 
oracle

>  <origin>  (23) 
adg

>  <m_score__min__energy>  (23) 
-7.6100000000000003

>  <m_primary>  (23) 
energy

$$$$
23:0
     RDKit          3D

 38 40  0  0  0  0  0  0  0  0999 V2000
   -2.0220   21.2480  -32.4240 C   0  0  0  0  0  0  0  0  0  0  0  0
   -2.5680   22.3560  -31.7130 O   0  0  0  0  0  0  0  0  0  0  0  0
   -3.9380   22.5950  -31.5220 C   0  0  0  0  0  0  0  0  0  0  0  0
   -4.9030   21.6890  -32.0070 C   0  0  0  0  0  0  0  0  0  0  0  0
   -6.2740   21.9310  -31.8350 C   0  0  0  0  0  0  0  0  0  0  0  0
   -7.2870   20.9770  -32.3400 C   0  0  0  0  0  0  0  0  0  0  0  0
   -8.5060   21.2970  -32.2920 O   0  0  0  0  0  0  0  0  0  0  0  0
   -6.9170   19.6700  -32.9200 C   0  0  0  0  0  0  0  0  0  0  0  0
   -6.4330   19.4620  -34.2090 C   0  0  0  0  0  0  0  0  0  0  0  0
   -6.1150   18.1720  -34.4960 N   0  0  0  0  0  0  0  0  0  0  0  0
   -6.3190   17.3310  -33.4530 C   0  0  0  0  0  0  0  0  0  0  0  0
   -6.0580   15.8700  -33.4800 C   0  0  0  0  0  0  0  0  0  0  0  0
   -4.9780   15.3270  -32.7600 C   0  0  0  0  0  0  0  0  0  0  0  0
   -4.7440   13.9500  -32.7940 C   0  0  0  0  0  0  0  0  0  0  0  0
   -5.5520   13.1360  -33.5210 N   0  0  0  0  0  0  0  0  0  0  0  0
   -6.6010   13.6290  -34.2310 C   0  0  0  0  0  0  0  0  0  0  0  0
   -6.8730   15.0000  -34.2260 C   0  0  0  0  0  0  0  0  0  0  0  0
   -6.9130   18.1840  -32.1250 S   0  0  0  0  0  0  0  0  0  0  0  0
   -6.6820   23.0710  -31.1330 C   0  0  0  0  0  0  0  0  0  0  0  0
   -5.7400   23.9770  -30.6420 C   0  0  0  0  0  0  0  0  0  0  0  0
   -6.3590   25.5290  -29.7060 Br  0  0  0  0  0  0  0  0  0  0  0  0
   -4.3650   23.7590  -30.8310 C   0  0  0  0  0  0  0  0  0  0  0  0
   -3.4860   24.7270  -30.3090 O   0  0  0  0  0  0  0  0  0  0  0  0
   -2.5650   24.5480  -29.2390 C   0  0  0  0  0  0  0  0  0  0  0  0
   -1.6528   20.4989  -31.7081 H   0  0  0  0  0  0  0  0  0  0  0  0
   -2.8015   20.7980  -33.0563 H   0  0  0  0  0  0  0  0  0  0  0  0
   -1.1902   21.5920  -33.0563 H   0  0  0  0  0  0  0  0  0  0  0  0
   -4.5756   20.7776  -32.5287 H   0  0  0  0  0  0  0  0  0  0  0  0
   -6.3171   20.2777  -34.9378 H   0  0  0  0  0  0  0  0  0  0  0  0
   -5.7690   17.8820  -35.4370 H   0  0  0  0  0  0  0  0  0  0  0  0
   -4.3202   15.9843  -32.1724 H   0  0  0  0  0  0  0  0  0  0  0  0
   -3.9017   13.5235  -32.2295 H   0  0  0  0  0  0  0  0  0  0  0  0
   -7.2385   12.9462  -34.8119 H   0  0  0  0  0  0  0  0  0  0  0  0
   -7.7211   15.3968  -34.8033 H   0  0  0  0  0  0  0  0  0  0  0  0
   -7.7537   23.2547  -30.9667 H   0  0  0  0  0  0  0  0  0  0  0  0
   -3.0932   24.6506  -28.2796 H   0  0  0  0  0  0  0  0  0  0  0  0
   -2.1163   23.5458  -29.3052 H   0  0  0  0  0  0  0  0  0  0  0  0
   -1.7736   25.3091  -29.3052 H   0  0  0  0  0  0  0  0  0  0  0  0
  1  2  1  0
  2  3  1  0
  3  4  2  0
  4  5  1  0
  5  6  1  0
  6  7  2  0
  6  8  1  0
  8  9  2  0
  9 10  1  0
 10 11  2  0
 11 12  1  0
 12 13  2  0
 13 14  1  0
 14 15  2  0
 15 16  1  0
 16 17  2  0
 11 18  1  0
  5 19  2  0
 19 20  1  0
 20 21  1  0
 20 22  2  0
 22 23  1  0
 23 24  1  0
 22  3  1  0
 18  8  1  0
 17 12  1  0
  1 25  1  0
  1 26  1  0
  1 27  1  0
  4 28  1  0
  9 29  1  0
 10 30  1  0
 13 31  1  0
 14 32  1  0
 16 33  1  0
 17 34  1  0
 19 35  1  0
 24 36  1  0
 24 37  1  0
 24 38  1  0
M  CHG  1  10   1
M  END
>  <UniqueID>  (24) 
20

>  <SMILES>  (24) 
COc1cc(C(=O)c2c[nH+]c(-c3ccncc3)s2)cc(Br)c1OC

>  <Energy>  (24) 
79.59314808278602

>  <Genealogy>  (24) 
COc1cc(C(=O)c2c[nH+]c(-c3ccncc3)s2)cc(Br)c1OC (protonated)
COc1cc(C(=O)c2c[nH+]c(-c3ccncc3)s2)cc(Br)c1OC (3D coordinates assigned)
COc1cc(C(=O)c2c[nH+]c(-c3ccncc3)s2)cc(Br)c1OC (optimized conformer: 79.59314808278602 kcal/mol)

>  <smiles>  (24) 
COc1cc(C(=O)c2cnc(-c3ccncc3)s2)cc(Br)c1OC

>  <score_type>  (24) 
oracle

>  <origin>  (24) 
adg

>  <m_score__min__energy>  (24) 
-7.5599999999999996

>  <m_primary>  (24) 
energy

$$$$
24:0
     RDKit          3D

 37 39  0  0  0  0  0  0  0  0999 V2000
   -6.6810   25.6380  -29.3300 C   0  0  0  0  0  0  0  0  0  0  0  0
   -5.7320   25.9810  -30.4730 C   0  0  0  0  0  0  0  0  0  0  0  0
   -4.8600   24.8000  -30.8090 C   0  0  0  0  0  0  0  0  0  0  0  0
   -3.6250   24.8820  -30.5670 O   0  0  0  0  0  0  0  0  0  0  0  0
   -5.3870   23.6200  -31.4530 N   0  0  0  0  0  0  0  0  0  0  0  0
   -4.4560   22.6920  -32.1310 C   0  0  0  0  0  0  0  0  0  0  0  0
   -4.8290   21.2280  -31.8570 C   0  0  0  0  0  0  0  0  0  0  0  0
   -6.2920   21.0330  -32.1030 C   0  0  0  0  0  0  0  0  0  0  0  0
   -7.2060   22.0440  -31.9420 C   0  0  0  0  0  0  0  0  0  0  0  0
   -8.4630   21.4820  -32.0150 C   0  0  0  0  0  0  0  0  0  0  0  0
   -8.3470   20.1520  -32.1920 N   0  0  0  0  0  0  0  0  0  0  0  0
   -7.0280   19.8640  -32.2420 C   0  0  0  0  0  0  0  0  0  0  0  0
   -6.5000   18.4890  -32.3580 C   0  0  0  0  0  0  0  0  0  0  0  0
   -6.2110   17.9500  -33.6190 C   0  0  0  0  0  0  0  0  0  0  0  0
   -5.7000   16.6560  -33.7250 C   0  0  0  0  0  0  0  0  0  0  0  0
   -5.4710   15.9130  -32.5650 C   0  0  0  0  0  0  0  0  0  0  0  0
   -5.7360   16.4540  -31.3450 N   0  0  0  0  0  0  0  0  0  0  0  0
   -6.2360   17.7140  -31.2180 C   0  0  0  0  0  0  0  0  0  0  0  0
   -6.8450   23.4680  -31.6440 C   0  0  0  0  0  0  0  0  0  0  0  0
   -6.1780   25.8198  -28.3688 H   0  0  0  0  0  0  0  0  0  0  0  0
   -7.5801   26.2680  -29.3983 H   0  0  0  0  0  0  0  0  0  0  0  0
   -6.9695   24.5787  -29.3983 H   0  0  0  0  0  0  0  0  0  0  0  0
   -6.3199   26.2605  -31.3597 H   0  0  0  0  0  0  0  0  0  0  0  0
   -5.0907   26.8191  -30.1627 H   0  0  0  0  0  0  0  0  0  0  0  0
   -4.4943   22.8746  -33.2151 H   0  0  0  0  0  0  0  0  0  0  0  0
   -3.4429   22.8708  -31.7416 H   0  0  0  0  0  0  0  0  0  0  0  0
   -4.2537   20.5714  -32.5262 H   0  0  0  0  0  0  0  0  0  0  0  0
   -4.5961   20.9793  -30.8111 H   0  0  0  0  0  0  0  0  0  0  0  0
   -9.4118   22.0335  -31.9404 H   0  0  0  0  0  0  0  0  0  0  0  0
   -9.1370   19.4720  -32.2600 H   0  0  0  0  0  0  0  0  0  0  0  0
   -6.3871   18.5474  -34.5257 H   0  0  0  0  0  0  0  0  0  0  0  0
   -5.4796   16.2252  -34.7129 H   0  0  0  0  0  0  0  0  0  0  0  0
   -5.0759   14.8890  -32.6377 H   0  0  0  0  0  0  0  0  0  0  0  0
   -5.5440   15.8920  -30.4860 H   0  0  0  0  0  0  0  0  0  0  0  0
   -6.4339   18.1264  -30.2176 H   0  0  0  0  0  0  0  0  0  0  0  0
   -7.1652   24.1027  -32.4834 H   0  0  0  0  0  0  0  0  0  0  0  0
   -7.3517   23.7693  -30.7153 H   0  0  0  0  0  0  0  0  0  0  0  0
  1  2  1  0
  2  3  1  0
  3  4  2  0
  3  5  1  0
  5  6  1  0
  6  7  1  0
  7  8  1  0
  8  9  1  0
  9 10  2  0
 10 11  1  0
 11 12  1  0
 12 13  1  0
 13 14  2  0
 14 15  1  0
 15 16  2  0
 16 17  1  0
 17 18  2  0
  9 19  1  0
 19  5  1  0
 12  8  2  0
 18 13  1  0
  1 20  1  0
  1 21  1  0
  1 22  1  0
  2 23  1  0
  2 24  1  0
  6 25  1  0
  6 26  1  0
  7 27  1  0
  7 28  1  0
 10 29  1  0
 11 30  1  0
 14 31  1  0
 15 32  1  0
 16 33  1  0
 17 34  1  0
 18 35  1  0
 19 36  1  0
 19 37  1  0
M  CHG  1  17   1
M  END
>  <UniqueID>  (25) 
21

>  <SMILES>  (25) 
CCC(=O)N1CCc2c(c[nH]c2-c2ccc[nH+]c2)C1

>  <Energy>  (25) 
70.16899078333554

>  <Genealogy>  (25) 
CCC(=O)N1CCc2c(c[nH]c2-c2ccc[nH+]c2)C1 (protonated)
CCC(=O)N1CCc2c(c[nH]c2-c2ccc[nH+]c2)C1 (3D coordinates assigned)
CCC(=O)N1CCc2c(c[nH]c2-c2ccc[nH+]c2)C1 (nonaromatic ring conformer: 70.16899078333554 kcal/mol)

>  <smiles>  (25) 
CCC(=O)N1CCc2c(c[nH]c2-c2cccnc2)C1

>  <score_type>  (25) 
oracle

>  <origin>  (25) 
adg

>  <m_score__min__energy>  (25) 
-7.54

>  <m_primary>  (25) 
energy

$$$$
25:0
     RDKit          3D

 29 30  0  0  0  0  0  0  0  0999 V2000
   -5.8840   19.0130  -34.0550 C   0  0  0  0  0  0  0  0  0  0  0  0
   -6.9860   19.3390  -33.1000 C   0  0  0  0  0  0  0  0  0  0  0  0
   -7.7400   18.3290  -32.4960 C   0  0  0  0  0  0  0  0  0  0  0  0
   -8.7310   18.7430  -31.6330 C   0  0  0  0  0  0  0  0  0  0  0  0
   -8.9950   20.0650  -31.3560 C   0  0  0  0  0  0  0  0  0  0  0  0
   -8.2630   21.0490  -31.9410 C   0  0  0  0  0  0  0  0  0  0  0  0
   -8.4240   22.4990  -31.7260 C   0  0  0  0  0  0  0  0  0  0  0  0
   -7.2330   23.4450  -32.6870 S   0  0  0  0  0  0  0  0  0  0  0  0
   -5.6070   23.3420  -32.0000 C   0  0  0  0  0  0  0  0  0  0  0  0
   -5.0970   24.1590  -31.0790 N   0  0  0  0  0  0  0  0  0  0  0  0
   -3.8590   24.0800  -30.5630 C   0  0  0  0  0  0  0  0  0  0  0  0
   -3.4550   24.9200  -29.6680 N   0  0  0  0  0  0  0  0  0  0  0  0
   -3.0390   23.0650  -31.0240 C   0  0  0  0  0  0  0  0  0  0  0  0
   -3.5380   22.1890  -31.9880 C   0  0  0  0  0  0  0  0  0  0  0  0
   -2.5210   20.8910  -32.5920 Cl  0  0  0  0  0  0  0  0  0  0  0  0
   -4.8050   22.3360  -32.4610 N   0  0  0  0  0  0  0  0  0  0  0  0
   -7.2550   20.6540  -32.8190 C   0  0  0  0  0  0  0  0  0  0  0  0
   -4.9780   18.7450  -33.4917 H   0  0  0  0  0  0  0  0  0  0  0  0
   -6.1862   18.1658  -34.6882 H   0  0  0  0  0  0  0  0  0  0  0  0
   -5.6766   19.8883  -34.6882 H   0  0  0  0  0  0  0  0  0  0  0  0
   -7.5528   17.2641  -32.6982 H   0  0  0  0  0  0  0  0  0  0  0  0
   -9.3444   17.9753  -31.1386 H   0  0  0  0  0  0  0  0  0  0  0  0
   -9.8032   20.3265  -30.6571 H   0  0  0  0  0  0  0  0  0  0  0  0
   -9.4403   22.7941  -32.0261 H   0  0  0  0  0  0  0  0  0  0  0  0
   -8.2531   22.7107  -30.6602 H   0  0  0  0  0  0  0  0  0  0  0  0
   -4.0530   25.3410  -28.9540 H   0  0  0  0  0  0  0  0  0  0  0  0
   -2.0151   22.9514  -30.6383 H   0  0  0  0  0  0  0  0  0  0  0  0
   -5.1510   21.6600  -33.1860 H   0  0  0  0  0  0  0  0  0  0  0  0
   -6.6489   21.4310  -33.3078 H   0  0  0  0  0  0  0  0  0  0  0  0
  1  2  1  0
  2  3  2  0
  3  4  1  0
  4  5  2  0
  5  6  1  0
  6  7  1  0
  7  8  1  0
  8  9  1  0
  9 10  2  0
 10 11  1  0
 11 12  2  3
 11 13  1  0
 13 14  2  0
 14 15  1  0
 14 16  1  0
  6 17  2  0
 17  2  1  0
 16  9  1  0
  1 18  1  0
  1 19  1  0
  1 20  1  0
  3 21  1  0
  4 22  1  0
  5 23  1  0
  7 24  1  0
  7 25  1  0
 12 26  1  0
 13 27  1  0
 16 28  1  0
 17 29  1  0
M  END
>  <smiles>  (26) 
Cc1cccc(CSc2nc(=N)cc(Cl)[nH]2)c1

>  <score_type>  (26) 
oracle

>  <origin>  (26) 
adg

>  <m_score__min__energy>  (26) 
-7.4000000000000004

>  <m_primary>  (26) 
energy

$$$$
26:0
     RDKit          3D

 39 42  0  0  0  0  0  0  0  0999 V2000
   -6.4440   17.6420  -31.2950 C   0  0  0  0  0  0  0  0  0  0  0  0
   -6.9130   18.2560  -32.6090 C   0  0  0  0  0  0  0  0  0  0  0  0
   -7.8020   19.4350  -32.3530 C   0  0  0  0  0  0  0  0  0  0  0  0
   -9.1290   19.3350  -32.1130 N   0  0  0  0  0  0  0  0  0  0  0  0
   -9.5660   20.5750  -31.9410 N   0  0  0  0  0  0  0  0  0  0  0  0
   -8.5170   21.4030  -32.0750 C   0  0  0  0  0  0  0  0  0  0  0  0
   -7.4010   20.7230  -32.3600 N   0  0  0  0  0  0  0  0  0  0  0  0
   -6.0630   21.2940  -32.4840 C   0  0  0  0  0  0  0  0  0  0  0  0
   -6.1280   22.8350  -32.5430 C   0  0  0  0  0  0  0  0  0  0  0  0
   -7.1800   23.4200  -31.6730 N   0  0  0  0  0  0  0  0  0  0  0  0
   -6.8100   23.5620  -30.2460 C   0  0  0  0  0  0  0  0  0  0  0  0
   -5.3930   24.0060  -30.0340 C   0  0  0  0  0  0  0  0  0  0  0  0
   -4.6600   23.7030  -28.9450 N   0  0  0  0  0  0  0  0  0  0  0  0
   -3.4810   24.2800  -29.2530 C   0  0  0  0  0  0  0  0  0  0  0  0
   -2.2900   24.1870  -28.4020 C   0  0  0  0  0  0  0  0  0  0  0  0
   -1.2270   25.0810  -28.3830 C   0  0  0  0  0  0  0  0  0  0  0  0
   -0.2180   24.7160  -27.4830 C   0  0  0  0  0  0  0  0  0  0  0  0
   -0.4820   23.5370  -26.7970 C   0  0  0  0  0  0  0  0  0  0  0  0
   -1.9710   22.9480  -27.3110 S   0  0  0  0  0  0  0  0  0  0  0  0
   -3.5050   24.9070  -30.4440 N   0  0  0  0  0  0  0  0  0  0  0  0
   -4.7060   24.7160  -30.8940 O   0  0  0  0  0  0  0  0  0  0  0  0
   -8.5400   22.8890  -31.9200 C   0  0  0  0  0  0  0  0  0  0  0  0
   -6.8739   18.2048  -30.4533 H   0  0  0  0  0  0  0  0  0  0  0  0
   -6.7736   16.5939  -31.2418 H   0  0  0  0  0  0  0  0  0  0  0  0
   -5.3461   17.6843  -31.2418 H   0  0  0  0  0  0  0  0  0  0  0  0
   -6.0369   18.5829  -33.1882 H   0  0  0  0  0  0  0  0  0  0  0  0
   -7.4804   17.4996  -33.1712 H   0  0  0  0  0  0  0  0  0  0  0  0
  -10.5530   20.8350  -31.7220 H   0  0  0  0  0  0  0  0  0  0  0  0
   -5.4599   20.9915  -31.6153 H   0  0  0  0  0  0  0  0  0  0  0  0
   -5.6068   20.9245  -33.4142 H   0  0  0  0  0  0  0  0  0  0  0  0
   -5.1535   23.2364  -32.2280 H   0  0  0  0  0  0  0  0  0  0  0  0
   -6.3780   23.1077  -33.5789 H   0  0  0  0  0  0  0  0  0  0  0  0
   -7.4793   24.3035  -29.7854 H   0  0  0  0  0  0  0  0  0  0  0  0
   -6.9083   22.5672  -29.7869 H   0  0  0  0  0  0  0  0  0  0  0  0
   -1.1823   25.9833  -29.0106 H   0  0  0  0  0  0  0  0  0  0  0  0
    0.6975   25.3072  -27.3333 H   0  0  0  0  0  0  0  0  0  0  0  0
    0.1713   23.0688  -26.0460 H   0  0  0  0  0  0  0  0  0  0  0  0
   -9.1880   23.1517  -31.0708 H   0  0  0  0  0  0  0  0  0  0  0  0
   -8.9243   23.3316  -32.8508 H   0  0  0  0  0  0  0  0  0  0  0  0
  1  2  1  0
  2  3  1  0
  3  4  2  0
  4  5  1  0
  5  6  2  0
  6  7  1  0
  7  8  1  0
  8  9  1  0
  9 10  1  0
 10 11  1  0
 11 12  1  0
 12 13  2  0
 13 14  1  0
 14 15  1  0
 15 16  2  0
 16 17  1  0
 17 18  2  0
 18 19  1  0
 14 20  2  0
 20 21  1  0
 10 22  1  0
  7  3  1  0
 21 12  1  0
 22  6  1  0
 19 15  1  0
  1 23  1  0
  1 24  1  0
  1 25  1  0
  2 26  1  0
  2 27  1  0
  5 28  1  0
  8 29  1  0
  8 30  1  0
  9 31  1  0
  9 32  1  0
 11 33  1  0
 11 34  1  0
 16 35  1  0
 17 36  1  0
 18 37  1  0
 22 38  1  0
 22 39  1  0
M  CHG  1   5   1
M  END
>  <UniqueID>  (27) 
22

>  <SMILES>  (27) 
CCc1n[nH+]c2n1CCN(Cc1nc(-c3cccs3)no1)C2

>  <Energy>  (27) 
138.48909441558936

>  <Genealogy>  (27) 
CCc1n[nH+]c2n1CCN(Cc1nc(-c3cccs3)no1)C2 (protonated)
CCc1n[nH+]c2n1CCN(Cc1nc(-c3cccs3)no1)C2 (3D coordinates assigned)
CCc1n[nH+]c2n1CCN(Cc1nc(-c3cccs3)no1)C2 (nonaromatic ring conformer: 138.48909441558936 kcal/mol)

>  <smiles>  (27) 
CCc1nnc2n1CCN(Cc1nc(-c3cccs3)no1)C2

>  <score_type>  (27) 
oracle

>  <origin>  (27) 
adg

>  <m_score__min__energy>  (27) 
-7.9400000000000004

>  <m_primary>  (27) 
energy

$$$$
27:0
     RDKit          3D

 53 56  0  0  0  0  0  0  0  0999 V2000
   -4.1639   23.8205  -32.0325 H   0  0  0  0  0  0  0  0  0  0  0  0
   -4.7670   23.4580  -31.1870 C   0  0  0  0  0  0  0  0  0  0  0  0
   -4.7960   24.2030  -30.0640 C   0  0  0  0  0  0  0  0  0  0  0  0
   -5.9490   25.0160  -29.7410 C   0  0  0  0  0  0  0  0  0  0  0  0
   -6.8710   25.6660  -29.4840 N   0  0  0  0  0  0  0  0  0  0  0  0
   -3.6270   24.2540  -29.1580 C   0  0  0  0  0  0  0  0  0  0  0  0
   -3.4990   23.4030  -28.2350 O   0  0  0  0  0  0  0  0  0  0  0  0
   -2.6360   25.2790  -29.3330 N   0  0  0  0  0  0  0  0  0  0  0  0
   -1.2770   25.2690  -28.7850 C   0  0  0  0  0  0  0  0  0  0  0  0
   -0.7444   26.0597  -29.3338 H   0  0  0  0  0  0  0  0  0  0  0  0
   -0.5740   23.9210  -28.9920 C   0  0  0  0  0  0  0  0  0  0  0  0
   -1.2452   23.2174  -29.5062 H   0  0  0  0  0  0  0  0  0  0  0  0
    0.3272   24.0335  -29.6126 H   0  0  0  0  0  0  0  0  0  0  0  0
   -0.2260   23.3980  -27.6060 C   0  0  0  0  0  0  0  0  0  0  0  0
   -0.9730   22.6606  -27.2770 H   0  0  0  0  0  0  0  0  0  0  0  0
    0.7527   22.8960  -27.5987 H   0  0  0  0  0  0  0  0  0  0  0  0
   -0.2380   24.6080  -26.6870 C   0  0  0  0  0  0  0  0  0  0  0  0
   -0.5327   24.3141  -25.6688 H   0  0  0  0  0  0  0  0  0  0  0  0
    0.7563   25.0726  -26.6122 H   0  0  0  0  0  0  0  0  0  0  0  0
   -1.2610   25.5610  -27.2810 C   0  0  0  0  0  0  0  0  0  0  0  0
   -2.2540   25.3782  -26.8444 H   0  0  0  0  0  0  0  0  0  0  0  0
   -1.0053   26.6107  -27.0744 H   0  0  0  0  0  0  0  0  0  0  0  0
   -5.5000   22.1780  -31.3510 C   0  0  0  0  0  0  0  0  0  0  0  0
   -4.8630   20.9450  -31.1530 C   0  0  0  0  0  0  0  0  0  0  0  0
   -3.5160   20.9070  -30.7650 O   0  0  0  0  0  0  0  0  0  0  0  0
   -2.4190   21.0590  -31.6250 C   0  0  0  0  0  0  0  0  0  0  0  0
   -1.1060   21.2000  -31.1430 C   0  0  0  0  0  0  0  0  0  0  0  0
   -0.9172   21.2002  -30.0593 H   0  0  0  0  0  0  0  0  0  0  0  0
   -0.0390   21.3400  -32.0360 C   0  0  0  0  0  0  0  0  0  0  0  0
    0.9843   21.4617  -31.6512 H   0  0  0  0  0  0  0  0  0  0  0  0
   -0.2680   21.3260  -33.4250 C   0  0  0  0  0  0  0  0  0  0  0  0
    0.7670   21.4650  -34.3610 O   0  0  0  0  0  0  0  0  0  0  0  0
    1.8440   20.5460  -34.5100 C   0  0  0  0  0  0  0  0  0  0  0  0
    2.2040   20.2388  -33.5170 H   0  0  0  0  0  0  0  0  0  0  0  0
    1.4971   19.6613  -35.0641 H   0  0  0  0  0  0  0  0  0  0  0  0
    2.6631   21.0277  -35.0641 H   0  0  0  0  0  0  0  0  0  0  0  0
   -1.5760   21.1670  -33.8980 C   0  0  0  0  0  0  0  0  0  0  0  0
   -1.7664   21.1529  -34.9813 H   0  0  0  0  0  0  0  0  0  0  0  0
   -2.6420   21.0260  -33.0050 C   0  0  0  0  0  0  0  0  0  0  0  0
   -3.6630   20.8882  -33.3904 H   0  0  0  0  0  0  0  0  0  0  0  0
   -5.5670   19.7960  -31.3170 N   0  0  0  0  0  0  0  0  0  0  0  0
   -6.8650   19.8030  -31.7080 C   0  0  0  0  0  0  0  0  0  0  0  0
   -7.5330   18.5840  -31.8660 C   0  0  0  0  0  0  0  0  0  0  0  0
   -7.0102   17.6365  -31.6687 H   0  0  0  0  0  0  0  0  0  0  0  0
   -8.8650   18.5780  -32.2750 C   0  0  0  0  0  0  0  0  0  0  0  0
   -9.4001   17.6254  -32.4020 H   0  0  0  0  0  0  0  0  0  0  0  0
   -9.5150   19.7840  -32.5220 C   0  0  0  0  0  0  0  0  0  0  0  0
  -10.5662   19.7895  -32.8461 H   0  0  0  0  0  0  0  0  0  0  0  0
   -8.8250   20.9870  -32.3560 C   0  0  0  0  0  0  0  0  0  0  0  0
   -9.3388   21.9398  -32.5512 H   0  0  0  0  0  0  0  0  0  0  0  0
   -7.5130   20.9940  -31.9520 N   0  0  0  0  0  0  0  0  0  0  0  0
   -6.8370   22.1780  -31.7830 C   0  0  0  0  0  0  0  0  0  0  0  0
   -7.4130   23.2830  -32.0020 O   0  0  0  0  0  0  0  0  0  0  0  0
  1  2  1  0
  2  3  2  0
  3  4  1  0
  4  5  3  0
  3  6  1  0
  6  7  2  0
  6  8  1  0
  8  9  1  0
  9 10  1  0
  9 11  1  0
 11 12  1  0
 11 13  1  0
 11 14  1  0
 14 15  1  0
 14 16  1  0
 14 17  1  0
 17 18  1  0
 17 19  1  0
 17 20  1  0
 20 21  1  0
 20 22  1  0
  2 23  1  0
 23 24  2  0
 24 25  1  0
 25 26  1  0
 26 27  2  0
 27 28  1  0
 27 29  1  0
 29 30  1  0
 29 31  2  0
 31 32  1  0
 32 33  1  0
 33 34  1  0
 33 35  1  0
 33 36  1  0
 31 37  1  0
 37 38  1  0
 37 39  2  0
 39 40  1  0
 24 41  1  0
 41 42  2  0
 42 43  1  0
 43 44  1  0
 43 45  2  0
 45 46  1  0
 45 47  1  0
 47 48  1  0
 47 49  2  0
 49 50  1  0
 49 51  1  0
 51 52  1  0
 52 53  2  0
 20  9  1  0
 52 23  1  0
 39 26  1  0
 51 42  1  0
M  CHG  1   8  -1
M  END
>  <UniqueID>  (28) 
23

>  <SMILES>  (28) 
COc1ccc(Oc2nc3ccccn3c(=O)c2/C=C(\C#N)C(=O)[N-]C2CCCC2)cc1

>  <Energy>  (28) 
73.02826439568443

>  <Genealogy>  (28) 
COc1ccc(Oc2nc3ccccn3c(=O)c2C=C(C#N)C(=O)[N-]C2CCCC2)cc1 (protonated)
COc1ccc(Oc2nc3ccccn3c(=O)c2/C=C(\C#N)C(=O)[N-]C2CCCC2)cc1 (cis-trans isomerization)
COc1ccc(Oc2nc3ccccn3c(=O)c2/C=C(\C#N)C(=O)[N-]C2CCCC2)cc1 (3D coordinates assigned)
COc1ccc(Oc2nc3ccccn3c(=O)c2/C=C(\C#N)C(=O)[N-]C2CCCC2)cc1 (nonaromatic ring conformer: 73.02826439568443 kcal/mol)

>  <smiles>  (28) 
COc1ccc(Oc2nc3ccccn3c(=O)c2C=C(C#N)C(=O)NC2CCCC2)cc1

>  <score_type>  (28) 
oracle

>  <origin>  (28) 
adg

>  <m_score__min__energy>  (28) 
-10.710000000000001

>  <m_primary>  (28) 
energy

$$$$
28:0
     RDKit          3D

 36 36  0  0  0  0  0  0  0  0999 V2000
   -9.1710   21.5800  -30.9300 C   0  0  0  0  0  0  0  0  0  0  0  0
   -7.8780   21.3570  -31.6870 C   0  0  0  0  0  0  0  0  0  0  0  0
   -6.9300   22.4160  -31.8000 C   0  0  0  0  0  0  0  0  0  0  0  0
   -7.2040   23.8190  -31.2840 C   0  0  0  0  0  0  0  0  0  0  0  0
   -6.3330   24.1540  -29.7560 S   0  0  0  0  0  0  0  0  0  0  0  0
   -6.4080   25.7920  -29.3860 O   0  0  0  0  0  0  0  0  0  0  0  0
   -4.6410   23.5870  -29.7900 C   0  0  0  0  0  0  0  0  0  0  0  0
   -3.7130   24.7200  -30.0880 C   0  0  0  0  0  0  0  0  0  0  0  0
   -4.1040   25.6750  -30.8130 O   0  0  0  0  0  0  0  0  0  0  0  0
   -2.3910   24.7170  -29.5350 N   0  0  0  0  0  0  0  0  0  0  0  0
   -2.0530   25.2750  -28.2280 C   0  0  0  0  0  0  0  0  0  0  0  0
   -2.8290   24.5770  -27.1110 C   0  0  0  0  0  0  0  0  0  0  0  0
   -2.3520   24.9670  -25.8740 F   0  0  0  0  0  0  0  0  0  0  0  0
   -2.6720   23.2070  -27.2370 F   0  0  0  0  0  0  0  0  0  0  0  0
   -4.1750   24.8870  -27.1980 F   0  0  0  0  0  0  0  0  0  0  0  0
   -5.6680   22.1500  -32.3560 C   0  0  0  0  0  0  0  0  0  0  0  0
   -5.3610   20.8960  -32.8670 C   0  0  0  0  0  0  0  0  0  0  0  0
   -6.3130   19.8820  -32.8460 C   0  0  0  0  0  0  0  0  0  0  0  0
   -7.5880   20.0950  -32.2900 C   0  0  0  0  0  0  0  0  0  0  0  0
   -8.5970   18.9590  -32.3210 C   0  0  0  0  0  0  0  0  0  0  0  0
   -8.0260   17.8260  -32.8730 F   0  0  0  0  0  0  0  0  0  0  0  0
   -9.0330   18.6260  -31.0480 F   0  0  0  0  0  0  0  0  0  0  0  0
   -9.6990   19.3350  -33.0710 F   0  0  0  0  0  0  0  0  0  0  0  0
   -8.9732   21.5459  -29.8485 H   0  0  0  0  0  0  0  0  0  0  0  0
   -9.5867   22.5631  -31.1959 H   0  0  0  0  0  0  0  0  0  0  0  0
   -9.8920   20.7929  -31.1959 H   0  0  0  0  0  0  0  0  0  0  0  0
   -6.8810   24.5461  -32.0436 H   0  0  0  0  0  0  0  0  0  0  0  0
   -8.2827   23.9033  -31.0856 H   0  0  0  0  0  0  0  0  0  0  0  0
   -5.4780   26.0460  -29.1670 H   0  0  0  0  0  0  0  0  0  0  0  0
   -4.3840   23.1570  -28.8107 H   0  0  0  0  0  0  0  0  0  0  0  0
   -4.5373   22.8267  -30.5781 H   0  0  0  0  0  0  0  0  0  0  0  0
   -0.9751   25.1460  -28.0507 H   0  0  0  0  0  0  0  0  0  0  0  0
   -2.3219   26.3416  -28.2247 H   0  0  0  0  0  0  0  0  0  0  0  0
   -4.9110   22.9475  -32.3871 H   0  0  0  0  0  0  0  0  0  0  0  0
   -4.3635   20.7041  -33.2891 H   0  0  0  0  0  0  0  0  0  0  0  0
   -6.0652   18.8980  -33.2708 H   0  0  0  0  0  0  0  0  0  0  0  0
  1  2  1  0
  2  3  2  0
  3  4  1  0
  4  5  1  0
  5  6  1  6
  5  7  1  0
  7  8  1  0
  8  9  2  0
  8 10  1  0
 10 11  1  0
 11 12  1  0
 12 13  1  0
 12 14  1  0
 12 15  1  0
  3 16  1  0
 16 17  2  0
 17 18  1  0
 18 19  2  0
 19 20  1  0
 20 21  1  0
 20 22  1  0
 20 23  1  0
 19  2  1  0
  1 24  1  0
  1 25  1  0
  1 26  1  0
  4 27  1  0
  4 28  1  0
  6 29  1  0
  7 30  1  0
  7 31  1  0
 11 32  1  0
 11 33  1  0
 16 34  1  0
 17 35  1  0
 18 36  1  0
M  CHG  2   5   1  10  -1
M  END
>  <UniqueID>  (29) 
24

>  <SMILES>  (29) 
Cc1c(C[S@+](O)CC(=O)[N-]CC(F)(F)F)cccc1C(F)(F)F

>  <Energy>  (29) 
28.549606214149676

>  <Genealogy>  (29) 
Cc1c(C[S+](O)CC(=O)[N-]CC(F)(F)F)cccc1C(F)(F)F (protonated)
Cc1c(C[S@+](O)CC(=O)[N-]CC(F)(F)F)cccc1C(F)(F)F (chirality)
Cc1c(C[S@+](O)CC(=O)[N-]CC(F)(F)F)cccc1C(F)(F)F (3D coordinates assigned)
Cc1c(C[S@+](O)CC(=O)[N-]CC(F)(F)F)cccc1C(F)(F)F (optimized conformer: 28.549606214149676 kcal/mol)

>  <smiles>  (29) 
Cc1c(C[S+]([O-])CC(=O)NCC(F)(F)F)cccc1C(F)(F)F

>  <score_type>  (29) 
oracle

>  <origin>  (29) 
adg

>  <m_score__min__energy>  (29) 
-8.3300000000000001

>  <m_primary>  (29) 
energy

$$$$
29:0
     RDKit          3D

 33 34  0  0  0  0  0  0  0  0999 V2000
   -1.6430   21.0970  -33.4670 C   0  0  0  0  0  0  0  0  0  0  0  0
   -1.7290   21.5820  -32.0560 C   0  0  0  0  0  0  0  0  0  0  0  0
   -0.6550   21.8050  -31.2740 N   0  0  0  0  0  0  0  0  0  0  0  0
   -1.1110   22.1090  -30.0650 N   0  0  0  0  0  0  0  0  0  0  0  0
   -2.4570   22.0710  -30.1300 C   0  0  0  0  0  0  0  0  0  0  0  0
   -3.5160   22.2380  -28.6890 S   0  0  0  0  0  0  0  0  0  0  0  0
   -3.4410   24.0630  -28.6410 C   0  0  0  0  0  0  0  0  0  0  0  0
   -4.4810   24.6660  -29.5820 C   0  0  0  0  0  0  0  0  0  0  0  0
   -3.8620   25.5120  -30.5110 O   0  0  0  0  0  0  0  0  0  0  0  0
   -2.8730   21.7550  -31.3710 N   0  0  0  0  0  0  0  0  0  0  0  0
   -4.1610   21.3590  -31.7770 N   0  0  0  0  0  0  0  0  0  0  0  0
   -5.2300   22.3000  -31.9320 C   0  0  0  0  0  0  0  0  0  0  0  0
   -4.9610   23.5210  -32.0870 O   0  0  0  0  0  0  0  0  0  0  0  0
   -6.6450   21.8530  -31.9540 C   0  0  0  0  0  0  0  0  0  0  0  0
   -7.6730   22.7350  -31.5700 C   0  0  0  0  0  0  0  0  0  0  0  0
   -9.0070   22.3160  -31.5830 C   0  0  0  0  0  0  0  0  0  0  0  0
   -9.3290   21.0140  -31.9700 C   0  0  0  0  0  0  0  0  0  0  0  0
   -8.3180   20.1260  -32.3440 C   0  0  0  0  0  0  0  0  0  0  0  0
   -6.9820   20.5400  -32.3340 C   0  0  0  0  0  0  0  0  0  0  0  0
   -1.4509   20.0139  -33.4714 H   0  0  0  0  0  0  0  0  0  0  0  0
   -2.5917   21.3032  -33.9841 H   0  0  0  0  0  0  0  0  0  0  0  0
   -0.8230   21.6169  -33.9841 H   0  0  0  0  0  0  0  0  0  0  0  0
   -3.6389   24.4065  -27.6149 H   0  0  0  0  0  0  0  0  0  0  0  0
   -2.4401   24.3864  -28.9629 H   0  0  0  0  0  0  0  0  0  0  0  0
   -4.9992   23.8565  -30.1170 H   0  0  0  0  0  0  0  0  0  0  0  0
   -5.2029   25.2493  -28.9916 H   0  0  0  0  0  0  0  0  0  0  0  0
   -3.5010   24.9280  -31.2290 H   0  0  0  0  0  0  0  0  0  0  0  0
   -4.2970   20.3860  -32.1330 H   0  0  0  0  0  0  0  0  0  0  0  0
   -7.4252   23.7602  -31.2578 H   0  0  0  0  0  0  0  0  0  0  0  0
   -9.8044   23.0138  -31.2876 H   0  0  0  0  0  0  0  0  0  0  0  0
  -10.3793   20.6873  -31.9804 H   0  0  0  0  0  0  0  0  0  0  0  0
   -8.5727   19.0996  -32.6468 H   0  0  0  0  0  0  0  0  0  0  0  0
   -6.1894   19.8350  -32.6250 H   0  0  0  0  0  0  0  0  0  0  0  0
  1  2  1  0
  2  3  2  0
  3  4  1  0
  4  5  2  0
  5  6  1  0
  6  7  1  0
  7  8  1  0
  8  9  1  0
  5 10  1  0
 10 11  1  0
 11 12  1  0
 12 13  2  0
 12 14  1  0
 14 15  2  0
 15 16  1  0
 16 17  2  0
 17 18  1  0
 18 19  2  0
 10  2  1  0
 19 14  1  0
  1 20  1  0
  1 21  1  0
  1 22  1  0
  7 23  1  0
  7 24  1  0
  8 25  1  0
  8 26  1  0
  9 27  1  0
 11 28  1  0
 15 29  1  0
 16 30  1  0
 17 31  1  0
 18 32  1  0
 19 33  1  0
M  END
>  <UniqueID>  (30) 
25

>  <SMILES>  (30) 
Cc1nnc(SCCO)n1NC(=O)c1ccccc1

>  <Energy>  (30) 
69.31000905020039

>  <Genealogy>  (30) 
Cc1nnc(SCCO)n1NC(=O)c1ccccc1 (3D coordinates assigned)
Cc1nnc(SCCO)n1NC(=O)c1ccccc1 (optimized conformer: 69.31000905020039 kcal/mol)

>  <smiles>  (30) 
Cc1nnc(SCCO)n1NC(=O)c1ccccc1

>  <score_type>  (30) 
oracle

>  <origin>  (30) 
adg

>  <m_score__min__energy>  (30) 
-7.96

>  <m_primary>  (30) 
energy

$$$$
30:0
     RDKit          3D

 64 68  0  0  0  0  0  0  0  0999 V2000
    0.1100   20.8120  -32.4610 C   0  0  0  0  0  0  0  0  0  0  0  0
   -0.4190   19.7150  -31.7140 O   0  0  0  0  0  0  0  0  0  0  0  0
   -1.1030   18.6220  -32.2740 C   0  0  0  0  0  0  0  0  0  0  0  0
   -0.4840   17.3670  -32.4390 C   0  0  0  0  0  0  0  0  0  0  0  0
   -1.1810   16.3040  -33.0220 C   0  0  0  0  0  0  0  0  0  0  0  0
   -2.4970   16.4810  -33.4560 C   0  0  0  0  0  0  0  0  0  0  0  0
   -3.1250   17.7180  -33.2940 C   0  0  0  0  0  0  0  0  0  0  0  0
   -2.4420   18.7930  -32.6990 C   0  0  0  0  0  0  0  0  0  0  0  0
   -3.1110   20.0550  -32.5290 N   0  0  0  0  0  0  0  0  0  0  0  0
   -3.3550   20.9180  -33.6930 C   0  0  0  0  0  0  0  0  0  0  0  0
   -3.8500   22.2960  -33.2430 C   0  0  0  0  0  0  0  0  0  0  0  0
   -5.0520   22.1830  -32.3730 N   0  0  0  0  0  0  0  0  0  0  0  0
   -5.5070   23.4940  -31.8160 C   0  0  1  0  0  0  0  0  0  0  0  0
   -7.0380   23.5920  -31.6100 C   0  0  0  0  0  0  0  0  0  0  0  0
   -7.7220   22.8180  -32.6460 N   0  0  0  0  0  0  0  0  0  0  0  0
   -8.4560   21.4070  -31.9420 S   0  0  0  0  0  0  0  0  0  0  0  0
   -8.2760   21.4480  -30.4480 O   0  0  0  0  0  0  0  0  0  0  0  0
   -9.9310   21.3950  -32.2480 O   0  0  0  0  0  0  0  0  0  0  0  0
   -7.6870   19.9510  -32.5710 C   0  0  0  0  0  0  0  0  0  0  0  0
   -6.8660   20.0080  -33.7090 C   0  0  0  0  0  0  0  0  0  0  0  0
   -6.2420   18.8500  -34.1830 C   0  0  0  0  0  0  0  0  0  0  0  0
   -6.4310   17.6320  -33.5230 C   0  0  0  0  0  0  0  0  0  0  0  0
   -7.2360   17.5720  -32.3810 C   0  0  0  0  0  0  0  0  0  0  0  0
   -7.8610   18.7290  -31.9020 C   0  0  0  0  0  0  0  0  0  0  0  0
   -4.7490   23.8610  -30.5550 C   0  0  0  0  0  0  0  0  0  0  0  0
   -5.2300   23.8150  -29.2450 C   0  0  0  0  0  0  0  0  0  0  0  0
   -4.1680   24.2200  -28.4750 C   0  0  0  0  0  0  0  0  0  0  0  0
   -4.0400   24.3660  -27.0950 C   0  0  0  0  0  0  0  0  0  0  0  0
   -2.8010   24.8080  -26.5960 C   0  0  0  0  0  0  0  0  0  0  0  0
   -1.7330   25.0880  -27.4780 C   0  0  0  0  0  0  0  0  0  0  0  0
   -1.8930   24.9170  -28.8670 C   0  0  0  0  0  0  0  0  0  0  0  0
   -3.1320   24.4820  -29.3290 C   0  0  0  0  0  0  0  0  0  0  0  0
   -3.4910   24.2620  -30.5690 O   0  0  0  0  0  0  0  0  0  0  0  0
   -4.9430   21.1310  -31.3110 C   0  0  0  0  0  0  0  0  0  0  0  0
   -3.5490   20.4990  -31.2040 C   0  0  0  0  0  0  0  0  0  0  0  0
    0.4813   21.5819  -31.7687 H   0  0  0  0  0  0  0  0  0  0  0  0
    0.9370   20.4592  -33.0947 H   0  0  0  0  0  0  0  0  0  0  0  0
   -0.6810   21.2394  -33.0947 H   0  0  0  0  0  0  0  0  0  0  0  0
    0.5547   17.2224  -32.1069 H   0  0  0  0  0  0  0  0  0  0  0  0
   -0.6917   15.3258  -33.1392 H   0  0  0  0  0  0  0  0  0  0  0  0
   -3.0385   15.6464  -33.9252 H   0  0  0  0  0  0  0  0  0  0  0  0
   -4.1623   17.8521  -33.6347 H   0  0  0  0  0  0  0  0  0  0  0  0
   -2.4191   21.0363  -34.2588 H   0  0  0  0  0  0  0  0  0  0  0  0
   -4.1242   20.4525  -34.3268 H   0  0  0  0  0  0  0  0  0  0  0  0
   -3.0483   22.7989  -32.6824 H   0  0  0  0  0  0  0  0  0  0  0  0
   -4.1229   22.8752  -34.1375 H   0  0  0  0  0  0  0  0  0  0  0  0
   -5.8230   21.8610  -33.0100 H   0  0  0  0  0  0  0  0  0  0  0  0
   -5.2658   24.2392  -32.5883 H   0  0  0  0  0  0  0  0  0  0  0  0
   -7.3008   23.1913  -30.6199 H   0  0  0  0  0  0  0  0  0  0  0  0
   -7.3491   24.6451  -31.6748 H   0  0  0  0  0  0  0  0  0  0  0  0
   -6.7136   20.9656  -34.2285 H   0  0  0  0  0  0  0  0  0  0  0  0
   -5.6017   18.8973  -35.0762 H   0  0  0  0  0  0  0  0  0  0  0  0
   -5.9462   16.7203  -33.9022 H   0  0  0  0  0  0  0  0  0  0  0  0
   -7.3781   16.6144  -31.8587 H   0  0  0  0  0  0  0  0  0  0  0  0
   -8.4893   18.6809  -31.0004 H   0  0  0  0  0  0  0  0  0  0  0  0
   -6.2342   23.5205  -28.9061 H   0  0  0  0  0  0  0  0  0  0  0  0
   -4.8788   24.1433  -26.4191 H   0  0  0  0  0  0  0  0  0  0  0  0
   -2.6628   24.9364  -25.5123 H   0  0  0  0  0  0  0  0  0  0  0  0
   -0.7713   25.4415  -27.0776 H   0  0  0  0  0  0  0  0  0  0  0  0
   -1.0663   25.1205  -29.5635 H   0  0  0  0  0  0  0  0  0  0  0  0
   -5.1909   21.5895  -30.3423 H   0  0  0  0  0  0  0  0  0  0  0  0
   -5.6391   20.3251  -31.5867 H   0  0  0  0  0  0  0  0  0  0  0  0
   -2.8385   21.2422  -30.8130 H   0  0  0  0  0  0  0  0  0  0  0  0
   -3.5891   19.6361  -30.5230 H   0  0  0  0  0  0  0  0  0  0  0  0
  1  2  1  0
  2  3  1  0
  3  4  2  0
  4  5  1  0
  5  6  2  0
  6  7  1  0
  7  8  2  0
  8  9  1  0
  9 10  1  0
 10 11  1  0
 11 12  1  0
 12 13  1  0
 13 14  1  0
 14 15  1  0
 15 16  1  0
 16 17  2  0
 16 18  2  0
 16 19  1  0
 19 20  2  0
 20 21  1  0
 21 22  2  0
 22 23  1  0
 23 24  2  0
 13 25  1  0
 25 26  2  0
 26 27  1  0
 27 28  2  0
 28 29  1  0
 29 30  2  0
 30 31  1  0
 31 32  2  0
 32 33  1  0
 12 34  1  0
 34 35  1  0
  8  3  1  0
 35  9  1  0
 24 19  1  0
 33 25  1  0
 32 27  1  0
  1 36  1  0
  1 37  1  0
  1 38  1  0
  4 39  1  0
  5 40  1  0
  6 41  1  0
  7 42  1  0
 10 43  1  0
 10 44  1  0
 11 45  1  0
 11 46  1  0
 12 47  1  0
 13 48  1  6
 14 49  1  0
 14 50  1  0
 20 51  1  0
 21 52  1  0
 22 53  1  0
 23 54  1  0
 24 55  1  0
 26 56  1  0
 28 57  1  0
 29 58  1  0
 30 59  1  0
 31 60  1  0
 34 61  1  0
 34 62  1  0
 35 63  1  0
 35 64  1  0
M  CHG  2  12   1  15  -1
M  END
>  <UniqueID>  (31) 
26

>  <SMILES>  (31) 
COc1ccccc1N1CC[NH+]([C@@H](C[N-]S(=O)(=O)c2ccccc2)c2cc3ccccc3o2)CC1

>  <Energy>  (31) 
115.78507885122971

>  <Genealogy>  (31) 
COc1ccccc1N1CC[NH+](C(C[N-]S(=O)(=O)c2ccccc2)c2cc3ccccc3o2)CC1 (protonated)
COc1ccccc1N1CC[NH+]([C@@H](C[N-]S(=O)(=O)c2ccccc2)c2cc3ccccc3o2)CC1 (chirality)
COc1ccccc1N1CC[NH+]([C@@H](C[N-]S(=O)(=O)c2ccccc2)c2cc3ccccc3o2)CC1 (3D coordinates assigned)
COc1ccccc1N1CC[NH+]([C@@H](C[N-]S(=O)(=O)c2ccccc2)c2cc3ccccc3o2)CC1 (nonaromatic ring conformer: 115.78507885122971 kcal/mol)

>  <smiles>  (31) 
COc1ccccc1N1CCN(C(CNS(=O)(=O)c2ccccc2)c2cc3ccccc3o2)CC1

>  <score_type>  (31) 
oracle

>  <origin>  (31) 
adg

>  <m_score__min__energy>  (31) 
-9.9399999999999995

>  <m_primary>  (31) 
energy

$$$$
31:0
     RDKit          3D

 52 55  0  0  1  0  0  0  0  0999 V2000
   -2.6570   24.5890  -27.7490 C   0  0  0  0  0  0  0  0  0  0  0  0
   -2.4600   24.8460  -29.1260 O   0  0  0  0  0  0  0  0  0  0  0  0
   -2.5930   23.7920  -30.0320 C   0  0  0  0  0  0  0  0  0  0  0  0
   -1.6220   22.8000  -30.0910 C   0  0  0  0  0  0  0  0  0  0  0  0
   -1.7360   21.7470  -30.9810 C   0  0  0  0  0  0  0  0  0  0  0  0
   -0.7760   20.8240  -30.9960 N   0  0  0  0  0  0  0  0  0  0  0  0
   -0.8820   19.7850  -31.8690 C   0  0  0  0  0  0  0  0  0  0  0  0
   -1.9510   19.7270  -32.6870 N   0  0  0  0  0  0  0  0  0  0  0  0
   -2.9250   20.6480  -32.6830 C   0  0  0  0  0  0  0  0  0  0  0  0
   -3.9230   20.5600  -33.4730 N   0  0  0  0  0  0  0  0  0  0  0  0
   -4.8050   19.4250  -33.4760 C   0  0  0  0  0  0  0  0  0  0  0  0
   -4.4670   18.2110  -33.9960 C   0  0  0  0  0  0  0  0  0  0  0  0
   -5.4160   17.1910  -33.9350 C   0  0  0  0  0  0  0  0  0  0  0  0
   -6.6430   17.4320  -33.3640 C   0  0  0  0  0  0  0  0  0  0  0  0
   -7.5860   16.4340  -33.3000 F   0  0  0  0  0  0  0  0  0  0  0  0
   -7.0100   18.6430  -32.8340 C   0  0  0  0  0  0  0  0  0  0  0  0
   -8.5750   18.9330  -32.1110 Cl  0  0  0  0  0  0  0  0  0  0  0  0
   -6.0570   19.6590  -32.8970 C   0  0  0  0  0  0  0  0  0  0  0  0
   -2.8480   21.7140  -31.8110 C   0  0  0  0  0  0  0  0  0  0  0  0
   -3.8210   22.6850  -31.7690 C   0  0  0  0  0  0  0  0  0  0  0  0
   -3.6900   23.7380  -30.8660 C   0  0  0  0  0  0  0  0  0  0  0  0
   -4.6190   24.7500  -30.7600 O   0  0  0  0  0  0  0  0  0  0  0  0
   -5.5790   24.8770  -29.7420 C   0  0  0  0  0  0  0  0  0  0  0  0
   -6.8570   24.2610  -30.2810 C   0  0  0  0  0  0  0  0  0  0  0  0
   -6.6440   23.1510  -31.1600 N   0  0  0  0  0  0  0  0  0  0  0  0
   -7.2850   23.4800  -32.4410 C   0  0  0  0  0  0  0  0  0  0  0  0
   -8.7900   23.4240  -32.3260 C   0  0  0  0  0  0  0  0  0  0  0  0
   -9.2460   22.2320  -31.7930 O   0  0  0  0  0  0  0  0  0  0  0  0
   -8.6990   21.9510  -30.5460 C   0  0  0  0  0  0  0  0  0  0  0  0
   -7.1950   21.9110  -30.6760 C   0  0  0  0  0  0  0  0  0  0  0  0
   -2.0939   25.3236  -27.1547 H   0  0  0  0  0  0  0  0  0  0  0  0
   -3.7280   24.6682  -27.5108 H   0  0  0  0  0  0  0  0  0  0  0  0
   -2.3023   23.5754  -27.5108 H   0  0  0  0  0  0  0  0  0  0  0  0
   -0.7510   22.8526  -29.4212 H   0  0  0  0  0  0  0  0  0  0  0  0
   -0.1072   19.0051  -31.9060 H   0  0  0  0  0  0  0  0  0  0  0  0
   -2.0580   18.9390  -33.3680 H   0  0  0  0  0  0  0  0  0  0  0  0
   -3.4788   18.0417  -34.4485 H   0  0  0  0  0  0  0  0  0  0  0  0
   -5.1833   16.1962  -34.3427 H   0  0  0  0  0  0  0  0  0  0  0  0
   -6.2915   20.6528  -32.4880 H   0  0  0  0  0  0  0  0  0  0  0  0
   -4.6913   22.6310  -32.4395 H   0  0  0  0  0  0  0  0  0  0  0  0
   -5.2497   24.3417  -28.8392 H   0  0  0  0  0  0  0  0  0  0  0  0
   -5.7297   25.9307  -29.4644 H   0  0  0  0  0  0  0  0  0  0  0  0
   -7.4608   23.9161  -29.4286 H   0  0  0  0  0  0  0  0  0  0  0  0
   -7.3617   25.0408  -30.8703 H   0  0  0  0  0  0  0  0  0  0  0  0
   -6.9852   24.4945  -32.7427 H   0  0  0  0  0  0  0  0  0  0  0  0
   -6.9642   22.7428  -33.1918 H   0  0  0  0  0  0  0  0  0  0  0  0
   -9.1232   24.2482  -31.6782 H   0  0  0  0  0  0  0  0  0  0  0  0
   -9.2017   23.5095  -33.3425 H   0  0  0  0  0  0  0  0  0  0  0  0
   -8.9881   22.7342  -29.8298 H   0  0  0  0  0  0  0  0  0  0  0  0
   -9.0702   20.9811  -30.1834 H   0  0  0  0  0  0  0  0  0  0  0  0
   -6.7623   21.6959  -29.6878 H   0  0  0  0  0  0  0  0  0  0  0  0
   -6.9463   21.1293  -31.4088 H   0  0  0  0  0  0  0  0  0  0  0  0
  1  2  1  0
  2  3  1  0
  3  4  2  0
  4  5  1  0
  5  6  1  0
  6  7  2  0
  7  8  1  0
  8  9  1  0
  9 10  2  0
 10 11  1  0
 11 12  2  0
 12 13  1  0
 13 14  2  0
 14 15  1  0
 14 16  1  0
 16 17  1  0
 16 18  2  0
  9 19  1  0
 19 20  1  0
 20 21  2  0
 21 22  1  0
 22 23  1  0
 23 24  1  0
 24 25  1  0
 25 26  1  0
 26 27  1  0
 27 28  1  0
 28 29  1  0
 29 30  1  0
 21  3  1  0
 30 25  1  0
 19  5  2  0
 18 11  1  0
  1 31  1  0
  1 32  1  0
  1 33  1  0
  4 34  1  0
  7 35  1  0
  8 36  1  0
 12 37  1  0
 13 38  1  0
 18 39  1  0
 20 40  1  0
 23 41  1  0
 23 42  1  0
 24 43  1  0
 24 44  1  0
 26 45  1  0
 26 46  1  0
 27 47  1  0
 27 48  1  0
 29 49  1  0
 29 50  1  0
 30 51  1  0
 30 52  1  0
M  END
>  <smiles>  (32) 
COc1cc2nc[nH]c(=Nc3ccc(F)c(Cl)c3)c2cc1OCCN1CCOCC1

>  <score_type>  (32) 
oracle

>  <origin>  (32) 
adg

>  <m_score__min__energy>  (32) 
-9.0199999999999996

>  <m_primary>  (32) 
energy

$$$$
32:0
     RDKit          3D

 63 64  0  0  0  0  0  0  0  0999 V2000
   -4.0990   16.1340  -34.4200 Br  0  0  0  0  0  0  0  0  0  0  0  0
   -5.3530   17.4150  -33.7650 C   0  0  0  0  0  0  0  0  0  0  0  0
   -5.5600   18.6110  -34.4600 C   0  0  0  0  0  0  0  0  0  0  0  0
   -6.4780   19.5500  -33.9810 C   0  0  0  0  0  0  0  0  0  0  0  0
   -7.1920   19.3030  -32.7960 C   0  0  0  0  0  0  0  0  0  0  0  0
   -8.2160   20.2930  -32.3100 C   0  0  0  0  0  0  0  0  0  0  0  0
   -7.9230   20.7250  -30.8710 C   0  0  0  0  0  0  0  0  0  0  0  0
   -7.4900   22.1290  -30.8460 N   0  0  0  0  0  0  0  0  0  0  0  0
   -8.1370   22.9550  -31.8770 C   0  0  0  0  0  0  0  0  0  0  0  0
   -7.1520   23.7940  -32.7180 C   0  0  0  0  0  0  0  0  0  0  0  0
   -5.9080   24.0530  -31.9840 N   0  0  0  0  0  0  0  0  0  0  0  0
   -6.1160   25.0510  -30.9280 C   0  0  0  0  0  0  0  0  0  0  0  0
   -4.9210   25.0460  -29.9720 C   0  0  0  0  0  0  0  0  0  0  0  0
   -3.8500   24.1790  -30.4870 N   0  0  0  0  0  0  0  0  0  0  0  0
   -3.2220   23.3980  -29.4120 C   0  0  0  0  0  0  0  0  0  0  0  0
   -3.4060   21.9040  -29.6730 C   0  0  0  0  0  0  0  0  0  0  0  0
   -4.6940   21.6690  -30.3380 N   0  0  0  0  0  0  0  0  0  0  0  0
   -4.5630   20.9160  -31.5950 C   0  0  0  0  0  0  0  0  0  0  0  0
   -4.0640   21.7550  -32.7880 C   0  0  0  0  0  0  0  0  0  0  0  0
   -3.0870   20.9910  -33.6900 C   0  0  0  0  0  0  0  0  0  0  0  0
   -2.0010   20.3500  -32.8680 C   0  0  0  0  0  0  0  0  0  0  0  0
   -1.8650   18.9520  -32.8350 C   0  0  0  0  0  0  0  0  0  0  0  0
   -0.8760   18.3610  -32.0440 C   0  0  0  0  0  0  0  0  0  0  0  0
   -0.0220   19.1580  -31.2750 C   0  0  0  0  0  0  0  0  0  0  0  0
   -0.1600   20.5480  -31.2930 C   0  0  0  0  0  0  0  0  0  0  0  0
   -1.1480   21.1450  -32.0830 C   0  0  0  0  0  0  0  0  0  0  0  0
   -6.9860   18.0950  -32.1080 C   0  0  0  0  0  0  0  0  0  0  0  0
   -6.0670   17.1570  -32.5910 C   0  0  0  0  0  0  0  0  0  0  0  0
   -4.9996   18.8129  -35.3848 H   0  0  0  0  0  0  0  0  0  0  0  0
   -6.6423   20.4865  -34.5341 H   0  0  0  0  0  0  0  0  0  0  0  0
   -8.1976   21.1787  -32.9621 H   0  0  0  0  0  0  0  0  0  0  0  0
   -9.2060   19.8144  -32.3371 H   0  0  0  0  0  0  0  0  0  0  0  0
   -8.8341   20.6139  -30.2647 H   0  0  0  0  0  0  0  0  0  0  0  0
   -7.1220   20.0928  -30.4602 H   0  0  0  0  0  0  0  0  0  0  0  0
   -6.4500   22.1750  -30.9560 H   0  0  0  0  0  0  0  0  0  0  0  0
   -8.6917   22.2900  -32.5553 H   0  0  0  0  0  0  0  0  0  0  0  0
   -8.7919   23.6653  -31.3512 H   0  0  0  0  0  0  0  0  0  0  0  0
   -6.9149   23.2473  -33.6426 H   0  0  0  0  0  0  0  0  0  0  0  0
   -7.6268   24.7595  -32.9466 H   0  0  0  0  0  0  0  0  0  0  0  0
   -5.5960   23.1610  -31.5340 H   0  0  0  0  0  0  0  0  0  0  0  0
   -6.2173   26.0479  -31.3817 H   0  0  0  0  0  0  0  0  0  0  0  0
   -7.0310   24.8052  -30.3691 H   0  0  0  0  0  0  0  0  0  0  0  0
   -4.5372   26.0716  -29.8676 H   0  0  0  0  0  0  0  0  0  0  0  0
   -5.2497   24.6616  -28.9952 H   0  0  0  0  0  0  0  0  0  0  0  0
   -4.2790   23.5010  -31.1590 H   0  0  0  0  0  0  0  0  0  0  0  0
   -2.1477   23.6310  -29.3728 H   0  0  0  0  0  0  0  0  0  0  0  0
   -3.6962   23.6574  -28.4540 H   0  0  0  0  0  0  0  0  0  0  0  0
   -2.5911   21.5431  -30.3178 H   0  0  0  0  0  0  0  0  0  0  0  0
   -3.3885   21.3636  -28.7151 H   0  0  0  0  0  0  0  0  0  0  0  0
   -5.1760   22.5810  -30.5120 H   0  0  0  0  0  0  0  0  0  0  0  0
   -3.8517   20.0931  -31.4311 H   0  0  0  0  0  0  0  0  0  0  0  0
   -5.5714   20.5636  -31.8576 H   0  0  0  0  0  0  0  0  0  0  0  0
   -4.9326   22.0593  -33.3904 H   0  0  0  0  0  0  0  0  0  0  0  0
   -3.5248   22.6219  -32.3784 H   0  0  0  0  0  0  0  0  0  0  0  0
   -3.6351   20.2101  -34.2375 H   0  0  0  0  0  0  0  0  0  0  0  0
   -2.6278   21.6984  -34.3962 H   0  0  0  0  0  0  0  0  0  0  0  0
   -2.5387   18.3210  -33.4333 H   0  0  0  0  0  0  0  0  0  0  0  0
   -0.7690   17.2664  -32.0262 H   0  0  0  0  0  0  0  0  0  0  0  0
    0.7581   18.6905  -30.6562 H   0  0  0  0  0  0  0  0  0  0  0  0
    0.5094   21.1741  -30.6849 H   0  0  0  0  0  0  0  0  0  0  0  0
   -1.2577   22.2395  -32.0900 H   0  0  0  0  0  0  0  0  0  0  0  0
   -7.5492   17.8862  -31.1865 H   0  0  0  0  0  0  0  0  0  0  0  0
   -5.9060   16.2151  -32.0462 H   0  0  0  0  0  0  0  0  0  0  0  0
  1  2  1  0
  2  3  2  0
  3  4  1  0
  4  5  2  0
  5  6  1  0
  6  7  1  0
  7  8  1  0
  8  9  1  0
  9 10  1  0
 10 11  1  0
 11 12  1  0
 12 13  1  0
 13 14  1  0
 14 15  1  0
 15 16  1  0
 16 17  1  0
 17 18  1  0
 18 19  1  0
 19 20  1  0
 20 21  1  0
 21 22  2  0
 22 23  1  0
 23 24  2  0
 24 25  1  0
 25 26  2  0
  5 27  1  0
 27 28  2  0
 28  2  1  0
 26 21  1  0
  3 29  1  0
  4 30  1  0
  6 31  1  0
  6 32  1  0
  7 33  1  0
  7 34  1  0
  8 35  1  0
  9 36  1  0
  9 37  1  0
 10 38  1  0
 10 39  1  0
 11 40  1  0
 12 41  1  0
 12 42  1  0
 13 43  1  0
 13 44  1  0
 14 45  1  0
 15 46  1  0
 15 47  1  0
 16 48  1  0
 16 49  1  0
 17 50  1  0
 18 51  1  0
 18 52  1  0
 19 53  1  0
 19 54  1  0
 20 55  1  0
 20 56  1  0
 22 57  1  0
 23 58  1  0
 24 59  1  0
 25 60  1  0
 26 61  1  0
 27 62  1  0
 28 63  1  0
M  END
>  <UniqueID>  (33) 
27

>  <SMILES>  (33) 
Brc1ccc(CCNCCNCCNCCNCCCc2ccccc2)cc1

>  <Energy>  (33) 
48.46806585256265

>  <Genealogy>  (33) 
Brc1ccc(CCNCCNCCNCCNCCCc2ccccc2)cc1 (3D coordinates assigned)
Brc1ccc(CCNCCNCCNCCNCCCc2ccccc2)cc1 (optimized conformer: 48.46806585256265 kcal/mol)

>  <smiles>  (33) 
Brc1ccc(CCNCCNCCNCCNCCCc2ccccc2)cc1

>  <score_type>  (33) 
oracle

>  <origin>  (33) 
adg

>  <m_score__min__energy>  (33) 
-7.9299999999999997

>  <m_primary>  (33) 
energy

$$$$
33:0
     RDKit          3D

 54 57  0  0  0  0  0  0  0  0999 V2000
   -3.4700   18.9250  -26.5920 C   0  0  0  0  0  0  0  0  0  0  0  0
   -2.4460   19.9560  -27.0590 C   0  0  0  0  0  0  0  0  0  0  0  0
   -2.8050   20.5620  -28.4230 C   0  0  0  0  0  0  0  0  0  0  0  0
   -2.6110   22.0170  -28.4300 N   0  0  0  0  0  0  0  0  0  0  0  0
   -3.5400   22.9870  -28.6680 C   0  0  0  0  0  0  0  0  0  0  0  0
   -4.9640   22.7290  -29.0800 C   0  0  0  0  0  0  0  0  0  0  0  0
   -5.4340   23.7390  -30.0560 N   0  0  0  0  0  0  0  0  0  0  0  0
   -6.8980   23.9590  -30.0170 C   0  0  0  0  0  0  0  0  0  0  0  0
   -7.6770   22.7100  -30.4640 C   0  0  0  0  0  0  0  0  0  0  0  0
   -6.9490   22.0030  -31.5230 N   0  0  0  0  0  0  0  0  0  0  0  0
   -7.1850   20.6000  -31.7530 C   0  0  0  0  0  0  0  0  0  0  0  0
   -6.1120   19.7300  -32.0140 C   0  0  0  0  0  0  0  0  0  0  0  0
   -6.3410   18.3660  -32.2200 C   0  0  0  0  0  0  0  0  0  0  0  0
   -7.6420   17.8580  -32.1620 C   0  0  0  0  0  0  0  0  0  0  0  0
   -8.7140   18.7120  -31.8930 C   0  0  0  0  0  0  0  0  0  0  0  0
   -8.4880   20.0770  -31.6860 C   0  0  0  0  0  0  0  0  0  0  0  0
   -5.9880   22.7580  -32.3320 C   0  0  0  0  0  0  0  0  0  0  0  0
   -4.9450   23.4490  -31.4300 C   0  0  0  0  0  0  0  0  0  0  0  0
   -3.0240   24.2390  -28.5790 N   0  0  0  0  0  0  0  0  0  0  0  0
   -1.7310   24.0410  -28.2720 C   0  0  0  0  0  0  0  0  0  0  0  0
   -1.4740   22.7090  -28.1840 C   0  0  0  0  0  0  0  0  0  0  0  0
   -0.1800   22.2720  -27.9160 C   0  0  0  0  0  0  0  0  0  0  0  0
    0.1110   21.0500  -27.8450 O   0  0  0  0  0  0  0  0  0  0  0  0
    0.7860   23.2170  -27.7370 N   0  0  0  0  0  0  0  0  0  0  0  0
    0.5120   24.5560  -27.8230 C   0  0  0  0  0  0  0  0  0  0  0  0
    1.4500   25.3800  -27.6530 O   0  0  0  0  0  0  0  0  0  0  0  0
   -0.7680   24.9910  -28.0950 N   0  0  0  0  0  0  0  0  0  0  0  0
   -1.1040   26.4170  -28.2170 C   0  0  0  0  0  0  0  0  0  0  0  0
   -3.4924   18.9025  -25.4925 H   0  0  0  0  0  0  0  0  0  0  0  0
   -4.4650   19.1977  -26.9735 H   0  0  0  0  0  0  0  0  0  0  0  0
   -3.1906   17.9318  -26.9735 H   0  0  0  0  0  0  0  0  0  0  0  0
   -2.3951   20.7651  -26.3155 H   0  0  0  0  0  0  0  0  0  0  0  0
   -1.4784   19.4434  -27.1642 H   0  0  0  0  0  0  0  0  0  0  0  0
   -2.1635   20.1116  -29.1948 H   0  0  0  0  0  0  0  0  0  0  0  0
   -3.8656   20.3530  -28.6265 H   0  0  0  0  0  0  0  0  0  0  0  0
   -5.0292   21.7310  -29.5379 H   0  0  0  0  0  0  0  0  0  0  0  0
   -5.6004   22.7892  -28.1848 H   0  0  0  0  0  0  0  0  0  0  0  0
   -7.1924   24.2125  -28.9879 H   0  0  0  0  0  0  0  0  0  0  0  0
   -7.1387   24.7778  -30.7110 H   0  0  0  0  0  0  0  0  0  0  0  0
   -7.8077   22.0375  -29.6034 H   0  0  0  0  0  0  0  0  0  0  0  0
   -8.6573   23.0222  -30.8532 H   0  0  0  0  0  0  0  0  0  0  0  0
   -5.0861   20.1246  -32.0564 H   0  0  0  0  0  0  0  0  0  0  0  0
   -5.4967   17.6922  -32.4279 H   0  0  0  0  0  0  0  0  0  0  0  0
   -7.8215   16.7856  -32.3282 H   0  0  0  0  0  0  0  0  0  0  0  0
   -9.7371   18.3109  -31.8439 H   0  0  0  0  0  0  0  0  0  0  0  0
   -9.3348   20.7448  -31.4696 H   0  0  0  0  0  0  0  0  0  0  0  0
   -5.4732   22.0695  -33.0183 H   0  0  0  0  0  0  0  0  0  0  0  0
   -6.5303   23.5273  -32.9014 H   0  0  0  0  0  0  0  0  0  0  0  0
   -4.0650   22.7935  -31.3532 H   0  0  0  0  0  0  0  0  0  0  0  0
   -4.7111   24.4173  -31.8965 H   0  0  0  0  0  0  0  0  0  0  0  0
   -3.5210   25.1440  -28.7410 H   0  0  0  0  0  0  0  0  0  0  0  0
   -1.2075   26.8564  -27.2139 H   0  0  0  0  0  0  0  0  0  0  0  0
   -0.3037   26.9368  -28.7642 H   0  0  0  0  0  0  0  0  0  0  0  0
   -2.0521   26.5248  -28.7642 H   0  0  0  0  0  0  0  0  0  0  0  0
  1  2  1  0
  2  3  1  0
  3  4  1  0
  4  5  1  0
  5  6  1  0
  6  7  1  0
  7  8  1  0
  8  9  1  0
  9 10  1  0
 10 11  1  0
 11 12  2  0
 12 13  1  0
 13 14  2  0
 14 15  1  0
 15 16  2  0
 10 17  1  0
 17 18  1  0
  5 19  2  0
 19 20  1  0
 20 21  2  0
 21 22  1  0
 22 23  2  0
 22 24  1  0
 24 25  1  0
 25 26  2  0
 25 27  1  0
 27 28  1  0
 21  4  1  0
 18  7  1  0
 27 20  1  0
 16 11  1  0
  1 29  1  0
  1 30  1  0
  1 31  1  0
  2 32  1  0
  2 33  1  0
  3 34  1  0
  3 35  1  0
  6 36  1  0
  6 37  1  0
  8 38  1  0
  8 39  1  0
  9 40  1  0
  9 41  1  0
 12 42  1  0
 13 43  1  0
 14 44  1  0
 15 45  1  0
 16 46  1  0
 17 47  1  0
 17 48  1  0
 18 49  1  0
 18 50  1  0
 19 51  1  0
 28 52  1  0
 28 53  1  0
 28 54  1  0
M  CHG  2  19   1  24  -1
M  END
>  <UniqueID>  (34) 
28

>  <SMILES>  (34) 
CCCn1c(CN2CCN(c3ccccc3)CC2)[nH+]c2c1c(=O)[n-]c(=O)n2C

>  <Energy>  (34) 
107.92986660717617

>  <Genealogy>  (34) 
CCCn1c(CN2CCN(c3ccccc3)CC2)[nH+]c2c1c(=O)[n-]c(=O)n2C (protonated)
CCCn1c(CN2CCN(c3ccccc3)CC2)[nH+]c2c1c(=O)[n-]c(=O)n2C (3D coordinates assigned)
CCCn1c(CN2CCN(c3ccccc3)CC2)[nH+]c2c1c(=O)[n-]c(=O)n2C (nonaromatic ring conformer: 107.92986660717617 kcal/mol)

>  <smiles>  (34) 
CCCn1c(CN2CCN(c3ccccc3)CC2)nc2c1c(=O)[nH]c(=O)n2C

>  <score_type>  (34) 
oracle

>  <origin>  (34) 
adg

>  <m_score__min__energy>  (34) 
-8.9900000000000002

>  <m_primary>  (34) 
energy

$$$$
34:0
     RDKit          3D

 45 46  0  0  0  0  0  0  0  0999 V2000
   -0.8210   26.4140  -27.7150 C   0  0  0  0  0  0  0  0  0  0  0  0
   -1.3550   26.0050  -28.9560 O   0  0  0  0  0  0  0  0  0  0  0  0
   -1.4890   24.5960  -29.0000 C   0  0  0  0  0  0  0  0  0  0  0  0
   -2.9070   24.1840  -29.4120 C   0  0  0  0  0  0  0  0  0  0  0  0
   -3.4940   25.1580  -30.3330 N   0  0  0  0  0  0  0  0  0  0  0  0
   -4.8910   25.2980  -30.6280 C   0  0  0  0  0  0  0  0  0  0  0  0
   -5.4270   26.4290  -30.5020 O   0  0  0  0  0  0  0  0  0  0  0  0
   -5.7230   24.1590  -31.0480 C   0  0  0  0  0  0  0  0  0  0  0  0
   -7.1270   24.1640  -30.8580 C   0  0  0  0  0  0  0  0  0  0  0  0
   -7.8980   23.0730  -31.2900 C   0  0  0  0  0  0  0  0  0  0  0  0
   -7.2180   22.0150  -31.8740 C   0  0  0  0  0  0  0  0  0  0  0  0
   -7.7330   20.8820  -32.3900 N   0  0  0  0  0  0  0  0  0  0  0  0
   -6.6970   20.1880  -32.8630 N   0  0  0  0  0  0  0  0  0  0  0  0
   -5.5760   20.9030  -32.6130 C   0  0  0  0  0  0  0  0  0  0  0  0
   -4.2060   20.5240  -33.0780 C   0  0  0  0  0  0  0  0  0  0  0  0
   -4.0810   19.0610  -33.0870 N   0  0  0  0  0  0  0  0  0  0  0  0
   -4.1210   18.5200  -34.4550 C   0  0  0  0  0  0  0  0  0  0  0  0
   -5.4370   17.7760  -34.6990 C   0  0  0  0  0  0  0  0  0  0  0  0
   -5.7980   16.9600  -33.5170 N   0  0  0  0  0  0  0  0  0  0  0  0
   -7.1580   17.2780  -33.0450 C   0  0  0  0  0  0  0  0  0  0  0  0
   -5.7070   15.5220  -33.8170 C   0  0  0  0  0  0  0  0  0  0  0  0
   -5.8930   22.0500  -32.0000 N   0  0  0  0  0  0  0  0  0  0  0  0
   -5.1280   23.0670  -31.6120 N   0  0  0  0  0  0  0  0  0  0  0  0
   -1.4061   25.9658  -26.8985 H   0  0  0  0  0  0  0  0  0  0  0  0
    0.2258   26.0844  -27.6397 H   0  0  0  0  0  0  0  0  0  0  0  0
   -0.8665   27.5105  -27.6397 H   0  0  0  0  0  0  0  0  0  0  0  0
   -0.7720   24.1904  -29.7290 H   0  0  0  0  0  0  0  0  0  0  0  0
   -1.2897   24.1967  -27.9946 H   0  0  0  0  0  0  0  0  0  0  0  0
   -2.8661   23.2021  -29.9062 H   0  0  0  0  0  0  0  0  0  0  0  0
   -3.5328   24.1375  -28.5086 H   0  0  0  0  0  0  0  0  0  0  0  0
   -7.6131   25.0228  -30.3720 H   0  0  0  0  0  0  0  0  0  0  0  0
   -8.9914   23.0582  -31.1706 H   0  0  0  0  0  0  0  0  0  0  0  0
   -4.0429   20.9125  -34.0941 H   0  0  0  0  0  0  0  0  0  0  0  0
   -3.4555   20.9526  -32.3975 H   0  0  0  0  0  0  0  0  0  0  0  0
   -4.8870   18.6660  -32.5500 H   0  0  0  0  0  0  0  0  0  0  0  0
   -4.0343   19.3477  -35.1743 H   0  0  0  0  0  0  0  0  0  0  0  0
   -3.2853   17.8165  -34.5840 H   0  0  0  0  0  0  0  0  0  0  0  0
   -6.2359   18.5072  -34.8919 H   0  0  0  0  0  0  0  0  0  0  0  0
   -5.3143   17.1110  -35.5666 H   0  0  0  0  0  0  0  0  0  0  0  0
   -7.1729   17.2815  -31.9451 H   0  0  0  0  0  0  0  0  0  0  0  0
   -7.4534   18.2694  -33.4189 H   0  0  0  0  0  0  0  0  0  0  0  0
   -7.8624   16.5203  -33.4189 H   0  0  0  0  0  0  0  0  0  0  0  0
   -5.6710   14.9528  -32.8764 H   0  0  0  0  0  0  0  0  0  0  0  0
   -6.5874   15.2125  -34.3994 H   0  0  0  0  0  0  0  0  0  0  0  0
   -4.7947   15.3260  -34.3994 H   0  0  0  0  0  0  0  0  0  0  0  0
  1  2  1  0
  2  3  1  0
  3  4  1  0
  4  5  1  0
  5  6  1  0
  6  7  2  0
  6  8  1  0
  8  9  1  0
  9 10  2  0
 10 11  1  0
 11 12  2  0
 12 13  1  0
 13 14  2  0
 14 15  1  0
 15 16  1  0
 16 17  1  0
 17 18  1  0
 18 19  1  0
 19 20  1  0
 19 21  1  0
 14 22  1  0
 22 23  1  0
 23  8  2  0
 22 11  1  0
  1 24  1  0
  1 25  1  0
  1 26  1  0
  3 27  1  0
  3 28  1  0
  4 29  1  0
  4 30  1  0
  9 31  1  0
 10 32  1  0
 15 33  1  0
 15 34  1  0
 16 35  1  0
 17 36  1  0
 17 37  1  0
 18 38  1  0
 18 39  1  0
 20 40  1  0
 20 41  1  0
 20 42  1  0
 21 43  1  0
 21 44  1  0
 21 45  1  0
M  CHG  1   5  -1
M  END
>  <UniqueID>  (35) 
29

>  <SMILES>  (35) 
COCC[N-]C(=O)c1ccc2nnc(CNCCN(C)C)n2n1

>  <Energy>  (35) 
88.99292882511905

>  <Genealogy>  (35) 
COCC[N-]C(=O)c1ccc2nnc(CNCCN(C)C)n2n1 (protonated)
COCC[N-]C(=O)c1ccc2nnc(CNCCN(C)C)n2n1 (3D coordinates assigned)
COCC[N-]C(=O)c1ccc2nnc(CNCCN(C)C)n2n1 (optimized conformer: 88.99292882511905 kcal/mol)

>  <smiles>  (35) 
COCCNC(=O)c1ccc2nnc(CNCCN(C)C)n2n1

>  <score_type>  (35) 
oracle

>  <origin>  (35) 
adg

>  <m_score__min__energy>  (35) 
-8.8399999999999999

>  <m_primary>  (35) 
energy

$$$$
35:0
     RDKit          3D

 24 25  0  0  0  0  0  0  0  0999 V2000
   -6.2110   17.5880  -32.4610 C   0  0  0  0  0  0  0  0  0  0  0  0
   -7.5380   17.9270  -32.0720 O   0  0  0  0  0  0  0  0  0  0  0  0
   -8.0460   19.2350  -32.0500 C   0  0  0  0  0  0  0  0  0  0  0  0
   -9.4010   19.5230  -32.3030 C   0  0  0  0  0  0  0  0  0  0  0  0
   -9.8580   20.8420  -32.2620 C   0  0  0  0  0  0  0  0  0  0  0  0
   -8.9740   21.8840  -31.9760 C   0  0  0  0  0  0  0  0  0  0  0  0
   -7.6150   21.6160  -31.7380 C   0  0  0  0  0  0  0  0  0  0  0  0
   -6.6960   22.6790  -31.4180 N   0  0  0  0  0  0  0  0  0  0  0  0
   -7.0950   23.6260  -30.5630 N   0  0  0  0  0  0  0  0  0  0  0  0
   -6.2900   24.6600  -30.2140 C   0  0  0  0  0  0  0  0  0  0  0  0
   -5.0140   24.7270  -30.7630 C   0  0  0  0  0  0  0  0  0  0  0  0
   -4.2400   25.6740  -30.4680 O   0  0  0  0  0  0  0  0  0  0  0  0
   -4.6060   23.7560  -31.6160 N   0  0  0  0  0  0  0  0  0  0  0  0
   -5.4310   22.7310  -31.9460 C   0  0  0  0  0  0  0  0  0  0  0  0
   -5.0090   21.8260  -32.7170 O   0  0  0  0  0  0  0  0  0  0  0  0
   -7.1650   20.2850  -31.7630 C   0  0  0  0  0  0  0  0  0  0  0  0
   -5.5947   17.4306  -31.5635 H   0  0  0  0  0  0  0  0  0  0  0  0
   -6.2288   16.6656  -33.0600 H   0  0  0  0  0  0  0  0  0  0  0  0
   -5.7842   18.4060  -33.0600 H   0  0  0  0  0  0  0  0  0  0  0  0
  -10.1014   18.7068  -32.5336 H   0  0  0  0  0  0  0  0  0  0  0  0
  -10.9185   21.0607  -32.4558 H   0  0  0  0  0  0  0  0  0  0  0  0
   -9.3428   22.9196  -31.9367 H   0  0  0  0  0  0  0  0  0  0  0  0
   -6.6393   25.4303  -29.5107 H   0  0  0  0  0  0  0  0  0  0  0  0
   -6.1075   20.0652  -31.5545 H   0  0  0  0  0  0  0  0  0  0  0  0
  1  2  1  0
  2  3  1  0
  3  4  2  0
  4  5  1  0
  5  6  2  0
  6  7  1  0
  7  8  1  0
  8  9  1  0
  9 10  2  0
 10 11  1  0
 11 12  2  0
 11 13  1  0
 13 14  1  0
 14 15  2  0
  7 16  2  0
 16  3  1  0
 14  8  1  0
  1 17  1  0
  1 18  1  0
  1 19  1  0
  4 20  1  0
  5 21  1  0
  6 22  1  0
 10 23  1  0
 16 24  1  0
M  CHG  1  13  -1
M  END
>  <UniqueID>  (36) 
30

>  <SMILES>  (36) 
COc1cccc(-n2ncc(=O)[n-]c2=O)c1

>  <Energy>  (36) 
32.95839061781104

>  <Genealogy>  (36) 
COc1cccc(-n2ncc(=O)[n-]c2=O)c1 (protonated)
COc1cccc(-n2ncc(=O)[n-]c2=O)c1 (3D coordinates assigned)
COc1cccc(-n2ncc(=O)[n-]c2=O)c1 (optimized conformer: 32.95839061781104 kcal/mol)

>  <smiles>  (36) 
COc1cccc(-n2ncc(=O)[nH]c2=O)c1

>  <score_type>  (36) 
oracle

>  <origin>  (36) 
adg

>  <m_score__min__energy>  (36) 
-7.1200000000000001

>  <m_primary>  (36) 
energy

$$$$
36:0
     RDKit          3D

 45 48  0  0  0  0  0  0  0  0999 V2000
   -0.5220   21.0930  -27.0970 C   0  0  0  0  0  0  0  0  0  0  0  0
   -1.3170   22.0640  -27.9200 C   0  0  0  0  0  0  0  0  0  0  0  0
   -0.6770   22.8610  -28.8790 C   0  0  0  0  0  0  0  0  0  0  0  0
   -1.4080   23.7880  -29.6280 C   0  0  0  0  0  0  0  0  0  0  0  0
   -2.7850   23.9400  -29.4220 C   0  0  0  0  0  0  0  0  0  0  0  0
   -3.4930   24.9090  -30.2070 N   0  0  0  0  0  0  0  0  0  0  0  0
   -5.2190   25.0010  -30.3600 S   0  0  0  0  0  0  0  0  0  0  0  0
   -5.5700   26.1790  -31.2230 O   0  0  0  0  0  0  0  0  0  0  0  0
   -5.8230   25.1930  -28.9980 O   0  0  0  0  0  0  0  0  0  0  0  0
   -5.8440   23.5100  -31.0560 C   0  0  0  0  0  0  0  0  0  0  0  0
   -4.9680   22.4990  -31.4650 C   0  0  0  0  0  0  0  0  0  0  0  0
   -5.4620   21.3090  -32.0030 C   0  0  0  0  0  0  0  0  0  0  0  0
   -6.8510   21.1130  -32.1550 C   0  0  0  0  0  0  0  0  0  0  0  0
   -7.3990   19.9210  -32.6950 C   0  0  0  0  0  0  0  0  0  0  0  0
   -6.5480   18.8240  -33.2060 C   0  0  0  0  0  0  0  0  0  0  0  0
   -6.2580   17.7090  -32.4000 C   0  0  0  0  0  0  0  0  0  0  0  0
   -5.4330   16.6880  -32.8810 C   0  0  0  0  0  0  0  0  0  0  0  0
   -4.8820   16.7770  -34.1640 C   0  0  0  0  0  0  0  0  0  0  0  0
   -3.8470   15.4940  -34.7660 Cl  0  0  0  0  0  0  0  0  0  0  0  0
   -5.1520   17.8930  -34.9640 C   0  0  0  0  0  0  0  0  0  0  0  0
   -5.9760   18.9170  -34.4840 C   0  0  0  0  0  0  0  0  0  0  0  0
   -8.7550   19.7740  -32.7570 N   0  0  0  0  0  0  0  0  0  0  0  0
   -9.6080   20.7460  -32.3410 C   0  0  0  0  0  0  0  0  0  0  0  0
   -9.1160   21.9420  -31.8250 C   0  0  0  0  0  0  0  0  0  0  0  0
   -7.7340   22.1330  -31.7240 C   0  0  0  0  0  0  0  0  0  0  0  0
   -7.2250   23.3260  -31.1880 C   0  0  0  0  0  0  0  0  0  0  0  0
   -3.4260   23.1480  -28.4520 C   0  0  0  0  0  0  0  0  0  0  0  0
   -2.6950   22.2220  -27.7030 C   0  0  0  0  0  0  0  0  0  0  0  0
   -0.6881   21.2958  -26.0287 H   0  0  0  0  0  0  0  0  0  0  0  0
   -0.8425   20.0668  -27.3295 H   0  0  0  0  0  0  0  0  0  0  0  0
    0.5473   21.2047  -27.3295 H   0  0  0  0  0  0  0  0  0  0  0  0
    0.4057   22.7566  -29.0431 H   0  0  0  0  0  0  0  0  0  0  0  0
   -0.8980   24.4024  -30.3846 H   0  0  0  0  0  0  0  0  0  0  0  0
   -3.8823   22.6425  -31.3621 H   0  0  0  0  0  0  0  0  0  0  0  0
   -4.7626   20.5178  -32.3109 H   0  0  0  0  0  0  0  0  0  0  0  0
   -6.6818   17.6398  -31.3873 H   0  0  0  0  0  0  0  0  0  0  0  0
   -5.2167   15.8134  -32.2499 H   0  0  0  0  0  0  0  0  0  0  0  0
   -4.7160   17.9653  -35.9713 H   0  0  0  0  0  0  0  0  0  0  0  0
   -6.1762   19.7984  -35.1110 H   0  0  0  0  0  0  0  0  0  0  0  0
   -9.1630   18.8970  -33.1530 H   0  0  0  0  0  0  0  0  0  0  0  0
  -10.6941   20.5872  -32.4122 H   0  0  0  0  0  0  0  0  0  0  0  0
   -9.8094   22.7313  -31.4990 H   0  0  0  0  0  0  0  0  0  0  0  0
   -7.9155   24.1210  -30.8698 H   0  0  0  0  0  0  0  0  0  0  0  0
   -4.5073   23.2581  -28.2824 H   0  0  0  0  0  0  0  0  0  0  0  0
   -3.2019   21.6137  -26.9394 H   0  0  0  0  0  0  0  0  0  0  0  0
  1  2  1  0
  2  3  2  0
  3  4  1  0
  4  5  2  0
  5  6  1  0
  6  7  1  0
  7  8  2  0
  7  9  2  0
  7 10  1  0
 10 11  2  0
 11 12  1  0
 12 13  2  0
 13 14  1  0
 14 15  1  0
 15 16  2  0
 16 17  1  0
 17 18  2  0
 18 19  1  0
 18 20  1  0
 20 21  2  0
 14 22  2  0
 22 23  1  0
 23 24  2  0
 24 25  1  0
 25 26  2  0
  5 27  1  0
 27 28  2  0
 28  2  1  0
 26 10  1  0
 25 13  1  0
 21 15  1  0
  1 29  1  0
  1 30  1  0
  1 31  1  0
  3 32  1  0
  4 33  1  0
 11 34  1  0
 12 35  1  0
 16 36  1  0
 17 37  1  0
 20 38  1  0
 21 39  1  0
 22 40  1  0
 23 41  1  0
 24 42  1  0
 26 43  1  0
 27 44  1  0
 28 45  1  0
M  CHG  2   6  -1  22   1
M  END
>  <UniqueID>  (37) 
31

>  <SMILES>  (37) 
Cc1ccc([N-]S(=O)(=O)c2ccc3c(-c4ccc(Cl)cc4)[nH+]ccc3c2)cc1

>  <Energy>  (37) 
63.40574219065486

>  <Genealogy>  (37) 
Cc1ccc([N-]S(=O)(=O)c2ccc3c(-c4ccc(Cl)cc4)[nH+]ccc3c2)cc1 (protonated)
Cc1ccc([N-]S(=O)(=O)c2ccc3c(-c4ccc(Cl)cc4)[nH+]ccc3c2)cc1 (3D coordinates assigned)
Cc1ccc([N-]S(=O)(=O)c2ccc3c(-c4ccc(Cl)cc4)[nH+]ccc3c2)cc1 (optimized conformer: 63.40574219065486 kcal/mol)

>  <smiles>  (37) 
Cc1ccc(NS(=O)(=O)c2ccc3c(-c4ccc(Cl)cc4)nccc3c2)cc1

>  <score_type>  (37) 
oracle

>  <origin>  (37) 
adg

>  <m_score__min__energy>  (37) 
-11.949999999999999

>  <m_primary>  (37) 
energy

$$$$
37:0
     RDKit          3D

 50 52  0  0  0  0  0  0  0  0999 V2000
   -0.8620   19.5470  -30.3980 C   0  0  0  0  0  0  0  0  0  0  0  0
   -0.0620   20.5140  -29.5330 C   0  0  0  0  0  0  0  0  0  0  0  0
    0.2640   19.8700  -28.2340 N   0  0  0  0  0  0  0  0  0  0  0  0
    1.4170   18.9480  -28.3530 C   0  0  0  0  0  0  0  0  0  0  0  0
    1.0510   17.5420  -27.8770 C   0  0  0  0  0  0  0  0  0  0  0  0
   -0.9110   19.1860  -27.6380 C   0  0  0  0  0  0  0  0  0  0  0  0
   -1.7010   20.1370  -26.7080 C   0  0  0  0  0  0  0  0  0  0  0  0
   -1.2550   21.5410  -26.7780 N   0  0  0  0  0  0  0  0  0  0  0  0
   -2.0280   22.3080  -27.7290 C   0  0  0  0  0  0  0  0  0  0  0  0
   -1.6580   23.6220  -28.0550 C   0  0  0  0  0  0  0  0  0  0  0  0
   -2.3970   24.3680  -28.9780 C   0  0  0  0  0  0  0  0  0  0  0  0
   -1.9870   25.6650  -29.2700 O   0  0  0  0  0  0  0  0  0  0  0  0
   -3.5370   23.8010  -29.5930 C   0  0  0  0  0  0  0  0  0  0  0  0
   -4.3320   24.4920  -30.5280 C   0  0  0  0  0  0  0  0  0  0  0  0
   -4.0660   25.6760  -30.8690 O   0  0  0  0  0  0  0  0  0  0  0  0
   -5.4420   23.8590  -31.0890 C   0  0  0  0  0  0  0  0  0  0  0  0
   -5.7470   22.5400  -30.7140 C   0  0  0  0  0  0  0  0  0  0  0  0
   -6.9170   21.8150  -31.2740 C   0  0  0  0  0  0  0  0  0  0  0  0
   -6.7670   20.6340  -32.0290 C   0  0  0  0  0  0  0  0  0  0  0  0
   -7.8880   19.9710  -32.5380 C   0  0  0  0  0  0  0  0  0  0  0  0
   -9.1680   20.4720  -32.2960 C   0  0  0  0  0  0  0  0  0  0  0  0
   -9.3320   21.6330  -31.5390 C   0  0  0  0  0  0  0  0  0  0  0  0
   -8.2150   22.3000  -31.0270 C   0  0  0  0  0  0  0  0  0  0  0  0
   -4.9800   21.9190  -29.8210 O   0  0  0  0  0  0  0  0  0  0  0  0
   -3.9120   22.4800  -29.2610 C   0  0  0  0  0  0  0  0  0  0  0  0
   -3.1640   21.7460  -28.3360 C   0  0  0  0  0  0  0  0  0  0  0  0
   -1.4296   18.8609  -29.7522 H   0  0  0  0  0  0  0  0  0  0  0  0
   -1.5589   20.1136  -31.0330 H   0  0  0  0  0  0  0  0  0  0  0  0
   -0.1748   18.9686  -31.0330 H   0  0  0  0  0  0  0  0  0  0  0  0
    0.8698   20.7838  -30.0517 H   0  0  0  0  0  0  0  0  0  0  0  0
   -0.6586   21.4201  -29.3514 H   0  0  0  0  0  0  0  0  0  0  0  0
    1.7310   18.9000  -29.4061 H   0  0  0  0  0  0  0  0  0  0  0  0
    2.2339   19.3281  -27.7220 H   0  0  0  0  0  0  0  0  0  0  0  0
    1.0446   17.5173  -26.7773 H   0  0  0  0  0  0  0  0  0  0  0  0
    0.0534   17.2748  -28.2556 H   0  0  0  0  0  0  0  0  0  0  0  0
    1.7917   16.8223  -28.2556 H   0  0  0  0  0  0  0  0  0  0  0  0
   -1.5737   18.8421  -28.4459 H   0  0  0  0  0  0  0  0  0  0  0  0
   -0.5521   18.3345  -27.0412 H   0  0  0  0  0  0  0  0  0  0  0  0
   -2.7633   20.0957  -26.9905 H   0  0  0  0  0  0  0  0  0  0  0  0
   -1.5271   19.7957  -25.6768 H   0  0  0  0  0  0  0  0  0  0  0  0
   -1.3780   21.9720  -25.8310 H   0  0  0  0  0  0  0  0  0  0  0  0
   -0.2360   21.5930  -26.9960 H   0  0  0  0  0  0  0  0  0  0  0  0
   -0.7745   24.0710  -27.5778 H   0  0  0  0  0  0  0  0  0  0  0  0
   -6.0726   24.3883  -31.8185 H   0  0  0  0  0  0  0  0  0  0  0  0
   -5.7612   20.2312  -32.2190 H   0  0  0  0  0  0  0  0  0  0  0  0
   -7.7608   19.0528  -33.1303 H   0  0  0  0  0  0  0  0  0  0  0  0
  -10.0479   19.9516  -32.7021 H   0  0  0  0  0  0  0  0  0  0  0  0
  -10.3417   22.0239  -31.3449 H   0  0  0  0  0  0  0  0  0  0  0  0
   -8.3517   23.2113  -30.4262 H   0  0  0  0  0  0  0  0  0  0  0  0
   -3.4672   20.7198  -28.0811 H   0  0  0  0  0  0  0  0  0  0  0  0
  1  2  1  0
  2  3  1  0
  3  4  1  0
  4  5  1  0
  3  6  1  0
  6  7  1  0
  7  8  1  0
  8  9  1  0
  9 10  2  0
 10 11  1  0
 11 12  1  0
 11 13  2  0
 13 14  1  0
 14 15  2  0
 14 16  1  0
 16 17  2  0
 17 18  1  0
 18 19  2  0
 19 20  1  0
 20 21  2  0
 21 22  1  0
 22 23  2  0
 17 24  1  0
 24 25  1  0
 25 26  2  0
 26  9  1  0
 25 13  1  0
 23 18  1  0
  1 27  1  0
  1 28  1  0
  1 29  1  0
  2 30  1  0
  2 31  1  0
  4 32  1  0
  4 33  1  0
  5 34  1  0
  5 35  1  0
  5 36  1  0
  6 37  1  0
  6 38  1  0
  7 39  1  0
  7 40  1  0
  8 41  1  0
  8 42  1  0
 10 43  1  0
 16 44  1  0
 19 45  1  0
 20 46  1  0
 21 47  1  0
 22 48  1  0
 23 49  1  0
 26 50  1  0
M  CHG  2   8   1  12  -1
M  END
>  <UniqueID>  (38) 
32

>  <SMILES>  (38) 
CCN(CC)CC[NH2+]c1cc([O-])c2c(=O)cc(-c3ccccc3)oc2c1

>  <Energy>  (38) 
65.80086773418856

>  <Genealogy>  (38) 
CCN(CC)CC[NH2+]c1cc([O-])c2c(=O)cc(-c3ccccc3)oc2c1 (protonated)
CCN(CC)CC[NH2+]c1cc([O-])c2c(=O)cc(-c3ccccc3)oc2c1 (3D coordinates assigned)
CCN(CC)CC[NH2+]c1cc([O-])c2c(=O)cc(-c3ccccc3)oc2c1 (optimized conformer: 65.80086773418856 kcal/mol)

>  <smiles>  (38) 
CCN(CC)CCNc1cc(O)c2c(=O)cc(-c3ccccc3)oc2c1

>  <score_type>  (38) 
oracle

>  <origin>  (38) 
adg

>  <m_score__min__energy>  (38) 
-10.33

>  <m_primary>  (38) 
energy

$$$$
38:0
     RDKit          3D

 27 28  0  0  0  0  0  0  0  0999 V2000
   -6.3960   19.8120  -33.4740 C   0  0  0  0  0  0  0  0  0  0  0  0
   -6.4690   20.3770  -32.1680 O   0  0  0  0  0  0  0  0  0  0  0  0
   -5.5500   21.2900  -31.6260 C   0  0  0  0  0  0  0  0  0  0  0  0
   -4.2350   20.8980  -31.3380 C   0  0  0  0  0  0  0  0  0  0  0  0
   -3.3090   21.7990  -30.7980 C   0  0  0  0  0  0  0  0  0  0  0  0
   -3.6860   23.1360  -30.5300 C   0  0  0  0  0  0  0  0  0  0  0  0
   -5.0220   23.5400  -30.8210 C   0  0  0  0  0  0  0  0  0  0  0  0
   -5.6980   25.3250  -30.5150 Br  0  0  0  0  0  0  0  0  0  0  0  0
   -5.9460   22.6220  -31.3650 C   0  0  0  0  0  0  0  0  0  0  0  0
   -7.2470   23.1020  -31.6240 O   0  0  0  0  0  0  0  0  0  0  0  0
   -8.4650   22.3710  -31.5380 C   0  0  0  0  0  0  0  0  0  0  0  0
   -2.7380   23.9840  -29.9980 N   0  0  0  0  0  0  0  0  0  0  0  0
   -3.0230   25.2980  -29.7080 O   0  0  0  0  0  0  0  0  0  0  0  0
   -1.4760   23.5350  -29.7430 C   0  0  0  0  0  0  0  0  0  0  0  0
   -0.4810   24.4040  -29.1910 N   0  0  0  0  0  0  0  0  0  0  0  0
   -1.1480   22.2500  -30.0110 N   0  0  0  0  0  0  0  0  0  0  0  0
   -2.0310   21.3990  -30.5240 N   0  0  0  0  0  0  0  0  0  0  0  0
   -1.6260   20.1050  -30.7700 O   0  0  0  0  0  0  0  0  0  0  0  0
   -6.2554   18.7239  -33.3954 H   0  0  0  0  0  0  0  0  0  0  0  0
   -7.3289   20.0229  -34.0174 H   0  0  0  0  0  0  0  0  0  0  0  0
   -5.5474   20.2531  -34.0174 H   0  0  0  0  0  0  0  0  0  0  0  0
   -3.9246   19.8623  -31.5402 H   0  0  0  0  0  0  0  0  0  0  0  0
   -8.7251   22.2149  -30.4806 H   0  0  0  0  0  0  0  0  0  0  0  0
   -9.2679   22.9366  -32.0334 H   0  0  0  0  0  0  0  0  0  0  0  0
   -8.3435   21.3964  -32.0334 H   0  0  0  0  0  0  0  0  0  0  0  0
   -0.0270   24.1650  -28.2810 H   0  0  0  0  0  0  0  0  0  0  0  0
   -0.1890   25.2820  -29.6720 H   0  0  0  0  0  0  0  0  0  0  0  0
  1  2  1  0
  2  3  1  0
  3  4  2  0
  4  5  1  0
  5  6  2  0
  6  7  1  0
  7  8  1  0
  7  9  2  0
  9 10  1  0
 10 11  1  0
  6 12  1  0
 12 13  1  0
 12 14  2  0
 14 15  1  0
 14 16  1  0
 16 17  2  0
 17 18  1  0
  9  3  1  0
 17  5  1  0
  1 19  1  0
  1 20  1  0
  1 21  1  0
  4 22  1  0
 11 23  1  0
 11 24  1  0
 11 25  1  0
 15 26  1  0
 15 27  1  0
M  CHG  4  12   1  13  -1  17   1  18  -1
M  END
>  <UniqueID>  (39) 
33

>  <SMILES>  (39) 
COc1cc2c(c(Br)c1OC)[n+]([O-])c(N)n[n+]2[O-]

>  <Energy>  (39) 
42.087923016665606

>  <Genealogy>  (39) 
COc1cc2c(c(Br)c1OC)[n+]([O-])c(N)n[n+]2[O-] (3D coordinates assigned)
COc1cc2c(c(Br)c1OC)[n+]([O-])c(N)n[n+]2[O-] (optimized conformer: 42.087923016665606 kcal/mol)

>  <smiles>  (39) 
COc1cc2c(c(Br)c1OC)[n+]([O-])c(N)n[n+]2[O-]

>  <score_type>  (39) 
oracle

>  <origin>  (39) 
adg

>  <m_score__min__energy>  (39) 
-6.4100000000000001

>  <m_primary>  (39) 
energy

$$$$
39:0
     RDKit          3D

 51 52  0  0  0  0  0  0  0  0999 V2000
   -2.4720   20.4560  -28.3470 C   0  0  0  0  0  0  0  0  0  0  0  0
   -2.9300   21.1530  -29.6240 C   0  0  0  0  0  0  0  0  0  0  0  0
   -1.8520   21.1010  -30.6400 N   0  0  0  0  0  0  0  0  0  0  0  0
   -0.9630   22.2870  -30.6100 C   0  0  0  0  0  0  0  0  0  0  0  0
   -1.4040   23.3870  -29.6280 C   0  0  0  0  0  0  0  0  0  0  0  0
   -1.1060   19.8230  -30.6230 C   0  0  0  0  0  0  0  0  0  0  0  0
   -0.7810   19.3630  -32.0240 C   0  0  0  0  0  0  0  0  0  0  0  0
    0.3970   18.9930  -32.2820 O   0  0  0  0  0  0  0  0  0  0  0  0
   -1.7880   19.3030  -33.0600 N   0  0  0  0  0  0  0  0  0  0  0  0
   -2.7130   18.1580  -33.1520 C   0  0  0  0  0  0  0  0  0  0  0  0
   -4.1470   18.5650  -32.7890 C   0  0  0  0  0  0  0  0  0  0  0  0
   -4.7170   19.6630  -33.6920 C   0  0  0  0  0  0  0  0  0  0  0  0
   -4.2840   20.9950  -33.2420 N   0  0  0  0  0  0  0  0  0  0  0  0
   -5.2270   21.8330  -32.5510 C   0  0  0  0  0  0  0  0  0  0  0  0
   -6.5860   21.4880  -32.5120 C   0  0  0  0  0  0  0  0  0  0  0  0
   -7.4810   22.3020  -31.8220 C   0  0  0  0  0  0  0  0  0  0  0  0
   -7.0220   23.4480  -31.1750 C   0  0  0  0  0  0  0  0  0  0  0  0
   -5.6570   23.7750  -31.2240 C   0  0  0  0  0  0  0  0  0  0  0  0
   -5.1500   24.9870  -30.5360 C   0  0  0  0  0  0  0  0  0  0  0  0
   -3.7610   25.3120  -30.5630 N   0  0  0  0  0  0  0  0  0  0  0  0
   -5.9460   25.7480  -29.9220 O   0  0  0  0  0  0  0  0  0  0  0  0
   -4.7970   22.9620  -31.9110 N   0  0  0  0  0  0  0  0  0  0  0  0
   -2.9370   21.5290  -33.5260 C   0  0  0  0  0  0  0  0  0  0  0  0
   -1.9070   20.4650  -33.9660 C   0  0  0  0  0  0  0  0  0  0  0  0
   -2.8387   21.0141  -27.4729 H   0  0  0  0  0  0  0  0  0  0  0  0
   -2.8741   19.4324  -28.3236 H   0  0  0  0  0  0  0  0  0  0  0  0
   -1.3729   20.4188  -28.3236 H   0  0  0  0  0  0  0  0  0  0  0  0
   -3.8249   20.6469  -30.0152 H   0  0  0  0  0  0  0  0  0  0  0  0
   -3.1661   22.2036  -29.3991 H   0  0  0  0  0  0  0  0  0  0  0  0
    0.0454   21.9540  -30.3234 H   0  0  0  0  0  0  0  0  0  0  0  0
   -0.9980   22.7313  -31.6157 H   0  0  0  0  0  0  0  0  0  0  0  0
   -1.2628   23.0349  -28.5955 H   0  0  0  0  0  0  0  0  0  0  0  0
   -0.7985   24.2904  -29.7933 H   0  0  0  0  0  0  0  0  0  0  0  0
   -2.4658   23.6219  -29.7933 H   0  0  0  0  0  0  0  0  0  0  0  0
   -0.1687   19.9618  -30.0642 H   0  0  0  0  0  0  0  0  0  0  0  0
   -1.7342   19.0588  -30.1419 H   0  0  0  0  0  0  0  0  0  0  0  0
   -2.7009   17.7702  -34.1813 H   0  0  0  0  0  0  0  0  0  0  0  0
   -2.3815   17.3877  -32.4402 H   0  0  0  0  0  0  0  0  0  0  0  0
   -4.7920   17.6776  -32.8701 H   0  0  0  0  0  0  0  0  0  0  0  0
   -4.1199   18.9686  -31.7661 H   0  0  0  0  0  0  0  0  0  0  0  0
   -4.3661   19.4998  -34.7217 H   0  0  0  0  0  0  0  0  0  0  0  0
   -5.8152   19.6182  -33.6467 H   0  0  0  0  0  0  0  0  0  0  0  0
   -6.9423   20.5812  -33.0226 H   0  0  0  0  0  0  0  0  0  0  0  0
   -8.5490   22.0407  -31.7877 H   0  0  0  0  0  0  0  0  0  0  0  0
   -7.7255   24.0933  -30.6286 H   0  0  0  0  0  0  0  0  0  0  0  0
   -3.1010   24.7900  -31.1810 H   0  0  0  0  0  0  0  0  0  0  0  0
   -3.7820   23.2070  -31.9610 H   0  0  0  0  0  0  0  0  0  0  0  0
   -3.0253   22.2750  -34.3296 H   0  0  0  0  0  0  0  0  0  0  0  0
   -2.5638   21.9554  -32.5832 H   0  0  0  0  0  0  0  0  0  0  0  0
   -2.2007   20.0952  -34.9595 H   0  0  0  0  0  0  0  0  0  0  0  0
   -0.9263   20.9633  -33.9597 H   0  0  0  0  0  0  0  0  0  0  0  0
  1  2  1  0
  2  3  1  0
  3  4  1  0
  4  5  1  0
  3  6  1  0
  6  7  1  0
  7  8  2  0
  7  9  1  0
  9 10  1  0
 10 11  1  0
 11 12  1  0
 12 13  1  0
 13 14  1  0
 14 15  2  0
 15 16  1  0
 16 17  2  0
 17 18  1  0
 18 19  1  0
 19 20  1  0
 19 21  2  0
 18 22  2  0
 13 23  1  0
 23 24  1  0
 24  9  1  0
 22 14  1  0
  1 25  1  0
  1 26  1  0
  1 27  1  0
  2 28  1  0
  2 29  1  0
  4 30  1  0
  4 31  1  0
  5 32  1  0
  5 33  1  0
  5 34  1  0
  6 35  1  0
  6 36  1  0
 10 37  1  0
 10 38  1  0
 11 39  1  0
 11 40  1  0
 12 41  1  0
 12 42  1  0
 15 43  1  0
 16 44  1  0
 17 45  1  0
 20 46  1  0
 22 47  1  0
 23 48  1  0
 23 49  1  0
 24 50  1  0
 24 51  1  0
M  CHG  2  20  -1  22   1
M  END
>  <UniqueID>  (40) 
34

>  <SMILES>  (40) 
CCN(CC)CC(=O)N1CCCN(c2cccc(C([NH-])=O)[nH+]2)CC1

>  <Energy>  (40) 
60.19793523753514

>  <Genealogy>  (40) 
CCN(CC)CC(=O)N1CCCN(c2cccc(C([NH-])=O)[nH+]2)CC1 (protonated)
CCN(CC)CC(=O)N1CCCN(c2cccc(C([NH-])=O)[nH+]2)CC1 (3D coordinates assigned)
CCN(CC)CC(=O)N1CCCN(c2cccc(C([NH-])=O)[nH+]2)CC1 (nonaromatic ring conformer: 60.19793523753514 kcal/mol)

>  <smiles>  (40) 
CCN(CC)CC(=O)N1CCCN(c2cccc(C(N)=O)n2)CC1

>  <score_type>  (40) 
oracle

>  <origin>  (40) 
adg

>  <m_score__min__energy>  (40) 
-6.1500000000000004

>  <m_primary>  (40) 
energy

$$$$
40:0
     RDKit          3D

 42 43  0  0  0  0  0  0  0  0999 V2000
   -9.4480   21.9330  -31.6110 C   0  0  0  0  0  0  0  0  0  0  0  0
   -9.3000   20.8310  -32.0770 C   0  0  0  0  0  0  0  0  0  0  0  0
   -9.1160   19.4920  -32.6450 C   0  0  0  0  0  0  0  0  0  0  0  0
   -8.3590   18.5970  -31.6630 C   0  0  0  0  0  0  0  0  0  0  0  0
   -7.1070   17.9960  -32.3150 C   0  0  0  0  0  0  0  0  0  0  0  0
   -5.8450   18.8430  -32.0700 C   0  0  0  0  0  0  0  0  0  0  0  0
   -5.6020   19.9120  -33.1530 C   0  0  0  0  0  0  0  0  0  0  0  0
   -5.6110   21.2990  -32.5820 C   0  0  0  0  0  0  0  0  0  0  0  0
   -4.8840   22.3270  -33.0540 N   0  0  0  0  0  0  0  0  0  0  0  0
   -5.1370   23.3790  -32.2940 N   0  0  0  0  0  0  0  0  0  0  0  0
   -6.0270   22.9460  -31.3790 C   0  0  0  0  0  0  0  0  0  0  0  0
   -6.7020   23.9700  -30.0730 S   0  0  0  0  0  0  0  0  0  0  0  0
   -5.1120   24.1570  -29.1930 C   0  0  0  0  0  0  0  0  0  0  0  0
   -4.1580   24.9590  -30.0180 C   0  0  0  0  0  0  0  0  0  0  0  0
   -4.5950   25.6680  -30.9650 O   0  0  0  0  0  0  0  0  0  0  0  0
   -2.7580   24.9130  -29.7180 N   0  0  0  0  0  0  0  0  0  0  0  0
   -1.9830   23.7590  -29.3590 C   0  0  0  0  0  0  0  0  0  0  0  0
   -2.1470   22.5130  -29.9970 C   0  0  0  0  0  0  0  0  0  0  0  0
   -1.3220   21.4360  -29.6590 C   0  0  0  0  0  0  0  0  0  0  0  0
   -0.3150   21.5950  -28.7020 C   0  0  0  0  0  0  0  0  0  0  0  0
    0.7380   20.2510  -28.3040 Cl  0  0  0  0  0  0  0  0  0  0  0  0
   -0.1380   22.8330  -28.0770 C   0  0  0  0  0  0  0  0  0  0  0  0
   -0.9670   23.9090  -28.4060 C   0  0  0  0  0  0  0  0  0  0  0  0
   -6.3290   21.6800  -31.5530 O   0  0  0  0  0  0  0  0  0  0  0  0
   -9.5830   22.9385  -31.1858 H   0  0  0  0  0  0  0  0  0  0  0  0
  -10.1006   19.0486  -32.8548 H   0  0  0  0  0  0  0  0  0  0  0  0
   -8.5337   19.5751  -33.5745 H   0  0  0  0  0  0  0  0  0  0  0  0
   -8.0576   19.1954  -30.7907 H   0  0  0  0  0  0  0  0  0  0  0  0
   -9.0225   17.7746  -31.3574 H   0  0  0  0  0  0  0  0  0  0  0  0
   -6.9422   16.9907  -31.9000 H   0  0  0  0  0  0  0  0  0  0  0  0
   -7.2804   17.9644  -33.4008 H   0  0  0  0  0  0  0  0  0  0  0  0
   -5.9483   19.3487  -31.0986 H   0  0  0  0  0  0  0  0  0  0  0  0
   -4.9854   18.1570  -32.0940 H   0  0  0  0  0  0  0  0  0  0  0  0
   -4.6245   19.7270  -33.6223 H   0  0  0  0  0  0  0  0  0  0  0  0
   -6.4155   19.8415  -33.8901 H   0  0  0  0  0  0  0  0  0  0  0  0
   -4.2250   22.3200  -33.8640 H   0  0  0  0  0  0  0  0  0  0  0  0
   -5.2846   24.6699  -28.2353 H   0  0  0  0  0  0  0  0  0  0  0  0
   -4.6817   23.1609  -29.0126 H   0  0  0  0  0  0  0  0  0  0  0  0
   -2.9263   22.3875  -30.7631 H   0  0  0  0  0  0  0  0  0  0  0  0
   -1.4655   20.4608  -30.1473 H   0  0  0  0  0  0  0  0  0  0  0  0
    0.6549   22.9604  -27.3252 H   0  0  0  0  0  0  0  0  0  0  0  0
   -0.8206   24.8813  -27.9128 H   0  0  0  0  0  0  0  0  0  0  0  0
  1  2  3  0
  2  3  1  0
  3  4  1  0
  4  5  1  0
  5  6  1  0
  6  7  1  0
  7  8  1  0
  8  9  2  0
  9 10  1  0
 10 11  2  0
 11 12  1  0
 12 13  1  0
 13 14  1  0
 14 15  2  0
 14 16  1  0
 16 17  1  0
 17 18  2  0
 18 19  1  0
 19 20  2  0
 20 21  1  0
 20 22  1  0
 22 23  2  0
 11 24  1  0
 24  8  1  0
 23 17  1  0
  1 25  1  0
  3 26  1  0
  3 27  1  0
  4 28  1  0
  4 29  1  0
  5 30  1  0
  5 31  1  0
  6 32  1  0
  6 33  1  0
  7 34  1  0
  7 35  1  0
  9 36  1  0
 13 37  1  0
 13 38  1  0
 18 39  1  0
 19 40  1  0
 22 41  1  0
 23 42  1  0
M  CHG  2   9   1  16  -1
M  END
>  <UniqueID>  (41) 
35

>  <SMILES>  (41) 
C#CCCCCCc1[nH+]nc(SCC(=O)[N-]c2ccc(Cl)cc2)o1

>  <Energy>  (41) 
61.678304178375605

>  <Genealogy>  (41) 
C#CCCCCCc1[nH+]nc(SCC(=O)[N-]c2ccc(Cl)cc2)o1 (protonated)
C#CCCCCCc1[nH+]nc(SCC(=O)[N-]c2ccc(Cl)cc2)o1 (3D coordinates assigned)
C#CCCCCCc1[nH+]nc(SCC(=O)[N-]c2ccc(Cl)cc2)o1 (optimized conformer: 61.678304178375605 kcal/mol)

>  <smiles>  (41) 
C#CCCCCCc1nnc(SCC(=O)Nc2ccc(Cl)cc2)o1

>  <score_type>  (41) 
oracle

>  <origin>  (41) 
adg

>  <m_score__min__energy>  (41) 
-10.02

>  <m_primary>  (41) 
energy

$$$$
41:0
     RDKit          3D

 43 45  0  0  1  0  0  0  0  0999 V2000
   -0.3060   20.7580  -34.6940 C   0  0  0  0  0  0  0  0  0  0  0  0
   -1.3270   21.0820  -33.6730 C   0  0  0  0  0  0  0  0  0  0  0  0
   -1.0630   21.3220  -32.3740 N   0  0  0  0  0  0  0  0  0  0  0  0
   -2.2290   21.5780  -31.7640 C   0  0  0  0  0  0  0  0  0  0  0  0
   -2.3330   21.8890  -30.3150 C   0  0  0  0  0  0  0  0  0  0  0  0
   -3.2330   21.5030  -32.6750 N   0  0  0  0  0  0  0  0  0  0  0  0
   -4.6170   21.7080  -32.4250 C   0  0  0  0  0  0  0  0  0  0  0  0
   -5.4610   20.6720  -32.5860 N   0  0  0  0  0  0  0  0  0  0  0  0
   -6.7750   20.8410  -32.3600 C   0  0  0  0  0  0  0  0  0  0  0  0
   -7.5940   19.7640  -32.5460 C   0  0  0  0  0  0  0  0  0  0  0  0
   -8.9400   19.9640  -32.3230 C   0  0  0  0  0  0  0  0  0  0  0  0
   -9.4980   21.1450  -31.9370 C   0  0  0  0  0  0  0  0  0  0  0  0
   -8.6500   22.2590  -31.7450 C   0  0  0  0  0  0  0  0  0  0  0  0
   -7.3270   22.0440  -31.9620 C   0  0  0  0  0  0  0  0  0  0  0  0
   -6.4490   23.0800  -31.7980 C   0  0  0  0  0  0  0  0  0  0  0  0
   -6.8030   24.1540  -31.2780 N   0  0  0  0  0  0  0  0  0  0  0  0
   -6.1180   25.1350  -30.5790 C   0  0  0  0  0  0  0  0  0  0  0  0
   -4.8400   24.7760  -29.8980 C   0  0  0  0  0  0  0  0  0  0  0  0
   -3.7860   25.1200  -30.4660 O   0  0  0  0  0  0  0  0  0  0  0  0
   -4.8770   24.0870  -28.6820 N   0  0  0  0  0  0  0  0  0  0  0  0
   -3.8000   23.6600  -27.8700 C   0  0  0  0  0  0  0  0  0  0  0  0
   -2.8150   24.6650  -27.3960 C   0  0  0  0  0  0  0  0  0  0  0  0
   -1.2470   24.8960  -28.4700 Br  0  0  0  0  0  0  0  0  0  0  0  0
   -5.1310   22.8900  -32.0340 N   0  0  0  0  0  0  0  0  0  0  0  0
   -2.6380   21.1980  -33.8280 N   0  0  0  0  0  0  0  0  0  0  0  0
    0.6290   20.4613  -34.1963 H   0  0  0  0  0  0  0  0  0  0  0  0
   -0.6657   19.9299  -35.3223 H   0  0  0  0  0  0  0  0  0  0  0  0
   -0.1224   21.6420  -35.3223 H   0  0  0  0  0  0  0  0  0  0  0  0
   -2.0379   21.0065  -29.7285 H   0  0  0  0  0  0  0  0  0  0  0  0
   -1.6673   22.7302  -30.0718 H   0  0  0  0  0  0  0  0  0  0  0  0
   -3.3708   22.1606  -30.0718 H   0  0  0  0  0  0  0  0  0  0  0  0
   -7.1996   18.7858  -32.8582 H   0  0  0  0  0  0  0  0  0  0  0  0
   -9.6131   19.1060  -32.4676 H   0  0  0  0  0  0  0  0  0  0  0  0
  -10.5832   21.2297  -31.7784 H   0  0  0  0  0  0  0  0  0  0  0  0
   -9.0384   23.2413  -31.4382 H   0  0  0  0  0  0  0  0  0  0  0  0
   -5.8883   25.9394  -31.2932 H   0  0  0  0  0  0  0  0  0  0  0  0
   -6.7956   25.3928  -29.7517 H   0  0  0  0  0  0  0  0  0  0  0  0
   -5.8650   23.8510  -28.3200 H   0  0  0  0  0  0  0  0  0  0  0  0
   -4.2363   23.1896  -26.9765 H   0  0  0  0  0  0  0  0  0  0  0  0
   -3.2130   23.0061  -28.5317 H   0  0  0  0  0  0  0  0  0  0  0  0
   -3.3285   25.6362  -27.3409 H   0  0  0  0  0  0  0  0  0  0  0  0
   -2.4527   24.2846  -26.4296 H   0  0  0  0  0  0  0  0  0  0  0  0
   -4.4430   23.6680  -31.9220 H   0  0  0  0  0  0  0  0  0  0  0  0
  1  2  1  0
  2  3  1  0
  3  4  2  0
  4  5  1  0
  4  6  1  0
  6  7  1  0
  7  8  2  0
  8  9  1  0
  9 10  2  0
 10 11  1  0
 11 12  2  0
 12 13  1  0
 13 14  2  0
 14 15  1  0
 15 16  2  0
 16 17  1  0
 17 18  1  0
 18 19  2  0
 18 20  1  0
 20 21  1  0
 21 22  1  0
 22 23  1  0
 15 24  1  0
  6 25  1  0
 25  2  2  0
 24  7  1  0
 14  9  1  0
  1 26  1  0
  1 27  1  0
  1 28  1  0
  5 29  1  0
  5 30  1  0
  5 31  1  0
 10 32  1  0
 11 33  1  0
 12 34  1  0
 13 35  1  0
 17 36  1  0
 17 37  1  0
 20 38  1  0
 21 39  1  0
 21 40  1  0
 22 41  1  0
 22 42  1  0
 24 43  1  0
M  END
>  <smiles>  (42) 
Cc1nc(C)n(-c2nc3ccccc3c(=NCC(=O)NCCBr)[nH]2)n1

>  <score_type>  (42) 
oracle

>  <origin>  (42) 
adg

>  <m_score__min__energy>  (42) 
-9.1699999999999999

>  <m_primary>  (42) 
energy

$$$$
42:0
     RDKit          3D

 41 44  0  0  0  0  0  0  0  0999 V2000
   -2.5210   18.0710  -34.5530 C   0  0  0  0  0  0  0  0  0  0  0  0
   -3.1710   17.7460  -33.2290 C   0  0  0  0  0  0  0  0  0  0  0  0
   -4.5740   17.5170  -33.3350 N   0  0  0  0  0  0  0  0  0  0  0  0
   -5.5710   18.3660  -33.0490 C   0  0  0  0  0  0  0  0  0  0  0  0
   -5.5680   19.7190  -32.5480 C   0  0  0  0  0  0  0  0  0  0  0  0
   -6.5410   20.6580  -32.7620 C   0  0  0  0  0  0  0  0  0  0  0  0
   -6.4860   21.9450  -32.2630 C   0  0  0  0  0  0  0  0  0  0  0  0
   -5.4030   22.3370  -31.5010 C   0  0  0  0  0  0  0  0  0  0  0  0
   -5.3760   23.7030  -30.9890 C   0  0  0  0  0  0  0  0  0  0  0  0
   -6.3860   24.4730  -30.4790 C   0  0  0  0  0  0  0  0  0  0  0  0
   -5.8540   25.7000  -30.1290 C   0  0  0  0  0  0  0  0  0  0  0  0
   -4.5380   25.6500  -30.4290 N   0  0  0  0  0  0  0  0  0  0  0  0
   -4.2710   24.4680  -30.9350 N   0  0  0  0  0  0  0  0  0  0  0  0
   -4.4150   21.4290  -31.2680 C   0  0  0  0  0  0  0  0  0  0  0  0
   -4.4760   20.1280  -31.7760 C   0  0  0  0  0  0  0  0  0  0  0  0
   -6.7630   17.6780  -33.3180 C   0  0  0  0  0  0  0  0  0  0  0  0
   -6.4720   16.4150  -33.7650 C   0  0  0  0  0  0  0  0  0  0  0  0
   -7.2280   15.3590  -34.1570 N   0  0  0  0  0  0  0  0  0  0  0  0
   -6.6430   14.1940  -34.5640 C   0  0  0  0  0  0  0  0  0  0  0  0
   -5.2960   14.0920  -34.5750 N   0  0  0  0  0  0  0  0  0  0  0  0
   -4.7360   12.8320  -35.0160 C   0  0  0  0  0  0  0  0  0  0  0  0
   -4.5350   15.1370  -34.1860 C   0  0  0  0  0  0  0  0  0  0  0  0
   -3.2760   15.0000  -34.2120 O   0  0  0  0  0  0  0  0  0  0  0  0
   -5.0950   16.3300  -33.7700 C   0  0  0  0  0  0  0  0  0  0  0  0
   -1.5500   18.5565  -34.3754 H   0  0  0  0  0  0  0  0  0  0  0  0
   -2.3681   17.1433  -35.1239 H   0  0  0  0  0  0  0  0  0  0  0  0
   -3.1714   18.7499  -35.1239 H   0  0  0  0  0  0  0  0  0  0  0  0
   -2.6986   16.8406  -32.8202 H   0  0  0  0  0  0  0  0  0  0  0  0
   -3.0300   18.6171  -32.5723 H   0  0  0  0  0  0  0  0  0  0  0  0
   -7.4154   20.3717  -33.3649 H   0  0  0  0  0  0  0  0  0  0  0  0
   -7.3007   22.6540  -32.4716 H   0  0  0  0  0  0  0  0  0  0  0  0
   -7.4372   24.1688  -30.3672 H   0  0  0  0  0  0  0  0  0  0  0  0
   -6.3966   26.5510  -29.6915 H   0  0  0  0  0  0  0  0  0  0  0  0
   -3.8640   26.4540  -30.2690 H   0  0  0  0  0  0  0  0  0  0  0  0
   -3.5456   21.7274  -30.6638 H   0  0  0  0  0  0  0  0  0  0  0  0
   -3.6595   19.4212  -31.5670 H   0  0  0  0  0  0  0  0  0  0  0  0
   -7.7755   18.0884  -33.1901 H   0  0  0  0  0  0  0  0  0  0  0  0
   -7.2649   13.3438  -34.8809 H   0  0  0  0  0  0  0  0  0  0  0  0
   -4.4659   12.2242  -34.1399 H   0  0  0  0  0  0  0  0  0  0  0  0
   -5.4791   12.2924  -35.6216 H   0  0  0  0  0  0  0  0  0  0  0  0
   -3.8376   13.0220  -35.6216 H   0  0  0  0  0  0  0  0  0  0  0  0
  1  2  1  0
  2  3  1  0
  3  4  1  0
  4  5  1  0
  5  6  2  0
  6  7  1  0
  7  8  2  0
  8  9  1  0
  9 10  1  0
 10 11  2  0
 11 12  1  0
 12 13  1  0
  8 14  1  0
 14 15  2  0
  4 16  2  0
 16 17  1  0
 17 18  1  0
 18 19  2  0
 19 20  1  0
 20 21  1  0
 20 22  1  0
 22 23  2  0
 22 24  1  0
 24  3  1  0
 15  5  1  0
 24 17  2  0
 13  9  2  0
  1 25  1  0
  1 26  1  0
  1 27  1  0
  2 28  1  0
  2 29  1  0
  6 30  1  0
  7 31  1  0
 10 32  1  0
 11 33  1  0
 12 34  1  0
 14 35  1  0
 15 36  1  0
 16 37  1  0
 19 38  1  0
 21 39  1  0
 21 40  1  0
 21 41  1  0
M  END
>  <smiles>  (43) 
CCn1c(-c2ccc(-c3cc[nH]n3)cc2)cc2ncn(C)c(=O)c21

>  <score_type>  (43) 
oracle

>  <origin>  (43) 
adg

>  <m_score__min__energy>  (43) 
-8.3900000000000006

>  <m_primary>  (43) 
energy

$$$$
43:0
     RDKit          3D

 55 59  0  0  0  0  0  0  0  0999 V2000
   -1.7980   23.8080  -29.0530 C   0  0  0  0  0  0  0  0  0  0  0  0
   -2.7120   23.3980  -30.1190 N   0  0  0  0  0  0  0  0  0  0  0  0
   -3.9480   23.8810  -30.3840 C   0  0  0  0  0  0  0  0  0  0  0  0
   -4.6340   24.9220  -29.7530 C   0  0  0  0  0  0  0  0  0  0  0  0
   -5.9290   25.2260  -30.2080 C   0  0  0  0  0  0  0  0  0  0  0  0
   -6.5100   24.4910  -31.2630 C   0  0  0  0  0  0  0  0  0  0  0  0
   -5.8050   23.4400  -31.8760 C   0  0  0  0  0  0  0  0  0  0  0  0
   -4.5160   23.1600  -31.4090 C   0  0  0  0  0  0  0  0  0  0  0  0
   -3.6480   22.1990  -31.7910 N   0  0  0  0  0  0  0  0  0  0  0  0
   -3.7360   21.2130  -32.7300 C   0  0  0  0  0  0  0  0  0  0  0  0
   -4.7640   21.0970  -33.4510 O   0  0  0  0  0  0  0  0  0  0  0  0
   -2.6520   20.3170  -32.8690 C   0  0  0  0  0  0  0  0  0  0  0  0
   -2.6990   19.1670  -33.8450 C   0  0  0  0  0  0  0  0  0  0  0  0
   -3.0170   17.8350  -33.1540 C   0  0  0  0  0  0  0  0  0  0  0  0
   -3.9210   17.0110  -33.9940 N   0  0  0  0  0  0  0  0  0  0  0  0
   -4.6460   17.8040  -35.0220 C   0  0  0  0  0  0  0  0  0  0  0  0
   -6.1020   18.1540  -34.6440 C   0  0  0  0  0  0  0  0  0  0  0  0
   -6.2820   18.1720  -33.1900 N   0  0  0  0  0  0  0  0  0  0  0  0
   -7.1590   19.1400  -32.5890 C   0  0  0  0  0  0  0  0  0  0  0  0
   -8.4920   19.2460  -33.0180 C   0  0  0  0  0  0  0  0  0  0  0  0
   -9.3490   20.1830  -32.4340 C   0  0  0  0  0  0  0  0  0  0  0  0
   -8.8800   21.0240  -31.4200 C   0  0  0  0  0  0  0  0  0  0  0  0
   -9.7120   21.9340  -30.8550 F   0  0  0  0  0  0  0  0  0  0  0  0
   -7.5520   20.9300  -30.9920 C   0  0  0  0  0  0  0  0  0  0  0  0
   -6.6910   19.9930  -31.5740 C   0  0  0  0  0  0  0  0  0  0  0  0
   -5.3970   19.9430  -31.1730 F   0  0  0  0  0  0  0  0  0  0  0  0
   -5.8250   17.0290  -32.3930 C   0  0  0  0  0  0  0  0  0  0  0  0
   -4.8320   16.1710  -33.1910 C   0  0  0  0  0  0  0  0  0  0  0  0
   -1.5310   20.4680  -32.0240 C   0  0  0  0  0  0  0  0  0  0  0  0
   -1.4810   21.4940  -31.0720 C   0  0  0  0  0  0  0  0  0  0  0  0
   -2.5720   22.3610  -30.9850 C   0  0  0  0  0  0  0  0  0  0  0  0
   -2.2585   23.6014  -28.0756 H   0  0  0  0  0  0  0  0  0  0  0  0
   -0.8565   23.2460  -29.1409 H   0  0  0  0  0  0  0  0  0  0  0  0
   -1.5917   24.8849  -29.1409 H   0  0  0  0  0  0  0  0  0  0  0  0
   -4.1756   25.4855  -28.9269 H   0  0  0  0  0  0  0  0  0  0  0  0
   -6.4942   26.0440  -29.7374 H   0  0  0  0  0  0  0  0  0  0  0  0
   -7.5234   24.7424  -31.6090 H   0  0  0  0  0  0  0  0  0  0  0  0
   -6.2518   22.8575  -32.6952 H   0  0  0  0  0  0  0  0  0  0  0  0
   -3.4762   19.3711  -34.5962 H   0  0  0  0  0  0  0  0  0  0  0  0
   -1.7065   19.0779  -34.3109 H   0  0  0  0  0  0  0  0  0  0  0  0
   -2.0803   17.2840  -32.9836 H   0  0  0  0  0  0  0  0  0  0  0  0
   -3.5166   18.0438  -32.1965 H   0  0  0  0  0  0  0  0  0  0  0  0
   -4.0966   18.7432  -35.1834 H   0  0  0  0  0  0  0  0  0  0  0  0
   -4.6966   17.1780  -35.9251 H   0  0  0  0  0  0  0  0  0  0  0  0
   -6.3490   19.1467  -35.0485 H   0  0  0  0  0  0  0  0  0  0  0  0
   -6.7661   17.3863  -35.0678 H   0  0  0  0  0  0  0  0  0  0  0  0
   -8.8635   18.5883  -33.8176 H   0  0  0  0  0  0  0  0  0  0  0  0
  -10.3930   20.2589  -32.7722 H   0  0  0  0  0  0  0  0  0  0  0  0
   -7.1835   21.5940  -30.1962 H   0  0  0  0  0  0  0  0  0  0  0  0
   -5.3316   17.3986  -31.4820 H   0  0  0  0  0  0  0  0  0  0  0  0
   -6.6960   16.4100  -32.1319 H   0  0  0  0  0  0  0  0  0  0  0  0
   -4.2375   15.5662  -32.4904 H   0  0  0  0  0  0  0  0  0  0  0  0
   -5.4026   15.5258  -33.8752 H   0  0  0  0  0  0  0  0  0  0  0  0
   -0.6854   19.7703  -32.1146 H   0  0  0  0  0  0  0  0  0  0  0  0
   -0.6086   21.6132  -30.4127 H   0  0  0  0  0  0  0  0  0  0  0  0
  1  2  1  0
  2  3  1  0
  3  4  2  0
  4  5  1  0
  5  6  2  0
  6  7  1  0
  7  8  2  0
  8  9  1  0
  9 10  1  0
 10 11  2  0
 10 12  1  0
 12 13  1  0
 13 14  1  0
 14 15  1  0
 15 16  1  0
 16 17  1  0
 17 18  1  0
 18 19  1  0
 19 20  2  0
 20 21  1  0
 21 22  2  0
 22 23  1  0
 22 24  1  0
 24 25  2  0
 25 26  1  0
 18 27  1  0
 27 28  1  0
 12 29  2  0
 29 30  1  0
 30 31  2  0
 31  2  1  0
  8  3  1  0
 31  9  1  0
 28 15  1  0
 25 19  1  0
  1 32  1  0
  1 33  1  0
  1 34  1  0
  4 35  1  0
  5 36  1  0
  6 37  1  0
  7 38  1  0
 13 39  1  0
 13 40  1  0
 14 41  1  0
 14 42  1  0
 16 43  1  0
 16 44  1  0
 17 45  1  0
 17 46  1  0
 20 47  1  0
 21 48  1  0
 24 49  1  0
 27 50  1  0
 27 51  1  0
 28 52  1  0
 28 53  1  0
 29 54  1  0
 30 55  1  0
M  END
>  <UniqueID>  (44) 
36

>  <SMILES>  (44) 
Cn1c2ccccc2n2c(=O)c(CCN3CCN(c4ccc(F)cc4F)CC3)ccc12

>  <Energy>  (44) 
120.10721058397549

>  <Genealogy>  (44) 
Cn1c2ccccc2n2c(=O)c(CCN3CCN(c4ccc(F)cc4F)CC3)ccc12 (3D coordinates assigned)
Cn1c2ccccc2n2c(=O)c(CCN3CCN(c4ccc(F)cc4F)CC3)ccc12 (nonaromatic ring conformer: 120.10721058397549 kcal/mol)

>  <smiles>  (44) 
Cn1c2ccccc2n2c(=O)c(CCN3CCN(c4ccc(F)cc4F)CC3)ccc12

>  <score_type>  (44) 
oracle

>  <origin>  (44) 
adg

>  <m_score__min__energy>  (44) 
-9.9199999999999999

>  <m_primary>  (44) 
energy

$$$$
44:0
     RDKit          3D

 51 54  0  0  0  0  0  0  0  0999 V2000
   -9.8450   21.1990  -31.9710 C   0  0  0  0  0  0  0  0  0  0  0  0
   -8.3900   21.5630  -31.9300 C   0  0  0  0  0  0  0  0  0  0  0  0
   -7.9830   22.7730  -31.3640 C   0  0  0  0  0  0  0  0  0  0  0  0
   -6.6240   23.1220  -31.2870 C   0  0  0  0  0  0  0  0  0  0  0  0
   -6.2880   24.4660  -30.6860 C   0  0  0  0  0  0  0  0  0  0  0  0
   -5.6340   22.2100  -31.7740 C   0  0  0  0  0  0  0  0  0  0  0  0
   -4.2350   22.4640  -31.7320 C   0  0  0  0  0  0  0  0  0  0  0  0
   -3.8040   23.5330  -31.2160 O   0  0  0  0  0  0  0  0  0  0  0  0
   -3.3320   21.5550  -32.2460 N   0  0  0  0  0  0  0  0  0  0  0  0
   -1.8940   21.9100  -32.2390 C   0  0  0  0  0  0  0  0  0  0  0  0
   -1.3360   21.7810  -30.8460 C   0  0  0  0  0  0  0  0  0  0  0  0
   -1.2870   22.8030  -30.1060 O   0  0  0  0  0  0  0  0  0  0  0  0
   -0.9720   20.4970  -30.3090 N   0  0  0  0  0  0  0  0  0  0  0  0
    0.1050   19.7710  -31.0040 C   0  0  0  0  0  0  0  0  0  0  0  0
    0.3740   18.3910  -30.3900 C   0  0  0  0  0  0  0  0  0  0  0  0
    0.5040   18.4980  -28.8730 C   0  0  0  0  0  0  0  0  0  0  0  0
   -0.7530   19.0840  -28.2930 C   0  0  0  0  0  0  0  0  0  0  0  0
   -1.2000   18.6890  -27.0230 C   0  0  0  0  0  0  0  0  0  0  0  0
   -2.3780   19.2180  -26.4950 C   0  0  0  0  0  0  0  0  0  0  0  0
   -3.1220   20.1400  -27.2340 C   0  0  0  0  0  0  0  0  0  0  0  0
   -2.6750   20.5550  -28.4920 C   0  0  0  0  0  0  0  0  0  0  0  0
   -1.4660   20.0590  -29.0190 C   0  0  0  0  0  0  0  0  0  0  0  0
   -3.7680   20.3700  -32.8000 C   0  0  0  0  0  0  0  0  0  0  0  0
   -2.8110   19.3410  -33.3590 C   0  0  0  0  0  0  0  0  0  0  0  0
   -5.1320   20.0740  -32.8310 C   0  0  0  0  0  0  0  0  0  0  0  0
   -6.0650   20.9830  -32.3340 C   0  0  0  0  0  0  0  0  0  0  0  0
   -7.4290   20.6660  -32.3990 C   0  0  0  0  0  0  0  0  0  0  0  0
  -10.2281   21.1032  -30.9443 H   0  0  0  0  0  0  0  0  0  0  0  0
  -10.4048   21.9848  -32.4994 H   0  0  0  0  0  0  0  0  0  0  0  0
   -9.9689   20.2422  -32.4994 H   0  0  0  0  0  0  0  0  0  0  0  0
   -8.7410   23.4664  -30.9708 H   0  0  0  0  0  0  0  0  0  0  0  0
   -6.3065   24.3919  -29.5887 H   0  0  0  0  0  0  0  0  0  0  0  0
   -5.2850   24.7747  -31.0158 H   0  0  0  0  0  0  0  0  0  0  0  0
   -7.0277   25.2104  -31.0158 H   0  0  0  0  0  0  0  0  0  0  0  0
   -1.3489   21.2333  -32.9134 H   0  0  0  0  0  0  0  0  0  0  0  0
   -1.7781   22.9499  -32.5785 H   0  0  0  0  0  0  0  0  0  0  0  0
   -0.1816   19.6386  -32.0577 H   0  0  0  0  0  0  0  0  0  0  0  0
    1.0255   20.3653  -30.9071 H   0  0  0  0  0  0  0  0  0  0  0  0
   -0.4597   17.7167  -30.6354 H   0  0  0  0  0  0  0  0  0  0  0  0
    1.3146   17.9955  -30.8010 H   0  0  0  0  0  0  0  0  0  0  0  0
    0.6690   17.4964  -28.4493 H   0  0  0  0  0  0  0  0  0  0  0  0
    1.3551   19.1500  -28.6270 H   0  0  0  0  0  0  0  0  0  0  0  0
   -0.6188   17.9587  -26.4409 H   0  0  0  0  0  0  0  0  0  0  0  0
   -2.7207   18.9088  -25.4965 H   0  0  0  0  0  0  0  0  0  0  0  0
   -4.0616   20.5406  -26.8256 H   0  0  0  0  0  0  0  0  0  0  0  0
   -3.2709   21.2733  -29.0741 H   0  0  0  0  0  0  0  0  0  0  0  0
   -2.3179   18.8108  -32.5309 H   0  0  0  0  0  0  0  0  0  0  0  0
   -3.3672   18.6202  -33.9764 H   0  0  0  0  0  0  0  0  0  0  0  0
   -2.0518   19.8435  -33.9764 H   0  0  0  0  0  0  0  0  0  0  0  0
   -5.4732   19.1162  -33.2508 H   0  0  0  0  0  0  0  0  0  0  0  0
   -7.7448   19.7016  -32.8235 H   0  0  0  0  0  0  0  0  0  0  0  0
  1  2  1  0
  2  3  2  0
  3  4  1  0
  4  5  1  0
  4  6  2  0
  6  7  1  0
  7  8  2  0
  7  9  1  0
  9 10  1  0
 10 11  1  0
 11 12  2  0
 11 13  1  0
 13 14  1  0
 14 15  1  0
 15 16  1  0
 16 17  1  0
 17 18  2  0
 18 19  1  0
 19 20  2  0
 20 21  1  0
 21 22  2  0
  9 23  1  0
 23 24  1  0
 23 25  2  0
 25 26  1  0
 26 27  2  0
 27  2  1  0
 26  6  1  0
 22 13  1  0
 22 17  1  0
  1 28  1  0
  1 29  1  0
  1 30  1  0
  3 31  1  0
  5 32  1  0
  5 33  1  0
  5 34  1  0
 10 35  1  0
 10 36  1  0
 14 37  1  0
 14 38  1  0
 15 39  1  0
 15 40  1  0
 16 41  1  0
 16 42  1  0
 18 43  1  0
 19 44  1  0
 20 45  1  0
 21 46  1  0
 24 47  1  0
 24 48  1  0
 24 49  1  0
 25 50  1  0
 27 51  1  0
M  END
>  <UniqueID>  (45) 
37

>  <SMILES>  (45) 
Cc1cc(C)c2c(=O)n(CC(=O)N3CCCc4ccccc43)c(C)cc2c1

>  <Energy>  (45) 
72.72199262115284

>  <Genealogy>  (45) 
Cc1cc(C)c2c(=O)n(CC(=O)N3CCCc4ccccc43)c(C)cc2c1 (3D coordinates assigned)
Cc1cc(C)c2c(=O)n(CC(=O)N3CCCc4ccccc43)c(C)cc2c1 (nonaromatic ring conformer: 72.72199262115284 kcal/mol)

>  <smiles>  (45) 
Cc1cc(C)c2c(=O)n(CC(=O)N3CCCc4ccccc43)c(C)cc2c1

>  <score_type>  (45) 
oracle

>  <origin>  (45) 
adg

>  <m_score__min__energy>  (45) 
-8.9499999999999993

>  <m_primary>  (45) 
energy

$$$$
45:0
     RDKit          3D

 56 58  0  0  1  0  0  0  0  0999 V2000
   -6.8250   15.5380  -34.2870 C   0  0  0  0  0  0  0  0  0  0  0  0
   -6.0790   16.6730  -33.8380 N   0  0  0  0  0  0  0  0  0  0  0  0
   -5.0650   16.4170  -32.8790 C   0  0  0  0  0  0  0  0  0  0  0  0
   -3.8090   17.2100  -33.0170 C   0  0  0  0  0  0  0  0  0  0  0  0
   -3.5080   17.6670  -34.3200 N   0  0  0  0  0  0  0  0  0  0  0  0
   -2.1110   17.7220  -34.5630 C   0  0  0  0  0  0  0  0  0  0  0  0
   -1.5150   18.9770  -33.9650 C   0  0  0  0  0  0  0  0  0  0  0  0
   -2.2740   20.1670  -34.2210 N   0  0  0  0  0  0  0  0  0  0  0  0
   -3.1010   20.7350  -33.4320 C   0  0  0  0  0  0  0  0  0  0  0  0
   -4.4540   20.3740  -33.3660 C   0  0  0  0  0  0  0  0  0  0  0  0
   -5.3310   21.0030  -32.5070 C   0  0  0  0  0  0  0  0  0  0  0  0
   -6.7360   20.6290  -32.4410 C   0  0  0  0  0  0  0  0  0  0  0  0
   -7.7000   21.5440  -32.0750 C   0  0  0  0  0  0  0  0  0  0  0  0
   -9.0540   21.1930  -32.0100 C   0  0  0  0  0  0  0  0  0  0  0  0
   -9.4830   19.9200  -32.3080 C   0  0  0  0  0  0  0  0  0  0  0  0
   -8.5050   19.0090  -32.6760 C   0  0  0  0  0  0  0  0  0  0  0  0
   -7.1660   19.3560  -32.7410 C   0  0  0  0  0  0  0  0  0  0  0  0
   -4.8140   21.9800  -31.7370 N   0  0  0  0  0  0  0  0  0  0  0  0
   -3.4980   22.3230  -31.8080 C   0  0  0  0  0  0  0  0  0  0  0  0
   -3.0250   23.2790  -31.0470 N   0  0  0  0  0  0  0  0  0  0  0  0
   -3.0610   23.1500  -29.5940 C   0  0  0  0  0  0  0  0  0  0  0  0
   -4.2500   23.9510  -29.0900 C   0  0  0  0  0  0  0  0  0  0  0  0
   -4.7400   24.7370  -30.2430 C   0  0  0  0  0  0  0  0  0  0  0  0
   -5.9050   24.5950  -30.7030 O   0  0  0  0  0  0  0  0  0  0  0  0
   -3.8720   25.6630  -30.8320 O   0  0  0  0  0  0  0  0  0  0  0  0
   -2.6450   21.7180  -32.6390 N   0  0  0  0  0  0  0  0  0  0  0  0
   -4.3210   17.1170  -35.3550 C   0  0  0  0  0  0  0  0  0  0  0  0
   -5.7490   17.5070  -34.9450 C   0  0  0  0  0  0  0  0  0  0  0  0
   -7.1950   14.9751  -33.4174 H   0  0  0  0  0  0  0  0  0  0  0  0
   -7.6774   15.8764  -34.8944 H   0  0  0  0  0  0  0  0  0  0  0  0
   -6.1763   14.8898  -34.8944 H   0  0  0  0  0  0  0  0  0  0  0  0
   -5.4849   16.6249  -31.8838 H   0  0  0  0  0  0  0  0  0  0  0  0
   -4.7692   15.3694  -33.0376 H   0  0  0  0  0  0  0  0  0  0  0  0
   -3.8921   18.0898  -32.3620 H   0  0  0  0  0  0  0  0  0  0  0  0
   -2.9926   16.5245  -32.7458 H   0  0  0  0  0  0  0  0  0  0  0  0
   -1.6305   16.8423  -34.1099 H   0  0  0  0  0  0  0  0  0  0  0  0
   -1.9404   17.7317  -35.6497 H   0  0  0  0  0  0  0  0  0  0  0  0
   -1.4442   18.8404  -32.8758 H   0  0  0  0  0  0  0  0  0  0  0  0
   -0.5335   19.1191  -34.4408 H   0  0  0  0  0  0  0  0  0  0  0  0
   -4.8259   19.5683  -34.0160 H   0  0  0  0  0  0  0  0  0  0  0  0
   -7.3988   22.5728  -31.8285 H   0  0  0  0  0  0  0  0  0  0  0  0
   -9.7921   21.9529  -31.7137 H   0  0  0  0  0  0  0  0  0  0  0  0
  -10.5456   19.6401  -32.2569 H   0  0  0  0  0  0  0  0  0  0  0  0
   -8.8017   17.9792  -32.9239 H   0  0  0  0  0  0  0  0  0  0  0  0
   -6.4284   18.5965  -33.0394 H   0  0  0  0  0  0  0  0  0  0  0  0
   -5.3760   22.5170  -31.0580 H   0  0  0  0  0  0  0  0  0  0  0  0
   -3.1757   22.0924  -29.3142 H   0  0  0  0  0  0  0  0  0  0  0  0
   -2.1270   23.5249  -29.1500 H   0  0  0  0  0  0  0  0  0  0  0  0
   -5.0384   23.2751  -28.7273 H   0  0  0  0  0  0  0  0  0  0  0  0
   -3.9654   24.6049  -28.2525 H   0  0  0  0  0  0  0  0  0  0  0  0
   -3.2750   25.3370  -31.5900 H   0  0  0  0  0  0  0  0  0  0  0  0
   -1.6490   22.0170  -32.6500 H   0  0  0  0  0  0  0  0  0  0  0  0
   -4.0607   17.5525  -36.3310 H   0  0  0  0  0  0  0  0  0  0  0  0
   -4.1918   16.0302  -35.4654 H   0  0  0  0  0  0  0  0  0  0  0  0
   -5.7868   18.5662  -34.6507 H   0  0  0  0  0  0  0  0  0  0  0  0
   -6.4580   17.3749  -35.7756 H   0  0  0  0  0  0  0  0  0  0  0  0
  1  2  1  0
  2  3  1  0
  3  4  1  0
  4  5  1  0
  5  6  1  0
  6  7  1  0
  7  8  1  0
  8  9  2  0
  9 10  1  0
 10 11  2  0
 11 12  1  0
 12 13  2  0
 13 14  1  0
 14 15  2  0
 15 16  1  0
 16 17  2  0
 11 18  1  0
 18 19  1  0
 19 20  2  0
 20 21  1  0
 21 22  1  0
 22 23  1  0
 23 24  2  0
 23 25  1  0
 19 26  1  0
  5 27  1  0
 27 28  1  0
 28  2  1  0
 26  9  1  0
 17 12  1  0
  1 29  1  0
  1 30  1  0
  1 31  1  0
  3 32  1  0
  3 33  1  0
  4 34  1  0
  4 35  1  0
  6 36  1  0
  6 37  1  0
  7 38  1  0
  7 39  1  0
 10 40  1  0
 13 41  1  0
 14 42  1  0
 15 43  1  0
 16 44  1  0
 17 45  1  0
 18 46  1  0
 21 47  1  0
 21 48  1  0
 22 49  1  0
 22 50  1  0
 25 51  1  0
 26 52  1  0
 27 53  1  0
 27 54  1  0
 28 55  1  0
 28 56  1  0
M  END
>  <smiles>  (46) 
CN1CCN(CCN=c2cc(-c3ccccc3)[nH]c(=NCCC(=O)O)[nH]2)CC1

>  <score_type>  (46) 
oracle

>  <origin>  (46) 
adg

>  <m_score__min__energy>  (46) 
-9.0399999999999991

>  <m_primary>  (46) 
energy

$$$$
46:0
     RDKit          3D

 41 42  0  0  0  0  0  0  0  0999 V2000
   -8.4290   22.6980  -31.9570 C   0  0  0  0  0  0  0  0  0  0  0  0
   -7.2910   21.7400  -32.1710 C   0  0  0  0  0  0  0  0  0  0  0  0
   -7.5630   20.3960  -32.4750 C   0  0  0  0  0  0  0  0  0  0  0  0
   -6.5180   19.4950  -32.6950 C   0  0  0  0  0  0  0  0  0  0  0  0
   -6.9020   17.6680  -33.0970 Br  0  0  0  0  0  0  0  0  0  0  0  0
   -5.1920   19.9290  -32.6180 C   0  0  0  0  0  0  0  0  0  0  0  0
   -4.9060   21.2680  -32.3340 C   0  0  0  0  0  0  0  0  0  0  0  0
   -3.0800   21.8330  -32.2370 Br  0  0  0  0  0  0  0  0  0  0  0  0
   -5.9520   22.1820  -32.1240 C   0  0  0  0  0  0  0  0  0  0  0  0
   -5.6560   23.5190  -31.8540 O   0  0  0  0  0  0  0  0  0  0  0  0
   -5.7090   24.0370  -30.5310 C   0  0  0  0  0  0  0  0  0  0  0  0
   -4.9220   25.3030  -30.4680 C   0  0  0  0  0  0  0  0  0  0  0  0
   -5.5180   26.4130  -30.4920 O   0  0  0  0  0  0  0  0  0  0  0  0
   -3.4930   25.2450  -30.4410 N   0  0  0  0  0  0  0  0  0  0  0  0
   -2.7400   24.2670  -29.6630 C   0  0  0  0  0  0  0  0  0  0  0  0
   -1.8960   24.9670  -28.5940 C   0  0  0  0  0  0  0  0  0  0  0  0
   -0.4880   24.5190  -28.6850 N   0  0  0  0  0  0  0  0  0  0  0  0
    0.2820   24.8170  -27.4530 C   0  0  0  0  0  0  0  0  0  0  0  0
    0.2770   23.6420  -26.4540 C   0  0  0  0  0  0  0  0  0  0  0  0
   -0.8790   22.8490  -26.6240 O   0  0  0  0  0  0  0  0  0  0  0  0
   -0.8280   22.1770  -27.8700 C   0  0  0  0  0  0  0  0  0  0  0  0
   -0.3800   23.0900  -29.0380 C   0  0  0  0  0  0  0  0  0  0  0  0
   -8.5937   22.8366  -30.8783 H   0  0  0  0  0  0  0  0  0  0  0  0
   -8.1847   23.6664  -32.4181 H   0  0  0  0  0  0  0  0  0  0  0  0
   -9.3416   22.2922  -32.4181 H   0  0  0  0  0  0  0  0  0  0  0  0
   -8.6053   20.0506  -32.5403 H   0  0  0  0  0  0  0  0  0  0  0  0
   -4.3709   19.2154  -32.7812 H   0  0  0  0  0  0  0  0  0  0  0  0
   -6.7548   24.2399  -30.2569 H   0  0  0  0  0  0  0  0  0  0  0  0
   -5.2854   23.3032  -29.8295 H   0  0  0  0  0  0  0  0  0  0  0  0
   -3.4419   23.5752  -29.1744 H   0  0  0  0  0  0  0  0  0  0  0  0
   -2.0710   23.7139  -30.3387 H   0  0  0  0  0  0  0  0  0  0  0  0
   -1.9425   26.0551  -28.7484 H   0  0  0  0  0  0  0  0  0  0  0  0
   -2.2914   24.7134  -27.5994 H   0  0  0  0  0  0  0  0  0  0  0  0
    1.3227   25.0379  -27.7324 H   0  0  0  0  0  0  0  0  0  0  0  0
   -0.1959   25.6765  -26.9601 H   0  0  0  0  0  0  0  0  0  0  0  0
    1.1692   23.0209  -26.6221 H   0  0  0  0  0  0  0  0  0  0  0  0
    0.2818   24.0466  -25.4311 H   0  0  0  0  0  0  0  0  0  0  0  0
   -0.1178   21.3411  -27.7875 H   0  0  0  0  0  0  0  0  0  0  0  0
   -1.8475   21.8322  -28.0973 H   0  0  0  0  0  0  0  0  0  0  0  0
    0.6669   22.8623  -29.2873 H   0  0  0  0  0  0  0  0  0  0  0  0
   -1.0400   22.8977  -29.8967 H   0  0  0  0  0  0  0  0  0  0  0  0
  1  2  1  0
  2  3  2  0
  3  4  1  0
  4  5  1  0
  4  6  2  0
  6  7  1  0
  7  8  1  0
  7  9  2  0
  9 10  1  0
 10 11  1  0
 11 12  1  0
 12 13  2  0
 12 14  1  0
 14 15  1  0
 15 16  1  0
 16 17  1  0
 17 18  1  0
 18 19  1  0
 19 20  1  0
 20 21  1  0
 21 22  1  0
  9  2  1  0
 22 17  1  0
  1 23  1  0
  1 24  1  0
  1 25  1  0
  3 26  1  0
  6 27  1  0
 11 28  1  0
 11 29  1  0
 15 30  1  0
 15 31  1  0
 16 32  1  0
 16 33  1  0
 18 34  1  0
 18 35  1  0
 19 36  1  0
 19 37  1  0
 21 38  1  0
 21 39  1  0
 22 40  1  0
 22 41  1  0
M  CHG  1  14  -1
M  END
>  <UniqueID>  (47) 
38

>  <SMILES>  (47) 
Cc1cc(Br)cc(Br)c1OCC(=O)[N-]CCN1CCOCC1

>  <Energy>  (47) 
52.851278191437565

>  <Genealogy>  (47) 
Cc1cc(Br)cc(Br)c1OCC(=O)[N-]CCN1CCOCC1 (protonated)
Cc1cc(Br)cc(Br)c1OCC(=O)[N-]CCN1CCOCC1 (3D coordinates assigned)
Cc1cc(Br)cc(Br)c1OCC(=O)[N-]CCN1CCOCC1 (nonaromatic ring conformer: 52.851278191437565 kcal/mol)

>  <smiles>  (47) 
Cc1cc(Br)cc(Br)c1OCC(=O)NCCN1CCOCC1

>  <score_type>  (47) 
oracle

>  <origin>  (47) 
adg

>  <m_score__min__energy>  (47) 
-10.16

>  <m_primary>  (47) 
energy

$$$$
47:0
     RDKit          3D

 76 79  0  0  0  0  0  0  0  0999 V2000
   -4.6724   26.7268  -30.2111 H   0  0  0  0  0  0  0  0  0  0  0  0
   -4.6490   25.6630  -30.4900 C   0  0  0  0  0  0  0  0  0  0  0  0
   -3.5270   24.9340  -30.2700 N   0  0  0  0  0  0  0  0  0  0  0  0
   -3.4570   23.6170  -30.5930 C   0  0  0  0  0  0  0  0  0  0  0  0
   -2.2760   22.9090  -30.3500 C   0  0  0  0  0  0  0  0  0  0  0  0
   -1.4132   23.4206  -29.8985 H   0  0  0  0  0  0  0  0  0  0  0  0
   -2.1880   21.5530  -30.6790 C   0  0  0  0  0  0  0  0  0  0  0  0
   -1.2570   20.9999  -30.4859 H   0  0  0  0  0  0  0  0  0  0  0  0
   -3.2800   20.9010  -31.2520 C   0  0  0  0  0  0  0  0  0  0  0  0
   -3.2075   19.8334  -31.5070 H   0  0  0  0  0  0  0  0  0  0  0  0
   -4.4660   21.5970  -31.5040 C   0  0  0  0  0  0  0  0  0  0  0  0
   -5.3207   21.0752  -31.9591 H   0  0  0  0  0  0  0  0  0  0  0  0
   -4.5720   22.9670  -31.1770 C   0  0  0  0  0  0  0  0  0  0  0  0
   -5.7480   23.7100  -31.4290 C   0  0  0  0  0  0  0  0  0  0  0  0
   -6.7680   23.1200  -32.0010 N   0  0  0  0  0  0  0  0  0  0  0  0
   -8.1920   23.4640  -31.9200 C   0  0  0  0  0  0  0  0  0  0  0  0
   -8.5504   23.7482  -32.9204 H   0  0  0  0  0  0  0  0  0  0  0  0
   -8.3098   24.3001  -31.2150 H   0  0  0  0  0  0  0  0  0  0  0  0
   -9.0210   22.2740  -31.4090 C   0  0  0  0  0  0  0  0  0  0  0  0
   -9.8427   22.0882  -32.1163 H   0  0  0  0  0  0  0  0  0  0  0  0
   -9.3961   22.5360  -30.4087 H   0  0  0  0  0  0  0  0  0  0  0  0
   -8.1920   20.9890  -31.2710 C   0  0  0  0  0  0  0  0  0  0  0  0
   -8.6512   20.3492  -30.5030 H   0  0  0  0  0  0  0  0  0  0  0  0
   -7.1671   21.2708  -30.9879 H   0  0  0  0  0  0  0  0  0  0  0  0
   -8.1290   20.2390  -32.5450 N   0  0  0  0  0  0  0  0  0  0  0  0
   -6.7180   20.0720  -32.9800 C   0  0  0  0  0  0  0  0  0  0  0  0
   -6.0736   20.0998  -32.0890 H   0  0  0  0  0  0  0  0  0  0  0  0
   -6.4971   20.8904  -33.6811 H   0  0  0  0  0  0  0  0  0  0  0  0
   -6.4570   18.7520  -33.7290 C   0  0  0  0  0  0  0  0  0  0  0  0
   -5.3811   18.6776  -33.9455 H   0  0  0  0  0  0  0  0  0  0  0  0
   -7.0585   18.7694  -34.6498 H   0  0  0  0  0  0  0  0  0  0  0  0
   -6.8690   17.5530  -32.9470 N   0  0  0  0  0  0  0  0  0  0  0  0
   -7.2310   16.8700  -33.6560 H   0  0  0  0  0  0  0  0  0  0  0  0
   -5.7390   16.8510  -32.2840 C   0  0  0  0  0  0  0  0  0  0  0  0
   -6.0477   16.5953  -31.2596 H   0  0  0  0  0  0  0  0  0  0  0  0
   -4.8819   17.5396  -32.3176 H   0  0  0  0  0  0  0  0  0  0  0  0
   -5.2840   15.5500  -32.9900 C   0  0  0  0  0  0  0  0  0  0  0  0
   -6.1125   15.1780  -33.6107 H   0  0  0  0  0  0  0  0  0  0  0  0
   -5.0054   14.8275  -32.2087 H   0  0  0  0  0  0  0  0  0  0  0  0
   -4.0540   15.7620  -33.8870 C   0  0  0  0  0  0  0  0  0  0  0  0
   -4.0839   15.0248  -34.7029 H   0  0  0  0  0  0  0  0  0  0  0  0
   -3.1615   15.6399  -33.2557 H   0  0  0  0  0  0  0  0  0  0  0  0
   -3.9940   17.1630  -34.4980 C   0  0  0  0  0  0  0  0  0  0  0  0
   -5.0130   17.5068  -34.7291 H   0  0  0  0  0  0  0  0  0  0  0  0
   -3.3992   17.1360  -35.4229 H   0  0  0  0  0  0  0  0  0  0  0  0
   -3.3710   18.0850  -33.5400 N   0  0  0  0  0  0  0  0  0  0  0  0
   -2.6100   17.5800  -33.0260 H   0  0  0  0  0  0  0  0  0  0  0  0
   -2.8130   19.2750  -34.2000 C   0  0  0  0  0  0  0  0  0  0  0  0
   -3.4390   20.1447  -33.9513 H   0  0  0  0  0  0  0  0  0  0  0  0
   -2.8024   19.0872  -35.2838 H   0  0  0  0  0  0  0  0  0  0  0  0
   -1.3910   19.5560  -33.7620 C   0  0  0  0  0  0  0  0  0  0  0  0
   -0.9200   20.8800  -33.7740 C   0  0  0  0  0  0  0  0  0  0  0  0
   -1.5884   21.6944  -34.0901 H   0  0  0  0  0  0  0  0  0  0  0  0
    0.3890   21.1690  -33.3880 C   0  0  0  0  0  0  0  0  0  0  0  0
    0.7499   22.2080  -33.4046 H   0  0  0  0  0  0  0  0  0  0  0  0
    1.2410   20.1420  -32.9810 C   0  0  0  0  0  0  0  0  0  0  0  0
    2.2744   20.3720  -32.6824 H   0  0  0  0  0  0  0  0  0  0  0  0
    0.7850   18.8240  -32.9520 C   0  0  0  0  0  0  0  0  0  0  0  0
    1.4619   18.0185  -32.6312 H   0  0  0  0  0  0  0  0  0  0  0  0
   -0.5370   18.5180  -33.3310 C   0  0  0  0  0  0  0  0  0  0  0  0
   -1.0320   17.2030  -33.2890 O   0  0  0  0  0  0  0  0  0  0  0  0
   -0.4990   16.1120  -34.0330 C   0  0  0  0  0  0  0  0  0  0  0  0
   -1.0010   15.1813  -33.7301 H   0  0  0  0  0  0  0  0  0  0  0  0
    0.5800   16.0263  -33.8372 H   0  0  0  0  0  0  0  0  0  0  0  0
   -0.7280   16.3520  -35.5160 C   0  0  0  0  0  0  0  0  0  0  0  0
   -1.4819   17.1421  -35.6474 H   0  0  0  0  0  0  0  0  0  0  0  0
    0.2159   16.6638  -35.9870 H   0  0  0  0  0  0  0  0  0  0  0  0
   -1.0837   15.4238  -35.9870 H   0  0  0  0  0  0  0  0  0  0  0  0
   -7.9980   17.7970  -32.0140 C   0  0  0  0  0  0  0  0  0  0  0  0
   -7.5928   18.0329  -31.0189 H   0  0  0  0  0  0  0  0  0  0  0  0
   -8.6184   16.8892  -31.9836 H   0  0  0  0  0  0  0  0  0  0  0  0
   -8.8800   18.9610  -32.4790 C   0  0  0  0  0  0  0  0  0  0  0  0
   -9.7156   19.0768  -31.7731 H   0  0  0  0  0  0  0  0  0  0  0  0
   -9.2419   18.7282  -33.4914 H   0  0  0  0  0  0  0  0  0  0  0  0
   -5.7730   25.0740  -31.0670 C   0  0  0  0  0  0  0  0  0  0  0  0
   -6.6796   25.6724  -31.2402 H   0  0  0  0  0  0  0  0  0  0  0  0
  1  2  1  0
  2  3  1  0
  3  4  1  0
  4  5  2  0
  5  6  1  0
  5  7  1  0
  7  8  1  0
  7  9  2  0
  9 10  1  0
  9 11  1  0
 11 12  1  0
 11 13  2  0
 13 14  1  0
 14 15  2  0
 15 16  1  0
 16 17  1  0
 16 18  1  0
 16 19  1  0
 19 20  1  0
 19 21  1  0
 19 22  1  0
 22 23  1  0
 22 24  1  0
 22 25  1  0
 25 26  1  0
 26 27  1  0
 26 28  1  0
 26 29  1  0
 29 30  1  0
 29 31  1  0
 29 32  1  0
 32 33  1  0
 32 34  1  0
 34 35  1  0
 34 36  1  0
 34 37  1  0
 37 38  1  0
 37 39  1  0
 37 40  1  0
 40 41  1  0
 40 42  1  0
 40 43  1  0
 43 44  1  0
 43 45  1  0
 43 46  1  0
 46 47  1  0
 46 48  1  0
 48 49  1  0
 48 50  1  0
 48 51  1  0
 51 52  2  0
 52 53  1  0
 52 54  1  0
 54 55  1  0
 54 56  2  0
 56 57  1  0
 56 58  1  0
 58 59  1  0
 58 60  2  0
 60 61  1  0
 61 62  1  0
 62 63  1  0
 62 64  1  0
 62 65  1  0
 65 66  1  0
 65 67  1  0
 65 68  1  0
 32 69  1  0
 69 70  1  0
 69 71  1  0
 69 72  1  0
 72 73  1  0
 72 74  1  0
 14 75  1  0
 75 76  1  0
 75  2  2  0
 13  4  1  0
 72 25  1  0
 60 51  1  0
M  CHG  2   3  -1  32   1
M  END
>  <UniqueID>  (48) 
39

>  <SMILES>  (48) 
CCOc1ccccc1CNCCCC[NH+]1CCN(CCC/N=c2\cc[n-]c3ccccc23)CC1

>  <Energy>  (48) 
93.74998185473093

>  <Genealogy>  (48) 
CCOc1ccccc1CNCCCC[NH+]1CCN(CCCN=c2cc[n-]c3ccccc23)CC1 (protonated)
CCOc1ccccc1CNCCCC[NH+]1CCN(CCC/N=c2\cc[n-]c3ccccc23)CC1 (cis-trans isomerization)
CCOc1ccccc1CNCCCC[NH+]1CCN(CCC/N=c2\cc[n-]c3ccccc23)CC1 (3D coordinates assigned)
CCOc1ccccc1CNCCCC[NH+]1CCN(CCC/N=c2\cc[n-]c3ccccc23)CC1 (nonaromatic ring conformer: 93.74998185473093 kcal/mol)

>  <smiles>  (48) 
CCOc1ccccc1CNCCCCN1CCN(CCCN=c2cc[nH]c3ccccc23)CC1

>  <score_type>  (48) 
oracle

>  <origin>  (48) 
adg

>  <m_score__min__energy>  (48) 
-8.9299999999999997

>  <m_primary>  (48) 
energy

$$$$
48:0
     RDKit          3D

 43 46  0  0  0  0  0  0  0  0999 V2000
   -4.5960   14.3260  -32.0070 C   0  0  0  0  0  0  0  0  0  0  0  0
   -3.9270   15.4650  -32.5370 O   0  0  0  0  0  0  0  0  0  0  0  0
   -4.5620   16.4950  -33.2480 C   0  0  0  0  0  0  0  0  0  0  0  0
   -4.2270   16.6780  -34.5960 C   0  0  0  0  0  0  0  0  0  0  0  0
   -4.8330   17.6880  -35.3470 C   0  0  0  0  0  0  0  0  0  0  0  0
   -5.7760   18.5300  -34.7570 C   0  0  0  0  0  0  0  0  0  0  0  0
   -6.1110   18.3730  -33.4030 C   0  0  0  0  0  0  0  0  0  0  0  0
   -7.1220   19.2540  -32.7790 C   0  0  0  0  0  0  0  0  0  0  0  0
   -8.3670   18.6970  -32.4520 C   0  0  0  0  0  0  0  0  0  0  0  0
   -9.3630   19.4790  -31.8720 C   0  0  0  0  0  0  0  0  0  0  0  0
   -9.1330   20.8300  -31.6240 C   0  0  0  0  0  0  0  0  0  0  0  0
   -7.8990   21.4100  -31.9490 C   0  0  0  0  0  0  0  0  0  0  0  0
   -6.8640   20.6250  -32.4990 C   0  0  0  0  0  0  0  0  0  0  0  0
   -5.4660   21.2250  -32.7190 C   0  0  2  0  0  0  0  0  0  0  0  0
   -4.4900   20.6830  -31.6710 C   0  0  0  0  0  0  0  0  0  0  0  0
   -4.3870   21.7780  -30.6410 C   0  0  0  0  0  0  0  0  0  0  0  0
   -4.6120   23.0560  -31.4250 C   0  0  0  0  0  0  0  0  0  0  0  0
   -5.3860   22.7120  -32.6400 N   0  0  2  0  0  0  0  0  0  0  0  0
   -6.6830   23.4170  -32.7070 C   0  0  0  0  0  0  0  0  0  0  0  0
   -7.6850   22.8680  -31.6940 C   0  0  0  0  0  0  0  0  0  0  0  0
   -5.5160   17.3460  -32.6560 C   0  0  0  0  0  0  0  0  0  0  0  0
   -4.5728   14.3656  -30.9080 H   0  0  0  0  0  0  0  0  0  0  0  0
   -5.6406   14.3209  -32.3517 H   0  0  0  0  0  0  0  0  0  0  0  0
   -4.0917   13.4112  -32.3517 H   0  0  0  0  0  0  0  0  0  0  0  0
   -3.4808   16.0211  -35.0668 H   0  0  0  0  0  0  0  0  0  0  0  0
   -4.5661   17.8197  -36.4060 H   0  0  0  0  0  0  0  0  0  0  0  0
   -6.2578   19.3183  -35.3540 H   0  0  0  0  0  0  0  0  0  0  0  0
   -8.5585   17.6331  -32.6554 H   0  0  0  0  0  0  0  0  0  0  0  0
  -10.3319   19.0292  -31.6096 H   0  0  0  0  0  0  0  0  0  0  0  0
   -9.9241   21.4453  -31.1706 H   0  0  0  0  0  0  0  0  0  0  0  0
   -5.2109   20.9297  -33.7474 H   0  0  0  0  0  0  0  0  0  0  0  0
   -4.8807   19.7599  -31.2179 H   0  0  0  0  0  0  0  0  0  0  0  0
   -3.5124   20.4276  -32.1058 H   0  0  0  0  0  0  0  0  0  0  0  0
   -5.1575   21.6565  -29.8654 H   0  0  0  0  0  0  0  0  0  0  0  0
   -3.4192   21.7719  -30.1181 H   0  0  0  0  0  0  0  0  0  0  0  0
   -5.1760   23.7757  -30.8134 H   0  0  0  0  0  0  0  0  0  0  0  0
   -3.6496   23.5128  -31.6992 H   0  0  0  0  0  0  0  0  0  0  0  0
   -4.8300   23.0450  -33.4640 H   0  0  0  0  0  0  0  0  0  0  0  0
   -6.5180   24.4848  -32.5005 H   0  0  0  0  0  0  0  0  0  0  0  0
   -7.1002   23.2664  -33.7136 H   0  0  0  0  0  0  0  0  0  0  0  0
   -7.2928   23.0091  -30.6760 H   0  0  0  0  0  0  0  0  0  0  0  0
   -8.6407   23.4033  -31.7945 H   0  0  0  0  0  0  0  0  0  0  0  0
   -5.7958   17.2041  -31.6017 H   0  0  0  0  0  0  0  0  0  0  0  0
  1  2  1  0
  2  3  1  0
  3  4  2  0
  4  5  1  0
  5  6  2  0
  6  7  1  0
  7  8  1  0
  8  9  2  0
  9 10  1  0
 10 11  2  0
 11 12  1  0
 12 13  2  0
 13 14  1  0
 14 15  1  0
 15 16  1  0
 16 17  1  0
 17 18  1  0
 18 19  1  0
 19 20  1  0
  7 21  2  0
 21  3  1  0
 13  8  1  0
 18 14  1  0
 20 12  1  0
  1 22  1  0
  1 23  1  0
  1 24  1  0
  4 25  1  0
  5 26  1  0
  6 27  1  0
  9 28  1  0
 10 29  1  0
 11 30  1  0
 14 31  1  6
 15 32  1  0
 15 33  1  0
 16 34  1  0
 16 35  1  0
 17 36  1  0
 17 37  1  0
 18 38  1  6
 19 39  1  0
 19 40  1  0
 20 41  1  0
 20 42  1  0
 21 43  1  0
M  CHG  1  18   1
M  END
>  <UniqueID>  (49) 
40

>  <SMILES>  (49) 
COc1cccc(-c2cccc3c2[C@@H]2CCC[N@@H+]2CC3)c1

>  <Energy>  (49) 
63.626830652591245

>  <Genealogy>  (49) 
COc1cccc(-c2cccc3c2C2CCC[NH+]2CC3)c1 (protonated)
COc1cccc(-c2cccc3c2[C@@H]2CCC[N@@H+]2CC3)c1 (chirality)
COc1cccc(-c2cccc3c2[C@@H]2CCC[N@@H+]2CC3)c1 (3D coordinates assigned)
COc1cccc(-c2cccc3c2[C@@H]2CCC[N@@H+]2CC3)c1 (nonaromatic ring conformer: 63.626830652591245 kcal/mol)

>  <smiles>  (49) 
COc1cccc(-c2cccc3c2C2CCCN2CC3)c1

>  <score_type>  (49) 
oracle

>  <origin>  (49) 
adg

>  <m_score__min__energy>  (49) 
-8.0399999999999991

>  <m_primary>  (49) 
energy

$$$$
