0:0
     RDKit          3D

 47 50  0  0  0  0  0  0  0  0999 V2000
   -8.0900   23.4070  -31.8140 C   0  0  0  0  0  0  0  0  0  0  0  0
   -7.3150   22.1710  -31.6340 N   0  0  0  0  0  0  0  0  0  0  0  0
   -8.0890   20.9540  -31.9870 C   0  0  0  0  0  0  0  0  0  0  0  0
   -7.2370   19.7930  -32.4570 C   0  0  0  0  0  0  0  0  0  0  0  0
   -6.7460   19.7630  -33.7850 C   0  0  0  0  0  0  0  0  0  0  0  0
   -5.9570   18.6930  -34.2320 C   0  0  0  0  0  0  0  0  0  0  0  0
   -5.6650   17.6720  -33.3340 C   0  0  0  0  0  0  0  0  0  0  0  0
   -4.7540   16.2830  -33.5770 S   0  0  0  0  0  0  0  0  0  0  0  0
   -4.9810   15.7510  -31.9860 C   0  0  0  0  0  0  0  0  0  0  0  0
   -5.7400   16.6220  -31.2780 N   0  0  0  0  0  0  0  0  0  0  0  0
   -6.1210   17.6900  -32.0280 C   0  0  0  0  0  0  0  0  0  0  0  0
   -6.9060   18.7480  -31.5660 C   0  0  0  0  0  0  0  0  0  0  0  0
   -6.0020   22.2610  -32.3050 C   0  0  0  0  0  0  0  0  0  0  0  0
   -4.9610   22.8920  -31.4060 C   0  0  0  0  0  0  0  0  0  0  0  0
   -5.3040   24.0150  -30.6360 C   0  0  0  0  0  0  0  0  0  0  0  0
   -4.3870   24.6010  -29.8230 N   0  0  0  0  0  0  0  0  0  0  0  0
   -3.1190   24.1250  -29.7140 C   0  0  0  0  0  0  0  0  0  0  0  0
   -1.9810   24.9240  -28.6500 Cl  0  0  0  0  0  0  0  0  0  0  0  0
   -2.7310   23.0010  -30.4440 C   0  0  0  0  0  0  0  0  0  0  0  0
   -3.6530   22.3690  -31.2880 C   0  0  0  0  0  0  0  0  0  0  0  0
   -3.2440   21.2080  -32.0250 N   0  0  0  0  0  0  0  0  0  0  0  0
   -2.5300   20.1010  -31.4170 C   0  0  0  0  0  0  0  0  0  0  0  0
   -2.2450   19.1330  -32.5560 C   0  0  0  0  0  0  0  0  0  0  0  0
   -2.3890   19.9470  -33.8400 C   0  0  0  0  0  0  0  0  0  0  0  0
   -3.2370   21.1600  -33.4760 C   0  0  0  0  0  0  0  0  0  0  0  0
   -8.3508   23.8229  -30.8296 H   0  0  0  0  0  0  0  0  0  0  0  0
   -7.4887   24.1386  -32.3735 H   0  0  0  0  0  0  0  0  0  0  0  0
   -9.0105   23.1844  -32.3735 H   0  0  0  0  0  0  0  0  0  0  0  0
   -8.6510   20.6322  -31.0978 H   0  0  0  0  0  0  0  0  0  0  0  0
   -8.7435   21.2275  -32.8277 H   0  0  0  0  0  0  0  0  0  0  0  0
   -6.9858   20.5872  -34.4729 H   0  0  0  0  0  0  0  0  0  0  0  0
   -5.5795   18.6622  -35.2647 H   0  0  0  0  0  0  0  0  0  0  0  0
   -4.5654   14.8174  -31.5789 H   0  0  0  0  0  0  0  0  0  0  0  0
   -5.9980   16.4830  -30.2770 H   0  0  0  0  0  0  0  0  0  0  0  0
   -7.2610   18.7676  -30.5250 H   0  0  0  0  0  0  0  0  0  0  0  0
   -5.6708   21.2486  -32.5793 H   0  0  0  0  0  0  0  0  0  0  0  0
   -6.1141   22.8924  -33.1988 H   0  0  0  0  0  0  0  0  0  0  0  0
   -6.3238   24.4236  -30.6916 H   0  0  0  0  0  0  0  0  0  0  0  0
   -1.7054   22.6129  -30.3571 H   0  0  0  0  0  0  0  0  0  0  0  0
   -1.5904   20.4507  -30.9643 H   0  0  0  0  0  0  0  0  0  0  0  0
   -3.1138   19.6283  -30.6135 H   0  0  0  0  0  0  0  0  0  0  0  0
   -1.2250   18.7303  -32.4702 H   0  0  0  0  0  0  0  0  0  0  0  0
   -2.9342   18.2758  -32.5407 H   0  0  0  0  0  0  0  0  0  0  0  0
   -1.4009   20.2665  -34.2028 H   0  0  0  0  0  0  0  0  0  0  0  0
   -2.8553   19.3555  -34.6417 H   0  0  0  0  0  0  0  0  0  0  0  0
   -2.7923   22.0776  -33.8887 H   0  0  0  0  0  0  0  0  0  0  0  0
   -4.2547   21.0840  -33.8864 H   0  0  0  0  0  0  0  0  0  0  0  0
  1  2  1  0
  2  3  1  0
  3  4  1  0
  4  5  2  0
  5  6  1  0
  6  7  2  0
  7  8  1  0
  8  9  1  0
  9 10  2  0
 10 11  1  0
 11 12  2  0
  2 13  1  0
 13 14  1  0
 14 15  2  0
 15 16  1  0
 16 17  2  0
 17 18  1  0
 17 19  1  0
 19 20  2  0
 20 21  1  0
 21 22  1  0
 22 23  1  0
 23 24  1  0
 24 25  1  0
 12  4  1  0
 20 14  1  0
 25 21  1  0
 11  7  1  0
  1 26  1  0
  1 27  1  0
  1 28  1  0
  3 29  1  0
  3 30  1  0
  5 31  1  0
  6 32  1  0
  9 33  1  0
 10 34  1  0
 12 35  1  0
 13 36  1  0
 13 37  1  0
 15 38  1  0
 19 39  1  0
 22 40  1  0
 22 41  1  0
 23 42  1  0
 23 43  1  0
 24 44  1  0
 24 45  1  0
 25 46  1  0
 25 47  1  0
M  CHG  1  10   1
M  END
>  <UniqueID>  (1) 
1

>  <SMILES>  (1) 
CN(Cc1ccc2sc[nH+]c2c1)Cc1cnc(Cl)cc1N1CCCC1

>  <Energy>  (1) 
92.40400798669877

>  <Genealogy>  (1) 
CN(Cc1ccc2sc[nH+]c2c1)Cc1cnc(Cl)cc1N1CCCC1 (protonated)
CN(Cc1ccc2sc[nH+]c2c1)Cc1cnc(Cl)cc1N1CCCC1 (3D coordinates assigned)
CN(Cc1ccc2sc[nH+]c2c1)Cc1cnc(Cl)cc1N1CCCC1 (nonaromatic ring conformer: 92.40400798669877 kcal/mol)

>  <smiles>  (1) 
CN(Cc1ccc2scnc2c1)Cc1cnc(Cl)cc1N1CCCC1

>  <score_type>  (1) 
oracle

>  <origin>  (1) 
adg

>  <m_score__min__energy>  (1) 
-8.0600000000000005

>  <m_primary>  (1) 
energy

$$$$
1:0
     RDKit          3D

 43 46  0  0  0  0  0  0  0  0999 V2000
   -0.2370   20.5130  -32.8380 C   0  0  0  0  0  0  0  0  0  0  0  0
   -1.6430   20.8160  -32.4140 C   0  0  0  0  0  0  0  0  0  0  0  0
   -2.4820   21.5790  -33.2410 C   0  0  0  0  0  0  0  0  0  0  0  0
   -3.8050   21.8310  -32.8630 C   0  0  0  0  0  0  0  0  0  0  0  0
   -4.3030   21.3150  -31.6590 C   0  0  0  0  0  0  0  0  0  0  0  0
   -5.7040   21.5770  -31.2630 C   0  0  0  0  0  0  0  0  0  0  0  0
   -6.0260   22.7240  -30.4990 C   0  0  0  0  0  0  0  0  0  0  0  0
   -4.7880   23.8940  -30.0000 S   0  0  0  0  0  0  0  0  0  0  0  0
   -4.2570   24.6040  -31.2140 O   0  0  0  0  0  0  0  0  0  0  0  0
   -5.3840   24.9100  -29.0670 O   0  0  0  0  0  0  0  0  0  0  0  0
   -3.4550   23.1030  -29.1580 C   0  0  0  0  0  0  0  0  0  0  0  0
   -2.1260   23.3710  -29.5160 C   0  0  0  0  0  0  0  0  0  0  0  0
   -1.0770   22.7230  -28.8560 C   0  0  0  0  0  0  0  0  0  0  0  0
   -1.3500   21.8050  -27.8390 C   0  0  0  0  0  0  0  0  0  0  0  0
   -2.6730   21.5290  -27.4830 C   0  0  0  0  0  0  0  0  0  0  0  0
   -3.7250   22.1750  -28.1400 C   0  0  0  0  0  0  0  0  0  0  0  0
   -7.3590   22.9360  -30.1190 C   0  0  0  0  0  0  0  0  0  0  0  0
   -8.3300   22.0670  -30.4930 N   0  0  0  0  0  0  0  0  0  0  0  0
   -8.0630   20.9620  -31.2340 C   0  0  0  0  0  0  0  0  0  0  0  0
   -9.1070   20.1000  -31.5880 C   0  0  0  0  0  0  0  0  0  0  0  0
   -8.8460   18.9540  -32.3410 C   0  0  0  0  0  0  0  0  0  0  0  0
   -7.5410   18.6610  -32.7420 C   0  0  0  0  0  0  0  0  0  0  0  0
   -7.2940   17.5440  -33.4690 F   0  0  0  0  0  0  0  0  0  0  0  0
   -6.4900   19.5140  -32.3940 C   0  0  0  0  0  0  0  0  0  0  0  0
   -6.7360   20.6820  -31.6390 C   0  0  0  0  0  0  0  0  0  0  0  0
   -3.4740   20.5310  -30.8440 C   0  0  0  0  0  0  0  0  0  0  0  0
   -2.1530   20.2800  -31.2210 C   0  0  0  0  0  0  0  0  0  0  0  0
    0.3935   20.3771  -31.9469 H   0  0  0  0  0  0  0  0  0  0  0  0
   -0.2257   19.5918  -33.4391 H   0  0  0  0  0  0  0  0  0  0  0  0
    0.1527   21.3478  -33.4391 H   0  0  0  0  0  0  0  0  0  0  0  0
   -2.0976   21.9804  -34.1903 H   0  0  0  0  0  0  0  0  0  0  0  0
   -4.4557   22.4354  -33.5121 H   0  0  0  0  0  0  0  0  0  0  0  0
   -1.9081   24.0923  -30.3174 H   0  0  0  0  0  0  0  0  0  0  0  0
   -0.0354   22.9365  -29.1381 H   0  0  0  0  0  0  0  0  0  0  0  0
   -0.5235   21.2993  -27.3183 H   0  0  0  0  0  0  0  0  0  0  0  0
   -2.8871   20.8027  -26.6850 H   0  0  0  0  0  0  0  0  0  0  0  0
   -4.7655   21.9556  -27.8586 H   0  0  0  0  0  0  0  0  0  0  0  0
   -7.6192   23.8156  -29.5118 H   0  0  0  0  0  0  0  0  0  0  0  0
  -10.1361   20.3261  -31.2720 H   0  0  0  0  0  0  0  0  0  0  0  0
   -9.6700   18.2804  -32.6190 H   0  0  0  0  0  0  0  0  0  0  0  0
   -5.4642   19.2740  -32.7103 H   0  0  0  0  0  0  0  0  0  0  0  0
   -3.8653   20.1125  -29.9050 H   0  0  0  0  0  0  0  0  0  0  0  0
   -1.5092   19.6595  -30.5803 H   0  0  0  0  0  0  0  0  0  0  0  0
  1  2  1  0
  2  3  2  0
  3  4  1  0
  4  5  2  0
  5  6  1  0
  6  7  1  0
  7  8  1  0
  8  9  2  0
  8 10  2  0
  8 11  1  0
 11 12  2  0
 12 13  1  0
 13 14  2  0
 14 15  1  0
 15 16  2  0
  7 17  2  0
 17 18  1  0
 18 19  2  0
 19 20  1  0
 20 21  2  0
 21 22  1  0
 22 23  1  0
 22 24  2  0
 24 25  1  0
  5 26  1  0
 26 27  2  0
 27  2  1  0
 25  6  2  0
 16 11  1  0
 25 19  1  0
  1 28  1  0
  1 29  1  0
  1 30  1  0
  3 31  1  0
  4 32  1  0
 12 33  1  0
 13 34  1  0
 14 35  1  0
 15 36  1  0
 16 37  1  0
 17 38  1  0
 20 39  1  0
 21 40  1  0
 24 41  1  0
 26 42  1  0
 27 43  1  0
M  END
>  <UniqueID>  (2) 
2

>  <SMILES>  (2) 
Cc1ccc(-c2c(S(=O)(=O)c3ccccc3)cnc3ccc(F)cc23)cc1

>  <Energy>  (2) 
63.187131768874984

>  <Genealogy>  (2) 
Cc1ccc(-c2c(S(=O)(=O)c3ccccc3)cnc3ccc(F)cc23)cc1 (3D coordinates assigned)
Cc1ccc(-c2c(S(=O)(=O)c3ccccc3)cnc3ccc(F)cc23)cc1 (optimized conformer: 63.187131768874984 kcal/mol)

>  <smiles>  (2) 
Cc1ccc(-c2c(S(=O)(=O)c3ccccc3)cnc3ccc(F)cc23)cc1

>  <score_type>  (2) 
oracle

>  <origin>  (2) 
adg

>  <m_score__min__energy>  (2) 
-9.25

>  <m_primary>  (2) 
energy

$$$$
2:0
     RDKit          3D

 45 48  0  0  0  0  0  0  0  0999 V2000
   -1.7350   25.4100  -25.4860 C   0  0  0  0  0  0  0  0  0  0  0  0
   -2.3200   24.7960  -26.7240 C   0  0  0  0  0  0  0  0  0  0  0  0
   -3.6970   24.5460  -26.8070 C   0  0  0  0  0  0  0  0  0  0  0  0
   -4.2480   24.0080  -27.9730 C   0  0  0  0  0  0  0  0  0  0  0  0
   -3.4340   23.7300  -29.0850 C   0  0  0  0  0  0  0  0  0  0  0  0
   -3.9960   23.1630  -30.2850 N   0  0  0  0  0  0  0  0  0  0  0  0
   -3.6900   21.8350  -30.7970 C   0  0  0  0  0  0  0  0  0  0  0  0
   -4.7560   21.5590  -31.8930 C   0  0  1  0  0  0  0  0  0  0  0  0
   -5.2340   22.9660  -32.3500 C   0  0  0  0  0  0  0  0  0  0  0  0
   -4.8440   23.8250  -31.2110 C   0  0  0  0  0  0  0  0  0  0  0  0
   -5.1580   25.0420  -31.1210 O   0  0  0  0  0  0  0  0  0  0  0  0
   -4.2180   20.7180  -33.0590 C   0  0  0  0  0  0  0  0  0  0  0  0
   -5.3990   19.9020  -33.4250 C   0  0  0  0  0  0  0  0  0  0  0  0
   -5.4660   19.2770  -34.4730 O   0  0  0  0  0  0  0  0  0  0  0  0
   -6.4810   19.9420  -32.4840 N   0  0  1  0  0  0  0  0  0  0  0  0
   -6.9570   18.5940  -32.0920 C   0  0  0  0  0  0  0  0  0  0  0  0
   -8.4550   18.5530  -31.7040 C   0  0  0  0  0  0  0  0  0  0  0  0
   -9.3590   19.2840  -32.6850 C   0  0  0  0  0  0  0  0  0  0  0  0
   -9.0990   19.8750  -31.3110 C   0  0  0  0  0  0  0  0  0  0  0  0
   -5.9560   20.7320  -31.3540 C   0  0  0  0  0  0  0  0  0  0  0  0
   -2.0550   23.9860  -28.9980 C   0  0  0  0  0  0  0  0  0  0  0  0
   -1.5040   24.5250  -27.8310 C   0  0  0  0  0  0  0  0  0  0  0  0
   -2.1822   24.9406  -24.5974 H   0  0  0  0  0  0  0  0  0  0  0  0
   -0.6467   25.2502  -25.4766 H   0  0  0  0  0  0  0  0  0  0  0  0
   -1.9472   26.4893  -25.4766 H   0  0  0  0  0  0  0  0  0  0  0  0
   -4.3471   24.7746  -25.9496 H   0  0  0  0  0  0  0  0  0  0  0  0
   -5.3272   23.8004  -28.0212 H   0  0  0  0  0  0  0  0  0  0  0  0
   -2.6788   21.8130  -31.2295 H   0  0  0  0  0  0  0  0  0  0  0  0
   -3.7144   21.0748  -30.0023 H   0  0  0  0  0  0  0  0  0  0  0  0
   -4.7255   23.2772  -33.2744 H   0  0  0  0  0  0  0  0  0  0  0  0
   -6.3083   23.0089  -32.5825 H   0  0  0  0  0  0  0  0  0  0  0  0
   -3.8981   21.3553  -33.8966 H   0  0  0  0  0  0  0  0  0  0  0  0
   -3.3307   20.1211  -32.8013 H   0  0  0  0  0  0  0  0  0  0  0  0
   -7.2750   20.4640  -32.9270 H   0  0  0  0  0  0  0  0  0  0  0  0
   -6.7984   17.9097  -32.9385 H   0  0  0  0  0  0  0  0  0  0  0  0
   -6.3852   18.2972  -31.2004 H   0  0  0  0  0  0  0  0  0  0  0  0
   -8.4190   17.5555  -31.2418 H   0  0  0  0  0  0  0  0  0  0  0  0
   -8.9292   19.7603  -33.5786 H   0  0  0  0  0  0  0  0  0  0  0  0
  -10.2589   19.0181  -33.2591 H   0  0  0  0  0  0  0  0  0  0  0  0
   -8.4807   20.7791  -31.2093 H   0  0  0  0  0  0  0  0  0  0  0  0
   -9.7322   20.2141  -30.4779 H   0  0  0  0  0  0  0  0  0  0  0  0
   -6.7362   21.4056  -30.9698 H   0  0  0  0  0  0  0  0  0  0  0  0
   -5.6401   20.0749  -30.5303 H   0  0  0  0  0  0  0  0  0  0  0  0
   -1.4034   23.7605  -29.8551 H   0  0  0  0  0  0  0  0  0  0  0  0
   -0.4258   24.7371  -27.7817 H   0  0  0  0  0  0  0  0  0  0  0  0
  1  2  1  0
  2  3  2  0
  3  4  1  0
  4  5  2  0
  5  6  1  0
  6  7  1  0
  8  7  1  1
  8  9  1  0
  9 10  1  0
 10 11  2  0
  8 12  1  0
 12 13  1  0
 13 14  2  0
 13 15  1  0
 15 16  1  0
 16 17  1  0
 17 18  1  0
 18 19  1  0
 15 20  1  0
  5 21  1  0
 21 22  2  0
 22  2  1  0
 10  6  1  0
 19 17  1  0
 20  8  1  0
  1 23  1  0
  1 24  1  0
  1 25  1  0
  3 26  1  0
  4 27  1  0
  7 28  1  0
  7 29  1  0
  9 30  1  0
  9 31  1  0
 12 32  1  0
 12 33  1  0
 15 34  1  6
 16 35  1  0
 16 36  1  0
 17 37  1  0
 18 38  1  0
 18 39  1  0
 19 40  1  0
 19 41  1  0
 20 42  1  0
 20 43  1  0
 21 44  1  0
 22 45  1  0
M  CHG  1  15   1
M  END
>  <UniqueID>  (3) 
3

>  <SMILES>  (3) 
Cc1ccc(N2C[C@@]3(CC2=O)CC(=O)[N@@H+](CC2CC2)C3)cc1

>  <Energy>  (3) 
330.5299878508727

>  <Genealogy>  (3) 
Cc1ccc(N2CC3(CC2=O)CC(=O)[NH+](CC2CC2)C3)cc1 (protonated)
Cc1ccc(N2C[C@@]3(CC2=O)CC(=O)[N@@H+](CC2CC2)C3)cc1 (chirality)
Cc1ccc(N2C[C@@]3(CC2=O)CC(=O)[N@@H+](CC2CC2)C3)cc1 (3D coordinates assigned)
Cc1ccc(N2C[C@@]3(CC2=O)CC(=O)[N@@H+](CC2CC2)C3)cc1 (nonaromatic ring conformer: 330.5299878508727 kcal/mol)

>  <smiles>  (3) 
Cc1ccc(N2CC3(CC(=O)N(CC4CC4)C3)CC2=O)cc1

>  <score_type>  (3) 
oracle

>  <origin>  (3) 
adg

>  <m_score__min__energy>  (3) 
-7.7300000000000004

>  <m_primary>  (3) 
energy

$$$$
3:0
     RDKit          3D

 50 52  0  0  0  0  0  0  0  0999 V2000
   -9.0210   18.5910  -31.9350 C   0  0  0  0  0  0  0  0  0  0  0  0
   -7.5780   18.9010  -31.9000 N   0  0  0  0  0  0  0  0  0  0  0  0
   -6.7770   17.6920  -32.1700 C   0  0  0  0  0  0  0  0  0  0  0  0
   -7.2210   20.0330  -32.7870 C   0  0  0  0  0  0  0  0  0  0  0  0
   -7.0900   21.3540  -32.0650 C   0  0  0  0  0  0  0  0  0  0  0  0
   -8.1260   22.2870  -31.9670 C   0  0  0  0  0  0  0  0  0  0  0  0
   -7.5670   23.6000  -31.0770 S   0  0  0  0  0  0  0  0  0  0  0  0
   -6.0060   23.0200  -30.8440 C   0  0  0  0  0  0  0  0  0  0  0  0
   -4.9210   23.7560  -30.1750 C   0  0  0  0  0  0  0  0  0  0  0  0
   -4.3050   24.6460  -30.8220 O   0  0  0  0  0  0  0  0  0  0  0  0
   -4.4530   23.3400  -28.8620 N   0  0  1  0  0  0  0  0  0  0  0  0
   -3.3720   22.3230  -28.9620 C   0  0  0  0  0  0  0  0  0  0  0  0
   -1.9820   22.8650  -29.3780 C   0  0  0  0  0  0  0  0  0  0  0  0
   -1.1330   23.3940  -28.2210 C   0  0  0  0  0  0  0  0  0  0  0  0
   -1.7240   24.6310  -27.6610 N   0  0  0  0  0  0  0  0  0  0  0  0
   -0.7820   25.2820  -26.7260 C   0  0  0  0  0  0  0  0  0  0  0  0
   -0.7590   26.8100  -26.8710 C   0  0  0  0  0  0  0  0  0  0  0  0
   -1.2700   26.9620  -25.4470 C   0  0  0  0  0  0  0  0  0  0  0  0
   -1.3640   25.4510  -25.3170 C   0  0  0  0  0  0  0  0  0  0  0  0
   -3.0050   24.3110  -26.9840 C   0  0  0  0  0  0  0  0  0  0  0  0
   -4.1880   24.4860  -27.9470 C   0  0  0  0  0  0  0  0  0  0  0  0
   -5.9040   21.7670  -31.4380 C   0  0  0  0  0  0  0  0  0  0  0  0
   -9.4034   18.5088  -30.9069 H   0  0  0  0  0  0  0  0  0  0  0  0
   -9.5560   19.3947  -32.4621 H   0  0  0  0  0  0  0  0  0  0  0  0
   -9.1787   17.6385  -32.4621 H   0  0  0  0  0  0  0  0  0  0  0  0
   -6.4731   17.2333  -31.2175 H   0  0  0  0  0  0  0  0  0  0  0  0
   -7.3791   16.9746  -32.7469 H   0  0  0  0  0  0  0  0  0  0  0  0
   -5.8816   17.9667  -32.7469 H   0  0  0  0  0  0  0  0  0  0  0  0
   -6.2597   19.8051  -33.2708 H   0  0  0  0  0  0  0  0  0  0  0  0
   -8.0407   20.1435  -33.5121 H   0  0  0  0  0  0  0  0  0  0  0  0
   -9.1327   22.1809  -32.3975 H   0  0  0  0  0  0  0  0  0  0  0  0
   -5.2550   22.8310  -28.4180 H   0  0  0  0  0  0  0  0  0  0  0  0
   -3.2675   21.8419  -27.9783 H   0  0  0  0  0  0  0  0  0  0  0  0
   -3.6791   21.6340  -29.7626 H   0  0  0  0  0  0  0  0  0  0  0  0
   -1.4276   22.0496  -29.8657 H   0  0  0  0  0  0  0  0  0  0  0  0
   -2.1674   23.7197  -30.0451 H   0  0  0  0  0  0  0  0  0  0  0  0
   -1.0812   22.6293  -27.4320 H   0  0  0  0  0  0  0  0  0  0  0  0
   -0.1251   23.6226  -28.5976 H   0  0  0  0  0  0  0  0  0  0  0  0
    0.1229   24.6810  -26.8992 H   0  0  0  0  0  0  0  0  0  0  0  0
    0.2449   27.2292  -27.0336 H   0  0  0  0  0  0  0  0  0  0  0  0
   -1.2887   27.2951  -27.7041 H   0  0  0  0  0  0  0  0  0  0  0  0
   -0.5491   27.4276  -24.7589 H   0  0  0  0  0  0  0  0  0  0  0  0
   -2.1451   27.5938  -25.2348 H   0  0  0  0  0  0  0  0  0  0  0  0
   -0.7340   25.0305  -24.5193 H   0  0  0  0  0  0  0  0  0  0  0  0
   -2.3211   24.9772  -25.0536 H   0  0  0  0  0  0  0  0  0  0  0  0
   -2.9769   23.2690  -26.6326 H   0  0  0  0  0  0  0  0  0  0  0  0
   -3.1366   24.9976  -26.1347 H   0  0  0  0  0  0  0  0  0  0  0  0
   -5.0926   24.6528  -27.3438 H   0  0  0  0  0  0  0  0  0  0  0  0
   -3.9220   25.3326  -28.5970 H   0  0  0  0  0  0  0  0  0  0  0  0
   -4.9865   21.1606  -31.4185 H   0  0  0  0  0  0  0  0  0  0  0  0
  1  2  1  0
  2  3  1  0
  2  4  1  0
  4  5  1  0
  5  6  2  0
  6  7  1  0
  7  8  1  0
  8  9  1  0
  9 10  2  0
  9 11  1  0
 11 12  1  0
 12 13  1  0
 13 14  1  0
 14 15  1  0
 15 16  1  0
 16 17  1  0
 17 18  1  0
 18 19  1  0
 15 20  1  0
 20 21  1  0
  8 22  2  0
 22  5  1  0
 21 11  1  0
 19 16  1  0
  1 23  1  0
  1 24  1  0
  1 25  1  0
  3 26  1  0
  3 27  1  0
  3 28  1  0
  4 29  1  0
  4 30  1  0
  6 31  1  0
 11 32  1  1
 12 33  1  0
 12 34  1  0
 13 35  1  0
 13 36  1  0
 14 37  1  0
 14 38  1  0
 16 39  1  0
 17 40  1  0
 17 41  1  0
 18 42  1  0
 18 43  1  0
 19 44  1  0
 19 45  1  0
 20 46  1  0
 20 47  1  0
 21 48  1  0
 21 49  1  0
 22 50  1  0
M  CHG  1  11   1
M  END
>  <UniqueID>  (4) 
4

>  <SMILES>  (4) 
CN(C)Cc1csc(C(=O)[N@H+]2CCCN(C3CCC3)CC2)c1

>  <Energy>  (4) 
158.01672377591282

>  <Genealogy>  (4) 
CN(C)Cc1csc(C(=O)[NH+]2CCCN(C3CCC3)CC2)c1 (protonated)
CN(C)Cc1csc(C(=O)[N@H+]2CCCN(C3CCC3)CC2)c1 (chirality)
CN(C)Cc1csc(C(=O)[N@H+]2CCCN(C3CCC3)CC2)c1 (3D coordinates assigned)
CN(C)Cc1csc(C(=O)[N@H+]2CCCN(C3CCC3)CC2)c1 (nonaromatic ring conformer: 158.01672377591282 kcal/mol)

>  <smiles>  (4) 
CN(C)Cc1csc(C(=O)N2CCCN(C3CCC3)CC2)c1

>  <score_type>  (4) 
oracle

>  <origin>  (4) 
adg

>  <m_score__min__energy>  (4) 
-5.29

>  <m_primary>  (4) 
energy

$$$$
4:0
     RDKit          3D

 52 53  0  0  0  0  0  0  0  0999 V2000
   -6.6010   25.0120  -29.9070 C   0  0  0  0  0  0  0  0  0  0  0  0
   -5.3270   25.5710  -30.5620 C   0  0  0  0  0  0  0  0  0  0  0  0
   -4.2640   24.5650  -30.7980 N   0  0  0  0  0  0  0  0  0  0  0  0
   -3.3270   24.3600  -29.6690 C   0  0  0  0  0  0  0  0  0  0  0  0
   -3.9820   23.8000  -28.4040 C   0  0  0  0  0  0  0  0  0  0  0  0
   -4.6920   23.3380  -31.5050 C   0  0  0  0  0  0  0  0  0  0  0  0
   -3.5490   22.3160  -31.6310 C   0  0  0  0  0  0  0  0  0  0  0  0
   -3.4770   21.6340  -33.0090 C   0  0  0  0  0  0  0  0  0  0  0  0
   -4.4560   20.5230  -33.1260 N   0  0  0  0  0  0  0  0  0  0  0  0
   -3.8470   19.3750  -33.8180 C   0  0  0  0  0  0  0  0  0  0  0  0
   -4.9870   20.0960  -31.8110 C   0  0  0  0  0  0  0  0  0  0  0  0
   -6.4260   19.6420  -31.9380 C   0  0  0  0  0  0  0  0  0  0  0  0
   -6.7460   18.2670  -32.0150 C   0  0  0  0  0  0  0  0  0  0  0  0
   -5.7070   17.3210  -31.9900 O   0  0  0  0  0  0  0  0  0  0  0  0
   -5.4840   16.3330  -32.9920 C   0  0  0  0  0  0  0  0  0  0  0  0
   -8.0960   17.8740  -32.1050 C   0  0  0  0  0  0  0  0  0  0  0  0
   -9.1170   18.8230  -32.1080 C   0  0  0  0  0  0  0  0  0  0  0  0
   -8.8110   20.1850  -32.0300 C   0  0  0  0  0  0  0  0  0  0  0  0
   -9.8240   21.1530  -32.0230 C   0  0  0  0  0  0  0  0  0  0  0  0
   -9.4910   22.5070  -31.9430 C   0  0  0  0  0  0  0  0  0  0  0  0
   -8.1480   22.8800  -31.8740 C   0  0  0  0  0  0  0  0  0  0  0  0
   -7.1750   21.9310  -31.8810 N   0  0  0  0  0  0  0  0  0  0  0  0
   -7.4630   20.5990  -31.9550 C   0  0  0  0  0  0  0  0  0  0  0  0
   -6.5003   25.0562  -28.8125 H   0  0  0  0  0  0  0  0  0  0  0  0
   -7.4679   25.6124  -30.2200 H   0  0  0  0  0  0  0  0  0  0  0  0
   -6.7462   23.9675  -30.2200 H   0  0  0  0  0  0  0  0  0  0  0  0
   -5.6041   26.0116  -31.5311 H   0  0  0  0  0  0  0  0  0  0  0  0
   -4.9105   26.3064  -29.8579 H   0  0  0  0  0  0  0  0  0  0  0  0
   -2.5452   23.6572  -29.9928 H   0  0  0  0  0  0  0  0  0  0  0  0
   -2.9272   25.3505  -29.4061 H   0  0  0  0  0  0  0  0  0  0  0  0
   -3.4874   24.2228  -27.5171 H   0  0  0  0  0  0  0  0  0  0  0  0
   -5.0483   24.0700  -28.3929 H   0  0  0  0  0  0  0  0  0  0  0  0
   -3.8810   22.7047  -28.3929 H   0  0  0  0  0  0  0  0  0  0  0  0
   -5.5202   22.8772  -30.9467 H   0  0  0  0  0  0  0  0  0  0  0  0
   -5.0058   23.6231  -32.5200 H   0  0  0  0  0  0  0  0  0  0  0  0
   -2.5967   22.8363  -31.4510 H   0  0  0  0  0  0  0  0  0  0  0  0
   -3.7421   21.5253  -30.8910 H   0  0  0  0  0  0  0  0  0  0  0  0
   -3.6912   22.3809  -33.7876 H   0  0  0  0  0  0  0  0  0  0  0  0
   -2.4674   21.2146  -33.1308 H   0  0  0  0  0  0  0  0  0  0  0  0
   -3.4669   18.6585  -33.0749 H   0  0  0  0  0  0  0  0  0  0  0  0
   -4.6030   18.8835  -34.4480 H   0  0  0  0  0  0  0  0  0  0  0  0
   -3.0161   19.7253  -34.4480 H   0  0  0  0  0  0  0  0  0  0  0  0
   -4.3780   19.2637  -31.4284 H   0  0  0  0  0  0  0  0  0  0  0  0
   -4.9447   20.9492  -31.1180 H   0  0  0  0  0  0  0  0  0  0  0  0
   -5.2660   15.3673  -32.5126 H   0  0  0  0  0  0  0  0  0  0  0  0
   -6.3830   16.2367  -33.6185 H   0  0  0  0  0  0  0  0  0  0  0  0
   -4.6308   16.6322  -33.6185 H   0  0  0  0  0  0  0  0  0  0  0  0
   -8.3473   16.8053  -32.1737 H   0  0  0  0  0  0  0  0  0  0  0  0
  -10.1664   18.4994  -32.1719 H   0  0  0  0  0  0  0  0  0  0  0  0
  -10.8791   20.8472  -32.0804 H   0  0  0  0  0  0  0  0  0  0  0  0
  -10.2806   23.2729  -31.9345 H   0  0  0  0  0  0  0  0  0  0  0  0
   -7.8763   23.9442  -31.8138 H   0  0  0  0  0  0  0  0  0  0  0  0
  1  2  1  0
  2  3  1  0
  3  4  1  0
  4  5  1  0
  3  6  1  0
  6  7  1  0
  7  8  1  0
  8  9  1  0
  9 10  1  0
  9 11  1  0
 11 12  1  0
 12 13  2  0
 13 14  1  0
 14 15  1  0
 13 16  1  0
 16 17  2  0
 17 18  1  0
 18 19  2  0
 19 20  1  0
 20 21  2  0
 21 22  1  0
 22 23  2  0
 23 12  1  0
 23 18  1  0
  1 24  1  0
  1 25  1  0
  1 26  1  0
  2 27  1  0
  2 28  1  0
  4 29  1  0
  4 30  1  0
  5 31  1  0
  5 32  1  0
  5 33  1  0
  6 34  1  0
  6 35  1  0
  7 36  1  0
  7 37  1  0
  8 38  1  0
  8 39  1  0
 10 40  1  0
 10 41  1  0
 10 42  1  0
 11 43  1  0
 11 44  1  0
 15 45  1  0
 15 46  1  0
 15 47  1  0
 16 48  1  0
 17 49  1  0
 19 50  1  0
 20 51  1  0
 21 52  1  0
M  END
>  <UniqueID>  (5) 
5

>  <SMILES>  (5) 
CCN(CC)CCCN(C)Cc1c(OC)ccc2cccnc12

>  <Energy>  (5) 
58.62134953089306

>  <Genealogy>  (5) 
CCN(CC)CCCN(C)Cc1c(OC)ccc2cccnc12 (3D coordinates assigned)
CCN(CC)CCCN(C)Cc1c(OC)ccc2cccnc12 (optimized conformer: 58.62134953089306 kcal/mol)

>  <smiles>  (5) 
CCN(CC)CCCN(C)Cc1c(OC)ccc2cccnc12

>  <score_type>  (5) 
oracle

>  <origin>  (5) 
adg

>  <m_score__min__energy>  (5) 
-7.4699999999999998

>  <m_primary>  (5) 
energy

$$$$
5:0
     RDKit          3D

 29 31  0  0  0  0  0  0  0  0999 V2000
   -2.2970   24.8750  -28.6490 C   0  0  0  0  0  0  0  0  0  0  0  0
   -3.1430   25.2850  -29.7190 O   0  0  0  0  0  0  0  0  0  0  0  0
   -4.2580   24.5630  -30.1670 C   0  0  0  0  0  0  0  0  0  0  0  0
   -5.5760   25.0200  -29.9890 C   0  0  0  0  0  0  0  0  0  0  0  0
   -6.6550   24.2620  -30.4560 C   0  0  0  0  0  0  0  0  0  0  0  0
   -6.4380   23.0390  -31.1120 C   0  0  0  0  0  0  0  0  0  0  0  0
   -7.5450   22.2530  -31.5920 N   0  0  0  0  0  0  0  0  0  0  0  0
   -8.7950   22.6920  -31.9060 C   0  0  0  0  0  0  0  0  0  0  0  0
   -9.6140   21.6900  -32.3160 N   0  0  0  0  0  0  0  0  0  0  0  0
   -8.8500   20.5880  -32.2480 C   0  0  0  0  0  0  0  0  0  0  0  0
   -9.1900   19.2680  -32.5160 C   0  0  0  0  0  0  0  0  0  0  0  0
   -8.1930   18.2950  -32.3140 C   0  0  0  0  0  0  0  0  0  0  0  0
   -6.9130   18.6850  -31.8460 C   0  0  0  0  0  0  0  0  0  0  0  0
   -6.0220   17.8150  -31.6570 O   0  0  0  0  0  0  0  0  0  0  0  0
   -6.6380   20.0010  -31.5950 N   0  0  0  0  0  0  0  0  0  0  0  0
   -7.6070   20.9270  -31.8140 C   0  0  0  0  0  0  0  0  0  0  0  0
   -5.1200   22.5830  -31.2800 C   0  0  0  0  0  0  0  0  0  0  0  0
   -4.0420   23.3410  -30.8140 C   0  0  0  0  0  0  0  0  0  0  0  0
   -2.7803   25.1092  -27.6890 H   0  0  0  0  0  0  0  0  0  0  0  0
   -2.1204   23.7913  -28.7158 H   0  0  0  0  0  0  0  0  0  0  0  0
   -1.3370   25.4078  -28.7158 H   0  0  0  0  0  0  0  0  0  0  0  0
   -5.7593   25.9779  -29.4802 H   0  0  0  0  0  0  0  0  0  0  0  0
   -7.6822   24.6268  -30.3082 H   0  0  0  0  0  0  0  0  0  0  0  0
   -9.1073   23.7443  -31.8351 H   0  0  0  0  0  0  0  0  0  0  0  0
  -10.6150   21.7620  -32.6070 H   0  0  0  0  0  0  0  0  0  0  0  0
  -10.1948   18.9949  -32.8707 H   0  0  0  0  0  0  0  0  0  0  0  0
   -8.4065   17.2355  -32.5186 H   0  0  0  0  0  0  0  0  0  0  0  0
   -4.9348   21.6220  -31.7822 H   0  0  0  0  0  0  0  0  0  0  0  0
   -3.0150   22.9738  -30.9571 H   0  0  0  0  0  0  0  0  0  0  0  0
  1  2  1  0
  2  3  1  0
  3  4  2  0
  4  5  1  0
  5  6  2  0
  6  7  1  0
  7  8  1  0
  8  9  2  0
  9 10  1  0
 10 11  1  0
 11 12  2  0
 12 13  1  0
 13 14  2  0
 13 15  1  0
 15 16  1  0
  6 17  1  0
 17 18  2  0
 18  3  1  0
 16  7  1  0
 16 10  2  0
  1 19  1  0
  1 20  1  0
  1 21  1  0
  4 22  1  0
  5 23  1  0
  8 24  1  0
  9 25  1  0
 11 26  1  0
 12 27  1  0
 17 28  1  0
 18 29  1  0
M  CHG  2   9   1  15  -1
M  END
>  <UniqueID>  (6) 
6

>  <SMILES>  (6) 
COc1ccc(-n2c[nH+]c3ccc(=O)[n-]c32)cc1

>  <Energy>  (6) 
76.67748400213758

>  <Genealogy>  (6) 
COc1ccc(-n2c[nH+]c3ccc(=O)[n-]c32)cc1 (protonated)
COc1ccc(-n2c[nH+]c3ccc(=O)[n-]c32)cc1 (3D coordinates assigned)
COc1ccc(-n2c[nH+]c3ccc(=O)[n-]c32)cc1 (optimized conformer: 76.67748400213758 kcal/mol)

>  <smiles>  (6) 
COc1ccc(-n2cnc3ccc(=O)[nH]c32)cc1

>  <score_type>  (6) 
oracle

>  <origin>  (6) 
adg

>  <m_score__min__energy>  (6) 
-7.1200000000000001

>  <m_primary>  (6) 
energy

$$$$
6:0
     RDKit          3D

 40 43  0  0  0  0  0  0  0  0999 V2000
   -3.1130   21.5310  -33.4640 C   0  0  0  0  0  0  0  0  0  0  0  0
   -2.7330   21.7950  -32.0370 C   0  0  0  0  0  0  0  0  0  0  0  0
   -1.6260   21.1550  -31.4450 C   0  0  0  0  0  0  0  0  0  0  0  0
   -1.3120   21.3770  -30.0920 C   0  0  0  0  0  0  0  0  0  0  0  0
   -2.1170   22.2290  -29.3260 C   0  0  0  0  0  0  0  0  0  0  0  0
   -3.1900   22.8110  -29.9230 N   0  0  0  0  0  0  0  0  0  0  0  0
   -4.1420   23.6160  -29.4220 C   0  0  0  0  0  0  0  0  0  0  0  0
   -4.1750   24.1710  -28.0300 C   0  0  0  0  0  0  0  0  0  0  0  0
   -5.0160   23.9060  -30.4570 C   0  0  0  0  0  0  0  0  0  0  0  0
   -6.4910   24.9170  -30.3350 S   0  0  0  0  0  0  0  0  0  0  0  0
   -7.6000   23.7730  -31.2440 C   0  0  0  0  0  0  0  0  0  0  0  0
   -7.7030   22.3750  -30.6090 C   0  0  0  0  0  0  0  0  0  0  0  0
   -7.8190   21.3250  -31.6230 N   0  0  0  0  0  0  0  0  0  0  0  0
   -8.9070   21.0710  -32.3490 N   0  0  0  0  0  0  0  0  0  0  0  0
   -8.6990   20.0260  -33.1480 N   0  0  0  0  0  0  0  0  0  0  0  0
   -7.4500   19.5940  -32.9070 C   0  0  0  0  0  0  0  0  0  0  0  0
   -6.7270   18.5570  -33.4800 C   0  0  0  0  0  0  0  0  0  0  0  0
   -5.4130   18.3670  -33.0100 C   0  0  0  0  0  0  0  0  0  0  0  0
   -4.8930   19.2150  -31.9980 C   0  0  0  0  0  0  0  0  0  0  0  0
   -5.6550   20.2270  -31.4770 N   0  0  0  0  0  0  0  0  0  0  0  0
   -6.9140   20.3890  -31.9500 C   0  0  0  0  0  0  0  0  0  0  0  0
   -4.6210   23.2910  -31.5970 N   0  0  0  0  0  0  0  0  0  0  0  0
   -3.5070   22.6270  -31.2190 C   0  0  0  0  0  0  0  0  0  0  0  0
   -4.0161   20.9036  -33.4929 H   0  0  0  0  0  0  0  0  0  0  0  0
   -3.3132   22.4855  -33.9727 H   0  0  0  0  0  0  0  0  0  0  0  0
   -2.2883   21.0103  -33.9727 H   0  0  0  0  0  0  0  0  0  0  0  0
   -1.0025   20.4764  -32.0457 H   0  0  0  0  0  0  0  0  0  0  0  0
   -0.4394   20.8843  -29.6384 H   0  0  0  0  0  0  0  0  0  0  0  0
   -1.8866   22.4223  -28.2679 H   0  0  0  0  0  0  0  0  0  0  0  0
   -4.1259   23.3453  -27.3048 H   0  0  0  0  0  0  0  0  0  0  0  0
   -3.3151   24.8408  -27.8818 H   0  0  0  0  0  0  0  0  0  0  0  0
   -5.1082   24.7342  -27.8818 H   0  0  0  0  0  0  0  0  0  0  0  0
   -8.6065   24.2158  -31.2737 H   0  0  0  0  0  0  0  0  0  0  0  0
   -7.1702   23.6389  -32.2476 H   0  0  0  0  0  0  0  0  0  0  0  0
   -6.8015   22.1902  -30.0064 H   0  0  0  0  0  0  0  0  0  0  0  0
   -8.6080   22.3488  -29.9842 H   0  0  0  0  0  0  0  0  0  0  0  0
   -9.3890   19.6370  -33.8270 H   0  0  0  0  0  0  0  0  0  0  0  0
   -7.1588   17.9155  -34.2623 H   0  0  0  0  0  0  0  0  0  0  0  0
   -4.7903   17.5619  -33.4271 H   0  0  0  0  0  0  0  0  0  0  0  0
   -3.8688   19.0582  -31.6286 H   0  0  0  0  0  0  0  0  0  0  0  0
  1  2  1  0
  2  3  2  0
  3  4  1  0
  4  5  2  0
  5  6  1  0
  6  7  1  0
  7  8  1  0
  7  9  2  0
  9 10  1  0
 10 11  1  0
 11 12  1  0
 12 13  1  0
 13 14  1  0
 14 15  2  0
 15 16  1  0
 16 17  2  0
 17 18  1  0
 18 19  2  0
 19 20  1  0
 20 21  2  0
  9 22  1  0
 22 23  2  0
 23  2  1  0
 23  6  1  0
 21 13  1  0
 21 16  1  0
  1 24  1  0
  1 25  1  0
  1 26  1  0
  3 27  1  0
  4 28  1  0
  5 29  1  0
  8 30  1  0
  8 31  1  0
  8 32  1  0
 11 33  1  0
 11 34  1  0
 12 35  1  0
 12 36  1  0
 15 37  1  0
 17 38  1  0
 18 39  1  0
 19 40  1  0
M  CHG  1  15   1
M  END
>  <UniqueID>  (7) 
7

>  <SMILES>  (7) 
Cc1cccn2c(C)c(SCCn3n[nH+]c4cccnc43)nc12

>  <Energy>  (7) 
117.5471807816527

>  <Genealogy>  (7) 
Cc1cccn2c(C)c(SCCn3n[nH+]c4cccnc43)nc12 (protonated)
Cc1cccn2c(C)c(SCCn3n[nH+]c4cccnc43)nc12 (3D coordinates assigned)
Cc1cccn2c(C)c(SCCn3n[nH+]c4cccnc43)nc12 (optimized conformer: 117.5471807816527 kcal/mol)

>  <smiles>  (7) 
Cc1cccn2c(C)c(SCCn3nnc4cccnc43)nc12

>  <score_type>  (7) 
oracle

>  <origin>  (7) 
adg

>  <m_score__min__energy>  (7) 
-8.1600000000000001

>  <m_primary>  (7) 
energy

$$$$
7:0
     RDKit          3D

 39 40  0  0  0  0  0  0  0  0999 V2000
   -7.5720   22.5720  -30.8760 C   0  0  0  0  0  0  0  0  0  0  0  0
   -6.8060   23.8070  -31.3460 C   0  0  0  0  0  0  0  0  0  0  0  0
   -6.6360   24.8450  -30.2320 C   0  0  0  0  0  0  0  0  0  0  0  0
   -5.5290   24.4810  -29.3460 N   0  0  0  0  0  0  0  0  0  0  0  0
   -4.1510   24.7230  -29.6810 C   0  0  0  0  0  0  0  0  0  0  0  0
   -3.8700   25.2900  -30.7730 O   0  0  0  0  0  0  0  0  0  0  0  0
   -3.0860   24.3260  -28.7870 N   0  0  0  0  0  0  0  0  0  0  0  0
   -1.7200   24.8330  -28.9720 C   0  0  0  0  0  0  0  0  0  0  0  0
   -0.6840   23.6930  -28.8780 C   0  0  0  0  0  0  0  0  0  0  0  0
   -1.0870   22.5700  -27.9920 N   0  0  0  0  0  0  0  0  0  0  0  0
   -1.5120   21.3830  -28.7690 C   0  0  0  0  0  0  0  0  0  0  0  0
   -1.7860   20.2080  -27.8740 C   0  0  0  0  0  0  0  0  0  0  0  0
   -0.8340   19.2150  -27.6010 C   0  0  0  0  0  0  0  0  0  0  0  0
   -1.2890   18.2350  -26.7300 C   0  0  0  0  0  0  0  0  0  0  0  0
   -2.8680   18.6130  -26.3000 S   0  0  0  0  0  0  0  0  0  0  0  0
   -2.9950   20.0180  -27.2130 C   0  0  0  0  0  0  0  0  0  0  0  0
   -2.0720   22.9860  -26.9680 C   0  0  0  0  0  0  0  0  0  0  0  0
   -3.3700   23.5040  -27.6040 C   0  0  0  0  0  0  0  0  0  0  0  0
   -7.5877   22.5467  -29.7764 H   0  0  0  0  0  0  0  0  0  0  0  0
   -8.6032   22.6133  -31.2566 H   0  0  0  0  0  0  0  0  0  0  0  0
   -7.0767   21.6665  -31.2566 H   0  0  0  0  0  0  0  0  0  0  0  0
   -5.8101   23.4946  -31.6933 H   0  0  0  0  0  0  0  0  0  0  0  0
   -7.3856   24.2744  -32.1557 H   0  0  0  0  0  0  0  0  0  0  0  0
   -6.4292   25.8269  -30.6827 H   0  0  0  0  0  0  0  0  0  0  0  0
   -7.5628   24.8823  -29.6408 H   0  0  0  0  0  0  0  0  0  0  0  0
   -5.7820   24.1280  -28.3970 H   0  0  0  0  0  0  0  0  0  0  0  0
   -1.6439   25.3062  -29.9621 H   0  0  0  0  0  0  0  0  0  0  0  0
   -1.5084   25.5624  -28.1762 H   0  0  0  0  0  0  0  0  0  0  0  0
   -0.5206   23.2921  -29.8892 H   0  0  0  0  0  0  0  0  0  0  0  0
    0.2249   24.1297  -28.4384 H   0  0  0  0  0  0  0  0  0  0  0  0
   -2.4281   21.6295  -29.3257 H   0  0  0  0  0  0  0  0  0  0  0  0
   -0.6974   21.1107  -29.4562 H   0  0  0  0  0  0  0  0  0  0  0  0
    0.1765   19.2131  -28.0356 H   0  0  0  0  0  0  0  0  0  0  0  0
   -0.7157   17.3631  -26.3821 H   0  0  0  0  0  0  0  0  0  0  0  0
   -3.8776   20.6715  -27.2766 H   0  0  0  0  0  0  0  0  0  0  0  0
   -2.3083   22.1221  -26.3293 H   0  0  0  0  0  0  0  0  0  0  0  0
   -1.6294   23.8030  -26.3793 H   0  0  0  0  0  0  0  0  0  0  0  0
   -3.9911   22.6467  -27.9026 H   0  0  0  0  0  0  0  0  0  0  0  0
   -3.8983   24.1246  -26.8652 H   0  0  0  0  0  0  0  0  0  0  0  0
  1  2  1  0
  2  3  1  0
  3  4  1  0
  4  5  1  0
  5  6  2  0
  5  7  1  0
  7  8  1  0
  8  9  1  0
  9 10  1  0
 10 11  1  0
 11 12  1  0
 12 13  1  0
 13 14  2  0
 14 15  1  0
 15 16  1  0
 10 17  1  0
 17 18  1  0
 18  7  1  0
 16 12  2  0
  1 19  1  0
  1 20  1  0
  1 21  1  0
  2 22  1  0
  2 23  1  0
  3 24  1  0
  3 25  1  0
  4 26  1  0
  8 27  1  0
  8 28  1  0
  9 29  1  0
  9 30  1  0
 11 31  1  0
 11 32  1  0
 13 33  1  0
 14 34  1  0
 16 35  1  0
 17 36  1  0
 17 37  1  0
 18 38  1  0
 18 39  1  0
M  END
>  <UniqueID>  (8) 
8

>  <SMILES>  (8) 
CCCNC(=O)N1CCN(Cc2ccsc2)CC1

>  <Energy>  (8) 
66.21122092631802

>  <Genealogy>  (8) 
CCCNC(=O)N1CCN(Cc2ccsc2)CC1 (3D coordinates assigned)
CCCNC(=O)N1CCN(Cc2ccsc2)CC1 (nonaromatic ring conformer: 66.21122092631802 kcal/mol)

>  <smiles>  (8) 
CCCNC(=O)N1CCN(Cc2ccsc2)CC1

>  <score_type>  (8) 
oracle

>  <origin>  (8) 
adg

>  <m_score__min__energy>  (8) 
-6.4900000000000002

>  <m_primary>  (8) 
energy

$$$$
8:0
     RDKit          3D

 52 54  0  0  0  0  0  0  0  0999 V2000
   -6.3890   24.6670  -30.5180 C   0  0  0  0  0  0  0  0  0  0  0  0
   -5.0290   25.3800  -30.4780 C   0  0  0  0  0  0  0  0  0  0  0  0
   -3.8750   24.4550  -30.4170 N   0  0  0  0  0  0  0  0  0  0  0  0
   -3.1980   24.4710  -29.1020 C   0  0  0  0  0  0  0  0  0  0  0  0
   -4.1850   24.1660  -27.9780 C   0  0  0  0  0  0  0  0  0  0  0  0
   -4.1960   23.0920  -30.9030 C   0  0  0  0  0  0  0  0  0  0  0  0
   -3.1890   22.0990  -30.3190 C   0  0  0  0  0  0  0  0  0  0  0  0
   -1.7940   22.2930  -30.9340 C   0  0  0  0  0  0  0  0  0  0  0  0
   -1.3070   21.0610  -31.7130 C   0  0  0  0  0  0  0  0  0  0  0  0
   -2.3980   20.0200  -32.0490 C   0  0  0  0  0  0  0  0  0  0  0  0
   -2.9760   20.1900  -33.4110 N   0  0  1  0  0  0  0  0  0  0  0  0
   -3.3530   18.8980  -33.9470 C   0  0  0  0  0  0  0  0  0  0  0  0
   -2.5220   18.2390  -34.6330 O   0  0  0  0  0  0  0  0  0  0  0  0
   -4.6740   18.3070  -33.6180 C   0  0  0  0  0  0  0  0  0  0  0  0
   -4.9260   16.9350  -33.7810 C   0  0  0  0  0  0  0  0  0  0  0  0
   -6.1750   16.4030  -33.4460 C   0  0  0  0  0  0  0  0  0  0  0  0
   -7.1870   17.2330  -32.9550 C   0  0  0  0  0  0  0  0  0  0  0  0
   -6.9580   18.6080  -32.8000 C   0  0  0  0  0  0  0  0  0  0  0  0
   -7.9740   19.4580  -32.3370 C   0  0  0  0  0  0  0  0  0  0  0  0
   -7.7420   20.8330  -32.2220 C   0  0  0  0  0  0  0  0  0  0  0  0
   -9.1320   21.9840  -31.6010 Br  0  0  0  0  0  0  0  0  0  0  0  0
   -6.4960   21.3680  -32.5640 C   0  0  0  0  0  0  0  0  0  0  0  0
   -5.4620   20.5290  -33.0080 C   0  0  0  0  0  0  0  0  0  0  0  0
   -5.6910   19.1470  -33.1290 C   0  0  0  0  0  0  0  0  0  0  0  0
   -4.1300   21.0670  -33.3710 C   0  0  0  0  0  0  0  0  0  0  0  0
   -4.0000   22.2950  -33.6260 O   0  0  0  0  0  0  0  0  0  0  0  0
   -6.7375   24.4843  -29.4908 H   0  0  0  0  0  0  0  0  0  0  0  0
   -7.1187   25.2985  -31.0459 H   0  0  0  0  0  0  0  0  0  0  0  0
   -6.2846   23.7076  -31.0459 H   0  0  0  0  0  0  0  0  0  0  0  0
   -4.9329   25.9962  -31.3841 H   0  0  0  0  0  0  0  0  0  0  0  0
   -5.0081   25.9820  -29.5576 H   0  0  0  0  0  0  0  0  0  0  0  0
   -2.4014   23.7124  -29.0977 H   0  0  0  0  0  0  0  0  0  0  0  0
   -2.7750   25.4728  -28.9364 H   0  0  0  0  0  0  0  0  0  0  0  0
   -3.6925   24.3182  -27.0062 H   0  0  0  0  0  0  0  0  0  0  0  0
   -5.0520   24.8381  -28.0589 H   0  0  0  0  0  0  0  0  0  0  0  0
   -4.5217   23.1219  -28.0589 H   0  0  0  0  0  0  0  0  0  0  0  0
   -5.2118   22.8170  -30.5827 H   0  0  0  0  0  0  0  0  0  0  0  0
   -4.1425   23.0694  -32.0015 H   0  0  0  0  0  0  0  0  0  0  0  0
   -3.1255   22.2506  -29.2314 H   0  0  0  0  0  0  0  0  0  0  0  0
   -3.5320   21.0797  -30.5500 H   0  0  0  0  0  0  0  0  0  0  0  0
   -1.8297   23.1512  -31.6212 H   0  0  0  0  0  0  0  0  0  0  0  0
   -1.0889   22.4601  -30.1064 H   0  0  0  0  0  0  0  0  0  0  0  0
   -0.8663   21.4091  -32.6588 H   0  0  0  0  0  0  0  0  0  0  0  0
   -0.5894   20.5488  -31.0553 H   0  0  0  0  0  0  0  0  0  0  0  0
   -1.9548   19.0156  -31.9808 H   0  0  0  0  0  0  0  0  0  0  0  0
   -3.2165   20.1621  -31.3280 H   0  0  0  0  0  0  0  0  0  0  0  0
   -2.2690   20.6070  -34.0640 H   0  0  0  0  0  0  0  0  0  0  0  0
   -4.1376   16.2762  -34.1738 H   0  0  0  0  0  0  0  0  0  0  0  0
   -6.3621   15.3261  -33.5694 H   0  0  0  0  0  0  0  0  0  0  0  0
   -8.1656   16.8066  -32.6895 H   0  0  0  0  0  0  0  0  0  0  0  0
   -8.9551   19.0423  -32.0638 H   0  0  0  0  0  0  0  0  0  0  0  0
   -6.3254   22.4518  -32.4847 H   0  0  0  0  0  0  0  0  0  0  0  0
  1  2  1  0
  2  3  1  0
  3  4  1  0
  4  5  1  0
  3  6  1  0
  6  7  1  0
  7  8  1  0
  8  9  1  0
  9 10  1  0
 10 11  1  0
 11 12  1  0
 12 13  2  0
 12 14  1  0
 14 15  1  0
 15 16  2  0
 16 17  1  0
 17 18  2  0
 18 19  1  0
 19 20  2  0
 20 21  1  0
 20 22  1  0
 22 23  2  0
 23 24  1  0
 23 25  1  0
 25 26  2  0
 25 11  1  0
 24 14  2  0
 24 18  1  0
  1 27  1  0
  1 28  1  0
  1 29  1  0
  2 30  1  0
  2 31  1  0
  4 32  1  0
  4 33  1  0
  5 34  1  0
  5 35  1  0
  5 36  1  0
  6 37  1  0
  6 38  1  0
  7 39  1  0
  7 40  1  0
  8 41  1  0
  8 42  1  0
  9 43  1  0
  9 44  1  0
 10 45  1  0
 10 46  1  0
 11 47  1  6
 15 48  1  0
 16 49  1  0
 17 50  1  0
 19 51  1  0
 22 52  1  0
M  CHG  1  11   1
M  END
>  <UniqueID>  (9) 
9

>  <SMILES>  (9) 
CCN(CC)CCCCC[N@H+]1C(=O)c2cccc3cc(Br)cc(c23)C1=O

>  <Energy>  (9) 
61.713469958635194

>  <Genealogy>  (9) 
CCN(CC)CCCCC[NH+]1C(=O)c2cccc3cc(Br)cc(c23)C1=O (protonated)
CCN(CC)CCCCC[N@H+]1C(=O)c2cccc3cc(Br)cc(c23)C1=O (chirality)
CCN(CC)CCCCC[N@H+]1C(=O)c2cccc3cc(Br)cc(c23)C1=O (3D coordinates assigned)
CCN(CC)CCCCC[N@H+]1C(=O)c2cccc3cc(Br)cc(c23)C1=O (nonaromatic ring conformer: 61.713469958635194 kcal/mol)

>  <smiles>  (9) 
CCN(CC)CCCCCN1C(=O)c2cccc3cc(Br)cc(c23)C1=O

>  <score_type>  (9) 
oracle

>  <origin>  (9) 
adg

>  <m_score__min__energy>  (9) 
-8.5199999999999996

>  <m_primary>  (9) 
energy

$$$$
9:0
     RDKit          3D

 66 70  0  0  0  0  0  0  0  0999 V2000
   -3.0720   20.3690  -27.5810 C   0  0  0  0  0  0  0  0  0  0  0  0
   -3.1150   20.3560  -29.1100 C   0  0  0  0  0  0  0  0  0  0  0  0
   -3.0530   21.7730  -29.6950 C   0  0  0  0  0  0  0  0  0  0  0  0
   -4.1320   22.2820  -30.4770 C   0  0  0  0  0  0  0  0  0  0  0  0
   -4.3860   23.6340  -30.4810 N   0  0  0  0  0  0  0  0  0  0  0  0
   -3.4930   24.5200  -29.9580 C   0  0  0  0  0  0  0  0  0  0  0  0
   -2.2990   24.0800  -29.3790 C   0  0  0  0  0  0  0  0  0  0  0  0
   -1.3560   25.0070  -28.8870 C   0  0  0  0  0  0  0  0  0  0  0  0
   -1.6070   26.3780  -28.9490 O   0  0  0  0  0  0  0  0  0  0  0  0
   -0.1490   24.5680  -28.3280 C   0  0  0  0  0  0  0  0  0  0  0  0
    0.7460   25.5340  -27.8360 O   0  0  0  0  0  0  0  0  0  0  0  0
    1.6350   25.3850  -26.7260 C   0  0  0  0  0  0  0  0  0  0  0  0
    0.8710   25.0570  -25.4350 C   0  0  0  0  0  0  0  0  0  0  0  0
    1.5260   25.7050  -24.1870 C   0  0  0  0  0  0  0  0  0  0  0  0
    0.6710   26.6540  -23.4140 N   0  0  0  0  0  0  0  0  0  0  0  0
    0.9660   28.0870  -23.6860 C   0  0  0  0  0  0  0  0  0  0  0  0
    1.7700   28.7610  -22.5660 C   0  0  0  0  0  0  0  0  0  0  0  0
   -0.7790   26.3110  -23.4490 C   0  0  0  0  0  0  0  0  0  0  0  0
   -1.5380   26.7910  -24.6900 C   0  0  0  0  0  0  0  0  0  0  0  0
    0.1280   23.1920  -28.2970 C   0  0  0  0  0  0  0  0  0  0  0  0
   -0.8070   22.2690  -28.7590 C   0  0  0  0  0  0  0  0  0  0  0  0
   -2.0560   22.6910  -29.2700 C   0  0  0  0  0  0  0  0  0  0  0  0
   -5.6240   24.1610  -31.0890 C   0  0  0  0  0  0  0  0  0  0  0  0
   -6.8050   23.2120  -30.8360 C   0  0  0  0  0  0  0  0  0  0  0  0
   -6.4460   21.8270  -31.2980 C   0  0  0  0  0  0  0  0  0  0  0  0
   -7.4280   20.9750  -31.8480 C   0  0  0  0  0  0  0  0  0  0  0  0
   -7.0070   19.7470  -32.3490 C   0  0  0  0  0  0  0  0  0  0  0  0
   -5.7000   19.3920  -32.3750 C   0  0  0  0  0  0  0  0  0  0  0  0
   -4.7040   20.2000  -31.8380 C   0  0  0  0  0  0  0  0  0  0  0  0
   -5.0960   21.3960  -31.1920 C   0  0  0  0  0  0  0  0  0  0  0  0
   -5.5690   18.1580  -32.9800 O   0  0  0  0  0  0  0  0  0  0  0  0
   -6.8820   17.6830  -33.3020 C   0  0  0  0  0  0  0  0  0  0  0  0
   -7.7670   18.7420  -32.9110 O   0  0  0  0  0  0  0  0  0  0  0  0
   -4.0540   20.0722  -27.1840 H   0  0  0  0  0  0  0  0  0  0  0  0
   -2.3057   19.6624  -27.2297 H   0  0  0  0  0  0  0  0  0  0  0  0
   -2.8254   21.3818  -27.2297 H   0  0  0  0  0  0  0  0  0  0  0  0
   -2.2574   19.7783  -29.4852 H   0  0  0  0  0  0  0  0  0  0  0  0
   -4.0663   19.8996  -29.4209 H   0  0  0  0  0  0  0  0  0  0  0  0
   -3.7146   25.5969  -29.9918 H   0  0  0  0  0  0  0  0  0  0  0  0
    2.3415   24.5696  -26.9405 H   0  0  0  0  0  0  0  0  0  0  0  0
    2.1682   26.3360  -26.5800 H   0  0  0  0  0  0  0  0  0  0  0  0
   -0.1595   25.4302  -25.5285 H   0  0  0  0  0  0  0  0  0  0  0  0
    0.8902   23.9656  -25.2987 H   0  0  0  0  0  0  0  0  0  0  0  0
    1.8280   24.8947  -23.5071 H   0  0  0  0  0  0  0  0  0  0  0  0
    2.3623   26.3072  -24.5716 H   0  0  0  0  0  0  0  0  0  0  0  0
    0.9480   26.4880  -22.4160 H   0  0  0  0  0  0  0  0  0  0  0  0
    1.5432   28.1541  -24.6200 H   0  0  0  0  0  0  0  0  0  0  0  0
    0.0019   28.6116  -23.7580 H   0  0  0  0  0  0  0  0  0  0  0  0
    1.3821   28.4358  -21.5894 H   0  0  0  0  0  0  0  0  0  0  0  0
    2.8291   28.4769  -22.6529 H   0  0  0  0  0  0  0  0  0  0  0  0
    1.6751   29.8534  -22.6529 H   0  0  0  0  0  0  0  0  0  0  0  0
   -0.8700   25.2160  -23.3980 H   0  0  0  0  0  0  0  0  0  0  0  0
   -1.2346   26.8328  -22.5945 H   0  0  0  0  0  0  0  0  0  0  0  0
   -2.4298   27.3550  -24.3791 H   0  0  0  0  0  0  0  0  0  0  0  0
   -0.8846   27.4404  -25.2910 H   0  0  0  0  0  0  0  0  0  0  0  0
   -1.8447   25.9223  -25.2910 H   0  0  0  0  0  0  0  0  0  0  0  0
    1.0930   22.8395  -27.9040 H   0  0  0  0  0  0  0  0  0  0  0  0
   -0.5702   21.1953  -28.7259 H   0  0  0  0  0  0  0  0  0  0  0  0
   -5.8510   25.1437  -30.6499 H   0  0  0  0  0  0  0  0  0  0  0  0
   -5.4718   24.2516  -32.1747 H   0  0  0  0  0  0  0  0  0  0  0  0
   -7.0343   23.1913  -29.7604 H   0  0  0  0  0  0  0  0  0  0  0  0
   -7.6848   23.5666  -31.3929 H   0  0  0  0  0  0  0  0  0  0  0  0
   -8.4870   21.2709  -31.8794 H   0  0  0  0  0  0  0  0  0  0  0  0
   -3.6435   19.9179  -31.9132 H   0  0  0  0  0  0  0  0  0  0  0  0
   -6.9679   17.4860  -34.3808 H   0  0  0  0  0  0  0  0  0  0  0  0
   -7.1166   16.7385  -32.7893 H   0  0  0  0  0  0  0  0  0  0  0  0
  1  2  1  0
  2  3  1  0
  3  4  2  0
  4  5  1  0
  5  6  2  0
  6  7  1  0
  7  8  2  0
  8  9  1  0
  8 10  1  0
 10 11  1  0
 11 12  1  0
 12 13  1  0
 13 14  1  0
 14 15  1  0
 15 16  1  0
 16 17  1  0
 15 18  1  0
 18 19  1  0
 10 20  2  0
 20 21  1  0
 21 22  2  0
  5 23  1  0
 23 24  1  0
 24 25  1  0
 25 26  2  0
 26 27  1  0
 27 28  2  0
 28 29  1  0
 29 30  2  0
 28 31  1  0
 31 32  1  0
 32 33  1  0
 22  3  1  0
 30 25  1  0
 30  4  1  0
 22  7  1  0
 33 27  1  0
  1 34  1  0
  1 35  1  0
  1 36  1  0
  2 37  1  0
  2 38  1  0
  6 39  1  0
 12 40  1  0
 12 41  1  0
 13 42  1  0
 13 43  1  0
 14 44  1  0
 14 45  1  0
 15 46  1  0
 16 47  1  0
 16 48  1  0
 17 49  1  0
 17 50  1  0
 17 51  1  0
 18 52  1  0
 18 53  1  0
 19 54  1  0
 19 55  1  0
 19 56  1  0
 20 57  1  0
 21 58  1  0
 23 59  1  0
 23 60  1  0
 24 61  1  0
 24 62  1  0
 26 63  1  0
 29 64  1  0
 32 65  1  0
 32 66  1  0
M  CHG  3   5   1   9  -1  15   1
M  END
>  <UniqueID>  (10) 
10

>  <SMILES>  (10) 
CCc1c2[n+](cc3c([O-])c(OCCC[NH+](CC)CC)ccc13)CCc1cc3c(cc1-2)OCO3

>  <Energy>  (10) 
132.9526451371797

>  <Genealogy>  (10) 
CCc1c2[n+](cc3c([O-])c(OCCC[NH+](CC)CC)ccc13)CCc1cc3c(cc1-2)OCO3 (protonated)
CCc1c2[n+](cc3c([O-])c(OCCC[NH+](CC)CC)ccc13)CCc1cc3c(cc1-2)OCO3 (3D coordinates assigned)
CCc1c2[n+](cc3c([O-])c(OCCC[NH+](CC)CC)ccc13)CCc1cc3c(cc1-2)OCO3 (nonaromatic ring conformer: 132.9526451371797 kcal/mol)

>  <smiles>  (10) 
CCc1c2[n+](cc3c(O)c(OCCCN(CC)CC)ccc13)CCc1cc3c(cc1-2)OCO3

>  <score_type>  (10) 
oracle

>  <origin>  (10) 
adg

>  <m_score__min__energy>  (10) 
-10.449999999999999

>  <m_primary>  (10) 
energy

$$$$
10:0
     RDKit          3D

 46 48  0  0  0  0  0  0  0  0999 V2000
   -0.8390   26.0270  -25.0330 C   0  0  0  0  0  0  0  0  0  0  0  0
   -0.6140   25.2770  -26.3420 C   0  0  0  0  0  0  0  0  0  0  0  0
   -1.8570   24.6680  -26.8070 N   0  0  0  0  0  0  0  0  0  0  0  0
   -2.4110   24.9280  -28.1030 C   0  0  0  0  0  0  0  0  0  0  0  0
   -1.8110   25.6990  -28.9020 O   0  0  0  0  0  0  0  0  0  0  0  0
   -3.6410   24.2930  -28.4870 N   0  0  0  0  0  0  0  0  0  0  0  0
   -4.2360   24.4130  -29.7900 C   0  0  0  0  0  0  0  0  0  0  0  0
   -3.8090   25.2640  -30.6160 O   0  0  0  0  0  0  0  0  0  0  0  0
   -5.4100   23.5570  -30.1630 C   0  0  0  0  0  0  0  0  0  0  0  0
   -5.0940   22.1770  -30.0020 O   0  0  0  0  0  0  0  0  0  0  0  0
   -3.8320   21.7180  -29.6070 C   0  0  0  0  0  0  0  0  0  0  0  0
   -3.5430   21.6550  -28.3800 O   0  0  0  0  0  0  0  0  0  0  0  0
   -2.8530   21.2510  -30.6190 C   0  0  0  0  0  0  0  0  0  0  0  0
   -3.3270   20.5420  -31.7400 C   0  0  0  0  0  0  0  0  0  0  0  0
   -2.4560   20.1550  -32.7630 C   0  0  0  0  0  0  0  0  0  0  0  0
   -3.0900   19.3190  -34.2160 S   0  0  0  0  0  0  0  0  0  0  0  0
   -4.7370   19.2110  -33.5260 C   0  0  0  0  0  0  0  0  0  0  0  0
   -5.5940   20.2580  -33.4730 N   0  0  0  0  0  0  0  0  0  0  0  0
   -6.7830   19.9020  -32.9260 C   0  0  0  0  0  0  0  0  0  0  0  0
   -7.8640   20.7650  -32.7350 C   0  0  0  0  0  0  0  0  0  0  0  0
   -9.0350   20.2570  -32.1480 C   0  0  0  0  0  0  0  0  0  0  0  0
   -9.1180   18.9000  -31.7740 C   0  0  0  0  0  0  0  0  0  0  0  0
   -8.0250   18.0410  -31.9740 C   0  0  0  0  0  0  0  0  0  0  0  0
   -6.8730   18.5700  -32.5470 C   0  0  0  0  0  0  0  0  0  0  0  0
   -5.4220   17.7950  -32.8990 S   0  0  0  0  0  0  0  0  0  0  0  0
   -1.0930   20.4450  -32.6660 C   0  0  0  0  0  0  0  0  0  0  0  0
   -0.6010   21.1210  -31.5500 C   0  0  0  0  0  0  0  0  0  0  0  0
   -1.4660   21.5280  -30.5250 C   0  0  0  0  0  0  0  0  0  0  0  0
   -0.7420   22.3410  -29.1410 Cl  0  0  0  0  0  0  0  0  0  0  0  0
   -0.6373   25.3548  -24.1859 H   0  0  0  0  0  0  0  0  0  0  0  0
   -0.1607   26.8916  -24.9845 H   0  0  0  0  0  0  0  0  0  0  0  0
   -1.8812   26.3754  -24.9845 H   0  0  0  0  0  0  0  0  0  0  0  0
   -0.2497   25.9816  -27.1041 H   0  0  0  0  0  0  0  0  0  0  0  0
    0.1276   24.4826  -26.1720 H   0  0  0  0  0  0  0  0  0  0  0  0
   -2.3200   23.9590  -26.1950 H   0  0  0  0  0  0  0  0  0  0  0  0
   -4.1070   23.6750  -27.7850 H   0  0  0  0  0  0  0  0  0  0  0  0
   -6.2628   23.8107  -29.5161 H   0  0  0  0  0  0  0  0  0  0  0  0
   -5.6643   23.7426  -31.2170 H   0  0  0  0  0  0  0  0  0  0  0  0
   -4.3953   20.2897  -31.8115 H   0  0  0  0  0  0  0  0  0  0  0  0
   -5.3680   21.2180  -33.8180 H   0  0  0  0  0  0  0  0  0  0  0  0
   -7.8001   21.8206  -33.0378 H   0  0  0  0  0  0  0  0  0  0  0  0
   -9.8939   20.9231  -31.9788 H   0  0  0  0  0  0  0  0  0  0  0  0
  -10.0435   18.5122  -31.3233 H   0  0  0  0  0  0  0  0  0  0  0  0
   -8.0783   16.9807  -31.6859 H   0  0  0  0  0  0  0  0  0  0  0  0
   -0.4075   20.1400  -33.4704 H   0  0  0  0  0  0  0  0  0  0  0  0
    0.4749   21.3366  -31.4734 H   0  0  0  0  0  0  0  0  0  0  0  0
  1  2  1  0
  2  3  1  0
  3  4  1  0
  4  5  2  0
  4  6  1  0
  6  7  1  0
  7  8  2  0
  7  9  1  0
  9 10  1  0
 10 11  1  0
 11 12  2  0
 11 13  1  0
 13 14  2  0
 14 15  1  0
 15 16  1  0
 16 17  1  0
 17 18  2  0
 18 19  1  0
 19 20  2  0
 20 21  1  0
 21 22  2  0
 22 23  1  0
 23 24  2  0
 24 25  1  0
 15 26  2  0
 26 27  1  0
 27 28  2  0
 28 29  1  0
 28 13  1  0
 25 17  1  0
 24 19  1  0
  1 30  1  0
  1 31  1  0
  1 32  1  0
  2 33  1  0
  2 34  1  0
  3 35  1  0
  6 36  1  0
  9 37  1  0
  9 38  1  0
 14 39  1  0
 18 40  1  0
 20 41  1  0
 21 42  1  0
 22 43  1  0
 23 44  1  0
 26 45  1  0
 27 46  1  0
M  CHG  1  18   1
M  END
>  <UniqueID>  (11) 
11

>  <SMILES>  (11) 
CCNC(=O)NC(=O)COC(=O)c1cc(Sc2[nH+]c3ccccc3s2)ccc1Cl

>  <Energy>  (11) 
72.33911532916109

>  <Genealogy>  (11) 
CCNC(=O)NC(=O)COC(=O)c1cc(Sc2[nH+]c3ccccc3s2)ccc1Cl (protonated)
CCNC(=O)NC(=O)COC(=O)c1cc(Sc2[nH+]c3ccccc3s2)ccc1Cl (3D coordinates assigned)
CCNC(=O)NC(=O)COC(=O)c1cc(Sc2[nH+]c3ccccc3s2)ccc1Cl (optimized conformer: 72.33911532916109 kcal/mol)

>  <smiles>  (11) 
CCNC(=O)NC(=O)COC(=O)c1cc(Sc2nc3ccccc3s2)ccc1Cl

>  <score_type>  (11) 
oracle

>  <origin>  (11) 
adg

>  <m_score__min__energy>  (11) 
-9.7599999999999998

>  <m_primary>  (11) 
energy

$$$$
11:0
     RDKit          3D

 65 69  0  0  0  0  0  0  0  0999 V2000
   -1.2830   21.2280  -26.4400 C   0  0  0  0  0  0  0  0  0  0  0  0
   -0.2990   21.5570  -27.5590 C   0  0  0  0  0  0  0  0  0  0  0  0
   -0.0470   22.9620  -27.6130 O   0  0  0  0  0  0  0  0  0  0  0  0
   -0.5670   23.9300  -26.7370 C   0  0  0  0  0  0  0  0  0  0  0  0
    0.0610   24.2350  -25.5100 C   0  0  0  0  0  0  0  0  0  0  0  0
   -0.4590   25.2210  -24.6700 C   0  0  0  0  0  0  0  0  0  0  0  0
   -1.6040   25.9220  -25.0410 C   0  0  0  0  0  0  0  0  0  0  0  0
   -2.2400   25.6350  -26.2490 C   0  0  0  0  0  0  0  0  0  0  0  0
   -1.7430   24.6320  -27.1020 C   0  0  0  0  0  0  0  0  0  0  0  0
   -2.4530   24.3700  -28.3760 C   0  0  0  0  0  0  0  0  0  0  0  0
   -3.0880   23.2020  -28.7610 C   0  0  0  0  0  0  0  0  0  0  0  0
   -3.6040   23.4940  -30.0040 C   0  0  0  0  0  0  0  0  0  0  0  0
   -4.3430   22.5580  -30.8710 C   0  0  0  0  0  0  0  0  0  0  0  0
   -5.6860   22.4780  -30.8860 N   0  0  0  0  0  0  0  0  0  0  0  0
   -5.9400   21.4370  -31.7110 C   0  0  0  0  0  0  0  0  0  0  0  0
   -7.2710   20.9830  -32.0180 N   0  0  0  0  0  0  0  0  0  0  0  0
   -8.3800   21.9440  -32.0540 C   0  0  0  0  0  0  0  0  0  0  0  0
   -9.7050   21.2290  -31.7750 C   0  0  0  0  0  0  0  0  0  0  0  0
   -9.8610   20.1090  -32.6230 O   0  0  0  0  0  0  0  0  0  0  0  0
   -8.8750   19.1430  -32.3210 C   0  0  0  0  0  0  0  0  0  0  0  0
   -7.4730   19.6720  -32.6440 C   0  0  0  0  0  0  0  0  0  0  0  0
   -4.8310   20.8520  -32.2120 N   0  0  0  0  0  0  0  0  0  0  0  0
   -3.8220   21.5670  -31.6860 C   0  0  0  0  0  0  0  0  0  0  0  0
   -2.4050   21.2850  -31.9750 C   0  0  0  0  0  0  0  0  0  0  0  0
   -1.5360   20.8660  -30.9550 C   0  0  0  0  0  0  0  0  0  0  0  0
   -0.1910   20.6100  -31.2390 C   0  0  0  0  0  0  0  0  0  0  0  0
    0.2950   20.7780  -32.5390 C   0  0  0  0  0  0  0  0  0  0  0  0
   -0.5620   21.2090  -33.5650 C   0  0  0  0  0  0  0  0  0  0  0  0
   -0.0620   21.3430  -34.9800 C   0  0  0  0  0  0  0  0  0  0  0  0
    0.9980   22.3700  -35.0580 N   0  0  0  0  0  0  0  0  0  0  0  0
    0.6740   23.3870  -36.0740 C   0  0  0  0  0  0  0  0  0  0  0  0
    2.2870   21.7390  -35.3860 C   0  0  0  0  0  0  0  0  0  0  0  0
   -1.9100   21.4680  -33.2740 C   0  0  0  0  0  0  0  0  0  0  0  0
   -3.2900   24.7590  -30.3380 N   0  0  0  0  0  0  0  0  0  0  0  0
   -2.5990   25.2940  -29.3450 N   0  0  0  0  0  0  0  0  0  0  0  0
   -0.7982   21.3901  -25.4660 H   0  0  0  0  0  0  0  0  0  0  0  0
   -2.1649   21.8802  -26.5237 H   0  0  0  0  0  0  0  0  0  0  0  0
   -1.5953   20.1766  -26.5237 H   0  0  0  0  0  0  0  0  0  0  0  0
    0.6473   21.0272  -27.3750 H   0  0  0  0  0  0  0  0  0  0  0  0
   -0.7344   21.2388  -28.5177 H   0  0  0  0  0  0  0  0  0  0  0  0
    0.9692   23.6901  -25.2130 H   0  0  0  0  0  0  0  0  0  0  0  0
    0.0362   25.4448  -23.7136 H   0  0  0  0  0  0  0  0  0  0  0  0
   -2.0075   26.7034  -24.3802 H   0  0  0  0  0  0  0  0  0  0  0  0
   -3.1394   26.1986  -26.5378 H   0  0  0  0  0  0  0  0  0  0  0  0
   -3.1632   22.2574  -28.2024 H   0  0  0  0  0  0  0  0  0  0  0  0
   -8.2160   22.7176  -31.2894 H   0  0  0  0  0  0  0  0  0  0  0  0
   -8.4234   22.4065  -33.0511 H   0  0  0  0  0  0  0  0  0  0  0  0
   -9.7195   20.8928  -30.7277 H   0  0  0  0  0  0  0  0  0  0  0  0
  -10.5304   21.9312  -31.9641 H   0  0  0  0  0  0  0  0  0  0  0  0
   -8.9288   18.8961  -31.2504 H   0  0  0  0  0  0  0  0  0  0  0  0
   -9.0619   18.2476  -32.9320 H   0  0  0  0  0  0  0  0  0  0  0  0
   -6.7210   18.9665  -32.2610 H   0  0  0  0  0  0  0  0  0  0  0  0
   -7.3698   19.7745  -33.7343 H   0  0  0  0  0  0  0  0  0  0  0  0
   -1.9141   20.7388  -29.9299 H   0  0  0  0  0  0  0  0  0  0  0  0
    0.4855   20.2760  -30.4385 H   0  0  0  0  0  0  0  0  0  0  0  0
    1.3528   20.5718  -32.7593 H   0  0  0  0  0  0  0  0  0  0  0  0
    0.3445   20.3768  -35.3136 H   0  0  0  0  0  0  0  0  0  0  0  0
   -0.8991   21.6451  -35.6266 H   0  0  0  0  0  0  0  0  0  0  0  0
    0.3763   24.3213  -35.5756 H   0  0  0  0  0  0  0  0  0  0  0  0
    1.5577   23.5720  -36.7024 H   0  0  0  0  0  0  0  0  0  0  0  0
   -0.1539   23.0268  -36.7024 H   0  0  0  0  0  0  0  0  0  0  0  0
    2.8156   21.4802  -34.4567 H   0  0  0  0  0  0  0  0  0  0  0  0
    2.1094   20.8260  -35.9732 H   0  0  0  0  0  0  0  0  0  0  0  0
    2.8992   22.4393  -35.9732 H   0  0  0  0  0  0  0  0  0  0  0  0
   -2.5833   21.8171  -34.0707 H   0  0  0  0  0  0  0  0  0  0  0  0
  1  2  1  0
  2  3  1  0
  3  4  1  0
  4  5  2  0
  5  6  1  0
  6  7  2  0
  7  8  1  0
  8  9  2  0
  9 10  1  0
 10 11  2  0
 11 12  1  0
 12 13  1  0
 13 14  1  0
 14 15  2  0
 15 16  1  0
 16 17  1  0
 17 18  1  0
 18 19  1  0
 19 20  1  0
 20 21  1  0
 15 22  1  0
 22 23  1  0
 23 24  1  0
 24 25  2  0
 25 26  1  0
 26 27  2  0
 27 28  1  0
 28 29  1  0
 29 30  1  0
 30 31  1  0
 30 32  1  0
 28 33  2  0
 12 34  2  0
 34 35  1  0
  9  4  1  0
 35 10  1  0
 23 13  2  0
 33 24  1  0
 21 16  1  0
  1 36  1  0
  1 37  1  0
  1 38  1  0
  2 39  1  0
  2 40  1  0
  5 41  1  0
  6 42  1  0
  7 43  1  0
  8 44  1  0
 11 45  1  0
 17 46  1  0
 17 47  1  0
 18 48  1  0
 18 49  1  0
 20 50  1  0
 20 51  1  0
 21 52  1  0
 21 53  1  0
 25 54  1  0
 26 55  1  0
 27 56  1  0
 29 57  1  0
 29 58  1  0
 31 59  1  0
 31 60  1  0
 31 61  1  0
 32 62  1  0
 32 63  1  0
 32 64  1  0
 33 65  1  0
M  CHG  2  22  -1  35  -1
M  END
>  <UniqueID>  (12) 
12

>  <SMILES>  (12) 
CCOc1ccccc1-c1cc(-c2nc(N3CCOCC3)[n-]c2-c2cccc(CN(C)C)c2)n[n-]1

>  <Energy>  (12) 
135.0380254597343

>  <Genealogy>  (12) 
CCOc1ccccc1-c1cc(-c2nc(N3CCOCC3)[n-]c2-c2cccc(CN(C)C)c2)n[n-]1 (protonated)
CCOc1ccccc1-c1cc(-c2nc(N3CCOCC3)[n-]c2-c2cccc(CN(C)C)c2)n[n-]1 (3D coordinates assigned)
CCOc1ccccc1-c1cc(-c2nc(N3CCOCC3)[n-]c2-c2cccc(CN(C)C)c2)n[n-]1 (nonaromatic ring conformer: 135.0380254597343 kcal/mol)

>  <smiles>  (12) 
CCOc1ccccc1-c1cc(-c2nc(N3CCOCC3)[nH]c2-c2cccc(CN(C)C)c2)n[nH]1

>  <score_type>  (12) 
oracle

>  <origin>  (12) 
adg

>  <m_score__min__energy>  (12) 
-11.970000000000001

>  <m_primary>  (12) 
energy

$$$$
12:0
     RDKit          3D

 37 37  0  0  0  0  0  0  0  0999 V2000
   -8.2440   21.9330  -30.4430 C   0  0  0  0  0  0  0  0  0  0  0  0
   -9.0540   22.2330  -31.7040 C   0  0  0  0  0  0  0  0  0  0  0  0
   -9.7230   20.9780  -32.2980 C   0  0  0  0  0  0  0  0  0  0  0  0
   -9.0300   19.6530  -31.9170 C   0  0  0  0  0  0  0  0  0  0  0  0
   -8.3810   18.9770  -33.0650 N   0  0  0  0  0  0  0  0  0  0  0  0
   -7.1920   18.1840  -32.6780 C   0  0  0  0  0  0  0  0  0  0  0  0
   -5.9000   19.0200  -32.6320 C   0  0  0  0  0  0  0  0  0  0  0  0
   -6.1580   20.7720  -33.0970 S   0  0  0  0  0  0  0  0  0  0  0  0
   -4.5800   21.4370  -32.4480 C   0  0  0  0  0  0  0  0  0  0  0  0
   -4.8110   22.6700  -31.6110 C   0  0  0  0  0  0  0  0  0  0  0  0
   -5.8690   23.5380  -31.9370 C   0  0  0  0  0  0  0  0  0  0  0  0
   -6.0970   24.6940  -31.1860 C   0  0  0  0  0  0  0  0  0  0  0  0
   -5.2750   24.9960  -30.1000 C   0  0  0  0  0  0  0  0  0  0  0  0
   -4.2230   24.1420  -29.7600 C   0  0  0  0  0  0  0  0  0  0  0  0
   -3.9840   22.9800  -30.5060 C   0  0  0  0  0  0  0  0  0  0  0  0
   -2.5320   21.8490  -29.9650 Br  0  0  0  0  0  0  0  0  0  0  0  0
   -8.8520   22.1582  -29.5544 H   0  0  0  0  0  0  0  0  0  0  0  0
   -7.9605   20.8702  -30.4335 H   0  0  0  0  0  0  0  0  0  0  0  0
   -7.3366   22.5547  -30.4335 H   0  0  0  0  0  0  0  0  0  0  0  0
   -9.8375   22.9631  -31.4528 H   0  0  0  0  0  0  0  0  0  0  0  0
   -8.3570   22.6251  -32.4593 H   0  0  0  0  0  0  0  0  0  0  0  0
  -10.7626   20.9391  -31.9406 H   0  0  0  0  0  0  0  0  0  0  0  0
   -9.6523   21.0692  -33.3919 H   0  0  0  0  0  0  0  0  0  0  0  0
   -8.2623   19.8665  -31.1586 H   0  0  0  0  0  0  0  0  0  0  0  0
   -9.8100   18.9753  -31.5397 H   0  0  0  0  0  0  0  0  0  0  0  0
   -8.1030   19.6800  -33.7880 H   0  0  0  0  0  0  0  0  0  0  0  0
   -9.0850   18.3580  -33.5320 H   0  0  0  0  0  0  0  0  0  0  0  0
   -7.3669   17.7540  -31.6808 H   0  0  0  0  0  0  0  0  0  0  0  0
   -7.0529   17.4053  -33.4424 H   0  0  0  0  0  0  0  0  0  0  0  0
   -5.4974   18.9854  -31.6089 H   0  0  0  0  0  0  0  0  0  0  0  0
   -5.2036   18.5863  -33.3648 H   0  0  0  0  0  0  0  0  0  0  0  0
   -4.0946   20.6685  -31.8285 H   0  0  0  0  0  0  0  0  0  0  0  0
   -3.9401   21.7094  -33.3002 H   0  0  0  0  0  0  0  0  0  0  0  0
   -6.5224   23.3046  -32.7905 H   0  0  0  0  0  0  0  0  0  0  0  0
   -6.9257   25.3669  -31.4514 H   0  0  0  0  0  0  0  0  0  0  0  0
   -5.4554   25.9073  -29.5109 H   0  0  0  0  0  0  0  0  0  0  0  0
   -3.5785   24.3830  -28.9018 H   0  0  0  0  0  0  0  0  0  0  0  0
  1  2  1  0
  2  3  1  0
  3  4  1  0
  4  5  1  0
  5  6  1  0
  6  7  1  0
  7  8  1  0
  8  9  1  0
  9 10  1  0
 10 11  2  0
 11 12  1  0
 12 13  2  0
 13 14  1  0
 14 15  2  0
 15 16  1  0
 15 10  1  0
  1 17  1  0
  1 18  1  0
  1 19  1  0
  2 20  1  0
  2 21  1  0
  3 22  1  0
  3 23  1  0
  4 24  1  0
  4 25  1  0
  5 26  1  0
  5 27  1  0
  6 28  1  0
  6 29  1  0
  7 30  1  0
  7 31  1  0
  9 32  1  0
  9 33  1  0
 11 34  1  0
 12 35  1  0
 13 36  1  0
 14 37  1  0
M  CHG  1   5   1
M  END
>  <UniqueID>  (13) 
13

>  <SMILES>  (13) 
CCCC[NH2+]CCSCc1ccccc1Br

>  <Energy>  (13) 
32.818586644280515

>  <Genealogy>  (13) 
CCCC[NH2+]CCSCc1ccccc1Br (protonated)
CCCC[NH2+]CCSCc1ccccc1Br (3D coordinates assigned)
CCCC[NH2+]CCSCc1ccccc1Br (optimized conformer: 32.818586644280515 kcal/mol)

>  <smiles>  (13) 
CCCCNCCSCc1ccccc1Br

>  <score_type>  (13) 
oracle

>  <origin>  (13) 
adg

>  <m_score__min__energy>  (13) 
-6.0800000000000001

>  <m_primary>  (13) 
energy

$$$$
13:0
     RDKit          3D

 32 33  0  0  1  0  0  0  0  0999 V2000
   -3.6110   24.3620  -29.5010 C   0  0  0  0  0  0  0  0  0  0  0  0
   -3.9220   25.3110  -30.4730 O   0  0  0  0  0  0  0  0  0  0  0  0
   -5.2400   25.6770  -30.4710 C   0  0  0  0  0  0  0  0  0  0  0  0
   -6.0880   24.4060  -30.4070 C   0  0  0  0  0  0  0  0  0  0  0  0
   -6.2310   23.8640  -31.7460 N   0  0  0  0  0  0  0  0  0  0  0  0
   -5.6190   22.7760  -32.0750 C   0  0  0  0  0  0  0  0  0  0  0  0
   -6.2820   21.6170  -32.3270 N   0  0  0  0  0  0  0  0  0  0  0  0
   -5.5820   20.5100  -32.6670 C   0  0  0  0  0  0  0  0  0  0  0  0
   -6.2150   19.2600  -32.9440 N   0  0  0  0  0  0  0  0  0  0  0  0
   -5.6930   18.2930  -33.7300 C   0  0  0  0  0  0  0  0  0  0  0  0
   -6.5730   17.2170  -33.7790 C   0  0  0  0  0  0  0  0  0  0  0  0
   -7.6060   17.5820  -33.0110 N   0  0  0  0  0  0  0  0  0  0  0  0
   -7.4030   18.8080  -32.5020 C   0  0  0  0  0  0  0  0  0  0  0  0
   -8.3330   19.5360  -31.6060 C   0  0  0  0  0  0  0  0  0  0  0  0
   -4.2030   20.5510  -32.7590 C   0  0  0  0  0  0  0  0  0  0  0  0
   -3.5460   21.7500  -32.4970 C   0  0  0  0  0  0  0  0  0  0  0  0
   -4.2680   22.8530  -32.1560 N   0  0  0  0  0  0  0  0  0  0  0  0
   -3.7544   24.7997  -28.5021 H   0  0  0  0  0  0  0  0  0  0  0  0
   -4.2700   23.4889  -29.6169 H   0  0  0  0  0  0  0  0  0  0  0  0
   -2.5631   24.0483  -29.6169 H   0  0  0  0  0  0  0  0  0  0  0  0
   -5.4497   26.3092  -29.5956 H   0  0  0  0  0  0  0  0  0  0  0  0
   -5.4777   26.2473  -31.3811 H   0  0  0  0  0  0  0  0  0  0  0  0
   -5.5942   23.6656  -29.7605 H   0  0  0  0  0  0  0  0  0  0  0  0
   -7.0799   24.6420  -29.9943 H   0  0  0  0  0  0  0  0  0  0  0  0
   -4.7248   18.3480  -34.2492 H   0  0  0  0  0  0  0  0  0  0  0  0
   -6.4472   16.2726  -34.3288 H   0  0  0  0  0  0  0  0  0  0  0  0
   -8.0694   19.3297  -30.5582 H   0  0  0  0  0  0  0  0  0  0  0  0
   -8.2562   20.6165  -31.7975 H   0  0  0  0  0  0  0  0  0  0  0  0
   -9.3634   19.2020  -31.7975 H   0  0  0  0  0  0  0  0  0  0  0  0
   -3.6343   19.6507  -33.0348 H   0  0  0  0  0  0  0  0  0  0  0  0
   -2.4495   21.8061  -32.5651 H   0  0  0  0  0  0  0  0  0  0  0  0
   -3.7760   23.7620  -31.9570 H   0  0  0  0  0  0  0  0  0  0  0  0
  1  2  1  0
  2  3  1  0
  3  4  1  0
  4  5  1  0
  5  6  2  0
  6  7  1  0
  7  8  2  0
  8  9  1  0
  9 10  1  0
 10 11  2  0
 11 12  1  0
 12 13  2  0
 13 14  1  0
  8 15  1  0
 15 16  2  0
 16 17  1  0
 17  6  1  0
 13  9  1  0
  1 18  1  0
  1 19  1  0
  1 20  1  0
  3 21  1  0
  3 22  1  0
  4 23  1  0
  4 24  1  0
 10 25  1  0
 11 26  1  0
 14 27  1  0
 14 28  1  0
 14 29  1  0
 15 30  1  0
 16 31  1  0
 17 32  1  0
M  END
>  <smiles>  (14) 
COCCN=c1nc(-n2ccnc2C)cc[nH]1

>  <score_type>  (14) 
oracle

>  <origin>  (14) 
adg

>  <m_score__min__energy>  (14) 
-6.2699999999999996

>  <m_primary>  (14) 
energy

$$$$
14:0
     RDKit          3D

 43 46  0  0  0  0  0  0  0  0999 V2000
   -0.5030   23.3370  -24.7130 C   0  0  0  0  0  0  0  0  0  0  0  0
   -0.5100   24.8050  -25.0350 C   0  0  0  0  0  0  0  0  0  0  0  0
    0.1730   25.6720  -24.2310 N   0  0  0  0  0  0  0  0  0  0  0  0
    0.2070   27.0080  -24.5000 C   0  0  0  0  0  0  0  0  0  0  0  0
    0.9210   27.8950  -23.6780 C   0  0  0  0  0  0  0  0  0  0  0  0
    0.9440   29.2610  -23.9780 C   0  0  0  0  0  0  0  0  0  0  0  0
    0.2560   29.7480  -25.0950 C   0  0  0  0  0  0  0  0  0  0  0  0
   -0.4590   28.8720  -25.9180 C   0  0  0  0  0  0  0  0  0  0  0  0
   -0.4860   27.5040  -25.6220 C   0  0  0  0  0  0  0  0  0  0  0  0
   -1.1820   26.6450  -26.4090 N   0  0  0  0  0  0  0  0  0  0  0  0
   -1.2280   25.3130  -26.1400 C   0  0  0  0  0  0  0  0  0  0  0  0
   -1.9870   24.4540  -26.9990 N   0  0  0  0  0  0  0  0  0  0  0  0
   -1.2760   23.5610  -27.9270 C   0  0  0  0  0  0  0  0  0  0  0  0
   -2.2250   22.5270  -28.5360 C   0  0  0  0  0  0  0  0  0  0  0  0
   -3.4570   23.1910  -28.9780 N   0  0  0  0  0  0  0  0  0  0  0  0
   -3.7810   23.2300  -30.3800 C   0  0  0  0  0  0  0  0  0  0  0  0
   -2.8550   23.3600  -31.2260 O   0  0  0  0  0  0  0  0  0  0  0  0
   -5.1720   23.1190  -30.8590 C   0  0  0  0  0  0  0  0  0  0  0  0
   -6.0850   24.1660  -30.9330 C   0  0  0  0  0  0  0  0  0  0  0  0
   -7.3160   23.7920  -31.4840 C   0  0  0  0  0  0  0  0  0  0  0  0
   -7.3780   22.4570  -31.8600 C   0  0  0  0  0  0  0  0  0  0  0  0
   -5.8960   21.7450  -31.5070 S   0  0  0  0  0  0  0  0  0  0  0  0
   -4.1860   24.0600  -28.0380 C   0  0  0  0  0  0  0  0  0  0  0  0
   -3.4150   24.2550  -26.7250 C   0  0  0  0  0  0  0  0  0  0  0  0
   -0.5024   23.2011  -23.6214 H   0  0  0  0  0  0  0  0  0  0  0  0
   -1.3989   22.8635  -25.1409 H   0  0  0  0  0  0  0  0  0  0  0  0
    0.3974   22.8720  -25.1409 H   0  0  0  0  0  0  0  0  0  0  0  0
    0.6870   25.3020  -23.4000 H   0  0  0  0  0  0  0  0  0  0  0  0
    1.4620   27.5157  -22.7985 H   0  0  0  0  0  0  0  0  0  0  0  0
    1.5046   29.9545  -23.3340 H   0  0  0  0  0  0  0  0  0  0  0  0
    0.2776   30.8232  -25.3264 H   0  0  0  0  0  0  0  0  0  0  0  0
   -0.9988   29.2570  -26.7957 H   0  0  0  0  0  0  0  0  0  0  0  0
   -0.8337   24.1620  -28.7352 H   0  0  0  0  0  0  0  0  0  0  0  0
   -0.4934   23.0283  -27.3669 H   0  0  0  0  0  0  0  0  0  0  0  0
   -1.7387   22.0462  -29.3976 H   0  0  0  0  0  0  0  0  0  0  0  0
   -2.4705   21.7661  -27.7804 H   0  0  0  0  0  0  0  0  0  0  0  0
   -5.8614   25.1876  -30.5919 H   0  0  0  0  0  0  0  0  0  0  0  0
   -8.1564   24.4909  -31.6077 H   0  0  0  0  0  0  0  0  0  0  0  0
   -8.2456   21.9527  -32.3105 H   0  0  0  0  0  0  0  0  0  0  0  0
   -4.3413   25.0420  -28.5086 H   0  0  0  0  0  0  0  0  0  0  0  0
   -5.1460   23.5778  -27.8018 H   0  0  0  0  0  0  0  0  0  0  0  0
   -3.8102   25.1368  -26.1994 H   0  0  0  0  0  0  0  0  0  0  0  0
   -3.5384   23.3580  -26.1004 H   0  0  0  0  0  0  0  0  0  0  0  0
  1  2  1  0
  2  3  2  0
  3  4  1  0
  4  5  2  0
  5  6  1  0
  6  7  2  0
  7  8  1  0
  8  9  2  0
  9 10  1  0
 10 11  2  0
 11 12  1  0
 12 13  1  0
 13 14  1  0
 14 15  1  0
 15 16  1  0
 16 17  2  0
 16 18  1  0
 18 19  2  0
 19 20  1  0
 20 21  2  0
 21 22  1  0
 15 23  1  0
 23 24  1  0
 11  2  1  0
 24 12  1  0
  9  4  1  0
 22 18  1  0
  1 25  1  0
  1 26  1  0
  1 27  1  0
  3 28  1  0
  5 29  1  0
  6 30  1  0
  7 31  1  0
  8 32  1  0
 13 33  1  0
 13 34  1  0
 14 35  1  0
 14 36  1  0
 19 37  1  0
 20 38  1  0
 21 39  1  0
 23 40  1  0
 23 41  1  0
 24 42  1  0
 24 43  1  0
M  CHG  1   3   1
M  END
>  <UniqueID>  (15) 
14

>  <SMILES>  (15) 
Cc1[nH+]c2ccccc2nc1N1CCN(C(=O)c2cccs2)CC1

>  <Energy>  (15) 
85.00817910100237

>  <Genealogy>  (15) 
Cc1[nH+]c2ccccc2nc1N1CCN(C(=O)c2cccs2)CC1 (protonated)
Cc1[nH+]c2ccccc2nc1N1CCN(C(=O)c2cccs2)CC1 (3D coordinates assigned)
Cc1[nH+]c2ccccc2nc1N1CCN(C(=O)c2cccs2)CC1 (nonaromatic ring conformer: 85.00817910100237 kcal/mol)

>  <smiles>  (15) 
Cc1nc2ccccc2nc1N1CCN(C(=O)c2cccs2)CC1

>  <score_type>  (15) 
oracle

>  <origin>  (15) 
adg

>  <m_score__min__energy>  (15) 
-8.2799999999999994

>  <m_primary>  (15) 
energy

$$$$
15:0
     RDKit          3D

 50 53  0  0  0  0  0  0  0  0999 V2000
    0.4720   19.2770  -31.5230 C   0  0  0  0  0  0  0  0  0  0  0  0
    0.0370   20.4790  -32.1490 O   0  0  0  0  0  0  0  0  0  0  0  0
   -1.0230   21.2810  -31.6910 C   0  0  0  0  0  0  0  0  0  0  0  0
   -0.9850   21.9050  -30.4310 C   0  0  0  0  0  0  0  0  0  0  0  0
   -2.0390   22.7130  -30.0060 C   0  0  0  0  0  0  0  0  0  0  0  0
   -3.1490   22.9290  -30.8360 C   0  0  0  0  0  0  0  0  0  0  0  0
   -4.2790   23.7790  -30.4030 C   0  0  0  0  0  0  0  0  0  0  0  0
   -5.0230   24.5180  -31.2480 N   0  0  0  0  0  0  0  0  0  0  0  0
   -5.9070   25.1420  -30.4820 N   0  0  0  0  0  0  0  0  0  0  0  0
   -5.7170   24.8160  -29.2130 N   0  0  0  0  0  0  0  0  0  0  0  0
   -4.7020   23.9740  -29.1360 N   0  0  0  0  0  0  0  0  0  0  0  0
   -4.1760   23.4390  -27.8860 C   0  0  0  0  0  0  0  0  0  0  0  0
   -3.2020   22.2910  -32.0830 C   0  0  0  0  0  0  0  0  0  0  0  0
   -2.1490   21.4690  -32.5230 C   0  0  0  0  0  0  0  0  0  0  0  0
   -2.2020   20.8850  -33.8450 N   0  0  0  0  0  0  0  0  0  0  0  0
   -2.3880   19.4250  -33.7840 C   0  0  0  0  0  0  0  0  0  0  0  0
   -3.8480   19.0400  -33.8390 C   0  0  0  0  0  0  0  0  0  0  0  0
   -4.2290   17.7740  -34.3090 C   0  0  0  0  0  0  0  0  0  0  0  0
   -5.5690   17.3850  -34.2720 C   0  0  0  0  0  0  0  0  0  0  0  0
   -6.5380   18.2500  -33.7580 C   0  0  0  0  0  0  0  0  0  0  0  0
   -6.1750   19.5210  -33.2790 C   0  0  0  0  0  0  0  0  0  0  0  0
   -7.1990   20.4280  -32.7010 C   0  0  0  0  0  0  0  0  0  0  0  0
   -6.8520   21.7270  -32.2870 C   0  0  0  0  0  0  0  0  0  0  0  0
   -7.8170   22.5760  -31.7370 C   0  0  0  0  0  0  0  0  0  0  0  0
   -9.1360   22.1380  -31.5920 C   0  0  0  0  0  0  0  0  0  0  0  0
   -9.4920   20.8510  -31.9980 C   0  0  0  0  0  0  0  0  0  0  0  0
   -8.5310   19.9970  -32.5500 C   0  0  0  0  0  0  0  0  0  0  0  0
   -4.8250   19.9110  -33.3300 C   0  0  0  0  0  0  0  0  0  0  0  0
    0.4288   19.3963  -30.4303 H   0  0  0  0  0  0  0  0  0  0  0  0
   -0.1829   18.4473  -31.8274 H   0  0  0  0  0  0  0  0  0  0  0  0
    1.5062   19.0585  -31.8274 H   0  0  0  0  0  0  0  0  0  0  0  0
   -0.1154   21.7541  -29.7745 H   0  0  0  0  0  0  0  0  0  0  0  0
   -1.9997   23.1843  -29.0129 H   0  0  0  0  0  0  0  0  0  0  0  0
   -4.6671   23.9385  -27.0379 H   0  0  0  0  0  0  0  0  0  0  0  0
   -4.3724   22.3577  -27.8385 H   0  0  0  0  0  0  0  0  0  0  0  0
   -3.0916   23.6171  -27.8385 H   0  0  0  0  0  0  0  0  0  0  0  0
   -4.0814   22.4356  -32.7279 H   0  0  0  0  0  0  0  0  0  0  0  0
   -1.3020   21.0830  -34.3420 H   0  0  0  0  0  0  0  0  0  0  0  0
   -2.9610   21.3190  -34.4200 H   0  0  0  0  0  0  0  0  0  0  0  0
   -1.8664   18.9642  -34.6358 H   0  0  0  0  0  0  0  0  0  0  0  0
   -1.9774   19.0688  -32.8277 H   0  0  0  0  0  0  0  0  0  0  0  0
   -3.4692   17.0858  -34.7079 H   0  0  0  0  0  0  0  0  0  0  0  0
   -5.8629   16.3942  -34.6488 H   0  0  0  0  0  0  0  0  0  0  0  0
   -7.5914   17.9348  -33.7278 H   0  0  0  0  0  0  0  0  0  0  0  0
   -5.8149   22.0769  -32.3967 H   0  0  0  0  0  0  0  0  0  0  0  0
   -7.5374   23.5908  -31.4178 H   0  0  0  0  0  0  0  0  0  0  0  0
   -9.8934   22.8073  -31.1580 H   0  0  0  0  0  0  0  0  0  0  0  0
  -10.5306   20.5072  -31.8837 H   0  0  0  0  0  0  0  0  0  0  0  0
   -8.8175   18.9836  -32.8677 H   0  0  0  0  0  0  0  0  0  0  0  0
   -4.5315   20.9074  -32.9679 H   0  0  0  0  0  0  0  0  0  0  0  0
  1  2  1  0
  2  3  1  0
  3  4  2  0
  4  5  1  0
  5  6  2  0
  6  7  1  0
  7  8  2  0
  8  9  1  0
  9 10  2  0
 10 11  1  0
 11 12  1  0
  6 13  1  0
 13 14  2  0
 14 15  1  0
 15 16  1  0
 16 17  1  0
 17 18  2  0
 18 19  1  0
 19 20  2  0
 20 21  1  0
 21 22  1  0
 22 23  2  0
 23 24  1  0
 24 25  2  0
 25 26  1  0
 26 27  2  0
 21 28  2  0
 14  3  1  0
 28 17  1  0
 11  7  1  0
 27 22  1  0
  1 29  1  0
  1 30  1  0
  1 31  1  0
  4 32  1  0
  5 33  1  0
 12 34  1  0
 12 35  1  0
 12 36  1  0
 13 37  1  0
 15 38  1  0
 15 39  1  0
 16 40  1  0
 16 41  1  0
 18 42  1  0
 19 43  1  0
 20 44  1  0
 23 45  1  0
 24 46  1  0
 25 47  1  0
 26 48  1  0
 27 49  1  0
 28 50  1  0
M  CHG  1  15   1
M  END
>  <UniqueID>  (16) 
15

>  <SMILES>  (16) 
COc1ccc(-c2nnnn2C)cc1[NH2+]Cc1cccc(-c2ccccc2)c1

>  <Energy>  (16) 
101.46100175911624

>  <Genealogy>  (16) 
COc1ccc(-c2nnnn2C)cc1[NH2+]Cc1cccc(-c2ccccc2)c1 (protonated)
COc1ccc(-c2nnnn2C)cc1[NH2+]Cc1cccc(-c2ccccc2)c1 (3D coordinates assigned)
COc1ccc(-c2nnnn2C)cc1[NH2+]Cc1cccc(-c2ccccc2)c1 (optimized conformer: 101.46100175911624 kcal/mol)

>  <smiles>  (16) 
COc1ccc(-c2nnnn2C)cc1NCc1cccc(-c2ccccc2)c1

>  <score_type>  (16) 
oracle

>  <origin>  (16) 
adg

>  <m_score__min__energy>  (16) 
-9.5899999999999999

>  <m_primary>  (16) 
energy

$$$$
16:0
     RDKit          3D

 38 39  0  0  0  0  0  0  0  0999 V2000
   -6.0370   16.9220  -34.5370 C   0  0  0  0  0  0  0  0  0  0  0  0
   -6.4860   18.0120  -33.6110 C   0  0  0  0  0  0  0  0  0  0  0  0
   -7.2560   17.7080  -32.4800 C   0  0  0  0  0  0  0  0  0  0  0  0
   -7.6870   18.7250  -31.6220 C   0  0  0  0  0  0  0  0  0  0  0  0
   -7.3790   20.0710  -31.9050 C   0  0  0  0  0  0  0  0  0  0  0  0
   -7.7790   21.1440  -31.0900 O   0  0  0  0  0  0  0  0  0  0  0  0
   -8.6280   22.2330  -31.4620 C   0  0  0  0  0  0  0  0  0  0  0  0
   -7.8180   23.4220  -31.9960 C   0  0  0  0  0  0  0  0  0  0  0  0
   -6.8990   24.0790  -30.9500 C   0  0  0  0  0  0  0  0  0  0  0  0
   -5.4340   23.8000  -31.1550 C   0  0  0  0  0  0  0  0  0  0  0  0
   -4.6130   24.7560  -31.2090 O   0  0  0  0  0  0  0  0  0  0  0  0
   -4.9830   22.4360  -31.2410 N   0  0  0  0  0  0  0  0  0  0  0  0
   -3.6900   22.0230  -31.7300 C   0  0  0  0  0  0  0  0  0  0  0  0
   -3.5250   21.4960  -33.0240 C   0  0  0  0  0  0  0  0  0  0  0  0
   -2.2660   21.0890  -33.4640 C   0  0  0  0  0  0  0  0  0  0  0  0
   -1.1670   21.2330  -32.6200 C   0  0  0  0  0  0  0  0  0  0  0  0
   -1.3250   21.7810  -31.3890 N   0  0  0  0  0  0  0  0  0  0  0  0
   -2.5400   22.1850  -30.9280 C   0  0  0  0  0  0  0  0  0  0  0  0
   -2.6240   22.8830  -29.3170 Cl  0  0  0  0  0  0  0  0  0  0  0  0
   -6.6350   20.3690  -33.0540 C   0  0  0  0  0  0  0  0  0  0  0  0
   -6.1890   19.3500  -33.9000 C   0  0  0  0  0  0  0  0  0  0  0  0
   -5.6832   16.0630  -33.9479 H   0  0  0  0  0  0  0  0  0  0  0  0
   -6.8796   16.6095  -35.1713 H   0  0  0  0  0  0  0  0  0  0  0  0
   -5.2187   17.2936  -35.1713 H   0  0  0  0  0  0  0  0  0  0  0  0
   -7.5231   16.6627  -32.2657 H   0  0  0  0  0  0  0  0  0  0  0  0
   -8.2686   18.4734  -30.7229 H   0  0  0  0  0  0  0  0  0  0  0  0
   -9.3224   21.8934  -32.2447 H   0  0  0  0  0  0  0  0  0  0  0  0
   -9.1765   22.5635  -30.5676 H   0  0  0  0  0  0  0  0  0  0  0  0
   -7.1940   23.0679  -32.8298 H   0  0  0  0  0  0  0  0  0  0  0  0
   -8.5453   24.1877  -32.3038 H   0  0  0  0  0  0  0  0  0  0  0  0
   -7.0521   25.1675  -30.9912 H   0  0  0  0  0  0  0  0  0  0  0  0
   -7.1700   23.6476  -29.9751 H   0  0  0  0  0  0  0  0  0  0  0  0
   -5.7030   21.6980  -31.0780 H   0  0  0  0  0  0  0  0  0  0  0  0
   -4.3939   21.4045  -33.6923 H   0  0  0  0  0  0  0  0  0  0  0  0
   -2.1417   20.6581  -34.4684 H   0  0  0  0  0  0  0  0  0  0  0  0
   -0.1716   20.9025  -32.9515 H   0  0  0  0  0  0  0  0  0  0  0  0
   -6.3993   21.4165  -33.2929 H   0  0  0  0  0  0  0  0  0  0  0  0
   -5.6024   19.5997  -34.7964 H   0  0  0  0  0  0  0  0  0  0  0  0
  1  2  1  0
  2  3  2  0
  3  4  1  0
  4  5  2  0
  5  6  1  0
  6  7  1  0
  7  8  1  0
  8  9  1  0
  9 10  1  0
 10 11  2  0
 10 12  1  0
 12 13  1  0
 13 14  2  0
 14 15  1  0
 15 16  2  0
 16 17  1  0
 17 18  2  0
 18 19  1  0
  5 20  1  0
 20 21  2  0
 21  2  1  0
 18 13  1  0
  1 22  1  0
  1 23  1  0
  1 24  1  0
  3 25  1  0
  4 26  1  0
  7 27  1  0
  7 28  1  0
  8 29  1  0
  8 30  1  0
  9 31  1  0
  9 32  1  0
 12 33  1  0
 14 34  1  0
 15 35  1  0
 16 36  1  0
 20 37  1  0
 21 38  1  0
M  END
>  <UniqueID>  (17) 
16

>  <SMILES>  (17) 
Cc1ccc(OCCCC(=O)Nc2cccnc2Cl)cc1

>  <Energy>  (17) 
39.04694026946895

>  <Genealogy>  (17) 
Cc1ccc(OCCCC(=O)Nc2cccnc2Cl)cc1 (3D coordinates assigned)
Cc1ccc(OCCCC(=O)Nc2cccnc2Cl)cc1 (optimized conformer: 39.04694026946895 kcal/mol)

>  <smiles>  (17) 
Cc1ccc(OCCCC(=O)Nc2cccnc2Cl)cc1

>  <score_type>  (17) 
oracle

>  <origin>  (17) 
adg

>  <m_score__min__energy>  (17) 
-8.1400000000000006

>  <m_primary>  (17) 
energy

$$$$
17:0
     RDKit          3D

 53 55  0  0  0  0  0  0  0  0999 V2000
   -6.9510   25.3680  -29.5670 C   0  0  0  0  0  0  0  0  0  0  0  0
   -5.8290   25.1960  -30.6030 C   0  0  2  0  0  0  0  0  0  0  0  0
   -6.3090   24.5200  -31.7740 O   0  0  0  0  0  0  0  0  0  0  0  0
   -6.9720   23.2800  -31.8440 C   0  0  0  0  0  0  0  0  0  0  0  0
   -8.3660   23.1360  -31.6950 C   0  0  0  0  0  0  0  0  0  0  0  0
   -8.9630   21.8740  -31.7700 C   0  0  0  0  0  0  0  0  0  0  0  0
   -8.1800   20.7340  -31.9940 C   0  0  0  0  0  0  0  0  0  0  0  0
   -8.7700   19.4620  -32.0710 C   0  0  0  0  0  0  0  0  0  0  0  0
   -7.9760   18.3340  -32.2930 C   0  0  0  0  0  0  0  0  0  0  0  0
   -6.5920   18.4650  -32.4390 C   0  0  0  0  0  0  0  0  0  0  0  0
   -5.9920   19.7270  -32.3630 C   0  0  0  0  0  0  0  0  0  0  0  0
   -6.7780   20.8680  -32.1410 C   0  0  0  0  0  0  0  0  0  0  0  0
   -6.1900   22.1390  -32.0620 C   0  0  0  0  0  0  0  0  0  0  0  0
   -4.5870   24.5500  -30.0380 C   0  0  0  0  0  0  0  0  0  0  0  0
   -3.4550   24.8740  -30.4900 O   0  0  0  0  0  0  0  0  0  0  0  0
   -4.6810   23.6280  -28.9400 N   0  0  0  0  0  0  0  0  0  0  0  0
   -3.5100   22.9800  -28.3510 C   0  0  0  0  0  0  0  0  0  0  0  0
   -2.4210   24.0110  -28.0480 C   0  0  0  0  0  0  0  0  0  0  0  0
   -2.2100   24.1160  -26.5820 N   0  0  0  0  0  0  0  0  0  0  0  0
   -0.7890   23.9500  -26.2420 C   0  0  0  0  0  0  0  0  0  0  0  0
   -2.7220   25.3900  -26.0310 C   0  0  0  0  0  0  0  0  0  0  0  0
   -1.5810   26.3020  -25.6620 C   0  0  0  0  0  0  0  0  0  0  0  0
   -0.8730   26.9800  -26.6680 C   0  0  0  0  0  0  0  0  0  0  0  0
    0.2150   27.7940  -26.3380 C   0  0  0  0  0  0  0  0  0  0  0  0
    0.6030   27.9360  -25.0030 C   0  0  0  0  0  0  0  0  0  0  0  0
   -0.0970   27.2660  -23.9960 C   0  0  0  0  0  0  0  0  0  0  0  0
   -1.1850   26.4500  -24.3220 C   0  0  0  0  0  0  0  0  0  0  0  0
   -6.5276   25.3031  -28.5538 H   0  0  0  0  0  0  0  0  0  0  0  0
   -7.4281   26.3498  -29.7028 H   0  0  0  0  0  0  0  0  0  0  0  0
   -7.7003   24.5742  -29.7028 H   0  0  0  0  0  0  0  0  0  0  0  0
   -5.5180   26.2080  -30.9016 H   0  0  0  0  0  0  0  0  0  0  0  0
   -8.9899   24.0245  -31.5181 H   0  0  0  0  0  0  0  0  0  0  0  0
  -10.0523   21.7757  -31.6526 H   0  0  0  0  0  0  0  0  0  0  0  0
   -9.8586   19.3536  -31.9564 H   0  0  0  0  0  0  0  0  0  0  0  0
   -8.4417   17.3392  -32.3531 H   0  0  0  0  0  0  0  0  0  0  0  0
   -5.9724   17.5731  -32.6142 H   0  0  0  0  0  0  0  0  0  0  0  0
   -4.9023   19.8247  -32.4775 H   0  0  0  0  0  0  0  0  0  0  0  0
   -5.1003   22.2408  -32.1727 H   0  0  0  0  0  0  0  0  0  0  0  0
   -5.6010   23.4910  -28.4660 H   0  0  0  0  0  0  0  0  0  0  0  0
   -3.8049   22.4801  -27.4166 H   0  0  0  0  0  0  0  0  0  0  0  0
   -3.1136   22.2446  -29.0665 H   0  0  0  0  0  0  0  0  0  0  0  0
   -1.4819   23.7001  -28.5292 H   0  0  0  0  0  0  0  0  0  0  0  0
   -2.7351   24.9907  -28.4372 H   0  0  0  0  0  0  0  0  0  0  0  0
   -0.6729   23.9364  -25.1482 H   0  0  0  0  0  0  0  0  0  0  0  0
   -0.4198   23.0026  -26.6617 H   0  0  0  0  0  0  0  0  0  0  0  0
   -0.2114   24.7868  -26.6617 H   0  0  0  0  0  0  0  0  0  0  0  0
   -3.3507   25.8843  -26.7862 H   0  0  0  0  0  0  0  0  0  0  0  0
   -3.3120   25.1753  -25.1278 H   0  0  0  0  0  0  0  0  0  0  0  0
   -1.1757   26.8702  -27.7198 H   0  0  0  0  0  0  0  0  0  0  0  0
    0.7658   28.3229  -27.1297 H   0  0  0  0  0  0  0  0  0  0  0  0
    1.4599   28.5755  -24.7447 H   0  0  0  0  0  0  0  0  0  0  0  0
    0.2082   27.3806  -22.9454 H   0  0  0  0  0  0  0  0  0  0  0  0
   -1.7324   25.9225  -23.5270 H   0  0  0  0  0  0  0  0  0  0  0  0
  1  2  1  0
  2  3  1  0
  3  4  1  0
  4  5  2  0
  5  6  1  0
  6  7  2  0
  7  8  1  0
  8  9  2  0
  9 10  1  0
 10 11  2  0
 11 12  1  0
 12 13  2  0
  2 14  1  0
 14 15  2  0
 14 16  1  0
 16 17  1  0
 17 18  1  0
 18 19  1  0
 19 20  1  0
 19 21  1  0
 21 22  1  0
 22 23  2  0
 23 24  1  0
 24 25  2  0
 25 26  1  0
 26 27  2  0
 13  4  1  0
 27 22  1  0
 12  7  1  0
  1 28  1  0
  1 29  1  0
  1 30  1  0
  2 31  1  6
  5 32  1  0
  6 33  1  0
  8 34  1  0
  9 35  1  0
 10 36  1  0
 11 37  1  0
 13 38  1  0
 16 39  1  0
 17 40  1  0
 17 41  1  0
 18 42  1  0
 18 43  1  0
 20 44  1  0
 20 45  1  0
 20 46  1  0
 21 47  1  0
 21 48  1  0
 23 49  1  0
 24 50  1  0
 25 51  1  0
 26 52  1  0
 27 53  1  0
M  END
>  <UniqueID>  (18) 
17

>  <SMILES>  (18) 
C[C@H](Oc1ccc2ccccc2c1)C(=O)NCCN(C)Cc1ccccc1

>  <Energy>  (18) 
57.184645579424576

>  <Genealogy>  (18) 
C[C@H](Oc1ccc2ccccc2c1)C(=O)NCCN(C)Cc1ccccc1 (chirality)
C[C@H](Oc1ccc2ccccc2c1)C(=O)NCCN(C)Cc1ccccc1 (3D coordinates assigned)
C[C@H](Oc1ccc2ccccc2c1)C(=O)NCCN(C)Cc1ccccc1 (optimized conformer: 57.184645579424576 kcal/mol)

>  <smiles>  (18) 
CC(Oc1ccc2ccccc2c1)C(=O)NCCN(C)Cc1ccccc1

>  <score_type>  (18) 
oracle

>  <origin>  (18) 
adg

>  <m_score__min__energy>  (18) 
-9.6500000000000004

>  <m_primary>  (18) 
energy

$$$$
18:0
     RDKit          3D

 41 42  0  0  0  0  0  0  0  0999 V2000
   -4.2670   24.4790  -26.6600 C   0  0  0  0  0  0  0  0  0  0  0  0
   -2.8490   24.9530  -26.8290 C   0  0  0  0  0  0  0  0  0  0  0  0
   -2.2300   25.6310  -25.7640 C   0  0  0  0  0  0  0  0  0  0  0  0
   -0.9170   26.0940  -25.8810 C   0  0  0  0  0  0  0  0  0  0  0  0
   -0.0980   27.0220  -24.4270 Br  0  0  0  0  0  0  0  0  0  0  0  0
   -0.2070   25.8830  -27.0620 C   0  0  0  0  0  0  0  0  0  0  0  0
   -0.8000   25.2000  -28.1240 C   0  0  0  0  0  0  0  0  0  0  0  0
   -2.1120   24.7090  -28.0170 C   0  0  0  0  0  0  0  0  0  0  0  0
   -2.8110   23.8390  -29.3960 S   0  0  0  0  0  0  0  0  0  0  0  0
   -3.7960   22.8290  -28.8820 O   0  0  0  0  0  0  0  0  0  0  0  0
   -1.7330   23.1300  -30.1690 O   0  0  0  0  0  0  0  0  0  0  0  0
   -3.6440   24.9390  -30.4540 N   0  0  0  0  0  0  0  0  0  0  0  0
   -5.0590   25.0130  -30.0920 C   0  0  0  0  0  0  0  0  0  0  0  0
   -5.9230   24.4890  -31.2440 C   0  0  0  0  0  0  0  0  0  0  0  0
   -5.8810   22.9560  -31.4170 C   0  0  0  0  0  0  0  0  0  0  0  0
   -4.5030   22.4160  -31.5550 N   0  0  0  0  0  0  0  0  0  0  0  0
   -4.3980   21.0610  -30.9950 C   0  0  0  0  0  0  0  0  0  0  0  0
   -3.2150   20.3950  -31.6770 C   0  0  0  0  0  0  0  0  0  0  0  0
   -3.0490   21.1340  -32.9930 C   0  0  0  0  0  0  0  0  0  0  0  0
   -4.0610   22.2730  -32.9540 C   0  0  0  0  0  0  0  0  0  0  0  0
   -4.5021   24.4004  -25.5883 H   0  0  0  0  0  0  0  0  0  0  0  0
   -4.9525   25.1968  -27.1341 H   0  0  0  0  0  0  0  0  0  0  0  0
   -4.3831   23.4932  -27.1341 H   0  0  0  0  0  0  0  0  0  0  0  0
   -2.7851   25.7986  -24.8292 H   0  0  0  0  0  0  0  0  0  0  0  0
    0.8235   26.2560  -27.1567 H   0  0  0  0  0  0  0  0  0  0  0  0
   -0.2346   25.0443  -29.0547 H   0  0  0  0  0  0  0  0  0  0  0  0
   -5.2380   24.4017  -29.1952 H   0  0  0  0  0  0  0  0  0  0  0  0
   -5.3253   26.0607  -29.8887 H   0  0  0  0  0  0  0  0  0  0  0  0
   -6.9653   24.7870  -31.0573 H   0  0  0  0  0  0  0  0  0  0  0  0
   -5.5157   24.9236  -32.1688 H   0  0  0  0  0  0  0  0  0  0  0  0
   -6.3508   22.4926  -30.5369 H   0  0  0  0  0  0  0  0  0  0  0  0
   -6.4178   22.7189  -32.3474 H   0  0  0  0  0  0  0  0  0  0  0  0
   -3.8200   23.0250  -31.0440 H   0  0  0  0  0  0  0  0  0  0  0  0
   -4.2297   21.1119  -29.9091 H   0  0  0  0  0  0  0  0  0  0  0  0
   -5.3235   20.4910  -31.1642 H   0  0  0  0  0  0  0  0  0  0  0  0
   -2.3086   20.4940  -31.0616 H   0  0  0  0  0  0  0  0  0  0  0  0
   -3.3791   19.3177  -31.8273 H   0  0  0  0  0  0  0  0  0  0  0  0
   -2.0273   21.5311  -33.0841 H   0  0  0  0  0  0  0  0  0  0  0  0
   -3.2147   20.4716  -33.8555 H   0  0  0  0  0  0  0  0  0  0  0  0
   -3.5914   23.2063  -33.2981 H   0  0  0  0  0  0  0  0  0  0  0  0
   -4.9151   22.0591  -33.6133 H   0  0  0  0  0  0  0  0  0  0  0  0
  1  2  1  0
  2  3  2  0
  3  4  1  0
  4  5  1  0
  4  6  2  0
  6  7  1  0
  7  8  2  0
  8  9  1  0
  9 10  2  0
  9 11  2  0
  9 12  1  0
 12 13  1  0
 13 14  1  0
 14 15  1  0
 15 16  1  0
 16 17  1  0
 17 18  1  0
 18 19  1  0
 19 20  1  0
  8  2  1  0
 20 16  1  0
  1 21  1  0
  1 22  1  0
  1 23  1  0
  3 24  1  0
  6 25  1  0
  7 26  1  0
 13 27  1  0
 13 28  1  0
 14 29  1  0
 14 30  1  0
 15 31  1  0
 15 32  1  0
 16 33  1  0
 17 34  1  0
 17 35  1  0
 18 36  1  0
 18 37  1  0
 19 38  1  0
 19 39  1  0
 20 40  1  0
 20 41  1  0
M  CHG  2  12  -1  16   1
M  END
>  <UniqueID>  (19) 
18

>  <SMILES>  (19) 
Cc1cc(Br)ccc1S(=O)(=O)[N-]CCC[NH+]1CCCC1

>  <Energy>  (19) 
43.18775809173291

>  <Genealogy>  (19) 
Cc1cc(Br)ccc1S(=O)(=O)[N-]CCC[NH+]1CCCC1 (protonated)
Cc1cc(Br)ccc1S(=O)(=O)[N-]CCC[NH+]1CCCC1 (3D coordinates assigned)
Cc1cc(Br)ccc1S(=O)(=O)[N-]CCC[NH+]1CCCC1 (nonaromatic ring conformer: 43.18775809173291 kcal/mol)

>  <smiles>  (19) 
Cc1cc(Br)ccc1S(=O)(=O)NCCCN1CCCC1

>  <score_type>  (19) 
oracle

>  <origin>  (19) 
adg

>  <m_score__min__energy>  (19) 
-6.8700000000000001

>  <m_primary>  (19) 
energy

$$$$
19:0
     RDKit          3D

 58 62  0  0  0  0  0  0  0  0999 V2000
   -5.1360   20.5640  -32.1020 C   0  0  0  0  0  0  0  0  0  0  0  0
   -6.5290   20.0090  -32.2060 C   0  0  0  0  0  0  0  0  0  0  0  0
   -6.7090   18.6780  -32.6190 C   0  0  0  0  0  0  0  0  0  0  0  0
   -7.9910   18.1360  -32.7240 C   0  0  0  0  0  0  0  0  0  0  0  0
   -9.1090   18.9160  -32.4220 C   0  0  0  0  0  0  0  0  0  0  0  0
   -8.9460   20.2460  -32.0280 C   0  0  0  0  0  0  0  0  0  0  0  0
   -7.6630   20.8080  -31.9250 C   0  0  0  0  0  0  0  0  0  0  0  0
   -7.5280   22.1950  -31.5640 N   0  0  0  0  0  0  0  0  0  0  0  0
   -7.8060   22.6230  -30.1870 C   0  0  0  0  0  0  0  0  0  0  0  0
   -6.7670   23.6600  -29.7280 C   0  0  0  0  0  0  0  0  0  0  0  0
   -5.5080   23.4690  -30.4820 N   0  0  0  0  0  0  0  0  0  0  0  0
   -4.4000   24.2410  -29.8910 C   0  0  0  0  0  0  0  0  0  0  0  0
   -3.5190   23.3430  -29.0720 C   0  0  0  0  0  0  0  0  0  0  0  0
   -3.9010   22.0870  -28.7150 N   0  0  0  0  0  0  0  0  0  0  0  0
   -2.8360   21.6270  -28.0360 C   0  0  0  0  0  0  0  0  0  0  0  0
   -2.6870   20.3770  -27.4420 C   0  0  0  0  0  0  0  0  0  0  0  0
   -1.4780   20.1060  -26.7760 C   0  0  0  0  0  0  0  0  0  0  0  0
   -0.4580   21.0830  -26.7210 C   0  0  0  0  0  0  0  0  0  0  0  0
   -0.6350   22.3370  -27.3360 C   0  0  0  0  0  0  0  0  0  0  0  0
   -1.8490   22.5730  -27.9880 C   0  0  0  0  0  0  0  0  0  0  0  0
   -2.2630   23.6670  -28.6520 N   0  0  0  0  0  0  0  0  0  0  0  0
   -1.5430   24.9310  -28.8490 C   0  0  0  0  0  0  0  0  0  0  0  0
   -1.3770   25.6600  -27.5420 C   0  0  0  0  0  0  0  0  0  0  0  0
   -2.1620   25.3160  -26.4290 C   0  0  0  0  0  0  0  0  0  0  0  0
   -2.0120   26.0010  -25.2210 C   0  0  0  0  0  0  0  0  0  0  0  0
   -1.0820   27.0410  -25.1150 C   0  0  0  0  0  0  0  0  0  0  0  0
   -0.9470   27.7130  -23.9460 F   0  0  0  0  0  0  0  0  0  0  0  0
   -0.3030   27.3940  -26.2180 C   0  0  0  0  0  0  0  0  0  0  0  0
   -0.4460   26.7080  -27.4290 C   0  0  0  0  0  0  0  0  0  0  0  0
   -5.7070   23.8420  -31.9000 C   0  0  0  0  0  0  0  0  0  0  0  0
   -6.9490   23.1570  -32.5070 C   0  0  0  0  0  0  0  0  0  0  0  0
   -4.8629   20.6728  -31.0420 H   0  0  0  0  0  0  0  0  0  0  0  0
   -4.4304   19.8783  -32.5939 H   0  0  0  0  0  0  0  0  0  0  0  0
   -5.0953   21.5470  -32.5939 H   0  0  0  0  0  0  0  0  0  0  0  0
   -5.8330   18.0585  -32.8614 H   0  0  0  0  0  0  0  0  0  0  0  0
   -8.1208   17.0920  -33.0454 H   0  0  0  0  0  0  0  0  0  0  0  0
  -10.1177   18.4832  -32.4944 H   0  0  0  0  0  0  0  0  0  0  0  0
   -9.8299   20.8585  -31.7964 H   0  0  0  0  0  0  0  0  0  0  0  0
   -8.8096   23.0711  -30.1423 H   0  0  0  0  0  0  0  0  0  0  0  0
   -7.7533   21.7472  -29.5235 H   0  0  0  0  0  0  0  0  0  0  0  0
   -7.1543   24.6728  -29.9129 H   0  0  0  0  0  0  0  0  0  0  0  0
   -6.5722   23.5307  -28.6531 H   0  0  0  0  0  0  0  0  0  0  0  0
   -3.8052   24.6969  -30.6962 H   0  0  0  0  0  0  0  0  0  0  0  0
   -4.8163   25.0244  -29.2406 H   0  0  0  0  0  0  0  0  0  0  0  0
   -3.4887   19.6255  -27.4918 H   0  0  0  0  0  0  0  0  0  0  0  0
   -1.3255   19.1284  -26.2953 H   0  0  0  0  0  0  0  0  0  0  0  0
    0.4816   20.8618  -26.1935 H   0  0  0  0  0  0  0  0  0  0  0  0
    0.1534   23.1034  -27.3047 H   0  0  0  0  0  0  0  0  0  0  0  0
   -0.5502   24.7185  -29.2723 H   0  0  0  0  0  0  0  0  0  0  0  0
   -2.1237   25.5648  -29.5354 H   0  0  0  0  0  0  0  0  0  0  0  0
   -2.8986   24.5030  -26.5092 H   0  0  0  0  0  0  0  0  0  0  0  0
   -2.6259   25.7224  -24.3518 H   0  0  0  0  0  0  0  0  0  0  0  0
    0.4255   28.2140  -26.1350 H   0  0  0  0  0  0  0  0  0  0  0  0
    0.1714   26.9891  -28.2949 H   0  0  0  0  0  0  0  0  0  0  0  0
   -5.8346   24.9326  -31.9662 H   0  0  0  0  0  0  0  0  0  0  0  0
   -4.8243   23.5105  -32.4665 H   0  0  0  0  0  0  0  0  0  0  0  0
   -7.7011   23.9227  -32.7480 H   0  0  0  0  0  0  0  0  0  0  0  0
   -6.6446   22.6185  -33.4166 H   0  0  0  0  0  0  0  0  0  0  0  0
  1  2  1  0
  2  3  2  0
  3  4  1  0
  4  5  2  0
  5  6  1  0
  6  7  2  0
  7  8  1  0
  8  9  1  0
  9 10  1  0
 10 11  1  0
 11 12  1  0
 12 13  1  0
 13 14  2  0
 14 15  1  0
 15 16  2  0
 16 17  1  0
 17 18  2  0
 18 19  1  0
 19 20  2  0
 20 21  1  0
 21 22  1  0
 22 23  1  0
 23 24  2  0
 24 25  1  0
 25 26  2  0
 26 27  1  0
 26 28  1  0
 28 29  2  0
 11 30  1  0
 30 31  1  0
  7  2  1  0
 31  8  1  0
 21 13  1  0
 29 23  1  0
 20 15  1  0
  1 32  1  0
  1 33  1  0
  1 34  1  0
  3 35  1  0
  4 36  1  0
  5 37  1  0
  6 38  1  0
  9 39  1  0
  9 40  1  0
 10 41  1  0
 10 42  1  0
 12 43  1  0
 12 44  1  0
 16 45  1  0
 17 46  1  0
 18 47  1  0
 19 48  1  0
 22 49  1  0
 22 50  1  0
 24 51  1  0
 25 52  1  0
 28 53  1  0
 29 54  1  0
 30 55  1  0
 30 56  1  0
 31 57  1  0
 31 58  1  0
M  END
>  <UniqueID>  (20) 
19

>  <SMILES>  (20) 
Cc1ccccc1N1CCN(Cc2nc3ccccc3n2Cc2ccc(F)cc2)CC1

>  <Energy>  (20) 
109.08401933359268

>  <Genealogy>  (20) 
Cc1ccccc1N1CCN(Cc2nc3ccccc3n2Cc2ccc(F)cc2)CC1 (3D coordinates assigned)
Cc1ccccc1N1CCN(Cc2nc3ccccc3n2Cc2ccc(F)cc2)CC1 (nonaromatic ring conformer: 109.08401933359268 kcal/mol)

>  <smiles>  (20) 
Cc1ccccc1N1CCN(Cc2nc3ccccc3n2Cc2ccc(F)cc2)CC1

>  <score_type>  (20) 
oracle

>  <origin>  (20) 
adg

>  <m_score__min__energy>  (20) 
-8.9700000000000006

>  <m_primary>  (20) 
energy

$$$$
20:0
     RDKit          3D

 62 65  0  0  0  0  0  0  0  0999 V2000
    0.9970   18.7730  -31.2640 C   0  0  0  0  0  0  0  0  0  0  0  0
   -0.3250   19.1900  -31.7760 N   0  0  0  0  0  0  0  0  0  0  0  0
   -0.5110   18.7430  -33.1760 C   0  0  0  0  0  0  0  0  0  0  0  0
   -1.7480   17.8450  -33.3290 C   0  0  0  0  0  0  0  0  0  0  0  0
   -2.6750   18.4210  -34.2470 O   0  0  0  0  0  0  0  0  0  0  0  0
   -3.8260   17.7640  -34.6990 C   0  0  0  0  0  0  0  0  0  0  0  0
   -3.7600   16.9750  -35.6820 O   0  0  0  0  0  0  0  0  0  0  0  0
   -5.1190   17.9920  -34.0180 C   0  0  0  0  0  0  0  0  0  0  0  0
   -5.9440   16.8940  -33.6700 C   0  0  0  0  0  0  0  0  0  0  0  0
   -7.1740   17.0960  -33.0230 C   0  0  0  0  0  0  0  0  0  0  0  0
   -7.5670   18.3990  -32.7240 C   0  0  0  0  0  0  0  0  0  0  0  0
   -6.7650   19.4720  -33.0570 C   0  0  0  0  0  0  0  0  0  0  0  0
   -5.5410   19.3030  -33.7030 C   0  0  0  0  0  0  0  0  0  0  0  0
   -7.4250   20.6830  -32.6190 C   0  0  0  0  0  0  0  0  0  0  0  0
   -7.0190   22.0140  -32.7180 C   0  0  0  0  0  0  0  0  0  0  0  0
   -7.8650   23.0060  -32.1960 C   0  0  0  0  0  0  0  0  0  0  0  0
   -9.0870   22.6530  -31.5920 C   0  0  0  0  0  0  0  0  0  0  0  0
   -9.4750   21.3050  -31.5030 C   0  0  0  0  0  0  0  0  0  0  0  0
   -8.6230   20.3300  -32.0260 C   0  0  0  0  0  0  0  0  0  0  0  0
   -8.8280   18.8420  -32.0370 C   0  0  0  0  0  0  0  0  0  0  0  0
   -0.4730   20.6620  -31.6740 C   0  0  0  0  0  0  0  0  0  0  0  0
   -1.3680   21.1820  -32.8210 C   0  0  0  0  0  0  0  0  0  0  0  0
   -2.8190   20.8890  -32.6640 N   0  0  2  0  0  0  0  0  0  0  0  0
   -3.6620   21.8760  -33.3640 C   0  0  0  0  0  0  0  0  0  0  0  0
   -3.2600   20.7420  -31.2560 C   0  0  0  0  0  0  0  0  0  0  0  0
   -3.6790   22.0580  -30.6430 C   0  0  0  0  0  0  0  0  0  0  0  0
   -2.7190   23.0310  -30.3120 C   0  0  0  0  0  0  0  0  0  0  0  0
   -3.1120   24.2360  -29.7210 C   0  0  0  0  0  0  0  0  0  0  0  0
   -4.4640   24.4800  -29.4600 C   0  0  0  0  0  0  0  0  0  0  0  0
   -5.4240   23.5190  -29.7850 C   0  0  0  0  0  0  0  0  0  0  0  0
   -5.0340   22.3110  -30.3730 C   0  0  0  0  0  0  0  0  0  0  0  0
    0.9823   18.7776  -30.1641 H   0  0  0  0  0  0  0  0  0  0  0  0
    1.2262   17.7589  -31.6234 H   0  0  0  0  0  0  0  0  0  0  0  0
    1.7665   19.4720  -31.6234 H   0  0  0  0  0  0  0  0  0  0  0  0
   -0.6313   19.6273  -33.8190 H   0  0  0  0  0  0  0  0  0  0  0  0
    0.3738   18.1586  -33.4686 H   0  0  0  0  0  0  0  0  0  0  0  0
   -1.4350   16.8587  -33.7021 H   0  0  0  0  0  0  0  0  0  0  0  0
   -2.2362   17.7431  -32.3485 H   0  0  0  0  0  0  0  0  0  0  0  0
   -5.6173   15.8713  -33.9094 H   0  0  0  0  0  0  0  0  0  0  0  0
   -7.8147   16.2422  -32.7574 H   0  0  0  0  0  0  0  0  0  0  0  0
   -4.9175   20.1715  -33.9618 H   0  0  0  0  0  0  0  0  0  0  0  0
   -6.0624   22.2792  -33.1919 H   0  0  0  0  0  0  0  0  0  0  0  0
   -7.5715   24.0642  -32.2593 H   0  0  0  0  0  0  0  0  0  0  0  0
   -9.7427   23.4378  -31.1869 H   0  0  0  0  0  0  0  0  0  0  0  0
  -10.4285   21.0243  -31.0319 H   0  0  0  0  0  0  0  0  0  0  0  0
   -8.9005   18.4342  -31.0180 H   0  0  0  0  0  0  0  0  0  0  0  0
   -9.7570   18.5100  -32.5236 H   0  0  0  0  0  0  0  0  0  0  0  0
   -0.9339   20.9160  -30.7081 H   0  0  0  0  0  0  0  0  0  0  0  0
    0.5191   21.1314  -31.7479 H   0  0  0  0  0  0  0  0  0  0  0  0
   -1.2443   22.2732  -32.8835 H   0  0  0  0  0  0  0  0  0  0  0  0
   -1.0428   20.6549  -33.7301 H   0  0  0  0  0  0  0  0  0  0  0  0
   -2.9900   19.9710  -33.1430 H   0  0  0  0  0  0  0  0  0  0  0  0
   -4.1913   22.4957  -32.6252 H   0  0  0  0  0  0  0  0  0  0  0  0
   -3.0288   22.5176  -33.9944 H   0  0  0  0  0  0  0  0  0  0  0  0
   -4.3947   21.3509  -33.9944 H   0  0  0  0  0  0  0  0  0  0  0  0
   -4.1141   20.0495  -31.2238 H   0  0  0  0  0  0  0  0  0  0  0  0
   -2.4077   20.3582  -30.6760 H   0  0  0  0  0  0  0  0  0  0  0  0
   -1.6550   22.8435  -30.5187 H   0  0  0  0  0  0  0  0  0  0  0  0
   -2.3569   24.9926  -29.4612 H   0  0  0  0  0  0  0  0  0  0  0  0
   -4.7717   25.4298  -28.9983 H   0  0  0  0  0  0  0  0  0  0  0  0
   -6.4871   23.7120  -29.5786 H   0  0  0  0  0  0  0  0  0  0  0  0
   -5.7925   21.5553  -30.6252 H   0  0  0  0  0  0  0  0  0  0  0  0
  1  2  1  0
  2  3  1  0
  3  4  1  0
  4  5  1  0
  5  6  1  0
  6  7  2  0
  6  8  1  0
  8  9  2  0
  9 10  1  0
 10 11  2  0
 11 12  1  0
 12 13  2  0
 12 14  1  0
 14 15  2  0
 15 16  1  0
 16 17  2  0
 17 18  1  0
 18 19  2  0
 19 20  1  0
  2 21  1  0
 21 22  1  0
 22 23  1  0
 23 24  1  0
 23 25  1  0
 25 26  1  0
 26 27  2  0
 27 28  1  0
 28 29  2  0
 29 30  1  0
 30 31  2  0
 13  8  1  0
 19 14  1  0
 31 26  1  0
 20 11  1  0
  1 32  1  0
  1 33  1  0
  1 34  1  0
  3 35  1  0
  3 36  1  0
  4 37  1  0
  4 38  1  0
  9 39  1  0
 10 40  1  0
 13 41  1  0
 15 42  1  0
 16 43  1  0
 17 44  1  0
 18 45  1  0
 20 46  1  0
 20 47  1  0
 21 48  1  0
 21 49  1  0
 22 50  1  0
 22 51  1  0
 23 52  1  6
 24 53  1  0
 24 54  1  0
 24 55  1  0
 25 56  1  0
 25 57  1  0
 27 58  1  0
 28 59  1  0
 29 60  1  0
 30 61  1  0
 31 62  1  0
M  CHG  1  23   1
M  END
>  <UniqueID>  (21) 
20

>  <SMILES>  (21) 
CN(CCOC(=O)c1ccc2c(c1)-c1ccccc1C2)CC[N@H+](C)Cc1ccccc1

>  <Energy>  (21) 
91.00585880248063

>  <Genealogy>  (21) 
CN(CCOC(=O)c1ccc2c(c1)-c1ccccc1C2)CC[NH+](C)Cc1ccccc1 (protonated)
CN(CCOC(=O)c1ccc2c(c1)-c1ccccc1C2)CC[N@H+](C)Cc1ccccc1 (chirality)
CN(CCOC(=O)c1ccc2c(c1)-c1ccccc1C2)CC[N@H+](C)Cc1ccccc1 (3D coordinates assigned)
CN(CCOC(=O)c1ccc2c(c1)-c1ccccc1C2)CC[N@H+](C)Cc1ccccc1 (nonaromatic ring conformer: 91.00585880248063 kcal/mol)

>  <smiles>  (21) 
CN(CCOC(=O)c1ccc2c(c1)-c1ccccc1C2)CCN(C)Cc1ccccc1

>  <score_type>  (21) 
oracle

>  <origin>  (21) 
adg

>  <m_score__min__energy>  (21) 
-9.9199999999999999

>  <m_primary>  (21) 
energy

$$$$
21:0
     RDKit          3D

 44 46  0  0  0  0  0  0  0  0999 V2000
   -9.5400   21.3850  -31.7290 C   0  0  0  0  0  0  0  0  0  0  0  0
   -8.1160   21.0400  -32.0280 C   0  0  0  0  0  0  0  0  0  0  0  0
   -7.8080   20.0440  -32.9580 C   0  0  0  0  0  0  0  0  0  0  0  0
   -6.4640   19.7420  -33.1910 C   0  0  0  0  0  0  0  0  0  0  0  0
   -6.0850   18.6870  -34.1810 C   0  0  0  0  0  0  0  0  0  0  0  0
   -5.4960   20.4140  -32.5120 N   0  0  0  0  0  0  0  0  0  0  0  0
   -5.8040   21.3790  -31.6020 C   0  0  0  0  0  0  0  0  0  0  0  0
   -4.7560   22.0730  -30.8890 N   0  0  0  0  0  0  0  0  0  0  0  0
   -3.3900   21.5230  -30.8570 C   0  0  0  0  0  0  0  0  0  0  0  0
   -2.3600   22.6520  -30.8780 C   0  0  0  0  0  0  0  0  0  0  0  0
   -2.6980   23.6580  -29.8650 N   0  0  0  0  0  0  0  0  0  0  0  0
   -1.6660   24.3240  -29.1150 C   0  0  0  0  0  0  0  0  0  0  0  0
   -1.7130   25.5750  -28.9610 O   0  0  0  0  0  0  0  0  0  0  0  0
   -0.5160   23.5510  -28.5270 C   0  0  0  0  0  0  0  0  0  0  0  0
   -0.9280   22.1480  -28.1840 C   0  0  0  0  0  0  0  0  0  0  0  0
   -2.0830   21.9090  -27.4230 C   0  0  0  0  0  0  0  0  0  0  0  0
   -2.4260   20.5970  -27.0950 C   0  0  0  0  0  0  0  0  0  0  0  0
   -1.6180   19.5400  -27.5180 C   0  0  0  0  0  0  0  0  0  0  0  0
   -0.4700   19.8150  -28.2650 C   0  0  0  0  0  0  0  0  0  0  0  0
   -0.1510   21.1000  -28.5760 N   0  0  0  0  0  0  0  0  0  0  0  0
   -4.0460   24.2290  -29.9130 C   0  0  0  0  0  0  0  0  0  0  0  0
   -5.0920   23.1120  -29.9010 C   0  0  0  0  0  0  0  0  0  0  0  0
   -7.1120   21.6770  -31.3690 N   0  0  0  0  0  0  0  0  0  0  0  0
   -9.6876   21.4208  -30.6395 H   0  0  0  0  0  0  0  0  0  0  0  0
   -9.7784   22.3669  -32.1638 H   0  0  0  0  0  0  0  0  0  0  0  0
  -10.2014   20.6211  -32.1638 H   0  0  0  0  0  0  0  0  0  0  0  0
   -8.6057   19.5096  -33.4947 H   0  0  0  0  0  0  0  0  0  0  0  0
   -5.7600   17.7823  -33.6464 H   0  0  0  0  0  0  0  0  0  0  0  0
   -6.9534   18.4477  -34.8124 H   0  0  0  0  0  0  0  0  0  0  0  0
   -5.2629   19.0550  -34.8124 H   0  0  0  0  0  0  0  0  0  0  0  0
   -3.2594   20.9303  -29.9396 H   0  0  0  0  0  0  0  0  0  0  0  0
   -3.2406   20.8874  -31.7423 H   0  0  0  0  0  0  0  0  0  0  0  0
   -1.3630   22.2397  -30.6635 H   0  0  0  0  0  0  0  0  0  0  0  0
   -2.3623   23.1246  -31.8713 H   0  0  0  0  0  0  0  0  0  0  0  0
    0.3049   23.5159  -29.2584 H   0  0  0  0  0  0  0  0  0  0  0  0
   -0.1905   24.0553  -27.6052 H   0  0  0  0  0  0  0  0  0  0  0  0
   -2.7114   22.7477  -27.0886 H   0  0  0  0  0  0  0  0  0  0  0  0
   -3.3317   20.3957  -26.5040 H   0  0  0  0  0  0  0  0  0  0  0  0
   -1.8823   18.5024  -27.2660 H   0  0  0  0  0  0  0  0  0  0  0  0
    0.1766   18.9914  -28.6020 H   0  0  0  0  0  0  0  0  0  0  0  0
   -4.1973   24.8783  -29.0380 H   0  0  0  0  0  0  0  0  0  0  0  0
   -4.1558   24.8146  -30.8377 H   0  0  0  0  0  0  0  0  0  0  0  0
   -5.1257   22.6598  -28.8988 H   0  0  0  0  0  0  0  0  0  0  0  0
   -6.0711   23.5418  -30.1592 H   0  0  0  0  0  0  0  0  0  0  0  0
  1  2  1  0
  2  3  2  0
  3  4  1  0
  4  5  1  0
  4  6  2  0
  6  7  1  0
  7  8  1  0
  8  9  1  0
  9 10  1  0
 10 11  1  0
 11 12  1  0
 12 13  2  0
 12 14  1  0
 14 15  1  0
 15 16  2  0
 16 17  1  0
 17 18  2  0
 18 19  1  0
 19 20  2  0
 11 21  1  0
 21 22  1  0
  7 23  2  0
 23  2  1  0
 22  8  1  0
 20 15  1  0
  1 24  1  0
  1 25  1  0
  1 26  1  0
  3 27  1  0
  5 28  1  0
  5 29  1  0
  5 30  1  0
  9 31  1  0
  9 32  1  0
 10 33  1  0
 10 34  1  0
 14 35  1  0
 14 36  1  0
 16 37  1  0
 17 38  1  0
 18 39  1  0
 19 40  1  0
 21 41  1  0
 21 42  1  0
 22 43  1  0
 22 44  1  0
M  END
>  <UniqueID>  (22) 
21

>  <SMILES>  (22) 
Cc1cc(C)nc(N2CCN(C(=O)Cc3ccccn3)CC2)n1

>  <Energy>  (22) 
45.39811401001998

>  <Genealogy>  (22) 
Cc1cc(C)nc(N2CCN(C(=O)Cc3ccccn3)CC2)n1 (3D coordinates assigned)
Cc1cc(C)nc(N2CCN(C(=O)Cc3ccccn3)CC2)n1 (nonaromatic ring conformer: 45.39811401001998 kcal/mol)

>  <smiles>  (22) 
Cc1cc(C)nc(N2CCN(C(=O)Cc3ccccn3)CC2)n1

>  <score_type>  (22) 
oracle

>  <origin>  (22) 
adg

>  <m_score__min__energy>  (22) 
-7.1900000000000004

>  <m_primary>  (22) 
energy

$$$$
22:0
     RDKit          3D

 54 56  0  0  0  0  0  0  0  0999 V2000
   -0.3810   30.3750  -27.7740 C   0  0  0  0  0  0  0  0  0  0  0  0
    0.6960   29.9270  -26.7880 C   0  0  0  0  0  0  0  0  0  0  0  0
    0.0980   29.4650  -25.5260 N   0  0  0  0  0  0  0  0  0  0  0  0
   -0.3600   30.4620  -24.5440 C   0  0  0  0  0  0  0  0  0  0  0  0
   -1.7850   30.9160  -24.8550 C   0  0  0  0  0  0  0  0  0  0  0  0
   -0.0390   28.0490  -25.2590 C   0  0  0  0  0  0  0  0  0  0  0  0
    0.2160   27.5270  -23.9820 C   0  0  0  0  0  0  0  0  0  0  0  0
    0.0790   26.1960  -23.7410 N   0  0  0  0  0  0  0  0  0  0  0  0
   -0.3060   25.3290  -24.7150 C   0  0  0  0  0  0  0  0  0  0  0  0
   -0.5760   25.7910  -26.0120 C   0  0  0  0  0  0  0  0  0  0  0  0
   -1.0090   24.8540  -27.0810 C   0  0  0  0  0  0  0  0  0  0  0  0
   -0.1190   23.8900  -27.5890 C   0  0  0  0  0  0  0  0  0  0  0  0
   -0.5250   23.0120  -28.5970 C   0  0  0  0  0  0  0  0  0  0  0  0
   -1.8160   23.0900  -29.1180 C   0  0  0  0  0  0  0  0  0  0  0  0
   -2.7150   24.0550  -28.6390 C   0  0  0  0  0  0  0  0  0  0  0  0
   -4.0860   24.1770  -29.2520 C   0  0  0  0  0  0  0  0  0  0  0  0
   -4.0460   25.0050  -30.4690 N   0  0  0  0  0  0  0  0  0  0  0  0
   -5.3620   25.1210  -31.1200 C   0  0  0  0  0  0  0  0  0  0  0  0
   -5.9200   23.7640  -31.4650 C   0  0  0  0  0  0  0  0  0  0  0  0
   -5.0910   22.7860  -32.0410 C   0  0  0  0  0  0  0  0  0  0  0  0
   -5.6160   21.5410  -32.4010 C   0  0  0  0  0  0  0  0  0  0  0  0
   -6.9670   21.2580  -32.1760 C   0  0  0  0  0  0  0  0  0  0  0  0
   -7.7920   22.2170  -31.5830 C   0  0  0  0  0  0  0  0  0  0  0  0
   -7.2720   23.4640  -31.2240 C   0  0  0  0  0  0  0  0  0  0  0  0
   -2.3120   24.9220  -27.6100 C   0  0  0  0  0  0  0  0  0  0  0  0
   -0.4340   27.1630  -26.2740 C   0  0  0  0  0  0  0  0  0  0  0  0
   -1.2577   30.7397  -27.2187 H   0  0  0  0  0  0  0  0  0  0  0  0
    0.0145   31.1832  -28.4067 H   0  0  0  0  0  0  0  0  0  0  0  0
   -0.6754   29.5247  -28.4067 H   0  0  0  0  0  0  0  0  0  0  0  0
    1.2726   29.1038  -27.2351 H   0  0  0  0  0  0  0  0  0  0  0  0
    1.3507   30.7841  -26.5718 H   0  0  0  0  0  0  0  0  0  0  0  0
   -0.3351   30.0158  -23.5389 H   0  0  0  0  0  0  0  0  0  0  0  0
    0.3065   31.3358  -24.5921 H   0  0  0  0  0  0  0  0  0  0  0  0
   -2.3282   31.0891  -23.9143 H   0  0  0  0  0  0  0  0  0  0  0  0
   -1.7538   31.8487  -25.4373 H   0  0  0  0  0  0  0  0  0  0  0  0
   -2.2991   30.1372  -25.4373 H   0  0  0  0  0  0  0  0  0  0  0  0
    0.5291   28.1995  -23.1698 H   0  0  0  0  0  0  0  0  0  0  0  0
    0.2740   25.8290  -22.7830 H   0  0  0  0  0  0  0  0  0  0  0  0
   -0.4065   24.2581  -24.4846 H   0  0  0  0  0  0  0  0  0  0  0  0
    0.9040   23.8272  -27.1896 H   0  0  0  0  0  0  0  0  0  0  0  0
    0.1763   22.2565  -28.9810 H   0  0  0  0  0  0  0  0  0  0  0  0
   -2.1310   22.3921  -29.9078 H   0  0  0  0  0  0  0  0  0  0  0  0
   -4.4552   23.1737  -29.5111 H   0  0  0  0  0  0  0  0  0  0  0  0
   -4.7555   24.6565  -28.5227 H   0  0  0  0  0  0  0  0  0  0  0  0
   -3.4080   24.5260  -31.1470 H   0  0  0  0  0  0  0  0  0  0  0  0
   -6.0567   25.6317  -30.4369 H   0  0  0  0  0  0  0  0  0  0  0  0
   -5.2414   25.6952  -32.0504 H   0  0  0  0  0  0  0  0  0  0  0  0
   -4.0254   23.0008  -32.2092 H   0  0  0  0  0  0  0  0  0  0  0  0
   -4.9655   20.7831  -32.8618 H   0  0  0  0  0  0  0  0  0  0  0  0
   -7.3800   20.2805  -32.4659 H   0  0  0  0  0  0  0  0  0  0  0  0
   -8.8525   21.9905  -31.3983 H   0  0  0  0  0  0  0  0  0  0  0  0
   -7.9235   24.2135  -30.7510 H   0  0  0  0  0  0  0  0  0  0  0  0
   -3.0222   25.6623  -27.2131 H   0  0  0  0  0  0  0  0  0  0  0  0
   -0.6343   27.5477  -27.2849 H   0  0  0  0  0  0  0  0  0  0  0  0
  1  2  1  0
  2  3  1  0
  3  4  1  0
  4  5  1  0
  3  6  1  0
  6  7  2  0
  7  8  1  0
  8  9  2  0
  9 10  1  0
 10 11  1  0
 11 12  2  0
 12 13  1  0
 13 14  2  0
 14 15  1  0
 15 16  1  0
 16 17  1  0
 17 18  1  0
 18 19  1  0
 19 20  2  0
 20 21  1  0
 21 22  2  0
 22 23  1  0
 23 24  2  0
 15 25  2  0
 10 26  2  0
 26  6  1  0
 25 11  1  0
 24 19  1  0
  1 27  1  0
  1 28  1  0
  1 29  1  0
  2 30  1  0
  2 31  1  0
  4 32  1  0
  4 33  1  0
  5 34  1  0
  5 35  1  0
  5 36  1  0
  7 37  1  0
  8 38  1  0
  9 39  1  0
 12 40  1  0
 13 41  1  0
 14 42  1  0
 16 43  1  0
 16 44  1  0
 17 45  1  0
 18 46  1  0
 18 47  1  0
 20 48  1  0
 21 49  1  0
 22 50  1  0
 23 51  1  0
 24 52  1  0
 25 53  1  0
 26 54  1  0
M  CHG  1   8   1
M  END
>  <UniqueID>  (23) 
22

>  <SMILES>  (23) 
CCN(CC)c1c[nH+]cc(-c2cccc(CNCc3ccccc3)c2)c1

>  <Energy>  (23) 
53.93890713570706

>  <Genealogy>  (23) 
CCN(CC)c1c[nH+]cc(-c2cccc(CNCc3ccccc3)c2)c1 (protonated)
CCN(CC)c1c[nH+]cc(-c2cccc(CNCc3ccccc3)c2)c1 (3D coordinates assigned)
CCN(CC)c1c[nH+]cc(-c2cccc(CNCc3ccccc3)c2)c1 (optimized conformer: 53.93890713570706 kcal/mol)

>  <smiles>  (23) 
CCN(CC)c1cncc(-c2cccc(CNCc3ccccc3)c2)c1

>  <score_type>  (23) 
oracle

>  <origin>  (23) 
adg

>  <m_score__min__energy>  (23) 
-8.2300000000000004

>  <m_primary>  (23) 
energy

$$$$
23:0
     RDKit          3D

 44 47  0  0  0  0  0  0  0  0999 V2000
   -9.4590   18.1870  -31.8990 C   0  0  0  0  0  0  0  0  0  0  0  0
   -8.6980   19.4750  -32.0060 C   0  0  0  0  0  0  0  0  0  0  0  0
   -7.5130   19.5350  -32.7550 C   0  0  0  0  0  0  0  0  0  0  0  0
   -6.7830   20.7270  -32.8260 C   0  0  0  0  0  0  0  0  0  0  0  0
   -7.2200   21.8670  -32.1350 C   0  0  0  0  0  0  0  0  0  0  0  0
   -6.4500   23.1570  -32.2420 C   0  0  0  0  0  0  0  0  0  0  0  0
   -5.1730   23.0510  -31.5150 N   0  0  0  0  0  0  0  0  0  0  0  0
   -4.1300   22.3980  -32.1130 C   0  0  0  0  0  0  0  0  0  0  0  0
   -2.8970   22.2970  -31.4780 C   0  0  0  0  0  0  0  0  0  0  0  0
   -2.7190   22.8730  -30.2250 C   0  0  0  0  0  0  0  0  0  0  0  0
   -3.7750   23.5570  -29.6040 C   0  0  0  0  0  0  0  0  0  0  0  0
   -3.5890   24.1770  -28.2650 C   0  0  0  0  0  0  0  0  0  0  0  0
   -4.5750   24.5620  -27.4310 N   0  0  0  0  0  0  0  0  0  0  0  0
   -4.0110   25.0610  -26.3440 N   0  0  0  0  0  0  0  0  0  0  0  0
   -2.6820   24.9650  -26.5500 C   0  0  0  0  0  0  0  0  0  0  0  0
   -1.6540   25.4070  -25.5890 C   0  0  0  0  0  0  0  0  0  0  0  0
   -0.4970   24.6380  -25.3720 C   0  0  0  0  0  0  0  0  0  0  0  0
    0.4720   25.0650  -24.4580 C   0  0  0  0  0  0  0  0  0  0  0  0
    0.2970   26.2600  -23.7560 C   0  0  0  0  0  0  0  0  0  0  0  0
   -0.8490   27.0300  -23.9660 C   0  0  0  0  0  0  0  0  0  0  0  0
   -1.8220   26.6080  -24.8780 C   0  0  0  0  0  0  0  0  0  0  0  0
   -2.4200   24.4250  -27.7200 O   0  0  0  0  0  0  0  0  0  0  0  0
   -5.0140   23.6340  -30.2800 C   0  0  0  0  0  0  0  0  0  0  0  0
   -5.9800   24.2500  -29.7480 O   0  0  0  0  0  0  0  0  0  0  0  0
   -8.3990   21.8030  -31.3770 C   0  0  0  0  0  0  0  0  0  0  0  0
   -9.1290   20.6110  -31.3060 C   0  0  0  0  0  0  0  0  0  0  0  0
   -9.6074   17.9358  -30.8384 H   0  0  0  0  0  0  0  0  0  0  0  0
  -10.4371   18.2971  -32.3901 H   0  0  0  0  0  0  0  0  0  0  0  0
   -8.8906   17.3834  -32.3901 H   0  0  0  0  0  0  0  0  0  0  0  0
   -7.1563   18.6416  -33.2885 H   0  0  0  0  0  0  0  0  0  0  0  0
   -5.8623   20.7702  -33.4264 H   0  0  0  0  0  0  0  0  0  0  0  0
   -6.2477   23.3722  -33.3016 H   0  0  0  0  0  0  0  0  0  0  0  0
   -7.0473   23.9684  -31.8005 H   0  0  0  0  0  0  0  0  0  0  0  0
   -4.2683   21.9479  -33.1071 H   0  0  0  0  0  0  0  0  0  0  0  0
   -2.0667   21.7641  -31.9645 H   0  0  0  0  0  0  0  0  0  0  0  0
   -1.7460   22.7921  -29.7184 H   0  0  0  0  0  0  0  0  0  0  0  0
   -5.6060   24.4850  -27.5690 H   0  0  0  0  0  0  0  0  0  0  0  0
   -0.3533   23.6969  -25.9231 H   0  0  0  0  0  0  0  0  0  0  0  0
    1.3742   24.4582  -24.2916 H   0  0  0  0  0  0  0  0  0  0  0  0
    1.0610   26.5941  -23.0386 H   0  0  0  0  0  0  0  0  0  0  0  0
   -0.9868   27.9707  -23.4128 H   0  0  0  0  0  0  0  0  0  0  0  0
   -2.7226   27.2186  -25.0396 H   0  0  0  0  0  0  0  0  0  0  0  0
   -8.7512   22.6937  -30.8361 H   0  0  0  0  0  0  0  0  0  0  0  0
  -10.0448   20.5651  -30.6984 H   0  0  0  0  0  0  0  0  0  0  0  0
  1  2  1  0
  2  3  2  0
  3  4  1  0
  4  5  2  0
  5  6  1  0
  6  7  1  0
  7  8  1  0
  8  9  2  0
  9 10  1  0
 10 11  2  0
 11 12  1  0
 12 13  2  0
 13 14  1  0
 14 15  2  0
 15 16  1  0
 16 17  2  0
 17 18  1  0
 18 19  2  0
 19 20  1  0
 20 21  2  0
 15 22  1  0
 11 23  1  0
 23 24  2  0
  5 25  1  0
 25 26  2  0
 26  2  1  0
 23  7  1  0
 22 12  1  0
 21 16  1  0
  1 27  1  0
  1 28  1  0
  1 29  1  0
  3 30  1  0
  4 31  1  0
  6 32  1  0
  6 33  1  0
  8 34  1  0
  9 35  1  0
 10 36  1  0
 13 37  1  0
 17 38  1  0
 18 39  1  0
 19 40  1  0
 20 41  1  0
 21 42  1  0
 25 43  1  0
 26 44  1  0
M  CHG  1  13   1
M  END
>  <UniqueID>  (24) 
23

>  <SMILES>  (24) 
Cc1ccc(Cn2cccc(-c3[nH+]nc(-c4ccccc4)o3)c2=O)cc1

>  <Energy>  (24) 
87.41506597218883

>  <Genealogy>  (24) 
Cc1ccc(Cn2cccc(-c3[nH+]nc(-c4ccccc4)o3)c2=O)cc1 (protonated)
Cc1ccc(Cn2cccc(-c3[nH+]nc(-c4ccccc4)o3)c2=O)cc1 (3D coordinates assigned)
Cc1ccc(Cn2cccc(-c3[nH+]nc(-c4ccccc4)o3)c2=O)cc1 (optimized conformer: 87.41506597218883 kcal/mol)

>  <smiles>  (24) 
Cc1ccc(Cn2cccc(-c3nnc(-c4ccccc4)o3)c2=O)cc1

>  <score_type>  (24) 
oracle

>  <origin>  (24) 
adg

>  <m_score__min__energy>  (24) 
-8.5600000000000005

>  <m_primary>  (24) 
energy

$$$$
24:0
     RDKit          3D

 36 38  0  0  0  0  0  0  0  0999 V2000
   -0.3340   20.5440  -33.4970 C   0  0  0  0  0  0  0  0  0  0  0  0
   -1.7450   20.8560  -33.0910 C   0  0  0  0  0  0  0  0  0  0  0  0
   -2.8180   20.3210  -33.8110 C   0  0  0  0  0  0  0  0  0  0  0  0
   -4.1290   20.6420  -33.4600 C   0  0  0  0  0  0  0  0  0  0  0  0
   -4.3960   21.5100  -32.3870 C   0  0  0  0  0  0  0  0  0  0  0  0
   -3.3120   22.0760  -31.6690 C   0  0  0  0  0  0  0  0  0  0  0  0
   -1.9950   21.7430  -32.0380 C   0  0  0  0  0  0  0  0  0  0  0  0
   -3.5310   22.9850  -30.5670 N   0  0  0  0  0  0  0  0  0  0  0  0
   -2.6960   22.8850  -29.3660 C   0  0  0  0  0  0  0  0  0  0  0  0
   -4.4270   24.1040  -30.7090 C   0  0  0  0  0  0  0  0  0  0  0  0
   -3.9720   25.2790  -30.7800 O   0  0  0  0  0  0  0  0  0  0  0  0
   -5.9030   23.8930  -30.7590 C   0  0  0  0  0  0  0  0  0  0  0  0
   -6.2310   23.0330  -31.8890 N   0  0  0  0  0  0  0  0  0  0  0  0
   -5.8170   21.8060  -32.0410 C   0  0  0  0  0  0  0  0  0  0  0  0
   -6.8030   20.7030  -31.8980 C   0  0  0  0  0  0  0  0  0  0  0  0
   -8.1790   20.9860  -31.7900 C   0  0  0  0  0  0  0  0  0  0  0  0
   -9.1060   19.9500  -31.6460 C   0  0  0  0  0  0  0  0  0  0  0  0
   -8.6730   18.6220  -31.6000 C   0  0  0  0  0  0  0  0  0  0  0  0
   -7.3110   18.3290  -31.6940 C   0  0  0  0  0  0  0  0  0  0  0  0
   -6.3790   19.3610  -31.8390 C   0  0  0  0  0  0  0  0  0  0  0  0
    0.2846   20.4072  -32.5977 H   0  0  0  0  0  0  0  0  0  0  0  0
   -0.3202   19.6211  -34.0954 H   0  0  0  0  0  0  0  0  0  0  0  0
    0.0676   21.3750  -34.0954 H   0  0  0  0  0  0  0  0  0  0  0  0
   -2.6272   19.6446  -34.6572 H   0  0  0  0  0  0  0  0  0  0  0  0
   -4.9649   20.2104  -34.0301 H   0  0  0  0  0  0  0  0  0  0  0  0
   -1.1502   22.1865  -31.4907 H   0  0  0  0  0  0  0  0  0  0  0  0
   -3.3307   22.9610  -28.4708 H   0  0  0  0  0  0  0  0  0  0  0  0
   -2.1722   21.9177  -29.3631 H   0  0  0  0  0  0  0  0  0  0  0  0
   -1.9586   23.7013  -29.3631 H   0  0  0  0  0  0  0  0  0  0  0  0
   -6.2374   23.4163  -29.8258 H   0  0  0  0  0  0  0  0  0  0  0  0
   -6.4090   24.8626  -30.8761 H   0  0  0  0  0  0  0  0  0  0  0  0
   -8.5260   22.0294  -31.8192 H   0  0  0  0  0  0  0  0  0  0  0  0
  -10.1788   20.1804  -31.5687 H   0  0  0  0  0  0  0  0  0  0  0  0
   -9.4047   17.8081  -31.4898 H   0  0  0  0  0  0  0  0  0  0  0  0
   -6.9705   17.2838  -31.6539 H   0  0  0  0  0  0  0  0  0  0  0  0
   -5.3072   19.1233  -31.9075 H   0  0  0  0  0  0  0  0  0  0  0  0
  1  2  1  0
  2  3  2  0
  3  4  1  0
  4  5  2  0
  5  6  1  0
  6  7  2  0
  6  8  1  0
  8  9  1  0
  8 10  1  0
 10 11  2  0
 10 12  1  0
 12 13  1  0
 13 14  2  0
 14 15  1  0
 15 16  2  0
 16 17  1  0
 17 18  2  0
 18 19  1  0
 19 20  2  0
  7  2  1  0
 20 15  1  0
 14  5  1  0
  1 21  1  0
  1 22  1  0
  1 23  1  0
  3 24  1  0
  4 25  1  0
  7 26  1  0
  9 27  1  0
  9 28  1  0
  9 29  1  0
 12 30  1  0
 12 31  1  0
 16 32  1  0
 17 33  1  0
 18 34  1  0
 19 35  1  0
 20 36  1  0
M  END
>  <UniqueID>  (25) 
24

>  <SMILES>  (25) 
Cc1ccc2c(c1)N(C)C(=O)CN=C2c1ccccc1

>  <Energy>  (25) 
52.232164850612826

>  <Genealogy>  (25) 
Cc1ccc2c(c1)N(C)C(=O)CN=C2c1ccccc1 (3D coordinates assigned)
Cc1ccc2c(c1)N(C)C(=O)CN=C2c1ccccc1 (nonaromatic ring conformer: 52.232164850612826 kcal/mol)

>  <smiles>  (25) 
Cc1ccc2c(c1)N(C)C(=O)CN=C2c1ccccc1

>  <score_type>  (25) 
oracle

>  <origin>  (25) 
adg

>  <m_score__min__energy>  (25) 
-7.0199999999999996

>  <m_primary>  (25) 
energy

$$$$
25:0
     RDKit          3D

 58 60  0  0  0  0  0  0  0  0999 V2000
   -0.0450   23.0300  -24.5200 C   0  0  0  0  0  0  0  0  0  0  0  0
   -0.3470   22.5030  -25.8840 C   0  0  0  0  0  0  0  0  0  0  0  0
    0.2420   22.9940  -26.8850 O   0  0  0  0  0  0  0  0  0  0  0  0
   -1.3360   21.4790  -26.0540 N   0  0  0  0  0  0  0  0  0  0  0  0
   -1.7330   20.9930  -27.3800 C   0  0  1  0  0  0  0  0  0  0  0  0
   -2.7480   19.8520  -27.2530 C   0  0  0  0  0  0  0  0  0  0  0  0
   -2.3170   22.1210  -28.2030 C   0  0  0  0  0  0  0  0  0  0  0  0
   -2.9920   23.1880  -27.5840 C   0  0  0  0  0  0  0  0  0  0  0  0
   -3.5470   24.2140  -28.3510 C   0  0  0  0  0  0  0  0  0  0  0  0
   -3.4510   24.1920  -29.7470 C   0  0  0  0  0  0  0  0  0  0  0  0
   -4.0300   25.2480  -30.4690 O   0  0  0  0  0  0  0  0  0  0  0  0
   -5.3950   25.3110  -30.8900 C   0  0  2  0  0  0  0  0  0  0  0  0
   -6.3370   25.0770  -29.7070 C   0  0  0  0  0  0  0  0  0  0  0  0
   -6.7010   23.6000  -29.7480 C   0  0  0  0  0  0  0  0  0  0  0  0
   -6.3670   23.1440  -31.0880 N   0  0  0  0  0  0  0  0  0  0  0  0
   -6.7070   21.8340  -31.6040 C   0  0  0  0  0  0  0  0  0  0  0  0
   -7.8270   21.1350  -31.1120 C   0  0  0  0  0  0  0  0  0  0  0  0
   -8.1600   19.8770  -31.6180 C   0  0  0  0  0  0  0  0  0  0  0  0
   -7.3860   19.2810  -32.6170 C   0  0  0  0  0  0  0  0  0  0  0  0
   -7.7720   18.0150  -33.0870 O   0  0  0  0  0  0  0  0  0  0  0  0
   -6.8990   17.0340  -33.6510 C   0  0  0  0  0  0  0  0  0  0  0  0
   -5.6170   16.8780  -32.8190 C   0  0  0  0  0  0  0  0  0  0  0  0
   -4.3480   17.2050  -33.6140 C   0  0  0  0  0  0  0  0  0  0  0  0
   -3.6740   18.2380  -32.9910 F   0  0  0  0  0  0  0  0  0  0  0  0
   -4.6730   17.5980  -34.8990 F   0  0  0  0  0  0  0  0  0  0  0  0
   -3.5150   16.1030  -33.6690 F   0  0  0  0  0  0  0  0  0  0  0  0
   -6.2640   19.9700  -33.1140 C   0  0  0  0  0  0  0  0  0  0  0  0
   -5.9320   21.2310  -32.6120 C   0  0  0  0  0  0  0  0  0  0  0  0
   -5.6790   24.1680  -31.8600 C   0  0  0  0  0  0  0  0  0  0  0  0
   -2.7850   23.1200  -30.3710 C   0  0  0  0  0  0  0  0  0  0  0  0
   -2.2270   22.0930  -29.6040 C   0  0  0  0  0  0  0  0  0  0  0  0
   -0.4419   22.3374  -23.7632 H   0  0  0  0  0  0  0  0  0  0  0  0
    1.0439   23.1239  -24.3960 H   0  0  0  0  0  0  0  0  0  0  0  0
   -0.5146   24.0170  -24.3960 H   0  0  0  0  0  0  0  0  0  0  0  0
   -1.7990   21.0880  -25.2010 H   0  0  0  0  0  0  0  0  0  0  0  0
   -0.8369   20.6104  -27.8905 H   0  0  0  0  0  0  0  0  0  0  0  0
   -2.9337   19.6432  -26.1891 H   0  0  0  0  0  0  0  0  0  0  0  0
   -3.6905   20.1438  -27.7394 H   0  0  0  0  0  0  0  0  0  0  0  0
   -2.3484   18.9499  -27.7394 H   0  0  0  0  0  0  0  0  0  0  0  0
   -3.0833   23.2144  -26.4881 H   0  0  0  0  0  0  0  0  0  0  0  0
   -4.0645   25.0474  -27.8535 H   0  0  0  0  0  0  0  0  0  0  0  0
   -5.5550   26.3011  -31.3418 H   0  0  0  0  0  0  0  0  0  0  0  0
   -5.8307   25.3200  -28.7611 H   0  0  0  0  0  0  0  0  0  0  0  0
   -7.2310   25.7147  -29.7709 H   0  0  0  0  0  0  0  0  0  0  0  0
   -6.1208   23.0420  -28.9983 H   0  0  0  0  0  0  0  0  0  0  0  0
   -7.7653   23.4400  -29.5206 H   0  0  0  0  0  0  0  0  0  0  0  0
   -8.4453   21.5849  -30.3213 H   0  0  0  0  0  0  0  0  0  0  0  0
   -9.0417   19.3491  -31.2257 H   0  0  0  0  0  0  0  0  0  0  0  0
   -7.4225   16.0672  -33.6860 H   0  0  0  0  0  0  0  0  0  0  0  0
   -6.6170   17.3628  -34.6621 H   0  0  0  0  0  0  0  0  0  0  0  0
   -5.6745   17.5561  -31.9547 H   0  0  0  0  0  0  0  0  0  0  0  0
   -5.5505   15.8248  -32.5085 H   0  0  0  0  0  0  0  0  0  0  0  0
   -5.6457   19.5138  -33.9011 H   0  0  0  0  0  0  0  0  0  0  0  0
   -5.0532   21.7594  -33.0100 H   0  0  0  0  0  0  0  0  0  0  0  0
   -4.7378   23.7706  -32.2676 H   0  0  0  0  0  0  0  0  0  0  0  0
   -6.2880   24.5059  -32.7115 H   0  0  0  0  0  0  0  0  0  0  0  0
   -2.7033   23.0904  -31.4676 H   0  0  0  0  0  0  0  0  0  0  0  0
   -1.7137   21.2570  -30.1016 H   0  0  0  0  0  0  0  0  0  0  0  0
  1  2  1  0
  2  3  2  0
  2  4  1  0
  4  5  1  0
  5  6  1  0
  5  7  1  0
  7  8  2  0
  8  9  1  0
  9 10  2  0
 10 11  1  0
 11 12  1  0
 12 13  1  0
 13 14  1  0
 14 15  1  0
 15 16  1  0
 16 17  2  0
 17 18  1  0
 18 19  2  0
 19 20  1  0
 20 21  1  0
 21 22  1  0
 22 23  1  0
 23 24  1  0
 23 25  1  0
 23 26  1  0
 19 27  1  0
 27 28  2  0
 15 29  1  0
 10 30  1  0
 30 31  2  0
 31  7  1  0
 29 12  1  0
 28 16  1  0
  1 32  1  0
  1 33  1  0
  1 34  1  0
  4 35  1  0
  5 36  1  6
  6 37  1  0
  6 38  1  0
  6 39  1  0
  8 40  1  0
  9 41  1  0
 12 42  1  6
 13 43  1  0
 13 44  1  0
 14 45  1  0
 14 46  1  0
 17 47  1  0
 18 48  1  0
 21 49  1  0
 21 50  1  0
 22 51  1  0
 22 52  1  0
 27 53  1  0
 28 54  1  0
 29 55  1  0
 29 56  1  0
 30 57  1  0
 31 58  1  0
M  END
>  <UniqueID>  (26) 
25

>  <SMILES>  (26) 
CC(=O)N[C@@H](C)c1ccc(O[C@@H]2CCN(c3ccc(OCCC(F)(F)F)cc3)C2)cc1

>  <Energy>  (26) 
52.3974734853351

>  <Genealogy>  (26) 
CC(=O)N[C@@H](C)c1ccc(O[C@@H]2CCN(c3ccc(OCCC(F)(F)F)cc3)C2)cc1 (chirality)
CC(=O)N[C@@H](C)c1ccc(O[C@@H]2CCN(c3ccc(OCCC(F)(F)F)cc3)C2)cc1 (3D coordinates assigned)
CC(=O)N[C@@H](C)c1ccc(O[C@@H]2CCN(c3ccc(OCCC(F)(F)F)cc3)C2)cc1 (nonaromatic ring conformer: 52.3974734853351 kcal/mol)

>  <smiles>  (26) 
CC(=O)NC(C)c1ccc(OC2CCN(c3ccc(OCCC(F)(F)F)cc3)C2)cc1

>  <score_type>  (26) 
oracle

>  <origin>  (26) 
adg

>  <m_score__min__energy>  (26) 
-8.9000000000000004

>  <m_primary>  (26) 
energy

$$$$
26:0
     RDKit          3D

 43 45  0  0  0  0  0  0  0  0999 V2000
   -6.3300   16.3750  -33.8870 C   0  0  0  0  0  0  0  0  0  0  0  0
   -5.7210   18.0360  -34.3130 S   0  0  0  0  0  0  0  0  0  0  0  0
   -6.8270   18.8590  -33.1670 C   0  0  0  0  0  0  0  0  0  0  0  0
   -7.9730   18.2040  -32.7020 C   0  0  0  0  0  0  0  0  0  0  0  0
   -8.8440   18.8570  -31.8250 C   0  0  0  0  0  0  0  0  0  0  0  0
   -8.5850   20.1720  -31.4270 C   0  0  0  0  0  0  0  0  0  0  0  0
   -7.4530   20.8440  -31.9150 C   0  0  0  0  0  0  0  0  0  0  0  0
   -7.1810   22.2410  -31.5250 C   0  0  0  0  0  0  0  0  0  0  0  0
   -7.9560   22.7670  -30.6790 O   0  0  0  0  0  0  0  0  0  0  0  0
   -6.0750   23.0280  -32.0550 N   0  0  0  0  0  0  0  0  0  0  0  0
   -4.7160   22.4610  -31.8680 C   0  0  0  0  0  0  0  0  0  0  0  0
   -4.2000   22.5570  -30.4190 C   0  0  0  0  0  0  0  0  0  0  0  0
   -4.4430   23.8880  -29.8530 N   0  0  0  0  0  0  0  0  0  0  0  0
   -3.6220   24.3300  -28.7570 C   0  0  0  0  0  0  0  0  0  0  0  0
   -4.1710   24.5060  -27.4740 C   0  0  0  0  0  0  0  0  0  0  0  0
   -3.3640   24.9250  -26.4120 C   0  0  0  0  0  0  0  0  0  0  0  0
   -2.0040   25.1730  -26.6220 C   0  0  0  0  0  0  0  0  0  0  0  0
   -1.4510   25.0020  -27.8930 C   0  0  0  0  0  0  0  0  0  0  0  0
   -2.2550   24.5820  -28.9580 C   0  0  0  0  0  0  0  0  0  0  0  0
   -5.7420   24.5250  -30.0860 C   0  0  0  0  0  0  0  0  0  0  0  0
   -6.1260   24.4230  -31.5650 C   0  0  0  0  0  0  0  0  0  0  0  0
   -6.5530   20.1670  -32.7500 C   0  0  0  0  0  0  0  0  0  0  0  0
   -6.3691   16.2683  -32.7929 H   0  0  0  0  0  0  0  0  0  0  0  0
   -7.3378   16.2355  -34.3053 H   0  0  0  0  0  0  0  0  0  0  0  0
   -5.6512   15.6172  -34.3053 H   0  0  0  0  0  0  0  0  0  0  0  0
   -8.1884   17.1753  -33.0266 H   0  0  0  0  0  0  0  0  0  0  0  0
   -9.7354   18.3349  -31.4471 H   0  0  0  0  0  0  0  0  0  0  0  0
   -9.2685   20.6804  -30.7311 H   0  0  0  0  0  0  0  0  0  0  0  0
   -6.2310   23.0700  -33.0910 H   0  0  0  0  0  0  0  0  0  0  0  0
   -4.7388   21.4005  -32.1592 H   0  0  0  0  0  0  0  0  0  0  0  0
   -4.0314   23.0527  -32.4935 H   0  0  0  0  0  0  0  0  0  0  0  0
   -4.7178   21.8063  -29.8039 H   0  0  0  0  0  0  0  0  0  0  0  0
   -3.1151   22.3752  -30.4244 H   0  0  0  0  0  0  0  0  0  0  0  0
   -5.2407   24.3130  -27.3054 H   0  0  0  0  0  0  0  0  0  0  0  0
   -3.7992   25.0596  -25.4107 H   0  0  0  0  0  0  0  0  0  0  0  0
   -1.3696   25.5028  -25.7861 H   0  0  0  0  0  0  0  0  0  0  0  0
   -0.3811   25.1980  -28.0570 H   0  0  0  0  0  0  0  0  0  0  0  0
   -1.8147   24.4485  -29.9571 H   0  0  0  0  0  0  0  0  0  0  0  0
   -6.5074   24.0219  -29.4768 H   0  0  0  0  0  0  0  0  0  0  0  0
   -5.6754   25.5866  -29.8059 H   0  0  0  0  0  0  0  0  0  0  0  0
   -7.1484   24.8077  -31.6940 H   0  0  0  0  0  0  0  0  0  0  0  0
   -5.4027   25.0142  -32.1458 H   0  0  0  0  0  0  0  0  0  0  0  0
   -5.6288   20.6650  -33.0785 H   0  0  0  0  0  0  0  0  0  0  0  0
  1  2  1  0
  2  3  1  0
  3  4  2  0
  4  5  1  0
  5  6  2  0
  6  7  1  0
  7  8  1  0
  8  9  2  0
  8 10  1  0
 10 11  1  0
 11 12  1  0
 12 13  1  0
 13 14  1  0
 14 15  2  0
 15 16  1  0
 16 17  2  0
 17 18  1  0
 18 19  2  0
 13 20  1  0
 20 21  1  0
  7 22  2  0
 22  3  1  0
 21 10  1  0
 19 14  1  0
  1 23  1  0
  1 24  1  0
  1 25  1  0
  4 26  1  0
  5 27  1  0
  6 28  1  0
 10 29  1  0
 11 30  1  0
 11 31  1  0
 12 32  1  0
 12 33  1  0
 15 34  1  0
 16 35  1  0
 17 36  1  0
 18 37  1  0
 19 38  1  0
 20 39  1  0
 20 40  1  0
 21 41  1  0
 21 42  1  0
 22 43  1  0
M  CHG  1  10   1
M  END
>  <UniqueID>  (27) 
26

>  <SMILES>  (27) 
CSc1cccc(C(=O)[NH+]2CCN(c3ccccc3)CC2)c1

>  <Energy>  (27) 
57.82568632016261

>  <Genealogy>  (27) 
CSc1cccc(C(=O)[NH+]2CCN(c3ccccc3)CC2)c1 (protonated)
CSc1cccc(C(=O)[NH+]2CCN(c3ccccc3)CC2)c1 (3D coordinates assigned)
CSc1cccc(C(=O)[NH+]2CCN(c3ccccc3)CC2)c1 (nonaromatic ring conformer: 57.82568632016261 kcal/mol)

>  <smiles>  (27) 
CSc1cccc(C(=O)N2CCN(c3ccccc3)CC2)c1

>  <score_type>  (27) 
oracle

>  <origin>  (27) 
adg

>  <m_score__min__energy>  (27) 
-7.79

>  <m_primary>  (27) 
energy

$$$$
27:0
     RDKit          3D

 50 53  0  0  0  0  0  0  0  0999 V2000
   -3.8080   22.3920  -27.8060 C   0  0  0  0  0  0  0  0  0  0  0  0
   -2.8400   22.9560  -28.6850 O   0  0  0  0  0  0  0  0  0  0  0  0
   -2.4460   22.3890  -29.9090 C   0  0  0  0  0  0  0  0  0  0  0  0
   -1.2080   21.7370  -30.0570 C   0  0  0  0  0  0  0  0  0  0  0  0
   -0.8390   21.1910  -31.2840 C   0  0  0  0  0  0  0  0  0  0  0  0
   -1.6970   21.2800  -32.3780 C   0  0  0  0  0  0  0  0  0  0  0  0
   -2.9410   21.9210  -32.2630 C   0  0  0  0  0  0  0  0  0  0  0  0
   -3.8610   21.9430  -33.4700 C   0  0  0  0  0  0  0  0  0  0  0  0
   -4.8390   20.8410  -33.4550 N   0  0  0  0  0  0  0  0  0  0  0  0
   -4.4730   19.7530  -32.5370 C   0  0  0  0  0  0  0  0  0  0  0  0
   -4.9110   18.4100  -33.0660 C   0  0  0  0  0  0  0  0  0  0  0  0
   -3.9560   17.5650  -33.5440 N   0  0  0  0  0  0  0  0  0  0  0  0
   -4.2600   16.3600  -34.0910 C   0  0  0  0  0  0  0  0  0  0  0  0
   -5.5910   15.9560  -34.1940 C   0  0  0  0  0  0  0  0  0  0  0  0
   -6.5970   16.7950  -33.7170 C   0  0  0  0  0  0  0  0  0  0  0  0
   -6.2720   18.0240  -33.1270 C   0  0  0  0  0  0  0  0  0  0  0  0
   -7.3280   18.8700  -32.6480 N   0  0  0  0  0  0  0  0  0  0  0  0
   -8.2300   18.5680  -31.6950 C   0  0  0  0  0  0  0  0  0  0  0  0
   -9.1030   19.6270  -31.5730 C   0  0  0  0  0  0  0  0  0  0  0  0
   -8.6720   20.5480  -32.5080 C   0  0  0  0  0  0  0  0  0  0  0  0
   -7.5970   20.0620  -33.1590 N   0  0  0  0  0  0  0  0  0  0  0  0
   -3.3150   22.4860  -31.0160 C   0  0  0  0  0  0  0  0  0  0  0  0
   -4.6060   23.1890  -30.8470 C   0  0  0  0  0  0  0  0  0  0  0  0
   -5.8080   22.4660  -30.9110 C   0  0  0  0  0  0  0  0  0  0  0  0
   -7.0320   23.1210  -30.7400 C   0  0  0  0  0  0  0  0  0  0  0  0
   -7.0610   24.4950  -30.4920 C   0  0  0  0  0  0  0  0  0  0  0  0
   -5.8670   25.2170  -30.4090 C   0  0  0  0  0  0  0  0  0  0  0  0
   -4.6410   24.5680  -30.5790 C   0  0  0  0  0  0  0  0  0  0  0  0
   -3.4890   25.2790  -30.4790 F   0  0  0  0  0  0  0  0  0  0  0  0
   -3.5041   22.5691  -26.7637 H   0  0  0  0  0  0  0  0  0  0  0  0
   -4.7860   22.8617  -27.9876 H   0  0  0  0  0  0  0  0  0  0  0  0
   -3.8817   21.3096  -27.9876 H   0  0  0  0  0  0  0  0  0  0  0  0
   -0.5265   21.6579  -29.1972 H   0  0  0  0  0  0  0  0  0  0  0  0
    0.1334   20.6877  -31.3897 H   0  0  0  0  0  0  0  0  0  0  0  0
   -1.3967   20.8435  -33.3420 H   0  0  0  0  0  0  0  0  0  0  0  0
   -4.4063   22.8983  -33.4804 H   0  0  0  0  0  0  0  0  0  0  0  0
   -3.2369   21.8234  -34.3679 H   0  0  0  0  0  0  0  0  0  0  0  0
   -5.7760   21.2100  -33.1730 H   0  0  0  0  0  0  0  0  0  0  0  0
   -3.3806   19.7470  -32.4079 H   0  0  0  0  0  0  0  0  0  0  0  0
   -4.9808   19.9271  -31.5769 H   0  0  0  0  0  0  0  0  0  0  0  0
   -3.4562   15.7021  -34.4531 H   0  0  0  0  0  0  0  0  0  0  0  0
   -5.8442   14.9860  -34.6467 H   0  0  0  0  0  0  0  0  0  0  0  0
   -7.6506   16.4910  -33.8041 H   0  0  0  0  0  0  0  0  0  0  0  0
   -8.2641   17.6351  -31.1132 H   0  0  0  0  0  0  0  0  0  0  0  0
   -9.9550   19.7188  -30.8833 H   0  0  0  0  0  0  0  0  0  0  0  0
   -9.1355   21.5283  -32.6928 H   0  0  0  0  0  0  0  0  0  0  0  0
   -5.7870   21.3819  -31.0961 H   0  0  0  0  0  0  0  0  0  0  0  0
   -7.9723   22.5535  -30.8009 H   0  0  0  0  0  0  0  0  0  0  0  0
   -8.0244   25.0096  -30.3618 H   0  0  0  0  0  0  0  0  0  0  0  0
   -5.8924   26.2984  -30.2094 H   0  0  0  0  0  0  0  0  0  0  0  0
  1  2  1  0
  2  3  1  0
  3  4  2  0
  4  5  1  0
  5  6  2  0
  6  7  1  0
  7  8  1  0
  8  9  1  0
  9 10  1  0
 10 11  1  0
 11 12  2  0
 12 13  1  0
 13 14  2  0
 14 15  1  0
 15 16  2  0
 16 17  1  0
 17 18  1  0
 18 19  2  0
 19 20  1  0
 20 21  2  0
  7 22  2  0
 22 23  1  0
 23 24  2  0
 24 25  1  0
 25 26  2  0
 26 27  1  0
 27 28  2  0
 28 29  1  0
 22  3  1  0
 28 23  1  0
 16 11  1  0
 21 17  1  0
  1 30  1  0
  1 31  1  0
  1 32  1  0
  4 33  1  0
  5 34  1  0
  6 35  1  0
  8 36  1  0
  8 37  1  0
  9 38  1  0
 10 39  1  0
 10 40  1  0
 13 41  1  0
 14 42  1  0
 15 43  1  0
 18 44  1  0
 19 45  1  0
 20 46  1  0
 24 47  1  0
 25 48  1  0
 26 49  1  0
 27 50  1  0
M  END
>  <UniqueID>  (28) 
27

>  <SMILES>  (28) 
COc1cccc(CNCc2ncccc2-n2cccn2)c1-c1ccccc1F

>  <Energy>  (28) 
99.05454894806802

>  <Genealogy>  (28) 
COc1cccc(CNCc2ncccc2-n2cccn2)c1-c1ccccc1F (3D coordinates assigned)
COc1cccc(CNCc2ncccc2-n2cccn2)c1-c1ccccc1F (optimized conformer: 99.05454894806802 kcal/mol)

>  <smiles>  (28) 
COc1cccc(CNCc2ncccc2-n2cccn2)c1-c1ccccc1F

>  <score_type>  (28) 
oracle

>  <origin>  (28) 
adg

>  <m_score__min__energy>  (28) 
-9.5600000000000005

>  <m_primary>  (28) 
energy

$$$$
28:0
     RDKit          3D

 37 40  0  0  0  0  0  0  0  0999 V2000
   -1.0360   23.0620  -29.7430 C   0  0  0  0  0  0  0  0  0  0  0  0
   -2.1190   23.9660  -29.3370 N   0  0  0  0  0  0  0  0  0  0  0  0
   -1.7950   25.1380  -28.5150 C   0  0  0  0  0  0  0  0  0  0  0  0
   -3.4890   23.7050  -29.7410 C   0  0  0  0  0  0  0  0  0  0  0  0
   -4.5360   24.5500  -29.3240 C   0  0  0  0  0  0  0  0  0  0  0  0
   -5.8530   24.3010  -29.7110 C   0  0  0  0  0  0  0  0  0  0  0  0
   -6.1670   23.2020  -30.5180 C   0  0  0  0  0  0  0  0  0  0  0  0
   -5.1290   22.3420  -30.9500 C   0  0  0  0  0  0  0  0  0  0  0  0
   -3.8040   22.6010  -30.5600 C   0  0  0  0  0  0  0  0  0  0  0  0
   -5.4460   21.1770  -31.8050 C   0  0  0  0  0  0  0  0  0  0  0  0
   -4.5320   20.4940  -32.3360 O   0  0  0  0  0  0  0  0  0  0  0  0
   -6.8630   20.8860  -32.0520 C   0  0  0  0  0  0  0  0  0  0  0  0
   -7.4770   19.8520  -32.7480 C   0  0  0  0  0  0  0  0  0  0  0  0
   -6.8730   18.6360  -33.3210 C   0  0  0  0  0  0  0  0  0  0  0  0
   -7.0020   17.3590  -32.7870 C   0  0  0  0  0  0  0  0  0  0  0  0
   -6.2330   16.3950  -33.4520 C   0  0  0  0  0  0  0  0  0  0  0  0
   -5.4760   16.9100  -34.4950 C   0  0  0  0  0  0  0  0  0  0  0  0
   -5.7610   18.5640  -34.5830 S   0  0  0  0  0  0  0  0  0  0  0  0
   -8.8060   20.0930  -32.8040 N   0  0  0  0  0  0  0  0  0  0  0  0
   -8.9750   21.2520  -32.1320 C   0  0  0  0  0  0  0  0  0  0  0  0
   -7.8140   21.7430  -31.6610 N   0  0  0  0  0  0  0  0  0  0  0  0
   -7.6130   23.0020  -30.9410 C   0  0  0  0  0  0  0  0  0  0  0  0
   -0.5453   22.6524  -28.8478 H   0  0  0  0  0  0  0  0  0  0  0  0
   -1.4511   22.2386  -30.3427 H   0  0  0  0  0  0  0  0  0  0  0  0
   -0.3000   23.6176  -30.3427 H   0  0  0  0  0  0  0  0  0  0  0  0
   -1.8688   24.8710  -27.4505 H   0  0  0  0  0  0  0  0  0  0  0  0
   -0.7710   25.4714  -28.7392 H   0  0  0  0  0  0  0  0  0  0  0  0
   -2.5024   25.9500  -28.7392 H   0  0  0  0  0  0  0  0  0  0  0  0
   -4.3124   25.4171  -28.6852 H   0  0  0  0  0  0  0  0  0  0  0  0
   -6.6543   24.9769  -29.3777 H   0  0  0  0  0  0  0  0  0  0  0  0
   -2.9995   21.9318  -30.8990 H   0  0  0  0  0  0  0  0  0  0  0  0
   -7.6457   17.1277  -31.9255 H   0  0  0  0  0  0  0  0  0  0  0  0
   -6.2295   15.3308  -33.1738 H   0  0  0  0  0  0  0  0  0  0  0  0
   -4.8055   16.3351  -35.1507 H   0  0  0  0  0  0  0  0  0  0  0  0
   -9.9504   21.7392  -31.9862 H   0  0  0  0  0  0  0  0  0  0  0  0
   -7.9080   23.8348  -31.5963 H   0  0  0  0  0  0  0  0  0  0  0  0
   -8.2280   22.9695  -30.0296 H   0  0  0  0  0  0  0  0  0  0  0  0
  1  2  1  0
  2  3  1  0
  2  4  1  0
  4  5  2  0
  5  6  1  0
  6  7  2  0
  7  8  1  0
  8  9  2  0
  8 10  1  0
 10 11  2  0
 10 12  1  0
 12 13  2  0
 13 14  1  0
 14 15  2  0
 15 16  1  0
 16 17  2  0
 17 18  1  0
 13 19  1  0
 19 20  2  0
 20 21  1  0
 21 22  1  0
  9  4  1  0
 21 12  1  0
 22  7  1  0
 18 14  1  0
  1 23  1  0
  1 24  1  0
  1 25  1  0
  3 26  1  0
  3 27  1  0
  3 28  1  0
  5 29  1  0
  6 30  1  0
  9 31  1  0
 15 32  1  0
 16 33  1  0
 17 34  1  0
 20 35  1  0
 22 36  1  0
 22 37  1  0
M  END
>  <UniqueID>  (29) 
28

>  <SMILES>  (29) 
CN(C)c1ccc2c(c1)C(=O)c1c(-c3cccs3)ncn1C2

>  <Energy>  (29) 
107.68651290470571

>  <Genealogy>  (29) 
CN(C)c1ccc2c(c1)C(=O)c1c(-c3cccs3)ncn1C2 (protonated)
CN(C)c1ccc2c(c1)C(=O)c1c(-c3cccs3)ncn1C2 (3D coordinates assigned)
CN(C)c1ccc2c(c1)C(=O)c1c(-c3cccs3)ncn1C2 (nonaromatic ring conformer: 107.68651290470571 kcal/mol)

>  <smiles>  (29) 
C[N+](C)c1ccc2c(c1)C(=O)c1c(-c3cccs3)ncn1C2

>  <score_type>  (29) 
oracle

>  <origin>  (29) 
adg

>  <m_score__min__energy>  (29) 
-7.7400000000000002

>  <m_primary>  (29) 
energy

$$$$
29:0
     RDKit          3D

 47 49  0  0  0  0  0  0  0  0999 V2000
   -5.4100   15.5770  -34.1860 C   0  0  0  0  0  0  0  0  0  0  0  0
   -5.8630   16.9280  -33.7210 C   0  0  0  0  0  0  0  0  0  0  0  0
   -6.5560   17.0630  -32.5090 C   0  0  0  0  0  0  0  0  0  0  0  0
   -7.0210   18.3150  -32.0980 C   0  0  0  0  0  0  0  0  0  0  0  0
   -6.8210   19.4510  -32.9020 C   0  0  0  0  0  0  0  0  0  0  0  0
   -7.3270   20.7700  -32.4520 C   0  0  0  0  0  0  0  0  0  0  0  0
   -8.6440   21.0100  -32.0480 C   0  0  0  0  0  0  0  0  0  0  0  0
   -8.7670   22.6290  -31.6080 S   0  0  0  0  0  0  0  0  0  0  0  0
   -7.1600   22.9610  -31.9630 C   0  0  0  0  0  0  0  0  0  0  0  0
   -6.4790   24.2740  -31.7320 C   0  0  0  0  0  0  0  0  0  0  0  0
   -6.6640   24.7540  -30.2910 C   0  0  0  0  0  0  0  0  0  0  0  0
   -5.6370   24.1830  -29.4170 N   0  0  0  0  0  0  0  0  0  0  0  0
   -4.2470   24.5220  -29.5290 C   0  0  0  0  0  0  0  0  0  0  0  0
   -3.8450   25.2220  -30.4980 O   0  0  0  0  0  0  0  0  0  0  0  0
   -3.2780   24.0050  -28.4980 C   0  0  0  0  0  0  0  0  0  0  0  0
   -3.0810   22.4780  -28.5240 C   0  0  0  0  0  0  0  0  0  0  0  0
   -2.8770   21.9510  -29.9220 C   0  0  0  0  0  0  0  0  0  0  0  0
   -1.6280   22.0920  -30.5510 C   0  0  0  0  0  0  0  0  0  0  0  0
   -1.4220   21.5720  -31.8320 C   0  0  0  0  0  0  0  0  0  0  0  0
   -2.4650   20.9300  -32.5050 C   0  0  0  0  0  0  0  0  0  0  0  0
   -3.7150   20.8020  -31.8940 C   0  0  0  0  0  0  0  0  0  0  0  0
   -3.9210   21.3030  -30.6050 C   0  0  0  0  0  0  0  0  0  0  0  0
   -6.5110   21.8570  -32.3890 N   0  0  0  0  0  0  0  0  0  0  0  0
   -6.1310   19.3090  -34.1200 C   0  0  0  0  0  0  0  0  0  0  0  0
   -5.6640   18.0560  -34.5280 C   0  0  0  0  0  0  0  0  0  0  0  0
   -5.1969   14.9415  -33.3138 H   0  0  0  0  0  0  0  0  0  0  0  0
   -6.2019   15.1135  -34.7927 H   0  0  0  0  0  0  0  0  0  0  0  0
   -4.4988   15.6846  -34.7927 H   0  0  0  0  0  0  0  0  0  0  0  0
   -6.7343   16.1791  -31.8790 H   0  0  0  0  0  0  0  0  0  0  0  0
   -7.5479   18.4126  -31.1374 H   0  0  0  0  0  0  0  0  0  0  0  0
   -9.4572   20.2697  -32.0224 H   0  0  0  0  0  0  0  0  0  0  0  0
   -5.4041   24.1602  -31.9359 H   0  0  0  0  0  0  0  0  0  0  0  0
   -6.9277   25.0194  -32.4051 H   0  0  0  0  0  0  0  0  0  0  0  0
   -6.5911   25.8513  -30.2642 H   0  0  0  0  0  0  0  0  0  0  0  0
   -7.6520   24.4272  -29.9345 H   0  0  0  0  0  0  0  0  0  0  0  0
   -5.9490   23.5980  -28.6090 H   0  0  0  0  0  0  0  0  0  0  0  0
   -2.3021   24.4814  -28.6728 H   0  0  0  0  0  0  0  0  0  0  0  0
   -3.7034   24.2513  -27.5140 H   0  0  0  0  0  0  0  0  0  0  0  0
   -2.1984   22.2248  -27.9182 H   0  0  0  0  0  0  0  0  0  0  0  0
   -3.9926   22.0142  -28.1192 H   0  0  0  0  0  0  0  0  0  0  0  0
   -0.8095   22.6135  -30.0332 H   0  0  0  0  0  0  0  0  0  0  0  0
   -0.4367   21.6683  -32.3114 H   0  0  0  0  0  0  0  0  0  0  0  0
   -2.3020   20.5258  -33.5150 H   0  0  0  0  0  0  0  0  0  0  0  0
   -4.5388   20.3060  -32.4282 H   0  0  0  0  0  0  0  0  0  0  0  0
   -4.9035   21.1897  -30.1236 H   0  0  0  0  0  0  0  0  0  0  0  0
   -5.9578   20.1899  -34.7556 H   0  0  0  0  0  0  0  0  0  0  0  0
   -5.1372   17.9551  -35.4883 H   0  0  0  0  0  0  0  0  0  0  0  0
  1  2  1  0
  2  3  2  0
  3  4  1  0
  4  5  2  0
  5  6  1  0
  6  7  2  0
  7  8  1  0
  8  9  1  0
  9 10  1  0
 10 11  1  0
 11 12  1  0
 12 13  1  0
 13 14  2  0
 13 15  1  0
 15 16  1  0
 16 17  1  0
 17 18  2  0
 18 19  1  0
 19 20  2  0
 20 21  1  0
 21 22  2  0
  9 23  2  0
  5 24  1  0
 24 25  2  0
 25  2  1  0
 23  6  1  0
 22 17  1  0
  1 26  1  0
  1 27  1  0
  1 28  1  0
  3 29  1  0
  4 30  1  0
  7 31  1  0
 10 32  1  0
 10 33  1  0
 11 34  1  0
 11 35  1  0
 12 36  1  0
 15 37  1  0
 15 38  1  0
 16 39  1  0
 16 40  1  0
 18 41  1  0
 19 42  1  0
 20 43  1  0
 21 44  1  0
 22 45  1  0
 24 46  1  0
 25 47  1  0
M  END
>  <UniqueID>  (30) 
29

>  <SMILES>  (30) 
Cc1ccc(-c2csc(CCNC(=O)CCc3ccccc3)n2)cc1

>  <Energy>  (30) 
66.55457321703486

>  <Genealogy>  (30) 
Cc1ccc(-c2csc(CCNC(=O)CCc3ccccc3)n2)cc1 (3D coordinates assigned)
Cc1ccc(-c2csc(CCNC(=O)CCc3ccccc3)n2)cc1 (optimized conformer: 66.55457321703486 kcal/mol)

>  <smiles>  (30) 
Cc1ccc(-c2csc(CCNC(=O)CCc3ccccc3)n2)cc1

>  <score_type>  (30) 
oracle

>  <origin>  (30) 
adg

>  <m_score__min__energy>  (30) 
-9.2400000000000002

>  <m_primary>  (30) 
energy

$$$$
30:0
     RDKit          3D

 54 56  0  0  0  0  0  0  0  0999 V2000
   -0.9890   21.1920  -29.9350 C   0  0  0  0  0  0  0  0  0  0  0  0
   -0.8980   19.6730  -29.8620 C   0  0  0  0  0  0  0  0  0  0  0  0
    0.2080   19.2880  -28.9540 N   0  0  0  0  0  0  0  0  0  0  0  0
   -0.0850   19.5680  -27.5310 C   0  0  0  0  0  0  0  0  0  0  0  0
   -1.4620   19.0630  -27.0710 C   0  0  0  0  0  0  0  0  0  0  0  0
    0.7120   17.9170  -29.1830 C   0  0  0  0  0  0  0  0  0  0  0  0
    0.6060   17.5300  -30.6610 C   0  0  0  0  0  0  0  0  0  0  0  0
    1.6580   18.5550  -31.6740 S   0  0  0  0  0  0  0  0  0  0  0  0
    2.5820   19.6200  -30.7600 O   0  0  0  0  0  0  0  0  0  0  0  0
    0.7300   19.4290  -32.8740 C   0  0  0  0  0  0  0  0  0  0  0  0
    1.3560   19.9550  -34.0050 C   0  0  0  0  0  0  0  0  0  0  0  0
    0.5940   20.6540  -34.9410 C   0  0  0  0  0  0  0  0  0  0  0  0
   -0.7780   20.8130  -34.7440 C   0  0  0  0  0  0  0  0  0  0  0  0
   -1.3840   20.2630  -33.5990 C   0  0  0  0  0  0  0  0  0  0  0  0
   -2.8380   20.4100  -33.3370 C   0  0  0  0  0  0  0  0  0  0  0  0
   -3.3210   21.5670  -32.7050 C   0  0  0  0  0  0  0  0  0  0  0  0
   -4.6860   21.7220  -32.4440 C   0  0  0  0  0  0  0  0  0  0  0  0
   -5.5990   20.7150  -32.8020 C   0  0  0  0  0  0  0  0  0  0  0  0
   -7.0490   20.8780  -32.5240 C   0  0  0  0  0  0  0  0  0  0  0  0
   -7.5620   22.1190  -32.1000 C   0  0  0  0  0  0  0  0  0  0  0  0
   -8.9270   22.2700  -31.8400 C   0  0  0  0  0  0  0  0  0  0  0  0
   -9.7950   21.1870  -31.9970 C   0  0  0  0  0  0  0  0  0  0  0  0
   -9.2990   19.9510  -32.4170 C   0  0  0  0  0  0  0  0  0  0  0  0
   -7.9340   19.7940  -32.6800 C   0  0  0  0  0  0  0  0  0  0  0  0
   -5.1160   19.5510  -33.4230 C   0  0  0  0  0  0  0  0  0  0  0  0
   -3.7520   19.3980  -33.6860 C   0  0  0  0  0  0  0  0  0  0  0  0
   -0.6080   19.5950  -32.6980 N   0  0  0  0  0  0  0  0  0  0  0  0
   -1.0139   21.6072  -28.9167 H   0  0  0  0  0  0  0  0  0  0  0  0
   -0.1129   21.5865  -30.4705 H   0  0  0  0  0  0  0  0  0  0  0  0
   -1.9060   21.4791  -30.4705 H   0  0  0  0  0  0  0  0  0  0  0  0
   -1.8456   19.2668  -29.4785 H   0  0  0  0  0  0  0  0  0  0  0  0
   -0.7057   19.2683  -30.8666 H   0  0  0  0  0  0  0  0  0  0  0  0
    0.6862   19.0816  -26.9157 H   0  0  0  0  0  0  0  0  0  0  0  0
   -0.0888   20.6617  -27.4135 H   0  0  0  0  0  0  0  0  0  0  0  0
   -1.4991   19.0494  -25.9717 H   0  0  0  0  0  0  0  0  0  0  0  0
   -2.2454   19.7323  -27.4561 H   0  0  0  0  0  0  0  0  0  0  0  0
   -1.6269   18.0459  -27.4561 H   0  0  0  0  0  0  0  0  0  0  0  0
    1.7661   17.8653  -28.8729 H   0  0  0  0  0  0  0  0  0  0  0  0
    0.1008   17.2173  -28.5941 H   0  0  0  0  0  0  0  0  0  0  0  0
    0.9080   16.4789  -30.7791 H   0  0  0  0  0  0  0  0  0  0  0  0
   -0.4355   17.6733  -30.9845 H   0  0  0  0  0  0  0  0  0  0  0  0
    1.9910   19.8770  -30.0070 H   0  0  0  0  0  0  0  0  0  0  0  0
    2.4371   19.8200  -34.1564 H   0  0  0  0  0  0  0  0  0  0  0  0
    1.0746   21.0798  -35.8342 H   0  0  0  0  0  0  0  0  0  0  0  0
   -1.3823   21.3648  -35.4790 H   0  0  0  0  0  0  0  0  0  0  0  0
   -2.6177   22.3604  -32.4119 H   0  0  0  0  0  0  0  0  0  0  0  0
   -5.0479   22.6385  -31.9550 H   0  0  0  0  0  0  0  0  0  0  0  0
   -6.8837   22.9756  -31.9725 H   0  0  0  0  0  0  0  0  0  0  0  0
   -9.3185   23.2439  -31.5110 H   0  0  0  0  0  0  0  0  0  0  0  0
  -10.8686   21.3076  -31.7899 H   0  0  0  0  0  0  0  0  0  0  0  0
   -9.9833   19.0988  -32.5413 H   0  0  0  0  0  0  0  0  0  0  0  0
   -7.5497   18.8178  -33.0107 H   0  0  0  0  0  0  0  0  0  0  0  0
   -5.8181   18.7525  -33.7049 H   0  0  0  0  0  0  0  0  0  0  0  0
   -3.3896   18.4790  -34.1698 H   0  0  0  0  0  0  0  0  0  0  0  0
  1  2  1  0
  2  3  1  0
  3  4  1  0
  4  5  1  0
  3  6  1  0
  6  7  1  0
  7  8  1  0
  8  9  1  1
  8 10  1  0
 10 11  2  0
 11 12  1  0
 12 13  2  0
 13 14  1  0
 14 15  1  0
 15 16  2  0
 16 17  1  0
 17 18  2  0
 18 19  1  0
 19 20  2  0
 20 21  1  0
 21 22  2  0
 22 23  1  0
 23 24  2  0
 18 25  1  0
 25 26  2  0
 14 27  2  0
 27 10  1  0
 26 15  1  0
 24 19  1  0
  1 28  1  0
  1 29  1  0
  1 30  1  0
  2 31  1  0
  2 32  1  0
  4 33  1  0
  4 34  1  0
  5 35  1  0
  5 36  1  0
  5 37  1  0
  6 38  1  0
  6 39  1  0
  7 40  1  0
  7 41  1  0
  9 42  1  0
 11 43  1  0
 12 44  1  0
 13 45  1  0
 16 46  1  0
 17 47  1  0
 20 48  1  0
 21 49  1  0
 22 50  1  0
 23 51  1  0
 24 52  1  0
 25 53  1  0
 26 54  1  0
M  CHG  1   8   1
M  END
>  <UniqueID>  (31) 
30

>  <SMILES>  (31) 
CCN(CC)CC[S@+](O)c1cccc(-c2ccc(-c3ccccc3)cc2)n1

>  <Energy>  (31) 
60.510292307516

>  <Genealogy>  (31) 
CCN(CC)CC[S+](O)c1cccc(-c2ccc(-c3ccccc3)cc2)n1 (protonated)
CCN(CC)CC[S@+](O)c1cccc(-c2ccc(-c3ccccc3)cc2)n1 (chirality)
CCN(CC)CC[S@+](O)c1cccc(-c2ccc(-c3ccccc3)cc2)n1 (3D coordinates assigned)
CCN(CC)CC[S@+](O)c1cccc(-c2ccc(-c3ccccc3)cc2)n1 (optimized conformer: 60.510292307516 kcal/mol)

>  <smiles>  (31) 
CCN(CC)CC[S+]([O-])c1cccc(-c2ccc(-c3ccccc3)cc2)n1

>  <score_type>  (31) 
oracle

>  <origin>  (31) 
adg

>  <m_score__min__energy>  (31) 
-8.5500000000000007

>  <m_primary>  (31) 
energy

$$$$
31:0
     RDKit          3D

 41 43  0  0  0  0  0  0  0  0999 V2000
   -2.2990   24.6850  -30.1640 H   0  0  0  0  0  0  0  0  0  0  0  0
   -2.1900   25.2460  -29.3530 O   0  0  0  0  0  0  0  0  0  0  0  0
   -1.5020   24.4630  -28.4140 C   0  0  0  0  0  0  0  0  0  0  0  0
   -2.2241   23.8575  -27.8466 H   0  0  0  0  0  0  0  0  0  0  0  0
   -0.9486   25.1243  -27.7310 H   0  0  0  0  0  0  0  0  0  0  0  0
   -0.5110   23.5350  -29.1250 C   0  0  0  0  0  0  0  0  0  0  0  0
    0.2322   23.1822  -28.3948 H   0  0  0  0  0  0  0  0  0  0  0  0
   -0.0322   24.1046  -29.9351 H   0  0  0  0  0  0  0  0  0  0  0  0
   -1.2080   22.3230  -29.7460 C   0  0  0  0  0  0  0  0  0  0  0  0
   -1.9396   21.9192  -29.0306 H   0  0  0  0  0  0  0  0  0  0  0  0
   -0.4529   21.5594  -29.9844 H   0  0  0  0  0  0  0  0  0  0  0  0
   -1.8980   22.7090  -30.9750 N   0  0  0  0  0  0  0  0  0  0  0  0
   -3.1780   22.5980  -31.1550 C   0  0  0  0  0  0  0  0  0  0  0  0
   -3.7140   21.4600  -31.7080 N   0  0  0  0  0  0  0  0  0  0  0  0
   -5.0580   21.3110  -31.9060 C   0  0  0  0  0  0  0  0  0  0  0  0
   -5.5690   20.0510  -32.4690 C   0  0  0  0  0  0  0  0  0  0  0  0
   -6.3360   19.1890  -31.6710 C   0  0  0  0  0  0  0  0  0  0  0  0
   -6.5342   19.4453  -30.6198 H   0  0  0  0  0  0  0  0  0  0  0  0
   -6.8490   18.0050  -32.2090 C   0  0  0  0  0  0  0  0  0  0  0  0
   -7.4416   17.3265  -31.5778 H   0  0  0  0  0  0  0  0  0  0  0  0
   -6.6100   17.6820  -33.5480 C   0  0  0  0  0  0  0  0  0  0  0  0
   -7.0067   16.7456  -33.9672 H   0  0  0  0  0  0  0  0  0  0  0  0
   -5.8670   18.5490  -34.3540 C   0  0  0  0  0  0  0  0  0  0  0  0
   -5.6863   18.2982  -35.4097 H   0  0  0  0  0  0  0  0  0  0  0  0
   -5.3530   19.7350  -33.8200 C   0  0  0  0  0  0  0  0  0  0  0  0
   -4.7786   20.4214  -34.4594 H   0  0  0  0  0  0  0  0  0  0  0  0
   -5.8830   22.3800  -31.5410 C   0  0  0  0  0  0  0  0  0  0  0  0
   -7.2410   22.6690  -31.6300 C   0  0  0  0  0  0  0  0  0  0  0  0
   -8.3330   21.8170  -32.1950 C   0  0  0  0  0  0  0  0  0  0  0  0
   -8.9095   21.3672  -31.3732 H   0  0  0  0  0  0  0  0  0  0  0  0
   -8.9987   22.4367  -32.8136 H   0  0  0  0  0  0  0  0  0  0  0  0
   -7.8938   21.0205  -32.8136 H   0  0  0  0  0  0  0  0  0  0  0  0
   -7.4440   23.9050  -31.1110 N   0  0  0  0  0  0  0  0  0  0  0  0
   -8.3630   24.3950  -31.0240 H   0  0  0  0  0  0  0  0  0  0  0  0
   -6.2770   24.4140  -30.7350 N   0  0  0  0  0  0  0  0  0  0  0  0
   -6.0990   25.7130  -30.0970 C   0  0  0  0  0  0  0  0  0  0  0  0
   -6.1158   25.5901  -29.0040 H   0  0  0  0  0  0  0  0  0  0  0  0
   -5.1336   26.1425  -30.4028 H   0  0  0  0  0  0  0  0  0  0  0  0
   -6.9133   26.3864  -30.4028 H   0  0  0  0  0  0  0  0  0  0  0  0
   -5.3280   23.4980  -30.9890 C   0  0  0  0  0  0  0  0  0  0  0  0
   -3.9950   23.6300  -30.7890 N   0  0  0  0  0  0  0  0  0  0  0  0
  1  2  1  0
  2  3  1  0
  3  4  1  0
  3  5  1  0
  3  6  1  0
  6  7  1  0
  6  8  1  0
  6  9  1  0
  9 10  1  0
  9 11  1  0
  9 12  1  0
 12 13  2  0
 13 14  1  0
 14 15  2  0
 15 16  1  0
 16 17  2  0
 17 18  1  0
 17 19  1  0
 19 20  1  0
 19 21  2  0
 21 22  1  0
 21 23  1  0
 23 24  1  0
 23 25  2  0
 25 26  1  0
 15 27  1  0
 27 28  1  0
 28 29  1  0
 29 30  1  0
 29 31  1  0
 29 32  1  0
 28 33  2  0
 33 34  1  0
 33 35  1  0
 35 36  1  0
 36 37  1  0
 36 38  1  0
 36 39  1  0
 35 40  1  0
 40 41  1  0
 41 13  1  0
 25 16  1  0
 40 27  2  0
M  CHG  2  33   1  41  -1
M  END
>  <UniqueID>  (32) 
31

>  <SMILES>  (32) 
Cc1[nH+]n(C)c2[n-]/c(=N/CCCO)nc(-c3ccccc3)c12

>  <Energy>  (32) 
85.08478612615313

>  <Genealogy>  (32) 
Cc1[nH+]n(C)c2[n-]c(=NCCCO)nc(-c3ccccc3)c12 (protonated)
Cc1[nH+]n(C)c2[n-]/c(=N/CCCO)nc(-c3ccccc3)c12 (cis-trans isomerization)
Cc1[nH+]n(C)c2[n-]/c(=N/CCCO)nc(-c3ccccc3)c12 (3D coordinates assigned)
Cc1[nH+]n(C)c2[n-]/c(=N/CCCO)nc(-c3ccccc3)c12 (optimized conformer: 85.08478612615313 kcal/mol)

>  <smiles>  (32) 
Cc1nn(C)c2[nH]c(=NCCCO)nc(-c3ccccc3)c12

>  <score_type>  (32) 
oracle

>  <origin>  (32) 
adg

>  <m_score__min__energy>  (32) 
-8.2799999999999994

>  <m_primary>  (32) 
energy

$$$$
32:0
     RDKit          3D

 54 57  0  0  0  0  0  0  0  0999 V2000
   -2.5070   19.5670  -33.7290 C   0  0  0  0  0  0  0  0  0  0  0  0
   -2.9560   18.1850  -34.1920 C   0  0  0  0  0  0  0  0  0  0  0  0
   -4.3140   18.2140  -34.6310 O   0  0  0  0  0  0  0  0  0  0  0  0
   -5.4270   18.5160  -33.8300 C   0  0  0  0  0  0  0  0  0  0  0  0
   -6.2200   17.4420  -33.3690 C   0  0  0  0  0  0  0  0  0  0  0  0
   -7.3420   17.6710  -32.5550 C   0  0  0  0  0  0  0  0  0  0  0  0
   -7.6520   18.9880  -32.2260 C   0  0  0  0  0  0  0  0  0  0  0  0
   -8.6520   19.4050  -31.4390 N   0  0  0  0  0  0  0  0  0  0  0  0
   -8.5520   20.7530  -31.3730 C   0  0  0  0  0  0  0  0  0  0  0  0
   -9.4520   21.5500  -30.4790 C   0  0  0  0  0  0  0  0  0  0  0  0
   -7.4610   21.2070  -32.1470 C   0  0  0  0  0  0  0  0  0  0  0  0
   -6.8820   22.6050  -32.3420 C   0  0  0  0  0  0  0  0  0  0  0  0
   -5.3410   22.5950  -32.3600 C   0  0  0  0  0  0  0  0  0  0  0  0
   -4.6970   22.6180  -30.9600 C   0  0  0  0  0  0  0  0  0  0  0  0
   -5.5780   23.2000  -29.9230 N   0  0  0  0  0  0  0  0  0  0  0  0
   -4.8760   23.5330  -28.6640 C   0  0  0  0  0  0  0  0  0  0  0  0
   -3.4170   23.1120  -28.6370 C   0  0  0  0  0  0  0  0  0  0  0  0
   -3.0690   21.8180  -28.2100 C   0  0  0  0  0  0  0  0  0  0  0  0
   -1.7300   21.4160  -28.1820 C   0  0  0  0  0  0  0  0  0  0  0  0
   -0.7240   22.3060  -28.5610 C   0  0  0  0  0  0  0  0  0  0  0  0
   -1.0540   23.6020  -28.9610 C   0  0  0  0  0  0  0  0  0  0  0  0
   -2.3920   24.0110  -28.9930 C   0  0  0  0  0  0  0  0  0  0  0  0
   -2.6770   25.2900  -29.3450 F   0  0  0  0  0  0  0  0  0  0  0  0
   -6.4460   24.2740  -30.4270 C   0  0  0  0  0  0  0  0  0  0  0  0
   -7.4720   23.6970  -31.4150 C   0  0  0  0  0  0  0  0  0  0  0  0
   -6.9000   20.0430  -32.6670 C   0  0  0  0  0  0  0  0  0  0  0  0
   -5.7680   19.8420  -33.4650 C   0  0  0  0  0  0  0  0  0  0  0  0
   -2.4963   19.5998  -32.6295 H   0  0  0  0  0  0  0  0  0  0  0  0
   -1.4962   19.7715  -34.1118 H   0  0  0  0  0  0  0  0  0  0  0  0
   -3.2046   20.3265  -34.1118 H   0  0  0  0  0  0  0  0  0  0  0  0
   -2.3150   17.8574  -35.0238 H   0  0  0  0  0  0  0  0  0  0  0  0
   -2.8735   17.4859  -33.3468 H   0  0  0  0  0  0  0  0  0  0  0  0
   -5.9555   16.4122  -33.6511 H   0  0  0  0  0  0  0  0  0  0  0  0
   -7.9567   16.8355  -32.1888 H   0  0  0  0  0  0  0  0  0  0  0  0
   -9.3490   18.8010  -30.9470 H   0  0  0  0  0  0  0  0  0  0  0  0
   -9.2090   21.3348  -29.4280 H   0  0  0  0  0  0  0  0  0  0  0  0
   -9.3085   22.6226  -30.6763 H   0  0  0  0  0  0  0  0  0  0  0  0
  -10.4994   21.2778  -30.6763 H   0  0  0  0  0  0  0  0  0  0  0  0
   -7.2179   22.9106  -33.3439 H   0  0  0  0  0  0  0  0  0  0  0  0
   -5.0072   21.6846  -32.8793 H   0  0  0  0  0  0  0  0  0  0  0  0
   -5.0230   23.5155  -32.8715 H   0  0  0  0  0  0  0  0  0  0  0  0
   -4.4515   21.5854  -30.6710 H   0  0  0  0  0  0  0  0  0  0  0  0
   -3.8012   23.2534  -31.0224 H   0  0  0  0  0  0  0  0  0  0  0  0
   -4.9238   24.6224  -28.5197 H   0  0  0  0  0  0  0  0  0  0  0  0
   -5.3818   22.9753  -27.8620 H   0  0  0  0  0  0  0  0  0  0  0  0
   -3.8561   21.1168  -27.8957 H   0  0  0  0  0  0  0  0  0  0  0  0
   -1.4692   20.3968  -27.8608 H   0  0  0  0  0  0  0  0  0  0  0  0
    0.3284   21.9864  -28.5445 H   0  0  0  0  0  0  0  0  0  0  0  0
   -0.2593   24.3046  -29.2522 H   0  0  0  0  0  0  0  0  0  0  0  0
   -6.9749   24.7416  -29.5835 H   0  0  0  0  0  0  0  0  0  0  0  0
   -5.8300   25.0257  -30.9423 H   0  0  0  0  0  0  0  0  0  0  0  0
   -8.3008   23.2573  -30.8408 H   0  0  0  0  0  0  0  0  0  0  0  0
   -7.8068   24.5245  -32.0578 H   0  0  0  0  0  0  0  0  0  0  0  0
   -5.1575   20.6932  -33.8009 H   0  0  0  0  0  0  0  0  0  0  0  0
  1  2  1  0
  2  3  1  0
  3  4  1  0
  4  5  2  0
  5  6  1  0
  6  7  2  0
  7  8  1  0
  8  9  1  0
  9 10  1  0
  9 11  2  0
 11 12  1  0
 12 13  1  0
 13 14  1  0
 14 15  1  0
 15 16  1  0
 16 17  1  0
 17 18  2  0
 18 19  1  0
 19 20  2  0
 20 21  1  0
 21 22  2  0
 22 23  1  0
 15 24  1  0
 24 25  1  0
 11 26  1  0
 26 27  2  0
 27  4  1  0
 26  7  1  0
 25 12  1  0
 22 17  1  0
  1 28  1  0
  1 29  1  0
  1 30  1  0
  2 31  1  0
  2 32  1  0
  5 33  1  0
  6 34  1  0
  8 35  1  0
 10 36  1  0
 10 37  1  0
 10 38  1  0
 12 39  1  0
 13 40  1  0
 13 41  1  0
 14 42  1  0
 14 43  1  0
 16 44  1  0
 16 45  1  0
 18 46  1  0
 19 47  1  0
 20 48  1  0
 21 49  1  0
 24 50  1  0
 24 51  1  0
 25 52  1  0
 25 53  1  0
 27 54  1  0
M  END
>  <UniqueID>  (33) 
32

>  <SMILES>  (33) 
CCOc1ccc2[nH]c(C)c(C3CCN(Cc4ccccc4F)CC3)c2c1

>  <Energy>  (33) 
102.23160610228491

>  <Genealogy>  (33) 
CCOc1ccc2[nH]c(C)c(C3CCN(Cc4ccccc4F)CC3)c2c1 (3D coordinates assigned)
CCOc1ccc2[nH]c(C)c(C3CCN(Cc4ccccc4F)CC3)c2c1 (nonaromatic ring conformer: 102.23160610228491 kcal/mol)

>  <smiles>  (33) 
CCOc1ccc2[nH]c(C)c(C3CCN(Cc4ccccc4F)CC3)c2c1

>  <score_type>  (33) 
oracle

>  <origin>  (33) 
adg

>  <m_score__min__energy>  (33) 
-9.1799999999999997

>  <m_primary>  (33) 
energy

$$$$
33:0
     RDKit          3D

 46 49  0  0  0  0  0  0  0  0999 V2000
    0.9880   27.9560  -23.1520 C   0  0  0  0  0  0  0  0  0  0  0  0
    0.0310   28.2970  -24.1510 O   0  0  0  0  0  0  0  0  0  0  0  0
   -0.5030   27.3890  -25.0780 C   0  0  0  0  0  0  0  0  0  0  0  0
   -1.4090   26.3780  -24.7090 C   0  0  0  0  0  0  0  0  0  0  0  0
   -1.9130   25.4980  -25.6710 C   0  0  0  0  0  0  0  0  0  0  0  0
   -1.5180   25.6090  -27.0150 C   0  0  0  0  0  0  0  0  0  0  0  0
   -2.0650   24.6790  -28.0360 C   0  0  0  0  0  0  0  0  0  0  0  0
   -3.4510   24.5470  -28.1720 C   0  0  0  0  0  0  0  0  0  0  0  0
   -3.9780   23.6990  -29.1440 C   0  0  0  0  0  0  0  0  0  0  0  0
   -5.3570   23.5650  -29.3290 C   0  0  0  0  0  0  0  0  0  0  0  0
   -5.8310   22.7420  -30.3000 N   0  0  0  0  0  0  0  0  0  0  0  0
   -4.9900   22.0370  -31.1040 C   0  0  0  0  0  0  0  0  0  0  0  0
   -5.5180   21.1680  -32.1300 N   0  0  0  0  0  0  0  0  0  0  0  0
   -6.9580   21.1690  -32.4170 C   0  0  0  0  0  0  0  0  0  0  0  0
   -7.3730   19.8560  -33.0880 C   0  0  0  0  0  0  0  0  0  0  0  0
   -6.5390   19.5700  -34.1930 O   0  0  0  0  0  0  0  0  0  0  0  0
   -5.2240   19.3200  -33.7370 C   0  0  0  0  0  0  0  0  0  0  0  0
   -4.6100   20.5840  -33.1270 C   0  0  0  0  0  0  0  0  0  0  0  0
   -3.6450   22.1580  -30.9310 N   0  0  0  0  0  0  0  0  0  0  0  0
   -3.1110   22.9650  -29.9730 C   0  0  0  0  0  0  0  0  0  0  0  0
   -1.7500   23.0660  -29.8150 N   0  0  0  0  0  0  0  0  0  0  0  0
   -0.8580   22.3000  -30.7050 C   0  0  0  0  0  0  0  0  0  0  0  0
   -1.2200   23.9210  -28.8760 C   0  0  0  0  0  0  0  0  0  0  0  0
    0.0320   24.0240  -28.7480 O   0  0  0  0  0  0  0  0  0  0  0  0
   -0.6200   26.6260  -27.3810 C   0  0  0  0  0  0  0  0  0  0  0  0
   -0.1160   27.5040  -26.4180 C   0  0  0  0  0  0  0  0  0  0  0  0
    0.5493   28.1123  -22.1554 H   0  0  0  0  0  0  0  0  0  0  0  0
    1.2753   26.9002  -23.2647 H   0  0  0  0  0  0  0  0  0  0  0  0
    1.8782   28.5923  -23.2647 H   0  0  0  0  0  0  0  0  0  0  0  0
   -1.7221   26.2796  -23.6591 H   0  0  0  0  0  0  0  0  0  0  0  0
   -2.6239   24.7130  -25.3738 H   0  0  0  0  0  0  0  0  0  0  0  0
   -4.1248   25.1126  -27.5116 H   0  0  0  0  0  0  0  0  0  0  0  0
   -6.0562   24.1244  -28.6901 H   0  0  0  0  0  0  0  0  0  0  0  0
   -7.5146   21.2859  -31.4754 H   0  0  0  0  0  0  0  0  0  0  0  0
   -7.1842   22.0030  -33.0977 H   0  0  0  0  0  0  0  0  0  0  0  0
   -7.2960   19.0376  -32.3570 H   0  0  0  0  0  0  0  0  0  0  0  0
   -8.4087   19.9552  -33.4450 H   0  0  0  0  0  0  0  0  0  0  0  0
   -5.2514   18.5281  -32.9740 H   0  0  0  0  0  0  0  0  0  0  0  0
   -4.6079   19.0064  -34.5926 H   0  0  0  0  0  0  0  0  0  0  0  0
   -3.6573   20.3256  -32.6415 H   0  0  0  0  0  0  0  0  0  0  0  0
   -4.4407   21.3191  -33.9276 H   0  0  0  0  0  0  0  0  0  0  0  0
   -0.1613   21.7017  -30.0994 H   0  0  0  0  0  0  0  0  0  0  0  0
   -1.4588   21.6320  -31.3398 H   0  0  0  0  0  0  0  0  0  0  0  0
   -0.2885   22.9948  -31.3398 H   0  0  0  0  0  0  0  0  0  0  0  0
   -0.3120   26.7315  -28.4317 H   0  0  0  0  0  0  0  0  0  0  0  0
    0.5910   28.2924  -26.7156 H   0  0  0  0  0  0  0  0  0  0  0  0
  1  2  1  0
  2  3  1  0
  3  4  2  0
  4  5  1  0
  5  6  2  0
  6  7  1  0
  7  8  2  0
  8  9  1  0
  9 10  2  0
 10 11  1  0
 11 12  2  0
 12 13  1  0
 13 14  1  0
 14 15  1  0
 15 16  1  0
 16 17  1  0
 17 18  1  0
 12 19  1  0
 19 20  2  0
 20 21  1  0
 21 22  1  0
 21 23  1  0
 23 24  2  0
  6 25  1  0
 25 26  2  0
 26  3  1  0
 23  7  1  0
 20  9  1  0
 18 13  1  0
  1 27  1  0
  1 28  1  0
  1 29  1  0
  4 30  1  0
  5 31  1  0
  8 32  1  0
 10 33  1  0
 14 34  1  0
 14 35  1  0
 15 36  1  0
 15 37  1  0
 17 38  1  0
 17 39  1  0
 18 40  1  0
 18 41  1  0
 22 42  1  0
 22 43  1  0
 22 44  1  0
 25 45  1  0
 26 46  1  0
M  END
>  <UniqueID>  (34) 
33

>  <SMILES>  (34) 
COc1ccc(-c2cc3cnc(N4CCOCC4)nc3n(C)c2=O)cc1

>  <Energy>  (34) 
64.99104834581989

>  <Genealogy>  (34) 
COc1ccc(-c2cc3cnc(N4CCOCC4)nc3n(C)c2=O)cc1 (3D coordinates assigned)
COc1ccc(-c2cc3cnc(N4CCOCC4)nc3n(C)c2=O)cc1 (nonaromatic ring conformer: 64.99104834581989 kcal/mol)

>  <smiles>  (34) 
COc1ccc(-c2cc3cnc(N4CCOCC4)nc3n(C)c2=O)cc1

>  <score_type>  (34) 
oracle

>  <origin>  (34) 
adg

>  <m_score__min__energy>  (34) 
-6.8200000000000003

>  <m_primary>  (34) 
energy

$$$$
34:0
     RDKit          3D

 41 44  0  0  0  0  0  0  0  0999 V2000
   -2.4710   24.0910  -27.8060 C   0  0  0  0  0  0  0  0  0  0  0  0
   -1.9700   23.8760  -29.1220 O   0  0  0  0  0  0  0  0  0  0  0  0
   -2.6370   23.1420  -30.1150 C   0  0  0  0  0  0  0  0  0  0  0  0
   -2.2810   21.8180  -30.4310 C   0  0  0  0  0  0  0  0  0  0  0  0
   -2.9680   21.1210  -31.4260 C   0  0  0  0  0  0  0  0  0  0  0  0
   -4.0260   21.7270  -32.1200 C   0  0  0  0  0  0  0  0  0  0  0  0
   -4.7570   20.9780  -33.2110 C   0  0  2  0  0  0  0  0  0  0  0  0
   -6.2050   21.2220  -33.1010 N   0  0  0  0  0  0  0  0  0  0  0  0
   -7.1430   20.2240  -32.6570 C   0  0  0  0  0  0  0  0  0  0  0  0
   -8.4790   20.5680  -32.4070 C   0  0  0  0  0  0  0  0  0  0  0  0
   -9.3850   19.5950  -31.9760 C   0  0  0  0  0  0  0  0  0  0  0  0
   -8.9630   18.2760  -31.7950 C   0  0  0  0  0  0  0  0  0  0  0  0
   -7.6350   17.9210  -32.0450 C   0  0  0  0  0  0  0  0  0  0  0  0
   -6.7180   18.8950  -32.4800 C   0  0  0  0  0  0  0  0  0  0  0  0
   -5.3470   18.5830  -32.7640 N   0  0  0  0  0  0  0  0  0  0  0  0
   -4.7180   17.3900  -32.7530 C   0  0  0  0  0  0  0  0  0  0  0  0
   -3.3930   17.5630  -33.1110 C   0  0  0  0  0  0  0  0  0  0  0  0
   -3.2130   18.9140  -33.3470 C   0  0  0  0  0  0  0  0  0  0  0  0
   -4.4410   19.5070  -33.1250 C   0  0  0  0  0  0  0  0  0  0  0  0
   -4.3770   23.0510  -31.8120 C   0  0  0  0  0  0  0  0  0  0  0  0
   -3.6880   23.7620  -30.8090 C   0  0  0  0  0  0  0  0  0  0  0  0
   -4.0170   25.0850  -30.4750 O   0  0  0  0  0  0  0  0  0  0  0  0
   -5.3460   25.5880  -30.3830 C   0  0  0  0  0  0  0  0  0  0  0  0
   -1.7195   23.7685  -27.0703 H   0  0  0  0  0  0  0  0  0  0  0  0
   -2.6860   25.1606  -27.6657 H   0  0  0  0  0  0  0  0  0  0  0  0
   -3.3944   23.5099  -27.6657 H   0  0  0  0  0  0  0  0  0  0  0  0
   -1.4566   21.3295  -29.8908 H   0  0  0  0  0  0  0  0  0  0  0  0
   -2.6775   20.0880  -31.6681 H   0  0  0  0  0  0  0  0  0  0  0  0
   -4.4227   21.3409  -34.1942 H   0  0  0  0  0  0  0  0  0  0  0  0
   -6.5470   22.1940  -33.2780 H   0  0  0  0  0  0  0  0  0  0  0  0
   -8.8147   21.6057  -32.5504 H   0  0  0  0  0  0  0  0  0  0  0  0
  -10.4321   19.8685  -31.7790 H   0  0  0  0  0  0  0  0  0  0  0  0
   -9.6790   17.5136  -31.4543 H   0  0  0  0  0  0  0  0  0  0  0  0
   -7.3069   16.8809  -31.9018 H   0  0  0  0  0  0  0  0  0  0  0  0
   -5.1864   16.4278  -32.4986 H   0  0  0  0  0  0  0  0  0  0  0  0
   -2.6285   16.7763  -33.1924 H   0  0  0  0  0  0  0  0  0  0  0  0
   -2.2815   19.4145  -33.6499 H   0  0  0  0  0  0  0  0  0  0  0  0
   -5.1978   23.5382  -32.3588 H   0  0  0  0  0  0  0  0  0  0  0  0
   -5.6255   25.6938  -29.3244 H   0  0  0  0  0  0  0  0  0  0  0  0
   -5.4016   26.5694  -30.8768 H   0  0  0  0  0  0  0  0  0  0  0  0
   -6.0375   24.8894  -30.8768 H   0  0  0  0  0  0  0  0  0  0  0  0
  1  2  1  0
  2  3  1  0
  3  4  2  0
  4  5  1  0
  5  6  2  0
  6  7  1  0
  7  8  1  0
  8  9  1  0
  9 10  2  0
 10 11  1  0
 11 12  2  0
 12 13  1  0
 13 14  2  0
 14 15  1  0
 15 16  1  0
 16 17  2  0
 17 18  1  0
 18 19  2  0
  6 20  1  0
 20 21  2  0
 21 22  1  0
 22 23  1  0
 21  3  1  0
 19  7  1  0
 14  9  1  0
 19 15  1  0
  1 24  1  0
  1 25  1  0
  1 26  1  0
  4 27  1  0
  5 28  1  0
  7 29  1  6
  8 30  1  0
 10 31  1  0
 11 32  1  0
 12 33  1  0
 13 34  1  0
 16 35  1  0
 17 36  1  0
 18 37  1  0
 20 38  1  0
 23 39  1  0
 23 40  1  0
 23 41  1  0
M  END
>  <UniqueID>  (35) 
34

>  <SMILES>  (35) 
COc1ccc([C@@H]2Nc3ccccc3-n3cccc32)cc1OC

>  <Energy>  (35) 
73.4353048168958

>  <Genealogy>  (35) 
COc1ccc([C@@H]2Nc3ccccc3-n3cccc32)cc1OC (chirality)
COc1ccc([C@@H]2Nc3ccccc3-n3cccc32)cc1OC (3D coordinates assigned)
COc1ccc([C@@H]2Nc3ccccc3-n3cccc32)cc1OC (nonaromatic ring conformer: 73.4353048168958 kcal/mol)

>  <smiles>  (35) 
COc1ccc(C2Nc3ccccc3-n3cccc32)cc1OC

>  <score_type>  (35) 
oracle

>  <origin>  (35) 
adg

>  <m_score__min__energy>  (35) 
-8.1099999999999994

>  <m_primary>  (35) 
energy

$$$$
35:0
     RDKit          3D

 39 41  0  0  0  0  0  0  0  0999 V2000
   -2.4650   22.6080  -30.4100 C   0  0  0  0  0  0  0  0  0  0  0  0
   -3.4360   23.2100  -31.2620 O   0  0  0  0  0  0  0  0  0  0  0  0
   -4.6110   23.8390  -30.8160 C   0  0  0  0  0  0  0  0  0  0  0  0
   -4.5740   25.0850  -30.1540 C   0  0  0  0  0  0  0  0  0  0  0  0
   -5.7510   25.6820  -29.7020 C   0  0  0  0  0  0  0  0  0  0  0  0
   -6.9780   25.0520  -29.9050 C   0  0  0  0  0  0  0  0  0  0  0  0
   -7.0330   23.8220  -30.5630 C   0  0  0  0  0  0  0  0  0  0  0  0
   -5.8560   23.2010  -31.0210 C   0  0  0  0  0  0  0  0  0  0  0  0
   -5.9390   21.9020  -31.7340 C   0  0  0  0  0  0  0  0  0  0  0  0
   -7.1180   21.2250  -31.7560 N   0  0  0  0  0  0  0  0  0  0  0  0
   -7.2540   20.0310  -32.3890 C   0  0  0  0  0  0  0  0  0  0  0  0
   -8.5370   19.3860  -32.3960 N   0  0  0  0  0  0  0  0  0  0  0  0
   -8.7100   18.1630  -31.6140 C   0  0  0  0  0  0  0  0  0  0  0  0
   -9.7250   20.1830  -32.7040 C   0  0  0  0  0  0  0  0  0  0  0  0
   -6.1380   19.4570  -33.0250 C   0  0  0  0  0  0  0  0  0  0  0  0
   -6.1900   18.1990  -33.6540 C   0  0  0  0  0  0  0  0  0  0  0  0
   -5.0530   17.6760  -34.2750 C   0  0  0  0  0  0  0  0  0  0  0  0
   -3.8560   18.3950  -34.2700 C   0  0  0  0  0  0  0  0  0  0  0  0
   -3.7860   19.6380  -33.6350 C   0  0  0  0  0  0  0  0  0  0  0  0
   -4.9200   20.1740  -33.0030 C   0  0  0  0  0  0  0  0  0  0  0  0
   -4.8500   21.3770  -32.3660 N   0  0  0  0  0  0  0  0  0  0  0  0
   -2.7421   22.7798  -29.3594 H   0  0  0  0  0  0  0  0  0  0  0  0
   -2.4250   21.5264  -30.6065 H   0  0  0  0  0  0  0  0  0  0  0  0
   -1.4785   23.0531  -30.6065 H   0  0  0  0  0  0  0  0  0  0  0  0
   -3.6097   25.5892  -29.9932 H   0  0  0  0  0  0  0  0  0  0  0  0
   -5.7109   26.6518  -29.1844 H   0  0  0  0  0  0  0  0  0  0  0  0
   -7.9041   25.5248  -29.5462 H   0  0  0  0  0  0  0  0  0  0  0  0
   -8.0053   23.3337  -30.7250 H   0  0  0  0  0  0  0  0  0  0  0  0
   -8.6757   18.4055  -30.5416 H   0  0  0  0  0  0  0  0  0  0  0  0
   -9.6815   17.7074  -31.8560 H   0  0  0  0  0  0  0  0  0  0  0  0
   -7.9029   17.4558  -31.8560 H   0  0  0  0  0  0  0  0  0  0  0  0
  -10.2039   20.5043  -31.7673 H   0  0  0  0  0  0  0  0  0  0  0  0
   -9.4317   21.0677  -33.2881 H   0  0  0  0  0  0  0  0  0  0  0  0
  -10.4324   19.5760  -33.2881 H   0  0  0  0  0  0  0  0  0  0  0  0
   -7.1288   17.6258  -33.6567 H   0  0  0  0  0  0  0  0  0  0  0  0
   -5.1009   16.6946  -34.7695 H   0  0  0  0  0  0  0  0  0  0  0  0
   -2.9659   17.9820  -34.7671 H   0  0  0  0  0  0  0  0  0  0  0  0
   -2.8395   20.1985  -33.6302 H   0  0  0  0  0  0  0  0  0  0  0  0
   -3.9500   21.9110  -32.3770 H   0  0  0  0  0  0  0  0  0  0  0  0
  1  2  1  0
  2  3  1  0
  3  4  2  0
  4  5  1  0
  5  6  2  0
  6  7  1  0
  7  8  2  0
  8  9  1  0
  9 10  2  0
 10 11  1  0
 11 12  1  0
 12 13  1  0
 12 14  1  0
 11 15  2  0
 15 16  1  0
 16 17  2  0
 17 18  1  0
 18 19  2  0
 19 20  1  0
 20 21  2  0
  8  3  1  0
 21  9  1  0
 20 15  1  0
  1 22  1  0
  1 23  1  0
  1 24  1  0
  4 25  1  0
  5 26  1  0
  6 27  1  0
  7 28  1  0
 13 29  1  0
 13 30  1  0
 13 31  1  0
 14 32  1  0
 14 33  1  0
 14 34  1  0
 16 35  1  0
 17 36  1  0
 18 37  1  0
 19 38  1  0
 21 39  1  0
M  CHG  1  21   1
M  END
>  <UniqueID>  (36) 
35

>  <SMILES>  (36) 
COc1ccccc1-c1nc(N(C)C)c2ccccc2[nH+]1

>  <Energy>  (36) 
53.07720996683369

>  <Genealogy>  (36) 
COc1ccccc1-c1nc(N(C)C)c2ccccc2[nH+]1 (protonated)
COc1ccccc1-c1nc(N(C)C)c2ccccc2[nH+]1 (3D coordinates assigned)
COc1ccccc1-c1nc(N(C)C)c2ccccc2[nH+]1 (optimized conformer: 53.07720996683369 kcal/mol)

>  <smiles>  (36) 
COc1ccccc1-c1nc(N(C)C)c2ccccc2n1

>  <score_type>  (36) 
oracle

>  <origin>  (36) 
adg

>  <m_score__min__energy>  (36) 
-6.5899999999999999

>  <m_primary>  (36) 
energy

$$$$
36:0
     RDKit          3D

 42 44  0  0  0  0  0  0  0  0999 V2000
   -8.3019   24.4222  -30.6177 H   0  0  0  0  0  0  0  0  0  0  0  0
   -7.2170   24.2580  -30.6960 C   0  0  0  0  0  0  0  0  0  0  0  0
   -6.0180   25.2370  -30.0340 S   0  0  0  0  0  0  0  0  0  0  0  0
   -4.7590   24.2710  -30.6080 C   0  0  0  0  0  0  0  0  0  0  0  0
   -3.4860   24.5020  -30.4710 N   0  0  0  0  0  0  0  0  0  0  0  0
   -2.5640   23.7200  -29.6960 C   0  0  0  0  0  0  0  0  0  0  0  0
   -2.2350   24.0820  -28.3770 C   0  0  0  0  0  0  0  0  0  0  0  0
   -2.6650   24.9937  -27.9367 H   0  0  0  0  0  0  0  0  0  0  0  0
   -1.3650   23.2900  -27.6230 C   0  0  0  0  0  0  0  0  0  0  0  0
   -1.1022   23.5862  -26.5968 H   0  0  0  0  0  0  0  0  0  0  0  0
   -0.8290   22.1230  -28.1710 C   0  0  0  0  0  0  0  0  0  0  0  0
   -0.1378   21.5049  -27.5792 H   0  0  0  0  0  0  0  0  0  0  0  0
   -1.1700   21.7400  -29.4700 C   0  0  0  0  0  0  0  0  0  0  0  0
   -0.7531   20.8156  -29.8962 H   0  0  0  0  0  0  0  0  0  0  0  0
   -2.0410   22.5290  -30.2320 C   0  0  0  0  0  0  0  0  0  0  0  0
   -2.4650   22.0080  -31.9010 S   0  0  0  0  0  0  0  0  0  0  0  0
   -3.1600   20.4170  -31.3570 C   0  0  0  0  0  0  0  0  0  0  0  0
   -3.1759   20.3805  -30.2577 H   0  0  0  0  0  0  0  0  0  0  0  0
   -4.1852   20.3138  -31.7422 H   0  0  0  0  0  0  0  0  0  0  0  0
   -2.5391   19.5948  -31.7422 H   0  0  0  0  0  0  0  0  0  0  0  0
   -5.2310   23.2220  -31.3150 N   0  0  0  0  0  0  0  0  0  0  0  0
   -4.6140   22.5030  -31.7540 H   0  0  0  0  0  0  0  0  0  0  0  0
   -6.5930   23.2010  -31.3620 C   0  0  0  0  0  0  0  0  0  0  0  0
   -7.3210   22.1820  -32.0730 N   0  0  0  0  0  0  0  0  0  0  0  0
   -6.5830   21.1200  -32.7820 C   0  0  0  0  0  0  0  0  0  0  0  0
   -7.1506   20.8380  -33.6811 H   0  0  0  0  0  0  0  0  0  0  0  0
   -5.5897   21.5196  -33.0344 H   0  0  0  0  0  0  0  0  0  0  0  0
   -6.3700   19.8590  -31.9180 C   0  0  0  0  0  0  0  0  0  0  0  0
   -5.6097   19.2347  -32.4101 H   0  0  0  0  0  0  0  0  0  0  0  0
   -6.0688   20.2198  -30.9234 H   0  0  0  0  0  0  0  0  0  0  0  0
   -7.6200   18.9960  -31.6950 C   0  0  0  0  0  0  0  0  0  0  0  0
   -7.4706   18.0330  -32.2052 H   0  0  0  0  0  0  0  0  0  0  0  0
   -7.7398   18.8860  -30.6071 H   0  0  0  0  0  0  0  0  0  0  0  0
   -8.9220   19.6270  -32.2240 C   0  0  0  0  0  0  0  0  0  0  0  0
   -8.7614   19.9077  -33.2754 H   0  0  0  0  0  0  0  0  0  0  0  0
   -9.7067   18.8684  -32.0867 H   0  0  0  0  0  0  0  0  0  0  0  0
   -9.4000   20.8790  -31.4640 C   0  0  0  0  0  0  0  0  0  0  0  0
  -10.4948   20.9410  -31.5516 H   0  0  0  0  0  0  0  0  0  0  0  0
   -9.0667   20.7678  -30.4216 H   0  0  0  0  0  0  0  0  0  0  0  0
   -8.7960   22.1930  -31.9900 C   0  0  0  0  0  0  0  0  0  0  0  0
   -9.1983   22.3808  -32.9964 H   0  0  0  0  0  0  0  0  0  0  0  0
   -9.0699   22.9805  -31.2724 H   0  0  0  0  0  0  0  0  0  0  0  0
  1  2  1  0
  2  3  1  0
  3  4  1  0
  4  5  2  0
  5  6  1  0
  6  7  2  0
  7  8  1  0
  7  9  1  0
  9 10  1  0
  9 11  2  0
 11 12  1  0
 11 13  1  0
 13 14  1  0
 13 15  2  0
 15 16  1  0
 16 17  1  0
 17 18  1  0
 17 19  1  0
 17 20  1  0
  4 21  1  0
 21 22  1  0
 21 23  1  0
 23 24  1  0
 24 25  1  0
 25 26  1  0
 25 27  1  0
 25 28  1  0
 28 29  1  0
 28 30  1  0
 28 31  1  0
 31 32  1  0
 31 33  1  0
 31 34  1  0
 34 35  1  0
 34 36  1  0
 34 37  1  0
 37 38  1  0
 37 39  1  0
 37 40  1  0
 40 41  1  0
 40 42  1  0
 23  2  2  0
 40 24  1  0
 15  6  1  0
M  END
>  <UniqueID>  (37) 
36

>  <SMILES>  (37) 
CSc1ccccc1/N=c1/[nH]c(N2CCCCCC2)cs1

>  <Energy>  (37) 
84.02655858485464

>  <Genealogy>  (37) 
CSc1ccccc1/N=c1/[nH]c(N2CCCCCC2)cs1 (cis-trans isomerization)
CSc1ccccc1/N=c1/[nH]c(N2CCCCCC2)cs1 (3D coordinates assigned)
CSc1ccccc1/N=c1/[nH]c(N2CCCCCC2)cs1 (nonaromatic ring conformer: 84.02655858485464 kcal/mol)

>  <smiles>  (37) 
CSc1ccccc1N=c1[nH]c(N2CCCCCC2)cs1

>  <score_type>  (37) 
oracle

>  <origin>  (37) 
adg

>  <m_score__min__energy>  (37) 
-5.9299999999999997

>  <m_primary>  (37) 
energy

$$$$
37:0
     RDKit          3D

 45 46  0  0  0  0  0  0  0  0999 V2000
   -0.8770   26.3600  -27.8100 C   0  0  0  0  0  0  0  0  0  0  0  0
   -1.5530   25.9160  -28.9670 O   0  0  0  0  0  0  0  0  0  0  0  0
   -1.9790   24.5740  -28.8080 C   0  0  0  0  0  0  0  0  0  0  0  0
   -3.0770   24.2360  -29.8200 C   0  0  0  0  0  0  0  0  0  0  0  0
   -4.4130   24.3950  -29.2020 N   0  0  0  0  0  0  0  0  0  0  0  0
   -5.3070   25.2580  -30.0000 C   0  0  0  0  0  0  0  0  0  0  0  0
   -5.7080   24.6040  -31.3350 C   0  0  0  0  0  0  0  0  0  0  0  0
   -5.9270   23.0750  -31.2160 C   0  0  0  0  0  0  0  0  0  0  0  0
   -7.0570   22.6080  -32.1070 C   0  0  0  0  0  0  0  0  0  0  0  0
   -7.7640   23.4570  -32.7150 O   0  0  0  0  0  0  0  0  0  0  0  0
   -7.3930   21.1680  -32.2320 C   0  0  0  0  0  0  0  0  0  0  0  0
   -8.6610   20.6850  -31.8160 C   0  0  0  0  0  0  0  0  0  0  0  0
   -9.7010   21.5880  -31.2070 C   0  0  0  0  0  0  0  0  0  0  0  0
   -8.9710   19.3270  -31.9810 C   0  0  0  0  0  0  0  0  0  0  0  0
   -8.0340   18.4430  -32.5050 C   0  0  0  0  0  0  0  0  0  0  0  0
   -6.7710   18.8960  -32.8820 C   0  0  0  0  0  0  0  0  0  0  0  0
   -5.8810   17.9990  -33.3800 F   0  0  0  0  0  0  0  0  0  0  0  0
   -6.4350   20.2580  -32.7550 C   0  0  0  0  0  0  0  0  0  0  0  0
   -5.0640   20.7290  -33.1780 C   0  0  0  0  0  0  0  0  0  0  0  0
   -6.1930   22.6610  -29.7610 C   0  0  0  0  0  0  0  0  0  0  0  0
   -5.0420   23.1010  -28.8280 C   0  0  0  0  0  0  0  0  0  0  0  0
   -1.4119   26.0087  -26.9153 H   0  0  0  0  0  0  0  0  0  0  0  0
    0.1469   25.9579  -27.8066 H   0  0  0  0  0  0  0  0  0  0  0  0
   -0.8392   27.4593  -27.8066 H   0  0  0  0  0  0  0  0  0  0  0  0
   -1.1228   23.9015  -28.9649 H   0  0  0  0  0  0  0  0  0  0  0  0
   -2.3805   24.4464  -27.7919 H   0  0  0  0  0  0  0  0  0  0  0  0
   -2.9943   24.9116  -30.6841 H   0  0  0  0  0  0  0  0  0  0  0  0
   -2.9551   23.1920  -30.1444 H   0  0  0  0  0  0  0  0  0  0  0  0
   -6.2176   25.4599  -29.4169 H   0  0  0  0  0  0  0  0  0  0  0  0
   -4.7638   26.1867  -30.2288 H   0  0  0  0  0  0  0  0  0  0  0  0
   -6.6427   25.0661  -31.6853 H   0  0  0  0  0  0  0  0  0  0  0  0
   -4.8813   24.7648  -32.0426 H   0  0  0  0  0  0  0  0  0  0  0  0
   -4.9994   22.5881  -31.5514 H   0  0  0  0  0  0  0  0  0  0  0  0
   -9.6375   21.5329  -30.1102 H   0  0  0  0  0  0  0  0  0  0  0  0
   -9.5237   22.6235  -31.5330 H   0  0  0  0  0  0  0  0  0  0  0  0
  -10.7014   21.2672  -31.5330 H   0  0  0  0  0  0  0  0  0  0  0  0
   -9.9661   18.9572  -31.6928 H   0  0  0  0  0  0  0  0  0  0  0  0
   -8.2912   17.3800  -32.6226 H   0  0  0  0  0  0  0  0  0  0  0  0
   -4.4564   20.9377  -32.2851 H   0  0  0  0  0  0  0  0  0  0  0  0
   -4.5767   19.9468  -33.7785 H   0  0  0  0  0  0  0  0  0  0  0  0
   -5.1603   21.6456  -33.7785 H   0  0  0  0  0  0  0  0  0  0  0  0
   -7.1280   23.1302  -29.4210 H   0  0  0  0  0  0  0  0  0  0  0  0
   -6.2689   21.5643  -29.7223 H   0  0  0  0  0  0  0  0  0  0  0  0
   -5.4421   23.1945  -27.8076 H   0  0  0  0  0  0  0  0  0  0  0  0
   -4.2581   22.3338  -28.9108 H   0  0  0  0  0  0  0  0  0  0  0  0
  1  2  1  0
  2  3  1  0
  3  4  1  0
  4  5  1  0
  5  6  1  0
  6  7  1  0
  7  8  1  0
  8  9  1  0
  9 10  2  0
  9 11  1  0
 11 12  2  0
 12 13  1  0
 12 14  1  0
 14 15  2  0
 15 16  1  0
 16 17  1  0
 16 18  2  0
 18 19  1  0
  8 20  1  0
 20 21  1  0
 21  5  1  0
 18 11  1  0
  1 22  1  0
  1 23  1  0
  1 24  1  0
  3 25  1  0
  3 26  1  0
  4 27  1  0
  4 28  1  0
  6 29  1  0
  6 30  1  0
  7 31  1  0
  7 32  1  0
  8 33  1  0
 13 34  1  0
 13 35  1  0
 13 36  1  0
 14 37  1  0
 15 38  1  0
 19 39  1  0
 19 40  1  0
 19 41  1  0
 20 42  1  0
 20 43  1  0
 21 44  1  0
 21 45  1  0
M  END
>  <UniqueID>  (38) 
37

>  <SMILES>  (38) 
COCCN1CCC(C(=O)c2c(C)ccc(F)c2C)CC1

>  <Energy>  (38) 
61.5937026692344

>  <Genealogy>  (38) 
COCCN1CCC(C(=O)c2c(C)ccc(F)c2C)CC1 (3D coordinates assigned)
COCCN1CCC(C(=O)c2c(C)ccc(F)c2C)CC1 (nonaromatic ring conformer: 61.5937026692344 kcal/mol)

>  <smiles>  (38) 
COCCN1CCC(C(=O)c2c(C)ccc(F)c2C)CC1

>  <score_type>  (38) 
oracle

>  <origin>  (38) 
adg

>  <m_score__min__energy>  (38) 
-8.1600000000000001

>  <m_primary>  (38) 
energy

$$$$
38:0
     RDKit          3D

 33 35  0  0  0  0  0  0  0  0999 V2000
   -1.1270   24.9180  -28.2500 C   0  0  0  0  0  0  0  0  0  0  0  0
   -1.9680   25.3000  -29.3330 O   0  0  0  0  0  0  0  0  0  0  0  0
   -3.0760   24.5460  -29.7320 C   0  0  0  0  0  0  0  0  0  0  0  0
   -3.1850   23.2160  -29.3240 C   0  0  0  0  0  0  0  0  0  0  0  0
   -4.2890   22.4630  -29.7210 C   0  0  0  0  0  0  0  0  0  0  0  0
   -5.2850   23.0380  -30.5300 C   0  0  0  0  0  0  0  0  0  0  0  0
   -6.4710   22.2600  -30.9640 C   0  0  0  0  0  0  0  0  0  0  0  0
   -7.8150   22.5670  -30.7460 C   0  0  0  0  0  0  0  0  0  0  0  0
   -8.6090   21.6210  -31.3000 N   0  0  0  0  0  0  0  0  0  0  0  0
   -7.8090   20.7310  -31.8640 N   0  0  0  0  0  0  0  0  0  0  0  0
   -8.1710   19.6190  -32.5550 C   0  0  0  0  0  0  0  0  0  0  0  0
   -9.6150   19.2420  -32.7140 C   0  0  0  0  0  0  0  0  0  0  0  0
   -7.1440   18.8150  -33.0820 C   0  0  0  0  0  0  0  0  0  0  0  0
   -5.8020   19.2100  -32.8910 C   0  0  0  0  0  0  0  0  0  0  0  0
   -4.6890   18.3820  -33.4510 C   0  0  0  0  0  0  0  0  0  0  0  0
   -5.5130   20.3470  -32.1930 N   0  0  0  0  0  0  0  0  0  0  0  0
   -6.5300   21.0820  -31.6820 C   0  0  0  0  0  0  0  0  0  0  0  0
   -5.1370   24.3820  -30.9100 C   0  0  0  0  0  0  0  0  0  0  0  0
   -4.0500   25.0940  -30.5110 N   0  0  0  0  0  0  0  0  0  0  0  0
   -1.6288   25.1459  -27.2980 H   0  0  0  0  0  0  0  0  0  0  0  0
   -0.9226   23.8387  -28.3075 H   0  0  0  0  0  0  0  0  0  0  0  0
   -0.1797   25.4742  -28.3075 H   0  0  0  0  0  0  0  0  0  0  0  0
   -2.4049   22.7647  -28.6933 H   0  0  0  0  0  0  0  0  0  0  0  0
   -4.3813   21.4149  -29.4001 H   0  0  0  0  0  0  0  0  0  0  0  0
   -8.1773   23.4515  -30.2016 H   0  0  0  0  0  0  0  0  0  0  0  0
  -10.0741   19.1221  -31.7216 H   0  0  0  0  0  0  0  0  0  0  0  0
  -10.1415   20.0328  -33.2685 H   0  0  0  0  0  0  0  0  0  0  0  0
   -9.6877   18.2948  -33.2685 H   0  0  0  0  0  0  0  0  0  0  0  0
   -7.3825   17.8938  -33.6338 H   0  0  0  0  0  0  0  0  0  0  0  0
   -4.1047   17.9473  -32.6266 H   0  0  0  0  0  0  0  0  0  0  0  0
   -5.1080   17.5743  -34.0691 H   0  0  0  0  0  0  0  0  0  0  0  0
   -4.0359   19.0155  -34.0691 H   0  0  0  0  0  0  0  0  0  0  0  0
   -5.9054   24.8614  -31.5343 H   0  0  0  0  0  0  0  0  0  0  0  0
  1  2  1  0
  2  3  1  0
  3  4  2  0
  4  5  1  0
  5  6  2  0
  6  7  1  0
  7  8  1  0
  8  9  2  0
  9 10  1  0
 10 11  1  0
 11 12  1  0
 11 13  2  0
 13 14  1  0
 14 15  1  0
 14 16  2  0
 16 17  1  0
  6 18  1  0
 18 19  2  0
 19  3  1  0
 17  7  2  0
 17 10  1  0
  1 20  1  0
  1 21  1  0
  1 22  1  0
  4 23  1  0
  5 24  1  0
  8 25  1  0
 12 26  1  0
 12 27  1  0
 12 28  1  0
 13 29  1  0
 15 30  1  0
 15 31  1  0
 15 32  1  0
 18 33  1  0
M  END
>  <UniqueID>  (39) 
38

>  <SMILES>  (39) 
COc1ccc(-c2cnn3c(C)cc(C)nc23)cn1

>  <Energy>  (39) 
72.38486219466074

>  <Genealogy>  (39) 
COc1ccc(-c2cnn3c(C)cc(C)nc23)cn1 (3D coordinates assigned)
COc1ccc(-c2cnn3c(C)cc(C)nc23)cn1 (optimized conformer: 72.38486219466074 kcal/mol)

>  <smiles>  (39) 
COc1ccc(-c2cnn3c(C)cc(C)nc23)cn1

>  <score_type>  (39) 
oracle

>  <origin>  (39) 
adg

>  <m_score__min__energy>  (39) 
-8

>  <m_primary>  (39) 
energy

$$$$
39:0
     RDKit          3D

 48 50  0  0  0  0  0  0  0  0999 V2000
   -0.4120   24.4520  -28.2280 C   0  0  0  0  0  0  0  0  0  0  0  0
   -1.2530   25.6720  -28.5910 C   0  0  0  0  0  0  0  0  0  0  0  0
   -2.4410   25.2840  -29.3480 N   0  0  0  0  0  0  0  0  0  0  0  0
   -3.3410   24.2130  -29.0270 C   0  0  0  0  0  0  0  0  0  0  0  0
   -3.4570   23.8640  -27.8220 O   0  0  0  0  0  0  0  0  0  0  0  0
   -4.1160   23.4920  -30.0560 C   0  0  0  0  0  0  0  0  0  0  0  0
   -5.5150   23.4790  -29.9910 C   0  0  0  0  0  0  0  0  0  0  0  0
   -6.2630   22.8250  -30.9720 C   0  0  0  0  0  0  0  0  0  0  0  0
   -5.6290   22.1650  -32.0400 C   0  0  0  0  0  0  0  0  0  0  0  0
   -6.4300   21.5790  -33.0910 N   0  0  0  0  0  0  0  0  0  0  0  0
   -7.2200   20.4950  -32.5610 C   0  0  0  0  0  0  0  0  0  0  0  0
   -6.6030   19.4170  -31.8990 C   0  0  0  0  0  0  0  0  0  0  0  0
   -7.3700   18.3560  -31.4060 C   0  0  0  0  0  0  0  0  0  0  0  0
   -8.7580   18.3610  -31.5670 C   0  0  0  0  0  0  0  0  0  0  0  0
   -9.3810   19.4270  -32.2230 C   0  0  0  0  0  0  0  0  0  0  0  0
   -8.6180   20.4890  -32.7180 C   0  0  0  0  0  0  0  0  0  0  0  0
   -4.2140   22.1760  -32.1040 C   0  0  0  0  0  0  0  0  0  0  0  0
   -3.5120   21.5130  -33.1620 N   0  0  0  0  0  0  0  0  0  0  0  0
   -2.8560   20.2290  -32.9270 C   0  0  0  0  0  0  0  0  0  0  0  0
   -3.7170   19.1120  -33.4390 C   0  0  0  0  0  0  0  0  0  0  0  0
   -3.3940   17.7740  -33.1720 C   0  0  0  0  0  0  0  0  0  0  0  0
   -4.2030   16.7580  -33.6840 C   0  0  0  0  0  0  0  0  0  0  0  0
   -5.3110   17.0820  -34.4690 C   0  0  0  0  0  0  0  0  0  0  0  0
   -5.5950   18.4240  -34.7280 C   0  0  0  0  0  0  0  0  0  0  0  0
   -4.7990   19.4010  -34.2150 N   0  0  0  0  0  0  0  0  0  0  0  0
   -3.4750   22.8610  -31.1310 C   0  0  0  0  0  0  0  0  0  0  0  0
   -0.3499   24.3620  -27.1335 H   0  0  0  0  0  0  0  0  0  0  0  0
   -0.8793   23.5474  -28.6444 H   0  0  0  0  0  0  0  0  0  0  0  0
    0.5996   24.5669  -28.6444 H   0  0  0  0  0  0  0  0  0  0  0  0
   -1.5656   26.1809  -27.6673 H   0  0  0  0  0  0  0  0  0  0  0  0
   -0.6445   26.3435  -29.2146 H   0  0  0  0  0  0  0  0  0  0  0  0
   -6.0280   23.9875  -29.1614 H   0  0  0  0  0  0  0  0  0  0  0  0
   -7.3612   22.8260  -30.9088 H   0  0  0  0  0  0  0  0  0  0  0  0
   -7.0480   22.2950  -33.5330 H   0  0  0  0  0  0  0  0  0  0  0  0
   -5.8120   21.2180  -33.8560 H   0  0  0  0  0  0  0  0  0  0  0  0
   -5.5108   19.4087  -31.7684 H   0  0  0  0  0  0  0  0  0  0  0  0
   -6.8798   17.5167  -30.8909 H   0  0  0  0  0  0  0  0  0  0  0  0
   -9.3602   17.5268  -31.1779 H   0  0  0  0  0  0  0  0  0  0  0  0
  -10.4736   19.4302  -32.3499 H   0  0  0  0  0  0  0  0  0  0  0  0
   -9.1138   21.3248  -33.2333 H   0  0  0  0  0  0  0  0  0  0  0  0
   -3.1210   22.1110  -33.9240 H   0  0  0  0  0  0  0  0  0  0  0  0
   -1.8887   20.2128  -33.4506 H   0  0  0  0  0  0  0  0  0  0  0  0
   -2.6974   20.0968  -31.8466 H   0  0  0  0  0  0  0  0  0  0  0  0
   -2.5109   17.5270  -32.5644 H   0  0  0  0  0  0  0  0  0  0  0  0
   -3.9680   15.7050  -33.4695 H   0  0  0  0  0  0  0  0  0  0  0  0
   -5.9532   16.2886  -34.8789 H   0  0  0  0  0  0  0  0  0  0  0  0
   -6.4635   18.6920  -35.3476 H   0  0  0  0  0  0  0  0  0  0  0  0
   -2.3788   22.9042  -31.2115 H   0  0  0  0  0  0  0  0  0  0  0  0
  1  2  1  0
  2  3  1  0
  3  4  1  0
  4  5  2  0
  4  6  1  0
  6  7  2  0
  7  8  1  0
  8  9  2  0
  9 10  1  0
 10 11  1  0
 11 12  2  0
 12 13  1  0
 13 14  2  0
 14 15  1  0
 15 16  2  0
  9 17  1  0
 17 18  1  0
 18 19  1  0
 19 20  1  0
 20 21  2  0
 21 22  1  0
 22 23  2  0
 23 24  1  0
 24 25  2  0
 17 26  2  0
 26  6  1  0
 16 11  1  0
 25 20  1  0
  1 27  1  0
  1 28  1  0
  1 29  1  0
  2 30  1  0
  2 31  1  0
  7 32  1  0
  8 33  1  0
 10 34  1  0
 10 35  1  0
 12 36  1  0
 13 37  1  0
 14 38  1  0
 15 39  1  0
 16 40  1  0
 18 41  1  0
 19 42  1  0
 19 43  1  0
 21 44  1  0
 22 45  1  0
 23 46  1  0
 24 47  1  0
 26 48  1  0
M  CHG  2   3  -1  10   1
M  END
>  <UniqueID>  (40) 
39

>  <SMILES>  (40) 
CC[N-]C(=O)c1ccc([NH2+]c2ccccc2)c(NCc2ccccn2)c1

>  <Energy>  (40) 
56.53523134383984

>  <Genealogy>  (40) 
CC[N-]C(=O)c1ccc([NH2+]c2ccccc2)c(NCc2ccccn2)c1 (protonated)
CC[N-]C(=O)c1ccc([NH2+]c2ccccc2)c(NCc2ccccn2)c1 (3D coordinates assigned)
CC[N-]C(=O)c1ccc([NH2+]c2ccccc2)c(NCc2ccccn2)c1 (optimized conformer: 56.53523134383984 kcal/mol)

>  <smiles>  (40) 
CCNC(=O)c1ccc(Nc2ccccc2)c(NCc2ccccn2)c1

>  <score_type>  (40) 
oracle

>  <origin>  (40) 
adg

>  <m_score__min__energy>  (40) 
-9.3100000000000005

>  <m_primary>  (40) 
energy

$$$$
40:0
     RDKit          3D

 69 72  0  0  0  0  0  0  0  0999 V2000
   -4.4570   14.5120  -32.6420 C   0  0  0  0  0  0  0  0  0  0  0  0
   -4.3660   14.4920  -34.1640 C   0  0  0  0  0  0  0  0  0  0  0  0
   -3.7020   15.6610  -34.6450 O   0  0  0  0  0  0  0  0  0  0  0  0
   -3.7220   16.9240  -34.0310 C   0  0  0  0  0  0  0  0  0  0  0  0
   -2.5150   17.4410  -33.5470 C   0  0  0  0  0  0  0  0  0  0  0  0
   -2.4740   18.6900  -32.9210 C   0  0  0  0  0  0  0  0  0  0  0  0
   -3.6460   19.4510  -32.7700 C   0  0  0  0  0  0  0  0  0  0  0  0
   -3.6080   20.7700  -32.0870 C   0  0  0  0  0  0  0  0  0  0  0  0
   -4.3570   21.8540  -32.5780 C   0  0  0  0  0  0  0  0  0  0  0  0
   -4.3070   23.0630  -31.9590 N   0  0  0  0  0  0  0  0  0  0  0  0
   -3.5520   23.2760  -30.8480 C   0  0  0  0  0  0  0  0  0  0  0  0
   -3.4950   24.5410  -30.2260 C   0  0  0  0  0  0  0  0  0  0  0  0
   -4.2400   25.6730  -30.6980 N   0  0  0  0  0  0  0  0  0  0  0  0
   -5.6280   25.9090  -30.4600 C   0  0  0  0  0  0  0  0  0  0  0  0
   -6.2680   25.1420  -29.6960 O   0  0  0  0  0  0  0  0  0  0  0  0
   -2.6320   24.7240  -29.1400 C   0  0  0  0  0  0  0  0  0  0  0  0
   -1.8790   23.6450  -28.6400 C   0  0  0  0  0  0  0  0  0  0  0  0
   -0.9620   23.8040  -27.4810 C   0  0  0  0  0  0  0  0  0  0  0  0
   -1.3050   23.2470  -26.2360 C   0  0  0  0  0  0  0  0  0  0  0  0
   -0.4600   23.3910  -25.1330 C   0  0  0  0  0  0  0  0  0  0  0  0
    0.7440   24.1060  -25.2470 C   0  0  0  0  0  0  0  0  0  0  0  0
    1.6040   24.2740  -24.1000 N   0  0  0  0  0  0  0  0  0  0  0  0
    2.8470   24.9890  -24.4440 C   0  0  0  0  0  0  0  0  0  0  0  0
    2.7050   26.5220  -24.3400 C   0  0  0  0  0  0  0  0  0  0  0  0
    1.2990   26.9540  -24.5260 N   0  0  0  0  0  0  0  0  0  0  0  0
    0.6340   27.2150  -23.2210 C   0  0  0  0  0  0  0  0  0  0  0  0
   -0.8220   26.7610  -23.2790 C   0  0  0  0  0  0  0  0  0  0  0  0
    1.2430   28.1380  -25.4170 C   0  0  0  0  0  0  0  0  0  0  0  0
    0.0530   28.0710  -26.3740 C   0  0  0  0  0  0  0  0  0  0  0  0
    1.0890   24.6660  -26.4880 C   0  0  0  0  0  0  0  0  0  0  0  0
    0.2440   24.5220  -27.5900 C   0  0  0  0  0  0  0  0  0  0  0  0
   -1.9720   22.4320  -29.2530 N   0  0  0  0  0  0  0  0  0  0  0  0
   -2.7730   22.2230  -30.3300 C   0  0  0  0  0  0  0  0  0  0  0  0
   -2.8100   20.9710  -30.9480 C   0  0  0  0  0  0  0  0  0  0  0  0
   -4.8580   18.9360  -33.2640 C   0  0  0  0  0  0  0  0  0  0  0  0
   -4.8980   17.6850  -33.8880 C   0  0  0  0  0  0  0  0  0  0  0  0
   -3.4679   14.2946  -32.2127 H   0  0  0  0  0  0  0  0  0  0  0  0
   -4.7916   15.5051  -32.3077 H   0  0  0  0  0  0  0  0  0  0  0  0
   -5.1772   13.7507  -32.3077 H   0  0  0  0  0  0  0  0  0  0  0  0
   -3.8036   13.6012  -34.4805 H   0  0  0  0  0  0  0  0  0  0  0  0
   -5.3844   14.4676  -34.5790 H   0  0  0  0  0  0  0  0  0  0  0  0
   -1.5889   16.8584  -33.6604 H   0  0  0  0  0  0  0  0  0  0  0  0
   -1.5173   19.0803  -32.5437 H   0  0  0  0  0  0  0  0  0  0  0  0
   -4.9879   21.7226  -33.4694 H   0  0  0  0  0  0  0  0  0  0  0  0
   -6.1350   26.7576  -30.9426 H   0  0  0  0  0  0  0  0  0  0  0  0
   -2.5415   25.7165  -28.6744 H   0  0  0  0  0  0  0  0  0  0  0  0
   -2.2488   22.6920  -26.1296 H   0  0  0  0  0  0  0  0  0  0  0  0
   -0.7392   22.9415  -24.1686 H   0  0  0  0  0  0  0  0  0  0  0  0
    1.8290   23.3480  -23.6650 H   0  0  0  0  0  0  0  0  0  0  0  0
    1.0900   24.8300  -23.3770 H   0  0  0  0  0  0  0  0  0  0  0  0
    3.6416   24.6625  -23.7570 H   0  0  0  0  0  0  0  0  0  0  0  0
    3.0874   24.7495  -25.4903 H   0  0  0  0  0  0  0  0  0  0  0  0
    3.0495   26.8458  -23.3468 H   0  0  0  0  0  0  0  0  0  0  0  0
    3.3131   26.9784  -25.1349 H   0  0  0  0  0  0  0  0  0  0  0  0
    1.1574   26.6609  -22.4279 H   0  0  0  0  0  0  0  0  0  0  0  0
    0.6685   28.2934  -23.0066 H   0  0  0  0  0  0  0  0  0  0  0  0
   -1.2094   26.6402  -22.2566 H   0  0  0  0  0  0  0  0  0  0  0  0
   -1.4203   27.5152  -23.8111 H   0  0  0  0  0  0  0  0  0  0  0  0
   -0.8856   25.8004  -23.8111 H   0  0  0  0  0  0  0  0  0  0  0  0
    1.1534   29.0443  -24.8000 H   0  0  0  0  0  0  0  0  0  0  0  0
    2.1645   28.1586  -26.0174 H   0  0  0  0  0  0  0  0  0  0  0  0
   -0.8807   28.0184  -25.7949 H   0  0  0  0  0  0  0  0  0  0  0  0
    0.0412   28.9699  -27.0079 H   0  0  0  0  0  0  0  0  0  0  0  0
    0.1422   27.1765  -27.0079 H   0  0  0  0  0  0  0  0  0  0  0  0
    2.0322   25.2223  -26.5925 H   0  0  0  0  0  0  0  0  0  0  0  0
    0.5234   24.9741  -28.5531 H   0  0  0  0  0  0  0  0  0  0  0  0
   -2.2133   20.1407  -30.5423 H   0  0  0  0  0  0  0  0  0  0  0  0
   -5.7827   19.5224  -33.1586 H   0  0  0  0  0  0  0  0  0  0  0  0
   -5.8529   17.2937  -34.2689 H   0  0  0  0  0  0  0  0  0  0  0  0
  1  2  1  0
  2  3  1  0
  3  4  1  0
  4  5  2  0
  5  6  1  0
  6  7  2  0
  7  8  1  0
  8  9  2  0
  9 10  1  0
 10 11  2  0
 11 12  1  0
 12 13  1  0
 13 14  1  0
 14 15  2  0
 12 16  2  0
 16 17  1  0
 17 18  1  0
 18 19  2  0
 19 20  1  0
 20 21  2  0
 21 22  1  0
 22 23  1  0
 23 24  1  0
 24 25  1  0
 25 26  1  0
 26 27  1  0
 25 28  1  0
 28 29  1  0
 21 30  1  0
 30 31  2  0
 17 32  2  0
 32 33  1  0
 33 34  2  0
  7 35  1  0
 35 36  2  0
 36  4  1  0
 34  8  1  0
 33 11  1  0
 31 18  1  0
  1 37  1  0
  1 38  1  0
  1 39  1  0
  2 40  1  0
  2 41  1  0
  5 42  1  0
  6 43  1  0
  9 44  1  0
 14 45  1  0
 16 46  1  0
 19 47  1  0
 20 48  1  0
 22 49  1  0
 22 50  1  0
 23 51  1  0
 23 52  1  0
 24 53  1  0
 24 54  1  0
 26 55  1  0
 26 56  1  0
 27 57  1  0
 27 58  1  0
 27 59  1  0
 28 60  1  0
 28 61  1  0
 29 62  1  0
 29 63  1  0
 29 64  1  0
 30 65  1  0
 31 66  1  0
 34 67  1  0
 35 68  1  0
 36 69  1  0
M  CHG  2  13  -1  22   1
M  END
>  <UniqueID>  (41) 
40

>  <SMILES>  (41) 
CCOc1ccc(-c2cnc3c([N-]C=O)cc(-c4ccc([NH2+]CCN(CC)CC)cc4)nc3c2)cc1

>  <Energy>  (41) 
85.05078795105847

>  <Genealogy>  (41) 
CCOc1ccc(-c2cnc3c([N-]C=O)cc(-c4ccc([NH2+]CCN(CC)CC)cc4)nc3c2)cc1 (protonated)
CCOc1ccc(-c2cnc3c([N-]C=O)cc(-c4ccc([NH2+]CCN(CC)CC)cc4)nc3c2)cc1 (3D coordinates assigned)
CCOc1ccc(-c2cnc3c([N-]C=O)cc(-c4ccc([NH2+]CCN(CC)CC)cc4)nc3c2)cc1 (optimized conformer: 85.05078795105847 kcal/mol)

>  <smiles>  (41) 
CCOc1ccc(-c2cnc3c(NC=O)cc(-c4ccc(NCCN(CC)CC)cc4)nc3c2)cc1

>  <score_type>  (41) 
oracle

>  <origin>  (41) 
adg

>  <m_score__min__energy>  (41) 
-9.1699999999999999

>  <m_primary>  (41) 
energy

$$$$
41:0
     RDKit          3D

 23 24  0  0  0  0  0  0  0  0999 V2000
   -6.1520   17.4130  -30.9290 C   0  0  0  0  0  0  0  0  0  0  0  0
   -6.3510   17.5180  -32.1130 C   0  0  0  0  0  0  0  0  0  0  0  0
   -6.5950   17.6460  -33.5520 C   0  0  0  0  0  0  0  0  0  0  0  0
   -6.0720   19.2930  -34.1360 S   0  0  0  0  0  0  0  0  0  0  0  0
   -7.2580   20.1980  -33.1220 C   0  0  0  0  0  0  0  0  0  0  0  0
   -8.5490   19.7620  -33.0840 N   0  0  0  0  0  0  0  0  0  0  0  0
   -9.4890   20.4020  -32.3420 C   0  0  0  0  0  0  0  0  0  0  0  0
   -9.1560   21.4940  -31.6100 N   0  0  0  0  0  0  0  0  0  0  0  0
   -7.8850   21.9710  -31.6020 C   0  0  0  0  0  0  0  0  0  0  0  0
   -7.5700   23.0990  -30.8370 C   0  0  0  0  0  0  0  0  0  0  0  0
   -6.2630   23.5940  -30.8240 C   0  0  0  0  0  0  0  0  0  0  0  0
   -5.2680   22.9640  -31.5750 C   0  0  0  0  0  0  0  0  0  0  0  0
   -5.5710   21.8360  -32.3430 C   0  0  0  0  0  0  0  0  0  0  0  0
   -6.8850   21.3270  -32.3650 C   0  0  0  0  0  0  0  0  0  0  0  0
   -5.9704   17.3172  -29.8483 H   0  0  0  0  0  0  0  0  0  0  0  0
   -6.0246   16.8727  -34.0874 H   0  0  0  0  0  0  0  0  0  0  0  0
   -7.6706   17.5214  -33.7460 H   0  0  0  0  0  0  0  0  0  0  0  0
   -8.8280   18.9210  -33.6370 H   0  0  0  0  0  0  0  0  0  0  0  0
  -10.5253   20.0331  -32.3346 H   0  0  0  0  0  0  0  0  0  0  0  0
   -8.3519   23.5970  -30.2449 H   0  0  0  0  0  0  0  0  0  0  0  0
   -6.0176   24.4810  -30.2215 H   0  0  0  0  0  0  0  0  0  0  0  0
   -4.2409   23.3575  -31.5620 H   0  0  0  0  0  0  0  0  0  0  0  0
   -4.7822   21.3446  -32.9314 H   0  0  0  0  0  0  0  0  0  0  0  0
  1  2  3  0
  2  3  1  0
  3  4  1  0
  4  5  1  0
  5  6  2  0
  6  7  1  0
  7  8  2  0
  8  9  1  0
  9 10  2  0
 10 11  1  0
 11 12  2  0
 12 13  1  0
 13 14  2  0
 14  5  1  0
 14  9  1  0
  1 15  1  0
  3 16  1  0
  3 17  1  0
  6 18  1  0
  7 19  1  0
 10 20  1  0
 11 21  1  0
 12 22  1  0
 13 23  1  0
M  CHG  1   6   1
M  END
>  <UniqueID>  (42) 
41

>  <SMILES>  (42) 
C#CCSc1[nH+]cnc2ccccc12

>  <Energy>  (42) 
21.72030256023657

>  <Genealogy>  (42) 
C#CCSc1[nH+]cnc2ccccc12 (protonated)
C#CCSc1[nH+]cnc2ccccc12 (3D coordinates assigned)
C#CCSc1[nH+]cnc2ccccc12 (optimized conformer: 21.72030256023657 kcal/mol)

>  <smiles>  (42) 
C#CCSc1ncnc2ccccc12

>  <score_type>  (42) 
oracle

>  <origin>  (42) 
adg

>  <m_score__min__energy>  (42) 
-5.4900000000000002

>  <m_primary>  (42) 
energy

$$$$
42:0
     RDKit          3D

 48 51  0  0  0  0  0  0  0  0999 V2000
   -1.9690   24.5550  -28.8950 C   0  0  0  0  0  0  0  0  0  0  0  0
   -3.0370   25.0290  -29.7090 O   0  0  0  0  0  0  0  0  0  0  0  0
   -4.1450   24.2580  -30.0900 C   0  0  0  0  0  0  0  0  0  0  0  0
   -5.3760   24.3160  -29.4100 C   0  0  0  0  0  0  0  0  0  0  0  0
   -6.4510   23.5260  -29.8280 C   0  0  0  0  0  0  0  0  0  0  0  0
   -6.3090   22.6580  -30.9210 C   0  0  0  0  0  0  0  0  0  0  0  0
   -7.4570   21.8480  -31.3780 C   0  0  0  0  0  0  0  0  0  0  0  0
   -8.7420   22.3890  -31.4890 C   0  0  0  0  0  0  0  0  0  0  0  0
   -9.7890   21.2260  -32.1280 S   0  0  0  0  0  0  0  0  0  0  0  0
   -8.6170   20.0380  -32.2500 C   0  0  0  0  0  0  0  0  0  0  0  0
   -8.7940   18.7750  -32.6910 N   0  0  0  0  0  0  0  0  0  0  0  0
   -7.7350   17.9220  -32.7040 C   0  0  0  0  0  0  0  0  0  0  0  0
   -6.4950   18.3300  -32.2670 N   0  0  0  0  0  0  0  0  0  0  0  0
   -5.3730   17.3750  -32.2980 C   0  0  0  0  0  0  0  0  0  0  0  0
   -4.2390   17.7920  -33.2740 C   0  0  0  0  0  0  0  0  0  0  0  0
   -3.3900   18.9440  -32.8680 N   0  0  0  0  0  0  0  0  0  0  0  0
   -1.9620   18.6120  -32.6990 C   0  0  0  0  0  0  0  0  0  0  0  0
   -1.1940   19.8170  -32.1040 C   0  0  0  0  0  0  0  0  0  0  0  0
   -1.9280   21.0300  -32.1770 O   0  0  0  0  0  0  0  0  0  0  0  0
   -2.4750   21.1900  -33.4700 C   0  0  0  0  0  0  0  0  0  0  0  0
   -3.5680   20.1330  -33.7340 C   0  0  0  0  0  0  0  0  0  0  0  0
   -6.3230   19.6030  -31.7700 C   0  0  0  0  0  0  0  0  0  0  0  0
   -5.2180   19.9500  -31.2690 O   0  0  0  0  0  0  0  0  0  0  0  0
   -7.4000   20.5010  -31.7990 C   0  0  0  0  0  0  0  0  0  0  0  0
   -5.0880   22.6140  -31.6100 C   0  0  0  0  0  0  0  0  0  0  0  0
   -4.0130   23.4040  -31.1910 C   0  0  0  0  0  0  0  0  0  0  0  0
   -2.2359   24.6734  -27.8345 H   0  0  0  0  0  0  0  0  0  0  0  0
   -1.7874   23.4918  -29.1109 H   0  0  0  0  0  0  0  0  0  0  0  0
   -1.0587   25.1336  -29.1109 H   0  0  0  0  0  0  0  0  0  0  0  0
   -5.4928   24.9861  -28.5455 H   0  0  0  0  0  0  0  0  0  0  0  0
   -7.4127   23.5853  -29.2974 H   0  0  0  0  0  0  0  0  0  0  0  0
   -9.0271   23.4126  -31.2046 H   0  0  0  0  0  0  0  0  0  0  0  0
   -7.8709   16.8930  -33.0683 H   0  0  0  0  0  0  0  0  0  0  0  0
   -4.9513   17.2985  -31.2849 H   0  0  0  0  0  0  0  0  0  0  0  0
   -5.7725   16.4139  -32.6539 H   0  0  0  0  0  0  0  0  0  0  0  0
   -3.5781   16.9226  -33.4060 H   0  0  0  0  0  0  0  0  0  0  0  0
   -4.7549   18.1243  -34.1869 H   0  0  0  0  0  0  0  0  0  0  0  0
   -3.7430   19.2210  -31.9190 H   0  0  0  0  0  0  0  0  0  0  0  0
   -1.8679   17.7515  -32.0203 H   0  0  0  0  0  0  0  0  0  0  0  0
   -1.5341   18.3668  -33.6823 H   0  0  0  0  0  0  0  0  0  0  0  0
   -0.9712   19.6045  -31.0480 H   0  0  0  0  0  0  0  0  0  0  0  0
   -0.2770   19.9496  -32.6970 H   0  0  0  0  0  0  0  0  0  0  0  0
   -2.9160   22.1943  -33.5539 H   0  0  0  0  0  0  0  0  0  0  0  0
   -1.6729   21.0625  -34.2118 H   0  0  0  0  0  0  0  0  0  0  0  0
   -4.5532   20.5787  -33.5321 H   0  0  0  0  0  0  0  0  0  0  0  0
   -3.4929   19.8116  -34.7833 H   0  0  0  0  0  0  0  0  0  0  0  0
   -4.9756   21.9552  -32.4837 H   0  0  0  0  0  0  0  0  0  0  0  0
   -3.0560   23.3539  -31.7310 H   0  0  0  0  0  0  0  0  0  0  0  0
  1  2  1  0
  2  3  1  0
  3  4  2  0
  4  5  1  0
  5  6  2  0
  6  7  1  0
  7  8  2  0
  8  9  1  0
  9 10  1  0
 10 11  1  0
 11 12  2  0
 12 13  1  0
 13 14  1  0
 14 15  1  0
 15 16  1  0
 16 17  1  0
 17 18  1  0
 18 19  1  0
 19 20  1  0
 20 21  1  0
 13 22  1  0
 22 23  2  0
 22 24  1  0
  6 25  1  0
 25 26  2  0
 26  3  1  0
 24  7  1  0
 24 10  2  0
 21 16  1  0
  1 27  1  0
  1 28  1  0
  1 29  1  0
  4 30  1  0
  5 31  1  0
  8 32  1  0
 12 33  1  0
 14 34  1  0
 14 35  1  0
 15 36  1  0
 15 37  1  0
 16 38  1  0
 17 39  1  0
 17 40  1  0
 18 41  1  0
 18 42  1  0
 20 43  1  0
 20 44  1  0
 21 45  1  0
 21 46  1  0
 25 47  1  0
 26 48  1  0
M  CHG  1  16   1
M  END
>  <UniqueID>  (43) 
42

>  <SMILES>  (43) 
COc1ccc(-c2csc3ncn(CC[NH+]4CCOCC4)c(=O)c23)cc1

>  <Energy>  (43) 
107.57829136033533

>  <Genealogy>  (43) 
COc1ccc(-c2csc3ncn(CC[NH+]4CCOCC4)c(=O)c23)cc1 (protonated)
COc1ccc(-c2csc3ncn(CC[NH+]4CCOCC4)c(=O)c23)cc1 (3D coordinates assigned)
COc1ccc(-c2csc3ncn(CC[NH+]4CCOCC4)c(=O)c23)cc1 (nonaromatic ring conformer: 107.57829136033533 kcal/mol)

>  <smiles>  (43) 
COc1ccc(-c2csc3ncn(CCN4CCOCC4)c(=O)c23)cc1

>  <score_type>  (43) 
oracle

>  <origin>  (43) 
adg

>  <m_score__min__energy>  (43) 
-7.5

>  <m_primary>  (43) 
energy

$$$$
43:0
     RDKit          3D

 43 46  0  0  0  0  0  0  0  0999 V2000
   -2.7350   24.9090  -26.6620 C   0  0  0  0  0  0  0  0  0  0  0  0
   -1.6040   25.3650  -27.5780 C   0  0  0  0  0  0  0  0  0  0  0  0
   -2.0130   25.3260  -28.9460 O   0  0  0  0  0  0  0  0  0  0  0  0
   -2.3080   24.1660  -29.6830 C   0  0  0  0  0  0  0  0  0  0  0  0
   -1.4800   23.0290  -29.6650 C   0  0  0  0  0  0  0  0  0  0  0  0
   -1.8080   21.8960  -30.4200 C   0  0  0  0  0  0  0  0  0  0  0  0
   -2.9970   21.8650  -31.1710 C   0  0  0  0  0  0  0  0  0  0  0  0
   -3.8060   23.0160  -31.2160 C   0  0  0  0  0  0  0  0  0  0  0  0
   -3.4680   24.1630  -30.4720 C   0  0  0  0  0  0  0  0  0  0  0  0
   -4.2600   25.3220  -30.4880 O   0  0  0  0  0  0  0  0  0  0  0  0
   -5.6450   25.3610  -30.1600 C   0  0  0  0  0  0  0  0  0  0  0  0
   -3.3220   20.6200  -31.9330 C   0  0  0  0  0  0  0  0  0  0  0  0
   -4.6370   20.3430  -32.3540 C   0  0  0  0  0  0  0  0  0  0  0  0
   -4.9120   19.1680  -33.0590 C   0  0  0  0  0  0  0  0  0  0  0  0
   -6.2140   18.8790  -33.4960 C   0  0  0  0  0  0  0  0  0  0  0  0
   -6.4710   17.7010  -34.2060 C   0  0  0  0  0  0  0  0  0  0  0  0
   -5.4330   16.8080  -34.4820 C   0  0  0  0  0  0  0  0  0  0  0  0
   -4.1330   17.0850  -34.0490 C   0  0  0  0  0  0  0  0  0  0  0  0
   -3.8670   18.2650  -33.3340 C   0  0  0  0  0  0  0  0  0  0  0  0
   -2.5770   18.5570  -32.8800 C   0  0  0  0  0  0  0  0  0  0  0  0
   -2.3250   19.7000  -32.1730 N   0  0  0  0  0  0  0  0  0  0  0  0
   -0.9430   19.9730  -31.7410 C   0  0  0  0  0  0  0  0  0  0  0  0
   -0.9220   20.6800  -30.3840 C   0  0  0  0  0  0  0  0  0  0  0  0
   -2.4292   25.0323  -25.6126 H   0  0  0  0  0  0  0  0  0  0  0  0
   -3.6316   25.5159  -26.8564 H   0  0  0  0  0  0  0  0  0  0  0  0
   -2.9599   23.8499  -26.8564 H   0  0  0  0  0  0  0  0  0  0  0  0
   -1.3202   26.3948  -27.3156 H   0  0  0  0  0  0  0  0  0  0  0  0
   -0.7480   24.6868  -27.4462 H   0  0  0  0  0  0  0  0  0  0  0  0
   -0.5665   23.0298  -29.0523 H   0  0  0  0  0  0  0  0  0  0  0  0
   -4.7124   23.0196  -31.8393 H   0  0  0  0  0  0  0  0  0  0  0  0
   -5.7628   25.3643  -29.0663 H   0  0  0  0  0  0  0  0  0  0  0  0
   -6.0958   26.2722  -30.5801 H   0  0  0  0  0  0  0  0  0  0  0  0
   -6.1464   24.4766  -30.5801 H   0  0  0  0  0  0  0  0  0  0  0  0
   -5.4476   21.0514  -32.1280 H   0  0  0  0  0  0  0  0  0  0  0  0
   -7.0339   19.5798  -33.2800 H   0  0  0  0  0  0  0  0  0  0  0  0
   -7.4925   17.4777  -34.5475 H   0  0  0  0  0  0  0  0  0  0  0  0
   -5.6392   15.8838  -35.0418 H   0  0  0  0  0  0  0  0  0  0  0  0
   -3.3183   16.3792  -34.2680 H   0  0  0  0  0  0  0  0  0  0  0  0
   -1.7547   17.8585  -33.0943 H   0  0  0  0  0  0  0  0  0  0  0  0
   -0.3971   19.0215  -31.6593 H   0  0  0  0  0  0  0  0  0  0  0  0
   -0.4663   20.6283  -32.4849 H   0  0  0  0  0  0  0  0  0  0  0  0
   -1.2839   19.9891  -29.6083 H   0  0  0  0  0  0  0  0  0  0  0  0
    0.1081   20.9920  -30.1567 H   0  0  0  0  0  0  0  0  0  0  0  0
  1  2  1  0
  2  3  1  0
  3  4  1  0
  4  5  2  0
  5  6  1  0
  6  7  2  0
  7  8  1  0
  8  9  2  0
  9 10  1  0
 10 11  1  0
  7 12  1  0
 12 13  2  0
 13 14  1  0
 14 15  2  0
 15 16  1  0
 16 17  2  0
 17 18  1  0
 18 19  2  0
 19 20  1  0
 20 21  2  0
 21 22  1  0
 22 23  1  0
  9  4  1  0
 21 12  1  0
 23  6  1  0
 19 14  1  0
  1 24  1  0
  1 25  1  0
  1 26  1  0
  2 27  1  0
  2 28  1  0
  5 29  1  0
  8 30  1  0
 11 31  1  0
 11 32  1  0
 11 33  1  0
 13 34  1  0
 15 35  1  0
 16 36  1  0
 17 37  1  0
 18 38  1  0
 20 39  1  0
 22 40  1  0
 22 41  1  0
 23 42  1  0
 23 43  1  0
M  CHG  1  21   1
M  END
>  <UniqueID>  (44) 
43

>  <SMILES>  (44) 
CCOc1cc2c(cc1OC)-c1cc3ccccc3c[n+]1CC2

>  <Energy>  (44) 
54.21619198316133

>  <Genealogy>  (44) 
CCOc1cc2c(cc1OC)-c1cc3ccccc3c[n+]1CC2 (3D coordinates assigned)
CCOc1cc2c(cc1OC)-c1cc3ccccc3c[n+]1CC2 (nonaromatic ring conformer: 54.21619198316133 kcal/mol)

>  <smiles>  (44) 
CCOc1cc2c(cc1OC)-c1cc3ccccc3c[n+]1CC2

>  <score_type>  (44) 
oracle

>  <origin>  (44) 
adg

>  <m_score__min__energy>  (44) 
-7.8499999999999996

>  <m_primary>  (44) 
energy

$$$$
44:0
     RDKit          3D

 58 58  0  0  0  0  0  0  0  0999 V2000
   -1.5158   17.9328  -31.8657 H   0  0  0  0  0  0  0  0  0  0  0  0
   -1.2140   18.8230  -32.4370 C   0  0  0  0  0  0  0  0  0  0  0  0
   -0.3009   19.3705  -32.1605 H   0  0  0  0  0  0  0  0  0  0  0  0
   -1.9560   19.2390  -33.4660 C   0  0  0  0  0  0  0  0  0  0  0  0
   -6.5200   17.9230  -33.8390 C   0  0  0  0  0  0  0  0  0  0  0  0
   -5.6090   18.6320  -34.5180 C   0  0  0  0  0  0  0  0  0  0  0  0
   -5.7544   18.8160  -35.5927 H   0  0  0  0  0  0  0  0  0  0  0  0
   -4.4110   19.1700  -33.8410 C   0  0  0  0  0  0  0  0  0  0  0  0
   -6.8020   16.9307  -34.2209 H   0  0  0  0  0  0  0  0  0  0  0  0
   -8.0890   19.3890  -32.7040 C   0  0  0  0  0  0  0  0  0  0  0  0
   -8.8948   20.6052  -31.0259 H   0  0  0  0  0  0  0  0  0  0  0  0
   -7.1680   18.4120  -32.5950 C   0  0  0  0  0  0  0  0  0  0  0  0
   -3.2220   18.5380  -33.8020 C   0  0  0  0  0  0  0  0  0  0  0  0
   -8.8507   19.2978  -33.4923 H   0  0  0  0  0  0  0  0  0  0  0  0
   -8.1350   20.5820  -31.8210 C   0  0  0  0  0  0  0  0  0  0  0  0
   -4.4950   20.1450  -33.3387 H   0  0  0  0  0  0  0  0  0  0  0  0
   -7.3030   21.6410  -31.9320 C   0  0  0  0  0  0  0  0  0  0  0  0
   -5.8450   21.4800  -32.1500 C   0  0  0  0  0  0  0  0  0  0  0  0
   -5.4599   20.5074  -32.4901 H   0  0  0  0  0  0  0  0  0  0  0  0
   -4.9810   22.4880  -31.9440 C   0  0  0  0  0  0  0  0  0  0  0  0
   -3.5060   22.2560  -32.1700 C   0  0  0  0  0  0  0  0  0  0  0  0
   -3.3696   21.6569  -33.0824 H   0  0  0  0  0  0  0  0  0  0  0  0
   -3.0054   23.2297  -32.2766 H   0  0  0  0  0  0  0  0  0  0  0  0
   -2.8900   21.5100  -30.9800 C   0  0  0  0  0  0  0  0  0  0  0  0
   -3.6912   21.0160  -30.4108 H   0  0  0  0  0  0  0  0  0  0  0  0
   -2.1760   20.7660  -31.3630 H   0  0  0  0  0  0  0  0  0  0  0  0
   -2.1530   22.4620  -30.0710 C   0  0  0  0  0  0  0  0  0  0  0  0
   -1.0617   22.5394  -30.1851 H   0  0  0  0  0  0  0  0  0  0  0  0
   -2.7440   23.2260  -29.1260 C   0  0  0  0  0  0  0  0  0  0  0  0
   -2.1080   24.5440  -28.7680 C   0  0  0  0  0  0  0  0  0  0  0  0
   -2.0603   24.6428  -27.6735 H   0  0  0  0  0  0  0  0  0  0  0  0
   -1.0908   24.5854  -29.1846 H   0  0  0  0  0  0  0  0  0  0  0  0
   -2.7086   25.3661  -29.1846 H   0  0  0  0  0  0  0  0  0  0  0  0
   -4.0190   22.8030  -28.4350 C   0  0  0  0  0  0  0  0  0  0  0  0
   -3.8782   22.8497  -27.3450 H   0  0  0  0  0  0  0  0  0  0  0  0
   -4.8364   23.4781  -28.7284 H   0  0  0  0  0  0  0  0  0  0  0  0
   -4.2708   21.7732  -28.7284 H   0  0  0  0  0  0  0  0  0  0  0  0
   -5.4560   23.7950  -31.4230 C   0  0  0  0  0  0  0  0  0  0  0  0
   -4.6220   24.6970  -31.1430 O   0  0  0  0  0  0  0  0  0  0  0  0
   -6.9130   24.0620  -31.1600 C   0  0  0  0  0  0  0  0  0  0  0  0
   -7.0841   24.0498  -30.0735 H   0  0  0  0  0  0  0  0  0  0  0  0
   -7.1589   25.0419  -31.5950 H   0  0  0  0  0  0  0  0  0  0  0  0
   -7.8090   23.0350  -31.8030 C   0  0  0  0  0  0  0  0  0  0  0  0
   -9.0310   23.3940  -32.2200 C   0  0  0  0  0  0  0  0  0  0  0  0
   -9.6919   22.6511  -32.6905 H   0  0  0  0  0  0  0  0  0  0  0  0
   -9.3731   24.4316  -32.0918 H   0  0  0  0  0  0  0  0  0  0  0  0
   -6.7780   17.8330  -31.2530 C   0  0  0  0  0  0  0  0  0  0  0  0
   -7.1975   18.4557  -30.4491 H   0  0  0  0  0  0  0  0  0  0  0  0
   -7.1714   16.8094  -31.1670 H   0  0  0  0  0  0  0  0  0  0  0  0
   -5.6816   17.8129  -31.1670 H   0  0  0  0  0  0  0  0  0  0  0  0
   -3.1670   17.0770  -34.1580 C   0  0  0  0  0  0  0  0  0  0  0  0
   -3.1444   16.4758  -33.2371 H   0  0  0  0  0  0  0  0  0  0  0  0
   -4.0557   16.8098  -34.7486 H   0  0  0  0  0  0  0  0  0  0  0  0
   -2.2607   16.8774  -34.7486 H   0  0  0  0  0  0  0  0  0  0  0  0
   -1.5330   20.4570  -34.2390 C   0  0  0  0  0  0  0  0  0  0  0  0
   -1.2549   21.2578  -33.5380 H   0  0  0  0  0  0  0  0  0  0  0  0
   -0.6689   20.2075  -34.8723 H   0  0  0  0  0  0  0  0  0  0  0  0
   -2.3657   20.7969  -34.8723 H   0  0  0  0  0  0  0  0  0  0  0  0
  1  2  1  0
  2  3  1  0
  2  4  2  0
  4  5  1  0
  5  6  2  0
  6  7  1  0
  6  8  1  0
  8  9  1  0
  8 10  2  0
 10 11  1  0
 10 12  1  0
 12 13  2  0
 13 14  1  0
 13 15  1  0
 15 16  1  0
 15 17  2  0
 17 18  1  0
 18 19  1  0
 18 20  2  0
 20 21  1  0
 21 22  1  0
 21 23  1  0
 21 24  1  0
 24 25  1  0
 24 26  1  0
 24 27  1  0
 27 28  1  0
 27 29  2  3
 29 30  1  0
 30 31  1  0
 30 32  1  0
 30 33  1  0
 29 34  1  0
 34 35  1  0
 34 36  1  0
 34 37  1  0
 20 38  1  0
 38 39  2  0
 38 40  1  0
 40 41  1  0
 40 42  1  0
 40 43  1  0
 43 44  2  0
 44 45  1  0
 44 46  1  0
 12 47  1  0
 47 48  1  0
 47 49  1  0
 47 50  1  0
  5 51  1  0
 51 52  1  0
 51 53  1  0
 51 54  1  0
  4 55  1  0
 55 56  1  0
 55 57  1  0
 55 58  1  0
 43 17  1  0
M  END
>  <UniqueID>  (45) 
44

>  <SMILES>  (45) 
C=C(C)C(C)=C/C=C/C(C)=C/C=C1\C=C(CCC=C(C)C)C(=O)CC1=C

>  <Energy>  (45) 
58.43148817484271

>  <Genealogy>  (45) 
C=C(C)C(C)=C/C=C/C(C)=C/C=C1\C=C(CCC=C(C)C)C(=O)CC1=C (cis-trans isomerization)
C=C(C)C(C)=C/C=C/C(C)=C/C=C1\C=C(CCC=C(C)C)C(=O)CC1=C (3D coordinates assigned)
C=C(C)C(C)=C/C=C/C(C)=C/C=C1\C=C(CCC=C(C)C)C(=O)CC1=C (nonaromatic ring conformer: 58.43148817484271 kcal/mol)

>  <smiles>  (45) 
C=C(C)C(C)=CC=CC(C)=CC=C1C=C(CCC=C(C)C)C(=O)CC1=C

>  <score_type>  (45) 
oracle

>  <origin>  (45) 
adg

>  <m_score__min__energy>  (45) 
-9.0399999999999991

>  <m_primary>  (45) 
energy

$$$$
45:0
     RDKit          3D

 57 61  0  0  0  0  0  0  0  0999 V2000
   -9.2250   18.2200  -31.6120 C   0  0  0  0  0  0  0  0  0  0  0  0
   -9.0260   19.5020  -32.4190 C   0  0  0  0  0  0  0  0  0  0  0  0
   -7.6240   19.9700  -32.3230 N   0  0  0  0  0  0  0  0  0  0  0  0
   -7.3660   21.1130  -31.5880 C   0  0  0  0  0  0  0  0  0  0  0  0
   -8.2970   21.7200  -30.9840 O   0  0  0  0  0  0  0  0  0  0  0  0
   -6.0650   21.6120  -31.5020 C   0  0  0  0  0  0  0  0  0  0  0  0
   -5.6640   22.7700  -30.8170 C   0  0  0  0  0  0  0  0  0  0  0  0
   -4.2930   23.0090  -30.9130 C   0  0  0  0  0  0  0  0  0  0  0  0
   -3.5980   24.1820  -30.3480 C   0  0  0  0  0  0  0  0  0  0  0  0
   -3.8570   25.3230  -30.8200 O   0  0  0  0  0  0  0  0  0  0  0  0
   -2.6160   24.0600  -29.3010 N   0  0  0  0  0  0  0  0  0  0  0  0
   -1.4340   24.9350  -29.3420 C   0  0  0  0  0  0  0  0  0  0  0  0
   -0.5580   24.7610  -28.0960 C   0  0  0  0  0  0  0  0  0  0  0  0
   -1.4060   24.7430  -26.8990 N   0  0  0  0  0  0  0  0  0  0  0  0
   -1.1280   25.6210  -25.7950 C   0  0  0  0  0  0  0  0  0  0  0  0
   -1.1180   27.0090  -25.9980 C   0  0  0  0  0  0  0  0  0  0  0  0
   -0.8520   27.8750  -24.9330 C   0  0  0  0  0  0  0  0  0  0  0  0
   -0.5860   27.3610  -23.6630 C   0  0  0  0  0  0  0  0  0  0  0  0
   -0.5760   25.9800  -23.4520 C   0  0  0  0  0  0  0  0  0  0  0  0
   -0.8450   25.0960  -24.5180 C   0  0  0  0  0  0  0  0  0  0  0  0
   -0.8290   23.7040  -24.3490 O   0  0  0  0  0  0  0  0  0  0  0  0
    0.3470   22.9230  -24.1590 C   0  0  0  0  0  0  0  0  0  0  0  0
   -2.5840   23.8620  -26.8410 C   0  0  0  0  0  0  0  0  0  0  0  0
   -2.8170   23.1370  -28.1730 C   0  0  0  0  0  0  0  0  0  0  0  0
   -3.5940   21.7940  -31.8630 S   0  0  0  0  0  0  0  0  0  0  0  0
   -5.0330   20.9540  -32.1360 C   0  0  0  0  0  0  0  0  0  0  0  0
   -5.2450   19.7780  -32.8540 C   0  0  0  0  0  0  0  0  0  0  0  0
   -4.1840   19.0970  -33.4750 C   0  0  0  0  0  0  0  0  0  0  0  0
   -4.4250   17.9110  -34.1670 C   0  0  0  0  0  0  0  0  0  0  0  0
   -5.7160   17.3940  -34.2410 C   0  0  0  0  0  0  0  0  0  0  0  0
   -6.7820   18.0600  -33.6330 C   0  0  0  0  0  0  0  0  0  0  0  0
   -6.5790   19.2770  -32.9320 C   0  0  0  0  0  0  0  0  0  0  0  0
   -9.1887   18.4536  -30.5377 H   0  0  0  0  0  0  0  0  0  0  0  0
  -10.2023   17.7795  -31.8586 H   0  0  0  0  0  0  0  0  0  0  0  0
   -8.4273   17.5039  -31.8586 H   0  0  0  0  0  0  0  0  0  0  0  0
   -9.2696   19.3061  -33.4736 H   0  0  0  0  0  0  0  0  0  0  0  0
   -9.6872   20.2815  -32.0124 H   0  0  0  0  0  0  0  0  0  0  0  0
   -6.3574   23.4200  -30.2632 H   0  0  0  0  0  0  0  0  0  0  0  0
   -0.8388   24.6890  -30.2337 H   0  0  0  0  0  0  0  0  0  0  0  0
   -1.7801   25.9786  -29.3756 H   0  0  0  0  0  0  0  0  0  0  0  0
   -0.0041   23.8133  -28.1669 H   0  0  0  0  0  0  0  0  0  0  0  0
    0.1528   25.5978  -28.0285 H   0  0  0  0  0  0  0  0  0  0  0  0
   -1.3202   27.4177  -26.9990 H   0  0  0  0  0  0  0  0  0  0  0  0
   -0.8524   28.9628  -25.0963 H   0  0  0  0  0  0  0  0  0  0  0  0
   -0.3836   28.0452  -22.8258 H   0  0  0  0  0  0  0  0  0  0  0  0
   -0.3575   25.5804  -22.4507 H   0  0  0  0  0  0  0  0  0  0  0  0
    0.5345   22.7985  -23.0823 H   0  0  0  0  0  0  0  0  0  0  0  0
    0.2105   21.9355  -24.6240 H   0  0  0  0  0  0  0  0  0  0  0  0
    1.2042   23.4319  -24.6240 H   0  0  0  0  0  0  0  0  0  0  0  0
   -2.4306   23.1134  -26.0498 H   0  0  0  0  0  0  0  0  0  0  0  0
   -3.4667   24.4835  -26.6300 H   0  0  0  0  0  0  0  0  0  0  0  0
   -2.1085   22.2999  -28.2589 H   0  0  0  0  0  0  0  0  0  0  0  0
   -3.8506   22.7614  -28.1989 H   0  0  0  0  0  0  0  0  0  0  0  0
   -3.1623   19.5002  -33.4150 H   0  0  0  0  0  0  0  0  0  0  0  0
   -3.5934   17.3823  -34.6558 H   0  0  0  0  0  0  0  0  0  0  0  0
   -5.8973   16.4539  -34.7825 H   0  0  0  0  0  0  0  0  0  0  0  0
   -7.7944   17.6349  -33.6984 H   0  0  0  0  0  0  0  0  0  0  0  0
  1  2  1  0
  2  3  1  0
  3  4  1  0
  4  5  2  0
  4  6  1  0
  6  7  1  0
  7  8  2  0
  8  9  1  0
  9 10  2  0
  9 11  1  0
 11 12  1  0
 12 13  1  0
 13 14  1  0
 14 15  1  0
 15 16  2  0
 16 17  1  0
 17 18  2  0
 18 19  1  0
 19 20  2  0
 20 21  1  0
 21 22  1  0
 14 23  1  0
 23 24  1  0
  8 25  1  0
 25 26  1  0
 26 27  1  0
 27 28  2  0
 28 29  1  0
 29 30  2  0
 30 31  1  0
 31 32  2  0
 32  3  1  0
 26  6  2  0
 32 27  1  0
 24 11  1  0
 20 15  1  0
  1 33  1  0
  1 34  1  0
  1 35  1  0
  2 36  1  0
  2 37  1  0
  7 38  1  0
 12 39  1  0
 12 40  1  0
 13 41  1  0
 13 42  1  0
 16 43  1  0
 17 44  1  0
 18 45  1  0
 19 46  1  0
 22 47  1  0
 22 48  1  0
 22 49  1  0
 23 50  1  0
 23 51  1  0
 24 52  1  0
 24 53  1  0
 28 54  1  0
 29 55  1  0
 30 56  1  0
 31 57  1  0
M  END
>  <UniqueID>  (46) 
45

>  <SMILES>  (46) 
CCn1c(=O)c2cc(C(=O)N3CCN(c4ccccc4OC)CC3)sc2c2ccccc21

>  <Energy>  (46) 
110.18233212022041

>  <Genealogy>  (46) 
CCn1c(=O)c2cc(C(=O)N3CCN(c4ccccc4OC)CC3)sc2c2ccccc21 (3D coordinates assigned)
CCn1c(=O)c2cc(C(=O)N3CCN(c4ccccc4OC)CC3)sc2c2ccccc21 (nonaromatic ring conformer: 110.18233212022041 kcal/mol)

>  <smiles>  (46) 
CCn1c(=O)c2cc(C(=O)N3CCN(c4ccccc4OC)CC3)sc2c2ccccc21

>  <score_type>  (46) 
oracle

>  <origin>  (46) 
adg

>  <m_score__min__energy>  (46) 
-10.06

>  <m_primary>  (46) 
energy

$$$$
46:0
     RDKit          3D

 45 49  0  0  0  0  0  0  0  0999 V2000
   -5.7300   25.6990  -30.1380 C   0  0  0  0  0  0  0  0  0  0  0  0
   -4.6470   25.0950  -30.8370 O   0  0  0  0  0  0  0  0  0  0  0  0
   -4.6020   23.7440  -31.2130 C   0  0  0  0  0  0  0  0  0  0  0  0
   -5.6250   23.1330  -31.9570 C   0  0  0  0  0  0  0  0  0  0  0  0
   -5.5320   21.7830  -32.3140 C   0  0  0  0  0  0  0  0  0  0  0  0
   -4.3930   21.0240  -31.9740 C   0  0  0  0  0  0  0  0  0  0  0  0
   -4.2770   19.5290  -32.2780 C   0  0  2  0  0  0  0  0  0  0  0  0
   -3.0760   19.0960  -33.1040 C   0  0  0  0  0  0  0  0  0  0  0  0
   -2.1820   19.9790  -33.7580 C   0  0  0  0  0  0  0  0  0  0  0  0
   -1.1680   19.4200  -34.5310 C   0  0  0  0  0  0  0  0  0  0  0  0
   -1.0400   18.0780  -34.6920 C   0  0  0  0  0  0  0  0  0  0  0  0
   -1.9220   17.1760  -34.1070 C   0  0  0  0  0  0  0  0  0  0  0  0
   -2.9680   17.7010  -33.3220 C   0  0  0  0  0  0  0  0  0  0  0  0
   -4.0260   16.8130  -32.7220 C   0  0  0  0  0  0  0  0  0  0  0  0
   -5.4540   17.4270  -32.9070 C   0  0  2  0  0  0  0  0  0  0  0  0
   -6.0580   17.0100  -34.2480 C   0  0  0  0  0  0  0  0  0  0  0  0
   -5.7800   18.1760  -35.1600 C   0  0  0  0  0  0  0  0  0  0  0  0
   -5.7980   19.3800  -34.2370 C   0  0  0  0  0  0  0  0  0  0  0  0
   -5.5040   18.9190  -32.8600 N   0  0  0  0  0  0  0  0  0  0  0  0
    0.0420   17.8150  -35.5100 O   0  0  0  0  0  0  0  0  0  0  0  0
    0.6280   19.0680  -35.8880 C   0  0  0  0  0  0  0  0  0  0  0  0
   -0.1760   20.0650  -35.2450 O   0  0  0  0  0  0  0  0  0  0  0  0
   -3.4070   21.6330  -31.1720 C   0  0  0  0  0  0  0  0  0  0  0  0
   -3.5000   22.9810  -30.8180 C   0  0  0  0  0  0  0  0  0  0  0  0
   -5.5642   25.6065  -29.0545 H   0  0  0  0  0  0  0  0  0  0  0  0
   -5.7939   26.7630  -30.4097 H   0  0  0  0  0  0  0  0  0  0  0  0
   -6.6688   25.1942  -30.4097 H   0  0  0  0  0  0  0  0  0  0  0  0
   -6.5047   23.7193  -32.2609 H   0  0  0  0  0  0  0  0  0  0  0  0
   -6.3567   21.3085  -32.8661 H   0  0  0  0  0  0  0  0  0  0  0  0
   -4.1247   19.1382  -31.2611 H   0  0  0  0  0  0  0  0  0  0  0  0
   -2.2855   21.0696  -33.6584 H   0  0  0  0  0  0  0  0  0  0  0  0
   -1.8073   16.0916  -34.2518 H   0  0  0  0  0  0  0  0  0  0  0  0
   -3.9915   15.8305  -33.2154 H   0  0  0  0  0  0  0  0  0  0  0  0
   -3.8269   16.7140  -31.6447 H   0  0  0  0  0  0  0  0  0  0  0  0
   -6.0228   17.0343  -32.0513 H   0  0  0  0  0  0  0  0  0  0  0  0
   -5.5755   16.0964  -34.6254 H   0  0  0  0  0  0  0  0  0  0  0  0
   -7.1315   16.7819  -34.1727 H   0  0  0  0  0  0  0  0  0  0  0  0
   -4.7974   18.0686  -35.6427 H   0  0  0  0  0  0  0  0  0  0  0  0
   -6.5134   18.2583  -35.9757 H   0  0  0  0  0  0  0  0  0  0  0  0
   -5.0348   20.1046  -34.5569 H   0  0  0  0  0  0  0  0  0  0  0  0
   -6.7841   19.8664  -34.2699 H   0  0  0  0  0  0  0  0  0  0  0  0
    1.6696   19.1280  -35.5395 H   0  0  0  0  0  0  0  0  0  0  0  0
    0.6521   19.1991  -36.9799 H   0  0  0  0  0  0  0  0  0  0  0  0
   -2.5516   21.0380  -30.8196 H   0  0  0  0  0  0  0  0  0  0  0  0
   -2.6995   23.4456  -30.2236 H   0  0  0  0  0  0  0  0  0  0  0  0
  1  2  1  0
  2  3  1  0
  3  4  2  0
  4  5  1  0
  5  6  2  0
  6  7  1  0
  7  8  1  0
  8  9  2  0
  9 10  1  0
 10 11  2  0
 11 12  1  0
 12 13  2  0
 13 14  1  0
 14 15  1  0
 15 16  1  0
 16 17  1  0
 17 18  1  0
 18 19  1  0
 11 20  1  0
 20 21  1  0
 21 22  1  0
  6 23  1  0
 23 24  2  0
 24  3  1  0
 19  7  1  0
 13  8  1  0
 19 15  1  0
 22 10  1  0
  1 25  1  0
  1 26  1  0
  1 27  1  0
  4 28  1  0
  5 29  1  0
  7 30  1  1
  9 31  1  0
 12 32  1  0
 14 33  1  0
 14 34  1  0
 15 35  1  1
 16 36  1  0
 16 37  1  0
 17 38  1  0
 17 39  1  0
 18 40  1  0
 18 41  1  0
 21 42  1  0
 21 43  1  0
 23 44  1  0
 24 45  1  0
M  END
>  <UniqueID>  (47) 
46

>  <SMILES>  (47) 
COc1ccc([C@@H]2c3cc4c(cc3C[C@@H]3CCCN32)OCO4)cc1

>  <Energy>  (47) 
99.26849747539734

>  <Genealogy>  (47) 
COc1ccc([C@@H]2c3cc4c(cc3C[C@@H]3CCCN32)OCO4)cc1 (chirality)
COc1ccc([C@@H]2c3cc4c(cc3C[C@@H]3CCCN32)OCO4)cc1 (3D coordinates assigned)
COc1ccc([C@@H]2c3cc4c(cc3C[C@@H]3CCCN32)OCO4)cc1 (nonaromatic ring conformer: 99.26849747539734 kcal/mol)

>  <smiles>  (47) 
COc1ccc(C2c3cc4c(cc3CC3CCCN32)OCO4)cc1

>  <score_type>  (47) 
oracle

>  <origin>  (47) 
adg

>  <m_score__min__energy>  (47) 
-7.1699999999999999

>  <m_primary>  (47) 
energy

$$$$
47:0
     RDKit          3D

 41 43  0  0  0  0  0  0  0  0999 V2000
   -5.4890   18.0340  -32.0980 C   0  0  0  0  0  0  0  0  0  0  0  0
   -6.7630   18.8230  -32.0020 C   0  0  0  0  0  0  0  0  0  0  0  0
   -7.9210   18.1620  -31.7340 N   0  0  0  0  0  0  0  0  0  0  0  0
   -9.1040   18.8180  -31.6480 C   0  0  0  0  0  0  0  0  0  0  0  0
   -9.1510   20.1620  -31.8220 N   0  0  0  0  0  0  0  0  0  0  0  0
   -8.0290   20.8830  -32.0850 C   0  0  0  0  0  0  0  0  0  0  0  0
   -8.1520   22.3720  -32.2450 C   0  0  0  0  0  0  0  0  0  0  0  0
   -6.7870   20.2200  -32.1920 C   0  0  0  0  0  0  0  0  0  0  0  0
   -5.5490   20.9720  -32.4920 C   0  0  0  0  0  0  0  0  0  0  0  0
   -5.0460   20.8850  -33.6450 O   0  0  0  0  0  0  0  0  0  0  0  0
   -4.9170   21.7870  -31.4870 N   0  0  0  0  0  0  0  0  0  0  0  0
   -3.4900   22.1160  -31.6070 C   0  0  0  0  0  0  0  0  0  0  0  0
   -2.8020   22.1990  -30.2260 C   0  0  0  0  0  0  0  0  0  0  0  0
   -3.7540   22.4380  -29.1160 N   0  0  0  0  0  0  0  0  0  0  0  0
   -3.0900   22.9000  -27.8780 C   0  0  0  0  0  0  0  0  0  0  0  0
   -2.3290   24.1880  -28.0470 C   0  0  0  0  0  0  0  0  0  0  0  0
   -1.5450   24.8030  -27.0930 C   0  0  0  0  0  0  0  0  0  0  0  0
   -1.0830   25.9350  -27.7270 C   0  0  0  0  0  0  0  0  0  0  0  0
   -1.5680   25.9560  -28.9480 O   0  0  0  0  0  0  0  0  0  0  0  0
   -2.3230   24.9200  -29.1770 N   0  0  0  0  0  0  0  0  0  0  0  0
   -4.8910   23.2810  -29.5180 C   0  0  0  0  0  0  0  0  0  0  0  0
   -5.7520   22.4940  -30.5030 C   0  0  0  0  0  0  0  0  0  0  0  0
   -5.1215   17.8064  -31.0865 H   0  0  0  0  0  0  0  0  0  0  0  0
   -5.6790   17.0952  -32.6389 H   0  0  0  0  0  0  0  0  0  0  0  0
   -4.7332   18.6224  -32.6389 H   0  0  0  0  0  0  0  0  0  0  0  0
  -10.0276   18.2591  -31.4367 H   0  0  0  0  0  0  0  0  0  0  0  0
   -8.1911   22.8454  -31.2528 H   0  0  0  0  0  0  0  0  0  0  0  0
   -7.2824   22.7543  -32.7996 H   0  0  0  0  0  0  0  0  0  0  0  0
   -9.0726   22.6064  -32.7996 H   0  0  0  0  0  0  0  0  0  0  0  0
   -2.9943   21.3375  -32.2055 H   0  0  0  0  0  0  0  0  0  0  0  0
   -3.4056   23.1004  -32.0907 H   0  0  0  0  0  0  0  0  0  0  0  0
   -2.2769   21.2507  -30.0389 H   0  0  0  0  0  0  0  0  0  0  0  0
   -2.1104   23.0539  -30.2549 H   0  0  0  0  0  0  0  0  0  0  0  0
   -3.8590   23.0492  -27.1058 H   0  0  0  0  0  0  0  0  0  0  0  0
   -2.3589   22.1278  -27.5966 H   0  0  0  0  0  0  0  0  0  0  0  0
   -1.3374   24.4677  -26.0661 H   0  0  0  0  0  0  0  0  0  0  0  0
   -0.4198   26.6936  -27.2856 H   0  0  0  0  0  0  0  0  0  0  0  0
   -5.4878   23.5461  -28.6328 H   0  0  0  0  0  0  0  0  0  0  0  0
   -4.5269   24.2054  -29.9901 H   0  0  0  0  0  0  0  0  0  0  0  0
   -6.3532   21.7591  -29.9476 H   0  0  0  0  0  0  0  0  0  0  0  0
   -6.4037   23.1994  -31.0394 H   0  0  0  0  0  0  0  0  0  0  0  0
  1  2  1  0
  2  3  2  0
  3  4  1  0
  4  5  2  0
  5  6  1  0
  6  7  1  0
  6  8  2  0
  8  9  1  0
  9 10  2  0
  9 11  1  0
 11 12  1  0
 12 13  1  0
 13 14  1  0
 14 15  1  0
 15 16  1  0
 16 17  1  0
 17 18  2  0
 18 19  1  0
 19 20  1  0
 14 21  1  0
 21 22  1  0
  8  2  1  0
 22 11  1  0
 20 16  2  0
  1 23  1  0
  1 24  1  0
  1 25  1  0
  4 26  1  0
  7 27  1  0
  7 28  1  0
  7 29  1  0
 12 30  1  0
 12 31  1  0
 13 32  1  0
 13 33  1  0
 15 34  1  0
 15 35  1  0
 17 36  1  0
 18 37  1  0
 21 38  1  0
 21 39  1  0
 22 40  1  0
 22 41  1  0
M  END
>  <UniqueID>  (48) 
47

>  <SMILES>  (48) 
Cc1ncnc(C)c1C(=O)N1CCN(Cc2ccon2)CC1

>  <Energy>  (48) 
86.21119836459653

>  <Genealogy>  (48) 
Cc1ncnc(C)c1C(=O)N1CCN(Cc2ccon2)CC1 (3D coordinates assigned)
Cc1ncnc(C)c1C(=O)N1CCN(Cc2ccon2)CC1 (nonaromatic ring conformer: 86.21119836459653 kcal/mol)

>  <smiles>  (48) 
Cc1ncnc(C)c1C(=O)N1CCN(Cc2ccon2)CC1

>  <score_type>  (48) 
oracle

>  <origin>  (48) 
adg

>  <m_score__min__energy>  (48) 
-7.4900000000000002

>  <m_primary>  (48) 
energy

$$$$
48:0
     RDKit          3D

 37 37  0  0  0  0  0  0  0  0999 V2000
   -6.5840   19.7220  -33.3840 C   0  0  0  0  0  0  0  0  0  0  0  0
   -7.1390   19.7420  -31.9610 C   0  0  0  0  0  0  0  0  0  0  0  0
   -7.0710   21.1040  -31.3840 N   0  0  0  0  0  0  0  0  0  0  0  0
   -8.3920   21.5600  -30.8780 C   0  0  0  0  0  0  0  0  0  0  0  0
   -9.4620   21.2860  -31.9270 C   0  0  0  0  0  0  0  0  0  0  0  0
   -6.4960   22.0580  -32.3610 C   0  0  0  0  0  0  0  0  0  0  0  0
   -6.6430   23.5060  -31.8750 C   0  0  0  0  0  0  0  0  0  0  0  0
   -5.3730   24.1510  -31.8020 O   0  0  0  0  0  0  0  0  0  0  0  0
   -4.6810   24.3600  -30.6040 C   0  0  0  0  0  0  0  0  0  0  0  0
   -3.8620   25.3160  -30.4940 O   0  0  0  0  0  0  0  0  0  0  0  0
   -4.9600   23.4620  -29.4330 C   0  0  2  0  0  0  0  0  0  0  0  0
   -4.2240   23.9450  -28.1690 C   0  0  0  0  0  0  0  0  0  0  0  0
   -2.7350   23.5890  -28.2380 C   0  0  0  0  0  0  0  0  0  0  0  0
   -2.5490   22.1680  -28.5370 N   0  0  0  0  0  0  0  0  0  0  0  0
   -3.3760   21.4880  -29.2730 C   0  0  0  0  0  0  0  0  0  0  0  0
   -4.5910   22.0800  -29.7520 N   0  0  0  0  0  0  0  0  0  0  0  0
   -5.4853   19.6824  -33.3485 H   0  0  0  0  0  0  0  0  0  0  0  0
   -6.9659   18.8370  -33.9141 H   0  0  0  0  0  0  0  0  0  0  0  0
   -6.9012   20.6322  -33.9141 H   0  0  0  0  0  0  0  0  0  0  0  0
   -8.1879   19.4110  -31.9793 H   0  0  0  0  0  0  0  0  0  0  0  0
   -6.5327   19.0672  -31.3389 H   0  0  0  0  0  0  0  0  0  0  0  0
   -8.6376   21.0166  -29.9536 H   0  0  0  0  0  0  0  0  0  0  0  0
   -8.3514   22.6394  -30.6702 H   0  0  0  0  0  0  0  0  0  0  0  0
  -10.4114   21.0429  -31.4275 H   0  0  0  0  0  0  0  0  0  0  0  0
   -9.5964   22.1787  -32.5555 H   0  0  0  0  0  0  0  0  0  0  0  0
   -9.1508   20.4386  -32.5555 H   0  0  0  0  0  0  0  0  0  0  0  0
   -5.4282   21.8320  -32.4974 H   0  0  0  0  0  0  0  0  0  0  0  0
   -7.0392   21.9528  -33.3117 H   0  0  0  0  0  0  0  0  0  0  0  0
   -7.2869   24.0573  -32.5760 H   0  0  0  0  0  0  0  0  0  0  0  0
   -7.0894   23.4951  -30.8697 H   0  0  0  0  0  0  0  0  0  0  0  0
   -6.0394   23.4991  -29.2245 H   0  0  0  0  0  0  0  0  0  0  0  0
   -4.3305   25.0366  -28.0844 H   0  0  0  0  0  0  0  0  0  0  0  0
   -4.6654   23.4487  -27.2922 H   0  0  0  0  0  0  0  0  0  0  0  0
   -2.2580   24.1882  -29.0276 H   0  0  0  0  0  0  0  0  0  0  0  0
   -2.2773   23.8046  -27.2612 H   0  0  0  0  0  0  0  0  0  0  0  0
   -3.1412   20.4450  -29.5319 H   0  0  0  0  0  0  0  0  0  0  0  0
   -5.2050   21.5230  -30.3860 H   0  0  0  0  0  0  0  0  0  0  0  0
  1  2  1  0
  2  3  1  0
  3  4  1  0
  4  5  1  0
  3  6  1  0
  6  7  1  0
  7  8  1  0
  8  9  1  0
  9 10  2  0
  9 11  1  0
 11 12  1  0
 12 13  1  0
 13 14  1  0
 14 15  2  0
 15 16  1  0
 16 11  1  0
  1 17  1  0
  1 18  1  0
  1 19  1  0
  2 20  1  0
  2 21  1  0
  4 22  1  0
  4 23  1  0
  5 24  1  0
  5 25  1  0
  5 26  1  0
  6 27  1  0
  6 28  1  0
  7 29  1  0
  7 30  1  0
 11 31  1  1
 12 32  1  0
 12 33  1  0
 13 34  1  0
 13 35  1  0
 15 36  1  0
 16 37  1  0
M  END
>  <UniqueID>  (49) 
48

>  <SMILES>  (49) 
CCN(CC)CCOC(=O)[C@@H]1CCN=CN1

>  <Energy>  (49) 
28.291559106671787

>  <Genealogy>  (49) 
CCN(CC)CCOC(=O)[C@@H]1CCN=CN1 (chirality)
CCN(CC)CCOC(=O)[C@@H]1CCN=CN1 (3D coordinates assigned)
CCN(CC)CCOC(=O)[C@@H]1CCN=CN1 (nonaromatic ring conformer: 28.291559106671787 kcal/mol)

>  <smiles>  (49) 
CCN(CC)CCOC(=O)C1CCN=CN1

>  <score_type>  (49) 
oracle

>  <origin>  (49) 
adg

>  <m_score__min__energy>  (49) 
-5.4699999999999998

>  <m_primary>  (49) 
energy

$$$$
