0:0
     RDKit          3D

 26 27  0  0  0  0  0  0  0  0999 V2000
   -3.2600   25.6570  -31.6010 H   0  0  0  0  0  0  0  0  0  0  0  0
   -3.8010   25.3840  -30.7890 O   0  0  0  0  0  0  0  0  0  0  0  0
   -4.8090   24.4270  -30.8740 C   0  0  0  0  0  0  0  0  0  0  0  0
   -4.4720   23.0820  -31.0410 C   0  0  0  0  0  0  0  0  0  0  0  0
   -3.4143   22.7871  -31.1060 H   0  0  0  0  0  0  0  0  0  0  0  0
   -5.4720   22.1080  -31.1260 C   0  0  0  0  0  0  0  0  0  0  0  0
   -5.1971   21.0520  -31.2653 H   0  0  0  0  0  0  0  0  0  0  0  0
   -6.8310   22.4730  -31.0340 C   0  0  0  0  0  0  0  0  0  0  0  0
   -7.9330   21.4820  -31.1300 C   0  0  0  0  0  0  0  0  0  0  0  0
   -8.5234   21.2731  -30.2257 H   0  0  0  0  0  0  0  0  0  0  0  0
   -8.2490   20.8270  -32.2580 C   0  0  0  0  0  0  0  0  0  0  0  0
   -9.1074   21.1873  -32.8439 H   0  0  0  0  0  0  0  0  0  0  0  0
   -7.5060   19.6440  -32.7600 C   0  0  0  0  0  0  0  0  0  0  0  0
   -7.8610   18.3700  -32.2870 C   0  0  0  0  0  0  0  0  0  0  0  0
   -8.6724   18.2678  -31.5513 H   0  0  0  0  0  0  0  0  0  0  0  0
   -7.2100   17.2620  -32.7310 N   0  0  0  0  0  0  0  0  0  0  0  0
   -6.2090   17.3400  -33.6450 C   0  0  0  0  0  0  0  0  0  0  0  0
   -5.6990   16.4252  -33.9812 H   0  0  0  0  0  0  0  0  0  0  0  0
   -5.8270   18.5800  -34.1580 C   0  0  0  0  0  0  0  0  0  0  0  0
   -5.0189   18.6477  -34.9013 H   0  0  0  0  0  0  0  0  0  0  0  0
   -6.4790   19.7340  -33.7200 C   0  0  0  0  0  0  0  0  0  0  0  0
   -6.1904   20.7151  -34.1251 H   0  0  0  0  0  0  0  0  0  0  0  0
   -7.1600   23.8300  -30.8830 C   0  0  0  0  0  0  0  0  0  0  0  0
   -8.2163   24.1326  -30.8319 H   0  0  0  0  0  0  0  0  0  0  0  0
   -6.1560   24.8000  -30.7970 C   0  0  0  0  0  0  0  0  0  0  0  0
   -6.4256   25.8587  -30.6685 H   0  0  0  0  0  0  0  0  0  0  0  0
  1  2  1  0
  2  3  1  0
  3  4  2  0
  4  5  1  0
  4  6  1  0
  6  7  1  0
  6  8  2  0
  8  9  1  0
  9 10  1  0
  9 11  2  0
 11 12  1  0
 11 13  1  0
 13 14  2  0
 14 15  1  0
 14 16  1  0
 16 17  2  0
 17 18  1  0
 17 19  1  0
 19 20  1  0
 19 21  2  0
 21 22  1  0
  8 23  1  0
 23 24  1  0
 23 25  2  0
 25 26  1  0
 25  3  1  0
 21 13  1  0
M  END
>  <UniqueID>  (1) 
1

>  <SMILES>  (1) 
Oc1ccc(/C=C/c2cccnc2)cc1

>  <Energy>  (1) 
32.22771165170693

>  <Genealogy>  (1) 
Oc1ccc(/C=C/c2cccnc2)cc1 (cis-trans isomerization)
Oc1ccc(/C=C/c2cccnc2)cc1 (3D coordinates assigned)
Oc1ccc(/C=C/c2cccnc2)cc1 (optimized conformer: 32.22771165170693 kcal/mol)

>  <smiles>  (1) 
Oc1ccc(C=Cc2cccnc2)cc1

>  <score_type>  (1) 
oracle

>  <origin>  (1) 
adg

>  <m_score__min__energy>  (1) 
-8.2100000000000009

>  <m_primary>  (1) 
energy

$$$$
1:0
     RDKit          3D

 39 41  0  0  0  0  0  0  0  0999 V2000
   -9.5060   22.6190  -32.3200 C   0  0  0  0  0  0  0  0  0  0  0  0
   -8.1210   22.7760  -31.7780 C   0  0  0  0  0  0  0  0  0  0  0  0
   -7.8440   22.4590  -30.4430 C   0  0  0  0  0  0  0  0  0  0  0  0
   -6.5460   22.6260  -29.9550 C   0  0  0  0  0  0  0  0  0  0  0  0
   -5.5310   23.1040  -30.7970 C   0  0  0  0  0  0  0  0  0  0  0  0
   -4.1510   23.2970  -30.2830 C   0  0  0  0  0  0  0  0  0  0  0  0
   -3.3790   22.1760  -29.9390 C   0  0  0  0  0  0  0  0  0  0  0  0
   -2.0740   22.3280  -29.4440 C   0  0  0  0  0  0  0  0  0  0  0  0
   -1.2580   21.1440  -29.0720 C   0  0  0  0  0  0  0  0  0  0  0  0
   -1.2960   20.6330  -27.7620 C   0  0  0  0  0  0  0  0  0  0  0  0
   -0.5280   19.5180  -27.4130 C   0  0  0  0  0  0  0  0  0  0  0  0
    0.2940   18.9010  -28.3640 C   0  0  0  0  0  0  0  0  0  0  0  0
    1.2470   17.4870  -27.9240 S   0  0  0  0  0  0  0  0  0  0  0  0
    0.2480   16.3640  -27.0700 N   0  0  0  0  0  0  0  0  0  0  0  0
    1.7900   16.8330  -29.1630 O   0  0  0  0  0  0  0  0  0  0  0  0
    2.4000   17.9040  -27.0540 O   0  0  0  0  0  0  0  0  0  0  0  0
    0.3310   19.4000  -29.6720 C   0  0  0  0  0  0  0  0  0  0  0  0
   -0.4360   20.5140  -30.0240 C   0  0  0  0  0  0  0  0  0  0  0  0
   -1.5600   23.6260  -29.3080 C   0  0  0  0  0  0  0  0  0  0  0  0
   -2.3130   24.7030  -29.6530 N   0  0  0  0  0  0  0  0  0  0  0  0
   -3.5790   24.5790  -30.1350 C   0  0  0  0  0  0  0  0  0  0  0  0
   -4.2360   25.6420  -30.4770 N   0  0  0  0  0  0  0  0  0  0  0  0
   -5.8590   23.4220  -32.1260 C   0  0  0  0  0  0  0  0  0  0  0  0
   -7.1290   23.2530  -32.5780 N   0  0  0  0  0  0  0  0  0  0  0  0
  -10.2190   22.5382  -31.4863 H   0  0  0  0  0  0  0  0  0  0  0  0
   -9.7600   23.4941  -32.9362 H   0  0  0  0  0  0  0  0  0  0  0  0
   -9.5577   21.7092  -32.9362 H   0  0  0  0  0  0  0  0  0  0  0  0
   -8.6407   22.0821  -29.7848 H   0  0  0  0  0  0  0  0  0  0  0  0
   -6.3189   22.3818  -28.9068 H   0  0  0  0  0  0  0  0  0  0  0  0
   -3.8013   21.1673  -30.0586 H   0  0  0  0  0  0  0  0  0  0  0  0
   -1.9346   21.1142  -27.0066 H   0  0  0  0  0  0  0  0  0  0  0  0
   -0.5697   19.1238  -26.3869 H   0  0  0  0  0  0  0  0  0  0  0  0
    0.8450   15.9240  -26.3340 H   0  0  0  0  0  0  0  0  0  0  0  0
   -0.4820   16.9220  -26.5740 H   0  0  0  0  0  0  0  0  0  0  0  0
    0.9668   18.9128  -30.4259 H   0  0  0  0  0  0  0  0  0  0  0  0
   -0.3966   20.9010  -31.0529 H   0  0  0  0  0  0  0  0  0  0  0  0
   -0.5413   23.7728  -28.9198 H   0  0  0  0  0  0  0  0  0  0  0  0
   -4.2350   25.9950  -31.4610 H   0  0  0  0  0  0  0  0  0  0  0  0
   -5.0838   23.8096  -32.8034 H   0  0  0  0  0  0  0  0  0  0  0  0
  1  2  1  0
  2  3  2  0
  3  4  1  0
  4  5  2  0
  5  6  1  0
  6  7  2  0
  7  8  1  0
  8  9  1  0
  9 10  2  0
 10 11  1  0
 11 12  2  0
 12 13  1  0
 13 14  1  0
 13 15  2  0
 13 16  2  0
 12 17  1  0
 17 18  2  0
  8 19  2  0
 19 20  1  0
 20 21  1  0
 21 22  2  3
  5 23  1  0
 23 24  2  0
 24  2  1  0
 21  6  1  0
 18  9  1  0
  1 25  1  0
  1 26  1  0
  1 27  1  0
  3 28  1  0
  4 29  1  0
  7 30  1  0
 10 31  1  0
 11 32  1  0
 14 33  1  0
 14 34  1  0
 17 35  1  0
 18 36  1  0
 19 37  1  0
 22 38  1  0
 23 39  1  0
M  CHG  1  20  -1
M  END
>  <UniqueID>  (2) 
2

>  <SMILES>  (2) 
Cc1ccc(-c2cc(-c3ccc(S(N)(=O)=O)cc3)c[n-]c2=N)cn1

>  <Energy>  (2) 
52.920659091276995

>  <Genealogy>  (2) 
Cc1ccc(-c2cc(-c3ccc(S(N)(=O)=O)cc3)c[n-]c2=N)cn1 (protonated)
Cc1ccc(-c2cc(-c3ccc(S(N)(=O)=O)cc3)c[n-]c2=N)cn1 (3D coordinates assigned)
Cc1ccc(-c2cc(-c3ccc(S(N)(=O)=O)cc3)c[n-]c2=N)cn1 (optimized conformer: 52.920659091276995 kcal/mol)

>  <smiles>  (2) 
Cc1ccc(-c2cc(-c3ccc(S(N)(=O)=O)cc3)c[nH]c2=N)cn1

>  <score_type>  (2) 
oracle

>  <origin>  (2) 
adg

>  <m_score__min__energy>  (2) 
-9.6600000000000001

>  <m_primary>  (2) 
energy

$$$$
2:0
     RDKit          3D

 44 46  0  0  0  0  0  0  0  0999 V2000
   -6.1400   18.2940  -31.1880 O   0  0  0  0  0  0  0  0  0  0  0  0
   -6.5620   19.0050  -32.1420 C   0  0  0  0  0  0  0  0  0  0  0  0
   -7.1020   18.3700  -33.3110 N   0  0  0  0  0  0  0  0  0  0  0  0
   -7.1030   16.9130  -33.4580 C   0  0  0  0  0  0  0  0  0  0  0  0
   -6.0320   16.4420  -34.4480 C   0  0  0  0  0  0  0  0  0  0  0  0
   -4.6560   16.5130  -33.8470 C   0  0  0  0  0  0  0  0  0  0  0  0
   -3.9210   15.4440  -33.3420 C   0  0  0  0  0  0  0  0  0  0  0  0
   -2.6920   15.8560  -32.9530 N   0  0  0  0  0  0  0  0  0  0  0  0
   -2.6420   17.1740  -33.2130 C   0  0  0  0  0  0  0  0  0  0  0  0
   -1.5640   18.0340  -33.0090 C   0  0  0  0  0  0  0  0  0  0  0  0
   -1.7180   19.3820  -33.3800 C   0  0  0  0  0  0  0  0  0  0  0  0
   -2.9330   19.8350  -33.9400 C   0  0  0  0  0  0  0  0  0  0  0  0
   -4.0030   18.9460  -34.1380 C   0  0  0  0  0  0  0  0  0  0  0  0
   -3.8210   17.6130  -33.7620 C   0  0  0  0  0  0  0  0  0  0  0  0
   -6.5180   20.4820  -32.0210 C   0  0  0  0  0  0  0  0  0  0  0  0
   -5.2900   21.1330  -31.8200 C   0  0  0  0  0  0  0  0  0  0  0  0
   -5.2360   22.5240  -31.6900 C   0  0  0  0  0  0  0  0  0  0  0  0
   -6.4030   23.2940  -31.7600 C   0  0  0  0  0  0  0  0  0  0  0  0
   -6.2840   24.6850  -31.6130 O   0  0  0  0  0  0  0  0  0  0  0  0
   -6.1040   25.3890  -30.3820 C   0  0  0  0  0  0  0  0  0  0  0  0
   -4.7100   25.1430  -29.8090 C   0  0  0  0  0  0  0  0  0  0  0  0
   -3.7370   25.2940  -30.8030 O   0  0  0  0  0  0  0  0  0  0  0  0
   -7.6330   22.6470  -31.9870 C   0  0  0  0  0  0  0  0  0  0  0  0
   -7.6880   21.2560  -32.1180 C   0  0  0  0  0  0  0  0  0  0  0  0
   -7.5540   18.9570  -34.0440 H   0  0  0  0  0  0  0  0  0  0  0  0
   -6.9073   16.4557  -32.4769 H   0  0  0  0  0  0  0  0  0  0  0  0
   -8.0862   16.6084  -33.8461 H   0  0  0  0  0  0  0  0  0  0  0  0
   -6.2434   15.4013  -34.7348 H   0  0  0  0  0  0  0  0  0  0  0  0
   -6.0593   17.1038  -35.3263 H   0  0  0  0  0  0  0  0  0  0  0  0
   -4.2878   14.4095  -33.2693 H   0  0  0  0  0  0  0  0  0  0  0  0
   -1.9340   15.2640  -32.5500 H   0  0  0  0  0  0  0  0  0  0  0  0
   -0.6226   17.6699  -32.5717 H   0  0  0  0  0  0  0  0  0  0  0  0
   -0.8871   20.0877  -33.2331 H   0  0  0  0  0  0  0  0  0  0  0  0
   -3.0425   20.8922  -34.2234 H   0  0  0  0  0  0  0  0  0  0  0  0
   -4.9527   19.2885  -34.5747 H   0  0  0  0  0  0  0  0  0  0  0  0
   -4.3629   20.5436  -31.7644 H   0  0  0  0  0  0  0  0  0  0  0  0
   -4.2664   23.0185  -31.5311 H   0  0  0  0  0  0  0  0  0  0  0  0
   -6.2340   26.4664  -30.5616 H   0  0  0  0  0  0  0  0  0  0  0  0
   -6.8490   25.0259  -29.6587 H   0  0  0  0  0  0  0  0  0  0  0  0
   -4.5179   25.8653  -29.0019 H   0  0  0  0  0  0  0  0  0  0  0  0
   -4.6625   24.1158  -29.4184 H   0  0  0  0  0  0  0  0  0  0  0  0
   -4.2130   25.6400  -31.6020 H   0  0  0  0  0  0  0  0  0  0  0  0
   -8.5566   23.2398  -32.0617 H   0  0  0  0  0  0  0  0  0  0  0  0
   -8.6546   20.7630  -32.2985 H   0  0  0  0  0  0  0  0  0  0  0  0
  1  2  2  0
  2  3  1  0
  3  4  1  0
  4  5  1  0
  5  6  1  0
  6  7  2  0
  7  8  1  0
  8  9  1  0
  9 10  2  0
 10 11  1  0
 11 12  2  0
 12 13  1  0
 13 14  2  0
  2 15  1  0
 15 16  2  0
 16 17  1  0
 17 18  2  0
 18 19  1  0
 19 20  1  0
 20 21  1  0
 21 22  1  0
 18 23  1  0
 23 24  2  0
 14  6  1  0
 24 15  1  0
 14  9  1  0
  3 25  1  0
  4 26  1  0
  4 27  1  0
  5 28  1  0
  5 29  1  0
  7 30  1  0
  8 31  1  0
 10 32  1  0
 11 33  1  0
 12 34  1  0
 13 35  1  0
 16 36  1  0
 17 37  1  0
 20 38  1  0
 20 39  1  0
 21 40  1  0
 21 41  1  0
 22 42  1  0
 23 43  1  0
 24 44  1  0
M  END
>  <UniqueID>  (3) 
3

>  <SMILES>  (3) 
O=C(NCCc1c[nH]c2ccccc12)c1ccc(OCCO)cc1

>  <Energy>  (3) 
75.32936635794299

>  <Genealogy>  (3) 
O=C(NCCc1c[nH]c2ccccc12)c1ccc(OCCO)cc1 (3D coordinates assigned)
O=C(NCCc1c[nH]c2ccccc12)c1ccc(OCCO)cc1 (optimized conformer: 75.32936635794299 kcal/mol)

>  <smiles>  (3) 
O=C(NCCc1c[nH]c2ccccc12)c1ccc(OCCO)cc1

>  <score_type>  (3) 
oracle

>  <origin>  (3) 
adg

>  <m_score__min__energy>  (3) 
-8.3599999999999994

>  <m_primary>  (3) 
energy

$$$$
3:0
     RDKit          3D

 34 35  0  0  0  0  0  0  0  0999 V2000
   -8.1720   23.2480  -31.9680 C   0  0  0  0  0  0  0  0  0  0  0  0
   -7.3890   22.6590  -30.8690 N   0  0  0  0  0  0  0  0  0  0  0  0
   -7.0930   23.6730  -29.8360 C   0  0  0  0  0  0  0  0  0  0  0  0
   -5.6820   24.1660  -29.9520 C   0  0  0  0  0  0  0  0  0  0  0  0
   -5.1890   25.0910  -30.8530 C   0  0  0  0  0  0  0  0  0  0  0  0
   -3.8810   25.2980  -30.6000 N   0  0  0  0  0  0  0  0  0  0  0  0
   -3.5440   24.5270  -29.5780 N   0  0  0  0  0  0  0  0  0  0  0  0
   -2.2230   24.5230  -28.9640 C   0  0  0  0  0  0  0  0  0  0  0  0
   -4.6150   23.8370  -29.1440 C   0  0  0  0  0  0  0  0  0  0  0  0
   -6.1850   21.9470  -31.3650 C   0  0  0  0  0  0  0  0  0  0  0  0
   -6.4920   20.8260  -32.3220 C   0  0  0  0  0  0  0  0  0  0  0  0
   -7.7160   20.2120  -32.5300 C   0  0  0  0  0  0  0  0  0  0  0  0
   -7.5560   19.2510  -33.4560 N   0  0  0  0  0  0  0  0  0  0  0  0
   -6.2910   19.2410  -33.8450 N   0  0  0  0  0  0  0  0  0  0  0  0
   -5.7240   18.2800  -34.7840 C   0  0  0  0  0  0  0  0  0  0  0  0
   -5.6070   20.1790  -33.1640 C   0  0  0  0  0  0  0  0  0  0  0  0
   -8.9856   23.8600  -31.5515 H   0  0  0  0  0  0  0  0  0  0  0  0
   -7.5178   23.8798  -32.5868 H   0  0  0  0  0  0  0  0  0  0  0  0
   -8.5976   22.4443  -32.5868 H   0  0  0  0  0  0  0  0  0  0  0  0
   -7.7814   24.5222  -29.9585 H   0  0  0  0  0  0  0  0  0  0  0  0
   -7.2212   23.2109  -28.8461 H   0  0  0  0  0  0  0  0  0  0  0  0
   -5.7704   25.5797  -31.6487 H   0  0  0  0  0  0  0  0  0  0  0  0
   -2.3276   24.5233  -27.8690 H   0  0  0  0  0  0  0  0  0  0  0  0
   -1.6747   23.6232  -29.2797 H   0  0  0  0  0  0  0  0  0  0  0  0
   -1.6692   25.4195  -29.2797 H   0  0  0  0  0  0  0  0  0  0  0  0
   -4.6351   23.1362  -28.2964 H   0  0  0  0  0  0  0  0  0  0  0  0
   -5.5393   22.6743  -31.8788 H   0  0  0  0  0  0  0  0  0  0  0  0
   -5.6969   21.4951  -30.4889 H   0  0  0  0  0  0  0  0  0  0  0  0
   -8.6585   20.4674  -32.0236 H   0  0  0  0  0  0  0  0  0  0  0  0
   -8.2980   18.6040  -33.8090 H   0  0  0  0  0  0  0  0  0  0  0  0
   -5.2421   17.4633  -34.2266 H   0  0  0  0  0  0  0  0  0  0  0  0
   -6.5246   17.8695  -35.4168 H   0  0  0  0  0  0  0  0  0  0  0  0
   -4.9776   18.7823  -35.4168 H   0  0  0  0  0  0  0  0  0  0  0  0
   -4.5324   20.3932  -33.2605 H   0  0  0  0  0  0  0  0  0  0  0  0
  1  2  1  0
  2  3  1  0
  3  4  1  0
  4  5  1  0
  5  6  2  0
  6  7  1  0
  7  8  1  0
  7  9  1  0
  2 10  1  0
 10 11  1  0
 11 12  1  0
 12 13  2  0
 13 14  1  0
 14 15  1  0
 14 16  1  0
  9  4  2  0
 16 11  2  0
  1 17  1  0
  1 18  1  0
  1 19  1  0
  3 20  1  0
  3 21  1  0
  5 22  1  0
  8 23  1  0
  8 24  1  0
  8 25  1  0
  9 26  1  0
 10 27  1  0
 10 28  1  0
 12 29  1  0
 13 30  1  0
 15 31  1  0
 15 32  1  0
 15 33  1  0
 16 34  1  0
M  CHG  1  13   1
M  END
>  <UniqueID>  (4) 
4

>  <SMILES>  (4) 
CN(Cc1cnn(C)c1)Cc1c[nH+]n(C)c1

>  <Energy>  (4) 
93.0325760842042

>  <Genealogy>  (4) 
CN(Cc1cnn(C)c1)Cc1c[nH+]n(C)c1 (protonated)
CN(Cc1cnn(C)c1)Cc1c[nH+]n(C)c1 (3D coordinates assigned)
CN(Cc1cnn(C)c1)Cc1c[nH+]n(C)c1 (optimized conformer: 93.0325760842042 kcal/mol)

>  <smiles>  (4) 
CN(Cc1cnn(C)c1)Cc1cnn(C)c1

>  <score_type>  (4) 
oracle

>  <origin>  (4) 
adg

>  <m_score__min__energy>  (4) 
-5.9299999999999997

>  <m_primary>  (4) 
energy

$$$$
4:0
     RDKit          3D

 30 31  0  0  0  0  0  0  0  0999 V2000
   -3.8580   25.2960  -30.6930 O   0  0  0  0  0  0  0  0  0  0  0  0
   -4.9610   24.7810  -30.3650 C   0  0  0  0  0  0  0  0  0  0  0  0
   -5.9900   24.5800  -31.3410 N   0  0  0  0  0  0  0  0  0  0  0  0
   -6.5840   23.3260  -31.7060 C   0  0  0  0  0  0  0  0  0  0  0  0
   -5.7490   22.2860  -32.1390 C   0  0  0  0  0  0  0  0  0  0  0  0
   -6.2880   21.0430  -32.4840 C   0  0  0  0  0  0  0  0  0  0  0  0
   -7.6630   20.8240  -32.3840 C   0  0  0  0  0  0  0  0  0  0  0  0
   -8.5020   21.8450  -31.9290 C   0  0  0  0  0  0  0  0  0  0  0  0
   -9.8340   21.6240  -31.8120 F   0  0  0  0  0  0  0  0  0  0  0  0
   -7.9670   23.0910  -31.5850 C   0  0  0  0  0  0  0  0  0  0  0  0
   -5.1780   24.3400  -29.0190 N   0  0  0  0  0  0  0  0  0  0  0  0
   -4.1960   24.5420  -27.9570 C   0  0  0  0  0  0  0  0  0  0  0  0
   -2.9600   23.7250  -28.2260 C   0  0  0  0  0  0  0  0  0  0  0  0
   -2.9660   22.3380  -28.0050 C   0  0  0  0  0  0  0  0  0  0  0  0
   -1.8260   21.5760  -28.2770 C   0  0  0  0  0  0  0  0  0  0  0  0
   -0.6740   22.1910  -28.7740 C   0  0  0  0  0  0  0  0  0  0  0  0
   -0.6610   23.5700  -29.0010 C   0  0  0  0  0  0  0  0  0  0  0  0
   -1.7980   24.3370  -28.7320 C   0  0  0  0  0  0  0  0  0  0  0  0
   -1.7690   25.6740  -28.9650 F   0  0  0  0  0  0  0  0  0  0  0  0
   -4.6633   22.4491  -32.2076 H   0  0  0  0  0  0  0  0  0  0  0  0
   -5.6275   20.2363  -32.8348 H   0  0  0  0  0  0  0  0  0  0  0  0
   -8.0862   19.8478  -32.6633 H   0  0  0  0  0  0  0  0  0  0  0  0
   -8.6289   23.8897  -31.2188 H   0  0  0  0  0  0  0  0  0  0  0  0
   -6.0770   23.8580  -28.7880 H   0  0  0  0  0  0  0  0  0  0  0  0
   -3.9243   25.6070  -27.9117 H   0  0  0  0  0  0  0  0  0  0  0  0
   -4.6339   24.2238  -26.9994 H   0  0  0  0  0  0  0  0  0  0  0  0
   -3.8715   21.8493  -27.6162 H   0  0  0  0  0  0  0  0  0  0  0  0
   -1.8359   20.4905  -28.0995 H   0  0  0  0  0  0  0  0  0  0  0  0
    0.2224   21.5900  -28.9865 H   0  0  0  0  0  0  0  0  0  0  0  0
    0.2465   24.0530  -29.3924 H   0  0  0  0  0  0  0  0  0  0  0  0
  1  2  2  0
  2  3  1  0
  3  4  1  0
  4  5  2  0
  5  6  1  0
  6  7  2  0
  7  8  1  0
  8  9  1  0
  8 10  2  0
  2 11  1  0
 11 12  1  0
 12 13  1  0
 13 14  2  0
 14 15  1  0
 15 16  2  0
 16 17  1  0
 17 18  2  0
 18 19  1  0
 10  4  1  0
 18 13  1  0
  5 20  1  0
  6 21  1  0
  7 22  1  0
 10 23  1  0
 11 24  1  0
 12 25  1  0
 12 26  1  0
 14 27  1  0
 15 28  1  0
 16 29  1  0
 17 30  1  0
M  CHG  1   3  -1
M  END
>  <UniqueID>  (5) 
5

>  <SMILES>  (5) 
O=C([N-]c1cccc(F)c1)NCc1ccccc1F

>  <Energy>  (5) 
31.502443610648122

>  <Genealogy>  (5) 
O=C([N-]c1cccc(F)c1)NCc1ccccc1F (protonated)
O=C([N-]c1cccc(F)c1)NCc1ccccc1F (3D coordinates assigned)
O=C([N-]c1cccc(F)c1)NCc1ccccc1F (optimized conformer: 31.502443610648122 kcal/mol)

>  <smiles>  (5) 
O=C(NCc1ccccc1F)Nc1cccc(F)c1

>  <score_type>  (5) 
oracle

>  <origin>  (5) 
adg

>  <m_score__min__energy>  (5) 
-8.0099999999999998

>  <m_primary>  (5) 
energy

$$$$
5:0
     RDKit          3D

 43 45  0  0  0  0  0  0  0  0999 V2000
   -0.1430   18.4510  -28.1310 C   0  0  0  0  0  0  0  0  0  0  0  0
   -0.6170   19.6570  -27.5400 O   0  0  0  0  0  0  0  0  0  0  0  0
   -1.5120   20.5430  -28.1570 C   0  0  0  0  0  0  0  0  0  0  0  0
   -2.6510   21.0420  -27.5020 C   0  0  0  0  0  0  0  0  0  0  0  0
   -3.5110   21.9250  -28.1590 C   0  0  0  0  0  0  0  0  0  0  0  0
   -3.2460   22.3600  -29.4760 C   0  0  0  0  0  0  0  0  0  0  0  0
   -4.2530   23.2940  -30.1790 C   0  0  0  0  0  0  0  0  0  0  0  0
   -3.6510   24.6940  -30.2530 C   0  0  0  0  0  0  0  0  0  0  0  0
   -4.2880   25.6440  -30.7850 O   0  0  0  0  0  0  0  0  0  0  0  0
   -2.3450   24.9210  -29.7040 N   0  0  0  0  0  0  0  0  0  0  0  0
   -2.0360   25.2720  -28.3480 C   0  0  0  0  0  0  0  0  0  0  0  0
   -0.9000   26.0530  -28.0990 C   0  0  0  0  0  0  0  0  0  0  0  0
   -0.5770   26.4340  -26.7930 C   0  0  0  0  0  0  0  0  0  0  0  0
   -1.3960   26.0510  -25.7280 C   0  0  0  0  0  0  0  0  0  0  0  0
   -2.5460   25.2940  -25.9700 C   0  0  0  0  0  0  0  0  0  0  0  0
   -2.8720   24.9090  -27.2750 C   0  0  0  0  0  0  0  0  0  0  0  0
   -4.5770   22.8810  -31.6520 C   0  0  0  0  0  0  0  0  0  0  0  0
   -5.8480   22.0170  -31.7280 C   0  0  0  0  0  0  0  0  0  0  0  0
   -7.0170   22.6940  -31.2820 O   0  0  0  0  0  0  0  0  0  0  0  0
   -6.7900   23.6100  -30.2170 C   0  0  0  0  0  0  0  0  0  0  0  0
   -5.5670   23.2770  -29.3420 C   0  0  0  0  0  0  0  0  0  0  0  0
   -2.1180   21.8180  -30.1330 C   0  0  0  0  0  0  0  0  0  0  0  0
   -1.2600   20.9350  -29.4740 C   0  0  0  0  0  0  0  0  0  0  0  0
    0.1365   17.7400  -27.3396 H   0  0  0  0  0  0  0  0  0  0  0  0
   -0.9356   18.0122  -28.7549 H   0  0  0  0  0  0  0  0  0  0  0  0
    0.7362   18.6693  -28.7549 H   0  0  0  0  0  0  0  0  0  0  0  0
   -2.8661   20.7359  -26.4676 H   0  0  0  0  0  0  0  0  0  0  0  0
   -4.4110   22.2881  -27.6411 H   0  0  0  0  0  0  0  0  0  0  0  0
   -0.2587   26.3682  -28.9353 H   0  0  0  0  0  0  0  0  0  0  0  0
    0.3237   27.0365  -26.6038 H   0  0  0  0  0  0  0  0  0  0  0  0
   -1.1363   26.3448  -24.7003 H   0  0  0  0  0  0  0  0  0  0  0  0
   -3.1960   25.0004  -25.1326 H   0  0  0  0  0  0  0  0  0  0  0  0
   -3.7829   24.3218  -27.4629 H   0  0  0  0  0  0  0  0  0  0  0  0
   -4.7259   23.7898  -32.2537 H   0  0  0  0  0  0  0  0  0  0  0  0
   -3.7337   22.2898  -32.0385 H   0  0  0  0  0  0  0  0  0  0  0  0
   -5.9997   21.7105  -32.7735 H   0  0  0  0  0  0  0  0  0  0  0  0
   -5.6963   21.1556  -31.0610 H   0  0  0  0  0  0  0  0  0  0  0  0
   -6.6417   24.6105  -30.6493 H   0  0  0  0  0  0  0  0  0  0  0  0
   -7.6708   23.5532  -29.5606 H   0  0  0  0  0  0  0  0  0  0  0  0
   -5.4888   24.0220  -28.5365 H   0  0  0  0  0  0  0  0  0  0  0  0
   -5.7014   22.2677  -28.9257 H   0  0  0  0  0  0  0  0  0  0  0  0
   -1.9132   22.0955  -31.1775 H   0  0  0  0  0  0  0  0  0  0  0  0
   -0.3755   20.5436  -29.9979 H   0  0  0  0  0  0  0  0  0  0  0  0
  1  2  1  0
  2  3  1  0
  3  4  2  0
  4  5  1  0
  5  6  2  0
  6  7  1  0
  7  8  1  0
  8  9  2  0
  8 10  1  0
 10 11  1  0
 11 12  2  0
 12 13  1  0
 13 14  2  0
 14 15  1  0
 15 16  2  0
  7 17  1  0
 17 18  1  0
 18 19  1  0
 19 20  1  0
 20 21  1  0
  6 22  1  0
 22 23  2  0
 23  3  1  0
 21  7  1  0
 16 11  1  0
  1 24  1  0
  1 25  1  0
  1 26  1  0
  4 27  1  0
  5 28  1  0
 12 29  1  0
 13 30  1  0
 14 31  1  0
 15 32  1  0
 16 33  1  0
 17 34  1  0
 17 35  1  0
 18 36  1  0
 18 37  1  0
 20 38  1  0
 20 39  1  0
 21 40  1  0
 21 41  1  0
 22 42  1  0
 23 43  1  0
M  CHG  1  10  -1
M  END
>  <UniqueID>  (6) 
6

>  <SMILES>  (6) 
COc1ccc(C2(C(=O)[N-]c3ccccc3)CCOCC2)cc1

>  <Energy>  (6) 
66.4909361324023

>  <Genealogy>  (6) 
COc1ccc(C2(C(=O)[N-]c3ccccc3)CCOCC2)cc1 (protonated)
COc1ccc(C2(C(=O)[N-]c3ccccc3)CCOCC2)cc1 (3D coordinates assigned)
COc1ccc(C2(C(=O)[N-]c3ccccc3)CCOCC2)cc1 (nonaromatic ring conformer: 66.4909361324023 kcal/mol)

>  <smiles>  (6) 
COc1ccc(C2(C(=O)Nc3ccccc3)CCOCC2)cc1

>  <score_type>  (6) 
oracle

>  <origin>  (6) 
adg

>  <m_score__min__energy>  (6) 
-9.0199999999999996

>  <m_primary>  (6) 
energy

$$$$
6:0
     RDKit          3D

 34 36  0  0  0  0  0  0  0  0999 V2000
   -1.2120   26.8060  -24.8160 C   0  0  0  0  0  0  0  0  0  0  0  0
   -1.1900   25.4450  -25.5030 C   0  0  0  0  0  0  0  0  0  0  0  0
   -1.8390   25.5170  -26.8090 N   0  0  0  0  0  0  0  0  0  0  0  0
   -1.1530   25.2240  -28.0330 C   0  0  0  0  0  0  0  0  0  0  0  0
    0.0580   24.8730  -28.0120 O   0  0  0  0  0  0  0  0  0  0  0  0
   -1.8700   25.2930  -29.2710 N   0  0  0  0  0  0  0  0  0  0  0  0
   -2.8910   24.3890  -29.7210 C   0  0  0  0  0  0  0  0  0  0  0  0
   -4.1260   24.9140  -30.1160 C   0  0  0  0  0  0  0  0  0  0  0  0
   -5.1410   24.0710  -30.5780 C   0  0  0  0  0  0  0  0  0  0  0  0
   -4.9280   22.6860  -30.6690 C   0  0  0  0  0  0  0  0  0  0  0  0
   -5.9950   21.7890  -31.1580 C   0  0  0  0  0  0  0  0  0  0  0  0
   -7.2310   22.2260  -31.5280 N   0  0  0  0  0  0  0  0  0  0  0  0
   -7.8260   21.0760  -31.8850 C   0  0  0  0  0  0  0  0  0  0  0  0
   -9.0930   20.9280  -32.3440 N   0  0  0  0  0  0  0  0  0  0  0  0
   -9.5330   19.6710  -32.6630 C   0  0  0  0  0  0  0  0  0  0  0  0
   -8.6790   18.5510  -32.5160 C   0  0  0  0  0  0  0  0  0  0  0  0
   -7.3680   18.7300  -32.0380 C   0  0  0  0  0  0  0  0  0  0  0  0
   -6.9800   20.0290  -31.7320 C   0  0  0  0  0  0  0  0  0  0  0  0
   -5.8420   20.4760  -31.2780 O   0  0  0  0  0  0  0  0  0  0  0  0
   -3.6780   22.1610  -30.2970 C   0  0  0  0  0  0  0  0  0  0  0  0
   -2.6650   23.0050  -29.8330 C   0  0  0  0  0  0  0  0  0  0  0  0
   -1.2097   26.6661  -23.7249 H   0  0  0  0  0  0  0  0  0  0  0  0
   -0.3230   27.3814  -25.1137 H   0  0  0  0  0  0  0  0  0  0  0  0
   -2.1191   27.3524  -25.1137 H   0  0  0  0  0  0  0  0  0  0  0  0
   -0.1463   25.1239  -25.6354 H   0  0  0  0  0  0  0  0  0  0  0  0
   -1.7342   24.7230  -24.8764 H   0  0  0  0  0  0  0  0  0  0  0  0
   -2.8270   25.8540  -26.8600 H   0  0  0  0  0  0  0  0  0  0  0  0
   -4.2999   25.9989  -30.0626 H   0  0  0  0  0  0  0  0  0  0  0  0
   -6.1124   24.4952  -30.8720 H   0  0  0  0  0  0  0  0  0  0  0  0
  -10.5581   19.5302  -33.0364 H   0  0  0  0  0  0  0  0  0  0  0  0
   -9.0395   17.5444  -32.7747 H   0  0  0  0  0  0  0  0  0  0  0  0
   -6.6810   17.8802  -31.9121 H   0  0  0  0  0  0  0  0  0  0  0  0
   -3.4959   21.0787  -30.3716 H   0  0  0  0  0  0  0  0  0  0  0  0
   -1.6871   22.5853  -29.5543 H   0  0  0  0  0  0  0  0  0  0  0  0
  1  2  1  0
  2  3  1  0
  3  4  1  0
  4  5  2  0
  4  6  1  0
  6  7  1  0
  7  8  2  0
  8  9  1  0
  9 10  2  0
 10 11  1  0
 11 12  2  0
 12 13  1  0
 13 14  2  0
 14 15  1  0
 15 16  2  0
 16 17  1  0
 17 18  2  0
 18 19  1  0
 10 20  1  0
 20 21  2  0
 21  7  1  0
 19 11  1  0
 18 13  1  0
  1 22  1  0
  1 23  1  0
  1 24  1  0
  2 25  1  0
  2 26  1  0
  3 27  1  0
  8 28  1  0
  9 29  1  0
 15 30  1  0
 16 31  1  0
 17 32  1  0
 20 33  1  0
 21 34  1  0
M  CHG  1   6  -1
M  END
>  <UniqueID>  (7) 
7

>  <SMILES>  (7) 
CCNC(=O)[N-]c1ccc(-c2nc3ncccc3o2)cc1

>  <Energy>  (7) 
74.65707491004655

>  <Genealogy>  (7) 
CCNC(=O)[N-]c1ccc(-c2nc3ncccc3o2)cc1 (protonated)
CCNC(=O)[N-]c1ccc(-c2nc3ncccc3o2)cc1 (3D coordinates assigned)
CCNC(=O)[N-]c1ccc(-c2nc3ncccc3o2)cc1 (optimized conformer: 74.65707491004655 kcal/mol)

>  <smiles>  (7) 
CCNC(=O)Nc1ccc(-c2nc3ncccc3o2)cc1

>  <score_type>  (7) 
oracle

>  <origin>  (7) 
adg

>  <m_score__min__energy>  (7) 
-7.8899999999999997

>  <m_primary>  (7) 
energy

$$$$
7:0
     RDKit          3D

 28 29  0  0  0  0  0  0  0  0999 V2000
   -9.4120   22.0140  -31.5970 C   0  0  0  0  0  0  0  0  0  0  0  0
   -8.3020   23.0600  -31.6510 C   0  0  0  0  0  0  0  0  0  0  0  0
   -6.9930   22.4390  -32.0880 C   0  0  0  0  0  0  0  0  0  0  0  0
   -7.0320   21.1770  -32.6990 C   0  0  0  0  0  0  0  0  0  0  0  0
   -5.8520   20.5350  -33.0810 C   0  0  0  0  0  0  0  0  0  0  0  0
   -5.8820   19.2730  -33.6950 C   0  0  0  0  0  0  0  0  0  0  0  0
   -4.6880   18.6480  -34.0650 C   0  0  0  0  0  0  0  0  0  0  0  0
   -3.4630   19.2750  -33.8250 C   0  0  0  0  0  0  0  0  0  0  0  0
   -3.4250   20.5310  -33.2140 C   0  0  0  0  0  0  0  0  0  0  0  0
   -4.6180   21.1710  -32.8370 C   0  0  0  0  0  0  0  0  0  0  0  0
   -4.5890   22.3950  -32.2390 N   0  0  0  0  0  0  0  0  0  0  0  0
   -5.7300   23.0480  -31.8620 C   0  0  0  0  0  0  0  0  0  0  0  0
   -5.6040   24.4070  -31.2080 C   0  0  0  0  0  0  0  0  0  0  0  0
   -4.2630   24.8000  -31.1390 O   0  0  0  0  0  0  0  0  0  0  0  0
   -9.6520   21.7879  -30.5476 H   0  0  0  0  0  0  0  0  0  0  0  0
  -10.3080   22.4038  -32.1022 H   0  0  0  0  0  0  0  0  0  0  0  0
   -9.0761   21.0965  -32.1022 H   0  0  0  0  0  0  0  0  0  0  0  0
   -8.5835   23.8468  -32.3664 H   0  0  0  0  0  0  0  0  0  0  0  0
   -8.1703   23.4838  -30.6445 H   0  0  0  0  0  0  0  0  0  0  0  0
   -8.0010   20.6884  -32.8790 H   0  0  0  0  0  0  0  0  0  0  0  0
   -6.8449   18.7762  -33.8848 H   0  0  0  0  0  0  0  0  0  0  0  0
   -4.7129   17.6594  -34.5467 H   0  0  0  0  0  0  0  0  0  0  0  0
   -2.5260   18.7787  -34.1177 H   0  0  0  0  0  0  0  0  0  0  0  0
   -2.4578   21.0206  -33.0274 H   0  0  0  0  0  0  0  0  0  0  0  0
   -3.6620   22.8480  -32.0630 H   0  0  0  0  0  0  0  0  0  0  0  0
   -6.1668   25.1453  -31.7981 H   0  0  0  0  0  0  0  0  0  0  0  0
   -6.0080   24.3469  -30.1866 H   0  0  0  0  0  0  0  0  0  0  0  0
   -4.2000   25.6740  -31.6070 H   0  0  0  0  0  0  0  0  0  0  0  0
  1  2  1  0
  2  3  1  0
  3  4  2  0
  4  5  1  0
  5  6  2  0
  6  7  1  0
  7  8  2  0
  8  9  1  0
  9 10  2  0
 10 11  1  0
 11 12  2  0
 12 13  1  0
 13 14  1  0
 12  3  1  0
 10  5  1  0
  1 15  1  0
  1 16  1  0
  1 17  1  0
  2 18  1  0
  2 19  1  0
  4 20  1  0
  6 21  1  0
  7 22  1  0
  8 23  1  0
  9 24  1  0
 11 25  1  0
 13 26  1  0
 13 27  1  0
 14 28  1  0
M  CHG  1  11   1
M  END
>  <UniqueID>  (8) 
8

>  <SMILES>  (8) 
CCc1cc2ccccc2[nH+]c1CO

>  <Energy>  (8) 
30.143365102124953

>  <Genealogy>  (8) 
CCc1cc2ccccc2[nH+]c1CO (protonated)
CCc1cc2ccccc2[nH+]c1CO (3D coordinates assigned)
CCc1cc2ccccc2[nH+]c1CO (optimized conformer: 30.143365102124953 kcal/mol)

>  <smiles>  (8) 
CCc1cc2ccccc2nc1CO

>  <score_type>  (8) 
oracle

>  <origin>  (8) 
adg

>  <m_score__min__energy>  (8) 
-5.7999999999999998

>  <m_primary>  (8) 
energy

$$$$
8:0
     RDKit          3D

 45 47  0  0  0  0  0  0  0  0999 V2000
   -5.4600   25.4690  -30.6120 C   0  0  0  0  0  0  0  0  0  0  0  0
   -4.9760   24.2520  -31.1680 O   0  0  0  0  0  0  0  0  0  0  0  0
   -5.7900   23.1320  -31.3710 C   0  0  0  0  0  0  0  0  0  0  0  0
   -6.9410   22.9790  -30.6560 N   0  0  0  0  0  0  0  0  0  0  0  0
   -7.7500   21.9000  -30.8140 C   0  0  0  0  0  0  0  0  0  0  0  0
   -7.4100   20.9000  -31.7270 C   0  0  0  0  0  0  0  0  0  0  0  0
   -8.4410   19.4960  -31.9280 Cl  0  0  0  0  0  0  0  0  0  0  0  0
   -6.2370   21.0270  -32.4730 C   0  0  0  0  0  0  0  0  0  0  0  0
   -5.4200   22.1560  -32.3140 C   0  0  0  0  0  0  0  0  0  0  0  0
   -4.1360   22.2800  -33.0940 C   0  0  0  0  0  0  0  0  0  0  0  0
   -3.3060   21.0860  -32.9170 N   0  0  0  0  0  0  0  0  0  0  0  0
   -2.3370   20.9450  -31.8590 C   0  0  0  0  0  0  0  0  0  0  0  0
   -1.1620   20.1960  -32.0310 C   0  0  0  0  0  0  0  0  0  0  0  0
   -0.2380   20.0930  -30.9940 C   0  0  0  0  0  0  0  0  0  0  0  0
   -0.4710   20.7210  -29.7690 C   0  0  0  0  0  0  0  0  0  0  0  0
    0.4810   20.6110  -28.8110 F   0  0  0  0  0  0  0  0  0  0  0  0
   -1.6580   21.4620  -29.5520 C   0  0  0  0  0  0  0  0  0  0  0  0
   -1.9230   22.1810  -28.2190 C   0  0  2  0  0  0  0  0  0  0  0  0
   -1.5560   21.3310  -26.9890 C   0  0  0  0  0  0  0  0  0  0  0  0
   -3.3300   22.5630  -28.0940 N   0  0  0  0  0  0  0  0  0  0  0  0
   -3.3790   23.8500  -28.0180 C   0  0  0  0  0  0  0  0  0  0  0  0
   -4.6050   24.5640  -27.8920 N   0  0  0  0  0  0  0  0  0  0  0  0
   -2.1170   24.4920  -28.0740 N   0  0  0  0  0  0  0  0  0  0  0  0
   -1.2560   23.5360  -28.1820 C   0  0  0  0  0  0  0  0  0  0  0  0
    0.2120   23.8020  -28.3040 C   0  0  0  0  0  0  0  0  0  0  0  0
   -2.5710   21.5740  -30.6270 C   0  0  0  0  0  0  0  0  0  0  0  0
   -5.4350   25.4060  -29.5141 H   0  0  0  0  0  0  0  0  0  0  0  0
   -4.8250   26.3028  -30.9460 H   0  0  0  0  0  0  0  0  0  0  0  0
   -6.4942   25.6390  -30.9460 H   0  0  0  0  0  0  0  0  0  0  0  0
   -8.6734   21.8138  -30.2225 H   0  0  0  0  0  0  0  0  0  0  0  0
   -5.9528   20.2400  -33.1871 H   0  0  0  0  0  0  0  0  0  0  0  0
   -4.3721   22.4008  -34.1616 H   0  0  0  0  0  0  0  0  0  0  0  0
   -3.5808   23.1549  -32.7249 H   0  0  0  0  0  0  0  0  0  0  0  0
   -3.4220   20.2900  -33.5870 H   0  0  0  0  0  0  0  0  0  0  0  0
   -0.9705   19.6888  -32.9881 H   0  0  0  0  0  0  0  0  0  0  0  0
    0.6840   19.5114  -31.1415 H   0  0  0  0  0  0  0  0  0  0  0  0
   -1.7970   21.8893  -26.0724 H   0  0  0  0  0  0  0  0  0  0  0  0
   -2.1289   20.3922  -27.0079 H   0  0  0  0  0  0  0  0  0  0  0  0
   -0.4798   21.1042  -27.0079 H   0  0  0  0  0  0  0  0  0  0  0  0
   -4.6020   25.6060  -27.8340 H   0  0  0  0  0  0  0  0  0  0  0  0
   -5.5150   24.0520  -27.8570 H   0  0  0  0  0  0  0  0  0  0  0  0
    0.6548   23.8822  -27.3002 H   0  0  0  0  0  0  0  0  0  0  0  0
    0.6901   22.9759  -28.8507 H   0  0  0  0  0  0  0  0  0  0  0  0
    0.3699   24.7434  -28.8507 H   0  0  0  0  0  0  0  0  0  0  0  0
   -3.4867   22.1688  -30.4936 H   0  0  0  0  0  0  0  0  0  0  0  0
  1  2  1  0
  2  3  1  0
  3  4  2  0
  4  5  1  0
  5  6  2  0
  6  7  1  0
  6  8  1  0
  8  9  2  0
  9 10  1  0
 10 11  1  0
 11 12  1  0
 12 13  2  0
 13 14  1  0
 14 15  2  0
 15 16  1  0
 15 17  1  0
 17 18  1  0
 18 19  1  1
 18 20  1  0
 20 21  2  0
 21 22  1  0
 21 23  1  0
 23 24  2  0
 24 25  1  0
 17 26  2  0
  9  3  1  0
 26 12  1  0
 24 18  1  0
  1 27  1  0
  1 28  1  0
  1 29  1  0
  5 30  1  0
  8 31  1  0
 10 32  1  0
 10 33  1  0
 11 34  1  0
 13 35  1  0
 14 36  1  0
 19 37  1  0
 19 38  1  0
 19 39  1  0
 22 40  1  0
 22 41  1  0
 25 42  1  0
 25 43  1  0
 25 44  1  0
 26 45  1  0
M  END
>  <UniqueID>  (9) 
9

>  <SMILES>  (9) 
COc1ncc(Cl)cc1CNc1ccc(F)c([C@]2(C)N=C(N)N=C2C)c1

>  <Energy>  (9) 
64.86774495648557

>  <Genealogy>  (9) 
COc1ncc(Cl)cc1CNc1ccc(F)c([C@]2(C)N=C(N)N=C2C)c1 (chirality)
COc1ncc(Cl)cc1CNc1ccc(F)c([C@]2(C)N=C(N)N=C2C)c1 (3D coordinates assigned)
COc1ncc(Cl)cc1CNc1ccc(F)c([C@]2(C)N=C(N)N=C2C)c1 (nonaromatic ring conformer: 64.86774495648557 kcal/mol)

>  <smiles>  (9) 
COc1ncc(Cl)cc1CNc1ccc(F)c(C2(C)N=C(N)N=C2C)c1

>  <score_type>  (9) 
oracle

>  <origin>  (9) 
adg

>  <m_score__min__energy>  (9) 
-8.8599999999999994

>  <m_primary>  (9) 
energy

$$$$
9:0
     RDKit          3D

 42 43  0  0  0  0  0  0  0  0999 V2000
   -4.3560   21.5900  -32.7840 C   0  0  0  0  0  0  0  0  0  0  0  0
   -4.4800   22.5270  -31.7190 O   0  0  0  0  0  0  0  0  0  0  0  0
   -3.5050   22.7640  -30.7360 C   0  0  0  0  0  0  0  0  0  0  0  0
   -2.7980   21.6960  -30.1490 C   0  0  0  0  0  0  0  0  0  0  0  0
   -1.8340   21.9340  -29.1730 C   0  0  0  0  0  0  0  0  0  0  0  0
   -1.5570   23.2340  -28.7620 C   0  0  0  0  0  0  0  0  0  0  0  0
   -2.2450   24.3200  -29.3330 C   0  0  0  0  0  0  0  0  0  0  0  0
   -1.9840   25.6450  -28.9480 O   0  0  0  0  0  0  0  0  0  0  0  0
   -1.2240   26.0210  -27.8060 C   0  0  0  0  0  0  0  0  0  0  0  0
   -3.2200   24.0930  -30.3200 C   0  0  0  0  0  0  0  0  0  0  0  0
   -3.8640   25.2320  -30.8430 O   0  0  0  0  0  0  0  0  0  0  0  0
   -5.1520   25.7230  -30.4790 C   0  0  0  0  0  0  0  0  0  0  0  0
   -5.8760   24.6510  -29.6490 C   0  0  0  0  0  0  0  0  0  0  0  0
   -6.8920   23.8770  -30.3970 N   0  0  0  0  0  0  0  0  0  0  0  0
   -6.7720   24.0150  -31.8660 C   0  0  0  0  0  0  0  0  0  0  0  0
   -7.7570   23.0940  -32.6200 C   0  0  0  0  0  0  0  0  0  0  0  0
   -8.8830   22.6010  -31.7050 C   0  0  0  0  0  0  0  0  0  0  0  0
   -8.3200   21.8600  -30.4790 C   0  0  0  0  0  0  0  0  0  0  0  0
   -6.9930   22.4660  -29.9830 C   0  0  0  0  0  0  0  0  0  0  0  0
   -4.2223   20.5798  -32.3698 H   0  0  0  0  0  0  0  0  0  0  0  0
   -5.2653   21.6154  -33.4024 H   0  0  0  0  0  0  0  0  0  0  0  0
   -3.4846   21.8510  -33.4024 H   0  0  0  0  0  0  0  0  0  0  0  0
   -3.0097   20.6638  -30.4649 H   0  0  0  0  0  0  0  0  0  0  0  0
   -1.2888   21.0903  -28.7248 H   0  0  0  0  0  0  0  0  0  0  0  0
   -0.7969   23.4133  -27.9874 H   0  0  0  0  0  0  0  0  0  0  0  0
   -1.7744   25.7487  -26.8934 H   0  0  0  0  0  0  0  0  0  0  0  0
   -0.2567   25.4975  -27.8207 H   0  0  0  0  0  0  0  0  0  0  0  0
   -1.0532   27.1076  -27.8207 H   0  0  0  0  0  0  0  0  0  0  0  0
   -5.0425   26.6406  -29.8824 H   0  0  0  0  0  0  0  0  0  0  0  0
   -5.7342   25.9503  -31.3842 H   0  0  0  0  0  0  0  0  0  0  0  0
   -5.1228   23.9475  -29.2646 H   0  0  0  0  0  0  0  0  0  0  0  0
   -6.4141   25.1840  -28.8513 H   0  0  0  0  0  0  0  0  0  0  0  0
   -6.9809   25.0591  -32.1422 H   0  0  0  0  0  0  0  0  0  0  0  0
   -5.7505   23.7229  -32.1508 H   0  0  0  0  0  0  0  0  0  0  0  0
   -8.1977   23.6533  -33.4585 H   0  0  0  0  0  0  0  0  0  0  0  0
   -7.1995   22.2174  -32.9816 H   0  0  0  0  0  0  0  0  0  0  0  0
   -9.4716   23.4650  -31.3629 H   0  0  0  0  0  0  0  0  0  0  0  0
   -9.5140   21.9028  -32.2745 H   0  0  0  0  0  0  0  0  0  0  0  0
   -9.0581   21.9125  -29.6651 H   0  0  0  0  0  0  0  0  0  0  0  0
   -8.1221   20.8201  -30.7781 H   0  0  0  0  0  0  0  0  0  0  0  0
   -6.9537   22.4056  -28.8854 H   0  0  0  0  0  0  0  0  0  0  0  0
   -6.1554   21.9027  -30.4201 H   0  0  0  0  0  0  0  0  0  0  0  0
  1  2  1  0
  2  3  1  0
  3  4  2  0
  4  5  1  0
  5  6  2  0
  6  7  1  0
  7  8  1  0
  8  9  1  0
  7 10  2  0
 10 11  1  0
 11 12  1  0
 12 13  1  0
 13 14  1  0
 14 15  1  0
 15 16  1  0
 16 17  1  0
 17 18  1  0
 18 19  1  0
 10  3  1  0
 19 14  1  0
  1 20  1  0
  1 21  1  0
  1 22  1  0
  4 23  1  0
  5 24  1  0
  6 25  1  0
  9 26  1  0
  9 27  1  0
  9 28  1  0
 12 29  1  0
 12 30  1  0
 13 31  1  0
 13 32  1  0
 15 33  1  0
 15 34  1  0
 16 35  1  0
 16 36  1  0
 17 37  1  0
 17 38  1  0
 18 39  1  0
 18 40  1  0
 19 41  1  0
 19 42  1  0
M  END
>  <UniqueID>  (10) 
10

>  <SMILES>  (10) 
COc1cccc(OC)c1OCCN1CCCCC1

>  <Energy>  (10) 
48.43550425717719

>  <Genealogy>  (10) 
COc1cccc(OC)c1OCCN1CCCCC1 (3D coordinates assigned)
COc1cccc(OC)c1OCCN1CCCCC1 (nonaromatic ring conformer: 48.43550425717719 kcal/mol)

>  <smiles>  (10) 
COc1cccc(OC)c1OCCN1CCCCC1

>  <score_type>  (10) 
oracle

>  <origin>  (10) 
adg

>  <m_score__min__energy>  (10) 
-6.6900000000000004

>  <m_primary>  (10) 
energy

$$$$
10:0
     RDKit          3D

 38 41  0  0  0  0  0  0  0  0999 V2000
   -1.9220   23.7960  -29.3190 C   0  0  0  0  0  0  0  0  0  0  0  0
   -2.7540   24.9210  -29.7260 N   0  0  0  0  0  0  0  0  0  0  0  0
   -3.9810   24.8100  -30.4600 C   0  0  0  0  0  0  0  0  0  0  0  0
   -4.6840   25.8410  -30.6200 O   0  0  0  0  0  0  0  0  0  0  0  0
   -4.4260   23.5400  -31.0680 C   0  0  0  0  0  0  0  0  0  0  0  0
   -5.7940   23.2040  -31.0900 C   0  0  0  0  0  0  0  0  0  0  0  0
   -6.1460   22.0050  -31.6970 C   0  0  0  0  0  0  0  0  0  0  0  0
   -5.2090   21.1750  -32.2680 C   0  0  0  0  0  0  0  0  0  0  0  0
   -5.7940   20.0990  -32.8470 N   0  0  0  0  0  0  0  0  0  0  0  0
   -7.1140   20.2590  -32.6190 C   0  0  0  0  0  0  0  0  0  0  0  0
   -8.1480   19.4180  -33.0280 C   0  0  0  0  0  0  0  0  0  0  0  0
   -9.4660   19.7840  -32.6970 C   0  0  0  0  0  0  0  0  0  0  0  0
   -9.7230   20.9730  -31.9760 C   0  0  0  0  0  0  0  0  0  0  0  0
   -8.6640   21.8090  -31.5790 C   0  0  0  0  0  0  0  0  0  0  0  0
   -7.3700   21.4180  -31.9170 C   0  0  0  0  0  0  0  0  0  0  0  0
   -3.8520   21.5230  -32.2520 C   0  0  0  0  0  0  0  0  0  0  0  0
   -2.8130   20.6560  -32.8510 C   0  0  0  0  0  0  0  0  0  0  0  0
   -1.6840   21.2140  -33.4760 C   0  0  0  0  0  0  0  0  0  0  0  0
   -0.7160   20.3880  -34.0540 C   0  0  0  0  0  0  0  0  0  0  0  0
   -0.8720   18.9990  -34.0220 C   0  0  0  0  0  0  0  0  0  0  0  0
    0.0670   18.1980  -34.5840 F   0  0  0  0  0  0  0  0  0  0  0  0
   -1.9980   18.4360  -33.4140 C   0  0  0  0  0  0  0  0  0  0  0  0
   -2.9680   19.2600  -32.8350 C   0  0  0  0  0  0  0  0  0  0  0  0
   -3.5020   22.7110  -31.6610 N   0  0  0  0  0  0  0  0  0  0  0  0
   -1.8849   23.7458  -28.2208 H   0  0  0  0  0  0  0  0  0  0  0  0
   -2.3487   22.8624  -29.7145 H   0  0  0  0  0  0  0  0  0  0  0  0
   -0.9044   23.9305  -29.7145 H   0  0  0  0  0  0  0  0  0  0  0  0
   -6.5527   23.8643  -30.6446 H   0  0  0  0  0  0  0  0  0  0  0  0
   -5.3390   19.3270  -33.3840 H   0  0  0  0  0  0  0  0  0  0  0  0
   -7.9401   18.4968  -33.5920 H   0  0  0  0  0  0  0  0  0  0  0  0
  -10.3036   19.1395  -33.0018 H   0  0  0  0  0  0  0  0  0  0  0  0
  -10.7584   21.2459  -31.7239 H   0  0  0  0  0  0  0  0  0  0  0  0
   -8.8506   22.7386  -31.0214 H   0  0  0  0  0  0  0  0  0  0  0  0
   -1.5619   22.3067  -33.5103 H   0  0  0  0  0  0  0  0  0  0  0  0
    0.1690   20.8309  -34.5343 H   0  0  0  0  0  0  0  0  0  0  0  0
   -2.1210   17.3431  -33.3911 H   0  0  0  0  0  0  0  0  0  0  0  0
   -3.8564   18.8131  -32.3649 H   0  0  0  0  0  0  0  0  0  0  0  0
   -2.4930   22.9840  -31.6350 H   0  0  0  0  0  0  0  0  0  0  0  0
  1  2  1  0
  2  3  1  0
  3  4  2  0
  3  5  1  0
  5  6  2  0
  6  7  1  0
  7  8  2  0
  8  9  1  0
  9 10  1  0
 10 11  2  0
 11 12  1  0
 12 13  2  0
 13 14  1  0
 14 15  2  0
  8 16  1  0
 16 17  1  0
 17 18  2  0
 18 19  1  0
 19 20  2  0
 20 21  1  0
 20 22  1  0
 22 23  2  0
 16 24  2  0
 24  5  1  0
 15  7  1  0
 23 17  1  0
 15 10  1  0
  1 25  1  0
  1 26  1  0
  1 27  1  0
  6 28  1  0
  9 29  1  0
 11 30  1  0
 12 31  1  0
 13 32  1  0
 14 33  1  0
 18 34  1  0
 19 35  1  0
 22 36  1  0
 23 37  1  0
 24 38  1  0
M  CHG  2   2  -1  24   1
M  END
>  <UniqueID>  (11) 
11

>  <SMILES>  (11) 
C[N-]C(=O)c1cc2c([nH]c3ccccc32)c(-c2ccc(F)cc2)[nH+]1

>  <Energy>  (11) 
92.95482197012791

>  <Genealogy>  (11) 
C[N-]C(=O)c1cc2c([nH]c3ccccc32)c(-c2ccc(F)cc2)[nH+]1 (protonated)
C[N-]C(=O)c1cc2c([nH]c3ccccc32)c(-c2ccc(F)cc2)[nH+]1 (3D coordinates assigned)
C[N-]C(=O)c1cc2c([nH]c3ccccc32)c(-c2ccc(F)cc2)[nH+]1 (optimized conformer: 92.95482197012791 kcal/mol)

>  <smiles>  (11) 
CNC(=O)c1cc2c([nH]c3ccccc32)c(-c2ccc(F)cc2)n1

>  <score_type>  (11) 
oracle

>  <origin>  (11) 
adg

>  <m_score__min__energy>  (11) 
-8.8399999999999999

>  <m_primary>  (11) 
energy

$$$$
11:0
     RDKit          3D

 30 33  0  0  0  0  0  0  0  0999 V2000
   -7.4320   20.0500  -33.7510 N   0  0  0  0  0  0  0  0  0  0  0  0
   -6.7980   20.9500  -32.8380 C   0  0  0  0  0  0  0  0  0  0  0  0
   -5.4960   20.6730  -32.3590 C   0  0  0  0  0  0  0  0  0  0  0  0
   -4.8590   21.5480  -31.4600 C   0  0  0  0  0  0  0  0  0  0  0  0
   -5.5530   22.6930  -31.0590 C   0  0  0  0  0  0  0  0  0  0  0  0
   -5.2140   23.7310  -30.2040 C   0  0  0  0  0  0  0  0  0  0  0  0
   -3.9680   23.9280  -29.4430 C   0  0  0  0  0  0  0  0  0  0  0  0
   -3.6160   23.1250  -28.4030 N   0  0  0  0  0  0  0  0  0  0  0  0
   -2.4450   23.6480  -28.0120 C   0  0  0  0  0  0  0  0  0  0  0  0
   -1.6230   23.2190  -26.9720 C   0  0  0  0  0  0  0  0  0  0  0  0
   -0.4300   23.9330  -26.7480 C   0  0  0  0  0  0  0  0  0  0  0  0
   -0.0970   25.0420  -27.5580 C   0  0  0  0  0  0  0  0  0  0  0  0
   -0.9540   25.4460  -28.6000 C   0  0  0  0  0  0  0  0  0  0  0  0
   -2.1250   24.7160  -28.7920 C   0  0  0  0  0  0  0  0  0  0  0  0
   -3.0770   24.9180  -29.7140 N   0  0  0  0  0  0  0  0  0  0  0  0
   -6.3130   24.5860  -30.1990 C   0  0  0  0  0  0  0  0  0  0  0  0
   -7.2870   24.1110  -31.0060 N   0  0  0  0  0  0  0  0  0  0  0  0
   -6.8170   22.9620  -31.5230 C   0  0  0  0  0  0  0  0  0  0  0  0
   -7.4720   22.1130  -32.4130 C   0  0  0  0  0  0  0  0  0  0  0  0
   -6.8660   19.4000  -34.3400 H   0  0  0  0  0  0  0  0  0  0  0  0
   -8.4720   20.0280  -33.8440 H   0  0  0  0  0  0  0  0  0  0  0  0
   -4.9758   19.7632  -32.6932 H   0  0  0  0  0  0  0  0  0  0  0  0
   -3.8467   21.3376  -31.0846 H   0  0  0  0  0  0  0  0  0  0  0  0
   -1.8958   22.3545  -26.3489 H   0  0  0  0  0  0  0  0  0  0  0  0
    0.2469   23.6255  -25.9373 H   0  0  0  0  0  0  0  0  0  0  0  0
    0.8370   25.5929  -27.3736 H   0  0  0  0  0  0  0  0  0  0  0  0
   -0.7077   26.3067  -29.2391 H   0  0  0  0  0  0  0  0  0  0  0  0
   -6.3790   25.5183  -29.6189 H   0  0  0  0  0  0  0  0  0  0  0  0
   -8.2170   24.5490  -31.1880 H   0  0  0  0  0  0  0  0  0  0  0  0
   -8.4854   22.3436  -32.7734 H   0  0  0  0  0  0  0  0  0  0  0  0
  1  2  1  0
  2  3  2  0
  3  4  1  0
  4  5  2  0
  5  6  1  0
  6  7  1  0
  7  8  2  0
  8  9  1  0
  9 10  2  0
 10 11  1  0
 11 12  2  0
 12 13  1  0
 13 14  2  0
 14 15  1  0
  6 16  2  0
 16 17  1  0
 17 18  1  0
 18 19  2  0
 19  2  1  0
 18  5  1  0
 15  7  1  0
 14  9  1  0
  1 20  1  0
  1 21  1  0
  3 22  1  0
  4 23  1  0
 10 24  1  0
 11 25  1  0
 12 26  1  0
 13 27  1  0
 16 28  1  0
 17 29  1  0
 19 30  1  0
M  CHG  1  15  -1
M  END
>  <UniqueID>  (12) 
12

>  <SMILES>  (12) 
Nc1ccc2c(-c3nc4ccccc4[n-]3)c[nH]c2c1

>  <Energy>  (12) 
101.8487659642397

>  <Genealogy>  (12) 
Nc1ccc2c(-c3nc4ccccc4[n-]3)c[nH]c2c1 (protonated)
Nc1ccc2c(-c3nc4ccccc4[n-]3)c[nH]c2c1 (3D coordinates assigned)
Nc1ccc2c(-c3nc4ccccc4[n-]3)c[nH]c2c1 (optimized conformer: 101.8487659642397 kcal/mol)

>  <smiles>  (12) 
Nc1ccc2c(-c3nc4ccccc4[nH]3)c[nH]c2c1

>  <score_type>  (12) 
oracle

>  <origin>  (12) 
adg

>  <m_score__min__energy>  (12) 
-7.5300000000000002

>  <m_primary>  (12) 
energy

$$$$
12:0
     RDKit          3D

 35 37  0  0  0  0  0  0  0  0999 V2000
   -5.3610   23.7510  -32.4620 O   0  0  0  0  0  0  0  0  0  0  0  0
   -5.7500   23.7870  -31.2630 C   0  0  0  0  0  0  0  0  0  0  0  0
   -7.1320   23.5510  -30.9500 N   0  0  0  0  0  0  0  0  0  0  0  0
   -8.1430   23.3440  -31.9860 C   0  0  0  0  0  0  0  0  0  0  0  0
   -9.0500   22.1650  -31.6210 C   0  0  0  0  0  0  0  0  0  0  0  0
   -8.4140   20.8630  -32.0300 C   0  0  0  0  0  0  0  0  0  0  0  0
   -9.0100   19.6410  -31.6750 C   0  0  0  0  0  0  0  0  0  0  0  0
   -8.4010   18.4320  -32.0290 C   0  0  0  0  0  0  0  0  0  0  0  0
   -7.1910   18.4360  -32.7300 C   0  0  0  0  0  0  0  0  0  0  0  0
   -6.5860   19.6470  -33.0740 C   0  0  0  0  0  0  0  0  0  0  0  0
   -7.1920   20.8590  -32.7210 C   0  0  0  0  0  0  0  0  0  0  0  0
   -4.7650   24.0660  -30.2040 C   0  0  0  0  0  0  0  0  0  0  0  0
   -4.9880   24.0270  -28.8270 C   0  0  0  0  0  0  0  0  0  0  0  0
   -3.7660   24.3700  -28.2950 C   0  0  0  0  0  0  0  0  0  0  0  0
   -3.3860   24.4980  -26.9600 C   0  0  0  0  0  0  0  0  0  0  0  0
   -2.0580   24.8680  -26.6980 C   0  0  0  0  0  0  0  0  0  0  0  0
   -1.1590   25.0970  -27.7590 C   0  0  0  0  0  0  0  0  0  0  0  0
   -1.6040   24.9530  -29.0830 C   0  0  0  0  0  0  0  0  0  0  0  0
   -2.8960   24.5930  -29.2910 N   0  0  0  0  0  0  0  0  0  0  0  0
   -3.4820   24.4160  -30.4620 N   0  0  0  0  0  0  0  0  0  0  0  0
   -7.4330   23.4610  -29.9550 H   0  0  0  0  0  0  0  0  0  0  0  0
   -8.7534   24.2539  -32.0834 H   0  0  0  0  0  0  0  0  0  0  0  0
   -7.6377   23.1233  -32.9378 H   0  0  0  0  0  0  0  0  0  0  0  0
   -9.2173   22.1602  -30.5338 H   0  0  0  0  0  0  0  0  0  0  0  0
  -10.0071   22.2752  -32.1519 H   0  0  0  0  0  0  0  0  0  0  0  0
   -9.9581   19.6348  -31.1172 H   0  0  0  0  0  0  0  0  0  0  0  0
   -8.8745   17.4775  -31.7556 H   0  0  0  0  0  0  0  0  0  0  0  0
   -6.7153   17.4847  -33.0107 H   0  0  0  0  0  0  0  0  0  0  0  0
   -5.6326   19.6486  -33.6227 H   0  0  0  0  0  0  0  0  0  0  0  0
   -6.7090   21.8111  -32.9860 H   0  0  0  0  0  0  0  0  0  0  0  0
   -5.9183   23.7809  -28.2941 H   0  0  0  0  0  0  0  0  0  0  0  0
   -4.0998   24.3159  -26.1431 H   0  0  0  0  0  0  0  0  0  0  0  0
   -1.7166   24.9800  -25.6583 H   0  0  0  0  0  0  0  0  0  0  0  0
   -0.1181   25.3860  -27.5518 H   0  0  0  0  0  0  0  0  0  0  0  0
   -0.9234   25.1274  -29.9294 H   0  0  0  0  0  0  0  0  0  0  0  0
  1  2  2  0
  2  3  1  0
  3  4  1  0
  4  5  1  0
  5  6  1  0
  6  7  2  0
  7  8  1  0
  8  9  2  0
  9 10  1  0
 10 11  2  0
  2 12  1  0
 12 13  1  0
 13 14  2  0
 14 15  1  0
 15 16  2  0
 16 17  1  0
 17 18  2  0
 18 19  1  0
 19 20  1  0
 11  6  1  0
 20 12  2  0
 19 14  1  0
  3 21  1  0
  4 22  1  0
  4 23  1  0
  5 24  1  0
  5 25  1  0
  7 26  1  0
  8 27  1  0
  9 28  1  0
 10 29  1  0
 11 30  1  0
 13 31  1  0
 15 32  1  0
 16 33  1  0
 17 34  1  0
 18 35  1  0
M  END
>  <UniqueID>  (13) 
13

>  <SMILES>  (13) 
O=C(NCCc1ccccc1)c1cc2ccccn2n1

>  <Energy>  (13) 
67.2883488027324

>  <Genealogy>  (13) 
O=C(NCCc1ccccc1)c1cc2ccccn2n1 (3D coordinates assigned)
O=C(NCCc1ccccc1)c1cc2ccccn2n1 (optimized conformer: 67.2883488027324 kcal/mol)

>  <smiles>  (13) 
O=C(NCCc1ccccc1)c1cc2ccccn2n1

>  <score_type>  (13) 
oracle

>  <origin>  (13) 
adg

>  <m_score__min__energy>  (13) 
-7.96

>  <m_primary>  (13) 
energy

$$$$
13:0
     RDKit          3D

 43 45  0  0  0  0  0  0  0  0999 V2000
   -2.9110   13.8740  -34.1500 F   0  0  0  0  0  0  0  0  0  0  0  0
   -3.7670   14.8870  -33.8670 C   0  0  0  0  0  0  0  0  0  0  0  0
   -4.4750   14.8890  -32.6630 C   0  0  0  0  0  0  0  0  0  0  0  0
   -5.3590   15.9310  -32.3690 C   0  0  0  0  0  0  0  0  0  0  0  0
   -5.5430   16.9890  -33.2800 C   0  0  0  0  0  0  0  0  0  0  0  0
   -6.4600   18.0630  -32.9790 N   0  0  0  0  0  0  0  0  0  0  0  0
   -7.2860   18.0200  -31.7650 C   0  0  0  0  0  0  0  0  0  0  0  0
   -8.6560   18.6780  -32.0100 C   0  0  0  0  0  0  0  0  0  0  0  0
   -8.5950   19.9420  -32.8050 N   0  0  0  0  0  0  0  0  0  0  0  0
   -9.4790   21.0170  -32.2750 C   0  0  0  0  0  0  0  0  0  0  0  0
   -9.1400   21.5610  -30.8630 C   0  0  0  0  0  0  0  0  0  0  0  0
   -7.9110   22.4380  -30.8210 C   0  0  0  0  0  0  0  0  0  0  0  0
   -6.9950   22.2990  -29.7610 C   0  0  0  0  0  0  0  0  0  0  0  0
   -5.8420   23.0880  -29.7150 C   0  0  0  0  0  0  0  0  0  0  0  0
   -4.9600   22.9400  -28.6970 F   0  0  0  0  0  0  0  0  0  0  0  0
   -5.5970   24.0280  -30.7180 C   0  0  0  0  0  0  0  0  0  0  0  0
   -6.5090   24.1880  -31.7640 C   0  0  0  0  0  0  0  0  0  0  0  0
   -7.6660   23.4030  -31.8160 C   0  0  0  0  0  0  0  0  0  0  0  0
   -8.5450   23.6000  -32.8310 F   0  0  0  0  0  0  0  0  0  0  0  0
   -7.2220   20.4100  -33.0990 C   0  0  0  0  0  0  0  0  0  0  0  0
   -6.4140   19.2980  -33.7740 C   0  0  0  0  0  0  0  0  0  0  0  0
   -4.8260   16.9740  -34.4920 C   0  0  0  0  0  0  0  0  0  0  0  0
   -3.9440   15.9290  -34.7810 C   0  0  0  0  0  0  0  0  0  0  0  0
   -4.3365   14.0681  -31.9440 H   0  0  0  0  0  0  0  0  0  0  0  0
   -5.9147   15.9246  -31.4197 H   0  0  0  0  0  0  0  0  0  0  0  0
   -7.4377   16.9714  -31.4694 H   0  0  0  0  0  0  0  0  0  0  0  0
   -6.7680   18.5726  -30.9673 H   0  0  0  0  0  0  0  0  0  0  0  0
   -9.2914   17.9609  -32.5504 H   0  0  0  0  0  0  0  0  0  0  0  0
   -9.0597   18.9450  -31.0222 H   0  0  0  0  0  0  0  0  0  0  0  0
   -9.0070   19.7060  -33.7410 H   0  0  0  0  0  0  0  0  0  0  0  0
   -9.4350   21.8621  -32.9777 H   0  0  0  0  0  0  0  0  0  0  0  0
  -10.4720   20.5541  -32.1769 H   0  0  0  0  0  0  0  0  0  0  0  0
   -9.9972   22.1495  -30.5041 H   0  0  0  0  0  0  0  0  0  0  0  0
   -8.9297   20.6879  -30.2278 H   0  0  0  0  0  0  0  0  0  0  0  0
   -7.1877   21.5653  -28.9644 H   0  0  0  0  0  0  0  0  0  0  0  0
   -4.6855   24.6428  -30.6845 H   0  0  0  0  0  0  0  0  0  0  0  0
   -6.3168   24.9337  -32.5495 H   0  0  0  0  0  0  0  0  0  0  0  0
   -7.2713   21.2807  -33.7694 H   0  0  0  0  0  0  0  0  0  0  0  0
   -6.7292   20.6878  -32.1556 H   0  0  0  0  0  0  0  0  0  0  0  0
   -6.8348   19.1009  -34.7710 H   0  0  0  0  0  0  0  0  0  0  0  0
   -5.3669   19.6244  -33.8579 H   0  0  0  0  0  0  0  0  0  0  0  0
   -4.9611   17.7906  -35.2165 H   0  0  0  0  0  0  0  0  0  0  0  0
   -3.3879   15.9268  -35.7301 H   0  0  0  0  0  0  0  0  0  0  0  0
  1  2  1  0
  2  3  2  0
  3  4  1  0
  4  5  2  0
  5  6  1  0
  6  7  1  0
  7  8  1  0
  8  9  1  0
  9 10  1  0
 10 11  1  0
 11 12  1  0
 12 13  2  0
 13 14  1  0
 14 15  1  0
 14 16  2  0
 16 17  1  0
 17 18  2  0
 18 19  1  0
  9 20  1  0
 20 21  1  0
  5 22  1  0
 22 23  2  0
 23  2  1  0
 21  6  1  0
 18 12  1  0
  3 24  1  0
  4 25  1  0
  7 26  1  0
  7 27  1  0
  8 28  1  0
  8 29  1  0
  9 30  1  0
 10 31  1  0
 10 32  1  0
 11 33  1  0
 11 34  1  0
 13 35  1  0
 16 36  1  0
 17 37  1  0
 20 38  1  0
 20 39  1  0
 21 40  1  0
 21 41  1  0
 22 42  1  0
 23 43  1  0
M  CHG  1   9   1
M  END
>  <UniqueID>  (14) 
14

>  <SMILES>  (14) 
Fc1ccc(N2CC[NH+](CCc3cc(F)ccc3F)CC2)cc1

>  <Energy>  (14) 
59.2020219968982

>  <Genealogy>  (14) 
Fc1ccc(N2CC[NH+](CCc3cc(F)ccc3F)CC2)cc1 (protonated)
Fc1ccc(N2CC[NH+](CCc3cc(F)ccc3F)CC2)cc1 (3D coordinates assigned)
Fc1ccc(N2CC[NH+](CCc3cc(F)ccc3F)CC2)cc1 (nonaromatic ring conformer: 59.2020219968982 kcal/mol)

>  <smiles>  (14) 
Fc1ccc(N2CCN(CCc3cc(F)ccc3F)CC2)cc1

>  <score_type>  (14) 
oracle

>  <origin>  (14) 
adg

>  <m_score__min__energy>  (14) 
-6.6100000000000003

>  <m_primary>  (14) 
energy

$$$$
14:0
     RDKit          3D

 35 37  0  0  0  0  0  0  0  0999 V2000
   -5.6410   25.3820  -29.6420 O   0  0  0  0  0  0  0  0  0  0  0  0
   -4.8490   24.6610  -30.3060 C   0  0  0  0  0  0  0  0  0  0  0  0
   -3.4440   24.9430  -30.2350 N   0  0  0  0  0  0  0  0  0  0  0  0
   -2.5000   24.3360  -29.3400 C   0  0  0  0  0  0  0  0  0  0  0  0
   -2.6320   22.9960  -28.9330 C   0  0  0  0  0  0  0  0  0  0  0  0
   -1.7000   22.4180  -28.0510 C   0  0  0  0  0  0  0  0  0  0  0  0
   -1.8580   21.0110  -27.6030 C   0  0  0  0  0  0  0  0  0  0  0  0
   -3.1130   20.5300  -27.1820 C   0  0  0  0  0  0  0  0  0  0  0  0
   -3.2560   19.2060  -26.7560 C   0  0  0  0  0  0  0  0  0  0  0  0
   -2.1530   18.3500  -26.7440 C   0  0  0  0  0  0  0  0  0  0  0  0
   -0.9040   18.8150  -27.1590 C   0  0  0  0  0  0  0  0  0  0  0  0
   -0.7540   20.1380  -27.5870 C   0  0  0  0  0  0  0  0  0  0  0  0
   -0.6180   23.1940  -27.6000 C   0  0  0  0  0  0  0  0  0  0  0  0
   -0.4680   24.5150  -28.0260 C   0  0  0  0  0  0  0  0  0  0  0  0
   -1.4010   25.0850  -28.8970 C   0  0  0  0  0  0  0  0  0  0  0  0
   -1.2380   26.4010  -29.3120 O   0  0  0  0  0  0  0  0  0  0  0  0
   -5.3860   23.5240  -31.0890 C   0  0  0  0  0  0  0  0  0  0  0  0
   -6.7760   23.3510  -31.2190 C   0  0  0  0  0  0  0  0  0  0  0  0
   -7.2880   22.2840  -31.9620 C   0  0  0  0  0  0  0  0  0  0  0  0
   -6.4220   21.3740  -32.5740 C   0  0  0  0  0  0  0  0  0  0  0  0
   -5.0400   21.5280  -32.4380 C   0  0  0  0  0  0  0  0  0  0  0  0
   -4.5220   22.5930  -31.6950 C   0  0  0  0  0  0  0  0  0  0  0  0
   -3.4725   22.3936  -29.3080 H   0  0  0  0  0  0  0  0  0  0  0  0
   -3.9856   21.1997  -27.1884 H   0  0  0  0  0  0  0  0  0  0  0  0
   -4.2398   18.8379  -26.4295 H   0  0  0  0  0  0  0  0  0  0  0  0
   -2.2683   17.3091  -26.4075 H   0  0  0  0  0  0  0  0  0  0  0  0
   -0.0359   18.1395  -27.1494 H   0  0  0  0  0  0  0  0  0  0  0  0
    0.2328   20.4985  -27.9131 H   0  0  0  0  0  0  0  0  0  0  0  0
    0.1157   22.7572  -26.9065 H   0  0  0  0  0  0  0  0  0  0  0  0
    0.3880   25.1098  -27.6748 H   0  0  0  0  0  0  0  0  0  0  0  0
   -7.4634   24.0593  -30.7333 H   0  0  0  0  0  0  0  0  0  0  0  0
   -8.3761   22.1600  -32.0654 H   0  0  0  0  0  0  0  0  0  0  0  0
   -6.8278   20.5376  -33.1620 H   0  0  0  0  0  0  0  0  0  0  0  0
   -4.3580   20.8097  -32.9166 H   0  0  0  0  0  0  0  0  0  0  0  0
   -3.4333   22.7038  -31.5835 H   0  0  0  0  0  0  0  0  0  0  0  0
  1  2  2  0
  2  3  1  0
  3  4  1  0
  4  5  2  0
  5  6  1  0
  6  7  1  0
  7  8  2  0
  8  9  1  0
  9 10  2  0
 10 11  1  0
 11 12  2  0
  6 13  2  0
 13 14  1  0
 14 15  2  0
 15 16  1  0
  2 17  1  0
 17 18  2  0
 18 19  1  0
 19 20  2  0
 20 21  1  0
 21 22  2  0
 15  4  1  0
 22 17  1  0
 12  7  1  0
  5 23  1  0
  8 24  1  0
  9 25  1  0
 10 26  1  0
 11 27  1  0
 12 28  1  0
 13 29  1  0
 14 30  1  0
 18 31  1  0
 19 32  1  0
 20 33  1  0
 21 34  1  0
 22 35  1  0
M  CHG  2   3  -1  16  -1
M  END
>  <UniqueID>  (15) 
15

>  <SMILES>  (15) 
O=C([N-]c1cc(-c2ccccc2)ccc1[O-])c1ccccc1

>  <Energy>  (15) 
50.13929529251401

>  <Genealogy>  (15) 
O=C([N-]c1cc(-c2ccccc2)ccc1[O-])c1ccccc1 (protonated)
O=C([N-]c1cc(-c2ccccc2)ccc1[O-])c1ccccc1 (3D coordinates assigned)
O=C([N-]c1cc(-c2ccccc2)ccc1[O-])c1ccccc1 (optimized conformer: 50.13929529251401 kcal/mol)

>  <smiles>  (15) 
O=C(Nc1cc(-c2ccccc2)ccc1O)c1ccccc1

>  <score_type>  (15) 
oracle

>  <origin>  (15) 
adg

>  <m_score__min__energy>  (15) 
-12.84

>  <m_primary>  (15) 
energy

$$$$
15:0
     RDKit          3D

 26 28  0  0  0  0  0  0  0  0999 V2000
   -3.1420   25.2930  -30.0490 O   0  0  0  0  0  0  0  0  0  0  0  0
   -4.2070   24.4740  -30.4040 C   0  0  0  0  0  0  0  0  0  0  0  0
   -5.5200   24.8910  -30.1650 C   0  0  0  0  0  0  0  0  0  0  0  0
   -6.5920   24.0680  -30.5210 C   0  0  0  0  0  0  0  0  0  0  0  0
   -6.3590   22.8250  -31.1330 C   0  0  0  0  0  0  0  0  0  0  0  0
   -7.4660   21.9750  -31.4850 N   0  0  0  0  0  0  0  0  0  0  0  0
   -8.7590   22.3590  -31.6390 C   0  0  0  0  0  0  0  0  0  0  0  0
   -9.5710   21.3230  -31.9610 N   0  0  0  0  0  0  0  0  0  0  0  0
   -8.7530   20.2600  -32.0160 C   0  0  0  0  0  0  0  0  0  0  0  0
   -9.0730   18.9450  -32.3410 C   0  0  0  0  0  0  0  0  0  0  0  0
   -8.0240   18.0080  -32.3800 C   0  0  0  0  0  0  0  0  0  0  0  0
   -6.6960   18.4080  -32.1070 C   0  0  0  0  0  0  0  0  0  0  0  0
   -6.4050   19.7470  -31.7850 C   0  0  0  0  0  0  0  0  0  0  0  0
   -7.4730   20.6490  -31.7300 C   0  0  0  0  0  0  0  0  0  0  0  0
   -5.0370   22.4080  -31.3570 C   0  0  0  0  0  0  0  0  0  0  0  0
   -3.9660   23.2320  -30.9990 C   0  0  0  0  0  0  0  0  0  0  0  0
   -5.7094   25.8679  -29.6962 H   0  0  0  0  0  0  0  0  0  0  0  0
   -7.6231   24.3950  -30.3211 H   0  0  0  0  0  0  0  0  0  0  0  0
   -9.1083   23.3948  -31.5162 H   0  0  0  0  0  0  0  0  0  0  0  0
  -10.6000   21.3510  -32.1360 H   0  0  0  0  0  0  0  0  0  0  0  0
  -10.1095   18.6487  -32.5597 H   0  0  0  0  0  0  0  0  0  0  0  0
   -8.2388   16.9573  -32.6246 H   0  0  0  0  0  0  0  0  0  0  0  0
   -5.8838   17.6672  -32.1465 H   0  0  0  0  0  0  0  0  0  0  0  0
   -5.3738   20.0728  -31.5836 H   0  0  0  0  0  0  0  0  0  0  0  0
   -4.8431   21.4276  -31.8167 H   0  0  0  0  0  0  0  0  0  0  0  0
   -2.9331   22.9030  -31.1855 H   0  0  0  0  0  0  0  0  0  0  0  0
  1  2  1  0
  2  3  2  0
  3  4  1  0
  4  5  2  0
  5  6  1  0
  6  7  1  0
  7  8  2  0
  8  9  1  0
  9 10  2  0
 10 11  1  0
 11 12  2  0
 12 13  1  0
 13 14  2  0
  5 15  1  0
 15 16  2  0
 16  2  1  0
 14  6  1  0
 14  9  1  0
  3 17  1  0
  4 18  1  0
  7 19  1  0
  8 20  1  0
 10 21  1  0
 11 22  1  0
 12 23  1  0
 13 24  1  0
 15 25  1  0
 16 26  1  0
M  CHG  2   1  -1   8   1
M  END
>  <UniqueID>  (16) 
16

>  <SMILES>  (16) 
[O-]c1ccc(-n2c[nH+]c3ccccc32)cc1

>  <Energy>  (16) 
73.1015075073217

>  <Genealogy>  (16) 
[O-]c1ccc(-n2c[nH+]c3ccccc32)cc1 (protonated)
[O-]c1ccc(-n2c[nH+]c3ccccc32)cc1 (3D coordinates assigned)
[O-]c1ccc(-n2c[nH+]c3ccccc32)cc1 (optimized conformer: 73.1015075073217 kcal/mol)

>  <smiles>  (16) 
Oc1ccc(-n2cnc3ccccc32)cc1

>  <score_type>  (16) 
oracle

>  <origin>  (16) 
adg

>  <m_score__min__energy>  (16) 
-9.7400000000000002

>  <m_primary>  (16) 
energy

$$$$
16:0
     RDKit          3D

 41 43  0  0  0  0  0  0  0  0999 V2000
    0.9320   19.6850  -30.8150 C   0  0  0  0  0  0  0  0  0  0  0  0
    0.2380   20.8980  -31.0860 O   0  0  0  0  0  0  0  0  0  0  0  0
   -1.1120   20.9710  -31.4560 C   0  0  0  0  0  0  0  0  0  0  0  0
   -1.6510   20.1960  -32.5190 C   0  0  0  0  0  0  0  0  0  0  0  0
   -3.0100   20.2940  -32.8600 C   0  0  0  0  0  0  0  0  0  0  0  0
   -3.8170   21.1700  -32.1270 C   0  0  0  0  0  0  0  0  0  0  0  0
   -3.2960   21.9230  -31.1050 C   0  0  0  0  0  0  0  0  0  0  0  0
   -1.9510   21.8460  -30.7430 C   0  0  0  0  0  0  0  0  0  0  0  0
   -4.3200   22.6990  -30.5980 C   0  0  0  0  0  0  0  0  0  0  0  0
   -4.2280   23.6770  -29.4620 C   0  0  0  0  0  0  0  0  0  0  0  0
   -3.5290   24.9200  -29.9100 C   0  0  0  0  0  0  0  0  0  0  0  0
   -4.0070   25.6130  -30.8460 O   0  0  0  0  0  0  0  0  0  0  0  0
   -2.3240   25.2900  -29.3260 O   0  0  0  0  0  0  0  0  0  0  0  0
   -5.4560   22.3490  -31.3350 C   0  0  0  0  0  0  0  0  0  0  0  0
   -6.8110   22.9800  -31.1820 C   0  0  0  0  0  0  0  0  0  0  0  0
   -5.1380   21.4210  -32.2810 N   0  0  0  0  0  0  0  0  0  0  0  0
   -6.0300   20.8810  -33.3160 C   0  0  0  0  0  0  0  0  0  0  0  0
   -7.0420   19.9500  -32.7020 C   0  0  0  0  0  0  0  0  0  0  0  0
   -8.4060   20.2840  -32.6940 C   0  0  0  0  0  0  0  0  0  0  0  0
   -9.3440   19.4040  -32.1430 C   0  0  0  0  0  0  0  0  0  0  0  0
   -8.9270   18.1870  -31.5980 C   0  0  0  0  0  0  0  0  0  0  0  0
   -7.5710   17.8470  -31.6020 C   0  0  0  0  0  0  0  0  0  0  0  0
   -6.6310   18.7240  -32.1530 C   0  0  0  0  0  0  0  0  0  0  0  0
    1.0127   19.5439  -29.7271 H   0  0  0  0  0  0  0  0  0  0  0  0
    0.3802   18.8409  -31.2543 H   0  0  0  0  0  0  0  0  0  0  0  0
    1.9394   19.7329  -31.2543 H   0  0  0  0  0  0  0  0  0  0  0  0
   -0.9969   19.5125  -33.0803 H   0  0  0  0  0  0  0  0  0  0  0  0
   -3.4291   19.6966  -33.6831 H   0  0  0  0  0  0  0  0  0  0  0  0
   -1.5553   22.4564  -29.9179 H   0  0  0  0  0  0  0  0  0  0  0  0
   -5.2414   23.9329  -29.1192 H   0  0  0  0  0  0  0  0  0  0  0  0
   -3.6587   23.2204  -28.6389 H   0  0  0  0  0  0  0  0  0  0  0  0
   -7.0459   23.0894  -30.1130 H   0  0  0  0  0  0  0  0  0  0  0  0
   -6.8104   23.9705  -31.6605 H   0  0  0  0  0  0  0  0  0  0  0  0
   -7.5687   22.3421  -31.6605 H   0  0  0  0  0  0  0  0  0  0  0  0
   -6.5547   21.7111  -33.8116 H   0  0  0  0  0  0  0  0  0  0  0  0
   -5.4295   20.3225  -34.0492 H   0  0  0  0  0  0  0  0  0  0  0  0
   -8.7383   21.2411  -33.1225 H   0  0  0  0  0  0  0  0  0  0  0  0
  -10.4112   19.6707  -32.1389 H   0  0  0  0  0  0  0  0  0  0  0  0
   -9.6658   17.4962  -31.1657 H   0  0  0  0  0  0  0  0  0  0  0  0
   -7.2431   16.8893  -31.1716 H   0  0  0  0  0  0  0  0  0  0  0  0
   -5.5650   18.4525  -32.1565 H   0  0  0  0  0  0  0  0  0  0  0  0
  1  2  1  0
  2  3  1  0
  3  4  2  0
  4  5  1  0
  5  6  2  0
  6  7  1  0
  7  8  2  0
  7  9  1  0
  9 10  1  0
 10 11  1  0
 11 12  2  0
 11 13  1  0
  9 14  2  0
 14 15  1  0
 14 16  1  0
 16 17  1  0
 17 18  1  0
 18 19  2  0
 19 20  1  0
 20 21  2  0
 21 22  1  0
 22 23  2  0
  8  3  1  0
 23 18  1  0
 16  6  1  0
  1 24  1  0
  1 25  1  0
  1 26  1  0
  4 27  1  0
  5 28  1  0
  8 29  1  0
 10 30  1  0
 10 31  1  0
 15 32  1  0
 15 33  1  0
 15 34  1  0
 17 35  1  0
 17 36  1  0
 19 37  1  0
 20 38  1  0
 21 39  1  0
 22 40  1  0
 23 41  1  0
M  CHG  1  13  -1
M  END
>  <UniqueID>  (17) 
17

>  <SMILES>  (17) 
COc1ccc2c(c1)c(CC(=O)[O-])c(C)n2Cc1ccccc1

>  <Energy>  (17) 
72.83362443511626

>  <Genealogy>  (17) 
COc1ccc2c(c1)c(CC(=O)[O-])c(C)n2Cc1ccccc1 (protonated)
COc1ccc2c(c1)c(CC(=O)[O-])c(C)n2Cc1ccccc1 (3D coordinates assigned)
COc1ccc2c(c1)c(CC(=O)[O-])c(C)n2Cc1ccccc1 (optimized conformer: 72.83362443511626 kcal/mol)

>  <smiles>  (17) 
COc1ccc2c(c1)c(CC(=O)O)c(C)n2Cc1ccccc1

>  <score_type>  (17) 
oracle

>  <origin>  (17) 
adg

>  <m_score__min__energy>  (17) 
-10.84

>  <m_primary>  (17) 
energy

$$$$
17:0
     RDKit          3D

 53 56  0  0  0  0  0  0  0  0999 V2000
   -5.8307   23.7143  -31.5233 H   0  0  0  0  0  0  0  0  0  0  0  0
   -4.8580   23.3780  -31.1350 C   0  0  0  0  0  0  0  0  0  0  0  0
   -4.2300   24.0960  -30.1140 C   0  0  0  0  0  0  0  0  0  0  0  0
   -4.7221   24.9801  -29.6826 H   0  0  0  0  0  0  0  0  0  0  0  0
   -2.9750   23.6930  -29.6380 C   0  0  0  0  0  0  0  0  0  0  0  0
   -2.1910   24.5810  -28.3360 S   0  0  0  0  0  0  0  0  0  0  0  0
   -1.6020   25.8570  -28.8700 O   0  0  0  0  0  0  0  0  0  0  0  0
   -1.0850   23.7500  -27.7490 O   0  0  0  0  0  0  0  0  0  0  0  0
   -3.3490   24.9510  -27.1080 N   0  0  0  0  0  0  0  0  0  0  0  0
   -4.2350   25.2170  -27.5930 H   0  0  0  0  0  0  0  0  0  0  0  0
   -3.0080   25.8070  -26.6150 H   0  0  0  0  0  0  0  0  0  0  0  0
   -2.3550   22.5640  -30.1920 C   0  0  0  0  0  0  0  0  0  0  0  0
   -1.3704   22.2423  -29.8219 H   0  0  0  0  0  0  0  0  0  0  0  0
   -2.9840   21.8460  -31.2130 C   0  0  0  0  0  0  0  0  0  0  0  0
   -2.4810   20.9767  -31.6616 H   0  0  0  0  0  0  0  0  0  0  0  0
   -4.2520   22.2290  -31.6670 C   0  0  0  0  0  0  0  0  0  0  0  0
   -4.8570   21.5110  -32.7510 N   0  0  0  0  0  0  0  0  0  0  0  0
   -5.7850   20.5840  -32.7430 C   0  0  0  0  0  0  0  0  0  0  0  0
   -7.1650   20.8240  -32.4530 C   0  0  0  0  0  0  0  0  0  0  0  0
   -7.6530   21.9800  -31.8010 C   0  0  0  0  0  0  0  0  0  0  0  0
   -6.9452   22.7454  -31.4500 H   0  0  0  0  0  0  0  0  0  0  0  0
   -9.0240   22.1620  -31.5970 C   0  0  0  0  0  0  0  0  0  0  0  0
   -9.3897   23.0859  -31.1251 H   0  0  0  0  0  0  0  0  0  0  0  0
   -9.9290   21.1780  -31.9890 C   0  0  0  0  0  0  0  0  0  0  0  0
  -11.0095   21.3418  -31.8638 H   0  0  0  0  0  0  0  0  0  0  0  0
   -9.4630   19.9860  -32.5400 C   0  0  0  0  0  0  0  0  0  0  0  0
  -10.1767   19.1980  -32.8224 H   0  0  0  0  0  0  0  0  0  0  0  0
   -8.0920   19.7860  -32.7360 C   0  0  0  0  0  0  0  0  0  0  0  0
   -7.6770   18.6000  -33.1570 O   0  0  0  0  0  0  0  0  0  0  0  0
   -6.3970   18.2980  -33.3160 C   0  0  0  0  0  0  0  0  0  0  0  0
   -6.0500   17.0030  -33.7160 C   0  0  0  0  0  0  0  0  0  0  0  0
   -6.8427   16.2590  -33.8838 H   0  0  0  0  0  0  0  0  0  0  0  0
   -4.7020   16.6340  -33.9080 C   0  0  0  0  0  0  0  0  0  0  0  0
   -4.3450   15.2840  -34.3210 N   0  0  0  0  0  0  0  0  0  0  0  0
   -4.8230   14.1060  -33.5770 C   0  0  0  0  0  0  0  0  0  0  0  0
   -4.2674   13.2183  -33.9137 H   0  0  0  0  0  0  0  0  0  0  0  0
   -5.8991   13.9835  -33.7693 H   0  0  0  0  0  0  0  0  0  0  0  0
   -4.6150   14.2850  -32.0750 C   0  0  0  0  0  0  0  0  0  0  0  0
   -5.3383   13.6625  -31.5279 H   0  0  0  0  0  0  0  0  0  0  0  0
   -3.5926   13.9800  -31.8075 H   0  0  0  0  0  0  0  0  0  0  0  0
   -4.7643   15.3415  -31.8075 H   0  0  0  0  0  0  0  0  0  0  0  0
   -3.4910   15.0470  -35.4980 C   0  0  0  0  0  0  0  0  0  0  0  0
   -3.7136   14.0516  -35.9098 H   0  0  0  0  0  0  0  0  0  0  0  0
   -3.6982   15.8273  -36.2451 H   0  0  0  0  0  0  0  0  0  0  0  0
   -2.0110   15.1130  -35.1210 C   0  0  0  0  0  0  0  0  0  0  0  0
   -1.9115   15.1174  -34.0255 H   0  0  0  0  0  0  0  0  0  0  0  0
   -1.4882   14.2373  -35.5331 H   0  0  0  0  0  0  0  0  0  0  0  0
   -1.5683   16.0318  -35.5331 H   0  0  0  0  0  0  0  0  0  0  0  0
   -3.7120   17.6130  -33.6890 C   0  0  0  0  0  0  0  0  0  0  0  0
   -2.6530   17.3515  -33.8307 H   0  0  0  0  0  0  0  0  0  0  0  0
   -4.0520   18.9100  -33.2950 C   0  0  0  0  0  0  0  0  0  0  0  0
   -3.2601   19.6575  -33.1396 H   0  0  0  0  0  0  0  0  0  0  0  0
   -5.3990   19.2690  -33.0950 C   0  0  0  0  0  0  0  0  0  0  0  0
  1  2  1  0
  2  3  2  0
  3  4  1  0
  3  5  1  0
  5  6  1  0
  6  7  2  0
  6  8  2  0
  6  9  1  0
  9 10  1  0
  9 11  1  0
  5 12  2  0
 12 13  1  0
 12 14  1  0
 14 15  1  0
 14 16  2  0
 16 17  1  0
 17 18  2  0
 18 19  1  0
 19 20  2  0
 20 21  1  0
 20 22  1  0
 22 23  1  0
 22 24  2  0
 24 25  1  0
 24 26  1  0
 26 27  1  0
 26 28  2  0
 28 29  1  0
 29 30  1  0
 30 31  2  0
 31 32  1  0
 31 33  1  0
 33 34  1  0
 34 35  1  0
 35 36  1  0
 35 37  1  0
 35 38  1  0
 38 39  1  0
 38 40  1  0
 38 41  1  0
 34 42  1  0
 42 43  1  0
 42 44  1  0
 42 45  1  0
 45 46  1  0
 45 47  1  0
 45 48  1  0
 33 49  2  0
 49 50  1  0
 49 51  1  0
 51 52  1  0
 51 53  2  0
 16  2  1  0
 53 18  1  0
 28 19  1  0
 53 30  1  0
M  END
>  <UniqueID>  (18) 
18

>  <SMILES>  (18) 
CCN(CC)c1ccc2/c(=N/c3ccc(S(N)(=O)=O)cc3)c3ccccc3oc2c1

>  <Energy>  (18) 
82.97142601787318

>  <Genealogy>  (18) 
CCN(CC)c1ccc2/c(=N/c3ccc(S(N)(=O)=O)cc3)c3ccccc3oc2c1 (cis-trans isomerization)
CCN(CC)c1ccc2/c(=N/c3ccc(S(N)(=O)=O)cc3)c3ccccc3oc2c1 (3D coordinates assigned)
CCN(CC)c1ccc2/c(=N/c3ccc(S(N)(=O)=O)cc3)c3ccccc3oc2c1 (optimized conformer: 82.97142601787318 kcal/mol)

>  <smiles>  (18) 
CCN(CC)c1ccc2c(=Nc3ccc(S(N)(=O)=O)cc3)c3ccccc3oc2c1

>  <score_type>  (18) 
oracle

>  <origin>  (18) 
adg

>  <m_score__min__energy>  (18) 
-9.1600000000000001

>  <m_primary>  (18) 
energy

$$$$
18:0
     RDKit          3D

 25 26  0  0  0  0  0  0  0  0999 V2000
   -0.5071   24.9598  -27.7361 H   0  0  0  0  0  0  0  0  0  0  0  0
   -1.4420   24.6260  -28.2100 C   0  0  0  0  0  0  0  0  0  0  0  0
   -1.9890   25.2670  -29.2770 N   0  0  0  0  0  0  0  0  0  0  0  0
   -3.1270   24.6640  -29.6850 C   0  0  0  0  0  0  0  0  0  0  0  0
   -3.8650   25.0830  -30.6700 N   0  0  0  0  0  0  0  0  0  0  0  0
   -5.2640   24.8070  -30.8450 C   0  0  0  0  0  0  0  0  0  0  0  0
   -6.0980   25.6570  -30.4360 O   0  0  0  0  0  0  0  0  0  0  0  0
   -5.7530   23.5360  -31.4330 C   0  0  0  0  0  0  0  0  0  0  0  0
   -4.8620   22.6860  -32.1080 C   0  0  0  0  0  0  0  0  0  0  0  0
   -3.8004   22.9617  -32.1923 H   0  0  0  0  0  0  0  0  0  0  0  0
   -5.3170   21.4920  -32.6730 C   0  0  0  0  0  0  0  0  0  0  0  0
   -4.6115   20.8275  -33.1933 H   0  0  0  0  0  0  0  0  0  0  0  0
   -6.6650   21.1400  -32.5790 C   0  0  0  0  0  0  0  0  0  0  0  0
   -7.0152   20.1958  -33.0215 H   0  0  0  0  0  0  0  0  0  0  0  0
   -7.5730   21.9800  -31.9260 C   0  0  0  0  0  0  0  0  0  0  0  0
   -8.9170   21.5820  -31.8590 O   0  0  0  0  0  0  0  0  0  0  0  0
   -9.4110   20.3360  -32.3410 C   0  0  0  0  0  0  0  0  0  0  0  0
   -9.6675   19.6890  -31.4892 H   0  0  0  0  0  0  0  0  0  0  0  0
  -10.3084   20.5094  -32.9530 H   0  0  0  0  0  0  0  0  0  0  0  0
   -8.6386   19.8474  -32.9530 H   0  0  0  0  0  0  0  0  0  0  0  0
   -7.1140   23.1860  -31.3620 C   0  0  0  0  0  0  0  0  0  0  0  0
   -7.8252   23.8599  -30.8619 H   0  0  0  0  0  0  0  0  0  0  0  0
   -3.5110   23.3350  -28.7370 S   0  0  0  0  0  0  0  0  0  0  0  0
   -2.1520   23.5170  -27.7620 C   0  0  0  0  0  0  0  0  0  0  0  0
   -1.8732   22.8708  -26.9166 H   0  0  0  0  0  0  0  0  0  0  0  0
  1  2  1  0
  2  3  1  0
  3  4  1  0
  4  5  2  0
  5  6  1  0
  6  7  2  0
  6  8  1  0
  8  9  2  0
  9 10  1  0
  9 11  1  0
 11 12  1  0
 11 13  2  0
 13 14  1  0
 13 15  1  0
 15 16  1  0
 16 17  1  0
 17 18  1  0
 17 19  1  0
 17 20  1  0
 15 21  2  0
 21 22  1  0
  4 23  1  0
 23 24  1  0
 24 25  1  0
 24  2  2  0
 21  8  1  0
M  CHG  1   3  -1
M  END
>  <UniqueID>  (19) 
19

>  <SMILES>  (19) 
COc1cccc(C(=O)/N=c2\[n-]ccs2)c1

>  <Energy>  (19) 
62.03989011205576

>  <Genealogy>  (19) 
COc1cccc(C(=O)N=c2[n-]ccs2)c1 (protonated)
COc1cccc(C(=O)/N=c2\[n-]ccs2)c1 (cis-trans isomerization)
COc1cccc(C(=O)/N=c2\[n-]ccs2)c1 (3D coordinates assigned)
COc1cccc(C(=O)/N=c2\[n-]ccs2)c1 (optimized conformer: 62.03989011205576 kcal/mol)

>  <smiles>  (19) 
COc1cccc(C(=O)N=c2[nH]ccs2)c1

>  <score_type>  (19) 
oracle

>  <origin>  (19) 
adg

>  <m_score__min__energy>  (19) 
-7.6699999999999999

>  <m_primary>  (19) 
energy

$$$$
19:0
     RDKit          3D

 26 27  0  0  0  0  0  0  0  0999 V2000
   -5.5120   18.4760  -34.3300 C   0  0  0  0  0  0  0  0  0  0  0  0
   -6.5530   19.1030  -33.4500 C   0  0  0  0  0  0  0  0  0  0  0  0
   -7.4360   18.2930  -32.7230 C   0  0  0  0  0  0  0  0  0  0  0  0
   -8.3650   18.8870  -31.8690 C   0  0  0  0  0  0  0  0  0  0  0  0
   -8.4050   20.2740  -31.7450 C   0  0  0  0  0  0  0  0  0  0  0  0
   -7.5150   21.0590  -32.4820 C   0  0  0  0  0  0  0  0  0  0  0  0
   -7.5590   22.4530  -32.3330 O   0  0  0  0  0  0  0  0  0  0  0  0
   -6.6890   23.2040  -31.5320 C   0  0  0  0  0  0  0  0  0  0  0  0
   -7.2330   24.1680  -30.6740 C   0  0  0  0  0  0  0  0  0  0  0  0
   -6.4010   24.9430  -29.8610 C   0  0  0  0  0  0  0  0  0  0  0  0
   -6.9370   25.8660  -29.0250 F   0  0  0  0  0  0  0  0  0  0  0  0
   -5.0150   24.7680  -29.9110 C   0  0  0  0  0  0  0  0  0  0  0  0
   -4.4600   23.8250  -30.7820 C   0  0  0  0  0  0  0  0  0  0  0  0
   -3.1140   23.6740  -30.8440 F   0  0  0  0  0  0  0  0  0  0  0  0
   -5.2900   23.0470  -31.5970 C   0  0  0  0  0  0  0  0  0  0  0  0
   -4.7300   22.1780  -32.4760 F   0  0  0  0  0  0  0  0  0  0  0  0
   -6.5960   20.4590  -33.2980 N   0  0  0  0  0  0  0  0  0  0  0  0
   -4.7366   18.0089  -33.7051 H   0  0  0  0  0  0  0  0  0  0  0  0
   -5.9815   17.7103  -34.9650 H   0  0  0  0  0  0  0  0  0  0  0  0
   -5.0547   19.2491  -34.9650 H   0  0  0  0  0  0  0  0  0  0  0  0
   -7.3967   17.1985  -32.8251 H   0  0  0  0  0  0  0  0  0  0  0  0
   -9.0645   18.2618  -31.2947 H   0  0  0  0  0  0  0  0  0  0  0  0
   -9.1332   20.7483  -31.0706 H   0  0  0  0  0  0  0  0  0  0  0  0
   -8.3224   24.3163  -30.6397 H   0  0  0  0  0  0  0  0  0  0  0  0
   -4.3608   25.3721  -29.2652 H   0  0  0  0  0  0  0  0  0  0  0  0
   -5.8960   21.0460  -33.8030 H   0  0  0  0  0  0  0  0  0  0  0  0
  1  2  1  0
  2  3  2  0
  3  4  1  0
  4  5  2  0
  5  6  1  0
  6  7  1  0
  7  8  1  0
  8  9  2  0
  9 10  1  0
 10 11  1  0
 10 12  2  0
 12 13  1  0
 13 14  1  0
 13 15  2  0
 15 16  1  0
  6 17  2  0
 17  2  1  0
 15  8  1  0
  1 18  1  0
  1 19  1  0
  1 20  1  0
  3 21  1  0
  4 22  1  0
  5 23  1  0
  9 24  1  0
 12 25  1  0
 17 26  1  0
M  CHG  1  17   1
M  END
>  <UniqueID>  (20) 
20

>  <SMILES>  (20) 
Cc1cccc(Oc2cc(F)cc(F)c2F)[nH+]1

>  <Energy>  (20) 
32.77792676957509

>  <Genealogy>  (20) 
Cc1cccc(Oc2cc(F)cc(F)c2F)[nH+]1 (protonated)
Cc1cccc(Oc2cc(F)cc(F)c2F)[nH+]1 (3D coordinates assigned)
Cc1cccc(Oc2cc(F)cc(F)c2F)[nH+]1 (optimized conformer: 32.77792676957509 kcal/mol)

>  <smiles>  (20) 
Cc1cccc(Oc2cc(F)cc(F)c2F)n1

>  <score_type>  (20) 
oracle

>  <origin>  (20) 
adg

>  <m_score__min__energy>  (20) 
-5.0899999999999999

>  <m_primary>  (20) 
energy

$$$$
20:0
     RDKit          3D

 20 20  0  0  0  0  0  0  0  0999 V2000
   -3.4810   25.5920  -31.5940 H   0  0  0  0  0  0  0  0  0  0  0  0
   -4.1730   25.2990  -30.8690 N   0  0  0  0  0  0  0  0  0  0  0  0
   -5.0230   24.3390  -31.0610 C   0  0  0  0  0  0  0  0  0  0  0  0
   -4.5230   23.0660  -31.5060 N   0  0  0  0  0  0  0  0  0  0  0  0
   -3.4920   22.9030  -31.4500 H   0  0  0  0  0  0  0  0  0  0  0  0
   -5.3230   22.0290  -32.1610 C   0  0  0  0  0  0  0  0  0  0  0  0
   -4.6638   21.1960  -32.4467 H   0  0  0  0  0  0  0  0  0  0  0  0
   -5.8020   22.4707  -33.0473 H   0  0  0  0  0  0  0  0  0  0  0  0
   -6.4220   21.4990  -31.2340 C   0  0  0  0  0  0  0  0  0  0  0  0
   -6.0348   21.4786  -30.2046 H   0  0  0  0  0  0  0  0  0  0  0  0
   -6.6967   20.4933  -31.5848 H   0  0  0  0  0  0  0  0  0  0  0  0
   -7.6930   22.3660  -31.2650 C   0  0  0  0  0  0  0  0  0  0  0  0
   -8.1655   22.3161  -30.2729 H   0  0  0  0  0  0  0  0  0  0  0  0
   -8.3255   21.9596  -32.0680 H   0  0  0  0  0  0  0  0  0  0  0  0
   -7.4560   23.8460  -31.6080 C   0  0  0  0  0  0  0  0  0  0  0  0
   -8.4193   24.3747  -31.5576 H   0  0  0  0  0  0  0  0  0  0  0  0
   -7.0165   23.8806  -32.6158 H   0  0  0  0  0  0  0  0  0  0  0  0
   -6.4710   24.5380  -30.6590 C   0  0  0  0  0  0  0  0  0  0  0  0
   -6.6133   24.1300  -29.6474 H   0  0  0  0  0  0  0  0  0  0  0  0
   -6.6785   25.6175  -30.6990 H   0  0  0  0  0  0  0  0  0  0  0  0
  1  2  1  0
  2  3  2  0
  3  4  1  0
  4  5  1  0
  4  6  1  0
  6  7  1  0
  6  8  1  0
  6  9  1  0
  9 10  1  0
  9 11  1  0
  9 12  1  0
 12 13  1  0
 12 14  1  0
 12 15  1  0
 15 16  1  0
 15 17  1  0
 15 18  1  0
 18 19  1  0
 18 20  1  0
 18  3  1  0
M  END
>  <UniqueID>  (21) 
21

>  <SMILES>  (21) 
[H]/N=C1\CCCCCN1

>  <Energy>  (21) 
18.28424343686308

>  <Genealogy>  (21) 
[H]/N=C1\CCCCCN1 (cis-trans isomerization)
[H]/N=C1\CCCCCN1 (3D coordinates assigned)
[H]/N=C1\CCCCCN1 (nonaromatic ring conformer: 18.28424343686308 kcal/mol)

>  <smiles>  (21) 
N=C1CCCCCN1

>  <score_type>  (21) 
oracle

>  <origin>  (21) 
adg

>  <m_score__min__energy>  (21) 
-2.8599999999999999

>  <m_primary>  (21) 
energy

$$$$
21:0
     RDKit          3D

 41 44  0  0  0  0  0  0  0  0999 V2000
   -4.6650   18.4890  -34.6080 C   0  0  0  0  0  0  0  0  0  0  0  0
   -5.8640   18.6470  -33.7220 C   0  0  0  0  0  0  0  0  0  0  0  0
   -6.5210   17.5000  -33.2040 C   0  0  0  0  0  0  0  0  0  0  0  0
   -7.6260   17.6330  -32.3440 C   0  0  0  0  0  0  0  0  0  0  0  0
   -8.0340   18.9210  -32.0120 C   0  0  0  0  0  0  0  0  0  0  0  0
   -9.0610   19.2910  -31.2270 N   0  0  0  0  0  0  0  0  0  0  0  0
   -9.0300   20.6450  -31.2490 C   0  0  0  0  0  0  0  0  0  0  0  0
   -8.0140   21.1280  -32.0090 N   0  0  0  0  0  0  0  0  0  0  0  0
   -7.7430   22.5310  -32.3160 C   0  0  0  0  0  0  0  0  0  0  0  0
   -6.6420   23.0500  -31.4310 C   0  0  0  0  0  0  0  0  0  0  0  0
   -6.8470   24.1790  -30.6250 C   0  0  0  0  0  0  0  0  0  0  0  0
   -5.8330   24.6350  -29.7780 C   0  0  0  0  0  0  0  0  0  0  0  0
   -4.5920   23.9740  -29.7240 C   0  0  0  0  0  0  0  0  0  0  0  0
   -3.5290   24.4700  -28.8110 C   0  0  0  0  0  0  0  0  0  0  0  0
   -3.6940   24.4630  -27.4130 C   0  0  0  0  0  0  0  0  0  0  0  0
   -2.6630   24.9360  -26.5980 C   0  0  0  0  0  0  0  0  0  0  0  0
   -1.4810   25.4050  -27.1690 C   0  0  0  0  0  0  0  0  0  0  0  0
   -1.3430   25.3900  -28.5580 C   0  0  0  0  0  0  0  0  0  0  0  0
   -2.3570   24.9270  -29.3370 N   0  0  0  0  0  0  0  0  0  0  0  0
   -4.3990   22.8320  -30.5240 C   0  0  0  0  0  0  0  0  0  0  0  0
   -5.4150   22.3760  -31.3690 C   0  0  0  0  0  0  0  0  0  0  0  0
   -7.4000   20.0300  -32.4920 C   0  0  0  0  0  0  0  0  0  0  0  0
   -6.3020   19.9370  -33.3480 C   0  0  0  0  0  0  0  0  0  0  0  0
   -3.7641   18.3703  -33.9881 H   0  0  0  0  0  0  0  0  0  0  0  0
   -4.7929   17.5999  -35.2430 H   0  0  0  0  0  0  0  0  0  0  0  0
   -4.5582   19.3808  -35.2430 H   0  0  0  0  0  0  0  0  0  0  0  0
   -6.1622   16.4969  -33.4781 H   0  0  0  0  0  0  0  0  0  0  0  0
   -8.1490   16.7500  -31.9480 H   0  0  0  0  0  0  0  0  0  0  0  0
   -9.7400   18.6760  -30.7260 H   0  0  0  0  0  0  0  0  0  0  0  0
   -9.7477   21.2820  -30.7113 H   0  0  0  0  0  0  0  0  0  0  0  0
   -7.4366   22.6206  -33.3687 H   0  0  0  0  0  0  0  0  0  0  0  0
   -8.6547   23.1209  -32.1404 H   0  0  0  0  0  0  0  0  0  0  0  0
   -7.8106   24.7084  -30.6595 H   0  0  0  0  0  0  0  0  0  0  0  0
   -6.0068   25.5194  -29.1474 H   0  0  0  0  0  0  0  0  0  0  0  0
   -4.6268   24.0883  -26.9663 H   0  0  0  0  0  0  0  0  0  0  0  0
   -2.7839   24.9384  -25.5047 H   0  0  0  0  0  0  0  0  0  0  0  0
   -0.6669   25.7823  -26.5328 H   0  0  0  0  0  0  0  0  0  0  0  0
   -0.4141   25.7527  -29.0224 H   0  0  0  0  0  0  0  0  0  0  0  0
   -3.4405   22.2938  -30.4839 H   0  0  0  0  0  0  0  0  0  0  0  0
   -5.2503   21.4825  -31.9891 H   0  0  0  0  0  0  0  0  0  0  0  0
   -5.7938   20.8390  -33.7196 H   0  0  0  0  0  0  0  0  0  0  0  0
  1  2  1  0
  2  3  2  0
  3  4  1  0
  4  5  2  0
  5  6  1  0
  6  7  2  0
  7  8  1  0
  8  9  1  0
  9 10  1  0
 10 11  2  0
 11 12  1  0
 12 13  2  0
 13 14  1  0
 14 15  2  0
 15 16  1  0
 16 17  2  0
 17 18  1  0
 18 19  2  0
 13 20  1  0
 20 21  2  0
  8 22  1  0
 22 23  2  0
 23  2  1  0
 22  5  1  0
 21 10  1  0
 19 14  1  0
  1 24  1  0
  1 25  1  0
  1 26  1  0
  3 27  1  0
  4 28  1  0
  6 29  1  0
  7 30  1  0
  9 31  1  0
  9 32  1  0
 11 33  1  0
 12 34  1  0
 15 35  1  0
 16 36  1  0
 17 37  1  0
 18 38  1  0
 20 39  1  0
 21 40  1  0
 23 41  1  0
M  CHG  1   6   1
M  END
>  <UniqueID>  (22) 
22

>  <SMILES>  (22) 
Cc1ccc2[nH+]cn(Cc3ccc(-c4ccccn4)cc3)c2c1

>  <Energy>  (22) 
86.3043851340664

>  <Genealogy>  (22) 
Cc1ccc2[nH+]cn(Cc3ccc(-c4ccccn4)cc3)c2c1 (protonated)
Cc1ccc2[nH+]cn(Cc3ccc(-c4ccccn4)cc3)c2c1 (3D coordinates assigned)
Cc1ccc2[nH+]cn(Cc3ccc(-c4ccccn4)cc3)c2c1 (optimized conformer: 86.3043851340664 kcal/mol)

>  <smiles>  (22) 
Cc1ccc2ncn(Cc3ccc(-c4ccccn4)cc3)c2c1

>  <score_type>  (22) 
oracle

>  <origin>  (22) 
adg

>  <m_score__min__energy>  (22) 
-8.4900000000000002

>  <m_primary>  (22) 
energy

$$$$
22:0
     RDKit          3D

 28 29  0  0  0  0  0  0  0  0999 V2000
   -2.0750   25.2840  -29.1900 O   0  0  0  0  0  0  0  0  0  0  0  0
   -3.0520   24.6740  -29.7020 C   0  0  0  0  0  0  0  0  0  0  0  0
   -3.2980   23.2410  -29.3620 C   0  0  0  0  0  0  0  0  0  0  0  0
   -2.8190   22.3880  -30.4940 C   0  0  0  0  0  0  0  0  0  0  0  0
   -3.5700   22.0140  -31.6020 C   0  0  0  0  0  0  0  0  0  0  0  0
   -2.8180   21.3540  -32.5800 C   0  0  0  0  0  0  0  0  0  0  0  0
   -1.4730   21.2230  -32.2570 C   0  0  0  0  0  0  0  0  0  0  0  0
   -1.2200   21.9370  -30.7550 S   0  0  0  0  0  0  0  0  0  0  0  0
   -3.8630   25.3070  -30.6960 N   0  0  0  0  0  0  0  0  0  0  0  0
   -5.2670   25.6300  -30.4770 C   0  0  0  0  0  0  0  0  0  0  0  0
   -6.1110   24.4230  -30.7850 C   0  0  0  0  0  0  0  0  0  0  0  0
   -6.8080   23.7730  -29.7510 C   0  0  0  0  0  0  0  0  0  0  0  0
   -7.5260   22.6030  -30.0130 C   0  0  0  0  0  0  0  0  0  0  0  0
   -7.5550   22.0720  -31.3060 C   0  0  0  0  0  0  0  0  0  0  0  0
   -6.8620   22.7110  -32.3380 C   0  0  0  0  0  0  0  0  0  0  0  0
   -6.1380   23.8800  -32.0800 C   0  0  0  0  0  0  0  0  0  0  0  0
   -2.7505   22.9794  -28.4445 H   0  0  0  0  0  0  0  0  0  0  0  0
   -4.3729   23.0750  -29.1977 H   0  0  0  0  0  0  0  0  0  0  0  0
   -4.6468   22.2164  -31.7001 H   0  0  0  0  0  0  0  0  0  0  0  0
   -3.2512   20.9743  -33.5171 H   0  0  0  0  0  0  0  0  0  0  0  0
   -0.7056   20.7362  -32.8768 H   0  0  0  0  0  0  0  0  0  0  0  0
   -5.4166   25.9244  -29.4277 H   0  0  0  0  0  0  0  0  0  0  0  0
   -5.5600   26.4611  -31.1353 H   0  0  0  0  0  0  0  0  0  0  0  0
   -6.7880   24.1870  -28.7321 H   0  0  0  0  0  0  0  0  0  0  0  0
   -8.0694   22.0989  -29.2003 H   0  0  0  0  0  0  0  0  0  0  0  0
   -8.1226   21.1523  -31.5109 H   0  0  0  0  0  0  0  0  0  0  0  0
   -6.8859   22.2937  -33.3555 H   0  0  0  0  0  0  0  0  0  0  0  0
   -5.5882   24.3754  -32.8939 H   0  0  0  0  0  0  0  0  0  0  0  0
  1  2  2  0
  2  3  1  0
  3  4  1  0
  4  5  2  0
  5  6  1  0
  6  7  2  0
  7  8  1  0
  2  9  1  0
  9 10  1  0
 10 11  1  0
 11 12  2  0
 12 13  1  0
 13 14  2  0
 14 15  1  0
 15 16  2  0
  8  4  1  0
 16 11  1  0
  3 17  1  0
  3 18  1  0
  5 19  1  0
  6 20  1  0
  7 21  1  0
 10 22  1  0
 10 23  1  0
 12 24  1  0
 13 25  1  0
 14 26  1  0
 15 27  1  0
 16 28  1  0
M  CHG  1   9  -1
M  END
>  <UniqueID>  (23) 
23

>  <SMILES>  (23) 
O=C(Cc1cccs1)[N-]Cc1ccccc1

>  <Energy>  (23) 
48.0076905741364

>  <Genealogy>  (23) 
O=C(Cc1cccs1)[N-]Cc1ccccc1 (protonated)
O=C(Cc1cccs1)[N-]Cc1ccccc1 (3D coordinates assigned)
O=C(Cc1cccs1)[N-]Cc1ccccc1 (optimized conformer: 48.0076905741364 kcal/mol)

>  <smiles>  (23) 
O=C(Cc1cccs1)NCc1ccccc1

>  <score_type>  (23) 
oracle

>  <origin>  (23) 
adg

>  <m_score__min__energy>  (23) 
-8.0999999999999996

>  <m_primary>  (23) 
energy

$$$$
23:0
     RDKit          3D

 35 36  0  0  0  0  0  0  0  0999 V2000
   -8.4120   20.0460  -33.8790 H   0  0  0  0  0  0  0  0  0  0  0  0
   -8.5510   20.1570  -32.4820 S   0  0  0  0  0  0  0  0  0  0  0  0
   -7.2910   21.4640  -32.3570 C   0  0  0  0  0  0  0  0  0  0  0  0
   -6.2941   21.0024  -32.3011 H   0  0  0  0  0  0  0  0  0  0  0  0
   -7.3584   22.1110  -33.2441 H   0  0  0  0  0  0  0  0  0  0  0  0
   -7.5250   22.3110  -31.1060 C   0  0  0  0  0  0  0  0  0  0  0  0
   -8.5874   22.2537  -30.8268 H   0  0  0  0  0  0  0  0  0  0  0  0
   -6.8911   21.9209  -30.2961 H   0  0  0  0  0  0  0  0  0  0  0  0
   -7.1500   23.7800  -31.3550 C   0  0  0  0  0  0  0  0  0  0  0  0
   -6.5104   23.8318  -32.2484 H   0  0  0  0  0  0  0  0  0  0  0  0
   -8.0871   24.3406  -31.4874 H   0  0  0  0  0  0  0  0  0  0  0  0
   -6.3960   24.4170  -30.1750 C   0  0  0  0  0  0  0  0  0  0  0  0
   -7.1320   24.7184  -29.4151 H   0  0  0  0  0  0  0  0  0  0  0  0
   -5.6898   23.6614  -29.8002 H   0  0  0  0  0  0  0  0  0  0  0  0
   -5.5660   25.6530  -30.5640 C   0  0  0  0  0  0  0  0  0  0  0  0
   -6.0016   26.1046  -31.4675 H   0  0  0  0  0  0  0  0  0  0  0  0
   -5.5868   26.3586  -29.7203 H   0  0  0  0  0  0  0  0  0  0  0  0
   -4.1720   25.3070  -30.8330 N   0  0  0  0  0  0  0  0  0  0  0  0
   -3.4490   24.5290  -30.0850 C   0  0  0  0  0  0  0  0  0  0  0  0
   -2.4130   24.9530  -29.3300 N   0  0  0  0  0  0  0  0  0  0  0  0
   -1.8380   23.9270  -28.6480 C   0  0  0  0  0  0  0  0  0  0  0  0
   -0.9774   24.0724  -27.9785 H   0  0  0  0  0  0  0  0  0  0  0  0
   -2.4210   22.6720  -28.8600 C   0  0  0  0  0  0  0  0  0  0  0  0
   -2.0080   21.3820  -28.2490 C   0  0  0  0  0  0  0  0  0  0  0  0
   -0.6900   20.9100  -28.4090 C   0  0  0  0  0  0  0  0  0  0  0  0
    0.0342   21.5005  -28.9894 H   0  0  0  0  0  0  0  0  0  0  0  0
   -0.2950   19.6970  -27.8360 C   0  0  0  0  0  0  0  0  0  0  0  0
    0.7363   19.3380  -27.9684 H   0  0  0  0  0  0  0  0  0  0  0  0
   -1.2050   18.9410  -27.0970 C   0  0  0  0  0  0  0  0  0  0  0  0
   -0.8924   17.9860  -26.6496 H   0  0  0  0  0  0  0  0  0  0  0  0
   -2.5130   19.3980  -26.9260 C   0  0  0  0  0  0  0  0  0  0  0  0
   -3.2294   18.8034  -26.3402 H   0  0  0  0  0  0  0  0  0  0  0  0
   -2.9150   20.6090  -27.4970 C   0  0  0  0  0  0  0  0  0  0  0  0
   -3.9477   20.9614  -27.3582 H   0  0  0  0  0  0  0  0  0  0  0  0
   -3.7020   22.8790  -29.9440 S   0  0  0  0  0  0  0  0  0  0  0  0
  1  2  1  0
  2  3  1  0
  3  4  1  0
  3  5  1  0
  3  6  1  0
  6  7  1  0
  6  8  1  0
  6  9  1  0
  9 10  1  0
  9 11  1  0
  9 12  1  0
 12 13  1  0
 12 14  1  0
 12 15  1  0
 15 16  1  0
 15 17  1  0
 15 18  1  0
 18 19  2  0
 19 20  1  0
 20 21  1  0
 21 22  1  0
 21 23  2  0
 23 24  1  0
 24 25  2  0
 25 26  1  0
 25 27  1  0
 27 28  1  0
 27 29  2  0
 29 30  1  0
 29 31  1  0
 31 32  1  0
 31 33  2  0
 33 34  1  0
 23 35  1  0
 35 19  1  0
 33 24  1  0
M  CHG  1  20  -1
M  END
>  <UniqueID>  (24) 
24

>  <SMILES>  (24) 
SCCCCC/N=c1\[n-]cc(-c2ccccc2)s1

>  <Energy>  (24) 
58.88826403858397

>  <Genealogy>  (24) 
SCCCCCN=c1[n-]cc(-c2ccccc2)s1 (protonated)
SCCCCC/N=c1\[n-]cc(-c2ccccc2)s1 (cis-trans isomerization)
SCCCCC/N=c1\[n-]cc(-c2ccccc2)s1 (3D coordinates assigned)
SCCCCC/N=c1\[n-]cc(-c2ccccc2)s1 (optimized conformer: 58.88826403858397 kcal/mol)

>  <smiles>  (24) 
SCCCCCN=c1[nH]cc(-c2ccccc2)s1

>  <score_type>  (24) 
oracle

>  <origin>  (24) 
adg

>  <m_score__min__energy>  (24) 
-8.9100000000000001

>  <m_primary>  (24) 
energy

$$$$
24:0
     RDKit          3D

 19 20  0  0  0  0  0  0  0  0999 V2000
   -9.4820   20.7890  -31.9740 C   0  0  0  0  0  0  0  0  0  0  0  0
   -8.7860   21.9150  -31.5300 C   0  0  0  0  0  0  0  0  0  0  0  0
   -7.4000   22.0070  -31.7460 C   0  0  0  0  0  0  0  0  0  0  0  0
   -6.6370   23.1950  -31.2830 C   0  0  0  0  0  0  0  0  0  0  0  0
   -7.2340   24.1720  -30.4710 C   0  0  0  0  0  0  0  0  0  0  0  0
   -6.5180   25.2510  -30.0610 N   0  0  0  0  0  0  0  0  0  0  0  0
   -5.2190   25.4040  -30.4190 C   0  0  0  0  0  0  0  0  0  0  0  0
   -4.6150   24.4740  -31.2020 N   0  0  0  0  0  0  0  0  0  0  0  0
   -5.2920   23.3820  -31.6390 C   0  0  0  0  0  0  0  0  0  0  0  0
   -6.7490   20.9520  -32.4090 C   0  0  0  0  0  0  0  0  0  0  0  0
   -7.4860   19.8440  -32.8380 C   0  0  0  0  0  0  0  0  0  0  0  0
   -8.8240   19.7860  -32.6140 N   0  0  0  0  0  0  0  0  0  0  0  0
  -10.5664   20.7131  -31.8054 H   0  0  0  0  0  0  0  0  0  0  0  0
   -9.3198   22.7264  -31.0135 H   0  0  0  0  0  0  0  0  0  0  0  0
   -8.2852   24.0635  -30.1657 H   0  0  0  0  0  0  0  0  0  0  0  0
   -4.6541   26.2827  -30.0745 H   0  0  0  0  0  0  0  0  0  0  0  0
   -4.7851   22.6408  -32.2744 H   0  0  0  0  0  0  0  0  0  0  0  0
   -5.6649   20.9980  -32.5894 H   0  0  0  0  0  0  0  0  0  0  0  0
   -6.9806   19.0171  -33.3584 H   0  0  0  0  0  0  0  0  0  0  0  0
  1  2  2  0
  2  3  1  0
  3  4  1  0
  4  5  2  0
  5  6  1  0
  6  7  2  0
  7  8  1  0
  8  9  2  0
  3 10  2  0
 10 11  1  0
 11 12  2  0
 12  1  1  0
  9  4  1  0
  1 13  1  0
  2 14  1  0
  5 15  1  0
  7 16  1  0
  9 17  1  0
 10 18  1  0
 11 19  1  0
M  END
>  <UniqueID>  (25) 
25

>  <SMILES>  (25) 
c1cc(-c2cncnc2)ccn1

>  <Energy>  (25) 
27.237804372940367

>  <Genealogy>  (25) 
c1cc(-c2cncnc2)ccn1 (3D coordinates assigned)
c1cc(-c2cncnc2)ccn1 (optimized conformer: 27.237804372940367 kcal/mol)

>  <smiles>  (25) 
c1cc(-c2cncnc2)ccn1

>  <score_type>  (25) 
oracle

>  <origin>  (25) 
adg

>  <m_score__min__energy>  (25) 
-5.4500000000000002

>  <m_primary>  (25) 
energy

$$$$
25:0
     RDKit          3D

 36 36  0  0  0  0  0  0  0  0999 V2000
   -2.6770   21.5640  -32.9740 C   0  0  0  0  0  0  0  0  0  0  0  0
   -3.5280   22.4610  -32.2680 O   0  0  0  0  0  0  0  0  0  0  0  0
   -4.9180   22.3030  -32.1320 C   0  0  0  0  0  0  0  0  0  0  0  0
   -5.5830   21.1480  -32.5860 C   0  0  0  0  0  0  0  0  0  0  0  0
   -6.9700   21.0080  -32.4270 C   0  0  0  0  0  0  0  0  0  0  0  0
   -7.6140   19.8170  -32.8980 N   0  0  0  0  0  0  0  0  0  0  0  0
   -7.7030   22.0400  -31.8110 C   0  0  0  0  0  0  0  0  0  0  0  0
   -9.4450   21.9340  -31.5880 Cl  0  0  0  0  0  0  0  0  0  0  0  0
   -7.0460   23.1890  -31.3630 C   0  0  0  0  0  0  0  0  0  0  0  0
   -5.6590   23.3240  -31.5100 C   0  0  0  0  0  0  0  0  0  0  0  0
   -4.9870   24.5490  -31.0330 C   0  0  0  0  0  0  0  0  0  0  0  0
   -5.5820   25.6530  -31.1370 O   0  0  0  0  0  0  0  0  0  0  0  0
   -3.6690   24.5240  -30.4690 N   0  0  0  0  0  0  0  0  0  0  0  0
   -3.3510   24.4610  -29.0430 C   0  0  0  0  0  0  0  0  0  0  0  0
   -2.5250   23.2070  -28.6910 C   0  0  0  0  0  0  0  0  0  0  0  0
   -2.4080   22.2450  -29.8140 N   0  0  0  0  0  0  0  0  0  0  0  0
   -3.0340   20.9470  -29.4960 C   0  0  0  0  0  0  0  0  0  0  0  0
   -0.9860   22.0370  -30.1430 C   0  0  0  0  0  0  0  0  0  0  0  0
   -2.1039   20.9599  -32.2552 H   0  0  0  0  0  0  0  0  0  0  0  0
   -3.2864   20.9014  -33.6061 H   0  0  0  0  0  0  0  0  0  0  0  0
   -1.9832   22.1377  -33.6061 H   0  0  0  0  0  0  0  0  0  0  0  0
   -5.0081   20.3455  -33.0713 H   0  0  0  0  0  0  0  0  0  0  0  0
   -7.6940   18.9610  -32.3080 H   0  0  0  0  0  0  0  0  0  0  0  0
   -8.0230   19.7800  -33.8580 H   0  0  0  0  0  0  0  0  0  0  0  0
   -7.6240   23.9964  -30.8897 H   0  0  0  0  0  0  0  0  0  0  0  0
   -2.7733   25.3557  -28.7679 H   0  0  0  0  0  0  0  0  0  0  0  0
   -4.2978   24.4123  -28.4852 H   0  0  0  0  0  0  0  0  0  0  0  0
   -1.5138   23.5262  -28.3984 H   0  0  0  0  0  0  0  0  0  0  0  0
   -3.0503   22.6906  -27.8741 H   0  0  0  0  0  0  0  0  0  0  0  0
   -2.8740   22.6420  -30.6640 H   0  0  0  0  0  0  0  0  0  0  0  0
   -3.0925   20.8258  -28.4043 H   0  0  0  0  0  0  0  0  0  0  0  0
   -4.0471   20.9140  -29.9234 H   0  0  0  0  0  0  0  0  0  0  0  0
   -2.4291   20.1337  -29.9234 H   0  0  0  0  0  0  0  0  0  0  0  0
   -0.4034   21.9518  -29.2139 H   0  0  0  0  0  0  0  0  0  0  0  0
   -0.8768   21.1133  -30.7303 H   0  0  0  0  0  0  0  0  0  0  0  0
   -0.6168   22.8907  -30.7303 H   0  0  0  0  0  0  0  0  0  0  0  0
  1  2  1  0
  2  3  1  0
  3  4  2  0
  4  5  1  0
  5  6  1  0
  5  7  2  0
  7  8  1  0
  7  9  1  0
  9 10  2  0
 10 11  1  0
 11 12  2  0
 11 13  1  0
 13 14  1  0
 14 15  1  0
 15 16  1  0
 16 17  1  0
 16 18  1  0
 10  3  1  0
  1 19  1  0
  1 20  1  0
  1 21  1  0
  4 22  1  0
  6 23  1  0
  6 24  1  0
  9 25  1  0
 14 26  1  0
 14 27  1  0
 15 28  1  0
 15 29  1  0
 16 30  1  0
 17 31  1  0
 17 32  1  0
 17 33  1  0
 18 34  1  0
 18 35  1  0
 18 36  1  0
M  CHG  2  13  -1  16   1
M  END
>  <UniqueID>  (26) 
26

>  <SMILES>  (26) 
COc1cc(N)c(Cl)cc1C(=O)[N-]CC[NH+](C)C

>  <Energy>  (26) 
38.420091911978304

>  <Genealogy>  (26) 
COc1cc(N)c(Cl)cc1C(=O)[N-]CC[NH+](C)C (protonated)
COc1cc(N)c(Cl)cc1C(=O)[N-]CC[NH+](C)C (3D coordinates assigned)
COc1cc(N)c(Cl)cc1C(=O)[N-]CC[NH+](C)C (optimized conformer: 38.420091911978304 kcal/mol)

>  <smiles>  (26) 
COc1cc(N)c(Cl)cc1C(=O)NCCN(C)C

>  <score_type>  (26) 
oracle

>  <origin>  (26) 
adg

>  <m_score__min__energy>  (26) 
-5.6799999999999997

>  <m_primary>  (26) 
energy

$$$$
26:0
     RDKit          3D

 52 55  0  0  0  0  0  0  0  0999 V2000
   -7.2340   16.0210  -33.9330 O   0  0  0  0  0  0  0  0  0  0  0  0
   -6.4060   16.9200  -33.6200 C   0  0  0  0  0  0  0  0  0  0  0  0
   -4.9730   16.6820  -33.9100 C   0  0  0  0  0  0  0  0  0  0  0  0
   -4.2750   15.5250  -33.5710 C   0  0  0  0  0  0  0  0  0  0  0  0
   -2.9160   15.5700  -33.9050 C   0  0  0  0  0  0  0  0  0  0  0  0
   -2.5290   16.7720  -34.4860 C   0  0  0  0  0  0  0  0  0  0  0  0
   -1.1420   17.1210  -34.9620 C   0  0  0  0  0  0  0  0  0  0  0  0
   -0.4410   18.1260  -34.1210 N   0  0  0  0  0  0  0  0  0  0  0  0
   -0.4810   19.4890  -34.6800 C   0  0  0  0  0  0  0  0  0  0  0  0
   -1.5020   20.2970  -33.8870 C   0  0  0  0  0  0  0  0  0  0  0  0
   -1.8710   19.4480  -32.6840 C   0  0  0  0  0  0  0  0  0  0  0  0
   -0.9750   18.2200  -32.7520 C   0  0  0  0  0  0  0  0  0  0  0  0
   -3.8830   17.7630  -34.6020 S   0  0  0  0  0  0  0  0  0  0  0  0
   -6.8880   18.1270  -32.9970 N   0  0  0  0  0  0  0  0  0  0  0  0
   -8.1790   18.1920  -32.3320 C   0  0  0  0  0  0  0  0  0  0  0  0
   -8.3150   19.6280  -31.8480 C   0  0  0  0  0  0  0  0  0  0  0  0
   -7.3720   20.4430  -32.7450 C   0  0  1  0  0  0  0  0  0  0  0  0
   -6.8440   21.7270  -32.1100 C   0  0  0  0  0  0  0  0  0  0  0  0
   -7.6940   22.5430  -31.3370 C   0  0  0  0  0  0  0  0  0  0  0  0
   -7.2060   23.6860  -30.7000 C   0  0  0  0  0  0  0  0  0  0  0  0
   -5.8440   24.0170  -30.7740 C   0  0  0  0  0  0  0  0  0  0  0  0
   -5.3270   25.2770  -30.1270 C   0  0  0  0  0  0  0  0  0  0  0  0
   -3.9450   25.2590  -30.0540 F   0  0  0  0  0  0  0  0  0  0  0  0
   -5.7060   26.3920  -30.8550 F   0  0  0  0  0  0  0  0  0  0  0  0
   -5.8440   25.3770  -28.8490 F   0  0  0  0  0  0  0  0  0  0  0  0
   -4.9860   23.1980  -31.5230 C   0  0  0  0  0  0  0  0  0  0  0  0
   -5.4740   22.0530  -32.1610 C   0  0  0  0  0  0  0  0  0  0  0  0
   -6.2770   19.4400  -33.1290 C   0  0  0  0  0  0  0  0  0  0  0  0
   -4.7471   14.6576  -33.0865 H   0  0  0  0  0  0  0  0  0  0  0  0
   -2.2222   14.7355  -33.7252 H   0  0  0  0  0  0  0  0  0  0  0  0
   -0.5398   16.2006  -34.9726 H   0  0  0  0  0  0  0  0  0  0  0  0
   -1.2553   17.5697  -35.9599 H   0  0  0  0  0  0  0  0  0  0  0  0
    0.5600   17.8220  -34.0630 H   0  0  0  0  0  0  0  0  0  0  0  0
    0.5113   19.9560  -34.5949 H   0  0  0  0  0  0  0  0  0  0  0  0
   -0.7633   19.4567  -35.7427 H   0  0  0  0  0  0  0  0  0  0  0  0
   -1.0627   21.2511  -33.5602 H   0  0  0  0  0  0  0  0  0  0  0  0
   -2.3863   20.5346  -34.4966 H   0  0  0  0  0  0  0  0  0  0  0  0
   -1.6887   20.0040  -31.7525 H   0  0  0  0  0  0  0  0  0  0  0  0
   -2.9360   19.1729  -32.6942 H   0  0  0  0  0  0  0  0  0  0  0  0
   -0.1477   18.3205  -32.0340 H   0  0  0  0  0  0  0  0  0  0  0  0
   -1.5458   17.3142  -32.4998 H   0  0  0  0  0  0  0  0  0  0  0  0
   -8.9871   17.9456  -33.0364 H   0  0  0  0  0  0  0  0  0  0  0  0
   -8.2472   17.4734  -31.5020 H   0  0  0  0  0  0  0  0  0  0  0  0
   -9.3522   19.9768  -31.9602 H   0  0  0  0  0  0  0  0  0  0  0  0
   -8.0610   19.7298  -30.7826 H   0  0  0  0  0  0  0  0  0  0  0  0
   -7.8950   20.8462  -33.6247 H   0  0  0  0  0  0  0  0  0  0  0  0
   -8.7561   22.2761  -31.2340 H   0  0  0  0  0  0  0  0  0  0  0  0
   -7.8946   24.3321  -30.1357 H   0  0  0  0  0  0  0  0  0  0  0  0
   -3.9208   23.4584  -31.6092 H   0  0  0  0  0  0  0  0  0  0  0  0
   -4.7799   21.3990  -32.7092 H   0  0  0  0  0  0  0  0  0  0  0  0
   -5.9479   19.6083  -34.1650 H   0  0  0  0  0  0  0  0  0  0  0  0
   -5.3880   19.5422  -32.4893 H   0  0  0  0  0  0  0  0  0  0  0  0
  1  2  2  0
  2  3  1  0
  3  4  2  0
  4  5  1  0
  5  6  2  0
  6  7  1  0
  7  8  1  0
  8  9  1  0
  9 10  1  0
 10 11  1  0
 11 12  1  0
  6 13  1  0
  2 14  1  0
 14 15  1  0
 15 16  1  0
 16 17  1  0
 17 18  1  0
 18 19  2  0
 19 20  1  0
 20 21  2  0
 21 22  1  0
 22 23  1  0
 22 24  1  0
 22 25  1  0
 21 26  1  0
 26 27  2  0
 17 28  1  0
 13  3  1  0
 28 14  1  0
 12  8  1  0
 27 18  1  0
  4 29  1  0
  5 30  1  0
  7 31  1  0
  7 32  1  0
  8 33  1  0
  9 34  1  0
  9 35  1  0
 10 36  1  0
 10 37  1  0
 11 38  1  0
 11 39  1  0
 12 40  1  0
 12 41  1  0
 15 42  1  0
 15 43  1  0
 16 44  1  0
 16 45  1  0
 17 46  1  6
 19 47  1  0
 20 48  1  0
 26 49  1  0
 27 50  1  0
 28 51  1  0
 28 52  1  0
M  CHG  1   8   1
M  END
>  <UniqueID>  (27) 
27

>  <SMILES>  (27) 
O=C(c1ccc(C[NH+]2CCCC2)s1)N1CC[C@@H](c2ccc(C(F)(F)F)cc2)C1

>  <Energy>  (27) 
91.4590626542754

>  <Genealogy>  (27) 
O=C(c1ccc(C[NH+]2CCCC2)s1)N1CCC(c2ccc(C(F)(F)F)cc2)C1 (protonated)
O=C(c1ccc(C[NH+]2CCCC2)s1)N1CC[C@@H](c2ccc(C(F)(F)F)cc2)C1 (chirality)
O=C(c1ccc(C[NH+]2CCCC2)s1)N1CC[C@@H](c2ccc(C(F)(F)F)cc2)C1 (3D coordinates assigned)
O=C(c1ccc(C[NH+]2CCCC2)s1)N1CC[C@@H](c2ccc(C(F)(F)F)cc2)C1 (nonaromatic ring conformer: 91.4590626542754 kcal/mol)

>  <smiles>  (27) 
O=C(c1ccc(CN2CCCC2)s1)N1CCC(c2ccc(C(F)(F)F)cc2)C1

>  <score_type>  (27) 
oracle

>  <origin>  (27) 
adg

>  <m_score__min__energy>  (27) 
-8.7599999999999998

>  <m_primary>  (27) 
energy

$$$$
27:0
     RDKit          3D

 34 36  0  0  0  0  0  0  0  0999 V2000
   -5.3010   18.5370  -34.0170 C   0  0  0  0  0  0  0  0  0  0  0  0
   -5.9010   17.8690  -32.8230 C   0  0  0  0  0  0  0  0  0  0  0  0
   -6.0770   16.3760  -33.0980 C   0  0  0  0  0  0  0  0  0  0  0  0
   -7.1370   18.4730  -32.3620 N   0  0  0  0  0  0  0  0  0  0  0  0
   -8.3620   17.8900  -32.3550 C   0  0  0  0  0  0  0  0  0  0  0  0
   -9.2770   18.7380  -31.8600 N   0  0  0  0  0  0  0  0  0  0  0  0
   -8.6040   19.8570  -31.5620 C   0  0  0  0  0  0  0  0  0  0  0  0
   -9.0130   21.0600  -31.0270 C   0  0  0  0  0  0  0  0  0  0  0  0
   -8.1030   22.1010  -30.8020 C   0  0  0  0  0  0  0  0  0  0  0  0
   -6.7620   21.9700  -31.1030 C   0  0  0  0  0  0  0  0  0  0  0  0
   -5.8180   23.0510  -30.8690 C   0  0  0  0  0  0  0  0  0  0  0  0
   -6.2340   24.3340  -30.5850 C   0  0  0  0  0  0  0  0  0  0  0  0
   -5.3170   25.3620  -30.3620 C   0  0  0  0  0  0  0  0  0  0  0  0
   -5.7250   26.5720  -30.0940 N   0  0  0  0  0  0  0  0  0  0  0  0
   -3.9970   25.1140  -30.4220 N   0  0  0  0  0  0  0  0  0  0  0  0
   -3.5980   23.8620  -30.7010 C   0  0  0  0  0  0  0  0  0  0  0  0
   -4.4900   22.8490  -30.9200 N   0  0  0  0  0  0  0  0  0  0  0  0
   -6.3690   20.7590  -31.6370 C   0  0  0  0  0  0  0  0  0  0  0  0
   -7.2650   19.7300  -31.8610 C   0  0  0  0  0  0  0  0  0  0  0  0
   -4.5999   19.3176  -33.6867 H   0  0  0  0  0  0  0  0  0  0  0  0
   -4.7625   17.7925  -34.6217 H   0  0  0  0  0  0  0  0  0  0  0  0
   -6.0989   18.9928  -34.6217 H   0  0  0  0  0  0  0  0  0  0  0  0
   -5.1922   18.0112  -31.9939 H   0  0  0  0  0  0  0  0  0  0  0  0
   -6.1411   15.8325  -32.1438 H   0  0  0  0  0  0  0  0  0  0  0  0
   -7.0003   16.2156  -33.6741 H   0  0  0  0  0  0  0  0  0  0  0  0
   -5.2163   16.0053  -33.6741 H   0  0  0  0  0  0  0  0  0  0  0  0
   -8.5747   16.8690  -32.7048 H   0  0  0  0  0  0  0  0  0  0  0  0
  -10.0732   21.2051  -30.7722 H   0  0  0  0  0  0  0  0  0  0  0  0
   -8.4663   23.0472  -30.3745 H   0  0  0  0  0  0  0  0  0  0  0  0
   -7.3109   24.5521  -30.5331 H   0  0  0  0  0  0  0  0  0  0  0  0
   -6.0780   26.8200  -29.1590 H   0  0  0  0  0  0  0  0  0  0  0  0
   -2.5209   23.6451  -30.7549 H   0  0  0  0  0  0  0  0  0  0  0  0
   -4.0550   21.9260  -31.1250 H   0  0  0  0  0  0  0  0  0  0  0  0
   -5.3097   20.6080  -31.8923 H   0  0  0  0  0  0  0  0  0  0  0  0
  1  2  1  0
  2  3  1  0
  2  4  1  0
  4  5  1  0
  5  6  2  0
  6  7  1  0
  7  8  2  0
  8  9  1  0
  9 10  2  0
 10 11  1  0
 11 12  2  0
 12 13  1  0
 13 14  2  3
 13 15  1  0
 15 16  2  0
 16 17  1  0
 10 18  1  0
 18 19  2  0
 19  4  1  0
 19  7  1  0
 17 11  1  0
  1 20  1  0
  1 21  1  0
  1 22  1  0
  2 23  1  0
  3 24  1  0
  3 25  1  0
  3 26  1  0
  5 27  1  0
  8 28  1  0
  9 29  1  0
 12 30  1  0
 14 31  1  0
 16 32  1  0
 17 33  1  0
 18 34  1  0
M  END
>  <smiles>  (28) 
CC(C)n1cnc2ccc(-c3cc(=N)nc[nH]3)cc21

>  <score_type>  (28) 
oracle

>  <origin>  (28) 
adg

>  <m_score__min__energy>  (28) 
-7.4299999999999997

>  <m_primary>  (28) 
energy

$$$$
28:0
     RDKit          3D

 38 40  0  0  0  0  0  0  0  0999 V2000
   -5.5836   22.2951  -33.2268 H   0  0  0  0  0  0  0  0  0  0  0  0
   -6.1920   22.1110  -32.3290 C   0  0  0  0  0  0  0  0  0  0  0  0
   -6.2230   23.0760  -31.3860 C   0  0  0  0  0  0  0  0  0  0  0  0
   -4.9570   23.5100  -30.7410 C   0  0  0  0  0  0  0  0  0  0  0  0
   -4.6730   24.8790  -30.6200 C   0  0  0  0  0  0  0  0  0  0  0  0
   -5.3918   25.6176  -31.0045 H   0  0  0  0  0  0  0  0  0  0  0  0
   -3.5490   25.2960  -30.0480 O   0  0  0  0  0  0  0  0  0  0  0  0
   -2.6370   24.4590  -29.5650 C   0  0  0  0  0  0  0  0  0  0  0  0
   -1.4770   24.9690  -28.9720 C   0  0  0  0  0  0  0  0  0  0  0  0
   -1.3297   26.0571  -28.9062 H   0  0  0  0  0  0  0  0  0  0  0  0
   -0.4970   24.0980  -28.4590 C   0  0  0  0  0  0  0  0  0  0  0  0
    0.6810   24.5630  -27.8560 O   0  0  0  0  0  0  0  0  0  0  0  0
    0.8880   24.6420  -26.4500 C   0  0  0  0  0  0  0  0  0  0  0  0
   -0.0158   24.2971  -25.9264 H   0  0  0  0  0  0  0  0  0  0  0  0
    1.7401   24.0059  -26.1685 H   0  0  0  0  0  0  0  0  0  0  0  0
    1.0996   25.6841  -26.1685 H   0  0  0  0  0  0  0  0  0  0  0  0
   -0.6960   22.7160  -28.5490 C   0  0  0  0  0  0  0  0  0  0  0  0
    0.0657   22.0300  -28.1499 H   0  0  0  0  0  0  0  0  0  0  0  0
   -1.8510   22.1970  -29.1400 C   0  0  0  0  0  0  0  0  0  0  0  0
   -1.9926   21.1081  -29.2046 H   0  0  0  0  0  0  0  0  0  0  0  0
   -2.8320   23.0630  -29.6520 C   0  0  0  0  0  0  0  0  0  0  0  0
   -4.0080   22.5880  -30.2570 C   0  0  0  0  0  0  0  0  0  0  0  0
   -4.2050   21.3480  -30.3830 O   0  0  0  0  0  0  0  0  0  0  0  0
   -7.5100   23.7140  -30.9270 C   0  0  0  0  0  0  0  0  0  0  0  0
   -7.5401   23.7289  -29.8275 H   0  0  0  0  0  0  0  0  0  0  0  0
   -7.5654   24.7439  -31.3093 H   0  0  0  0  0  0  0  0  0  0  0  0
   -8.3633   23.1345  -31.3093 H   0  0  0  0  0  0  0  0  0  0  0  0
   -6.9150   20.8260  -32.2440 C   0  0  0  0  0  0  0  0  0  0  0  0
   -8.3140   20.8350  -32.1190 C   0  0  0  0  0  0  0  0  0  0  0  0
   -8.8522   21.7925  -32.0594 H   0  0  0  0  0  0  0  0  0  0  0  0
   -9.0260   19.6320  -32.0700 C   0  0  0  0  0  0  0  0  0  0  0  0
  -10.1200   19.6457  -31.9565 H   0  0  0  0  0  0  0  0  0  0  0  0
   -8.3500   18.4130  -32.1650 C   0  0  0  0  0  0  0  0  0  0  0  0
   -8.9103   17.4676  -32.1179 H   0  0  0  0  0  0  0  0  0  0  0  0
   -6.9610   18.3960  -32.3200 C   0  0  0  0  0  0  0  0  0  0  0  0
   -6.4300   17.4364  -32.4044 H   0  0  0  0  0  0  0  0  0  0  0  0
   -6.2450   19.5960  -32.3680 C   0  0  0  0  0  0  0  0  0  0  0  0
   -5.1535   19.5778  -32.5033 H   0  0  0  0  0  0  0  0  0  0  0  0
  1  2  1  0
  2  3  2  0
  3  4  1  0
  4  5  2  0
  5  6  1  0
  5  7  1  0
  7  8  1  0
  8  9  2  0
  9 10  1  0
  9 11  1  0
 11 12  1  0
 12 13  1  0
 13 14  1  0
 13 15  1  0
 13 16  1  0
 11 17  2  0
 17 18  1  0
 17 19  1  0
 19 20  1  0
 19 21  2  0
 21 22  1  0
 22 23  2  0
  3 24  1  0
 24 25  1  0
 24 26  1  0
 24 27  1  0
  2 28  1  0
 28 29  2  0
 29 30  1  0
 29 31  1  0
 31 32  1  0
 31 33  2  0
 33 34  1  0
 33 35  1  0
 35 36  1  0
 35 37  2  0
 37 38  1  0
 22  4  1  0
 37 28  1  0
 21  8  1  0
M  END
>  <UniqueID>  (29) 
28

>  <SMILES>  (29) 
COc1ccc2c(=O)c(/C(C)=C/c3ccccc3)coc2c1

>  <Energy>  (29) 
57.408568096903885

>  <Genealogy>  (29) 
COc1ccc2c(=O)c(/C(C)=C/c3ccccc3)coc2c1 (cis-trans isomerization)
COc1ccc2c(=O)c(/C(C)=C/c3ccccc3)coc2c1 (3D coordinates assigned)
COc1ccc2c(=O)c(/C(C)=C/c3ccccc3)coc2c1 (optimized conformer: 57.408568096903885 kcal/mol)

>  <smiles>  (29) 
COc1ccc2c(=O)c(C(C)=Cc3ccccc3)coc2c1

>  <score_type>  (29) 
oracle

>  <origin>  (29) 
adg

>  <m_score__min__energy>  (29) 
-8.4900000000000002

>  <m_primary>  (29) 
energy

$$$$
29:0
     RDKit          3D

 57 61  0  0  0  0  0  0  0  0999 V2000
   -5.3810   25.7080  -30.4640 C   0  0  0  0  0  0  0  0  0  0  0  0
   -4.1820   25.0340  -30.8300 O   0  0  0  0  0  0  0  0  0  0  0  0
   -3.9600   23.6530  -30.6990 C   0  0  0  0  0  0  0  0  0  0  0  0
   -4.4770   22.7470  -31.6470 C   0  0  0  0  0  0  0  0  0  0  0  0
   -4.2630   21.3700  -31.5190 C   0  0  0  0  0  0  0  0  0  0  0  0
   -4.8180   20.4370  -32.5280 C   0  0  0  0  0  0  0  0  0  0  0  0
   -4.0730   19.5240  -33.2570 C   0  0  0  0  0  0  0  0  0  0  0  0
   -5.0090   18.8270  -33.9980 C   0  0  0  0  0  0  0  0  0  0  0  0
   -4.7140   17.7810  -35.0260 C   0  0  0  0  0  0  0  0  0  0  0  0
   -4.2580   16.5180  -34.3530 C   0  0  0  0  0  0  0  0  0  0  0  0
   -3.1190   15.8230  -34.8370 C   0  0  0  0  0  0  0  0  0  0  0  0
   -2.6620   14.6620  -34.1870 C   0  0  0  0  0  0  0  0  0  0  0  0
   -3.3540   14.2350  -33.0570 C   0  0  0  0  0  0  0  0  0  0  0  0
   -4.4360   14.9010  -32.5810 C   0  0  0  0  0  0  0  0  0  0  0  0
   -4.9230   16.0510  -33.1960 C   0  0  0  0  0  0  0  0  0  0  0  0
   -4.9140   14.2600  -31.4550 O   0  0  0  0  0  0  0  0  0  0  0  0
   -4.0800   13.1200  -31.2080 C   0  0  0  0  0  0  0  0  0  0  0  0
   -3.0970   13.1410  -32.2530 O   0  0  0  0  0  0  0  0  0  0  0  0
   -6.2370   19.3130  -33.7380 N   0  0  0  0  0  0  0  0  0  0  0  0
   -6.1280   20.2880  -32.8500 N   0  0  0  0  0  0  0  0  0  0  0  0
   -7.2420   21.0890  -32.4190 C   0  0  0  0  0  0  0  0  0  0  0  0
   -8.3780   20.4800  -31.8690 C   0  0  0  0  0  0  0  0  0  0  0  0
   -9.4560   21.2610  -31.4480 C   0  0  0  0  0  0  0  0  0  0  0  0
   -9.3920   22.6480  -31.5940 C   0  0  0  0  0  0  0  0  0  0  0  0
   -8.2930   23.2260  -32.1480 N   0  0  0  0  0  0  0  0  0  0  0  0
   -7.2310   22.4850  -32.5640 C   0  0  0  0  0  0  0  0  0  0  0  0
   -3.4980   20.8920  -30.4510 C   0  0  0  0  0  0  0  0  0  0  0  0
   -2.9850   21.7730  -29.4850 C   0  0  0  0  0  0  0  0  0  0  0  0
   -2.2410   21.3120  -28.3860 O   0  0  0  0  0  0  0  0  0  0  0  0
   -2.6620   20.2800  -27.5000 C   0  0  0  0  0  0  0  0  0  0  0  0
   -3.2110   23.1550  -29.6030 C   0  0  0  0  0  0  0  0  0  0  0  0
   -2.6630   23.9710  -28.5950 O   0  0  0  0  0  0  0  0  0  0  0  0
   -3.2300   24.2390  -27.3170 C   0  0  0  0  0  0  0  0  0  0  0  0
   -5.4574   25.7510  -29.3675 H   0  0  0  0  0  0  0  0  0  0  0  0
   -5.3660   26.7299  -30.8708 H   0  0  0  0  0  0  0  0  0  0  0  0
   -6.2462   25.1640  -30.8708 H   0  0  0  0  0  0  0  0  0  0  0  0
   -5.0574   23.1281  -32.5002 H   0  0  0  0  0  0  0  0  0  0  0  0
   -2.9818   19.3850  -33.2481 H   0  0  0  0  0  0  0  0  0  0  0  0
   -5.6238   17.5757  -35.6091 H   0  0  0  0  0  0  0  0  0  0  0  0
   -3.9186   18.1433  -35.6938 H   0  0  0  0  0  0  0  0  0  0  0  0
   -2.5898   16.1948  -35.7268 H   0  0  0  0  0  0  0  0  0  0  0  0
   -1.7866   14.1097  -34.5594 H   0  0  0  0  0  0  0  0  0  0  0  0
   -5.7992   16.5806  -32.7937 H   0  0  0  0  0  0  0  0  0  0  0  0
   -3.5976   13.2009  -30.2227 H   0  0  0  0  0  0  0  0  0  0  0  0
   -4.6553   12.1825  -31.2029 H   0  0  0  0  0  0  0  0  0  0  0  0
   -7.1270   19.0120  -34.1940 H   0  0  0  0  0  0  0  0  0  0  0  0
   -8.4204   19.3854  -31.7689 H   0  0  0  0  0  0  0  0  0  0  0  0
  -10.3458   20.7888  -31.0062 H   0  0  0  0  0  0  0  0  0  0  0  0
  -10.2323   23.2744  -31.2602 H   0  0  0  0  0  0  0  0  0  0  0  0
   -6.3599   22.9819  -33.0160 H   0  0  0  0  0  0  0  0  0  0  0  0
   -3.2956   19.8141  -30.3663 H   0  0  0  0  0  0  0  0  0  0  0  0
   -2.5267   20.6118  -26.4600 H   0  0  0  0  0  0  0  0  0  0  0  0
   -3.7239   20.0547  -27.6778 H   0  0  0  0  0  0  0  0  0  0  0  0
   -2.0607   19.3762  -27.6778 H   0  0  0  0  0  0  0  0  0  0  0  0
   -2.5343   23.9102  -26.5310 H   0  0  0  0  0  0  0  0  0  0  0  0
   -3.4131   25.3190  -27.2163 H   0  0  0  0  0  0  0  0  0  0  0  0
   -4.1807   23.6949  -27.2163 H   0  0  0  0  0  0  0  0  0  0  0  0
  1  2  1  0
  2  3  1  0
  3  4  2  0
  4  5  1  0
  5  6  1  0
  6  7  2  0
  7  8  1  0
  8  9  1  0
  9 10  1  0
 10 11  2  0
 11 12  1  0
 12 13  2  0
 13 14  1  0
 14 15  2  0
 14 16  1  0
 16 17  1  0
 17 18  1  0
  8 19  2  0
 19 20  1  0
 20 21  1  0
 21 22  2  0
 22 23  1  0
 23 24  2  0
 24 25  1  0
 25 26  2  0
  5 27  2  0
 27 28  1  0
 28 29  1  0
 29 30  1  0
 28 31  2  0
 31 32  1  0
 32 33  1  0
 31  3  1  0
 20  6  1  0
 26 21  1  0
 15 10  1  0
 18 13  1  0
  1 34  1  0
  1 35  1  0
  1 36  1  0
  4 37  1  0
  7 38  1  0
  9 39  1  0
  9 40  1  0
 11 41  1  0
 12 42  1  0
 15 43  1  0
 17 44  1  0
 17 45  1  0
 19 46  1  0
 22 47  1  0
 23 48  1  0
 24 49  1  0
 26 50  1  0
 27 51  1  0
 30 52  1  0
 30 53  1  0
 30 54  1  0
 33 55  1  0
 33 56  1  0
 33 57  1  0
M  CHG  1  19   1
M  END
>  <UniqueID>  (30) 
29

>  <SMILES>  (30) 
COc1cc(-c2cc(Cc3ccc4c(c3)OCO4)[nH+]n2-c2cccnc2)cc(OC)c1OC

>  <Energy>  (30) 
129.60255389340847

>  <Genealogy>  (30) 
COc1cc(-c2cc(Cc3ccc4c(c3)OCO4)[nH+]n2-c2cccnc2)cc(OC)c1OC (protonated)
COc1cc(-c2cc(Cc3ccc4c(c3)OCO4)[nH+]n2-c2cccnc2)cc(OC)c1OC (3D coordinates assigned)
COc1cc(-c2cc(Cc3ccc4c(c3)OCO4)[nH+]n2-c2cccnc2)cc(OC)c1OC (nonaromatic ring conformer: 129.60255389340847 kcal/mol)

>  <smiles>  (30) 
COc1cc(-c2cc(Cc3ccc4c(c3)OCO4)nn2-c2cccnc2)cc(OC)c1OC

>  <score_type>  (30) 
oracle

>  <origin>  (30) 
adg

>  <m_score__min__energy>  (30) 
-8.5700000000000003

>  <m_primary>  (30) 
energy

$$$$
30:0
     RDKit          3D

 37 39  0  0  0  0  0  0  0  0999 V2000
   -4.1060   15.8040  -33.0030 C   0  0  0  0  0  0  0  0  0  0  0  0
   -4.8250   15.8070  -34.2870 N   0  0  0  0  0  0  0  0  0  0  0  0
   -6.1850   15.2690  -34.1270 C   0  0  0  0  0  0  0  0  0  0  0  0
   -4.8580   17.1360  -34.8590 C   0  0  0  0  0  0  0  0  0  0  0  0
   -4.6130   17.2940  -36.0870 O   0  0  0  0  0  0  0  0  0  0  0  0
   -5.1740   18.3270  -34.0480 C   0  0  0  0  0  0  0  0  0  0  0  0
   -6.4770   18.5350  -33.5800 C   0  0  0  0  0  0  0  0  0  0  0  0
   -6.7810   19.6700  -32.8230 C   0  0  0  0  0  0  0  0  0  0  0  0
   -5.7860   20.6220  -32.5310 C   0  0  0  0  0  0  0  0  0  0  0  0
   -6.1060   21.8270  -31.7260 C   0  0  0  0  0  0  0  0  0  0  0  0
   -7.2070   21.8190  -30.8250 C   0  0  0  0  0  0  0  0  0  0  0  0
   -7.5180   22.9560  -30.0570 C   0  0  0  0  0  0  0  0  0  0  0  0
   -6.7150   24.0810  -30.2070 C   0  0  0  0  0  0  0  0  0  0  0  0
   -6.7770   25.3150  -29.5960 C   0  0  0  0  0  0  0  0  0  0  0  0
   -5.7180   26.0400  -30.1360 C   0  0  0  0  0  0  0  0  0  0  0  0
   -5.0350   25.2940  -31.0340 N   0  0  0  0  0  0  0  0  0  0  0  0
   -5.6540   24.1030  -31.0690 C   0  0  0  0  0  0  0  0  0  0  0  0
   -5.3170   22.9960  -31.8460 C   0  0  0  0  0  0  0  0  0  0  0  0
   -4.4830   20.4130  -33.0180 C   0  0  0  0  0  0  0  0  0  0  0  0
   -4.1810   19.2770  -33.7740 C   0  0  0  0  0  0  0  0  0  0  0  0
   -4.8317   15.8070  -32.1764 H   0  0  0  0  0  0  0  0  0  0  0  0
   -3.4782   14.9032  -32.9364 H   0  0  0  0  0  0  0  0  0  0  0  0
   -3.4707   16.6995  -32.9364 H   0  0  0  0  0  0  0  0  0  0  0  0
   -4.3080   15.1720  -34.9410 H   0  0  0  0  0  0  0  0  0  0  0  0
   -6.4191   15.1764  -33.0562 H   0  0  0  0  0  0  0  0  0  0  0  0
   -6.9068   15.9493  -34.6026 H   0  0  0  0  0  0  0  0  0  0  0  0
   -6.2460   14.2790  -34.6026 H   0  0  0  0  0  0  0  0  0  0  0  0
   -7.2648   17.8022  -33.8090 H   0  0  0  0  0  0  0  0  0  0  0  0
   -7.8058   19.8205  -32.4525 H   0  0  0  0  0  0  0  0  0  0  0  0
   -7.8227   20.9127  -30.7276 H   0  0  0  0  0  0  0  0  0  0  0  0
   -8.3692   22.9549  -29.3602 H   0  0  0  0  0  0  0  0  0  0  0  0
   -7.5054   25.6537  -28.8445 H   0  0  0  0  0  0  0  0  0  0  0  0
   -5.4706   27.0780  -29.8687 H   0  0  0  0  0  0  0  0  0  0  0  0
   -4.1990   25.5890  -31.5860 H   0  0  0  0  0  0  0  0  0  0  0  0
   -4.4600   23.0300  -32.5347 H   0  0  0  0  0  0  0  0  0  0  0  0
   -3.6953   21.1498  -32.8020 H   0  0  0  0  0  0  0  0  0  0  0  0
   -3.1600   19.1281  -34.1553 H   0  0  0  0  0  0  0  0  0  0  0  0
  1  2  1  0
  2  3  1  0
  2  4  1  0
  4  5  2  0
  4  6  1  0
  6  7  2  0
  7  8  1  0
  8  9  2  0
  9 10  1  0
 10 11  2  0
 11 12  1  0
 12 13  2  0
 13 14  1  0
 14 15  2  0
 15 16  1  0
 16 17  1  0
 17 18  2  0
  9 19  1  0
 19 20  2  0
 20  6  1  0
 18 10  1  0
 17 13  1  0
  1 21  1  0
  1 22  1  0
  1 23  1  0
  2 24  1  0
  3 25  1  0
  3 26  1  0
  3 27  1  0
  7 28  1  0
  8 29  1  0
 11 30  1  0
 12 31  1  0
 14 32  1  0
 15 33  1  0
 16 34  1  0
 18 35  1  0
 19 36  1  0
 20 37  1  0
M  CHG  1   2   1
M  END
>  <UniqueID>  (31) 
30

>  <SMILES>  (31) 
C[NH+](C)C(=O)c1ccc(-c2ccc3cc[nH]c3c2)cc1

>  <Energy>  (31) 
85.41658034046358

>  <Genealogy>  (31) 
C[NH+](C)C(=O)c1ccc(-c2ccc3cc[nH]c3c2)cc1 (protonated)
C[NH+](C)C(=O)c1ccc(-c2ccc3cc[nH]c3c2)cc1 (3D coordinates assigned)
C[NH+](C)C(=O)c1ccc(-c2ccc3cc[nH]c3c2)cc1 (optimized conformer: 85.41658034046358 kcal/mol)

>  <smiles>  (31) 
CN(C)C(=O)c1ccc(-c2ccc3cc[nH]c3c2)cc1

>  <score_type>  (31) 
oracle

>  <origin>  (31) 
adg

>  <m_score__min__energy>  (31) 
-7.0499999999999998

>  <m_primary>  (31) 
energy

$$$$
31:0
     RDKit          3D

 23 24  0  0  0  0  0  0  0  0999 V2000
   -7.1340   20.1770  -33.0910 C   0  0  0  0  0  0  0  0  0  0  0  0
   -6.8520   21.4340  -32.3220 C   0  0  0  0  0  0  0  0  0  0  0  0
   -7.8930   22.3000  -31.9650 C   0  0  0  0  0  0  0  0  0  0  0  0
   -7.6260   23.4440  -31.2820 N   0  0  0  0  0  0  0  0  0  0  0  0
   -6.3560   23.7970  -30.9450 C   0  0  0  0  0  0  0  0  0  0  0  0
   -5.2770   22.9900  -31.3160 C   0  0  0  0  0  0  0  0  0  0  0  0
   -3.9510   23.3860  -30.9340 N   0  0  0  0  0  0  0  0  0  0  0  0
   -3.5770   24.6130  -30.2940 C   0  0  0  0  0  0  0  0  0  0  0  0
   -4.2340   25.6690  -30.5010 O   0  0  0  0  0  0  0  0  0  0  0  0
   -2.4500   24.6150  -29.3490 C   0  0  0  0  0  0  0  0  0  0  0  0
   -1.5140   25.5820  -29.3140 N   0  0  0  0  0  0  0  0  0  0  0  0
   -0.6460   25.2920  -28.3570 N   0  0  0  0  0  0  0  0  0  0  0  0
   -1.0210   24.1390  -27.7710 C   0  0  0  0  0  0  0  0  0  0  0  0
   -2.1670   23.6750  -28.3750 C   0  0  0  0  0  0  0  0  0  0  0  0
   -3.1180   22.0800  -27.9220 Br  0  0  0  0  0  0  0  0  0  0  0  0
   -5.5340   21.7900  -32.0000 C   0  0  0  0  0  0  0  0  0  0  0  0
   -7.3193   19.3511  -32.3884 H   0  0  0  0  0  0  0  0  0  0  0  0
   -8.0211   20.3257  -33.7242 H   0  0  0  0  0  0  0  0  0  0  0  0
   -6.2684   19.9325  -33.7242 H   0  0  0  0  0  0  0  0  0  0  0  0
   -8.9296   22.0535  -32.2382 H   0  0  0  0  0  0  0  0  0  0  0  0
   -6.1776   24.7223  -30.3776 H   0  0  0  0  0  0  0  0  0  0  0  0
   -0.4944   23.6460  -26.9406 H   0  0  0  0  0  0  0  0  0  0  0  0
   -4.7013   21.1294  -32.2831 H   0  0  0  0  0  0  0  0  0  0  0  0
  1  2  1  0
  2  3  2  0
  3  4  1  0
  4  5  2  0
  5  6  1  0
  6  7  1  0
  7  8  1  0
  8  9  2  0
  8 10  1  0
 10 11  1  0
 11 12  1  0
 12 13  2  0
 13 14  1  0
 14 15  1  0
  6 16  2  0
 16  2  1  0
 14 10  2  0
  1 17  1  0
  1 18  1  0
  1 19  1  0
  3 20  1  0
  5 21  1  0
 13 22  1  0
 16 23  1  0
M  CHG  2   7  -1  11  -1
M  END
>  <UniqueID>  (32) 
31

>  <SMILES>  (32) 
Cc1cncc([N-]C(=O)c2[n-]ncc2Br)c1

>  <Energy>  (32) 
56.62405137021945

>  <Genealogy>  (32) 
Cc1cncc([N-]C(=O)c2[n-]ncc2Br)c1 (protonated)
Cc1cncc([N-]C(=O)c2[n-]ncc2Br)c1 (3D coordinates assigned)
Cc1cncc([N-]C(=O)c2[n-]ncc2Br)c1 (optimized conformer: 56.62405137021945 kcal/mol)

>  <smiles>  (32) 
Cc1cncc(NC(=O)c2[nH]ncc2Br)c1

>  <score_type>  (32) 
oracle

>  <origin>  (32) 
adg

>  <m_score__min__energy>  (32) 
-9.0800000000000001

>  <m_primary>  (32) 
energy

$$$$
32:0
     RDKit          3D

 33 35  0  0  0  0  0  0  0  0999 V2000
   -4.8070   21.1066  -33.3054 H   0  0  0  0  0  0  0  0  0  0  0  0
   -5.7750   20.8750  -32.8370 C   0  0  0  0  0  0  0  0  0  0  0  0
   -6.1780   19.5880  -32.8520 C   0  0  0  0  0  0  0  0  0  0  0  0
   -6.6600   18.9340  -31.6120 C   0  0  0  0  0  0  0  0  0  0  0  0
   -7.3672   19.5818  -31.0732 H   0  0  0  0  0  0  0  0  0  0  0  0
   -5.8537   18.7183  -30.8955 H   0  0  0  0  0  0  0  0  0  0  0  0
   -7.3480   17.6880  -32.1260 C   0  0  0  0  0  0  0  0  0  0  0  0
   -8.4386   17.8308  -32.1399 H   0  0  0  0  0  0  0  0  0  0  0  0
   -7.1430   16.8186  -31.4841 H   0  0  0  0  0  0  0  0  0  0  0  0
   -6.8210   17.4760  -33.5450 C   0  0  0  0  0  0  0  0  0  0  0  0
   -7.6477   17.1806  -34.2077 H   0  0  0  0  0  0  0  0  0  0  0  0
   -6.0608   16.6810  -33.5502 H   0  0  0  0  0  0  0  0  0  0  0  0
   -6.2300   18.7460  -34.0200 N   0  0  2  0  0  0  0  0  0  0  0  0
   -6.8600   19.1650  -34.7410 H   0  0  0  0  0  0  0  0  0  0  0  0
   -4.8870   18.5140  -34.5850 C   0  0  0  0  0  0  0  0  0  0  0  0
   -4.1619   18.3887  -33.7674 H   0  0  0  0  0  0  0  0  0  0  0  0
   -4.9018   17.6051  -35.2044 H   0  0  0  0  0  0  0  0  0  0  0  0
   -4.5960   19.3752  -35.2044 H   0  0  0  0  0  0  0  0  0  0  0  0
   -6.5260   21.9970  -32.2440 C   0  0  0  0  0  0  0  0  0  0  0  0
   -7.9090   22.1670  -32.1770 C   0  0  0  0  0  0  0  0  0  0  0  0
   -8.6471   21.4950  -32.6392 H   0  0  0  0  0  0  0  0  0  0  0  0
   -8.2140   23.2740  -31.4640 N   0  0  0  0  0  0  0  0  0  0  0  0
   -9.1710   23.6330  -31.2450 H   0  0  0  0  0  0  0  0  0  0  0  0
   -7.0420   23.7940  -31.0620 C   0  0  0  0  0  0  0  0  0  0  0  0
   -6.8440   24.9290  -30.2790 C   0  0  0  0  0  0  0  0  0  0  0  0
   -7.6952   25.5282  -29.9236 H   0  0  0  0  0  0  0  0  0  0  0  0
   -5.5220   25.2850  -29.9570 C   0  0  0  0  0  0  0  0  0  0  0  0
   -5.3304   26.1776  -29.3433 H   0  0  0  0  0  0  0  0  0  0  0  0
   -4.4380   24.5030  -30.4170 C   0  0  0  0  0  0  0  0  0  0  0  0
   -3.1690   24.8580  -30.0980 F   0  0  0  0  0  0  0  0  0  0  0  0
   -4.6690   23.3600  -31.2030 C   0  0  0  0  0  0  0  0  0  0  0  0
   -3.8342   22.7428  -31.5665 H   0  0  0  0  0  0  0  0  0  0  0  0
   -5.9910   23.0340  -31.5070 C   0  0  0  0  0  0  0  0  0  0  0  0
  1  2  1  0
  2  3  2  0
  3  4  1  0
  4  5  1  0
  4  6  1  0
  4  7  1  0
  7  8  1  0
  7  9  1  0
  7 10  1  0
 10 11  1  0
 10 12  1  0
 10 13  1  0
 13 14  1  6
 13 15  1  0
 15 16  1  0
 15 17  1  0
 15 18  1  0
  2 19  1  0
 19 20  2  0
 20 21  1  0
 20 22  1  0
 22 23  1  0
 22 24  1  0
 24 25  2  0
 25 26  1  0
 25 27  1  0
 27 28  1  0
 27 29  2  0
 29 30  1  0
 29 31  1  0
 31 32  1  0
 31 33  2  0
 13  3  1  0
 33 19  1  0
 33 24  1  0
M  CHG  1  13   1
M  END
>  <UniqueID>  (33) 
32

>  <SMILES>  (33) 
C[N@H+]1CCC/C1=C/c1c[nH]c2ccc(F)cc12

>  <Energy>  (33) 
75.7145208562621

>  <Genealogy>  (33) 
C[NH+]1CCCC1=Cc1c[nH]c2ccc(F)cc12 (protonated)
C[N@H+]1CCCC1=Cc1c[nH]c2ccc(F)cc12 (chirality)
C[N@H+]1CCC/C1=C/c1c[nH]c2ccc(F)cc12 (cis-trans isomerization)
C[N@H+]1CCC/C1=C/c1c[nH]c2ccc(F)cc12 (3D coordinates assigned)
C[N@H+]1CCC/C1=C/c1c[nH]c2ccc(F)cc12 (nonaromatic ring conformer: 75.7145208562621 kcal/mol)

>  <smiles>  (33) 
CN1CCCC1=Cc1c[nH]c2ccc(F)cc12

>  <score_type>  (33) 
oracle

>  <origin>  (33) 
adg

>  <m_score__min__energy>  (33) 
-6.5499999999999998

>  <m_primary>  (33) 
energy

$$$$
33:0
     RDKit          3D

 45 47  0  0  0  0  0  0  0  0999 V2000
   -6.4400   16.9890  -33.4740 C   0  0  0  0  0  0  0  0  0  0  0  0
   -7.6630   17.5780  -33.0880 O   0  0  0  0  0  0  0  0  0  0  0  0
   -7.6820   17.8140  -31.6920 C   0  0  0  0  0  0  0  0  0  0  0  0
   -8.1190   19.2590  -31.3760 C   0  0  0  0  0  0  0  0  0  0  0  0
   -8.2340   20.1200  -32.5850 N   0  0  1  0  0  0  0  0  0  0  0  0
   -9.0150   21.3680  -32.3650 C   0  0  0  0  0  0  0  0  0  0  0  0
   -8.3670   22.3160  -31.3300 C   0  0  0  0  0  0  0  0  0  0  0  0
   -6.8820   22.4140  -31.5430 C   0  0  0  0  0  0  0  0  0  0  0  0
   -6.2060   21.4940  -32.3300 C   0  0  0  0  0  0  0  0  0  0  0  0
   -4.5640   21.8570  -32.3390 S   0  0  0  0  0  0  0  0  0  0  0  0
   -4.6950   23.1760  -31.2900 C   0  0  0  0  0  0  0  0  0  0  0  0
   -3.6020   23.9880  -30.8400 N   0  0  0  0  0  0  0  0  0  0  0  0
   -2.6270   23.4910  -29.8710 C   0  0  0  0  0  0  0  0  0  0  0  0
   -2.8230   24.1540  -28.5340 C   0  0  0  0  0  0  0  0  0  0  0  0
   -1.7620   24.8400  -27.9200 C   0  0  0  0  0  0  0  0  0  0  0  0
   -1.9340   25.4210  -26.6600 C   0  0  0  0  0  0  0  0  0  0  0  0
   -3.1620   25.3100  -26.0000 C   0  0  0  0  0  0  0  0  0  0  0  0
   -4.2160   24.6150  -26.5960 C   0  0  0  0  0  0  0  0  0  0  0  0
   -4.0480   24.0330  -27.8580 C   0  0  0  0  0  0  0  0  0  0  0  0
   -6.0320   23.3520  -30.9360 C   0  0  0  0  0  0  0  0  0  0  0  0
   -6.4940   24.3850  -30.0440 C   0  0  0  0  0  0  0  0  0  0  0  0
   -6.8640   25.2140  -29.3260 N   0  0  0  0  0  0  0  0  0  0  0  0
   -6.8930   20.4360  -33.1380 C   0  0  0  0  0  0  0  0  0  0  0  0
   -5.8667   16.7129  -32.5767 H   0  0  0  0  0  0  0  0  0  0  0  0
   -6.6397   16.0883  -34.0731 H   0  0  0  0  0  0  0  0  0  0  0  0
   -5.8603   17.7067  -34.0731 H   0  0  0  0  0  0  0  0  0  0  0  0
   -8.3873   17.1145  -31.2195 H   0  0  0  0  0  0  0  0  0  0  0  0
   -6.6653   17.6641  -31.2998 H   0  0  0  0  0  0  0  0  0  0  0  0
   -9.0989   19.2257  -30.8772 H   0  0  0  0  0  0  0  0  0  0  0  0
   -7.3412   19.7007  -30.7358 H   0  0  0  0  0  0  0  0  0  0  0  0
   -8.7360   19.5650  -33.3190 H   0  0  0  0  0  0  0  0  0  0  0  0
   -9.0993   21.9014  -33.3233 H   0  0  0  0  0  0  0  0  0  0  0  0
   -9.9980   21.0735  -31.9688 H   0  0  0  0  0  0  0  0  0  0  0  0
   -8.8116   23.3170  -31.4316 H   0  0  0  0  0  0  0  0  0  0  0  0
   -8.5502   21.9126  -30.3232 H   0  0  0  0  0  0  0  0  0  0  0  0
   -3.5050   24.9560  -31.2210 H   0  0  0  0  0  0  0  0  0  0  0  0
   -2.7522   22.4041  -29.7573 H   0  0  0  0  0  0  0  0  0  0  0  0
   -1.6153   23.7215  -30.2361 H   0  0  0  0  0  0  0  0  0  0  0  0
   -0.7920   24.9204  -28.4325 H   0  0  0  0  0  0  0  0  0  0  0  0
   -1.1032   25.9656  -26.1876 H   0  0  0  0  0  0  0  0  0  0  0  0
   -3.2976   25.7707  -25.0104 H   0  0  0  0  0  0  0  0  0  0  0  0
   -5.1796   24.5246  -26.0733 H   0  0  0  0  0  0  0  0  0  0  0  0
   -4.8778   23.4793  -28.3215 H   0  0  0  0  0  0  0  0  0  0  0  0
   -7.0070   20.7927  -34.1723 H   0  0  0  0  0  0  0  0  0  0  0  0
   -6.2806   19.5228  -33.1063 H   0  0  0  0  0  0  0  0  0  0  0  0
  1  2  1  0
  2  3  1  0
  3  4  1  0
  4  5  1  0
  5  6  1  0
  6  7  1  0
  7  8  1  0
  8  9  2  0
  9 10  1  0
 10 11  1  0
 11 12  1  0
 12 13  1  0
 13 14  1  0
 14 15  2  0
 15 16  1  0
 16 17  2  0
 17 18  1  0
 18 19  2  0
 11 20  2  0
 20 21  1  0
 21 22  3  0
  9 23  1  0
 23  5  1  0
 20  8  1  0
 19 14  1  0
  1 24  1  0
  1 25  1  0
  1 26  1  0
  3 27  1  0
  3 28  1  0
  4 29  1  0
  4 30  1  0
  5 31  1  6
  6 32  1  0
  6 33  1  0
  7 34  1  0
  7 35  1  0
 12 36  1  0
 13 37  1  0
 13 38  1  0
 15 39  1  0
 16 40  1  0
 17 41  1  0
 18 42  1  0
 19 43  1  0
 23 44  1  0
 23 45  1  0
M  CHG  1   5   1
M  END
>  <UniqueID>  (34) 
33

>  <SMILES>  (34) 
COCC[N@H+]1CCc2c(sc(NCc3ccccc3)c2C#N)C1

>  <Energy>  (34) 
79.19088027072772

>  <Genealogy>  (34) 
COCC[NH+]1CCc2c(sc(NCc3ccccc3)c2C#N)C1 (protonated)
COCC[N@H+]1CCc2c(sc(NCc3ccccc3)c2C#N)C1 (chirality)
COCC[N@H+]1CCc2c(sc(NCc3ccccc3)c2C#N)C1 (3D coordinates assigned)
COCC[N@H+]1CCc2c(sc(NCc3ccccc3)c2C#N)C1 (nonaromatic ring conformer: 79.19088027072772 kcal/mol)

>  <smiles>  (34) 
COCCN1CCc2c(sc(NCc3ccccc3)c2C#N)C1

>  <score_type>  (34) 
oracle

>  <origin>  (34) 
adg

>  <m_score__min__energy>  (34) 
-7.1699999999999999

>  <m_primary>  (34) 
energy

$$$$
34:0
     RDKit          3D

 33 34  0  0  0  0  0  0  0  0999 V2000
   -8.7450   20.0330  -31.8460 O   0  0  0  0  0  0  0  0  0  0  0  0
   -7.6690   20.2270  -32.4760 C   0  0  0  0  0  0  0  0  0  0  0  0
   -7.1340   21.5580  -32.5700 N   0  0  0  0  0  0  0  0  0  0  0  0
   -7.7980   22.7100  -31.9650 C   0  0  0  0  0  0  0  0  0  0  0  0
   -6.7880   23.6060  -31.3020 C   0  0  0  0  0  0  0  0  0  0  0  0
   -7.1850   24.4940  -30.2910 C   0  0  0  0  0  0  0  0  0  0  0  0
   -6.2450   25.3350  -29.6930 C   0  0  0  0  0  0  0  0  0  0  0  0
   -4.9150   25.2830  -30.1130 C   0  0  0  0  0  0  0  0  0  0  0  0
   -4.5440   24.4210  -31.0970 N   0  0  0  0  0  0  0  0  0  0  0  0
   -5.4410   23.5910  -31.6950 C   0  0  0  0  0  0  0  0  0  0  0  0
   -6.9910   19.1100  -33.0900 N   0  0  0  0  0  0  0  0  0  0  0  0
   -7.3610   17.7350  -32.7210 C   0  0  0  0  0  0  0  0  0  0  0  0
   -6.1190   16.8380  -32.7210 C   0  0  0  0  0  0  0  0  0  0  0  0
   -5.3400   16.8880  -34.0530 C   0  0  0  0  0  0  0  0  0  0  0  0
   -5.7460   18.0570  -34.9640 C   0  0  0  0  0  0  0  0  0  0  0  0
   -6.0100   19.3370  -34.1630 C   0  0  0  0  0  0  0  0  0  0  0  0
   -6.2250   21.7250  -33.0540 H   0  0  0  0  0  0  0  0  0  0  0  0
   -8.3272   23.2754  -32.7462 H   0  0  0  0  0  0  0  0  0  0  0  0
   -8.5123   22.3544  -31.2079 H   0  0  0  0  0  0  0  0  0  0  0  0
   -8.2365   24.5275  -29.9697 H   0  0  0  0  0  0  0  0  0  0  0  0
   -6.5495   26.0320  -28.8984 H   0  0  0  0  0  0  0  0  0  0  0  0
   -4.1659   25.9403  -29.6473 H   0  0  0  0  0  0  0  0  0  0  0  0
   -5.1092   22.9060  -32.4891 H   0  0  0  0  0  0  0  0  0  0  0  0
   -7.8092   17.7359  -31.7165 H   0  0  0  0  0  0  0  0  0  0  0  0
   -8.0849   17.3479  -33.4533 H   0  0  0  0  0  0  0  0  0  0  0  0
   -5.4503   17.1649  -31.9111 H   0  0  0  0  0  0  0  0  0  0  0  0
   -6.4606   15.8022  -32.5778 H   0  0  0  0  0  0  0  0  0  0  0  0
   -4.2680   16.9820  -33.8248 H   0  0  0  0  0  0  0  0  0  0  0  0
   -5.5744   15.9610  -34.5968 H   0  0  0  0  0  0  0  0  0  0  0  0
   -4.9348   18.2472  -35.6822 H   0  0  0  0  0  0  0  0  0  0  0  0
   -6.6758   17.7799  -35.4824 H   0  0  0  0  0  0  0  0  0  0  0  0
   -5.0651   19.6803  -33.7165 H   0  0  0  0  0  0  0  0  0  0  0  0
   -6.4178   20.0946  -34.8483 H   0  0  0  0  0  0  0  0  0  0  0  0
  1  2  2  0
  2  3  1  0
  3  4  1  0
  4  5  1  0
  5  6  2  0
  6  7  1  0
  7  8  2  0
  8  9  1  0
  9 10  2  0
  2 11  1  0
 11 12  1  0
 12 13  1  0
 13 14  1  0
 14 15  1  0
 15 16  1  0
 10  5  1  0
 16 11  1  0
  3 17  1  0
  4 18  1  0
  4 19  1  0
  6 20  1  0
  7 21  1  0
  8 22  1  0
 10 23  1  0
 12 24  1  0
 12 25  1  0
 13 26  1  0
 13 27  1  0
 14 28  1  0
 14 29  1  0
 15 30  1  0
 15 31  1  0
 16 32  1  0
 16 33  1  0
M  END
>  <UniqueID>  (35) 
34

>  <SMILES>  (35) 
O=C(NCc1cccnc1)N1CCCCC1

>  <Energy>  (35) 
31.715800697451908

>  <Genealogy>  (35) 
O=C(NCc1cccnc1)N1CCCCC1 (3D coordinates assigned)
O=C(NCc1cccnc1)N1CCCCC1 (nonaromatic ring conformer: 31.715800697451908 kcal/mol)

>  <smiles>  (35) 
O=C(NCc1cccnc1)N1CCCCC1

>  <score_type>  (35) 
oracle

>  <origin>  (35) 
adg

>  <m_score__min__energy>  (35) 
-6.8899999999999997

>  <m_primary>  (35) 
energy

$$$$
35:0
     RDKit          3D

 30 31  0  0  0  0  0  0  0  0999 V2000
   -5.3250   21.1710  -33.0910 F   0  0  0  0  0  0  0  0  0  0  0  0
   -6.5700   20.7820  -32.7180 C   0  0  0  0  0  0  0  0  0  0  0  0
   -6.9540   19.4510  -32.9140 C   0  0  0  0  0  0  0  0  0  0  0  0
   -8.2280   19.0230  -32.5310 C   0  0  0  0  0  0  0  0  0  0  0  0
   -9.1230   19.9250  -31.9520 C   0  0  0  0  0  0  0  0  0  0  0  0
   -8.7460   21.2570  -31.7540 C   0  0  0  0  0  0  0  0  0  0  0  0
   -7.4690   21.6980  -32.1380 C   0  0  0  0  0  0  0  0  0  0  0  0
   -7.0760   23.1350  -31.9000 C   0  0  0  0  0  0  0  0  0  0  0  0
   -6.9210   23.4080  -30.4530 N   0  0  0  0  0  0  0  0  0  0  0  0
   -5.6250   22.9410  -29.9090 C   0  0  0  0  0  0  0  0  0  0  0  0
   -4.4320   23.7860  -30.4000 C   0  0  0  0  0  0  0  0  0  0  0  0
   -4.7860   25.2710  -30.5780 C   0  0  0  0  0  0  0  0  0  0  0  0
   -5.9900   25.6650  -29.7260 C   0  0  0  0  0  0  0  0  0  0  0  0
   -7.2270   24.8210  -30.0970 C   0  0  0  0  0  0  0  0  0  0  0  0
   -6.2509   18.7392  -33.3710 H   0  0  0  0  0  0  0  0  0  0  0  0
   -8.5258   17.9754  -32.6857 H   0  0  0  0  0  0  0  0  0  0  0  0
  -10.1258   19.5874  -31.6513 H   0  0  0  0  0  0  0  0  0  0  0  0
   -9.4535   21.9633  -31.2950 H   0  0  0  0  0  0  0  0  0  0  0  0
   -6.1217   23.3363  -32.4087 H   0  0  0  0  0  0  0  0  0  0  0  0
   -7.8683   23.7863  -32.2975 H   0  0  0  0  0  0  0  0  0  0  0  0
   -5.6651   22.9940  -28.8110 H   0  0  0  0  0  0  0  0  0  0  0  0
   -5.4692   21.9110  -30.2622 H   0  0  0  0  0  0  0  0  0  0  0  0
   -3.6177   23.7046  -29.6649 H   0  0  0  0  0  0  0  0  0  0  0  0
   -4.1339   23.3967  -31.3847 H   0  0  0  0  0  0  0  0  0  0  0  0
   -3.9217   25.8827  -30.2800 H   0  0  0  0  0  0  0  0  0  0  0  0
   -5.0403   25.4410  -31.6346 H   0  0  0  0  0  0  0  0  0  0  0  0
   -5.7488   25.5033  -28.6650 H   0  0  0  0  0  0  0  0  0  0  0  0
   -6.2195   26.7248  -29.9107 H   0  0  0  0  0  0  0  0  0  0  0  0
   -7.9129   24.8187  -29.2370 H   0  0  0  0  0  0  0  0  0  0  0  0
   -7.6662   25.2834  -30.9933 H   0  0  0  0  0  0  0  0  0  0  0  0
  1  2  1  0
  2  3  2  0
  3  4  1  0
  4  5  2  0
  5  6  1  0
  6  7  2  0
  7  8  1  0
  8  9  1  0
  9 10  1  0
 10 11  1  0
 11 12  1  0
 12 13  1  0
 13 14  1  0
  7  2  1  0
 14  9  1  0
  3 15  1  0
  4 16  1  0
  5 17  1  0
  6 18  1  0
  8 19  1  0
  8 20  1  0
 10 21  1  0
 10 22  1  0
 11 23  1  0
 11 24  1  0
 12 25  1  0
 12 26  1  0
 13 27  1  0
 13 28  1  0
 14 29  1  0
 14 30  1  0
M  END
>  <UniqueID>  (36) 
35

>  <SMILES>  (36) 
Fc1ccccc1CN1CCCCC1

>  <Energy>  (36) 
38.0255182869518

>  <Genealogy>  (36) 
Fc1ccccc1CN1CCCCC1 (3D coordinates assigned)
Fc1ccccc1CN1CCCCC1 (nonaromatic ring conformer: 38.0255182869518 kcal/mol)

>  <smiles>  (36) 
Fc1ccccc1CN1CCCCC1

>  <score_type>  (36) 
oracle

>  <origin>  (36) 
adg

>  <m_score__min__energy>  (36) 
-5.9100000000000001

>  <m_primary>  (36) 
energy

$$$$
36:0
     RDKit          3D

 31 33  0  0  0  0  0  0  0  0999 V2000
   -1.0270   23.7840  -29.3390 C   0  0  0  0  0  0  0  0  0  0  0  0
   -2.1670   24.4230  -28.6780 N   0  0  0  0  0  0  0  0  0  0  0  0
   -1.9790   25.2910  -27.5140 C   0  0  0  0  0  0  0  0  0  0  0  0
   -3.4900   24.1870  -29.1830 C   0  0  0  0  0  0  0  0  0  0  0  0
   -4.5800   24.0260  -28.4040 N   0  0  0  0  0  0  0  0  0  0  0  0
   -5.5800   23.8290  -29.2480 N   0  0  0  0  0  0  0  0  0  0  0  0
   -5.0760   23.8790  -30.4930 C   0  0  0  0  0  0  0  0  0  0  0  0
   -5.8690   23.6630  -31.7400 C   0  0  0  0  0  0  0  0  0  0  0  0
   -6.9650   22.7360  -31.4740 N   0  0  0  0  0  0  0  0  0  0  0  0
   -7.9200   22.9350  -30.5700 N   0  0  0  0  0  0  0  0  0  0  0  0
   -8.7410   21.8860  -30.5030 N   0  0  0  0  0  0  0  0  0  0  0  0
   -8.2700   20.9980  -31.3970 C   0  0  0  0  0  0  0  0  0  0  0  0
   -8.7510   19.7290  -31.7030 C   0  0  0  0  0  0  0  0  0  0  0  0
   -8.0470   18.9860  -32.6740 C   0  0  0  0  0  0  0  0  0  0  0  0
   -6.8950   19.5250  -33.2940 C   0  0  0  0  0  0  0  0  0  0  0  0
   -6.4360   20.8140  -32.9560 C   0  0  0  0  0  0  0  0  0  0  0  0
   -7.1650   21.5170  -31.9980 C   0  0  0  0  0  0  0  0  0  0  0  0
   -3.7840   24.0960  -30.4620 O   0  0  0  0  0  0  0  0  0  0  0  0
   -0.3333   23.3951  -28.5790 H   0  0  0  0  0  0  0  0  0  0  0  0
   -1.3849   22.9550  -29.9672 H   0  0  0  0  0  0  0  0  0  0  0  0
   -0.5066   24.5219  -29.9672 H   0  0  0  0  0  0  0  0  0  0  0  0
   -2.1065   24.7026  -26.5934 H   0  0  0  0  0  0  0  0  0  0  0  0
   -0.9669   25.7212  -27.5370 H   0  0  0  0  0  0  0  0  0  0  0  0
   -2.7224   26.1014  -27.5370 H   0  0  0  0  0  0  0  0  0  0  0  0
   -6.5720   23.6580  -28.9700 H   0  0  0  0  0  0  0  0  0  0  0  0
   -6.2788   24.6243  -32.0834 H   0  0  0  0  0  0  0  0  0  0  0  0
   -5.2158   23.2400  -32.5174 H   0  0  0  0  0  0  0  0  0  0  0  0
   -9.6445   19.3212  -31.2077 H   0  0  0  0  0  0  0  0  0  0  0  0
   -8.3962   17.9804  -32.9511 H   0  0  0  0  0  0  0  0  0  0  0  0
   -6.3530   18.9330  -34.0462 H   0  0  0  0  0  0  0  0  0  0  0  0
   -5.5413   21.2466  -33.4277 H   0  0  0  0  0  0  0  0  0  0  0  0
  1  2  1  0
  2  3  1  0
  2  4  1  0
  4  5  2  0
  5  6  1  0
  6  7  2  0
  7  8  1  0
  8  9  1  0
  9 10  1  0
 10 11  2  0
 11 12  1  0
 12 13  2  0
 13 14  1  0
 14 15  2  0
 15 16  1  0
 16 17  2  0
  7 18  1  0
 18  4  1  0
 17  9  1  0
 17 12  1  0
  1 19  1  0
  1 20  1  0
  1 21  1  0
  3 22  1  0
  3 23  1  0
  3 24  1  0
  6 25  1  0
  8 26  1  0
  8 27  1  0
 13 28  1  0
 14 29  1  0
 15 30  1  0
 16 31  1  0
M  CHG  1   6   1
M  END
>  <UniqueID>  (37) 
36

>  <SMILES>  (37) 
CN(C)c1n[nH+]c(Cn2nnc3ccccc32)o1

>  <Energy>  (37) 
107.01893526457349

>  <Genealogy>  (37) 
CN(C)c1n[nH+]c(Cn2nnc3ccccc32)o1 (protonated)
CN(C)c1n[nH+]c(Cn2nnc3ccccc32)o1 (3D coordinates assigned)
CN(C)c1n[nH+]c(Cn2nnc3ccccc32)o1 (optimized conformer: 107.01893526457349 kcal/mol)

>  <smiles>  (37) 
CN(C)c1nnc(Cn2nnc3ccccc32)o1

>  <score_type>  (37) 
oracle

>  <origin>  (37) 
adg

>  <m_score__min__energy>  (37) 
-6.0999999999999996

>  <m_primary>  (37) 
energy

$$$$
37:0
     RDKit          3D

 42 45  0  0  0  0  0  0  0  0999 V2000
   -8.1200   18.1900  -31.5440 C   0  0  0  0  0  0  0  0  0  0  0  0
   -9.1200   18.8880  -32.0860 C   0  0  0  0  0  0  0  0  0  0  0  0
   -8.8510   19.9930  -33.0700 C   0  0  0  0  0  0  0  0  0  0  0  0
   -7.6170   20.7120  -32.7160 N   0  0  0  0  0  0  0  0  0  0  0  0
   -7.7930   21.9900  -31.9850 C   0  0  0  0  0  0  0  0  0  0  0  0
   -6.4940   22.5590  -31.5220 C   0  0  0  0  0  0  0  0  0  0  0  0
   -6.2340   23.6860  -30.7750 C   0  0  0  0  0  0  0  0  0  0  0  0
   -4.8920   23.8120  -30.6870 N   0  0  0  0  0  0  0  0  0  0  0  0
   -4.1790   24.9120  -30.0490 C   0  0  0  0  0  0  0  0  0  0  0  0
   -3.1850   24.3690  -29.0610 C   0  0  0  0  0  0  0  0  0  0  0  0
   -3.5050   23.2470  -28.2800 C   0  0  0  0  0  0  0  0  0  0  0  0
   -2.5650   22.7160  -27.3920 C   0  0  0  0  0  0  0  0  0  0  0  0
   -1.2960   23.2930  -27.2880 C   0  0  0  0  0  0  0  0  0  0  0  0
   -0.9640   24.4000  -28.0750 C   0  0  0  0  0  0  0  0  0  0  0  0
   -1.9030   24.9340  -28.9630 C   0  0  0  0  0  0  0  0  0  0  0  0
   -4.2940   22.8390  -31.3610 N   0  0  0  0  0  0  0  0  0  0  0  0
   -5.2730   22.0670  -31.8700 C   0  0  0  0  0  0  0  0  0  0  0  0
   -5.1250   20.8820  -32.7070 C   0  0  0  0  0  0  0  0  0  0  0  0
   -3.8590   20.4120  -33.0840 C   0  0  0  0  0  0  0  0  0  0  0  0
   -3.7470   19.2740  -33.8820 C   0  0  0  0  0  0  0  0  0  0  0  0
   -4.8930   18.6010  -34.3040 C   0  0  0  0  0  0  0  0  0  0  0  0
   -6.1590   19.0620  -33.9310 C   0  0  0  0  0  0  0  0  0  0  0  0
   -6.3010   20.2140  -33.1260 C   0  0  0  0  0  0  0  0  0  0  0  0
   -8.3368   17.3853  -30.8260 H   0  0  0  0  0  0  0  0  0  0  0  0
   -7.0789   18.4193  -31.8152 H   0  0  0  0  0  0  0  0  0  0  0  0
  -10.1578   18.6513  -31.8085 H   0  0  0  0  0  0  0  0  0  0  0  0
   -8.7426   19.5625  -34.0764 H   0  0  0  0  0  0  0  0  0  0  0  0
   -9.6928   20.7007  -33.0477 H   0  0  0  0  0  0  0  0  0  0  0  0
   -8.2795   22.7159  -32.6531 H   0  0  0  0  0  0  0  0  0  0  0  0
   -8.4087   21.7881  -31.0961 H   0  0  0  0  0  0  0  0  0  0  0  0
   -6.9817   24.3599  -30.3314 H   0  0  0  0  0  0  0  0  0  0  0  0
   -3.6498   25.4975  -30.8153 H   0  0  0  0  0  0  0  0  0  0  0  0
   -4.8996   25.5556  -29.5231 H   0  0  0  0  0  0  0  0  0  0  0  0
   -4.4990   22.7841  -28.3672 H   0  0  0  0  0  0  0  0  0  0  0  0
   -2.8241   21.8433  -26.7745 H   0  0  0  0  0  0  0  0  0  0  0  0
   -0.5583   22.8760  -26.5867 H   0  0  0  0  0  0  0  0  0  0  0  0
    0.0362   24.8510  -27.9956 H   0  0  0  0  0  0  0  0  0  0  0  0
   -1.6365   25.7998  -29.5871 H   0  0  0  0  0  0  0  0  0  0  0  0
   -2.9541   20.9410  -32.7503 H   0  0  0  0  0  0  0  0  0  0  0  0
   -2.7535   18.9068  -34.1789 H   0  0  0  0  0  0  0  0  0  0  0  0
   -4.8005   17.7034  -34.9331 H   0  0  0  0  0  0  0  0  0  0  0  0
   -7.0554   18.5211  -34.2685 H   0  0  0  0  0  0  0  0  0  0  0  0
  1  2  2  0
  2  3  1  0
  3  4  1  0
  4  5  1  0
  5  6  1  0
  6  7  2  0
  7  8  1  0
  8  9  1  0
  9 10  1  0
 10 11  2  0
 11 12  1  0
 12 13  2  0
 13 14  1  0
 14 15  2  0
  8 16  1  0
 16 17  2  0
 17 18  1  0
 18 19  2  0
 19 20  1  0
 20 21  2  0
 21 22  1  0
 22 23  2  0
 23  4  1  0
 17  6  1  0
 23 18  1  0
 15 10  1  0
  1 24  1  0
  1 25  1  0
  2 26  1  0
  3 27  1  0
  3 28  1  0
  5 29  1  0
  5 30  1  0
  7 31  1  0
  9 32  1  0
  9 33  1  0
 11 34  1  0
 12 35  1  0
 13 36  1  0
 14 37  1  0
 15 38  1  0
 19 39  1  0
 20 40  1  0
 21 41  1  0
 22 42  1  0
M  END
>  <UniqueID>  (38) 
37

>  <SMILES>  (38) 
C=CCN1Cc2cn(Cc3ccccc3)nc2-c2ccccc21

>  <Energy>  (38) 
78.67609390817765

>  <Genealogy>  (38) 
C=CCN1Cc2cn(Cc3ccccc3)nc2-c2ccccc21 (3D coordinates assigned)
C=CCN1Cc2cn(Cc3ccccc3)nc2-c2ccccc21 (nonaromatic ring conformer: 78.67609390817765 kcal/mol)

>  <smiles>  (38) 
C=CCN1Cc2cn(Cc3ccccc3)nc2-c2ccccc21

>  <score_type>  (38) 
oracle

>  <origin>  (38) 
adg

>  <m_score__min__energy>  (38) 
-7.9000000000000004

>  <m_primary>  (38) 
energy

$$$$
38:0
     RDKit          3D

 38 39  0  0  0  0  0  0  0  0999 V2000
   -9.6590   21.9260  -31.2640 C   0  0  0  0  0  0  0  0  0  0  0  0
   -8.1620   21.6760  -31.0910 C   0  0  2  0  0  0  0  0  0  0  0  0
   -7.4980   22.5090  -29.9510 C   0  0  0  0  0  0  0  0  0  0  0  0
   -6.3360   23.3810  -30.2920 N   0  0  0  0  0  0  0  0  0  0  0  0
   -6.5900   24.8330  -30.1850 C   0  0  0  0  0  0  0  0  0  0  0  0
   -5.3830   25.6410  -30.7210 C   0  0  0  0  0  0  0  0  0  0  0  0
   -4.2050   24.8610  -30.8490 O   0  0  0  0  0  0  0  0  0  0  0  0
   -4.0110   24.0820  -29.6880 C   0  0  0  0  0  0  0  0  0  0  0  0
   -5.0890   22.9860  -29.5900 C   0  0  0  0  0  0  0  0  0  0  0  0
   -7.5000   21.8520  -32.3430 O   0  0  0  0  0  0  0  0  0  0  0  0
   -6.3260   21.1820  -32.7080 C   0  0  0  0  0  0  0  0  0  0  0  0
   -5.2200   21.7910  -32.7030 O   0  0  0  0  0  0  0  0  0  0  0  0
   -6.3870   19.7570  -33.0980 C   0  0  0  0  0  0  0  0  0  0  0  0
   -5.6730   19.3000  -34.2200 C   0  0  0  0  0  0  0  0  0  0  0  0
   -5.7210   17.9510  -34.5890 C   0  0  0  0  0  0  0  0  0  0  0  0
   -6.4810   17.0470  -33.8430 C   0  0  0  0  0  0  0  0  0  0  0  0
   -6.5270   15.7410  -34.2020 F   0  0  0  0  0  0  0  0  0  0  0  0
   -7.1950   17.4920  -32.7260 C   0  0  0  0  0  0  0  0  0  0  0  0
   -7.1480   18.8380  -32.3530 C   0  0  0  0  0  0  0  0  0  0  0  0
  -10.1342   22.0054  -30.2751 H   0  0  0  0  0  0  0  0  0  0  0  0
   -9.8125   22.8622  -31.8207 H   0  0  0  0  0  0  0  0  0  0  0  0
  -10.1084   21.0905  -31.8207 H   0  0  0  0  0  0  0  0  0  0  0  0
   -8.0469   20.6331  -30.7608 H   0  0  0  0  0  0  0  0  0  0  0  0
   -8.2779   23.1582  -29.5264 H   0  0  0  0  0  0  0  0  0  0  0  0
   -7.0772   21.7515  -29.2734 H   0  0  0  0  0  0  0  0  0  0  0  0
   -6.1540   23.2000  -31.3100 H   0  0  0  0  0  0  0  0  0  0  0  0
   -7.4844   25.0873  -30.7727 H   0  0  0  0  0  0  0  0  0  0  0  0
   -6.7438   25.0879  -29.1260 H   0  0  0  0  0  0  0  0  0  0  0  0
   -5.6440   26.0461  -31.7098 H   0  0  0  0  0  0  0  0  0  0  0  0
   -5.1717   26.4378  -29.9927 H   0  0  0  0  0  0  0  0  0  0  0  0
   -3.0179   23.6108  -29.7295 H   0  0  0  0  0  0  0  0  0  0  0  0
   -4.0837   24.7338  -28.8049 H   0  0  0  0  0  0  0  0  0  0  0  0
   -4.7011   22.0623  -30.0441 H   0  0  0  0  0  0  0  0  0  0  0  0
   -5.3269   22.8317  -28.5272 H   0  0  0  0  0  0  0  0  0  0  0  0
   -5.0730   20.0074  -34.8113 H   0  0  0  0  0  0  0  0  0  0  0  0
   -5.1593   17.6019  -35.4680 H   0  0  0  0  0  0  0  0  0  0  0  0
   -7.7952   16.7808  -32.1395 H   0  0  0  0  0  0  0  0  0  0  0  0
   -7.7095   19.1809  -31.4715 H   0  0  0  0  0  0  0  0  0  0  0  0
  1  2  1  0
  2  3  1  0
  3  4  1  0
  4  5  1  0
  5  6  1  0
  6  7  1  0
  7  8  1  0
  8  9  1  0
  2 10  1  0
 10 11  1  0
 11 12  2  0
 11 13  1  0
 13 14  2  0
 14 15  1  0
 15 16  2  0
 16 17  1  0
 16 18  1  0
 18 19  2  0
  9  4  1  0
 19 13  1  0
  1 20  1  0
  1 21  1  0
  1 22  1  0
  2 23  1  1
  3 24  1  0
  3 25  1  0
  4 26  1  0
  5 27  1  0
  5 28  1  0
  6 29  1  0
  6 30  1  0
  8 31  1  0
  8 32  1  0
  9 33  1  0
  9 34  1  0
 14 35  1  0
 15 36  1  0
 18 37  1  0
 19 38  1  0
M  CHG  1   4   1
M  END
>  <UniqueID>  (39) 
38

>  <SMILES>  (39) 
C[C@H](C[NH+]1CCOCC1)OC(=O)c1ccc(F)cc1

>  <Energy>  (39) 
52.07674375412405

>  <Genealogy>  (39) 
CC(C[NH+]1CCOCC1)OC(=O)c1ccc(F)cc1 (protonated)
C[C@H](C[NH+]1CCOCC1)OC(=O)c1ccc(F)cc1 (chirality)
C[C@H](C[NH+]1CCOCC1)OC(=O)c1ccc(F)cc1 (3D coordinates assigned)
C[C@H](C[NH+]1CCOCC1)OC(=O)c1ccc(F)cc1 (nonaromatic ring conformer: 52.07674375412405 kcal/mol)

>  <smiles>  (39) 
CC(CN1CCOCC1)OC(=O)c1ccc(F)cc1

>  <score_type>  (39) 
oracle

>  <origin>  (39) 
adg

>  <m_score__min__energy>  (39) 
-5.8499999999999996

>  <m_primary>  (39) 
energy

$$$$
39:0
     RDKit          3D

 59 62  0  0  0  0  0  0  0  0999 V2000
   -4.2080   25.6690  -30.8450 O   0  0  0  0  0  0  0  0  0  0  0  0
   -4.6470   24.5400  -30.4890 C   0  0  0  0  0  0  0  0  0  0  0  0
   -6.0050   24.0890  -30.9970 C   0  0  0  0  0  0  0  0  0  0  0  0
   -6.0070   22.7530  -31.6360 N   0  0  0  0  0  0  0  0  0  0  0  0
   -7.2650   22.4260  -32.3140 C   0  0  0  0  0  0  0  0  0  0  0  0
   -7.3300   20.9190  -32.5320 C   0  0  0  0  0  0  0  0  0  0  0  0
   -6.0620   20.3320  -33.0230 N   0  0  0  0  0  0  0  0  0  0  0  0
   -6.0490   18.9240  -33.4140 C   0  0  0  0  0  0  0  0  0  0  0  0
   -7.0120   18.0130  -32.9110 C   0  0  0  0  0  0  0  0  0  0  0  0
   -6.9980   16.6670  -33.2880 C   0  0  0  0  0  0  0  0  0  0  0  0
   -6.0270   16.1940  -34.1700 C   0  0  0  0  0  0  0  0  0  0  0  0
   -5.0630   17.0650  -34.6710 C   0  0  0  0  0  0  0  0  0  0  0  0
   -5.0670   18.4130  -34.2990 C   0  0  0  0  0  0  0  0  0  0  0  0
   -4.7770   21.0760  -32.9750 C   0  0  0  0  0  0  0  0  0  0  0  0
   -4.8930   22.5530  -32.5680 C   0  0  0  0  0  0  0  0  0  0  0  0
   -3.8820   23.7420  -29.5560 N   0  0  0  0  0  0  0  0  0  0  0  0
   -2.4590   24.0540  -29.3460 C   0  0  0  0  0  0  0  0  0  0  0  0
   -1.6360   22.7920  -29.0260 C   0  0  0  0  0  0  0  0  0  0  0  0
   -2.3620   21.7700  -28.1030 C   0  0  0  0  0  0  0  0  0  0  0  0
   -1.4410   21.2420  -26.9800 C   0  0  0  0  0  0  0  0  0  0  0  0
   -0.5840   20.0930  -27.4510 C   0  0  0  0  0  0  0  0  0  0  0  0
   -0.9220   18.7690  -27.1220 C   0  0  0  0  0  0  0  0  0  0  0  0
   -0.1190   17.7100  -27.5530 C   0  0  0  0  0  0  0  0  0  0  0  0
    1.0240   17.9640  -28.3160 C   0  0  0  0  0  0  0  0  0  0  0  0
    1.3710   19.2770  -28.6430 C   0  0  0  0  0  0  0  0  0  0  0  0
    0.5720   20.3400  -28.2100 C   0  0  0  0  0  0  0  0  0  0  0  0
   -3.6480   22.3580  -27.5010 C   0  0  0  0  0  0  0  0  0  0  0  0
   -4.5760   22.8390  -28.6210 C   0  0  0  0  0  0  0  0  0  0  0  0
   -6.6999   24.0636  -30.1447 H   0  0  0  0  0  0  0  0  0  0  0  0
   -6.3042   24.8085  -31.7734 H   0  0  0  0  0  0  0  0  0  0  0  0
   -8.1139   22.7463  -31.6921 H   0  0  0  0  0  0  0  0  0  0  0  0
   -7.3129   22.9455  -33.2824 H   0  0  0  0  0  0  0  0  0  0  0  0
   -7.5863   20.4407  -31.5752 H   0  0  0  0  0  0  0  0  0  0  0  0
   -8.0885   20.7395  -33.3082 H   0  0  0  0  0  0  0  0  0  0  0  0
   -7.7827   18.3713  -32.2127 H   0  0  0  0  0  0  0  0  0  0  0  0
   -7.7561   15.9781  -32.8872 H   0  0  0  0  0  0  0  0  0  0  0  0
   -6.0226   15.1355  -34.4692 H   0  0  0  0  0  0  0  0  0  0  0  0
   -4.2943   16.6907  -35.3631 H   0  0  0  0  0  0  0  0  0  0  0  0
   -4.2958   19.0874  -34.6996 H   0  0  0  0  0  0  0  0  0  0  0  0
   -4.1194   20.5736  -32.2503 H   0  0  0  0  0  0  0  0  0  0  0  0
   -4.3823   21.0716  -34.0017 H   0  0  0  0  0  0  0  0  0  0  0  0
   -3.9570   22.8676  -32.0833 H   0  0  0  0  0  0  0  0  0  0  0  0
   -5.0784   23.1529  -33.4712 H   0  0  0  0  0  0  0  0  0  0  0  0
   -2.0581   24.5181  -30.2592 H   0  0  0  0  0  0  0  0  0  0  0  0
   -2.3827   24.7377  -28.4877 H   0  0  0  0  0  0  0  0  0  0  0  0
   -1.3944   22.2889  -29.9739 H   0  0  0  0  0  0  0  0  0  0  0  0
   -0.7422   23.1291  -28.4806 H   0  0  0  0  0  0  0  0  0  0  0  0
   -2.6371   20.9194  -28.7439 H   0  0  0  0  0  0  0  0  0  0  0  0
   -0.7865   22.0593  -26.6427 H   0  0  0  0  0  0  0  0  0  0  0  0
   -2.0769   20.8797  -26.1588 H   0  0  0  0  0  0  0  0  0  0  0  0
   -1.8220   18.5658  -26.5230 H   0  0  0  0  0  0  0  0  0  0  0  0
   -0.3866   16.6756  -27.2916 H   0  0  0  0  0  0  0  0  0  0  0  0
    1.6515   17.1285  -28.6597 H   0  0  0  0  0  0  0  0  0  0  0  0
    2.2727   19.4748  -29.2411 H   0  0  0  0  0  0  0  0  0  0  0  0
    0.8498   21.3734  -28.4647 H   0  0  0  0  0  0  0  0  0  0  0  0
   -4.1604   21.5849  -26.9096 H   0  0  0  0  0  0  0  0  0  0  0  0
   -3.3887   23.2097  -26.8549 H   0  0  0  0  0  0  0  0  0  0  0  0
   -4.9451   21.9650  -29.1777 H   0  0  0  0  0  0  0  0  0  0  0  0
   -5.4069   23.3947  -28.1619 H   0  0  0  0  0  0  0  0  0  0  0  0
  1  2  2  0
  2  3  1  0
  3  4  1  0
  4  5  1  0
  5  6  1  0
  6  7  1  0
  7  8  1  0
  8  9  2  0
  9 10  1  0
 10 11  2  0
 11 12  1  0
 12 13  2  0
  7 14  1  0
 14 15  1  0
  2 16  1  0
 16 17  1  0
 17 18  1  0
 18 19  1  0
 19 20  1  0
 20 21  1  0
 21 22  2  0
 22 23  1  0
 23 24  2  0
 24 25  1  0
 25 26  2  0
 19 27  1  0
 27 28  1  0
 15  4  1  0
 28 16  1  0
 13  8  1  0
 26 21  1  0
  3 29  1  0
  3 30  1  0
  5 31  1  0
  5 32  1  0
  6 33  1  0
  6 34  1  0
  9 35  1  0
 10 36  1  0
 11 37  1  0
 12 38  1  0
 13 39  1  0
 14 40  1  0
 14 41  1  0
 15 42  1  0
 15 43  1  0
 17 44  1  0
 17 45  1  0
 18 46  1  0
 18 47  1  0
 19 48  1  0
 20 49  1  0
 20 50  1  0
 22 51  1  0
 23 52  1  0
 24 53  1  0
 25 54  1  0
 26 55  1  0
 27 56  1  0
 27 57  1  0
 28 58  1  0
 28 59  1  0
M  END
>  <UniqueID>  (40) 
39

>  <SMILES>  (40) 
O=C(CN1CCN(c2ccccc2)CC1)N1CCC(Cc2ccccc2)CC1

>  <Energy>  (40) 
75.6410534642918

>  <Genealogy>  (40) 
O=C(CN1CCN(c2ccccc2)CC1)N1CCC(Cc2ccccc2)CC1 (3D coordinates assigned)
O=C(CN1CCN(c2ccccc2)CC1)N1CCC(Cc2ccccc2)CC1 (nonaromatic ring conformer: 75.6410534642918 kcal/mol)

>  <smiles>  (40) 
O=C(CN1CCN(c2ccccc2)CC1)N1CCC(Cc2ccccc2)CC1

>  <score_type>  (40) 
oracle

>  <origin>  (40) 
adg

>  <m_score__min__energy>  (40) 
-9.8699999999999992

>  <m_primary>  (40) 
energy

$$$$
40:0
     RDKit          3D

 24 25  0  0  0  0  0  0  0  0999 V2000
   -2.0360   20.4720  -29.0220 O   0  0  0  0  0  0  0  0  0  0  0  0
   -2.0240   21.1710  -30.0560 N   0  0  0  0  0  0  0  0  0  0  0  0
   -0.9420   21.0830  -30.9020 O   0  0  0  0  0  0  0  0  0  0  0  0
   -3.1210   22.0520  -30.3610 C   0  0  0  0  0  0  0  0  0  0  0  0
   -2.9660   23.4470  -30.2730 C   0  0  0  0  0  0  0  0  0  0  0  0
   -4.0310   24.2980  -30.5730 C   0  0  0  0  0  0  0  0  0  0  0  0
   -3.8660   25.6750  -30.4800 O   0  0  0  0  0  0  0  0  0  0  0  0
   -5.2630   23.7700  -30.9640 C   0  0  0  0  0  0  0  0  0  0  0  0
   -5.4440   22.3800  -31.0570 C   0  0  0  0  0  0  0  0  0  0  0  0
   -6.7560   21.8170  -31.4720 C   0  0  0  0  0  0  0  0  0  0  0  0
   -7.9520   22.5050  -31.1860 C   0  0  0  0  0  0  0  0  0  0  0  0
   -9.1840   21.9740  -31.5770 C   0  0  0  0  0  0  0  0  0  0  0  0
   -9.2390   20.7540  -32.2550 C   0  0  0  0  0  0  0  0  0  0  0  0
   -8.0600   20.0610  -32.5430 C   0  0  0  0  0  0  0  0  0  0  0  0
   -6.8240   20.5880  -32.1550 C   0  0  0  0  0  0  0  0  0  0  0  0
   -4.3660   21.5280  -30.7540 C   0  0  0  0  0  0  0  0  0  0  0  0
   -1.9985   23.8706  -29.9655 H   0  0  0  0  0  0  0  0  0  0  0  0
   -6.0972   24.4468  -31.2007 H   0  0  0  0  0  0  0  0  0  0  0  0
   -7.9156   23.4659  -30.6517 H   0  0  0  0  0  0  0  0  0  0  0  0
  -10.1128   22.5181  -31.3503 H   0  0  0  0  0  0  0  0  0  0  0  0
  -10.2102   20.3387  -32.5622 H   0  0  0  0  0  0  0  0  0  0  0  0
   -8.1043   19.0996  -33.0757 H   0  0  0  0  0  0  0  0  0  0  0  0
   -5.8992   20.0387  -32.3850 H   0  0  0  0  0  0  0  0  0  0  0  0
   -4.4984   20.4383  -30.8253 H   0  0  0  0  0  0  0  0  0  0  0  0
  1  2  2  0
  2  3  1  0
  2  4  1  0
  4  5  2  0
  5  6  1  0
  6  7  1  0
  6  8  2  0
  8  9  1  0
  9 10  1  0
 10 11  2  0
 11 12  1  0
 12 13  2  0
 13 14  1  0
 14 15  2  0
  9 16  2  0
 16  4  1  0
 15 10  1  0
  5 17  1  0
  8 18  1  0
 11 19  1  0
 12 20  1  0
 13 21  1  0
 14 22  1  0
 15 23  1  0
 16 24  1  0
M  CHG  3   2   1   3  -1   7  -1
M  END
>  <UniqueID>  (41) 
40

>  <SMILES>  (41) 
O=[N+]([O-])c1cc([O-])cc(-c2ccccc2)c1

>  <Energy>  (41) 
31.547137393978247

>  <Genealogy>  (41) 
O=[N+]([O-])c1cc([O-])cc(-c2ccccc2)c1 (protonated)
O=[N+]([O-])c1cc([O-])cc(-c2ccccc2)c1 (3D coordinates assigned)
O=[N+]([O-])c1cc([O-])cc(-c2ccccc2)c1 (optimized conformer: 31.547137393978247 kcal/mol)

>  <smiles>  (41) 
O=[N+]([O-])c1cc(O)cc(-c2ccccc2)c1

>  <score_type>  (41) 
oracle

>  <origin>  (41) 
adg

>  <m_score__min__energy>  (41) 
-9.0199999999999996

>  <m_primary>  (41) 
energy

$$$$
41:0
     RDKit          3D

 26 27  0  0  1  0  0  0  0  0999 V2000
   -2.2880   22.0330  -31.1850 C   0  0  0  0  0  0  0  0  0  0  0  0
   -3.2330   23.0240  -31.5490 O   0  0  0  0  0  0  0  0  0  0  0  0
   -4.5730   22.6690  -31.5730 C   0  0  0  0  0  0  0  0  0  0  0  0
   -5.0360   21.6170  -32.3550 C   0  0  0  0  0  0  0  0  0  0  0  0
   -6.3570   21.2420  -32.4000 C   0  0  0  0  0  0  0  0  0  0  0  0
   -7.2490   21.9490  -31.6330 C   0  0  0  0  0  0  0  0  0  0  0  0
   -9.1170   21.5090  -31.6230 Br  0  0  0  0  0  0  0  0  0  0  0  0
   -6.8210   22.9950  -30.8500 C   0  0  0  0  0  0  0  0  0  0  0  0
   -5.4780   23.3860  -30.7960 C   0  0  0  0  0  0  0  0  0  0  0  0
   -4.8910   24.6850  -29.8440 S   0  0  0  0  0  0  0  0  0  0  0  0
   -6.0270   25.5670  -29.3620 O   0  0  0  0  0  0  0  0  0  0  0  0
   -4.0590   25.5790  -30.7360 O   0  0  0  0  0  0  0  0  0  0  0  0
   -3.9640   24.2650  -28.4830 N   0  0  0  0  0  0  0  0  0  0  0  0
   -2.7480   24.3120  -28.3500 C   0  0  0  0  0  0  0  0  0  0  0  0
   -1.7690   25.0490  -29.0660 N   0  0  0  0  0  0  0  0  0  0  0  0
   -0.5960   24.8560  -28.6570 N   0  0  0  0  0  0  0  0  0  0  0  0
   -0.1260   24.1700  -27.7770 C   0  0  0  0  0  0  0  0  0  0  0  0
   -1.7270   23.3900  -27.1080 S   0  0  0  0  0  0  0  0  0  0  0  0
   -2.2273   21.9694  -30.0885 H   0  0  0  0  0  0  0  0  0  0  0  0
   -2.6015   21.0603  -31.5919 H   0  0  0  0  0  0  0  0  0  0  0  0
   -1.3015   22.3000  -31.5919 H   0  0  0  0  0  0  0  0  0  0  0  0
   -4.3112   21.0590  -32.9660 H   0  0  0  0  0  0  0  0  0  0  0  0
   -6.6886   20.4032  -33.0297 H   0  0  0  0  0  0  0  0  0  0  0  0
   -7.5588   23.5431  -30.2456 H   0  0  0  0  0  0  0  0  0  0  0  0
   -2.0870   25.6680  -29.8410 H   0  0  0  0  0  0  0  0  0  0  0  0
    0.9184   24.0370  -27.4584 H   0  0  0  0  0  0  0  0  0  0  0  0
  1  2  1  0
  2  3  1  0
  3  4  2  0
  4  5  1  0
  5  6  2  0
  6  7  1  0
  6  8  1  0
  8  9  2  0
  9 10  1  0
 10 11  2  0
 10 12  2  0
 10 13  1  0
 13 14  2  0
 14 15  1  0
 15 16  1  0
 16 17  2  0
 17 18  1  0
  9  3  1  0
 18 14  1  0
  1 19  1  0
  1 20  1  0
  1 21  1  0
  4 22  1  0
  5 23  1  0
  8 24  1  0
 15 25  1  0
 17 26  1  0
M  END
>  <smiles>  (42) 
COc1ccc(Br)cc1S(=O)(=O)N=c1[nH]ncs1

>  <score_type>  (42) 
oracle

>  <origin>  (42) 
adg

>  <m_score__min__energy>  (42) 
-8.1400000000000006

>  <m_primary>  (42) 
energy

$$$$
42:0
     RDKit          3D

 28 29  0  0  0  0  0  0  0  0999 V2000
   -6.1330   17.1560  -32.5760 C   0  0  0  0  0  0  0  0  0  0  0  0
   -6.3910   17.8800  -31.2560 C   0  0  0  0  0  0  0  0  0  0  0  0
   -7.5580   18.8750  -31.3700 C   0  0  2  0  0  0  0  0  0  0  0  0
   -8.3080   18.7440  -32.7150 C   0  0  0  0  0  0  0  0  0  0  0  0
   -8.2100   20.0680  -33.2960 N   0  0  0  0  0  0  0  0  0  0  0  0
   -7.4620   20.8700  -32.4060 C   0  0  0  0  0  0  0  0  0  0  0  0
   -7.1000   22.2240  -32.7070 N   0  0  0  0  0  0  0  0  0  0  0  0
   -6.4670   23.1200  -31.7770 C   0  0  0  0  0  0  0  0  0  0  0  0
   -7.2370   23.7590  -30.7960 C   0  0  0  0  0  0  0  0  0  0  0  0
   -6.6300   24.6140  -29.8740 C   0  0  0  0  0  0  0  0  0  0  0  0
   -5.2500   24.8120  -29.9320 C   0  0  0  0  0  0  0  0  0  0  0  0
   -4.5080   24.1670  -30.8700 N   0  0  0  0  0  0  0  0  0  0  0  0
   -5.0770   23.3310  -31.7820 C   0  0  0  0  0  0  0  0  0  0  0  0
   -7.0640   20.2500  -31.3500 N   0  0  0  0  0  0  0  0  0  0  0  0
   -5.7702   16.1380  -32.3710 H   0  0  0  0  0  0  0  0  0  0  0  0
   -7.0675   17.1028  -33.1538 H   0  0  0  0  0  0  0  0  0  0  0  0
   -5.3755   17.7058  -33.1538 H   0  0  0  0  0  0  0  0  0  0  0  0
   -6.6317   17.1357  -30.4826 H   0  0  0  0  0  0  0  0  0  0  0  0
   -5.4844   18.4445  -30.9923 H   0  0  0  0  0  0  0  0  0  0  0  0
   -8.2209   18.6482  -30.5220 H   0  0  0  0  0  0  0  0  0  0  0  0
   -7.8258   17.9958  -33.3613 H   0  0  0  0  0  0  0  0  0  0  0  0
   -9.3487   18.4099  -32.5909 H   0  0  0  0  0  0  0  0  0  0  0  0
   -8.5980   20.3680  -34.2180 H   0  0  0  0  0  0  0  0  0  0  0  0
   -7.2270   22.5450  -33.6930 H   0  0  0  0  0  0  0  0  0  0  0  0
   -8.3225   23.5866  -30.7522 H   0  0  0  0  0  0  0  0  0  0  0  0
   -7.2333   25.1261  -29.1100 H   0  0  0  0  0  0  0  0  0  0  0  0
   -4.7621   25.4912  -29.2174 H   0  0  0  0  0  0  0  0  0  0  0  0
   -4.4473   22.8193  -32.5247 H   0  0  0  0  0  0  0  0  0  0  0  0
  1  2  1  0
  2  3  1  0
  3  4  1  0
  4  5  1  0
  5  6  1  0
  6  7  1  0
  7  8  1  0
  8  9  2  0
  9 10  1  0
 10 11  2  0
 11 12  1  0
 12 13  2  0
  6 14  2  0
 14  3  1  0
 13  8  1  0
  1 15  1  0
  1 16  1  0
  1 17  1  0
  2 18  1  0
  2 19  1  0
  3 20  1  1
  4 21  1  0
  4 22  1  0
  5 23  1  0
  7 24  1  0
  9 25  1  0
 10 26  1  0
 11 27  1  0
 13 28  1  0
M  END
>  <UniqueID>  (43) 
41

>  <SMILES>  (43) 
CC[C@@H]1CNC(Nc2cccnc2)=N1

>  <Energy>  (43) 
39.55085289174288

>  <Genealogy>  (43) 
CC[C@@H]1CNC(Nc2cccnc2)=N1 (chirality)
CC[C@@H]1CNC(Nc2cccnc2)=N1 (3D coordinates assigned)
CC[C@@H]1CNC(Nc2cccnc2)=N1 (nonaromatic ring conformer: 39.55085289174288 kcal/mol)

>  <smiles>  (43) 
CCC1CNC(Nc2cccnc2)=N1

>  <score_type>  (43) 
oracle

>  <origin>  (43) 
adg

>  <m_score__min__energy>  (43) 
-6.0300000000000002

>  <m_primary>  (43) 
energy

$$$$
43:0
     RDKit          3D

 30 31  0  0  0  0  0  0  0  0999 V2000
   -8.4137   23.8313  -30.7412 H   0  0  0  0  0  0  0  0  0  0  0  0
   -7.3190   23.9280  -30.7890 C   0  0  0  0  0  0  0  0  0  0  0  0
   -6.4110   25.1990  -30.1610 S   0  0  0  0  0  0  0  0  0  0  0  0
   -4.9550   24.5410  -30.6680 C   0  0  0  0  0  0  0  0  0  0  0  0
   -3.8020   25.1010  -30.4570 N   0  0  0  0  0  0  0  0  0  0  0  0
   -2.7290   24.5570  -29.6730 C   0  0  0  0  0  0  0  0  0  0  0  0
   -1.8290   25.3000  -29.1930 O   0  0  0  0  0  0  0  0  0  0  0  0
   -2.6680   23.0760  -29.4360 C   0  0  0  0  0  0  0  0  0  0  0  0
   -1.6271   22.8017  -29.2095 H   0  0  0  0  0  0  0  0  0  0  0  0
   -3.0380   22.5856  -30.3485 H   0  0  0  0  0  0  0  0  0  0  0  0
   -3.5640   22.6040  -28.2690 C   0  0  0  0  0  0  0  0  0  0  0  0
   -4.5079   22.2677  -28.7228 H   0  0  0  0  0  0  0  0  0  0  0  0
   -3.8940   23.7460  -27.2970 C   0  0  0  0  0  0  0  0  0  0  0  0
   -3.7906   23.3880  -26.2620 H   0  0  0  0  0  0  0  0  0  0  0  0
   -3.2011   24.5834  -27.4663 H   0  0  0  0  0  0  0  0  0  0  0  0
   -4.9268   24.0847  -27.4663 H   0  0  0  0  0  0  0  0  0  0  0  0
   -2.9570   21.4090  -27.5200 C   0  0  0  0  0  0  0  0  0  0  0  0
   -3.0412   21.5747  -26.4358 H   0  0  0  0  0  0  0  0  0  0  0  0
   -3.4982   20.4913  -27.7938 H   0  0  0  0  0  0  0  0  0  0  0  0
   -1.8967   21.3048  -27.7938 H   0  0  0  0  0  0  0  0  0  0  0  0
   -5.1270   23.3640  -31.3100 N   0  0  0  0  0  0  0  0  0  0  0  0
   -6.4410   23.0180  -31.3810 C   0  0  0  0  0  0  0  0  0  0  0  0
   -6.8690   21.7710  -32.0390 C   0  0  0  0  0  0  0  0  0  0  0  0
   -8.2210   20.8730  -31.5930 S   0  0  0  0  0  0  0  0  0  0  0  0
   -7.9850   19.6990  -32.7760 C   0  0  0  0  0  0  0  0  0  0  0  0
   -8.6191   18.8171  -32.9497 H   0  0  0  0  0  0  0  0  0  0  0  0
   -6.8460   20.0430  -33.4940 C   0  0  0  0  0  0  0  0  0  0  0  0
   -6.4675   19.4369  -34.3303 H   0  0  0  0  0  0  0  0  0  0  0  0
   -6.2350   21.1870  -33.0830 N   0  0  0  0  0  0  0  0  0  0  0  0
   -5.3710   21.5580  -33.5360 H   0  0  0  0  0  0  0  0  0  0  0  0
  1  2  1  0
  2  3  1  0
  3  4  1  0
  4  5  2  0
  5  6  1  0
  6  7  2  0
  6  8  1  0
  8  9  1  0
  8 10  1  0
  8 11  1  0
 11 12  1  0
 11 13  1  0
 13 14  1  0
 13 15  1  0
 13 16  1  0
 11 17  1  0
 17 18  1  0
 17 19  1  0
 17 20  1  0
  4 21  1  0
 21 22  1  0
 22 23  1  0
 23 24  1  0
 24 25  1  0
 25 26  1  0
 25 27  2  0
 27 28  1  0
 27 29  1  0
 29 30  1  0
 22  2  2  0
 29 23  2  0
M  CHG  2  21  -1  29   1
M  END
>  <UniqueID>  (44) 
42

>  <SMILES>  (44) 
CC(C)CC(=O)/N=c1\[n-]c(-c2[nH+]ccs2)cs1

>  <Energy>  (44) 
84.35002628104209

>  <Genealogy>  (44) 
CC(C)CC(=O)N=c1[n-]c(-c2[nH+]ccs2)cs1 (protonated)
CC(C)CC(=O)/N=c1\[n-]c(-c2[nH+]ccs2)cs1 (cis-trans isomerization)
CC(C)CC(=O)/N=c1\[n-]c(-c2[nH+]ccs2)cs1 (3D coordinates assigned)
CC(C)CC(=O)/N=c1\[n-]c(-c2[nH+]ccs2)cs1 (optimized conformer: 84.35002628104209 kcal/mol)

>  <smiles>  (44) 
CC(C)CC(=O)N=c1[nH]c(-c2nccs2)cs1

>  <score_type>  (44) 
oracle

>  <origin>  (44) 
adg

>  <m_score__min__energy>  (44) 
-7.54

>  <m_primary>  (44) 
energy

$$$$
44:0
     RDKit          3D

 49 52  0  0  0  0  0  0  0  0999 V2000
    0.3240   27.7790  -25.3200 C   0  0  0  0  0  0  0  0  0  0  0  0
    0.7050   26.5110  -24.6780 N   0  0  0  0  0  0  0  0  0  0  0  0
   -0.4160   25.9550  -23.8800 C   0  0  0  0  0  0  0  0  0  0  0  0
   -1.1680   24.8500  -24.6320 C   0  0  0  0  0  0  0  0  0  0  0  0
   -0.2670   23.7220  -24.9540 N   0  0  0  0  0  0  0  0  0  0  0  0
   -0.8480   22.7600  -25.9200 C   0  0  0  0  0  0  0  0  0  0  0  0
   -1.5470   23.4070  -27.1010 C   0  0  0  0  0  0  0  0  0  0  0  0
   -2.8510   23.0120  -27.4520 C   0  0  0  0  0  0  0  0  0  0  0  0
   -3.5010   23.5980  -28.5430 C   0  0  0  0  0  0  0  0  0  0  0  0
   -2.8480   24.5630  -29.3140 C   0  0  0  0  0  0  0  0  0  0  0  0
   -3.5120   25.1230  -30.4530 N   0  0  0  0  0  0  0  0  0  0  0  0
   -4.9320   25.2680  -30.5540 C   0  0  0  0  0  0  0  0  0  0  0  0
   -5.4440   26.4110  -30.4240 O   0  0  0  0  0  0  0  0  0  0  0  0
   -5.8050   24.0960  -30.7480 C   0  0  0  0  0  0  0  0  0  0  0  0
   -7.0070   23.8550  -30.0900 C   0  0  0  0  0  0  0  0  0  0  0  0
   -7.5890   22.6250  -30.4270 C   0  0  0  0  0  0  0  0  0  0  0  0
   -6.8350   21.8880  -31.3350 C   0  0  0  0  0  0  0  0  0  0  0  0
   -7.1610   20.5500  -31.8490 C   0  0  0  0  0  0  0  0  0  0  0  0
   -8.3430   19.8530  -31.6170 C   0  0  0  0  0  0  0  0  0  0  0  0
   -8.3710   18.5950  -32.2310 C   0  0  0  0  0  0  0  0  0  0  0  0
   -7.2190   18.2980  -32.9480 C   0  0  0  0  0  0  0  0  0  0  0  0
   -6.1660   19.6010  -32.8170 S   0  0  0  0  0  0  0  0  0  0  0  0
   -5.4550   22.7680  -31.7240 S   0  0  0  0  0  0  0  0  0  0  0  0
   -1.5610   24.9870  -28.9490 C   0  0  0  0  0  0  0  0  0  0  0  0
   -0.9240   24.4290  -27.8370 C   0  0  0  0  0  0  0  0  0  0  0  0
    1.1420   24.1100  -25.2060 C   0  0  0  0  0  0  0  0  0  0  0  0
    1.2540   25.5660  -25.6820 C   0  0  0  0  0  0  0  0  0  0  0  0
    0.0989   28.5283  -24.5468 H   0  0  0  0  0  0  0  0  0  0  0  0
    1.1543   28.1368  -25.9466 H   0  0  0  0  0  0  0  0  0  0  0  0
   -0.5660   27.6198  -25.9466 H   0  0  0  0  0  0  0  0  0  0  0  0
   -0.0130   25.5370  -22.9457 H   0  0  0  0  0  0  0  0  0  0  0  0
   -1.1258   26.7710  -23.6791 H   0  0  0  0  0  0  0  0  0  0  0  0
   -1.9928   24.4837  -24.0031 H   0  0  0  0  0  0  0  0  0  0  0  0
   -1.5574   25.2677  -25.5722 H   0  0  0  0  0  0  0  0  0  0  0  0
   -0.0361   22.1257  -26.3053 H   0  0  0  0  0  0  0  0  0  0  0  0
   -1.6139   22.1892  -25.3745 H   0  0  0  0  0  0  0  0  0  0  0  0
   -3.3632   22.2363  -26.8638 H   0  0  0  0  0  0  0  0  0  0  0  0
   -4.5290   23.2983  -28.7947 H   0  0  0  0  0  0  0  0  0  0  0  0
   -7.4565   24.5603  -29.3755 H   0  0  0  0  0  0  0  0  0  0  0  0
   -8.5473   22.2768  -30.0143 H   0  0  0  0  0  0  0  0  0  0  0  0
   -9.1716   20.2503  -31.0123 H   0  0  0  0  0  0  0  0  0  0  0  0
   -9.2252   17.9064  -32.1529 H   0  0  0  0  0  0  0  0  0  0  0  0
   -7.0287   17.3692  -33.5058 H   0  0  0  0  0  0  0  0  0  0  0  0
   -1.0513   25.7618  -29.5405 H   0  0  0  0  0  0  0  0  0  0  0  0
    0.0700   24.7918  -27.5365 H   0  0  0  0  0  0  0  0  0  0  0  0
    1.7156   23.9944  -24.2745 H   0  0  0  0  0  0  0  0  0  0  0  0
    1.5405   23.4588  -25.9979 H   0  0  0  0  0  0  0  0  0  0  0  0
    2.3137   25.8047  -25.8554 H   0  0  0  0  0  0  0  0  0  0  0  0
    0.6717   25.6714  -26.6093 H   0  0  0  0  0  0  0  0  0  0  0  0
  1  2  1  0
  2  3  1  0
  3  4  1  0
  4  5  1  0
  5  6  1  0
  6  7  1  0
  7  8  2  0
  8  9  1  0
  9 10  2  0
 10 11  1  0
 11 12  1  0
 12 13  2  0
 12 14  1  0
 14 15  2  0
 15 16  1  0
 16 17  2  0
 17 18  1  0
 18 19  2  0
 19 20  1  0
 20 21  2  0
 21 22  1  0
 17 23  1  0
 10 24  1  0
 24 25  2  0
  5 26  1  0
 26 27  1  0
 27  2  1  0
 25  7  1  0
 23 14  1  0
 22 18  1  0
  1 28  1  0
  1 29  1  0
  1 30  1  0
  3 31  1  0
  3 32  1  0
  4 33  1  0
  4 34  1  0
  6 35  1  0
  6 36  1  0
  8 37  1  0
  9 38  1  0
 15 39  1  0
 16 40  1  0
 19 41  1  0
 20 42  1  0
 21 43  1  0
 24 44  1  0
 25 45  1  0
 26 46  1  0
 26 47  1  0
 27 48  1  0
 27 49  1  0
M  CHG  1  11  -1
M  END
>  <UniqueID>  (45) 
43

>  <SMILES>  (45) 
CN1CCN(Cc2ccc([N-]C(=O)c3ccc(-c4cccs4)s3)cc2)CC1

>  <Energy>  (45) 
122.27096455150824

>  <Genealogy>  (45) 
CN1CCN(Cc2ccc([N-]C(=O)c3ccc(-c4cccs4)s3)cc2)CC1 (protonated)
CN1CCN(Cc2ccc([N-]C(=O)c3ccc(-c4cccs4)s3)cc2)CC1 (3D coordinates assigned)
CN1CCN(Cc2ccc([N-]C(=O)c3ccc(-c4cccs4)s3)cc2)CC1 (nonaromatic ring conformer: 122.27096455150824 kcal/mol)

>  <smiles>  (45) 
CN1CCN(Cc2ccc(NC(=O)c3ccc(-c4cccs4)s3)cc2)CC1

>  <score_type>  (45) 
oracle

>  <origin>  (45) 
adg

>  <m_score__min__energy>  (45) 
-11.039999999999999

>  <m_primary>  (45) 
energy

$$$$
45:0
     RDKit          3D

 18 19  0  0  0  0  0  0  0  0999 V2000
   -5.6660   18.5310  -34.5930 C   0  0  0  0  0  0  0  0  0  0  0  0
   -6.3040   19.5650  -33.7280 C   0  0  0  0  0  0  0  0  0  0  0  0
   -7.6250   19.5780  -33.4220 N   0  0  0  0  0  0  0  0  0  0  0  0
   -7.7460   20.6480  -32.6220 C   0  0  0  0  0  0  0  0  0  0  0  0
   -8.8900   21.1470  -32.0040 C   0  0  0  0  0  0  0  0  0  0  0  0
   -8.7450   22.2980  -31.2040 C   0  0  0  0  0  0  0  0  0  0  0  0
   -7.4770   22.9070  -31.0470 C   0  0  0  0  0  0  0  0  0  0  0  0
   -6.3430   22.3720  -31.6880 C   0  0  0  0  0  0  0  0  0  0  0  0
   -6.5250   21.2350  -32.4700 C   0  0  0  0  0  0  0  0  0  0  0  0
   -5.6370   20.5570  -33.1560 O   0  0  0  0  0  0  0  0  0  0  0  0
   -5.1933   17.7649  -33.9608 H   0  0  0  0  0  0  0  0  0  0  0  0
   -6.4314   18.0611  -35.2281 H   0  0  0  0  0  0  0  0  0  0  0  0
   -4.9027   19.0044  -35.2281 H   0  0  0  0  0  0  0  0  0  0  0  0
   -8.3680   18.9130  -33.7300 H   0  0  0  0  0  0  0  0  0  0  0  0
   -9.8684   20.6617  -32.1352 H   0  0  0  0  0  0  0  0  0  0  0  0
   -9.6231   22.7260  -30.6982 H   0  0  0  0  0  0  0  0  0  0  0  0
   -7.3766   23.8049  -30.4196 H   0  0  0  0  0  0  0  0  0  0  0  0
   -5.3515   22.8348  -31.5751 H   0  0  0  0  0  0  0  0  0  0  0  0
  1  2  1  0
  2  3  2  0
  3  4  1  0
  4  5  2  0
  5  6  1  0
  6  7  2  0
  7  8  1  0
  8  9  2  0
  9 10  1  0
 10  2  1  0
  9  4  1  0
  1 11  1  0
  1 12  1  0
  1 13  1  0
  3 14  1  0
  5 15  1  0
  6 16  1  0
  7 17  1  0
  8 18  1  0
M  CHG  1   3   1
M  END
>  <UniqueID>  (46) 
44

>  <SMILES>  (46) 
Cc1[nH+]c2ccccc2o1

>  <Energy>  (46) 
55.90885908644435

>  <Genealogy>  (46) 
Cc1[nH+]c2ccccc2o1 (protonated)
Cc1[nH+]c2ccccc2o1 (3D coordinates assigned)
Cc1[nH+]c2ccccc2o1 (optimized conformer: 55.90885908644435 kcal/mol)

>  <smiles>  (46) 
Cc1nc2ccccc2o1

>  <score_type>  (46) 
oracle

>  <origin>  (46) 
adg

>  <m_score__min__energy>  (46) 
-4.2999999999999998

>  <m_primary>  (46) 
energy

$$$$
46:0
     RDKit          3D

 35 36  0  0  1  0  0  0  0  0999 V2000
   -9.6830   21.5220  -31.9430 C   0  0  0  0  0  0  0  0  0  0  0  0
   -8.2830   22.0020  -31.9640 C   0  0  0  0  0  0  0  0  0  0  0  0
   -7.9800   23.2910  -31.5760 C   0  0  0  0  0  0  0  0  0  0  0  0
   -5.9860   21.6290  -32.3810 C   0  0  0  0  0  0  0  0  0  0  0  0
   -5.1090   20.7720  -32.7780 N   0  0  0  0  0  0  0  0  0  0  0  0
   -6.0510   25.2390  -29.8720 C   0  0  0  0  0  0  0  0  0  0  0  0
   -4.5960   24.9190  -29.6020 C   0  0  0  0  0  0  0  0  0  0  0  0
   -3.8200   24.9510  -30.8370 N   0  0  0  0  0  0  0  0  0  0  0  0
   -5.6960   22.8810  -32.0050 N   0  0  0  0  0  0  0  0  0  0  0  0
   -6.6690   23.7440  -31.5940 C   0  0  0  0  0  0  0  0  0  0  0  0
   -6.4030   24.9450  -31.2310 N   0  0  0  0  0  0  0  0  0  0  0  0
   -5.5240   19.4210  -32.9640 C   0  0  0  0  0  0  0  0  0  0  0  0
   -5.6850   18.9900  -34.2760 C   0  0  0  0  0  0  0  0  0  0  0  0
   -6.0840   17.7030  -34.5830 C   0  0  0  0  0  0  0  0  0  0  0  0
   -6.3240   16.8280  -33.5270 C   0  0  0  0  0  0  0  0  0  0  0  0
   -6.7140   15.5710  -33.8480 F   0  0  0  0  0  0  0  0  0  0  0  0
   -6.1640   17.2560  -32.2210 C   0  0  0  0  0  0  0  0  0  0  0  0
   -5.7620   18.5560  -31.9150 C   0  0  0  0  0  0  0  0  0  0  0  0
   -7.2690   21.2180  -32.3530 N   0  0  0  0  0  0  0  0  0  0  0  0
  -10.0159   21.4079  -30.9008 H   0  0  0  0  0  0  0  0  0  0  0  0
  -10.3281   22.2503  -32.4563 H   0  0  0  0  0  0  0  0  0  0  0  0
   -9.7455   20.5511  -32.4563 H   0  0  0  0  0  0  0  0  0  0  0  0
   -8.7853   23.9655  -31.2495 H   0  0  0  0  0  0  0  0  0  0  0  0
   -6.2250   26.3079  -29.6794 H   0  0  0  0  0  0  0  0  0  0  0  0
   -6.6728   24.6193  -29.2092 H   0  0  0  0  0  0  0  0  0  0  0  0
   -4.1878   25.6614  -28.9004 H   0  0  0  0  0  0  0  0  0  0  0  0
   -4.5315   23.9088  -29.1715 H   0  0  0  0  0  0  0  0  0  0  0  0
   -4.2670   25.5880  -31.5410 H   0  0  0  0  0  0  0  0  0  0  0  0
   -3.8180   23.9810  -31.2430 H   0  0  0  0  0  0  0  0  0  0  0  0
   -4.7050   23.2070  -32.0240 H   0  0  0  0  0  0  0  0  0  0  0  0
   -5.4884   19.6962  -35.0961 H   0  0  0  0  0  0  0  0  0  0  0  0
   -6.2079   17.3805  -35.6273 H   0  0  0  0  0  0  0  0  0  0  0  0
   -6.3596   16.5504  -31.4001 H   0  0  0  0  0  0  0  0  0  0  0  0
   -5.6386   18.8814  -30.8715 H   0  0  0  0  0  0  0  0  0  0  0  0
   -7.5210   20.2410  -32.6430 H   0  0  0  0  0  0  0  0  0  0  0  0
  1  2  1  0
  2  3  2  0
  3  4  1  0
  4  5  2  0
  5  6  1  0
  6  7  1  0
  7  8  1  0
  4  9  1  0
  9 10  1  0
 10 11  2  0
 11 12  1  0
 12 13  2  0
 13 14  1  0
 14 15  2  0
 15 16  1  0
 15 17  1  0
 17 18  2  0
 10 19  1  0
 19  2  1  0
 18 12  1  0
  1 20  1  0
  1 21  1  0
  1 22  1  0
  3 23  1  0
  6 24  1  0
  6 25  1  0
  7 26  1  0
  7 27  1  0
  8 28  1  0
  8 29  1  0
  9 30  1  0
 13 31  1  0
 14 32  1  0
 17 33  1  0
 18 34  1  0
 19 35  1  0
M  END
>  <smiles>  (47) 
Cc1cc(=NCCN)[nH]c(=Nc2ccc(F)cc2)[nH]1

>  <score_type>  (47) 
oracle

>  <origin>  (47) 
adg

>  <m_score__min__energy>  (47) 
-7.04

>  <m_primary>  (47) 
energy

$$$$
47:0
     RDKit          3D

 33 34  0  0  0  0  0  0  0  0999 V2000
   -6.2279   26.3506  -29.9658 H   0  0  0  0  0  0  0  0  0  0  0  0
   -6.1320   25.2990  -30.2740 C   0  0  0  0  0  0  0  0  0  0  0  0
   -7.2390   24.4500  -30.2090 C   0  0  0  0  0  0  0  0  0  0  0  0
   -8.2101   24.8400  -29.8701 H   0  0  0  0  0  0  0  0  0  0  0  0
   -7.1160   23.1000  -30.5750 C   0  0  0  0  0  0  0  0  0  0  0  0
   -8.2470   22.2150  -30.5500 N   0  0  0  0  0  0  0  0  0  0  0  0
   -8.6700   21.5110  -31.5310 N   0  0  0  0  0  0  0  0  0  0  0  0
   -8.0510   20.3170  -32.0370 C   0  0  0  0  0  0  0  0  0  0  0  0
   -8.5080   19.0730  -31.5940 C   0  0  0  0  0  0  0  0  0  0  0  0
   -9.3141   19.0215  -30.8473 H   0  0  0  0  0  0  0  0  0  0  0  0
   -7.9480   17.8940  -32.0930 C   0  0  0  0  0  0  0  0  0  0  0  0
   -8.3055   16.9219  -31.7225 H   0  0  0  0  0  0  0  0  0  0  0  0
   -6.9300   17.9380  -33.0660 C   0  0  0  0  0  0  0  0  0  0  0  0
   -6.3400   16.6750  -33.5840 C   0  0  0  0  0  0  0  0  0  0  0  0
   -6.9120   16.0550  -34.5230 O   0  0  0  0  0  0  0  0  0  0  0  0
   -5.0730   16.1030  -33.0220 C   0  0  0  0  0  0  0  0  0  0  0  0
   -5.1175   16.1231  -31.9231 H   0  0  0  0  0  0  0  0  0  0  0  0
   -4.9556   15.0646  -33.3653 H   0  0  0  0  0  0  0  0  0  0  0  0
   -4.2165   16.7017  -33.3653 H   0  0  0  0  0  0  0  0  0  0  0  0
   -6.5000   19.1940  -33.5340 C   0  0  0  0  0  0  0  0  0  0  0  0
   -5.7128   19.2497  -34.3003 H   0  0  0  0  0  0  0  0  0  0  0  0
   -7.0640   20.3710  -33.0340 C   0  0  0  0  0  0  0  0  0  0  0  0
   -6.7328   21.3449  -33.4237 H   0  0  0  0  0  0  0  0  0  0  0  0
   -5.8930   22.6270  -31.0630 C   0  0  0  0  0  0  0  0  0  0  0  0
   -5.8057   21.5819  -31.3949 H   0  0  0  0  0  0  0  0  0  0  0  0
   -4.7710   23.4790  -31.1330 C   0  0  0  0  0  0  0  0  0  0  0  0
   -3.5220   23.0370  -31.5950 O   0  0  0  0  0  0  0  0  0  0  0  0
   -3.3160   21.8420  -32.3400 C   0  0  0  0  0  0  0  0  0  0  0  0
   -3.1707   20.9991  -31.6483 H   0  0  0  0  0  0  0  0  0  0  0  0
   -4.1941   21.6490  -32.9738 H   0  0  0  0  0  0  0  0  0  0  0  0
   -2.4239   21.9542  -32.9738 H   0  0  0  0  0  0  0  0  0  0  0  0
   -4.9020   24.8150  -30.7300 C   0  0  0  0  0  0  0  0  0  0  0  0
   -3.8080   25.6710  -30.7880 O   0  0  0  0  0  0  0  0  0  0  0  0
  1  2  1  0
  2  3  2  0
  3  4  1  0
  3  5  1  0
  5  6  1  0
  6  7  2  0
  7  8  1  0
  8  9  2  0
  9 10  1  0
  9 11  1  0
 11 12  1  0
 11 13  2  0
 13 14  1  0
 14 15  2  0
 14 16  1  0
 16 17  1  0
 16 18  1  0
 16 19  1  0
 13 20  1  0
 20 21  1  0
 20 22  2  0
 22 23  1  0
  5 24  2  0
 24 25  1  0
 24 26  1  0
 26 27  1  0
 27 28  1  0
 28 29  1  0
 28 30  1  0
 28 31  1  0
 26 32  2  0
 32 33  1  0
 32  2  1  0
 22  8  1  0
M  CHG  1  33  -1
M  END
>  <UniqueID>  (48) 
45

>  <SMILES>  (48) 
COc1cc(/N=N\c2ccc(C(C)=O)cc2)ccc1[O-]

>  <Energy>  (48) 
46.50916424994313

>  <Genealogy>  (48) 
COc1cc(N=Nc2ccc(C(C)=O)cc2)ccc1[O-] (protonated)
COc1cc(/N=N\c2ccc(C(C)=O)cc2)ccc1[O-] (cis-trans isomerization)
COc1cc(/N=N\c2ccc(C(C)=O)cc2)ccc1[O-] (3D coordinates assigned)
COc1cc(/N=N\c2ccc(C(C)=O)cc2)ccc1[O-] (optimized conformer: 46.50916424994313 kcal/mol)

>  <smiles>  (48) 
COc1cc(N=Nc2ccc(C(C)=O)cc2)ccc1O

>  <score_type>  (48) 
oracle

>  <origin>  (48) 
adg

>  <m_score__min__energy>  (48) 
-11.07

>  <m_primary>  (48) 
energy

$$$$
48:0
     RDKit          3D

 42 45  0  0  0  0  0  0  0  0999 V2000
   -6.0770   17.2260  -34.2780 C   0  0  0  0  0  0  0  0  0  0  0  0
   -5.0030   18.1670  -33.8490 C   0  0  0  0  0  0  0  0  0  0  0  0
   -3.8200   17.8140  -33.2310 C   0  0  0  0  0  0  0  0  0  0  0  0
   -3.1550   18.9980  -32.9980 C   0  0  0  0  0  0  0  0  0  0  0  0
   -3.9840   19.9960  -33.4730 C   0  0  0  0  0  0  0  0  0  0  0  0
   -3.6800   21.4640  -33.4480 C   0  0  0  0  0  0  0  0  0  0  0  0
   -4.0500   22.0530  -32.1480 N   0  0  0  0  0  0  0  0  0  0  0  0
   -2.9810   22.3620  -31.2180 C   0  0  0  0  0  0  0  0  0  0  0  0
   -1.8370   21.8560  -31.3990 O   0  0  0  0  0  0  0  0  0  0  0  0
   -3.1840   23.2640  -30.1180 N   0  0  0  0  0  0  0  0  0  0  0  0
   -2.2250   23.3840  -29.0500 C   0  0  0  0  0  0  0  0  0  0  0  0
   -1.7390   22.2380  -28.4000 C   0  0  0  0  0  0  0  0  0  0  0  0
   -0.8190   22.3560  -27.3540 C   0  0  0  0  0  0  0  0  0  0  0  0
   -0.3800   23.6190  -26.9450 C   0  0  0  0  0  0  0  0  0  0  0  0
   -0.8620   24.7660  -27.5820 C   0  0  0  0  0  0  0  0  0  0  0  0
   -0.3160   26.3510  -27.0630 Cl  0  0  0  0  0  0  0  0  0  0  0  0
   -1.7820   24.6510  -28.6300 C   0  0  0  0  0  0  0  0  0  0  0  0
   -4.6200   24.2200  -30.1050 S   0  0  0  0  0  0  0  0  0  0  0  0
   -5.0340   24.4980  -28.6860 O   0  0  0  0  0  0  0  0  0  0  0  0
   -4.3970   25.5080  -30.8440 O   0  0  0  0  0  0  0  0  0  0  0  0
   -5.8390   23.2620  -30.9000 C   0  0  0  0  0  0  0  0  0  0  0  0
   -7.1930   23.4820  -30.6130 C   0  0  0  0  0  0  0  0  0  0  0  0
   -8.1740   22.6930  -31.2120 C   0  0  0  0  0  0  0  0  0  0  0  0
   -7.8080   21.6780  -32.0960 C   0  0  0  0  0  0  0  0  0  0  0  0
   -6.4600   21.4590  -32.3930 C   0  0  0  0  0  0  0  0  0  0  0  0
   -5.4510   22.2560  -31.8090 C   0  0  0  0  0  0  0  0  0  0  0  0
   -5.0780   19.4720  -33.9780 O   0  0  0  0  0  0  0  0  0  0  0  0
   -6.5656   16.7979  -33.3903 H   0  0  0  0  0  0  0  0  0  0  0  0
   -6.8208   17.7684  -34.8801 H   0  0  0  0  0  0  0  0  0  0  0  0
   -5.6370   16.4174  -34.8801 H   0  0  0  0  0  0  0  0  0  0  0  0
   -3.4794   16.7992  -32.9775 H   0  0  0  0  0  0  0  0  0  0  0  0
   -2.1673   19.1230  -32.5301 H   0  0  0  0  0  0  0  0  0  0  0  0
   -2.6034   21.6123  -33.6178 H   0  0  0  0  0  0  0  0  0  0  0  0
   -4.2639   21.9586  -34.2383 H   0  0  0  0  0  0  0  0  0  0  0  0
   -2.0840   21.2423  -28.7155 H   0  0  0  0  0  0  0  0  0  0  0  0
   -0.4398   21.4537  -26.8519 H   0  0  0  0  0  0  0  0  0  0  0  0
    0.3444   23.7099  -26.1222 H   0  0  0  0  0  0  0  0  0  0  0  0
   -2.1606   25.5559  -29.1278 H   0  0  0  0  0  0  0  0  0  0  0  0
   -7.4826   24.2796  -29.9130 H   0  0  0  0  0  0  0  0  0  0  0  0
   -9.2361   22.8708  -30.9876 H   0  0  0  0  0  0  0  0  0  0  0  0
   -8.5817   21.0488  -32.5602 H   0  0  0  0  0  0  0  0  0  0  0  0
   -6.1814   20.6555  -33.0906 H   0  0  0  0  0  0  0  0  0  0  0  0
  1  2  1  0
  2  3  2  0
  3  4  1  0
  4  5  2  0
  5  6  1  0
  6  7  1  0
  7  8  1  0
  8  9  2  0
  8 10  1  0
 10 11  1  0
 11 12  2  0
 12 13  1  0
 13 14  2  0
 14 15  1  0
 15 16  1  0
 15 17  2  0
 10 18  1  0
 18 19  2  0
 18 20  2  0
 18 21  1  0
 21 22  2  0
 22 23  1  0
 23 24  2  0
 24 25  1  0
 25 26  2  0
  5 27  1  0
 27  2  1  0
 26  7  1  0
 17 11  1  0
 26 21  1  0
  1 28  1  0
  1 29  1  0
  1 30  1  0
  3 31  1  0
  4 32  1  0
  6 33  1  0
  6 34  1  0
 12 35  1  0
 13 36  1  0
 14 37  1  0
 17 38  1  0
 22 39  1  0
 23 40  1  0
 24 41  1  0
 25 42  1  0
M  END
>  <UniqueID>  (49) 
46

>  <SMILES>  (49) 
Cc1ccc(CN2C(=O)N(c3cccc(Cl)c3)S(=O)(=O)c3ccccc32)o1

>  <Energy>  (49) 
84.27278784719753

>  <Genealogy>  (49) 
Cc1ccc(CN2C(=O)N(c3cccc(Cl)c3)S(=O)(=O)c3ccccc32)o1 (3D coordinates assigned)
Cc1ccc(CN2C(=O)N(c3cccc(Cl)c3)S(=O)(=O)c3ccccc32)o1 (nonaromatic ring conformer: 84.27278784719753 kcal/mol)

>  <smiles>  (49) 
Cc1ccc(CN2C(=O)N(c3cccc(Cl)c3)S(=O)(=O)c3ccccc32)o1

>  <score_type>  (49) 
oracle

>  <origin>  (49) 
adg

>  <m_score__min__energy>  (49) 
-8.9700000000000006

>  <m_primary>  (49) 
energy

$$$$
