0:0
     RDKit          3D

 43 44  0  0  0  0  0  0  0  0999 V2000
   -2.4000   25.6830  -25.6140 C   0  0  0  0  0  0  0  0  0  0  0  0
   -3.8370   25.2880  -25.9480 C   0  0  0  0  0  0  0  0  0  0  0  0
   -3.9560   24.9090  -27.3640 N   0  0  0  0  0  0  0  0  0  0  0  0
   -4.1580   23.4600  -27.5500 C   0  0  0  0  0  0  0  0  0  0  0  0
   -3.5260   22.8880  -28.8390 C   0  0  0  0  0  0  0  0  0  0  0  0
   -3.1740   23.9420  -29.8940 C   0  0  0  0  0  0  0  0  0  0  0  0
   -4.0700   25.0300  -29.8150 O   0  0  0  0  0  0  0  0  0  0  0  0
   -5.0130   24.9620  -30.8670 C   0  0  0  0  0  0  0  0  0  0  0  0
   -6.1170   23.9650  -30.5100 C   0  0  0  0  0  0  0  0  0  0  0  0
   -6.0220   22.7180  -31.3680 C   0  0  0  0  0  0  0  0  0  0  0  0
   -4.7920   22.4570  -31.9980 C   0  0  0  0  0  0  0  0  0  0  0  0
   -4.6350   21.3610  -32.8440 C   0  0  0  0  0  0  0  0  0  0  0  0
   -3.4380   21.1320  -33.4390 F   0  0  0  0  0  0  0  0  0  0  0  0
   -5.7050   20.5040  -33.0880 C   0  0  0  0  0  0  0  0  0  0  0  0
   -6.9490   20.7380  -32.4870 C   0  0  0  0  0  0  0  0  0  0  0  0
   -8.0230   19.8750  -32.7560 C   0  0  0  0  0  0  0  0  0  0  0  0
   -9.2720   20.1050  -32.1810 C   0  0  0  0  0  0  0  0  0  0  0  0
   -9.4620   21.1960  -31.3360 C   0  0  0  0  0  0  0  0  0  0  0  0
   -8.4050   22.0650  -31.0560 C   0  0  0  0  0  0  0  0  0  0  0  0
   -7.1270   21.8530  -31.6200 C   0  0  0  0  0  0  0  0  0  0  0  0
   -2.2737   25.7177  -24.5218 H   0  0  0  0  0  0  0  0  0  0  0  0
   -1.7076   24.9419  -26.0398 H   0  0  0  0  0  0  0  0  0  0  0  0
   -2.1837   26.6739  -26.0398 H   0  0  0  0  0  0  0  0  0  0  0  0
   -4.1323   24.4347  -25.3197 H   0  0  0  0  0  0  0  0  0  0  0  0
   -4.4943   26.1489  -25.7558 H   0  0  0  0  0  0  0  0  0  0  0  0
   -3.1160   25.2330  -27.8940 H   0  0  0  0  0  0  0  0  0  0  0  0
   -4.7910   25.3940  -27.7700 H   0  0  0  0  0  0  0  0  0  0  0  0
   -3.7158   22.9376  -26.6888 H   0  0  0  0  0  0  0  0  0  0  0  0
   -5.2433   23.3026  -27.6357 H   0  0  0  0  0  0  0  0  0  0  0  0
   -2.6035   22.3563  -28.5630 H   0  0  0  0  0  0  0  0  0  0  0  0
   -4.2813   22.2298  -29.2932 H   0  0  0  0  0  0  0  0  0  0  0  0
   -2.1493   24.3020  -29.7200 H   0  0  0  0  0  0  0  0  0  0  0  0
   -3.2483   23.4880  -30.8932 H   0  0  0  0  0  0  0  0  0  0  0  0
   -5.4561   25.9563  -31.0250 H   0  0  0  0  0  0  0  0  0  0  0  0
   -4.5080   24.6308  -31.7864 H   0  0  0  0  0  0  0  0  0  0  0  0
   -6.0174   23.6819  -29.4517 H   0  0  0  0  0  0  0  0  0  0  0  0
   -7.0916   24.4417  -30.6916 H   0  0  0  0  0  0  0  0  0  0  0  0
   -3.9397   23.1293  -31.8199 H   0  0  0  0  0  0  0  0  0  0  0  0
   -5.5732   19.6396  -33.7554 H   0  0  0  0  0  0  0  0  0  0  0  0
   -7.8784   19.0130  -33.4238 H   0  0  0  0  0  0  0  0  0  0  0  0
  -10.1088   19.4238  -32.3949 H   0  0  0  0  0  0  0  0  0  0  0  0
  -10.4501   21.3742  -30.8867 H   0  0  0  0  0  0  0  0  0  0  0  0
   -8.5694   22.9241  -30.3889 H   0  0  0  0  0  0  0  0  0  0  0  0
  1  2  1  0
  2  3  1  0
  3  4  1  0
  4  5  1  0
  5  6  1  0
  6  7  1  0
  7  8  1  0
  8  9  1  0
  9 10  1  0
 10 11  2  0
 11 12  1  0
 12 13  1  0
 12 14  2  0
 14 15  1  0
 15 16  2  0
 16 17  1  0
 17 18  2  0
 18 19  1  0
 19 20  2  0
 20 10  1  0
 20 15  1  0
  1 21  1  0
  1 22  1  0
  1 23  1  0
  2 24  1  0
  2 25  1  0
  3 26  1  0
  3 27  1  0
  4 28  1  0
  4 29  1  0
  5 30  1  0
  5 31  1  0
  6 32  1  0
  6 33  1  0
  8 34  1  0
  8 35  1  0
  9 36  1  0
  9 37  1  0
 11 38  1  0
 14 39  1  0
 16 40  1  0
 17 41  1  0
 18 42  1  0
 19 43  1  0
M  CHG  1   3   1
M  END
>  <UniqueID>  (1) 
1

>  <SMILES>  (1) 
CC[NH2+]CCCOCCc1cc(F)cc2ccccc12

>  <Energy>  (1) 
39.293021613990405

>  <Genealogy>  (1) 
CC[NH2+]CCCOCCc1cc(F)cc2ccccc12 (protonated)
CC[NH2+]CCCOCCc1cc(F)cc2ccccc12 (3D coordinates assigned)
CC[NH2+]CCCOCCc1cc(F)cc2ccccc12 (optimized conformer: 39.293021613990405 kcal/mol)

>  <smiles>  (1) 
CCNCCCOCCc1cc(F)cc2ccccc12

>  <score_type>  (1) 
oracle

>  <origin>  (1) 
adg

>  <m_score__min__energy>  (1) 
-7.3099999999999996

>  <m_primary>  (1) 
energy

$$$$
1:0
     RDKit          3D

 66 69  0  0  0  0  0  0  0  0999 V2000
   -5.7211   25.4207  -31.6600 H   0  0  0  0  0  0  0  0  0  0  0  0
   -4.9900   24.7290  -31.2160 C   0  0  0  0  0  0  0  0  0  0  0  0
   -4.0460   25.2140  -30.3760 N   0  0  0  0  0  0  0  0  0  0  0  0
   -3.1300   24.4190  -29.7810 C   0  0  0  0  0  0  0  0  0  0  0  0
   -2.1970   24.9840  -28.9010 C   0  0  0  0  0  0  0  0  0  0  0  0
   -2.2089   26.0676  -28.7119 H   0  0  0  0  0  0  0  0  0  0  0  0
   -1.2520   24.1770  -28.2630 C   0  0  0  0  0  0  0  0  0  0  0  0
   -0.0980   24.8840  -27.1420 Cl  0  0  0  0  0  0  0  0  0  0  0  0
   -1.2270   22.8050  -28.5100 C   0  0  0  0  0  0  0  0  0  0  0  0
   -0.4823   22.1701  -28.0078 H   0  0  0  0  0  0  0  0  0  0  0  0
   -2.1470   22.2350  -29.3950 C   0  0  0  0  0  0  0  0  0  0  0  0
   -2.1131   21.1534  -29.5925 H   0  0  0  0  0  0  0  0  0  0  0  0
   -3.1220   23.0340  -30.0400 C   0  0  0  0  0  0  0  0  0  0  0  0
   -4.0730   22.4810  -30.9400 C   0  0  0  0  0  0  0  0  0  0  0  0
   -3.9620   21.1950  -31.1800 N   0  0  0  0  0  0  0  0  0  0  0  0
   -3.0620   20.3980  -32.0090 C   0  0  0  0  0  0  0  0  0  0  0  0
   -2.1748   20.9944  -32.2682 H   0  0  0  0  0  0  0  0  0  0  0  0
   -2.7461   19.5007  -31.4567 H   0  0  0  0  0  0  0  0  0  0  0  0
   -3.7970   19.9840  -33.2930 C   0  0  0  0  0  0  0  0  0  0  0  0
   -3.1426   20.1802  -34.1551 H   0  0  0  0  0  0  0  0  0  0  0  0
   -4.0422   18.9147  -33.2127 H   0  0  0  0  0  0  0  0  0  0  0  0
   -5.0580   20.7260  -33.4750 N   0  0  0  0  0  0  0  0  0  0  0  0
   -4.8760   21.6070  -34.0080 H   0  0  0  0  0  0  0  0  0  0  0  0
   -6.0660   19.9280  -34.1900 C   0  0  0  0  0  0  0  0  0  0  0  0
   -6.1246   20.2655  -35.2353 H   0  0  0  0  0  0  0  0  0  0  0  0
   -5.7780   18.8668  -34.1586 H   0  0  0  0  0  0  0  0  0  0  0  0
   -7.4370   20.1010  -33.5210 C   0  0  0  0  0  0  0  0  0  0  0  0
   -7.8982   21.0274  -33.8939 H   0  0  0  0  0  0  0  0  0  0  0  0
   -8.0468   19.2201  -33.7704 H   0  0  0  0  0  0  0  0  0  0  0  0
   -7.3370   20.1790  -32.0550 N   0  0  0  0  0  0  0  0  0  0  0  0
   -6.3240   20.1970  -31.7980 H   0  0  0  0  0  0  0  0  0  0  0  0
   -7.9760   19.0660  -31.3310 C   0  0  0  0  0  0  0  0  0  0  0  0
   -8.1769   19.3905  -30.2993 H   0  0  0  0  0  0  0  0  0  0  0  0
   -8.8987   18.8122  -31.8734 H   0  0  0  0  0  0  0  0  0  0  0  0
   -7.1110   17.7930  -31.2830 C   0  0  0  0  0  0  0  0  0  0  0  0
   -6.8718   17.5586  -30.2352 H   0  0  0  0  0  0  0  0  0  0  0  0
   -7.6739   16.9663  -31.7410 H   0  0  0  0  0  0  0  0  0  0  0  0
   -5.8670   17.9830  -32.0280 N   0  0  0  0  0  0  0  0  0  0  0  0
   -5.5620   18.9640  -32.2210 H   0  0  0  0  0  0  0  0  0  0  0  0
   -5.1580   16.8970  -32.6420 C   0  0  0  0  0  0  0  0  0  0  0  0
   -4.5910   17.0520  -33.8720 N   0  0  0  0  0  0  0  0  0  0  0  0
   -3.9120   16.0470  -34.4870 C   0  0  0  0  0  0  0  0  0  0  0  0
   -3.3820   16.2460  -35.7650 C   0  0  0  0  0  0  0  0  0  0  0  0
   -3.5081   17.2163  -36.2677 H   0  0  0  0  0  0  0  0  0  0  0  0
   -2.6910   15.2110  -36.4050 C   0  0  0  0  0  0  0  0  0  0  0  0
   -2.2881   15.3647  -37.4170 H   0  0  0  0  0  0  0  0  0  0  0  0
   -2.5110   13.9830  -35.7630 C   0  0  0  0  0  0  0  0  0  0  0  0
   -1.9506   13.1794  -36.2633 H   0  0  0  0  0  0  0  0  0  0  0  0
   -3.0410   13.7730  -34.4870 C   0  0  0  0  0  0  0  0  0  0  0  0
   -2.8991   12.8038  -33.9865 H   0  0  0  0  0  0  0  0  0  0  0  0
   -3.7560   14.7990  -33.8410 C   0  0  0  0  0  0  0  0  0  0  0  0
   -4.3350   14.6180  -32.5720 C   0  0  0  0  0  0  0  0  0  0  0  0
   -4.2270   13.5210  -31.9600 O   0  0  0  0  0  0  0  0  0  0  0  0
   -5.0450   15.6670  -31.9790 C   0  0  0  0  0  0  0  0  0  0  0  0
   -5.5140   15.5271  -30.9939 H   0  0  0  0  0  0  0  0  0  0  0  0
   -5.0580   23.3480  -31.5370 C   0  0  0  0  0  0  0  0  0  0  0  0
   -6.1590   22.8120  -32.3290 N   0  0  0  0  0  0  0  0  0  0  0  0
   -5.9120   22.8420  -33.3390 H   0  0  0  0  0  0  0  0  0  0  0  0
   -6.2940   21.8240  -32.0190 H   0  0  0  0  0  0  0  0  0  0  0  0
   -7.4840   23.4540  -32.2000 C   0  0  0  0  0  0  0  0  0  0  0  0
   -7.9538   23.4973  -33.1937 H   0  0  0  0  0  0  0  0  0  0  0  0
   -7.3300   24.4601  -31.7828 H   0  0  0  0  0  0  0  0  0  0  0  0
   -8.4140   22.6900  -31.2480 C   0  0  0  0  0  0  0  0  0  0  0  0
   -8.1391   22.9159  -30.2071 H   0  0  0  0  0  0  0  0  0  0  0  0
   -9.4549   22.9972  -31.4272 H   0  0  0  0  0  0  0  0  0  0  0  0
   -8.3147   21.6093  -31.4272 H   0  0  0  0  0  0  0  0  0  0  0  0
  1  2  1  0
  2  3  1  0
  3  4  1  0
  4  5  2  0
  5  6  1  0
  5  7  1  0
  7  8  1  0
  7  9  2  0
  9 10  1  0
  9 11  1  0
 11 12  1  0
 11 13  2  0
 13 14  1  0
 14 15  2  0
 15 16  1  0
 16 17  1  0
 16 18  1  0
 16 19  1  0
 19 20  1  0
 19 21  1  0
 19 22  1  0
 22 23  1  0
 22 24  1  0
 24 25  1  0
 24 26  1  0
 24 27  1  0
 27 28  1  0
 27 29  1  0
 27 30  1  0
 30 31  1  0
 30 32  1  0
 32 33  1  0
 32 34  1  0
 32 35  1  0
 35 36  1  0
 35 37  1  0
 35 38  1  0
 38 39  1  0
 38 40  1  0
 40 41  1  0
 41 42  1  0
 42 43  2  0
 43 44  1  0
 43 45  1  0
 45 46  1  0
 45 47  2  0
 47 48  1  0
 47 49  1  0
 49 50  1  0
 49 51  2  0
 51 52  1  0
 52 53  2  0
 52 54  1  0
 54 55  1  0
 14 56  1  0
 56 57  1  0
 57 58  1  0
 57 59  1  0
 57 60  1  0
 60 61  1  0
 60 62  1  0
 60 63  1  0
 63 64  1  0
 63 65  1  0
 63 66  1  0
 56  2  2  0
 13  4  1  0
 54 40  2  0
 51 42  1  0
M  CHG  3   3  -1  41  -1  57   1
M  END
>  <UniqueID>  (2) 
2

>  <SMILES>  (2) 
CC[NH2+]c1c[n-]c2cc(Cl)ccc2/c1=N/CCNCCNCCNc1cc(=O)c2ccccc2[n-]1

>  <Energy>  (2) 
88.8606933623904

>  <Genealogy>  (2) 
CC[NH2+]c1c[n-]c2cc(Cl)ccc2c1=NCCNCCNCCNc1cc(=O)c2ccccc2[n-]1 (protonated)
CC[NH2+]c1c[n-]c2cc(Cl)ccc2/c1=N/CCNCCNCCNc1cc(=O)c2ccccc2[n-]1 (cis-trans isomerization)
CC[NH2+]c1c[n-]c2cc(Cl)ccc2/c1=N/CCNCCNCCNc1cc(=O)c2ccccc2[n-]1 (3D coordinates assigned)
CC[NH2+]c1c[n-]c2cc(Cl)ccc2/c1=N/CCNCCNCCNc1cc(=O)c2ccccc2[n-]1 (optimized conformer: 88.8606933623904 kcal/mol)

>  <smiles>  (2) 
CCNc1c[nH]c2cc(Cl)ccc2c1=NCCNCCNCCNc1cc(=O)c2ccccc2[nH]1

>  <score_type>  (2) 
oracle

>  <origin>  (2) 
adg

>  <m_score__min__energy>  (2) 
-9.9000000000000004

>  <m_primary>  (2) 
energy

$$$$
2:0
     RDKit          3D

 47 50  0  0  0  0  0  0  0  0999 V2000
   -6.2130   24.9460  -29.7140 C   0  0  0  0  0  0  0  0  0  0  0  0
   -5.3390   25.6150  -30.7650 C   0  0  0  0  0  0  0  0  0  0  0  0
   -3.9860   25.2950  -30.5150 O   0  0  0  0  0  0  0  0  0  0  0  0
   -3.8920   24.1970  -29.6270 C   0  0  0  0  0  0  0  0  0  0  0  0
   -2.7990   23.2320  -30.0930 C   0  0  0  0  0  0  0  0  0  0  0  0
   -2.9860   22.9050  -31.4570 O   0  0  0  0  0  0  0  0  0  0  0  0
   -3.9440   21.8760  -31.5960 C   0  0  0  0  0  0  0  0  0  0  0  0
   -4.0280   21.4560  -33.0650 C   0  0  0  0  0  0  0  0  0  0  0  0
   -4.8080   20.2200  -33.2130 N   0  0  0  0  0  0  0  0  0  0  0  0
   -4.2890   19.0320  -33.6270 C   0  0  0  0  0  0  0  0  0  0  0  0
   -2.9910   18.7380  -34.0590 C   0  0  0  0  0  0  0  0  0  0  0  0
   -2.7050   17.4080  -34.4170 C   0  0  0  0  0  0  0  0  0  0  0  0
   -3.7130   16.4230  -34.3270 C   0  0  0  0  0  0  0  0  0  0  0  0
   -4.9660   16.7520  -33.8990 N   0  0  0  0  0  0  0  0  0  0  0  0
   -5.2280   18.0400  -33.5650 C   0  0  0  0  0  0  0  0  0  0  0  0
   -6.3840   18.6030  -33.1060 C   0  0  0  0  0  0  0  0  0  0  0  0
   -7.6040   18.0060  -32.8260 C   0  0  0  0  0  0  0  0  0  0  0  0
   -8.6270   18.8100  -32.3240 C   0  0  0  0  0  0  0  0  0  0  0  0
   -8.4320   20.1960  -32.1410 C   0  0  0  0  0  0  0  0  0  0  0  0
   -9.4960   20.9750  -31.6590 C   0  0  0  0  0  0  0  0  0  0  0  0
   -9.3520   22.3520  -31.5120 C   0  0  0  0  0  0  0  0  0  0  0  0
   -8.1550   22.9690  -31.8620 C   0  0  0  0  0  0  0  0  0  0  0  0
   -7.0800   22.2150  -32.3400 C   0  0  0  0  0  0  0  0  0  0  0  0
   -7.1760   20.8110  -32.4590 C   0  0  0  0  0  0  0  0  0  0  0  0
   -6.1260   19.9560  -32.9150 C   0  0  0  0  0  0  0  0  0  0  0  0
   -5.8548   25.2201  -28.7107 H   0  0  0  0  0  0  0  0  0  0  0  0
   -7.2539   25.2803  -29.8358 H   0  0  0  0  0  0  0  0  0  0  0  0
   -6.1620   23.8540  -29.8358 H   0  0  0  0  0  0  0  0  0  0  0  0
   -5.6239   25.2544  -31.7644 H   0  0  0  0  0  0  0  0  0  0  0  0
   -5.4756   26.7056  -30.7200 H   0  0  0  0  0  0  0  0  0  0  0  0
   -3.6469   24.5644  -28.6196 H   0  0  0  0  0  0  0  0  0  0  0  0
   -4.8554   23.6664  -29.6092 H   0  0  0  0  0  0  0  0  0  0  0  0
   -1.8154   23.7075  -29.9647 H   0  0  0  0  0  0  0  0  0  0  0  0
   -2.8521   22.3120  -29.4924 H   0  0  0  0  0  0  0  0  0  0  0  0
   -3.6463   21.0121  -30.9836 H   0  0  0  0  0  0  0  0  0  0  0  0
   -4.9263   22.2403  -31.2609 H   0  0  0  0  0  0  0  0  0  0  0  0
   -4.5114   22.2582  -33.6419 H   0  0  0  0  0  0  0  0  0  0  0  0
   -3.0090   21.2753  -33.4377 H   0  0  0  0  0  0  0  0  0  0  0  0
   -2.2201   19.5206  -34.1167 H   0  0  0  0  0  0  0  0  0  0  0  0
   -1.6981   17.1357  -34.7664 H   0  0  0  0  0  0  0  0  0  0  0  0
   -3.4862   15.3829  -34.6040 H   0  0  0  0  0  0  0  0  0  0  0  0
   -7.7602   16.9303  -32.9948 H   0  0  0  0  0  0  0  0  0  0  0  0
   -9.5970   18.3589  -32.0677 H   0  0  0  0  0  0  0  0  0  0  0  0
  -10.4497   20.4942  -31.3958 H   0  0  0  0  0  0  0  0  0  0  0  0
  -10.1854   22.9527  -31.1188 H   0  0  0  0  0  0  0  0  0  0  0  0
   -8.0541   24.0597  -31.7616 H   0  0  0  0  0  0  0  0  0  0  0  0
   -6.1468   22.7216  -32.6273 H   0  0  0  0  0  0  0  0  0  0  0  0
  1  2  1  0
  2  3  1  0
  3  4  1  0
  4  5  1  0
  5  6  1  0
  6  7  1  0
  7  8  1  0
  8  9  1  0
  9 10  1  0
 10 11  2  0
 11 12  1  0
 12 13  2  0
 13 14  1  0
 14 15  2  0
 15 16  1  0
 16 17  2  0
 17 18  1  0
 18 19  2  0
 19 20  1  0
 20 21  2  0
 21 22  1  0
 22 23  2  0
 23 24  1  0
 24 25  2  0
 25  9  1  0
 15 10  1  0
 25 16  1  0
 24 19  1  0
  1 26  1  0
  1 27  1  0
  1 28  1  0
  2 29  1  0
  2 30  1  0
  4 31  1  0
  4 32  1  0
  5 33  1  0
  5 34  1  0
  7 35  1  0
  7 36  1  0
  8 37  1  0
  8 38  1  0
 11 39  1  0
 12 40  1  0
 13 41  1  0
 17 42  1  0
 18 43  1  0
 20 44  1  0
 21 45  1  0
 22 46  1  0
 23 47  1  0
M  END
>  <UniqueID>  (3) 
3

>  <SMILES>  (3) 
CCOCCOCCn1c2cccnc2c2ccc3ccccc3c21

>  <Energy>  (3) 
103.97418712094507

>  <Genealogy>  (3) 
CCOCCOCCn1c2cccnc2c2ccc3ccccc3c21 (3D coordinates assigned)
CCOCCOCCn1c2cccnc2c2ccc3ccccc3c21 (optimized conformer: 103.97418712094507 kcal/mol)

>  <smiles>  (3) 
CCOCCOCCn1c2cccnc2c2ccc3ccccc3c21

>  <score_type>  (3) 
oracle

>  <origin>  (3) 
adg

>  <m_score__min__energy>  (3) 
-9.4000000000000004

>  <m_primary>  (3) 
energy

$$$$
3:0
     RDKit          3D

 59 62  0  0  0  0  0  0  0  0999 V2000
    0.3340   19.2290  -29.6500 C   0  0  0  0  0  0  0  0  0  0  0  0
    0.6290   18.7040  -31.0570 C   0  0  0  0  0  0  0  0  0  0  0  0
   -0.3400   19.1970  -32.0520 N   0  0  0  0  0  0  0  0  0  0  0  0
    0.1410   20.3850  -32.7950 C   0  0  0  0  0  0  0  0  0  0  0  0
   -1.0050   21.1730  -33.4670 C   0  0  0  0  0  0  0  0  0  0  0  0
   -1.9770   20.2730  -34.2440 C   0  0  0  0  0  0  0  0  0  0  0  0
   -2.4690   19.1820  -33.3920 N   0  0  0  0  0  0  0  0  0  0  0  0
   -3.5320   18.4000  -34.0400 C   0  0  0  0  0  0  0  0  0  0  0  0
   -4.9390   18.8690  -33.6340 C   0  0  0  0  0  0  0  0  0  0  0  0
   -4.9690   19.2330  -32.2190 N   0  0  0  0  0  0  0  0  0  0  0  0
   -5.4750   20.5020  -31.7790 C   0  0  0  0  0  0  0  0  0  0  0  0
   -4.6220   21.4530  -31.2320 C   0  0  0  0  0  0  0  0  0  0  0  0
   -5.1020   22.6990  -30.8440 C   0  0  0  0  0  0  0  0  0  0  0  0
   -6.4170   23.0590  -30.9650 N   0  0  0  0  0  0  0  0  0  0  0  0
   -6.8580   24.4050  -30.5600 C   0  0  0  0  0  0  0  0  0  0  0  0
   -7.3100   22.1200  -31.4570 C   0  0  0  0  0  0  0  0  0  0  0  0
   -8.6950   22.3990  -31.5520 C   0  0  0  0  0  0  0  0  0  0  0  0
   -9.5840   21.4520  -32.0640 C   0  0  0  0  0  0  0  0  0  0  0  0
   -9.1240   20.2100  -32.4870 C   0  0  0  0  0  0  0  0  0  0  0  0
   -7.7690   19.8950  -32.3960 C   0  0  0  0  0  0  0  0  0  0  0  0
   -6.8480   20.8260  -31.8790 C   0  0  0  0  0  0  0  0  0  0  0  0
   -3.9690   23.4110  -30.2520 C   0  0  0  0  0  0  0  0  0  0  0  0
   -3.7570   24.5470  -29.6360 O   0  0  0  0  0  0  0  0  0  0  0  0
   -2.4830   24.5350  -29.2590 C   0  0  0  0  0  0  0  0  0  0  0  0
   -1.8690   23.3430  -29.6580 C   0  0  0  0  0  0  0  0  0  0  0  0
   -0.4970   22.8620  -29.3200 C   0  0  0  0  0  0  0  0  0  0  0  0
   -2.8680   22.6510  -30.2910 C   0  0  0  0  0  0  0  0  0  0  0  0
   -3.1880   21.3640  -30.8780 C   0  0  0  0  0  0  0  0  0  0  0  0
   -2.4280   20.3660  -30.9700 O   0  0  0  0  0  0  0  0  0  0  0  0
    0.7304   18.5236  -28.9048 H   0  0  0  0  0  0  0  0  0  0  0  0
    0.8128   20.2104  -29.5169 H   0  0  0  0  0  0  0  0  0  0  0  0
   -0.7532   19.3304  -29.5169 H   0  0  0  0  0  0  0  0  0  0  0  0
    1.6369   19.0308  -31.3525 H   0  0  0  0  0  0  0  0  0  0  0  0
    0.5547   17.6069  -31.0295 H   0  0  0  0  0  0  0  0  0  0  0  0
   -0.4980   18.4230  -32.7410 H   0  0  0  0  0  0  0  0  0  0  0  0
   -1.2580   19.3700  -31.5810 H   0  0  0  0  0  0  0  0  0  0  0  0
    0.6619   21.0522  -32.0925 H   0  0  0  0  0  0  0  0  0  0  0  0
    0.8110   20.0294  -33.5916 H   0  0  0  0  0  0  0  0  0  0  0  0
   -1.5683   21.7061  -32.6869 H   0  0  0  0  0  0  0  0  0  0  0  0
   -0.5486   21.8654  -34.1897 H   0  0  0  0  0  0  0  0  0  0  0  0
   -2.8306   20.8756  -34.5877 H   0  0  0  0  0  0  0  0  0  0  0  0
   -1.4458   19.8382  -35.1035 H   0  0  0  0  0  0  0  0  0  0  0  0
   -2.8300   19.5840  -32.4950 H   0  0  0  0  0  0  0  0  0  0  0  0
   -3.4281   18.4993  -35.1306 H   0  0  0  0  0  0  0  0  0  0  0  0
   -3.4220   17.3543  -33.7167 H   0  0  0  0  0  0  0  0  0  0  0  0
   -5.2173   19.7446  -34.2389 H   0  0  0  0  0  0  0  0  0  0  0  0
   -5.6507   18.0480  -33.8052 H   0  0  0  0  0  0  0  0  0  0  0  0
   -4.7420   18.5050  -31.5050 H   0  0  0  0  0  0  0  0  0  0  0  0
   -6.8790   24.4691  -29.4621 H   0  0  0  0  0  0  0  0  0  0  0  0
   -6.1586   25.1551  -30.9578 H   0  0  0  0  0  0  0  0  0  0  0  0
   -7.8657   24.5959  -30.9578 H   0  0  0  0  0  0  0  0  0  0  0  0
   -9.0758   23.3754  -31.2178 H   0  0  0  0  0  0  0  0  0  0  0  0
  -10.6557   21.6901  -32.1332 H   0  0  0  0  0  0  0  0  0  0  0  0
   -9.8317   19.4733  -32.8949 H   0  0  0  0  0  0  0  0  0  0  0  0
   -7.4157   18.9088  -32.7316 H   0  0  0  0  0  0  0  0  0  0  0  0
   -1.9823   25.3468  -28.7111 H   0  0  0  0  0  0  0  0  0  0  0  0
   -0.3816   22.8215  -28.2268 H   0  0  0  0  0  0  0  0  0  0  0  0
   -0.3463   21.8574  -29.7420 H   0  0  0  0  0  0  0  0  0  0  0  0
    0.2480   23.5526  -29.7420 H   0  0  0  0  0  0  0  0  0  0  0  0
  1  2  1  0
  2  3  1  0
  3  4  1  0
  4  5  1  0
  5  6  1  0
  6  7  1  0
  7  8  1  0
  8  9  1  0
  9 10  1  0
 10 11  1  0
 11 12  2  0
 12 13  1  0
 13 14  2  0
 14 15  1  0
 14 16  1  0
 16 17  2  0
 17 18  1  0
 18 19  2  0
 19 20  1  0
 20 21  2  0
 13 22  1  0
 22 23  1  0
 23 24  1  0
 24 25  2  0
 25 26  1  0
 25 27  1  0
 27 28  1  0
 28 29  2  0
 21 11  1  0
 27 22  2  0
 28 12  1  0
 21 16  1  0
  1 30  1  0
  1 31  1  0
  1 32  1  0
  2 33  1  0
  2 34  1  0
  3 35  1  0
  3 36  1  0
  4 37  1  0
  4 38  1  0
  5 39  1  0
  5 40  1  0
  6 41  1  0
  6 42  1  0
  7 43  1  0
  8 44  1  0
  8 45  1  0
  9 46  1  0
  9 47  1  0
 10 48  1  0
 15 49  1  0
 15 50  1  0
 15 51  1  0
 17 52  1  0
 18 53  1  0
 19 54  1  0
 20 55  1  0
 24 56  1  0
 26 57  1  0
 26 58  1  0
 26 59  1  0
M  CHG  2   3   1  14   1
M  END
>  <UniqueID>  (4) 
4

>  <SMILES>  (4) 
CC[NH2+]CCCNCCNc1c2c([n+](C)c3ccccc13)-c1occ(C)c1C2=O

>  <Energy>  (4) 
153.71568819423348

>  <Genealogy>  (4) 
CC[NH2+]CCCNCCNc1c2c([n+](C)c3ccccc13)-c1occ(C)c1C2=O (protonated)
CC[NH2+]CCCNCCNc1c2c([n+](C)c3ccccc13)-c1occ(C)c1C2=O (3D coordinates assigned)
CC[NH2+]CCCNCCNc1c2c([n+](C)c3ccccc13)-c1occ(C)c1C2=O (nonaromatic ring conformer: 153.71568819423348 kcal/mol)

>  <smiles>  (4) 
CCNCCCNCCNc1c2c([n+](C)c3ccccc13)-c1occ(C)c1C2=O

>  <score_type>  (4) 
oracle

>  <origin>  (4) 
adg

>  <m_score__min__energy>  (4) 
-8.0999999999999996

>  <m_primary>  (4) 
energy

$$$$
4:0
     RDKit          3D

 46 49  0  0  0  0  0  0  0  0999 V2000
   -0.1380   24.8410  -26.7120 C   0  0  0  0  0  0  0  0  0  0  0  0
   -1.3330   24.1990  -27.2510 N   0  0  0  0  0  0  0  0  0  0  0  0
   -2.3580   24.8150  -27.8830 C   0  0  0  0  0  0  0  0  0  0  0  0
   -3.3230   23.8830  -28.2600 C   0  0  0  0  0  0  0  0  0  0  0  0
   -4.6240   24.1660  -28.9660 C   0  0  0  0  0  0  0  0  0  0  0  0
   -4.4800   24.3230  -30.4300 N   0  0  0  0  0  0  0  0  0  0  0  0
   -3.5670   23.3610  -31.0890 C   0  0  0  0  0  0  0  0  0  0  0  0
   -4.2800   22.0730  -31.5490 C   0  0  0  0  0  0  0  0  0  0  0  0
   -5.6590   22.3430  -31.9680 N   0  0  0  0  0  0  0  0  0  0  0  0
   -6.6490   21.2900  -31.9380 C   0  0  0  0  0  0  0  0  0  0  0  0
   -8.0180   21.6030  -31.8330 C   0  0  0  0  0  0  0  0  0  0  0  0
   -8.9800   20.5890  -31.8370 C   0  0  0  0  0  0  0  0  0  0  0  0
   -8.5910   19.2530  -31.9490 C   0  0  0  0  0  0  0  0  0  0  0  0
   -9.5260   18.2720  -31.9580 F   0  0  0  0  0  0  0  0  0  0  0  0
   -7.2360   18.9280  -32.0580 C   0  0  0  0  0  0  0  0  0  0  0  0
   -6.2710   19.9380  -32.0570 C   0  0  0  0  0  0  0  0  0  0  0  0
   -6.0010   23.7150  -32.3450 C   0  0  0  0  0  0  0  0  0  0  0  0
   -5.7360   24.6450  -31.1550 C   0  0  0  0  0  0  0  0  0  0  0  0
   -2.8310   22.6530  -27.8560 C   0  0  0  0  0  0  0  0  0  0  0  0
   -3.3590   21.3650  -27.9720 C   0  0  0  0  0  0  0  0  0  0  0  0
   -2.6180   20.2990  -27.4320 C   0  0  0  0  0  0  0  0  0  0  0  0
   -1.3810   20.5360  -26.7970 C   0  0  0  0  0  0  0  0  0  0  0  0
   -0.8700   21.8420  -26.6950 C   0  0  0  0  0  0  0  0  0  0  0  0
   -1.6260   22.8840  -27.2380 C   0  0  0  0  0  0  0  0  0  0  0  0
   -0.1752   24.8210  -25.6128 H   0  0  0  0  0  0  0  0  0  0  0  0
    0.7559   24.3017  -27.0585 H   0  0  0  0  0  0  0  0  0  0  0  0
   -0.0942   25.8841  -27.0585 H   0  0  0  0  0  0  0  0  0  0  0  0
   -2.4209   25.8968  -28.0723 H   0  0  0  0  0  0  0  0  0  0  0  0
   -5.3140   23.3317  -28.7717 H   0  0  0  0  0  0  0  0  0  0  0  0
   -5.0031   25.1214  -28.5743 H   0  0  0  0  0  0  0  0  0  0  0  0
   -3.1201   23.8477  -31.9685 H   0  0  0  0  0  0  0  0  0  0  0  0
   -2.8058   23.0702  -30.3501 H   0  0  0  0  0  0  0  0  0  0  0  0
   -3.7269   21.6413  -32.3962 H   0  0  0  0  0  0  0  0  0  0  0  0
   -4.3075   21.3721  -30.7017 H   0  0  0  0  0  0  0  0  0  0  0  0
   -8.3327   22.6535  -31.7472 H   0  0  0  0  0  0  0  0  0  0  0  0
  -10.0465   20.8444  -31.7517 H   0  0  0  0  0  0  0  0  0  0  0  0
   -6.9290   17.8753  -32.1447 H   0  0  0  0  0  0  0  0  0  0  0  0
   -5.2068   19.6755  -32.1499 H   0  0  0  0  0  0  0  0  0  0  0  0
   -5.3833   24.0265  -33.2002 H   0  0  0  0  0  0  0  0  0  0  0  0
   -7.0632   23.7675  -32.6261 H   0  0  0  0  0  0  0  0  0  0  0  0
   -5.6703   25.6783  -31.5265 H   0  0  0  0  0  0  0  0  0  0  0  0
   -6.5663   24.5134  -30.4456 H   0  0  0  0  0  0  0  0  0  0  0  0
   -4.3241   21.1902  -28.4701 H   0  0  0  0  0  0  0  0  0  0  0  0
   -3.0060   19.2723  -27.5053 H   0  0  0  0  0  0  0  0  0  0  0  0
   -0.8118   19.6929  -26.3785 H   0  0  0  0  0  0  0  0  0  0  0  0
    0.0944   22.0371  -26.2033 H   0  0  0  0  0  0  0  0  0  0  0  0
  1  2  1  0
  2  3  1  0
  3  4  2  0
  4  5  1  0
  5  6  1  0
  6  7  1  0
  7  8  1  0
  8  9  1  0
  9 10  1  0
 10 11  2  0
 11 12  1  0
 12 13  2  0
 13 14  1  0
 13 15  1  0
 15 16  2  0
  9 17  1  0
 17 18  1  0
  4 19  1  0
 19 20  2  0
 20 21  1  0
 21 22  2  0
 22 23  1  0
 23 24  2  0
 24  2  1  0
 18  6  1  0
 24 19  1  0
 16 10  1  0
  1 25  1  0
  1 26  1  0
  1 27  1  0
  3 28  1  0
  5 29  1  0
  5 30  1  0
  7 31  1  0
  7 32  1  0
  8 33  1  0
  8 34  1  0
 11 35  1  0
 12 36  1  0
 15 37  1  0
 16 38  1  0
 17 39  1  0
 17 40  1  0
 18 41  1  0
 18 42  1  0
 20 43  1  0
 21 44  1  0
 22 45  1  0
 23 46  1  0
M  END
>  <UniqueID>  (5) 
5

>  <SMILES>  (5) 
Cn1cc(CN2CCN(c3ccc(F)cc3)CC2)c2ccccc21

>  <Energy>  (5) 
93.48216089883802

>  <Genealogy>  (5) 
Cn1cc(CN2CCN(c3ccc(F)cc3)CC2)c2ccccc21 (3D coordinates assigned)
Cn1cc(CN2CCN(c3ccc(F)cc3)CC2)c2ccccc21 (nonaromatic ring conformer: 93.48216089883802 kcal/mol)

>  <smiles>  (5) 
Cn1cc(CN2CCN(c3ccc(F)cc3)CC2)c2ccccc21

>  <score_type>  (5) 
oracle

>  <origin>  (5) 
adg

>  <m_score__min__energy>  (5) 
-7.7999999999999998

>  <m_primary>  (5) 
energy

$$$$
5:0
     RDKit          3D

 78 80  0  0  0  0  0  0  0  0999 V2000
   -4.2610   25.1970  -30.4680 C   0  0  0  0  0  0  0  0  0  0  0  0
   -5.4380   24.4390  -29.8480 C   0  0  0  0  0  0  0  0  0  0  0  0
   -6.5660   25.4090  -29.4830 C   0  0  0  0  0  0  0  0  0  0  0  0
   -4.9890   23.7100  -28.6570 N   0  0  0  0  0  0  0  0  0  0  0  0
   -4.0450   22.6310  -28.7330 C   0  0  0  0  0  0  0  0  0  0  0  0
   -3.6920   22.1680  -29.8520 O   0  0  0  0  0  0  0  0  0  0  0  0
   -3.4490   22.0600  -27.4750 C   0  0  0  0  0  0  0  0  0  0  0  0
   -2.4420   21.0240  -27.7610 N   0  0  0  0  0  0  0  0  0  0  0  0
   -2.7650   19.7540  -27.0970 C   0  0  0  0  0  0  0  0  0  0  0  0
   -1.5370   18.8340  -27.0680 C   0  0  0  0  0  0  0  0  0  0  0  0
   -0.2280   19.5620  -27.4000 C   0  0  0  0  0  0  0  0  0  0  0  0
   -0.2980   20.1540  -28.7470 N   0  0  0  0  0  0  0  0  0  0  0  0
    0.7380   19.6120  -29.6380 C   0  0  0  0  0  0  0  0  0  0  0  0
    0.2750   19.6310  -31.1020 C   0  0  0  0  0  0  0  0  0  0  0  0
   -1.2460   19.4080  -31.2330 C   0  0  0  0  0  0  0  0  0  0  0  0
   -2.0230   20.6210  -30.9310 N   0  0  0  0  0  0  0  0  0  0  0  0
   -1.6830   21.7390  -31.8200 C   0  0  0  0  0  0  0  0  0  0  0  0
   -2.0210   21.3680  -33.2660 C   0  0  0  0  0  0  0  0  0  0  0  0
   -3.5240   21.4870  -33.5350 C   0  0  0  0  0  0  0  0  0  0  0  0
   -4.2920   21.1840  -32.3270 N   0  0  0  0  0  0  0  0  0  0  0  0
   -5.5370   20.4640  -32.3870 C   0  0  0  0  0  0  0  0  0  0  0  0
   -5.5420   19.0960  -32.7000 C   0  0  0  0  0  0  0  0  0  0  0  0
   -4.3510   18.4330  -33.0650 C   0  0  0  0  0  0  0  0  0  0  0  0
   -4.3660   17.0830  -33.4080 C   0  0  0  0  0  0  0  0  0  0  0  0
   -5.5630   16.3760  -33.4060 C   0  0  0  0  0  0  0  0  0  0  0  0
   -6.7500   17.0080  -33.0350 C   0  0  0  0  0  0  0  0  0  0  0  0
   -6.7620   18.3700  -32.6380 C   0  0  0  0  0  0  0  0  0  0  0  0
   -7.9180   18.9930  -32.2090 N   0  0  0  0  0  0  0  0  0  0  0  0
   -9.1060   18.1880  -31.8490 C   0  0  0  0  0  0  0  0  0  0  0  0
   -7.9570   20.3710  -32.0950 C   0  0  0  0  0  0  0  0  0  0  0  0
   -9.1790   21.0710  -31.9300 C   0  0  0  0  0  0  0  0  0  0  0  0
   -9.2010   22.4590  -31.7930 C   0  0  0  0  0  0  0  0  0  0  0  0
   -8.0180   23.1860  -31.8390 C   0  0  0  0  0  0  0  0  0  0  0  0
   -6.8040   22.5300  -32.0310 C   0  0  0  0  0  0  0  0  0  0  0  0
   -6.7560   21.1260  -32.1600 C   0  0  0  0  0  0  0  0  0  0  0  0
   -3.6261   25.6059  -29.6682 H   0  0  0  0  0  0  0  0  0  0  0  0
   -3.6694   24.5097  -31.0906 H   0  0  0  0  0  0  0  0  0  0  0  0
   -4.6420   26.0199  -31.0906 H   0  0  0  0  0  0  0  0  0  0  0  0
   -5.8242   23.7187  -30.5843 H   0  0  0  0  0  0  0  0  0  0  0  0
   -6.6486   25.4801  -28.3884 H   0  0  0  0  0  0  0  0  0  0  0  0
   -6.3441   26.4027  -29.8992 H   0  0  0  0  0  0  0  0  0  0  0  0
   -7.5153   25.0408  -29.8992 H   0  0  0  0  0  0  0  0  0  0  0  0
   -5.3070   24.0260  -27.7110 H   0  0  0  0  0  0  0  0  0  0  0  0
   -2.9711   22.8726  -26.9081 H   0  0  0  0  0  0  0  0  0  0  0  0
   -4.2602   21.5940  -26.8965 H   0  0  0  0  0  0  0  0  0  0  0  0
   -2.4040   20.8640  -28.7950 H   0  0  0  0  0  0  0  0  0  0  0  0
   -3.0893   19.9571  -26.0657 H   0  0  0  0  0  0  0  0  0  0  0  0
   -3.5697   19.2550  -27.6568 H   0  0  0  0  0  0  0  0  0  0  0  0
   -1.4496   18.3993  -26.0613 H   0  0  0  0  0  0  0  0  0  0  0  0
   -1.6873   18.0641  -27.8391 H   0  0  0  0  0  0  0  0  0  0  0  0
   -0.0594   20.3597  -26.6616 H   0  0  0  0  0  0  0  0  0  0  0  0
    0.6003   18.8388  -27.3703 H   0  0  0  0  0  0  0  0  0  0  0  0
   -1.2280   19.9040  -29.1560 H   0  0  0  0  0  0  0  0  0  0  0  0
    1.6490   20.2210  -29.5416 H   0  0  0  0  0  0  0  0  0  0  0  0
    0.9367   18.5696  -29.3484 H   0  0  0  0  0  0  0  0  0  0  0  0
    0.5296   20.6066  -31.5418 H   0  0  0  0  0  0  0  0  0  0  0  0
    0.7841   18.8105  -31.6288 H   0  0  0  0  0  0  0  0  0  0  0  0
   -1.4688   19.0941  -32.2635 H   0  0  0  0  0  0  0  0  0  0  0  0
   -1.5342   18.6370  -30.5033 H   0  0  0  0  0  0  0  0  0  0  0  0
   -1.8420   20.9050  -29.9390 H   0  0  0  0  0  0  0  0  0  0  0  0
   -2.2596   22.6285  -31.5262 H   0  0  0  0  0  0  0  0  0  0  0  0
   -0.6072   21.9540  -31.7405 H   0  0  0  0  0  0  0  0  0  0  0  0
   -1.4810   22.0443  -33.9449 H   0  0  0  0  0  0  0  0  0  0  0  0
   -1.7199   20.3237  -33.4356 H   0  0  0  0  0  0  0  0  0  0  0  0
   -3.7524   22.5127  -33.8601 H   0  0  0  0  0  0  0  0  0  0  0  0
   -3.8006   20.7671  -34.3194 H   0  0  0  0  0  0  0  0  0  0  0  0
   -3.9760   21.5710  -31.4100 H   0  0  0  0  0  0  0  0  0  0  0  0
   -3.4013   18.9878  -33.0788 H   0  0  0  0  0  0  0  0  0  0  0  0
   -3.4290   16.5754  -33.6809 H   0  0  0  0  0  0  0  0  0  0  0  0
   -5.5742   15.3154  -33.6977 H   0  0  0  0  0  0  0  0  0  0  0  0
   -7.6924   16.4409  -33.0505 H   0  0  0  0  0  0  0  0  0  0  0  0
   -9.1915   18.1301  -30.7539 H   0  0  0  0  0  0  0  0  0  0  0  0
  -10.0087   18.6612  -32.2627 H   0  0  0  0  0  0  0  0  0  0  0  0
   -9.0011   17.1742  -32.2627 H   0  0  0  0  0  0  0  0  0  0  0  0
  -10.1252   20.5103  -31.9097 H   0  0  0  0  0  0  0  0  0  0  0  0
  -10.1589   22.9800  -31.6480 H   0  0  0  0  0  0  0  0  0  0  0  0
   -8.0399   24.2797  -31.7238 H   0  0  0  0  0  0  0  0  0  0  0  0
   -5.8727   23.1132  -32.0826 H   0  0  0  0  0  0  0  0  0  0  0  0
  1  2  1  0
  2  3  1  0
  2  4  1  0
  4  5  1  0
  5  6  2  0
  5  7  1  0
  7  8  1  0
  8  9  1  0
  9 10  1  0
 10 11  1  0
 11 12  1  0
 12 13  1  0
 13 14  1  0
 14 15  1  0
 15 16  1  0
 16 17  1  0
 17 18  1  0
 18 19  1  0
 19 20  1  0
 20 21  1  0
 21 22  2  0
 22 23  1  0
 23 24  2  0
 24 25  1  0
 25 26  2  0
 26 27  1  0
 27 28  2  0
 28 29  1  0
 28 30  1  0
 30 31  2  0
 31 32  1  0
 32 33  2  0
 33 34  1  0
 34 35  2  0
 35 21  1  0
 27 22  1  0
 35 30  1  0
  1 36  1  0
  1 37  1  0
  1 38  1  0
  2 39  1  0
  3 40  1  0
  3 41  1  0
  3 42  1  0
  4 43  1  0
  7 44  1  0
  7 45  1  0
  8 46  1  0
  9 47  1  0
  9 48  1  0
 10 49  1  0
 10 50  1  0
 11 51  1  0
 11 52  1  0
 12 53  1  0
 13 54  1  0
 13 55  1  0
 14 56  1  0
 14 57  1  0
 15 58  1  0
 15 59  1  0
 16 60  1  0
 17 61  1  0
 17 62  1  0
 18 63  1  0
 18 64  1  0
 19 65  1  0
 19 66  1  0
 20 67  1  0
 23 68  1  0
 24 69  1  0
 25 70  1  0
 26 71  1  0
 29 72  1  0
 29 73  1  0
 29 74  1  0
 31 75  1  0
 32 76  1  0
 33 77  1  0
 34 78  1  0
M  CHG  1  28   1
M  END
>  <UniqueID>  (6) 
6

>  <SMILES>  (6) 
CC(C)NC(=O)CNCCCNCCCNCCCNc1c2ccccc2[n+](C)c2ccccc12

>  <Energy>  (6) 
86.21625201219173

>  <Genealogy>  (6) 
CC(C)NC(=O)CNCCCNCCCNCCCNc1c2ccccc2[n+](C)c2ccccc12 (3D coordinates assigned)
CC(C)NC(=O)CNCCCNCCCNCCCNc1c2ccccc2[n+](C)c2ccccc12 (optimized conformer: 86.21625201219173 kcal/mol)

>  <smiles>  (6) 
CC(C)NC(=O)CNCCCNCCCNCCCNc1c2ccccc2[n+](C)c2ccccc12

>  <score_type>  (6) 
oracle

>  <origin>  (6) 
adg

>  <m_score__min__energy>  (6) 
-8.9700000000000006

>  <m_primary>  (6) 
energy

$$$$
6:0
     RDKit          3D

 46 48  0  0  0  0  0  0  0  0999 V2000
   -2.1060   21.9530  -30.2150 C   0  0  0  0  0  0  0  0  0  0  0  0
   -3.1800   22.3300  -31.1340 N   0  0  0  0  0  0  0  0  0  0  0  0
   -4.0500   23.3510  -31.0060 C   0  0  0  0  0  0  0  0  0  0  0  0
   -4.0960   24.5040  -29.6280 S   0  0  0  0  0  0  0  0  0  0  0  0
   -5.5210   25.4710  -30.2550 C   0  0  0  0  0  0  0  0  0  0  0  0
   -6.8600   24.9310  -29.7350 C   0  0  0  0  0  0  0  0  0  0  0  0
   -7.1630   23.4830  -30.1440 C   0  0  0  0  0  0  0  0  0  0  0  0
   -7.4060   23.3780  -31.5900 N   0  0  0  0  0  0  0  0  0  0  0  0
   -8.6250   22.6020  -31.8460 C   0  0  0  0  0  0  0  0  0  0  0  0
   -8.2650   21.1720  -32.1440 C   0  0  0  0  0  0  0  0  0  0  0  0
   -7.0760   20.8710  -32.8280 C   0  0  0  0  0  0  0  0  0  0  0  0
   -6.7210   19.5410  -33.0700 C   0  0  0  0  0  0  0  0  0  0  0  0
   -7.5430   18.5030  -32.6220 C   0  0  0  0  0  0  0  0  0  0  0  0
   -8.7200   18.7940  -31.9270 C   0  0  0  0  0  0  0  0  0  0  0  0
   -9.5130   17.7860  -31.4880 F   0  0  0  0  0  0  0  0  0  0  0  0
   -9.0780   20.1230  -31.6820 C   0  0  0  0  0  0  0  0  0  0  0  0
   -4.8920   23.4180  -32.0540 N   0  0  0  0  0  0  0  0  0  0  0  0
   -4.5660   22.4310  -32.8740 N   0  0  0  0  0  0  0  0  0  0  0  0
   -3.5380   21.7660  -32.3100 C   0  0  0  0  0  0  0  0  0  0  0  0
   -2.8890   20.6030  -32.9530 C   0  0  0  0  0  0  0  0  0  0  0  0
   -1.6210   20.7120  -33.5520 C   0  0  0  0  0  0  0  0  0  0  0  0
   -1.0230   19.5940  -34.1420 C   0  0  0  0  0  0  0  0  0  0  0  0
   -1.6760   18.3590  -34.1280 C   0  0  0  0  0  0  0  0  0  0  0  0
   -2.9240   18.2370  -33.5130 C   0  0  0  0  0  0  0  0  0  0  0  0
   -3.5260   19.3510  -32.9230 C   0  0  0  0  0  0  0  0  0  0  0  0
   -2.4515   22.0743  -29.1777 H   0  0  0  0  0  0  0  0  0  0  0  0
   -1.8269   20.9032  -30.3881 H   0  0  0  0  0  0  0  0  0  0  0  0
   -1.2320   22.5981  -30.3881 H   0  0  0  0  0  0  0  0  0  0  0  0
   -5.4103   26.5163  -29.9307 H   0  0  0  0  0  0  0  0  0  0  0  0
   -5.5273   25.3915  -31.3521 H   0  0  0  0  0  0  0  0  0  0  0  0
   -6.8481   24.9826  -28.6363 H   0  0  0  0  0  0  0  0  0  0  0  0
   -7.6458   25.5549  -30.1858 H   0  0  0  0  0  0  0  0  0  0  0  0
   -6.3052   22.8480  -29.8774 H   0  0  0  0  0  0  0  0  0  0  0  0
   -8.0691   23.1541  -29.6141 H   0  0  0  0  0  0  0  0  0  0  0  0
   -6.6100   22.8510  -32.0160 H   0  0  0  0  0  0  0  0  0  0  0  0
   -9.2740   22.6380  -30.9586 H   0  0  0  0  0  0  0  0  0  0  0  0
   -9.1543   23.0310  -32.7096 H   0  0  0  0  0  0  0  0  0  0  0  0
   -6.4219   21.6847  -33.1745 H   0  0  0  0  0  0  0  0  0  0  0  0
   -5.7931   19.3107  -33.6140 H   0  0  0  0  0  0  0  0  0  0  0  0
   -7.2634   17.4571  -32.8165 H   0  0  0  0  0  0  0  0  0  0  0  0
   -9.9996   20.3485  -31.1254 H   0  0  0  0  0  0  0  0  0  0  0  0
   -1.0981   21.6798  -33.5564 H   0  0  0  0  0  0  0  0  0  0  0  0
   -0.0359   19.6872  -34.6184 H   0  0  0  0  0  0  0  0  0  0  0  0
   -1.2075   17.4833  -34.6010 H   0  0  0  0  0  0  0  0  0  0  0  0
   -3.4336   17.2624  -33.4932 H   0  0  0  0  0  0  0  0  0  0  0  0
   -4.5048   19.2474  -32.4319 H   0  0  0  0  0  0  0  0  0  0  0  0
  1  2  1  0
  2  3  1  0
  3  4  1  0
  4  5  1  0
  5  6  1  0
  6  7  1  0
  7  8  1  0
  8  9  1  0
  9 10  1  0
 10 11  2  0
 11 12  1  0
 12 13  2  0
 13 14  1  0
 14 15  1  0
 14 16  2  0
  3 17  2  0
 17 18  1  0
 18 19  2  0
 19 20  1  0
 20 21  2  0
 21 22  1  0
 22 23  2  0
 23 24  1  0
 24 25  2  0
 19  2  1  0
 25 20  1  0
 16 10  1  0
  1 26  1  0
  1 27  1  0
  1 28  1  0
  5 29  1  0
  5 30  1  0
  6 31  1  0
  6 32  1  0
  7 33  1  0
  7 34  1  0
  8 35  1  0
  9 36  1  0
  9 37  1  0
 11 38  1  0
 12 39  1  0
 13 40  1  0
 16 41  1  0
 21 42  1  0
 22 43  1  0
 23 44  1  0
 24 45  1  0
 25 46  1  0
M  END
>  <UniqueID>  (7) 
7

>  <SMILES>  (7) 
Cn1c(SCCCNCc2cccc(F)c2)nnc1-c1ccccc1

>  <Energy>  (7) 
77.78673271558252

>  <Genealogy>  (7) 
Cn1c(SCCCNCc2cccc(F)c2)nnc1-c1ccccc1 (3D coordinates assigned)
Cn1c(SCCCNCc2cccc(F)c2)nnc1-c1ccccc1 (optimized conformer: 77.78673271558252 kcal/mol)

>  <smiles>  (7) 
Cn1c(SCCCNCc2cccc(F)c2)nnc1-c1ccccc1

>  <score_type>  (7) 
oracle

>  <origin>  (7) 
adg

>  <m_score__min__energy>  (7) 
-7.5099999999999998

>  <m_primary>  (7) 
energy

$$$$
7:0
     RDKit          3D

 36 38  0  0  0  0  0  0  0  0999 V2000
   -6.1600   25.6770  -29.6840 C   0  0  0  0  0  0  0  0  0  0  0  0
   -4.9150   24.9360  -30.1600 C   0  0  0  0  0  0  0  0  0  0  0  0
   -5.1320   24.3530  -31.4440 O   0  0  0  0  0  0  0  0  0  0  0  0
   -6.0180   23.2970  -31.7350 C   0  0  0  0  0  0  0  0  0  0  0  0
   -7.4130   23.4510  -31.6310 C   0  0  0  0  0  0  0  0  0  0  0  0
   -8.2660   22.3970  -31.9440 C   0  0  0  0  0  0  0  0  0  0  0  0
   -7.7510   21.1680  -32.3490 C   0  0  0  0  0  0  0  0  0  0  0  0
   -6.3600   20.9640  -32.4360 C   0  0  0  0  0  0  0  0  0  0  0  0
   -5.8110   19.7140  -32.8340 C   0  0  0  0  0  0  0  0  0  0  0  0
   -4.4210   19.6070  -33.0470 C   0  0  0  0  0  0  0  0  0  0  0  0
   -3.5810   20.6800  -32.7580 C   0  0  0  0  0  0  0  0  0  0  0  0
   -4.1030   21.8880  -32.3050 C   0  0  0  0  0  0  0  0  0  0  0  0
   -5.4910   22.0550  -32.1540 C   0  0  0  0  0  0  0  0  0  0  0  0
   -3.8560   18.4160  -33.5140 O   0  0  0  0  0  0  0  0  0  0  0  0
   -4.1850   17.8250  -34.7760 C   0  0  0  0  0  0  0  0  0  0  0  0
   -5.6620   17.9840  -35.1550 C   0  0  0  0  0  0  0  0  0  0  0  0
   -6.5250   17.7020  -34.0110 N   0  0  0  0  0  0  0  0  0  0  0  0
   -6.6390   18.4790  -32.9720 C   0  0  0  0  0  0  0  0  0  0  0  0
   -7.5060   18.0160  -31.8400 C   0  0  0  0  0  0  0  0  0  0  0  0
   -6.1812   25.6896  -28.5843 H   0  0  0  0  0  0  0  0  0  0  0  0
   -6.1391   26.7097  -30.0622 H   0  0  0  0  0  0  0  0  0  0  0  0
   -7.0578   25.1662  -30.0622 H   0  0  0  0  0  0  0  0  0  0  0  0
   -4.0757   25.6443  -30.2228 H   0  0  0  0  0  0  0  0  0  0  0  0
   -4.6864   24.1339  -29.4428 H   0  0  0  0  0  0  0  0  0  0  0  0
   -7.8325   24.4123  -31.2996 H   0  0  0  0  0  0  0  0  0  0  0  0
   -9.3548   22.5355  -31.8710 H   0  0  0  0  0  0  0  0  0  0  0  0
   -8.4381   20.3476  -32.6037 H   0  0  0  0  0  0  0  0  0  0  0  0
   -2.4943   20.5715  -32.8891 H   0  0  0  0  0  0  0  0  0  0  0  0
   -3.4241   22.7190  -32.0631 H   0  0  0  0  0  0  0  0  0  0  0  0
   -3.5717   18.3016  -35.5549 H   0  0  0  0  0  0  0  0  0  0  0  0
   -3.9851   16.7466  -34.6921 H   0  0  0  0  0  0  0  0  0  0  0  0
   -5.8382   19.0156  -35.4938 H   0  0  0  0  0  0  0  0  0  0  0  0
   -5.8982   17.2710  -35.9586 H   0  0  0  0  0  0  0  0  0  0  0  0
   -7.0273   18.2716  -30.8832 H   0  0  0  0  0  0  0  0  0  0  0  0
   -8.4865   18.5106  -31.9031 H   0  0  0  0  0  0  0  0  0  0  0  0
   -7.6404   16.9261  -31.9031 H   0  0  0  0  0  0  0  0  0  0  0  0
  1  2  1  0
  2  3  1  0
  3  4  1  0
  4  5  2  0
  5  6  1  0
  6  7  2  0
  7  8  1  0
  8  9  2  0
  9 10  1  0
 10 11  2  0
 11 12  1  0
 12 13  2  0
 10 14  1  0
 14 15  1  0
 15 16  1  0
 16 17  1  0
 17 18  2  0
 18 19  1  0
 13  4  1  0
 13  8  1  0
 18  9  1  0
  1 20  1  0
  1 21  1  0
  1 22  1  0
  2 23  1  0
  2 24  1  0
  5 25  1  0
  6 26  1  0
  7 27  1  0
 11 28  1  0
 12 29  1  0
 15 30  1  0
 15 31  1  0
 16 32  1  0
 16 33  1  0
 19 34  1  0
 19 35  1  0
 19 36  1  0
M  END
>  <UniqueID>  (8) 
8

>  <SMILES>  (8) 
CCOc1cccc2c3c(ccc12)OCCN=C3C

>  <Energy>  (8) 
56.24722083899182

>  <Genealogy>  (8) 
CCOc1cccc2c3c(ccc12)OCCN=C3C (3D coordinates assigned)
CCOc1cccc2c3c(ccc12)OCCN=C3C (nonaromatic ring conformer: 56.24722083899182 kcal/mol)

>  <smiles>  (8) 
CCOc1cccc2c3c(ccc12)OCCN=C3C

>  <score_type>  (8) 
oracle

>  <origin>  (8) 
adg

>  <m_score__min__energy>  (8) 
-6.0999999999999996

>  <m_primary>  (8) 
energy

$$$$
8:0
     RDKit          3D

 52 54  0  0  0  0  0  0  0  0999 V2000
   -1.0490   21.9280  -30.4150 C   0  0  0  0  0  0  0  0  0  0  0  0
   -2.3330   21.4510  -29.7510 C   0  0  0  0  0  0  0  0  0  0  0  0
   -3.3290   22.4330  -29.8990 O   0  0  0  0  0  0  0  0  0  0  0  0
   -3.5660   23.1540  -28.3470 S   0  0  0  0  0  0  0  0  0  0  0  0
   -4.9770   24.1650  -28.9090 C   0  0  0  0  0  0  0  0  0  0  0  0
   -4.5960   25.0360  -30.4700 S   0  0  0  0  0  0  0  0  0  0  0  0
   -6.1610   24.6080  -31.3160 C   0  0  0  0  0  0  0  0  0  0  0  0
   -5.9760   23.4210  -32.2760 C   0  0  0  0  0  0  0  0  0  0  0  0
   -5.1360   22.3280  -31.7370 N   0  0  0  0  0  0  0  0  0  0  0  0
   -5.3640   21.0290  -32.3680 C   0  0  0  0  0  0  0  0  0  0  0  0
   -4.2920   20.3420  -33.0170 C   0  0  0  0  0  0  0  0  0  0  0  0
   -4.5240   19.0540  -33.5820 C   0  0  0  0  0  0  0  0  0  0  0  0
   -5.7930   18.5140  -33.5890 N   0  0  0  0  0  0  0  0  0  0  0  0
   -6.0720   17.2830  -34.3690 C   0  0  0  0  0  0  0  0  0  0  0  0
   -6.8090   19.1000  -32.8650 C   0  0  0  0  0  0  0  0  0  0  0  0
   -8.0390   18.4190  -32.6480 C   0  0  0  0  0  0  0  0  0  0  0  0
   -9.1010   19.0340  -31.9970 C   0  0  0  0  0  0  0  0  0  0  0  0
   -8.9730   20.3350  -31.5460 C   0  0  0  0  0  0  0  0  0  0  0  0
   -7.7690   21.0140  -31.6980 C   0  0  0  0  0  0  0  0  0  0  0  0
   -6.6440   20.4000  -32.3120 C   0  0  0  0  0  0  0  0  0  0  0  0
   -3.3790   18.2870  -34.2450 C   0  0  0  0  0  0  0  0  0  0  0  0
   -1.9910   18.7810  -33.8630 C   0  0  0  0  0  0  0  0  0  0  0  0
   -1.9350   20.2850  -34.0330 C   0  0  0  0  0  0  0  0  0  0  0  0
   -2.8800   20.9440  -33.0360 C   0  0  0  0  0  0  0  0  0  0  0  0
   -0.3156   22.2004  -29.6417 H   0  0  0  0  0  0  0  0  0  0  0  0
   -0.6390   21.1222  -31.0416 H   0  0  0  0  0  0  0  0  0  0  0  0
   -1.2645   22.8061  -31.0416 H   0  0  0  0  0  0  0  0  0  0  0  0
   -2.6661   20.5162  -30.2256 H   0  0  0  0  0  0  0  0  0  0  0  0
   -2.1489   21.2731  -28.6812 H   0  0  0  0  0  0  0  0  0  0  0  0
   -5.8458   23.5093  -29.0682 H   0  0  0  0  0  0  0  0  0  0  0  0
   -5.1917   24.9182  -28.1366 H   0  0  0  0  0  0  0  0  0  0  0  0
   -6.9149   24.3424  -30.5603 H   0  0  0  0  0  0  0  0  0  0  0  0
   -6.4856   25.4796  -31.9033 H   0  0  0  0  0  0  0  0  0  0  0  0
   -6.9688   23.0092  -32.5103 H   0  0  0  0  0  0  0  0  0  0  0  0
   -5.4552   23.8109  -33.1630 H   0  0  0  0  0  0  0  0  0  0  0  0
   -5.3160   22.2590  -30.7120 H   0  0  0  0  0  0  0  0  0  0  0  0
   -4.1360   22.6150  -31.7400 H   0  0  0  0  0  0  0  0  0  0  0  0
   -6.2615   16.4471  -33.6795 H   0  0  0  0  0  0  0  0  0  0  0  0
   -6.9566   17.4432  -35.0029 H   0  0  0  0  0  0  0  0  0  0  0  0
   -5.2048   17.0461  -35.0029 H   0  0  0  0  0  0  0  0  0  0  0  0
   -8.1515   17.3840  -33.0030 H   0  0  0  0  0  0  0  0  0  0  0  0
  -10.0424   18.4869  -31.8405 H   0  0  0  0  0  0  0  0  0  0  0  0
   -9.8269   20.8347  -31.0652 H   0  0  0  0  0  0  0  0  0  0  0  0
   -7.6856   22.0490  -31.3350 H   0  0  0  0  0  0  0  0  0  0  0  0
   -3.4599   17.2289  -33.9555 H   0  0  0  0  0  0  0  0  0  0  0  0
   -3.4816   18.4424  -35.3291 H   0  0  0  0  0  0  0  0  0  0  0  0
   -1.7833   18.5210  -32.8145 H   0  0  0  0  0  0  0  0  0  0  0  0
   -1.2383   18.3070  -34.5101 H   0  0  0  0  0  0  0  0  0  0  0  0
   -0.9084   20.6365  -33.8527 H   0  0  0  0  0  0  0  0  0  0  0  0
   -2.2386   20.5500  -35.0565 H   0  0  0  0  0  0  0  0  0  0  0  0
   -2.4472   20.8409  -32.0300 H   0  0  0  0  0  0  0  0  0  0  0  0
   -2.9873   21.9935  -33.3474 H   0  0  0  0  0  0  0  0  0  0  0  0
  1  2  1  0
  2  3  1  0
  3  4  1  0
  4  5  1  0
  5  6  1  0
  6  7  1  0
  7  8  1  0
  8  9  1  0
  9 10  1  0
 10 11  2  0
 11 12  1  0
 12 13  2  0
 13 14  1  0
 13 15  1  0
 15 16  2  0
 16 17  1  0
 17 18  2  0
 18 19  1  0
 19 20  2  0
 12 21  1  0
 21 22  1  0
 22 23  1  0
 23 24  1  0
 20 10  1  0
 24 11  1  0
 20 15  1  0
  1 25  1  0
  1 26  1  0
  1 27  1  0
  2 28  1  0
  2 29  1  0
  5 30  1  0
  5 31  1  0
  7 32  1  0
  7 33  1  0
  8 34  1  0
  8 35  1  0
  9 36  1  0
  9 37  1  0
 14 38  1  0
 14 39  1  0
 14 40  1  0
 16 41  1  0
 17 42  1  0
 18 43  1  0
 19 44  1  0
 21 45  1  0
 21 46  1  0
 22 47  1  0
 22 48  1  0
 23 49  1  0
 23 50  1  0
 24 51  1  0
 24 52  1  0
M  CHG  2   9   1  13   1
M  END
>  <UniqueID>  (9) 
9

>  <SMILES>  (9) 
CCOSCSCC[NH2+]c1c2c([n+](C)c3ccccc13)CCCC2

>  <Energy>  (9) 
69.10143226441541

>  <Genealogy>  (9) 
CCOSCSCC[NH2+]c1c2c([n+](C)c3ccccc13)CCCC2 (protonated)
CCOSCSCC[NH2+]c1c2c([n+](C)c3ccccc13)CCCC2 (3D coordinates assigned)
CCOSCSCC[NH2+]c1c2c([n+](C)c3ccccc13)CCCC2 (nonaromatic ring conformer: 69.10143226441541 kcal/mol)

>  <smiles>  (9) 
CCOSCSCCNc1c2c([n+](C)c3ccccc13)CCCC2

>  <score_type>  (9) 
oracle

>  <origin>  (9) 
adg

>  <m_score__min__energy>  (9) 
-8.75

>  <m_primary>  (9) 
energy

$$$$
9:0
     RDKit          3D

 44 47  0  0  0  0  0  0  0  0999 V2000
   -2.7370   25.2700  -26.3570 C   0  0  0  0  0  0  0  0  0  0  0  0
   -1.5690   25.6910  -27.2430 C   0  0  0  0  0  0  0  0  0  0  0  0
   -1.9440   25.6720  -28.6200 O   0  0  0  0  0  0  0  0  0  0  0  0
   -2.3180   24.5310  -29.3510 C   0  0  0  0  0  0  0  0  0  0  0  0
   -1.4290   23.4750  -29.6240 C   0  0  0  0  0  0  0  0  0  0  0  0
   -1.8570   22.3650  -30.3580 C   0  0  0  0  0  0  0  0  0  0  0  0
   -3.1740   22.2910  -30.8440 C   0  0  0  0  0  0  0  0  0  0  0  0
   -3.6140   21.1020  -31.6160 C   0  0  0  0  0  0  0  0  0  0  0  0
   -4.9460   20.7910  -31.6640 N   0  0  0  0  0  0  0  0  0  0  0  0
   -5.4140   19.7130  -32.3530 C   0  0  0  0  0  0  0  0  0  0  0  0
   -6.8180   19.4350  -32.3700 N   0  0  0  0  0  0  0  0  0  0  0  0
   -7.7140   20.3150  -33.1190 C   0  0  0  0  0  0  0  0  0  0  0  0
   -9.1290   20.2220  -32.5380 C   0  0  0  0  0  0  0  0  0  0  0  0
   -9.5460   18.8730  -32.4430 O   0  0  0  0  0  0  0  0  0  0  0  0
   -8.7370   18.1860  -31.5060 C   0  0  0  0  0  0  0  0  0  0  0  0
   -7.2890   18.1010  -31.9960 C   0  0  0  0  0  0  0  0  0  0  0  0
   -4.4970   18.9040  -33.0260 C   0  0  0  0  0  0  0  0  0  0  0  0
   -4.7510   17.7530  -33.7820 C   0  0  0  0  0  0  0  0  0  0  0  0
   -3.5810   17.1980  -34.2960 C   0  0  0  0  0  0  0  0  0  0  0  0
   -3.4880   15.6290  -35.3750 Br  0  0  0  0  0  0  0  0  0  0  0  0
   -2.2430   18.1180  -33.8200 S   0  0  0  0  0  0  0  0  0  0  0  0
   -3.1600   19.2300  -32.9590 C   0  0  0  0  0  0  0  0  0  0  0  0
   -2.7090   20.3040  -32.2670 N   0  0  0  0  0  0  0  0  0  0  0  0
   -4.0590   23.3470  -30.5630 C   0  0  0  0  0  0  0  0  0  0  0  0
   -3.6310   24.4550  -29.8280 C   0  0  0  0  0  0  0  0  0  0  0  0
   -2.4510   25.3731  -25.2998 H   0  0  0  0  0  0  0  0  0  0  0  0
   -3.6057   25.9116  -26.5661 H   0  0  0  0  0  0  0  0  0  0  0  0
   -2.9966   24.2217  -26.5661 H   0  0  0  0  0  0  0  0  0  0  0  0
   -1.2570   26.7094  -26.9684 H   0  0  0  0  0  0  0  0  0  0  0  0
   -0.7405   24.9830  -27.0937 H   0  0  0  0  0  0  0  0  0  0  0  0
   -0.3927   23.5232  -29.2582 H   0  0  0  0  0  0  0  0  0  0  0  0
   -1.1561   21.5410  -30.5573 H   0  0  0  0  0  0  0  0  0  0  0  0
   -7.3551   21.3521  -33.0447 H   0  0  0  0  0  0  0  0  0  0  0  0
   -7.7313   20.0063  -34.1747 H   0  0  0  0  0  0  0  0  0  0  0  0
   -9.1373   20.6734  -31.5349 H   0  0  0  0  0  0  0  0  0  0  0  0
   -9.8199   20.7583  -33.2052 H   0  0  0  0  0  0  0  0  0  0  0  0
   -8.7619   18.7228  -30.5462 H   0  0  0  0  0  0  0  0  0  0  0  0
   -9.1283   17.1652  -31.3844 H   0  0  0  0  0  0  0  0  0  0  0  0
   -6.6536   17.7004  -31.1924 H   0  0  0  0  0  0  0  0  0  0  0  0
   -7.2381   17.4370  -32.8715 H   0  0  0  0  0  0  0  0  0  0  0  0
   -5.7551   17.3365  -33.9501 H   0  0  0  0  0  0  0  0  0  0  0  0
   -1.6820   20.4870  -32.2210 H   0  0  0  0  0  0  0  0  0  0  0  0
   -5.0967   23.3001  -30.9249 H   0  0  0  0  0  0  0  0  0  0  0  0
   -4.3334   25.2761  -29.6221 H   0  0  0  0  0  0  0  0  0  0  0  0
  1  2  1  0
  2  3  1  0
  3  4  1  0
  4  5  2  0
  5  6  1  0
  6  7  2  0
  7  8  1  0
  8  9  2  0
  9 10  1  0
 10 11  1  0
 11 12  1  0
 12 13  1  0
 13 14  1  0
 14 15  1  0
 15 16  1  0
 10 17  2  0
 17 18  1  0
 18 19  2  0
 19 20  1  0
 19 21  1  0
 21 22  1  0
 22 23  2  0
  7 24  1  0
 24 25  2  0
 25  4  1  0
 23  8  1  0
 16 11  1  0
 22 17  1  0
  1 26  1  0
  1 27  1  0
  1 28  1  0
  2 29  1  0
  2 30  1  0
  5 31  1  0
  6 32  1  0
 12 33  1  0
 12 34  1  0
 13 35  1  0
 13 36  1  0
 15 37  1  0
 15 38  1  0
 16 39  1  0
 16 40  1  0
 18 41  1  0
 23 42  1  0
 24 43  1  0
 25 44  1  0
M  CHG  1  23   1
M  END
>  <UniqueID>  (10) 
10

>  <SMILES>  (10) 
CCOc1ccc(-c2nc(N3CCOCC3)c3cc(Br)sc3[nH+]2)cc1

>  <Energy>  (10) 
88.02570607467368

>  <Genealogy>  (10) 
CCOc1ccc(-c2nc(N3CCOCC3)c3cc(Br)sc3[nH+]2)cc1 (protonated)
CCOc1ccc(-c2nc(N3CCOCC3)c3cc(Br)sc3[nH+]2)cc1 (3D coordinates assigned)
CCOc1ccc(-c2nc(N3CCOCC3)c3cc(Br)sc3[nH+]2)cc1 (nonaromatic ring conformer: 88.02570607467368 kcal/mol)

>  <smiles>  (10) 
CCOc1ccc(-c2nc(N3CCOCC3)c3cc(Br)sc3n2)cc1

>  <score_type>  (10) 
oracle

>  <origin>  (10) 
adg

>  <m_score__min__energy>  (10) 
-7.25

>  <m_primary>  (10) 
energy

$$$$
10:0
     RDKit          3D

 39 40  0  0  0  0  0  0  0  0999 V2000
   -6.8260   17.1880  -32.9320 C   0  0  0  0  0  0  0  0  0  0  0  0
   -7.9920   17.7970  -32.1590 C   0  0  0  0  0  0  0  0  0  0  0  0
   -8.4220   19.0540  -32.7740 N   0  0  0  0  0  0  0  0  0  0  0  0
   -7.9000   20.3550  -32.4380 C   0  0  0  0  0  0  0  0  0  0  0  0
   -8.7730   21.3280  -31.9310 C   0  0  0  0  0  0  0  0  0  0  0  0
   -8.3030   22.5980  -31.5900 C   0  0  0  0  0  0  0  0  0  0  0  0
   -6.9470   22.9130  -31.7370 C   0  0  0  0  0  0  0  0  0  0  0  0
   -6.3810   24.5600  -31.2800 S   0  0  0  0  0  0  0  0  0  0  0  0
   -5.5540   24.0310  -29.7350 C   0  0  0  0  0  0  0  0  0  0  0  0
   -4.0680   24.2520  -29.8040 C   0  0  0  0  0  0  0  0  0  0  0  0
   -3.6410   25.2330  -30.4730 O   0  0  0  0  0  0  0  0  0  0  0  0
   -3.1320   23.3570  -29.1690 N   0  0  0  0  0  0  0  0  0  0  0  0
   -1.7160   23.4110  -29.5510 C   0  0  0  0  0  0  0  0  0  0  0  0
   -1.0520   22.0540  -29.3020 C   0  0  0  0  0  0  0  0  0  0  0  0
   -1.2850   21.6170  -27.9770 O   0  0  0  0  0  0  0  0  0  0  0  0
   -2.6660   21.3740  -27.7930 C   0  0  0  0  0  0  0  0  0  0  0  0
   -3.4700   22.6710  -27.9130 C   0  0  0  0  0  0  0  0  0  0  0  0
   -6.0610   21.9490  -32.2500 C   0  0  0  0  0  0  0  0  0  0  0  0
   -4.3520   22.3010  -32.4720 Cl  0  0  0  0  0  0  0  0  0  0  0  0
   -6.5370   20.6770  -32.5910 C   0  0  0  0  0  0  0  0  0  0  0  0
   -6.0801   16.7984  -32.2236 H   0  0  0  0  0  0  0  0  0  0  0  0
   -7.1945   16.3672  -33.5648 H   0  0  0  0  0  0  0  0  0  0  0  0
   -6.3628   17.9594  -33.5648 H   0  0  0  0  0  0  0  0  0  0  0  0
   -8.8338   17.0889  -32.1587 H   0  0  0  0  0  0  0  0  0  0  0  0
   -7.6643   18.0018  -31.1291 H   0  0  0  0  0  0  0  0  0  0  0  0
   -9.1700   18.9920  -33.5030 H   0  0  0  0  0  0  0  0  0  0  0  0
   -9.8387   21.0886  -31.8006 H   0  0  0  0  0  0  0  0  0  0  0  0
   -9.0018   23.3547  -31.2039 H   0  0  0  0  0  0  0  0  0  0  0  0
   -5.9631   24.6099  -28.8939 H   0  0  0  0  0  0  0  0  0  0  0  0
   -5.7377   22.9555  -29.5950 H   0  0  0  0  0  0  0  0  0  0  0  0
   -1.6365   23.6646  -30.6184 H   0  0  0  0  0  0  0  0  0  0  0  0
   -1.2087   24.1767  -28.9457 H   0  0  0  0  0  0  0  0  0  0  0  0
   -1.4667   21.3153  -30.0037 H   0  0  0  0  0  0  0  0  0  0  0  0
    0.0325   22.1587  -29.4534 H   0  0  0  0  0  0  0  0  0  0  0  0
   -3.0118   20.6639  -28.5586 H   0  0  0  0  0  0  0  0  0  0  0  0
   -2.8184   20.9581  -26.7861 H   0  0  0  0  0  0  0  0  0  0  0  0
   -4.5445   22.4358  -27.9040 H   0  0  0  0  0  0  0  0  0  0  0  0
   -3.2251   23.3278  -27.0653 H   0  0  0  0  0  0  0  0  0  0  0  0
   -5.8397   19.9216  -32.9823 H   0  0  0  0  0  0  0  0  0  0  0  0
  1  2  1  0
  2  3  1  0
  3  4  1  0
  4  5  2  0
  5  6  1  0
  6  7  2  0
  7  8  1  0
  8  9  1  0
  9 10  1  0
 10 11  2  0
 10 12  1  0
 12 13  1  0
 13 14  1  0
 14 15  1  0
 15 16  1  0
 16 17  1  0
  7 18  1  0
 18 19  1  0
 18 20  2  0
 20  4  1  0
 17 12  1  0
  1 21  1  0
  1 22  1  0
  1 23  1  0
  2 24  1  0
  2 25  1  0
  3 26  1  0
  5 27  1  0
  6 28  1  0
  9 29  1  0
  9 30  1  0
 13 31  1  0
 13 32  1  0
 14 33  1  0
 14 34  1  0
 16 35  1  0
 16 36  1  0
 17 37  1  0
 17 38  1  0
 20 39  1  0
M  END
>  <UniqueID>  (11) 
11

>  <SMILES>  (11) 
CCNc1ccc(SCC(=O)N2CCOCC2)c(Cl)c1

>  <Energy>  (11) 
32.78877541101857

>  <Genealogy>  (11) 
CCNc1ccc(SCC(=O)N2CCOCC2)c(Cl)c1 (3D coordinates assigned)
CCNc1ccc(SCC(=O)N2CCOCC2)c(Cl)c1 (nonaromatic ring conformer: 32.78877541101857 kcal/mol)

>  <smiles>  (11) 
CCNc1ccc(SCC(=O)N2CCOCC2)c(Cl)c1

>  <score_type>  (11) 
oracle

>  <origin>  (11) 
adg

>  <m_score__min__energy>  (11) 
-7.9199999999999999

>  <m_primary>  (11) 
energy

$$$$
11:0
     RDKit          3D

 66 69  0  0  0  0  0  0  0  0999 V2000
   -6.3250   22.7609  -32.6737 H   0  0  0  0  0  0  0  0  0  0  0  0
   -6.3890   22.5260  -31.6010 C   0  0  0  0  0  0  0  0  0  0  0  0
   -5.3460   22.9110  -30.8330 C   0  0  0  0  0  0  0  0  0  0  0  0
   -4.1990   22.1030  -30.6540 C   0  0  0  0  0  0  0  0  0  0  0  0
   -3.7960   20.4250  -31.4920 Br  0  0  0  0  0  0  0  0  0  0  0  0
   -3.4130   22.8410  -29.8000 C   0  0  0  0  0  0  0  0  0  0  0  0
   -4.0190   23.9780  -29.5390 C   0  0  0  0  0  0  0  0  0  0  0  0
   -3.1700   24.9200  -29.0990 N   0  0  0  0  0  0  0  0  0  0  0  0
   -1.9940   24.2190  -29.0540 C   0  0  0  0  0  0  0  0  0  0  0  0
   -0.8390   24.7690  -28.6450 C   0  0  0  0  0  0  0  0  0  0  0  0
    0.0784   24.5497  -29.2109 H   0  0  0  0  0  0  0  0  0  0  0  0
   -0.7470   25.6720  -27.4460 C   0  0  0  0  0  0  0  0  0  0  0  0
   -1.3167   26.5917  -27.6450 H   0  0  0  0  0  0  0  0  0  0  0  0
    0.3130   25.9037  -27.2651 H   0  0  0  0  0  0  0  0  0  0  0  0
   -1.3160   24.9920  -26.1940 C   0  0  0  0  0  0  0  0  0  0  0  0
   -0.7376   25.3147  -25.3158 H   0  0  0  0  0  0  0  0  0  0  0  0
   -1.2442   23.9023  -26.3256 H   0  0  0  0  0  0  0  0  0  0  0  0
   -2.7820   25.3590  -25.9870 C   0  0  0  0  0  0  0  0  0  0  0  0
   -2.9979   25.4130  -24.9097 H   0  0  0  0  0  0  0  0  0  0  0  0
   -2.9846   26.3356  -26.4510 H   0  0  0  0  0  0  0  0  0  0  0  0
   -3.4208   24.5930  -26.4510 H   0  0  0  0  0  0  0  0  0  0  0  0
   -2.1050   22.9320  -29.5200 N   0  0  0  0  0  0  0  0  0  0  0  0
   -1.0380   21.9670  -29.8080 C   0  0  0  0  0  0  0  0  0  0  0  0
   -1.1536   21.5992  -30.8382 H   0  0  0  0  0  0  0  0  0  0  0  0
   -0.0673   22.4698  -29.6859 H   0  0  0  0  0  0  0  0  0  0  0  0
   -1.0980   20.7970  -28.8560 C   0  0  0  0  0  0  0  0  0  0  0  0
   -0.2620   19.6840  -29.0500 C   0  0  0  0  0  0  0  0  0  0  0  0
    0.4365   19.6655  -29.8996 H   0  0  0  0  0  0  0  0  0  0  0  0
   -0.3140   18.6000  -28.1680 C   0  0  0  0  0  0  0  0  0  0  0  0
    0.3373   17.7284  -28.3296 H   0  0  0  0  0  0  0  0  0  0  0  0
   -1.1930   18.6230  -27.0810 C   0  0  0  0  0  0  0  0  0  0  0  0
   -1.2328   17.7701  -26.3874 H   0  0  0  0  0  0  0  0  0  0  0  0
   -2.0210   19.7300  -26.8760 C   0  0  0  0  0  0  0  0  0  0  0  0
   -2.7116   19.7482  -26.0200 H   0  0  0  0  0  0  0  0  0  0  0  0
   -1.9730   20.8140  -27.7570 C   0  0  0  0  0  0  0  0  0  0  0  0
   -2.6237   21.6849  -27.5890 H   0  0  0  0  0  0  0  0  0  0  0  0
   -5.2070   24.1030  -30.1550 N   0  0  0  0  0  0  0  0  0  0  0  0
   -5.9220   25.3700  -30.3200 C   0  0  0  0  0  0  0  0  0  0  0  0
   -6.1585   25.7891  -29.3308 H   0  0  0  0  0  0  0  0  0  0  0  0
   -5.2901   26.0778  -30.8766 H   0  0  0  0  0  0  0  0  0  0  0  0
   -6.8545   25.1950  -30.8766 H   0  0  0  0  0  0  0  0  0  0  0  0
   -7.6290   21.8090  -31.1400 C   0  0  0  0  0  0  0  0  0  0  0  0
   -7.3337   20.9580  -30.5087 H   0  0  0  0  0  0  0  0  0  0  0  0
   -8.2471   22.5245  -30.5778 H   0  0  0  0  0  0  0  0  0  0  0  0
   -8.4630   21.2850  -32.3230 C   0  0  0  0  0  0  0  0  0  0  0  0
   -9.5291   21.3778  -32.0685 H   0  0  0  0  0  0  0  0  0  0  0  0
   -8.1971   21.8866  -33.2047 H   0  0  0  0  0  0  0  0  0  0  0  0
   -8.1670   19.8160  -32.6630 C   0  0  0  0  0  0  0  0  0  0  0  0
   -8.6808   19.1674  -31.9382 H   0  0  0  0  0  0  0  0  0  0  0  0
   -8.5261   19.6106  -33.6823 H   0  0  0  0  0  0  0  0  0  0  0  0
   -6.7120   19.5470  -32.6090 N   0  0  0  0  0  0  0  0  0  0  0  0
   -6.3860   18.3830  -31.7600 C   0  0  0  0  0  0  0  0  0  0  0  0
   -5.2945   18.3306  -31.6343 H   0  0  0  0  0  0  0  0  0  0  0  0
   -6.8939   18.5167  -30.7935 H   0  0  0  0  0  0  0  0  0  0  0  0
   -6.8790   17.0590  -32.3750 C   0  0  0  0  0  0  0  0  0  0  0  0
   -6.2774   16.2350  -31.9637 H   0  0  0  0  0  0  0  0  0  0  0  0
   -7.9442   16.9528  -32.1218 H   0  0  0  0  0  0  0  0  0  0  0  0
   -6.7630   17.0340  -33.9100 C   0  0  0  0  0  0  0  0  0  0  0  0
   -6.4566   16.0265  -34.2278 H   0  0  0  0  0  0  0  0  0  0  0  0
   -7.7435   17.2998  -34.3320 H   0  0  0  0  0  0  0  0  0  0  0  0
   -5.7360   18.0470  -34.4170 C   0  0  0  0  0  0  0  0  0  0  0  0
   -4.7434   17.7751  -34.0286 H   0  0  0  0  0  0  0  0  0  0  0  0
   -5.7441   18.0269  -35.5168 H   0  0  0  0  0  0  0  0  0  0  0  0
   -6.0810   19.4790  -33.9550 C   0  0  0  0  0  0  0  0  0  0  0  0
   -5.1521   20.0677  -33.9313 H   0  0  0  0  0  0  0  0  0  0  0  0
   -6.8164   19.8750  -34.6708 H   0  0  0  0  0  0  0  0  0  0  0  0
  1  2  1  0
  2  3  2  0
  3  4  1  0
  4  5  1  0
  4  6  2  0
  6  7  1  0
  7  8  2  0
  8  9  1  0
  9 10  2  0
 10 11  1  0
 10 12  1  0
 12 13  1  0
 12 14  1  0
 12 15  1  0
 15 16  1  0
 15 17  1  0
 15 18  1  0
 18 19  1  0
 18 20  1  0
 18 21  1  0
  9 22  1  0
 22 23  1  0
 23 24  1  0
 23 25  1  0
 23 26  1  0
 26 27  2  0
 27 28  1  0
 27 29  1  0
 29 30  1  0
 29 31  2  0
 31 32  1  0
 31 33  1  0
 33 34  1  0
 33 35  2  0
 35 36  1  0
  7 37  1  0
 37 38  1  0
 38 39  1  0
 38 40  1  0
 38 41  1  0
  2 42  1  0
 42 43  1  0
 42 44  1  0
 42 45  1  0
 45 46  1  0
 45 47  1  0
 45 48  1  0
 48 49  1  0
 48 50  1  0
 48 51  1  0
 51 52  1  0
 52 53  1  0
 52 54  1  0
 52 55  1  0
 55 56  1  0
 55 57  1  0
 55 58  1  0
 58 59  1  0
 58 60  1  0
 58 61  1  0
 61 62  1  0
 61 63  1  0
 61 64  1  0
 64 65  1  0
 64 66  1  0
 37  3  1  0
 64 51  1  0
 22  6  1  0
 35 26  1  0
M  END
>  <UniqueID>  (12) 
12

>  <SMILES>  (12) 
CCC/C=c1\nc2c(c(Br)/c(=C/CCCN3CCCCC3)n2C)n1Cc1ccccc1

>  <Energy>  (12) 
161.7738958787732

>  <Genealogy>  (12) 
CCC/C=c1\nc2c(c(Br)/c(=C/CCCN3CCCCC3)n2C)n1Cc1ccccc1 (cis-trans isomerization)
CCC/C=c1\nc2c(c(Br)/c(=C/CCCN3CCCCC3)n2C)n1Cc1ccccc1 (3D coordinates assigned)
CCC/C=c1\nc2c(c(Br)/c(=C/CCCN3CCCCC3)n2C)n1Cc1ccccc1 (nonaromatic ring conformer: 161.7738958787732 kcal/mol)

>  <smiles>  (12) 
CCCC=c1nc2c(c(Br)c(=CCCCN3CCCCC3)n2C)n1Cc1ccccc1

>  <score_type>  (12) 
oracle

>  <origin>  (12) 
adg

>  <m_score__min__energy>  (12) 
-10.07

>  <m_primary>  (12) 
energy

$$$$
12:0
     RDKit          3D

 64 67  0  0  0  0  0  0  0  0999 V2000
   -2.1200   19.6150  -27.2390 C   0  0  0  0  0  0  0  0  0  0  0  0
   -3.0960   20.4400  -28.0750 C   0  0  0  0  0  0  0  0  0  0  0  0
   -2.5590   20.6970  -29.4170 N   0  0  0  0  0  0  0  0  0  0  0  0
   -1.2240   21.3190  -29.3770 C   0  0  0  0  0  0  0  0  0  0  0  0
   -0.8930   21.9250  -30.7420 C   0  0  0  0  0  0  0  0  0  0  0  0
   -1.1440   20.9270  -31.8040 N   0  0  0  0  0  0  0  0  0  0  0  0
   -1.0590   21.5260  -33.1480 C   0  0  0  0  0  0  0  0  0  0  0  0
   -1.5150   20.5180  -34.2240 C   0  0  0  0  0  0  0  0  0  0  0  0
   -1.5550   19.1200  -33.7360 N   0  0  0  0  0  0  0  0  0  0  0  0
   -2.8450   18.7740  -33.0910 C   0  0  0  0  0  0  0  0  0  0  0  0
   -3.7970   19.9830  -33.0150 C   0  0  0  0  0  0  0  0  0  0  0  0
   -3.9730   20.5150  -31.6480 N   0  0  0  0  0  0  0  0  0  0  0  0
   -5.3030   21.0750  -31.4250 C   0  0  0  0  0  0  0  0  0  0  0  0
   -5.4500   22.4300  -31.0210 C   0  0  0  0  0  0  0  0  0  0  0  0
   -4.3560   23.1780  -30.5220 C   0  0  0  0  0  0  0  0  0  0  0  0
   -4.5090   24.5050  -30.1290 C   0  0  0  0  0  0  0  0  0  0  0  0
   -5.7530   25.1140  -30.2040 C   0  0  0  0  0  0  0  0  0  0  0  0
   -6.8510   24.4030  -30.6800 C   0  0  0  0  0  0  0  0  0  0  0  0
   -6.7240   23.0560  -31.1110 C   0  0  0  0  0  0  0  0  0  0  0  0
   -7.8100   22.3540  -31.5940 N   0  0  0  0  0  0  0  0  0  0  0  0
   -9.0410   23.0750  -31.9870 C   0  0  0  0  0  0  0  0  0  0  0  0
   -7.7470   20.9800  -31.7050 C   0  0  0  0  0  0  0  0  0  0  0  0
   -8.9280   20.2030  -31.8540 C   0  0  0  0  0  0  0  0  0  0  0  0
   -8.8710   18.8230  -32.0000 C   0  0  0  0  0  0  0  0  0  0  0  0
   -7.6470   18.1730  -31.9760 C   0  0  0  0  0  0  0  0  0  0  0  0
   -6.4720   18.8950  -31.7830 C   0  0  0  0  0  0  0  0  0  0  0  0
   -6.4890   20.3090  -31.6460 C   0  0  0  0  0  0  0  0  0  0  0  0
   -0.3780   18.8130  -32.8970 C   0  0  0  0  0  0  0  0  0  0  0  0
   -0.2270   19.7780  -31.6970 C   0  0  0  0  0  0  0  0  0  0  0  0
   -2.3193   19.7834  -26.1704 H   0  0  0  0  0  0  0  0  0  0  0  0
   -2.2487   18.5477  -27.4722 H   0  0  0  0  0  0  0  0  0  0  0  0
   -1.0891   19.9196  -27.4722 H   0  0  0  0  0  0  0  0  0  0  0  0
   -4.0440   19.8896  -28.1671 H   0  0  0  0  0  0  0  0  0  0  0  0
   -3.2556   21.4055  -27.5726 H   0  0  0  0  0  0  0  0  0  0  0  0
   -3.2130   21.3670  -29.8870 H   0  0  0  0  0  0  0  0  0  0  0  0
   -1.2129   22.1109  -28.6136 H   0  0  0  0  0  0  0  0  0  0  0  0
   -0.4742   20.5535  -29.1283 H   0  0  0  0  0  0  0  0  0  0  0  0
   -1.5259   22.8083  -30.9132 H   0  0  0  0  0  0  0  0  0  0  0  0
    0.1664   22.2204  -30.7624 H   0  0  0  0  0  0  0  0  0  0  0  0
   -1.7056   22.4149  -33.1887 H   0  0  0  0  0  0  0  0  0  0  0  0
   -0.0135   21.8053  -33.3453 H   0  0  0  0  0  0  0  0  0  0  0  0
   -2.5235   20.7993  -34.5613 H   0  0  0  0  0  0  0  0  0  0  0  0
   -0.7794   20.5576  -35.0409 H   0  0  0  0  0  0  0  0  0  0  0  0
   -3.3300   17.9765  -33.6730 H   0  0  0  0  0  0  0  0  0  0  0  0
   -2.6325   18.4447  -32.0632 H   0  0  0  0  0  0  0  0  0  0  0  0
   -3.3919   20.7845  -33.6502 H   0  0  0  0  0  0  0  0  0  0  0  0
   -4.7842   19.6368  -33.3549 H   0  0  0  0  0  0  0  0  0  0  0  0
   -3.2490   21.2430  -31.4580 H   0  0  0  0  0  0  0  0  0  0  0  0
   -3.7210   19.7480  -30.9990 H   0  0  0  0  0  0  0  0  0  0  0  0
   -3.3674   22.7021  -30.4434 H   0  0  0  0  0  0  0  0  0  0  0  0
   -3.6419   25.0713  -29.7584 H   0  0  0  0  0  0  0  0  0  0  0  0
   -5.8721   26.1605  -29.8868 H   0  0  0  0  0  0  0  0  0  0  0  0
   -7.8347   24.8934  -30.7230 H   0  0  0  0  0  0  0  0  0  0  0  0
   -9.5837   23.3929  -31.0845 H   0  0  0  0  0  0  0  0  0  0  0  0
   -8.7733   23.9591  -32.5843 H   0  0  0  0  0  0  0  0  0  0  0  0
   -9.6811   22.4091  -32.5843 H   0  0  0  0  0  0  0  0  0  0  0  0
   -9.9068   20.7049  -31.8537 H   0  0  0  0  0  0  0  0  0  0  0  0
   -9.7976   18.2457  -32.1347 H   0  0  0  0  0  0  0  0  0  0  0  0
   -7.6036   17.0821  -32.1100 H   0  0  0  0  0  0  0  0  0  0  0  0
   -5.5120   18.3601  -31.7357 H   0  0  0  0  0  0  0  0  0  0  0  0
   -0.4788   17.7874  -32.5123 H   0  0  0  0  0  0  0  0  0  0  0  0
    0.5161   18.9271  -33.5275 H   0  0  0  0  0  0  0  0  0  0  0  0
   -0.4481   19.2304  -30.7689 H   0  0  0  0  0  0  0  0  0  0  0  0
    0.8042   20.1610  -31.6920 H   0  0  0  0  0  0  0  0  0  0  0  0
  1  2  1  0
  2  3  1  0
  3  4  1  0
  4  5  1  0
  5  6  1  0
  6  7  1  0
  7  8  1  0
  8  9  1  0
  9 10  1  0
 10 11  1  0
 11 12  1  0
 12 13  1  0
 13 14  1  0
 14 15  2  0
 15 16  1  0
 16 17  2  0
 17 18  1  0
 18 19  2  0
 19 20  1  0
 20 21  1  0
 20 22  2  0
 22 23  1  0
 23 24  2  0
 24 25  1  0
 25 26  2  0
 26 27  1  0
  9 28  1  0
 28 29  1  0
 29  6  1  0
 27 13  2  0
 19 14  1  0
 27 22  1  0
  1 30  1  0
  1 31  1  0
  1 32  1  0
  2 33  1  0
  2 34  1  0
  3 35  1  0
  4 36  1  0
  4 37  1  0
  5 38  1  0
  5 39  1  0
  7 40  1  0
  7 41  1  0
  8 42  1  0
  8 43  1  0
 10 44  1  0
 10 45  1  0
 11 46  1  0
 11 47  1  0
 12 48  1  0
 12 49  1  0
 15 50  1  0
 16 51  1  0
 17 52  1  0
 18 53  1  0
 21 54  1  0
 21 55  1  0
 21 56  1  0
 23 57  1  0
 24 58  1  0
 25 59  1  0
 26 60  1  0
 28 61  1  0
 28 62  1  0
 29 63  1  0
 29 64  1  0
M  CHG  2  12   1  20   1
M  END
>  <UniqueID>  (13) 
13

>  <SMILES>  (13) 
CCNCCN1CCN(CC[NH2+]c2c3ccccc3[n+](C)c3ccccc23)CC1

>  <Energy>  (13) 
106.64753975942183

>  <Genealogy>  (13) 
CCNCCN1CCN(CC[NH2+]c2c3ccccc3[n+](C)c3ccccc23)CC1 (protonated)
CCNCCN1CCN(CC[NH2+]c2c3ccccc3[n+](C)c3ccccc23)CC1 (3D coordinates assigned)
CCNCCN1CCN(CC[NH2+]c2c3ccccc3[n+](C)c3ccccc23)CC1 (nonaromatic ring conformer: 106.64753975942183 kcal/mol)

>  <smiles>  (13) 
CCNCCN1CCN(CCNc2c3ccccc3[n+](C)c3ccccc23)CC1

>  <score_type>  (13) 
oracle

>  <origin>  (13) 
adg

>  <m_score__min__energy>  (13) 
-8.9199999999999999

>  <m_primary>  (13) 
energy

$$$$
13:0
     RDKit          3D

 56 58  0  0  0  0  0  0  0  0999 V2000
   -1.6440   25.5000  -27.0560 C   0  0  0  0  0  0  0  0  0  0  0  0
   -1.2380   25.4550  -28.5230 C   0  0  0  0  0  0  0  0  0  0  0  0
   -2.3530   24.9210  -29.3210 N   0  0  0  0  0  0  0  0  0  0  0  0
   -3.3780   24.2580  -28.5020 C   0  0  0  0  0  0  0  0  0  0  0  0
   -3.6120   22.8060  -28.9480 C   0  0  0  0  0  0  0  0  0  0  0  0
   -2.3960   21.9240  -28.6480 C   0  0  0  0  0  0  0  0  0  0  0  0
   -1.3130   22.2780  -29.4910 O   0  0  0  0  0  0  0  0  0  0  0  0
   -1.1550   21.3470  -30.5460 C   0  0  0  0  0  0  0  0  0  0  0  0
   -1.7410   21.9210  -31.8430 C   0  0  0  0  0  0  0  0  0  0  0  0
   -2.2100   20.8180  -32.8100 C   0  0  0  0  0  0  0  0  0  0  0  0
   -3.4740   21.1600  -33.4760 N   0  0  0  0  0  0  0  0  0  0  0  0
   -4.7600   20.6930  -33.0270 C   0  0  0  0  0  0  0  0  0  0  0  0
   -5.1940   19.4000  -33.3760 C   0  0  0  0  0  0  0  0  0  0  0  0
   -4.3620   18.5330  -34.1160 C   0  0  0  0  0  0  0  0  0  0  0  0
   -4.8230   17.2850  -34.5300 C   0  0  0  0  0  0  0  0  0  0  0  0
   -6.1180   16.8850  -34.2240 C   0  0  0  0  0  0  0  0  0  0  0  0
   -6.9490   17.7150  -33.4740 C   0  0  0  0  0  0  0  0  0  0  0  0
   -6.4950   18.9710  -33.0000 C   0  0  0  0  0  0  0  0  0  0  0  0
   -7.2910   19.7780  -32.2100 N   0  0  0  0  0  0  0  0  0  0  0  0
   -8.4980   19.2150  -31.5660 C   0  0  0  0  0  0  0  0  0  0  0  0
   -6.9270   21.0890  -31.9710 C   0  0  0  0  0  0  0  0  0  0  0  0
   -7.8280   22.0190  -31.3940 C   0  0  0  0  0  0  0  0  0  0  0  0
   -7.4170   23.3090  -31.0640 C   0  0  0  0  0  0  0  0  0  0  0  0
   -6.1030   23.7050  -31.2950 C   0  0  0  0  0  0  0  0  0  0  0  0
   -5.5800   25.3150  -30.8340 Cl  0  0  0  0  0  0  0  0  0  0  0  0
   -5.2100   22.8300  -31.9090 C   0  0  0  0  0  0  0  0  0  0  0  0
   -5.6230   21.5410  -32.3090 C   0  0  0  0  0  0  0  0  0  0  0  0
   -0.7488   25.4008  -26.4246 H   0  0  0  0  0  0  0  0  0  0  0  0
   -2.1393   26.4585  -26.8419 H   0  0  0  0  0  0  0  0  0  0  0  0
   -2.3372   24.6732  -26.8419 H   0  0  0  0  0  0  0  0  0  0  0  0
   -0.9930   26.4705  -28.8676 H   0  0  0  0  0  0  0  0  0  0  0  0
   -0.3571   24.8069  -28.6414 H   0  0  0  0  0  0  0  0  0  0  0  0
   -1.9870   24.2530  -30.0400 H   0  0  0  0  0  0  0  0  0  0  0  0
   -3.0509   24.2598  -27.4517 H   0  0  0  0  0  0  0  0  0  0  0  0
   -4.3221   24.8096  -28.6224 H   0  0  0  0  0  0  0  0  0  0  0  0
   -4.4856   22.4043  -28.4137 H   0  0  0  0  0  0  0  0  0  0  0  0
   -3.7819   22.8018  -30.0348 H   0  0  0  0  0  0  0  0  0  0  0  0
   -2.0985   22.0608  -27.5979 H   0  0  0  0  0  0  0  0  0  0  0  0
   -2.6626   20.8724  -28.8296 H   0  0  0  0  0  0  0  0  0  0  0  0
   -0.0847   21.1382  -30.6907 H   0  0  0  0  0  0  0  0  0  0  0  0
   -1.6846   20.4174  -30.2903 H   0  0  0  0  0  0  0  0  0  0  0  0
   -2.6005   22.5594  -31.5908 H   0  0  0  0  0  0  0  0  0  0  0  0
   -0.9485   22.4949  -32.3456 H   0  0  0  0  0  0  0  0  0  0  0  0
   -1.4358   20.6673  -33.5767 H   0  0  0  0  0  0  0  0  0  0  0  0
   -2.3766   19.9036  -32.2217 H   0  0  0  0  0  0  0  0  0  0  0  0
   -3.4540   21.8950  -34.2190 H   0  0  0  0  0  0  0  0  0  0  0  0
   -3.3382   18.8459  -34.3688 H   0  0  0  0  0  0  0  0  0  0  0  0
   -4.1612   16.6159  -35.0995 H   0  0  0  0  0  0  0  0  0  0  0  0
   -6.4883   15.9104  -34.5748 H   0  0  0  0  0  0  0  0  0  0  0  0
   -7.9748   17.3897  -33.2460 H   0  0  0  0  0  0  0  0  0  0  0  0
   -8.3880   19.2663  -30.4727 H   0  0  0  0  0  0  0  0  0  0  0  0
   -9.3814   19.7940  -31.8732 H   0  0  0  0  0  0  0  0  0  0  0  0
   -8.6221   18.1661  -31.8732 H   0  0  0  0  0  0  0  0  0  0  0  0
   -8.8686   21.7174  -31.2036 H   0  0  0  0  0  0  0  0  0  0  0  0
   -8.1330   24.0161  -30.6198 H   0  0  0  0  0  0  0  0  0  0  0  0
   -4.1714   23.1471  -32.0841 H   0  0  0  0  0  0  0  0  0  0  0  0
  1  2  1  0
  2  3  1  0
  3  4  1  0
  4  5  1  0
  5  6  1  0
  6  7  1  0
  7  8  1  0
  8  9  1  0
  9 10  1  0
 10 11  1  0
 11 12  1  0
 12 13  2  0
 13 14  1  0
 14 15  2  0
 15 16  1  0
 16 17  2  0
 17 18  1  0
 18 19  2  0
 19 20  1  0
 19 21  1  0
 21 22  2  0
 22 23  1  0
 23 24  2  0
 24 25  1  0
 24 26  1  0
 26 27  2  0
 27 12  1  0
 18 13  1  0
 27 21  1  0
  1 28  1  0
  1 29  1  0
  1 30  1  0
  2 31  1  0
  2 32  1  0
  3 33  1  0
  4 34  1  0
  4 35  1  0
  5 36  1  0
  5 37  1  0
  6 38  1  0
  6 39  1  0
  8 40  1  0
  8 41  1  0
  9 42  1  0
  9 43  1  0
 10 44  1  0
 10 45  1  0
 11 46  1  0
 14 47  1  0
 15 48  1  0
 16 49  1  0
 17 50  1  0
 20 51  1  0
 20 52  1  0
 20 53  1  0
 22 54  1  0
 23 55  1  0
 26 56  1  0
M  CHG  1  19   1
M  END
>  <UniqueID>  (14) 
14

>  <SMILES>  (14) 
CCNCCCOCCCNc1c2ccccc2[n+](C)c2ccc(Cl)cc12

>  <Energy>  (14) 
74.9804144662049

>  <Genealogy>  (14) 
CCNCCCOCCCNc1c2ccccc2[n+](C)c2ccc(Cl)cc12 (3D coordinates assigned)
CCNCCCOCCCNc1c2ccccc2[n+](C)c2ccc(Cl)cc12 (optimized conformer: 74.9804144662049 kcal/mol)

>  <smiles>  (14) 
CCNCCCOCCCNc1c2ccccc2[n+](C)c2ccc(Cl)cc12

>  <score_type>  (14) 
oracle

>  <origin>  (14) 
adg

>  <m_score__min__energy>  (14) 
-9.5199999999999996

>  <m_primary>  (14) 
energy

$$$$
14:0
     RDKit          3D

 49 51  0  0  0  0  0  0  0  0999 V2000
   -3.8530   21.9320  -33.1040 C   0  0  0  0  0  0  0  0  0  0  0  0
   -3.9560   22.1110  -31.5920 C   0  0  0  0  0  0  0  0  0  0  0  0
   -4.8130   23.2530  -31.2700 N   0  0  0  0  0  0  0  0  0  0  0  0
   -4.3240   24.3980  -30.8190 N   0  0  0  0  0  0  0  0  0  0  0  0
   -5.3600   25.2130  -30.5410 C   0  0  0  0  0  0  0  0  0  0  0  0
   -6.5470   24.5640  -30.8160 C   0  0  0  0  0  0  0  0  0  0  0  0
   -6.1670   23.3250  -31.2910 C   0  0  0  0  0  0  0  0  0  0  0  0
   -7.1100   22.2650  -31.7010 C   0  0  0  0  0  0  0  0  0  0  0  0
   -8.4860   22.3720  -31.4660 C   0  0  0  0  0  0  0  0  0  0  0  0
   -9.3120   21.3150  -31.8450 C   0  0  0  0  0  0  0  0  0  0  0  0
   -8.7770   20.2040  -32.4120 N   0  0  0  0  0  0  0  0  0  0  0  0
   -7.4360   20.0950  -32.6160 C   0  0  0  0  0  0  0  0  0  0  0  0
   -6.8900   18.8990  -33.2100 N   0  0  0  0  0  0  0  0  0  0  0  0
   -5.9970   18.9700  -34.3760 C   0  0  0  0  0  0  0  0  0  0  0  0
   -4.8450   17.9740  -34.2070 C   0  0  0  0  0  0  0  0  0  0  0  0
   -5.3300   16.5200  -33.9400 C   0  0  0  0  0  0  0  0  0  0  0  0
   -4.4750   15.8390  -32.8470 C   0  0  0  0  0  0  0  0  0  0  0  0
   -4.6260   14.3670  -32.9050 N   0  0  0  0  0  0  0  0  0  0  0  0
   -3.5710   13.7700  -33.7400 C   0  0  0  0  0  0  0  0  0  0  0  0
   -4.5840   13.7750  -31.5560 C   0  0  0  0  0  0  0  0  0  0  0  0
   -6.8350   16.4430  -33.5890 C   0  0  0  0  0  0  0  0  0  0  0  0
   -7.2800   17.5870  -32.6690 C   0  0  0  0  0  0  0  0  0  0  0  0
   -6.6190   21.1230  -32.2550 N   0  0  0  0  0  0  0  0  0  0  0  0
   -3.3158   20.9984  -33.3269 H   0  0  0  0  0  0  0  0  0  0  0  0
   -4.8630   21.8864  -33.5375 H   0  0  0  0  0  0  0  0  0  0  0  0
   -3.3060   22.7822  -33.5375 H   0  0  0  0  0  0  0  0  0  0  0  0
   -4.3839   21.2002  -31.1476 H   0  0  0  0  0  0  0  0  0  0  0  0
   -2.9505   22.2940  -31.1853 H   0  0  0  0  0  0  0  0  0  0  0  0
   -5.2733   26.2390  -30.1540 H   0  0  0  0  0  0  0  0  0  0  0  0
   -7.5691   24.9490  -30.6855 H   0  0  0  0  0  0  0  0  0  0  0  0
   -8.9065   23.2713  -30.9922 H   0  0  0  0  0  0  0  0  0  0  0  0
  -10.3982   21.3814  -31.6844 H   0  0  0  0  0  0  0  0  0  0  0  0
   -6.5636   18.7225  -35.2858 H   0  0  0  0  0  0  0  0  0  0  0  0
   -5.5885   19.9879  -34.4600 H   0  0  0  0  0  0  0  0  0  0  0  0
   -4.2407   17.9783  -35.1261 H   0  0  0  0  0  0  0  0  0  0  0  0
   -4.2624   18.2919  -33.3298 H   0  0  0  0  0  0  0  0  0  0  0  0
   -5.1966   15.9703  -34.8834 H   0  0  0  0  0  0  0  0  0  0  0  0
   -3.4175   16.0998  -33.0012 H   0  0  0  0  0  0  0  0  0  0  0  0
   -4.8153   16.1906  -31.8619 H   0  0  0  0  0  0  0  0  0  0  0  0
   -2.7962   13.3315  -33.0939 H   0  0  0  0  0  0  0  0  0  0  0  0
   -4.0065   12.9845  -34.3750 H   0  0  0  0  0  0  0  0  0  0  0  0
   -3.1219   14.5478  -34.3750 H   0  0  0  0  0  0  0  0  0  0  0  0
   -4.6407   14.5746  -30.8027 H   0  0  0  0  0  0  0  0  0  0  0  0
   -5.4359   13.0907  -31.4292 H   0  0  0  0  0  0  0  0  0  0  0  0
   -3.6441   13.2178  -31.4292 H   0  0  0  0  0  0  0  0  0  0  0  0
   -7.4180   16.4917  -34.5205 H   0  0  0  0  0  0  0  0  0  0  0  0
   -7.0069   15.4968  -33.0550 H   0  0  0  0  0  0  0  0  0  0  0  0
   -8.3745   17.5552  -32.5634 H   0  0  0  0  0  0  0  0  0  0  0  0
   -6.7878   17.4563  -31.6940 H   0  0  0  0  0  0  0  0  0  0  0  0
  1  2  1  0
  2  3  1  0
  3  4  1  0
  4  5  2  0
  5  6  1  0
  6  7  2  0
  7  8  1  0
  8  9  2  0
  9 10  1  0
 10 11  2  0
 11 12  1  0
 12 13  1  0
 13 14  1  0
 14 15  1  0
 15 16  1  0
 16 17  1  0
 17 18  1  0
 18 19  1  0
 18 20  1  0
 16 21  1  0
 21 22  1  0
 12 23  2  0
  7  3  1  0
 23  8  1  0
 22 13  1  0
  1 24  1  0
  1 25  1  0
  1 26  1  0
  2 27  1  0
  2 28  1  0
  5 29  1  0
  6 30  1  0
  9 31  1  0
 10 32  1  0
 14 33  1  0
 14 34  1  0
 15 35  1  0
 15 36  1  0
 16 37  1  0
 17 38  1  0
 17 39  1  0
 19 40  1  0
 19 41  1  0
 19 42  1  0
 20 43  1  0
 20 44  1  0
 20 45  1  0
 21 46  1  0
 21 47  1  0
 22 48  1  0
 22 49  1  0
M  END
>  <UniqueID>  (15) 
15

>  <SMILES>  (15) 
CCn1nccc1-c1ccnc(N2CCC(CN(C)C)CC2)n1

>  <Energy>  (15) 
84.46785457661504

>  <Genealogy>  (15) 
CCn1nccc1-c1ccnc(N2CCC(CN(C)C)CC2)n1 (3D coordinates assigned)
CCn1nccc1-c1ccnc(N2CCC(CN(C)C)CC2)n1 (nonaromatic ring conformer: 84.46785457661504 kcal/mol)

>  <smiles>  (15) 
CCn1nccc1-c1ccnc(N2CCC(CN(C)C)CC2)n1

>  <score_type>  (15) 
oracle

>  <origin>  (15) 
adg

>  <m_score__min__energy>  (15) 
-8.0899999999999999

>  <m_primary>  (15) 
energy

$$$$
15:0
     RDKit          3D

 34 36  0  0  0  0  0  0  0  0999 V2000
   -6.0770   18.7170  -34.5710 C   0  0  0  0  0  0  0  0  0  0  0  0
   -5.9340   19.5500  -33.3810 N   0  0  0  0  0  0  0  0  0  0  0  0
   -4.7850   19.8010  -32.7120 C   0  0  0  0  0  0  0  0  0  0  0  0
   -5.0400   20.6030  -31.6040 C   0  0  0  0  0  0  0  0  0  0  0  0
   -4.0320   21.0530  -30.5890 C   0  0  0  0  0  0  0  0  0  0  0  0
   -4.1760   22.4990  -30.3230 N   0  0  0  0  0  0  0  0  0  0  0  0
   -4.6610   23.2100  -31.5270 C   0  0  0  0  0  0  0  0  0  0  0  0
   -5.0340   24.6450  -31.1520 C   0  0  0  0  0  0  0  0  0  0  0  0
   -3.9230   25.3000  -30.4720 N   0  0  0  0  0  0  0  0  0  0  0  0
   -2.9620   24.5550  -29.7240 C   0  0  0  0  0  0  0  0  0  0  0  0
   -2.1230   25.1600  -29.0060 O   0  0  0  0  0  0  0  0  0  0  0  0
   -2.8840   23.0610  -29.8780 C   0  0  0  0  0  0  0  0  0  0  0  0
   -6.4060   20.8250  -31.6040 C   0  0  0  0  0  0  0  0  0  0  0  0
   -7.2260   21.5280  -30.7200 C   0  0  0  0  0  0  0  0  0  0  0  0
   -8.6070   21.5560  -30.9830 C   0  0  0  0  0  0  0  0  0  0  0  0
   -9.1340   20.8840  -32.1080 C   0  0  0  0  0  0  0  0  0  0  0  0
   -8.2860   20.1790  -32.9800 C   0  0  0  0  0  0  0  0  0  0  0  0
   -6.9180   20.1700  -32.6980 C   0  0  0  0  0  0  0  0  0  0  0  0
   -6.2560   17.6744  -34.2694 H   0  0  0  0  0  0  0  0  0  0  0  0
   -6.9266   19.0764  -35.1702 H   0  0  0  0  0  0  0  0  0  0  0  0
   -5.1562   18.7724  -35.1702 H   0  0  0  0  0  0  0  0  0  0  0  0
   -3.7927   19.4253  -33.0022 H   0  0  0  0  0  0  0  0  0  0  0  0
   -4.1867   20.4956  -29.6534 H   0  0  0  0  0  0  0  0  0  0  0  0
   -3.0223   20.8622  -30.9814 H   0  0  0  0  0  0  0  0  0  0  0  0
   -3.8683   23.2239  -32.2895 H   0  0  0  0  0  0  0  0  0  0  0  0
   -5.5449   22.6930  -31.9286 H   0  0  0  0  0  0  0  0  0  0  0  0
   -5.2803   25.2056  -32.0658 H   0  0  0  0  0  0  0  0  0  0  0  0
   -5.9014   24.6221  -30.4759 H   0  0  0  0  0  0  0  0  0  0  0  0
   -2.1118   22.8174  -30.6225 H   0  0  0  0  0  0  0  0  0  0  0  0
   -2.6335   22.6238  -28.9002 H   0  0  0  0  0  0  0  0  0  0  0  0
   -6.8049   22.0442  -29.8446 H   0  0  0  0  0  0  0  0  0  0  0  0
   -9.2810   22.1045  -30.3086 H   0  0  0  0  0  0  0  0  0  0  0  0
  -10.2161   20.9125  -32.3034 H   0  0  0  0  0  0  0  0  0  0  0  0
   -8.6875   19.6507  -33.8574 H   0  0  0  0  0  0  0  0  0  0  0  0
  1  2  1  0
  2  3  1  0
  3  4  2  0
  4  5  1  0
  5  6  1  0
  6  7  1  0
  7  8  1  0
  8  9  1  0
  9 10  1  0
 10 11  2  0
 10 12  1  0
  4 13  1  0
 13 14  2  0
 14 15  1  0
 15 16  2  0
 16 17  1  0
 17 18  2  0
 18  2  1  0
 12  6  1  0
 18 13  1  0
  1 19  1  0
  1 20  1  0
  1 21  1  0
  3 22  1  0
  5 23  1  0
  5 24  1  0
  7 25  1  0
  7 26  1  0
  8 27  1  0
  8 28  1  0
 12 29  1  0
 12 30  1  0
 14 31  1  0
 15 32  1  0
 16 33  1  0
 17 34  1  0
M  CHG  1   9  -1
M  END
>  <UniqueID>  (16) 
16

>  <SMILES>  (16) 
Cn1cc(CN2CC[N-]C(=O)C2)c2ccccc21

>  <Energy>  (16) 
69.1388720551387

>  <Genealogy>  (16) 
Cn1cc(CN2CC[N-]C(=O)C2)c2ccccc21 (protonated)
Cn1cc(CN2CC[N-]C(=O)C2)c2ccccc21 (3D coordinates assigned)
Cn1cc(CN2CC[N-]C(=O)C2)c2ccccc21 (nonaromatic ring conformer: 69.1388720551387 kcal/mol)

>  <smiles>  (16) 
Cn1cc(CN2CCNC(=O)C2)c2ccccc21

>  <score_type>  (16) 
oracle

>  <origin>  (16) 
adg

>  <m_score__min__energy>  (16) 
-8.9100000000000001

>  <m_primary>  (16) 
energy

$$$$
16:0
     RDKit          3D

 46 48  0  0  0  0  0  0  0  0999 V2000
   -5.7190   25.2900  -30.5950 C   0  0  0  0  0  0  0  0  0  0  0  0
   -4.7630   24.1700  -30.1990 C   0  0  0  0  0  0  0  0  0  0  0  0
   -4.2770   23.5110  -31.3530 O   0  0  0  0  0  0  0  0  0  0  0  0
   -3.7220   22.2570  -31.0120 C   0  0  0  0  0  0  0  0  0  0  0  0
   -3.6010   21.3900  -32.2660 C   0  0  0  0  0  0  0  0  0  0  0  0
   -4.6650   21.6990  -33.2370 N   0  0  0  0  0  0  0  0  0  0  0  0
   -5.8180   20.8350  -33.0340 C   0  0  0  0  0  0  0  0  0  0  0  0
   -7.0360   21.3580  -32.5240 C   0  0  0  0  0  0  0  0  0  0  0  0
   -7.2390   22.7500  -32.3640 C   0  0  0  0  0  0  0  0  0  0  0  0
   -8.4500   23.2500  -31.8930 C   0  0  0  0  0  0  0  0  0  0  0  0
   -9.4900   22.3840  -31.5860 C   0  0  0  0  0  0  0  0  0  0  0  0
   -9.3200   21.0100  -31.7320 C   0  0  0  0  0  0  0  0  0  0  0  0
   -8.0880   20.4650  -32.1770 C   0  0  0  0  0  0  0  0  0  0  0  0
   -7.9070   19.1020  -32.2870 N   0  0  0  0  0  0  0  0  0  0  0  0
   -8.8500   18.1740  -31.6230 C   0  0  0  0  0  0  0  0  0  0  0  0
   -6.8420   18.6040  -33.0100 C   0  0  0  0  0  0  0  0  0  0  0  0
   -6.7990   17.2460  -33.4140 C   0  0  0  0  0  0  0  0  0  0  0  0
   -5.7110   16.7330  -34.1140 C   0  0  0  0  0  0  0  0  0  0  0  0
   -4.6460   17.5610  -34.4640 C   0  0  0  0  0  0  0  0  0  0  0  0
   -3.4610   17.0000  -35.1960 C   0  0  0  0  0  0  0  0  0  0  0  0
   -4.6700   18.9090  -34.0910 C   0  0  0  0  0  0  0  0  0  0  0  0
   -5.7650   19.4570  -33.3780 C   0  0  0  0  0  0  0  0  0  0  0  0
   -6.1237   25.7642  -29.6887 H   0  0  0  0  0  0  0  0  0  0  0  0
   -5.1783   26.0400  -31.1910 H   0  0  0  0  0  0  0  0  0  0  0  0
   -6.5446   24.8738  -31.1910 H   0  0  0  0  0  0  0  0  0  0  0  0
   -3.9165   24.5956  -29.6401 H   0  0  0  0  0  0  0  0  0  0  0  0
   -5.3009   23.4443  -29.5713 H   0  0  0  0  0  0  0  0  0  0  0  0
   -2.7247   22.4057  -30.5724 H   0  0  0  0  0  0  0  0  0  0  0  0
   -4.3753   21.7550  -30.2831 H   0  0  0  0  0  0  0  0  0  0  0  0
   -2.6234   21.5740  -32.7355 H   0  0  0  0  0  0  0  0  0  0  0  0
   -3.6987   20.3354  -31.9689 H   0  0  0  0  0  0  0  0  0  0  0  0
   -4.9400   22.7040  -33.1710 H   0  0  0  0  0  0  0  0  0  0  0  0
   -4.3100   21.6100  -34.2150 H   0  0  0  0  0  0  0  0  0  0  0  0
   -6.4268   23.4478  -32.6159 H   0  0  0  0  0  0  0  0  0  0  0  0
   -8.5828   24.3343  -31.7639 H   0  0  0  0  0  0  0  0  0  0  0  0
  -10.4498   22.7837  -31.2269 H   0  0  0  0  0  0  0  0  0  0  0  0
  -10.1561   20.3346  -31.4981 H   0  0  0  0  0  0  0  0  0  0  0  0
   -8.7520   18.2704  -30.5316 H   0  0  0  0  0  0  0  0  0  0  0  0
   -9.8793   18.4211  -31.9220 H   0  0  0  0  0  0  0  0  0  0  0  0
   -8.6194   17.1408  -31.9220 H   0  0  0  0  0  0  0  0  0  0  0  0
   -7.6428   16.5841  -33.1693 H   0  0  0  0  0  0  0  0  0  0  0  0
   -5.6916   15.6690  -34.3923 H   0  0  0  0  0  0  0  0  0  0  0  0
   -2.7147   16.6467  -34.4692 H   0  0  0  0  0  0  0  0  0  0  0  0
   -3.7844   16.1594  -35.8275 H   0  0  0  0  0  0  0  0  0  0  0  0
   -3.0158   17.7829  -35.8275 H   0  0  0  0  0  0  0  0  0  0  0  0
   -3.8215   19.5567  -34.3566 H   0  0  0  0  0  0  0  0  0  0  0  0
  1  2  1  0
  2  3  1  0
  3  4  1  0
  4  5  1  0
  5  6  1  0
  6  7  1  0
  7  8  2  0
  8  9  1  0
  9 10  2  0
 10 11  1  0
 11 12  2  0
 12 13  1  0
 13 14  2  0
 14 15  1  0
 14 16  1  0
 16 17  2  0
 17 18  1  0
 18 19  2  0
 19 20  1  0
 19 21  1  0
 21 22  2  0
 22  7  1  0
 13  8  1  0
 22 16  1  0
  1 23  1  0
  1 24  1  0
  1 25  1  0
  2 26  1  0
  2 27  1  0
  4 28  1  0
  4 29  1  0
  5 30  1  0
  5 31  1  0
  6 32  1  0
  6 33  1  0
  9 34  1  0
 10 35  1  0
 11 36  1  0
 12 37  1  0
 15 38  1  0
 15 39  1  0
 15 40  1  0
 17 41  1  0
 18 42  1  0
 20 43  1  0
 20 44  1  0
 20 45  1  0
 21 46  1  0
M  CHG  2   6   1  14   1
M  END
>  <UniqueID>  (17) 
17

>  <SMILES>  (17) 
CCOCC[NH2+]c1c2ccccc2[n+](C)c2ccc(C)cc12

>  <Energy>  (17) 
71.78777327815064

>  <Genealogy>  (17) 
CCOCC[NH2+]c1c2ccccc2[n+](C)c2ccc(C)cc12 (protonated)
CCOCC[NH2+]c1c2ccccc2[n+](C)c2ccc(C)cc12 (3D coordinates assigned)
CCOCC[NH2+]c1c2ccccc2[n+](C)c2ccc(C)cc12 (optimized conformer: 71.78777327815064 kcal/mol)

>  <smiles>  (17) 
CCOCCNc1c2ccccc2[n+](C)c2ccc(C)cc12

>  <score_type>  (17) 
oracle

>  <origin>  (17) 
adg

>  <m_score__min__energy>  (17) 
-7.5599999999999996

>  <m_primary>  (17) 
energy

$$$$
17:0
     RDKit          3D

 32 34  0  0  0  0  0  0  0  0999 V2000
   -9.8519   18.9523  -32.3137 H   0  0  0  0  0  0  0  0  0  0  0  0
   -8.9050   19.5120  -32.3010 C   0  0  0  0  0  0  0  0  0  0  0  0
   -7.6870   18.8390  -32.5870 C   0  0  0  0  0  0  0  0  0  0  0  0
   -7.6300   17.4700  -32.8920 O   0  0  0  0  0  0  0  0  0  0  0  0
   -6.4410   16.7320  -33.1740 C   0  0  0  0  0  0  0  0  0  0  0  0
   -6.6604   15.6560  -33.1093 H   0  0  0  0  0  0  0  0  0  0  0  0
   -5.6706   17.0102  -32.4398 H   0  0  0  0  0  0  0  0  0  0  0  0
   -5.9230   17.0540  -34.5730 C   0  0  0  0  0  0  0  0  0  0  0  0
   -4.9912   17.6333  -34.4946 H   0  0  0  0  0  0  0  0  0  0  0  0
   -5.7281   16.1176  -35.1163 H   0  0  0  0  0  0  0  0  0  0  0  0
   -6.6764   17.6432  -35.1163 H   0  0  0  0  0  0  0  0  0  0  0  0
   -6.4810   19.5620  -32.5750 C   0  0  0  0  0  0  0  0  0  0  0  0
   -5.5262   19.0627  -32.7963 H   0  0  0  0  0  0  0  0  0  0  0  0
   -6.5180   20.9210  -32.2780 C   0  0  0  0  0  0  0  0  0  0  0  0
   -5.2400   22.0060  -32.1780 S   0  0  0  0  0  0  0  0  0  0  0  0
   -6.2670   23.2920  -31.7870 C   0  0  0  0  0  0  0  0  0  0  0  0
   -5.8250   24.4940  -31.5490 N   0  0  0  0  0  0  0  0  0  0  0  0
   -4.8930   24.9080  -30.5390 C   0  0  0  0  0  0  0  0  0  0  0  0
   -3.8670   25.5790  -30.8300 O   0  0  0  0  0  0  0  0  0  0  0  0
   -5.0770   24.4260  -29.1350 C   0  0  0  0  0  0  0  0  0  0  0  0
   -5.9958   24.9957  -28.9320 H   0  0  0  0  0  0  0  0  0  0  0  0
   -3.7810   24.1600  -28.3820 C   0  0  0  0  0  0  0  0  0  0  0  0
   -2.8139   24.3889  -28.8536 H   0  0  0  0  0  0  0  0  0  0  0  0
   -3.3744   24.4574  -27.4041 H   0  0  0  0  0  0  0  0  0  0  0  0
   -4.6170   22.9980  -28.8890 C   0  0  0  0  0  0  0  0  0  0  0  0
   -4.2549   22.3850  -29.7275 H   0  0  0  0  0  0  0  0  0  0  0  0
   -5.0662   22.1051  -28.4296 H   0  0  0  0  0  0  0  0  0  0  0  0
   -7.5690   22.9040  -31.7180 N   0  0  0  0  0  0  0  0  0  0  0  0
   -8.3780   23.5050  -31.4520 H   0  0  0  0  0  0  0  0  0  0  0  0
   -7.7030   21.5800  -31.9960 C   0  0  0  0  0  0  0  0  0  0  0  0
   -8.9130   20.8850  -32.0020 C   0  0  0  0  0  0  0  0  0  0  0  0
   -9.8568   21.4030  -31.7766 H   0  0  0  0  0  0  0  0  0  0  0  0
  1  2  1  0
  2  3  2  0
  3  4  1  0
  4  5  1  0
  5  6  1  0
  5  7  1  0
  5  8  1  0
  8  9  1  0
  8 10  1  0
  8 11  1  0
  3 12  1  0
 12 13  1  0
 12 14  2  0
 14 15  1  0
 15 16  1  0
 16 17  2  0
 17 18  1  0
 18 19  2  0
 18 20  1  0
 20 21  1  0
 20 22  1  0
 22 23  1  0
 22 24  1  0
 22 25  1  0
 25 26  1  0
 25 27  1  0
 16 28  1  0
 28 29  1  0
 28 30  1  0
 30 31  2  0
 31 32  1  0
 31  2  1  0
 30 14  1  0
 25 20  1  0
M  END
>  <UniqueID>  (18) 
18

>  <SMILES>  (18) 
CCOc1ccc2[nH]/c(=N\C(=O)C3CC3)sc2c1

>  <Energy>  (18) 
333.23388736493024

>  <Genealogy>  (18) 
CCOc1ccc2[nH]/c(=N\C(=O)C3CC3)sc2c1 (cis-trans isomerization)
CCOc1ccc2[nH]/c(=N\C(=O)C3CC3)sc2c1 (3D coordinates assigned)
CCOc1ccc2[nH]/c(=N\C(=O)C3CC3)sc2c1 (nonaromatic ring conformer: 333.23388736493024 kcal/mol)

>  <smiles>  (18) 
CCOc1ccc2[nH]c(=NC(=O)C3CC3)sc2c1

>  <score_type>  (18) 
oracle

>  <origin>  (18) 
adg

>  <m_score__min__energy>  (18) 
-7.3499999999999996

>  <m_primary>  (18) 
energy

$$$$
18:0
     RDKit          3D

 50 52  0  0  0  0  0  0  0  0999 V2000
   -9.2290   23.3070  -32.3020 C   0  0  0  0  0  0  0  0  0  0  0  0
   -9.8270   21.9460  -31.9560 C   0  0  0  0  0  0  0  0  0  0  0  0
   -8.9600   21.1590  -30.9610 C   0  0  0  0  0  0  0  0  0  0  0  0
   -7.6150   20.8780  -31.5090 N   0  0  0  0  0  0  0  0  0  0  0  0
   -6.5410   21.6750  -31.1750 C   0  0  0  0  0  0  0  0  0  0  0  0
   -6.6840   23.0650  -30.0360 S   0  0  0  0  0  0  0  0  0  0  0  0
   -6.0390   24.2770  -31.2380 C   0  0  0  0  0  0  0  0  0  0  0  0
   -5.2710   25.3880  -30.5230 C   0  0  0  0  0  0  0  0  0  0  0  0
   -3.8710   25.1060  -30.4630 O   0  0  0  0  0  0  0  0  0  0  0  0
   -3.3440   23.9380  -29.8990 C   0  0  0  0  0  0  0  0  0  0  0  0
   -2.6850   23.0340  -30.7430 C   0  0  0  0  0  0  0  0  0  0  0  0
   -2.0980   21.8710  -30.2280 C   0  0  0  0  0  0  0  0  0  0  0  0
   -1.3290   20.9500  -31.1270 C   0  0  0  0  0  0  0  0  0  0  0  0
   -2.1680   21.6160  -28.8520 C   0  0  0  0  0  0  0  0  0  0  0  0
   -2.8590   22.4890  -28.0080 C   0  0  0  0  0  0  0  0  0  0  0  0
   -3.4760   23.6400  -28.5230 C   0  0  0  0  0  0  0  0  0  0  0  0
   -4.2520   24.5280  -27.5910 C   0  0  0  0  0  0  0  0  0  0  0  0
   -5.3160   21.4340  -31.7080 N   0  0  0  0  0  0  0  0  0  0  0  0
   -5.1020   20.4130  -32.5700 C   0  0  0  0  0  0  0  0  0  0  0  0
   -3.8220   20.1980  -33.0950 C   0  0  0  0  0  0  0  0  0  0  0  0
   -3.6010   19.1430  -33.9840 C   0  0  0  0  0  0  0  0  0  0  0  0
   -4.6550   18.3020  -34.3520 C   0  0  0  0  0  0  0  0  0  0  0  0
   -5.9360   18.5120  -33.8310 C   0  0  0  0  0  0  0  0  0  0  0  0
   -6.1680   19.5730  -32.9320 C   0  0  0  0  0  0  0  0  0  0  0  0
   -7.4360   19.8300  -32.3830 C   0  0  0  0  0  0  0  0  0  0  0  0
   -8.4100   19.0920  -32.7010 O   0  0  0  0  0  0  0  0  0  0  0  0
   -8.9908   23.8492  -31.3750 H   0  0  0  0  0  0  0  0  0  0  0  0
   -8.3104   23.1650  -32.8902 H   0  0  0  0  0  0  0  0  0  0  0  0
   -9.9549   23.8876  -32.8902 H   0  0  0  0  0  0  0  0  0  0  0  0
  -10.8217   22.1001  -31.5124 H   0  0  0  0  0  0  0  0  0  0  0  0
   -9.8853   21.3602  -32.8852 H   0  0  0  0  0  0  0  0  0  0  0  0
   -8.8529   21.7480  -30.0382 H   0  0  0  0  0  0  0  0  0  0  0  0
   -9.4558   20.1978  -30.7603 H   0  0  0  0  0  0  0  0  0  0  0  0
   -5.3644   23.7656  -31.9404 H   0  0  0  0  0  0  0  0  0  0  0  0
   -6.8856   24.7236  -31.7800 H   0  0  0  0  0  0  0  0  0  0  0  0
   -5.4218   26.3326  -31.0661 H   0  0  0  0  0  0  0  0  0  0  0  0
   -5.6514   25.4614  -29.4935 H   0  0  0  0  0  0  0  0  0  0  0  0
   -2.6280   23.2400  -31.8220 H   0  0  0  0  0  0  0  0  0  0  0  0
   -0.7424   20.2474  -30.5169 H   0  0  0  0  0  0  0  0  0  0  0  0
   -2.0296   20.3878  -31.7618 H   0  0  0  0  0  0  0  0  0  0  0  0
   -0.6508   21.5391  -31.7618 H   0  0  0  0  0  0  0  0  0  0  0  0
   -1.6768   20.7247  -28.4345 H   0  0  0  0  0  0  0  0  0  0  0  0
   -2.9201   22.2727  -26.9312 H   0  0  0  0  0  0  0  0  0  0  0  0
   -4.0182   24.2604  -26.5500 H   0  0  0  0  0  0  0  0  0  0  0  0
   -3.9766   25.5777  -27.7705 H   0  0  0  0  0  0  0  0  0  0  0  0
   -5.3292   24.3957  -27.7705 H   0  0  0  0  0  0  0  0  0  0  0  0
   -2.9911   20.8591  -32.8078 H   0  0  0  0  0  0  0  0  0  0  0  0
   -2.5949   18.9738  -34.3953 H   0  0  0  0  0  0  0  0  0  0  0  0
   -4.4767   17.4732  -35.0529 H   0  0  0  0  0  0  0  0  0  0  0  0
   -6.7634   17.8486  -34.1230 H   0  0  0  0  0  0  0  0  0  0  0  0
  1  2  1  0
  2  3  1  0
  3  4  1  0
  4  5  1  0
  5  6  1  0
  6  7  1  0
  7  8  1  0
  8  9  1  0
  9 10  1  0
 10 11  2  0
 11 12  1  0
 12 13  1  0
 12 14  2  0
 14 15  1  0
 15 16  2  0
 16 17  1  0
  5 18  2  0
 18 19  1  0
 19 20  2  0
 20 21  1  0
 21 22  2  0
 22 23  1  0
 23 24  2  0
 24 25  1  0
 25 26  2  0
 25  4  1  0
 16 10  1  0
 24 19  1  0
  1 27  1  0
  1 28  1  0
  1 29  1  0
  2 30  1  0
  2 31  1  0
  3 32  1  0
  3 33  1  0
  7 34  1  0
  7 35  1  0
  8 36  1  0
  8 37  1  0
 11 38  1  0
 13 39  1  0
 13 40  1  0
 13 41  1  0
 14 42  1  0
 15 43  1  0
 17 44  1  0
 17 45  1  0
 17 46  1  0
 20 47  1  0
 21 48  1  0
 22 49  1  0
 23 50  1  0
M  END
>  <UniqueID>  (19) 
19

>  <SMILES>  (19) 
CCCn1c(SCCOc2cc(C)ccc2C)nc2ccccc2c1=O

>  <Energy>  (19) 
52.888382004616176

>  <Genealogy>  (19) 
CCCn1c(SCCOc2cc(C)ccc2C)nc2ccccc2c1=O (3D coordinates assigned)
CCCn1c(SCCOc2cc(C)ccc2C)nc2ccccc2c1=O (optimized conformer: 52.888382004616176 kcal/mol)

>  <smiles>  (19) 
CCCn1c(SCCOc2cc(C)ccc2C)nc2ccccc2c1=O

>  <score_type>  (19) 
oracle

>  <origin>  (19) 
adg

>  <m_score__min__energy>  (19) 
-8.9000000000000004

>  <m_primary>  (19) 
energy

$$$$
19:0
     RDKit          3D

 54 56  0  0  0  0  0  0  0  0999 V2000
   -2.7760   20.8310  -28.2970 C   0  0  0  0  0  0  0  0  0  0  0  0
   -2.2820   21.4320  -29.6070 C   0  0  0  0  0  0  0  0  0  0  0  0
   -3.1550   22.4610  -30.0370 O   0  0  0  0  0  0  0  0  0  0  0  0
   -2.9590   23.6310  -29.2700 C   0  0  0  0  0  0  0  0  0  0  0  0
   -4.2600   23.9710  -28.5390 C   0  0  0  0  0  0  0  0  0  0  0  0
   -5.2090   24.8110  -29.4050 C   0  0  0  0  0  0  0  0  0  0  0  0
   -4.8820   24.6650  -30.8310 N   0  0  0  0  0  0  0  0  0  0  0  0
   -6.0910   24.5600  -31.6600 C   0  0  0  0  0  0  0  0  0  0  0  0
   -6.3200   23.1010  -32.0670 C   0  0  0  0  0  0  0  0  0  0  0  0
   -5.2250   22.2360  -31.5910 N   0  0  0  0  0  0  0  0  0  0  0  0
   -5.2930   20.9200  -32.2050 C   0  0  0  0  0  0  0  0  0  0  0  0
   -6.4800   20.1450  -32.1390 C   0  0  0  0  0  0  0  0  0  0  0  0
   -7.5790   20.5290  -31.3310 C   0  0  0  0  0  0  0  0  0  0  0  0
   -8.7250   19.7430  -31.2540 C   0  0  0  0  0  0  0  0  0  0  0  0
   -8.8030   18.5540  -31.9630 C   0  0  0  0  0  0  0  0  0  0  0  0
   -7.7410   18.1490  -32.7680 C   0  0  0  0  0  0  0  0  0  0  0  0
   -6.5720   18.9430  -32.8960 C   0  0  0  0  0  0  0  0  0  0  0  0
   -5.5350   18.5620  -33.7230 N   0  0  0  0  0  0  0  0  0  0  0  0
   -5.7510   17.5170  -34.7480 C   0  0  0  0  0  0  0  0  0  0  0  0
   -4.3000   19.1620  -33.6000 C   0  0  0  0  0  0  0  0  0  0  0  0
   -3.1430   18.5950  -34.1930 C   0  0  0  0  0  0  0  0  0  0  0  0
   -1.9040   19.2250  -34.1040 C   0  0  0  0  0  0  0  0  0  0  0  0
   -1.7770   20.4180  -33.4090 C   0  0  0  0  0  0  0  0  0  0  0  0
   -2.8850   20.9820  -32.7810 C   0  0  0  0  0  0  0  0  0  0  0  0
   -4.1600   20.3680  -32.8570 C   0  0  0  0  0  0  0  0  0  0  0  0
   -2.3287   21.3752  -27.4522 H   0  0  0  0  0  0  0  0  0  0  0  0
   -3.8718   20.9122  -28.2465 H   0  0  0  0  0  0  0  0  0  0  0  0
   -2.4842   19.7716  -28.2465 H   0  0  0  0  0  0  0  0  0  0  0  0
   -1.2753   21.8493  -29.4577 H   0  0  0  0  0  0  0  0  0  0  0  0
   -2.2538   20.6437  -30.3737 H   0  0  0  0  0  0  0  0  0  0  0  0
   -2.1572   23.4611  -28.5363 H   0  0  0  0  0  0  0  0  0  0  0  0
   -2.6743   24.4643  -29.9292 H   0  0  0  0  0  0  0  0  0  0  0  0
   -4.7670   23.0344  -28.2640 H   0  0  0  0  0  0  0  0  0  0  0  0
   -4.0023   24.5631  -27.6485 H   0  0  0  0  0  0  0  0  0  0  0  0
   -6.2430   24.4759  -29.2360 H   0  0  0  0  0  0  0  0  0  0  0  0
   -5.0985   25.8689  -29.1246 H   0  0  0  0  0  0  0  0  0  0  0  0
   -4.3340   23.7820  -30.9530 H   0  0  0  0  0  0  0  0  0  0  0  0
   -6.9585   24.9190  -31.0868 H   0  0  0  0  0  0  0  0  0  0  0  0
   -5.9635   25.1723  -32.5649 H   0  0  0  0  0  0  0  0  0  0  0  0
   -7.2680   22.7518  -31.6319 H   0  0  0  0  0  0  0  0  0  0  0  0
   -6.3539   23.0472  -33.1652 H   0  0  0  0  0  0  0  0  0  0  0  0
   -4.3020   22.6890  -31.7780 H   0  0  0  0  0  0  0  0  0  0  0  0
   -5.2410   22.1500  -30.5510 H   0  0  0  0  0  0  0  0  0  0  0  0
   -7.5254   21.4644  -30.7547 H   0  0  0  0  0  0  0  0  0  0  0  0
   -9.5708   20.0658  -30.6292 H   0  0  0  0  0  0  0  0  0  0  0  0
   -9.7054   17.9293  -31.8896 H   0  0  0  0  0  0  0  0  0  0  0  0
   -7.8097   17.1967  -33.3142 H   0  0  0  0  0  0  0  0  0  0  0  0
   -5.9500   16.5545  -34.2541 H   0  0  0  0  0  0  0  0  0  0  0  0
   -6.6114   17.7916  -35.3760 H   0  0  0  0  0  0  0  0  0  0  0  0
   -4.8523   17.4280  -35.3760 H   0  0  0  0  0  0  0  0  0  0  0  0
   -3.2257   17.6403  -34.7331 H   0  0  0  0  0  0  0  0  0  0  0  0
   -1.0239   18.7749  -34.5864 H   0  0  0  0  0  0  0  0  0  0  0  0
   -0.7997   20.9198  -33.3535 H   0  0  0  0  0  0  0  0  0  0  0  0
   -2.7685   21.9192  -32.2169 H   0  0  0  0  0  0  0  0  0  0  0  0
  1  2  1  0
  2  3  1  0
  3  4  1  0
  4  5  1  0
  5  6  1  0
  6  7  1  0
  7  8  1  0
  8  9  1  0
  9 10  1  0
 10 11  1  0
 11 12  2  0
 12 13  1  0
 13 14  2  0
 14 15  1  0
 15 16  2  0
 16 17  1  0
 17 18  2  0
 18 19  1  0
 18 20  1  0
 20 21  2  0
 21 22  1  0
 22 23  2  0
 23 24  1  0
 24 25  2  0
 25 11  1  0
 17 12  1  0
 25 20  1  0
  1 26  1  0
  1 27  1  0
  1 28  1  0
  2 29  1  0
  2 30  1  0
  4 31  1  0
  4 32  1  0
  5 33  1  0
  5 34  1  0
  6 35  1  0
  6 36  1  0
  7 37  1  0
  8 38  1  0
  8 39  1  0
  9 40  1  0
  9 41  1  0
 10 42  1  0
 10 43  1  0
 13 44  1  0
 14 45  1  0
 15 46  1  0
 16 47  1  0
 19 48  1  0
 19 49  1  0
 19 50  1  0
 21 51  1  0
 22 52  1  0
 23 53  1  0
 24 54  1  0
M  CHG  2  10   1  18   1
M  END
>  <UniqueID>  (20) 
20

>  <SMILES>  (20) 
CCOCCCNCC[NH2+]c1c2ccccc2[n+](C)c2ccccc12

>  <Energy>  (20) 
75.39381942707188

>  <Genealogy>  (20) 
CCOCCCNCC[NH2+]c1c2ccccc2[n+](C)c2ccccc12 (protonated)
CCOCCCNCC[NH2+]c1c2ccccc2[n+](C)c2ccccc12 (3D coordinates assigned)
CCOCCCNCC[NH2+]c1c2ccccc2[n+](C)c2ccccc12 (optimized conformer: 75.39381942707188 kcal/mol)

>  <smiles>  (20) 
CCOCCCNCCNc1c2ccccc2[n+](C)c2ccccc12

>  <score_type>  (20) 
oracle

>  <origin>  (20) 
adg

>  <m_score__min__energy>  (20) 
-8.3900000000000006

>  <m_primary>  (20) 
energy

$$$$
20:0
     RDKit          3D

 65 64  0  0  0  0  0  0  0  0999 V2000
   -7.5520   18.4710  -31.9750 C   0  0  0  0  0  0  0  0  0  0  0  0
   -6.0700   18.8430  -32.1040 C   0  0  0  0  0  0  0  0  0  0  0  0
   -5.8620   20.3100  -32.2920 N   0  0  2  0  0  0  0  0  0  0  0  0
   -7.1390   21.0330  -32.5620 C   0  0  0  0  0  0  0  0  0  0  0  0
   -7.3660   22.3630  -31.7920 C   0  0  0  0  0  0  0  0  0  0  0  0
   -6.2510   22.7220  -30.9030 N   0  0  0  0  0  0  0  0  0  0  0  0
   -6.6520   23.5750  -29.7690 C   0  0  0  0  0  0  0  0  0  0  0  0
   -6.6050   25.0760  -30.1210 C   0  0  0  0  0  0  0  0  0  0  0  0
   -5.1850   25.5490  -30.4750 C   0  0  0  0  0  0  0  0  0  0  0  0
   -4.3060   24.4420  -30.8600 N   0  0  0  0  0  0  0  0  0  0  0  0
   -4.8280   20.6280  -33.3160 C   0  0  0  0  0  0  0  0  0  0  0  0
   -3.8660   21.7610  -32.8960 C   0  0  0  0  0  0  0  0  0  0  0  0
   -3.8060   21.8860  -31.4320 N   0  0  0  0  0  0  0  0  0  0  0  0
   -2.4480   21.6670  -30.9140 C   0  0  0  0  0  0  0  0  0  0  0  0
   -2.2260   22.5770  -29.6830 C   0  0  0  0  0  0  0  0  0  0  0  0
   -2.6260   21.9880  -28.3550 N   0  0  0  0  0  0  0  0  0  0  0  0
   -2.7420   20.4800  -28.4160 C   0  0  0  0  0  0  0  0  0  0  0  0
   -2.7420   19.7210  -27.0710 C   0  0  0  0  0  0  0  0  0  0  0  0
   -3.9220   22.5750  -27.8640 C   0  0  0  0  0  0  0  0  0  0  0  0
   -3.8890   24.0570  -27.4600 C   0  0  0  0  0  0  0  0  0  0  0  0
   -1.6070   22.3140  -27.2900 C   0  0  0  0  0  0  0  0  0  0  0  0
   -0.3570   23.0940  -27.7590 C   0  0  0  0  0  0  0  0  0  0  0  0
   -7.8217   18.4033  -30.9107 H   0  0  0  0  0  0  0  0  0  0  0  0
   -8.1673   19.2425  -32.4609 H   0  0  0  0  0  0  0  0  0  0  0  0
   -7.7300   17.5003  -32.4609 H   0  0  0  0  0  0  0  0  0  0  0  0
   -5.5462   18.5269  -31.1898 H   0  0  0  0  0  0  0  0  0  0  0  0
   -5.6740   18.3328  -32.9944 H   0  0  0  0  0  0  0  0  0  0  0  0
   -5.5260   20.7210  -31.3870 H   0  0  0  0  0  0  0  0  0  0  0  0
   -7.1714   21.2612  -33.6376 H   0  0  0  0  0  0  0  0  0  0  0  0
   -7.9327   20.3573  -32.2106 H   0  0  0  0  0  0  0  0  0  0  0  0
   -7.5011   23.1716  -32.5254 H   0  0  0  0  0  0  0  0  0  0  0  0
   -8.2540   22.2232  -31.1581 H   0  0  0  0  0  0  0  0  0  0  0  0
   -5.5130   23.2100  -31.4630 H   0  0  0  0  0  0  0  0  0  0  0  0
   -7.6789   23.3126  -29.4746 H   0  0  0  0  0  0  0  0  0  0  0  0
   -5.9416   23.3993  -28.9477 H   0  0  0  0  0  0  0  0  0  0  0  0
   -7.2635   25.2578  -30.9832 H   0  0  0  0  0  0  0  0  0  0  0  0
   -6.9363   25.6394  -29.2362 H   0  0  0  0  0  0  0  0  0  0  0  0
   -5.2479   26.2579  -31.3137 H   0  0  0  0  0  0  0  0  0  0  0  0
   -4.7561   26.0209  -29.5787 H   0  0  0  0  0  0  0  0  0  0  0  0
   -4.3920   23.6710  -30.1600 H   0  0  0  0  0  0  0  0  0  0  0  0
   -4.6020   24.0730  -31.7930 H   0  0  0  0  0  0  0  0  0  0  0  0
   -4.2350   19.7208  -33.5041 H   0  0  0  0  0  0  0  0  0  0  0  0
   -5.3607   20.9749  -34.2137 H   0  0  0  0  0  0  0  0  0  0  0  0
   -2.8593   21.5387  -33.2796 H   0  0  0  0  0  0  0  0  0  0  0  0
   -4.2371   22.7086  -33.3136 H   0  0  0  0  0  0  0  0  0  0  0  0
   -4.0880   22.8630  -31.1780 H   0  0  0  0  0  0  0  0  0  0  0  0
   -2.3309   20.6135  -30.6199 H   0  0  0  0  0  0  0  0  0  0  0  0
   -1.7096   21.9085  -31.6928 H   0  0  0  0  0  0  0  0  0  0  0  0
   -1.1553   22.8246  -29.6343 H   0  0  0  0  0  0  0  0  0  0  0  0
   -2.8789   23.4494  -29.8332 H   0  0  0  0  0  0  0  0  0  0  0  0
   -3.6834   20.2404  -28.9321 H   0  0  0  0  0  0  0  0  0  0  0  0
   -1.8308   20.1445  -28.9329 H   0  0  0  0  0  0  0  0  0  0  0  0
   -1.7049   19.5408  -26.7517 H   0  0  0  0  0  0  0  0  0  0  0  0
   -3.2605   20.3230  -26.3103 H   0  0  0  0  0  0  0  0  0  0  0  0
   -3.2605   18.7586  -27.1931 H   0  0  0  0  0  0  0  0  0  0  0  0
   -4.6658   22.4630  -28.6666 H   0  0  0  0  0  0  0  0  0  0  0  0
   -4.1620   22.0252  -26.9420 H   0  0  0  0  0  0  0  0  0  0  0  0
   -3.8872   24.1380  -26.3630 H   0  0  0  0  0  0  0  0  0  0  0  0
   -2.9802   24.5270  -27.8639 H   0  0  0  0  0  0  0  0  0  0  0  0
   -4.7760   24.5670  -27.8639 H   0  0  0  0  0  0  0  0  0  0  0  0
   -2.1087   22.9162  -26.5182 H   0  0  0  0  0  0  0  0  0  0  0  0
   -1.2323   21.3433  -26.9333 H   0  0  0  0  0  0  0  0  0  0  0  0
    0.2063   23.4455  -26.8820 H   0  0  0  0  0  0  0  0  0  0  0  0
    0.2815   22.4337  -28.3643 H   0  0  0  0  0  0  0  0  0  0  0  0
   -0.6695   23.9577  -28.3643 H   0  0  0  0  0  0  0  0  0  0  0  0
  1  2  1  0
  2  3  1  0
  3  4  1  0
  4  5  1  0
  5  6  1  0
  6  7  1  0
  7  8  1  0
  8  9  1  0
  9 10  1  0
  3 11  1  0
 11 12  1  0
 12 13  1  0
 13 14  1  0
 14 15  1  0
 15 16  1  0
 16 17  1  0
 17 18  1  0
 16 19  1  0
 19 20  1  0
 16 21  1  0
 21 22  1  0
  1 23  1  0
  1 24  1  0
  1 25  1  0
  2 26  1  0
  2 27  1  0
  3 28  1  1
  4 29  1  0
  4 30  1  0
  5 31  1  0
  5 32  1  0
  6 33  1  0
  7 34  1  0
  7 35  1  0
  8 36  1  0
  8 37  1  0
  9 38  1  0
  9 39  1  0
 10 40  1  0
 10 41  1  0
 11 42  1  0
 11 43  1  0
 12 44  1  0
 12 45  1  0
 13 46  1  0
 14 47  1  0
 14 48  1  0
 15 49  1  0
 15 50  1  0
 17 51  1  0
 17 52  1  0
 18 53  1  0
 18 54  1  0
 18 55  1  0
 19 56  1  0
 19 57  1  0
 20 58  1  0
 20 59  1  0
 20 60  1  0
 21 61  1  0
 21 62  1  0
 22 63  1  0
 22 64  1  0
 22 65  1  0
M  CHG  2   3   1  16   1
M  END
>  <UniqueID>  (21) 
21

>  <SMILES>  (21) 
CC[N@H+](CCNCCCN)CCNCC[N+](CC)(CC)CC

>  <Energy>  (21) 
84.74315709847521

>  <Genealogy>  (21) 
CC[NH+](CCNCCCN)CCNCC[N+](CC)(CC)CC (protonated)
CC[N@H+](CCNCCCN)CCNCC[N+](CC)(CC)CC (chirality)
CC[N@H+](CCNCCCN)CCNCC[N+](CC)(CC)CC (3D coordinates assigned)
CC[N@H+](CCNCCCN)CCNCC[N+](CC)(CC)CC (optimized conformer: 84.74315709847521 kcal/mol)

>  <smiles>  (21) 
CC[N+](CCNCCCN)CCNCC[N+](CC)(CC)CC

>  <score_type>  (21) 
oracle

>  <origin>  (21) 
adg

>  <m_score__min__energy>  (21) 
-3.46

>  <m_primary>  (21) 
energy

$$$$
21:0
     RDKit          3D

 53 55  0  0  0  0  0  0  0  0999 V2000
   -1.8705   21.4557  -33.2628 H   0  0  0  0  0  0  0  0  0  0  0  0
   -2.6920   21.6480  -32.5570 C   0  0  0  0  0  0  0  0  0  0  0  0
   -3.8860   21.9900  -33.0590 C   0  0  0  0  0  0  0  0  0  0  0  0
   -3.9705   22.9112  -33.6541 H   0  0  0  0  0  0  0  0  0  0  0  0
   -5.0940   21.1660  -32.8370 C   0  0  0  0  0  0  0  0  0  0  0  0
   -6.3020   21.6960  -32.4980 N   0  0  0  0  0  0  0  0  0  0  0  0
   -6.6450   23.1140  -32.3380 C   0  0  0  0  0  0  0  0  0  0  0  0
   -7.3656   23.4011  -33.1180 H   0  0  0  0  0  0  0  0  0  0  0  0
   -5.7259   23.7116  -32.4276 H   0  0  0  0  0  0  0  0  0  0  0  0
   -7.2660   23.3710  -30.9610 C   0  0  0  0  0  0  0  0  0  0  0  0
   -7.9282   22.5316  -30.7024 H   0  0  0  0  0  0  0  0  0  0  0  0
   -7.8352   24.3114  -31.0026 H   0  0  0  0  0  0  0  0  0  0  0  0
   -6.2640   23.4930  -29.9690 O   0  0  0  0  0  0  0  0  0  0  0  0
   -6.0390   24.8470  -29.6210 C   0  0  0  0  0  0  0  0  0  0  0  0
   -5.4867   24.8904  -28.6707 H   0  0  0  0  0  0  0  0  0  0  0  0
   -7.0089   25.3554  -29.5171 H   0  0  0  0  0  0  0  0  0  0  0  0
   -5.2240   25.5480  -30.7110 C   0  0  0  0  0  0  0  0  0  0  0  0
   -5.4074   26.6315  -30.6623 H   0  0  0  0  0  0  0  0  0  0  0  0
   -5.5294   25.1605  -31.6942 H   0  0  0  0  0  0  0  0  0  0  0  0
   -3.8440   25.2980  -30.5230 O   0  0  0  0  0  0  0  0  0  0  0  0
   -3.6330   24.5210  -29.3630 C   0  0  0  0  0  0  0  0  0  0  0  0
   -3.8819   23.4704  -29.5735 H   0  0  0  0  0  0  0  0  0  0  0  0
   -4.2743   24.8901  -28.5490 H   0  0  0  0  0  0  0  0  0  0  0  0
   -2.1740   24.6250  -28.9510 C   0  0  0  0  0  0  0  0  0  0  0  0
   -2.1024   24.6301  -27.8533 H   0  0  0  0  0  0  0  0  0  0  0  0
   -1.6179   23.7642  -29.3507 H   0  0  0  0  0  0  0  0  0  0  0  0
   -1.7456   25.5560  -29.3507 H   0  0  0  0  0  0  0  0  0  0  0  0
   -7.1230   20.6320  -32.3840 C   0  0  0  0  0  0  0  0  0  0  0  0
   -8.4790   20.5990  -32.0460 C   0  0  0  0  0  0  0  0  0  0  0  0
   -9.0328   21.5241  -31.8279 H   0  0  0  0  0  0  0  0  0  0  0  0
   -9.1120   19.3440  -31.9940 C   0  0  0  0  0  0  0  0  0  0  0  0
  -10.1792   19.2811  -31.7347 H   0  0  0  0  0  0  0  0  0  0  0  0
   -8.3880   18.1650  -32.2720 C   0  0  0  0  0  0  0  0  0  0  0  0
   -8.8941   17.1894  -32.2259 H   0  0  0  0  0  0  0  0  0  0  0  0
   -7.0220   18.2290  -32.6080 C   0  0  0  0  0  0  0  0  0  0  0  0
   -6.4473   17.3170  -32.8270 H   0  0  0  0  0  0  0  0  0  0  0  0
   -6.4210   19.4890  -32.6540 C   0  0  0  0  0  0  0  0  0  0  0  0
   -5.1470   19.8080  -32.9590 N   0  0  0  0  0  0  0  0  0  0  0  0
   -4.0840   18.8860  -33.3630 C   0  0  0  0  0  0  0  0  0  0  0  0
   -3.6016   18.4676  -32.4674 H   0  0  0  0  0  0  0  0  0  0  0  0
   -4.5144   18.0704  -33.9626 H   0  0  0  0  0  0  0  0  0  0  0  0
   -3.3374   19.4273  -33.9626 H   0  0  0  0  0  0  0  0  0  0  0  0
   -2.4110   21.5130  -31.1070 C   0  0  0  0  0  0  0  0  0  0  0  0
   -3.4220   21.2730  -30.1540 C   0  0  0  0  0  0  0  0  0  0  0  0
   -4.4698   21.1868  -30.4775 H   0  0  0  0  0  0  0  0  0  0  0  0
   -3.0990   21.1440  -28.7990 C   0  0  0  0  0  0  0  0  0  0  0  0
   -3.8940   20.9633  -28.0605 H   0  0  0  0  0  0  0  0  0  0  0  0
   -1.7700   21.2440  -28.3810 C   0  0  0  0  0  0  0  0  0  0  0  0
   -1.5203   21.1478  -27.3141 H   0  0  0  0  0  0  0  0  0  0  0  0
   -0.7590   21.4660  -29.3170 C   0  0  0  0  0  0  0  0  0  0  0  0
    0.2880   21.5397  -28.9879 H   0  0  0  0  0  0  0  0  0  0  0  0
   -1.0760   21.5950  -30.6740 C   0  0  0  0  0  0  0  0  0  0  0  0
   -0.2739   21.7620  -31.4080 H   0  0  0  0  0  0  0  0  0  0  0  0
  1  2  1  0
  2  3  2  0
  3  4  1  0
  3  5  1  0
  5  6  1  0
  6  7  1  0
  7  8  1  0
  7  9  1  0
  7 10  1  0
 10 11  1  0
 10 12  1  0
 10 13  1  0
 13 14  1  0
 14 15  1  0
 14 16  1  0
 14 17  1  0
 17 18  1  0
 17 19  1  0
 17 20  1  0
 20 21  1  0
 21 22  1  0
 21 23  1  0
 21 24  1  0
 24 25  1  0
 24 26  1  0
 24 27  1  0
  6 28  1  0
 28 29  2  0
 29 30  1  0
 29 31  1  0
 31 32  1  0
 31 33  2  0
 33 34  1  0
 33 35  1  0
 35 36  1  0
 35 37  2  0
 37 38  1  0
 38 39  1  0
 39 40  1  0
 39 41  1  0
 39 42  1  0
  2 43  1  0
 43 44  2  0
 44 45  1  0
 44 46  1  0
 46 47  1  0
 46 48  2  0
 48 49  1  0
 48 50  1  0
 50 51  1  0
 50 52  2  0
 52 53  1  0
 38  5  2  0
 52 43  1  0
 37 28  1  0
M  CHG  1  38   1
M  END
>  <UniqueID>  (22) 
22

>  <SMILES>  (22) 
CCOCCOCCn1c(/C=C/c2ccccc2)[n+](C)c2ccccc21

>  <Energy>  (22) 
98.56080094046436

>  <Genealogy>  (22) 
CCOCCOCCn1c(/C=C/c2ccccc2)[n+](C)c2ccccc21 (cis-trans isomerization)
CCOCCOCCn1c(/C=C/c2ccccc2)[n+](C)c2ccccc21 (3D coordinates assigned)
CCOCCOCCn1c(/C=C/c2ccccc2)[n+](C)c2ccccc21 (optimized conformer: 98.56080094046436 kcal/mol)

>  <smiles>  (22) 
CCOCCOCCn1c(C=Cc2ccccc2)[n+](C)c2ccccc21

>  <score_type>  (22) 
oracle

>  <origin>  (22) 
adg

>  <m_score__min__energy>  (22) 
-7.8200000000000003

>  <m_primary>  (22) 
energy

$$$$
22:0
     RDKit          3D

 49 53  0  0  0  0  0  0  0  0999 V2000
   -9.9860   21.2190  -31.9440 C   0  0  0  0  0  0  0  0  0  0  0  0
   -8.5880   20.8420  -32.1150 N   0  0  0  0  0  0  0  0  0  0  0  0
   -7.5180   21.6440  -31.9070 C   0  0  0  0  0  0  0  0  0  0  0  0
   -6.3700   20.9420  -32.2290 C   0  0  0  0  0  0  0  0  0  0  0  0
   -5.0070   21.2760  -32.1640 C   0  0  0  0  0  0  0  0  0  0  0  0
   -4.5510   22.5710  -31.7380 N   0  0  0  0  0  0  0  0  0  0  0  0
   -3.2000   22.7730  -31.2140 C   0  0  0  0  0  0  0  0  0  0  0  0
   -3.2460   23.7820  -30.0620 C   0  0  0  0  0  0  0  0  0  0  0  0
   -3.9060   24.9690  -30.4640 O   0  0  0  0  0  0  0  0  0  0  0  0
   -5.2650   24.6900  -30.7420 C   0  0  0  0  0  0  0  0  0  0  0  0
   -5.3950   23.7490  -31.9440 C   0  0  0  0  0  0  0  0  0  0  0  0
   -4.0950   20.3160  -32.5150 N   0  0  0  0  0  0  0  0  0  0  0  0
   -4.4750   19.0680  -32.9330 C   0  0  0  0  0  0  0  0  0  0  0  0
   -3.5360   18.1060  -33.2970 C   0  0  0  0  0  0  0  0  0  0  0  0
   -3.9490   16.8750  -33.7070 N   0  0  0  0  0  0  0  0  0  0  0  0
   -5.2770   16.5560  -33.7660 C   0  0  0  0  0  0  0  0  0  0  0  0
   -5.7090   15.2520  -34.2000 N   0  0  0  0  0  0  0  0  0  0  0  0
   -7.1080   14.9960  -34.5580 C   0  0  0  0  0  0  0  0  0  0  0  0
   -7.4620   13.5360  -34.2520 C   0  0  0  0  0  0  0  0  0  0  0  0
   -6.5260   12.6530  -34.8390 O   0  0  0  0  0  0  0  0  0  0  0  0
   -5.2500   12.8450  -34.2570 C   0  0  0  0  0  0  0  0  0  0  0  0
   -4.7130   14.2440  -34.5760 C   0  0  0  0  0  0  0  0  0  0  0  0
   -6.2090   17.4830  -33.4090 N   0  0  0  0  0  0  0  0  0  0  0  0
   -5.8380   18.7220  -33.0030 C   0  0  0  0  0  0  0  0  0  0  0  0
   -6.7660   19.6930  -32.6370 C   0  0  0  0  0  0  0  0  0  0  0  0
   -8.1420   19.6500  -32.5730 C   0  0  0  0  0  0  0  0  0  0  0  0
  -10.2201   21.2821  -30.8711 H   0  0  0  0  0  0  0  0  0  0  0  0
  -10.1624   22.1968  -32.4160 H   0  0  0  0  0  0  0  0  0  0  0  0
  -10.6301   20.4625  -32.4160 H   0  0  0  0  0  0  0  0  0  0  0  0
   -7.5548   22.6812  -31.5426 H   0  0  0  0  0  0  0  0  0  0  0  0
   -2.8017   21.8154  -30.8473 H   0  0  0  0  0  0  0  0  0  0  0  0
   -2.5498   23.1578  -32.0135 H   0  0  0  0  0  0  0  0  0  0  0  0
   -3.7869   23.3374  -29.2136 H   0  0  0  0  0  0  0  0  0  0  0  0
   -2.2157   24.0316  -29.7683 H   0  0  0  0  0  0  0  0  0  0  0  0
   -5.7226   24.2151  -29.8616 H   0  0  0  0  0  0  0  0  0  0  0  0
   -5.7766   25.6347  -30.9782 H   0  0  0  0  0  0  0  0  0  0  0  0
   -6.4435   23.4341  -32.0509 H   0  0  0  0  0  0  0  0  0  0  0  0
   -5.0738   24.2740  -32.8557 H   0  0  0  0  0  0  0  0  0  0  0  0
   -2.4621   18.3404  -33.2533 H   0  0  0  0  0  0  0  0  0  0  0  0
   -3.2220   16.1670  -33.9550 H   0  0  0  0  0  0  0  0  0  0  0  0
   -7.7620   15.6606  -33.9745 H   0  0  0  0  0  0  0  0  0  0  0  0
   -7.2496   15.1873  -35.6319 H   0  0  0  0  0  0  0  0  0  0  0  0
   -7.4625   13.3869  -33.1621 H   0  0  0  0  0  0  0  0  0  0  0  0
   -8.4562   13.3216  -34.6711 H   0  0  0  0  0  0  0  0  0  0  0  0
   -5.3298   12.7292  -33.1660 H   0  0  0  0  0  0  0  0  0  0  0  0
   -4.5569   12.0978  -34.6710 H   0  0  0  0  0  0  0  0  0  0  0  0
   -3.7855   14.4175  -34.0107 H   0  0  0  0  0  0  0  0  0  0  0  0
   -4.5074   14.3187  -35.6540 H   0  0  0  0  0  0  0  0  0  0  0  0
   -8.7716   18.7909  -32.8481 H   0  0  0  0  0  0  0  0  0  0  0  0
  1  2  1  0
  2  3  1  0
  3  4  2  0
  4  5  1  0
  5  6  1  0
  6  7  1  0
  7  8  1  0
  8  9  1  0
  9 10  1  0
 10 11  1  0
  5 12  2  0
 12 13  1  0
 13 14  2  0
 14 15  1  0
 15 16  2  0
 16 17  1  0
 17 18  1  0
 18 19  1  0
 19 20  1  0
 20 21  1  0
 21 22  1  0
 16 23  1  0
 23 24  2  0
 24 25  1  0
 25 26  2  0
 26  2  1  0
 25  4  1  0
 11  6  1  0
 24 13  1  0
 22 17  1  0
  1 27  1  0
  1 28  1  0
  1 29  1  0
  3 30  1  0
  7 31  1  0
  7 32  1  0
  8 33  1  0
  8 34  1  0
 10 35  1  0
 10 36  1  0
 11 37  1  0
 11 38  1  0
 14 39  1  0
 15 40  1  0
 18 41  1  0
 18 42  1  0
 19 43  1  0
 19 44  1  0
 21 45  1  0
 21 46  1  0
 22 47  1  0
 22 48  1  0
 26 49  1  0
M  CHG  1  15   1
M  END
>  <UniqueID>  (23) 
23

>  <SMILES>  (23) 
Cn1cc2c(N3CCOCC3)nc3c[nH+]c(N4CCOCC4)nc3c2c1

>  <Energy>  (23) 
99.26631886418363

>  <Genealogy>  (23) 
Cn1cc2c(N3CCOCC3)nc3c[nH+]c(N4CCOCC4)nc3c2c1 (protonated)
Cn1cc2c(N3CCOCC3)nc3c[nH+]c(N4CCOCC4)nc3c2c1 (3D coordinates assigned)
Cn1cc2c(N3CCOCC3)nc3c[nH+]c(N4CCOCC4)nc3c2c1 (nonaromatic ring conformer: 99.26631886418363 kcal/mol)

>  <smiles>  (23) 
Cn1cc2c(N3CCOCC3)nc3cnc(N4CCOCC4)nc3c2c1

>  <score_type>  (23) 
oracle

>  <origin>  (23) 
adg

>  <m_score__min__energy>  (23) 
-7.4299999999999997

>  <m_primary>  (23) 
energy

$$$$
23:0
     RDKit          3D

 44 45  0  0  1  0  0  0  0  0999 V2000
   -6.0180   16.9980  -32.0000 C   0  0  0  0  0  0  0  0  0  0  0  0
   -7.2360   17.4840  -32.7460 C   0  0  0  0  0  0  0  0  0  0  0  0
   -7.4980   18.8920  -32.4930 N   0  0  0  0  0  0  0  0  0  0  0  0
   -8.6500   19.3840  -32.1050 N   0  0  0  0  0  0  0  0  0  0  0  0
   -8.5260   20.7160  -31.9710 C   0  0  0  0  0  0  0  0  0  0  0  0
   -9.5510   21.7160  -31.5540 C   0  0  0  0  0  0  0  0  0  0  0  0
   -7.2170   21.0320  -32.3010 C   0  0  0  0  0  0  0  0  0  0  0  0
   -6.4990   22.2010  -32.3560 C   0  0  0  0  0  0  0  0  0  0  0  0
   -7.0710   23.3040  -32.0540 N   0  0  0  0  0  0  0  0  0  0  0  0
   -7.1600   23.8840  -30.7460 C   0  0  0  0  0  0  0  0  0  0  0  0
   -5.8940   23.8110  -29.9400 C   0  0  0  0  0  0  0  0  0  0  0  0
   -4.8030   24.6790  -30.5080 C   0  0  0  0  0  0  0  0  0  0  0  0
   -3.4790   24.3030  -30.2230 N   0  0  0  0  0  0  0  0  0  0  0  0
   -3.0350   23.0850  -30.8450 C   0  0  0  0  0  0  0  0  0  0  0  0
   -2.9470   24.5510  -28.9390 C   0  0  0  0  0  0  0  0  0  0  0  0
   -5.1970   22.2580  -32.7160 N   0  0  0  0  0  0  0  0  0  0  0  0
   -4.6000   21.0960  -33.0320 C   0  0  0  0  0  0  0  0  0  0  0  0
   -3.1660   21.0450  -33.4440 C   0  0  0  0  0  0  0  0  0  0  0  0
   -5.2760   19.9150  -32.9910 N   0  0  0  0  0  0  0  0  0  0  0  0
   -6.5720   19.8520  -32.6330 C   0  0  0  0  0  0  0  0  0  0  0  0
   -6.1983   17.0699  -30.9173 H   0  0  0  0  0  0  0  0  0  0  0  0
   -5.8167   15.9507  -32.2694 H   0  0  0  0  0  0  0  0  0  0  0  0
   -5.1510   17.6191  -32.2694 H   0  0  0  0  0  0  0  0  0  0  0  0
   -7.0739   17.3401  -33.8244 H   0  0  0  0  0  0  0  0  0  0  0  0
   -8.1043   16.9064  -32.3962 H   0  0  0  0  0  0  0  0  0  0  0  0
   -9.5954   21.7594  -30.4558 H   0  0  0  0  0  0  0  0  0  0  0  0
   -9.2796   22.7060  -31.9494 H   0  0  0  0  0  0  0  0  0  0  0  0
  -10.5340   21.4202  -31.9494 H   0  0  0  0  0  0  0  0  0  0  0  0
   -7.4340   24.9434  -30.8587 H   0  0  0  0  0  0  0  0  0  0  0  0
   -7.9124   23.2988  -30.1969 H   0  0  0  0  0  0  0  0  0  0  0  0
   -6.1093   24.1406  -28.9129 H   0  0  0  0  0  0  0  0  0  0  0  0
   -5.5408   22.7695  -29.9626 H   0  0  0  0  0  0  0  0  0  0  0  0
   -4.9187   24.6852  -31.6019 H   0  0  0  0  0  0  0  0  0  0  0  0
   -4.9339   25.6581  -30.0241 H   0  0  0  0  0  0  0  0  0  0  0  0
   -2.7681   22.3529  -30.0686 H   0  0  0  0  0  0  0  0  0  0  0  0
   -3.8424   22.6775  -31.4711 H   0  0  0  0  0  0  0  0  0  0  0  0
   -2.1548   23.2928  -31.4711 H   0  0  0  0  0  0  0  0  0  0  0  0
   -3.6637   24.2169  -28.1744 H   0  0  0  0  0  0  0  0  0  0  0  0
   -2.0019   24.0006  -28.8211 H   0  0  0  0  0  0  0  0  0  0  0  0
   -2.7609   25.6287  -28.8211 H   0  0  0  0  0  0  0  0  0  0  0  0
   -2.5278   21.0223  -32.5484 H   0  0  0  0  0  0  0  0  0  0  0  0
   -2.9887   20.1400  -34.0436 H   0  0  0  0  0  0  0  0  0  0  0  0
   -2.9249   21.9351  -34.0436 H   0  0  0  0  0  0  0  0  0  0  0  0
   -4.8220   19.0060  -33.2350 H   0  0  0  0  0  0  0  0  0  0  0  0
  1  2  1  0
  2  3  1  0
  3  4  1  0
  4  5  2  0
  5  6  1  0
  5  7  1  0
  7  8  1  0
  8  9  2  0
  9 10  1  0
 10 11  1  0
 11 12  1  0
 12 13  1  0
 13 14  1  0
 13 15  1  0
  8 16  1  0
 16 17  2  0
 17 18  1  0
 17 19  1  0
 19 20  1  0
 20  3  1  0
 20  7  2  0
  1 21  1  0
  1 22  1  0
  1 23  1  0
  2 24  1  0
  2 25  1  0
  6 26  1  0
  6 27  1  0
  6 28  1  0
 10 29  1  0
 10 30  1  0
 11 31  1  0
 11 32  1  0
 12 33  1  0
 12 34  1  0
 14 35  1  0
 14 36  1  0
 14 37  1  0
 15 38  1  0
 15 39  1  0
 15 40  1  0
 18 41  1  0
 18 42  1  0
 18 43  1  0
 19 44  1  0
M  END
>  <smiles>  (24) 
CCn1nc(C)c2c(=NCCCN(C)C)nc(C)[nH]c21

>  <score_type>  (24) 
oracle

>  <origin>  (24) 
adg

>  <m_score__min__energy>  (24) 
-6.6699999999999999

>  <m_primary>  (24) 
energy

$$$$
24:0
     RDKit          3D

 39 41  0  0  0  0  0  0  0  0999 V2000
   -8.8860   19.6840  -32.1620 C   0  0  0  0  0  0  0  0  0  0  0  0
   -7.4730   20.0520  -32.1140 N   0  0  0  0  0  0  0  0  0  0  0  0
   -6.9020   21.1000  -31.4660 C   0  0  0  0  0  0  0  0  0  0  0  0
   -7.8150   22.2760  -30.4630 S   0  0  0  0  0  0  0  0  0  0  0  0
   -7.2270   23.7650  -31.3450 C   0  0  0  0  0  0  0  0  0  0  0  0
   -6.3980   24.6880  -30.4400 C   0  0  0  0  0  0  0  0  0  0  0  0
   -4.9180   24.6160  -30.7020 C   0  0  0  0  0  0  0  0  0  0  0  0
   -4.2540   25.6780  -30.8480 O   0  0  0  0  0  0  0  0  0  0  0  0
   -4.2440   23.3500  -30.6540 N   0  0  0  0  0  0  0  0  0  0  0  0
   -2.8170   23.2410  -30.3620 C   0  0  0  0  0  0  0  0  0  0  0  0
   -2.4440   24.0990  -29.1970 C   0  0  0  0  0  0  0  0  0  0  0  0
   -2.6350   23.7880  -27.8660 C   0  0  0  0  0  0  0  0  0  0  0  0
   -2.1180   24.8520  -27.1600 C   0  0  0  0  0  0  0  0  0  0  0  0
   -1.6530   25.7470  -28.1020 C   0  0  0  0  0  0  0  0  0  0  0  0
   -1.8660   25.2730  -29.3080 O   0  0  0  0  0  0  0  0  0  0  0  0
   -5.5790   21.2520  -31.7370 N   0  0  0  0  0  0  0  0  0  0  0  0
   -5.3340   20.2480  -32.5980 C   0  0  0  0  0  0  0  0  0  0  0  0
   -4.1300   19.9560  -33.2380 C   0  0  0  0  0  0  0  0  0  0  0  0
   -4.1220   18.8980  -34.1650 C   0  0  0  0  0  0  0  0  0  0  0  0
   -5.3080   18.1790  -34.4430 C   0  0  0  0  0  0  0  0  0  0  0  0
   -6.5080   18.5050  -33.7830 C   0  0  0  0  0  0  0  0  0  0  0  0
   -6.4720   19.5380  -32.8450 C   0  0  0  0  0  0  0  0  0  0  0  0
   -9.2736   19.5831  -31.1375 H   0  0  0  0  0  0  0  0  0  0  0  0
   -9.4505   20.4651  -32.6923 H   0  0  0  0  0  0  0  0  0  0  0  0
   -8.9978   18.7268  -32.6923 H   0  0  0  0  0  0  0  0  0  0  0  0
   -6.6039   23.4499  -32.1950 H   0  0  0  0  0  0  0  0  0  0  0  0
   -8.1101   24.3278  -31.6817 H   0  0  0  0  0  0  0  0  0  0  0  0
   -6.7301   25.7241  -30.6021 H   0  0  0  0  0  0  0  0  0  0  0  0
   -6.5593   24.3548  -29.4042 H   0  0  0  0  0  0  0  0  0  0  0  0
   -4.8150   22.4750  -30.6470 H   0  0  0  0  0  0  0  0  0  0  0  0
   -2.5760   22.1932  -30.1294 H   0  0  0  0  0  0  0  0  0  0  0  0
   -2.2513   23.5790  -31.2427 H   0  0  0  0  0  0  0  0  0  0  0  0
   -3.1021   22.8808  -27.4551 H   0  0  0  0  0  0  0  0  0  0  0  0
   -2.0829   24.9653  -26.0664 H   0  0  0  0  0  0  0  0  0  0  0  0
   -1.1758   26.7121  -27.8766 H   0  0  0  0  0  0  0  0  0  0  0  0
   -3.2180   20.5331  -33.0253 H   0  0  0  0  0  0  0  0  0  0  0  0
   -3.1868   18.6279  -34.6773 H   0  0  0  0  0  0  0  0  0  0  0  0
   -5.2926   17.3612  -35.1785 H   0  0  0  0  0  0  0  0  0  0  0  0
   -7.4414   17.9645  -33.9990 H   0  0  0  0  0  0  0  0  0  0  0  0
  1  2  1  0
  2  3  1  0
  3  4  1  0
  4  5  1  0
  5  6  1  0
  6  7  1  0
  7  8  2  0
  7  9  1  0
  9 10  1  0
 10 11  1  0
 11 12  2  0
 12 13  1  0
 13 14  2  0
 14 15  1  0
  3 16  2  0
 16 17  1  0
 17 18  2  0
 18 19  1  0
 19 20  2  0
 20 21  1  0
 21 22  2  0
 22  2  1  0
 15 11  1  0
 22 17  1  0
  1 23  1  0
  1 24  1  0
  1 25  1  0
  5 26  1  0
  5 27  1  0
  6 28  1  0
  6 29  1  0
  9 30  1  0
 10 31  1  0
 10 32  1  0
 12 33  1  0
 13 34  1  0
 14 35  1  0
 18 36  1  0
 19 37  1  0
 20 38  1  0
 21 39  1  0
M  END
>  <UniqueID>  (25) 
24

>  <SMILES>  (25) 
Cn1c(SCCC(=O)NCc2ccco2)nc2ccccc21

>  <Energy>  (25) 
93.29043841268985

>  <Genealogy>  (25) 
Cn1c(SCCC(=O)NCc2ccco2)nc2ccccc21 (3D coordinates assigned)
Cn1c(SCCC(=O)NCc2ccco2)nc2ccccc21 (optimized conformer: 93.29043841268985 kcal/mol)

>  <smiles>  (25) 
Cn1c(SCCC(=O)NCc2ccco2)nc2ccccc21

>  <score_type>  (25) 
oracle

>  <origin>  (25) 
adg

>  <m_score__min__energy>  (25) 
-9

>  <m_primary>  (25) 
energy

$$$$
25:0
     RDKit          3D

 35 36  0  0  0  0  0  0  0  0999 V2000
   -0.8420   26.7340  -27.8630 C   0  0  0  0  0  0  0  0  0  0  0  0
   -1.3490   25.7230  -28.7860 N   0  0  0  0  0  0  0  0  0  0  0  0
   -1.4820   24.3300  -28.4350 C   0  0  0  0  0  0  0  0  0  0  0  0
   -0.7480   23.8050  -27.3530 C   0  0  0  0  0  0  0  0  0  0  0  0
   -0.9360   22.4880  -26.9340 C   0  0  0  0  0  0  0  0  0  0  0  0
   -1.8610   21.6720  -27.5840 C   0  0  0  0  0  0  0  0  0  0  0  0
   -2.1220   19.8720  -26.9990 Br  0  0  0  0  0  0  0  0  0  0  0  0
   -2.5870   22.1670  -28.6680 C   0  0  0  0  0  0  0  0  0  0  0  0
   -2.3990   23.4870  -29.1180 C   0  0  0  0  0  0  0  0  0  0  0  0
   -3.1360   23.9280  -30.3250 C   0  0  0  0  0  0  0  0  0  0  0  0
   -3.4500   23.1000  -31.2220 O   0  0  0  0  0  0  0  0  0  0  0  0
   -3.5380   25.2960  -30.4490 N   0  0  0  0  0  0  0  0  0  0  0  0
   -4.9320   25.7160  -30.4840 C   0  0  0  0  0  0  0  0  0  0  0  0
   -5.7750   24.8240  -29.5730 C   0  0  0  0  0  0  0  0  0  0  0  0
   -6.5350   23.7980  -30.3660 C   0  0  0  0  0  0  0  0  0  0  0  0
   -7.2770   22.7960  -29.7220 C   0  0  0  0  0  0  0  0  0  0  0  0
   -8.0010   21.8810  -30.4870 C   0  0  0  0  0  0  0  0  0  0  0  0
   -7.9860   21.9740  -31.8800 C   0  0  0  0  0  0  0  0  0  0  0  0
   -7.2450   22.9900  -32.4880 C   0  0  0  0  0  0  0  0  0  0  0  0
   -6.5470   23.8740  -31.7260 N   0  0  0  0  0  0  0  0  0  0  0  0
   -1.0086   26.4018  -26.8277 H   0  0  0  0  0  0  0  0  0  0  0  0
    0.2352   26.8784  -28.0329 H   0  0  0  0  0  0  0  0  0  0  0  0
   -1.3705   27.6836  -28.0329 H   0  0  0  0  0  0  0  0  0  0  0  0
   -1.6210   26.0450  -29.7420 H   0  0  0  0  0  0  0  0  0  0  0  0
   -0.0176   24.4417  -26.8322 H   0  0  0  0  0  0  0  0  0  0  0  0
   -0.3533   22.0923  -26.0891 H   0  0  0  0  0  0  0  0  0  0  0  0
   -3.3148   21.5178  -29.1767 H   0  0  0  0  0  0  0  0  0  0  0  0
   -5.0061   26.7586  -30.1413 H   0  0  0  0  0  0  0  0  0  0  0  0
   -5.3064   25.6321  -31.5149 H   0  0  0  0  0  0  0  0  0  0  0  0
   -5.1119   24.3088  -28.8624 H   0  0  0  0  0  0  0  0  0  0  0  0
   -6.4992   25.4574  -29.0398 H   0  0  0  0  0  0  0  0  0  0  0  0
   -7.2877   22.7325  -28.6239 H   0  0  0  0  0  0  0  0  0  0  0  0
   -8.5823   21.0881  -29.9937 H   0  0  0  0  0  0  0  0  0  0  0  0
   -8.5512   21.2554  -32.4917 H   0  0  0  0  0  0  0  0  0  0  0  0
   -7.2260   23.0752  -33.5845 H   0  0  0  0  0  0  0  0  0  0  0  0
  1  2  1  0
  2  3  1  0
  3  4  2  0
  4  5  1  0
  5  6  2  0
  6  7  1  0
  6  8  1  0
  8  9  2  0
  9 10  1  0
 10 11  2  0
 10 12  1  0
 12 13  1  0
 13 14  1  0
 14 15  1  0
 15 16  2  0
 16 17  1  0
 17 18  2  0
 18 19  1  0
 19 20  2  0
  9  3  1  0
 20 15  1  0
  1 21  1  0
  1 22  1  0
  1 23  1  0
  2 24  1  0
  4 25  1  0
  5 26  1  0
  8 27  1  0
 13 28  1  0
 13 29  1  0
 14 30  1  0
 14 31  1  0
 16 32  1  0
 17 33  1  0
 18 34  1  0
 19 35  1  0
M  CHG  1  12  -1
M  END
>  <UniqueID>  (26) 
25

>  <SMILES>  (26) 
CNc1ccc(Br)cc1C(=O)[N-]CCc1ccccn1

>  <Energy>  (26) 
35.468879952543894

>  <Genealogy>  (26) 
CNc1ccc(Br)cc1C(=O)[N-]CCc1ccccn1 (protonated)
CNc1ccc(Br)cc1C(=O)[N-]CCc1ccccn1 (3D coordinates assigned)
CNc1ccc(Br)cc1C(=O)[N-]CCc1ccccn1 (optimized conformer: 35.468879952543894 kcal/mol)

>  <smiles>  (26) 
CNc1ccc(Br)cc1C(=O)NCCc1ccccn1

>  <score_type>  (26) 
oracle

>  <origin>  (26) 
adg

>  <m_score__min__energy>  (26) 
-9.5999999999999996

>  <m_primary>  (26) 
energy

$$$$
