0:0
     RDKit          3D

 40 42  0  0  0  0  0  0  0  0999 V2000
   -3.7440   21.5600  -33.1540 C   0  0  0  0  0  0  0  0  0  0  0  0
   -4.4590   21.2030  -31.8530 C   0  0  0  0  0  0  0  0  0  0  0  0
   -5.8610   21.6380  -31.8920 N   0  0  0  0  0  0  0  0  0  0  0  0
   -6.3800   22.8950  -31.7720 C   0  0  0  0  0  0  0  0  0  0  0  0
   -5.5790   24.1650  -31.6450 C   0  0  0  0  0  0  0  0  0  0  0  0
   -5.1240   24.4130  -30.2060 C   0  0  0  0  0  0  0  0  0  0  0  0
   -3.8380   25.0930  -30.1930 N   0  0  0  0  0  0  0  0  0  0  0  0
   -2.6770   24.5540  -29.5530 C   0  0  0  0  0  0  0  0  0  0  0  0
   -1.6800   25.2970  -29.3450 O   0  0  0  0  0  0  0  0  0  0  0  0
   -2.6500   23.1290  -29.1400 C   0  0  0  0  0  0  0  0  0  0  0  0
   -3.3580   22.7170  -27.9930 C   0  0  0  0  0  0  0  0  0  0  0  0
   -3.3370   21.3790  -27.5870 C   0  0  0  0  0  0  0  0  0  0  0  0
   -2.6160   20.4360  -28.3190 C   0  0  0  0  0  0  0  0  0  0  0  0
   -1.9130   20.8280  -29.4600 C   0  0  0  0  0  0  0  0  0  0  0  0
   -1.9260   22.1640  -29.8750 C   0  0  0  0  0  0  0  0  0  0  0  0
   -1.2200   22.5080  -30.9810 F   0  0  0  0  0  0  0  0  0  0  0  0
   -7.7390   22.9200  -31.8030 N   0  0  0  0  0  0  0  0  0  0  0  0
   -8.0670   21.6260  -31.9620 C   0  0  0  0  0  0  0  0  0  0  0  0
   -9.3460   21.0860  -32.0730 C   0  0  0  0  0  0  0  0  0  0  0  0
   -9.4550   19.6960  -32.2590 C   0  0  0  0  0  0  0  0  0  0  0  0
   -8.2960   18.8910  -32.3340 C   0  0  0  0  0  0  0  0  0  0  0  0
   -7.0190   19.4700  -32.2200 C   0  0  0  0  0  0  0  0  0  0  0  0
   -6.9460   20.8530  -32.0250 C   0  0  0  0  0  0  0  0  0  0  0  0
   -2.7817   22.0405  -32.9236 H   0  0  0  0  0  0  0  0  0  0  0  0
   -3.5664   20.6448  -33.7378 H   0  0  0  0  0  0  0  0  0  0  0  0
   -4.3688   22.2519  -33.7378 H   0  0  0  0  0  0  0  0  0  0  0  0
   -4.4235   20.1130  -31.7094 H   0  0  0  0  0  0  0  0  0  0  0  0
   -3.9539   21.7155  -31.0210 H   0  0  0  0  0  0  0  0  0  0  0  0
   -4.6914   24.0913  -32.2906 H   0  0  0  0  0  0  0  0  0  0  0  0
   -6.2221   25.0045  -31.9478 H   0  0  0  0  0  0  0  0  0  0  0  0
   -5.8698   25.0373  -29.6921 H   0  0  0  0  0  0  0  0  0  0  0  0
   -5.0227   23.4462  -29.6912 H   0  0  0  0  0  0  0  0  0  0  0  0
   -3.9319   23.4542  -27.4123 H   0  0  0  0  0  0  0  0  0  0  0  0
   -3.8905   21.0696  -26.6882 H   0  0  0  0  0  0  0  0  0  0  0  0
   -2.6011   19.3841  -27.9977 H   0  0  0  0  0  0  0  0  0  0  0  0
   -1.3457   20.0820  -30.0359 H   0  0  0  0  0  0  0  0  0  0  0  0
  -10.2400   21.7244  -32.0171 H   0  0  0  0  0  0  0  0  0  0  0  0
  -10.4488   19.2326  -32.3466 H   0  0  0  0  0  0  0  0  0  0  0  0
   -8.3929   17.8054  -32.4824 H   0  0  0  0  0  0  0  0  0  0  0  0
   -6.1086   18.8557  -32.2821 H   0  0  0  0  0  0  0  0  0  0  0  0
  1  2  1  0
  2  3  1  0
  3  4  1  0
  4  5  1  0
  5  6  1  0
  6  7  1  0
  7  8  1  0
  8  9  2  0
  8 10  1  0
 10 11  2  0
 11 12  1  0
 12 13  2  0
 13 14  1  0
 14 15  2  0
 15 16  1  0
  4 17  2  0
 17 18  1  0
 18 19  2  0
 19 20  1  0
 20 21  2  0
 21 22  1  0
 22 23  2  0
 23  3  1  0
 15 10  1  0
 23 18  1  0
  1 24  1  0
  1 25  1  0
  1 26  1  0
  2 27  1  0
  2 28  1  0
  5 29  1  0
  5 30  1  0
  6 31  1  0
  6 32  1  0
 11 33  1  0
 12 34  1  0
 13 35  1  0
 14 36  1  0
 19 37  1  0
 20 38  1  0
 21 39  1  0
 22 40  1  0
M  CHG  1   7  -1
M  END
>  <UniqueID>  (1) 
1

>  <SMILES>  (1) 
CCn1c(CC[N-]C(=O)c2ccccc2F)nc2ccccc21

>  <Energy>  (1) 
73.68454704617155

>  <Genealogy>  (1) 
CCn1c(CC[N-]C(=O)c2ccccc2F)nc2ccccc21 (protonated)
CCn1c(CC[N-]C(=O)c2ccccc2F)nc2ccccc21 (3D coordinates assigned)
CCn1c(CC[N-]C(=O)c2ccccc2F)nc2ccccc21 (optimized conformer: 73.68454704617155 kcal/mol)

>  <smiles>  (1) 
CCn1c(CCNC(=O)c2ccccc2F)nc2ccccc21

>  <score_type>  (1) 
oracle

>  <origin>  (1) 
adg

>  <m_score__min__energy>  (1) 
-9.75

>  <m_primary>  (1) 
energy

$$$$
1:0
     RDKit          3D

 53 55  0  0  0  0  0  0  0  0999 V2000
   -2.1260   25.6560  -26.2010 C   0  0  0  0  0  0  0  0  0  0  0  0
   -1.2270   25.9460  -27.4140 C   0  0  0  0  0  0  0  0  0  0  0  0
   -1.5190   25.1170  -28.6090 N   0  0  0  0  0  0  0  0  0  0  0  0
   -0.4390   24.1720  -28.9310 C   0  0  0  0  0  0  0  0  0  0  0  0
   -2.8410   24.4540  -28.5490 C   0  0  0  0  0  0  0  0  0  0  0  0
   -3.3090   24.0840  -29.9560 C   0  0  0  0  0  0  0  0  0  0  0  0
   -3.8880   25.2200  -30.5630 O   0  0  0  0  0  0  0  0  0  0  0  0
   -5.2600   25.3290  -30.2290 C   0  0  0  0  0  0  0  0  0  0  0  0
   -6.0330   24.1000  -30.7180 C   0  0  0  0  0  0  0  0  0  0  0  0
   -5.4630   23.5790  -31.9600 N   0  0  0  0  0  0  0  0  0  0  0  0
   -5.6340   22.1970  -32.3170 C   0  0  0  0  0  0  0  0  0  0  0  0
   -6.9180   21.6240  -32.3450 C   0  0  0  0  0  0  0  0  0  0  0  0
   -8.0540   22.3780  -31.9840 C   0  0  0  0  0  0  0  0  0  0  0  0
   -9.3190   21.7980  -31.9640 C   0  0  0  0  0  0  0  0  0  0  0  0
   -9.4740   20.4560  -32.2920 C   0  0  0  0  0  0  0  0  0  0  0  0
   -8.3690   19.6950  -32.6730 C   0  0  0  0  0  0  0  0  0  0  0  0
   -7.0740   20.2700  -32.7480 C   0  0  0  0  0  0  0  0  0  0  0  0
   -5.9800   19.5470  -33.1910 N   0  0  0  0  0  0  0  0  0  0  0  0
   -6.1770   18.2490  -33.8740 C   0  0  0  0  0  0  0  0  0  0  0  0
   -4.7040   20.0540  -33.0220 C   0  0  0  0  0  0  0  0  0  0  0  0
   -3.5460   19.2600  -33.2220 C   0  0  0  0  0  0  0  0  0  0  0  0
   -2.3040   19.7920  -33.0940 N   0  0  0  0  0  0  0  0  0  0  0  0
   -2.1170   21.0910  -32.7580 C   0  0  0  0  0  0  0  0  0  0  0  0
   -3.2090   21.9130  -32.5090 C   0  0  0  0  0  0  0  0  0  0  0  0
   -4.5160   21.4000  -32.6220 C   0  0  0  0  0  0  0  0  0  0  0  0
   -1.5617   25.8380  -25.2745 H   0  0  0  0  0  0  0  0  0  0  0  0
   -3.0055   26.3160  -26.2303 H   0  0  0  0  0  0  0  0  0  0  0  0
   -2.4540   24.6065  -26.2303 H   0  0  0  0  0  0  0  0  0  0  0  0
   -1.3534   27.0032  -27.6902 H   0  0  0  0  0  0  0  0  0  0  0  0
   -0.1994   25.7011  -27.1072 H   0  0  0  0  0  0  0  0  0  0  0  0
    0.0011   23.7869  -27.9993 H   0  0  0  0  0  0  0  0  0  0  0  0
   -0.8466   23.3352  -29.5172 H   0  0  0  0  0  0  0  0  0  0  0  0
    0.3362   24.6871  -29.5172 H   0  0  0  0  0  0  0  0  0  0  0  0
   -2.7626   23.5412  -27.9402 H   0  0  0  0  0  0  0  0  0  0  0  0
   -3.5691   25.1443  -28.0980 H   0  0  0  0  0  0  0  0  0  0  0  0
   -2.4496   23.7449  -30.5530 H   0  0  0  0  0  0  0  0  0  0  0  0
   -4.0517   23.2746  -29.8991 H   0  0  0  0  0  0  0  0  0  0  0  0
   -5.3610   25.4085  -29.1365 H   0  0  0  0  0  0  0  0  0  0  0  0
   -5.6734   26.2248  -30.7154 H   0  0  0  0  0  0  0  0  0  0  0  0
   -5.9887   23.3173  -29.9464 H   0  0  0  0  0  0  0  0  0  0  0  0
   -7.0750   24.3961  -30.9092 H   0  0  0  0  0  0  0  0  0  0  0  0
   -4.6190   24.0640  -32.3430 H   0  0  0  0  0  0  0  0  0  0  0  0
   -7.9387   23.4383  -31.7147 H   0  0  0  0  0  0  0  0  0  0  0  0
  -10.1964   22.4016  -31.6886 H   0  0  0  0  0  0  0  0  0  0  0  0
  -10.4710   19.9930  -32.2509 H   0  0  0  0  0  0  0  0  0  0  0  0
   -8.5037   18.6315  -32.9194 H   0  0  0  0  0  0  0  0  0  0  0  0
   -6.2976   17.4542  -33.1232 H   0  0  0  0  0  0  0  0  0  0  0  0
   -7.0779   18.2988  -34.5032 H   0  0  0  0  0  0  0  0  0  0  0  0
   -5.3019   18.0292  -34.5032 H   0  0  0  0  0  0  0  0  0  0  0  0
   -3.6561   18.1975  -33.4847 H   0  0  0  0  0  0  0  0  0  0  0  0
   -1.4680   19.1830  -33.2510 H   0  0  0  0  0  0  0  0  0  0  0  0
   -1.0972   21.4963  -32.6821 H   0  0  0  0  0  0  0  0  0  0  0  0
   -3.0530   22.9639  -32.2238 H   0  0  0  0  0  0  0  0  0  0  0  0
  1  2  1  0
  2  3  1  0
  3  4  1  0
  3  5  1  0
  5  6  1  0
  6  7  1  0
  7  8  1  0
  8  9  1  0
  9 10  1  0
 10 11  1  0
 11 12  2  0
 12 13  1  0
 13 14  2  0
 14 15  1  0
 15 16  2  0
 16 17  1  0
 17 18  2  0
 18 19  1  0
 18 20  1  0
 20 21  2  0
 21 22  1  0
 22 23  2  0
 23 24  1  0
 24 25  2  0
 25 11  1  0
 17 12  1  0
 25 20  1  0
  1 26  1  0
  1 27  1  0
  1 28  1  0
  2 29  1  0
  2 30  1  0
  4 31  1  0
  4 32  1  0
  4 33  1  0
  5 34  1  0
  5 35  1  0
  6 36  1  0
  6 37  1  0
  8 38  1  0
  8 39  1  0
  9 40  1  0
  9 41  1  0
 10 42  1  0
 13 43  1  0
 14 44  1  0
 15 45  1  0
 16 46  1  0
 19 47  1  0
 19 48  1  0
 19 49  1  0
 21 50  1  0
 22 51  1  0
 23 52  1  0
 24 53  1  0
M  CHG  2  18   1  22   1
M  END
>  <UniqueID>  (2) 
2

>  <SMILES>  (2) 
CCN(C)CCOCCNc1c2ccccc2[n+](C)c2c[nH+]ccc12

>  <Energy>  (2) 
80.30200646813424

>  <Genealogy>  (2) 
CCN(C)CCOCCNc1c2ccccc2[n+](C)c2c[nH+]ccc12 (protonated)
CCN(C)CCOCCNc1c2ccccc2[n+](C)c2c[nH+]ccc12 (3D coordinates assigned)
CCN(C)CCOCCNc1c2ccccc2[n+](C)c2c[nH+]ccc12 (optimized conformer: 80.30200646813424 kcal/mol)

>  <smiles>  (2) 
CCN(C)CCOCCNc1c2ccccc2[n+](C)c2cnccc12

>  <score_type>  (2) 
oracle

>  <origin>  (2) 
adg

>  <m_score__min__energy>  (2) 
-7.7999999999999998

>  <m_primary>  (2) 
energy

$$$$
2:0
     RDKit          3D

 68 71  0  0  0  0  0  0  0  0999 V2000
   -4.2300   23.8980  -28.7860 C   0  0  0  0  0  0  0  0  0  0  0  0
   -3.4980   24.6740  -29.8740 C   0  0  0  0  0  0  0  0  0  0  0  0
   -4.3490   24.7690  -31.0670 N   0  0  0  0  0  0  0  0  0  0  0  0
   -5.7820   24.6720  -30.7500 C   0  0  0  0  0  0  0  0  0  0  0  0
   -6.4150   23.3450  -31.2250 C   0  0  0  0  0  0  0  0  0  0  0  0
   -5.7110   22.7870  -32.4000 N   0  0  0  0  0  0  0  0  0  0  0  0
   -5.7430   21.3280  -32.3990 C   0  0  0  0  0  0  0  0  0  0  0  0
   -6.9990   20.6530  -32.3850 C   0  0  0  0  0  0  0  0  0  0  0  0
   -8.2120   21.3400  -32.1160 C   0  0  0  0  0  0  0  0  0  0  0  0
   -9.4340   20.6750  -32.1110 C   0  0  0  0  0  0  0  0  0  0  0  0
   -9.4910   19.3180  -32.3920 C   0  0  0  0  0  0  0  0  0  0  0  0
   -8.3230   18.6200  -32.6840 C   0  0  0  0  0  0  0  0  0  0  0  0
   -7.0560   19.2570  -32.6640 C   0  0  0  0  0  0  0  0  0  0  0  0
   -5.9040   18.5630  -32.9690 N   0  0  0  0  0  0  0  0  0  0  0  0
   -5.9260   17.0830  -33.0430 C   0  0  0  0  0  0  0  0  0  0  0  0
   -4.7170   19.2350  -33.1520 C   0  0  0  0  0  0  0  0  0  0  0  0
   -3.6300   18.6300  -33.8270 C   0  0  0  0  0  0  0  0  0  0  0  0
   -2.4010   19.2720  -33.9230 C   0  0  0  0  0  0  0  0  0  0  0  0
   -2.1930   20.4730  -33.2580 C   0  0  0  0  0  0  0  0  0  0  0  0
   -3.2430   21.0820  -32.5470 C   0  0  0  0  0  0  0  0  0  0  0  0
   -2.9660   22.0930  -31.6180 O   0  0  0  0  0  0  0  0  0  0  0  0
   -1.7300   22.2720  -30.9270 C   0  0  0  0  0  0  0  0  0  0  0  0
   -1.2060   20.9210  -30.3990 C   0  0  0  0  0  0  0  0  0  0  0  0
   -1.3220   20.7120  -28.9160 N   0  0  0  0  0  0  0  0  0  0  0  0
   -0.7770   21.9030  -28.1980 C   0  0  0  0  0  0  0  0  0  0  0  0
   -0.5970   19.4660  -28.5160 C   0  0  0  0  0  0  0  0  0  0  0  0
   -1.0400   18.9020  -27.1440 C   0  0  0  0  0  0  0  0  0  0  0  0
   -1.8710   19.8010  -26.4480 O   0  0  0  0  0  0  0  0  0  0  0  0
   -3.0580   20.0020  -27.1860 C   0  0  0  0  0  0  0  0  0  0  0  0
   -2.7780   20.5710  -28.6000 C   0  0  0  0  0  0  0  0  0  0  0  0
   -4.5670   20.5680  -32.6780 C   0  0  0  0  0  0  0  0  0  0  0  0
   -3.8980   24.2499  -27.7981 H   0  0  0  0  0  0  0  0  0  0  0  0
   -5.3136   24.0582  -28.8872 H   0  0  0  0  0  0  0  0  0  0  0  0
   -4.0069   22.8256  -28.8872 H   0  0  0  0  0  0  0  0  0  0  0  0
   -3.2648   25.6851  -29.5089 H   0  0  0  0  0  0  0  0  0  0  0  0
   -2.5647   24.1516  -30.1310 H   0  0  0  0  0  0  0  0  0  0  0  0
   -4.1610   25.6800  -31.5480 H   0  0  0  0  0  0  0  0  0  0  0  0
   -5.9062   24.7495  -29.6598 H   0  0  0  0  0  0  0  0  0  0  0  0
   -6.2931   25.4894  -31.2797 H   0  0  0  0  0  0  0  0  0  0  0  0
   -6.3691   22.6151  -30.4034 H   0  0  0  0  0  0  0  0  0  0  0  0
   -7.4558   23.5492  -31.5167 H   0  0  0  0  0  0  0  0  0  0  0  0
   -4.7230   23.1240  -32.4220 H   0  0  0  0  0  0  0  0  0  0  0  0
   -6.1110   23.2280  -33.2490 H   0  0  0  0  0  0  0  0  0  0  0  0
   -8.1851   22.4197  -31.9074 H   0  0  0  0  0  0  0  0  0  0  0  0
  -10.3578   21.2271  -31.8835 H   0  0  0  0  0  0  0  0  0  0  0  0
  -10.4582   18.7941  -32.3841 H   0  0  0  0  0  0  0  0  0  0  0  0
   -8.3838   17.5509  -32.9358 H   0  0  0  0  0  0  0  0  0  0  0  0
   -5.9322   16.6651  -32.0255 H   0  0  0  0  0  0  0  0  0  0  0  0
   -6.8291   16.7561  -33.5792 H   0  0  0  0  0  0  0  0  0  0  0  0
   -5.0330   16.7294  -33.5792 H   0  0  0  0  0  0  0  0  0  0  0  0
   -3.7598   17.6371  -34.2823 H   0  0  0  0  0  0  0  0  0  0  0  0
   -1.5940   18.8291  -34.5252 H   0  0  0  0  0  0  0  0  0  0  0  0
   -1.2025   20.9505  -33.2873 H   0  0  0  0  0  0  0  0  0  0  0  0
   -0.9891   22.7033  -31.6162 H   0  0  0  0  0  0  0  0  0  0  0  0
   -1.8935   22.9479  -30.0747 H   0  0  0  0  0  0  0  0  0  0  0  0
   -1.7717   20.1206  -30.8984 H   0  0  0  0  0  0  0  0  0  0  0  0
   -0.1285   20.9103  -30.6199 H   0  0  0  0  0  0  0  0  0  0  0  0
   -0.8507   21.7420  -27.1123 H   0  0  0  0  0  0  0  0  0  0  0  0
    0.2772   22.0483  -28.4764 H   0  0  0  0  0  0  0  0  0  0  0  0
   -1.3562   22.7958  -28.4764 H   0  0  0  0  0  0  0  0  0  0  0  0
   -0.7779   18.6977  -29.2822 H   0  0  0  0  0  0  0  0  0  0  0  0
    0.4677   19.7277  -28.4276 H   0  0  0  0  0  0  0  0  0  0  0  0
   -1.5898   17.9632  -27.3066 H   0  0  0  0  0  0  0  0  0  0  0  0
   -0.1375   18.7344  -26.5379 H   0  0  0  0  0  0  0  0  0  0  0  0
   -3.5790   19.0387  -27.2884 H   0  0  0  0  0  0  0  0  0  0  0  0
   -3.6738   20.7340  -26.6429 H   0  0  0  0  0  0  0  0  0  0  0  0
   -3.2302   19.8959  -29.3415 H   0  0  0  0  0  0  0  0  0  0  0  0
   -3.2122   21.5812  -28.6310 H   0  0  0  0  0  0  0  0  0  0  0  0
  1  2  1  0
  2  3  1  0
  3  4  1  0
  4  5  1  0
  5  6  1  0
  6  7  1  0
  7  8  2  0
  8  9  1  0
  9 10  2  0
 10 11  1  0
 11 12  2  0
 12 13  1  0
 13 14  2  0
 14 15  1  0
 14 16  1  0
 16 17  2  0
 17 18  1  0
 18 19  2  0
 19 20  1  0
 20 21  1  0
 21 22  1  0
 22 23  1  0
 23 24  1  0
 24 25  1  0
 24 26  1  0
 26 27  1  0
 27 28  1  0
 28 29  1  0
 29 30  1  0
 20 31  2  0
 31  7  1  0
 13  8  1  0
 31 16  1  0
 30 24  1  0
  1 32  1  0
  1 33  1  0
  1 34  1  0
  2 35  1  0
  2 36  1  0
  3 37  1  0
  4 38  1  0
  4 39  1  0
  5 40  1  0
  5 41  1  0
  6 42  1  0
  6 43  1  0
  9 44  1  0
 10 45  1  0
 11 46  1  0
 12 47  1  0
 15 48  1  0
 15 49  1  0
 15 50  1  0
 17 51  1  0
 18 52  1  0
 19 53  1  0
 22 54  1  0
 22 55  1  0
 23 56  1  0
 23 57  1  0
 25 58  1  0
 25 59  1  0
 25 60  1  0
 26 61  1  0
 26 62  1  0
 27 63  1  0
 27 64  1  0
 29 65  1  0
 29 66  1  0
 30 67  1  0
 30 68  1  0
M  CHG  3   6   1  14   1  24   1
M  END
>  <UniqueID>  (3) 
3

>  <SMILES>  (3) 
CCNCC[NH2+]c1c2ccccc2[n+](C)c2cccc(OCC[N+]3(C)CCOCC3)c12

>  <Energy>  (3) 
129.65744812262972

>  <Genealogy>  (3) 
CCNCC[NH2+]c1c2ccccc2[n+](C)c2cccc(OCC[N+]3(C)CCOCC3)c12 (protonated)
CCNCC[NH2+]c1c2ccccc2[n+](C)c2cccc(OCC[N+]3(C)CCOCC3)c12 (3D coordinates assigned)
CCNCC[NH2+]c1c2ccccc2[n+](C)c2cccc(OCC[N+]3(C)CCOCC3)c12 (nonaromatic ring conformer: 129.65744812262972 kcal/mol)

>  <smiles>  (3) 
CCNCCNc1c2ccccc2[n+](C)c2cccc(OCC[N+]3(C)CCOCC3)c12

>  <score_type>  (3) 
oracle

>  <origin>  (3) 
adg

>  <m_score__min__energy>  (3) 
-8.2100000000000009

>  <m_primary>  (3) 
energy

$$$$
3:0
     RDKit          3D

 41 43  0  0  0  0  0  0  0  0999 V2000
   -9.1110   22.6990  -31.9630 C   0  0  0  0  0  0  0  0  0  0  0  0
   -7.9840   22.3850  -30.9780 C   0  0  0  0  0  0  0  0  0  0  0  0
   -6.7680   21.9080  -31.6870 N   0  0  0  0  0  0  0  0  0  0  0  0
   -5.7230   22.7850  -31.9430 C   0  0  0  0  0  0  0  0  0  0  0  0
   -5.7190   24.2350  -31.4800 C   0  0  0  0  0  0  0  0  0  0  0  0
   -4.3530   24.7020  -31.2130 N   0  0  0  0  0  0  0  0  0  0  0  0
   -4.0830   24.7610  -29.7710 C   0  0  0  0  0  0  0  0  0  0  0  0
   -3.4650   23.4770  -29.3230 C   0  0  0  0  0  0  0  0  0  0  0  0
   -2.5350   22.7300  -30.0350 C   0  0  0  0  0  0  0  0  0  0  0  0
   -2.1880   21.5320  -29.3980 C   0  0  0  0  0  0  0  0  0  0  0  0
   -2.8510   21.3280  -28.1940 C   0  0  0  0  0  0  0  0  0  0  0  0
   -3.8710   22.6380  -27.9230 S   0  0  0  0  0  0  0  0  0  0  0  0
   -4.5970   22.3540  -32.6540 C   0  0  0  0  0  0  0  0  0  0  0  0
   -4.5020   21.0480  -33.1030 C   0  0  0  0  0  0  0  0  0  0  0  0
   -3.4710   20.6940  -33.7400 O   0  0  0  0  0  0  0  0  0  0  0  0
   -5.5390   20.1470  -32.8440 C   0  0  0  0  0  0  0  0  0  0  0  0
   -5.4500   18.8130  -33.2930 C   0  0  0  0  0  0  0  0  0  0  0  0
   -6.4820   17.8980  -33.0460 C   0  0  0  0  0  0  0  0  0  0  0  0
   -6.3860   16.5360  -33.5070 N   0  0  0  0  0  0  0  0  0  0  0  0
   -5.5480   15.7530  -33.0130 O   0  0  0  0  0  0  0  0  0  0  0  0
   -7.2190   16.0730  -34.4990 O   0  0  0  0  0  0  0  0  0  0  0  0
   -7.6120   18.3280  -32.3440 C   0  0  0  0  0  0  0  0  0  0  0  0
   -7.7160   19.6440  -31.8930 C   0  0  0  0  0  0  0  0  0  0  0  0
   -6.6850   20.5910  -32.1280 C   0  0  0  0  0  0  0  0  0  0  0  0
  -10.0246   22.9536  -31.4058 H   0  0  0  0  0  0  0  0  0  0  0  0
   -8.8184   23.5498  -32.5958 H   0  0  0  0  0  0  0  0  0  0  0  0
   -9.3005   21.8195  -32.5958 H   0  0  0  0  0  0  0  0  0  0  0  0
   -7.7362   23.2963  -30.4139 H   0  0  0  0  0  0  0  0  0  0  0  0
   -8.3260   21.5897  -30.2993 H   0  0  0  0  0  0  0  0  0  0  0  0
   -6.1665   24.8635  -32.2641 H   0  0  0  0  0  0  0  0  0  0  0  0
   -6.3001   24.3054  -30.5487 H   0  0  0  0  0  0  0  0  0  0  0  0
   -4.2720   25.6750  -31.5930 H   0  0  0  0  0  0  0  0  0  0  0  0
   -3.3931   25.5918  -29.5616 H   0  0  0  0  0  0  0  0  0  0  0  0
   -5.0270   24.9202  -29.2292 H   0  0  0  0  0  0  0  0  0  0  0  0
   -2.1141   23.0471  -31.0006 H   0  0  0  0  0  0  0  0  0  0  0  0
   -1.4592   20.8196  -29.8119 H   0  0  0  0  0  0  0  0  0  0  0  0
   -2.7296   20.4585  -27.5313 H   0  0  0  0  0  0  0  0  0  0  0  0
   -3.7790   23.0605  -32.8581 H   0  0  0  0  0  0  0  0  0  0  0  0
   -4.5568   18.4859  -33.8455 H   0  0  0  0  0  0  0  0  0  0  0  0
   -8.4296   17.6195  -32.1447 H   0  0  0  0  0  0  0  0  0  0  0  0
   -8.6167   19.9547  -31.3432 H   0  0  0  0  0  0  0  0  0  0  0  0
  1  2  1  0
  2  3  1  0
  3  4  1  0
  4  5  1  0
  5  6  1  0
  6  7  1  0
  7  8  1  0
  8  9  2  0
  9 10  1  0
 10 11  2  0
 11 12  1  0
  4 13  2  0
 13 14  1  0
 14 15  2  0
 14 16  1  0
 16 17  2  0
 17 18  1  0
 18 19  1  0
 19 20  2  0
 19 21  1  0
 18 22  2  0
 22 23  1  0
 23 24  2  0
 24  3  1  0
 12  8  1  0
 24 16  1  0
  1 25  1  0
  1 26  1  0
  1 27  1  0
  2 28  1  0
  2 29  1  0
  5 30  1  0
  5 31  1  0
  6 32  1  0
  7 33  1  0
  7 34  1  0
  9 35  1  0
 10 36  1  0
 11 37  1  0
 13 38  1  0
 17 39  1  0
 22 40  1  0
 23 41  1  0
M  CHG  2  19   1  21  -1
M  END
>  <UniqueID>  (4) 
4

>  <SMILES>  (4) 
CCn1c(CNCc2cccs2)cc(=O)c2cc([N+](=O)[O-])ccc21

>  <Energy>  (4) 
80.3443879087916

>  <Genealogy>  (4) 
CCn1c(CNCc2cccs2)cc(=O)c2cc([N+](=O)[O-])ccc21 (3D coordinates assigned)
CCn1c(CNCc2cccs2)cc(=O)c2cc([N+](=O)[O-])ccc21 (optimized conformer: 80.3443879087916 kcal/mol)

>  <smiles>  (4) 
CCn1c(CNCc2cccs2)cc(=O)c2cc([N+](=O)[O-])ccc21

>  <score_type>  (4) 
oracle

>  <origin>  (4) 
adg

>  <m_score__min__energy>  (4) 
-8.7300000000000004

>  <m_primary>  (4) 
energy

$$$$
4:0
     RDKit          3D

 48 50  0  0  0  0  0  0  0  0999 V2000
   -4.1370   24.4980  -27.0990 C   0  0  0  0  0  0  0  0  0  0  0  0
   -3.2030   23.6420  -27.9730 C   0  0  0  0  0  0  0  0  0  0  0  0
   -3.8340   22.9940  -29.1610 N   0  0  0  0  0  0  0  0  0  0  0  0
   -3.4690   21.5690  -29.3850 C   0  0  0  0  0  0  0  0  0  0  0  0
   -2.7520   20.9590  -28.1760 C   0  0  0  0  0  0  0  0  0  0  0  0
   -5.2980   23.2430  -29.2690 C   0  0  0  0  0  0  0  0  0  0  0  0
   -5.7670   23.9690  -30.5390 C   0  0  0  0  0  0  0  0  0  0  0  0
   -4.8000   23.8670  -31.5600 O   0  0  0  0  0  0  0  0  0  0  0  0
   -5.3920   23.2240  -32.6020 N   0  0  0  0  0  0  0  0  0  0  0  0
   -5.5120   21.7840  -32.6450 C   0  0  0  0  0  0  0  0  0  0  0  0
   -6.7290   21.0750  -32.4370 C   0  0  0  0  0  0  0  0  0  0  0  0
   -7.9050   21.7200  -31.9950 C   0  0  0  0  0  0  0  0  0  0  0  0
   -9.0790   21.0080  -31.7730 C   0  0  0  0  0  0  0  0  0  0  0  0
   -9.1100   19.6330  -31.9560 C   0  0  0  0  0  0  0  0  0  0  0  0
   -7.9650   18.9560  -32.3660 C   0  0  0  0  0  0  0  0  0  0  0  0
   -6.7560   19.6490  -32.6330 C   0  0  0  0  0  0  0  0  0  0  0  0
   -5.6180   18.9710  -33.0440 N   0  0  0  0  0  0  0  0  0  0  0  0
   -5.6730   17.5390  -33.4040 C   0  0  0  0  0  0  0  0  0  0  0  0
   -4.4270   19.6490  -33.1020 C   0  0  0  0  0  0  0  0  0  0  0  0
   -3.1540   19.0860  -33.3480 C   0  0  0  0  0  0  0  0  0  0  0  0
   -2.1320   20.0270  -33.3890 C   0  0  0  0  0  0  0  0  0  0  0  0
   -2.7890   21.5480  -33.1090 S   0  0  0  0  0  0  0  0  0  0  0  0
   -4.3770   21.0220  -32.9230 C   0  0  0  0  0  0  0  0  0  0  0  0
   -3.9253   24.3040  -26.0371 H   0  0  0  0  0  0  0  0  0  0  0  0
   -3.9697   25.5630  -27.3176 H   0  0  0  0  0  0  0  0  0  0  0  0
   -5.1834   24.2387  -27.3176 H   0  0  0  0  0  0  0  0  0  0  0  0
   -2.3913   24.2905  -28.3343 H   0  0  0  0  0  0  0  0  0  0  0  0
   -2.8652   22.8172  -27.3284 H   0  0  0  0  0  0  0  0  0  0  0  0
   -3.4470   23.5130  -29.9870 H   0  0  0  0  0  0  0  0  0  0  0  0
   -4.3866   20.9945  -29.5798 H   0  0  0  0  0  0  0  0  0  0  0  0
   -2.7812   21.5270  -30.2425 H   0  0  0  0  0  0  0  0  0  0  0  0
   -3.2037   21.3433  -27.2495 H   0  0  0  0  0  0  0  0  0  0  0  0
   -2.8508   19.8638  -28.2053 H   0  0  0  0  0  0  0  0  0  0  0  0
   -1.6868   21.2320  -28.2053 H   0  0  0  0  0  0  0  0  0  0  0  0
   -5.8085   22.2694  -29.2302 H   0  0  0  0  0  0  0  0  0  0  0  0
   -5.5462   23.9157  -28.4348 H   0  0  0  0  0  0  0  0  0  0  0  0
   -6.7075   23.5166  -30.8865 H   0  0  0  0  0  0  0  0  0  0  0  0
   -5.9184   25.0324  -30.3017 H   0  0  0  0  0  0  0  0  0  0  0  0
   -6.0580   23.7880  -33.1770 H   0  0  0  0  0  0  0  0  0  0  0  0
   -7.8923   22.8064  -31.8230 H   0  0  0  0  0  0  0  0  0  0  0  0
   -9.9876   21.5377  -31.4507 H   0  0  0  0  0  0  0  0  0  0  0  0
  -10.0417   19.0765  -31.7766 H   0  0  0  0  0  0  0  0  0  0  0  0
   -7.9981   17.8630  -32.4853 H   0  0  0  0  0  0  0  0  0  0  0  0
   -5.6963   16.9312  -32.4875 H   0  0  0  0  0  0  0  0  0  0  0  0
   -6.5793   17.3444  -33.9963 H   0  0  0  0  0  0  0  0  0  0  0  0
   -4.7843   17.2754  -33.9963 H   0  0  0  0  0  0  0  0  0  0  0  0
   -2.9884   18.0082  -33.4929 H   0  0  0  0  0  0  0  0  0  0  0  0
   -1.0693   19.8118  -33.5741 H   0  0  0  0  0  0  0  0  0  0  0  0
  1  2  1  0
  2  3  1  0
  3  4  1  0
  4  5  1  0
  3  6  1  0
  6  7  1  0
  7  8  1  0
  8  9  1  0
  9 10  1  0
 10 11  2  0
 11 12  1  0
 12 13  2  0
 13 14  1  0
 14 15  2  0
 15 16  1  0
 16 17  2  0
 17 18  1  0
 17 19  1  0
 19 20  1  0
 20 21  2  0
 21 22  1  0
 22 23  1  0
 23 10  1  0
 16 11  1  0
 23 19  2  0
  1 24  1  0
  1 25  1  0
  1 26  1  0
  2 27  1  0
  2 28  1  0
  3 29  1  0
  4 30  1  0
  4 31  1  0
  5 32  1  0
  5 33  1  0
  5 34  1  0
  6 35  1  0
  6 36  1  0
  7 37  1  0
  7 38  1  0
  9 39  1  0
 12 40  1  0
 13 41  1  0
 14 42  1  0
 15 43  1  0
 18 44  1  0
 18 45  1  0
 18 46  1  0
 20 47  1  0
 21 48  1  0
M  CHG  2   3   1  17   1
M  END
>  <UniqueID>  (5) 
5

>  <SMILES>  (5) 
CC[NH+](CC)CCONc1c2ccccc2[n+](C)c2ccsc12

>  <Energy>  (5) 
108.51776644626801

>  <Genealogy>  (5) 
CC[NH+](CC)CCONc1c2ccccc2[n+](C)c2ccsc12 (protonated)
CC[NH+](CC)CCONc1c2ccccc2[n+](C)c2ccsc12 (3D coordinates assigned)
CC[NH+](CC)CCONc1c2ccccc2[n+](C)c2ccsc12 (optimized conformer: 108.51776644626801 kcal/mol)

>  <smiles>  (5) 
CCN(CC)CCONc1c2ccccc2[n+](C)c2ccsc12

>  <score_type>  (5) 
oracle

>  <origin>  (5) 
adg

>  <m_score__min__energy>  (5) 
-7.1200000000000001

>  <m_primary>  (5) 
energy

$$$$
5:0
     RDKit          3D

 73 76  0  0  0  0  0  0  0  0999 V2000
   -0.9260   26.0910  -24.6000 C   0  0  0  0  0  0  0  0  0  0  0  0
   -2.2630   25.9990  -25.3440 C   0  0  0  0  0  0  0  0  0  0  0  0
   -2.1620   25.2300  -26.6720 C   0  0  0  0  0  0  0  0  0  0  0  0
   -1.1850   25.8460  -27.6810 C   0  0  0  0  0  0  0  0  0  0  0  0
   -1.4930   25.4210  -29.0490 N   0  0  0  0  0  0  0  0  0  0  0  0
   -2.3440   24.2940  -29.3190 C   0  0  0  0  0  0  0  0  0  0  0  0
   -3.6930   24.5230  -29.6080 C   0  0  0  0  0  0  0  0  0  0  0  0
   -4.5440   23.4770  -30.0350 C   0  0  0  0  0  0  0  0  0  0  0  0
   -3.9580   22.2120  -30.2860 C   0  0  0  0  0  0  0  0  0  0  0  0
   -4.6150   21.3420  -31.1920 C   0  0  0  0  0  0  0  0  0  0  0  0
   -3.8300   20.5810  -32.1640 N   0  0  0  0  0  0  0  0  0  0  0  0
   -3.4080   21.4100  -33.3130 C   0  0  0  0  0  0  0  0  0  0  0  0
   -1.9680   21.1310  -33.7930 C   0  0  0  0  0  0  0  0  0  0  0  0
   -1.7500   19.6700  -34.2270 C   0  0  0  0  0  0  0  0  0  0  0  0
   -2.5180   18.7570  -33.3500 N   0  0  0  0  0  0  0  0  0  0  0  0
   -1.6350   18.0410  -32.3960 C   0  0  0  0  0  0  0  0  0  0  0  0
   -0.4590   18.9110  -31.9600 C   0  0  0  0  0  0  0  0  0  0  0  0
   -3.4170   17.8660  -34.1310 C   0  0  0  0  0  0  0  0  0  0  0  0
   -4.8580   18.3850  -34.2580 C   0  0  0  0  0  0  0  0  0  0  0  0
   -6.0020   21.5270  -31.4010 C   0  0  0  0  0  0  0  0  0  0  0  0
   -6.7930   20.5300  -32.0160 C   0  0  0  0  0  0  0  0  0  0  0  0
   -8.1400   20.7580  -32.2980 C   0  0  0  0  0  0  0  0  0  0  0  0
   -8.7260   21.9730  -31.9730 C   0  0  0  0  0  0  0  0  0  0  0  0
   -7.9820   22.9550  -31.3220 C   0  0  0  0  0  0  0  0  0  0  0  0
   -6.6200   22.7370  -30.9710 C   0  0  0  0  0  0  0  0  0  0  0  0
   -5.8880   23.6820  -30.2770 N   0  0  0  0  0  0  0  0  0  0  0  0
   -6.5670   24.8750  -29.7180 C   0  0  0  0  0  0  0  0  0  0  0  0
   -2.7000   21.9110  -29.6950 C   0  0  0  0  0  0  0  0  0  0  0  0
   -2.3050   20.5840  -29.4230 C   0  0  0  0  0  0  0  0  0  0  0  0
   -1.0650   20.3120  -28.8540 C   0  0  0  0  0  0  0  0  0  0  0  0
   -0.2170   21.3560  -28.4910 C   0  0  0  0  0  0  0  0  0  0  0  0
   -0.6230   22.6770  -28.6670 C   0  0  0  0  0  0  0  0  0  0  0  0
   -1.8720   22.9720  -29.2460 C   0  0  0  0  0  0  0  0  0  0  0  0
   -1.1084   26.0785  -23.5153 H   0  0  0  0  0  0  0  0  0  0  0  0
   -0.2934   25.2343  -24.8754 H   0  0  0  0  0  0  0  0  0  0  0  0
   -0.4167   27.0263  -24.8754 H   0  0  0  0  0  0  0  0  0  0  0  0
   -2.9894   25.4860  -24.6966 H   0  0  0  0  0  0  0  0  0  0  0  0
   -2.5774   27.0258  -25.5823 H   0  0  0  0  0  0  0  0  0  0  0  0
   -1.8306   24.2043  -26.4526 H   0  0  0  0  0  0  0  0  0  0  0  0
   -3.1592   25.2652  -27.1349 H   0  0  0  0  0  0  0  0  0  0  0  0
   -1.2536   26.9423  -27.6225 H   0  0  0  0  0  0  0  0  0  0  0  0
   -0.1690   25.5054  -27.4324 H   0  0  0  0  0  0  0  0  0  0  0  0
   -0.8620   25.7590  -29.8130 H   0  0  0  0  0  0  0  0  0  0  0  0
   -4.1012   25.5388  -29.5009 H   0  0  0  0  0  0  0  0  0  0  0  0
   -4.3260   19.7450  -32.5360 H   0  0  0  0  0  0  0  0  0  0  0  0
   -2.9710   20.1900  -31.7290 H   0  0  0  0  0  0  0  0  0  0  0  0
   -4.0952   21.2167  -34.1499 H   0  0  0  0  0  0  0  0  0  0  0  0
   -3.4342   22.4570  -32.9767 H   0  0  0  0  0  0  0  0  0  0  0  0
   -1.7507   21.7869  -34.6489 H   0  0  0  0  0  0  0  0  0  0  0  0
   -1.2953   21.3257  -32.9447 H   0  0  0  0  0  0  0  0  0  0  0  0
   -2.0878   19.5453  -35.2664 H   0  0  0  0  0  0  0  0  0  0  0  0
   -0.6799   19.4278  -34.1487 H   0  0  0  0  0  0  0  0  0  0  0  0
   -2.2208   17.7611  -31.5081 H   0  0  0  0  0  0  0  0  0  0  0  0
   -1.2354   17.1483  -32.8995 H   0  0  0  0  0  0  0  0  0  0  0  0
   -0.4147   18.9438  -30.8614 H   0  0  0  0  0  0  0  0  0  0  0  0
    0.4767   18.4860  -32.3522 H   0  0  0  0  0  0  0  0  0  0  0  0
   -0.5916   19.9301  -32.3522 H   0  0  0  0  0  0  0  0  0  0  0  0
   -2.9994   17.7545  -35.1425 H   0  0  0  0  0  0  0  0  0  0  0  0
   -3.4700   16.9119  -33.5861 H   0  0  0  0  0  0  0  0  0  0  0  0
   -5.2824   18.5379  -33.2548 H   0  0  0  0  0  0  0  0  0  0  0  0
   -4.8571   19.3393  -34.8051 H   0  0  0  0  0  0  0  0  0  0  0  0
   -5.4658   17.6493  -34.8051 H   0  0  0  0  0  0  0  0  0  0  0  0
   -6.3405   19.5616  -32.2756 H   0  0  0  0  0  0  0  0  0  0  0  0
   -8.7398   19.9717  -32.7798 H   0  0  0  0  0  0  0  0  0  0  0  0
   -9.7790   22.1612  -32.2295 H   0  0  0  0  0  0  0  0  0  0  0  0
   -8.4560   23.9164  -31.0748 H   0  0  0  0  0  0  0  0  0  0  0  0
   -6.5415   24.8302  -28.6192 H   0  0  0  0  0  0  0  0  0  0  0  0
   -6.0511   25.7844  -30.0600 H   0  0  0  0  0  0  0  0  0  0  0  0
   -7.6123   24.8958  -30.0600 H   0  0  0  0  0  0  0  0  0  0  0  0
   -2.9859   19.7543  -29.6638 H   0  0  0  0  0  0  0  0  0  0  0  0
   -0.7533   19.2699  -28.6903 H   0  0  0  0  0  0  0  0  0  0  0  0
    0.7734   21.1372  -28.0653 H   0  0  0  0  0  0  0  0  0  0  0  0
    0.0383   23.4971  -28.3507 H   0  0  0  0  0  0  0  0  0  0  0  0
  1  2  1  0
  2  3  1  0
  3  4  1  0
  4  5  1  0
  5  6  1  0
  6  7  2  0
  7  8  1  0
  8  9  2  0
  9 10  1  0
 10 11  1  0
 11 12  1  0
 12 13  1  0
 13 14  1  0
 14 15  1  0
 15 16  1  0
 16 17  1  0
 15 18  1  0
 18 19  1  0
 10 20  2  0
 20 21  1  0
 21 22  2  0
 22 23  1  0
 23 24  2  0
 24 25  1  0
 25 26  2  0
 26 27  1  0
  9 28  1  0
 28 29  2  0
 29 30  1  0
 30 31  2  0
 31 32  1  0
 32 33  2  0
 33  6  1  0
 26  8  1  0
 33 28  1  0
 25 20  1  0
  1 34  1  0
  1 35  1  0
  1 36  1  0
  2 37  1  0
  2 38  1  0
  3 39  1  0
  3 40  1  0
  4 41  1  0
  4 42  1  0
  5 43  1  0
  7 44  1  0
 11 45  1  0
 11 46  1  0
 12 47  1  0
 12 48  1  0
 13 49  1  0
 13 50  1  0
 14 51  1  0
 14 52  1  0
 16 53  1  0
 16 54  1  0
 17 55  1  0
 17 56  1  0
 17 57  1  0
 18 58  1  0
 18 59  1  0
 19 60  1  0
 19 61  1  0
 19 62  1  0
 21 63  1  0
 22 64  1  0
 23 65  1  0
 24 66  1  0
 27 67  1  0
 27 68  1  0
 27 69  1  0
 29 70  1  0
 30 71  1  0
 31 72  1  0
 32 73  1  0
M  CHG  2  11   1  26   1
M  END
>  <UniqueID>  (6) 
6

>  <SMILES>  (6) 
CCCCNc1cc2c(c([NH2+]CCCN(CC)CC)c3ccccc3[n+]2C)c2ccccc12

>  <Energy>  (6) 
123.79645564769596

>  <Genealogy>  (6) 
CCCCNc1cc2c(c([NH2+]CCCN(CC)CC)c3ccccc3[n+]2C)c2ccccc12 (protonated)
CCCCNc1cc2c(c([NH2+]CCCN(CC)CC)c3ccccc3[n+]2C)c2ccccc12 (3D coordinates assigned)
CCCCNc1cc2c(c([NH2+]CCCN(CC)CC)c3ccccc3[n+]2C)c2ccccc12 (optimized conformer: 123.79645564769596 kcal/mol)

>  <smiles>  (6) 
CCCCNc1cc2c(c(NCCCN(CC)CC)c3ccccc3[n+]2C)c2ccccc12

>  <score_type>  (6) 
oracle

>  <origin>  (6) 
adg

>  <m_score__min__energy>  (6) 
-8.5600000000000005

>  <m_primary>  (6) 
energy

$$$$
6:0
     RDKit          3D

 46 49  0  0  0  0  0  0  0  0999 V2000
   -3.8900   24.5480  -27.0960 C   0  0  0  0  0  0  0  0  0  0  0  0
   -3.6610   23.6240  -28.0330 C   0  0  0  0  0  0  0  0  0  0  0  0
   -3.3780   24.0050  -29.4580 C   0  0  0  0  0  0  0  0  0  0  0  0
   -4.5550   23.7680  -30.2880 N   0  0  0  0  0  0  0  0  0  0  0  0
   -5.3900   22.7150  -30.1920 C   0  0  0  0  0  0  0  0  0  0  0  0
   -6.4040   22.8900  -31.1130 C   0  0  0  0  0  0  0  0  0  0  0  0
   -7.5560   22.0070  -31.3810 C   0  0  0  0  0  0  0  0  0  0  0  0
   -8.9000   22.3200  -31.2140 C   0  0  0  0  0  0  0  0  0  0  0  0
   -9.6730   21.2560  -31.5550 N   0  0  0  0  0  0  0  0  0  0  0  0
   -8.7720   20.3210  -31.9210 C   0  0  0  0  0  0  0  0  0  0  0  0
   -9.0490   19.0350  -32.3600 C   0  0  0  0  0  0  0  0  0  0  0  0
   -7.9590   18.2160  -32.6910 C   0  0  0  0  0  0  0  0  0  0  0  0
   -6.6340   18.7090  -32.5650 C   0  0  0  0  0  0  0  0  0  0  0  0
   -5.4790   17.8980  -32.8890 N   0  0  0  0  0  0  0  0  0  0  0  0
   -5.3850   16.5520  -32.3120 C   0  0  0  0  0  0  0  0  0  0  0  0
   -4.4370   18.3660  -33.8200 C   0  0  0  0  0  0  0  0  0  0  0  0
   -3.6780   19.5260  -33.2290 C   0  0  0  0  0  0  0  0  0  0  0  0
   -2.5480   19.2910  -32.4250 C   0  0  0  0  0  0  0  0  0  0  0  0
   -1.8350   20.3630  -31.8800 C   0  0  0  0  0  0  0  0  0  0  0  0
   -2.2470   21.6760  -32.1270 C   0  0  0  0  0  0  0  0  0  0  0  0
   -3.3750   21.9190  -32.9140 C   0  0  0  0  0  0  0  0  0  0  0  0
   -4.0930   20.8490  -33.4610 C   0  0  0  0  0  0  0  0  0  0  0  0
   -6.4520   19.9920  -32.1300 N   0  0  0  0  0  0  0  0  0  0  0  0
   -7.5070   20.7430  -31.8260 N   0  0  0  0  0  0  0  0  0  0  0  0
   -6.1190   24.0960  -31.7350 C   0  0  0  0  0  0  0  0  0  0  0  0
   -4.9910   24.6130  -31.2100 N   0  0  0  0  0  0  0  0  0  0  0  0
   -4.0947   24.2414  -26.0596 H   0  0  0  0  0  0  0  0  0  0  0  0
   -3.8738   25.6155  -27.3607 H   0  0  0  0  0  0  0  0  0  0  0  0
   -3.6801   22.5600  -27.7547 H   0  0  0  0  0  0  0  0  0  0  0  0
   -3.1110   25.0712  -29.5026 H   0  0  0  0  0  0  0  0  0  0  0  0
   -2.5453   23.3925  -29.8340 H   0  0  0  0  0  0  0  0  0  0  0  0
   -5.2829   21.8654  -29.5015 H   0  0  0  0  0  0  0  0  0  0  0  0
   -9.2820   23.2880  -30.8577 H   0  0  0  0  0  0  0  0  0  0  0  0
  -10.0835   18.6711  -32.4454 H   0  0  0  0  0  0  0  0  0  0  0  0
   -8.1316   17.1902  -33.0487 H   0  0  0  0  0  0  0  0  0  0  0  0
   -5.3899   16.6225  -31.2143 H   0  0  0  0  0  0  0  0  0  0  0  0
   -6.2433   15.9497  -32.6446 H   0  0  0  0  0  0  0  0  0  0  0  0
   -4.4513   16.0749  -32.6446 H   0  0  0  0  0  0  0  0  0  0  0  0
   -3.7371   17.5420  -34.0227 H   0  0  0  0  0  0  0  0  0  0  0  0
   -4.9178   18.6959  -34.7527 H   0  0  0  0  0  0  0  0  0  0  0  0
   -2.2239   18.2592  -32.2242 H   0  0  0  0  0  0  0  0  0  0  0  0
   -0.9490   20.1732  -31.2563 H   0  0  0  0  0  0  0  0  0  0  0  0
   -1.6823   22.5184  -31.7011 H   0  0  0  0  0  0  0  0  0  0  0  0
   -3.6996   22.9526  -33.1043 H   0  0  0  0  0  0  0  0  0  0  0  0
   -4.9850   21.0441  -34.0745 H   0  0  0  0  0  0  0  0  0  0  0  0
   -6.7197   24.5582  -32.5322 H   0  0  0  0  0  0  0  0  0  0  0  0
  1  2  2  0
  2  3  1  0
  3  4  1  0
  4  5  1  0
  5  6  2  0
  6  7  1  0
  7  8  2  0
  8  9  1  0
  9 10  2  0
 10 11  1  0
 11 12  2  0
 12 13  1  0
 13 14  1  0
 14 15  1  0
 14 16  1  0
 16 17  1  0
 17 18  2  0
 18 19  1  0
 19 20  2  0
 20 21  1  0
 21 22  2  0
 13 23  2  0
 23 24  1  0
  6 25  1  0
 25 26  2  0
 26  4  1  0
 24  7  1  0
 24 10  1  0
 22 17  1  0
  1 27  1  0
  1 28  1  0
  2 29  1  0
  3 30  1  0
  3 31  1  0
  5 32  1  0
  8 33  1  0
 11 34  1  0
 12 35  1  0
 15 36  1  0
 15 37  1  0
 15 38  1  0
 16 39  1  0
 16 40  1  0
 18 41  1  0
 19 42  1  0
 20 43  1  0
 21 44  1  0
 22 45  1  0
 25 46  1  0
M  END
>  <UniqueID>  (7) 
7

>  <SMILES>  (7) 
C=CCn1cc(-c2cnc3ccc(N(C)Cc4ccccc4)nn23)cn1

>  <Energy>  (7) 
112.40677897152035

>  <Genealogy>  (7) 
C=CCn1cc(-c2cnc3ccc(N(C)Cc4ccccc4)nn23)cn1 (3D coordinates assigned)
C=CCn1cc(-c2cnc3ccc(N(C)Cc4ccccc4)nn23)cn1 (optimized conformer: 112.40677897152035 kcal/mol)

>  <smiles>  (7) 
C=CCn1cc(-c2cnc3ccc(N(C)Cc4ccccc4)nn23)cn1

>  <score_type>  (7) 
oracle

>  <origin>  (7) 
adg

>  <m_score__min__energy>  (7) 
-8.3599999999999994

>  <m_primary>  (7) 
energy

$$$$
7:0
     RDKit          3D

 51 53  0  0  0  0  0  0  0  0999 V2000
   -3.4140   21.8970  -28.4490 C   0  0  0  0  0  0  0  0  0  0  0  0
   -4.1520   22.8610  -27.8940 C   0  0  0  0  0  0  0  0  0  0  0  0
   -4.0190   24.2940  -28.3460 C   0  0  0  0  0  0  0  0  0  0  0  0
   -5.3290   24.9120  -28.6450 N   0  0  0  0  0  0  0  0  0  0  0  0
   -5.5200   25.2140  -30.0760 C   0  0  0  0  0  0  0  0  0  0  0  0
   -5.8910   23.9650  -30.8990 C   0  0  0  0  0  0  0  0  0  0  0  0
   -4.6520   23.1940  -31.3870 C   0  0  0  0  0  0  0  0  0  0  0  0
   -4.9000   22.4970  -32.6560 N   0  0  0  0  0  0  0  0  0  0  0  0
   -5.1120   21.0760  -32.7380 C   0  0  0  0  0  0  0  0  0  0  0  0
   -4.0620   20.2360  -33.1530 C   0  0  0  0  0  0  0  0  0  0  0  0
   -2.7700   20.7570  -33.3810 C   0  0  0  0  0  0  0  0  0  0  0  0
   -1.7550   19.9460  -33.8820 C   0  0  0  0  0  0  0  0  0  0  0  0
   -2.0120   18.6130  -34.1790 C   0  0  0  0  0  0  0  0  0  0  0  0
   -3.2730   18.0710  -33.9370 C   0  0  0  0  0  0  0  0  0  0  0  0
   -4.3140   18.8570  -33.3780 C   0  0  0  0  0  0  0  0  0  0  0  0
   -5.5520   18.3190  -33.0790 N   0  0  0  0  0  0  0  0  0  0  0  0
   -5.7320   16.8490  -33.0570 C   0  0  0  0  0  0  0  0  0  0  0  0
   -6.6110   19.1490  -32.7560 C   0  0  0  0  0  0  0  0  0  0  0  0
   -7.9410   18.6640  -32.6720 C   0  0  0  0  0  0  0  0  0  0  0  0
   -8.9850   19.4900  -32.2580 C   0  0  0  0  0  0  0  0  0  0  0  0
   -8.7380   20.8170  -31.9050 C   0  0  0  0  0  0  0  0  0  0  0  0
   -9.8660   21.7040  -31.4650 C   0  0  0  0  0  0  0  0  0  0  0  0
   -7.4490   21.3370  -32.0500 C   0  0  0  0  0  0  0  0  0  0  0  0
   -6.3890   20.5310  -32.5170 C   0  0  0  0  0  0  0  0  0  0  0  0
   -3.5223   20.8566  -28.1087 H   0  0  0  0  0  0  0  0  0  0  0  0
   -2.6976   22.1431  -29.2466 H   0  0  0  0  0  0  0  0  0  0  0  0
   -4.8662   22.6072  -27.0969 H   0  0  0  0  0  0  0  0  0  0  0  0
   -3.5287   24.8723  -27.5490 H   0  0  0  0  0  0  0  0  0  0  0  0
   -3.4244   24.3012  -29.2714 H   0  0  0  0  0  0  0  0  0  0  0  0
   -6.1210   24.3310  -28.2840 H   0  0  0  0  0  0  0  0  0  0  0  0
   -5.3700   25.8250  -28.1320 H   0  0  0  0  0  0  0  0  0  0  0  0
   -6.3274   25.9545  -30.1754 H   0  0  0  0  0  0  0  0  0  0  0  0
   -4.5666   25.5999  -30.4660 H   0  0  0  0  0  0  0  0  0  0  0  0
   -6.4986   23.2963  -30.2715 H   0  0  0  0  0  0  0  0  0  0  0  0
   -6.4473   24.3014  -31.7863 H   0  0  0  0  0  0  0  0  0  0  0  0
   -3.8247   23.9050  -31.5285 H   0  0  0  0  0  0  0  0  0  0  0  0
   -4.4026   22.4378  -30.6280 H   0  0  0  0  0  0  0  0  0  0  0  0
   -5.0320   23.0680  -33.5220 H   0  0  0  0  0  0  0  0  0  0  0  0
   -2.5629   21.8146  -33.1606 H   0  0  0  0  0  0  0  0  0  0  0  0
   -0.7490   20.3608  -34.0428 H   0  0  0  0  0  0  0  0  0  0  0  0
   -1.2176   17.9836  -34.6065 H   0  0  0  0  0  0  0  0  0  0  0  0
   -3.4646   17.0162  -34.1834 H   0  0  0  0  0  0  0  0  0  0  0  0
   -5.7747   16.5004  -32.0146 H   0  0  0  0  0  0  0  0  0  0  0  0
   -6.6690   16.5866  -33.5700 H   0  0  0  0  0  0  0  0  0  0  0  0
   -4.8860   16.3683  -33.5700 H   0  0  0  0  0  0  0  0  0  0  0  0
   -8.1526   17.6179  -32.9381 H   0  0  0  0  0  0  0  0  0  0  0  0
  -10.0097   19.0931  -32.2094 H   0  0  0  0  0  0  0  0  0  0  0  0
   -9.9026   21.7328  -30.3660 H   0  0  0  0  0  0  0  0  0  0  0  0
   -9.7059   22.7207  -31.8533 H   0  0  0  0  0  0  0  0  0  0  0  0
  -10.8162   21.3086  -31.8533 H   0  0  0  0  0  0  0  0  0  0  0  0
   -7.2578   22.3901  -31.7964 H   0  0  0  0  0  0  0  0  0  0  0  0
  1  2  2  0
  2  3  1  0
  3  4  1  0
  4  5  1  0
  5  6  1  0
  6  7  1  0
  7  8  1  0
  8  9  1  0
  9 10  2  0
 10 11  1  0
 11 12  2  0
 12 13  1  0
 13 14  2  0
 14 15  1  0
 15 16  2  0
 16 17  1  0
 16 18  1  0
 18 19  2  0
 19 20  1  0
 20 21  2  0
 21 22  1  0
 21 23  1  0
 23 24  2  0
 24  9  1  0
 15 10  1  0
 24 18  1  0
  1 25  1  0
  1 26  1  0
  2 27  1  0
  3 28  1  0
  3 29  1  0
  4 30  1  0
  4 31  1  0
  5 32  1  0
  5 33  1  0
  6 34  1  0
  6 35  1  0
  7 36  1  0
  7 37  1  0
  8 38  1  0
 11 39  1  0
 12 40  1  0
 13 41  1  0
 14 42  1  0
 17 43  1  0
 17 44  1  0
 17 45  1  0
 19 46  1  0
 20 47  1  0
 22 48  1  0
 22 49  1  0
 22 50  1  0
 23 51  1  0
M  CHG  2   4   1  16   1
M  END
>  <UniqueID>  (8) 
8

>  <SMILES>  (8) 
C=CC[NH2+]CCCNc1c2ccccc2[n+](C)c2ccc(C)cc12

>  <Energy>  (8) 
72.43339763828403

>  <Genealogy>  (8) 
C=CC[NH2+]CCCNc1c2ccccc2[n+](C)c2ccc(C)cc12 (protonated)
C=CC[NH2+]CCCNc1c2ccccc2[n+](C)c2ccc(C)cc12 (3D coordinates assigned)
C=CC[NH2+]CCCNc1c2ccccc2[n+](C)c2ccc(C)cc12 (optimized conformer: 72.43339763828403 kcal/mol)

>  <smiles>  (8) 
C=CCNCCCNc1c2ccccc2[n+](C)c2ccc(C)cc12

>  <score_type>  (8) 
oracle

>  <origin>  (8) 
adg

>  <m_score__min__energy>  (8) 
-7.8600000000000003

>  <m_primary>  (8) 
energy

$$$$
8:0
     RDKit          3D

 60 64  0  0  0  0  0  0  0  0999 V2000
   -9.1040   21.2480  -30.8850 C   0  0  0  0  0  0  0  0  0  0  0  0
   -9.5940   20.8660  -32.2850 C   0  0  0  0  0  0  0  0  0  0  0  0
   -8.7400   19.8480  -32.9240 N   0  0  0  0  0  0  0  0  0  0  0  0
   -8.7090   18.5890  -32.1600 C   0  0  0  0  0  0  0  0  0  0  0  0
   -7.3120   18.3180  -31.5890 C   0  0  0  0  0  0  0  0  0  0  0  0
   -6.4530   19.4970  -31.7530 N   0  0  0  0  0  0  0  0  0  0  0  0
   -5.2080   19.1990  -32.4790 C   0  0  0  0  0  0  0  0  0  0  0  0
   -5.0300   20.0460  -33.7540 C   0  0  0  0  0  0  0  0  0  0  0  0
   -4.4690   21.3650  -33.4590 N   0  0  0  0  0  0  0  0  0  0  0  0
   -4.0210   21.6790  -32.1350 C   0  0  0  0  0  0  0  0  0  0  0  0
   -4.7900   22.5270  -31.3170 C   0  0  0  0  0  0  0  0  0  0  0  0
   -6.4620   23.2490  -31.9140 Br  0  0  0  0  0  0  0  0  0  0  0  0
   -4.3590   22.8320  -30.0230 C   0  0  0  0  0  0  0  0  0  0  0  0
   -3.1710   22.2960  -29.5300 C   0  0  0  0  0  0  0  0  0  0  0  0
   -2.3980   21.4410  -30.3260 C   0  0  0  0  0  0  0  0  0  0  0  0
   -1.2100   20.8950  -29.8290 C   0  0  0  0  0  0  0  0  0  0  0  0
   -0.4390   20.0360  -30.6320 C   0  0  0  0  0  0  0  0  0  0  0  0
   -0.8360   19.7800  -31.9250 N   0  0  0  0  0  0  0  0  0  0  0  0
   -2.0070   20.2860  -32.4160 C   0  0  0  0  0  0  0  0  0  0  0  0
   -2.8170   21.1270  -31.6350 C   0  0  0  0  0  0  0  0  0  0  0  0
   -0.0470   18.8740  -32.7800 C   0  0  0  0  0  0  0  0  0  0  0  0
    1.4550   19.0670  -32.5500 C   0  0  0  0  0  0  0  0  0  0  0  0
    1.7720   18.9560  -31.0860 C   0  0  0  0  0  0  0  0  0  0  0  0
    3.0050   18.4140  -30.6680 C   0  0  0  0  0  0  0  0  0  0  0  0
    3.2550   18.3420  -29.3030 C   0  0  0  0  0  0  0  0  0  0  0  0
    2.3600   18.7790  -28.3850 C   0  0  0  0  0  0  0  0  0  0  0  0
    1.1370   19.3360  -28.7490 C   0  0  0  0  0  0  0  0  0  0  0  0
    0.8400   19.4510  -30.1310 C   0  0  0  0  0  0  0  0  0  0  0  0
    2.8650   18.5720  -27.1150 O   0  0  0  0  0  0  0  0  0  0  0  0
    4.1610   17.9720  -27.2450 C   0  0  0  0  0  0  0  0  0  0  0  0
    4.3710   17.8440  -28.6580 O   0  0  0  0  0  0  0  0  0  0  0  0
   -9.7343   20.7566  -30.1292 H   0  0  0  0  0  0  0  0  0  0  0  0
   -8.0607   20.9225  -30.7602 H   0  0  0  0  0  0  0  0  0  0  0  0
   -9.1651   22.3392  -30.7602 H   0  0  0  0  0  0  0  0  0  0  0  0
  -10.6165   20.4686  -32.2046 H   0  0  0  0  0  0  0  0  0  0  0  0
   -9.5596   21.7709  -32.9095 H   0  0  0  0  0  0  0  0  0  0  0  0
   -9.0720   19.6660  -33.9010 H   0  0  0  0  0  0  0  0  0  0  0  0
   -7.7700   20.2380  -32.9780 H   0  0  0  0  0  0  0  0  0  0  0  0
   -9.4284   18.6554  -31.3305 H   0  0  0  0  0  0  0  0  0  0  0  0
   -8.9726   17.7645  -32.8387 H   0  0  0  0  0  0  0  0  0  0  0  0
   -7.3983   18.0788  -30.5188 H   0  0  0  0  0  0  0  0  0  0  0  0
   -6.8635   17.4724  -32.1311 H   0  0  0  0  0  0  0  0  0  0  0  0
   -6.2260   19.8930  -30.8100 H   0  0  0  0  0  0  0  0  0  0  0  0
   -4.3576   19.3934  -31.8088 H   0  0  0  0  0  0  0  0  0  0  0  0
   -5.2563   18.1453  -32.7912 H   0  0  0  0  0  0  0  0  0  0  0  0
   -4.3528   19.5170  -34.4407 H   0  0  0  0  0  0  0  0  0  0  0  0
   -6.0213   20.1910  -34.2081 H   0  0  0  0  0  0  0  0  0  0  0  0
   -4.6140   22.1570  -34.1250 H   0  0  0  0  0  0  0  0  0  0  0  0
   -4.9616   23.4996  -29.3895 H   0  0  0  0  0  0  0  0  0  0  0  0
   -2.8388   22.5453  -28.5114 H   0  0  0  0  0  0  0  0  0  0  0  0
   -0.8785   21.1379  -28.8087 H   0  0  0  0  0  0  0  0  0  0  0  0
   -2.3201   20.0306  -33.4391 H   0  0  0  0  0  0  0  0  0  0  0  0
   -0.3156   17.8335  -32.5449 H   0  0  0  0  0  0  0  0  0  0  0  0
   -0.2715   19.1031  -33.8322 H   0  0  0  0  0  0  0  0  0  0  0  0
    2.0098   18.2939  -33.1019 H   0  0  0  0  0  0  0  0  0  0  0  0
    1.7483   20.0653  -32.9070 H   0  0  0  0  0  0  0  0  0  0  0  0
    3.7458   18.0593  -31.3997 H   0  0  0  0  0  0  0  0  0  0  0  0
    0.4215   19.6772  -27.9864 H   0  0  0  0  0  0  0  0  0  0  0  0
    4.9318   18.6159  -26.7964 H   0  0  0  0  0  0  0  0  0  0  0  0
    4.2210   17.0024  -26.7290 H   0  0  0  0  0  0  0  0  0  0  0  0
  1  2  1  0
  2  3  1  0
  3  4  1  0
  4  5  1  0
  5  6  1  0
  6  7  1  0
  7  8  1  0
  8  9  1  0
  9 10  1  0
 10 11  2  0
 11 12  1  0
 11 13  1  0
 13 14  2  0
 14 15  1  0
 15 16  2  0
 16 17  1  0
 17 18  2  0
 18 19  1  0
 19 20  2  0
 18 21  1  0
 21 22  1  0
 22 23  1  0
 23 24  2  0
 24 25  1  0
 25 26  2  0
 26 27  1  0
 27 28  2  0
 26 29  1  0
 29 30  1  0
 30 31  1  0
 20 10  1  0
 28 23  1  0
 20 15  1  0
 31 25  1  0
 28 17  1  0
  1 32  1  0
  1 33  1  0
  1 34  1  0
  2 35  1  0
  2 36  1  0
  3 37  1  0
  3 38  1  0
  4 39  1  0
  4 40  1  0
  5 41  1  0
  5 42  1  0
  6 43  1  0
  7 44  1  0
  7 45  1  0
  8 46  1  0
  8 47  1  0
  9 48  1  0
 13 49  1  0
 14 50  1  0
 16 51  1  0
 19 52  1  0
 21 53  1  0
 21 54  1  0
 22 55  1  0
 22 56  1  0
 24 57  1  0
 27 58  1  0
 30 59  1  0
 30 60  1  0
M  CHG  2   3   1  18   1
M  END
>  <UniqueID>  (9) 
9

>  <SMILES>  (9) 
CC[NH2+]CCNCCNc1c(Br)ccc2cc3[n+](cc12)CCc1cc2c(cc1-3)OCO2

>  <Energy>  (9) 
104.20989522316819

>  <Genealogy>  (9) 
CC[NH2+]CCNCCNc1c(Br)ccc2cc3[n+](cc12)CCc1cc2c(cc1-3)OCO2 (protonated)
CC[NH2+]CCNCCNc1c(Br)ccc2cc3[n+](cc12)CCc1cc2c(cc1-3)OCO2 (3D coordinates assigned)
CC[NH2+]CCNCCNc1c(Br)ccc2cc3[n+](cc12)CCc1cc2c(cc1-3)OCO2 (nonaromatic ring conformer: 104.20989522316819 kcal/mol)

>  <smiles>  (9) 
CCNCCNCCNc1c(Br)ccc2cc3[n+](cc12)CCc1cc2c(cc1-3)OCO2

>  <score_type>  (9) 
oracle

>  <origin>  (9) 
adg

>  <m_score__min__energy>  (9) 
-9.0500000000000007

>  <m_primary>  (9) 
energy

$$$$
9:0
     RDKit          3D

 58 60  0  0  0  0  0  0  0  0999 V2000
   -0.5030   17.7640  -31.9270 C   0  0  0  0  0  0  0  0  0  0  0  0
   -0.8300   17.2010  -33.3100 C   0  0  0  0  0  0  0  0  0  0  0  0
   -0.5760   18.2060  -34.3550 N   0  0  0  0  0  0  0  0  0  0  0  0
   -0.1580   17.5980  -35.6320 C   0  0  0  0  0  0  0  0  0  0  0  0
    0.7020   18.5320  -36.5020 C   0  0  0  0  0  0  0  0  0  0  0  0
    1.0940   19.6890  -35.7830 O   0  0  0  0  0  0  0  0  0  0  0  0
    0.2810   20.8020  -36.1060 C   0  0  0  0  0  0  0  0  0  0  0  0
   -0.1190   21.5610  -34.8370 C   0  0  0  0  0  0  0  0  0  0  0  0
   -0.9300   20.7540  -34.0040 O   0  0  0  0  0  0  0  0  0  0  0  0
   -0.8700   21.1760  -32.6520 C   0  0  0  0  0  0  0  0  0  0  0  0
   -2.2670   21.5450  -32.1600 C   0  0  0  0  0  0  0  0  0  0  0  0
   -3.2330   21.4680  -33.2560 N   0  0  0  0  0  0  0  0  0  0  0  0
   -4.5490   20.9220  -33.0570 C   0  0  0  0  0  0  0  0  0  0  0  0
   -4.8450   19.6130  -33.4810 C   0  0  0  0  0  0  0  0  0  0  0  0
   -3.8490   18.7980  -34.0630 C   0  0  0  0  0  0  0  0  0  0  0  0
   -4.1570   17.5260  -34.5370 C   0  0  0  0  0  0  0  0  0  0  0  0
   -5.4580   17.0470  -34.4460 C   0  0  0  0  0  0  0  0  0  0  0  0
   -6.4500   17.8210  -33.8450 C   0  0  0  0  0  0  0  0  0  0  0  0
   -6.1570   19.0990  -33.3060 C   0  0  0  0  0  0  0  0  0  0  0  0
   -7.1110   19.8400  -32.6330 N   0  0  0  0  0  0  0  0  0  0  0  0
   -8.3750   19.2000  -32.2010 C   0  0  0  0  0  0  0  0  0  0  0  0
   -6.8690   21.1650  -32.3270 C   0  0  0  0  0  0  0  0  0  0  0  0
   -7.9000   22.0250  -31.8660 C   0  0  0  0  0  0  0  0  0  0  0  0
   -7.6300   23.3440  -31.5020 C   0  0  0  0  0  0  0  0  0  0  0  0
   -6.3390   23.8450  -31.5990 C   0  0  0  0  0  0  0  0  0  0  0  0
   -5.3130   23.0420  -32.0910 C   0  0  0  0  0  0  0  0  0  0  0  0
   -5.5650   21.7090  -32.4840 C   0  0  0  0  0  0  0  0  0  0  0  0
   -0.8958   17.0877  -31.1535 H   0  0  0  0  0  0  0  0  0  0  0  0
    0.5877   17.8536  -31.8161 H   0  0  0  0  0  0  0  0  0  0  0  0
   -0.9656   18.7558  -31.8161 H   0  0  0  0  0  0  0  0  0  0  0  0
   -0.2016   16.3180  -33.4981 H   0  0  0  0  0  0  0  0  0  0  0  0
   -1.8945   16.9250  -33.3365 H   0  0  0  0  0  0  0  0  0  0  0  0
   -1.4610   18.7370  -34.5350 H   0  0  0  0  0  0  0  0  0  0  0  0
    0.1470   18.8890  -34.0280 H   0  0  0  0  0  0  0  0  0  0  0  0
    0.4251   16.6916  -35.4121 H   0  0  0  0  0  0  0  0  0  0  0  0
   -1.0731   17.3764  -36.2007 H   0  0  0  0  0  0  0  0  0  0  0  0
    1.6023   17.9903  -36.8276 H   0  0  0  0  0  0  0  0  0  0  0  0
    0.1033   18.8481  -37.3690 H   0  0  0  0  0  0  0  0  0  0  0  0
    0.8395   21.4774  -36.7708 H   0  0  0  0  0  0  0  0  0  0  0  0
   -0.6298   20.4433  -36.6078 H   0  0  0  0  0  0  0  0  0  0  0  0
    0.7893   21.8484  -34.2871 H   0  0  0  0  0  0  0  0  0  0  0  0
   -0.6903   22.4554  -35.1261 H   0  0  0  0  0  0  0  0  0  0  0  0
   -0.4690   20.3601  -32.0328 H   0  0  0  0  0  0  0  0  0  0  0  0
   -0.2153   22.0567  -32.5764 H   0  0  0  0  0  0  0  0  0  0  0  0
   -2.5664   20.8475  -31.3639 H   0  0  0  0  0  0  0  0  0  0  0  0
   -2.2479   22.5750  -31.7743 H   0  0  0  0  0  0  0  0  0  0  0  0
   -2.8720   21.5570  -34.2340 H   0  0  0  0  0  0  0  0  0  0  0  0
   -2.8179   19.1729  -34.1426 H   0  0  0  0  0  0  0  0  0  0  0  0
   -3.3704   16.9001  -34.9836 H   0  0  0  0  0  0  0  0  0  0  0  0
   -5.7062   16.0542  -34.8493 H   0  0  0  0  0  0  0  0  0  0  0  0
   -7.4778   17.4332  -33.7881 H   0  0  0  0  0  0  0  0  0  0  0  0
   -8.4180   19.1782  -31.1021 H   0  0  0  0  0  0  0  0  0  0  0  0
   -9.2285   19.7745  -32.5901 H   0  0  0  0  0  0  0  0  0  0  0  0
   -8.4171   18.1720  -32.5901 H   0  0  0  0  0  0  0  0  0  0  0  0
   -8.9296   21.6445  -31.7946 H   0  0  0  0  0  0  0  0  0  0  0  0
   -8.4426   23.9893  -31.1369 H   0  0  0  0  0  0  0  0  0  0  0  0
   -6.1260   24.8780  -31.2867 H   0  0  0  0  0  0  0  0  0  0  0  0
   -4.2951   23.4505  -32.1745 H   0  0  0  0  0  0  0  0  0  0  0  0
  1  2  1  0
  2  3  1  0
  3  4  1  0
  4  5  1  0
  5  6  1  0
  6  7  1  0
  7  8  1  0
  8  9  1  0
  9 10  1  0
 10 11  1  0
 11 12  1  0
 12 13  1  0
 13 14  2  0
 14 15  1  0
 15 16  2  0
 16 17  1  0
 17 18  2  0
 18 19  1  0
 19 20  2  0
 20 21  1  0
 20 22  1  0
 22 23  2  0
 23 24  1  0
 24 25  2  0
 25 26  1  0
 26 27  2  0
 27 13  1  0
 19 14  1  0
 27 22  1  0
  1 28  1  0
  1 29  1  0
  1 30  1  0
  2 31  1  0
  2 32  1  0
  3 33  1  0
  3 34  1  0
  4 35  1  0
  4 36  1  0
  5 37  1  0
  5 38  1  0
  7 39  1  0
  7 40  1  0
  8 41  1  0
  8 42  1  0
 10 43  1  0
 10 44  1  0
 11 45  1  0
 11 46  1  0
 12 47  1  0
 15 48  1  0
 16 49  1  0
 17 50  1  0
 18 51  1  0
 21 52  1  0
 21 53  1  0
 21 54  1  0
 23 55  1  0
 24 56  1  0
 25 57  1  0
 26 58  1  0
M  CHG  2   3   1  20   1
M  END
>  <UniqueID>  (10) 
10

>  <SMILES>  (10) 
CC[NH2+]CCOCCOCCNc1c2ccccc2[n+](C)c2ccccc12

>  <Energy>  (10) 
84.95817078696341

>  <Genealogy>  (10) 
CC[NH2+]CCOCCOCCNc1c2ccccc2[n+](C)c2ccccc12 (protonated)
CC[NH2+]CCOCCOCCNc1c2ccccc2[n+](C)c2ccccc12 (3D coordinates assigned)
CC[NH2+]CCOCCOCCNc1c2ccccc2[n+](C)c2ccccc12 (optimized conformer: 84.95817078696341 kcal/mol)

>  <smiles>  (10) 
CCNCCOCCOCCNc1c2ccccc2[n+](C)c2ccccc12

>  <score_type>  (10) 
oracle

>  <origin>  (10) 
adg

>  <m_score__min__energy>  (10) 
-7.8300000000000001

>  <m_primary>  (10) 
energy

$$$$
10:0
     RDKit          3D

 40 41  0  0  0  0  0  0  0  0999 V2000
   -9.1258   18.2273  -32.0887 H   0  0  0  0  0  0  0  0  0  0  0  0
   -8.3490   19.0030  -32.1590 C   0  0  0  0  0  0  0  0  0  0  0  0
   -7.1300   18.7170  -32.8030 C   0  0  0  0  0  0  0  0  0  0  0  0
   -6.8560   17.1210  -33.4800 Cl  0  0  0  0  0  0  0  0  0  0  0  0
   -6.1300   19.7000  -32.9050 C   0  0  0  0  0  0  0  0  0  0  0  0
   -5.1766   19.4762  -33.4059 H   0  0  0  0  0  0  0  0  0  0  0  0
   -6.3660   20.9720  -32.3580 C   0  0  0  0  0  0  0  0  0  0  0  0
   -7.5740   21.2290  -31.7190 C   0  0  0  0  0  0  0  0  0  0  0  0
   -7.5780   22.8000  -31.1300 S   0  0  0  0  0  0  0  0  0  0  0  0
   -6.0140   23.1040  -31.7180 C   0  0  0  0  0  0  0  0  0  0  0  0
   -5.3650   24.2240  -31.5720 N   0  0  0  0  0  0  0  0  0  0  0  0
   -5.0290   24.8490  -30.2950 C   0  0  0  0  0  0  0  0  0  0  0  0
   -4.2285   25.5866  -30.4536 H   0  0  0  0  0  0  0  0  0  0  0  0
   -4.6955   24.0678  -29.5961 H   0  0  0  0  0  0  0  0  0  0  0  0
   -6.2460   25.5510  -29.7010 C   0  0  0  0  0  0  0  0  0  0  0  0
   -6.1887   25.5180  -28.6030 H   0  0  0  0  0  0  0  0  0  0  0  0
   -6.2647   26.5986  -30.0358 H   0  0  0  0  0  0  0  0  0  0  0  0
   -7.1622   25.0427  -30.0358 H   0  0  0  0  0  0  0  0  0  0  0  0
   -5.4940   22.0280  -32.3720 N   0  0  0  0  0  0  0  0  0  0  0  0
   -4.1410   21.9970  -32.9460 C   0  0  0  0  0  0  0  0  0  0  0  0
   -4.1573   21.4226  -33.8840 H   0  0  0  0  0  0  0  0  0  0  0  0
   -3.8107   23.0277  -33.1426 H   0  0  0  0  0  0  0  0  0  0  0  0
   -3.1660   21.3380  -31.9660 C   0  0  0  0  0  0  0  0  0  0  0  0
   -3.0867   21.9626  -31.0640 H   0  0  0  0  0  0  0  0  0  0  0  0
   -3.5487   20.3383  -31.7128 H   0  0  0  0  0  0  0  0  0  0  0  0
   -1.7680   21.1810  -32.5930 C   0  0  0  0  0  0  0  0  0  0  0  0
   -1.3038   22.1749  -32.6746 H   0  0  0  0  0  0  0  0  0  0  0  0
   -1.1819   20.5145  -31.9431 H   0  0  0  0  0  0  0  0  0  0  0  0
   -1.8190   20.5670  -33.9420 N   0  0  0  0  0  0  0  0  0  0  0  0
   -2.3420   21.1990  -34.5940 H   0  0  0  0  0  0  0  0  0  0  0  0
   -0.4510   20.4110  -34.4710 C   0  0  0  0  0  0  0  0  0  0  0  0
    0.2586   20.3301  -33.6344 H   0  0  0  0  0  0  0  0  0  0  0  0
   -0.3975   19.5009  -35.0866 H   0  0  0  0  0  0  0  0  0  0  0  0
   -0.1939   21.2857  -35.0866 H   0  0  0  0  0  0  0  0  0  0  0  0
   -2.4910   19.2540  -33.9200 C   0  0  0  0  0  0  0  0  0  0  0  0
   -2.6510   18.9414  -32.8776 H   0  0  0  0  0  0  0  0  0  0  0  0
   -3.4611   19.3299  -34.4330 H   0  0  0  0  0  0  0  0  0  0  0  0
   -1.8620   18.5116  -34.4330 H   0  0  0  0  0  0  0  0  0  0  0  0
   -8.5780   20.2710  -31.6070 C   0  0  0  0  0  0  0  0  0  0  0  0
   -9.5257   20.5029  -31.0989 H   0  0  0  0  0  0  0  0  0  0  0  0
  1  2  1  0
  2  3  2  0
  3  4  1  0
  3  5  1  0
  5  6  1  0
  5  7  2  0
  7  8  1  0
  8  9  1  0
  9 10  1  0
 10 11  2  0
 11 12  1  0
 12 13  1  0
 12 14  1  0
 12 15  1  0
 15 16  1  0
 15 17  1  0
 15 18  1  0
 10 19  1  0
 19 20  1  0
 20 21  1  0
 20 22  1  0
 20 23  1  0
 23 24  1  0
 23 25  1  0
 23 26  1  0
 26 27  1  0
 26 28  1  0
 26 29  1  0
 29 30  1  0
 29 31  1  0
 31 32  1  0
 31 33  1  0
 31 34  1  0
 29 35  1  0
 35 36  1  0
 35 37  1  0
 35 38  1  0
  8 39  2  0
 39 40  1  0
 39  2  1  0
 19  7  1  0
M  CHG  1  29   1
M  END
>  <UniqueID>  (11) 
11

>  <SMILES>  (11) 
CC/N=c1\sc2ccc(Cl)cc2n1CCC[NH+](C)C

>  <Energy>  (11) 
70.05811375232962

>  <Genealogy>  (11) 
CCN=c1sc2ccc(Cl)cc2n1CCC[NH+](C)C (protonated)
CC/N=c1\sc2ccc(Cl)cc2n1CCC[NH+](C)C (cis-trans isomerization)
CC/N=c1\sc2ccc(Cl)cc2n1CCC[NH+](C)C (3D coordinates assigned)
CC/N=c1\sc2ccc(Cl)cc2n1CCC[NH+](C)C (optimized conformer: 70.05811375232962 kcal/mol)

>  <smiles>  (11) 
CCN=c1sc2ccc(Cl)cc2n1CCCN(C)C

>  <score_type>  (11) 
oracle

>  <origin>  (11) 
adg

>  <m_score__min__energy>  (11) 
-6.7199999999999998

>  <m_primary>  (11) 
energy

$$$$
11:0
     RDKit          3D

 33 34  0  0  0  0  0  0  0  0999 V2000
   -8.6940   22.3650  -31.6260 C   0  0  0  0  0  0  0  0  0  0  0  0
   -7.3800   22.5240  -31.8440 C   0  0  0  0  0  0  0  0  0  0  0  0
   -6.5730   21.3720  -32.3790 C   0  0  0  0  0  0  0  0  0  0  0  0
   -6.7250   23.8520  -31.5510 C   0  0  0  0  0  0  0  0  0  0  0  0
   -5.2770   23.7420  -31.6810 N   0  0  0  0  0  0  0  0  0  0  0  0
   -4.3540   24.4140  -30.8170 C   0  0  0  0  0  0  0  0  0  0  0  0
   -4.2590   25.6710  -30.8370 O   0  0  0  0  0  0  0  0  0  0  0  0
   -3.4680   23.6150  -29.9120 C   0  0  0  0  0  0  0  0  0  0  0  0
   -2.9630   24.4620  -28.7300 C   0  0  1  0  0  0  0  0  0  0  0  0
   -3.1600   23.5710  -27.1470 S   0  0  0  0  0  0  0  0  0  0  0  0
   -1.9320   22.3010  -27.4910 C   0  0  0  0  0  0  0  0  0  0  0  0
   -2.1940   20.9760  -27.1240 C   0  0  0  0  0  0  0  0  0  0  0  0
   -1.2140   19.9940  -27.2920 C   0  0  0  0  0  0  0  0  0  0  0  0
    0.0310   20.3310  -27.8310 C   0  0  0  0  0  0  0  0  0  0  0  0
    1.2620   19.0980  -28.0370 Cl  0  0  0  0  0  0  0  0  0  0  0  0
    0.2880   21.6500  -28.2240 C   0  0  0  0  0  0  0  0  0  0  0  0
   -0.6970   22.6340  -28.0750 C   0  0  0  0  0  0  0  0  0  0  0  0
   -0.4640   23.9420  -28.6070 N   0  0  0  0  0  0  0  0  0  0  0  0
   -1.5210   24.8650  -28.8910 C   0  0  0  0  0  0  0  0  0  0  0  0
   -1.2370   26.0150  -29.3150 O   0  0  0  0  0  0  0  0  0  0  0  0
   -9.2918   23.2015  -31.2351 H   0  0  0  0  0  0  0  0  0  0  0  0
   -9.1737   21.3981  -31.8381 H   0  0  0  0  0  0  0  0  0  0  0  0
   -6.1648   20.7893  -31.5400 H   0  0  0  0  0  0  0  0  0  0  0  0
   -7.2177   20.7270  -32.9940 H   0  0  0  0  0  0  0  0  0  0  0  0
   -5.7465   21.7576  -32.9940 H   0  0  0  0  0  0  0  0  0  0  0  0
   -7.0969   24.6047  -32.2618 H   0  0  0  0  0  0  0  0  0  0  0  0
   -6.9699   24.1522  -30.5215 H   0  0  0  0  0  0  0  0  0  0  0  0
   -4.0354   22.7575  -29.5213 H   0  0  0  0  0  0  0  0  0  0  0  0
   -2.5971   23.2751  -30.4916 H   0  0  0  0  0  0  0  0  0  0  0  0
   -3.5798   25.3727  -28.7201 H   0  0  0  0  0  0  0  0  0  0  0  0
   -3.1737   20.7070  -26.7023 H   0  0  0  0  0  0  0  0  0  0  0  0
   -1.4226   18.9543  -26.9997 H   0  0  0  0  0  0  0  0  0  0  0  0
    1.2667   21.9141  -28.6511 H   0  0  0  0  0  0  0  0  0  0  0  0
  1  2  2  0
  2  3  1  0
  2  4  1  0
  4  5  1  0
  5  6  1  0
  6  7  2  0
  6  8  1  0
  8  9  1  0
  9 10  1  0
 10 11  1  0
 11 12  2  0
 12 13  1  0
 13 14  2  0
 14 15  1  0
 14 16  1  0
 16 17  2  0
 17 18  1  0
 18 19  1  0
 19 20  2  0
 19  9  1  0
 17 11  1  0
  1 21  1  0
  1 22  1  0
  3 23  1  0
  3 24  1  0
  3 25  1  0
  4 26  1  0
  4 27  1  0
  8 28  1  0
  8 29  1  0
  9 30  1  1
 12 31  1  0
 13 32  1  0
 16 33  1  0
M  CHG  2   5  -1  18  -1
M  END
>  <UniqueID>  (12) 
12

>  <SMILES>  (12) 
C=C(C)C[N-]C(=O)C[C@H]1Sc2ccc(Cl)cc2[N-]C1=O

>  <Energy>  (12) 
27.707859784661704

>  <Genealogy>  (12) 
C=C(C)C[N-]C(=O)CC1Sc2ccc(Cl)cc2[N-]C1=O (protonated)
C=C(C)C[N-]C(=O)C[C@H]1Sc2ccc(Cl)cc2[N-]C1=O (chirality)
C=C(C)C[N-]C(=O)C[C@H]1Sc2ccc(Cl)cc2[N-]C1=O (3D coordinates assigned)
C=C(C)C[N-]C(=O)C[C@H]1Sc2ccc(Cl)cc2[N-]C1=O (nonaromatic ring conformer: 27.707859784661704 kcal/mol)

>  <smiles>  (12) 
C=C(C)CNC(=O)CC1Sc2ccc(Cl)cc2NC1=O

>  <score_type>  (12) 
oracle

>  <origin>  (12) 
adg

>  <m_score__min__energy>  (12) 
-9.3599999999999994

>  <m_primary>  (12) 
energy

$$$$
12:0
     RDKit          3D

 44 46  0  0  0  0  0  0  0  0999 V2000
   -3.7540   24.5040  -27.2480 C   0  0  0  0  0  0  0  0  0  0  0  0
   -4.2020   24.0530  -28.6410 C   0  0  0  0  0  0  0  0  0  0  0  0
   -5.4220   24.7410  -29.1050 N   0  0  0  0  0  0  0  0  0  0  0  0
   -5.6860   24.6460  -30.5560 C   0  0  0  0  0  0  0  0  0  0  0  0
   -6.4190   23.3610  -30.9830 C   0  0  0  0  0  0  0  0  0  0  0  0
   -6.0150   22.9290  -32.3230 N   0  0  0  0  0  0  0  0  0  0  0  0
   -5.9370   21.5350  -32.6730 C   0  0  0  0  0  0  0  0  0  0  0  0
   -7.0820   20.7230  -32.5930 C   0  0  0  0  0  0  0  0  0  0  0  0
   -8.3200   21.2580  -32.1780 C   0  0  0  0  0  0  0  0  0  0  0  0
   -9.4370   20.4400  -32.0300 C   0  0  0  0  0  0  0  0  0  0  0  0
   -9.3390   19.0780  -32.2790 C   0  0  0  0  0  0  0  0  0  0  0  0
   -8.1310   18.5270  -32.7060 C   0  0  0  0  0  0  0  0  0  0  0  0
   -6.9860   19.3410  -32.9110 C   0  0  0  0  0  0  0  0  0  0  0  0
   -5.7970   18.8160  -33.3840 N   0  0  0  0  0  0  0  0  0  0  0  0
   -5.7710   17.4590  -33.9750 C   0  0  0  0  0  0  0  0  0  0  0  0
   -4.6410   19.5740  -33.3420 C   0  0  0  0  0  0  0  0  0  0  0  0
   -3.3650   19.0020  -33.5860 C   0  0  0  0  0  0  0  0  0  0  0  0
   -2.2160   19.7930  -33.6220 C   0  0  0  0  0  0  0  0  0  0  0  0
   -1.0090   19.2240  -33.8680 F   0  0  0  0  0  0  0  0  0  0  0  0
   -2.3040   21.1630  -33.4090 C   0  0  0  0  0  0  0  0  0  0  0  0
   -3.5350   21.7450  -33.1180 C   0  0  0  0  0  0  0  0  0  0  0  0
   -4.7060   20.9610  -33.0370 C   0  0  0  0  0  0  0  0  0  0  0  0
   -4.3116   23.9426  -26.4839 H   0  0  0  0  0  0  0  0  0  0  0  0
   -2.6771   24.3137  -27.1297 H   0  0  0  0  0  0  0  0  0  0  0  0
   -3.9515   25.5796  -27.1297 H   0  0  0  0  0  0  0  0  0  0  0  0
   -3.3904   24.2595  -29.3542 H   0  0  0  0  0  0  0  0  0  0  0  0
   -4.4325   22.9791  -28.5809 H   0  0  0  0  0  0  0  0  0  0  0  0
   -5.3620   25.7460  -28.8250 H   0  0  0  0  0  0  0  0  0  0  0  0
   -6.2450   24.3380  -28.5980 H   0  0  0  0  0  0  0  0  0  0  0  0
   -6.3016   25.5084  -30.8515 H   0  0  0  0  0  0  0  0  0  0  0  0
   -4.7056   24.6303  -31.0546 H   0  0  0  0  0  0  0  0  0  0  0  0
   -6.1853   22.5614  -30.2647 H   0  0  0  0  0  0  0  0  0  0  0  0
   -7.4987   23.5707  -31.0003 H   0  0  0  0  0  0  0  0  0  0  0  0
   -5.8930   23.6420  -33.0760 H   0  0  0  0  0  0  0  0  0  0  0  0
   -8.4037   22.3347  -31.9688 H   0  0  0  0  0  0  0  0  0  0  0  0
  -10.3978   20.8735  -31.7155 H   0  0  0  0  0  0  0  0  0  0  0  0
  -10.2174   18.4308  -32.1390 H   0  0  0  0  0  0  0  0  0  0  0  0
   -8.0643   17.4440  -32.8869 H   0  0  0  0  0  0  0  0  0  0  0  0
   -5.7566   16.7089  -33.1705 H   0  0  0  0  0  0  0  0  0  0  0  0
   -6.6665   17.3127  -34.5968 H   0  0  0  0  0  0  0  0  0  0  0  0
   -4.8705   17.3471  -34.5968 H   0  0  0  0  0  0  0  0  0  0  0  0
   -3.2806   17.9175  -33.7494 H   0  0  0  0  0  0  0  0  0  0  0  0
   -1.4010   21.7881  -33.4703 H   0  0  0  0  0  0  0  0  0  0  0  0
   -3.5958   22.8302  -32.9490 H   0  0  0  0  0  0  0  0  0  0  0  0
  1  2  1  0
  2  3  1  0
  3  4  1  0
  4  5  1  0
  5  6  1  0
  6  7  1  0
  7  8  2  0
  8  9  1  0
  9 10  2  0
 10 11  1  0
 11 12  2  0
 12 13  1  0
 13 14  2  0
 14 15  1  0
 14 16  1  0
 16 17  2  0
 17 18  1  0
 18 19  1  0
 18 20  2  0
 20 21  1  0
 21 22  2  0
 22  7  1  0
 13  8  1  0
 22 16  1  0
  1 23  1  0
  1 24  1  0
  1 25  1  0
  2 26  1  0
  2 27  1  0
  3 28  1  0
  3 29  1  0
  4 30  1  0
  4 31  1  0
  5 32  1  0
  5 33  1  0
  6 34  1  0
  9 35  1  0
 10 36  1  0
 11 37  1  0
 12 38  1  0
 15 39  1  0
 15 40  1  0
 15 41  1  0
 17 42  1  0
 20 43  1  0
 21 44  1  0
M  CHG  2   3   1  14   1
M  END
>  <UniqueID>  (13) 
13

>  <SMILES>  (13) 
CC[NH2+]CCNc1c2ccccc2[n+](C)c2cc(F)ccc12

>  <Energy>  (13) 
71.35395119094508

>  <Genealogy>  (13) 
CC[NH2+]CCNc1c2ccccc2[n+](C)c2cc(F)ccc12 (protonated)
CC[NH2+]CCNc1c2ccccc2[n+](C)c2cc(F)ccc12 (3D coordinates assigned)
CC[NH2+]CCNc1c2ccccc2[n+](C)c2cc(F)ccc12 (optimized conformer: 71.35395119094508 kcal/mol)

>  <smiles>  (13) 
CCNCCNc1c2ccccc2[n+](C)c2cc(F)ccc12

>  <score_type>  (13) 
oracle

>  <origin>  (13) 
adg

>  <m_score__min__energy>  (13) 
-7.1699999999999999

>  <m_primary>  (13) 
energy

$$$$
13:0
     RDKit          3D

 65 67  0  0  0  0  0  0  0  0999 V2000
   -2.7610   19.0190  -26.6330 C   0  0  0  0  0  0  0  0  0  0  0  0
   -1.9020   19.7780  -27.6420 C   0  0  0  0  0  0  0  0  0  0  0  0
   -2.6620   20.9550  -28.2680 C   0  0  0  0  0  0  0  0  0  0  0  0
   -2.6850   20.8510  -29.6810 O   0  0  0  0  0  0  0  0  0  0  0  0
   -1.3790   20.9090  -30.2220 C   0  0  0  0  0  0  0  0  0  0  0  0
   -1.1610   19.7680  -31.1720 C   0  0  0  0  0  0  0  0  0  0  0  0
   -0.1630   18.8140  -30.9940 C   0  0  0  0  0  0  0  0  0  0  0  0
   -0.2620   17.7100  -32.2570 S   0  0  0  0  0  0  0  0  0  0  0  0
   -1.5890   18.4110  -33.0180 C   0  0  0  0  0  0  0  0  0  0  0  0
   -2.1980   17.9500  -34.3110 C   0  0  0  0  0  0  0  0  0  0  0  0
   -2.4700   16.5030  -34.2810 N   0  0  0  0  0  0  0  0  0  0  0  0
   -3.8750   16.2120  -33.9440 C   0  0  0  0  0  0  0  0  0  0  0  0
   -4.6710   17.4750  -33.7090 C   0  0  0  0  0  0  0  0  0  0  0  0
   -4.7920   18.0010  -32.4130 C   0  0  0  0  0  0  0  0  0  0  0  0
   -5.5700   19.1400  -32.1830 C   0  0  0  0  0  0  0  0  0  0  0  0
   -6.2350   19.7700  -33.2470 C   0  0  0  0  0  0  0  0  0  0  0  0
   -7.0770   20.9960  -33.0100 C   0  0  0  0  0  0  0  0  0  0  0  0
   -7.8330   20.8650  -31.7460 N   0  0  0  0  0  0  0  0  0  0  0  0
   -9.0380   20.0180  -31.9150 C   0  0  0  0  0  0  0  0  0  0  0  0
   -8.7510   18.5610  -31.5550 C   0  0  0  0  0  0  0  0  0  0  0  0
   -8.1110   22.1850  -31.1220 C   0  0  0  0  0  0  0  0  0  0  0  0
   -6.8720   23.0130  -30.8460 C   0  0  0  0  0  0  0  0  0  0  0  0
   -6.9700   24.4070  -30.6910 C   0  0  0  0  0  0  0  0  0  0  0  0
   -5.8280   25.1740  -30.4410 C   0  0  0  0  0  0  0  0  0  0  0  0
   -4.5790   24.5560  -30.3340 C   0  0  0  0  0  0  0  0  0  0  0  0
   -3.4720   25.3010  -30.1000 F   0  0  0  0  0  0  0  0  0  0  0  0
   -4.4730   23.1680  -30.4660 C   0  0  0  0  0  0  0  0  0  0  0  0
   -5.6130   22.3980  -30.7160 C   0  0  0  0  0  0  0  0  0  0  0  0
   -6.1040   19.2510  -34.5440 C   0  0  0  0  0  0  0  0  0  0  0  0
   -5.3310   18.1090  -34.7730 C   0  0  0  0  0  0  0  0  0  0  0  0
   -1.9610   19.5430  -32.3030 C   0  0  0  0  0  0  0  0  0  0  0  0
   -2.4537   19.2905  -25.6123 H   0  0  0  0  0  0  0  0  0  0  0  0
   -3.8187   19.2829  -26.7800 H   0  0  0  0  0  0  0  0  0  0  0  0
   -2.6293   17.9368  -26.7800 H   0  0  0  0  0  0  0  0  0  0  0  0
   -1.0083   20.1637  -27.1296 H   0  0  0  0  0  0  0  0  0  0  0  0
   -1.6268   19.0819  -28.4480 H   0  0  0  0  0  0  0  0  0  0  0  0
   -3.6953   20.9574  -27.8907 H   0  0  0  0  0  0  0  0  0  0  0  0
   -2.1492   21.8887  -27.9937 H   0  0  0  0  0  0  0  0  0  0  0  0
   -1.2504   21.8597  -30.7602 H   0  0  0  0  0  0  0  0  0  0  0  0
   -0.6477   20.8394  -29.4033 H   0  0  0  0  0  0  0  0  0  0  0  0
    0.5645   18.7874  -30.1693 H   0  0  0  0  0  0  0  0  0  0  0  0
   -3.1420   18.4899  -34.4765 H   0  0  0  0  0  0  0  0  0  0  0  0
   -1.4879   18.1559  -35.1254 H   0  0  0  0  0  0  0  0  0  0  0  0
   -1.8650   16.0580  -33.5530 H   0  0  0  0  0  0  0  0  0  0  0  0
   -2.2390   16.0750  -35.2080 H   0  0  0  0  0  0  0  0  0  0  0  0
   -4.3315   15.6531  -34.7742 H   0  0  0  0  0  0  0  0  0  0  0  0
   -3.8880   15.6229  -33.0151 H   0  0  0  0  0  0  0  0  0  0  0  0
   -4.2722   17.5148  -31.5743 H   0  0  0  0  0  0  0  0  0  0  0  0
   -5.6614   19.5441  -31.1640 H   0  0  0  0  0  0  0  0  0  0  0  0
   -6.4235   21.8789  -32.9517 H   0  0  0  0  0  0  0  0  0  0  0  0
   -7.7884   21.1068  -33.8417 H   0  0  0  0  0  0  0  0  0  0  0  0
   -9.8367   20.3975  -31.2608 H   0  0  0  0  0  0  0  0  0  0  0  0
   -9.3448   20.0596  -32.9705 H   0  0  0  0  0  0  0  0  0  0  0  0
   -8.7294   18.4511  -30.4607 H   0  0  0  0  0  0  0  0  0  0  0  0
   -9.5397   17.9179  -31.9726 H   0  0  0  0  0  0  0  0  0  0  0  0
   -7.7773   18.2651  -31.9726 H   0  0  0  0  0  0  0  0  0  0  0  0
   -8.7643   22.7559  -31.7983 H   0  0  0  0  0  0  0  0  0  0  0  0
   -8.5803   21.9825  -30.1479 H   0  0  0  0  0  0  0  0  0  0  0  0
   -7.9517   24.8975  -30.7669 H   0  0  0  0  0  0  0  0  0  0  0  0
   -5.9127   26.2649  -30.3284 H   0  0  0  0  0  0  0  0  0  0  0  0
   -3.4911   22.6810  -30.3730 H   0  0  0  0  0  0  0  0  0  0  0  0
   -5.5252   21.3057  -30.8116 H   0  0  0  0  0  0  0  0  0  0  0  0
   -6.6122   19.7453  -35.3850 H   0  0  0  0  0  0  0  0  0  0  0  0
   -5.2396   17.7053  -35.7922 H   0  0  0  0  0  0  0  0  0  0  0  0
   -2.7971   20.1960  -32.5938 H   0  0  0  0  0  0  0  0  0  0  0  0
  1  2  1  0
  2  3  1  0
  3  4  1  0
  4  5  1  0
  5  6  1  0
  6  7  2  0
  7  8  1  0
  8  9  1  0
  9 10  1  0
 10 11  1  0
 11 12  1  0
 12 13  1  0
 13 14  2  0
 14 15  1  0
 15 16  2  0
 16 17  1  0
 17 18  1  0
 18 19  1  0
 19 20  1  0
 18 21  1  0
 21 22  1  0
 22 23  2  0
 23 24  1  0
 24 25  2  0
 25 26  1  0
 25 27  1  0
 27 28  2  0
 16 29  1  0
 29 30  2  0
  9 31  2  0
 31  6  1  0
 30 13  1  0
 28 22  1  0
  1 32  1  0
  1 33  1  0
  1 34  1  0
  2 35  1  0
  2 36  1  0
  3 37  1  0
  3 38  1  0
  5 39  1  0
  5 40  1  0
  7 41  1  0
 10 42  1  0
 10 43  1  0
 11 44  1  0
 11 45  1  0
 12 46  1  0
 12 47  1  0
 14 48  1  0
 15 49  1  0
 17 50  1  0
 17 51  1  0
 19 52  1  0
 19 53  1  0
 20 54  1  0
 20 55  1  0
 20 56  1  0
 21 57  1  0
 21 58  1  0
 23 59  1  0
 24 60  1  0
 27 61  1  0
 28 62  1  0
 29 63  1  0
 30 64  1  0
 31 65  1  0
M  CHG  1  11   1
M  END
>  <UniqueID>  (14) 
14

>  <SMILES>  (14) 
CCCOCc1csc(C[NH2+]Cc2ccc(CN(CC)Cc3ccc(F)cc3)cc2)c1

>  <Energy>  (14) 
91.05255367412835

>  <Genealogy>  (14) 
CCCOCc1csc(C[NH2+]Cc2ccc(CN(CC)Cc3ccc(F)cc3)cc2)c1 (protonated)
CCCOCc1csc(C[NH2+]Cc2ccc(CN(CC)Cc3ccc(F)cc3)cc2)c1 (3D coordinates assigned)
CCCOCc1csc(C[NH2+]Cc2ccc(CN(CC)Cc3ccc(F)cc3)cc2)c1 (optimized conformer: 91.05255367412835 kcal/mol)

>  <smiles>  (14) 
CCCOCc1csc(CNCc2ccc(CN(CC)Cc3ccc(F)cc3)cc2)c1

>  <score_type>  (14) 
oracle

>  <origin>  (14) 
adg

>  <m_score__min__energy>  (14) 
-8.0199999999999996

>  <m_primary>  (14) 
energy

$$$$
14:0
     RDKit          3D

 54 56  0  0  0  0  0  0  0  0999 V2000
   -7.1010   17.8580  -31.9510 C   0  0  0  0  0  0  0  0  0  0  0  0
   -6.0120   16.7820  -31.8020 C   0  0  0  0  0  0  0  0  0  0  0  0
   -5.3910   16.3680  -33.0820 N   0  0  0  0  0  0  0  0  0  0  0  0
   -5.2050   14.9050  -33.1900 C   0  0  0  0  0  0  0  0  0  0  0  0
   -4.5980   14.3480  -31.9050 C   0  0  0  0  0  0  0  0  0  0  0  0
   -6.0510   16.9660  -34.2660 C   0  0  0  0  0  0  0  0  0  0  0  0
   -5.0380   17.7830  -35.0610 C   0  0  0  0  0  0  0  0  0  0  0  0
   -3.9880   18.1780  -34.2020 O   0  0  0  0  0  0  0  0  0  0  0  0
   -4.3520   19.3270  -33.4630 C   0  0  0  0  0  0  0  0  0  0  0  0
   -3.3630   20.4610  -33.7470 C   0  0  0  0  0  0  0  0  0  0  0  0
   -3.9660   21.7700  -33.4760 N   0  0  0  0  0  0  0  0  0  0  0  0
   -4.3000   22.2490  -32.1550 C   0  0  0  0  0  0  0  0  0  0  0  0
   -3.3270   22.5620  -31.2620 C   0  0  0  0  0  0  0  0  0  0  0  0
   -3.5650   23.0270  -29.8740 C   0  0  0  0  0  0  0  0  0  0  0  0
   -2.8390   22.4360  -28.8280 C   0  0  0  0  0  0  0  0  0  0  0  0
   -3.0560   22.8320  -27.5050 C   0  0  0  0  0  0  0  0  0  0  0  0
   -3.9930   23.8260  -27.2150 C   0  0  0  0  0  0  0  0  0  0  0  0
   -4.7020   24.4420  -28.2500 C   0  0  0  0  0  0  0  0  0  0  0  0
   -4.4760   24.0630  -29.5790 C   0  0  0  0  0  0  0  0  0  0  0  0
   -5.3410   24.9120  -30.8960 S   0  0  0  0  0  0  0  0  0  0  0  0
   -6.3250   23.4500  -31.2010 C   0  0  0  0  0  0  0  0  0  0  0  0
   -7.6740   23.4430  -30.8270 C   0  0  0  0  0  0  0  0  0  0  0  0
   -8.4620   22.3160  -31.0660 C   0  0  0  0  0  0  0  0  0  0  0  0
   -7.9050   21.1890  -31.6730 C   0  0  0  0  0  0  0  0  0  0  0  0
   -6.5550   21.1830  -32.0360 C   0  0  0  0  0  0  0  0  0  0  0  0
   -5.7450   22.3060  -31.7930 C   0  0  0  0  0  0  0  0  0  0  0  0
   -7.4321   18.1851  -30.9543 H   0  0  0  0  0  0  0  0  0  0  0  0
   -6.6936   18.7181  -32.5026 H   0  0  0  0  0  0  0  0  0  0  0  0
   -7.9561   17.4403  -32.5026 H   0  0  0  0  0  0  0  0  0  0  0  0
   -5.2220   17.1785  -31.1472 H   0  0  0  0  0  0  0  0  0  0  0  0
   -6.5024   15.8903  -31.3845 H   0  0  0  0  0  0  0  0  0  0  0  0
   -6.1804   14.4279  -33.3663 H   0  0  0  0  0  0  0  0  0  0  0  0
   -4.5232   14.6934  -34.0269 H   0  0  0  0  0  0  0  0  0  0  0  0
   -5.0955   14.8045  -31.0366 H   0  0  0  0  0  0  0  0  0  0  0  0
   -4.7378   13.2573  -31.8762 H   0  0  0  0  0  0  0  0  0  0  0  0
   -3.5233   14.5808  -31.8762 H   0  0  0  0  0  0  0  0  0  0  0  0
   -6.4553   16.1652  -34.9026 H   0  0  0  0  0  0  0  0  0  0  0  0
   -6.8689   17.6226  -33.9344 H   0  0  0  0  0  0  0  0  0  0  0  0
   -4.6332   17.1713  -35.8808 H   0  0  0  0  0  0  0  0  0  0  0  0
   -5.5279   18.6734  -35.4820 H   0  0  0  0  0  0  0  0  0  0  0  0
   -5.3642   19.6435  -33.7550 H   0  0  0  0  0  0  0  0  0  0  0  0
   -4.3334   19.0892  -32.3892 H   0  0  0  0  0  0  0  0  0  0  0  0
   -2.4778   20.3341  -33.1065 H   0  0  0  0  0  0  0  0  0  0  0  0
   -3.0815   20.4201  -34.8096 H   0  0  0  0  0  0  0  0  0  0  0  0
   -4.1730   22.3980  -34.2870 H   0  0  0  0  0  0  0  0  0  0  0  0
   -2.2826   22.4633  -31.5929 H   0  0  0  0  0  0  0  0  0  0  0  0
   -2.0951   21.6569  -29.0506 H   0  0  0  0  0  0  0  0  0  0  0  0
   -2.4873   22.3595  -26.6905 H   0  0  0  0  0  0  0  0  0  0  0  0
   -4.1731   24.1243  -26.1716 H   0  0  0  0  0  0  0  0  0  0  0  0
   -5.4388   25.2258  -28.0203 H   0  0  0  0  0  0  0  0  0  0  0  0
   -8.1140   24.3277  -30.3436 H   0  0  0  0  0  0  0  0  0  0  0  0
   -9.5230   22.3159  -30.7758 H   0  0  0  0  0  0  0  0  0  0  0  0
   -8.5294   20.3042  -31.8660 H   0  0  0  0  0  0  0  0  0  0  0  0
   -6.1230   20.2923  -32.5157 H   0  0  0  0  0  0  0  0  0  0  0  0
  1  2  1  0
  2  3  1  0
  3  4  1  0
  4  5  1  0
  3  6  1  0
  6  7  1  0
  7  8  1  0
  8  9  1  0
  9 10  1  0
 10 11  1  0
 11 12  1  0
 12 13  2  0
 13 14  1  0
 14 15  2  0
 15 16  1  0
 16 17  2  0
 17 18  1  0
 18 19  2  0
 19 20  1  0
 20 21  1  0
 21 22  2  0
 22 23  1  0
 23 24  2  0
 24 25  1  0
 25 26  2  0
 26 12  1  0
 19 14  1  0
 26 21  1  0
  1 27  1  0
  1 28  1  0
  1 29  1  0
  2 30  1  0
  2 31  1  0
  4 32  1  0
  4 33  1  0
  5 34  1  0
  5 35  1  0
  5 36  1  0
  6 37  1  0
  6 38  1  0
  7 39  1  0
  7 40  1  0
  9 41  1  0
  9 42  1  0
 10 43  1  0
 10 44  1  0
 11 45  1  0
 13 46  1  0
 15 47  1  0
 16 48  1  0
 17 49  1  0
 18 50  1  0
 22 51  1  0
 23 52  1  0
 24 53  1  0
 25 54  1  0
M  END
>  <UniqueID>  (15) 
15

>  <SMILES>  (15) 
CCN(CC)CCOCCNC1=Cc2ccccc2Sc2ccccc21

>  <Energy>  (15) 
69.34750401805752

>  <Genealogy>  (15) 
CCN(CC)CCOCCNC1=Cc2ccccc2Sc2ccccc21 (3D coordinates assigned)
CCN(CC)CCOCCNC1=Cc2ccccc2Sc2ccccc21 (nonaromatic ring conformer: 69.34750401805752 kcal/mol)

>  <smiles>  (15) 
CCN(CC)CCOCCNC1=Cc2ccccc2Sc2ccccc21

>  <score_type>  (15) 
oracle

>  <origin>  (15) 
adg

>  <m_score__min__energy>  (15) 
-6.5

>  <m_primary>  (15) 
energy

$$$$
15:0
     RDKit          3D

 37 38  0  0  0  0  0  0  0  0999 V2000
   -6.4750   17.9160  -31.2590 C   0  0  0  0  0  0  0  0  0  0  0  0
   -7.3800   18.1530  -32.3980 N   0  0  0  0  0  0  0  0  0  0  0  0
   -8.7250   18.6010  -31.9610 C   0  0  0  0  0  0  0  0  0  0  0  0
   -8.9210   20.1270  -32.0470 C   0  0  0  0  0  0  0  0  0  0  0  0
   -7.6360   20.8060  -31.8210 N   0  0  0  0  0  0  0  0  0  0  0  0
   -7.7620   22.2520  -31.5330 C   0  0  0  0  0  0  0  0  0  0  0  0
   -6.5660   23.1010  -32.0110 C   0  0  0  0  0  0  0  0  0  0  0  0
   -5.4580   22.9920  -31.0640 N   0  0  0  0  0  0  0  0  0  0  0  0
   -4.6570   24.1250  -30.6870 C   0  0  0  0  0  0  0  0  0  0  0  0
   -4.9500   25.2710  -31.1220 O   0  0  0  0  0  0  0  0  0  0  0  0
   -3.4940   23.9760  -29.7900 C   0  0  0  0  0  0  0  0  0  0  0  0
   -2.8940   22.7850  -29.4080 C   0  0  0  0  0  0  0  0  0  0  0  0
   -1.8480   23.1340  -28.5790 C   0  0  0  0  0  0  0  0  0  0  0  0
   -0.6350   21.9260  -27.7340 Br  0  0  0  0  0  0  0  0  0  0  0  0
   -1.8490   24.5110  -28.4900 C   0  0  0  0  0  0  0  0  0  0  0  0
   -0.6250   25.5750  -27.4820 Br  0  0  0  0  0  0  0  0  0  0  0  0
   -2.8500   25.0200  -29.2280 N   0  0  0  0  0  0  0  0  0  0  0  0
   -6.6520   20.5090  -32.8830 C   0  0  0  0  0  0  0  0  0  0  0  0
   -6.7790   19.0580  -33.3990 C   0  0  0  0  0  0  0  0  0  0  0  0
   -7.0251   18.0601  -30.3174 H   0  0  0  0  0  0  0  0  0  0  0  0
   -6.0898   16.8867  -31.3048 H   0  0  0  0  0  0  0  0  0  0  0  0
   -5.6347   18.6244  -31.3048 H   0  0  0  0  0  0  0  0  0  0  0  0
   -9.4782   18.1164  -32.5996 H   0  0  0  0  0  0  0  0  0  0  0  0
   -8.8326   18.3194  -30.9031 H   0  0  0  0  0  0  0  0  0  0  0  0
   -9.3034   20.3908  -33.0441 H   0  0  0  0  0  0  0  0  0  0  0  0
   -9.6410   20.4454  -31.2787 H   0  0  0  0  0  0  0  0  0  0  0  0
   -8.6696   22.6245  -32.0304 H   0  0  0  0  0  0  0  0  0  0  0  0
   -7.8024   22.3528  -30.4384 H   0  0  0  0  0  0  0  0  0  0  0  0
   -6.2372   22.7423  -32.9975 H   0  0  0  0  0  0  0  0  0  0  0  0
   -6.8778   24.1537  -32.0784 H   0  0  0  0  0  0  0  0  0  0  0  0
   -5.2990   22.0680  -30.6060 H   0  0  0  0  0  0  0  0  0  0  0  0
   -3.1918   21.7688  -29.7056 H   0  0  0  0  0  0  0  0  0  0  0  0
   -3.0800   26.0330  -29.3400 H   0  0  0  0  0  0  0  0  0  0  0  0
   -6.8159   21.2004  -33.7227 H   0  0  0  0  0  0  0  0  0  0  0  0
   -5.6450   20.6320  -32.4578 H   0  0  0  0  0  0  0  0  0  0  0  0
   -7.4108   19.0577  -34.2994 H   0  0  0  0  0  0  0  0  0  0  0  0
   -5.7653   18.6903  -33.6166 H   0  0  0  0  0  0  0  0  0  0  0  0
  1  2  1  0
  2  3  1  0
  3  4  1  0
  4  5  1  0
  5  6  1  0
  6  7  1  0
  7  8  1  0
  8  9  1  0
  9 10  2  0
  9 11  1  0
 11 12  2  0
 12 13  1  0
 13 14  1  0
 13 15  2  0
 15 16  1  0
 15 17  1  0
  5 18  1  0
 18 19  1  0
 19  2  1  0
 17 11  1  0
  1 20  1  0
  1 21  1  0
  1 22  1  0
  3 23  1  0
  3 24  1  0
  4 25  1  0
  4 26  1  0
  6 27  1  0
  6 28  1  0
  7 29  1  0
  7 30  1  0
  8 31  1  0
 12 32  1  0
 17 33  1  0
 18 34  1  0
 18 35  1  0
 19 36  1  0
 19 37  1  0
M  END
>  <UniqueID>  (16) 
16

>  <SMILES>  (16) 
CN1CCN(CCNC(=O)c2cc(Br)c(Br)[nH]2)CC1

>  <Energy>  (16) 
71.74748161842876

>  <Genealogy>  (16) 
CN1CCN(CCNC(=O)c2cc(Br)c(Br)[nH]2)CC1 (3D coordinates assigned)
CN1CCN(CCNC(=O)c2cc(Br)c(Br)[nH]2)CC1 (nonaromatic ring conformer: 71.74748161842876 kcal/mol)

>  <smiles>  (16) 
CN1CCN(CCNC(=O)c2cc(Br)c(Br)[nH]2)CC1

>  <score_type>  (16) 
oracle

>  <origin>  (16) 
adg

>  <m_score__min__energy>  (16) 
-8

>  <m_primary>  (16) 
energy

$$$$
16:0
     RDKit          3D

 75 79  0  0  1  0  0  0  0  0999 V2000
   -6.0900   16.9800  -31.7790 C   0  0  0  0  0  0  0  0  0  0  0  0
   -5.1370   15.8200  -31.6030 C   0  0  0  0  0  0  0  0  0  0  0  0
   -4.9860   15.0100  -32.7400 N   0  0  0  0  0  0  0  0  0  0  0  0
   -4.4280   13.7310  -32.6320 C   0  0  0  0  0  0  0  0  0  0  0  0
   -4.3570   13.2150  -31.2070 C   0  0  0  0  0  0  0  0  0  0  0  0
   -5.3360   15.5250  -34.0060 C   0  0  0  0  0  0  0  0  0  0  0  0
   -4.0860   15.7900  -34.8410 C   0  0  0  0  0  0  0  0  0  0  0  0
   -4.2170   17.0530  -35.6660 C   0  0  0  0  0  0  0  0  0  0  0  0
   -4.8170   18.0520  -34.8410 N   0  0  0  0  0  0  0  0  0  0  0  0
   -6.1600   18.1510  -34.7250 N   0  0  0  0  0  0  0  0  0  0  0  0
   -6.4510   19.1460  -33.8820 C   0  0  0  0  0  0  0  0  0  0  0  0
   -7.6120   19.6390  -33.4360 N   0  0  0  0  0  0  0  0  0  0  0  0
   -7.6050   20.6630  -32.5750 C   0  0  0  0  0  0  0  0  0  0  0  0
   -9.0010   21.5190  -31.7950 S   0  0  0  0  0  0  0  0  0  0  0  0
   -7.9240   22.6660  -30.8510 C   0  0  0  0  0  0  0  0  0  0  0  0
   -6.6050   22.2890  -31.2200 C   0  0  0  0  0  0  0  0  0  0  0  0
   -5.5050   23.0970  -30.6230 C   0  0  0  0  0  0  0  0  0  0  0  0
   -5.2820   24.4010  -30.9980 C   0  0  0  0  0  0  0  0  0  0  0  0
   -4.2390   25.1000  -30.4260 C   0  0  0  0  0  0  0  0  0  0  0  0
   -3.3930   24.5350  -29.4730 C   0  0  0  0  0  0  0  0  0  0  0  0
   -2.3810   25.3170  -28.9610 O   0  0  0  0  0  0  0  0  0  0  0  0
   -1.7150   24.9250  -27.7840 C   0  0  0  0  0  0  0  0  0  0  0  0
   -3.6450   23.2330  -29.1220 C   0  0  0  0  0  0  0  0  0  0  0  0
   -4.6720   22.5330  -29.6800 C   0  0  0  0  0  0  0  0  0  0  0  0
   -6.4820   21.2870  -32.0800 C   0  0  0  0  0  0  0  0  0  0  0  0
   -5.2730   20.7300  -32.5800 C   0  0  0  0  0  0  0  0  0  0  0  0
   -4.1650   21.1570  -32.2470 O   0  0  0  0  0  0  0  0  0  0  0  0
   -5.3240   19.7000  -33.4450 N   0  0  0  0  0  0  0  0  0  0  0  0
   -4.3200   19.0050  -34.0550 C   0  0  0  0  0  0  0  0  0  0  0  0
   -3.1030   19.2690  -33.9000 N   0  0  0  0  0  0  0  0  0  0  0  0
   -2.1850   18.5280  -33.1260 C   0  0  0  0  0  0  0  0  0  0  0  0
   -0.8100   19.1500  -33.0300 C   0  0  0  0  0  0  0  0  0  0  0  0
   -0.6860   20.1650  -32.0230 N   0  0  0  0  0  0  0  0  0  0  0  0
   -1.2200   21.4430  -32.3230 C   0  0  0  0  0  0  0  0  0  0  0  0
   -1.3720   22.2160  -31.0130 C   0  0  0  0  0  0  0  0  0  0  0  0
   -0.3640   21.8940  -30.0980 O   0  0  0  0  0  0  0  0  0  0  0  0
   -0.5090   20.5900  -29.6340 C   0  0  0  0  0  0  0  0  0  0  0  0
   -1.0960   19.7070  -30.7150 C   0  0  0  0  0  0  0  0  0  0  0  0
   -6.3978   17.3547  -30.7917 H   0  0  0  0  0  0  0  0  0  0  0  0
   -5.5889   17.7849  -32.3367 H   0  0  0  0  0  0  0  0  0  0  0  0
   -6.9768   16.6446  -32.3367 H   0  0  0  0  0  0  0  0  0  0  0  0
   -4.1495   16.2246  -31.3364 H   0  0  0  0  0  0  0  0  0  0  0  0
   -5.5669   15.1795  -30.8188 H   0  0  0  0  0  0  0  0  0  0  0  0
   -5.0398   13.0341  -33.2236 H   0  0  0  0  0  0  0  0  0  0  0  0
   -3.3940   13.7991  -33.0012 H   0  0  0  0  0  0  0  0  0  0  0  0
   -4.4726   14.0553  -30.5066 H   0  0  0  0  0  0  0  0  0  0  0  0
   -5.1632   12.4854  -31.0406 H   0  0  0  0  0  0  0  0  0  0  0  0
   -3.3837   12.7302  -31.0406 H   0  0  0  0  0  0  0  0  0  0  0  0
   -5.9729   14.7967  -34.5293 H   0  0  0  0  0  0  0  0  0  0  0  0
   -5.8776   16.4723  -33.8668 H   0  0  0  0  0  0  0  0  0  0  0  0
   -3.2230   15.8932  -34.1668 H   0  0  0  0  0  0  0  0  0  0  0  0
   -3.9505   14.9440  -35.5309 H   0  0  0  0  0  0  0  0  0  0  0  0
   -3.2232   17.3885  -35.9973 H   0  0  0  0  0  0  0  0  0  0  0  0
   -4.8350   16.8680  -36.5570 H   0  0  0  0  0  0  0  0  0  0  0  0
   -8.5370   19.2600  -33.7310 H   0  0  0  0  0  0  0  0  0  0  0  0
   -8.2298   23.4634  -30.1577 H   0  0  0  0  0  0  0  0  0  0  0  0
   -5.9287   24.8821  -31.7466 H   0  0  0  0  0  0  0  0  0  0  0  0
   -4.0686   26.1423  -30.7335 H   0  0  0  0  0  0  0  0  0  0  0  0
   -2.2887   25.2627  -26.9083 H   0  0  0  0  0  0  0  0  0  0  0  0
   -1.6236   23.8290  -27.7621 H   0  0  0  0  0  0  0  0  0  0  0  0
   -0.7124   25.3771  -27.7621 H   0  0  0  0  0  0  0  0  0  0  0  0
   -3.0040   22.7436  -28.3739 H   0  0  0  0  0  0  0  0  0  0  0  0
   -4.8410   21.4911  -29.3703 H   0  0  0  0  0  0  0  0  0  0  0  0
   -2.5913   18.4309  -32.1084 H   0  0  0  0  0  0  0  0  0  0  0  0
   -2.0584   17.5581  -33.6292 H   0  0  0  0  0  0  0  0  0  0  0  0
   -0.0868   18.3523  -32.8049 H   0  0  0  0  0  0  0  0  0  0  0  0
   -0.6205   19.6418  -33.9955 H   0  0  0  0  0  0  0  0  0  0  0  0
   -0.5384   21.9826  -32.9970 H   0  0  0  0  0  0  0  0  0  0  0  0
   -2.1963   21.3402  -32.8193 H   0  0  0  0  0  0  0  0  0  0  0  0
   -1.3259   23.2937  -31.2285 H   0  0  0  0  0  0  0  0  0  0  0  0
   -2.3390   21.9424  -30.5656 H   0  0  0  0  0  0  0  0  0  0  0  0
    0.4761   20.1979  -29.3411 H   0  0  0  0  0  0  0  0  0  0  0  0
   -1.1875   20.5928  -28.7682 H   0  0  0  0  0  0  0  0  0  0  0  0
   -0.7470   18.6743  -30.5676 H   0  0  0  0  0  0  0  0  0  0  0  0
   -2.1933   19.7500  -30.6516 H   0  0  0  0  0  0  0  0  0  0  0  0
  1  2  1  0
  2  3  1  0
  3  4  1  0
  4  5  1  0
  3  6  1  0
  6  7  1  0
  7  8  1  0
  8  9  1  0
  9 10  1  0
 10 11  2  0
 11 12  1  0
 12 13  1  0
 13 14  1  0
 14 15  1  0
 15 16  2  0
 16 17  1  0
 17 18  2  0
 18 19  1  0
 19 20  2  0
 20 21  1  0
 21 22  1  0
 20 23  1  0
 23 24  2  0
 16 25  1  0
 25 26  1  0
 26 27  2  0
 26 28  1  0
 28 29  1  0
 29 30  2  0
 30 31  1  0
 31 32  1  0
 32 33  1  0
 33 34  1  0
 34 35  1  0
 35 36  1  0
 36 37  1  0
 37 38  1  0
 29  9  1  0
 38 33  1  0
 28 11  1  0
 25 13  2  0
 24 17  1  0
  1 39  1  0
  1 40  1  0
  1 41  1  0
  2 42  1  0
  2 43  1  0
  4 44  1  0
  4 45  1  0
  5 46  1  0
  5 47  1  0
  5 48  1  0
  6 49  1  0
  6 50  1  0
  7 51  1  0
  7 52  1  0
  8 53  1  0
  8 54  1  0
 12 55  1  0
 15 56  1  0
 18 57  1  0
 19 58  1  0
 22 59  1  0
 22 60  1  0
 22 61  1  0
 23 62  1  0
 24 63  1  0
 31 64  1  0
 31 65  1  0
 32 66  1  0
 32 67  1  0
 34 68  1  0
 34 69  1  0
 35 70  1  0
 35 71  1  0
 37 72  1  0
 37 73  1  0
 38 74  1  0
 38 75  1  0
M  END
>  <smiles>  (17) 
CCN(CC)CCCn1nc2[nH]c3scc(-c4ccc(OC)cc4)c3c(=O)n2c1=NCCN1CCOCC1

>  <score_type>  (17) 
oracle

>  <origin>  (17) 
adg

>  <m_score__min__energy>  (17) 
-9.7699999999999996

>  <m_primary>  (17) 
energy

$$$$
17:0
     RDKit          3D

 38 39  0  0  0  0  0  0  0  0999 V2000
   -5.7510   17.4570  -34.9390 C   0  0  0  0  0  0  0  0  0  0  0  0
   -5.6990   17.5850  -33.4760 N   0  0  0  0  0  0  0  0  0  0  0  0
   -4.5640   16.8360  -32.9100 C   0  0  0  0  0  0  0  0  0  0  0  0
   -6.9870   17.2750  -32.8150 C   0  0  0  0  0  0  0  0  0  0  0  0
   -7.8700   18.5100  -32.4890 C   0  0  0  0  0  0  0  0  0  0  0  0
   -7.5360   19.6580  -33.3490 N   0  0  0  0  0  0  0  0  0  0  0  0
   -6.9990   20.7410  -32.5460 C   0  0  0  0  0  0  0  0  0  0  0  0
   -7.8520   21.5650  -31.7710 C   0  0  0  0  0  0  0  0  0  0  0  0
   -9.2610   21.3120  -31.6750 N   0  0  0  0  0  0  0  0  0  0  0  0
   -9.9470   21.9250  -30.8320 O   0  0  0  0  0  0  0  0  0  0  0  0
   -9.9000   20.6480  -32.6960 O   0  0  0  0  0  0  0  0  0  0  0  0
   -7.3280   22.6780  -31.1020 C   0  0  0  0  0  0  0  0  0  0  0  0
   -5.9670   22.9990  -31.1690 C   0  0  0  0  0  0  0  0  0  0  0  0
   -5.4990   24.1850  -30.5060 N   0  0  0  0  0  0  0  0  0  0  0  0
   -6.1000   24.6140  -29.5000 O   0  0  0  0  0  0  0  0  0  0  0  0
   -4.5620   24.9880  -31.1140 O   0  0  0  0  0  0  0  0  0  0  0  0
   -5.0970   22.1700  -31.9130 C   0  0  0  0  0  0  0  0  0  0  0  0
   -3.7090   22.4000  -31.9670 C   0  0  0  0  0  0  0  0  0  0  0  0
   -2.8880   21.5780  -32.7380 C   0  0  0  0  0  0  0  0  0  0  0  0
   -3.4500   20.5180  -33.4430 C   0  0  0  0  0  0  0  0  0  0  0  0
   -4.7840   20.2800  -33.3610 N   0  0  0  0  0  0  0  0  0  0  0  0
   -5.6210   21.0540  -32.6150 C   0  0  0  0  0  0  0  0  0  0  0  0
   -6.1526   16.4685  -35.2065 H   0  0  0  0  0  0  0  0  0  0  0  0
   -6.4018   18.2414  -35.3528 H   0  0  0  0  0  0  0  0  0  0  0  0
   -4.7376   17.5653  -35.3528 H   0  0  0  0  0  0  0  0  0  0  0  0
   -4.6141   16.8691  -31.8116 H   0  0  0  0  0  0  0  0  0  0  0  0
   -4.6098   15.7902  -33.2478 H   0  0  0  0  0  0  0  0  0  0  0  0
   -3.6205   17.2894  -33.2478 H   0  0  0  0  0  0  0  0  0  0  0  0
   -7.5603   16.6110  -33.4787 H   0  0  0  0  0  0  0  0  0  0  0  0
   -6.7341   16.8137  -31.8490 H   0  0  0  0  0  0  0  0  0  0  0  0
   -8.9262   18.2442  -32.6429 H   0  0  0  0  0  0  0  0  0  0  0  0
   -7.6855   18.7983  -31.4436 H   0  0  0  0  0  0  0  0  0  0  0  0
   -8.3850   19.9770  -33.8670 H   0  0  0  0  0  0  0  0  0  0  0  0
   -6.8520   19.3620  -34.0780 H   0  0  0  0  0  0  0  0  0  0  0  0
   -8.0016   23.3150  -30.5099 H   0  0  0  0  0  0  0  0  0  0  0  0
   -3.2699   23.2327  -31.3979 H   0  0  0  0  0  0  0  0  0  0  0  0
   -1.8053   21.7658  -32.7885 H   0  0  0  0  0  0  0  0  0  0  0  0
   -2.8135   19.8731  -34.0666 H   0  0  0  0  0  0  0  0  0  0  0  0
  1  2  1  0
  2  3  1  0
  2  4  1  0
  4  5  1  0
  5  6  1  0
  6  7  1  0
  7  8  2  0
  8  9  1  0
  9 10  2  0
  9 11  1  0
  8 12  1  0
 12 13  2  0
 13 14  1  0
 14 15  2  0
 14 16  1  0
 13 17  1  0
 17 18  2  0
 18 19  1  0
 19 20  2  0
 20 21  1  0
 21 22  2  0
 22  7  1  0
 22 17  1  0
  1 23  1  0
  1 24  1  0
  1 25  1  0
  3 26  1  0
  3 27  1  0
  3 28  1  0
  4 29  1  0
  4 30  1  0
  5 31  1  0
  5 32  1  0
  6 33  1  0
  6 34  1  0
 12 35  1  0
 18 36  1  0
 19 37  1  0
 20 38  1  0
M  CHG  5   6   1   9   1  11  -1  14   1  16  -1
M  END
>  <UniqueID>  (18) 
17

>  <SMILES>  (18) 
CN(C)CC[NH2+]c1c([N+](=O)[O-])cc([N+](=O)[O-])c2cccnc12

>  <Energy>  (18) 
61.10067328391259

>  <Genealogy>  (18) 
CN(C)CC[NH2+]c1c([N+](=O)[O-])cc([N+](=O)[O-])c2cccnc12 (protonated)
CN(C)CC[NH2+]c1c([N+](=O)[O-])cc([N+](=O)[O-])c2cccnc12 (3D coordinates assigned)
CN(C)CC[NH2+]c1c([N+](=O)[O-])cc([N+](=O)[O-])c2cccnc12 (optimized conformer: 61.10067328391259 kcal/mol)

>  <smiles>  (18) 
CN(C)CCNc1c([N+](=O)[O-])cc([N+](=O)[O-])c2cccnc12

>  <score_type>  (18) 
oracle

>  <origin>  (18) 
adg

>  <m_score__min__energy>  (18) 
-7.4299999999999997

>  <m_primary>  (18) 
energy

$$$$
18:0
     RDKit          3D

 38 38  0  0  0  0  0  0  0  0999 V2000
   -6.1560   16.6950  -34.1920 C   0  0  0  0  0  0  0  0  0  0  0  0
   -7.2340   17.0300  -33.3250 O   0  0  0  0  0  0  0  0  0  0  0  0
   -7.4720   18.3170  -32.8190 C   0  0  0  0  0  0  0  0  0  0  0  0
   -6.6120   19.3520  -33.2030 C   0  0  0  0  0  0  0  0  0  0  0  0
   -6.8040   20.6510  -32.7250 C   0  0  0  0  0  0  0  0  0  0  0  0
   -7.8700   20.9350  -31.8560 C   0  0  0  0  0  0  0  0  0  0  0  0
   -8.0550   22.3290  -31.3130 C   0  0  0  0  0  0  0  0  0  0  0  0
   -7.6710   23.4010  -32.3440 C   0  0  0  0  0  0  0  0  0  0  0  0
   -6.2520   23.7780  -32.2350 N   0  0  0  0  0  0  0  0  0  0  0  0
   -5.6480   23.1810  -31.0340 C   0  0  0  0  0  0  0  0  0  0  0  0
   -4.5350   24.0550  -30.5140 C   0  0  0  0  0  0  0  0  0  0  0  0
   -4.4850   25.2520  -30.9100 O   0  0  0  0  0  0  0  0  0  0  0  0
   -3.5740   23.5840  -29.5430 N   0  0  0  0  0  0  0  0  0  0  0  0
   -3.5250   22.1720  -29.1460 C   0  0  0  0  0  0  0  0  0  0  0  0
   -2.6230   24.5390  -28.9650 C   0  0  0  0  0  0  0  0  0  0  0  0
   -8.7320   19.8980  -31.4650 C   0  0  0  0  0  0  0  0  0  0  0  0
   -8.5380   18.5990  -31.9440 C   0  0  0  0  0  0  0  0  0  0  0  0
   -5.2751   16.4212  -33.5928 H   0  0  0  0  0  0  0  0  0  0  0  0
   -6.4465   15.8448  -34.8266 H   0  0  0  0  0  0  0  0  0  0  0  0
   -5.9134   17.5601  -34.8266 H   0  0  0  0  0  0  0  0  0  0  0  0
   -5.7771   19.1411  -33.8875 H   0  0  0  0  0  0  0  0  0  0  0  0
   -6.1174   21.4543  -33.0306 H   0  0  0  0  0  0  0  0  0  0  0  0
   -9.1105   22.4651  -31.0348 H   0  0  0  0  0  0  0  0  0  0  0  0
   -7.3965   22.4448  -30.4395 H   0  0  0  0  0  0  0  0  0  0  0  0
   -7.8588   23.0077  -33.3540 H   0  0  0  0  0  0  0  0  0  0  0  0
   -8.2795   24.2966  -32.1502 H   0  0  0  0  0  0  0  0  0  0  0  0
   -5.7360   23.4400  -33.0810 H   0  0  0  0  0  0  0  0  0  0  0  0
   -6.1720   24.8200  -32.1760 H   0  0  0  0  0  0  0  0  0  0  0  0
   -6.4183   23.0743  -30.2560 H   0  0  0  0  0  0  0  0  0  0  0  0
   -5.2347   22.1957  -31.2953 H   0  0  0  0  0  0  0  0  0  0  0  0
   -3.5225   22.0996  -28.0484 H   0  0  0  0  0  0  0  0  0  0  0  0
   -4.4055   21.6479  -29.5460 H   0  0  0  0  0  0  0  0  0  0  0  0
   -2.6103   21.7102  -29.5460 H   0  0  0  0  0  0  0  0  0  0  0  0
   -2.6737   24.4881  -27.8673 H   0  0  0  0  0  0  0  0  0  0  0  0
   -1.6046   24.2889  -29.2970 H   0  0  0  0  0  0  0  0  0  0  0  0
   -2.8774   25.5564  -29.2970 H   0  0  0  0  0  0  0  0  0  0  0  0
   -9.5647   20.1088  -30.7779 H   0  0  0  0  0  0  0  0  0  0  0  0
   -9.2212   17.7939  -31.6358 H   0  0  0  0  0  0  0  0  0  0  0  0
  1  2  1  0
  2  3  1  0
  3  4  2  0
  4  5  1  0
  5  6  2  0
  6  7  1  0
  7  8  1  0
  8  9  1  0
  9 10  1  0
 10 11  1  0
 11 12  2  0
 11 13  1  0
 13 14  1  0
 13 15  1  0
  6 16  1  0
 16 17  2  0
 17  3  1  0
  1 18  1  0
  1 19  1  0
  1 20  1  0
  4 21  1  0
  5 22  1  0
  7 23  1  0
  7 24  1  0
  8 25  1  0
  8 26  1  0
  9 27  1  0
  9 28  1  0
 10 29  1  0
 10 30  1  0
 14 31  1  0
 14 32  1  0
 14 33  1  0
 15 34  1  0
 15 35  1  0
 15 36  1  0
 16 37  1  0
 17 38  1  0
M  CHG  1   9   1
M  END
>  <UniqueID>  (19) 
18

>  <SMILES>  (19) 
COc1ccc(CC[NH2+]CC(=O)N(C)C)cc1

>  <Energy>  (19) 
28.267712905521083

>  <Genealogy>  (19) 
COc1ccc(CC[NH2+]CC(=O)N(C)C)cc1 (protonated)
COc1ccc(CC[NH2+]CC(=O)N(C)C)cc1 (3D coordinates assigned)
COc1ccc(CC[NH2+]CC(=O)N(C)C)cc1 (optimized conformer: 28.267712905521083 kcal/mol)

>  <smiles>  (19) 
COc1ccc(CCNCC(=O)N(C)C)cc1

>  <score_type>  (19) 
oracle

>  <origin>  (19) 
adg

>  <m_score__min__energy>  (19) 
-5.8099999999999996

>  <m_primary>  (19) 
energy

$$$$
19:0
     RDKit          3D

 58 60  0  0  0  0  0  0  0  0999 V2000
   -6.3260   25.2950  -29.9480 C   0  0  0  0  0  0  0  0  0  0  0  0
   -5.1930   24.9840  -30.9230 C   0  0  0  0  0  0  0  0  0  0  0  0
   -3.8880   25.1410  -30.2650 N   0  0  0  0  0  0  0  0  0  0  0  0
   -3.8890   24.5510  -28.9190 C   0  0  0  0  0  0  0  0  0  0  0  0
   -2.4540   24.4430  -28.3830 C   0  0  0  0  0  0  0  0  0  0  0  0
   -1.4800   24.5060  -29.4110 O   0  0  0  0  0  0  0  0  0  0  0  0
   -0.6000   23.4000  -29.3460 C   0  0  0  0  0  0  0  0  0  0  0  0
   -1.1500   22.2520  -30.2040 C   0  0  0  0  0  0  0  0  0  0  0  0
   -2.3650   22.6220  -30.9570 N   0  0  0  0  0  0  0  0  0  0  0  0
   -3.1880   21.4630  -31.3450 C   0  0  0  0  0  0  0  0  0  0  0  0
   -3.1380   21.2060  -32.8650 C   0  0  0  0  0  0  0  0  0  0  0  0
   -4.4590   21.3840  -33.4780 N   0  0  0  0  0  0  0  0  0  0  0  0
   -5.5920   20.5880  -33.0810 C   0  0  0  0  0  0  0  0  0  0  0  0
   -6.7570   21.2090  -32.5920 C   0  0  0  0  0  0  0  0  0  0  0  0
   -6.7830   22.5970  -32.3360 C   0  0  0  0  0  0  0  0  0  0  0  0
   -7.9550   23.2220  -31.9190 C   0  0  0  0  0  0  0  0  0  0  0  0
   -9.1190   22.4810  -31.7530 C   0  0  0  0  0  0  0  0  0  0  0  0
   -9.1070   21.1020  -31.9610 C   0  0  0  0  0  0  0  0  0  0  0  0
   -7.9160   20.4260  -32.3350 C   0  0  0  0  0  0  0  0  0  0  0  0
   -7.8700   19.0510  -32.4630 N   0  0  0  0  0  0  0  0  0  0  0  0
   -8.9820   18.2220  -31.9430 C   0  0  0  0  0  0  0  0  0  0  0  0
   -6.7660   18.4440  -33.0340 C   0  0  0  0  0  0  0  0  0  0  0  0
   -6.7800   17.0760  -33.4110 C   0  0  0  0  0  0  0  0  0  0  0  0
   -5.6410   16.4570  -33.9230 C   0  0  0  0  0  0  0  0  0  0  0  0
   -4.4660   17.1800  -34.0810 C   0  0  0  0  0  0  0  0  0  0  0  0
   -4.4350   18.5360  -33.7690 C   0  0  0  0  0  0  0  0  0  0  0  0
   -5.5860   19.1950  -33.2840 C   0  0  0  0  0  0  0  0  0  0  0  0
   -5.9594   25.1944  -28.9158 H   0  0  0  0  0  0  0  0  0  0  0  0
   -6.6797   26.3235  -30.1129 H   0  0  0  0  0  0  0  0  0  0  0  0
   -7.1552   24.5912  -30.1129 H   0  0  0  0  0  0  0  0  0  0  0  0
   -5.2963   23.9484  -31.2791 H   0  0  0  0  0  0  0  0  0  0  0  0
   -5.2505   25.6843  -31.7693 H   0  0  0  0  0  0  0  0  0  0  0  0
   -3.1770   24.6240  -30.8340 H   0  0  0  0  0  0  0  0  0  0  0  0
   -4.4813   25.1869  -28.2446 H   0  0  0  0  0  0  0  0  0  0  0  0
   -4.3284   23.5439  -28.9703 H   0  0  0  0  0  0  0  0  0  0  0  0
   -2.2777   25.2704  -27.6800 H   0  0  0  0  0  0  0  0  0  0  0  0
   -2.3556   23.4638  -27.8916 H   0  0  0  0  0  0  0  0  0  0  0  0
    0.3896   23.6971  -29.7233 H   0  0  0  0  0  0  0  0  0  0  0  0
   -0.5112   23.0651  -28.3020 H   0  0  0  0  0  0  0  0  0  0  0  0
   -0.3731   21.9475  -30.9208 H   0  0  0  0  0  0  0  0  0  0  0  0
   -1.4238   21.4343  -29.5210 H   0  0  0  0  0  0  0  0  0  0  0  0
   -2.9480   23.2690  -30.3760 H   0  0  0  0  0  0  0  0  0  0  0  0
   -2.8153   20.5706  -30.8209 H   0  0  0  0  0  0  0  0  0  0  0  0
   -4.2311   21.6776  -31.0694 H   0  0  0  0  0  0  0  0  0  0  0  0
   -2.4311   21.9122  -33.3250 H   0  0  0  0  0  0  0  0  0  0  0  0
   -2.8141   20.1681  -33.0318 H   0  0  0  0  0  0  0  0  0  0  0  0
   -4.6210   22.2420  -34.0540 H   0  0  0  0  0  0  0  0  0  0  0  0
   -5.8669   23.1915  -32.4675 H   0  0  0  0  0  0  0  0  0  0  0  0
   -7.9598   24.3039  -31.7206 H   0  0  0  0  0  0  0  0  0  0  0  0
  -10.0518   22.9833  -31.4569 H   0  0  0  0  0  0  0  0  0  0  0  0
  -10.0367   20.5281  -31.8330 H   0  0  0  0  0  0  0  0  0  0  0  0
   -8.9654   18.2344  -30.8432 H   0  0  0  0  0  0  0  0  0  0  0  0
   -9.9400   18.6281  -32.2998 H   0  0  0  0  0  0  0  0  0  0  0  0
   -8.8664   17.1879  -32.2998 H   0  0  0  0  0  0  0  0  0  0  0  0
   -7.7063   16.4937  -33.2971 H   0  0  0  0  0  0  0  0  0  0  0  0
   -5.6729   15.3936  -34.2025 H   0  0  0  0  0  0  0  0  0  0  0  0
   -3.5592   16.6807  -34.4530 H   0  0  0  0  0  0  0  0  0  0  0  0
   -3.5013   19.1021  -33.9020 H   0  0  0  0  0  0  0  0  0  0  0  0
  1  2  1  0
  2  3  1  0
  3  4  1  0
  4  5  1  0
  5  6  1  0
  6  7  1  0
  7  8  1  0
  8  9  1  0
  9 10  1  0
 10 11  1  0
 11 12  1  0
 12 13  1  0
 13 14  2  0
 14 15  1  0
 15 16  2  0
 16 17  1  0
 17 18  2  0
 18 19  1  0
 19 20  2  0
 20 21  1  0
 20 22  1  0
 22 23  2  0
 23 24  1  0
 24 25  2  0
 25 26  1  0
 26 27  2  0
 27 13  1  0
 19 14  1  0
 27 22  1  0
  1 28  1  0
  1 29  1  0
  1 30  1  0
  2 31  1  0
  2 32  1  0
  3 33  1  0
  4 34  1  0
  4 35  1  0
  5 36  1  0
  5 37  1  0
  7 38  1  0
  7 39  1  0
  8 40  1  0
  8 41  1  0
  9 42  1  0
 10 43  1  0
 10 44  1  0
 11 45  1  0
 11 46  1  0
 12 47  1  0
 15 48  1  0
 16 49  1  0
 17 50  1  0
 18 51  1  0
 21 52  1  0
 21 53  1  0
 21 54  1  0
 23 55  1  0
 24 56  1  0
 25 57  1  0
 26 58  1  0
M  CHG  1  20   1
M  END
>  <UniqueID>  (20) 
19

>  <SMILES>  (20) 
CCNCCOCCNCCNc1c2ccccc2[n+](C)c2ccccc12

>  <Energy>  (20) 
81.16183829650275

>  <Genealogy>  (20) 
CCNCCOCCNCCNc1c2ccccc2[n+](C)c2ccccc12 (3D coordinates assigned)
CCNCCOCCNCCNc1c2ccccc2[n+](C)c2ccccc12 (optimized conformer: 81.16183829650275 kcal/mol)

>  <smiles>  (20) 
CCNCCOCCNCCNc1c2ccccc2[n+](C)c2ccccc12

>  <score_type>  (20) 
oracle

>  <origin>  (20) 
adg

>  <m_score__min__energy>  (20) 
-8.8499999999999996

>  <m_primary>  (20) 
energy

$$$$
20:0
     RDKit          3D

 66 68  0  0  0  0  0  0  0  0999 V2000
   -1.1030   20.5210  -29.6800 C   0  0  0  0  0  0  0  0  0  0  0  0
   -0.8230   20.5860  -28.1810 C   0  0  0  0  0  0  0  0  0  0  0  0
   -1.9850   21.1590  -27.4650 N   0  0  0  0  0  0  0  0  0  0  0  0
   -3.0970   20.1840  -27.3840 C   0  0  0  0  0  0  0  0  0  0  0  0
   -2.6920   18.9990  -26.5130 C   0  0  0  0  0  0  0  0  0  0  0  0
   -2.4250   22.4420  -28.0700 C   0  0  0  0  0  0  0  0  0  0  0  0
   -3.5570   23.0510  -27.2440 C   0  0  0  0  0  0  0  0  0  0  0  0
   -4.1920   24.0720  -27.9830 O   0  0  0  0  0  0  0  0  0  0  0  0
   -4.9390   23.5030  -29.0370 C   0  0  0  0  0  0  0  0  0  0  0  0
   -5.1730   24.5520  -30.1230 C   0  0  0  0  0  0  0  0  0  0  0  0
   -4.3000   24.3310  -31.2170 O   0  0  0  0  0  0  0  0  0  0  0  0
   -3.2720   23.4150  -30.8880 C   0  0  0  0  0  0  0  0  0  0  0  0
   -3.3140   22.2070  -31.8220 C   0  0  0  0  0  0  0  0  0  0  0  0
   -4.4750   22.2920  -32.7040 N   0  0  0  0  0  0  0  0  0  0  0  0
   -5.4810   21.2660  -32.6860 C   0  0  0  0  0  0  0  0  0  0  0  0
   -6.8080   21.5800  -32.3440 C   0  0  0  0  0  0  0  0  0  0  0  0
   -7.1750   22.9000  -32.0040 C   0  0  0  0  0  0  0  0  0  0  0  0
   -8.5010   23.2180  -31.7190 C   0  0  0  0  0  0  0  0  0  0  0  0
   -9.4800   22.2340  -31.7760 C   0  0  0  0  0  0  0  0  0  0  0  0
   -9.1370   20.9190  -32.0840 C   0  0  0  0  0  0  0  0  0  0  0  0
   -7.7890   20.5530  -32.3350 C   0  0  0  0  0  0  0  0  0  0  0  0
   -7.4230   19.2420  -32.5770 N   0  0  0  0  0  0  0  0  0  0  0  0
   -8.3720   18.1430  -32.2820 C   0  0  0  0  0  0  0  0  0  0  0  0
   -6.1630   18.9530  -33.0680 C   0  0  0  0  0  0  0  0  0  0  0  0
   -5.8350   17.6710  -33.5780 C   0  0  0  0  0  0  0  0  0  0  0  0
   -4.5400   17.3710  -34.0220 C   0  0  0  0  0  0  0  0  0  0  0  0
   -4.2260   16.0090  -34.5770 C   0  0  0  0  0  0  0  0  0  0  0  0
   -3.5600   18.3660  -34.0120 C   0  0  0  0  0  0  0  0  0  0  0  0
   -2.3080   18.1070  -34.4670 F   0  0  0  0  0  0  0  0  0  0  0  0
   -3.8680   19.6460  -33.5580 C   0  0  0  0  0  0  0  0  0  0  0  0
   -5.1610   19.9580  -33.0930 C   0  0  0  0  0  0  0  0  0  0  0  0
   -2.1624   20.2751  -29.8448 H   0  0  0  0  0  0  0  0  0  0  0  0
   -0.8773   21.4954  -30.1378 H   0  0  0  0  0  0  0  0  0  0  0  0
   -0.4711   19.7457  -30.1378 H   0  0  0  0  0  0  0  0  0  0  0  0
   -0.6290   19.5710  -27.8039 H   0  0  0  0  0  0  0  0  0  0  0  0
    0.0545   21.2265  -28.0087 H   0  0  0  0  0  0  0  0  0  0  0  0
   -3.9790   20.6735  -26.9453 H   0  0  0  0  0  0  0  0  0  0  0  0
   -3.3341   19.8231  -28.3957 H   0  0  0  0  0  0  0  0  0  0  0  0
   -2.7862   19.2745  -25.4522 H   0  0  0  0  0  0  0  0  0  0  0  0
   -3.3488   18.1435  -26.7293 H   0  0  0  0  0  0  0  0  0  0  0  0
   -1.6490   18.7244  -26.7293 H   0  0  0  0  0  0  0  0  0  0  0  0
   -1.5766   23.1417  -28.0963 H   0  0  0  0  0  0  0  0  0  0  0  0
   -2.7861   22.2531  -29.0917 H   0  0  0  0  0  0  0  0  0  0  0  0
   -4.2902   22.2691  -26.9968 H   0  0  0  0  0  0  0  0  0  0  0  0
   -3.1427   23.4766  -26.3181 H   0  0  0  0  0  0  0  0  0  0  0  0
   -4.3843   22.6534  -29.4619 H   0  0  0  0  0  0  0  0  0  0  0  0
   -5.9081   23.1537  -28.6512 H   0  0  0  0  0  0  0  0  0  0  0  0
   -6.2145   24.4877  -30.4712 H   0  0  0  0  0  0  0  0  0  0  0  0
   -4.9763   25.5501  -29.7045 H   0  0  0  0  0  0  0  0  0  0  0  0
   -2.2969   23.9146  -30.9857 H   0  0  0  0  0  0  0  0  0  0  0  0
   -3.4193   23.0708  -29.8537 H   0  0  0  0  0  0  0  0  0  0  0  0
   -2.3971   22.1851  -32.4293 H   0  0  0  0  0  0  0  0  0  0  0  0
   -3.3872   21.2896  -31.2195 H   0  0  0  0  0  0  0  0  0  0  0  0
   -4.7370   23.2300  -33.0850 H   0  0  0  0  0  0  0  0  0  0  0  0
   -6.4061   23.6856  -31.9637 H   0  0  0  0  0  0  0  0  0  0  0  0
   -8.7731   24.2490  -31.4486 H   0  0  0  0  0  0  0  0  0  0  0  0
  -10.5302   22.4940  -31.5772 H   0  0  0  0  0  0  0  0  0  0  0  0
   -9.9240   20.1520  -32.1334 H   0  0  0  0  0  0  0  0  0  0  0  0
   -8.4719   18.0273  -31.1927 H   0  0  0  0  0  0  0  0  0  0  0  0
   -9.3541   18.3799  -32.7172 H   0  0  0  0  0  0  0  0  0  0  0  0
   -7.9945   17.2059  -32.7172 H   0  0  0  0  0  0  0  0  0  0  0  0
   -6.6137   16.8955  -33.6261 H   0  0  0  0  0  0  0  0  0  0  0  0
   -4.0635   15.3040  -33.7484 H   0  0  0  0  0  0  0  0  0  0  0  0
   -5.0676   15.6616  -35.1943 H   0  0  0  0  0  0  0  0  0  0  0  0
   -3.3172   16.0652  -35.1943 H   0  0  0  0  0  0  0  0  0  0  0  0
   -3.0909   20.4245  -33.5625 H   0  0  0  0  0  0  0  0  0  0  0  0
  1  2  1  0
  2  3  1  0
  3  4  1  0
  4  5  1  0
  3  6  1  0
  6  7  1  0
  7  8  1  0
  8  9  1  0
  9 10  1  0
 10 11  1  0
 11 12  1  0
 12 13  1  0
 13 14  1  0
 14 15  1  0
 15 16  2  0
 16 17  1  0
 17 18  2  0
 18 19  1  0
 19 20  2  0
 20 21  1  0
 21 22  2  0
 22 23  1  0
 22 24  1  0
 24 25  2  0
 25 26  1  0
 26 27  1  0
 26 28  2  0
 28 29  1  0
 28 30  1  0
 30 31  2  0
 31 15  1  0
 21 16  1  0
 31 24  1  0
  1 32  1  0
  1 33  1  0
  1 34  1  0
  2 35  1  0
  2 36  1  0
  4 37  1  0
  4 38  1  0
  5 39  1  0
  5 40  1  0
  5 41  1  0
  6 42  1  0
  6 43  1  0
  7 44  1  0
  7 45  1  0
  9 46  1  0
  9 47  1  0
 10 48  1  0
 10 49  1  0
 12 50  1  0
 12 51  1  0
 13 52  1  0
 13 53  1  0
 14 54  1  0
 17 55  1  0
 18 56  1  0
 19 57  1  0
 20 58  1  0
 23 59  1  0
 23 60  1  0
 23 61  1  0
 25 62  1  0
 27 63  1  0
 27 64  1  0
 27 65  1  0
 30 66  1  0
M  CHG  1  22   1
M  END
>  <UniqueID>  (21) 
20

>  <SMILES>  (21) 
CCN(CC)CCOCCOCCNc1c2ccccc2[n+](C)c2cc(C)c(F)cc12

>  <Energy>  (21) 
88.19308638641186

>  <Genealogy>  (21) 
CCN(CC)CCOCCOCCNc1c2ccccc2[n+](C)c2cc(C)c(F)cc12 (3D coordinates assigned)
CCN(CC)CCOCCOCCNc1c2ccccc2[n+](C)c2cc(C)c(F)cc12 (optimized conformer: 88.19308638641186 kcal/mol)

>  <smiles>  (21) 
CCN(CC)CCOCCOCCNc1c2ccccc2[n+](C)c2cc(C)c(F)cc12

>  <score_type>  (21) 
oracle

>  <origin>  (21) 
adg

>  <m_score__min__energy>  (21) 
-9.5299999999999994

>  <m_primary>  (21) 
energy

$$$$
21:0
     RDKit          3D

 66 68  0  0  0  0  0  0  0  0999 V2000
   -0.5590   21.6940  -28.9530 C   0  0  0  0  0  0  0  0  0  0  0  0
   -0.7650   22.9800  -29.7440 C   0  0  0  0  0  0  0  0  0  0  0  0
   -2.1240   23.5270  -29.4850 N   0  0  0  0  0  0  0  0  0  0  0  0
   -2.0800   24.7370  -28.6330 C   0  0  0  0  0  0  0  0  0  0  0  0
   -2.7980   24.5190  -27.3030 C   0  0  0  0  0  0  0  0  0  0  0  0
   -3.0140   22.5050  -28.8860 C   0  0  0  0  0  0  0  0  0  0  0  0
   -3.8380   21.7920  -29.9650 C   0  0  0  0  0  0  0  0  0  0  0  0
   -3.3790   22.1730  -31.3000 N   0  0  0  0  0  0  0  0  0  0  0  0
   -3.3370   21.2270  -32.3810 C   0  0  0  0  0  0  0  0  0  0  0  0
   -2.0920   20.7900  -32.8620 C   0  0  0  0  0  0  0  0  0  0  0  0
   -0.9040   21.4850  -32.5490 C   0  0  0  0  0  0  0  0  0  0  0  0
    0.3220   21.0680  -33.0660 C   0  0  0  0  0  0  0  0  0  0  0  0
    0.3820   19.9650  -33.9090 C   0  0  0  0  0  0  0  0  0  0  0  0
   -0.7760   19.2460  -34.2060 C   0  0  0  0  0  0  0  0  0  0  0  0
   -2.0260   19.6150  -33.6490 C   0  0  0  0  0  0  0  0  0  0  0  0
   -3.1550   18.8380  -33.8160 N   0  0  0  0  0  0  0  0  0  0  0  0
   -3.0230   17.4330  -34.2630 C   0  0  0  0  0  0  0  0  0  0  0  0
   -4.4030   19.3630  -33.5280 C   0  0  0  0  0  0  0  0  0  0  0  0
   -5.5870   18.6600  -33.8550 C   0  0  0  0  0  0  0  0  0  0  0  0
   -6.8340   19.1430  -33.4840 C   0  0  0  0  0  0  0  0  0  0  0  0
   -6.9520   20.3920  -32.8960 C   0  0  0  0  0  0  0  0  0  0  0  0
   -5.8220   21.2070  -32.6970 C   0  0  0  0  0  0  0  0  0  0  0  0
   -6.0140   22.6070  -32.3440 N   0  0  0  0  0  0  0  0  0  0  0  0
   -7.2770   22.8700  -31.6070 C   0  0  0  0  0  0  0  0  0  0  0  0
   -7.2320   24.1890  -30.8100 C   0  0  0  0  0  0  0  0  0  0  0  0
   -6.1600   24.1950  -29.7040 C   0  0  0  0  0  0  0  0  0  0  0  0
   -5.0400   25.2070  -29.9800 C   0  0  0  0  0  0  0  0  0  0  0  0
   -4.3140   24.8310  -31.1880 N   0  0  0  0  0  0  0  0  0  0  0  0
   -4.5210   20.6240  -32.8690 C   0  0  0  0  0  0  0  0  0  0  0  0
   -0.5946   21.9161  -27.8762 H   0  0  0  0  0  0  0  0  0  0  0  0
   -1.3537   20.9767  -29.2059 H   0  0  0  0  0  0  0  0  0  0  0  0
    0.4200   21.2608  -29.2059 H   0  0  0  0  0  0  0  0  0  0  0  0
   -0.0106   23.7199  -29.4384 H   0  0  0  0  0  0  0  0  0  0  0  0
   -0.6627   22.7628  -30.8175 H   0  0  0  0  0  0  0  0  0  0  0  0
   -1.0293   24.9937  -28.4328 H   0  0  0  0  0  0  0  0  0  0  0  0
   -2.5903   25.5514  -29.1682 H   0  0  0  0  0  0  0  0  0  0  0  0
   -2.1061   24.7291  -26.4741 H   0  0  0  0  0  0  0  0  0  0  0  0
   -3.6635   25.1949  -27.2385 H   0  0  0  0  0  0  0  0  0  0  0  0
   -3.1416   23.4760  -27.2385 H   0  0  0  0  0  0  0  0  0  0  0  0
   -2.4016   21.7632  -28.3525 H   0  0  0  0  0  0  0  0  0  0  0  0
   -3.7049   23.0060  -28.1920 H   0  0  0  0  0  0  0  0  0  0  0  0
   -3.7297   20.7042  -29.8424 H   0  0  0  0  0  0  0  0  0  0  0  0
   -4.8928   22.0845  -29.8562 H   0  0  0  0  0  0  0  0  0  0  0  0
   -2.9320   23.1080  -31.4220 H   0  0  0  0  0  0  0  0  0  0  0  0
   -0.9458   22.3649  -31.8902 H   0  0  0  0  0  0  0  0  0  0  0  0
    1.2420   21.6124  -32.8064 H   0  0  0  0  0  0  0  0  0  0  0  0
    1.3449   19.6580  -34.3432 H   0  0  0  0  0  0  0  0  0  0  0  0
   -0.7182   18.3803  -34.8822 H   0  0  0  0  0  0  0  0  0  0  0  0
   -2.9610   16.7732  -33.3850 H   0  0  0  0  0  0  0  0  0  0  0  0
   -3.8992   17.1569  -34.8681 H   0  0  0  0  0  0  0  0  0  0  0  0
   -2.1107   17.3249  -34.8681 H   0  0  0  0  0  0  0  0  0  0  0  0
   -5.5176   17.7145  -34.4128 H   0  0  0  0  0  0  0  0  0  0  0  0
   -7.7321   18.5319  -33.6574 H   0  0  0  0  0  0  0  0  0  0  0  0
   -7.9425   20.7516  -32.5804 H   0  0  0  0  0  0  0  0  0  0  0  0
   -6.0870   23.1880  -33.2050 H   0  0  0  0  0  0  0  0  0  0  0  0
   -5.1760   22.9240  -31.8070 H   0  0  0  0  0  0  0  0  0  0  0  0
   -8.1033   22.9234  -32.3311 H   0  0  0  0  0  0  0  0  0  0  0  0
   -7.4214   22.0500  -30.8882 H   0  0  0  0  0  0  0  0  0  0  0  0
   -7.0184   25.0118  -31.5081 H   0  0  0  0  0  0  0  0  0  0  0  0
   -8.2089   24.3065  -30.3182 H   0  0  0  0  0  0  0  0  0  0  0  0
   -6.6401   24.4515  -28.7481 H   0  0  0  0  0  0  0  0  0  0  0  0
   -5.7063   23.1934  -29.6714 H   0  0  0  0  0  0  0  0  0  0  0  0
   -5.4778   26.2071  -30.1146 H   0  0  0  0  0  0  0  0  0  0  0  0
   -4.3437   25.2159  -29.1285 H   0  0  0  0  0  0  0  0  0  0  0  0
   -4.2290   25.6810  -31.7940 H   0  0  0  0  0  0  0  0  0  0  0  0
   -3.3400   24.5710  -30.9060 H   0  0  0  0  0  0  0  0  0  0  0  0
  1  2  1  0
  2  3  1  0
  3  4  1  0
  4  5  1  0
  3  6  1  0
  6  7  1  0
  7  8  1  0
  8  9  1  0
  9 10  2  0
 10 11  1  0
 11 12  2  0
 12 13  1  0
 13 14  2  0
 14 15  1  0
 15 16  2  0
 16 17  1  0
 16 18  1  0
 18 19  2  0
 19 20  1  0
 20 21  2  0
 21 22  1  0
 22 23  1  0
 23 24  1  0
 24 25  1  0
 25 26  1  0
 26 27  1  0
 27 28  1  0
 22 29  2  0
 29  9  1  0
 15 10  1  0
 29 18  1  0
  1 30  1  0
  1 31  1  0
  1 32  1  0
  2 33  1  0
  2 34  1  0
  4 35  1  0
  4 36  1  0
  5 37  1  0
  5 38  1  0
  5 39  1  0
  6 40  1  0
  6 41  1  0
  7 42  1  0
  7 43  1  0
  8 44  1  0
 11 45  1  0
 12 46  1  0
 13 47  1  0
 14 48  1  0
 17 49  1  0
 17 50  1  0
 17 51  1  0
 19 52  1  0
 20 53  1  0
 21 54  1  0
 23 55  1  0
 23 56  1  0
 24 57  1  0
 24 58  1  0
 25 59  1  0
 25 60  1  0
 26 61  1  0
 26 62  1  0
 27 63  1  0
 27 64  1  0
 28 65  1  0
 28 66  1  0
M  CHG  2  16   1  23   1
M  END
>  <UniqueID>  (22) 
21

>  <SMILES>  (22) 
CCN(CC)CCNc1c2ccccc2[n+](C)c2cccc([NH2+]CCCCN)c12

>  <Energy>  (22) 
98.57931465071472

>  <Genealogy>  (22) 
CCN(CC)CCNc1c2ccccc2[n+](C)c2cccc([NH2+]CCCCN)c12 (protonated)
CCN(CC)CCNc1c2ccccc2[n+](C)c2cccc([NH2+]CCCCN)c12 (3D coordinates assigned)
CCN(CC)CCNc1c2ccccc2[n+](C)c2cccc([NH2+]CCCCN)c12 (optimized conformer: 98.57931465071472 kcal/mol)

>  <smiles>  (22) 
CCN(CC)CCNc1c2ccccc2[n+](C)c2cccc(NCCCCN)c12

>  <score_type>  (22) 
oracle

>  <origin>  (22) 
adg

>  <m_score__min__energy>  (22) 
-7.2999999999999998

>  <m_primary>  (22) 
energy

$$$$
22:0
     RDKit          3D

 60 62  0  0  0  0  0  0  0  0999 V2000
   -0.9460   27.1820  -36.6530 C   0  0  0  0  0  0  0  0  0  0  0  0
    0.0990   27.7940  -35.7210 C   0  0  0  0  0  0  0  0  0  0  0  0
    0.8080   26.7460  -34.9670 N   0  0  0  0  0  0  0  0  0  0  0  0
    1.0810   25.5830  -35.8260 C   0  0  0  0  0  0  0  0  0  0  0  0
    2.3220   24.8190  -35.3320 C   0  0  0  0  0  0  0  0  0  0  0  0
    2.2220   23.3040  -35.5920 C   0  0  0  0  0  0  0  0  0  0  0  0
    0.8290   22.8110  -35.5660 N   0  0  0  0  0  0  0  0  0  0  0  0
    0.6680   21.4900  -36.1940 C   0  0  0  0  0  0  0  0  0  0  0  0
   -0.0960   20.5040  -35.2860 C   0  0  0  0  0  0  0  0  0  0  0  0
   -1.1320   21.1850  -34.4860 N   0  0  0  0  0  0  0  0  0  0  0  0
   -1.0620   20.8770  -33.0480 C   0  0  0  0  0  0  0  0  0  0  0  0
   -2.3670   21.1940  -32.2940 C   0  0  0  0  0  0  0  0  0  0  0  0
   -3.5100   21.3630  -33.1980 N   0  0  0  0  0  0  0  0  0  0  0  0
   -4.8720   21.0180  -32.8660 C   0  0  0  0  0  0  0  0  0  0  0  0
   -5.4030   19.7470  -33.1880 C   0  0  0  0  0  0  0  0  0  0  0  0
   -4.6020   18.7590  -33.8010 C   0  0  0  0  0  0  0  0  0  0  0  0
   -5.1090   17.4870  -34.0620 C   0  0  0  0  0  0  0  0  0  0  0  0
   -6.4120   17.1660  -33.7030 C   0  0  0  0  0  0  0  0  0  0  0  0
   -7.2310   18.1220  -33.1030 C   0  0  0  0  0  0  0  0  0  0  0  0
   -6.7650   19.4390  -32.8560 C   0  0  0  0  0  0  0  0  0  0  0  0
   -7.5870   20.4070  -32.2950 N   0  0  0  0  0  0  0  0  0  0  0  0
   -9.0300   20.1530  -32.0970 C   0  0  0  0  0  0  0  0  0  0  0  0
   -7.0410   21.6140  -31.9280 C   0  0  0  0  0  0  0  0  0  0  0  0
   -7.7080   22.6630  -31.2520 C   0  0  0  0  0  0  0  0  0  0  0  0
   -6.9200   23.7930  -31.0670 C   0  0  0  0  0  0  0  0  0  0  0  0
   -5.3980   23.4940  -31.7140 S   0  0  0  0  0  0  0  0  0  0  0  0
   -5.7190   21.9230  -32.2220 C   0  0  0  0  0  0  0  0  0  0  0  0
   -1.7425   26.7155  -36.0547 H   0  0  0  0  0  0  0  0  0  0  0  0
   -1.3777   27.9700  -37.2876 H   0  0  0  0  0  0  0  0  0  0  0  0
   -0.4700   26.4200  -37.2876 H   0  0  0  0  0  0  0  0  0  0  0  0
    0.8266   28.3622  -36.3192 H   0  0  0  0  0  0  0  0  0  0  0  0
   -0.4117   28.4567  -35.0068 H   0  0  0  0  0  0  0  0  0  0  0  0
    1.7160   27.1290  -34.6130 H   0  0  0  0  0  0  0  0  0  0  0  0
    0.2160   26.4460  -34.1570 H   0  0  0  0  0  0  0  0  0  0  0  0
    0.2117   24.9092  -35.8080 H   0  0  0  0  0  0  0  0  0  0  0  0
    1.2693   25.9373  -36.8502 H   0  0  0  0  0  0  0  0  0  0  0  0
    3.2080   25.2092  -35.8543 H   0  0  0  0  0  0  0  0  0  0  0  0
    2.3964   24.9681  -34.2447 H   0  0  0  0  0  0  0  0  0  0  0  0
    2.6534   23.0875  -36.5804 H   0  0  0  0  0  0  0  0  0  0  0  0
    2.7704   22.7922  -34.7874 H   0  0  0  0  0  0  0  0  0  0  0  0
    0.4340   22.7830  -34.5980 H   0  0  0  0  0  0  0  0  0  0  0  0
    0.1107   21.6102  -37.1347 H   0  0  0  0  0  0  0  0  0  0  0  0
    1.6713   21.0764  -36.3740 H   0  0  0  0  0  0  0  0  0  0  0  0
   -0.5768   19.7403  -35.9150 H   0  0  0  0  0  0  0  0  0  0  0  0
    0.6263   20.0482  -34.5927 H   0  0  0  0  0  0  0  0  0  0  0  0
   -1.1320   22.2180  -34.6370 H   0  0  0  0  0  0  0  0  0  0  0  0
   -0.8421   19.8056  -32.9305 H   0  0  0  0  0  0  0  0  0  0  0  0
   -0.2736   21.5112  -32.6165 H   0  0  0  0  0  0  0  0  0  0  0  0
   -2.5841   20.3676  -31.6012 H   0  0  0  0  0  0  0  0  0  0  0  0
   -2.2214   22.1431  -31.7574 H   0  0  0  0  0  0  0  0  0  0  0  0
   -3.3010   21.6660  -34.1750 H   0  0  0  0  0  0  0  0  0  0  0  0
   -3.5638   18.9962  -34.0764 H   0  0  0  0  0  0  0  0  0  0  0  0
   -4.4750   16.7347  -34.5540 H   0  0  0  0  0  0  0  0  0  0  0  0
   -6.7992   16.1540  -33.8927 H   0  0  0  0  0  0  0  0  0  0  0  0
   -8.2574   17.8499  -32.8159 H   0  0  0  0  0  0  0  0  0  0  0  0
   -9.2511   20.1141  -31.0201 H   0  0  0  0  0  0  0  0  0  0  0  0
   -9.6120   20.9625  -32.5618 H   0  0  0  0  0  0  0  0  0  0  0  0
   -9.3006   19.1934  -32.5618 H   0  0  0  0  0  0  0  0  0  0  0  0
   -8.7498   22.5911  -30.9062 H   0  0  0  0  0  0  0  0  0  0  0  0
   -7.2389   24.7259  -30.5792 H   0  0  0  0  0  0  0  0  0  0  0  0
  1  2  1  0
  2  3  1  0
  3  4  1  0
  4  5  1  0
  5  6  1  0
  6  7  1  0
  7  8  1  0
  8  9  1  0
  9 10  1  0
 10 11  1  0
 11 12  1  0
 12 13  1  0
 13 14  1  0
 14 15  2  0
 15 16  1  0
 16 17  2  0
 17 18  1  0
 18 19  2  0
 19 20  1  0
 20 21  2  0
 21 22  1  0
 21 23  1  0
 23 24  1  0
 24 25  2  0
 25 26  1  0
 26 27  1  0
 27 14  1  0
 20 15  1  0
 27 23  2  0
  1 28  1  0
  1 29  1  0
  1 30  1  0
  2 31  1  0
  2 32  1  0
  3 33  1  0
  3 34  1  0
  4 35  1  0
  4 36  1  0
  5 37  1  0
  5 38  1  0
  6 39  1  0
  6 40  1  0
  7 41  1  0
  8 42  1  0
  8 43  1  0
  9 44  1  0
  9 45  1  0
 10 46  1  0
 11 47  1  0
 11 48  1  0
 12 49  1  0
 12 50  1  0
 13 51  1  0
 16 52  1  0
 17 53  1  0
 18 54  1  0
 19 55  1  0
 22 56  1  0
 22 57  1  0
 22 58  1  0
 24 59  1  0
 25 60  1  0
M  CHG  2   3   1  21   1
M  END
>  <UniqueID>  (23) 
22

>  <SMILES>  (23) 
CC[NH2+]CCCNCCNCCNc1c2ccccc2[n+](C)c2ccsc12

>  <Energy>  (23) 
105.20727231336397

>  <Genealogy>  (23) 
CC[NH2+]CCCNCCNCCNc1c2ccccc2[n+](C)c2ccsc12 (protonated)
CC[NH2+]CCCNCCNCCNc1c2ccccc2[n+](C)c2ccsc12 (3D coordinates assigned)
CC[NH2+]CCCNCCNCCNc1c2ccccc2[n+](C)c2ccsc12 (optimized conformer: 105.20727231336397 kcal/mol)

>  <smiles>  (23) 
CCNCCCNCCNCCNc1c2ccccc2[n+](C)c2ccsc12

>  <score_type>  (23) 
oracle

>  <origin>  (23) 
adg

>  <m_score__min__energy>  (23) 
-9.2200000000000006

>  <m_primary>  (23) 
energy

$$$$
23:0
     RDKit          3D

 49 53  0  0  0  0  0  0  0  0999 V2000
   -3.9290   22.3130  -33.2770 O   0  0  0  0  0  0  0  0  0  0  0  0
   -4.6250   21.2750  -33.1010 C   0  0  0  0  0  0  0  0  0  0  0  0
   -4.0820   20.0240  -33.3940 C   0  0  0  0  0  0  0  0  0  0  0  0
   -2.6780   19.8550  -33.8470 C   0  0  0  0  0  0  0  0  0  0  0  0
   -1.8450   20.8470  -34.2160 N   0  0  0  0  0  0  0  0  0  0  0  0
   -0.7080   20.1870  -34.5040 C   0  0  0  0  0  0  0  0  0  0  0  0
    0.5340   20.8400  -35.0210 C   0  0  0  0  0  0  0  0  0  0  0  0
    0.4380   22.2940  -34.8390 N   0  0  0  0  0  0  0  0  0  0  0  0
    1.0610   23.0120  -35.9640 C   0  0  0  0  0  0  0  0  0  0  0  0
    2.5540   23.2060  -35.7300 C   0  0  0  0  0  0  0  0  0  0  0  0
    2.9290   24.4410  -36.5310 C   0  0  0  0  0  0  0  0  0  0  0  0
    1.6610   25.2840  -36.6370 C   0  0  0  0  0  0  0  0  0  0  0  0
    0.5120   24.4300  -36.1070 C   0  0  0  0  0  0  0  0  0  0  0  0
   -0.8430   18.8580  -34.3320 N   0  0  0  0  0  0  0  0  0  0  0  0
   -2.0660   18.6940  -33.9170 O   0  0  0  0  0  0  0  0  0  0  0  0
   -4.8960   18.8970  -33.3010 C   0  0  0  0  0  0  0  0  0  0  0  0
   -6.2090   18.9540  -32.9010 N   0  0  0  0  0  0  0  0  0  0  0  0
   -6.8740   17.6160  -33.0470 C   0  0  0  0  0  0  0  0  0  0  0  0
   -6.0830   16.3460  -32.8050 C   0  0  0  0  0  0  0  0  0  0  0  0
   -6.4810   16.7640  -34.2350 C   0  0  0  0  0  0  0  0  0  0  0  0
   -6.7390   20.1830  -32.4870 C   0  0  0  0  0  0  0  0  0  0  0  0
   -8.0270   20.3440  -31.8990 C   0  0  0  0  0  0  0  0  0  0  0  0
   -8.5280   21.5980  -31.5530 C   0  0  0  0  0  0  0  0  0  0  0  0
   -9.7650   21.7050  -31.0070 F   0  0  0  0  0  0  0  0  0  0  0  0
   -7.7680   22.7370  -31.7520 C   0  0  0  0  0  0  0  0  0  0  0  0
   -6.4850   22.6350  -32.2720 C   0  0  0  0  0  0  0  0  0  0  0  0
   -5.7730   23.7840  -32.4150 F   0  0  0  0  0  0  0  0  0  0  0  0
   -5.9470   21.3720  -32.6240 C   0  0  0  0  0  0  0  0  0  0  0  0
   -2.0080   21.8770  -34.2440 H   0  0  0  0  0  0  0  0  0  0  0  0
    1.4054   20.4586  -34.4685 H   0  0  0  0  0  0  0  0  0  0  0  0
    0.6482   20.6124  -36.0911 H   0  0  0  0  0  0  0  0  0  0  0  0
    0.9760   22.5310  -33.9710 H   0  0  0  0  0  0  0  0  0  0  0  0
    0.8481   22.3992  -36.8523 H   0  0  0  0  0  0  0  0  0  0  0  0
    2.7590   23.3635  -34.6608 H   0  0  0  0  0  0  0  0  0  0  0  0
    3.1352   22.3248  -36.0395 H   0  0  0  0  0  0  0  0  0  0  0  0
    3.7192   25.0050  -36.0138 H   0  0  0  0  0  0  0  0  0  0  0  0
    3.3139   24.1710  -37.5254 H   0  0  0  0  0  0  0  0  0  0  0  0
    1.7629   26.1974  -36.0325 H   0  0  0  0  0  0  0  0  0  0  0  0
    1.4770   25.5873  -37.6782 H   0  0  0  0  0  0  0  0  0  0  0  0
    0.1755   24.8083  -35.1304 H   0  0  0  0  0  0  0  0  0  0  0  0
   -0.3523   24.4570  -36.7869 H   0  0  0  0  0  0  0  0  0  0  0  0
   -4.4679   17.9173  -33.5596 H   0  0  0  0  0  0  0  0  0  0  0  0
   -7.8176   18.0086  -32.6402 H   0  0  0  0  0  0  0  0  0  0  0  0
   -5.0319   16.4030  -32.4858 H   0  0  0  0  0  0  0  0  0  0  0  0
   -6.2191   15.4461  -32.1872 H   0  0  0  0  0  0  0  0  0  0  0  0
   -5.7144   17.1196  -34.9392 H   0  0  0  0  0  0  0  0  0  0  0  0
   -7.0204   16.2869  -35.0665 H   0  0  0  0  0  0  0  0  0  0  0  0
   -8.6440   19.4526  -31.7127 H   0  0  0  0  0  0  0  0  0  0  0  0
   -8.1809   23.7244  -31.4979 H   0  0  0  0  0  0  0  0  0  0  0  0
  1  2  2  0
  2  3  1  0
  3  4  1  0
  4  5  2  0
  5  6  1  0
  6  7  1  0
  7  8  1  0
  8  9  1  0
  9 10  1  0
 10 11  1  0
 11 12  1  0
 12 13  1  0
  6 14  2  0
 14 15  1  0
  3 16  2  0
 16 17  1  0
 17 18  1  0
 18 19  1  0
 19 20  1  0
 17 21  1  0
 21 22  2  0
 22 23  1  0
 23 24  1  0
 23 25  2  0
 25 26  1  0
 26 27  1  0
 26 28  2  0
 28  2  1  0
 15  4  1  0
 20 18  1  0
 28 21  1  0
 13  9  1  0
  5 29  1  0
  7 30  1  0
  7 31  1  0
  8 32  1  0
  9 33  1  0
 10 34  1  0
 10 35  1  0
 11 36  1  0
 11 37  1  0
 12 38  1  0
 12 39  1  0
 13 40  1  0
 13 41  1  0
 16 42  1  0
 18 43  1  0
 19 44  1  0
 19 45  1  0
 20 46  1  0
 20 47  1  0
 22 48  1  0
 25 49  1  0
M  CHG  1   5   1
M  END
>  <UniqueID>  (24) 
23

>  <SMILES>  (24) 
O=c1c(-c2[nH+]c(CNC3CCCC3)no2)cn(C2CC2)c2cc(F)cc(F)c12

>  <Energy>  (24) 
389.46616182315955

>  <Genealogy>  (24) 
O=c1c(-c2[nH+]c(CNC3CCCC3)no2)cn(C2CC2)c2cc(F)cc(F)c12 (protonated)
O=c1c(-c2[nH+]c(CNC3CCCC3)no2)cn(C2CC2)c2cc(F)cc(F)c12 (3D coordinates assigned)
O=c1c(-c2[nH+]c(CNC3CCCC3)no2)cn(C2CC2)c2cc(F)cc(F)c12 (nonaromatic ring conformer: 389.46616182315955 kcal/mol)

>  <smiles>  (24) 
O=c1c(-c2nc(CNC3CCCC3)no2)cn(C2CC2)c2cc(F)cc(F)c12

>  <score_type>  (24) 
oracle

>  <origin>  (24) 
adg

>  <m_score__min__energy>  (24) 
-9.0899999999999999

>  <m_primary>  (24) 
energy

$$$$
24:0
     RDKit          3D

 53 55  0  0  0  0  0  0  0  0999 V2000
   -2.5110   24.9200  -26.9170 C   0  0  0  0  0  0  0  0  0  0  0  0
   -1.5840   25.2470  -28.0820 C   0  0  0  0  0  0  0  0  0  0  0  0
   -2.3320   25.2980  -29.3330 N   0  0  0  0  0  0  0  0  0  0  0  0
   -3.1400   24.2220  -29.8180 C   0  0  0  0  0  0  0  0  0  0  0  0
   -2.6280   23.3040  -30.5160 O   0  0  0  0  0  0  0  0  0  0  0  0
   -4.6140   24.2030  -29.5150 C   0  0  0  0  0  0  0  0  0  0  0  0
   -5.1880   22.7630  -29.5860 C   0  0  0  0  0  0  0  0  0  0  0  0
   -6.0370   22.5540  -30.8430 C   0  0  0  0  0  0  0  0  0  0  0  0
   -7.1770   23.4960  -30.8500 N   0  0  0  0  0  0  0  0  0  0  0  0
   -8.0960   23.3460  -32.0020 C   0  0  0  0  0  0  0  0  0  0  0  0
   -9.2760   22.3810  -31.7670 C   0  0  0  0  0  0  0  0  0  0  0  0
   -8.8650   21.1620  -31.1510 O   0  0  0  0  0  0  0  0  0  0  0  0
   -8.0690   20.1690  -31.7460 C   0  0  0  0  0  0  0  0  0  0  0  0
   -7.2410   20.5420  -32.8090 C   0  0  0  0  0  0  0  0  0  0  0  0
   -6.4380   19.5960  -33.4520 C   0  0  0  0  0  0  0  0  0  0  0  0
   -6.4490   18.2520  -33.0390 C   0  0  0  0  0  0  0  0  0  0  0  0
   -5.6000   17.2440  -33.7250 C   0  0  0  0  0  0  0  0  0  0  0  0
   -5.7850   15.8700  -33.4840 C   0  0  0  0  0  0  0  0  0  0  0  0
   -4.9850   14.9230  -34.1310 C   0  0  0  0  0  0  0  0  0  0  0  0
   -3.9940   15.3360  -35.0250 C   0  0  0  0  0  0  0  0  0  0  0  0
   -3.2190   14.4160  -35.6500 F   0  0  0  0  0  0  0  0  0  0  0  0
   -3.8000   16.6970  -35.2720 C   0  0  0  0  0  0  0  0  0  0  0  0
   -4.5980   17.6480  -34.6280 C   0  0  0  0  0  0  0  0  0  0  0  0
   -7.2790   17.8790  -31.9680 C   0  0  0  0  0  0  0  0  0  0  0  0
   -8.0810   18.8260  -31.3260 C   0  0  0  0  0  0  0  0  0  0  0  0
   -6.8630   24.8980  -30.4730 C   0  0  0  0  0  0  0  0  0  0  0  0
   -5.3570   25.1880  -30.4450 C   0  0  0  0  0  0  0  0  0  0  0  0
   -1.9865   25.1050  -25.9680 H   0  0  0  0  0  0  0  0  0  0  0  0
   -3.4065   25.5565  -26.9712 H   0  0  0  0  0  0  0  0  0  0  0  0
   -2.8090   23.8625  -26.9712 H   0  0  0  0  0  0  0  0  0  0  0  0
   -1.1099   26.2235  -27.9040 H   0  0  0  0  0  0  0  0  0  0  0  0
   -0.8182   24.4610  -28.1579 H   0  0  0  0  0  0  0  0  0  0  0  0
   -4.7708   24.5416  -28.4802 H   0  0  0  0  0  0  0  0  0  0  0  0
   -4.3534   22.0465  -29.5961 H   0  0  0  0  0  0  0  0  0  0  0  0
   -5.8311   22.6061  -28.7074 H   0  0  0  0  0  0  0  0  0  0  0  0
   -5.4161   22.7279  -31.7342 H   0  0  0  0  0  0  0  0  0  0  0  0
   -6.4220   21.5236  -30.8496 H   0  0  0  0  0  0  0  0  0  0  0  0
   -8.5074   24.3373  -32.2428 H   0  0  0  0  0  0  0  0  0  0  0  0
   -7.5001   22.9131  -32.8190 H   0  0  0  0  0  0  0  0  0  0  0  0
  -10.0127   22.8751  -31.1164 H   0  0  0  0  0  0  0  0  0  0  0  0
   -9.7079   22.1330  -32.7478 H   0  0  0  0  0  0  0  0  0  0  0  0
   -7.2214   21.5901  -33.1424 H   0  0  0  0  0  0  0  0  0  0  0  0
   -5.7926   19.9052  -34.2874 H   0  0  0  0  0  0  0  0  0  0  0  0
   -6.5642   15.5386  -32.7819 H   0  0  0  0  0  0  0  0  0  0  0  0
   -5.1362   13.8511  -33.9357 H   0  0  0  0  0  0  0  0  0  0  0  0
   -3.0181   17.0215  -35.9744 H   0  0  0  0  0  0  0  0  0  0  0  0
   -4.4419   18.7183  -34.8282 H   0  0  0  0  0  0  0  0  0  0  0  0
   -7.2974   16.8317  -31.6320 H   0  0  0  0  0  0  0  0  0  0  0  0
   -8.7249   18.5203  -30.4882 H   0  0  0  0  0  0  0  0  0  0  0  0
   -7.3362   25.5716  -31.2026 H   0  0  0  0  0  0  0  0  0  0  0  0
   -7.2482   25.0593  -29.4553 H   0  0  0  0  0  0  0  0  0  0  0  0
   -4.9544   25.0919  -31.4641 H   0  0  0  0  0  0  0  0  0  0  0  0
   -5.2064   26.2082  -30.0623 H   0  0  0  0  0  0  0  0  0  0  0  0
  1  2  1  0
  2  3  1  0
  3  4  1  0
  4  5  2  0
  4  6  1  0
  6  7  1  0
  7  8  1  0
  8  9  1  0
  9 10  1  0
 10 11  1  0
 11 12  1  0
 12 13  1  0
 13 14  2  0
 14 15  1  0
 15 16  2  0
 16 17  1  0
 17 18  2  0
 18 19  1  0
 19 20  2  0
 20 21  1  0
 20 22  1  0
 22 23  2  0
 16 24  1  0
 24 25  2  0
  9 26  1  0
 26 27  1  0
 27  6  1  0
 25 13  1  0
 23 17  1  0
  1 28  1  0
  1 29  1  0
  1 30  1  0
  2 31  1  0
  2 32  1  0
  6 33  1  0
  7 34  1  0
  7 35  1  0
  8 36  1  0
  8 37  1  0
 10 38  1  0
 10 39  1  0
 11 40  1  0
 11 41  1  0
 14 42  1  0
 15 43  1  0
 18 44  1  0
 19 45  1  0
 22 46  1  0
 23 47  1  0
 24 48  1  0
 25 49  1  0
 26 50  1  0
 26 51  1  0
 27 52  1  0
 27 53  1  0
M  CHG  1   3  -1
M  END
>  <UniqueID>  (25) 
24

>  <SMILES>  (25) 
CC[N-]C(=O)C1CCN(CCOc2ccc(-c3ccc(F)cc3)cc2)CC1

>  <Energy>  (25) 
64.99598441563563

>  <Genealogy>  (25) 
CC[N-]C(=O)C1CCN(CCOc2ccc(-c3ccc(F)cc3)cc2)CC1 (protonated)
CC[N-]C(=O)C1CCN(CCOc2ccc(-c3ccc(F)cc3)cc2)CC1 (3D coordinates assigned)
CC[N-]C(=O)C1CCN(CCOc2ccc(-c3ccc(F)cc3)cc2)CC1 (nonaromatic ring conformer: 64.99598441563563 kcal/mol)

>  <smiles>  (25) 
CCNC(=O)C1CCN(CCOc2ccc(-c3ccc(F)cc3)cc2)CC1

>  <score_type>  (25) 
oracle

>  <origin>  (25) 
adg

>  <m_score__min__energy>  (25) 
-10.539999999999999

>  <m_primary>  (25) 
energy

$$$$
25:0
     RDKit          3D

 60 63  0  0  0  0  0  0  0  0999 V2000
   -3.7770   24.0100  -28.3370 C   0  0  0  0  0  0  0  0  0  0  0  0
   -2.9420   24.5520  -29.4910 C   0  0  0  0  0  0  0  0  0  0  0  0
   -3.8210   25.0760  -30.5440 N   0  0  0  0  0  0  0  0  0  0  0  0
   -5.2170   25.1560  -30.0940 C   0  0  0  0  0  0  0  0  0  0  0  0
   -6.0840   24.0800  -30.7650 C   0  0  0  0  0  0  0  0  0  0  0  0
   -5.3880   23.4330  -31.8800 N   0  0  0  0  0  0  0  0  0  0  0  0
   -5.6740   22.0850  -32.2890 C   0  0  0  0  0  0  0  0  0  0  0  0
   -6.9950   21.6410  -32.2830 C   0  0  0  0  0  0  0  0  0  0  0  0
   -8.3640   22.4440  -31.7240 S   0  0  0  0  0  0  0  0  0  0  0  0
   -9.4490   21.2080  -32.0880 C   0  0  0  0  0  0  0  0  0  0  0  0
   -8.7430   20.1490  -32.6480 C   0  0  0  0  0  0  0  0  0  0  0  0
   -7.3630   20.3960  -32.7460 C   0  0  0  0  0  0  0  0  0  0  0  0
   -6.4070   19.5160  -33.2610 C   0  0  0  0  0  0  0  0  0  0  0  0
   -6.8340   18.2300  -33.7240 N   0  0  0  0  0  0  0  0  0  0  0  0
   -7.1520   17.1700  -32.7680 C   0  0  0  0  0  0  0  0  0  0  0  0
   -5.8940   16.7210  -32.0150 C   0  0  0  0  0  0  0  0  0  0  0  0
   -5.3650   15.4650  -32.5870 N   0  0  0  0  0  0  0  0  0  0  0  0
   -3.8980   15.5210  -32.7220 C   0  0  0  0  0  0  0  0  0  0  0  0
   -5.9650   15.2140  -33.9070 C   0  0  0  0  0  0  0  0  0  0  0  0
   -5.0350   19.9180  -33.2960 C   0  0  0  0  0  0  0  0  0  0  0  0
   -4.0360   19.0790  -33.8490 C   0  0  0  0  0  0  0  0  0  0  0  0
   -4.3680   17.8380  -34.3900 O   0  0  0  0  0  0  0  0  0  0  0  0
   -2.6930   19.4860  -33.8850 C   0  0  0  0  0  0  0  0  0  0  0  0
   -1.7180   18.6590  -34.4790 C   0  0  0  0  0  0  0  0  0  0  0  0
   -0.3860   19.0640  -34.5470 C   0  0  0  0  0  0  0  0  0  0  0  0
   -0.0080   20.3000  -34.0350 C   0  0  0  0  0  0  0  0  0  0  0  0
   -0.9560   21.1320  -33.4360 C   0  0  0  0  0  0  0  0  0  0  0  0
   -2.3080   20.7300  -33.3280 C   0  0  0  0  0  0  0  0  0  0  0  0
   -3.2810   21.5480  -32.7040 C   0  0  0  0  0  0  0  0  0  0  0  0
   -2.8970   22.6870  -31.9880 O   0  0  0  0  0  0  0  0  0  0  0  0
   -4.6570   21.1970  -32.7610 C   0  0  0  0  0  0  0  0  0  0  0  0
   -3.3192   24.3072  -27.3819 H   0  0  0  0  0  0  0  0  0  0  0  0
   -4.7962   24.4192  -28.3981 H   0  0  0  0  0  0  0  0  0  0  0  0
   -3.8182   22.9125  -28.3981 H   0  0  0  0  0  0  0  0  0  0  0  0
   -2.2928   25.3601  -29.1228 H   0  0  0  0  0  0  0  0  0  0  0  0
   -2.3274   23.7391  -29.9050 H   0  0  0  0  0  0  0  0  0  0  0  0
   -3.5030   26.0480  -30.7670 H   0  0  0  0  0  0  0  0  0  0  0  0
   -5.2504   25.0141  -29.0037 H   0  0  0  0  0  0  0  0  0  0  0  0
   -5.6143   26.1436  -30.3711 H   0  0  0  0  0  0  0  0  0  0  0  0
   -6.3444   23.3163  -30.0174 H   0  0  0  0  0  0  0  0  0  0  0  0
   -6.9851   24.5688  -31.1639 H   0  0  0  0  0  0  0  0  0  0  0  0
   -4.6180   23.9510  -32.3580 H   0  0  0  0  0  0  0  0  0  0  0  0
  -10.5345   21.2342  -31.9121 H   0  0  0  0  0  0  0  0  0  0  0  0
   -9.2164   19.2134  -32.9804 H   0  0  0  0  0  0  0  0  0  0  0  0
   -6.8990   18.0670  -34.7540 H   0  0  0  0  0  0  0  0  0  0  0  0
   -7.8903   17.5463  -32.0446 H   0  0  0  0  0  0  0  0  0  0  0  0
   -7.5597   16.3093  -33.3184 H   0  0  0  0  0  0  0  0  0  0  0  0
   -5.1266   17.5052  -32.0935 H   0  0  0  0  0  0  0  0  0  0  0  0
   -6.1551   16.5478  -30.9606 H   0  0  0  0  0  0  0  0  0  0  0  0
   -3.4382   15.5386  -31.7228 H   0  0  0  0  0  0  0  0  0  0  0  0
   -3.5463   14.6356  -33.2719 H   0  0  0  0  0  0  0  0  0  0  0  0
   -3.6148   16.4306  -33.2719 H   0  0  0  0  0  0  0  0  0  0  0  0
   -6.9727   14.7924  -33.7775 H   0  0  0  0  0  0  0  0  0  0  0  0
   -6.0320   16.1595  -34.4651 H   0  0  0  0  0  0  0  0  0  0  0  0
   -5.3388   14.5024  -34.4651 H   0  0  0  0  0  0  0  0  0  0  0  0
   -2.0117   17.6833  -34.8934 H   0  0  0  0  0  0  0  0  0  0  0  0
    0.3662   18.4055  -35.0059 H   0  0  0  0  0  0  0  0  0  0  0  0
    1.0412   20.6236  -34.1020 H   0  0  0  0  0  0  0  0  0  0  0  0
   -0.6477   22.1121  -33.0432 H   0  0  0  0  0  0  0  0  0  0  0  0
   -3.3950   23.0660  -31.1950 H   0  0  0  0  0  0  0  0  0  0  0  0
  1  2  1  0
  2  3  1  0
  3  4  1  0
  4  5  1  0
  5  6  1  0
  6  7  1  0
  7  8  2  0
  8  9  1  0
  9 10  1  0
 10 11  2  0
 11 12  1  0
 12 13  2  0
 13 14  1  0
 14 15  1  0
 15 16  1  0
 16 17  1  0
 17 18  1  0
 17 19  1  0
 13 20  1  0
 20 21  2  0
 21 22  1  0
 21 23  1  0
 23 24  2  0
 24 25  1  0
 25 26  2  0
 26 27  1  0
 27 28  2  0
 28 29  1  0
 29 30  1  0
 29 31  2  0
 31  7  1  0
 12  8  1  0
 31 20  1  0
 28 23  1  0
  1 32  1  0
  1 33  1  0
  1 34  1  0
  2 35  1  0
  2 36  1  0
  3 37  1  0
  4 38  1  0
  4 39  1  0
  5 40  1  0
  5 41  1  0
  6 42  1  0
 10 43  1  0
 11 44  1  0
 14 45  1  0
 15 46  1  0
 15 47  1  0
 16 48  1  0
 16 49  1  0
 18 50  1  0
 18 51  1  0
 18 52  1  0
 19 53  1  0
 19 54  1  0
 19 55  1  0
 24 56  1  0
 25 57  1  0
 26 58  1  0
 27 59  1  0
 30 60  1  0
M  CHG  1  22  -1
M  END
>  <UniqueID>  (26) 
25

>  <SMILES>  (26) 
CCNCCNc1c2sccc2c(NCCN(C)C)c2c([O-])c3ccccc3c(O)c12

>  <Energy>  (26) 
117.24730758169186

>  <Genealogy>  (26) 
CCNCCNc1c2sccc2c(NCCN(C)C)c2c([O-])c3ccccc3c(O)c12 (protonated)
CCNCCNc1c2sccc2c(NCCN(C)C)c2c([O-])c3ccccc3c(O)c12 (3D coordinates assigned)
CCNCCNc1c2sccc2c(NCCN(C)C)c2c([O-])c3ccccc3c(O)c12 (optimized conformer: 117.24730758169186 kcal/mol)

>  <smiles>  (26) 
CCNCCNc1c2sccc2c(NCCN(C)C)c2c(O)c3ccccc3c(O)c12

>  <score_type>  (26) 
oracle

>  <origin>  (26) 
adg

>  <m_score__min__energy>  (26) 
-9.2799999999999994

>  <m_primary>  (26) 
energy

$$$$
26:0
     RDKit          3D

 64 66  0  0  0  0  0  0  0  0999 V2000
   -4.1690   23.8840  -28.4040 C   0  0  0  0  0  0  0  0  0  0  0  0
   -3.1920   24.2460  -29.5140 C   0  0  0  0  0  0  0  0  0  0  0  0
   -3.8960   24.9720  -30.5780 N   0  0  0  0  0  0  0  0  0  0  0  0
   -5.1640   25.5570  -30.1100 C   0  0  0  0  0  0  0  0  0  0  0  0
   -6.3950   24.9280  -30.7750 C   0  0  0  0  0  0  0  0  0  0  0  0
   -5.9660   24.1760  -31.8930 O   0  0  0  0  0  0  0  0  0  0  0  0
   -7.0640   23.7970  -32.7020 C   0  0  0  0  0  0  0  0  0  0  0  0
   -7.8420   22.6380  -32.0760 C   0  0  0  0  0  0  0  0  0  0  0  0
   -6.8550   21.8260  -30.7730 S   0  0  0  0  0  0  0  0  0  0  0  0
   -6.2950   20.4940  -31.8490 C   0  0  0  0  0  0  0  0  0  0  0  0
   -6.9660   19.2660  -31.7710 C   0  0  0  0  0  0  0  0  0  0  0  0
   -6.5750   18.1920  -32.5710 C   0  0  0  0  0  0  0  0  0  0  0  0
   -5.5000   18.3310  -33.4500 C   0  0  0  0  0  0  0  0  0  0  0  0
   -4.9590   16.8570  -34.5370 Br  0  0  0  0  0  0  0  0  0  0  0  0
   -4.8180   19.5470  -33.5320 C   0  0  0  0  0  0  0  0  0  0  0  0
   -5.2080   20.6460  -32.7450 C   0  0  0  0  0  0  0  0  0  0  0  0
   -4.4310   21.9350  -32.8800 C   0  0  0  0  0  0  0  0  0  0  0  0
   -3.7850   22.2670  -31.6010 N   0  0  0  0  0  0  0  0  0  0  0  0
   -3.6150   21.0770  -30.7530 C   0  0  0  0  0  0  0  0  0  0  0  0
   -2.1240   20.7500  -30.5770 C   0  0  0  0  0  0  0  0  0  0  0  0
   -1.3130   21.1720  -31.7360 N   0  0  0  0  0  0  0  0  0  0  0  0
   -1.1320   20.0950  -32.6910 C   0  0  0  0  0  0  0  0  0  0  0  0
   -1.6220   18.8240  -32.3470 C   0  0  0  0  0  0  0  0  0  0  0  0
   -1.4930   17.7410  -33.2090 C   0  0  0  0  0  0  0  0  0  0  0  0
   -0.8770   17.8900  -34.4480 C   0  0  0  0  0  0  0  0  0  0  0  0
   -0.7610   16.3250  -35.5600 Br  0  0  0  0  0  0  0  0  0  0  0  0
   -0.3670   19.1500  -34.8370 C   0  0  0  0  0  0  0  0  0  0  0  0
    0.2580   19.3170  -36.0890 C   0  0  0  0  0  0  0  0  0  0  0  0
    0.7440   20.5610  -36.4800 C   0  0  0  0  0  0  0  0  0  0  0  0
    0.6200   21.6580  -35.6330 C   0  0  0  0  0  0  0  0  0  0  0  0
    0.0160   21.5190  -34.3850 C   0  0  0  0  0  0  0  0  0  0  0  0
   -0.4950   20.2700  -33.9580 C   0  0  0  0  0  0  0  0  0  0  0  0
   -3.6953   24.0595  -27.4269 H   0  0  0  0  0  0  0  0  0  0  0  0
   -5.0709   24.5076  -28.4915 H   0  0  0  0  0  0  0  0  0  0  0  0
   -4.4468   22.8233  -28.4915 H   0  0  0  0  0  0  0  0  0  0  0  0
   -2.3933   24.8819  -29.1046 H   0  0  0  0  0  0  0  0  0  0  0  0
   -2.7562   23.3253  -29.9292 H   0  0  0  0  0  0  0  0  0  0  0  0
   -4.0890   24.3160  -31.3720 H   0  0  0  0  0  0  0  0  0  0  0  0
   -5.2385   25.4084  -29.0226 H   0  0  0  0  0  0  0  0  0  0  0  0
   -5.1535   26.6237  -30.3786 H   0  0  0  0  0  0  0  0  0  0  0  0
   -6.9074   24.2687  -30.0589 H   0  0  0  0  0  0  0  0  0  0  0  0
   -7.0935   25.7149  -31.0957 H   0  0  0  0  0  0  0  0  0  0  0  0
   -7.7374   24.6589  -32.8187 H   0  0  0  0  0  0  0  0  0  0  0  0
   -6.6787   23.4690  -33.6787 H   0  0  0  0  0  0  0  0  0  0  0  0
   -8.7729   23.0244  -31.6355 H   0  0  0  0  0  0  0  0  0  0  0  0
   -8.0676   21.8999  -32.8598 H   0  0  0  0  0  0  0  0  0  0  0  0
   -7.8080   19.1480  -31.0731 H   0  0  0  0  0  0  0  0  0  0  0  0
   -7.1142   17.2353  -32.5089 H   0  0  0  0  0  0  0  0  0  0  0  0
   -3.9657   19.6467  -34.2202 H   0  0  0  0  0  0  0  0  0  0  0  0
   -3.6617   21.8173  -33.6574 H   0  0  0  0  0  0  0  0  0  0  0  0
   -5.1204   22.7457  -33.1585 H   0  0  0  0  0  0  0  0  0  0  0  0
   -4.4170   22.9310  -31.0930 H   0  0  0  0  0  0  0  0  0  0  0  0
   -4.0625   21.2686  -29.7665 H   0  0  0  0  0  0  0  0  0  0  0  0
   -4.1120   20.2225  -31.2354 H   0  0  0  0  0  0  0  0  0  0  0  0
   -1.7529   21.2667  -29.6796 H   0  0  0  0  0  0  0  0  0  0  0  0
   -2.0298   19.6581  -30.4824 H   0  0  0  0  0  0  0  0  0  0  0  0
   -1.6930   22.0440  -32.1620 H   0  0  0  0  0  0  0  0  0  0  0  0
   -0.3700   21.4480  -31.3770 H   0  0  0  0  0  0  0  0  0  0  0  0
   -2.1180   18.6829  -31.3754 H   0  0  0  0  0  0  0  0  0  0  0  0
   -1.8816   16.7567  -32.9088 H   0  0  0  0  0  0  0  0  0  0  0  0
    0.3628   18.4550  -36.7643 H   0  0  0  0  0  0  0  0  0  0  0  0
    1.2274   20.6774  -37.4612 H   0  0  0  0  0  0  0  0  0  0  0  0
    1.0008   22.6400  -35.9503 H   0  0  0  0  0  0  0  0  0  0  0  0
   -0.0649   22.3929  -33.7218 H   0  0  0  0  0  0  0  0  0  0  0  0
  1  2  1  0
  2  3  1  0
  3  4  1  0
  4  5  1  0
  5  6  1  0
  6  7  1  0
  7  8  1  0
  8  9  1  0
  9 10  1  0
 10 11  2  0
 11 12  1  0
 12 13  2  0
 13 14  1  0
 13 15  1  0
 15 16  2  0
 16 17  1  0
 17 18  1  0
 18 19  1  0
 19 20  1  0
 20 21  1  0
 21 22  1  0
 22 23  2  0
 23 24  1  0
 24 25  2  0
 25 26  1  0
 25 27  1  0
 27 28  2  0
 28 29  1  0
 29 30  2  0
 30 31  1  0
 31 32  2  0
 16 10  1  0
 32 22  1  0
 32 27  1  0
  1 33  1  0
  1 34  1  0
  1 35  1  0
  2 36  1  0
  2 37  1  0
  3 38  1  0
  4 39  1  0
  4 40  1  0
  5 41  1  0
  5 42  1  0
  7 43  1  0
  7 44  1  0
  8 45  1  0
  8 46  1  0
 11 47  1  0
 12 48  1  0
 15 49  1  0
 17 50  1  0
 17 51  1  0
 18 52  1  0
 19 53  1  0
 19 54  1  0
 20 55  1  0
 20 56  1  0
 21 57  1  0
 21 58  1  0
 23 59  1  0
 24 60  1  0
 28 61  1  0
 29 62  1  0
 30 63  1  0
 31 64  1  0
M  CHG  1  21   1
M  END
>  <UniqueID>  (27) 
26

>  <SMILES>  (27) 
CCNCCOCCSc1ccc(Br)cc1CNCC[NH2+]c1ccc(Br)c2ccccc12

>  <Energy>  (27) 
67.73895940228707

>  <Genealogy>  (27) 
CCNCCOCCSc1ccc(Br)cc1CNCC[NH2+]c1ccc(Br)c2ccccc12 (protonated)
CCNCCOCCSc1ccc(Br)cc1CNCC[NH2+]c1ccc(Br)c2ccccc12 (3D coordinates assigned)
CCNCCOCCSc1ccc(Br)cc1CNCC[NH2+]c1ccc(Br)c2ccccc12 (optimized conformer: 67.73895940228707 kcal/mol)

>  <smiles>  (27) 
CCNCCOCCSc1ccc(Br)cc1CNCCNc1ccc(Br)c2ccccc12

>  <score_type>  (27) 
oracle

>  <origin>  (27) 
adg

>  <m_score__min__energy>  (27) 
-10.76

>  <m_primary>  (27) 
energy

$$$$
27:0
     RDKit          3D

 79 81  0  0  0  0  0  0  0  0999 V2000
   -4.5320   15.0090  -32.4040 C   0  0  0  0  0  0  0  0  0  0  0  0
   -3.6100   16.0180  -33.1050 C   0  0  0  0  0  0  0  0  0  0  0  0
   -4.2780   17.2930  -33.4530 N   0  0  0  0  0  0  0  0  0  0  0  0
   -5.5470   17.0840  -34.1870 C   0  0  0  0  0  0  0  0  0  0  0  0
   -5.7600   18.1720  -35.2390 C   0  0  0  0  0  0  0  0  0  0  0  0
   -3.3680   18.2630  -34.1090 C   0  0  0  0  0  0  0  0  0  0  0  0
   -3.4160   19.5940  -33.3510 C   0  0  0  0  0  0  0  0  0  0  0  0
   -4.0060   19.4720  -32.0010 N   0  0  0  0  0  0  0  0  0  0  0  0
   -4.8520   20.6090  -31.6510 C   0  0  0  0  0  0  0  0  0  0  0  0
   -6.2720   20.5400  -31.7690 C   0  0  0  0  0  0  0  0  0  0  0  0
   -6.9470   19.3490  -32.1490 C   0  0  0  0  0  0  0  0  0  0  0  0
   -8.3350   19.2900  -32.2060 C   0  0  0  0  0  0  0  0  0  0  0  0
   -9.0950   20.4020  -31.8790 C   0  0  0  0  0  0  0  0  0  0  0  0
   -8.4680   21.5900  -31.5190 C   0  0  0  0  0  0  0  0  0  0  0  0
   -7.0540   21.6990  -31.4900 C   0  0  0  0  0  0  0  0  0  0  0  0
   -6.4410   22.8940  -31.1800 N   0  0  0  0  0  0  0  0  0  0  0  0
   -7.2200   24.1550  -31.2210 C   0  0  0  0  0  0  0  0  0  0  0  0
   -5.1000   22.9220  -30.8570 C   0  0  0  0  0  0  0  0  0  0  0  0
   -4.5270   24.0500  -30.2240 C   0  0  0  0  0  0  0  0  0  0  0  0
   -3.1540   24.1220  -29.9450 C   0  0  0  0  0  0  0  0  0  0  0  0
   -2.5700   25.2350  -29.3100 O   0  0  0  0  0  0  0  0  0  0  0  0
   -1.5120   25.1800  -28.3530 C   0  0  0  0  0  0  0  0  0  0  0  0
   -2.0850   25.2990  -26.9180 C   0  0  0  0  0  0  0  0  0  0  0  0
   -1.0760   25.5430  -25.8320 N   0  0  0  0  0  0  0  0  0  0  0  0
    0.1940   26.0510  -26.4190 C   0  0  0  0  0  0  0  0  0  0  0  0
   -1.6380   26.5510  -24.8670 C   0  0  0  0  0  0  0  0  0  0  0  0
   -0.8020   26.7940  -23.5970 C   0  0  0  0  0  0  0  0  0  0  0  0
   -0.8270   24.2590  -25.0920 C   0  0  0  0  0  0  0  0  0  0  0  0
    0.6510   23.8640  -24.9050 C   0  0  0  0  0  0  0  0  0  0  0  0
   -2.3260   23.0620  -30.3030 C   0  0  0  0  0  0  0  0  0  0  0  0
   -0.9510   23.1720  -30.0300 O   0  0  0  0  0  0  0  0  0  0  0  0
   -0.2090   22.2740  -29.2130 C   0  0  0  0  0  0  0  0  0  0  0  0
   -2.8790   21.9200  -30.9000 C   0  0  0  0  0  0  0  0  0  0  0  0
   -4.2710   21.8070  -31.1410 C   0  0  0  0  0  0  0  0  0  0  0  0
   -4.4328   15.1175  -31.3139 H   0  0  0  0  0  0  0  0  0  0  0  0
   -5.5747   15.1993  -32.6981 H   0  0  0  0  0  0  0  0  0  0  0  0
   -4.2487   13.9876  -32.6981 H   0  0  0  0  0  0  0  0  0  0  0  0
   -2.7655   16.2397  -32.4360 H   0  0  0  0  0  0  0  0  0  0  0  0
   -3.2871   15.5560  -34.0496 H   0  0  0  0  0  0  0  0  0  0  0  0
   -5.5166   16.1037  -34.6851 H   0  0  0  0  0  0  0  0  0  0  0  0
   -6.3778   17.1265  -33.4674 H   0  0  0  0  0  0  0  0  0  0  0  0
   -5.9483   19.1336  -34.7391 H   0  0  0  0  0  0  0  0  0  0  0  0
   -4.8611   18.2553  -35.8675 H   0  0  0  0  0  0  0  0  0  0  0  0
   -6.6239   17.9102  -35.8675 H   0  0  0  0  0  0  0  0  0  0  0  0
   -2.3408   17.8697  -34.0965 H   0  0  0  0  0  0  0  0  0  0  0  0
   -3.6853   18.4201  -35.1505 H   0  0  0  0  0  0  0  0  0  0  0  0
   -2.3897   19.9771  -33.2511 H   0  0  0  0  0  0  0  0  0  0  0  0
   -4.0565   20.2771  -33.9282 H   0  0  0  0  0  0  0  0  0  0  0  0
   -3.2610   19.2890  -31.2980 H   0  0  0  0  0  0  0  0  0  0  0  0
   -4.5700   18.5950  -31.9510 H   0  0  0  0  0  0  0  0  0  0  0  0
   -6.3592   18.4547  -32.4035 H   0  0  0  0  0  0  0  0  0  0  0  0
   -8.8317   18.3574  -32.5117 H   0  0  0  0  0  0  0  0  0  0  0  0
  -10.1932   20.3449  -31.9042 H   0  0  0  0  0  0  0  0  0  0  0  0
   -9.0812   22.4631  -31.2512 H   0  0  0  0  0  0  0  0  0  0  0  0
   -7.4277   24.4912  -30.1944 H   0  0  0  0  0  0  0  0  0  0  0  0
   -6.6410   24.9267  -31.7495 H   0  0  0  0  0  0  0  0  0  0  0  0
   -8.1692   23.9826  -31.7495 H   0  0  0  0  0  0  0  0  0  0  0  0
   -5.1753   24.8931  -29.9431 H   0  0  0  0  0  0  0  0  0  0  0  0
   -0.9796   24.2227  -28.4539 H   0  0  0  0  0  0  0  0  0  0  0  0
   -0.8189   26.0148  -28.5342 H   0  0  0  0  0  0  0  0  0  0  0  0
   -2.8009   26.1341  -26.9081 H   0  0  0  0  0  0  0  0  0  0  0  0
   -2.5369   24.3216  -26.6935 H   0  0  0  0  0  0  0  0  0  0  0  0
    0.8866   26.3280  -25.6106 H   0  0  0  0  0  0  0  0  0  0  0  0
    0.6505   25.2663  -27.0401 H   0  0  0  0  0  0  0  0  0  0  0  0
   -0.0166   26.9341  -27.0401 H   0  0  0  0  0  0  0  0  0  0  0  0
   -1.7346   27.5099  -25.3973 H   0  0  0  0  0  0  0  0  0  0  0  0
   -2.5961   26.1354  -24.5217 H   0  0  0  0  0  0  0  0  0  0  0  0
   -1.4243   26.6131  -22.7082 H   0  0  0  0  0  0  0  0  0  0  0  0
    0.0585   26.1088  -23.5878 H   0  0  0  0  0  0  0  0  0  0  0  0
   -0.4429   27.8337  -23.5878 H   0  0  0  0  0  0  0  0  0  0  0  0
   -1.2795   24.3524  -24.0937 H   0  0  0  0  0  0  0  0  0  0  0  0
   -1.2698   23.4670  -25.7139 H   0  0  0  0  0  0  0  0  0  0  0  0
    0.8811   23.8025  -23.8311 H   0  0  0  0  0  0  0  0  0  0  0  0
    0.8315   22.8861  -25.3752 H   0  0  0  0  0  0  0  0  0  0  0  0
    1.2953   24.6215  -25.3752 H   0  0  0  0  0  0  0  0  0  0  0  0
   -0.3971   22.5017  -28.1534 H   0  0  0  0  0  0  0  0  0  0  0  0
   -0.5205   21.2410  -29.4270 H   0  0  0  0  0  0  0  0  0  0  0  0
    0.8642   22.3851  -29.4270 H   0  0  0  0  0  0  0  0  0  0  0  0
   -2.2158   21.0912  -31.1885 H   0  0  0  0  0  0  0  0  0  0  0  0
  1  2  1  0
  2  3  1  0
  3  4  1  0
  4  5  1  0
  3  6  1  0
  6  7  1  0
  7  8  1  0
  8  9  1  0
  9 10  2  0
 10 11  1  0
 11 12  2  0
 12 13  1  0
 13 14  2  0
 14 15  1  0
 15 16  2  0
 16 17  1  0
 16 18  1  0
 18 19  2  0
 19 20  1  0
 20 21  1  0
 21 22  1  0
 22 23  1  0
 23 24  1  0
 24 25  1  0
 24 26  1  0
 26 27  1  0
 24 28  1  0
 28 29  1  0
 20 30  2  0
 30 31  1  0
 31 32  1  0
 30 33  1  0
 33 34  2  0
 34  9  1  0
 15 10  1  0
 34 18  1  0
  1 35  1  0
  1 36  1  0
  1 37  1  0
  2 38  1  0
  2 39  1  0
  4 40  1  0
  4 41  1  0
  5 42  1  0
  5 43  1  0
  5 44  1  0
  6 45  1  0
  6 46  1  0
  7 47  1  0
  7 48  1  0
  8 49  1  0
  8 50  1  0
 11 51  1  0
 12 52  1  0
 13 53  1  0
 14 54  1  0
 17 55  1  0
 17 56  1  0
 17 57  1  0
 19 58  1  0
 22 59  1  0
 22 60  1  0
 23 61  1  0
 23 62  1  0
 25 63  1  0
 25 64  1  0
 25 65  1  0
 26 66  1  0
 26 67  1  0
 27 68  1  0
 27 69  1  0
 27 70  1  0
 28 71  1  0
 28 72  1  0
 29 73  1  0
 29 74  1  0
 29 75  1  0
 32 76  1  0
 32 77  1  0
 32 78  1  0
 33 79  1  0
M  CHG  3   8   1  16   1  24   1
M  END
>  <UniqueID>  (28) 
27

>  <SMILES>  (28) 
CCN(CC)CC[NH2+]c1c2ccccc2[n+](C)c2cc(OCC[N+](C)(CC)CC)c(OC)cc12

>  <Energy>  (28) 
121.47941608991552

>  <Genealogy>  (28) 
CCN(CC)CC[NH2+]c1c2ccccc2[n+](C)c2cc(OCC[N+](C)(CC)CC)c(OC)cc12 (protonated)
CCN(CC)CC[NH2+]c1c2ccccc2[n+](C)c2cc(OCC[N+](C)(CC)CC)c(OC)cc12 (3D coordinates assigned)
CCN(CC)CC[NH2+]c1c2ccccc2[n+](C)c2cc(OCC[N+](C)(CC)CC)c(OC)cc12 (optimized conformer: 121.47941608991552 kcal/mol)

>  <smiles>  (28) 
CCN(CC)CCNc1c2ccccc2[n+](C)c2cc(OCC[N+](C)(CC)CC)c(OC)cc12

>  <score_type>  (28) 
oracle

>  <origin>  (28) 
adg

>  <m_score__min__energy>  (28) 
-7.2300000000000004

>  <m_primary>  (28) 
energy

$$$$
28:0
     RDKit          3D

 73 77  0  0  0  0  0  0  0  0999 V2000
    0.4690   20.4280  -31.6610 C   0  0  0  0  0  0  0  0  0  0  0  0
   -0.9210   20.2190  -32.0960 N   0  0  0  0  0  0  0  0  0  0  0  0
   -1.1530   18.8180  -32.4840 C   0  0  0  0  0  0  0  0  0  0  0  0
   -1.3550   21.1830  -33.1330 C   0  0  0  0  0  0  0  0  0  0  0  0
   -2.8730   21.4650  -33.1460 C   0  0  0  0  0  0  0  0  0  0  0  0
   -3.5530   20.7060  -32.0950 N   0  0  0  0  0  0  0  0  0  0  0  0
   -4.9790   20.5550  -32.0720 C   0  0  0  0  0  0  0  0  0  0  0  0
   -5.6130   19.3850  -32.5470 C   0  0  0  0  0  0  0  0  0  0  0  0
   -4.8540   18.2630  -32.9360 C   0  0  0  0  0  0  0  0  0  0  0  0
   -5.4790   17.1020  -33.3830 C   0  0  0  0  0  0  0  0  0  0  0  0
   -6.8670   17.0290  -33.4320 C   0  0  0  0  0  0  0  0  0  0  0  0
   -7.6460   18.1170  -33.0400 C   0  0  0  0  0  0  0  0  0  0  0  0
   -7.0470   19.3220  -32.5980 C   0  0  0  0  0  0  0  0  0  0  0  0
   -7.8120   20.4120  -32.2050 N   0  0  0  0  0  0  0  0  0  0  0  0
   -9.2810   20.4020  -32.3400 C   0  0  0  0  0  0  0  0  0  0  0  0
   -7.1690   21.4950  -31.6600 C   0  0  0  0  0  0  0  0  0  0  0  0
   -7.7490   22.6080  -31.1440 N   0  0  0  0  0  0  0  0  0  0  0  0
   -6.7220   23.3880  -30.7500 C   0  0  0  0  0  0  0  0  0  0  0  0
   -6.8090   24.6480  -30.1600 C   0  0  0  0  0  0  0  0  0  0  0  0
   -5.6140   25.3020  -29.8150 C   0  0  0  0  0  0  0  0  0  0  0  0
   -4.3560   24.6820  -30.0450 C   0  0  0  0  0  0  0  0  0  0  0  0
   -3.1350   25.2920  -29.7180 O   0  0  0  0  0  0  0  0  0  0  0  0
   -2.1990   24.8140  -28.7510 C   0  0  0  0  0  0  0  0  0  0  0  0
   -1.5740   23.4530  -29.1520 C   0  0  0  0  0  0  0  0  0  0  0  0
   -1.5080   22.3850  -28.0950 N   0  0  0  0  0  0  0  0  0  0  0  0
   -0.9850   22.9600  -26.8250 C   0  0  0  0  0  0  0  0  0  0  0  0
   -2.9220   21.8970  -27.8630 C   0  0  0  0  0  0  0  0  0  0  0  0
   -3.0850   20.3650  -27.7940 C   0  0  0  0  0  0  0  0  0  0  0  0
   -1.9610   19.7280  -26.9920 C   0  0  0  0  0  0  0  0  0  0  0  0
   -0.5870   20.0700  -27.5820 C   0  0  0  0  0  0  0  0  0  0  0  0
   -0.6150   21.2740  -28.5500 C   0  0  0  0  0  0  0  0  0  0  0  0
   -4.3070   23.4010  -30.6250 C   0  0  0  0  0  0  0  0  0  0  0  0
   -5.5070   22.7890  -30.9900 C   0  0  0  0  0  0  0  0  0  0  0  0
   -5.7930   21.5710  -31.5830 C   0  0  0  0  0  0  0  0  0  0  0  0
    0.5122   20.4345  -30.5619 H   0  0  0  0  0  0  0  0  0  0  0  0
    1.1005   19.6147  -32.0480 H   0  0  0  0  0  0  0  0  0  0  0  0
    0.8334   21.3910  -32.0480 H   0  0  0  0  0  0  0  0  0  0  0  0
   -1.2554   18.1994  -31.5802 H   0  0  0  0  0  0  0  0  0  0  0  0
   -2.0745   18.7506  -33.0809 H   0  0  0  0  0  0  0  0  0  0  0  0
   -0.3024   18.4572  -33.0809 H   0  0  0  0  0  0  0  0  0  0  0  0
   -0.8298   22.1340  -32.9601 H   0  0  0  0  0  0  0  0  0  0  0  0
   -1.1115   20.7294  -34.1051 H   0  0  0  0  0  0  0  0  0  0  0  0
   -3.0414   22.5394  -32.9810 H   0  0  0  0  0  0  0  0  0  0  0  0
   -3.2797   21.1583  -34.1210 H   0  0  0  0  0  0  0  0  0  0  0  0
   -2.9880   20.2580  -31.3400 H   0  0  0  0  0  0  0  0  0  0  0  0
   -3.7559   18.3050  -32.8859 H   0  0  0  0  0  0  0  0  0  0  0  0
   -4.8731   16.2398  -33.6984 H   0  0  0  0  0  0  0  0  0  0  0  0
   -7.3535   16.1067  -33.7824 H   0  0  0  0  0  0  0  0  0  0  0  0
   -8.7426   18.0383  -33.0746 H   0  0  0  0  0  0  0  0  0  0  0  0
   -9.7410   20.3989  -31.3408 H   0  0  0  0  0  0  0  0  0  0  0  0
   -9.6048   21.2980  -32.8899 H   0  0  0  0  0  0  0  0  0  0  0  0
   -9.5926   19.5017  -32.8899 H   0  0  0  0  0  0  0  0  0  0  0  0
   -8.7610   22.8400  -31.0330 H   0  0  0  0  0  0  0  0  0  0  0  0
   -7.7856   25.1171  -29.9698 H   0  0  0  0  0  0  0  0  0  0  0  0
   -5.6526   26.3038  -29.3624 H   0  0  0  0  0  0  0  0  0  0  0  0
   -1.3928   25.5547  -28.6443 H   0  0  0  0  0  0  0  0  0  0  0  0
   -2.7411   24.6672  -27.8052 H   0  0  0  0  0  0  0  0  0  0  0  0
   -2.1640   23.0526  -29.9896 H   0  0  0  0  0  0  0  0  0  0  0  0
   -0.5242   23.6830  -29.3864 H   0  0  0  0  0  0  0  0  0  0  0  0
   -1.4514   22.4472  -25.9709 H   0  0  0  0  0  0  0  0  0  0  0  0
    0.1058   22.8245  -26.7829 H   0  0  0  0  0  0  0  0  0  0  0  0
   -1.2230   24.0331  -26.7829 H   0  0  0  0  0  0  0  0  0  0  0  0
   -3.2762   22.3201  -26.9114 H   0  0  0  0  0  0  0  0  0  0  0  0
   -3.5057   22.2271  -28.7350 H   0  0  0  0  0  0  0  0  0  0  0  0
   -4.0465   20.1277  -27.3153 H   0  0  0  0  0  0  0  0  0  0  0  0
   -3.0524   19.9648  -28.8181 H   0  0  0  0  0  0  0  0  0  0  0  0
   -2.0073   20.0963  -25.9565 H   0  0  0  0  0  0  0  0  0  0  0  0
   -2.0890   18.6360  -27.0248 H   0  0  0  0  0  0  0  0  0  0  0  0
    0.0989   20.3043  -26.7545 H   0  0  0  0  0  0  0  0  0  0  0  0
   -0.2570   19.1956  -28.1622 H   0  0  0  0  0  0  0  0  0  0  0  0
    0.4079   21.6669  -28.6467 H   0  0  0  0  0  0  0  0  0  0  0  0
   -1.0143   20.9097  -29.5080 H   0  0  0  0  0  0  0  0  0  0  0  0
   -3.3447   22.8934  -30.7871 H   0  0  0  0  0  0  0  0  0  0  0  0
  1  2  1  0
  2  3  1  0
  2  4  1  0
  4  5  1  0
  5  6  1  0
  6  7  1  0
  7  8  2  0
  8  9  1  0
  9 10  2  0
 10 11  1  0
 11 12  2  0
 12 13  1  0
 13 14  2  0
 14 15  1  0
 14 16  1  0
 16 17  1  0
 17 18  1  0
 18 19  2  0
 19 20  1  0
 20 21  2  0
 21 22  1  0
 22 23  1  0
 23 24  1  0
 24 25  1  0
 25 26  1  0
 25 27  1  0
 27 28  1  0
 28 29  1  0
 29 30  1  0
 30 31  1  0
 21 32  1  0
 32 33  2  0
 33 34  1  0
 34  7  1  0
 13  8  1  0
 34 16  2  0
 33 18  1  0
 31 25  1  0
  1 35  1  0
  1 36  1  0
  1 37  1  0
  3 38  1  0
  3 39  1  0
  3 40  1  0
  4 41  1  0
  4 42  1  0
  5 43  1  0
  5 44  1  0
  6 45  1  0
  9 46  1  0
 10 47  1  0
 11 48  1  0
 12 49  1  0
 15 50  1  0
 15 51  1  0
 15 52  1  0
 17 53  1  0
 19 54  1  0
 20 55  1  0
 23 56  1  0
 23 57  1  0
 24 58  1  0
 24 59  1  0
 26 60  1  0
 26 61  1  0
 26 62  1  0
 27 63  1  0
 27 64  1  0
 28 65  1  0
 28 66  1  0
 29 67  1  0
 29 68  1  0
 30 69  1  0
 30 70  1  0
 31 71  1  0
 31 72  1  0
 32 73  1  0
M  CHG  2  14   1  25   1
M  END
>  <UniqueID>  (29) 
28

>  <SMILES>  (29) 
CN(C)CCNc1c2ccccc2[n+](C)c2[nH]c3ccc(OCC[N+]4(C)CCCCC4)cc3c12

>  <Energy>  (29) 
152.4523397275734

>  <Genealogy>  (29) 
CN(C)CCNc1c2ccccc2[n+](C)c2[nH]c3ccc(OCC[N+]4(C)CCCCC4)cc3c12 (3D coordinates assigned)
CN(C)CCNc1c2ccccc2[n+](C)c2[nH]c3ccc(OCC[N+]4(C)CCCCC4)cc3c12 (nonaromatic ring conformer: 152.4523397275734 kcal/mol)

>  <smiles>  (29) 
CN(C)CCNc1c2ccccc2[n+](C)c2[nH]c3ccc(OCC[N+]4(C)CCCCC4)cc3c12

>  <score_type>  (29) 
oracle

>  <origin>  (29) 
adg

>  <m_score__min__energy>  (29) 
-9.0600000000000005

>  <m_primary>  (29) 
energy

$$$$
