0:0
     RDKit          3D

 38 39  0  0  0  0  0  0  0  0999 V2000
   -3.2300   22.0890  -27.9460 C   0  0  0  0  0  0  0  0  0  0  0  0
   -4.2220   22.9470  -28.7060 C   0  0  0  0  0  0  0  0  0  0  0  0
   -4.5050   24.0910  -27.9830 O   0  0  0  0  0  0  0  0  0  0  0  0
   -5.3170   24.9150  -28.7490 C   0  0  0  0  0  0  0  0  0  0  0  0
   -5.0850   24.7480  -30.1970 C   0  0  0  0  0  0  0  0  0  0  0  0
   -4.1460   25.2680  -30.8310 O   0  0  0  0  0  0  0  0  0  0  0  0
   -6.0010   23.9360  -30.9210 N   0  0  0  0  0  0  0  0  0  0  0  0
   -5.8440   23.7190  -32.3560 C   0  0  0  0  0  0  0  0  0  0  0  0
   -5.5150   22.2280  -32.5080 C   0  0  0  0  0  0  0  0  0  0  0  0
   -6.6250   21.5000  -31.9440 N   0  0  0  0  0  0  0  0  0  0  0  0
   -6.8160   20.1380  -32.3470 C   0  0  0  0  0  0  0  0  0  0  0  0
   -7.8270   19.3490  -31.8170 C   0  0  0  0  0  0  0  0  0  0  0  0
   -8.0210   18.0350  -32.1930 C   0  0  0  0  0  0  0  0  0  0  0  0
   -7.1930   17.4600  -33.1310 C   0  0  0  0  0  0  0  0  0  0  0  0
   -6.1770   18.2110  -33.6820 C   0  0  0  0  0  0  0  0  0  0  0  0
   -5.1290   17.4530  -34.8800 Cl  0  0  0  0  0  0  0  0  0  0  0  0
   -6.0040   19.5250  -33.2860 C   0  0  0  0  0  0  0  0  0  0  0  0
   -7.5610   22.0420  -30.9940 C   0  0  0  0  0  0  0  0  0  0  0  0
   -7.1310   23.2800  -30.2950 C   0  0  0  0  0  0  0  0  0  0  0  0
   -3.3833   22.2216  -26.8648 H   0  0  0  0  0  0  0  0  0  0  0  0
   -3.3810   21.0321  -28.2108 H   0  0  0  0  0  0  0  0  0  0  0  0
   -2.2059   22.3907  -28.2108 H   0  0  0  0  0  0  0  0  0  0  0  0
   -3.7917   23.2273  -29.6788 H   0  0  0  0  0  0  0  0  0  0  0  0
   -5.1501   22.3772  -28.8605 H   0  0  0  0  0  0  0  0  0  0  0  0
   -6.3683   24.6766  -28.5302 H   0  0  0  0  0  0  0  0  0  0  0  0
   -5.0765   25.9566  -28.4896 H   0  0  0  0  0  0  0  0  0  0  0  0
   -6.7760   23.9637  -32.8866 H   0  0  0  0  0  0  0  0  0  0  0  0
   -5.0567   24.3577  -32.7830 H   0  0  0  0  0  0  0  0  0  0  0  0
   -5.3949   21.9726  -33.5712 H   0  0  0  0  0  0  0  0  0  0  0  0
   -4.5747   21.9757  -31.9959 H   0  0  0  0  0  0  0  0  0  0  0  0
   -8.5011   19.7884  -31.0669 H   0  0  0  0  0  0  0  0  0  0  0  0
   -8.8358   17.4481  -31.7440 H   0  0  0  0  0  0  0  0  0  0  0  0
   -7.3406   16.4138  -33.4370 H   0  0  0  0  0  0  0  0  0  0  0  0
   -5.1867   20.1076  -33.7362 H   0  0  0  0  0  0  0  0  0  0  0  0
   -8.4951   22.2648  -31.5305 H   0  0  0  0  0  0  0  0  0  0  0  0
   -7.6658   21.2779  -30.2097 H   0  0  0  0  0  0  0  0  0  0  0  0
   -7.9770   23.9829  -30.2803 H   0  0  0  0  0  0  0  0  0  0  0  0
   -6.8141   22.9862  -29.2835 H   0  0  0  0  0  0  0  0  0  0  0  0
  1  2  1  0
  2  3  1  0
  3  4  1  0
  4  5  1  0
  5  6  2  0
  5  7  1  0
  7  8  1  0
  8  9  1  0
  9 10  1  0
 10 11  1  0
 11 12  2  0
 12 13  1  0
 13 14  2  0
 14 15  1  0
 15 16  1  0
 15 17  2  0
 10 18  1  0
 18 19  1  0
 19  7  1  0
 17 11  1  0
  1 20  1  0
  1 21  1  0
  1 22  1  0
  2 23  1  0
  2 24  1  0
  4 25  1  0
  4 26  1  0
  8 27  1  0
  8 28  1  0
  9 29  1  0
  9 30  1  0
 12 31  1  0
 13 32  1  0
 14 33  1  0
 17 34  1  0
 18 35  1  0
 18 36  1  0
 19 37  1  0
 19 38  1  0
M  END
>  <smiles>  (1) 
CCOCC(=O)N1CCN(c2cccc(Cl)c2)CC1

>  <score_type>  (1) 
oracle

>  <origin>  (1) 
adg

>  <m_score__min__energy>  (1) 
-7.5300000000000002

>  <m_primary>  (1) 
energy

$$$$
1:0
     RDKit          3D

 50 52  0  0  0  0  0  0  0  0999 V2000
   -2.6330   23.8230  -29.3280 C   0  0  0  0  0  0  0  0  0  0  0  0
   -3.4420   22.6060  -29.0290 C   0  0  0  0  0  0  0  0  0  0  0  0
   -3.9540   22.0090  -30.2400 N   0  0  0  0  0  0  0  0  0  0  0  0
   -2.8780   21.3820  -31.0120 C   0  0  0  0  0  0  0  0  0  0  0  0
   -3.0020   21.9180  -32.4000 C   0  0  0  0  0  0  0  0  0  0  0  0
   -4.3230   22.0790  -32.9470 N   0  0  0  0  0  0  0  0  0  0  0  0
   -5.3830   21.1490  -32.7900 C   0  0  0  0  0  0  0  0  0  0  0  0
   -5.2080   19.8310  -33.1870 C   0  0  0  0  0  0  0  0  0  0  0  0
   -4.0270   19.4200  -33.7650 C   0  0  0  0  0  0  0  0  0  0  0  0
   -3.8060   18.1140  -34.1870 C   0  0  0  0  0  0  0  0  0  0  0  0
   -4.8090   17.1910  -34.0240 C   0  0  0  0  0  0  0  0  0  0  0  0
   -5.9980   17.6010  -33.4450 C   0  0  0  0  0  0  0  0  0  0  0  0
   -6.2180   18.9030  -33.0230 C   0  0  0  0  0  0  0  0  0  0  0  0
   -7.4160   19.2190  -32.4760 N   0  0  0  0  0  0  0  0  0  0  0  0
   -8.3760   18.1730  -32.3480 C   0  0  0  0  0  0  0  0  0  0  0  0
   -7.6060   20.4990  -32.0870 C   0  0  0  0  0  0  0  0  0  0  0  0
   -8.8330   20.8630  -31.5600 C   0  0  0  0  0  0  0  0  0  0  0  0
   -9.1060   22.1800  -31.1760 C   0  0  0  0  0  0  0  0  0  0  0  0
   -8.1190   23.1230  -31.3350 C   0  0  0  0  0  0  0  0  0  0  0  0
   -6.8840   22.7760  -31.8600 C   0  0  0  0  0  0  0  0  0  0  0  0
   -5.9550   23.7580  -32.0000 O   0  0  0  0  0  0  0  0  0  0  0  0
   -5.7350   24.8880  -31.2300 C   0  0  0  0  0  0  0  0  0  0  0  0
   -5.9000   24.7360  -29.7570 C   0  0  0  0  0  0  0  0  0  0  0  0
   -6.6070   21.4570  -32.2410 C   0  0  0  0  0  0  0  0  0  0  0  0
   -2.3191   24.2953  -28.3855 H   0  0  0  0  0  0  0  0  0  0  0  0
   -1.7437   23.5384  -29.9095 H   0  0  0  0  0  0  0  0  0  0  0  0
   -3.2396   24.5328  -29.9095 H   0  0  0  0  0  0  0  0  0  0  0  0
   -2.8086   21.8732  -28.5077 H   0  0  0  0  0  0  0  0  0  0  0  0
   -4.2940   22.9002  -28.3984 H   0  0  0  0  0  0  0  0  0  0  0  0
   -4.5310   22.6650  -30.8100 H   0  0  0  0  0  0  0  0  0  0  0  0
   -1.8985   21.6456  -30.5865 H   0  0  0  0  0  0  0  0  0  0  0  0
   -2.9561   20.2849  -30.9950 H   0  0  0  0  0  0  0  0  0  0  0  0
   -2.5200   22.9067  -32.4130 H   0  0  0  0  0  0  0  0  0  0  0  0
   -2.5343   21.1500  -33.0336 H   0  0  0  0  0  0  0  0  0  0  0  0
   -4.5590   22.9460  -33.5160 H   0  0  0  0  0  0  0  0  0  0  0  0
   -3.2227   20.1584  -33.8986 H   0  0  0  0  0  0  0  0  0  0  0  0
   -2.8469   17.8261  -34.6423 H   0  0  0  0  0  0  0  0  0  0  0  0
   -4.6711   16.1484  -34.3464 H   0  0  0  0  0  0  0  0  0  0  0  0
   -6.8023   16.8621  -33.3143 H   0  0  0  0  0  0  0  0  0  0  0  0
   -8.5600   17.9726  -31.2822 H   0  0  0  0  0  0  0  0  0  0  0  0
   -9.3161   18.4769  -32.8315 H   0  0  0  0  0  0  0  0  0  0  0  0
   -7.9927   17.2623  -32.8315 H   0  0  0  0  0  0  0  0  0  0  0  0
   -9.6133   20.0970  -31.4401 H   0  0  0  0  0  0  0  0  0  0  0  0
  -10.0857   22.4539  -30.7574 H   0  0  0  0  0  0  0  0  0  0  0  0
   -8.3114   24.1657  -31.0421 H   0  0  0  0  0  0  0  0  0  0  0  0
   -4.7043   25.2235  -31.4172 H   0  0  0  0  0  0  0  0  0  0  0  0
   -6.5132   25.6026  -31.5361 H   0  0  0  0  0  0  0  0  0  0  0  0
   -5.1865   25.3933  -29.2384 H   0  0  0  0  0  0  0  0  0  0  0  0
   -6.9262   25.0118  -29.4726 H   0  0  0  0  0  0  0  0  0  0  0  0
   -5.7091   23.6907  -29.4726 H   0  0  0  0  0  0  0  0  0  0  0  0
  1  2  1  0
  2  3  1  0
  3  4  1  0
  4  5  1  0
  5  6  1  0
  6  7  1  0
  7  8  2  0
  8  9  1  0
  9 10  2  0
 10 11  1  0
 11 12  2  0
 12 13  1  0
 13 14  2  0
 14 15  1  0
 14 16  1  0
 16 17  2  0
 17 18  1  0
 18 19  2  0
 19 20  1  0
 20 21  1  0
 21 22  1  0
 22 23  1  0
 20 24  2  0
 24  7  1  0
 13  8  1  0
 24 16  1  0
  1 25  1  0
  1 26  1  0
  1 27  1  0
  2 28  1  0
  2 29  1  0
  3 30  1  0
  4 31  1  0
  4 32  1  0
  5 33  1  0
  5 34  1  0
  6 35  1  0
  9 36  1  0
 10 37  1  0
 11 38  1  0
 12 39  1  0
 15 40  1  0
 15 41  1  0
 15 42  1  0
 17 43  1  0
 18 44  1  0
 19 45  1  0
 22 46  1  0
 22 47  1  0
 23 48  1  0
 23 49  1  0
 23 50  1  0
M  CHG  1  14   1
M  END
>  <smiles>  (2) 
CCNCCNc1c2ccccc2[n+](C)c2cccc(OCC)c12

>  <score_type>  (2) 
oracle

>  <origin>  (2) 
adg

>  <m_score__min__energy>  (2) 
-8.3300000000000001

>  <m_primary>  (2) 
energy

$$$$
2:0
     RDKit          3D

 54 57  0  0  1  0  0  0  0  0999 V2000
    0.4010   18.0670  -30.2350 C   0  0  0  0  0  0  0  0  0  0  0  0
   -0.4280   19.2650  -30.2750 N   0  0  0  0  0  0  0  0  0  0  0  0
   -0.9260   19.7290  -29.1020 C   0  0  0  0  0  0  0  0  0  0  0  0
   -1.7040   20.8690  -29.1950 C   0  0  0  0  0  0  0  0  0  0  0  0
   -1.9680   21.5040  -30.3850 C   0  0  0  0  0  0  0  0  0  0  0  0
   -2.6380   22.5500  -30.3910 N   0  0  0  0  0  0  0  0  0  0  0  0
   -2.5290   23.7840  -29.7580 C   0  0  0  0  0  0  0  0  0  0  0  0
   -3.7900   24.5430  -29.4300 C   0  0  0  0  0  0  0  0  0  0  0  0
   -4.1950   25.4200  -30.5000 N   0  0  0  0  0  0  0  0  0  0  0  0
   -5.6660   25.5690  -30.4530 C   0  0  0  0  0  0  0  0  0  0  0  0
   -6.3150   24.4330  -31.1670 C   0  0  0  0  0  0  0  0  0  0  0  0
   -5.3980   23.3680  -31.4470 N   0  0  0  0  0  0  0  0  0  0  0  0
   -5.7410   22.0890  -31.9340 C   0  0  0  0  0  0  0  0  0  0  0  0
   -7.0190   21.6950  -32.2620 C   0  0  0  0  0  0  0  0  0  0  0  0
   -7.3260   20.4380  -32.7510 C   0  0  0  0  0  0  0  0  0  0  0  0
   -8.4920   20.1250  -33.0340 O   0  0  0  0  0  0  0  0  0  0  0  0
   -6.3150   19.5040  -32.9300 C   0  0  0  0  0  0  0  0  0  0  0  0
   -6.5550   18.2330  -33.4140 C   0  0  0  0  0  0  0  0  0  0  0  0
   -5.5090   17.3370  -33.5740 C   0  0  0  0  0  0  0  0  0  0  0  0
   -4.2320   17.7390  -33.2440 C   0  0  0  0  0  0  0  0  0  0  0  0
   -3.9880   19.0160  -32.7560 C   0  0  0  0  0  0  0  0  0  0  0  0
   -5.0420   19.9220  -32.5940 C   0  0  0  0  0  0  0  0  0  0  0  0
   -4.7700   21.1500  -32.1210 N   0  0  0  0  0  0  0  0  0  0  0  0
   -1.4560   21.0170  -31.5630 C   0  0  0  0  0  0  0  0  0  0  0  0
   -1.7290   21.6440  -32.7370 C   0  0  0  0  0  0  0  0  0  0  0  0
   -1.1660   21.0770  -33.9030 C   0  0  0  0  0  0  0  0  0  0  0  0
   -0.4030   19.9590  -33.7600 C   0  0  0  0  0  0  0  0  0  0  0  0
   -0.1390   19.3360  -32.5750 C   0  0  0  0  0  0  0  0  0  0  0  0
   -0.6800   19.8770  -31.4420 C   0  0  0  0  0  0  0  0  0  0  0  0
    0.5934   17.7890  -29.1882 H   0  0  0  0  0  0  0  0  0  0  0  0
   -0.1209   17.2428  -30.7433 H   0  0  0  0  0  0  0  0  0  0  0  0
    1.3562   18.2650  -30.7433 H   0  0  0  0  0  0  0  0  0  0  0  0
   -0.7248   19.2323  -28.1414 H   0  0  0  0  0  0  0  0  0  0  0  0
   -2.1320   21.2875  -28.2721 H   0  0  0  0  0  0  0  0  0  0  0  0
   -1.9964   23.6159  -28.8103 H   0  0  0  0  0  0  0  0  0  0  0  0
   -2.0192   24.4194  -30.4971 H   0  0  0  0  0  0  0  0  0  0  0  0
   -4.5978   23.8212  -29.2394 H   0  0  0  0  0  0  0  0  0  0  0  0
   -3.5884   25.1636  -28.5445 H   0  0  0  0  0  0  0  0  0  0  0  0
   -3.8640   26.4170  -30.3880 H   0  0  0  0  0  0  0  0  0  0  0  0
   -5.9982   25.5780  -29.4044 H   0  0  0  0  0  0  0  0  0  0  0  0
   -5.9498   26.5128  -30.9416 H   0  0  0  0  0  0  0  0  0  0  0  0
   -7.1302   24.0417  -30.5407 H   0  0  0  0  0  0  0  0  0  0  0  0
   -6.6917   24.8125  -32.1283 H   0  0  0  0  0  0  0  0  0  0  0  0
   -4.3740   23.5640  -31.2690 H   0  0  0  0  0  0  0  0  0  0  0  0
   -7.8380   22.4171  -32.1283 H   0  0  0  0  0  0  0  0  0  0  0  0
   -7.5802   17.9303  -33.6736 H   0  0  0  0  0  0  0  0  0  0  0  0
   -5.6947   16.3229  -33.9576 H   0  0  0  0  0  0  0  0  0  0  0  0
   -3.3939   17.0376  -33.3692 H   0  0  0  0  0  0  0  0  0  0  0  0
   -2.9623   19.3164  -32.4958 H   0  0  0  0  0  0  0  0  0  0  0  0
   -3.7800   21.3820  -31.8910 H   0  0  0  0  0  0  0  0  0  0  0  0
   -2.3561   22.5468  -32.7780 H   0  0  0  0  0  0  0  0  0  0  0  0
   -1.3388   21.5244  -34.8929 H   0  0  0  0  0  0  0  0  0  0  0  0
    0.0349   19.5238  -34.6704 H   0  0  0  0  0  0  0  0  0  0  0  0
    0.4861   18.4318  -32.5329 H   0  0  0  0  0  0  0  0  0  0  0  0
  1  2  1  0
  2  3  1  0
  3  4  2  0
  4  5  1  0
  5  6  2  0
  6  7  1  0
  7  8  1  0
  8  9  1  0
  9 10  1  0
 10 11  1  0
 11 12  1  0
 12 13  1  0
 13 14  2  0
 14 15  1  0
 15 16  2  0
 15 17  1  0
 17 18  2  0
 18 19  1  0
 19 20  2  0
 20 21  1  0
 21 22  2  0
 22 23  1  0
  5 24  1  0
 24 25  2  0
 25 26  1  0
 26 27  2  0
 27 28  1  0
 28 29  2  0
 29  2  1  0
 23 13  1  0
 29 24  1  0
 22 17  1  0
  1 30  1  0
  1 31  1  0
  1 32  1  0
  3 33  1  0
  4 34  1  0
  7 35  1  0
  7 36  1  0
  8 37  1  0
  8 38  1  0
  9 39  1  0
 10 40  1  0
 10 41  1  0
 11 42  1  0
 11 43  1  0
 12 44  1  0
 14 45  1  0
 18 46  1  0
 19 47  1  0
 20 48  1  0
 21 49  1  0
 23 50  1  0
 25 51  1  0
 26 52  1  0
 27 53  1  0
 28 54  1  0
M  END
>  <smiles>  (3) 
Cn1ccc(=NCCNCCNc2cc(=O)c3ccccc3[nH]2)c2ccccc21

>  <score_type>  (3) 
oracle

>  <origin>  (3) 
adg

>  <m_score__min__energy>  (3) 
-10.630000000000001

>  <m_primary>  (3) 
energy

$$$$
3:0
     RDKit          3D

 48 49  0  0  0  0  0  0  0  0999 V2000
   -9.5540   20.8890  -31.9750 C   0  0  0  0  0  0  0  0  0  0  0  0
   -8.1180   21.1730  -32.3340 C   0  0  0  0  0  0  0  0  0  0  0  0
   -7.6990   22.5050  -31.9330 N   0  0  0  0  0  0  0  0  0  0  0  0
   -8.7420   23.4240  -32.2690 C   0  0  0  0  0  0  0  0  0  0  0  0
   -7.3880   22.4360  -30.5220 C   0  0  0  0  0  0  0  0  0  0  0  0
   -6.8990   23.7460  -29.9680 C   0  0  0  0  0  0  0  0  0  0  0  0
   -5.6440   24.5380  -30.9720 S   0  0  0  0  0  0  0  0  0  0  0  0
   -4.1440   23.5510  -30.8000 C   0  0  0  0  0  0  0  0  0  0  0  0
   -3.2690   23.9590  -29.8030 C   0  0  0  0  0  0  0  0  0  0  0  0
   -2.1050   23.2760  -29.5940 C   0  0  0  0  0  0  0  0  0  0  0  0
   -1.8350   22.1850  -30.3940 C   0  0  0  0  0  0  0  0  0  0  0  0
   -0.5590   21.4640  -30.1360 C   0  0  0  0  0  0  0  0  0  0  0  0
   -2.7150   21.7740  -31.3960 C   0  0  0  0  0  0  0  0  0  0  0  0
   -3.8950   22.4630  -31.6100 C   0  0  0  0  0  0  0  0  0  0  0  0
   -4.8320   22.0820  -32.6250 N   0  0  0  0  0  0  0  0  0  0  0  0
   -4.4920   20.9230  -33.4240 C   0  0  0  0  0  0  0  0  0  0  0  0
   -5.2700   19.7220  -33.1100 C   0  0  0  0  0  0  0  0  0  0  0  0
   -5.7510   18.9430  -34.1520 C   0  0  0  0  0  0  0  0  0  0  0  0
   -6.4850   17.8050  -33.8250 C   0  0  0  0  0  0  0  0  0  0  0  0
   -6.7370   17.4480  -32.5130 C   0  0  0  0  0  0  0  0  0  0  0  0
   -6.2500   18.2370  -31.4840 C   0  0  0  0  0  0  0  0  0  0  0  0
   -5.5180   19.3730  -31.7840 C   0  0  0  0  0  0  0  0  0  0  0  0
   -9.6610   20.8678  -30.8804 H   0  0  0  0  0  0  0  0  0  0  0  0
  -10.1988   21.6770  -32.3913 H   0  0  0  0  0  0  0  0  0  0  0  0
   -9.8503   19.9149  -32.3913 H   0  0  0  0  0  0  0  0  0  0  0  0
   -7.4758   20.4346  -31.8316 H   0  0  0  0  0  0  0  0  0  0  0  0
   -8.0272   21.1085  -33.4284 H   0  0  0  0  0  0  0  0  0  0  0  0
   -9.1922   23.8207  -31.3471 H   0  0  0  0  0  0  0  0  0  0  0  0
   -8.3242   24.2530  -32.8592 H   0  0  0  0  0  0  0  0  0  0  0  0
   -9.5118   22.9052  -32.8592 H   0  0  0  0  0  0  0  0  0  0  0  0
   -8.2961   22.1406  -29.9760 H   0  0  0  0  0  0  0  0  0  0  0  0
   -6.5792   21.7010  -30.3968 H   0  0  0  0  0  0  0  0  0  0  0  0
   -7.7575   24.4287  -29.8851 H   0  0  0  0  0  0  0  0  0  0  0  0
   -6.4366   23.5273  -28.9942 H   0  0  0  0  0  0  0  0  0  0  0  0
   -3.5131   24.8328  -29.1809 H   0  0  0  0  0  0  0  0  0  0  0  0
   -1.4011   23.5877  -28.8083 H   0  0  0  0  0  0  0  0  0  0  0  0
   -0.4011   21.3748  -29.0510 H   0  0  0  0  0  0  0  0  0  0  0  0
   -0.6082   20.4602  -30.5831 H   0  0  0  0  0  0  0  0  0  0  0  0
    0.2755   22.0241  -30.5831 H   0  0  0  0  0  0  0  0  0  0  0  0
   -2.4696   20.8999  -32.0171 H   0  0  0  0  0  0  0  0  0  0  0  0
   -5.6870   22.6300  -32.7460 H   0  0  0  0  0  0  0  0  0  0  0  0
   -4.6583   21.1738  -34.4820 H   0  0  0  0  0  0  0  0  0  0  0  0
   -3.4419   20.6843  -33.1998 H   0  0  0  0  0  0  0  0  0  0  0  0
   -5.5594   19.2145  -35.2006 H   0  0  0  0  0  0  0  0  0  0  0  0
   -6.8759   17.1714  -34.6348 H   0  0  0  0  0  0  0  0  0  0  0  0
   -7.3205   16.5431  -32.2880 H   0  0  0  0  0  0  0  0  0  0  0  0
   -6.4434   17.9630  -30.4364 H   0  0  0  0  0  0  0  0  0  0  0  0
   -5.1298   20.0039  -30.9708 H   0  0  0  0  0  0  0  0  0  0  0  0
  1  2  1  0
  2  3  1  0
  3  4  1  0
  3  5  1  0
  5  6  1  0
  6  7  1  0
  7  8  1  0
  8  9  2  0
  9 10  1  0
 10 11  2  0
 11 12  1  0
 11 13  1  0
 13 14  2  0
 14 15  1  0
 15 16  1  0
 16 17  1  0
 17 18  2  0
 18 19  1  0
 19 20  2  0
 20 21  1  0
 21 22  2  0
 14  8  1  0
 22 17  1  0
  1 23  1  0
  1 24  1  0
  1 25  1  0
  2 26  1  0
  2 27  1  0
  4 28  1  0
  4 29  1  0
  4 30  1  0
  5 31  1  0
  5 32  1  0
  6 33  1  0
  6 34  1  0
  9 35  1  0
 10 36  1  0
 12 37  1  0
 12 38  1  0
 12 39  1  0
 13 40  1  0
 15 41  1  0
 16 42  1  0
 16 43  1  0
 18 44  1  0
 19 45  1  0
 20 46  1  0
 21 47  1  0
 22 48  1  0
M  END
>  <smiles>  (4) 
CCN(C)CCSc1ccc(C)cc1NCc1ccccc1

>  <score_type>  (4) 
oracle

>  <origin>  (4) 
adg

>  <m_score__min__energy>  (4) 
-7.8099999999999996

>  <m_primary>  (4) 
energy

$$$$
4:0
     RDKit          3D

 68 71  0  0  0  0  0  0  0  0999 V2000
   -9.3010   21.5370  -30.9620 C   0  0  0  0  0  0  0  0  0  0  0  0
   -9.8350   20.9690  -32.2870 C   0  0  0  0  0  0  0  0  0  0  0  0
   -9.1430   19.7750  -32.6470 N   0  0  0  0  0  0  0  0  0  0  0  0
   -8.9290   18.8390  -31.5870 C   0  0  0  0  0  0  0  0  0  0  0  0
   -7.7120   17.9700  -31.8150 C   0  0  0  0  0  0  0  0  0  0  0  0
   -7.2770   18.2080  -33.2020 N   0  0  0  0  0  0  0  0  0  0  0  0
   -5.9190   17.9340  -33.4640 C   0  0  0  0  0  0  0  0  0  0  0  0
   -5.6680   16.6040  -33.8490 C   0  0  0  0  0  0  0  0  0  0  0  0
   -6.7150   15.6740  -33.8570 C   0  0  0  0  0  0  0  0  0  0  0  0
   -6.5330   14.3600  -34.2200 C   0  0  0  0  0  0  0  0  0  0  0  0
   -5.2680   13.9760  -34.5820 C   0  0  0  0  0  0  0  0  0  0  0  0
   -4.2280   14.8980  -34.5740 C   0  0  0  0  0  0  0  0  0  0  0  0
   -4.4040   16.2140  -34.2120 C   0  0  0  0  0  0  0  0  0  0  0  0
   -3.3630   17.0640  -34.2190 N   0  0  0  0  0  0  0  0  0  0  0  0
   -2.0230   16.7080  -34.5980 C   0  0  0  0  0  0  0  0  0  0  0  0
   -3.6000   18.3390  -33.8470 C   0  0  0  0  0  0  0  0  0  0  0  0
   -2.5220   19.2280  -33.8700 C   0  0  0  0  0  0  0  0  0  0  0  0
   -2.6590   20.5570  -33.5210 C   0  0  0  0  0  0  0  0  0  0  0  0
   -1.5180   21.3910  -33.5940 N   0  0  0  0  0  0  0  0  0  0  0  0
   -0.3720   21.1800  -32.6880 C   0  0  0  0  0  0  0  0  0  0  0  0
    0.7610   20.5430  -33.4390 C   0  0  0  0  0  0  0  0  0  0  0  0
    1.5120   21.5220  -34.2820 C   0  0  0  0  0  0  0  0  0  0  0  0
    0.5960   22.2630  -35.1510 N   0  0  0  0  0  0  0  0  0  0  0  0
    1.2790   23.4070  -35.7260 C   0  0  0  0  0  0  0  0  0  0  0  0
    0.1610   21.3750  -36.2160 C   0  0  0  0  0  0  0  0  0  0  0  0
   -3.9180   20.9650  -33.1420 C   0  0  0  0  0  0  0  0  0  0  0  0
   -4.0500   22.2900  -32.7620 C   0  0  0  0  0  0  0  0  0  0  0  0
   -5.2650   22.7750  -32.3440 C   0  0  0  0  0  0  0  0  0  0  0  0
   -6.3540   21.9640  -32.2950 C   0  0  0  0  0  0  0  0  0  0  0  0
   -6.1940   20.6250  -32.6850 C   0  0  0  0  0  0  0  0  0  0  0  0
   -5.0050   20.1070  -33.1100 C   0  0  0  0  0  0  0  0  0  0  0  0
   -4.8690   18.7880  -33.4650 C   0  0  0  0  0  0  0  0  0  0  0  0
   -9.7859   21.0212  -30.1201 H   0  0  0  0  0  0  0  0  0  0  0  0
   -8.2131   21.3829  -30.9089 H   0  0  0  0  0  0  0  0  0  0  0  0
   -9.5219   22.6133  -30.9089 H   0  0  0  0  0  0  0  0  0  0  0  0
  -10.9062   20.7445  -32.1765 H   0  0  0  0  0  0  0  0  0  0  0  0
   -9.6777   21.7173  -33.0778 H   0  0  0  0  0  0  0  0  0  0  0  0
   -9.4510   19.3600  -33.5410 H   0  0  0  0  0  0  0  0  0  0  0  0
   -8.7937   19.3953  -30.6478 H   0  0  0  0  0  0  0  0  0  0  0  0
   -9.8071   18.1779  -31.5441 H   0  0  0  0  0  0  0  0  0  0  0  0
   -6.9113   18.2471  -31.1135 H   0  0  0  0  0  0  0  0  0  0  0  0
   -7.9471   16.9081  -31.6503 H   0  0  0  0  0  0  0  0  0  0  0  0
   -7.9490   18.6060  -33.9280 H   0  0  0  0  0  0  0  0  0  0  0  0
   -7.7210   16.0070  -33.5618 H   0  0  0  0  0  0  0  0  0  0  0  0
   -7.3694   13.6456  -34.2198 H   0  0  0  0  0  0  0  0  0  0  0  0
   -5.0753   12.9348  -34.8798 H   0  0  0  0  0  0  0  0  0  0  0  0
   -3.2230   14.5620  -34.8691 H   0  0  0  0  0  0  0  0  0  0  0  0
   -1.4169   16.5470  -33.6943 H   0  0  0  0  0  0  0  0  0  0  0  0
   -2.0439   15.7843  -35.1949 H   0  0  0  0  0  0  0  0  0  0  0  0
   -1.5827   17.5203  -35.1949 H   0  0  0  0  0  0  0  0  0  0  0  0
   -1.5326   18.8572  -34.1759 H   0  0  0  0  0  0  0  0  0  0  0  0
   -1.3990   22.1840  -34.2570 H   0  0  0  0  0  0  0  0  0  0  0  0
   -0.0430   22.1488  -32.2839 H   0  0  0  0  0  0  0  0  0  0  0  0
   -0.6781   20.5187  -31.8640 H   0  0  0  0  0  0  0  0  0  0  0  0
    1.4568   20.0952  -32.7142 H   0  0  0  0  0  0  0  0  0  0  0  0
    0.3319   19.7845  -34.1103 H   0  0  0  0  0  0  0  0  0  0  0  0
    2.0422   22.2300  -33.6282 H   0  0  0  0  0  0  0  0  0  0  0  0
    2.2295   20.9727  -34.9093 H   0  0  0  0  0  0  0  0  0  0  0  0
    1.6622   24.0489  -34.9191 H   0  0  0  0  0  0  0  0  0  0  0  0
    2.1174   23.0592  -36.3474 H   0  0  0  0  0  0  0  0  0  0  0  0
    0.5751   23.9800  -36.3474 H   0  0  0  0  0  0  0  0  0  0  0  0
   -0.2831   20.4684  -35.7791 H   0  0  0  0  0  0  0  0  0  0  0  0
   -0.5882   21.8873  -36.8375 H   0  0  0  0  0  0  0  0  0  0  0  0
    1.0250   21.0971  -36.8375 H   0  0  0  0  0  0  0  0  0  0  0  0
   -3.1767   22.9580  -32.7951 H   0  0  0  0  0  0  0  0  0  0  0  0
   -5.3573   23.8299  -32.0461 H   0  0  0  0  0  0  0  0  0  0  0  0
   -7.3303   22.3446  -31.9603 H   0  0  0  0  0  0  0  0  0  0  0  0
   -7.0699   19.9607  -32.6462 H   0  0  0  0  0  0  0  0  0  0  0  0
  1  2  1  0
  2  3  1  0
  3  4  1  0
  4  5  1  0
  5  6  1  0
  6  7  1  0
  7  8  2  0
  8  9  1  0
  9 10  2  0
 10 11  1  0
 11 12  2  0
 12 13  1  0
 13 14  2  0
 14 15  1  0
 14 16  1  0
 16 17  2  0
 17 18  1  0
 18 19  1  0
 19 20  1  0
 20 21  1  0
 21 22  1  0
 22 23  1  0
 23 24  1  0
 23 25  1  0
 18 26  2  0
 26 27  1  0
 27 28  2  0
 28 29  1  0
 29 30  2  0
 30 31  1  0
 31 32  2  0
 32  7  1  0
 13  8  1  0
 32 16  1  0
 31 26  1  0
  1 33  1  0
  1 34  1  0
  1 35  1  0
  2 36  1  0
  2 37  1  0
  3 38  1  0
  4 39  1  0
  4 40  1  0
  5 41  1  0
  5 42  1  0
  6 43  1  0
  9 44  1  0
 10 45  1  0
 11 46  1  0
 12 47  1  0
 15 48  1  0
 15 49  1  0
 15 50  1  0
 17 51  1  0
 19 52  1  0
 20 53  1  0
 20 54  1  0
 21 55  1  0
 21 56  1  0
 22 57  1  0
 22 58  1  0
 24 59  1  0
 24 60  1  0
 24 61  1  0
 25 62  1  0
 25 63  1  0
 25 64  1  0
 27 65  1  0
 28 66  1  0
 29 67  1  0
 30 68  1  0
M  CHG  1  14   1
M  END
>  <smiles>  (5) 
CCNCCNc1c2ccccc2[n+](C)c2cc(NCCCN(C)C)c3ccccc3c12

>  <score_type>  (5) 
oracle

>  <origin>  (5) 
adg

>  <m_score__min__energy>  (5) 
-9.3599999999999994

>  <m_primary>  (5) 
energy

$$$$
7:0
     RDKit          3D

 49 51  0  0  0  0  0  0  0  0999 V2000
   -0.5410   21.5170  -30.8640 C   0  0  0  0  0  0  0  0  0  0  0  0
   -0.7420   20.4470  -31.8840 C   0  0  0  0  0  0  0  0  0  0  0  0
   -1.9110   20.6550  -32.7340 N   0  0  0  0  0  0  0  0  0  0  0  0
   -2.8220   21.5830  -32.1450 C   0  0  0  0  0  0  0  0  0  0  0  0
   -3.8500   22.0470  -33.1290 C   0  0  0  0  0  0  0  0  0  0  0  0
   -5.1420   21.4530  -32.7440 N   0  0  0  0  0  0  0  0  0  0  0  0
   -6.1400   22.2530  -32.2540 C   0  0  0  0  0  0  0  0  0  0  0  0
   -5.7480   23.9900  -32.1410 S   0  0  0  0  0  0  0  0  0  0  0  0
   -6.3950   24.6090  -30.5630 C   0  0  0  0  0  0  0  0  0  0  0  0
   -5.3680   25.6620  -30.1010 C   0  0  0  0  0  0  0  0  0  0  0  0
   -4.1160   25.0980  -30.4500 O   0  0  0  0  0  0  0  0  0  0  0  0
   -3.4460   24.2420  -29.6060 C   0  0  0  0  0  0  0  0  0  0  0  0
   -4.0310   22.9860  -29.4030 C   0  0  0  0  0  0  0  0  0  0  0  0
   -3.4220   22.0500  -28.5610 C   0  0  0  0  0  0  0  0  0  0  0  0
   -2.2350   22.3640  -27.9230 C   0  0  0  0  0  0  0  0  0  0  0  0
   -1.6430   23.6130  -28.1160 C   0  0  0  0  0  0  0  0  0  0  0  0
   -2.2630   24.5380  -28.9630 C   0  0  0  0  0  0  0  0  0  0  0  0
   -7.3330   21.7450  -31.8850 N   0  0  0  0  0  0  0  0  0  0  0  0
   -7.5550   20.4040  -32.0010 C   0  0  0  0  0  0  0  0  0  0  0  0
   -8.7540   19.8320  -31.6410 C   0  0  0  0  0  0  0  0  0  0  0  0
   -8.9540   18.4590  -31.7720 C   0  0  0  0  0  0  0  0  0  0  0  0
   -7.9480   17.6330  -32.2690 C   0  0  0  0  0  0  0  0  0  0  0  0
   -6.7760   18.2230  -32.6160 C   0  0  0  0  0  0  0  0  0  0  0  0
   -6.5660   19.5750  -32.4920 C   0  0  0  0  0  0  0  0  0  0  0  0
   -5.3400   20.1220  -32.8670 C   0  0  0  0  0  0  0  0  0  0  0  0
   -4.4830   19.3350  -33.2990 O   0  0  0  0  0  0  0  0  0  0  0  0
   -0.6225   21.0831  -29.8565 H   0  0  0  0  0  0  0  0  0  0  0  0
    0.4566   21.9626  -30.9917 H   0  0  0  0  0  0  0  0  0  0  0  0
   -1.3089   22.2942  -30.9917 H   0  0  0  0  0  0  0  0  0  0  0  0
    0.1506   20.4074  -32.5256 H   0  0  0  0  0  0  0  0  0  0  0  0
   -0.9080   19.5083  -31.3351 H   0  0  0  0  0  0  0  0  0  0  0  0
   -2.3970   19.7350  -32.9070 H   0  0  0  0  0  0  0  0  0  0  0  0
   -3.3310   21.0961  -31.3001 H   0  0  0  0  0  0  0  0  0  0  0  0
   -2.2495   22.4593  -31.8070 H   0  0  0  0  0  0  0  0  0  0  0  0
   -3.9211   23.1445  -33.1064 H   0  0  0  0  0  0  0  0  0  0  0  0
   -3.5735   21.7384  -34.1480 H   0  0  0  0  0  0  0  0  0  0  0  0
   -7.3844   25.0686  -30.7036 H   0  0  0  0  0  0  0  0  0  0  0  0
   -6.5255   23.8047  -29.8240 H   0  0  0  0  0  0  0  0  0  0  0  0
   -5.5256   26.6171  -30.6235 H   0  0  0  0  0  0  0  0  0  0  0  0
   -5.4461   25.8859  -29.0269 H   0  0  0  0  0  0  0  0  0  0  0  0
   -4.9749   22.7342  -29.9087 H   0  0  0  0  0  0  0  0  0  0  0  0
   -3.8863   21.0649  -28.4061 H   0  0  0  0  0  0  0  0  0  0  0  0
   -1.7564   21.6268  -27.2616 H   0  0  0  0  0  0  0  0  0  0  0  0
   -0.7007   23.8670  -27.6085 H   0  0  0  0  0  0  0  0  0  0  0  0
   -1.7968   25.5220  -29.1191 H   0  0  0  0  0  0  0  0  0  0  0  0
   -9.5624   20.4648  -31.2460 H   0  0  0  0  0  0  0  0  0  0  0  0
   -9.9197   18.0213  -31.4789 H   0  0  0  0  0  0  0  0  0  0  0  0
   -8.0974   16.5484  -32.3756 H   0  0  0  0  0  0  0  0  0  0  0  0
   -5.9639   17.5952  -33.0113 H   0  0  0  0  0  0  0  0  0  0  0  0
  1  2  1  0
  2  3  1  0
  3  4  1  0
  4  5  1  0
  5  6  1  0
  6  7  1  0
  7  8  1  0
  8  9  1  0
  9 10  1  0
 10 11  1  0
 11 12  1  0
 12 13  2  0
 13 14  1  0
 14 15  2  0
 15 16  1  0
 16 17  2  0
  7 18  2  0
 18 19  1  0
 19 20  2  0
 20 21  1  0
 21 22  2  0
 22 23  1  0
 23 24  2  0
 24 25  1  0
 25 26  2  0
 25  6  1  0
 17 12  1  0
 24 19  1  0
  1 27  1  0
  1 28  1  0
  1 29  1  0
  2 30  1  0
  2 31  1  0
  3 32  1  0
  4 33  1  0
  4 34  1  0
  5 35  1  0
  5 36  1  0
  9 37  1  0
  9 38  1  0
 10 39  1  0
 10 40  1  0
 13 41  1  0
 14 42  1  0
 15 43  1  0
 16 44  1  0
 17 45  1  0
 20 46  1  0
 21 47  1  0
 22 48  1  0
 23 49  1  0
M  END
>  <smiles>  (6) 
CCNCCn1c(SCCOc2ccccc2)nc2ccccc2c1=O

>  <score_type>  (6) 
oracle

>  <origin>  (6) 
adg

>  <m_score__min__energy>  (6) 
-8.7100000000000009

>  <m_primary>  (6) 
energy

$$$$
8:0
     RDKit          3D

 54 55  0  0  0  0  0  0  0  0999 V2000
    0.2510   21.5350  -34.9700 C   0  0  0  0  0  0  0  0  0  0  0  0
   -0.8450   20.5930  -34.5890 C   0  0  0  0  0  0  0  0  0  0  0  0
   -0.9130   20.3120  -33.2070 N   0  0  0  0  0  0  0  0  0  0  0  0
   -0.1490   21.0660  -32.3060 C   0  0  0  0  0  0  0  0  0  0  0  0
   -0.4140   20.7900  -30.8480 C   0  0  0  0  0  0  0  0  0  0  0  0
   -1.3330   19.0120  -32.8490 C   0  0  0  0  0  0  0  0  0  0  0  0
   -1.9390   18.2150  -33.9840 C   0  0  0  0  0  0  0  0  0  0  0  0
   -3.0900   17.5970  -33.5600 O   0  0  0  0  0  0  0  0  0  0  0  0
   -3.7740   16.8950  -34.5150 C   0  0  0  0  0  0  0  0  0  0  0  0
   -5.2490   17.0990  -34.3810 C   0  0  0  0  0  0  0  0  0  0  0  0
   -5.5640   17.2810  -32.9960 O   0  0  0  0  0  0  0  0  0  0  0  0
   -6.4380   18.2750  -32.6570 C   0  0  0  0  0  0  0  0  0  0  0  0
   -7.7410   17.9620  -32.3470 C   0  0  0  0  0  0  0  0  0  0  0  0
   -8.6640   18.9190  -31.9990 C   0  0  0  0  0  0  0  0  0  0  0  0
   -8.2390   20.2250  -31.9700 C   0  0  0  0  0  0  0  0  0  0  0  0
   -9.5140   21.5570  -31.4840 Br  0  0  0  0  0  0  0  0  0  0  0  0
   -6.9300   20.5360  -32.2820 C   0  0  0  0  0  0  0  0  0  0  0  0
   -5.9800   19.6110  -32.6320 C   0  0  0  0  0  0  0  0  0  0  0  0
   -4.6460   19.8730  -32.9690 N   0  0  0  0  0  0  0  0  0  0  0  0
   -4.0220   21.0960  -33.3500 C   0  0  0  0  0  0  0  0  0  0  0  0
   -4.2350   22.1830  -32.4000 C   0  0  0  0  0  0  0  0  0  0  0  0
   -3.2360   22.4160  -31.4450 C   0  0  0  0  0  0  0  0  0  0  0  0
   -3.3380   23.4500  -30.5300 C   0  0  0  0  0  0  0  0  0  0  0  0
   -4.4160   24.2730  -30.5330 N   0  0  0  0  0  0  0  0  0  0  0  0
   -5.3740   24.0720  -31.4290 C   0  0  0  0  0  0  0  0  0  0  0  0
   -5.2990   23.0470  -32.3540 C   0  0  0  0  0  0  0  0  0  0  0  0
    0.7204   21.9384  -34.0606 H   0  0  0  0  0  0  0  0  0  0  0  0
    1.0051   20.9988  -35.5649 H   0  0  0  0  0  0  0  0  0  0  0  0
   -0.1658   22.3611  -35.5649 H   0  0  0  0  0  0  0  0  0  0  0  0
   -1.8033   21.0356  -34.8985 H   0  0  0  0  0  0  0  0  0  0  0  0
   -0.6323   19.6397  -35.0950 H   0  0  0  0  0  0  0  0  0  0  0  0
    0.9129   20.8578  -32.5037 H   0  0  0  0  0  0  0  0  0  0  0  0
   -0.4309   22.1161  -32.4728 H   0  0  0  0  0  0  0  0  0  0  0  0
    0.2163   21.4465  -30.2301 H   0  0  0  0  0  0  0  0  0  0  0  0
   -1.4737   20.9831  -30.6250 H   0  0  0  0  0  0  0  0  0  0  0  0
   -0.1780   19.7390  -30.6250 H   0  0  0  0  0  0  0  0  0  0  0  0
   -0.4599   18.4608  -32.4696 H   0  0  0  0  0  0  0  0  0  0  0  0
   -2.1242   19.1347  -32.0947 H   0  0  0  0  0  0  0  0  0  0  0  0
   -2.1746   18.8911  -34.8191 H   0  0  0  0  0  0  0  0  0  0  0  0
   -1.2193   17.4517  -34.3147 H   0  0  0  0  0  0  0  0  0  0  0  0
   -3.4532   17.2364  -35.5103 H   0  0  0  0  0  0  0  0  0  0  0  0
   -3.5564   15.8247  -34.3842 H   0  0  0  0  0  0  0  0  0  0  0  0
   -5.5525   17.9903  -34.9497 H   0  0  0  0  0  0  0  0  0  0  0  0
   -5.7855   16.2233  -34.7752 H   0  0  0  0  0  0  0  0  0  0  0  0
   -8.0555   16.9084  -32.3787 H   0  0  0  0  0  0  0  0  0  0  0  0
   -9.7019   18.6499  -31.7534 H   0  0  0  0  0  0  0  0  0  0  0  0
   -6.6302   21.5938  -32.2475 H   0  0  0  0  0  0  0  0  0  0  0  0
   -3.9880   19.0290  -32.9350 H   0  0  0  0  0  0  0  0  0  0  0  0
   -2.9398   20.9205  -33.4403 H   0  0  0  0  0  0  0  0  0  0  0  0
   -4.4772   21.4067  -34.3020 H   0  0  0  0  0  0  0  0  0  0  0  0
   -2.3512   21.7628  -31.4219 H   0  0  0  0  0  0  0  0  0  0  0  0
   -2.5364   23.6056  -29.7929 H   0  0  0  0  0  0  0  0  0  0  0  0
   -6.2498   24.7375  -31.4360 H   0  0  0  0  0  0  0  0  0  0  0  0
   -6.1191   22.9205  -33.0761 H   0  0  0  0  0  0  0  0  0  0  0  0
  1  2  1  0
  2  3  1  0
  3  4  1  0
  4  5  1  0
  3  6  1  0
  6  7  1  0
  7  8  1  0
  8  9  1  0
  9 10  1  0
 10 11  1  0
 11 12  1  0
 12 13  2  0
 13 14  1  0
 14 15  2  0
 15 16  1  0
 15 17  1  0
 17 18  2  0
 18 19  1  0
 19 20  1  0
 20 21  1  0
 21 22  2  0
 22 23  1  0
 23 24  2  0
 24 25  1  0
 25 26  2  0
 18 12  1  0
 26 21  1  0
  1 27  1  0
  1 28  1  0
  1 29  1  0
  2 30  1  0
  2 31  1  0
  4 32  1  0
  4 33  1  0
  5 34  1  0
  5 35  1  0
  5 36  1  0
  6 37  1  0
  6 38  1  0
  7 39  1  0
  7 40  1  0
  9 41  1  0
  9 42  1  0
 10 43  1  0
 10 44  1  0
 13 45  1  0
 14 46  1  0
 17 47  1  0
 19 48  1  0
 20 49  1  0
 20 50  1  0
 22 51  1  0
 23 52  1  0
 25 53  1  0
 26 54  1  0
M  END
>  <smiles>  (7) 
CCN(CC)CCOCCOc1ccc(Br)cc1NCc1ccncc1

>  <score_type>  (7) 
oracle

>  <origin>  (7) 
adg

>  <m_score__min__energy>  (7) 
-7.5

>  <m_primary>  (7) 
energy

$$$$
9:0
     RDKit          3D

 45 46  0  0  0  0  0  0  0  0999 V2000
   -9.1820   21.4840  -31.6040 C   0  0  0  0  0  0  0  0  0  0  0  0
   -8.7510   20.0530  -31.7210 C   0  0  0  0  0  0  0  0  0  0  0  0
   -8.2130   19.7250  -33.0370 N   0  0  0  0  0  0  0  0  0  0  0  0
   -6.8360   19.3730  -33.1360 C   0  0  0  0  0  0  0  0  0  0  0  0
   -5.9470   19.7290  -32.1420 C   0  0  0  0  0  0  0  0  0  0  0  0
   -4.6360   19.3960  -32.2200 N   0  0  0  0  0  0  0  0  0  0  0  0
   -4.1790   18.7110  -33.2720 N   0  0  0  0  0  0  0  0  0  0  0  0
   -2.7890   18.3280  -33.3920 C   0  0  0  0  0  0  0  0  0  0  0  0
   -2.0390   19.4150  -34.1710 C   0  0  0  0  0  0  0  0  0  0  0  0
   -2.5070   20.6580  -33.6640 N   0  0  0  0  0  0  0  0  0  0  0  0
   -1.6840   21.3380  -32.7250 C   0  0  0  0  0  0  0  0  0  0  0  0
   -2.3870   21.8930  -31.5240 C   0  0  0  0  0  0  0  0  0  0  0  0
   -3.7760   22.1170  -31.8210 N   0  0  0  0  0  0  0  0  0  0  0  0
   -4.6230   23.0570  -31.2020 C   0  0  0  0  0  0  0  0  0  0  0  0
   -4.2670   23.8510  -30.1360 C   0  0  0  0  0  0  0  0  0  0  0  0
   -5.1320   24.7530  -29.5380 C   0  0  0  0  0  0  0  0  0  0  0  0
   -6.4170   24.8800  -30.0160 C   0  0  0  0  0  0  0  0  0  0  0  0
   -7.3110   25.7550  -29.4640 F   0  0  0  0  0  0  0  0  0  0  0  0
   -6.8120   24.1050  -31.0780 C   0  0  0  0  0  0  0  0  0  0  0  0
   -5.9380   23.2180  -31.6550 C   0  0  0  0  0  0  0  0  0  0  0  0
   -6.3800   22.4650  -32.7150 F   0  0  0  0  0  0  0  0  0  0  0  0
   -5.0260   18.3390  -34.2770 C   0  0  0  0  0  0  0  0  0  0  0  0
   -4.6000   17.6910  -35.2760 O   0  0  0  0  0  0  0  0  0  0  0  0
   -6.3690   18.6610  -34.2300 C   0  0  0  0  0  0  0  0  0  0  0  0
   -9.2641   21.7565  -30.5415 H   0  0  0  0  0  0  0  0  0  0  0  0
   -8.4391   22.1318  -32.0923 H   0  0  0  0  0  0  0  0  0  0  0  0
  -10.1591   21.6138  -32.0923 H   0  0  0  0  0  0  0  0  0  0  0  0
   -7.9747   19.8580  -30.9665 H   0  0  0  0  0  0  0  0  0  0  0  0
   -9.6421   19.4273  -31.5648 H   0  0  0  0  0  0  0  0  0  0  0  0
   -8.7920   19.7390  -33.9090 H   0  0  0  0  0  0  0  0  0  0  0  0
   -6.3096   20.2935  -31.2703 H   0  0  0  0  0  0  0  0  0  0  0  0
   -2.3478   18.2210  -32.3901 H   0  0  0  0  0  0  0  0  0  0  0  0
   -2.7118   17.3683  -33.9239 H   0  0  0  0  0  0  0  0  0  0  0  0
   -0.9549   19.3209  -34.0099 H   0  0  0  0  0  0  0  0  0  0  0  0
   -2.2179   19.3296  -35.2530 H   0  0  0  0  0  0  0  0  0  0  0  0
   -3.5130   20.6290  -33.3930 H   0  0  0  0  0  0  0  0  0  0  0  0
   -0.9195   20.6305  -32.3716 H   0  0  0  0  0  0  0  0  0  0  0  0
   -1.2752   22.2076  -33.2604 H   0  0  0  0  0  0  0  0  0  0  0  0
   -2.3040   21.1783  -30.6919 H   0  0  0  0  0  0  0  0  0  0  0  0
   -1.9208   22.8496  -31.2454 H   0  0  0  0  0  0  0  0  0  0  0  0
   -4.1930   21.5130  -32.5810 H   0  0  0  0  0  0  0  0  0  0  0  0
   -3.2448   23.7653  -29.7389 H   0  0  0  0  0  0  0  0  0  0  0  0
   -4.7946   25.3634  -28.6874 H   0  0  0  0  0  0  0  0  0  0  0  0
   -7.8361   24.1955  -31.4692 H   0  0  0  0  0  0  0  0  0  0  0  0
   -7.0500   18.3601  -35.0398 H   0  0  0  0  0  0  0  0  0  0  0  0
  1  2  1  0
  2  3  1  0
  3  4  1  0
  4  5  1  0
  5  6  2  0
  6  7  1  0
  7  8  1  0
  8  9  1  0
  9 10  1  0
 10 11  1  0
 11 12  1  0
 12 13  1  0
 13 14  1  0
 14 15  2  0
 15 16  1  0
 16 17  2  0
 17 18  1  0
 17 19  1  0
 19 20  2  0
 20 21  1  0
  7 22  1  0
 22 23  2  0
 22 24  1  0
 24  4  2  0
 20 14  1  0
  1 25  1  0
  1 26  1  0
  1 27  1  0
  2 28  1  0
  2 29  1  0
  3 30  1  0
  5 31  1  0
  8 32  1  0
  8 33  1  0
  9 34  1  0
  9 35  1  0
 10 36  1  0
 11 37  1  0
 11 38  1  0
 12 39  1  0
 12 40  1  0
 13 41  1  0
 15 42  1  0
 16 43  1  0
 19 44  1  0
 24 45  1  0
M  END
>  <smiles>  (8) 
CCNc1cnn(CCNCCNc2ccc(F)cc2F)c(=O)c1

>  <score_type>  (8) 
oracle

>  <origin>  (8) 
adg

>  <m_score__min__energy>  (8) 
-7.5800000000000001

>  <m_primary>  (8) 
energy

$$$$
10:0
     RDKit          3D

 51 53  0  0  0  0  0  0  0  0999 V2000
    0.6330   19.3810  -35.8900 C   0  0  0  0  0  0  0  0  0  0  0  0
   -0.4470   19.5470  -34.8500 C   0  0  0  0  0  0  0  0  0  0  0  0
   -0.7970   20.9400  -34.6250 N   0  0  0  0  0  0  0  0  0  0  0  0
    0.2060   21.8100  -35.2380 C   0  0  0  0  0  0  0  0  0  0  0  0
   -0.6740   21.1560  -33.1980 C   0  0  0  0  0  0  0  0  0  0  0  0
   -1.9910   21.0160  -32.4650 C   0  0  0  0  0  0  0  0  0  0  0  0
   -3.0500   21.0920  -33.4640 N   0  0  0  0  0  0  0  0  0  0  0  0
   -4.4000   20.8630  -33.1320 C   0  0  0  0  0  0  0  0  0  0  0  0
   -4.9170   19.6070  -33.4710 C   0  0  0  0  0  0  0  0  0  0  0  0
   -4.0990   18.6820  -34.0950 C   0  0  0  0  0  0  0  0  0  0  0  0
   -4.5690   17.4300  -34.4470 C   0  0  0  0  0  0  0  0  0  0  0  0
   -5.8880   17.1630  -34.1410 C   0  0  0  0  0  0  0  0  0  0  0  0
   -6.7120   18.0920  -33.5140 C   0  0  0  0  0  0  0  0  0  0  0  0
   -6.2370   19.3230  -33.1730 C   0  0  0  0  0  0  0  0  0  0  0  0
   -7.0500   20.2050  -32.5670 N   0  0  0  0  0  0  0  0  0  0  0  0
   -8.4180   19.9810  -32.2380 C   0  0  0  0  0  0  0  0  0  0  0  0
   -6.5270   21.4190  -32.2460 C   0  0  0  0  0  0  0  0  0  0  0  0
   -7.3180   22.3600  -31.6190 C   0  0  0  0  0  0  0  0  0  0  0  0
   -6.8280   23.6210  -31.2640 C   0  0  0  0  0  0  0  0  0  0  0  0
   -5.5180   23.9420  -31.5460 C   0  0  0  0  0  0  0  0  0  0  0  0
   -5.0540   25.2290  -31.1720 N   0  0  0  0  0  0  0  0  0  0  0  0
   -5.7280   25.9300  -30.1080 C   0  0  0  0  0  0  0  0  0  0  0  0
   -4.7140   23.0040  -32.1750 C   0  0  0  0  0  0  0  0  0  0  0  0
   -5.2270   21.7710  -32.5110 C   0  0  0  0  0  0  0  0  0  0  0  0
    1.6022   19.2320  -35.3916 H   0  0  0  0  0  0  0  0  0  0  0  0
    0.4057   18.5072  -36.5184 H   0  0  0  0  0  0  0  0  0  0  0  0
    0.6786   20.2827  -36.5184 H   0  0  0  0  0  0  0  0  0  0  0  0
   -1.3452   19.0078  -35.1856 H   0  0  0  0  0  0  0  0  0  0  0  0
   -0.0618   19.1430  -33.9022 H   0  0  0  0  0  0  0  0  0  0  0  0
    0.7859   22.3130  -34.4501 H   0  0  0  0  0  0  0  0  0  0  0  0
    0.8818   21.2072  -35.8625 H   0  0  0  0  0  0  0  0  0  0  0  0
   -0.2952   22.5642  -35.8625 H   0  0  0  0  0  0  0  0  0  0  0  0
    0.0341   20.4190  -32.7913 H   0  0  0  0  0  0  0  0  0  0  0  0
   -0.3218   22.1875  -33.0496 H   0  0  0  0  0  0  0  0  0  0  0  0
   -2.0320   20.0475  -31.9451 H   0  0  0  0  0  0  0  0  0  0  0  0
   -2.1058   21.8103  -31.7127 H   0  0  0  0  0  0  0  0  0  0  0  0
   -2.8500   21.3250  -34.4760 H   0  0  0  0  0  0  0  0  0  0  0  0
   -3.0545   18.9476  -34.3154 H   0  0  0  0  0  0  0  0  0  0  0  0
   -3.9268   16.6877  -34.9436 H   0  0  0  0  0  0  0  0  0  0  0  0
   -6.3033   16.1786  -34.4027 H   0  0  0  0  0  0  0  0  0  0  0  0
   -7.7570   17.8305  -33.2913 H   0  0  0  0  0  0  0  0  0  0  0  0
   -8.5337   19.9621  -31.1443 H   0  0  0  0  0  0  0  0  0  0  0  0
   -9.0334   20.7903  -32.6579 H   0  0  0  0  0  0  0  0  0  0  0  0
   -8.7431   19.0177  -32.6579 H   0  0  0  0  0  0  0  0  0  0  0  0
   -8.3650   22.1110  -31.3916 H   0  0  0  0  0  0  0  0  0  0  0  0
   -7.4826   24.3501  -30.7641 H   0  0  0  0  0  0  0  0  0  0  0  0
   -4.2350   25.6800  -31.6530 H   0  0  0  0  0  0  0  0  0  0  0  0
   -5.3689   25.5565  -29.1377 H   0  0  0  0  0  0  0  0  0  0  0  0
   -5.5173   27.0067  -30.1872 H   0  0  0  0  0  0  0  0  0  0  0  0
   -6.8122   25.7617  -30.1872 H   0  0  0  0  0  0  0  0  0  0  0  0
   -3.6658   23.2448  -32.4058 H   0  0  0  0  0  0  0  0  0  0  0  0
  1  2  1  0
  2  3  1  0
  3  4  1  0
  3  5  1  0
  5  6  1  0
  6  7  1  0
  7  8  1  0
  8  9  2  0
  9 10  1  0
 10 11  2  0
 11 12  1  0
 12 13  2  0
 13 14  1  0
 14 15  2  0
 15 16  1  0
 15 17  1  0
 17 18  2  0
 18 19  1  0
 19 20  2  0
 20 21  1  0
 21 22  1  0
 20 23  1  0
 23 24  2  0
 24  8  1  0
 14  9  1  0
 24 17  1  0
  1 25  1  0
  1 26  1  0
  1 27  1  0
  2 28  1  0
  2 29  1  0
  4 30  1  0
  4 31  1  0
  4 32  1  0
  5 33  1  0
  5 34  1  0
  6 35  1  0
  6 36  1  0
  7 37  1  0
 10 38  1  0
 11 39  1  0
 12 40  1  0
 13 41  1  0
 16 42  1  0
 16 43  1  0
 16 44  1  0
 18 45  1  0
 19 46  1  0
 21 47  1  0
 22 48  1  0
 22 49  1  0
 22 50  1  0
 23 51  1  0
M  CHG  1  15   1
M  END
>  <smiles>  (9) 
CCN(C)CCNc1c2ccccc2[n+](C)c2ccc(NC)cc12

>  <score_type>  (9) 
oracle

>  <origin>  (9) 
adg

>  <m_score__min__energy>  (9) 
-8.75

>  <m_primary>  (9) 
energy

$$$$
11:0
     RDKit          3D

 67 69  0  0  0  0  0  0  0  0999 V2000
   -0.1540   22.9430  -24.5250 C   0  0  0  0  0  0  0  0  0  0  0  0
   -0.2040   24.4280  -24.8180 C   0  0  0  0  0  0  0  0  0  0  0  0
   -1.1500   24.7860  -25.8320 N   0  0  0  0  0  0  0  0  0  0  0  0
   -1.7750   26.0740  -25.5800 C   0  0  0  0  0  0  0  0  0  0  0  0
   -1.1320   26.7830  -24.4010 C   0  0  0  0  0  0  0  0  0  0  0  0
   -0.4900   24.9150  -27.1280 C   0  0  0  0  0  0  0  0  0  0  0  0
   -1.0710   26.0600  -27.9250 C   0  0  0  0  0  0  0  0  0  0  0  0
   -1.9020   25.6210  -28.9220 O   0  0  0  0  0  0  0  0  0  0  0  0
   -2.7180   24.5460  -28.5890 C   0  0  0  0  0  0  0  0  0  0  0  0
   -2.5710   23.4030  -29.5630 C   0  0  0  0  0  0  0  0  0  0  0  0
   -3.3210   22.2980  -29.2950 O   0  0  0  0  0  0  0  0  0  0  0  0
   -4.2180   21.9080  -30.2870 C   0  0  0  0  0  0  0  0  0  0  0  0
   -3.6240   22.1370  -31.6300 C   0  0  0  0  0  0  0  0  0  0  0  0
   -4.5230   22.0910  -32.7800 N   0  0  0  0  0  0  0  0  0  0  0  0
   -5.2960   20.8700  -32.8910 C   0  0  0  0  0  0  0  0  0  0  0  0
   -6.5940   20.8630  -32.4350 C   0  0  0  0  0  0  0  0  0  0  0  0
   -7.2900   22.0000  -32.0850 C   0  0  0  0  0  0  0  0  0  0  0  0
   -6.4870   23.7400  -32.2970 Br  0  0  0  0  0  0  0  0  0  0  0  0
   -8.6030   21.9940  -31.6630 C   0  0  0  0  0  0  0  0  0  0  0  0
   -9.2270   20.7670  -31.6000 C   0  0  0  0  0  0  0  0  0  0  0  0
   -8.5730   19.5970  -31.9460 C   0  0  0  0  0  0  0  0  0  0  0  0
   -7.2610   19.6310  -32.3670 C   0  0  0  0  0  0  0  0  0  0  0  0
   -6.6540   18.4940  -32.7390 N   0  0  0  0  0  0  0  0  0  0  0  0
   -7.2540   17.1830  -32.6960 C   0  0  0  0  0  0  0  0  0  0  0  0
   -5.3630   18.5320  -33.1980 C   0  0  0  0  0  0  0  0  0  0  0  0
   -4.7460   17.3500  -33.6210 C   0  0  0  0  0  0  0  0  0  0  0  0
   -3.4670   17.3240  -34.1250 C   0  0  0  0  0  0  0  0  0  0  0  0
   -2.7730   18.4970  -34.2160 C   0  0  0  0  0  0  0  0  0  0  0  0
   -3.3870   19.6740  -33.7940 C   0  0  0  0  0  0  0  0  0  0  0  0
   -2.6680   20.8280  -33.9100 O   0  0  0  0  0  0  0  0  0  0  0  0
   -1.2610   20.8920  -33.7710 C   0  0  0  0  0  0  0  0  0  0  0  0
   -4.6590   19.7160  -33.2870 C   0  0  0  0  0  0  0  0  0  0  0  0
   -0.1486   22.7840  -23.4366 H   0  0  0  0  0  0  0  0  0  0  0  0
   -1.0362   22.4530  -24.9628 H   0  0  0  0  0  0  0  0  0  0  0  0
    0.7591   22.5134  -24.9628 H   0  0  0  0  0  0  0  0  0  0  0  0
   -0.4731   24.9554  -23.8910 H   0  0  0  0  0  0  0  0  0  0  0  0
    0.7901   24.7142  -25.1921 H   0  0  0  0  0  0  0  0  0  0  0  0
   -1.6705   26.7035  -26.4760 H   0  0  0  0  0  0  0  0  0  0  0  0
   -2.8355   25.9028  -25.3434 H   0  0  0  0  0  0  0  0  0  0  0  0
   -1.5176   26.3578  -23.4627 H   0  0  0  0  0  0  0  0  0  0  0  0
   -0.0410   26.6490  -24.4432 H   0  0  0  0  0  0  0  0  0  0  0  0
   -1.3716   27.8558  -24.4432 H   0  0  0  0  0  0  0  0  0  0  0  0
    0.5829   25.0972  -26.9678 H   0  0  0  0  0  0  0  0  0  0  0  0
   -0.6449   23.9836  -27.6923 H   0  0  0  0  0  0  0  0  0  0  0  0
   -1.6426   26.7108  -27.2470 H   0  0  0  0  0  0  0  0  0  0  0  0
   -0.2383   26.6061  -28.3922 H   0  0  0  0  0  0  0  0  0  0  0  0
   -2.4473   24.1927  -27.5831 H   0  0  0  0  0  0  0  0  0  0  0  0
   -3.7627   24.8889  -28.6220 H   0  0  0  0  0  0  0  0  0  0  0  0
   -2.8548   23.7703  -30.5603 H   0  0  0  0  0  0  0  0  0  0  0  0
   -1.5225   23.0788  -29.4885 H   0  0  0  0  0  0  0  0  0  0  0  0
   -4.4494   20.8391  -30.1688 H   0  0  0  0  0  0  0  0  0  0  0  0
   -5.1390   22.5023  -30.1941 H   0  0  0  0  0  0  0  0  0  0  0  0
   -3.1548   23.1318  -31.6178 H   0  0  0  0  0  0  0  0  0  0  0  0
   -2.9335   21.2938  -31.7793 H   0  0  0  0  0  0  0  0  0  0  0  0
   -4.5950   22.8550  -33.4820 H   0  0  0  0  0  0  0  0  0  0  0  0
   -9.1261   22.9225  -31.3903 H   0  0  0  0  0  0  0  0  0  0  0  0
  -10.2737   20.7158  -31.2655 H   0  0  0  0  0  0  0  0  0  0  0  0
   -9.1032   18.6351  -31.8846 H   0  0  0  0  0  0  0  0  0  0  0  0
   -7.3937   16.8779  -31.6484 H   0  0  0  0  0  0  0  0  0  0  0  0
   -8.2296   17.2094  -33.2034 H   0  0  0  0  0  0  0  0  0  0  0  0
   -6.5963   16.4619  -33.2034 H   0  0  0  0  0  0  0  0  0  0  0  0
   -5.3052   16.4056  -33.5476 H   0  0  0  0  0  0  0  0  0  0  0  0
   -3.0113   16.3766  -34.4488 H   0  0  0  0  0  0  0  0  0  0  0  0
   -1.7481   18.5119  -34.6152 H   0  0  0  0  0  0  0  0  0  0  0  0
   -0.9982   20.9040  -32.7029 H   0  0  0  0  0  0  0  0  0  0  0  0
   -0.8048   20.0137  -34.2510 H   0  0  0  0  0  0  0  0  0  0  0  0
   -0.8864   21.8081  -34.2510 H   0  0  0  0  0  0  0  0  0  0  0  0
  1  2  1  0
  2  3  1  0
  3  4  1  0
  4  5  1  0
  3  6  1  0
  6  7  1  0
  7  8  1  0
  8  9  1  0
  9 10  1  0
 10 11  1  0
 11 12  1  0
 12 13  1  0
 13 14  1  0
 14 15  1  0
 15 16  2  0
 16 17  1  0
 17 18  1  0
 17 19  2  0
 19 20  1  0
 20 21  2  0
 21 22  1  0
 22 23  2  0
 23 24  1  0
 23 25  1  0
 25 26  2  0
 26 27  1  0
 27 28  2  0
 28 29  1  0
 29 30  1  0
 30 31  1  0
 29 32  2  0
 32 15  1  0
 22 16  1  0
 32 25  1  0
  1 33  1  0
  1 34  1  0
  1 35  1  0
  2 36  1  0
  2 37  1  0
  4 38  1  0
  4 39  1  0
  5 40  1  0
  5 41  1  0
  5 42  1  0
  6 43  1  0
  6 44  1  0
  7 45  1  0
  7 46  1  0
  9 47  1  0
  9 48  1  0
 10 49  1  0
 10 50  1  0
 12 51  1  0
 12 52  1  0
 13 53  1  0
 13 54  1  0
 14 55  1  0
 19 56  1  0
 20 57  1  0
 21 58  1  0
 24 59  1  0
 24 60  1  0
 24 61  1  0
 26 62  1  0
 27 63  1  0
 28 64  1  0
 31 65  1  0
 31 66  1  0
 31 67  1  0
M  CHG  1  23   1
M  END
>  <smiles>  (10) 
CCN(CC)CCOCCOCCNc1c2c(Br)cccc2[n+](C)c2cccc(OC)c12

>  <score_type>  (10) 
oracle

>  <origin>  (10) 
adg

>  <m_score__min__energy>  (10) 
-8.9800000000000004

>  <m_primary>  (10) 
energy

$$$$
12:0
     RDKit          3D

 66 69  0  0  0  0  0  0  0  0999 V2000
    0.1870   20.7740  -35.3760 C   0  0  0  0  0  0  0  0  0  0  0  0
   -0.7020   20.4620  -34.1910 C   0  0  0  0  0  0  0  0  0  0  0  0
   -1.5660   21.5420  -33.8140 N   0  0  0  0  0  0  0  0  0  0  0  0
   -2.1700   21.3790  -32.5220 C   0  0  0  0  0  0  0  0  0  0  0  0
   -3.4890   21.9990  -32.2990 C   0  0  0  0  0  0  0  0  0  0  0  0
   -4.6010   21.6330  -33.1480 N   0  0  0  0  0  0  0  0  0  0  0  0
   -5.7600   20.9430  -32.6780 C   0  0  0  0  0  0  0  0  0  0  0  0
   -5.6750   19.5480  -32.7820 C   0  0  0  0  0  0  0  0  0  0  0  0
   -4.4730   18.9430  -33.0540 C   0  0  0  0  0  0  0  0  0  0  0  0
   -4.2740   17.5860  -33.1420 C   0  0  0  0  0  0  0  0  0  0  0  0
   -5.3630   16.7760  -32.9380 C   0  0  0  0  0  0  0  0  0  0  0  0
   -6.5940   17.3730  -32.6560 C   0  0  0  0  0  0  0  0  0  0  0  0
   -6.7620   18.7320  -32.5750 C   0  0  0  0  0  0  0  0  0  0  0  0
   -7.9260   19.3200  -32.2680 N   0  0  0  0  0  0  0  0  0  0  0  0
   -9.1040   18.5390  -32.0620 C   0  0  0  0  0  0  0  0  0  0  0  0
   -8.0320   20.6780  -32.1570 C   0  0  0  0  0  0  0  0  0  0  0  0
   -9.3020   21.1450  -31.8710 C   0  0  0  0  0  0  0  0  0  0  0  0
   -9.4620   22.5000  -31.7840 C   0  0  0  0  0  0  0  0  0  0  0  0
   -8.3730   23.3580  -31.9750 C   0  0  0  0  0  0  0  0  0  0  0  0
   -7.1040   22.9240  -32.2550 C   0  0  0  0  0  0  0  0  0  0  0  0
   -5.9980   23.7740  -32.2140 N   0  0  0  0  0  0  0  0  0  0  0  0
   -5.4370   24.6230  -31.2350 C   0  0  0  0  0  0  0  0  0  0  0  0
   -5.3400   24.2550  -29.8330 C   0  0  0  0  0  0  0  0  0  0  0  0
   -3.9910   23.6090  -29.6730 N   0  0  0  0  0  0  0  0  0  0  0  0
   -4.2130   22.3280  -29.1280 C   0  0  0  0  0  0  0  0  0  0  0  0
   -3.1370   21.8030  -28.2220 C   0  0  0  0  0  0  0  0  0  0  0  0
   -2.3500   22.8270  -27.4870 C   0  0  0  0  0  0  0  0  0  0  0  0
   -2.9850   24.1820  -27.4890 C   0  0  0  0  0  0  0  0  0  0  0  0
   -3.2350   24.5480  -28.9270 C   0  0  0  0  0  0  0  0  0  0  0  0
   -6.9550   21.5290  -32.3530 C   0  0  0  0  0  0  0  0  0  0  0  0
    1.1683   21.1184  -35.0176 H   0  0  0  0  0  0  0  0  0  0  0  0
    0.3168   19.8677  -35.9857 H   0  0  0  0  0  0  0  0  0  0  0  0
   -0.2781   21.5626  -35.9857 H   0  0  0  0  0  0  0  0  0  0  0  0
   -1.3254   19.5920  -34.4450 H   0  0  0  0  0  0  0  0  0  0  0  0
   -0.0382   20.2698  -33.3351 H   0  0  0  0  0  0  0  0  0  0  0  0
   -2.1890   21.8570  -34.5690 H   0  0  0  0  0  0  0  0  0  0  0  0
   -2.2805   20.2990  -32.3449 H   0  0  0  0  0  0  0  0  0  0  0  0
   -1.4950   21.9053  -31.8311 H   0  0  0  0  0  0  0  0  0  0  0  0
   -3.7835   21.7616  -31.2661 H   0  0  0  0  0  0  0  0  0  0  0  0
   -3.3196   23.0592  -32.5382 H   0  0  0  0  0  0  0  0  0  0  0  0
   -4.5380   21.9640  -34.1620 H   0  0  0  0  0  0  0  0  0  0  0  0
   -3.6016   19.5950  -33.2139 H   0  0  0  0  0  0  0  0  0  0  0  0
   -3.2824   17.1662  -33.3668 H   0  0  0  0  0  0  0  0  0  0  0  0
   -5.2686   15.6816  -32.9953 H   0  0  0  0  0  0  0  0  0  0  0  0
   -7.4673   16.7246  -32.4916 H   0  0  0  0  0  0  0  0  0  0  0  0
   -9.2817   18.4212  -30.9829 H   0  0  0  0  0  0  0  0  0  0  0  0
   -9.9650   19.0457  -32.5222 H   0  0  0  0  0  0  0  0  0  0  0  0
   -8.9724   17.5486  -32.5222 H   0  0  0  0  0  0  0  0  0  0  0  0
  -10.1464   20.4564  -31.7201 H   0  0  0  0  0  0  0  0  0  0  0  0
  -10.4545   22.9191  -31.5621 H   0  0  0  0  0  0  0  0  0  0  0  0
   -8.5456   24.4415  -31.8959 H   0  0  0  0  0  0  0  0  0  0  0  0
   -5.3540   23.7190  -33.0830 H   0  0  0  0  0  0  0  0  0  0  0  0
   -4.4087   24.8302  -31.5662 H   0  0  0  0  0  0  0  0  0  0  0  0
   -6.1757   25.4373  -31.1991 H   0  0  0  0  0  0  0  0  0  0  0  0
   -5.4151   25.1487  -29.1960 H   0  0  0  0  0  0  0  0  0  0  0  0
   -6.1526   23.5763  -29.5347 H   0  0  0  0  0  0  0  0  0  0  0  0
   -5.1495   22.3649  -28.5522 H   0  0  0  0  0  0  0  0  0  0  0  0
   -4.2394   21.6408  -29.9865 H   0  0  0  0  0  0  0  0  0  0  0  0
   -3.6130   21.1464  -27.4788 H   0  0  0  0  0  0  0  0  0  0  0  0
   -2.4186   21.2908  -28.8790 H   0  0  0  0  0  0  0  0  0  0  0  0
   -2.2371   22.4968  -26.4438 H   0  0  0  0  0  0  0  0  0  0  0  0
   -1.3823   22.9222  -28.0013 H   0  0  0  0  0  0  0  0  0  0  0  0
   -3.9351   24.1549  -26.9353 H   0  0  0  0  0  0  0  0  0  0  0  0
   -2.3325   24.9223  -27.0030 H   0  0  0  0  0  0  0  0  0  0  0  0
   -3.7737   25.5069  -28.9440 H   0  0  0  0  0  0  0  0  0  0  0  0
   -2.2452   24.5871  -29.4052 H   0  0  0  0  0  0  0  0  0  0  0  0
  1  2  1  0
  2  3  1  0
  3  4  1  0
  4  5  1  0
  5  6  1  0
  6  7  1  0
  7  8  2  0
  8  9  1  0
  9 10  2  0
 10 11  1  0
 11 12  2  0
 12 13  1  0
 13 14  2  0
 14 15  1  0
 14 16  1  0
 16 17  2  0
 17 18  1  0
 18 19  2  0
 19 20  1  0
 20 21  1  0
 21 22  1  0
 22 23  1  0
 23 24  1  0
 24 25  1  0
 25 26  1  0
 26 27  1  0
 27 28  1  0
 28 29  1  0
 20 30  2  0
 30  7  1  0
 13  8  1  0
 30 16  1  0
 29 24  1  0
  1 31  1  0
  1 32  1  0
  1 33  1  0
  2 34  1  0
  2 35  1  0
  3 36  1  0
  4 37  1  0
  4 38  1  0
  5 39  1  0
  5 40  1  0
  6 41  1  0
  9 42  1  0
 10 43  1  0
 11 44  1  0
 12 45  1  0
 15 46  1  0
 15 47  1  0
 15 48  1  0
 17 49  1  0
 18 50  1  0
 19 51  1  0
 21 52  1  0
 22 53  1  0
 22 54  1  0
 23 55  1  0
 23 56  1  0
 25 57  1  0
 25 58  1  0
 26 59  1  0
 26 60  1  0
 27 61  1  0
 27 62  1  0
 28 63  1  0
 28 64  1  0
 29 65  1  0
 29 66  1  0
M  CHG  1  14   1
M  END
>  <smiles>  (11) 
CCNCCNc1c2ccccc2[n+](C)c2cccc(NCCN3CCCCC3)c12

>  <score_type>  (11) 
oracle

>  <origin>  (11) 
adg

>  <m_score__min__energy>  (11) 
-9.6999999999999993

>  <m_primary>  (11) 
energy

$$$$
13:0
     RDKit          3D

 62 65  0  0  0  0  0  0  0  0999 V2000
   -1.4100   21.5420  -33.0610 C   0  0  0  0  0  0  0  0  0  0  0  0
   -2.4630   20.7130  -32.5940 N   0  0  0  0  0  0  0  0  0  0  0  0
   -3.6870   20.8620  -33.2970 C   0  0  0  0  0  0  0  0  0  0  0  0
   -4.8320   21.3060  -32.4700 C   0  0  0  0  0  0  0  0  0  0  0  0
   -6.0650   20.6000  -32.7630 N   0  0  0  0  0  0  0  0  0  0  0  0
   -7.1680   20.9270  -31.9290 C   0  0  0  0  0  0  0  0  0  0  0  0
   -8.3780   20.1820  -32.4480 C   0  0  0  0  0  0  0  0  0  0  0  0
   -8.1820   18.8080  -32.5020 O   0  0  0  0  0  0  0  0  0  0  0  0
   -6.8760   18.4050  -32.3110 C   0  0  0  0  0  0  0  0  0  0  0  0
   -5.8870   19.2300  -33.0940 C   0  0  0  0  0  0  0  0  0  0  0  0
   -2.4870   20.3120  -31.2500 C   0  0  0  0  0  0  0  0  0  0  0  0
   -1.2330   20.0190  -30.5590 C   0  0  0  0  0  0  0  0  0  0  0  0
   -0.4960   18.9210  -31.0230 C   0  0  0  0  0  0  0  0  0  0  0  0
    0.6780   18.5120  -30.4350 C   0  0  0  0  0  0  0  0  0  0  0  0
    1.3610   17.4300  -30.9220 F   0  0  0  0  0  0  0  0  0  0  0  0
    1.1880   19.1770  -29.3470 C   0  0  0  0  0  0  0  0  0  0  0  0
    0.4810   20.2550  -28.8780 C   0  0  0  0  0  0  0  0  0  0  0  0
   -0.7220   20.6820  -29.4730 C   0  0  0  0  0  0  0  0  0  0  0  0
   -1.2960   21.8260  -28.8700 N   0  0  0  0  0  0  0  0  0  0  0  0
   -0.8230   23.1680  -28.9140 C   0  0  0  0  0  0  0  0  0  0  0  0
   -1.9190   24.1530  -29.2970 C   0  0  0  0  0  0  0  0  0  0  0  0
   -3.2400   23.6050  -29.2720 N   0  0  0  0  0  0  0  0  0  0  0  0
   -4.2300   24.3100  -30.0540 C   0  0  0  0  0  0  0  0  0  0  0  0
   -3.8620   25.3080  -30.7110 O   0  0  0  0  0  0  0  0  0  0  0  0
   -5.6480   23.9110  -30.1120 C   0  0  0  0  0  0  0  0  0  0  0  0
   -6.6890   24.9460  -30.0900 C   0  0  0  0  0  0  0  0  0  0  0  0
   -6.3900   24.1770  -31.3720 C   0  0  0  0  0  0  0  0  0  0  0  0
   -3.6720   22.4400  -28.5680 C   0  0  0  0  0  0  0  0  0  0  0  0
   -2.5290   21.5970  -28.0920 C   0  0  0  0  0  0  0  0  0  0  0  0
   -0.8698   21.9673  -32.2023 H   0  0  0  0  0  0  0  0  0  0  0  0
   -0.7164   20.9449  -33.6713 H   0  0  0  0  0  0  0  0  0  0  0  0
   -1.8276   22.3563  -33.6713 H   0  0  0  0  0  0  0  0  0  0  0  0
   -3.5344   21.6034  -34.0951 H   0  0  0  0  0  0  0  0  0  0  0  0
   -3.9490   19.8626  -33.6746 H   0  0  0  0  0  0  0  0  0  0  0  0
   -4.5808   21.1436  -31.4115 H   0  0  0  0  0  0  0  0  0  0  0  0
   -5.0046   22.3679  -32.6994 H   0  0  0  0  0  0  0  0  0  0  0  0
   -6.9571   20.6224  -30.8933 H   0  0  0  0  0  0  0  0  0  0  0  0
   -7.3505   22.0117  -31.9415 H   0  0  0  0  0  0  0  0  0  0  0  0
   -9.2300   20.3896  -31.7839 H   0  0  0  0  0  0  0  0  0  0  0  0
   -8.5661   20.5302  -33.4743 H   0  0  0  0  0  0  0  0  0  0  0  0
   -6.6352   18.4906  -31.2411 H   0  0  0  0  0  0  0  0  0  0  0  0
   -6.7954   17.3674  -32.6671 H   0  0  0  0  0  0  0  0  0  0  0  0
   -4.8632   18.9188  -32.8392 H   0  0  0  0  0  0  0  0  0  0  0  0
   -6.0505   19.0832  -34.1718 H   0  0  0  0  0  0  0  0  0  0  0  0
   -2.9815   21.1165  -30.6859 H   0  0  0  0  0  0  0  0  0  0  0  0
   -2.9951   19.3369  -31.2828 H   0  0  0  0  0  0  0  0  0  0  0  0
   -0.8721   18.3633  -31.8934 H   0  0  0  0  0  0  0  0  0  0  0  0
    2.1266   18.8578  -28.8703 H   0  0  0  0  0  0  0  0  0  0  0  0
    0.8670   20.8049  -28.0071 H   0  0  0  0  0  0  0  0  0  0  0  0
   -0.4344   23.4391  -27.9213 H   0  0  0  0  0  0  0  0  0  0  0  0
   -0.0367   23.2234  -29.6812 H   0  0  0  0  0  0  0  0  0  0  0  0
   -1.8835   24.9980  -28.5936 H   0  0  0  0  0  0  0  0  0  0  0  0
   -1.7227   24.4528  -30.3370 H   0  0  0  0  0  0  0  0  0  0  0  0
   -5.4574   23.0181  -29.4984 H   0  0  0  0  0  0  0  0  0  0  0  0
   -7.6301   24.7700  -29.5483 H   0  0  0  0  0  0  0  0  0  0  0  0
   -6.7276   26.0085  -29.8080 H   0  0  0  0  0  0  0  0  0  0  0  0
   -7.1102   23.4403  -31.7575 H   0  0  0  0  0  0  0  0  0  0  0  0
   -6.1188   24.4426  -32.4044 H   0  0  0  0  0  0  0  0  0  0  0  0
   -4.2644   22.7547  -27.6963 H   0  0  0  0  0  0  0  0  0  0  0  0
   -4.2669   21.8314  -29.2649 H   0  0  0  0  0  0  0  0  0  0  0  0
   -2.3299   21.8358  -27.0369 H   0  0  0  0  0  0  0  0  0  0  0  0
   -2.8147   20.5426  -28.2209 H   0  0  0  0  0  0  0  0  0  0  0  0
  1  2  1  0
  2  3  1  0
  3  4  1  0
  4  5  1  0
  5  6  1  0
  6  7  1  0
  7  8  1  0
  8  9  1  0
  9 10  1  0
  2 11  1  0
 11 12  1  0
 12 13  2  0
 13 14  1  0
 14 15  1  0
 14 16  2  0
 16 17  1  0
 17 18  2  0
 18 19  1  0
 19 20  1  0
 20 21  1  0
 21 22  1  0
 22 23  1  0
 23 24  2  0
 23 25  1  0
 25 26  1  0
 26 27  1  0
 22 28  1  0
 28 29  1  0
 10  5  1  0
 18 12  1  0
 29 19  1  0
 27 25  1  0
  1 30  1  0
  1 31  1  0
  1 32  1  0
  3 33  1  0
  3 34  1  0
  4 35  1  0
  4 36  1  0
  6 37  1  0
  6 38  1  0
  7 39  1  0
  7 40  1  0
  9 41  1  0
  9 42  1  0
 10 43  1  0
 10 44  1  0
 11 45  1  0
 11 46  1  0
 13 47  1  0
 16 48  1  0
 17 49  1  0
 20 50  1  0
 20 51  1  0
 21 52  1  0
 21 53  1  0
 25 54  1  0
 26 55  1  0
 26 56  1  0
 27 57  1  0
 27 58  1  0
 28 59  1  0
 28 60  1  0
 29 61  1  0
 29 62  1  0
M  END
>  <smiles>  (12) 
CN(CCN1CCOCC1)Cc1cc(F)ccc1N1CCN(C(=O)C2CC2)CC1

>  <score_type>  (12) 
oracle

>  <origin>  (12) 
adg

>  <m_score__min__energy>  (12) 
-8.5199999999999996

>  <m_primary>  (12) 
energy

$$$$
14:0
     RDKit          3D

 50 53  0  0  0  0  0  0  0  0999 V2000
   -6.2900   25.1950  -29.7380 C   0  0  0  0  0  0  0  0  0  0  0  0
   -5.3510   25.6370  -30.8380 C   0  0  0  0  0  0  0  0  0  0  0  0
   -4.0950   24.9470  -30.7860 N   0  0  0  0  0  0  0  0  0  0  0  0
   -4.2210   23.5270  -30.5590 C   0  0  0  0  0  0  0  0  0  0  0  0
   -3.7150   22.7150  -31.7310 C   0  0  0  0  0  0  0  0  0  0  0  0
   -4.7490   22.5100  -32.7260 N   0  0  0  0  0  0  0  0  0  0  0  0
   -5.4850   21.3000  -32.7120 C   0  0  0  0  0  0  0  0  0  0  0  0
   -6.8240   21.3870  -32.3290 C   0  0  0  0  0  0  0  0  0  0  0  0
   -7.3800   22.5950  -31.9880 C   0  0  0  0  0  0  0  0  0  0  0  0
   -8.7080   22.7140  -31.6040 C   0  0  0  0  0  0  0  0  0  0  0  0
   -9.4520   21.5560  -31.5800 C   0  0  0  0  0  0  0  0  0  0  0  0
   -8.9110   20.3390  -31.9200 C   0  0  0  0  0  0  0  0  0  0  0  0
   -7.5890   20.2430  -32.2980 C   0  0  0  0  0  0  0  0  0  0  0  0
   -7.0510   19.0560  -32.6330 N   0  0  0  0  0  0  0  0  0  0  0  0
   -7.9320   17.9000  -32.5700 C   0  0  0  0  0  0  0  0  0  0  0  0
   -5.7630   18.9580  -33.0020 C   0  0  0  0  0  0  0  0  0  0  0  0
   -5.0210   17.9130  -33.3710 N   0  0  0  0  0  0  0  0  0  0  0  0
   -3.7690   18.3190  -33.6530 C   0  0  0  0  0  0  0  0  0  0  0  0
   -2.6360   17.6530  -34.0700 C   0  0  0  0  0  0  0  0  0  0  0  0
   -1.4520   18.3360  -34.2910 C   0  0  0  0  0  0  0  0  0  0  0  0
   -1.4240   19.7000  -34.0850 C   0  0  0  0  0  0  0  0  0  0  0  0
   -0.1340   20.3990  -34.3340 C   0  0  0  0  0  0  0  0  0  0  0  0
   -2.5410   20.4150  -33.6640 C   0  0  0  0  0  0  0  0  0  0  0  0
   -3.7020   19.7040  -33.4530 C   0  0  0  0  0  0  0  0  0  0  0  0
   -4.9660   20.0820  -33.0460 C   0  0  0  0  0  0  0  0  0  0  0  0
   -5.8352   25.4091  -28.7596 H   0  0  0  0  0  0  0  0  0  0  0  0
   -7.2414   25.7398  -29.8272 H   0  0  0  0  0  0  0  0  0  0  0  0
   -6.4764   24.1146  -29.8272 H   0  0  0  0  0  0  0  0  0  0  0  0
   -5.8251   25.4374  -31.8103 H   0  0  0  0  0  0  0  0  0  0  0  0
   -5.1531   26.7106  -30.7028 H   0  0  0  0  0  0  0  0  0  0  0  0
   -3.4920   25.2020  -31.5850 H   0  0  0  0  0  0  0  0  0  0  0  0
   -3.6402   23.2581  -29.6644 H   0  0  0  0  0  0  0  0  0  0  0  0
   -5.2889   23.2992  -30.4256 H   0  0  0  0  0  0  0  0  0  0  0  0
   -2.8725   23.2474  -32.1966 H   0  0  0  0  0  0  0  0  0  0  0  0
   -3.3994   21.7303  -31.3558 H   0  0  0  0  0  0  0  0  0  0  0  0
   -4.9830   23.2120  -33.4570 H   0  0  0  0  0  0  0  0  0  0  0  0
   -6.7524   23.4978  -32.0202 H   0  0  0  0  0  0  0  0  0  0  0  0
   -9.1450   23.6862  -31.3320 H   0  0  0  0  0  0  0  0  0  0  0  0
  -10.5092   21.6060  -31.2803 H   0  0  0  0  0  0  0  0  0  0  0  0
   -9.5375   19.4353  -31.8902 H   0  0  0  0  0  0  0  0  0  0  0  0
   -8.1268   17.6444  -31.5180 H   0  0  0  0  0  0  0  0  0  0  0  0
   -8.8820   18.1352  -33.0722 H   0  0  0  0  0  0  0  0  0  0  0  0
   -7.4533   17.0464  -33.0722 H   0  0  0  0  0  0  0  0  0  0  0  0
   -5.3140   16.8930  -33.4510 H   0  0  0  0  0  0  0  0  0  0  0  0
   -2.6732   16.5652  -34.2291 H   0  0  0  0  0  0  0  0  0  0  0  0
   -0.5505   17.8011  -34.6246 H   0  0  0  0  0  0  0  0  0  0  0  0
    0.3364   20.6539  -33.3729 H   0  0  0  0  0  0  0  0  0  0  0  0
    0.5354   19.7402  -34.9066 H   0  0  0  0  0  0  0  0  0  0  0  0
   -0.3203   21.3196  -34.9066 H   0  0  0  0  0  0  0  0  0  0  0  0
   -2.4988   21.5028  -33.5062 H   0  0  0  0  0  0  0  0  0  0  0  0
  1  2  1  0
  2  3  1  0
  3  4  1  0
  4  5  1  0
  5  6  1  0
  6  7  1  0
  7  8  2  0
  8  9  1  0
  9 10  2  0
 10 11  1  0
 11 12  2  0
 12 13  1  0
 13 14  2  0
 14 15  1  0
 14 16  1  0
 16 17  1  0
 17 18  1  0
 18 19  2  0
 19 20  1  0
 20 21  2  0
 21 22  1  0
 21 23  1  0
 23 24  2  0
 24 25  1  0
 25  7  1  0
 13  8  1  0
 25 16  2  0
 24 18  1  0
  1 26  1  0
  1 27  1  0
  1 28  1  0
  2 29  1  0
  2 30  1  0
  3 31  1  0
  4 32  1  0
  4 33  1  0
  5 34  1  0
  5 35  1  0
  6 36  1  0
  9 37  1  0
 10 38  1  0
 11 39  1  0
 12 40  1  0
 15 41  1  0
 15 42  1  0
 15 43  1  0
 17 44  1  0
 19 45  1  0
 20 46  1  0
 22 47  1  0
 22 48  1  0
 22 49  1  0
 23 50  1  0
M  CHG  1  14   1
M  END
>  <smiles>  (13) 
CCNCCNc1c2ccccc2[n+](C)c2[nH]c3ccc(C)cc3c12

>  <score_type>  (13) 
oracle

>  <origin>  (13) 
adg

>  <m_score__min__energy>  (13) 
-9.5700000000000003

>  <m_primary>  (13) 
energy

$$$$
16:0
     RDKit          3D

 23 23  0  0  1  0  0  0  0  0999 V2000
   -4.2280   24.8860  -26.5180 C   0  0  0  0  0  0  0  0  0  0  0  0
   -3.8300   24.2420  -27.8310 C   0  0  0  0  0  0  0  0  0  0  0  0
   -4.9720   24.3140  -28.7280 N   0  0  0  0  0  0  0  0  0  0  0  0
   -4.7730   24.6810  -30.1090 C   0  0  0  0  0  0  0  0  0  0  0  0
   -3.6030   24.9230  -30.4710 O   0  0  0  0  0  0  0  0  0  0  0  0
   -5.9050   24.7440  -30.9680 N   0  0  0  0  0  0  0  0  0  0  0  0
   -6.4760   23.6300  -31.2770 C   0  0  0  0  0  0  0  0  0  0  0  0
   -7.3620   23.0920  -30.3710 C   0  0  0  0  0  0  0  0  0  0  0  0
   -8.0410   21.9100  -30.5720 C   0  0  0  0  0  0  0  0  0  0  0  0
   -7.7880   21.2550  -31.7730 C   0  0  0  0  0  0  0  0  0  0  0  0
   -8.7120   19.6200  -32.0790 Br  0  0  0  0  0  0  0  0  0  0  0  0
   -6.9000   21.7980  -32.6790 C   0  0  0  0  0  0  0  0  0  0  0  0
   -6.2530   22.9740  -32.4300 N   0  0  0  0  0  0  0  0  0  0  0  0
   -3.8520   24.2775  -25.6823 H   0  0  0  0  0  0  0  0  0  0  0  0
   -3.7964   25.8961  -26.4594 H   0  0  0  0  0  0  0  0  0  0  0  0
   -5.3245   24.9518  -26.4594 H   0  0  0  0  0  0  0  0  0  0  0  0
   -2.9767   24.7811  -28.2682 H   0  0  0  0  0  0  0  0  0  0  0  0
   -3.5344   23.1948  -27.6702 H   0  0  0  0  0  0  0  0  0  0  0  0
   -5.9590   24.1050  -28.4060 H   0  0  0  0  0  0  0  0  0  0  0  0
   -7.5381   23.6374  -29.4321 H   0  0  0  0  0  0  0  0  0  0  0  0
   -8.7424   21.5077  -29.8262 H   0  0  0  0  0  0  0  0  0  0  0  0
   -6.7088   21.2703  -33.6250 H   0  0  0  0  0  0  0  0  0  0  0  0
   -5.5850   23.3680  -33.1270 H   0  0  0  0  0  0  0  0  0  0  0  0
  1  2  1  0
  2  3  1  0
  3  4  1  0
  4  5  2  0
  4  6  1  0
  6  7  2  0
  7  8  1  0
  8  9  2  0
  9 10  1  0
 10 11  1  0
 10 12  2  0
 12 13  1  0
 13  7  1  0
  1 14  1  0
  1 15  1  0
  1 16  1  0
  2 17  1  0
  2 18  1  0
  3 19  1  0
  8 20  1  0
  9 21  1  0
 12 22  1  0
 13 23  1  0
M  END
>  <smiles>  (14) 
CCNC(=O)N=c1ccc(Br)c[nH]1

>  <score_type>  (14) 
oracle

>  <origin>  (14) 
adg

>  <m_score__min__energy>  (14) 
-6.7000000000000002

>  <m_primary>  (14) 
energy

$$$$
17:0
     RDKit          3D

 78 81  0  0  1  0  0  0  0  0999 V2000
   -0.1740   19.4410  -31.2510 C   0  0  0  0  0  0  0  0  0  0  0  0
   -0.2770   20.7400  -32.0120 C   0  0  0  0  0  0  0  0  0  0  0  0
   -1.6230   21.2760  -32.0460 N   0  0  0  0  0  0  0  0  0  0  0  0
   -2.1960   21.3720  -33.3440 C   0  0  0  0  0  0  0  0  0  0  0  0
   -3.6830   21.3930  -33.4170 C   0  0  0  0  0  0  0  0  0  0  0  0
   -4.3190   21.1810  -32.1100 N   0  0  0  0  0  0  0  0  0  0  0  0
   -5.6660   20.7440  -32.1520 C   0  0  0  0  0  0  0  0  0  0  0  0
   -5.8140   19.3650  -32.3880 C   0  0  0  0  0  0  0  0  0  0  0  0
   -4.6700   18.5660  -32.4990 C   0  0  0  0  0  0  0  0  0  0  0  0
   -4.7260   17.2130  -32.7360 C   0  0  0  0  0  0  0  0  0  0  0  0
   -5.9560   16.6370  -32.8650 C   0  0  0  0  0  0  0  0  0  0  0  0
   -7.0980   17.4260  -32.7540 C   0  0  0  0  0  0  0  0  0  0  0  0
   -7.0530   18.7800  -32.5170 C   0  0  0  0  0  0  0  0  0  0  0  0
   -8.1530   19.5550  -32.4110 N   0  0  0  0  0  0  0  0  0  0  0  0
   -9.4740   18.9230  -32.5110 C   0  0  0  0  0  0  0  0  0  0  0  0
   -8.0340   20.8850  -32.1840 C   0  0  0  0  0  0  0  0  0  0  0  0
   -9.1980   21.6070  -32.1100 C   0  0  0  0  0  0  0  0  0  0  0  0
   -9.1010   22.9640  -31.8940 C   0  0  0  0  0  0  0  0  0  0  0  0
   -7.8570   23.5650  -31.7550 C   0  0  0  0  0  0  0  0  0  0  0  0
   -6.6700   22.8550  -31.8240 C   0  0  0  0  0  0  0  0  0  0  0  0
   -5.4770   23.5630  -31.5930 N   0  0  0  0  0  0  0  0  0  0  0  0
   -5.3170   24.4220  -30.4110 C   0  0  0  0  0  0  0  0  0  0  0  0
   -4.6570   23.7190  -29.2620 C   0  0  0  0  0  0  0  0  0  0  0  0
   -3.1420   23.6330  -29.4260 C   0  0  0  0  0  0  0  0  0  0  0  0
   -2.7080   22.3310  -29.6470 N   0  0  0  0  0  0  0  0  0  0  0  0
   -1.8880   21.5770  -28.8140 C   0  0  1  0  0  0  0  0  0  0  0  0
   -1.3100   22.1910  -27.5760 C   0  0  0  0  0  0  0  0  0  0  0  0
   -0.9870   20.9640  -26.7170 C   0  0  0  0  0  0  0  0  0  0  0  0
   -1.8170   19.9070  -27.1890 N   0  0  1  0  0  0  0  0  0  0  0  0
   -0.9890   18.8870  -27.8380 C   0  0  0  0  0  0  0  0  0  0  0  0
   -2.4460   19.2630  -26.0460 C   0  0  0  0  0  0  0  0  0  0  0  0
   -3.7820   18.6500  -26.3590 C   0  0  0  0  0  0  0  0  0  0  0  0
   -2.7260   20.4350  -28.1490 C   0  0  0  0  0  0  0  0  0  0  0  0
   -6.7820   21.5030  -32.0480 C   0  0  0  0  0  0  0  0  0  0  0  0
   -0.1903   19.6467  -30.1705 H   0  0  0  0  0  0  0  0  0  0  0  0
   -1.0236   18.7937  -31.5139 H   0  0  0  0  0  0  0  0  0  0  0  0
    0.7670   18.9357  -31.5139 H   0  0  0  0  0  0  0  0  0  0  0  0
    0.3818   21.4792  -31.5328 H   0  0  0  0  0  0  0  0  0  0  0  0
    0.0197   20.5347  -33.0512 H   0  0  0  0  0  0  0  0  0  0  0  0
   -2.2380   20.9560  -31.2850 H   0  0  0  0  0  0  0  0  0  0  0  0
   -1.8263   22.3002  -33.8041 H   0  0  0  0  0  0  0  0  0  0  0  0
   -1.8934   20.4507  -33.8632 H   0  0  0  0  0  0  0  0  0  0  0  0
   -4.0021   22.3700  -33.8090 H   0  0  0  0  0  0  0  0  0  0  0  0
   -3.9945   20.5684  -34.0751 H   0  0  0  0  0  0  0  0  0  0  0  0
   -3.7980   21.3050  -31.2090 H   0  0  0  0  0  0  0  0  0  0  0  0
   -3.6837   19.0412  -32.3920 H   0  0  0  0  0  0  0  0  0  0  0  0
   -3.8075   16.6134  -32.8191 H   0  0  0  0  0  0  0  0  0  0  0  0
   -6.0449   15.5572  -33.0553 H   0  0  0  0  0  0  0  0  0  0  0  0
   -8.0811   16.9443  -32.8608 H   0  0  0  0  0  0  0  0  0  0  0  0
   -9.8677   18.7346  -31.5013 H   0  0  0  0  0  0  0  0  0  0  0  0
  -10.1597   19.5906  -33.0533 H   0  0  0  0  0  0  0  0  0  0  0  0
   -9.3845   17.9702  -33.0533 H   0  0  0  0  0  0  0  0  0  0  0  0
  -10.1773   21.1181  -32.2196 H   0  0  0  0  0  0  0  0  0  0  0  0
  -10.0138   23.5747  -31.8313 H   0  0  0  0  0  0  0  0  0  0  0  0
   -7.8125   24.6505  -31.5829 H   0  0  0  0  0  0  0  0  0  0  0  0
   -4.6060   23.5570  -32.1510 H   0  0  0  0  0  0  0  0  0  0  0  0
   -4.7032   25.2913  -30.6896 H   0  0  0  0  0  0  0  0  0  0  0  0
   -6.3233   24.7195  -30.0812 H   0  0  0  0  0  0  0  0  0  0  0  0
   -4.8815   24.2682  -28.3357 H   0  0  0  0  0  0  0  0  0  0  0  0
   -5.0496   22.6921  -29.2267 H   0  0  0  0  0  0  0  0  0  0  0  0
   -2.8430   24.2556  -30.2822 H   0  0  0  0  0  0  0  0  0  0  0  0
   -2.6819   23.9869  -28.4916 H   0  0  0  0  0  0  0  0  0  0  0  0
   -2.4420   22.1730  -30.6420 H   0  0  0  0  0  0  0  0  0  0  0  0
   -1.0836   21.3352  -29.5242 H   0  0  0  0  0  0  0  0  0  0  0  0
   -0.4009   22.7665  -27.8049 H   0  0  0  0  0  0  0  0  0  0  0  0
   -1.9866   22.9051  -27.0837 H   0  0  0  0  0  0  0  0  0  0  0  0
    0.0732   20.6921  -26.8270 H   0  0  0  0  0  0  0  0  0  0  0  0
   -1.1699   21.1664  -25.6514 H   0  0  0  0  0  0  0  0  0  0  0  0
   -0.4923   18.2751  -27.0706 H   0  0  0  0  0  0  0  0  0  0  0  0
   -1.6239   18.2440  -28.4653 H   0  0  0  0  0  0  0  0  0  0  0  0
   -0.2292   19.3761  -28.4653 H   0  0  0  0  0  0  0  0  0  0  0  0
   -1.7764   18.4698  -25.6821 H   0  0  0  0  0  0  0  0  0  0  0  0
   -2.6191   20.0443  -25.2913 H   0  0  0  0  0  0  0  0  0  0  0  0
   -4.3043   18.4104  -25.4210 H   0  0  0  0  0  0  0  0  0  0  0  0
   -4.3844   19.3618  -26.9425 H   0  0  0  0  0  0  0  0  0  0  0  0
   -3.6352   17.7292  -26.9425 H   0  0  0  0  0  0  0  0  0  0  0  0
   -3.0135   19.6713  -28.8867 H   0  0  0  0  0  0  0  0  0  0  0  0
   -3.6734   20.7831  -27.7117 H   0  0  0  0  0  0  0  0  0  0  0  0
  1  2  1  0
  2  3  1  0
  3  4  1  0
  4  5  1  0
  5  6  1  0
  6  7  1  0
  7  8  2  0
  8  9  1  0
  9 10  2  0
 10 11  1  0
 11 12  2  0
 12 13  1  0
 13 14  2  0
 14 15  1  0
 14 16  1  0
 16 17  2  0
 17 18  1  0
 18 19  2  0
 19 20  1  0
 20 21  1  0
 21 22  1  0
 22 23  1  0
 23 24  1  0
 24 25  1  0
 25 26  1  0
 26 27  1  0
 27 28  1  0
 28 29  1  0
 29 30  1  6
 29 31  1  0
 31 32  1  0
 29 33  1  0
 20 34  2  0
 34  7  1  0
 13  8  1  0
 34 16  1  0
 33 26  1  0
  1 35  1  0
  1 36  1  0
  1 37  1  0
  2 38  1  0
  2 39  1  0
  3 40  1  0
  4 41  1  0
  4 42  1  0
  5 43  1  0
  5 44  1  0
  6 45  1  0
  9 46  1  0
 10 47  1  0
 11 48  1  0
 12 49  1  0
 15 50  1  0
 15 51  1  0
 15 52  1  0
 17 53  1  0
 18 54  1  0
 19 55  1  0
 21 56  1  0
 22 57  1  0
 22 58  1  0
 23 59  1  0
 23 60  1  0
 24 61  1  0
 24 62  1  0
 25 63  1  0
 26 64  1  6
 27 65  1  0
 27 66  1  0
 28 67  1  0
 28 68  1  0
 30 69  1  0
 30 70  1  0
 30 71  1  0
 31 72  1  0
 31 73  1  0
 32 74  1  0
 32 75  1  0
 32 76  1  0
 33 77  1  0
 33 78  1  0
M  CHG  2  14   1  29   1
M  END
>  <smiles>  (15) 
CCNCCNc1c2ccccc2[n+](C)c2cccc(NCCCNC3CC[N+](C)(CC)C3)c12

>  <score_type>  (15) 
oracle

>  <origin>  (15) 
adg

>  <m_score__min__energy>  (15) 
-11.01

>  <m_primary>  (15) 
energy

$$$$
18:0
     RDKit          3D

 40 42  0  0  0  0  0  0  0  0999 V2000
   -5.3460   20.4150  -33.4650 C   0  0  0  0  0  0  0  0  0  0  0  0
   -6.0530   20.5350  -32.1420 C   0  0  0  0  0  0  0  0  0  0  0  0
   -7.4100   20.0380  -32.1950 N   0  0  0  0  0  0  0  0  0  0  0  0
   -8.5380   20.7720  -32.1350 C   0  0  0  0  0  0  0  0  0  0  0  0
   -8.6060   22.5570  -31.9650 S   0  0  0  0  0  0  0  0  0  0  0  0
   -7.1940   23.1240  -30.9440 C   0  0  0  0  0  0  0  0  0  0  0  0
   -6.2320   23.8210  -31.8800 C   0  0  0  0  0  0  0  0  0  0  0  0
   -4.9880   24.1940  -31.2900 N   0  0  0  0  0  0  0  0  0  0  0  0
   -5.0590   25.1500  -30.2330 C   0  0  0  0  0  0  0  0  0  0  0  0
   -4.6490   24.5160  -28.9430 C   0  0  0  0  0  0  0  0  0  0  0  0
   -3.3370   24.1250  -29.0090 O   0  0  0  0  0  0  0  0  0  0  0  0
   -2.9690   23.4280  -30.1300 C   0  0  0  0  0  0  0  0  0  0  0  0
   -4.1080   23.0920  -31.0630 C   0  0  0  0  0  0  0  0  0  0  0  0
   -9.6140   19.9430  -32.2210 N   0  0  0  0  0  0  0  0  0  0  0  0
   -9.1220   18.7010  -32.3330 N   0  0  0  0  0  0  0  0  0  0  0  0
   -7.8040   18.7640  -32.3170 C   0  0  0  0  0  0  0  0  0  0  0  0
   -6.7950   17.6700  -32.4070 C   0  0  0  0  0  0  0  0  0  0  0  0
   -6.0910   16.9910  -31.8210 N   0  0  0  0  0  0  0  0  0  0  0  0
   -5.2530   16.0440  -32.1890 C   0  0  0  0  0  0  0  0  0  0  0  0
   -5.2430   15.8560  -33.5190 C   0  0  0  0  0  0  0  0  0  0  0  0
   -6.4470   17.0560  -34.2070 S   0  0  0  0  0  0  0  0  0  0  0  0
   -4.2748   20.2332  -33.2931 H   0  0  0  0  0  0  0  0  0  0  0  0
   -5.7735   19.5766  -34.0345 H   0  0  0  0  0  0  0  0  0  0  0  0
   -5.4729   21.3475  -34.0345 H   0  0  0  0  0  0  0  0  0  0  0  0
   -5.4948   19.9585  -31.3896 H   0  0  0  0  0  0  0  0  0  0  0  0
   -6.0968   21.6026  -31.8808 H   0  0  0  0  0  0  0  0  0  0  0  0
   -7.5429   23.8231  -30.1697 H   0  0  0  0  0  0  0  0  0  0  0  0
   -6.7083   22.2777  -30.4362 H   0  0  0  0  0  0  0  0  0  0  0  0
   -6.0224   23.1443  -32.7215 H   0  0  0  0  0  0  0  0  0  0  0  0
   -6.7220   24.7567  -32.1873 H   0  0  0  0  0  0  0  0  0  0  0  0
   -4.3856   25.9907  -30.4561 H   0  0  0  0  0  0  0  0  0  0  0  0
   -6.0931   25.5143  -30.1441 H   0  0  0  0  0  0  0  0  0  0  0  0
   -4.7722   25.2413  -28.1253 H   0  0  0  0  0  0  0  0  0  0  0  0
   -5.2797   23.6341  -28.7576 H   0  0  0  0  0  0  0  0  0  0  0  0
   -2.2374   24.0331  -30.6856 H   0  0  0  0  0  0  0  0  0  0  0  0
   -2.5589   22.4690  -29.7804 H   0  0  0  0  0  0  0  0  0  0  0  0
   -3.6878   22.7744  -32.0287 H   0  0  0  0  0  0  0  0  0  0  0  0
   -4.6970   22.2933  -30.5884 H   0  0  0  0  0  0  0  0  0  0  0  0
   -4.6308   15.4710  -31.4858 H   0  0  0  0  0  0  0  0  0  0  0  0
   -4.6364   15.1304  -34.0808 H   0  0  0  0  0  0  0  0  0  0  0  0
  1  2  1  0
  2  3  1  0
  3  4  1  0
  4  5  1  0
  5  6  1  0
  6  7  1  0
  7  8  1  0
  8  9  1  0
  9 10  1  0
 10 11  1  0
 11 12  1  0
 12 13  1  0
  4 14  2  0
 14 15  1  0
 15 16  2  0
 16 17  1  0
 17 18  2  0
 18 19  1  0
 19 20  2  0
 20 21  1  0
 16  3  1  0
 21 17  1  0
 13  8  1  0
  1 22  1  0
  1 23  1  0
  1 24  1  0
  2 25  1  0
  2 26  1  0
  6 27  1  0
  6 28  1  0
  7 29  1  0
  7 30  1  0
  9 31  1  0
  9 32  1  0
 10 33  1  0
 10 34  1  0
 12 35  1  0
 12 36  1  0
 13 37  1  0
 13 38  1  0
 19 39  1  0
 20 40  1  0
M  END
>  <smiles>  (16) 
CCn1c(SCCN2CCOCC2)nnc1-c1nccs1

>  <score_type>  (16) 
oracle

>  <origin>  (16) 
adg

>  <m_score__min__energy>  (16) 
-7.9800000000000004

>  <m_primary>  (16) 
energy

$$$$
19:0
     RDKit          3D

 58 60  0  0  0  0  0  0  0  0999 V2000
    1.2170   23.6740  -36.0940 C   0  0  0  0  0  0  0  0  0  0  0  0
    1.0490   22.2610  -35.6240 C   0  0  0  0  0  0  0  0  0  0  0  0
   -0.1210   22.0560  -34.8250 N   0  0  0  0  0  0  0  0  0  0  0  0
    0.0830   21.1890  -33.7000 C   0  0  0  0  0  0  0  0  0  0  0  0
   -1.1750   21.1710  -32.8040 C   0  0  0  0  0  0  0  0  0  0  0  0
   -2.3120   21.1740  -33.6510 N   0  0  0  0  0  0  0  0  0  0  0  0
   -3.5310   20.4880  -33.4680 C   0  0  0  0  0  0  0  0  0  0  0  0
   -4.6740   21.1110  -33.0100 C   0  0  0  0  0  0  0  0  0  0  0  0
   -4.7520   22.4890  -32.6960 N   0  0  0  0  0  0  0  0  0  0  0  0
   -4.6610   23.0360  -31.4020 C   0  0  0  0  0  0  0  0  0  0  0  0
   -5.3910   24.1290  -31.0010 C   0  0  0  0  0  0  0  0  0  0  0  0
   -5.2710   24.6440  -29.7040 C   0  0  0  0  0  0  0  0  0  0  0  0
   -4.4140   24.0670  -28.7840 C   0  0  0  0  0  0  0  0  0  0  0  0
   -4.2300   24.5420  -27.4090 C   0  0  0  0  0  0  0  0  0  0  0  0
   -2.7770   24.7230  -27.0150 C   0  0  0  0  0  0  0  0  0  0  0  0
   -3.6760   22.9630  -29.1870 C   0  0  0  0  0  0  0  0  0  0  0  0
   -3.8110   22.4730  -30.4710 C   0  0  0  0  0  0  0  0  0  0  0  0
   -5.8470   20.4200  -32.8340 N   0  0  0  0  0  0  0  0  0  0  0  0
   -7.0400   21.0920  -32.3530 C   0  0  0  0  0  0  0  0  0  0  0  0
   -5.9320   19.1220  -33.0970 C   0  0  0  0  0  0  0  0  0  0  0  0
   -7.1320   18.4650  -32.9100 C   0  0  0  0  0  0  0  0  0  0  0  0
   -7.2450   17.1100  -33.1820 C   0  0  0  0  0  0  0  0  0  0  0  0
   -6.1170   16.4680  -33.6420 C   0  0  0  0  0  0  0  0  0  0  0  0
   -4.9050   17.1430  -33.8280 C   0  0  0  0  0  0  0  0  0  0  0  0
   -4.7920   18.4860  -33.5580 C   0  0  0  0  0  0  0  0  0  0  0  0
   -3.6320   19.1430  -33.7360 N   0  0  0  0  0  0  0  0  0  0  0  0
   -2.4420   18.4990  -34.1970 C   0  0  0  0  0  0  0  0  0  0  0  0
    1.2965   24.3427  -35.2242 H   0  0  0  0  0  0  0  0  0  0  0  0
    2.1308   23.7522  -36.7014 H   0  0  0  0  0  0  0  0  0  0  0  0
    0.3470   23.9643  -36.7014 H   0  0  0  0  0  0  0  0  0  0  0  0
    0.9863   21.6067  -36.5060 H   0  0  0  0  0  0  0  0  0  0  0  0
    1.9167   22.0278  -34.9895 H   0  0  0  0  0  0  0  0  0  0  0  0
   -0.9220   21.7640  -35.4110 H   0  0  0  0  0  0  0  0  0  0  0  0
    0.2875   20.1697  -34.0594 H   0  0  0  0  0  0  0  0  0  0  0  0
    0.9363   21.5588  -33.1125 H   0  0  0  0  0  0  0  0  0  0  0  0
   -1.1763   20.2655  -32.1794 H   0  0  0  0  0  0  0  0  0  0  0  0
   -1.1873   22.0496  -32.1422 H   0  0  0  0  0  0  0  0  0  0  0  0
   -2.2510   21.7710  -34.5310 H   0  0  0  0  0  0  0  0  0  0  0  0
   -4.9040   23.1350  -33.5280 H   0  0  0  0  0  0  0  0  0  0  0  0
   -6.0815   24.6078  -31.7109 H   0  0  0  0  0  0  0  0  0  0  0  0
   -5.8675   25.5210  -29.4124 H   0  0  0  0  0  0  0  0  0  0  0  0
   -4.7411   25.5105  -27.3050 H   0  0  0  0  0  0  0  0  0  0  0  0
   -4.6493   23.7722  -26.7445 H   0  0  0  0  0  0  0  0  0  0  0  0
   -2.6931   24.7335  -25.9183 H   0  0  0  0  0  0  0  0  0  0  0  0
   -2.1809   23.8922  -27.4205 H   0  0  0  0  0  0  0  0  0  0  0  0
   -2.4030   25.6747  -27.4205 H   0  0  0  0  0  0  0  0  0  0  0  0
   -2.9833   22.4781  -28.4834 H   0  0  0  0  0  0  0  0  0  0  0  0
   -3.2155   21.5961  -30.7648 H   0  0  0  0  0  0  0  0  0  0  0  0
   -7.0419   21.0931  -31.2530 H   0  0  0  0  0  0  0  0  0  0  0  0
   -7.0504   22.1287  -32.7207 H   0  0  0  0  0  0  0  0  0  0  0  0
   -7.9319   20.5636  -32.7207 H   0  0  0  0  0  0  0  0  0  0  0  0
   -8.0064   19.0217  -32.5419 H   0  0  0  0  0  0  0  0  0  0  0  0
   -8.1934   16.5720  -33.0368 H   0  0  0  0  0  0  0  0  0  0  0  0
   -6.1700   15.3932  -33.8700 H   0  0  0  0  0  0  0  0  0  0  0  0
   -4.0286   16.5896  -34.1963 H   0  0  0  0  0  0  0  0  0  0  0  0
   -1.8426   18.1746  -33.3336 H   0  0  0  0  0  0  0  0  0  0  0  0
   -2.7113   17.6235  -34.8061 H   0  0  0  0  0  0  0  0  0  0  0  0
   -1.8564   19.2033  -34.8061 H   0  0  0  0  0  0  0  0  0  0  0  0
  1  2  1  0
  2  3  1  0
  3  4  1  0
  4  5  1  0
  5  6  1  0
  6  7  1  0
  7  8  2  0
  8  9  1  0
  9 10  1  0
 10 11  2  0
 11 12  1  0
 12 13  2  0
 13 14  1  0
 14 15  1  0
 13 16  1  0
 16 17  2  0
  8 18  1  0
 18 19  1  0
 18 20  2  0
 20 21  1  0
 21 22  2  0
 22 23  1  0
 23 24  2  0
 24 25  1  0
 25 26  2  0
 26 27  1  0
 26  7  1  0
 17 10  1  0
 25 20  1  0
  1 28  1  0
  1 29  1  0
  1 30  1  0
  2 31  1  0
  2 32  1  0
  3 33  1  0
  4 34  1  0
  4 35  1  0
  5 36  1  0
  5 37  1  0
  6 38  1  0
  9 39  1  0
 11 40  1  0
 12 41  1  0
 14 42  1  0
 14 43  1  0
 15 44  1  0
 15 45  1  0
 15 46  1  0
 16 47  1  0
 17 48  1  0
 19 49  1  0
 19 50  1  0
 19 51  1  0
 21 52  1  0
 22 53  1  0
 23 54  1  0
 24 55  1  0
 27 56  1  0
 27 57  1  0
 27 58  1  0
M  CHG  2  18   1  26   1
M  END
>  <smiles>  (17) 
CCNCCNc1c(Nc2ccc(CC)cc2)[n+](C)c2ccccc2[n+]1C

>  <score_type>  (17) 
oracle

>  <origin>  (17) 
adg

>  <m_score__min__energy>  (17) 
-8.0500000000000007

>  <m_primary>  (17) 
energy

$$$$
20:0
     RDKit          3D

 59 61  0  0  0  0  0  0  0  0999 V2000
   -6.2260   25.3100  -29.9350 C   0  0  0  0  0  0  0  0  0  0  0  0
   -4.8060   24.8370  -29.7020 C   0  0  0  0  0  0  0  0  0  0  0  0
   -4.2700   24.3230  -30.9480 N   0  0  0  0  0  0  0  0  0  0  0  0
   -3.8600   22.9700  -30.7520 C   0  0  0  0  0  0  0  0  0  0  0  0
   -3.3750   22.2640  -31.9990 C   0  0  0  0  0  0  0  0  0  0  0  0
   -4.3970   22.1750  -33.0390 N   0  0  0  0  0  0  0  0  0  0  0  0
   -5.2790   21.0830  -32.9600 C   0  0  0  0  0  0  0  0  0  0  0  0
   -6.5540   21.4060  -32.4450 C   0  0  0  0  0  0  0  0  0  0  0  0
   -6.8320   22.7390  -32.1210 C   0  0  0  0  0  0  0  0  0  0  0  0
   -8.0470   23.1430  -31.6140 C   0  0  0  0  0  0  0  0  0  0  0  0
   -9.0060   22.1920  -31.4250 C   0  0  0  0  0  0  0  0  0  0  0  0
   -8.7500   20.8650  -31.7400 C   0  0  0  0  0  0  0  0  0  0  0  0
   -7.5220   20.4650  -32.2510 C   0  0  0  0  0  0  0  0  0  0  0  0
   -7.2690   19.2030  -32.5520 N   0  0  0  0  0  0  0  0  0  0  0  0
   -8.2400   18.1440  -32.3820 C   0  0  0  0  0  0  0  0  0  0  0  0
   -6.0650   18.8510  -33.0470 C   0  0  0  0  0  0  0  0  0  0  0  0
   -5.8540   17.5170  -33.3290 C   0  0  0  0  0  0  0  0  0  0  0  0
   -4.6530   17.1280  -33.8160 C   0  0  0  0  0  0  0  0  0  0  0  0
   -3.6410   18.0710  -34.0320 C   0  0  0  0  0  0  0  0  0  0  0  0
   -3.8140   19.4150  -33.7630 C   0  0  0  0  0  0  0  0  0  0  0  0
   -2.7650   20.2880  -34.0760 N   0  0  0  0  0  0  0  0  0  0  0  0
   -1.3510   19.9910  -33.7290 C   0  0  0  0  0  0  0  0  0  0  0  0
   -0.5600   21.2250  -33.4410 C   0  0  0  0  0  0  0  0  0  0  0  0
    0.5480   21.5430  -34.2610 N   0  0  0  0  0  0  0  0  0  0  0  0
    0.2480   21.8980  -35.6150 C   0  0  0  0  0  0  0  0  0  0  0  0
    1.5150   20.4480  -34.1830 C   0  0  0  0  0  0  0  0  0  0  0  0
   -5.0430   19.7820  -33.2640 C   0  0  0  0  0  0  0  0  0  0  0  0
   -6.7211   25.4749  -28.9667 H   0  0  0  0  0  0  0  0  0  0  0  0
   -6.2102   26.2514  -30.5038 H   0  0  0  0  0  0  0  0  0  0  0  0
   -6.7779   24.5472  -30.5038 H   0  0  0  0  0  0  0  0  0  0  0  0
   -4.1891   25.6787  -29.3543 H   0  0  0  0  0  0  0  0  0  0  0  0
   -4.7982   24.0449  -28.9388 H   0  0  0  0  0  0  0  0  0  0  0  0
   -3.4900   24.9480  -31.2410 H   0  0  0  0  0  0  0  0  0  0  0  0
   -3.0424   22.9640  -30.0161 H   0  0  0  0  0  0  0  0  0  0  0  0
   -4.7530   22.4229  -30.4155 H   0  0  0  0  0  0  0  0  0  0  0  0
   -2.5127   22.8160  -32.4013 H   0  0  0  0  0  0  0  0  0  0  0  0
   -3.1074   21.2363  -31.7121 H   0  0  0  0  0  0  0  0  0  0  0  0
   -4.4900   22.9260  -33.7930 H   0  0  0  0  0  0  0  0  0  0  0  0
   -6.0481   23.4946  -32.2777 H   0  0  0  0  0  0  0  0  0  0  0  0
   -8.2377   24.1984  -31.3695 H   0  0  0  0  0  0  0  0  0  0  0  0
   -9.9880   22.4784  -31.0206 H   0  0  0  0  0  0  0  0  0  0  0  0
   -9.5372   20.1132  -31.5815 H   0  0  0  0  0  0  0  0  0  0  0  0
   -8.4037   17.9654  -31.3090 H   0  0  0  0  0  0  0  0  0  0  0  0
   -9.1893   18.4377  -32.8539 H   0  0  0  0  0  0  0  0  0  0  0  0
   -7.8653   17.2237  -32.8539 H   0  0  0  0  0  0  0  0  0  0  0  0
   -6.6520   16.7790  -33.1601 H   0  0  0  0  0  0  0  0  0  0  0  0
   -4.4712   16.0671  -34.0430 H   0  0  0  0  0  0  0  0  0  0  0  0
   -2.6740   17.7297  -34.4300 H   0  0  0  0  0  0  0  0  0  0  0  0
   -2.8010   21.1780  -34.5850 H   0  0  0  0  0  0  0  0  0  0  0  0
   -1.3347   19.3459  -32.8382 H   0  0  0  0  0  0  0  0  0  0  0  0
   -0.8916   19.4951  -34.5968 H   0  0  0  0  0  0  0  0  0  0  0  0
   -1.2569   22.0741  -33.4994 H   0  0  0  0  0  0  0  0  0  0  0  0
   -0.1081   21.0221  -32.4588 H   0  0  0  0  0  0  0  0  0  0  0  0
   -0.4620   22.7381  -35.6251 H   0  0  0  0  0  0  0  0  0  0  0  0
    1.1737   22.1940  -36.1302 H   0  0  0  0  0  0  0  0  0  0  0  0
   -0.1983   21.0346  -36.1302 H   0  0  0  0  0  0  0  0  0  0  0  0
    1.7208   20.2150  -33.1278 H   0  0  0  0  0  0  0  0  0  0  0  0
    1.1025   19.5583  -34.6813 H   0  0  0  0  0  0  0  0  0  0  0  0
    2.4489   20.7473  -34.6813 H   0  0  0  0  0  0  0  0  0  0  0  0
  1  2  1  0
  2  3  1  0
  3  4  1  0
  4  5  1  0
  5  6  1  0
  6  7  1  0
  7  8  2  0
  8  9  1  0
  9 10  2  0
 10 11  1  0
 11 12  2  0
 12 13  1  0
 13 14  2  0
 14 15  1  0
 14 16  1  0
 16 17  2  0
 17 18  1  0
 18 19  2  0
 19 20  1  0
 20 21  1  0
 21 22  1  0
 22 23  1  0
 23 24  1  0
 24 25  1  0
 24 26  1  0
 20 27  2  0
 27  7  1  0
 13  8  1  0
 27 16  1  0
  1 28  1  0
  1 29  1  0
  1 30  1  0
  2 31  1  0
  2 32  1  0
  3 33  1  0
  4 34  1  0
  4 35  1  0
  5 36  1  0
  5 37  1  0
  6 38  1  0
  9 39  1  0
 10 40  1  0
 11 41  1  0
 12 42  1  0
 15 43  1  0
 15 44  1  0
 15 45  1  0
 17 46  1  0
 18 47  1  0
 19 48  1  0
 21 49  1  0
 22 50  1  0
 22 51  1  0
 23 52  1  0
 23 53  1  0
 25 54  1  0
 25 55  1  0
 25 56  1  0
 26 57  1  0
 26 58  1  0
 26 59  1  0
M  CHG  1  14   1
M  END
>  <smiles>  (18) 
CCNCCNc1c2ccccc2[n+](C)c2cccc(NCCN(C)C)c12

>  <score_type>  (18) 
oracle

>  <origin>  (18) 
adg

>  <m_score__min__energy>  (18) 
-9.4399999999999995

>  <m_primary>  (18) 
energy

$$$$
21:0
     RDKit          3D

 46 49  0  0  0  0  0  0  0  0999 V2000
   -6.2150   25.3030  -29.6430 C   0  0  0  0  0  0  0  0  0  0  0  0
   -5.3570   25.6390  -30.8440 C   0  0  0  0  0  0  0  0  0  0  0  0
   -4.1120   25.0470  -30.7850 O   0  0  0  0  0  0  0  0  0  0  0  0
   -4.0360   24.0360  -29.8440 C   0  0  0  0  0  0  0  0  0  0  0  0
   -4.4160   22.6730  -30.3950 C   0  0  0  0  0  0  0  0  0  0  0  0
   -4.5470   22.7300  -31.8370 N   0  0  0  0  0  0  0  0  0  0  0  0
   -4.6530   21.4820  -32.5210 C   0  0  0  0  0  0  0  0  0  0  0  0
   -3.4930   20.8930  -33.0080 C   0  0  0  0  0  0  0  0  0  0  0  0
   -2.2910   21.5480  -32.8060 C   0  0  0  0  0  0  0  0  0  0  0  0
   -1.1510   20.9450  -33.2990 C   0  0  0  0  0  0  0  0  0  0  0  0
   -1.1490   19.7470  -33.9690 C   0  0  0  0  0  0  0  0  0  0  0  0
   -2.3610   19.0920  -34.1690 C   0  0  0  0  0  0  0  0  0  0  0  0
   -3.5080   19.6880  -33.6800 C   0  0  0  0  0  0  0  0  0  0  0  0
   -4.7010   19.0890  -33.8510 N   0  0  0  0  0  0  0  0  0  0  0  0
   -4.7090   17.8070  -34.5670 C   0  0  0  0  0  0  0  0  0  0  0  0
   -5.8540   19.6180  -33.3990 C   0  0  0  0  0  0  0  0  0  0  0  0
   -7.1550   19.2090  -33.4500 N   0  0  0  0  0  0  0  0  0  0  0  0
   -7.9350   20.1220  -32.8330 C   0  0  0  0  0  0  0  0  0  0  0  0
   -9.2980   20.1810  -32.6130 C   0  0  0  0  0  0  0  0  0  0  0  0
   -9.8470   21.2530  -31.9390 C   0  0  0  0  0  0  0  0  0  0  0  0
   -9.0410   22.2940  -31.4680 C   0  0  0  0  0  0  0  0  0  0  0  0
   -7.6770   22.2440  -31.6810 C   0  0  0  0  0  0  0  0  0  0  0  0
   -7.1430   21.1670  -32.3560 C   0  0  0  0  0  0  0  0  0  0  0  0
   -5.8550   20.8350  -32.7180 C   0  0  0  0  0  0  0  0  0  0  0  0
   -5.6567   25.5216  -28.7208 H   0  0  0  0  0  0  0  0  0  0  0  0
   -7.1334   25.9079  -29.6677 H   0  0  0  0  0  0  0  0  0  0  0  0
   -6.4784   24.2353  -29.6677 H   0  0  0  0  0  0  0  0  0  0  0  0
   -5.8703   25.2916  -31.7528 H   0  0  0  0  0  0  0  0  0  0  0  0
   -5.2091   26.7290  -30.8553 H   0  0  0  0  0  0  0  0  0  0  0  0
   -3.0033   23.9853  -29.4686 H   0  0  0  0  0  0  0  0  0  0  0  0
   -4.7551   24.2775  -29.0474 H   0  0  0  0  0  0  0  0  0  0  0  0
   -3.6354   21.9446  -30.1304 H   0  0  0  0  0  0  0  0  0  0  0  0
   -5.3797   22.3685  -29.9608 H   0  0  0  0  0  0  0  0  0  0  0  0
   -4.5640   23.6280  -32.3800 H   0  0  0  0  0  0  0  0  0  0  0  0
   -2.2456   22.5099  -32.2743 H   0  0  0  0  0  0  0  0  0  0  0  0
   -0.1881   21.4544  -33.1459 H   0  0  0  0  0  0  0  0  0  0  0  0
   -0.2088   19.3133  -34.3404 H   0  0  0  0  0  0  0  0  0  0  0  0
   -2.4044   18.1296  -34.6999 H   0  0  0  0  0  0  0  0  0  0  0  0
   -4.7142   16.9812  -33.8403 H   0  0  0  0  0  0  0  0  0  0  0  0
   -5.6075   17.7453  -35.1985 H   0  0  0  0  0  0  0  0  0  0  0  0
   -3.8113   17.7341  -35.1985 H   0  0  0  0  0  0  0  0  0  0  0  0
   -7.4640   18.3220  -33.9030 H   0  0  0  0  0  0  0  0  0  0  0  0
   -9.9475   19.3709  -32.9762 H   0  0  0  0  0  0  0  0  0  0  0  0
  -10.9334   21.2889  -31.7701 H   0  0  0  0  0  0  0  0  0  0  0  0
   -9.4887   23.1445  -30.9330 H   0  0  0  0  0  0  0  0  0  0  0  0
   -7.0259   23.0524  -31.3170 H   0  0  0  0  0  0  0  0  0  0  0  0
  1  2  1  0
  2  3  1  0
  3  4  1  0
  4  5  1  0
  5  6  1  0
  6  7  1  0
  7  8  2  0
  8  9  1  0
  9 10  2  0
 10 11  1  0
 11 12  2  0
 12 13  1  0
 13 14  2  0
 14 15  1  0
 14 16  1  0
 16 17  1  0
 17 18  1  0
 18 19  2  0
 19 20  1  0
 20 21  2  0
 21 22  1  0
 22 23  2  0
 23 24  1  0
 24  7  1  0
 13  8  1  0
 24 16  2  0
 23 18  1  0
  1 25  1  0
  1 26  1  0
  1 27  1  0
  2 28  1  0
  2 29  1  0
  4 30  1  0
  4 31  1  0
  5 32  1  0
  5 33  1  0
  6 34  1  0
  9 35  1  0
 10 36  1  0
 11 37  1  0
 12 38  1  0
 15 39  1  0
 15 40  1  0
 15 41  1  0
 17 42  1  0
 19 43  1  0
 20 44  1  0
 21 45  1  0
 22 46  1  0
M  CHG  1  14   1
M  END
>  <smiles>  (19) 
CCOCCNc1c2ccccc2[n+](C)c2[nH]c3ccccc3c12

>  <score_type>  (19) 
oracle

>  <origin>  (19) 
adg

>  <m_score__min__energy>  (19) 
-8.6400000000000006

>  <m_primary>  (19) 
energy

$$$$
22:0
     RDKit          3D

 62 65  0  0  0  0  0  0  0  0999 V2000
   -0.9280   22.3590  -29.5140 C   0  0  0  0  0  0  0  0  0  0  0  0
   -0.5430   23.8030  -29.1960 C   0  0  0  0  0  0  0  0  0  0  0  0
   -1.6900   24.6100  -28.8920 N   0  0  0  0  0  0  0  0  0  0  0  0
   -1.6230   25.2810  -27.6560 C   0  0  0  0  0  0  0  0  0  0  0  0
   -2.6810   24.9300  -26.6460 C   0  0  0  0  0  0  0  0  0  0  0  0
   -2.8850   23.8040  -29.1240 C   0  0  0  0  0  0  0  0  0  0  0  0
   -3.5110   24.1300  -30.4480 C   0  0  0  0  0  0  0  0  0  0  0  0
   -4.6540   24.7260  -30.4840 O   0  0  0  0  0  0  0  0  0  0  0  0
   -5.7150   24.7880  -31.2210 C   0  0  0  0  0  0  0  0  0  0  0  0
   -6.5920   23.5620  -31.3000 C   0  0  0  0  0  0  0  0  0  0  0  0
   -6.3610   22.8590  -32.5310 N   0  0  0  0  0  0  0  0  0  0  0  0
   -6.1730   21.4620  -32.6600 C   0  0  0  0  0  0  0  0  0  0  0  0
   -4.8970   20.9870  -32.9370 C   0  0  0  0  0  0  0  0  0  0  0  0
   -4.6510   19.6140  -33.0720 C   0  0  0  0  0  0  0  0  0  0  0  0
   -5.6330   18.7090  -32.9480 N   0  0  0  0  0  0  0  0  0  0  0  0
   -5.5220   17.3190  -33.2860 C   0  0  0  0  0  0  0  0  0  0  0  0
   -6.8930   19.1650  -32.6680 C   0  0  0  0  0  0  0  0  0  0  0  0
   -7.9490   18.2870  -32.4840 C   0  0  0  0  0  0  0  0  0  0  0  0
   -9.2360   18.7150  -32.1740 C   0  0  0  0  0  0  0  0  0  0  0  0
   -9.4820   20.0590  -32.0400 C   0  0  0  0  0  0  0  0  0  0  0  0
   -8.4200   20.9120  -32.2250 C   0  0  0  0  0  0  0  0  0  0  0  0
   -7.1460   20.5150  -32.5300 C   0  0  0  0  0  0  0  0  0  0  0  0
   -3.2980   19.2440  -33.4000 C   0  0  0  0  0  0  0  0  0  0  0  0
   -2.9100   17.9290  -33.3810 C   0  0  0  0  0  0  0  0  0  0  0  0
   -1.5580   17.5570  -33.5660 C   0  0  0  0  0  0  0  0  0  0  0  0
   -0.6540   18.5590  -33.7590 C   0  0  0  0  0  0  0  0  0  0  0  0
   -0.9850   19.8870  -33.7830 C   0  0  0  0  0  0  0  0  0  0  0  0
   -2.3320   20.1920  -33.5980 C   0  0  0  0  0  0  0  0  0  0  0  0
   -2.6370   21.5460  -33.6320 O   0  0  0  0  0  0  0  0  0  0  0  0
   -3.8260   22.0060  -33.0520 C   0  0  0  0  0  0  0  0  0  0  0  0
   -1.0760   21.8039  -28.5759 H   0  0  0  0  0  0  0  0  0  0  0  0
   -1.8604   22.3481  -30.0975 H   0  0  0  0  0  0  0  0  0  0  0  0
   -0.1248   21.8854  -30.0975 H   0  0  0  0  0  0  0  0  0  0  0  0
    0.1343   23.8074  -28.3293 H   0  0  0  0  0  0  0  0  0  0  0  0
   -0.0540   24.2282  -30.0849 H   0  0  0  0  0  0  0  0  0  0  0  0
   -0.6441   25.0576  -27.2066 H   0  0  0  0  0  0  0  0  0  0  0  0
   -1.7847   26.3433  -27.8912 H   0  0  0  0  0  0  0  0  0  0  0  0
   -2.2780   25.0637  -25.6313 H   0  0  0  0  0  0  0  0  0  0  0  0
   -3.5522   25.5873  -26.7841 H   0  0  0  0  0  0  0  0  0  0  0  0
   -2.9866   23.8823  -26.7841 H   0  0  0  0  0  0  0  0  0  0  0  0
   -2.6080   22.7395  -29.1105 H   0  0  0  0  0  0  0  0  0  0  0  0
   -3.6138   24.0253  -28.3303 H   0  0  0  0  0  0  0  0  0  0  0  0
   -2.7993   24.7716  -30.9882 H   0  0  0  0  0  0  0  0  0  0  0  0
   -3.7233   23.1417  -30.8817 H   0  0  0  0  0  0  0  0  0  0  0  0
   -6.3351   25.6101  -30.8342 H   0  0  0  0  0  0  0  0  0  0  0  0
   -5.3332   24.9207  -32.2440 H   0  0  0  0  0  0  0  0  0  0  0  0
   -6.3623   22.8971  -30.4544 H   0  0  0  0  0  0  0  0  0  0  0  0
   -7.6460   23.8743  -31.2601 H   0  0  0  0  0  0  0  0  0  0  0  0
   -6.3270   23.4150  -33.4250 H   0  0  0  0  0  0  0  0  0  0  0  0
   -5.4742   16.7203  -32.3645 H   0  0  0  0  0  0  0  0  0  0  0  0
   -6.3987   17.0141  -33.8763 H   0  0  0  0  0  0  0  0  0  0  0  0
   -4.6081   17.1570  -33.8763 H   0  0  0  0  0  0  0  0  0  0  0  0
   -7.7622   17.2079  -32.5872 H   0  0  0  0  0  0  0  0  0  0  0  0
  -10.0473   17.9848  -32.0378 H   0  0  0  0  0  0  0  0  0  0  0  0
  -10.4856   20.4370  -31.7952 H   0  0  0  0  0  0  0  0  0  0  0  0
   -8.6074   21.9909  -32.1204 H   0  0  0  0  0  0  0  0  0  0  0  0
   -3.6662   17.1469  -33.2184 H   0  0  0  0  0  0  0  0  0  0  0  0
   -1.2484   16.5015  -33.5546 H   0  0  0  0  0  0  0  0  0  0  0  0
    0.4014   18.2847  -33.9037 H   0  0  0  0  0  0  0  0  0  0  0  0
   -0.2290   20.6705  -33.9398 H   0  0  0  0  0  0  0  0  0  0  0  0
   -3.5939   22.3739  -32.0417 H   0  0  0  0  0  0  0  0  0  0  0  0
   -4.2139   22.7886  -33.7206 H   0  0  0  0  0  0  0  0  0  0  0  0
  1  2  1  0
  2  3  1  0
  3  4  1  0
  4  5  1  0
  3  6  1  0
  6  7  1  0
  7  8  1  0
  8  9  1  0
  9 10  1  0
 10 11  1  0
 11 12  1  0
 12 13  2  0
 13 14  1  0
 14 15  2  0
 15 16  1  0
 15 17  1  0
 17 18  2  0
 18 19  1  0
 19 20  2  0
 20 21  1  0
 21 22  2  0
 14 23  1  0
 23 24  2  0
 24 25  1  0
 25 26  2  0
 26 27  1  0
 27 28  2  0
 28 29  1  0
 29 30  1  0
 22 12  1  0
 28 23  1  0
 30 13  1  0
 22 17  1  0
  1 31  1  0
  1 32  1  0
  1 33  1  0
  2 34  1  0
  2 35  1  0
  4 36  1  0
  4 37  1  0
  5 38  1  0
  5 39  1  0
  5 40  1  0
  6 41  1  0
  6 42  1  0
  7 43  1  0
  7 44  1  0
  9 45  1  0
  9 46  1  0
 10 47  1  0
 10 48  1  0
 11 49  1  0
 16 50  1  0
 16 51  1  0
 16 52  1  0
 18 53  1  0
 19 54  1  0
 20 55  1  0
 21 56  1  0
 24 57  1  0
 25 58  1  0
 26 59  1  0
 27 60  1  0
 30 61  1  0
 30 62  1  0
M  CHG  1  15   1
M  END
>  <smiles>  (20) 
CCN(CC)CCOCCNc1c2c([n+](C)c3ccccc13)-c1ccccc1OC2

>  <score_type>  (20) 
oracle

>  <origin>  (20) 
adg

>  <m_score__min__energy>  (20) 
-8.6500000000000004

>  <m_primary>  (20) 
energy

$$$$
23:0
     RDKit          3D

 52 55  0  0  0  0  0  0  0  0999 V2000
   -4.4990   24.5390  -29.0280 C   0  0  0  0  0  0  0  0  0  0  0  0
   -4.2070   24.6380  -30.4670 N   0  0  0  0  0  0  0  0  0  0  0  0
   -3.4130   23.4320  -30.8310 C   0  0  0  0  0  0  0  0  0  0  0  0
   -5.4510   24.6360  -31.2130 C   0  0  0  0  0  0  0  0  0  0  0  0
   -6.1410   23.2660  -31.1740 C   0  0  0  0  0  0  0  0  0  0  0  0
   -5.8940   22.6820  -32.4710 N   0  0  0  0  0  0  0  0  0  0  0  0
   -5.8140   21.2760  -32.7110 C   0  0  0  0  0  0  0  0  0  0  0  0
   -6.9600   20.4830  -32.5720 C   0  0  0  0  0  0  0  0  0  0  0  0
   -6.8940   19.1230  -32.8040 C   0  0  0  0  0  0  0  0  0  0  0  0
   -5.7160   18.5270  -33.1720 N   0  0  0  0  0  0  0  0  0  0  0  0
   -5.6720   17.0830  -33.4210 C   0  0  0  0  0  0  0  0  0  0  0  0
   -4.6180   19.2960  -33.3030 C   0  0  0  0  0  0  0  0  0  0  0  0
   -3.4650   18.6700  -33.6720 N   0  0  0  0  0  0  0  0  0  0  0  0
   -2.3160   19.3850  -33.8270 C   0  0  0  0  0  0  0  0  0  0  0  0
   -1.1470   18.7550  -34.2050 C   0  0  0  0  0  0  0  0  0  0  0  0
    0.0200   19.4660  -34.3710 C   0  0  0  0  0  0  0  0  0  0  0  0
   -0.0220   20.8120  -34.1480 C   0  0  0  0  0  0  0  0  0  0  0  0
   -1.1490   21.5090  -33.7680 C   0  0  0  0  0  0  0  0  0  0  0  0
   -2.3240   20.7630  -33.6070 C   0  0  0  0  0  0  0  0  0  0  0  0
   -3.4780   21.4350  -33.2290 C   0  0  0  0  0  0  0  0  0  0  0  0
   -4.6160   20.6590  -33.0860 C   0  0  0  0  0  0  0  0  0  0  0  0
   -8.0570   18.2080  -32.6850 C   0  0  0  0  0  0  0  0  0  0  0  0
   -9.0600   18.8560  -31.7580 C   0  0  0  0  0  0  0  0  0  0  0  0
   -9.4090   20.2450  -32.2430 C   0  0  0  0  0  0  0  0  0  0  0  0
   -8.2200   21.1700  -32.1790 C   0  0  0  0  0  0  0  0  0  0  0  0
   -3.6114   24.8399  -28.4522 H   0  0  0  0  0  0  0  0  0  0  0  0
   -5.3403   25.2021  -28.7781 H   0  0  0  0  0  0  0  0  0  0  0  0
   -4.7636   23.5009  -28.7781 H   0  0  0  0  0  0  0  0  0  0  0  0
   -3.0781   22.9233  -29.9150 H   0  0  0  0  0  0  0  0  0  0  0  0
   -4.0374   22.7470  -31.4234 H   0  0  0  0  0  0  0  0  0  0  0  0
   -2.5370   23.7348  -31.4234 H   0  0  0  0  0  0  0  0  0  0  0  0
   -6.1272   25.3869  -30.7784 H   0  0  0  0  0  0  0  0  0  0  0  0
   -5.2189   24.8704  -32.2624 H   0  0  0  0  0  0  0  0  0  0  0  0
   -5.7094   22.6390  -30.3799 H   0  0  0  0  0  0  0  0  0  0  0  0
   -7.2164   23.3527  -30.9597 H   0  0  0  0  0  0  0  0  0  0  0  0
   -5.7510   23.2740  -33.3480 H   0  0  0  0  0  0  0  0  0  0  0  0
   -5.6556   16.5458  -32.4613 H   0  0  0  0  0  0  0  0  0  0  0  0
   -6.5614   16.7825  -33.9943 H   0  0  0  0  0  0  0  0  0  0  0  0
   -4.7659   16.8372  -33.9943 H   0  0  0  0  0  0  0  0  0  0  0  0
   -1.1482   17.6684  -34.3761 H   0  0  0  0  0  0  0  0  0  0  0  0
    0.9529   18.9673  -34.6725 H   0  0  0  0  0  0  0  0  0  0  0  0
    0.9099   21.3811  -34.2810 H   0  0  0  0  0  0  0  0  0  0  0  0
   -1.1269   22.5958  -33.5997 H   0  0  0  0  0  0  0  0  0  0  0  0
   -3.4881   22.5208  -33.0532 H   0  0  0  0  0  0  0  0  0  0  0  0
   -8.5104   18.0481  -33.6744 H   0  0  0  0  0  0  0  0  0  0  0  0
   -7.7401   17.2325  -32.2877 H   0  0  0  0  0  0  0  0  0  0  0  0
   -9.9730   18.2433  -31.7272 H   0  0  0  0  0  0  0  0  0  0  0  0
   -8.6192   18.9304  -30.7529 H   0  0  0  0  0  0  0  0  0  0  0  0
   -9.7571   20.1825  -33.2846 H   0  0  0  0  0  0  0  0  0  0  0  0
  -10.1958   20.6501  -31.5897 H   0  0  0  0  0  0  0  0  0  0  0  0
   -8.3909   22.0164  -32.8605 H   0  0  0  0  0  0  0  0  0  0  0  0
   -8.1110   21.5132  -31.1396 H   0  0  0  0  0  0  0  0  0  0  0  0
  1  2  1  0
  2  3  1  0
  2  4  1  0
  4  5  1  0
  5  6  1  0
  6  7  1  0
  7  8  2  0
  8  9  1  0
  9 10  2  0
 10 11  1  0
 10 12  1  0
 12 13  2  0
 13 14  1  0
 14 15  2  0
 15 16  1  0
 16 17  2  0
 17 18  1  0
 18 19  2  0
 19 20  1  0
 20 21  2  0
  9 22  1  0
 22 23  1  0
 23 24  1  0
 24 25  1  0
 21  7  1  0
 25  8  1  0
 21 12  1  0
 19 14  1  0
  1 26  1  0
  1 27  1  0
  1 28  1  0
  3 29  1  0
  3 30  1  0
  3 31  1  0
  4 32  1  0
  4 33  1  0
  5 34  1  0
  5 35  1  0
  6 36  1  0
 11 37  1  0
 11 38  1  0
 11 39  1  0
 15 40  1  0
 16 41  1  0
 17 42  1  0
 18 43  1  0
 20 44  1  0
 22 45  1  0
 22 46  1  0
 23 47  1  0
 23 48  1  0
 24 49  1  0
 24 50  1  0
 25 51  1  0
 25 52  1  0
M  CHG  1  10   1
M  END
>  <smiles>  (21) 
CN(C)CCNc1c2c([n+](C)c3nc4ccccc4cc13)CCCC2

>  <score_type>  (21) 
oracle

>  <origin>  (21) 
adg

>  <m_score__min__energy>  (21) 
-9.1400000000000006

>  <m_primary>  (21) 
energy

$$$$
24:0
     RDKit          3D

 73 75  0  0  0  0  0  0  0  0999 V2000
   -0.3670   18.0900  -32.5270 C   0  0  0  0  0  0  0  0  0  0  0  0
   -0.2970   18.3840  -31.0350 C   0  0  0  0  0  0  0  0  0  0  0  0
    0.0510   19.7230  -30.7090 N   0  0  0  0  0  0  0  0  0  0  0  0
    0.0070   20.6650  -31.7860 C   0  0  0  0  0  0  0  0  0  0  0  0
   -1.3410   21.1500  -32.1750 C   0  0  0  0  0  0  0  0  0  0  0  0
   -2.4490   20.8380  -31.3120 N   0  0  0  0  0  0  0  0  0  0  0  0
   -3.7540   21.3650  -31.4200 C   0  0  0  0  0  0  0  0  0  0  0  0
   -4.6420   20.6680  -32.2030 C   0  0  0  0  0  0  0  0  0  0  0  0
   -4.2250   19.5550  -32.9020 C   0  0  0  0  0  0  0  0  0  0  0  0
   -5.1130   18.8690  -33.6930 C   0  0  0  0  0  0  0  0  0  0  0  0
   -6.4390   19.2370  -33.8340 C   0  0  0  0  0  0  0  0  0  0  0  0
   -6.8650   20.3560  -33.1340 C   0  0  0  0  0  0  0  0  0  0  0  0
   -5.9700   21.0180  -32.3610 C   0  0  0  0  0  0  0  0  0  0  0  0
   -6.3680   22.1070  -31.6920 N   0  0  0  0  0  0  0  0  0  0  0  0
   -7.7500   22.5410  -31.7960 C   0  0  0  0  0  0  0  0  0  0  0  0
   -5.5050   22.8020  -30.9240 C   0  0  0  0  0  0  0  0  0  0  0  0
   -5.8540   24.2680  -29.9670 S   0  0  0  0  0  0  0  0  0  0  0  0
   -4.1760   24.4140  -29.3580 C   0  0  0  0  0  0  0  0  0  0  0  0
   -3.4670   23.3270  -29.9340 C   0  0  0  0  0  0  0  0  0  0  0  0
   -1.9540   23.3890  -29.7060 C   0  0  0  0  0  0  0  0  0  0  0  0
   -1.5800   22.5660  -28.4660 C   0  0  0  0  0  0  0  0  0  0  0  0
   -1.6360   21.1640  -28.7020 N   0  0  0  0  0  0  0  0  0  0  0  0
   -2.7080   20.4530  -28.1570 C   0  0  0  0  0  0  0  0  0  0  0  0
   -2.7950   20.0490  -26.7330 C   0  0  0  0  0  0  0  0  0  0  0  0
   -1.9670   18.8810  -26.3920 C   0  0  0  0  0  0  0  0  0  0  0  0
   -1.2340   18.1720  -27.4980 C   0  0  0  0  0  0  0  0  0  0  0  0
   -0.0810   18.7290  -28.0370 N   0  0  0  0  0  0  0  0  0  0  0  0
    1.1770   18.1200  -27.8420 C   0  0  0  0  0  0  0  0  0  0  0  0
    2.3160   19.0040  -28.3580 C   0  0  0  0  0  0  0  0  0  0  0  0
    2.1870   20.4200  -27.8460 C   0  0  0  0  0  0  0  0  0  0  0  0
    0.8940   21.0120  -28.1020 N   0  0  0  0  0  0  0  0  0  0  0  0
   -4.1840   22.5230  -30.7230 C   0  0  0  0  0  0  0  0  0  0  0  0
   -0.6193   17.0304  -32.6805 H   0  0  0  0  0  0  0  0  0  0  0  0
   -1.1399   18.7216  -32.9893 H   0  0  0  0  0  0  0  0  0  0  0  0
    0.6076   18.3056  -32.9893 H   0  0  0  0  0  0  0  0  0  0  0  0
   -1.2831   18.1700  -30.5970 H   0  0  0  0  0  0  0  0  0  0  0  0
    0.5038   17.7476  -30.6303 H   0  0  0  0  0  0  0  0  0  0  0  0
   -0.1790   20.0430  -29.7750 H   0  0  0  0  0  0  0  0  0  0  0  0
    0.6069   21.5391  -31.4926 H   0  0  0  0  0  0  0  0  0  0  0  0
    0.3924   20.1272  -32.6648 H   0  0  0  0  0  0  0  0  0  0  0  0
   -1.2845   22.2459  -32.2505 H   0  0  0  0  0  0  0  0  0  0  0  0
   -1.5642   20.6161  -33.1105 H   0  0  0  0  0  0  0  0  0  0  0  0
   -2.2860   20.1610  -30.5220 H   0  0  0  0  0  0  0  0  0  0  0  0
   -3.1811   19.2168  -32.8259 H   0  0  0  0  0  0  0  0  0  0  0  0
   -4.7532   17.9853  -34.2403 H   0  0  0  0  0  0  0  0  0  0  0  0
   -7.1270   18.6659  -34.4747 H   0  0  0  0  0  0  0  0  0  0  0  0
   -7.9077   20.6991  -33.2048 H   0  0  0  0  0  0  0  0  0  0  0  0
   -8.1698   22.6728  -30.7878 H   0  0  0  0  0  0  0  0  0  0  0  0
   -7.7944   23.4963  -32.3395 H   0  0  0  0  0  0  0  0  0  0  0  0
   -8.3326   21.7826  -32.3395 H   0  0  0  0  0  0  0  0  0  0  0  0
   -3.7784   25.1838  -28.6803 H   0  0  0  0  0  0  0  0  0  0  0  0
   -1.4353   22.9800  -30.5856 H   0  0  0  0  0  0  0  0  0  0  0  0
   -1.6531   24.4356  -29.5510 H   0  0  0  0  0  0  0  0  0  0  0  0
   -0.5565   22.8315  -28.1626 H   0  0  0  0  0  0  0  0  0  0  0  0
   -2.3107   22.8004  -27.6779 H   0  0  0  0  0  0  0  0  0  0  0  0
   -0.7360   20.7530  -28.3460 H   0  0  0  0  0  0  0  0  0  0  0  0
   -3.6009   21.0662  -28.3483 H   0  0  0  0  0  0  0  0  0  0  0  0
   -2.5811   19.4754  -28.6450 H   0  0  0  0  0  0  0  0  0  0  0  0
   -2.4700   20.8969  -26.1121 H   0  0  0  0  0  0  0  0  0  0  0  0
   -3.8408   19.7642  -26.5456 H   0  0  0  0  0  0  0  0  0  0  0  0
   -1.2120   19.2190  -25.6669 H   0  0  0  0  0  0  0  0  0  0  0  0
   -2.6899   18.1361  -26.0280 H   0  0  0  0  0  0  0  0  0  0  0  0
   -0.9563   17.1808  -27.1102 H   0  0  0  0  0  0  0  0  0  0  0  0
   -1.9463   18.2066  -28.3355 H   0  0  0  0  0  0  0  0  0  0  0  0
   -0.1300   19.5980  -28.5870 H   0  0  0  0  0  0  0  0  0  0  0  0
    1.3238   17.9397  -26.7668 H   0  0  0  0  0  0  0  0  0  0  0  0
    1.1929   17.1746  -28.4040 H   0  0  0  0  0  0  0  0  0  0  0  0
    3.2755   18.5864  -28.0190 H   0  0  0  0  0  0  0  0  0  0  0  0
    2.2678   19.0263  -29.4567 H   0  0  0  0  0  0  0  0  0  0  0  0
    2.3577   20.4138  -26.7593 H   0  0  0  0  0  0  0  0  0  0  0  0
    2.9314   21.0263  -28.3829 H   0  0  0  0  0  0  0  0  0  0  0  0
    0.5420   20.8120  -29.0800 H   0  0  0  0  0  0  0  0  0  0  0  0
    0.1770   20.7940  -27.3670 H   0  0  0  0  0  0  0  0  0  0  0  0
  1  2  1  0
  2  3  1  0
  3  4  1  0
  4  5  1  0
  5  6  1  0
  6  7  1  0
  7  8  2  0
  8  9  1  0
  9 10  2  0
 10 11  1  0
 11 12  2  0
 12 13  1  0
 13 14  2  0
 14 15  1  0
 14 16  1  0
 16 17  1  0
 17 18  1  0
 18 19  2  0
 19 20  1  0
 20 21  1  0
 21 22  1  0
 22 23  1  0
 23 24  1  0
 24 25  1  0
 25 26  1  0
 26 27  1  0
 27 28  1  0
 28 29  1  0
 29 30  1  0
 30 31  1  0
 19 32  1  0
 32  7  1  0
 13  8  1  0
 32 16  2  0
  1 33  1  0
  1 34  1  0
  1 35  1  0
  2 36  1  0
  2 37  1  0
  3 38  1  0
  4 39  1  0
  4 40  1  0
  5 41  1  0
  5 42  1  0
  6 43  1  0
  9 44  1  0
 10 45  1  0
 11 46  1  0
 12 47  1  0
 15 48  1  0
 15 49  1  0
 15 50  1  0
 18 51  1  0
 20 52  1  0
 20 53  1  0
 21 54  1  0
 21 55  1  0
 22 56  1  0
 23 57  1  0
 23 58  1  0
 24 59  1  0
 24 60  1  0
 25 61  1  0
 25 62  1  0
 26 63  1  0
 26 64  1  0
 27 65  1  0
 28 66  1  0
 28 67  1  0
 29 68  1  0
 29 69  1  0
 30 70  1  0
 30 71  1  0
 31 72  1  0
 31 73  1  0
M  CHG  1  14   1
M  END
>  <smiles>  (22) 
CCNCCNc1c2ccccc2[n+](C)c2scc(CCNCCCCNCCCN)c12

>  <score_type>  (22) 
oracle

>  <origin>  (22) 
adg

>  <m_score__min__energy>  (22) 
-7.9400000000000004

>  <m_primary>  (22) 
energy

$$$$
25:0
     RDKit          3D

 50 53  0  0  0  0  0  0  0  0999 V2000
    1.6750   21.0210  -36.0800 C   0  0  0  0  0  0  0  0  0  0  0  0
    0.9660   22.1690  -35.3850 C   0  0  0  0  0  0  0  0  0  0  0  0
   -0.2540   21.6830  -34.7670 N   0  0  0  0  0  0  0  0  0  0  0  0
   -0.0630   21.2000  -33.4290 C   0  0  0  0  0  0  0  0  0  0  0  0
   -1.3430   20.7180  -32.7900 C   0  0  0  0  0  0  0  0  0  0  0  0
   -2.4860   20.8640  -33.6250 N   0  0  0  0  0  0  0  0  0  0  0  0
   -3.7130   20.1570  -33.4850 C   0  0  0  0  0  0  0  0  0  0  0  0
   -4.8700   20.7880  -32.9880 C   0  0  0  0  0  0  0  0  0  0  0  0
   -5.9940   20.0200  -32.8890 C   0  0  0  0  0  0  0  0  0  0  0  0
   -6.0310   18.6990  -33.2430 N   0  0  0  0  0  0  0  0  0  0  0  0
   -7.2610   17.9730  -33.0920 C   0  0  0  0  0  0  0  0  0  0  0  0
   -4.9080   18.1290  -33.7130 C   0  0  0  0  0  0  0  0  0  0  0  0
   -4.8580   16.8050  -34.0950 C   0  0  0  0  0  0  0  0  0  0  0  0
   -3.6960   16.2210  -34.5830 C   0  0  0  0  0  0  0  0  0  0  0  0
   -2.5430   16.9340  -34.7070 C   0  0  0  0  0  0  0  0  0  0  0  0
   -1.0780   16.2060  -35.3190 Cl  0  0  0  0  0  0  0  0  0  0  0  0
   -2.5620   18.2610  -34.3330 C   0  0  0  0  0  0  0  0  0  0  0  0
   -3.7130   18.8350  -33.8510 C   0  0  0  0  0  0  0  0  0  0  0  0
   -7.2140   20.6980  -32.4340 C   0  0  0  0  0  0  0  0  0  0  0  0
   -8.3680   20.0600  -32.2520 N   0  0  0  0  0  0  0  0  0  0  0  0
   -9.4840   20.6380  -31.8040 C   0  0  0  0  0  0  0  0  0  0  0  0
   -9.4840   21.9780  -31.5000 C   0  0  0  0  0  0  0  0  0  0  0  0
   -8.3030   22.6620  -31.6800 C   0  0  0  0  0  0  0  0  0  0  0  0
   -7.1420   22.0310  -32.1530 C   0  0  0  0  0  0  0  0  0  0  0  0
   -5.9750   22.9070  -32.3370 C   0  0  0  0  0  0  0  0  0  0  0  0
   -4.7070   22.1870  -32.5980 C   0  0  0  0  0  0  0  0  0  0  0  0
    2.0958   20.3396  -35.3259 H   0  0  0  0  0  0  0  0  0  0  0  0
    0.9574   20.4737  -36.7089 H   0  0  0  0  0  0  0  0  0  0  0  0
    2.4857   21.4176  -36.7089 H   0  0  0  0  0  0  0  0  0  0  0  0
    1.6246   22.5924  -34.6123 H   0  0  0  0  0  0  0  0  0  0  0  0
    0.7181   22.9464  -36.1227 H   0  0  0  0  0  0  0  0  0  0  0  0
   -1.0080   22.3960  -34.8470 H   0  0  0  0  0  0  0  0  0  0  0  0
    0.6520   20.3645  -33.4562 H   0  0  0  0  0  0  0  0  0  0  0  0
    0.3114   22.0398  -32.8252 H   0  0  0  0  0  0  0  0  0  0  0  0
   -1.2279   19.6528  -32.5410 H   0  0  0  0  0  0  0  0  0  0  0  0
   -1.5129   21.3397  -31.8986 H   0  0  0  0  0  0  0  0  0  0  0  0
   -2.4380   21.5470  -34.4170 H   0  0  0  0  0  0  0  0  0  0  0  0
   -7.4811   17.8431  -32.0221 H   0  0  0  0  0  0  0  0  0  0  0  0
   -8.0785   18.5334  -33.5691 H   0  0  0  0  0  0  0  0  0  0  0  0
   -7.1654   16.9865  -33.5691 H   0  0  0  0  0  0  0  0  0  0  0  0
   -5.7673   16.1917  -34.0106 H   0  0  0  0  0  0  0  0  0  0  0  0
   -3.7077   15.1606  -34.8753 H   0  0  0  0  0  0  0  0  0  0  0  0
   -1.6472   18.8654  -34.4214 H   0  0  0  0  0  0  0  0  0  0  0  0
  -10.4011   20.0437  -31.6784 H   0  0  0  0  0  0  0  0  0  0  0  0
  -10.3884   22.4823  -31.1289 H   0  0  0  0  0  0  0  0  0  0  0  0
   -8.2682   23.7362  -31.4459 H   0  0  0  0  0  0  0  0  0  0  0  0
   -6.1750   23.5726  -33.1897 H   0  0  0  0  0  0  0  0  0  0  0  0
   -5.8385   23.4524  -31.3915 H   0  0  0  0  0  0  0  0  0  0  0  0
   -4.1765   22.7092  -33.4079 H   0  0  0  0  0  0  0  0  0  0  0  0
   -4.1503   22.1830  -31.6493 H   0  0  0  0  0  0  0  0  0  0  0  0
  1  2  1  0
  2  3  1  0
  3  4  1  0
  4  5  1  0
  5  6  1  0
  6  7  1  0
  7  8  2  0
  8  9  1  0
  9 10  2  0
 10 11  1  0
 10 12  1  0
 12 13  2  0
 13 14  1  0
 14 15  2  0
 15 16  1  0
 15 17  1  0
 17 18  2  0
  9 19  1  0
 19 20  2  0
 20 21  1  0
 21 22  2  0
 22 23  1  0
 23 24  2  0
 24 25  1  0
 25 26  1  0
 18  7  1  0
 24 19  1  0
 26  8  1  0
 18 12  1  0
  1 27  1  0
  1 28  1  0
  1 29  1  0
  2 30  1  0
  2 31  1  0
  3 32  1  0
  4 33  1  0
  4 34  1  0
  5 35  1  0
  5 36  1  0
  6 37  1  0
 11 38  1  0
 11 39  1  0
 11 40  1  0
 13 41  1  0
 14 42  1  0
 17 43  1  0
 21 44  1  0
 22 45  1  0
 23 46  1  0
 25 47  1  0
 25 48  1  0
 26 49  1  0
 26 50  1  0
M  CHG  1  10   1
M  END
>  <smiles>  (23) 
CCNCCNc1c2c([n+](C)c3ccc(Cl)cc13)-c1ncccc1CC2

>  <score_type>  (23) 
oracle

>  <origin>  (23) 
adg

>  <m_score__min__energy>  (23) 
-9.4499999999999993

>  <m_primary>  (23) 
energy

$$$$
26:0
     RDKit          3D

 36 38  0  0  1  0  0  0  0  0999 V2000
   -6.4500   25.6510  -29.3160 C   0  0  0  0  0  0  0  0  0  0  0  0
   -5.5980   26.0180  -30.4930 C   0  0  0  0  0  0  0  0  0  0  0  0
   -4.7890   24.9280  -30.9960 N   0  0  0  0  0  0  0  0  0  0  0  0
   -5.3700   23.8870  -31.4680 C   0  0  0  0  0  0  0  0  0  0  0  0
   -6.6950   23.8100  -31.7990 C   0  0  0  0  0  0  0  0  0  0  0  0
   -7.3090   22.6880  -32.3050 C   0  0  0  0  0  0  0  0  0  0  0  0
   -6.5170   21.5950  -32.4760 N   0  0  0  0  0  0  0  0  0  0  0  0
   -6.8210   20.3880  -32.9380 N   0  0  0  0  0  0  0  0  0  0  0  0
   -5.7220   19.6130  -32.9350 C   0  0  0  0  0  0  0  0  0  0  0  0
   -5.6920   18.2230  -33.3790 C   0  0  0  0  0  0  0  0  0  0  0  0
   -6.8460   17.4810  -33.2960 C   0  0  0  0  0  0  0  0  0  0  0  0
   -6.8380   16.1680  -33.7090 C   0  0  0  0  0  0  0  0  0  0  0  0
   -5.7010   15.5630  -34.2100 C   0  0  0  0  0  0  0  0  0  0  0  0
   -5.7790   14.2420  -34.6030 O   0  0  0  0  0  0  0  0  0  0  0  0
   -7.0290   13.5800  -34.6030 C   0  0  0  0  0  0  0  0  0  0  0  0
   -4.5560   16.3250  -34.2840 C   0  0  0  0  0  0  0  0  0  0  0  0
   -4.5350   17.6590  -33.8720 C   0  0  0  0  0  0  0  0  0  0  0  0
   -4.6880   20.3840  -32.4460 C   0  0  0  0  0  0  0  0  0  0  0  0
   -5.2110   21.6490  -32.1570 C   0  0  0  0  0  0  0  0  0  0  0  0
   -4.6270   22.7660  -31.6590 N   0  0  0  0  0  0  0  0  0  0  0  0
   -5.9104   25.8834  -28.3861 H   0  0  0  0  0  0  0  0  0  0  0  0
   -7.3878   26.2250  -29.3490 H   0  0  0  0  0  0  0  0  0  0  0  0
   -6.6772   24.5752  -29.3490 H   0  0  0  0  0  0  0  0  0  0  0  0
   -6.2572   26.3623  -31.3035 H   0  0  0  0  0  0  0  0  0  0  0  0
   -4.9031   26.7995  -30.1519 H   0  0  0  0  0  0  0  0  0  0  0  0
   -7.3126   24.7080  -31.6501 H   0  0  0  0  0  0  0  0  0  0  0  0
   -8.3796   22.6751  -32.5571 H   0  0  0  0  0  0  0  0  0  0  0  0
   -7.7710   20.1130  -33.2460 H   0  0  0  0  0  0  0  0  0  0  0  0
   -7.7686   17.9329  -32.9027 H   0  0  0  0  0  0  0  0  0  0  0  0
   -7.7660   15.5817  -33.6380 H   0  0  0  0  0  0  0  0  0  0  0  0
   -7.3530   13.4084  -33.5659 H   0  0  0  0  0  0  0  0  0  0  0  0
   -7.7734   14.2021  -35.1215 H   0  0  0  0  0  0  0  0  0  0  0  0
   -6.9327   12.6147  -35.1215 H   0  0  0  0  0  0  0  0  0  0  0  0
   -3.6346   15.8711  -34.6777 H   0  0  0  0  0  0  0  0  0  0  0  0
   -3.6099   18.2503  -33.9398 H   0  0  0  0  0  0  0  0  0  0  0  0
   -3.6448   20.0634  -32.3086 H   0  0  0  0  0  0  0  0  0  0  0  0
  1  2  1  0
  2  3  1  0
  3  4  2  0
  4  5  1  0
  5  6  2  0
  6  7  1  0
  7  8  1  0
  8  9  1  0
  9 10  1  0
 10 11  2  0
 11 12  1  0
 12 13  2  0
 13 14  1  0
 14 15  1  0
 13 16  1  0
 16 17  2  0
  9 18  2  0
 18 19  1  0
 19 20  2  0
 20  4  1  0
 19  7  1  0
 17 10  1  0
  1 21  1  0
  1 22  1  0
  1 23  1  0
  2 24  1  0
  2 25  1  0
  5 26  1  0
  6 27  1  0
  8 28  1  0
 11 29  1  0
 12 30  1  0
 15 31  1  0
 15 32  1  0
 15 33  1  0
 16 34  1  0
 17 35  1  0
 18 36  1  0
M  END
>  <smiles>  (24) 
CCN=c1ccn2[nH]c(-c3ccc(OC)cc3)cc2n1

>  <score_type>  (24) 
oracle

>  <origin>  (24) 
adg

>  <m_score__min__energy>  (24) 
-6.4199999999999999

>  <m_primary>  (24) 
energy

$$$$
