0:0
     RDKit          3D

 42 44  0  0  0  0  0  0  0  0999 V2000
   -6.2220   25.3020  -29.7180 C   0  0  0  0  0  0  0  0  0  0  0  0
   -5.5190   24.9820  -31.0370 C   0  0  0  0  0  0  0  0  0  0  0  0
   -4.2070   24.3330  -30.8210 N   0  0  0  0  0  0  0  0  0  0  0  0
   -3.7420   24.5470  -29.4400 C   0  0  0  0  0  0  0  0  0  0  0  0
   -4.1480   22.9030  -31.2140 C   0  0  0  0  0  0  0  0  0  0  0  0
   -4.6780   22.6030  -32.6300 C   0  0  0  0  0  0  0  0  0  0  0  0
   -5.6700   21.5300  -32.5710 N   0  0  0  0  0  0  0  0  0  0  0  0
   -5.4330   20.2210  -32.8210 C   0  0  0  0  0  0  0  0  0  0  0  0
   -6.6160   19.4890  -32.7420 C   0  0  0  0  0  0  0  0  0  0  0  0
   -6.7710   18.0280  -32.9040 C   0  0  0  0  0  0  0  0  0  0  0  0
   -7.7720   17.4600  -32.3920 O   0  0  0  0  0  0  0  0  0  0  0  0
   -5.7900   17.2130  -33.6460 C   0  0  0  0  0  0  0  0  0  0  0  0
   -5.0270   17.6540  -34.7240 C   0  0  0  0  0  0  0  0  0  0  0  0
   -4.1310   16.6920  -35.2040 C   0  0  0  0  0  0  0  0  0  0  0  0
   -4.1680   15.4950  -34.5020 C   0  0  0  0  0  0  0  0  0  0  0  0
   -5.3170   15.6360  -33.2830 S   0  0  0  0  0  0  0  0  0  0  0  0
   -7.6030   20.4100  -32.4280 C   0  0  0  0  0  0  0  0  0  0  0  0
   -8.9800   20.2610  -32.2450 C   0  0  0  0  0  0  0  0  0  0  0  0
   -9.7360   21.4100  -31.9600 C   0  0  0  0  0  0  0  0  0  0  0  0
   -9.1140   22.6730  -31.8710 C   0  0  0  0  0  0  0  0  0  0  0  0
   -7.7280   22.7990  -32.0660 C   0  0  0  0  0  0  0  0  0  0  0  0
   -6.9950   21.6400  -32.3430 C   0  0  0  0  0  0  0  0  0  0  0  0
   -5.5761   25.0080  -28.8775 H   0  0  0  0  0  0  0  0  0  0  0  0
   -6.4258   26.3816  -29.6636 H   0  0  0  0  0  0  0  0  0  0  0  0
   -7.1700   24.7467  -29.6636 H   0  0  0  0  0  0  0  0  0  0  0  0
   -6.1573   24.3062  -31.6251 H   0  0  0  0  0  0  0  0  0  0  0  0
   -5.3467   25.9290  -31.5694 H   0  0  0  0  0  0  0  0  0  0  0  0
   -4.5096   24.1937  -28.7358 H   0  0  0  0  0  0  0  0  0  0  0  0
   -2.8091   23.9877  -29.2764 H   0  0  0  0  0  0  0  0  0  0  0  0
   -3.5600   25.6194  -29.2764 H   0  0  0  0  0  0  0  0  0  0  0  0
   -3.0986   22.5768  -31.1644 H   0  0  0  0  0  0  0  0  0  0  0  0
   -4.8025   22.3610  -30.5155 H   0  0  0  0  0  0  0  0  0  0  0  0
   -5.1442   23.5088  -33.0449 H   0  0  0  0  0  0  0  0  0  0  0  0
   -3.8416   22.2892  -33.2718 H   0  0  0  0  0  0  0  0  0  0  0  0
   -4.4458   19.7952  -33.0537 H   0  0  0  0  0  0  0  0  0  0  0  0
   -5.1195   18.6611  -35.1565 H   0  0  0  0  0  0  0  0  0  0  0  0
   -3.4601   16.8680  -36.0578 H   0  0  0  0  0  0  0  0  0  0  0  0
   -3.5518   14.6074  -34.7078 H   0  0  0  0  0  0  0  0  0  0  0  0
   -9.4579   19.2732  -32.3218 H   0  0  0  0  0  0  0  0  0  0  0  0
  -10.8216   21.3243  -31.8050 H   0  0  0  0  0  0  0  0  0  0  0  0
   -9.7177   23.5649  -31.6475 H   0  0  0  0  0  0  0  0  0  0  0  0
   -7.2341   23.7798  -32.0027 H   0  0  0  0  0  0  0  0  0  0  0  0
  1  2  1  0
  2  3  1  0
  3  4  1  0
  3  5  1  0
  5  6  1  0
  6  7  1  0
  7  8  1  0
  8  9  2  0
  9 10  1  0
 10 11  2  0
 10 12  1  0
 12 13  2  0
 13 14  1  0
 14 15  2  0
 15 16  1  0
  9 17  1  0
 17 18  2  0
 18 19  1  0
 19 20  2  0
 20 21  1  0
 21 22  2  0
 22  7  1  0
 16 12  1  0
 22 17  1  0
  1 23  1  0
  1 24  1  0
  1 25  1  0
  2 26  1  0
  2 27  1  0
  4 28  1  0
  4 29  1  0
  4 30  1  0
  5 31  1  0
  5 32  1  0
  6 33  1  0
  6 34  1  0
  8 35  1  0
 13 36  1  0
 14 37  1  0
 15 38  1  0
 18 39  1  0
 19 40  1  0
 20 41  1  0
 21 42  1  0
M  END
>  <UniqueID>  (1) 
1

>  <SMILES>  (1) 
CCN(C)CCn1cc(C(=O)c2cccs2)c2ccccc21

>  <Energy>  (1) 
106.6016495161231

>  <Genealogy>  (1) 
CCN(C)CCn1cc(C(=O)c2cccs2)c2ccccc21 (3D coordinates assigned)
CCN(C)CCn1cc(C(=O)c2cccs2)c2ccccc21 (optimized conformer: 106.6016495161231 kcal/mol)

>  <smiles>  (1) 
CCN(C)CCn1cc(C(=O)c2cccs2)c2ccccc21

>  <score_type>  (1) 
oracle

>  <origin>  (1) 
adg

>  <m_score__min__energy>  (1) 
-8.1899999999999995

>  <m_primary>  (1) 
energy

$$$$
1:0
     RDKit          3D

 73 72  0  0  0  0  0  0  0  0999 V2000
   -9.1240   20.5210  -31.5890 C   0  0  0  0  0  0  0  0  0  0  0  0
   -9.1840   19.7730  -32.9150 C   0  0  0  0  0  0  0  0  0  0  0  0
   -8.2400   18.6500  -32.9080 N   0  0  0  0  0  0  0  0  0  0  0  0
   -7.9480   18.2040  -31.5290 C   0  0  0  0  0  0  0  0  0  0  0  0
   -6.4780   17.7780  -31.3390 C   0  0  0  0  0  0  0  0  0  0  0  0
   -5.4980   18.9570  -31.5530 C   0  0  0  0  0  0  0  0  0  0  0  0
   -5.4980   19.5160  -32.9320 N   0  0  0  0  0  0  0  0  0  0  0  0
   -4.2130   19.3380  -33.6560 C   0  0  0  0  0  0  0  0  0  0  0  0
   -4.0470   17.9130  -34.2160 C   0  0  0  0  0  0  0  0  0  0  0  0
   -5.1810   17.5350  -35.1800 C   0  0  0  0  0  0  0  0  0  0  0  0
   -6.4780   17.7730  -34.5590 N   0  0  0  0  0  0  0  0  0  0  0  0
   -5.9460   20.9270  -32.9470 C   0  0  0  0  0  0  0  0  0  0  0  0
   -6.0470   21.5290  -31.5390 C   0  0  0  0  0  0  0  0  0  0  0  0
   -4.8280   22.2860  -31.1790 N   0  0  0  0  0  0  0  0  0  0  0  0
   -5.1360   23.6070  -30.5690 C   0  0  0  0  0  0  0  0  0  0  0  0
   -3.9460   24.5100  -30.3450 C   0  0  0  0  0  0  0  0  0  0  0  0
   -3.9640   25.6690  -30.8420 O   0  0  0  0  0  0  0  0  0  0  0  0
   -2.7890   24.0600  -29.6290 N   0  0  0  0  0  0  0  0  0  0  0  0
   -2.6150   24.1970  -28.1880 C   0  0  0  0  0  0  0  0  0  0  0  0
   -3.7630   23.5210  -27.4400 C   0  0  0  0  0  0  0  0  0  0  0  0
   -4.1390   22.2680  -28.0970 N   0  0  0  0  0  0  0  0  0  0  0  0
   -3.8380   22.3140  -32.2840 C   0  0  0  0  0  0  0  0  0  0  0  0
   -2.5350   21.6550  -31.9090 C   0  0  0  0  0  0  0  0  0  0  0  0
   -1.7900   21.2030  -32.8230 O   0  0  0  0  0  0  0  0  0  0  0  0
   -2.1280   21.5780  -30.5340 N   0  0  0  0  0  0  0  0  0  0  0  0
   -0.7720   21.2200  -30.1240 C   0  0  0  0  0  0  0  0  0  0  0  0
   -0.7460   20.8900  -28.6670 C   0  0  0  0  0  0  0  0  0  0  0  0
    0.3590   20.7750  -28.0700 O   0  0  0  0  0  0  0  0  0  0  0  0
   -1.9570   20.6970  -27.9830 O   0  0  0  0  0  0  0  0  0  0  0  0
   -2.0410   20.0690  -26.7050 C   0  0  0  0  0  0  0  0  0  0  0  0
   -3.1430   19.0150  -26.7030 C   0  0  0  0  0  0  0  0  0  0  0  0
   -9.1817   19.8013  -30.7591 H   0  0  0  0  0  0  0  0  0  0  0  0
   -8.1782   21.0790  -31.5253 H   0  0  0  0  0  0  0  0  0  0  0  0
   -9.9687   21.2227  -31.5253 H   0  0  0  0  0  0  0  0  0  0  0  0
  -10.2033   19.3895  -33.0697 H   0  0  0  0  0  0  0  0  0  0  0  0
   -8.9141   20.4629  -33.7281 H   0  0  0  0  0  0  0  0  0  0  0  0
   -7.3680   18.9520  -33.3980 H   0  0  0  0  0  0  0  0  0  0  0  0
   -8.1665   19.0315  -30.8380 H   0  0  0  0  0  0  0  0  0  0  0  0
   -8.5773   17.3254  -31.3241 H   0  0  0  0  0  0  0  0  0  0  0  0
   -6.3500   17.3913  -30.3172 H   0  0  0  0  0  0  0  0  0  0  0  0
   -6.2491   17.0067  -32.0891 H   0  0  0  0  0  0  0  0  0  0  0  0
   -5.7718   19.7624  -30.8556 H   0  0  0  0  0  0  0  0  0  0  0  0
   -4.4874   18.5603  -31.3759 H   0  0  0  0  0  0  0  0  0  0  0  0
   -4.1765   20.0524  -34.4916 H   0  0  0  0  0  0  0  0  0  0  0  0
   -3.3972   19.5138  -32.9394 H   0  0  0  0  0  0  0  0  0  0  0  0
   -3.0894   17.8527  -34.7539 H   0  0  0  0  0  0  0  0  0  0  0  0
   -4.0743   17.2112  -33.3694 H   0  0  0  0  0  0  0  0  0  0  0  0
   -5.0990   18.1441  -36.0923 H   0  0  0  0  0  0  0  0  0  0  0  0
   -5.0958   16.4669  -35.4289 H   0  0  0  0  0  0  0  0  0  0  0  0
   -6.7070   18.7820  -34.6620 H   0  0  0  0  0  0  0  0  0  0  0  0
   -6.3870   17.5960  -33.5340 H   0  0  0  0  0  0  0  0  0  0  0  0
   -5.2269   21.5188  -33.5324 H   0  0  0  0  0  0  0  0  0  0  0  0
   -6.9511   20.9528  -33.3933 H   0  0  0  0  0  0  0  0  0  0  0  0
   -6.9119   22.2077  -31.5027 H   0  0  0  0  0  0  0  0  0  0  0  0
   -6.1630   20.7040  -30.8208 H   0  0  0  0  0  0  0  0  0  0  0  0
   -5.8399   24.1313  -31.2321 H   0  0  0  0  0  0  0  0  0  0  0  0
   -5.5457   23.3921  -29.5710 H   0  0  0  0  0  0  0  0  0  0  0  0
   -1.6651   23.7275  -27.8925 H   0  0  0  0  0  0  0  0  0  0  0  0
   -2.6070   25.2668  -27.9323 H   0  0  0  0  0  0  0  0  0  0  0  0
   -3.4463   23.3074  -26.4085 H   0  0  0  0  0  0  0  0  0  0  0  0
   -4.6318   24.1957  -27.4393 H   0  0  0  0  0  0  0  0  0  0  0  0
   -4.0430   22.4090  -29.1330 H   0  0  0  0  0  0  0  0  0  0  0  0
   -3.4320   21.5400  -27.8450 H   0  0  0  0  0  0  0  0  0  0  0  0
   -4.2627   21.7875  -33.1515 H   0  0  0  0  0  0  0  0  0  0  0  0
   -3.6249   23.3681  -32.5150 H   0  0  0  0  0  0  0  0  0  0  0  0
   -2.8080   21.8600  -29.7900 H   0  0  0  0  0  0  0  0  0  0  0  0
   -0.4364   20.3457  -30.7010 H   0  0  0  0  0  0  0  0  0  0  0  0
   -0.1024   22.0722  -30.3120 H   0  0  0  0  0  0  0  0  0  0  0  0
   -1.0791   19.5883  -26.4733 H   0  0  0  0  0  0  0  0  0  0  0  0
   -2.2745   20.8313  -25.9471 H   0  0  0  0  0  0  0  0  0  0  0  0
   -3.4070   18.7625  -25.6654 H   0  0  0  0  0  0  0  0  0  0  0  0
   -4.0293   19.4102  -27.2211 H   0  0  0  0  0  0  0  0  0  0  0  0
   -2.7877   18.1120  -27.2211 H   0  0  0  0  0  0  0  0  0  0  0  0
  1  2  1  0
  2  3  1  0
  3  4  1  0
  4  5  1  0
  5  6  1  0
  6  7  1  0
  7  8  1  0
  8  9  1  0
  9 10  1  0
 10 11  1  0
  7 12  1  0
 12 13  1  0
 13 14  1  0
 14 15  1  0
 15 16  1  0
 16 17  2  0
 16 18  1  0
 18 19  1  0
 19 20  1  0
 20 21  1  0
 14 22  1  0
 22 23  1  0
 23 24  2  0
 23 25  1  0
 25 26  1  0
 26 27  1  0
 27 28  2  0
 27 29  1  0
 29 30  1  0
 30 31  1  0
  1 32  1  0
  1 33  1  0
  1 34  1  0
  2 35  1  0
  2 36  1  0
  3 37  1  0
  4 38  1  0
  4 39  1  0
  5 40  1  0
  5 41  1  0
  6 42  1  0
  6 43  1  0
  8 44  1  0
  8 45  1  0
  9 46  1  0
  9 47  1  0
 10 48  1  0
 10 49  1  0
 11 50  1  0
 11 51  1  0
 12 52  1  0
 12 53  1  0
 13 54  1  0
 13 55  1  0
 15 56  1  0
 15 57  1  0
 19 58  1  0
 19 59  1  0
 20 60  1  0
 20 61  1  0
 21 62  1  0
 21 63  1  0
 22 64  1  0
 22 65  1  0
 25 66  1  0
 26 67  1  0
 26 68  1  0
 30 69  1  0
 30 70  1  0
 31 71  1  0
 31 72  1  0
 31 73  1  0
M  CHG  1  18  -1
M  END
>  <UniqueID>  (2) 
2

>  <SMILES>  (2) 
CCNCCCN(CCCN)CCN(CC(=O)[N-]CCN)CC(=O)NCC(=O)OCC

>  <Energy>  (2) 
61.384810404556966

>  <Genealogy>  (2) 
CCNCCCN(CCCN)CCN(CC(=O)[N-]CCN)CC(=O)NCC(=O)OCC (protonated)
CCNCCCN(CCCN)CCN(CC(=O)[N-]CCN)CC(=O)NCC(=O)OCC (3D coordinates assigned)
CCNCCCN(CCCN)CCN(CC(=O)[N-]CCN)CC(=O)NCC(=O)OCC (optimized conformer: 61.384810404556966 kcal/mol)

>  <smiles>  (2) 
CCNCCCN(CCCN)CCN(CC(=O)NCCN)CC(=O)NCC(=O)OCC

>  <score_type>  (2) 
oracle

>  <origin>  (2) 
adg

>  <m_score__min__energy>  (2) 
-7.8300000000000001

>  <m_primary>  (2) 
energy

$$$$
2:0
     RDKit          3D

 69 71  0  0  0  0  0  0  0  0999 V2000
    1.2590   26.8980  -25.9530 C   0  0  0  0  0  0  0  0  0  0  0  0
    1.2180   25.8830  -24.8010 C   0  0  0  0  0  0  0  0  0  0  0  0
    0.0220   26.0770  -23.9260 N   0  0  1  0  0  0  0  0  0  0  0  0
    0.2460   27.2120  -23.0080 C   0  0  0  0  0  0  0  0  0  0  0  0
   -1.2180   26.3190  -24.7060 C   0  0  0  0  0  0  0  0  0  0  0  0
   -1.6870   25.0770  -25.4810 C   0  0  0  0  0  0  0  0  0  0  0  0
   -1.5410   25.3190  -26.9240 N   0  0  0  0  0  0  0  0  0  0  0  0
   -1.3590   24.0680  -27.6750 C   0  0  0  0  0  0  0  0  0  0  0  0
   -1.8990   24.2170  -29.1070 C   0  0  0  0  0  0  0  0  0  0  0  0
   -3.3390   24.5560  -29.1170 N   0  0  0  0  0  0  0  0  0  0  0  0
   -3.9830   24.1690  -27.8440 C   0  0  0  0  0  0  0  0  0  0  0  0
   -4.0150   23.8880  -30.2540 C   0  0  0  0  0  0  0  0  0  0  0  0
   -5.3530   24.5850  -30.5850 C   0  0  0  0  0  0  0  0  0  0  0  0
   -6.4340   23.6100  -31.0810 C   0  0  0  0  0  0  0  0  0  0  0  0
   -6.0990   23.0590  -32.3970 N   0  0  0  0  0  0  0  0  0  0  0  0
   -5.9340   21.6480  -32.6310 C   0  0  0  0  0  0  0  0  0  0  0  0
   -7.0390   20.7820  -32.5350 C   0  0  0  0  0  0  0  0  0  0  0  0
   -8.3020   21.2640  -32.1260 C   0  0  0  0  0  0  0  0  0  0  0  0
   -9.3830   20.3950  -31.9790 C   0  0  0  0  0  0  0  0  0  0  0  0
   -9.2220   19.0350  -32.2290 C   0  0  0  0  0  0  0  0  0  0  0  0
   -7.9890   18.5400  -32.6550 C   0  0  0  0  0  0  0  0  0  0  0  0
   -6.8800   19.4050  -32.8540 C   0  0  0  0  0  0  0  0  0  0  0  0
   -5.6680   18.9400  -33.3320 N   0  0  0  0  0  0  0  0  0  0  0  0
   -5.5750   17.5960  -33.9440 C   0  0  0  0  0  0  0  0  0  0  0  0
   -4.5420   19.7400  -33.2550 C   0  0  0  0  0  0  0  0  0  0  0  0
   -3.2400   19.2200  -33.4830 C   0  0  0  0  0  0  0  0  0  0  0  0
   -2.1140   20.0370  -33.3990 C   0  0  0  0  0  0  0  0  0  0  0  0
   -2.2460   21.3780  -33.0630 C   0  0  0  0  0  0  0  0  0  0  0  0
   -3.5060   21.9160  -32.8140 C   0  0  0  0  0  0  0  0  0  0  0  0
   -4.6620   21.1150  -32.9100 C   0  0  0  0  0  0  0  0  0  0  0  0
    1.3002   27.9175  -25.5421 H   0  0  0  0  0  0  0  0  0  0  0  0
    2.1505   26.7154  -26.5710 H   0  0  0  0  0  0  0  0  0  0  0  0
    0.3557   26.7879  -26.5710 H   0  0  0  0  0  0  0  0  0  0  0  0
    1.1882   24.8677  -25.2232 H   0  0  0  0  0  0  0  0  0  0  0  0
    2.1172   26.0317  -24.1851 H   0  0  0  0  0  0  0  0  0  0  0  0
   -0.1350   25.2360  -23.3210 H   0  0  0  0  0  0  0  0  0  0  0  0
    0.1768   26.8613  -21.9677 H   0  0  0  0  0  0  0  0  0  0  0  0
    1.2452   27.6361  -23.1863 H   0  0  0  0  0  0  0  0  0  0  0  0
   -0.5171   27.9839  -23.1863 H   0  0  0  0  0  0  0  0  0  0  0  0
   -2.0159   26.6222  -24.0122 H   0  0  0  0  0  0  0  0  0  0  0  0
   -0.9971   27.1051  -25.4431 H   0  0  0  0  0  0  0  0  0  0  0  0
   -1.0753   24.2102  -25.1903 H   0  0  0  0  0  0  0  0  0  0  0  0
   -2.7425   24.8742  -25.2470 H   0  0  0  0  0  0  0  0  0  0  0  0
   -2.4210   25.7760  -27.2640 H   0  0  0  0  0  0  0  0  0  0  0  0
   -0.2875   23.8227  -27.7157 H   0  0  0  0  0  0  0  0  0  0  0  0
   -1.9126   23.2643  -27.1675 H   0  0  0  0  0  0  0  0  0  0  0  0
   -1.3412   25.0163  -29.6168 H   0  0  0  0  0  0  0  0  0  0  0  0
   -1.7700   23.2545  -29.6237 H   0  0  0  0  0  0  0  0  0  0  0  0
   -3.3772   24.5330  -27.0011 H   0  0  0  0  0  0  0  0  0  0  0  0
   -4.9881   24.6128  -27.7918 H   0  0  0  0  0  0  0  0  0  0  0  0
   -4.0629   23.0731  -27.7918 H   0  0  0  0  0  0  0  0  0  0  0  0
   -3.3598   23.9280  -31.1367 H   0  0  0  0  0  0  0  0  0  0  0  0
   -4.2214   22.8438  -29.9764 H   0  0  0  0  0  0  0  0  0  0  0  0
   -5.7218   25.0843  -29.6769 H   0  0  0  0  0  0  0  0  0  0  0  0
   -5.1583   25.3003  -31.3977 H   0  0  0  0  0  0  0  0  0  0  0  0
   -6.5272   22.7836  -30.3610 H   0  0  0  0  0  0  0  0  0  0  0  0
   -7.3814   24.1619  -31.1695 H   0  0  0  0  0  0  0  0  0  0  0  0
   -5.8880   23.7230  -33.1780 H   0  0  0  0  0  0  0  0  0  0  0  0
   -8.4346   22.3366  -31.9211 H   0  0  0  0  0  0  0  0  0  0  0  0
  -10.3629   20.7843  -31.6655 H   0  0  0  0  0  0  0  0  0  0  0  0
  -10.0699   18.3481  -32.0902 H   0  0  0  0  0  0  0  0  0  0  0  0
   -7.8738   17.4618  -32.8398 H   0  0  0  0  0  0  0  0  0  0  0  0
   -5.5223   16.8351  -33.1514 H   0  0  0  0  0  0  0  0  0  0  0  0
   -6.4628   17.4149  -34.5678 H   0  0  0  0  0  0  0  0  0  0  0  0
   -4.6708   17.5389  -34.5678 H   0  0  0  0  0  0  0  0  0  0  0  0
   -3.1184   18.1550  -33.7299 H   0  0  0  0  0  0  0  0  0  0  0  0
   -1.1169   19.6180  -33.5996 H   0  0  0  0  0  0  0  0  0  0  0  0
   -1.3531   22.0167  -32.9934 H   0  0  0  0  0  0  0  0  0  0  0  0
   -3.6003   22.9770  -32.5395 H   0  0  0  0  0  0  0  0  0  0  0  0
  1  2  1  0
  2  3  1  0
  3  4  1  0
  3  5  1  0
  5  6  1  0
  6  7  1  0
  7  8  1  0
  8  9  1  0
  9 10  1  0
 10 11  1  0
 10 12  1  0
 12 13  1  0
 13 14  1  0
 14 15  1  0
 15 16  1  0
 16 17  2  0
 17 18  1  0
 18 19  2  0
 19 20  1  0
 20 21  2  0
 21 22  1  0
 22 23  2  0
 23 24  1  0
 23 25  1  0
 25 26  2  0
 26 27  1  0
 27 28  2  0
 28 29  1  0
 29 30  2  0
 30 16  1  0
 22 17  1  0
 30 25  1  0
  1 31  1  0
  1 32  1  0
  1 33  1  0
  2 34  1  0
  2 35  1  0
  3 36  1  1
  4 37  1  0
  4 38  1  0
  4 39  1  0
  5 40  1  0
  5 41  1  0
  6 42  1  0
  6 43  1  0
  7 44  1  0
  8 45  1  0
  8 46  1  0
  9 47  1  0
  9 48  1  0
 11 49  1  0
 11 50  1  0
 11 51  1  0
 12 52  1  0
 12 53  1  0
 13 54  1  0
 13 55  1  0
 14 56  1  0
 14 57  1  0
 15 58  1  0
 18 59  1  0
 19 60  1  0
 20 61  1  0
 21 62  1  0
 24 63  1  0
 24 64  1  0
 24 65  1  0
 26 66  1  0
 27 67  1  0
 28 68  1  0
 29 69  1  0
M  CHG  2   3   1  23   1
M  END
>  <UniqueID>  (3) 
3

>  <SMILES>  (3) 
CC[N@@H+](C)CCNCCN(C)CCCNc1c2ccccc2[n+](C)c2ccccc12

>  <Energy>  (3) 
91.9898712803668

>  <Genealogy>  (3) 
CC[NH+](C)CCNCCN(C)CCCNc1c2ccccc2[n+](C)c2ccccc12 (protonated)
CC[N@@H+](C)CCNCCN(C)CCCNc1c2ccccc2[n+](C)c2ccccc12 (chirality)
CC[N@@H+](C)CCNCCN(C)CCCNc1c2ccccc2[n+](C)c2ccccc12 (3D coordinates assigned)
CC[N@@H+](C)CCNCCN(C)CCCNc1c2ccccc2[n+](C)c2ccccc12 (optimized conformer: 91.9898712803668 kcal/mol)

>  <smiles>  (3) 
CCN(C)CCNCCN(C)CCCNc1c2ccccc2[n+](C)c2ccccc12

>  <score_type>  (3) 
oracle

>  <origin>  (3) 
adg

>  <m_score__min__energy>  (3) 
-8.7699999999999996

>  <m_primary>  (3) 
energy

$$$$
3:0
     RDKit          3D

 76 80  0  0  0  0  0  0  0  0999 V2000
   -2.9350   24.3380  -29.0910 C   0  0  0  0  0  0  0  0  0  0  0  0
   -3.5350   24.1000  -30.4640 C   0  0  0  0  0  0  0  0  0  0  0  0
   -4.4360   25.2090  -30.8020 N   0  0  0  0  0  0  0  0  0  0  0  0
   -5.8430   24.7960  -30.9200 C   0  0  0  0  0  0  0  0  0  0  0  0
   -6.0320   23.2930  -31.2080 C   0  0  0  0  0  0  0  0  0  0  0  0
   -6.0560   22.9480  -32.6530 N   0  0  0  0  0  0  0  0  0  0  0  0
   -5.9370   21.5100  -32.8680 C   0  0  0  0  0  0  0  0  0  0  0  0
   -7.0470   20.6560  -32.6900 C   0  0  0  0  0  0  0  0  0  0  0  0
   -8.3310   21.1360  -32.3460 C   0  0  0  0  0  0  0  0  0  0  0  0
   -9.3450   20.2630  -31.9590 C   0  0  0  0  0  0  0  0  0  0  0  0
   -9.0930   18.9030  -31.8770 C   0  0  0  0  0  0  0  0  0  0  0  0
   -7.8610   18.4030  -32.2880 C   0  0  0  0  0  0  0  0  0  0  0  0
   -6.8540   19.2610  -32.7970 C   0  0  0  0  0  0  0  0  0  0  0  0
   -5.7160   18.7570  -33.3890 N   0  0  0  0  0  0  0  0  0  0  0  0
   -5.8330   17.4440  -34.0570 C   0  0  0  0  0  0  0  0  0  0  0  0
   -4.5570   19.5300  -33.4230 C   0  0  0  0  0  0  0  0  0  0  0  0
   -4.6630   20.9120  -33.0540 C   0  0  0  0  0  0  0  0  0  0  0  0
   -3.4990   21.6610  -32.8050 C   0  0  0  0  0  0  0  0  0  0  0  0
   -2.2580   21.0680  -32.7780 C   0  0  0  0  0  0  0  0  0  0  0  0
   -2.1050   19.7480  -33.1640 C   0  0  0  0  0  0  0  0  0  0  0  0
   -0.8260   19.1840  -33.1060 C   0  0  0  0  0  0  0  0  0  0  0  0
   -0.5930   17.9110  -33.6000 C   0  0  0  0  0  0  0  0  0  0  0  0
   -1.6120   17.2210  -34.2440 C   0  0  0  0  0  0  0  0  0  0  0  0
   -1.2720   15.9970  -34.8380 O   0  0  0  0  0  0  0  0  0  0  0  0
   -1.9460   15.3670  -35.9240 C   0  0  0  0  0  0  0  0  0  0  0  0
   -2.1010   13.8610  -35.6070 C   0  0  0  0  0  0  0  0  0  0  0  0
   -3.0400   13.5120  -34.4830 N   0  0  0  0  0  0  0  0  0  0  0  0
   -3.4270   12.0810  -34.6100 C   0  0  0  0  0  0  0  0  0  0  0  0
   -2.3960   13.7760  -33.1580 C   0  0  0  0  0  0  0  0  0  0  0  0
   -3.3530   13.6480  -31.9620 C   0  0  0  0  0  0  0  0  0  0  0  0
   -4.5530   14.5680  -32.1360 C   0  0  0  0  0  0  0  0  0  0  0  0
   -5.2450   14.2920  -33.4710 C   0  0  0  0  0  0  0  0  0  0  0  0
   -4.2470   14.3830  -34.6400 C   0  0  0  0  0  0  0  0  0  0  0  0
   -2.9040   17.7720  -34.2950 C   0  0  0  0  0  0  0  0  0  0  0  0
   -3.2200   18.9940  -33.6380 C   0  0  0  0  0  0  0  0  0  0  0  0
   -3.6624   24.0495  -28.3179 H   0  0  0  0  0  0  0  0  0  0  0  0
   -2.0226   23.7337  -28.9798 H   0  0  0  0  0  0  0  0  0  0  0  0
   -2.6849   25.4034  -28.9798 H   0  0  0  0  0  0  0  0  0  0  0  0
   -2.7298   24.0408  -31.2110 H   0  0  0  0  0  0  0  0  0  0  0  0
   -4.1000   23.1562  -30.4592 H   0  0  0  0  0  0  0  0  0  0  0  0
   -4.1030   25.6700  -31.6820 H   0  0  0  0  0  0  0  0  0  0  0  0
   -6.3541   25.0344  -29.9756 H   0  0  0  0  0  0  0  0  0  0  0  0
   -6.2642   25.3405  -31.7780 H   0  0  0  0  0  0  0  0  0  0  0  0
   -5.2035   22.7445  -30.7361 H   0  0  0  0  0  0  0  0  0  0  0  0
   -7.0148   23.0142  -30.8001 H   0  0  0  0  0  0  0  0  0  0  0  0
   -5.2680   23.4280  -33.1420 H   0  0  0  0  0  0  0  0  0  0  0  0
   -6.8890   23.3310  -33.1410 H   0  0  0  0  0  0  0  0  0  0  0  0
   -8.5329   22.2166  -32.3845 H   0  0  0  0  0  0  0  0  0  0  0  0
  -10.3451   20.6530  -31.7187 H   0  0  0  0  0  0  0  0  0  0  0  0
   -9.8638   18.2211  -31.4885 H   0  0  0  0  0  0  0  0  0  0  0  0
   -7.6652   17.3229  -32.2166 H   0  0  0  0  0  0  0  0  0  0  0  0
   -5.9036   16.6513  -33.2976 H   0  0  0  0  0  0  0  0  0  0  0  0
   -6.7358   17.4314  -34.6853 H   0  0  0  0  0  0  0  0  0  0  0  0
   -4.9466   17.2720  -34.6853 H   0  0  0  0  0  0  0  0  0  0  0  0
   -3.5826   22.7435  -32.6282 H   0  0  0  0  0  0  0  0  0  0  0  0
   -1.3825   21.6463  -32.4478 H   0  0  0  0  0  0  0  0  0  0  0  0
    0.0025   19.7569  -32.6639 H   0  0  0  0  0  0  0  0  0  0  0  0
    0.3975   17.4473  -33.4824 H   0  0  0  0  0  0  0  0  0  0  0  0
   -2.9391   15.8212  -36.0565 H   0  0  0  0  0  0  0  0  0  0  0  0
   -1.3664   15.4967  -36.8499 H   0  0  0  0  0  0  0  0  0  0  0  0
   -2.4664   13.3623  -36.5168 H   0  0  0  0  0  0  0  0  0  0  0  0
   -1.1071   13.5259  -35.2754 H   0  0  0  0  0  0  0  0  0  0  0  0
   -3.5455   11.6429  -33.6080 H   0  0  0  0  0  0  0  0  0  0  0  0
   -4.3778   12.0055  -35.1580 H   0  0  0  0  0  0  0  0  0  0  0  0
   -2.6438   11.5366  -35.1580 H   0  0  0  0  0  0  0  0  0  0  0  0
   -1.5750   13.0565  -33.0228 H   0  0  0  0  0  0  0  0  0  0  0  0
   -2.0462   14.8187  -33.1759 H   0  0  0  0  0  0  0  0  0  0  0  0
   -3.7026   12.6076  -31.8883 H   0  0  0  0  0  0  0  0  0  0  0  0
   -2.8161   13.9345  -31.0457 H   0  0  0  0  0  0  0  0  0  0  0  0
   -5.2650   14.3945  -31.3157 H   0  0  0  0  0  0  0  0  0  0  0  0
   -4.2079   15.6124  -32.1214 H   0  0  0  0  0  0  0  0  0  0  0  0
   -5.6808   13.2823  -33.4481 H   0  0  0  0  0  0  0  0  0  0  0  0
   -6.0300   15.0477  -33.6212 H   0  0  0  0  0  0  0  0  0  0  0  0
   -4.7681   14.0880  -35.5627 H   0  0  0  0  0  0  0  0  0  0  0  0
   -3.8866   15.4219  -34.6689 H   0  0  0  0  0  0  0  0  0  0  0  0
   -3.6900   17.2458  -34.8565 H   0  0  0  0  0  0  0  0  0  0  0  0
  1  2  1  0
  2  3  1  0
  3  4  1  0
  4  5  1  0
  5  6  1  0
  6  7  1  0
  7  8  2  0
  8  9  1  0
  9 10  2  0
 10 11  1  0
 11 12  2  0
 12 13  1  0
 13 14  2  0
 14 15  1  0
 14 16  1  0
 16 17  2  0
 17 18  1  0
 18 19  2  0
 19 20  1  0
 20 21  2  0
 21 22  1  0
 22 23  2  0
 23 24  1  0
 24 25  1  0
 25 26  1  0
 26 27  1  0
 27 28  1  0
 27 29  1  0
 29 30  1  0
 30 31  1  0
 31 32  1  0
 32 33  1  0
 23 34  1  0
 34 35  2  0
 17  7  1  0
 35 20  1  0
 13  8  1  0
 35 16  1  0
 33 27  1  0
  1 36  1  0
  1 37  1  0
  1 38  1  0
  2 39  1  0
  2 40  1  0
  3 41  1  0
  4 42  1  0
  4 43  1  0
  5 44  1  0
  5 45  1  0
  6 46  1  0
  6 47  1  0
  9 48  1  0
 10 49  1  0
 11 50  1  0
 12 51  1  0
 15 52  1  0
 15 53  1  0
 15 54  1  0
 18 55  1  0
 19 56  1  0
 21 57  1  0
 22 58  1  0
 25 59  1  0
 25 60  1  0
 26 61  1  0
 26 62  1  0
 28 63  1  0
 28 64  1  0
 28 65  1  0
 29 66  1  0
 29 67  1  0
 30 68  1  0
 30 69  1  0
 31 70  1  0
 31 71  1  0
 32 72  1  0
 32 73  1  0
 33 74  1  0
 33 75  1  0
 34 76  1  0
M  CHG  3   6   1  14   1  27   1
M  END
>  <UniqueID>  (4) 
4

>  <SMILES>  (4) 
CCNCC[NH2+]c1c2ccccc2[n+](C)c2c1ccc1ccc(OCC[N+]3(C)CCCCC3)cc12

>  <Energy>  (4) 
153.1182337812221

>  <Genealogy>  (4) 
CCNCC[NH2+]c1c2ccccc2[n+](C)c2c1ccc1ccc(OCC[N+]3(C)CCCCC3)cc12 (protonated)
CCNCC[NH2+]c1c2ccccc2[n+](C)c2c1ccc1ccc(OCC[N+]3(C)CCCCC3)cc12 (3D coordinates assigned)
CCNCC[NH2+]c1c2ccccc2[n+](C)c2c1ccc1ccc(OCC[N+]3(C)CCCCC3)cc12 (nonaromatic ring conformer: 153.1182337812221 kcal/mol)

>  <smiles>  (4) 
CCNCCNc1c2ccccc2[n+](C)c2c1ccc1ccc(OCC[N+]3(C)CCCCC3)cc12

>  <score_type>  (4) 
oracle

>  <origin>  (4) 
adg

>  <m_score__min__energy>  (4) 
-9.25

>  <m_primary>  (4) 
energy

$$$$
4:0
     RDKit          3D

 35 37  0  0  0  0  0  0  0  0999 V2000
   -2.5720   23.4420  -29.6880 C   0  0  0  0  0  0  0  0  0  0  0  0
   -3.5820   24.5510  -29.4670 C   0  0  0  0  0  0  0  0  0  0  0  0
   -3.9630   25.1390  -30.7390 N   0  0  0  0  0  0  0  0  0  0  0  0
   -5.4000   25.2430  -30.7980 C   0  0  0  0  0  0  0  0  0  0  0  0
   -6.0880   24.0110  -31.1780 C   0  0  0  0  0  0  0  0  0  0  0  0
   -7.4600   23.7200  -31.2220 C   0  0  0  0  0  0  0  0  0  0  0  0
   -7.7930   22.4830  -31.5960 C   0  0  0  0  0  0  0  0  0  0  0  0
   -6.8190   21.6000  -31.9020 C   0  0  0  0  0  0  0  0  0  0  0  0
   -6.9520   20.2050  -32.3110 C   0  0  0  0  0  0  0  0  0  0  0  0
   -8.0490   19.4440  -31.9100 C   0  0  0  0  0  0  0  0  0  0  0  0
   -8.2110   18.1570  -32.2490 N   0  0  0  0  0  0  0  0  0  0  0  0
   -7.2520   17.5670  -33.0230 C   0  0  0  0  0  0  0  0  0  0  0  0
   -7.1040   16.3170  -33.5350 N   0  0  0  0  0  0  0  0  0  0  0  0
   -5.9780   16.2900  -34.2190 N   0  0  0  0  0  0  0  0  0  0  0  0
   -5.3530   17.4770  -34.1910 C   0  0  0  0  0  0  0  0  0  0  0  0
   -4.0670   17.7700  -34.8560 C   0  0  0  0  0  0  0  0  0  0  0  0
   -6.1620   18.3040  -33.4270 C   0  0  0  0  0  0  0  0  0  0  0  0
   -5.9530   19.6200  -33.1070 C   0  0  0  0  0  0  0  0  0  0  0  0
   -5.2970   22.4580  -31.6880 S   0  0  0  0  0  0  0  0  0  0  0  0
   -2.2260   23.0620  -28.7154 H   0  0  0  0  0  0  0  0  0  0  0  0
   -3.0427   22.6249  -30.2545 H   0  0  0  0  0  0  0  0  0  0  0  0
   -1.7146   23.8344  -30.2545 H   0  0  0  0  0  0  0  0  0  0  0  0
   -4.4748   24.1374  -28.9753 H   0  0  0  0  0  0  0  0  0  0  0  0
   -3.1311   25.3276  -28.8317 H   0  0  0  0  0  0  0  0  0  0  0  0
   -3.4910   26.0690  -30.8390 H   0  0  0  0  0  0  0  0  0  0  0  0
   -5.7624   25.5449  -29.8043 H   0  0  0  0  0  0  0  0  0  0  0  0
   -5.6254   25.9789  -31.5839 H   0  0  0  0  0  0  0  0  0  0  0  0
   -8.2203   24.4713  -30.9621 H   0  0  0  0  0  0  0  0  0  0  0  0
   -8.8505   22.1860  -31.6543 H   0  0  0  0  0  0  0  0  0  0  0  0
   -8.8182   19.9222  -31.2858 H   0  0  0  0  0  0  0  0  0  0  0  0
   -5.6220   15.4320  -34.7240 H   0  0  0  0  0  0  0  0  0  0  0  0
   -3.2925   17.9465  -34.0950 H   0  0  0  0  0  0  0  0  0  0  0  0
   -3.7759   16.9152  -35.4841 H   0  0  0  0  0  0  0  0  0  0  0  0
   -4.1749   18.6666  -35.4841 H   0  0  0  0  0  0  0  0  0  0  0  0
   -5.0682   20.1773  -33.4483 H   0  0  0  0  0  0  0  0  0  0  0  0
  1  2  1  0
  2  3  1  0
  3  4  1  0
  4  5  1  0
  5  6  2  0
  6  7  1  0
  7  8  2  0
  8  9  1  0
  9 10  1  0
 10 11  2  0
 11 12  1  0
 12 13  2  0
 13 14  1  0
 14 15  1  0
 15 16  1  0
 15 17  2  0
 17 18  1  0
  8 19  1  0
 19  5  1  0
 18  9  2  0
 17 12  1  0
  1 20  1  0
  1 21  1  0
  1 22  1  0
  2 23  1  0
  2 24  1  0
  3 25  1  0
  4 26  1  0
  4 27  1  0
  6 28  1  0
  7 29  1  0
 10 30  1  0
 14 31  1  0
 16 32  1  0
 16 33  1  0
 16 34  1  0
 18 35  1  0
M  END
>  <smiles>  (5) 
CCNCc1ccc(-c2cnc3n[nH]c(C)c3c2)s1

>  <score_type>  (5) 
oracle

>  <origin>  (5) 
adg

>  <m_score__min__energy>  (5) 
-8.3000000000000007

>  <m_primary>  (5) 
energy

$$$$
5:0
     RDKit          3D

 44 45  0  0  0  0  0  0  0  0999 V2000
   -6.1370   23.5060  -29.7220 C   0  0  0  0  0  0  0  0  0  0  0  0
   -5.6520   24.4300  -30.8380 C   0  0  0  0  0  0  0  0  0  0  0  0
   -5.7230   25.8940  -30.3940 C   0  0  0  0  0  0  0  0  0  0  0  0
   -4.2780   24.0790  -31.1860 N   0  0  0  0  0  0  0  0  0  0  0  0
   -3.2320   23.9120  -30.2240 C   0  0  0  0  0  0  0  0  0  0  0  0
   -2.7050   24.9150  -29.6690 O   0  0  0  0  0  0  0  0  0  0  0  0
   -2.7890   22.5340  -29.8440 C   0  0  0  0  0  0  0  0  0  0  0  0
   -3.4610   21.5280  -30.6790 N   0  0  0  0  0  0  0  0  0  0  0  0
   -2.6010   21.0990  -31.7910 C   0  0  0  0  0  0  0  0  0  0  0  0
   -3.2300   21.5120  -33.1310 C   0  0  0  0  0  0  0  0  0  0  0  0
   -4.6250   21.9660  -32.9780 N   0  0  0  0  0  0  0  0  0  0  0  0
   -5.5590   20.8590  -33.0020 C   0  0  0  0  0  0  0  0  0  0  0  0
   -5.0880   19.5830  -33.3680 C   0  0  0  0  0  0  0  0  0  0  0  0
   -5.9390   18.4800  -33.3930 C   0  0  0  0  0  0  0  0  0  0  0  0
   -5.2600   16.7650  -33.8870 Br  0  0  0  0  0  0  0  0  0  0  0  0
   -7.2830   18.6230  -33.0540 C   0  0  0  0  0  0  0  0  0  0  0  0
   -7.7890   19.8760  -32.6830 C   0  0  0  0  0  0  0  0  0  0  0  0
   -9.1450   20.0060  -32.3420 C   0  0  0  0  0  0  0  0  0  0  0  0
   -9.6610   21.2460  -31.9670 C   0  0  0  0  0  0  0  0  0  0  0  0
   -8.8320   22.3660  -31.9300 C   0  0  0  0  0  0  0  0  0  0  0  0
   -7.4810   22.2560  -32.2660 C   0  0  0  0  0  0  0  0  0  0  0  0
   -6.9320   21.0110  -32.6500 C   0  0  0  0  0  0  0  0  0  0  0  0
   -5.9013   23.9550  -28.7458 H   0  0  0  0  0  0  0  0  0  0  0  0
   -7.2247   23.3663  -29.8083 H   0  0  0  0  0  0  0  0  0  0  0  0
   -5.6342   22.5315  -29.8083 H   0  0  0  0  0  0  0  0  0  0  0  0
   -6.3010   24.3054  -31.7173 H   0  0  0  0  0  0  0  0  0  0  0  0
   -5.7254   25.9442  -29.2951 H   0  0  0  0  0  0  0  0  0  0  0  0
   -4.8502   26.4382  -30.7840 H   0  0  0  0  0  0  0  0  0  0  0  0
   -6.6444   26.3512  -30.7840 H   0  0  0  0  0  0  0  0  0  0  0  0
   -1.7010   22.4522  -29.9839 H   0  0  0  0  0  0  0  0  0  0  0  0
   -3.0508   22.3542  -28.7908 H   0  0  0  0  0  0  0  0  0  0  0  0
   -3.6370   20.6910  -30.0730 H   0  0  0  0  0  0  0  0  0  0  0  0
   -1.6130   21.5722  -31.6910 H   0  0  0  0  0  0  0  0  0  0  0  0
   -2.4947   20.0045  -31.7640 H   0  0  0  0  0  0  0  0  0  0  0  0
   -2.6366   22.3314  -33.5627 H   0  0  0  0  0  0  0  0  0  0  0  0
   -3.2333   20.6294  -33.7875 H   0  0  0  0  0  0  0  0  0  0  0  0
   -4.8480   22.6510  -33.7370 H   0  0  0  0  0  0  0  0  0  0  0  0
   -4.7260   22.5010  -32.0860 H   0  0  0  0  0  0  0  0  0  0  0  0
   -4.0296   19.4550  -33.6389 H   0  0  0  0  0  0  0  0  0  0  0  0
   -7.9497   17.7484  -33.0777 H   0  0  0  0  0  0  0  0  0  0  0  0
   -9.8034   19.1253  -32.3708 H   0  0  0  0  0  0  0  0  0  0  0  0
  -10.7239   21.3405  -31.7000 H   0  0  0  0  0  0  0  0  0  0  0  0
   -9.2443   23.3420  -31.6345 H   0  0  0  0  0  0  0  0  0  0  0  0
   -6.8373   23.1473  -32.2315 H   0  0  0  0  0  0  0  0  0  0  0  0
  1  2  1  0
  2  3  1  0
  2  4  1  0
  4  5  1  0
  5  6  2  0
  5  7  1  0
  7  8  1  0
  8  9  1  0
  9 10  1  0
 10 11  1  0
 11 12  1  0
 12 13  2  0
 13 14  1  0
 14 15  1  0
 14 16  2  0
 16 17  1  0
 17 18  2  0
 18 19  1  0
 19 20  2  0
 20 21  1  0
 21 22  2  0
 22 12  1  0
 22 17  1  0
  1 23  1  0
  1 24  1  0
  1 25  1  0
  2 26  1  0
  3 27  1  0
  3 28  1  0
  3 29  1  0
  7 30  1  0
  7 31  1  0
  8 32  1  0
  9 33  1  0
  9 34  1  0
 10 35  1  0
 10 36  1  0
 11 37  1  0
 11 38  1  0
 13 39  1  0
 16 40  1  0
 18 41  1  0
 19 42  1  0
 20 43  1  0
 21 44  1  0
M  CHG  2   4  -1  11   1
M  END
>  <UniqueID>  (6) 
5

>  <SMILES>  (6) 
CC(C)[N-]C(=O)CNCC[NH2+]c1cc(Br)cc2ccccc12

>  <Energy>  (6) 
39.70769182868705

>  <Genealogy>  (6) 
CC(C)[N-]C(=O)CNCC[NH2+]c1cc(Br)cc2ccccc12 (protonated)
CC(C)[N-]C(=O)CNCC[NH2+]c1cc(Br)cc2ccccc12 (3D coordinates assigned)
CC(C)[N-]C(=O)CNCC[NH2+]c1cc(Br)cc2ccccc12 (optimized conformer: 39.70769182868705 kcal/mol)

>  <smiles>  (6) 
CC(C)NC(=O)CNCCNc1cc(Br)cc2ccccc12

>  <score_type>  (6) 
oracle

>  <origin>  (6) 
adg

>  <m_score__min__energy>  (6) 
-9.9000000000000004

>  <m_primary>  (6) 
energy

$$$$
6:0
     RDKit          3D

 64 67  0  0  0  0  0  0  0  0999 V2000
   -0.8600   21.9380  -25.7550 C   0  0  0  0  0  0  0  0  0  0  0  0
   -0.4470   22.4150  -24.3680 C   0  0  0  0  0  0  0  0  0  0  0  0
    0.6820   23.3520  -24.4710 N   0  0  0  0  0  0  0  0  0  0  0  0
    0.4750   24.3110  -25.5670 C   0  0  0  0  0  0  0  0  0  0  0  0
    1.7160   24.4200  -26.4590 C   0  0  0  0  0  0  0  0  0  0  0  0
    1.3810   24.1810  -27.8270 O   0  0  0  0  0  0  0  0  0  0  0  0
    0.0860   24.1660  -28.3730 C   0  0  0  0  0  0  0  0  0  0  0  0
   -0.7680   25.2490  -28.0700 C   0  0  0  0  0  0  0  0  0  0  0  0
   -2.0750   25.2980  -28.5750 C   0  0  0  0  0  0  0  0  0  0  0  0
   -2.5110   24.2480  -29.3810 C   0  0  0  0  0  0  0  0  0  0  0  0
   -1.6900   23.1800  -29.6860 C   0  0  0  0  0  0  0  0  0  0  0  0
   -0.3890   23.1110  -29.1880 C   0  0  0  0  0  0  0  0  0  0  0  0
   -2.3950   22.1770  -30.5530 C   0  0  0  0  0  0  0  0  0  0  0  0
   -3.7400   22.8300  -30.6900 C   0  0  0  0  0  0  0  0  0  0  0  0
   -4.8520   22.3490  -31.3830 C   0  0  0  0  0  0  0  0  0  0  0  0
   -6.0490   23.1040  -31.3570 C   0  0  0  0  0  0  0  0  0  0  0  0
   -7.2260   22.6680  -31.9810 O   0  0  0  0  0  0  0  0  0  0  0  0
   -8.0870   21.6260  -31.5130 C   0  0  0  0  0  0  0  0  0  0  0  0
   -7.8790   20.3250  -32.3180 C   0  0  0  0  0  0  0  0  0  0  0  0
   -6.4750   20.1080  -32.7650 N   0  0  0  0  0  0  0  0  0  0  0  0
   -6.4500   19.6730  -34.1920 C   0  0  0  0  0  0  0  0  0  0  0  0
   -5.4580   18.5380  -34.5160 C   0  0  0  0  0  0  0  0  0  0  0  0
   -6.0140   17.1300  -34.2680 C   0  0  0  0  0  0  0  0  0  0  0  0
   -6.0290   16.6680  -32.7960 C   0  0  0  0  0  0  0  0  0  0  0  0
   -6.5000   17.7310  -31.7840 C   0  0  0  0  0  0  0  0  0  0  0  0
   -5.8130   19.1270  -31.8610 C   0  0  0  0  0  0  0  0  0  0  0  0
   -6.0750   24.3430  -30.6810 C   0  0  0  0  0  0  0  0  0  0  0  0
   -4.9450   24.8140  -29.9970 C   0  0  0  0  0  0  0  0  0  0  0  0
   -3.7920   24.0310  -30.0120 C   0  0  0  0  0  0  0  0  0  0  0  0
   -1.5773   21.1095  -25.6593 H   0  0  0  0  0  0  0  0  0  0  0  0
   -1.3294   22.7679  -26.3035 H   0  0  0  0  0  0  0  0  0  0  0  0
    0.0286   21.5922  -26.3035 H   0  0  0  0  0  0  0  0  0  0  0  0
   -1.2979   22.9218  -23.8893 H   0  0  0  0  0  0  0  0  0  0  0  0
   -0.1408   21.5473  -23.7653 H   0  0  0  0  0  0  0  0  0  0  0  0
    0.7130   23.8970  -23.5760 H   0  0  0  0  0  0  0  0  0  0  0  0
   -0.3764   23.9771  -26.1782 H   0  0  0  0  0  0  0  0  0  0  0  0
    0.2774   25.3000  -25.1278 H   0  0  0  0  0  0  0  0  0  0  0  0
    2.1413   25.4299  -26.3631 H   0  0  0  0  0  0  0  0  0  0  0  0
    2.4478   23.6639  -26.1383 H   0  0  0  0  0  0  0  0  0  0  0  0
   -0.4029   26.0651  -27.4292 H   0  0  0  0  0  0  0  0  0  0  0  0
   -2.7390   26.1432  -28.3411 H   0  0  0  0  0  0  0  0  0  0  0  0
    0.2562   22.2521  -29.4244 H   0  0  0  0  0  0  0  0  0  0  0  0
   -1.8981   22.0625  -31.5277 H   0  0  0  0  0  0  0  0  0  0  0  0
   -2.4209   21.1561  -30.1442 H   0  0  0  0  0  0  0  0  0  0  0  0
   -4.7991   21.4012  -31.9388 H   0  0  0  0  0  0  0  0  0  0  0  0
   -7.8696   21.4303  -30.4526 H   0  0  0  0  0  0  0  0  0  0  0  0
   -9.1297   21.9520  -31.6418 H   0  0  0  0  0  0  0  0  0  0  0  0
   -8.1760   19.4755  -31.6855 H   0  0  0  0  0  0  0  0  0  0  0  0
   -8.4929   20.4110  -33.2267 H   0  0  0  0  0  0  0  0  0  0  0  0
   -5.9950   21.0250  -32.6730 H   0  0  0  0  0  0  0  0  0  0  0  0
   -7.4598   19.3291  -34.4605 H   0  0  0  0  0  0  0  0  0  0  0  0
   -6.1141   20.5459  -34.7709 H   0  0  0  0  0  0  0  0  0  0  0  0
   -5.1776   18.6167  -35.5767 H   0  0  0  0  0  0  0  0  0  0  0  0
   -4.6001   18.6639  -33.8391 H   0  0  0  0  0  0  0  0  0  0  0  0
   -7.0484   17.1042  -34.6412 H   0  0  0  0  0  0  0  0  0  0  0  0
   -5.3344   16.4419  -34.7920 H   0  0  0  0  0  0  0  0  0  0  0  0
   -6.7011   15.8007  -32.7175 H   0  0  0  0  0  0  0  0  0  0  0  0
   -4.9855   16.4371  -32.5358 H   0  0  0  0  0  0  0  0  0  0  0  0
   -7.5787   17.8820  -31.9377 H   0  0  0  0  0  0  0  0  0  0  0  0
   -6.2268   17.3298  -30.7969 H   0  0  0  0  0  0  0  0  0  0  0  0
   -5.7961   19.5548  -30.8477 H   0  0  0  0  0  0  0  0  0  0  0  0
   -4.8109   18.9525  -32.2797 H   0  0  0  0  0  0  0  0  0  0  0  0
   -6.9941   24.9472  -30.6909 H   0  0  0  0  0  0  0  0  0  0  0  0
   -4.9680   25.7754  -29.4630 H   0  0  0  0  0  0  0  0  0  0  0  0
  1  2  1  0
  2  3  1  0
  3  4  1  0
  4  5  1  0
  5  6  1  0
  6  7  1  0
  7  8  2  0
  8  9  1  0
  9 10  2  0
 10 11  1  0
 11 12  2  0
 11 13  1  0
 13 14  1  0
 14 15  2  0
 15 16  1  0
 16 17  1  0
 17 18  1  0
 18 19  1  0
 19 20  1  0
 20 21  1  0
 21 22  1  0
 22 23  1  0
 23 24  1  0
 24 25  1  0
 25 26  1  0
 16 27  2  0
 27 28  1  0
 28 29  2  0
 12  7  1  0
 29 14  1  0
 29 10  1  0
 26 20  1  0
  1 30  1  0
  1 31  1  0
  1 32  1  0
  2 33  1  0
  2 34  1  0
  3 35  1  0
  4 36  1  0
  4 37  1  0
  5 38  1  0
  5 39  1  0
  8 40  1  0
  9 41  1  0
 12 42  1  0
 13 43  1  0
 13 44  1  0
 15 45  1  0
 18 46  1  0
 18 47  1  0
 19 48  1  0
 19 49  1  0
 20 50  1  0
 21 51  1  0
 21 52  1  0
 22 53  1  0
 22 54  1  0
 23 55  1  0
 23 56  1  0
 24 57  1  0
 24 58  1  0
 25 59  1  0
 25 60  1  0
 26 61  1  0
 26 62  1  0
 27 63  1  0
 28 64  1  0
M  CHG  1  20   1
M  END
>  <UniqueID>  (7) 
6

>  <SMILES>  (7) 
CCNCCOc1ccc2c(c1)Cc1cc(OCC[NH+]3CCCCCC3)ccc1-2

>  <Energy>  (7) 
99.0116322513406

>  <Genealogy>  (7) 
CCNCCOc1ccc2c(c1)Cc1cc(OCC[NH+]3CCCCCC3)ccc1-2 (protonated)
CCNCCOc1ccc2c(c1)Cc1cc(OCC[NH+]3CCCCCC3)ccc1-2 (3D coordinates assigned)
CCNCCOc1ccc2c(c1)Cc1cc(OCC[NH+]3CCCCCC3)ccc1-2 (nonaromatic ring conformer: 99.0116322513406 kcal/mol)

>  <smiles>  (7) 
CCNCCOc1ccc2c(c1)Cc1cc(OCCN3CCCCCC3)ccc1-2

>  <score_type>  (7) 
oracle

>  <origin>  (7) 
adg

>  <m_score__min__energy>  (7) 
-5.8899999999999997

>  <m_primary>  (7) 
energy

$$$$
7:0
     RDKit          3D

 74 76  0  0  0  0  0  0  0  0999 V2000
   -1.7050   25.9970  -26.3990 C   0  0  0  0  0  0  0  0  0  0  0  0
   -0.9910   26.4550  -27.6700 C   0  0  0  0  0  0  0  0  0  0  0  0
   -1.6460   25.9420  -28.8320 O   0  0  0  0  0  0  0  0  0  0  0  0
   -1.8000   24.5830  -29.1570 C   0  0  0  0  0  0  0  0  0  0  0  0
   -0.9150   23.5920  -28.6920 C   0  0  0  0  0  0  0  0  0  0  0  0
   -1.1070   22.2560  -29.0400 C   0  0  0  0  0  0  0  0  0  0  0  0
   -2.2130   21.8730  -29.8150 C   0  0  0  0  0  0  0  0  0  0  0  0
   -2.4190   20.4350  -30.2450 C   0  0  0  0  0  0  0  0  0  0  0  0
   -1.8970   20.1520  -31.5920 N   0  0  0  0  0  0  0  0  0  0  0  0
   -0.4500   19.8790  -31.6410 C   0  0  0  0  0  0  0  0  0  0  0  0
   -0.1150   18.3820  -31.8030 C   0  0  0  0  0  0  0  0  0  0  0  0
    0.3410   18.0180  -33.2310 C   0  0  0  0  0  0  0  0  0  0  0  0
   -0.5370   18.5880  -34.3620 C   0  0  0  0  0  0  0  0  0  0  0  0
   -1.5460   17.5670  -34.9140 C   0  0  0  0  0  0  0  0  0  0  0  0
   -2.5910   17.1620  -33.8610 C   0  0  0  0  0  0  0  0  0  0  0  0
   -3.5130   18.2640  -33.5420 N   0  0  0  0  0  0  0  0  0  0  0  0
   -4.6140   17.8800  -32.6400 C   0  0  0  0  0  0  0  0  0  0  0  0
   -5.7000   18.9330  -32.5400 C   0  0  0  0  0  0  0  0  0  0  0  0
   -7.0390   18.5240  -32.5110 C   0  0  0  0  0  0  0  0  0  0  0  0
   -8.0810   19.4500  -32.3760 C   0  0  0  0  0  0  0  0  0  0  0  0
   -9.5050   18.9460  -32.3870 C   0  0  0  0  0  0  0  0  0  0  0  0
   -7.7720   20.8170  -32.1730 C   0  0  0  0  0  0  0  0  0  0  0  0
   -8.7860   21.7750  -31.9460 C   0  0  0  0  0  0  0  0  0  0  0  0
   -8.4550   23.0970  -31.6460 C   0  0  0  0  0  0  0  0  0  0  0  0
   -7.1210   23.4870  -31.5630 C   0  0  0  0  0  0  0  0  0  0  0  0
   -6.1060   22.5650  -31.8170 C   0  0  0  0  0  0  0  0  0  0  0  0
   -6.4110   21.2350  -32.1640 C   0  0  0  0  0  0  0  0  0  0  0  0
   -5.3870   20.3020  -32.4450 C   0  0  0  0  0  0  0  0  0  0  0  0
   -4.0570   20.7060  -32.6200 O   0  0  0  0  0  0  0  0  0  0  0  0
   -3.6660   21.7410  -33.5210 C   0  0  0  0  0  0  0  0  0  0  0  0
   -3.0900   22.8610  -30.2870 C   0  0  0  0  0  0  0  0  0  0  0  0
   -2.8850   24.2170  -29.9680 C   0  0  0  0  0  0  0  0  0  0  0  0
   -3.7340   25.2320  -30.4400 O   0  0  0  0  0  0  0  0  0  0  0  0
   -5.1330   25.3040  -30.1750 C   0  0  0  0  0  0  0  0  0  0  0  0
   -1.1502   26.3529  -25.5183 H   0  0  0  0  0  0  0  0  0  0  0  0
   -2.7243   26.4102  -26.3819 H   0  0  0  0  0  0  0  0  0  0  0  0
   -1.7544   24.8982  -26.3819 H   0  0  0  0  0  0  0  0  0  0  0  0
   -0.9945   27.5543  -27.7096 H   0  0  0  0  0  0  0  0  0  0  0  0
    0.0416   26.0763  -27.6508 H   0  0  0  0  0  0  0  0  0  0  0  0
   -0.0671   23.8735  -28.0503 H   0  0  0  0  0  0  0  0  0  0  0  0
   -0.3861   21.4958  -28.7047 H   0  0  0  0  0  0  0  0  0  0  0  0
   -1.9066   19.7784  -29.5264 H   0  0  0  0  0  0  0  0  0  0  0  0
   -3.5036   20.2535  -30.2700 H   0  0  0  0  0  0  0  0  0  0  0  0
   -2.4080   19.3210  -31.9770 H   0  0  0  0  0  0  0  0  0  0  0  0
   -0.0203   20.4268  -32.4927 H   0  0  0  0  0  0  0  0  0  0  0  0
   -0.0249   20.2051  -30.6803 H   0  0  0  0  0  0  0  0  0  0  0  0
    0.6921   18.1254  -31.1011 H   0  0  0  0  0  0  0  0  0  0  0  0
   -1.0344   17.8146  -31.5963 H   0  0  0  0  0  0  0  0  0  0  0  0
    1.3641   18.3977  -33.3694 H   0  0  0  0  0  0  0  0  0  0  0  0
    0.2665   16.9232  -33.3070 H   0  0  0  0  0  0  0  0  0  0  0  0
   -1.0925   19.4536  -33.9718 H   0  0  0  0  0  0  0  0  0  0  0  0
    0.1328   18.8676  -35.1885 H   0  0  0  0  0  0  0  0  0  0  0  0
   -2.0647   18.0110  -35.7765 H   0  0  0  0  0  0  0  0  0  0  0  0
   -0.9900   16.6637  -35.2056 H   0  0  0  0  0  0  0  0  0  0  0  0
   -3.1737   16.3131  -34.2481 H   0  0  0  0  0  0  0  0  0  0  0  0
   -2.0551   16.8918  -32.9392 H   0  0  0  0  0  0  0  0  0  0  0  0
   -2.9650   19.0460  -33.1070 H   0  0  0  0  0  0  0  0  0  0  0  0
   -5.0638   16.9486  -33.0144 H   0  0  0  0  0  0  0  0  0  0  0  0
   -4.1848   17.7571  -31.6347 H   0  0  0  0  0  0  0  0  0  0  0  0
   -7.2773   17.4535  -32.5960 H   0  0  0  0  0  0  0  0  0  0  0  0
   -9.8578   18.8211  -31.3526 H   0  0  0  0  0  0  0  0  0  0  0  0
  -10.1468   19.6716  -32.9082 H   0  0  0  0  0  0  0  0  0  0  0  0
   -9.5474   17.9782  -32.9082 H   0  0  0  0  0  0  0  0  0  0  0  0
   -9.8430   21.4766  -32.0062 H   0  0  0  0  0  0  0  0  0  0  0  0
   -9.2524   23.8350  -31.4742 H   0  0  0  0  0  0  0  0  0  0  0  0
   -6.8674   24.5237  -31.2967 H   0  0  0  0  0  0  0  0  0  0  0  0
   -5.0547   22.8806  -31.7454 H   0  0  0  0  0  0  0  0  0  0  0  0
   -3.3341   22.6196  -32.9484 H   0  0  0  0  0  0  0  0  0  0  0  0
   -2.8411   21.3833  -34.1546 H   0  0  0  0  0  0  0  0  0  0  0  0
   -4.5214   22.0181  -34.1546 H   0  0  0  0  0  0  0  0  0  0  0  0
   -3.9473   22.5732  -30.9132 H   0  0  0  0  0  0  0  0  0  0  0  0
   -5.3003   25.3126  -29.0878 H   0  0  0  0  0  0  0  0  0  0  0  0
   -5.5429   26.2244  -30.6164 H   0  0  0  0  0  0  0  0  0  0  0  0
   -5.6352   24.4305  -30.6164 H   0  0  0  0  0  0  0  0  0  0  0  0
  1  2  1  0
  2  3  1  0
  3  4  1  0
  4  5  2  0
  5  6  1  0
  6  7  2  0
  7  8  1  0
  8  9  1  0
  9 10  1  0
 10 11  1  0
 11 12  1  0
 12 13  1  0
 13 14  1  0
 14 15  1  0
 15 16  1  0
 16 17  1  0
 17 18  1  0
 18 19  2  0
 19 20  1  0
 20 21  1  0
 20 22  2  0
 22 23  1  0
 23 24  2  0
 24 25  1  0
 25 26  2  0
 26 27  1  0
 27 28  2  0
 28 29  1  0
 29 30  1  0
  7 31  1  0
 31 32  2  0
 32 33  1  0
 33 34  1  0
 32  4  1  0
 28 18  1  0
 27 22  1  0
  1 35  1  0
  1 36  1  0
  1 37  1  0
  2 38  1  0
  2 39  1  0
  5 40  1  0
  6 41  1  0
  8 42  1  0
  8 43  1  0
  9 44  1  0
 10 45  1  0
 10 46  1  0
 11 47  1  0
 11 48  1  0
 12 49  1  0
 12 50  1  0
 13 51  1  0
 13 52  1  0
 14 53  1  0
 14 54  1  0
 15 55  1  0
 15 56  1  0
 16 57  1  0
 17 58  1  0
 17 59  1  0
 19 60  1  0
 21 61  1  0
 21 62  1  0
 21 63  1  0
 23 64  1  0
 24 65  1  0
 25 66  1  0
 26 67  1  0
 30 68  1  0
 30 69  1  0
 30 70  1  0
 31 71  1  0
 34 72  1  0
 34 73  1  0
 34 74  1  0
M  END
>  <UniqueID>  (8) 
7

>  <SMILES>  (8) 
CCOc1ccc(CNCCCCCCNCc2cc(C)c3ccccc3c2OC)cc1OC

>  <Energy>  (8) 
74.07983964546048

>  <Genealogy>  (8) 
CCOc1ccc(CNCCCCCCNCc2cc(C)c3ccccc3c2OC)cc1OC (3D coordinates assigned)
CCOc1ccc(CNCCCCCCNCc2cc(C)c3ccccc3c2OC)cc1OC (optimized conformer: 74.07983964546048 kcal/mol)

>  <smiles>  (8) 
CCOc1ccc(CNCCCCCCNCc2cc(C)c3ccccc3c2OC)cc1OC

>  <score_type>  (8) 
oracle

>  <origin>  (8) 
adg

>  <m_score__min__energy>  (8) 
-10.529999999999999

>  <m_primary>  (8) 
energy

$$$$
8:0
     RDKit          3D

 54 58  0  0  0  0  0  0  0  0999 V2000
   -2.4890   17.0470  -34.9090 C   0  0  0  0  0  0  0  0  0  0  0  0
   -2.3770   17.0460  -33.3810 C   0  0  0  0  0  0  0  0  0  0  0  0
   -2.0800   18.3790  -32.8340 N   0  0  0  0  0  0  0  0  0  0  0  0
   -1.9750   19.4000  -33.8850 C   0  0  0  0  0  0  0  0  0  0  0  0
   -2.7570   20.6450  -33.4760 C   0  0  0  0  0  0  0  0  0  0  0  0
   -3.4610   20.4020  -32.2200 N   0  0  0  0  0  0  0  0  0  0  0  0
   -4.2930   21.4100  -31.6260 C   0  0  0  0  0  0  0  0  0  0  0  0
   -5.6630   21.4390  -31.8830 C   0  0  0  0  0  0  0  0  0  0  0  0
   -6.4510   22.4510  -31.3670 C   0  0  0  0  0  0  0  0  0  0  0  0
   -5.9640   23.4450  -30.5660 N   0  0  0  0  0  0  0  0  0  0  0  0
   -6.8580   24.5180  -30.0940 C   0  0  0  0  0  0  0  0  0  0  0  0
   -4.6220   23.4140  -30.2240 C   0  0  0  0  0  0  0  0  0  0  0  0
   -4.0630   24.3680  -29.3410 C   0  0  0  0  0  0  0  0  0  0  0  0
   -2.7020   24.3540  -29.0370 C   0  0  0  0  0  0  0  0  0  0  0  0
   -1.8650   23.3970  -29.6010 C   0  0  0  0  0  0  0  0  0  0  0  0
   -2.3830   22.4290  -30.4600 C   0  0  0  0  0  0  0  0  0  0  0  0
   -3.7580   22.4050  -30.7700 C   0  0  0  0  0  0  0  0  0  0  0  0
   -7.8050   22.1890  -31.8300 C   0  0  0  0  0  0  0  0  0  0  0  0
   -8.9110   22.2800  -31.1700 N   0  0  0  0  0  0  0  0  0  0  0  0
   -9.7290   21.2080  -31.6680 C   0  0  0  0  0  0  0  0  0  0  0  0
   -9.0590   20.4050  -32.5010 C   0  0  0  0  0  0  0  0  0  0  0  0
   -7.7510   21.0130  -32.6270 C   0  0  0  0  0  0  0  0  0  0  0  0
   -6.5250   20.4870  -32.6350 C   0  0  0  0  0  0  0  0  0  0  0  0
   -6.2450   19.0640  -32.9120 C   0  0  0  0  0  0  0  0  0  0  0  0
   -6.1450   18.1330  -31.8640 C   0  0  0  0  0  0  0  0  0  0  0  0
   -5.8810   16.7880  -32.1390 C   0  0  0  0  0  0  0  0  0  0  0  0
   -5.7260   16.3620  -33.4610 C   0  0  0  0  0  0  0  0  0  0  0  0
   -5.8410   17.2780  -34.5100 C   0  0  0  0  0  0  0  0  0  0  0  0
   -6.1050   18.6240  -34.2380 C   0  0  0  0  0  0  0  0  0  0  0  0
   -3.5501   17.0565  -35.1989 H   0  0  0  0  0  0  0  0  0  0  0  0
   -1.9906   17.9407  -35.3126 H   0  0  0  0  0  0  0  0  0  0  0  0
   -2.0067   16.1445  -35.3126 H   0  0  0  0  0  0  0  0  0  0  0  0
   -3.3304   16.6963  -32.9582 H   0  0  0  0  0  0  0  0  0  0  0  0
   -1.5439   16.3813  -33.1087 H   0  0  0  0  0  0  0  0  0  0  0  0
   -1.1790   18.3430  -32.3020 H   0  0  0  0  0  0  0  0  0  0  0  0
   -0.9176   19.6649  -34.0324 H   0  0  0  0  0  0  0  0  0  0  0  0
   -2.3912   19.0011  -34.8218 H   0  0  0  0  0  0  0  0  0  0  0  0
   -2.0605   21.4865  -33.3464 H   0  0  0  0  0  0  0  0  0  0  0  0
   -3.4900   20.8850  -34.2603 H   0  0  0  0  0  0  0  0  0  0  0  0
   -3.1500   19.5940  -31.6340 H   0  0  0  0  0  0  0  0  0  0  0  0
   -6.8678   24.5298  -28.9941 H   0  0  0  0  0  0  0  0  0  0  0  0
   -6.4966   25.4873  -30.4679 H   0  0  0  0  0  0  0  0  0  0  0  0
   -7.8767   24.3375  -30.4679 H   0  0  0  0  0  0  0  0  0  0  0  0
   -4.7116   25.1320  -28.8876 H   0  0  0  0  0  0  0  0  0  0  0  0
   -2.2881   25.1042  -28.3472 H   0  0  0  0  0  0  0  0  0  0  0  0
   -0.7899   23.4040  -29.3683 H   0  0  0  0  0  0  0  0  0  0  0  0
   -1.7123   21.6765  -30.9003 H   0  0  0  0  0  0  0  0  0  0  0  0
  -10.7849   21.0648  -31.3951 H   0  0  0  0  0  0  0  0  0  0  0  0
   -9.4214   19.4855  -32.9839 H   0  0  0  0  0  0  0  0  0  0  0  0
   -6.2750   18.4640  -30.8231 H   0  0  0  0  0  0  0  0  0  0  0  0
   -5.7952   16.0648  -31.3146 H   0  0  0  0  0  0  0  0  0  0  0  0
   -5.5132   15.3044  -33.6760 H   0  0  0  0  0  0  0  0  0  0  0  0
   -5.7238   16.9401  -35.5502 H   0  0  0  0  0  0  0  0  0  0  0  0
   -6.2034   19.3411  -35.0663 H   0  0  0  0  0  0  0  0  0  0  0  0
  1  2  1  0
  2  3  1  0
  3  4  1  0
  4  5  1  0
  5  6  1  0
  6  7  1  0
  7  8  2  0
  8  9  1  0
  9 10  2  0
 10 11  1  0
 10 12  1  0
 12 13  2  0
 13 14  1  0
 14 15  2  0
 15 16  1  0
 16 17  2  0
  9 18  1  0
 18 19  2  0
 19 20  1  0
 20 21  2  0
 21 22  1  0
 22 23  2  0
 23 24  1  0
 24 25  2  0
 25 26  1  0
 26 27  2  0
 27 28  1  0
 28 29  2  0
 17  7  1  0
 22 18  1  0
 29 24  1  0
 23  8  1  0
 17 12  1  0
  1 30  1  0
  1 31  1  0
  1 32  1  0
  2 33  1  0
  2 34  1  0
  3 35  1  0
  4 36  1  0
  4 37  1  0
  5 38  1  0
  5 39  1  0
  6 40  1  0
 11 41  1  0
 11 42  1  0
 11 43  1  0
 13 44  1  0
 14 45  1  0
 15 46  1  0
 16 47  1  0
 20 48  1  0
 21 49  1  0
 25 50  1  0
 26 51  1  0
 27 52  1  0
 28 53  1  0
 29 54  1  0
M  CHG  1  10   1
M  END
>  <UniqueID>  (9) 
8

>  <SMILES>  (9) 
CCNCCNc1c2c([n+](C)c3ccccc13)C1=NC=CC1=C2c1ccccc1

>  <Energy>  (9) 
151.00924317651993

>  <Genealogy>  (9) 
CCNCCNc1c2c([n+](C)c3ccccc13)C1=NC=CC1=C2c1ccccc1 (3D coordinates assigned)
CCNCCNc1c2c([n+](C)c3ccccc13)C1=NC=CC1=C2c1ccccc1 (nonaromatic ring conformer: 151.00924317651993 kcal/mol)

>  <smiles>  (9) 
CCNCCNc1c2c([n+](C)c3ccccc13)C1=NC=CC1=C2c1ccccc1

>  <score_type>  (9) 
oracle

>  <origin>  (9) 
adg

>  <m_score__min__energy>  (9) 
-9.8300000000000001

>  <m_primary>  (9) 
energy

$$$$
9:0
     RDKit          3D

 55 58  0  0  0  0  0  0  0  0999 V2000
   -0.8630   26.7780  -26.5010 C   0  0  0  0  0  0  0  0  0  0  0  0
   -0.8230   26.1200  -27.8790 C   0  0  0  0  0  0  0  0  0  0  0  0
   -1.6530   24.8940  -27.8930 N   0  0  0  0  0  0  0  0  0  0  0  0
   -1.7160   24.2640  -26.5550 C   0  0  0  0  0  0  0  0  0  0  0  0
   -1.2300   22.8130  -26.5940 C   0  0  0  0  0  0  0  0  0  0  0  0
   -1.1840   23.9260  -28.9200 C   0  0  0  0  0  0  0  0  0  0  0  0
   -2.2780   23.6870  -29.9630 C   0  0  0  0  0  0  0  0  0  0  0  0
   -3.3400   24.6860  -29.8410 N   0  0  0  0  0  0  0  0  0  0  0  0
   -4.7260   24.4020  -30.1050 C   0  0  0  0  0  0  0  0  0  0  0  0
   -5.7730   25.2400  -29.7120 C   0  0  0  0  0  0  0  0  0  0  0  0
   -7.2260   24.5620  -30.2230 S   0  0  0  0  0  0  0  0  0  0  0  0
   -6.5490   23.1930  -30.9310 C   0  0  0  0  0  0  0  0  0  0  0  0
   -7.2030   22.1330  -31.5800 C   0  0  0  0  0  0  0  0  0  0  0  0
   -8.6560   22.3110  -31.9520 C   0  0  0  0  0  0  0  0  0  0  0  0
   -6.4130   21.0030  -31.9820 C   0  0  0  0  0  0  0  0  0  0  0  0
   -4.9920   21.1320  -31.9410 C   0  0  0  0  0  0  0  0  0  0  0  0
   -4.1950   20.1520  -32.5300 C   0  0  0  0  0  0  0  0  0  0  0  0
   -4.7830   19.0740  -33.1820 C   0  0  0  0  0  0  0  0  0  0  0  0
   -3.9840   18.1430  -33.8680 C   0  0  0  0  0  0  0  0  0  0  0  0
   -4.5690   17.0600  -34.5200 C   0  0  0  0  0  0  0  0  0  0  0  0
   -5.9520   16.8960  -34.4960 C   0  0  0  0  0  0  0  0  0  0  0  0
   -6.7580   17.8070  -33.8080 C   0  0  0  0  0  0  0  0  0  0  0  0
   -6.1880   18.9080  -33.1250 C   0  0  0  0  0  0  0  0  0  0  0  0
   -6.9590   19.8020  -32.4070 N   0  0  0  0  0  0  0  0  0  0  0  0
   -8.2820   19.3580  -31.9200 C   0  0  0  0  0  0  0  0  0  0  0  0
   -4.3780   22.2380  -31.3250 C   0  0  0  0  0  0  0  0  0  0  0  0
   -5.1720   23.2530  -30.7920 C   0  0  0  0  0  0  0  0  0  0  0  0
   -0.8158   26.0021  -25.7227 H   0  0  0  0  0  0  0  0  0  0  0  0
   -0.0045   27.4574  -26.3940 H   0  0  0  0  0  0  0  0  0  0  0  0
   -1.7975   27.3484  -26.3940 H   0  0  0  0  0  0  0  0  0  0  0  0
   -1.2085   26.8266  -28.6288 H   0  0  0  0  0  0  0  0  0  0  0  0
    0.2168   25.8481  -28.1131 H   0  0  0  0  0  0  0  0  0  0  0  0
   -1.0815   24.8348  -25.8610 H   0  0  0  0  0  0  0  0  0  0  0  0
   -2.7641   24.2678  -26.2210 H   0  0  0  0  0  0  0  0  0  0  0  0
   -1.1052   22.4404  -25.5666 H   0  0  0  0  0  0  0  0  0  0  0  0
   -1.9694   22.1927  -27.1217 H   0  0  0  0  0  0  0  0  0  0  0  0
   -0.2661   22.7632  -27.1217 H   0  0  0  0  0  0  0  0  0  0  0  0
   -0.2900   24.3297  -29.4178 H   0  0  0  0  0  0  0  0  0  0  0  0
   -0.9431   22.9717  -28.4288 H   0  0  0  0  0  0  0  0  0  0  0  0
   -1.8372   23.7504  -30.9688 H   0  0  0  0  0  0  0  0  0  0  0  0
   -2.7115   22.6898  -29.7968 H   0  0  0  0  0  0  0  0  0  0  0  0
   -3.0370   25.6760  -29.7060 H   0  0  0  0  0  0  0  0  0  0  0  0
   -5.6653   26.1856  -29.1604 H   0  0  0  0  0  0  0  0  0  0  0  0
   -9.2623   22.3853  -31.0372 H   0  0  0  0  0  0  0  0  0  0  0  0
   -8.7728   23.2302  -32.5449 H   0  0  0  0  0  0  0  0  0  0  0  0
   -8.9912   21.4472  -32.5449 H   0  0  0  0  0  0  0  0  0  0  0  0
   -3.0991   20.2316  -32.4789 H   0  0  0  0  0  0  0  0  0  0  0  0
   -2.8916   18.2703  -33.8901 H   0  0  0  0  0  0  0  0  0  0  0  0
   -3.9385   16.3339  -35.0541 H   0  0  0  0  0  0  0  0  0  0  0  0
   -6.4118   16.0457  -35.0209 H   0  0  0  0  0  0  0  0  0  0  0  0
   -7.8490   17.6667  -33.7971 H   0  0  0  0  0  0  0  0  0  0  0  0
   -8.2862   19.3566  -30.8200 H   0  0  0  0  0  0  0  0  0  0  0  0
   -9.0579   20.0450  -32.2888 H   0  0  0  0  0  0  0  0  0  0  0  0
   -8.4864   18.3420  -32.2888 H   0  0  0  0  0  0  0  0  0  0  0  0
   -3.2815   22.3015  -31.2644 H   0  0  0  0  0  0  0  0  0  0  0  0
  1  2  1  0
  2  3  1  0
  3  4  1  0
  4  5  1  0
  3  6  1  0
  6  7  1  0
  7  8  1  0
  8  9  1  0
  9 10  2  0
 10 11  1  0
 11 12  1  0
 12 13  2  0
 13 14  1  0
 13 15  1  0
 15 16  2  0
 16 17  1  0
 17 18  2  0
 18 19  1  0
 19 20  2  0
 20 21  1  0
 21 22  2  0
 22 23  1  0
 23 24  2  0
 24 25  1  0
 16 26  1  0
 26 27  2  0
 27  9  1  0
 27 12  1  0
 24 15  1  0
 23 18  1  0
  1 28  1  0
  1 29  1  0
  1 30  1  0
  2 31  1  0
  2 32  1  0
  4 33  1  0
  4 34  1  0
  5 35  1  0
  5 36  1  0
  5 37  1  0
  6 38  1  0
  6 39  1  0
  7 40  1  0
  7 41  1  0
  8 42  1  0
 10 43  1  0
 14 44  1  0
 14 45  1  0
 14 46  1  0
 17 47  1  0
 19 48  1  0
 20 49  1  0
 21 50  1  0
 22 51  1  0
 25 52  1  0
 25 53  1  0
 25 54  1  0
 26 55  1  0
M  CHG  1  24   1
M  END
>  <UniqueID>  (10) 
9

>  <SMILES>  (10) 
CCN(CC)CCNc1csc2c(C)c3c(cc4ccccc4[n+]3C)cc12

>  <Energy>  (10) 
114.01604255756801

>  <Genealogy>  (10) 
CCN(CC)CCNc1csc2c(C)c3c(cc4ccccc4[n+]3C)cc12 (3D coordinates assigned)
CCN(CC)CCNc1csc2c(C)c3c(cc4ccccc4[n+]3C)cc12 (optimized conformer: 114.01604255756801 kcal/mol)

>  <smiles>  (10) 
CCN(CC)CCNc1csc2c(C)c3c(cc4ccccc4[n+]3C)cc12

>  <score_type>  (10) 
oracle

>  <origin>  (10) 
adg

>  <m_score__min__energy>  (10) 
-9.0500000000000007

>  <m_primary>  (10) 
energy

$$$$
10:0
     RDKit          3D

 39 40  0  0  0  0  0  0  0  0999 V2000
   -5.6560   25.6450  -30.4720 C   0  0  0  0  0  0  0  0  0  0  0  0
   -5.9350   24.3390  -29.7310 C   0  0  0  0  0  0  0  0  0  0  0  0
   -6.8560   23.3950  -30.5190 C   0  0  0  0  0  0  0  0  0  0  0  0
   -6.0680   22.4250  -31.3640 C   0  0  0  0  0  0  0  0  0  0  0  0
   -4.7120   22.5530  -31.3610 N   0  0  0  0  0  0  0  0  0  0  0  0
   -3.9030   21.7260  -32.0330 N   0  0  0  0  0  0  0  0  0  0  0  0
   -2.4580   21.9450  -31.9670 C   0  0  0  0  0  0  0  0  0  0  0  0
   -4.4250   20.6910  -32.7580 C   0  0  0  0  0  0  0  0  0  0  0  0
   -3.6640   19.9080  -33.3890 O   0  0  0  0  0  0  0  0  0  0  0  0
   -5.7780   20.5320  -32.7840 N   0  0  0  0  0  0  0  0  0  0  0  0
   -6.5690   19.6210  -33.4060 C   0  0  0  0  0  0  0  0  0  0  0  0
   -6.1130   18.4390  -34.2250 C   0  0  0  0  0  0  0  0  0  0  0  0
   -6.2890   17.1180  -33.4650 C   0  0  0  0  0  0  0  0  0  0  0  0
   -6.1990   17.2920  -31.9500 C   0  0  0  0  0  0  0  0  0  0  0  0
   -7.8720   19.8500  -33.1490 N   0  0  0  0  0  0  0  0  0  0  0  0
   -7.9190   20.9370  -32.3520 C   0  0  0  0  0  0  0  0  0  0  0  0
   -9.2120   21.5320  -31.8920 C   0  0  0  0  0  0  0  0  0  0  0  0
   -6.6080   21.3630  -32.1180 C   0  0  0  0  0  0  0  0  0  0  0  0
   -5.4839   26.4506  -29.7430 H   0  0  0  0  0  0  0  0  0  0  0  0
   -4.7633   25.5249  -31.1033 H   0  0  0  0  0  0  0  0  0  0  0  0
   -6.5199   25.9001  -31.1033 H   0  0  0  0  0  0  0  0  0  0  0  0
   -4.9788   23.8266  -29.5488 H   0  0  0  0  0  0  0  0  0  0  0  0
   -6.4461   24.5933  -28.7907 H   0  0  0  0  0  0  0  0  0  0  0  0
   -7.4764   22.8277  -29.8096 H   0  0  0  0  0  0  0  0  0  0  0  0
   -7.4807   24.0046  -31.1884 H   0  0  0  0  0  0  0  0  0  0  0  0
   -2.1421   21.9929  -30.9144 H   0  0  0  0  0  0  0  0  0  0  0  0
   -1.9381   21.1154  -32.4685 H   0  0  0  0  0  0  0  0  0  0  0  0
   -2.2073   22.8914  -32.4685 H   0  0  0  0  0  0  0  0  0  0  0  0
   -6.7044   18.3983  -35.1516 H   0  0  0  0  0  0  0  0  0  0  0  0
   -5.0428   18.5674  -34.4446 H   0  0  0  0  0  0  0  0  0  0  0  0
   -7.2751   16.6982  -33.7129 H   0  0  0  0  0  0  0  0  0  0  0  0
   -5.4724   16.4476  -33.7712 H   0  0  0  0  0  0  0  0  0  0  0  0
   -6.6499   16.4202  -31.4534 H   0  0  0  0  0  0  0  0  0  0  0  0
   -5.1434   17.3779  -31.6529 H   0  0  0  0  0  0  0  0  0  0  0  0
   -6.7389   18.2032  -31.6529 H   0  0  0  0  0  0  0  0  0  0  0  0
   -8.6830   19.2940  -33.5000 H   0  0  0  0  0  0  0  0  0  0  0  0
   -9.2392   21.5445  -30.7924 H   0  0  0  0  0  0  0  0  0  0  0  0
   -9.2984   22.5604  -32.2727 H   0  0  0  0  0  0  0  0  0  0  0  0
  -10.0493   20.9286  -32.2727 H   0  0  0  0  0  0  0  0  0  0  0  0
  1  2  1  0
  2  3  1  0
  3  4  1  0
  4  5  2  0
  5  6  1  0
  6  7  1  0
  6  8  1  0
  8  9  2  0
  8 10  1  0
 10 11  1  0
 11 12  1  0
 12 13  1  0
 13 14  1  0
 11 15  2  0
 15 16  1  0
 16 17  1  0
 16 18  2  0
 18  4  1  0
 18 10  1  0
  1 19  1  0
  1 20  1  0
  1 21  1  0
  2 22  1  0
  2 23  1  0
  3 24  1  0
  3 25  1  0
  7 26  1  0
  7 27  1  0
  7 28  1  0
 12 29  1  0
 12 30  1  0
 13 31  1  0
 13 32  1  0
 14 33  1  0
 14 34  1  0
 14 35  1  0
 15 36  1  0
 17 37  1  0
 17 38  1  0
 17 39  1  0
M  CHG  1  15   1
M  END
>  <UniqueID>  (11) 
10

>  <SMILES>  (11) 
CCCc1nn(C)c(=O)n2c(CCC)[nH+]c(C)c12

>  <Energy>  (11) 
72.3053968520656

>  <Genealogy>  (11) 
CCCc1nn(C)c(=O)n2c(CCC)[nH+]c(C)c12 (protonated)
CCCc1nn(C)c(=O)n2c(CCC)[nH+]c(C)c12 (3D coordinates assigned)
CCCc1nn(C)c(=O)n2c(CCC)[nH+]c(C)c12 (optimized conformer: 72.3053968520656 kcal/mol)

>  <smiles>  (11) 
CCCc1nn(C)c(=O)n2c(CCC)nc(C)c12

>  <score_type>  (11) 
oracle

>  <origin>  (11) 
adg

>  <m_score__min__energy>  (11) 
-6.3899999999999997

>  <m_primary>  (11) 
energy

$$$$
11:0
     RDKit          3D

 29 30  0  0  0  0  0  0  0  0999 V2000
   -3.8000   22.3310  -27.9590 C   0  0  0  0  0  0  0  0  0  0  0  0
   -3.5050   23.7920  -28.2730 C   0  0  0  0  0  0  0  0  0  0  0  0
   -4.7580   24.5440  -28.3800 N   0  0  0  0  0  0  0  0  0  0  0  0
   -5.1200   24.8500  -30.0520 S   0  0  0  0  0  0  0  0  0  0  0  0
   -3.8630   25.2550  -30.7720 O   0  0  0  0  0  0  0  0  0  0  0  0
   -6.1190   25.9670  -30.1510 O   0  0  0  0  0  0  0  0  0  0  0  0
   -5.7920   23.4090  -30.8050 C   0  0  0  0  0  0  0  0  0  0  0  0
   -7.4450   23.0700  -30.8680 S   0  0  0  0  0  0  0  0  0  0  0  0
   -7.2730   21.6590  -31.7570 C   0  0  0  0  0  0  0  0  0  0  0  0
   -8.2790   20.8090  -32.2110 C   0  0  0  0  0  0  0  0  0  0  0  0
   -7.9090   19.6880  -32.9670 C   0  0  0  0  0  0  0  0  0  0  0  0
   -6.5530   19.4410  -33.2570 C   0  0  0  0  0  0  0  0  0  0  0  0
   -6.1070   18.0380  -34.2110 Cl  0  0  0  0  0  0  0  0  0  0  0  0
   -5.5550   20.3130  -32.7880 C   0  0  0  0  0  0  0  0  0  0  0  0
   -5.9300   21.4290  -32.0240 C   0  0  0  0  0  0  0  0  0  0  0  0
   -5.0770   22.4070  -31.4770 C   0  0  0  0  0  0  0  0  0  0  0  0
   -3.5860   22.4170  -31.6650 C   0  0  0  0  0  0  0  0  0  0  0  0
   -3.8287   22.1889  -26.8686 H   0  0  0  0  0  0  0  0  0  0  0  0
   -4.7725   22.0523  -28.3908 H   0  0  0  0  0  0  0  0  0  0  0  0
   -3.0118   21.6968  -28.3908 H   0  0  0  0  0  0  0  0  0  0  0  0
   -2.8903   24.2208  -27.4678 H   0  0  0  0  0  0  0  0  0  0  0  0
   -2.9637   23.8540  -29.2286 H   0  0  0  0  0  0  0  0  0  0  0  0
   -4.6190   25.4770  -27.9260 H   0  0  0  0  0  0  0  0  0  0  0  0
   -9.3356   21.0121  -31.9823 H   0  0  0  0  0  0  0  0  0  0  0  0
   -8.6818   18.9975  -33.3357 H   0  0  0  0  0  0  0  0  0  0  0  0
   -4.4958   20.1234  -33.0164 H   0  0  0  0  0  0  0  0  0  0  0  0
   -3.0925   22.4203  -30.6819 H   0  0  0  0  0  0  0  0  0  0  0  0
   -3.2811   21.5209  -32.2253 H   0  0  0  0  0  0  0  0  0  0  0  0
   -3.2931   23.3171  -32.2253 H   0  0  0  0  0  0  0  0  0  0  0  0
  1  2  1  0
  2  3  1  0
  3  4  1  0
  4  5  2  0
  4  6  2  0
  4  7  1  0
  7  8  1  0
  8  9  1  0
  9 10  2  0
 10 11  1  0
 11 12  2  0
 12 13  1  0
 12 14  1  0
 14 15  2  0
 15 16  1  0
 16 17  1  0
 16  7  2  0
 15  9  1  0
  1 18  1  0
  1 19  1  0
  1 20  1  0
  2 21  1  0
  2 22  1  0
  3 23  1  0
 10 24  1  0
 11 25  1  0
 14 26  1  0
 17 27  1  0
 17 28  1  0
 17 29  1  0
M  END
>  <UniqueID>  (12) 
11

>  <SMILES>  (12) 
CCNS(=O)(=O)c1sc2ccc(Cl)cc2c1C

>  <Energy>  (12) 
54.16516299018483

>  <Genealogy>  (12) 
CCNS(=O)(=O)c1sc2ccc(Cl)cc2c1C (3D coordinates assigned)
CCNS(=O)(=O)c1sc2ccc(Cl)cc2c1C (optimized conformer: 54.16516299018483 kcal/mol)

>  <smiles>  (12) 
CCNS(=O)(=O)c1sc2ccc(Cl)cc2c1C

>  <score_type>  (12) 
oracle

>  <origin>  (12) 
adg

>  <m_score__min__energy>  (12) 
-8.5500000000000007

>  <m_primary>  (12) 
energy

$$$$
12:0
     RDKit          3D

 65 67  0  0  0  0  0  0  0  0999 V2000
   -1.2820   26.3510  -24.8840 C   0  0  0  0  0  0  0  0  0  0  0  0
   -0.7790   24.9490  -24.5430 C   0  0  0  0  0  0  0  0  0  0  0  0
   -0.2080   24.2030  -25.7620 C   0  0  0  0  0  0  0  0  0  0  0  0
   -1.0050   22.9440  -26.1510 C   0  0  0  0  0  0  0  0  0  0  0  0
   -1.4920   22.9940  -27.5370 N   0  0  0  0  0  0  0  0  0  0  0  0
   -0.9400   22.3710  -28.6070 C   0  0  0  0  0  0  0  0  0  0  0  0
    0.2430   21.4520  -28.5590 C   0  0  0  0  0  0  0  0  0  0  0  0
   -1.6610   22.6480  -29.7520 C   0  0  0  0  0  0  0  0  0  0  0  0
   -2.6990   23.4800  -29.3720 C   0  0  0  0  0  0  0  0  0  0  0  0
   -3.7850   23.9740  -30.2480 C   0  0  0  0  0  0  0  0  0  0  0  0
   -3.8610   25.2040  -30.5140 O   0  0  0  0  0  0  0  0  0  0  0  0
   -4.8090   23.0370  -30.8390 C   0  0  0  0  0  0  0  0  0  0  0  0
   -6.1380   23.6830  -30.9800 N   0  0  0  0  0  0  0  0  0  0  0  0
   -7.0340   23.2740  -29.8620 C   0  0  0  0  0  0  0  0  0  0  0  0
   -7.9100   22.0710  -30.2420 C   0  0  0  0  0  0  0  0  0  0  0  0
   -8.7970   22.3960  -31.3810 N   0  0  0  0  0  0  0  0  0  0  0  0
   -9.3650   21.2030  -32.0500 C   0  0  0  0  0  0  0  0  0  0  0  0
   -8.3590   20.0940  -32.2970 C   0  0  0  0  0  0  0  0  0  0  0  0
   -7.3090   20.2680  -33.2160 C   0  0  0  0  0  0  0  0  0  0  0  0
   -6.3770   19.2490  -33.4300 C   0  0  0  0  0  0  0  0  0  0  0  0
   -6.4900   18.0280  -32.7590 C   0  0  0  0  0  0  0  0  0  0  0  0
   -5.5400   17.0300  -33.0250 O   0  0  0  0  0  0  0  0  0  0  0  0
   -5.7510   15.9380  -33.9140 C   0  0  0  0  0  0  0  0  0  0  0  0
   -7.5530   17.8390  -31.8550 C   0  0  0  0  0  0  0  0  0  0  0  0
   -8.4830   18.8590  -31.6350 C   0  0  0  0  0  0  0  0  0  0  0  0
   -8.2600   23.4260  -32.3000 C   0  0  0  0  0  0  0  0  0  0  0  0
   -6.7240   23.4170  -32.3250 C   0  0  0  0  0  0  0  0  0  0  0  0
   -2.5560   23.6960  -28.0060 C   0  0  0  0  0  0  0  0  0  0  0  0
   -3.4620   24.5510  -27.1660 C   0  0  0  0  0  0  0  0  0  0  0  0
   -1.4809   26.9053  -23.9549 H   0  0  0  0  0  0  0  0  0  0  0  0
   -0.5182   26.8818  -25.4713 H   0  0  0  0  0  0  0  0  0  0  0  0
   -2.2090   26.2752  -25.4713 H   0  0  0  0  0  0  0  0  0  0  0  0
    0.0113   25.0352  -23.7828 H   0  0  0  0  0  0  0  0  0  0  0  0
   -1.6396   24.3704  -24.1761 H   0  0  0  0  0  0  0  0  0  0  0  0
   -0.2066   24.8912  -26.6201 H   0  0  0  0  0  0  0  0  0  0  0  0
    0.8036   23.8691  -25.4877 H   0  0  0  0  0  0  0  0  0  0  0  0
   -0.3539   22.0647  -26.0370 H   0  0  0  0  0  0  0  0  0  0  0  0
   -1.8820   22.8851  -25.4897 H   0  0  0  0  0  0  0  0  0  0  0  0
    0.5062   21.2476  -27.5107 H   0  0  0  0  0  0  0  0  0  0  0  0
   -0.0055   20.5077  -29.0655 H   0  0  0  0  0  0  0  0  0  0  0  0
    1.0965   21.9263  -29.0655 H   0  0  0  0  0  0  0  0  0  0  0  0
   -1.4511   22.2794  -30.7669 H   0  0  0  0  0  0  0  0  0  0  0  0
   -4.4637   22.7145  -31.8324 H   0  0  0  0  0  0  0  0  0  0  0  0
   -4.9183   22.1800  -30.1581 H   0  0  0  0  0  0  0  0  0  0  0  0
   -5.9950   24.7180  -30.8900 H   0  0  0  0  0  0  0  0  0  0  0  0
   -6.4171   23.0042  -28.9921 H   0  0  0  0  0  0  0  0  0  0  0  0
   -7.6979   24.1198  -29.6298 H   0  0  0  0  0  0  0  0  0  0  0  0
   -7.2609   21.2280  -30.5214 H   0  0  0  0  0  0  0  0  0  0  0  0
   -8.5355   21.8073  -29.3765 H   0  0  0  0  0  0  0  0  0  0  0  0
  -10.1715   20.8034  -31.4176 H   0  0  0  0  0  0  0  0  0  0  0  0
   -9.7228   21.5325  -33.0366 H   0  0  0  0  0  0  0  0  0  0  0  0
   -7.2206   21.2137  -33.7708 H   0  0  0  0  0  0  0  0  0  0  0  0
   -5.5465   19.4093  -34.1332 H   0  0  0  0  0  0  0  0  0  0  0  0
   -5.9282   15.0210  -33.3328 H   0  0  0  0  0  0  0  0  0  0  0  0
   -6.6257   16.1451  -34.5480 H   0  0  0  0  0  0  0  0  0  0  0  0
   -4.8621   15.8043  -34.5480 H   0  0  0  0  0  0  0  0  0  0  0  0
   -7.6520   16.8835  -31.3191 H   0  0  0  0  0  0  0  0  0  0  0  0
   -9.3185   18.6947  -30.9386 H   0  0  0  0  0  0  0  0  0  0  0  0
   -8.6346   23.2286  -33.3152 H   0  0  0  0  0  0  0  0  0  0  0  0
   -8.5923   24.4120  -31.9431 H   0  0  0  0  0  0  0  0  0  0  0  0
   -6.3810   22.4313  -32.6724 H   0  0  0  0  0  0  0  0  0  0  0  0
   -6.3923   24.2175  -33.0026 H   0  0  0  0  0  0  0  0  0  0  0  0
   -3.2614   24.3617  -26.1011 H   0  0  0  0  0  0  0  0  0  0  0  0
   -3.2775   25.6118  -27.3909 H   0  0  0  0  0  0  0  0  0  0  0  0
   -4.5104   24.3054  -27.3909 H   0  0  0  0  0  0  0  0  0  0  0  0
  1  2  1  0
  2  3  1  0
  3  4  1  0
  4  5  1  0
  5  6  1  0
  6  7  1  0
  6  8  2  0
  8  9  1  0
  9 10  1  0
 10 11  2  0
 10 12  1  0
 12 13  1  0
 13 14  1  0
 14 15  1  0
 15 16  1  0
 16 17  1  0
 17 18  1  0
 18 19  2  0
 19 20  1  0
 20 21  2  0
 21 22  1  0
 22 23  1  0
 21 24  1  0
 24 25  2  0
 16 26  1  0
 26 27  1  0
  9 28  2  0
 28 29  1  0
 28  5  1  0
 27 13  1  0
 25 18  1  0
  1 30  1  0
  1 31  1  0
  1 32  1  0
  2 33  1  0
  2 34  1  0
  3 35  1  0
  3 36  1  0
  4 37  1  0
  4 38  1  0
  7 39  1  0
  7 40  1  0
  7 41  1  0
  8 42  1  0
 12 43  1  0
 12 44  1  0
 13 45  1  0
 14 46  1  0
 14 47  1  0
 15 48  1  0
 15 49  1  0
 17 50  1  0
 17 51  1  0
 19 52  1  0
 20 53  1  0
 23 54  1  0
 23 55  1  0
 23 56  1  0
 24 57  1  0
 25 58  1  0
 26 59  1  0
 26 60  1  0
 27 61  1  0
 27 62  1  0
 29 63  1  0
 29 64  1  0
 29 65  1  0
M  CHG  1  13   1
M  END
>  <UniqueID>  (13) 
12

>  <SMILES>  (13) 
CCCCn1c(C)cc(C(=O)C[NH+]2CCN(Cc3ccc(OC)cc3)CC2)c1C

>  <Energy>  (13) 
99.48355666906316

>  <Genealogy>  (13) 
CCCCn1c(C)cc(C(=O)C[NH+]2CCN(Cc3ccc(OC)cc3)CC2)c1C (protonated)
CCCCn1c(C)cc(C(=O)C[NH+]2CCN(Cc3ccc(OC)cc3)CC2)c1C (3D coordinates assigned)
CCCCn1c(C)cc(C(=O)C[NH+]2CCN(Cc3ccc(OC)cc3)CC2)c1C (nonaromatic ring conformer: 99.48355666906316 kcal/mol)

>  <smiles>  (13) 
CCCCn1c(C)cc(C(=O)CN2CCN(Cc3ccc(OC)cc3)CC2)c1C

>  <score_type>  (13) 
oracle

>  <origin>  (13) 
adg

>  <m_score__min__energy>  (13) 
-8.6400000000000006

>  <m_primary>  (13) 
energy

$$$$
13:0
     RDKit          3D

 47 48  0  0  0  0  0  0  0  0999 V2000
   -2.8370   20.6150  -33.4690 C   0  0  0  0  0  0  0  0  0  0  0  0
   -3.7320   21.7670  -33.0330 C   0  0  0  0  0  0  0  0  0  0  0  0
   -4.5410   21.3870  -31.9200 O   0  0  0  0  0  0  0  0  0  0  0  0
   -5.8780   20.9550  -31.9850 C   0  0  0  0  0  0  0  0  0  0  0  0
   -6.2830   19.8550  -32.7680 C   0  0  0  0  0  0  0  0  0  0  0  0
   -7.6210   19.4550  -32.7810 C   0  0  0  0  0  0  0  0  0  0  0  0
   -8.5660   20.1410  -32.0180 C   0  0  0  0  0  0  0  0  0  0  0  0
   -8.1760   21.2300  -31.2360 C   0  0  0  0  0  0  0  0  0  0  0  0
   -6.8300   21.6440  -31.2160 C   0  0  0  0  0  0  0  0  0  0  0  0
   -6.3960   22.7290  -30.4400 O   0  0  0  0  0  0  0  0  0  0  0  0
   -6.8600   24.0660  -30.5890 C   0  0  0  0  0  0  0  0  0  0  0  0
   -5.7550   24.9420  -31.1740 C   0  0  0  0  0  0  0  0  0  0  0  0
   -4.4250   24.4000  -30.8490 N   0  0  0  0  0  0  0  0  0  0  0  0
   -4.0500   24.5470  -29.4300 C   0  0  0  0  0  0  0  0  0  0  0  0
   -4.0600   23.1910  -28.7010 C   0  0  0  0  0  0  0  0  0  0  0  0
   -3.8090   22.0430  -29.5960 N   0  0  0  0  0  0  0  0  0  0  0  0
   -2.8550   21.1120  -29.0340 C   0  0  0  0  0  0  0  0  0  0  0  0
   -3.1110   20.5050  -27.7890 C   0  0  0  0  0  0  0  0  0  0  0  0
   -2.1790   19.6310  -27.2210 C   0  0  0  0  0  0  0  0  0  0  0  0
   -0.9940   19.3370  -27.8960 C   0  0  0  0  0  0  0  0  0  0  0  0
   -0.7380   19.9110  -29.1440 C   0  0  0  0  0  0  0  0  0  0  0  0
    0.4150   19.6170  -29.7970 F   0  0  0  0  0  0  0  0  0  0  0  0
   -1.6630   20.7910  -29.7180 C   0  0  0  0  0  0  0  0  0  0  0  0
   -1.3860   21.3430  -30.9250 F   0  0  0  0  0  0  0  0  0  0  0  0
   -2.4393   20.1031  -32.5803 H   0  0  0  0  0  0  0  0  0  0  0  0
   -3.4218   19.9038  -34.0708 H   0  0  0  0  0  0  0  0  0  0  0  0
   -2.0033   21.0059  -34.0708 H   0  0  0  0  0  0  0  0  0  0  0  0
   -3.1038   22.6233  -32.7466 H   0  0  0  0  0  0  0  0  0  0  0  0
   -4.3905   22.0387  -33.8712 H   0  0  0  0  0  0  0  0  0  0  0  0
   -5.5423   19.3095  -33.3711 H   0  0  0  0  0  0  0  0  0  0  0  0
   -7.9306   18.5963  -33.3948 H   0  0  0  0  0  0  0  0  0  0  0  0
   -9.6192   19.8238  -32.0324 H   0  0  0  0  0  0  0  0  0  0  0  0
   -8.9232   21.7668  -30.6330 H   0  0  0  0  0  0  0  0  0  0  0  0
   -7.7286   24.0767  -31.2639 H   0  0  0  0  0  0  0  0  0  0  0  0
   -7.1477   24.4595  -29.6029 H   0  0  0  0  0  0  0  0  0  0  0  0
   -5.8694   24.9833  -32.2673 H   0  0  0  0  0  0  0  0  0  0  0  0
   -5.8390   25.9491  -30.7397 H   0  0  0  0  0  0  0  0  0  0  0  0
   -4.4400   23.3770  -31.0730 H   0  0  0  0  0  0  0  0  0  0  0  0
   -3.0396   24.9778  -29.3700 H   0  0  0  0  0  0  0  0  0  0  0  0
   -4.7856   25.2054  -28.9448 H   0  0  0  0  0  0  0  0  0  0  0  0
   -3.2799   23.2060  -27.9257 H   0  0  0  0  0  0  0  0  0  0  0  0
   -5.0657   23.0579  -28.2757 H   0  0  0  0  0  0  0  0  0  0  0  0
   -3.5060   22.3840  -30.5380 H   0  0  0  0  0  0  0  0  0  0  0  0
   -4.7120   21.5320  -29.7370 H   0  0  0  0  0  0  0  0  0  0  0  0
   -4.0510   20.7201  -27.2597 H   0  0  0  0  0  0  0  0  0  0  0  0
   -2.3804   19.1746  -26.2406 H   0  0  0  0  0  0  0  0  0  0  0  0
   -0.2603   18.6525  -27.4452 H   0  0  0  0  0  0  0  0  0  0  0  0
  1  2  1  0
  2  3  1  0
  3  4  1  0
  4  5  2  0
  5  6  1  0
  6  7  2  0
  7  8  1  0
  8  9  2  0
  9 10  1  0
 10 11  1  0
 11 12  1  0
 12 13  1  0
 13 14  1  0
 14 15  1  0
 15 16  1  0
 16 17  1  0
 17 18  2  0
 18 19  1  0
 19 20  2  0
 20 21  1  0
 21 22  1  0
 21 23  2  0
 23 24  1  0
  9  4  1  0
 23 17  1  0
  1 25  1  0
  1 26  1  0
  1 27  1  0
  2 28  1  0
  2 29  1  0
  5 30  1  0
  6 31  1  0
  7 32  1  0
  8 33  1  0
 11 34  1  0
 11 35  1  0
 12 36  1  0
 12 37  1  0
 13 38  1  0
 14 39  1  0
 14 40  1  0
 15 41  1  0
 15 42  1  0
 16 43  1  0
 16 44  1  0
 18 45  1  0
 19 46  1  0
 20 47  1  0
M  CHG  1  16   1
M  END
>  <UniqueID>  (14) 
13

>  <SMILES>  (14) 
CCOc1ccccc1OCCNCC[NH2+]c1cccc(F)c1F

>  <Energy>  (14) 
43.55876916632614

>  <Genealogy>  (14) 
CCOc1ccccc1OCCNCC[NH2+]c1cccc(F)c1F (protonated)
CCOc1ccccc1OCCNCC[NH2+]c1cccc(F)c1F (3D coordinates assigned)
CCOc1ccccc1OCCNCC[NH2+]c1cccc(F)c1F (optimized conformer: 43.55876916632614 kcal/mol)

>  <smiles>  (14) 
CCOc1ccccc1OCCNCCNc1cccc(F)c1F

>  <score_type>  (14) 
oracle

>  <origin>  (14) 
adg

>  <m_score__min__energy>  (14) 
-5.6699999999999999

>  <m_primary>  (14) 
energy

$$$$
14:0
     RDKit          3D

 33 34  0  0  0  0  0  0  0  0999 V2000
   -6.6360   21.5080  -32.2860 C   0  0  0  0  0  0  0  0  0  0  0  0
   -5.2600   22.1550  -32.1530 C   0  0  0  0  0  0  0  0  0  0  0  0
   -5.3570   23.6090  -32.3420 N   0  0  0  0  0  0  0  0  0  0  0  0
   -6.3080   24.2130  -31.3990 C   0  0  0  0  0  0  0  0  0  0  0  0
   -5.6580   25.4070  -30.6930 C   0  0  0  0  0  0  0  0  0  0  0  0
   -4.1980   25.3000  -30.7150 N   0  0  0  0  0  0  0  0  0  0  0  0
   -3.4090   24.6380  -29.7130 C   0  0  0  0  0  0  0  0  0  0  0  0
   -3.7350   23.3570  -29.2330 C   0  0  0  0  0  0  0  0  0  0  0  0
   -2.9320   22.7530  -28.2600 C   0  0  0  0  0  0  0  0  0  0  0  0
   -3.2300   21.6010  -27.8420 O   0  0  0  0  0  0  0  0  0  0  0  0
   -1.8080   23.4350  -27.7610 C   0  0  0  0  0  0  0  0  0  0  0  0
   -0.9670   22.8710  -26.7830 C   0  0  0  0  0  0  0  0  0  0  0  0
    0.1390   23.5860  -26.3110 C   0  0  0  0  0  0  0  0  0  0  0  0
    0.4140   24.8640  -26.8080 C   0  0  0  0  0  0  0  0  0  0  0  0
   -0.4130   25.4330  -27.7800 C   0  0  0  0  0  0  0  0  0  0  0  0
   -1.5220   24.7260  -28.2590 C   0  0  0  0  0  0  0  0  0  0  0  0
   -2.3230   25.2820  -29.2060 N   0  0  0  0  0  0  0  0  0  0  0  0
   -7.0483   21.3141  -31.2848 H   0  0  0  0  0  0  0  0  0  0  0  0
   -7.3078   22.1846  -32.8345 H   0  0  0  0  0  0  0  0  0  0  0  0
   -6.5435   20.5590  -32.8345 H   0  0  0  0  0  0  0  0  0  0  0  0
   -4.8565   21.9459  -31.1513 H   0  0  0  0  0  0  0  0  0  0  0  0
   -4.5941   21.7388  -32.9233 H   0  0  0  0  0  0  0  0  0  0  0  0
   -5.7160   23.7850  -33.3100 H   0  0  0  0  0  0  0  0  0  0  0  0
   -7.1981   24.5545  -31.9477 H   0  0  0  0  0  0  0  0  0  0  0  0
   -6.5979   23.4632  -30.6481 H   0  0  0  0  0  0  0  0  0  0  0  0
   -5.9583   26.3337  -31.2039 H   0  0  0  0  0  0  0  0  0  0  0  0
   -5.9922   25.4182  -29.6451 H   0  0  0  0  0  0  0  0  0  0  0  0
   -3.7010   25.6820  -31.5530 H   0  0  0  0  0  0  0  0  0  0  0  0
   -4.6195   22.8312  -29.6219 H   0  0  0  0  0  0  0  0  0  0  0  0
   -1.1799   21.8662  -26.3892 H   0  0  0  0  0  0  0  0  0  0  0  0
    0.7940   23.1418  -25.5470 H   0  0  0  0  0  0  0  0  0  0  0  0
    1.2839   25.4229  -26.4326 H   0  0  0  0  0  0  0  0  0  0  0  0
   -0.1922   26.4379  -28.1693 H   0  0  0  0  0  0  0  0  0  0  0  0
  1  2  1  0
  2  3  1  0
  3  4  1  0
  4  5  1  0
  5  6  1  0
  6  7  1  0
  7  8  2  0
  8  9  1  0
  9 10  2  0
  9 11  1  0
 11 12  2  0
 12 13  1  0
 13 14  2  0
 14 15  1  0
 15 16  2  0
 16 17  1  0
 17  7  1  0
 16 11  1  0
  1 18  1  0
  1 19  1  0
  1 20  1  0
  2 21  1  0
  2 22  1  0
  3 23  1  0
  4 24  1  0
  4 25  1  0
  5 26  1  0
  5 27  1  0
  6 28  1  0
  8 29  1  0
 12 30  1  0
 13 31  1  0
 14 32  1  0
 15 33  1  0
M  CHG  1  17  -1
M  END
>  <UniqueID>  (15) 
14

>  <SMILES>  (15) 
CCNCCNc1cc(=O)c2ccccc2[n-]1

>  <Energy>  (15) 
31.51298500509746

>  <Genealogy>  (15) 
CCNCCNc1cc(=O)c2ccccc2[n-]1 (protonated)
CCNCCNc1cc(=O)c2ccccc2[n-]1 (3D coordinates assigned)
CCNCCNc1cc(=O)c2ccccc2[n-]1 (optimized conformer: 31.51298500509746 kcal/mol)

>  <smiles>  (15) 
CCNCCNc1cc(=O)c2ccccc2[nH]1

>  <score_type>  (15) 
oracle

>  <origin>  (15) 
adg

>  <m_score__min__energy>  (15) 
-7.75

>  <m_primary>  (15) 
energy

$$$$
15:0
     RDKit          3D

 74 77  0  0  0  0  0  0  0  0999 V2000
   -3.6480   18.5940  -26.0400 C   0  0  0  0  0  0  0  0  0  0  0  0
   -2.2560   18.8930  -26.5760 C   0  0  0  0  0  0  0  0  0  0  0  0
   -2.3700   19.6690  -27.7480 O   0  0  0  0  0  0  0  0  0  0  0  0
   -1.1170   19.7970  -28.3900 C   0  0  0  0  0  0  0  0  0  0  0  0
   -0.4670   21.1710  -28.1220 C   0  0  0  0  0  0  0  0  0  0  0  0
   -1.3130   22.3390  -28.4510 N   0  0  0  0  0  0  0  0  0  0  0  0
   -1.8470   22.3610  -29.8240 C   0  0  0  0  0  0  0  0  0  0  0  0
   -2.7890   23.5530  -29.9840 C   0  0  0  0  0  0  0  0  0  0  0  0
   -4.0000   23.4060  -29.1370 N   0  0  0  0  0  0  0  0  0  0  0  0
   -5.1160   22.7660  -29.8840 C   0  0  0  0  0  0  0  0  0  0  0  0
   -5.6010   23.5920  -31.1100 C   0  0  2  0  0  0  0  0  0  0  0  0
   -7.1250   23.7810  -31.1140 C   0  0  0  0  0  0  0  0  0  0  0  0
   -7.6640   23.1500  -32.2570 O   0  0  0  0  0  0  0  0  0  0  0  0
   -8.9230   22.5940  -31.9420 C   0  0  0  0  0  0  0  0  0  0  0  0
   -8.7450   21.5430  -30.8570 C   0  0  0  0  0  0  0  0  0  0  0  0
   -5.1690   23.0480  -32.4110 N   0  0  0  0  0  0  0  0  0  0  0  0
   -4.2040   21.9410  -32.3070 C   0  0  0  0  0  0  0  0  0  0  0  0
   -4.8960   20.5870  -32.5840 C   0  0  2  0  0  0  0  0  0  0  0  0
   -6.2690   20.8430  -33.2700 C   0  0  0  0  0  0  0  0  0  0  0  0
   -6.9870   19.5030  -33.5420 C   0  0  1  0  0  0  0  0  0  0  0  0
   -6.1150   18.6320  -34.4720 C   0  0  0  0  0  0  0  0  0  0  0  0
   -4.7560   18.3590  -33.7960 C   0  0  2  0  0  0  0  0  0  0  0  0
   -4.9850   17.6170  -32.4610 C   0  0  0  0  0  0  0  0  0  0  0  0
   -5.8590   18.4850  -31.5290 C   0  0  2  0  0  0  0  0  0  0  0  0
   -7.2180   18.7630  -32.2070 C   0  0  0  0  0  0  0  0  0  0  0  0
   -5.1390   19.8230  -31.2510 C   0  0  0  0  0  0  0  0  0  0  0  0
   -4.0330   19.6990  -33.5260 C   0  0  0  0  0  0  0  0  0  0  0  0
   -3.7330   22.7220  -27.8420 C   0  0  0  0  0  0  0  0  0  0  0  0
   -2.2580   22.7680  -27.3960 C   0  0  0  0  0  0  0  0  0  0  0  0
   -3.6262   18.5987  -24.9402 H   0  0  0  0  0  0  0  0  0  0  0  0
   -4.3507   19.3617  -26.3961 H   0  0  0  0  0  0  0  0  0  0  0  0
   -3.9735   17.6054  -26.3961 H   0  0  0  0  0  0  0  0  0  0  0  0
   -1.6819   19.4491  -25.8203 H   0  0  0  0  0  0  0  0  0  0  0  0
   -1.7364   17.9507  -26.8043 H   0  0  0  0  0  0  0  0  0  0  0  0
   -0.4458   19.0083  -28.0191 H   0  0  0  0  0  0  0  0  0  0  0  0
   -1.2798   19.7041  -29.4739 H   0  0  0  0  0  0  0  0  0  0  0  0
   -0.2119   21.2249  -27.0533 H   0  0  0  0  0  0  0  0  0  0  0  0
    0.4092   21.2304  -28.7844 H   0  0  0  0  0  0  0  0  0  0  0  0
   -1.0162   22.4514  -30.5393 H   0  0  0  0  0  0  0  0  0  0  0  0
   -2.3980   21.4290  -30.0185 H   0  0  0  0  0  0  0  0  0  0  0  0
   -2.2574   24.4706  -29.6918 H   0  0  0  0  0  0  0  0  0  0  0  0
   -3.1070   23.6034  -31.0358 H   0  0  0  0  0  0  0  0  0  0  0  0
   -4.7766   21.7821  -30.2401 H   0  0  0  0  0  0  0  0  0  0  0  0
   -5.9662   22.6901  -29.1901 H   0  0  0  0  0  0  0  0  0  0  0  0
   -5.1127   24.5701  -30.9882 H   0  0  0  0  0  0  0  0  0  0  0  0
   -7.5548   23.3307  -30.2071 H   0  0  0  0  0  0  0  0  0  0  0  0
   -7.3662   24.8541  -31.1336 H   0  0  0  0  0  0  0  0  0  0  0  0
   -9.5956   23.3860  -31.5810 H   0  0  0  0  0  0  0  0  0  0  0  0
   -9.3586   22.1304  -32.8394 H   0  0  0  0  0  0  0  0  0  0  0  0
   -8.8256   22.0190  -29.8686 H   0  0  0  0  0  0  0  0  0  0  0  0
   -9.5259   20.7750  -30.9589 H   0  0  0  0  0  0  0  0  0  0  0  0
   -7.7548   21.0749  -30.9589 H   0  0  0  0  0  0  0  0  0  0  0  0
   -5.9790   22.7580  -32.9980 H   0  0  0  0  0  0  0  0  0  0  0  0
   -3.3996   22.0927  -33.0418 H   0  0  0  0  0  0  0  0  0  0  0  0
   -3.7910   21.9257  -31.2876 H   0  0  0  0  0  0  0  0  0  0  0  0
   -6.8944   21.4632  -32.6111 H   0  0  0  0  0  0  0  0  0  0  0  0
   -6.1018   21.3612  -34.2258 H   0  0  0  0  0  0  0  0  0  0  0  0
   -7.9562   19.6966  -34.0250 H   0  0  0  0  0  0  0  0  0  0  0  0
   -6.6262   17.6775  -34.6661 H   0  0  0  0  0  0  0  0  0  0  0  0
   -5.9518   19.1607  -35.4227 H   0  0  0  0  0  0  0  0  0  0  0  0
   -4.1359   17.7376  -34.4588 H   0  0  0  0  0  0  0  0  0  0  0  0
   -5.4945   16.6618  -32.6558 H   0  0  0  0  0  0  0  0  0  0  0  0
   -4.0152   17.4254  -31.9785 H   0  0  0  0  0  0  0  0  0  0  0  0
   -6.0258   17.9527  -30.5810 H   0  0  0  0  0  0  0  0  0  0  0  0
   -7.7326   17.8103  -32.4005 H   0  0  0  0  0  0  0  0  0  0  0  0
   -7.8365   19.3868  -31.5450 H   0  0  0  0  0  0  0  0  0  0  0  0
   -5.7618   20.4399  -30.5865 H   0  0  0  0  0  0  0  0  0  0  0  0
   -4.1702   19.6175  -30.7723 H   0  0  0  0  0  0  0  0  0  0  0  0
   -3.0615   19.4996  -33.0502 H   0  0  0  0  0  0  0  0  0  0  0  0
   -3.8795   20.2257  -34.4794 H   0  0  0  0  0  0  0  0  0  0  0  0
   -4.3438   23.2043  -27.0646 H   0  0  0  0  0  0  0  0  0  0  0  0
   -3.9870   21.6615  -27.9861 H   0  0  0  0  0  0  0  0  0  0  0  0
   -2.0129   23.8006  -27.1068 H   0  0  0  0  0  0  0  0  0  0  0  0
   -2.1497   22.0652  -26.5567 H   0  0  0  0  0  0  0  0  0  0  0  0
  1  2  1  0
  2  3  1  0
  3  4  1  0
  4  5  1  0
  5  6  1  0
  6  7  1  0
  7  8  1  0
  8  9  1  0
  9 10  1  0
 10 11  1  0
 11 12  1  0
 12 13  1  0
 13 14  1  0
 14 15  1  0
 11 16  1  0
 16 17  1  0
 18 17  1  1
 18 19  1  0
 19 20  1  0
 20 21  1  0
 21 22  1  0
 22 23  1  0
 23 24  1  0
 24 25  1  0
 24 26  1  0
 22 27  1  0
  9 28  1  0
 28 29  1  0
 29  6  1  0
 26 18  1  0
 27 18  1  0
 25 20  1  0
  1 30  1  0
  1 31  1  0
  1 32  1  0
  2 33  1  0
  2 34  1  0
  4 35  1  0
  4 36  1  0
  5 37  1  0
  5 38  1  0
  7 39  1  0
  7 40  1  0
  8 41  1  0
  8 42  1  0
 10 43  1  0
 10 44  1  0
 11 45  1  1
 12 46  1  0
 12 47  1  0
 14 48  1  0
 14 49  1  0
 15 50  1  0
 15 51  1  0
 15 52  1  0
 16 53  1  0
 17 54  1  0
 17 55  1  0
 19 56  1  0
 19 57  1  0
 20 58  1  6
 21 59  1  0
 21 60  1  0
 22 61  1  6
 23 62  1  0
 23 63  1  0
 24 64  1  1
 25 65  1  0
 25 66  1  0
 26 67  1  0
 26 68  1  0
 27 69  1  0
 27 70  1  0
 28 71  1  0
 28 72  1  0
 29 73  1  0
 29 74  1  0
M  END
>  <UniqueID>  (16) 
15

>  <SMILES>  (16) 
CCOCCN1CCN(C[C@H](COCC)NCC23CC4CC(CC(C4)C2)C3)CC1

>  <Energy>  (16) 
85.39803492681854

>  <Genealogy>  (16) 
CCOCCN1CCN(C[C@H](COCC)NCC23CC4CC(CC(C4)C2)C3)CC1 (chirality)
CCOCCN1CCN(C[C@H](COCC)NCC23CC4CC(CC(C4)C2)C3)CC1 (3D coordinates assigned)
CCOCCN1CCN(C[C@H](COCC)NCC23CC4CC(CC(C4)C2)C3)CC1 (nonaromatic ring conformer: 85.39803492681854 kcal/mol)

>  <smiles>  (16) 
CCOCCN1CCN(CC(COCC)NCC23CC4CC(CC(C4)C2)C3)CC1

>  <score_type>  (16) 
oracle

>  <origin>  (16) 
adg

>  <m_score__min__energy>  (16) 
-8.3900000000000006

>  <m_primary>  (16) 
energy

$$$$
16:0
     RDKit          3D

 43 45  0  0  0  0  0  0  0  0999 V2000
   -6.1500   25.2940  -29.3930 C   0  0  0  0  0  0  0  0  0  0  0  0
   -5.2490   25.6450  -30.5740 C   0  0  0  0  0  0  0  0  0  0  0  0
   -3.9790   24.9120  -30.4850 N   0  0  0  0  0  0  0  0  0  0  0  0
   -4.2010   23.4700  -30.3080 C   0  0  0  0  0  0  0  0  0  0  0  0
   -4.2030   22.7530  -31.6610 C   0  0  0  0  0  0  0  0  0  0  0  0
   -5.3670   21.8130  -31.7890 C   0  0  0  0  0  0  0  0  0  0  0  0
   -5.3120   20.4250  -31.7180 C   0  0  0  0  0  0  0  0  0  0  0  0
   -6.5600   19.9030  -31.7740 N   0  0  0  0  0  0  0  0  0  0  0  0
   -6.8980   18.4860  -31.6240 C   0  0  0  0  0  0  0  0  0  0  0  0
   -6.1590   17.6680  -32.6470 C   0  0  0  0  0  0  0  0  0  0  0  0
   -6.0170   18.1460  -33.9610 C   0  0  0  0  0  0  0  0  0  0  0  0
   -5.3040   17.4040  -34.9070 C   0  0  0  0  0  0  0  0  0  0  0  0
   -4.7270   16.1830  -34.5500 C   0  0  0  0  0  0  0  0  0  0  0  0
   -4.8610   15.7010  -33.2470 C   0  0  0  0  0  0  0  0  0  0  0  0
   -5.5730   16.4400  -32.2950 C   0  0  0  0  0  0  0  0  0  0  0  0
   -7.4070   20.9510  -31.8570 C   0  0  0  0  0  0  0  0  0  0  0  0
   -8.8050   20.9320  -31.8950 C   0  0  0  0  0  0  0  0  0  0  0  0
   -9.4820   22.1630  -31.9470 C   0  0  0  0  0  0  0  0  0  0  0  0
   -8.7600   23.3760  -31.9520 C   0  0  0  0  0  0  0  0  0  0  0  0
   -7.3550   23.3700  -31.9080 C   0  0  0  0  0  0  0  0  0  0  0  0
   -6.7090   22.1340  -31.8660 C   0  0  0  0  0  0  0  0  0  0  0  0
   -5.6187   25.5010  -28.4523 H   0  0  0  0  0  0  0  0  0  0  0  0
   -7.0663   25.9009  -29.4378 H   0  0  0  0  0  0  0  0  0  0  0  0
   -6.4143   24.2272  -29.4378 H   0  0  0  0  0  0  0  0  0  0  0  0
   -5.7582   25.3753  -31.5110 H   0  0  0  0  0  0  0  0  0  0  0  0
   -5.0398   26.7248  -30.5546 H   0  0  0  0  0  0  0  0  0  0  0  0
   -3.4800   25.0450  -31.3970 H   0  0  0  0  0  0  0  0  0  0  0  0
   -3.3982   23.0553  -29.6807 H   0  0  0  0  0  0  0  0  0  0  0  0
   -5.1782   23.3190  -29.8261 H   0  0  0  0  0  0  0  0  0  0  0  0
   -4.2614   23.5041  -32.4625 H   0  0  0  0  0  0  0  0  0  0  0  0
   -3.2767   22.1648  -31.7391 H   0  0  0  0  0  0  0  0  0  0  0  0
   -4.3873   19.8359  -31.6291 H   0  0  0  0  0  0  0  0  0  0  0  0
   -6.6155   18.1492  -30.6156 H   0  0  0  0  0  0  0  0  0  0  0  0
   -7.9802   18.3561  -31.7722 H   0  0  0  0  0  0  0  0  0  0  0  0
   -6.4686   19.1076  -34.2460 H   0  0  0  0  0  0  0  0  0  0  0  0
   -5.1971   17.7823  -35.9344 H   0  0  0  0  0  0  0  0  0  0  0  0
   -4.1666   15.6009  -35.2964 H   0  0  0  0  0  0  0  0  0  0  0  0
   -4.4064   14.7390  -32.9678 H   0  0  0  0  0  0  0  0  0  0  0  0
   -5.6742   16.0585  -31.2683 H   0  0  0  0  0  0  0  0  0  0  0  0
   -9.3586   19.9815  -31.8845 H   0  0  0  0  0  0  0  0  0  0  0  0
  -10.5812   22.1811  -31.9840 H   0  0  0  0  0  0  0  0  0  0  0  0
   -9.3009   24.3331  -31.9906 H   0  0  0  0  0  0  0  0  0  0  0  0
   -6.7831   24.3097  -31.9067 H   0  0  0  0  0  0  0  0  0  0  0  0
  1  2  1  0
  2  3  1  0
  3  4  1  0
  4  5  1  0
  5  6  1  0
  6  7  2  0
  7  8  1  0
  8  9  1  0
  9 10  1  0
 10 11  2  0
 11 12  1  0
 12 13  2  0
 13 14  1  0
 14 15  2  0
  8 16  1  0
 16 17  2  0
 17 18  1  0
 18 19  2  0
 19 20  1  0
 20 21  2  0
 21  6  1  0
 15 10  1  0
 21 16  1  0
  1 22  1  0
  1 23  1  0
  1 24  1  0
  2 25  1  0
  2 26  1  0
  3 27  1  0
  4 28  1  0
  4 29  1  0
  5 30  1  0
  5 31  1  0
  7 32  1  0
  9 33  1  0
  9 34  1  0
 11 35  1  0
 12 36  1  0
 13 37  1  0
 14 38  1  0
 15 39  1  0
 17 40  1  0
 18 41  1  0
 19 42  1  0
 20 43  1  0
M  END
>  <UniqueID>  (17) 
16

>  <SMILES>  (17) 
CCNCCc1cn(Cc2ccccc2)c2ccccc12

>  <Energy>  (17) 
70.60186554474477

>  <Genealogy>  (17) 
CCNCCc1cn(Cc2ccccc2)c2ccccc12 (3D coordinates assigned)
CCNCCc1cn(Cc2ccccc2)c2ccccc12 (optimized conformer: 70.60186554474477 kcal/mol)

>  <smiles>  (17) 
CCNCCc1cn(Cc2ccccc2)c2ccccc12

>  <score_type>  (17) 
oracle

>  <origin>  (17) 
adg

>  <m_score__min__energy>  (17) 
-8.8599999999999994

>  <m_primary>  (17) 
energy

$$$$
17:0
     RDKit          3D

 44 47  0  0  0  0  0  0  0  0999 V2000
   -9.4850   23.4790  -32.3390 C   0  0  0  0  0  0  0  0  0  0  0  0
   -8.5420   22.3350  -32.0990 C   0  0  0  0  0  0  0  0  0  0  0  0
   -9.0630   21.0770  -32.0360 N   0  0  0  0  0  0  0  0  0  0  0  0
   -8.2670   20.0050  -31.8190 C   0  0  0  0  0  0  0  0  0  0  0  0
   -6.9200   20.1360  -31.6490 C   0  0  0  0  0  0  0  0  0  0  0  0
   -6.3160   21.4030  -31.6820 C   0  0  0  0  0  0  0  0  0  0  0  0
   -4.8530   21.5240  -31.4710 C   0  0  0  0  0  0  0  0  0  0  0  0
   -4.3800   22.0710  -30.2690 C   0  0  0  0  0  0  0  0  0  0  0  0
   -3.0120   22.2620  -30.0760 C   0  0  0  0  0  0  0  0  0  0  0  0
   -2.1240   21.9180  -31.0940 C   0  0  0  0  0  0  0  0  0  0  0  0
   -2.5900   21.3910  -32.2560 N   0  0  0  0  0  0  0  0  0  0  0  0
   -3.9140   21.1680  -32.4730 C   0  0  0  0  0  0  0  0  0  0  0  0
   -4.3030   20.6320  -33.7080 O   0  0  0  0  0  0  0  0  0  0  0  0
   -4.5590   19.2740  -33.9410 C   0  0  0  0  0  0  0  0  0  0  0  0
   -5.7450   18.9060  -34.5880 C   0  0  0  0  0  0  0  0  0  0  0  0
   -6.0440   17.5560  -34.7940 C   0  0  0  0  0  0  0  0  0  0  0  0
   -5.1480   16.5680  -34.3730 C   0  0  0  0  0  0  0  0  0  0  0  0
   -3.9480   16.9310  -33.7550 C   0  0  0  0  0  0  0  0  0  0  0  0
   -3.6480   18.2810  -33.5470 C   0  0  0  0  0  0  0  0  0  0  0  0
   -7.1440   22.5380  -31.9120 C   0  0  0  0  0  0  0  0  0  0  0  0
   -6.5650   23.9340  -31.9900 C   0  0  0  0  0  0  0  0  0  0  0  0
   -6.2670   18.8120  -31.4740 C   0  0  0  0  0  0  0  0  0  0  0  0
   -7.4220   17.7990  -31.6020 C   0  0  0  0  0  0  0  0  0  0  0  0
   -8.7260   18.6020  -31.7610 C   0  0  0  0  0  0  0  0  0  0  0  0
   -9.8206   23.8862  -31.3738 H   0  0  0  0  0  0  0  0  0  0  0  0
   -8.9695   24.2656  -32.9095 H   0  0  0  0  0  0  0  0  0  0  0  0
  -10.3556   23.1231  -32.9095 H   0  0  0  0  0  0  0  0  0  0  0  0
   -5.0900   22.3501  -29.4765 H   0  0  0  0  0  0  0  0  0  0  0  0
   -2.6375   22.6799  -29.1299 H   0  0  0  0  0  0  0  0  0  0  0  0
   -1.0438   22.0736  -30.9560 H   0  0  0  0  0  0  0  0  0  0  0  0
   -6.4436   19.6815  -34.9352 H   0  0  0  0  0  0  0  0  0  0  0  0
   -6.9847   17.2706  -35.2876 H   0  0  0  0  0  0  0  0  0  0  0  0
   -5.3876   15.5057  -34.5282 H   0  0  0  0  0  0  0  0  0  0  0  0
   -3.2391   16.1543  -33.4320 H   0  0  0  0  0  0  0  0  0  0  0  0
   -2.6966   18.5654  -33.0738 H   0  0  0  0  0  0  0  0  0  0  0  0
   -6.4042   24.3216  -30.9732 H   0  0  0  0  0  0  0  0  0  0  0  0
   -5.6053   23.9035  -32.5268 H   0  0  0  0  0  0  0  0  0  0  0  0
   -7.2646   24.5916  -32.5268 H   0  0  0  0  0  0  0  0  0  0  0  0
   -5.5120   18.6433  -32.2560 H   0  0  0  0  0  0  0  0  0  0  0  0
   -5.7379   18.7276  -30.5133 H   0  0  0  0  0  0  0  0  0  0  0  0
   -7.2649   17.1595  -32.4831 H   0  0  0  0  0  0  0  0  0  0  0  0
   -7.4708   17.1526  -30.7133 H   0  0  0  0  0  0  0  0  0  0  0  0
   -9.2491   18.3216  -32.6871 H   0  0  0  0  0  0  0  0  0  0  0  0
   -9.4412   18.4203  -30.9453 H   0  0  0  0  0  0  0  0  0  0  0  0
  1  2  1  0
  2  3  2  0
  3  4  1  0
  4  5  2  0
  5  6  1  0
  6  7  1  0
  7  8  2  0
  8  9  1  0
  9 10  2  0
 10 11  1  0
 11 12  2  0
 12 13  1  0
 13 14  1  0
 14 15  2  0
 15 16  1  0
 16 17  2  0
 17 18  1  0
 18 19  2  0
  6 20  2  0
 20 21  1  0
  5 22  1  0
 22 23  1  0
 23 24  1  0
 20  2  1  0
 24  4  1  0
 12  7  1  0
 19 14  1  0
  1 25  1  0
  1 26  1  0
  1 27  1  0
  8 28  1  0
  9 29  1  0
 10 30  1  0
 15 31  1  0
 16 32  1  0
 17 33  1  0
 18 34  1  0
 19 35  1  0
 21 36  1  0
 21 37  1  0
 21 38  1  0
 22 39  1  0
 22 40  1  0
 23 41  1  0
 23 42  1  0
 24 43  1  0
 24 44  1  0
M  END
>  <UniqueID>  (18) 
17

>  <SMILES>  (18) 
Cc1nc2c(c(-c3cccnc3Oc3ccccc3)c1C)CCC2

>  <Energy>  (18) 
70.19613720392957

>  <Genealogy>  (18) 
Cc1nc2c(c(-c3cccnc3Oc3ccccc3)c1C)CCC2 (3D coordinates assigned)
Cc1nc2c(c(-c3cccnc3Oc3ccccc3)c1C)CCC2 (nonaromatic ring conformer: 70.19613720392957 kcal/mol)

>  <smiles>  (18) 
Cc1nc2c(c(-c3cccnc3Oc3ccccc3)c1C)CCC2

>  <score_type>  (18) 
oracle

>  <origin>  (18) 
adg

>  <m_score__min__energy>  (18) 
-8.4299999999999997

>  <m_primary>  (18) 
energy

$$$$
18:0
     RDKit          3D

 33 35  0  0  0  0  0  0  0  0999 V2000
   -3.7230   17.6240  -34.6770 C   0  0  0  0  0  0  0  0  0  0  0  0
   -4.7650   18.5410  -34.2280 N   0  0  0  0  0  0  0  0  0  0  0  0
   -6.0960   18.4560  -34.4750 C   0  0  0  0  0  0  0  0  0  0  0  0
   -6.7940   19.4510  -33.8770 N   0  0  0  0  0  0  0  0  0  0  0  0
   -5.8610   20.1730  -33.2320 C   0  0  0  0  0  0  0  0  0  0  0  0
   -6.0410   21.3090  -32.4460 C   0  0  0  0  0  0  0  0  0  0  0  0
   -4.8980   21.8890  -31.8480 C   0  0  0  0  0  0  0  0  0  0  0  0
   -5.0250   23.0740  -31.0370 N   0  0  0  0  0  0  0  0  0  0  0  0
   -4.2180   23.2510  -29.8230 C   0  0  0  0  0  0  0  0  0  0  0  0
   -3.5280   24.6310  -29.8290 C   0  0  0  0  0  0  0  0  0  0  0  0
   -4.2510   25.6580  -30.6060 N   0  0  0  0  0  0  0  0  0  0  0  0
   -5.6990   25.4180  -30.6490 C   0  0  0  0  0  0  0  0  0  0  0  0
   -6.0050   24.1090  -31.3890 C   0  0  0  0  0  0  0  0  0  0  0  0
   -3.6180   21.3120  -32.0750 C   0  0  0  0  0  0  0  0  0  0  0  0
   -3.4770   20.1630  -32.8750 C   0  0  0  0  0  0  0  0  0  0  0  0
   -4.6310   19.6220  -33.4390 C   0  0  0  0  0  0  0  0  0  0  0  0
   -3.2215   17.1827  -33.8031 H   0  0  0  0  0  0  0  0  0  0  0  0
   -4.1743   16.8247  -35.2832 H   0  0  0  0  0  0  0  0  0  0  0  0
   -2.9876   18.1732  -35.2832 H   0  0  0  0  0  0  0  0  0  0  0  0
   -6.5560   17.6690  -35.0906 H   0  0  0  0  0  0  0  0  0  0  0  0
   -7.8250   19.6130  -33.9060 H   0  0  0  0  0  0  0  0  0  0  0  0
   -7.0411   21.7415  -32.2951 H   0  0  0  0  0  0  0  0  0  0  0  0
   -4.8705   23.1764  -28.9406 H   0  0  0  0  0  0  0  0  0  0  0  0
   -3.4464   22.4677  -29.7915 H   0  0  0  0  0  0  0  0  0  0  0  0
   -3.4422   24.9799  -28.7893 H   0  0  0  0  0  0  0  0  0  0  0  0
   -2.5486   24.4963  -30.3113 H   0  0  0  0  0  0  0  0  0  0  0  0
   -3.8860   25.6570  -31.5890 H   0  0  0  0  0  0  0  0  0  0  0  0
   -6.0856   25.3518  -29.6213 H   0  0  0  0  0  0  0  0  0  0  0  0
   -6.1818   26.2498  -31.1829 H   0  0  0  0  0  0  0  0  0  0  0  0
   -7.0114   23.7633  -31.1105 H   0  0  0  0  0  0  0  0  0  0  0  0
   -5.9516   24.2936  -32.4721 H   0  0  0  0  0  0  0  0  0  0  0  0
   -2.7273   21.7695  -31.6196 H   0  0  0  0  0  0  0  0  0  0  0  0
   -2.4908   19.7079  -33.0491 H   0  0  0  0  0  0  0  0  0  0  0  0
  1  2  1  0
  2  3  1  0
  3  4  2  0
  4  5  1  0
  5  6  2  0
  6  7  1  0
  7  8  1  0
  8  9  1  0
  9 10  1  0
 10 11  1  0
 11 12  1  0
 12 13  1  0
  7 14  2  0
 14 15  1  0
 15 16  2  0
 16  2  1  0
 16  5  1  0
 13  8  1  0
  1 17  1  0
  1 18  1  0
  1 19  1  0
  3 20  1  0
  4 21  1  0
  6 22  1  0
  9 23  1  0
  9 24  1  0
 10 25  1  0
 10 26  1  0
 11 27  1  0
 12 28  1  0
 12 29  1  0
 13 30  1  0
 13 31  1  0
 14 32  1  0
 15 33  1  0
M  CHG  1   4   1
M  END
>  <UniqueID>  (19) 
18

>  <SMILES>  (19) 
Cn1c[nH+]c2cc(N3CCNCC3)ccc21

>  <Energy>  (19) 
80.36999239762399

>  <Genealogy>  (19) 
Cn1c[nH+]c2cc(N3CCNCC3)ccc21 (protonated)
Cn1c[nH+]c2cc(N3CCNCC3)ccc21 (3D coordinates assigned)
Cn1c[nH+]c2cc(N3CCNCC3)ccc21 (nonaromatic ring conformer: 80.36999239762399 kcal/mol)

>  <smiles>  (19) 
Cn1cnc2cc(N3CCNCC3)ccc21

>  <score_type>  (19) 
oracle

>  <origin>  (19) 
adg

>  <m_score__min__energy>  (19) 
-6.5499999999999998

>  <m_primary>  (19) 
energy

$$$$
19:0
     RDKit          3D

 38 40  0  0  0  0  0  0  0  0999 V2000
   -9.8240   21.1740  -31.9510 C   0  0  0  0  0  0  0  0  0  0  0  0
   -8.5710   20.4160  -32.2480 C   0  0  0  0  0  0  0  0  0  0  0  0
   -8.4970   19.0730  -32.3640 N   0  0  0  0  0  0  0  0  0  0  0  0
   -7.1910   18.8040  -32.5810 C   0  0  0  0  0  0  0  0  0  0  0  0
   -6.6400   17.4220  -32.7440 C   0  0  0  0  0  0  0  0  0  0  0  0
   -6.4450   19.9290  -32.6070 N   0  0  0  0  0  0  0  0  0  0  0  0
   -7.2970   20.9350  -32.3690 C   0  0  0  0  0  0  0  0  0  0  0  0
   -6.8590   22.3670  -32.3450 C   0  0  0  0  0  0  0  0  0  0  0  0
   -5.4110   22.4730  -32.0500 N   0  0  0  0  0  0  0  0  0  0  0  0
   -5.1270   22.3170  -30.6060 C   0  0  0  0  0  0  0  0  0  0  0  0
   -4.1150   23.3330  -30.1550 C   0  0  0  0  0  0  0  0  0  0  0  0
   -2.8760   23.0560  -29.6180 C   0  0  0  0  0  0  0  0  0  0  0  0
   -2.3030   24.2810  -29.3440 C   0  0  0  0  0  0  0  0  0  0  0  0
   -3.1260   25.2460  -29.6870 O   0  0  0  0  0  0  0  0  0  0  0  0
   -4.2210   24.7130  -30.1800 C   0  0  0  0  0  0  0  0  0  0  0  0
   -5.3850   25.5130  -30.6620 C   0  0  0  0  0  0  0  0  0  0  0  0
   -4.6090   21.5580  -32.9030 C   0  0  0  0  0  0  0  0  0  0  0  0
   -4.9970   20.0700  -32.7340 C   0  0  0  0  0  0  0  0  0  0  0  0
   -9.9551   21.2533  -30.8617 H   0  0  0  0  0  0  0  0  0  0  0  0
   -9.7548   22.1818  -32.3863 H   0  0  0  0  0  0  0  0  0  0  0  0
  -10.6845   20.6449  -32.3863 H   0  0  0  0  0  0  0  0  0  0  0  0
   -9.2820   18.3870  -32.2880 H   0  0  0  0  0  0  0  0  0  0  0  0
   -6.4632   16.9785  -31.7530 H   0  0  0  0  0  0  0  0  0  0  0  0
   -7.3602   16.8033  -33.2994 H   0  0  0  0  0  0  0  0  0  0  0  0
   -5.6916   17.4685  -33.2994 H   0  0  0  0  0  0  0  0  0  0  0  0
   -7.0607   22.8216  -33.3261 H   0  0  0  0  0  0  0  0  0  0  0  0
   -7.4174   22.8917  -31.5558 H   0  0  0  0  0  0  0  0  0  0  0  0
   -6.0580   22.4563  -30.0370 H   0  0  0  0  0  0  0  0  0  0  0  0
   -4.7219   21.3095  -30.4302 H   0  0  0  0  0  0  0  0  0  0  0  0
   -2.4351   22.0634  -29.4439 H   0  0  0  0  0  0  0  0  0  0  0  0
   -1.3056   24.4278  -28.9039 H   0  0  0  0  0  0  0  0  0  0  0  0
   -5.9470   25.8993  -29.7989 H   0  0  0  0  0  0  0  0  0  0  0  0
   -5.0242   26.3549  -31.2712 H   0  0  0  0  0  0  0  0  0  0  0  0
   -6.0417   24.8745  -31.2712 H   0  0  0  0  0  0  0  0  0  0  0  0
   -4.7582   21.8408  -33.9555 H   0  0  0  0  0  0  0  0  0  0  0  0
   -3.5585   21.6590  -32.5927 H   0  0  0  0  0  0  0  0  0  0  0  0
   -4.6542   19.5047  -33.6131 H   0  0  0  0  0  0  0  0  0  0  0  0
   -4.5208   19.6801  -31.8223 H   0  0  0  0  0  0  0  0  0  0  0  0
  1  2  1  0
  2  3  1  0
  3  4  2  0
  4  5  1  0
  4  6  1  0
  6  7  1  0
  7  8  1  0
  8  9  1  0
  9 10  1  0
 10 11  1  0
 11 12  1  0
 12 13  2  0
 13 14  1  0
 14 15  1  0
 15 16  1  0
  9 17  1  0
 17 18  1  0
  7  2  2  0
 15 11  2  0
 18  6  1  0
  1 19  1  0
  1 20  1  0
  1 21  1  0
  3 22  1  0
  5 23  1  0
  5 24  1  0
  5 25  1  0
  8 26  1  0
  8 27  1  0
 10 28  1  0
 10 29  1  0
 12 30  1  0
 13 31  1  0
 16 32  1  0
 16 33  1  0
 16 34  1  0
 17 35  1  0
 17 36  1  0
 18 37  1  0
 18 38  1  0
M  CHG  1   3   1
M  END
>  <UniqueID>  (20) 
19

>  <SMILES>  (20) 
Cc1[nH+]c(C)n2c1CN(Cc1ccoc1C)CC2

>  <Energy>  (20) 
97.75108505800178

>  <Genealogy>  (20) 
Cc1[nH+]c(C)n2c1CN(Cc1ccoc1C)CC2 (protonated)
Cc1[nH+]c(C)n2c1CN(Cc1ccoc1C)CC2 (3D coordinates assigned)
Cc1[nH+]c(C)n2c1CN(Cc1ccoc1C)CC2 (nonaromatic ring conformer: 97.75108505800178 kcal/mol)

>  <smiles>  (20) 
Cc1nc(C)n2c1CN(Cc1ccoc1C)CC2

>  <score_type>  (20) 
oracle

>  <origin>  (20) 
adg

>  <m_score__min__energy>  (20) 
-6.9400000000000004

>  <m_primary>  (20) 
energy

$$$$
20:0
     RDKit          3D

 24 23  0  0  0  0  0  0  0  0999 V2000
   -9.4730   21.5360  -31.9430 C   0  0  0  0  0  0  0  0  0  0  0  0
   -8.2860   21.7620  -31.3780 C   0  0  0  0  0  0  0  0  0  0  0  0
   -7.5790   23.0760  -31.5590 C   0  0  0  0  0  0  0  0  0  0  0  0
   -6.9220   23.4860  -30.3190 N   0  0  0  0  0  0  0  0  0  0  0  0
   -6.1170   24.5030  -30.1710 C   0  0  0  0  0  0  0  0  0  0  0  0
   -6.4970   25.6940  -29.3260 C   0  0  0  0  0  0  0  0  0  0  0  0
   -4.7780   24.4320  -30.7870 C   0  0  0  0  0  0  0  0  0  0  0  0
   -3.8980   25.2780  -30.4680 O   0  0  0  0  0  0  0  0  0  0  0  0
   -4.4860   23.4280  -31.7190 O   0  0  0  0  0  0  0  0  0  0  0  0
   -4.2770   22.0630  -31.3670 C   0  0  0  0  0  0  0  0  0  0  0  0
   -4.5480   21.1520  -32.5580 C   0  0  0  0  0  0  0  0  0  0  0  0
   -9.9752   20.5679  -31.7992 H   0  0  0  0  0  0  0  0  0  0  0  0
   -9.9497   22.3177  -32.5527 H   0  0  0  0  0  0  0  0  0  0  0  0
   -7.8171   20.9743  -30.7700 H   0  0  0  0  0  0  0  0  0  0  0  0
   -6.8227   22.9727  -32.3510 H   0  0  0  0  0  0  0  0  0  0  0  0
   -8.3201   23.8405  -31.8354 H   0  0  0  0  0  0  0  0  0  0  0  0
   -6.4128   25.4301  -28.2614 H   0  0  0  0  0  0  0  0  0  0  0  0
   -5.8220   26.5331  -29.5503 H   0  0  0  0  0  0  0  0  0  0  0  0
   -7.5333   25.9871  -29.5503 H   0  0  0  0  0  0  0  0  0  0  0  0
   -3.2351   21.9298  -31.0402 H   0  0  0  0  0  0  0  0  0  0  0  0
   -4.9689   21.7975  -30.5541 H   0  0  0  0  0  0  0  0  0  0  0  0
   -4.8443   20.1558  -32.1977 H   0  0  0  0  0  0  0  0  0  0  0  0
   -5.3585   21.5773  -33.1680 H   0  0  0  0  0  0  0  0  0  0  0  0
   -3.6368   21.0652  -33.1680 H   0  0  0  0  0  0  0  0  0  0  0  0
  1  2  2  0
  2  3  1  0
  3  4  1  0
  4  5  2  3
  5  6  1  0
  5  7  1  0
  7  8  2  0
  7  9  1  0
  9 10  1  0
 10 11  1  0
  1 12  1  0
  1 13  1  0
  2 14  1  0
  3 15  1  0
  3 16  1  0
  6 17  1  0
  6 18  1  0
  6 19  1  0
 10 20  1  0
 10 21  1  0
 11 22  1  0
 11 23  1  0
 11 24  1  0
M  END
>  <UniqueID>  (21) 
20

>  <SMILES>  (21) 
C=CCN=C(C)C(=O)OCC

>  <Energy>  (21) 
11.502227435219249

>  <Genealogy>  (21) 
C=CCN=C(C)C(=O)OCC (3D coordinates assigned)
C=CCN=C(C)C(=O)OCC (optimized conformer: 11.502227435219249 kcal/mol)

>  <smiles>  (21) 
C=CCN=C(C)C(=O)OCC

>  <score_type>  (21) 
oracle

>  <origin>  (21) 
adg

>  <m_score__min__energy>  (21) 
-4.3499999999999996

>  <m_primary>  (21) 
energy

$$$$
21:0
     RDKit          3D

 69 72  0  0  0  0  0  0  0  0999 V2000
   -1.3440   18.9170  -31.9660 C   0  0  0  0  0  0  0  0  0  0  0  0
   -1.1370   20.3490  -32.2500 N   0  0  0  0  0  0  0  0  0  0  0  0
    0.2960   20.6680  -32.1450 C   0  0  0  0  0  0  0  0  0  0  0  0
   -1.6440   20.7060  -33.5930 C   0  0  0  0  0  0  0  0  0  0  0  0
   -3.1210   21.1130  -33.5390 C   0  0  0  0  0  0  0  0  0  0  0  0
   -3.5400   21.4020  -32.1680 N   0  0  0  0  0  0  0  0  0  0  0  0
   -4.9280   21.5830  -31.8580 C   0  0  0  0  0  0  0  0  0  0  0  0
   -5.8360   20.5620  -32.1780 C   0  0  0  0  0  0  0  0  0  0  0  0
   -5.3840   19.3300  -32.7010 C   0  0  0  0  0  0  0  0  0  0  0  0
   -6.2800   18.3000  -32.9720 C   0  0  0  0  0  0  0  0  0  0  0  0
   -7.6350   18.4730  -32.7170 C   0  0  0  0  0  0  0  0  0  0  0  0
   -8.1060   19.6860  -32.2190 C   0  0  0  0  0  0  0  0  0  0  0  0
   -7.2230   20.7690  -31.9730 C   0  0  0  0  0  0  0  0  0  0  0  0
   -7.6800   21.9980  -31.5400 N   0  0  0  0  0  0  0  0  0  0  0  0
   -9.1210   22.3220  -31.6340 C   0  0  0  0  0  0  0  0  0  0  0  0
   -6.7900   22.9330  -31.0400 C   0  0  0  0  0  0  0  0  0  0  0  0
   -7.2450   24.0750  -30.3400 C   0  0  0  0  0  0  0  0  0  0  0  0
   -6.3590   25.0410  -29.8830 C   0  0  0  0  0  0  0  0  0  0  0  0
   -4.9950   24.8870  -30.0760 C   0  0  0  0  0  0  0  0  0  0  0  0
   -4.4840   23.7400  -30.7060 C   0  0  0  0  0  0  0  0  0  0  0  0
   -3.0950   23.5440  -30.8230 O   0  0  0  0  0  0  0  0  0  0  0  0
   -2.1540   23.4370  -29.7550 C   0  0  0  0  0  0  0  0  0  0  0  0
   -1.3900   22.0880  -29.7460 C   0  0  0  0  0  0  0  0  0  0  0  0
   -0.9920   21.5460  -28.4010 N   0  0  0  0  0  0  0  0  0  0  0  0
    0.1250   22.3510  -27.8380 C   0  0  0  0  0  0  0  0  0  0  0  0
   -2.1690   21.6880  -27.4710 C   0  0  0  0  0  0  0  0  0  0  0  0
   -3.1130   20.4770  -27.5130 C   0  0  0  0  0  0  0  0  0  0  0  0
   -2.3910   19.2060  -27.0350 C   0  0  0  0  0  0  0  0  0  0  0  0
   -0.8750   19.2690  -27.2790 C   0  0  0  0  0  0  0  0  0  0  0  0
   -0.5590   20.1100  -28.5250 C   0  0  0  0  0  0  0  0  0  0  0  0
   -5.3850   22.7550  -31.2090 C   0  0  0  0  0  0  0  0  0  0  0  0
   -1.3669   18.7586  -30.8777 H   0  0  0  0  0  0  0  0  0  0  0  0
   -2.2987   18.5905  -32.4042 H   0  0  0  0  0  0  0  0  0  0  0  0
   -0.5209   18.3336  -32.4042 H   0  0  0  0  0  0  0  0  0  0  0  0
    0.5808   20.7314  -31.0844 H   0  0  0  0  0  0  0  0  0  0  0  0
    0.8843   19.8788  -32.6361 H   0  0  0  0  0  0  0  0  0  0  0  0
    0.4939   21.6322  -32.6361 H   0  0  0  0  0  0  0  0  0  0  0  0
   -1.0545   21.5470  -33.9870 H   0  0  0  0  0  0  0  0  0  0  0  0
   -1.5494   19.8258  -34.2459 H   0  0  0  0  0  0  0  0  0  0  0  0
   -3.2684   22.0115  -34.1562 H   0  0  0  0  0  0  0  0  0  0  0  0
   -3.7268   20.2774  -33.9196 H   0  0  0  0  0  0  0  0  0  0  0  0
   -2.8580   21.3480  -31.3790 H   0  0  0  0  0  0  0  0  0  0  0  0
   -4.3115   19.1830  -32.8963 H   0  0  0  0  0  0  0  0  0  0  0  0
   -5.9156   17.3491  -33.3880 H   0  0  0  0  0  0  0  0  0  0  0  0
   -8.3383   17.6493  -32.9090 H   0  0  0  0  0  0  0  0  0  0  0  0
   -9.1799   19.8060  -32.0132 H   0  0  0  0  0  0  0  0  0  0  0  0
   -9.5423   22.4167  -30.6223 H   0  0  0  0  0  0  0  0  0  0  0  0
   -9.2489   23.2713  -32.1748 H   0  0  0  0  0  0  0  0  0  0  0  0
   -9.6429   21.5188  -32.1748 H   0  0  0  0  0  0  0  0  0  0  0  0
   -8.3220   24.2000  -30.1542 H   0  0  0  0  0  0  0  0  0  0  0  0
   -6.7412   25.9331  -29.3652 H   0  0  0  0  0  0  0  0  0  0  0  0
   -4.3050   25.6716  -29.7320 H   0  0  0  0  0  0  0  0  0  0  0  0
   -1.4221   24.2525  -29.8511 H   0  0  0  0  0  0  0  0  0  0  0  0
   -2.7200   23.4980  -28.8138 H   0  0  0  0  0  0  0  0  0  0  0  0
   -2.0323   21.3380  -30.2308 H   0  0  0  0  0  0  0  0  0  0  0  0
   -0.4430   22.2887  -30.2684 H   0  0  0  0  0  0  0  0  0  0  0  0
    0.0819   22.3199  -26.7393 H   0  0  0  0  0  0  0  0  0  0  0  0
    1.0847   21.9355  -28.1792 H   0  0  0  0  0  0  0  0  0  0  0  0
    0.0344   23.3928  -28.1792 H   0  0  0  0  0  0  0  0  0  0  0  0
   -1.7928   21.8044  -26.4439 H   0  0  0  0  0  0  0  0  0  0  0  0
   -2.7443   22.5667  -27.7981 H   0  0  0  0  0  0  0  0  0  0  0  0
   -3.9760   20.6694  -26.8586 H   0  0  0  0  0  0  0  0  0  0  0  0
   -3.4459   20.3248  -28.5503 H   0  0  0  0  0  0  0  0  0  0  0  0
   -2.5708   19.0814  -25.9570 H   0  0  0  0  0  0  0  0  0  0  0  0
   -2.7891   18.3568  -27.6098 H   0  0  0  0  0  0  0  0  0  0  0  0
   -0.3872   19.7231  -26.4039 H   0  0  0  0  0  0  0  0  0  0  0  0
   -0.5001   18.2472  -27.4382 H   0  0  0  0  0  0  0  0  0  0  0  0
    0.5275   20.0867  -28.6954 H   0  0  0  0  0  0  0  0  0  0  0  0
   -1.1202   19.6723  -29.3637 H   0  0  0  0  0  0  0  0  0  0  0  0
  1  2  1  0
  2  3  1  0
  2  4  1  0
  4  5  1  0
  5  6  1  0
  6  7  1  0
  7  8  2  0
  8  9  1  0
  9 10  2  0
 10 11  1  0
 11 12  2  0
 12 13  1  0
 13 14  2  0
 14 15  1  0
 14 16  1  0
 16 17  2  0
 17 18  1  0
 18 19  2  0
 19 20  1  0
 20 21  1  0
 21 22  1  0
 22 23  1  0
 23 24  1  0
 24 25  1  0
 24 26  1  0
 26 27  1  0
 27 28  1  0
 28 29  1  0
 29 30  1  0
 20 31  2  0
 31  7  1  0
 13  8  1  0
 31 16  1  0
 30 24  1  0
  1 32  1  0
  1 33  1  0
  1 34  1  0
  3 35  1  0
  3 36  1  0
  3 37  1  0
  4 38  1  0
  4 39  1  0
  5 40  1  0
  5 41  1  0
  6 42  1  0
  9 43  1  0
 10 44  1  0
 11 45  1  0
 12 46  1  0
 15 47  1  0
 15 48  1  0
 15 49  1  0
 17 50  1  0
 18 51  1  0
 19 52  1  0
 22 53  1  0
 22 54  1  0
 23 55  1  0
 23 56  1  0
 25 57  1  0
 25 58  1  0
 25 59  1  0
 26 60  1  0
 26 61  1  0
 27 62  1  0
 27 63  1  0
 28 64  1  0
 28 65  1  0
 29 66  1  0
 29 67  1  0
 30 68  1  0
 30 69  1  0
M  CHG  2  14   1  24   1
M  END
>  <UniqueID>  (22) 
21

>  <SMILES>  (22) 
CN(C)CCNc1c2ccccc2[n+](C)c2cccc(OCC[N+]3(C)CCCCC3)c12

>  <Energy>  (22) 
113.5880490324181

>  <Genealogy>  (22) 
CN(C)CCNc1c2ccccc2[n+](C)c2cccc(OCC[N+]3(C)CCCCC3)c12 (3D coordinates assigned)
CN(C)CCNc1c2ccccc2[n+](C)c2cccc(OCC[N+]3(C)CCCCC3)c12 (nonaromatic ring conformer: 113.5880490324181 kcal/mol)

>  <smiles>  (22) 
CN(C)CCNc1c2ccccc2[n+](C)c2cccc(OCC[N+]3(C)CCCCC3)c12

>  <score_type>  (22) 
oracle

>  <origin>  (22) 
adg

>  <m_score__min__energy>  (22) 
-8.4399999999999995

>  <m_primary>  (22) 
energy

$$$$
22:0
     RDKit          3D

 45 46  0  0  0  0  0  0  0  0999 V2000
   -9.1560   21.7110  -31.6920 C   0  0  0  0  0  0  0  0  0  0  0  0
   -8.4470   23.0330  -31.9680 C   0  0  0  0  0  0  0  0  0  0  0  0
   -7.0880   22.7880  -32.4770 N   0  0  0  0  0  0  0  0  0  0  0  0
   -5.9550   23.1010  -31.5630 C   0  0  0  0  0  0  0  0  0  0  0  0
   -4.6740   22.4350  -32.1890 C   0  0  0  0  0  0  0  0  0  0  0  0
   -4.8900   21.5740  -33.3790 N   0  0  0  0  0  0  0  0  0  0  0  0
   -4.7410   20.1100  -33.1840 C   0  0  0  0  0  0  0  0  0  0  0  0
   -5.7950   19.3540  -33.9980 C   0  0  0  0  0  0  0  0  0  0  0  0
   -7.0040   19.1870  -33.0850 C   0  0  0  0  0  0  0  0  0  0  0  0
   -6.5130   19.4100  -31.6570 C   0  0  0  0  0  0  0  0  0  0  0  0
   -5.0150   19.6630  -31.7440 C   0  0  0  0  0  0  0  0  0  0  0  0
   -5.7470   24.6530  -31.5190 C   0  0  0  0  0  0  0  0  0  0  0  0
   -4.6980   25.1210  -30.4920 C   0  0  0  0  0  0  0  0  0  0  0  0
   -4.9650   24.5460  -29.0970 C   0  0  0  0  0  0  0  0  0  0  0  0
   -5.0920   23.0200  -29.1360 C   0  0  0  0  0  0  0  0  0  0  0  0
   -6.2060   22.5980  -30.1030 C   0  0  0  0  0  0  0  0  0  0  0  0
   -9.2377   21.5586  -30.6057 H   0  0  0  0  0  0  0  0  0  0  0  0
  -10.1623   21.7350  -32.1356 H   0  0  0  0  0  0  0  0  0  0  0  0
   -8.5793   20.8860  -32.1356 H   0  0  0  0  0  0  0  0  0  0  0  0
   -9.0179   23.6013  -32.7170 H   0  0  0  0  0  0  0  0  0  0  0  0
   -8.3800   23.6052  -31.0309 H   0  0  0  0  0  0  0  0  0  0  0  0
   -6.9580   23.3110  -33.3760 H   0  0  0  0  0  0  0  0  0  0  0  0
   -3.9863   23.2423  -32.4809 H   0  0  0  0  0  0  0  0  0  0  0  0
   -4.2848   21.7630  -31.4100 H   0  0  0  0  0  0  0  0  0  0  0  0
   -4.2410   21.8890  -34.1360 H   0  0  0  0  0  0  0  0  0  0  0  0
   -5.8580   21.7700  -33.7300 H   0  0  0  0  0  0  0  0  0  0  0  0
   -3.7039   19.8947  -33.4807 H   0  0  0  0  0  0  0  0  0  0  0  0
   -6.0707   19.9311  -34.8930 H   0  0  0  0  0  0  0  0  0  0  0  0
   -5.4138   18.3797  -34.3378 H   0  0  0  0  0  0  0  0  0  0  0  0
   -7.7761   19.9278  -33.3399 H   0  0  0  0  0  0  0  0  0  0  0  0
   -7.4484   18.1871  -33.1978 H   0  0  0  0  0  0  0  0  0  0  0  0
   -7.0193   20.2801  -31.2136 H   0  0  0  0  0  0  0  0  0  0  0  0
   -6.7307   18.5378  -31.0231 H   0  0  0  0  0  0  0  0  0  0  0  0
   -4.7196   20.4521  -31.0368 H   0  0  0  0  0  0  0  0  0  0  0  0
   -4.4401   18.7609  -31.4875 H   0  0  0  0  0  0  0  0  0  0  0  0
   -5.4255   24.9864  -32.5168 H   0  0  0  0  0  0  0  0  0  0  0  0
   -6.7077   25.0920  -31.2119 H   0  0  0  0  0  0  0  0  0  0  0  0
   -3.7026   24.7937  -30.8266 H   0  0  0  0  0  0  0  0  0  0  0  0
   -4.7540   26.2175  -30.4243 H   0  0  0  0  0  0  0  0  0  0  0  0
   -4.1323   24.8189  -28.4321 H   0  0  0  0  0  0  0  0  0  0  0  0
   -5.9132   24.9628  -28.7266 H   0  0  0  0  0  0  0  0  0  0  0  0
   -4.1384   22.5858  -29.4708 H   0  0  0  0  0  0  0  0  0  0  0  0
   -5.3403   22.6578  -28.1275 H   0  0  0  0  0  0  0  0  0  0  0  0
   -6.2663   21.4997  -30.1138 H   0  0  0  0  0  0  0  0  0  0  0  0
   -7.1441   23.0513  -29.7502 H   0  0  0  0  0  0  0  0  0  0  0  0
  1  2  1  0
  2  3  1  0
  3  4  1  0
  4  5  1  0
  5  6  1  0
  6  7  1  0
  7  8  1  0
  8  9  1  0
  9 10  1  0
 10 11  1  0
  4 12  1  0
 12 13  1  0
 13 14  1  0
 14 15  1  0
 15 16  1  0
 16  4  1  0
 11  7  1  0
  1 17  1  0
  1 18  1  0
  1 19  1  0
  2 20  1  0
  2 21  1  0
  3 22  1  0
  5 23  1  0
  5 24  1  0
  6 25  1  0
  6 26  1  0
  7 27  1  0
  8 28  1  0
  8 29  1  0
  9 30  1  0
  9 31  1  0
 10 32  1  0
 10 33  1  0
 11 34  1  0
 11 35  1  0
 12 36  1  0
 12 37  1  0
 13 38  1  0
 13 39  1  0
 14 40  1  0
 14 41  1  0
 15 42  1  0
 15 43  1  0
 16 44  1  0
 16 45  1  0
M  CHG  1   6   1
M  END
>  <UniqueID>  (23) 
22

>  <SMILES>  (23) 
CCNC1(C[NH2+]C2CCCC2)CCCCC1

>  <Energy>  (23) 
49.654665353175346

>  <Genealogy>  (23) 
CCNC1(C[NH2+]C2CCCC2)CCCCC1 (protonated)
CCNC1(C[NH2+]C2CCCC2)CCCCC1 (3D coordinates assigned)
CCNC1(C[NH2+]C2CCCC2)CCCCC1 (nonaromatic ring conformer: 49.654665353175346 kcal/mol)

>  <smiles>  (23) 
CCNC1(CNC2CCCC2)CCCCC1

>  <score_type>  (23) 
oracle

>  <origin>  (23) 
adg

>  <m_score__min__energy>  (23) 
-5.9699999999999998

>  <m_primary>  (23) 
energy

$$$$
23:0
     RDKit          3D

 39 40  0  0  0  0  0  0  0  0999 V2000
   -1.4320   25.9920  -26.6280 C   0  0  0  0  0  0  0  0  0  0  0  0
   -0.8610   26.5160  -27.9410 C   0  0  0  0  0  0  0  0  0  0  0  0
   -1.1880   25.6400  -29.0040 O   0  0  0  0  0  0  0  0  0  0  0  0
   -1.1360   24.2860  -28.5930 C   0  0  0  0  0  0  0  0  0  0  0  0
   -2.4630   23.5720  -28.8720 C   0  0  0  0  0  0  0  0  0  0  0  0
   -3.2790   24.3410  -29.8100 N   0  0  0  0  0  0  0  0  0  0  0  0
   -4.7110   24.2710  -29.8330 C   0  0  0  0  0  0  0  0  0  0  0  0
   -5.3260   23.4710  -29.0770 O   0  0  0  0  0  0  0  0  0  0  0  0
   -5.4830   25.1130  -30.7960 C   0  0  0  0  0  0  0  0  0  0  0  0
   -5.7890   24.3390  -31.9520 O   0  0  0  0  0  0  0  0  0  0  0  0
   -6.6340   23.2170  -31.9630 C   0  0  0  0  0  0  0  0  0  0  0  0
   -8.0060   23.3220  -31.6770 C   0  0  0  0  0  0  0  0  0  0  0  0
   -8.8220   22.1930  -31.6960 C   0  0  0  0  0  0  0  0  0  0  0  0
   -8.2850   20.9360  -32.0020 C   0  0  0  0  0  0  0  0  0  0  0  0
   -9.1140   19.8020  -32.0190 C   0  0  0  0  0  0  0  0  0  0  0  0
   -8.5810   18.5490  -32.3230 C   0  0  0  0  0  0  0  0  0  0  0  0
   -7.2240   18.4150  -32.6120 C   0  0  0  0  0  0  0  0  0  0  0  0
   -6.3860   19.5330  -32.5990 C   0  0  0  0  0  0  0  0  0  0  0  0
   -6.9020   20.8100  -32.2940 C   0  0  0  0  0  0  0  0  0  0  0  0
   -6.0810   21.9620  -32.2720 C   0  0  0  0  0  0  0  0  0  0  0  0
   -4.1950   21.8740  -32.6590 Br  0  0  0  0  0  0  0  0  0  0  0  0
   -0.9113   26.4699  -25.7851 H   0  0  0  0  0  0  0  0  0  0  0  0
   -2.5056   26.2258  -26.5758 H   0  0  0  0  0  0  0  0  0  0  0  0
   -1.2911   24.9023  -26.5758 H   0  0  0  0  0  0  0  0  0  0  0  0
   -1.2820   27.5109  -28.1483 H   0  0  0  0  0  0  0  0  0  0  0  0
    0.2337   26.5802  -27.8545 H   0  0  0  0  0  0  0  0  0  0  0  0
   -0.3311   23.7750  -29.1416 H   0  0  0  0  0  0  0  0  0  0  0  0
   -0.9454   24.2573  -27.5100 H   0  0  0  0  0  0  0  0  0  0  0  0
   -2.2559   22.5812  -29.3025 H   0  0  0  0  0  0  0  0  0  0  0  0
   -3.0146   23.4706  -27.9257 H   0  0  0  0  0  0  0  0  0  0  0  0
   -2.7930   24.9460  -30.5100 H   0  0  0  0  0  0  0  0  0  0  0  0
   -6.4161   25.4523  -30.3225 H   0  0  0  0  0  0  0  0  0  0  0  0
   -4.8836   25.9889  -31.0850 H   0  0  0  0  0  0  0  0  0  0  0  0
   -8.4392   24.3040  -31.4361 H   0  0  0  0  0  0  0  0  0  0  0  0
   -9.8941   22.2892  -31.4694 H   0  0  0  0  0  0  0  0  0  0  0  0
  -10.1857   19.9022  -31.7921 H   0  0  0  0  0  0  0  0  0  0  0  0
   -9.2339   17.6638  -32.3347 H   0  0  0  0  0  0  0  0  0  0  0  0
   -6.8107   17.4241  -32.8515 H   0  0  0  0  0  0  0  0  0  0  0  0
   -5.3165   19.4166  -32.8282 H   0  0  0  0  0  0  0  0  0  0  0  0
  1  2  1  0
  2  3  1  0
  3  4  1  0
  4  5  1  0
  5  6  1  0
  6  7  1  0
  7  8  2  0
  7  9  1  0
  9 10  1  0
 10 11  1  0
 11 12  2  0
 12 13  1  0
 13 14  2  0
 14 15  1  0
 15 16  2  0
 16 17  1  0
 17 18  2  0
 18 19  1  0
 19 20  2  0
 20 21  1  0
 20 11  1  0
 19 14  1  0
  1 22  1  0
  1 23  1  0
  1 24  1  0
  2 25  1  0
  2 26  1  0
  4 27  1  0
  4 28  1  0
  5 29  1  0
  5 30  1  0
  6 31  1  0
  9 32  1  0
  9 33  1  0
 12 34  1  0
 13 35  1  0
 15 36  1  0
 16 37  1  0
 17 38  1  0
 18 39  1  0
M  END
>  <UniqueID>  (24) 
23

>  <SMILES>  (24) 
CCOCCNC(=O)COc1ccc2ccccc2c1Br

>  <Energy>  (24) 
39.57412120395743

>  <Genealogy>  (24) 
CCOCCNC(=O)COc1ccc2ccccc2c1Br (3D coordinates assigned)
CCOCCNC(=O)COc1ccc2ccccc2c1Br (optimized conformer: 39.57412120395743 kcal/mol)

>  <smiles>  (24) 
CCOCCNC(=O)COc1ccc2ccccc2c1Br

>  <score_type>  (24) 
oracle

>  <origin>  (24) 
adg

>  <m_score__min__energy>  (24) 
-9.0700000000000003

>  <m_primary>  (24) 
energy

$$$$
24:0
     RDKit          3D

 37 38  0  0  0  0  0  0  0  0999 V2000
   -2.3460   21.7940  -30.4800 C   0  0  0  0  0  0  0  0  0  0  0  0
   -2.5500   22.5960  -29.1950 C   0  0  0  0  0  0  0  0  0  0  0  0
   -3.3130   23.8790  -29.4220 C   0  0  0  0  0  0  0  0  0  0  0  0
   -2.6810   24.9290  -29.7250 O   0  0  0  0  0  0  0  0  0  0  0  0
   -4.7570   23.9050  -29.3690 N   0  0  0  0  0  0  0  0  0  0  0  0
   -5.5360   22.6600  -29.3390 C   0  0  0  0  0  0  0  0  0  0  0  0
   -6.9910   22.8910  -29.7900 C   0  0  0  0  0  0  0  0  0  0  0  0
   -7.1100   23.9480  -30.8180 N   0  0  0  0  0  0  0  0  0  0  0  0
   -6.9730   23.5040  -32.2240 C   0  0  0  0  0  0  0  0  0  0  0  0
   -6.9320   22.0010  -32.3890 C   0  0  0  0  0  0  0  0  0  0  0  0
   -8.1040   21.2320  -32.2860 C   0  0  0  0  0  0  0  0  0  0  0  0
   -8.0580   19.8470  -32.4750 C   0  0  0  0  0  0  0  0  0  0  0  0
   -6.8440   19.2160  -32.7530 C   0  0  0  0  0  0  0  0  0  0  0  0
   -6.7900   17.3270  -33.0320 Br  0  0  0  0  0  0  0  0  0  0  0  0
   -5.6690   19.9690  -32.8290 C   0  0  0  0  0  0  0  0  0  0  0  0
   -5.7100   21.3530  -32.6430 C   0  0  0  0  0  0  0  0  0  0  0  0
   -6.4780   25.2500  -30.4930 C   0  0  0  0  0  0  0  0  0  0  0  0
   -5.4900   25.1730  -29.3230 C   0  0  0  0  0  0  0  0  0  0  0  0
   -2.0821   20.7566  -30.2267 H   0  0  0  0  0  0  0  0  0  0  0  0
   -3.2750   21.8027  -31.0690 H   0  0  0  0  0  0  0  0  0  0  0  0
   -1.5341   22.2455  -31.0690 H   0  0  0  0  0  0  0  0  0  0  0  0
   -3.1094   21.9762  -28.4788 H   0  0  0  0  0  0  0  0  0  0  0  0
   -1.5551   22.8654  -28.8108 H   0  0  0  0  0  0  0  0  0  0  0  0
   -5.0655   21.9281  -30.0120 H   0  0  0  0  0  0  0  0  0  0  0  0
   -5.5513   22.2883  -28.3038 H   0  0  0  0  0  0  0  0  0  0  0  0
   -7.3841   21.9511  -30.2048 H   0  0  0  0  0  0  0  0  0  0  0  0
   -7.5633   23.2185  -28.9095 H   0  0  0  0  0  0  0  0  0  0  0  0
   -7.8292   23.8922  -32.7952 H   0  0  0  0  0  0  0  0  0  0  0  0
   -6.0112   23.8926  -32.5901 H   0  0  0  0  0  0  0  0  0  0  0  0
   -9.0617   21.7217  -32.0557 H   0  0  0  0  0  0  0  0  0  0  0  0
   -8.9811   19.2530  -32.4044 H   0  0  0  0  0  0  0  0  0  0  0  0
   -4.7102   19.4710  -33.0356 H   0  0  0  0  0  0  0  0  0  0  0  0
   -4.7808   21.9394  -32.6955 H   0  0  0  0  0  0  0  0  0  0  0  0
   -5.9379   25.6069  -31.3823 H   0  0  0  0  0  0  0  0  0  0  0  0
   -7.2839   25.9357  -30.1924 H   0  0  0  0  0  0  0  0  0  0  0  0
   -4.7776   26.0083  -29.3921 H   0  0  0  0  0  0  0  0  0  0  0  0
   -6.0462   25.2346  -28.3760 H   0  0  0  0  0  0  0  0  0  0  0  0
  1  2  1  0
  2  3  1  0
  3  4  2  0
  3  5  1  0
  5  6  1  0
  6  7  1  0
  7  8  1  0
  8  9  1  0
  9 10  1  0
 10 11  2  0
 11 12  1  0
 12 13  2  0
 13 14  1  0
 13 15  1  0
 15 16  2  0
  8 17  1  0
 17 18  1  0
 18  5  1  0
 16 10  1  0
  1 19  1  0
  1 20  1  0
  1 21  1  0
  2 22  1  0
  2 23  1  0
  6 24  1  0
  6 25  1  0
  7 26  1  0
  7 27  1  0
  9 28  1  0
  9 29  1  0
 11 30  1  0
 12 31  1  0
 15 32  1  0
 16 33  1  0
 17 34  1  0
 17 35  1  0
 18 36  1  0
 18 37  1  0
M  END
>  <UniqueID>  (25) 
24

>  <SMILES>  (25) 
CCC(=O)N1CCN(Cc2ccc(Br)cc2)CC1

>  <Energy>  (25) 
44.45923813943439

>  <Genealogy>  (25) 
CCC(=O)N1CCN(Cc2ccc(Br)cc2)CC1 (3D coordinates assigned)
CCC(=O)N1CCN(Cc2ccc(Br)cc2)CC1 (nonaromatic ring conformer: 44.45923813943439 kcal/mol)

>  <smiles>  (25) 
CCC(=O)N1CCN(Cc2ccc(Br)cc2)CC1

>  <score_type>  (25) 
oracle

>  <origin>  (25) 
adg

>  <m_score__min__energy>  (25) 
-7.0899999999999999

>  <m_primary>  (25) 
energy

$$$$
