0:0
     RDKit          3D

 67 70  0  0  0  0  0  0  0  0999 V2000
   -3.6920   22.3180  -29.2180 C   0  0  0  0  0  0  0  0  0  0  0  0
   -3.0940   20.9990  -29.7180 C   0  0  0  0  0  0  0  0  0  0  0  0
   -1.8470   21.1920  -30.4740 N   0  0  0  0  0  0  0  0  0  0  0  0
   -0.7910   21.8090  -29.6590 C   0  0  0  0  0  0  0  0  0  0  0  0
    0.0490   20.7360  -28.9660 C   0  0  0  0  0  0  0  0  0  0  0  0
   -0.6430   19.4390  -29.0070 N   0  0  0  0  0  0  0  0  0  0  0  0
    0.2990   18.3250  -29.1910 C   0  0  0  0  0  0  0  0  0  0  0  0
    0.0130   17.6000  -30.5060 C   0  0  0  0  0  0  0  0  0  0  0  0
   -0.3220   18.5750  -31.5540 N   0  0  0  0  0  0  0  0  0  0  0  0
    0.8330   18.8590  -32.4160 C   0  0  0  0  0  0  0  0  0  0  0  0
    0.8250   20.3410  -32.8250 C   0  0  0  0  0  0  0  0  0  0  0  0
   -0.4890   20.9720  -32.6120 N   0  0  0  0  0  0  0  0  0  0  0  0
   -1.1810   21.2230  -33.8820 C   0  0  0  0  0  0  0  0  0  0  0  0
   -2.1820   20.0920  -34.1690 C   0  0  0  0  0  0  0  0  0  0  0  0
   -2.4570   19.2730  -32.9750 N   0  0  0  0  0  0  0  0  0  0  0  0
   -3.8720   19.0000  -32.8170 C   0  0  0  0  0  0  0  0  0  0  0  0
   -4.3150   17.6670  -32.8870 C   0  0  0  0  0  0  0  0  0  0  0  0
   -5.6640   17.3430  -32.7630 C   0  0  0  0  0  0  0  0  0  0  0  0
   -6.6150   18.3460  -32.5650 C   0  0  0  0  0  0  0  0  0  0  0  0
   -7.9740   18.0210  -32.4400 C   0  0  0  0  0  0  0  0  0  0  0  0
   -8.9280   19.0200  -32.2440 C   0  0  0  0  0  0  0  0  0  0  0  0
   -8.5400   20.3650  -32.1690 C   0  0  0  0  0  0  0  0  0  0  0  0
   -9.4930   21.3750  -31.9730 C   0  0  0  0  0  0  0  0  0  0  0  0
   -9.0950   22.7140  -31.9000 C   0  0  0  0  0  0  0  0  0  0  0  0
   -7.7460   23.0570  -32.0220 C   0  0  0  0  0  0  0  0  0  0  0  0
   -6.7780   22.0600  -32.2180 C   0  0  0  0  0  0  0  0  0  0  0  0
   -5.4250   22.3930  -32.3440 C   0  0  0  0  0  0  0  0  0  0  0  0
   -4.4630   21.3980  -32.5400 C   0  0  0  0  0  0  0  0  0  0  0  0
   -4.8290   20.0370  -32.6170 C   0  0  0  0  0  0  0  0  0  0  0  0
   -6.2030   19.6970  -32.4900 C   0  0  0  0  0  0  0  0  0  0  0  0
   -7.1720   20.7070  -32.2920 C   0  0  0  0  0  0  0  0  0  0  0  0
   -3.6954   22.3254  -28.1180 H   0  0  0  0  0  0  0  0  0  0  0  0
   -3.0870   23.1587  -29.5885 H   0  0  0  0  0  0  0  0  0  0  0  0
   -4.7230   22.4169  -29.5885 H   0  0  0  0  0  0  0  0  0  0  0  0
   -2.8837   20.3565  -28.8502 H   0  0  0  0  0  0  0  0  0  0  0  0
   -3.8265   20.5382  -30.3970 H   0  0  0  0  0  0  0  0  0  0  0  0
   -1.5120   20.2610  -30.8190 H   0  0  0  0  0  0  0  0  0  0  0  0
   -0.1408   22.4144  -30.3076 H   0  0  0  0  0  0  0  0  0  0  0  0
   -1.2595   22.4432  -28.8920 H   0  0  0  0  0  0  0  0  0  0  0  0
    1.0179   20.6465  -29.4790 H   0  0  0  0  0  0  0  0  0  0  0  0
    0.2032   21.0257  -27.9161 H   0  0  0  0  0  0  0  0  0  0  0  0
   -1.2920   19.4490  -29.8300 H   0  0  0  0  0  0  0  0  0  0  0  0
    1.3263   18.7178  -29.2092 H   0  0  0  0  0  0  0  0  0  0  0  0
    0.1813   17.6157  -28.3585 H   0  0  0  0  0  0  0  0  0  0  0  0
    0.9038   17.0304  -30.8094 H   0  0  0  0  0  0  0  0  0  0  0  0
   -0.8364   16.9156  -30.3642 H   0  0  0  0  0  0  0  0  0  0  0  0
   -0.6110   19.4650  -31.0830 H   0  0  0  0  0  0  0  0  0  0  0  0
    1.7608   18.6361  -31.8687 H   0  0  0  0  0  0  0  0  0  0  0  0
    0.7757   18.2326  -33.3184 H   0  0  0  0  0  0  0  0  0  0  0  0
    1.5762   20.8773  -32.2266 H   0  0  0  0  0  0  0  0  0  0  0  0
    1.0544   20.3951  -33.8994 H   0  0  0  0  0  0  0  0  0  0  0  0
   -0.3690   21.8760  -32.0970 H   0  0  0  0  0  0  0  0  0  0  0  0
   -1.7205   22.1796  -33.8198 H   0  0  0  0  0  0  0  0  0  0  0  0
   -0.4404   21.2639  -34.6943 H   0  0  0  0  0  0  0  0  0  0  0  0
   -3.1259   20.5352  -34.5191 H   0  0  0  0  0  0  0  0  0  0  0  0
   -1.7390   19.4359  -34.9327 H   0  0  0  0  0  0  0  0  0  0  0  0
   -2.0860   19.7520  -32.1240 H   0  0  0  0  0  0  0  0  0  0  0  0
   -1.9170   18.3770  -33.0420 H   0  0  0  0  0  0  0  0  0  0  0  0
   -3.5805   16.8632  -33.0430 H   0  0  0  0  0  0  0  0  0  0  0  0
   -5.9818   16.2915  -32.8214 H   0  0  0  0  0  0  0  0  0  0  0  0
   -8.2903   16.9690  -32.4970 H   0  0  0  0  0  0  0  0  0  0  0  0
   -9.9902   18.7508  -32.1478 H   0  0  0  0  0  0  0  0  0  0  0  0
  -10.5571   21.1134  -31.8763 H   0  0  0  0  0  0  0  0  0  0  0  0
   -9.8479   23.5010  -31.7458 H   0  0  0  0  0  0  0  0  0  0  0  0
   -7.4416   24.1125  -31.9642 H   0  0  0  0  0  0  0  0  0  0  0  0
   -5.1155   23.4471  -32.2883 H   0  0  0  0  0  0  0  0  0  0  0  0
   -3.4041   21.6801  -32.6357 H   0  0  0  0  0  0  0  0  0  0  0  0
  1  2  1  0
  2  3  1  0
  3  4  1  0
  4  5  1  0
  5  6  1  0
  6  7  1  0
  7  8  1  0
  8  9  1  0
  9 10  1  0
 10 11  1  0
 11 12  1  0
 12 13  1  0
 13 14  1  0
 14 15  1  0
 15 16  1  0
 16 17  2  0
 17 18  1  0
 18 19  2  0
 19 20  1  0
 20 21  2  0
 21 22  1  0
 22 23  2  0
 23 24  1  0
 24 25  2  0
 25 26  1  0
 26 27  2  0
 27 28  1  0
 28 29  2  0
 29 30  1  0
 30 31  2  0
 29 16  1  0
 30 19  1  0
 31 22  1  0
 31 26  1  0
  1 32  1  0
  1 33  1  0
  1 34  1  0
  2 35  1  0
  2 36  1  0
  3 37  1  0
  4 38  1  0
  4 39  1  0
  5 40  1  0
  5 41  1  0
  6 42  1  0
  7 43  1  0
  7 44  1  0
  8 45  1  0
  8 46  1  0
  9 47  1  0
 10 48  1  0
 10 49  1  0
 11 50  1  0
 11 51  1  0
 12 52  1  0
 13 53  1  0
 13 54  1  0
 14 55  1  0
 14 56  1  0
 15 57  1  0
 15 58  1  0
 17 59  1  0
 18 60  1  0
 20 61  1  0
 21 62  1  0
 23 63  1  0
 24 64  1  0
 25 65  1  0
 27 66  1  0
 28 67  1  0
M  CHG  1  15   1
M  END
>  <UniqueID>  (1) 
1

>  <SMILES>  (1) 
CCNCCNCCNCCNCC[NH2+]c1ccc2ccc3cccc4ccc1c2c34

>  <Energy>  (1) 
75.08629744445588

>  <Genealogy>  (1) 
CCNCCNCCNCCNCC[NH2+]c1ccc2ccc3cccc4ccc1c2c34 (protonated)
CCNCCNCCNCCNCC[NH2+]c1ccc2ccc3cccc4ccc1c2c34 (3D coordinates assigned)
CCNCCNCCNCCNCC[NH2+]c1ccc2ccc3cccc4ccc1c2c34 (optimized conformer: 75.08629744445588 kcal/mol)

>  <smiles>  (1) 
CCNCCNCCNCCNCCNc1ccc2ccc3cccc4ccc1c2c34

>  <score_type>  (1) 
oracle

>  <origin>  (1) 
adg

>  <m_score__min__energy>  (1) 
-8.9299999999999997

>  <m_primary>  (1) 
energy

$$$$
1:0
     RDKit          3D

 59 62  0  0  0  0  0  0  0  0999 V2000
   -3.5210   18.2420  -33.0170 C   0  0  0  0  0  0  0  0  0  0  0  0
   -4.8720   18.8790  -32.8730 C   0  0  0  0  0  0  0  0  0  0  0  0
   -5.0520   20.2340  -33.1870 C   0  0  0  0  0  0  0  0  0  0  0  0
   -6.3170   20.8200  -33.0900 C   0  0  0  0  0  0  0  0  0  0  0  0
   -7.4240   20.0520  -32.6910 C   0  0  0  0  0  0  0  0  0  0  0  0
   -8.7940   20.6700  -32.5980 C   0  0  0  0  0  0  0  0  0  0  0  0
   -8.8470   21.6470  -31.4910 N   0  0  0  0  0  0  0  0  0  0  0  0
   -8.8230   23.0510  -31.9790 C   0  0  0  0  0  0  0  0  0  0  0  0
   -7.4130   23.6710  -31.9430 C   0  0  0  0  0  0  0  0  0  0  0  0
   -6.7800   23.5660  -30.6080 N   0  0  0  0  0  0  0  0  0  0  0  0
   -6.3780   24.8510  -29.9900 C   0  0  0  0  0  0  0  0  0  0  0  0
   -5.3880   25.6920  -30.8220 C   0  0  0  0  0  0  0  0  0  0  0  0
   -4.0290   25.3470  -30.5610 O   0  0  0  0  0  0  0  0  0  0  0  0
   -3.5890   24.1930  -29.8930 C   0  0  0  0  0  0  0  0  0  0  0  0
   -3.2670   24.1790  -28.5230 C   0  0  0  0  0  0  0  0  0  0  0  0
   -2.8500   22.9940  -27.9090 C   0  0  0  0  0  0  0  0  0  0  0  0
   -2.7430   21.8030  -28.6480 C   0  0  0  0  0  0  0  0  0  0  0  0
   -2.3030   20.5450  -27.9940 C   0  0  0  0  0  0  0  0  0  0  0  0
   -1.0540   19.9730  -28.3070 C   0  0  0  0  0  0  0  0  0  0  0  0
   -0.6430   18.7880  -27.6910 C   0  0  0  0  0  0  0  0  0  0  0  0
   -1.4690   18.1610  -26.7550 C   0  0  0  0  0  0  0  0  0  0  0  0
   -2.7090   18.7180  -26.4350 C   0  0  0  0  0  0  0  0  0  0  0  0
   -3.1270   19.9020  -27.0500 C   0  0  0  0  0  0  0  0  0  0  0  0
   -3.0620   21.8240  -30.0170 C   0  0  0  0  0  0  0  0  0  0  0  0
   -3.4780   23.0080  -30.6290 C   0  0  0  0  0  0  0  0  0  0  0  0
   -7.4100   22.5990  -29.6900 C   0  0  0  0  0  0  0  0  0  0  0  0
   -7.8160   21.3460  -30.4690 C   0  0  0  0  0  0  0  0  0  0  0  0
   -7.2460   18.6920  -32.3950 C   0  0  0  0  0  0  0  0  0  0  0  0
   -5.9790   18.1080  -32.4920 C   0  0  0  0  0  0  0  0  0  0  0  0
   -3.1009   18.0439  -32.0199 H   0  0  0  0  0  0  0  0  0  0  0  0
   -3.6189   17.2952  -33.5683 H   0  0  0  0  0  0  0  0  0  0  0  0
   -2.8529   18.9199  -33.5683 H   0  0  0  0  0  0  0  0  0  0  0  0
   -4.1925   20.8390  -33.5115 H   0  0  0  0  0  0  0  0  0  0  0  0
   -6.4466   21.8864  -33.3269 H   0  0  0  0  0  0  0  0  0  0  0  0
   -9.0252   21.1818  -33.5438 H   0  0  0  0  0  0  0  0  0  0  0  0
   -9.5304   19.8755  -32.4068 H   0  0  0  0  0  0  0  0  0  0  0  0
   -9.1885   23.0689  -33.0163 H   0  0  0  0  0  0  0  0  0  0  0  0
   -9.4635   23.6452  -31.3106 H   0  0  0  0  0  0  0  0  0  0  0  0
   -6.7796   23.1492  -32.6755 H   0  0  0  0  0  0  0  0  0  0  0  0
   -7.5123   24.7401  -32.1822 H   0  0  0  0  0  0  0  0  0  0  0  0
   -7.2856   25.4515  -29.8299 H   0  0  0  0  0  0  0  0  0  0  0  0
   -5.8550   24.5936  -29.0571 H   0  0  0  0  0  0  0  0  0  0  0  0
   -5.5954   25.5279  -31.8897 H   0  0  0  0  0  0  0  0  0  0  0  0
   -5.5261   26.7468  -30.5422 H   0  0  0  0  0  0  0  0  0  0  0  0
   -3.3437   25.1041  -27.9328 H   0  0  0  0  0  0  0  0  0  0  0  0
   -2.6032   22.9937  -26.8370 H   0  0  0  0  0  0  0  0  0  0  0  0
   -0.3978   20.4627  -29.0415 H   0  0  0  0  0  0  0  0  0  0  0  0
    0.3330   18.3480  -27.9436 H   0  0  0  0  0  0  0  0  0  0  0  0
   -1.1428   17.2290  -26.2703 H   0  0  0  0  0  0  0  0  0  0  0  0
   -3.3584   18.2240  -25.6973 H   0  0  0  0  0  0  0  0  0  0  0  0
   -4.1059   20.3342  -26.7949 H   0  0  0  0  0  0  0  0  0  0  0  0
   -2.9833   20.9010  -30.6103 H   0  0  0  0  0  0  0  0  0  0  0  0
   -3.7212   23.0093  -31.7018 H   0  0  0  0  0  0  0  0  0  0  0  0
   -6.6955   22.3242  -28.9001 H   0  0  0  0  0  0  0  0  0  0  0  0
   -8.3026   23.0532  -29.2352 H   0  0  0  0  0  0  0  0  0  0  0  0
   -6.9275   20.9336  -30.9694 H   0  0  0  0  0  0  0  0  0  0  0  0
   -8.2390   20.6214  -29.7576 H   0  0  0  0  0  0  0  0  0  0  0  0
   -8.1074   18.0821  -32.0851 H   0  0  0  0  0  0  0  0  0  0  0  0
   -5.8505   17.0387  -32.2683 H   0  0  0  0  0  0  0  0  0  0  0  0
  1  2  1  0
  2  3  2  0
  3  4  1  0
  4  5  2  0
  5  6  1  0
  6  7  1  0
  7  8  1  0
  8  9  1  0
  9 10  1  0
 10 11  1  0
 11 12  1  0
 12 13  1  0
 13 14  1  0
 14 15  2  0
 15 16  1  0
 16 17  2  0
 17 18  1  0
 18 19  2  0
 19 20  1  0
 20 21  2  0
 21 22  1  0
 22 23  2  0
 17 24  1  0
 24 25  2  0
 10 26  1  0
 26 27  1  0
  5 28  1  0
 28 29  2  0
 29  2  1  0
 27  7  1  0
 25 14  1  0
 23 18  1  0
  1 30  1  0
  1 31  1  0
  1 32  1  0
  3 33  1  0
  4 34  1  0
  6 35  1  0
  6 36  1  0
  8 37  1  0
  8 38  1  0
  9 39  1  0
  9 40  1  0
 11 41  1  0
 11 42  1  0
 12 43  1  0
 12 44  1  0
 15 45  1  0
 16 46  1  0
 19 47  1  0
 20 48  1  0
 21 49  1  0
 22 50  1  0
 23 51  1  0
 24 52  1  0
 25 53  1  0
 26 54  1  0
 26 55  1  0
 27 56  1  0
 27 57  1  0
 28 58  1  0
 29 59  1  0
M  END
>  <UniqueID>  (2) 
2

>  <SMILES>  (2) 
Cc1ccc(CN2CCN(CCOc3ccc(-c4ccccc4)cc3)CC2)cc1

>  <Energy>  (2) 
82.40193095910277

>  <Genealogy>  (2) 
Cc1ccc(CN2CCN(CCOc3ccc(-c4ccccc4)cc3)CC2)cc1 (3D coordinates assigned)
Cc1ccc(CN2CCN(CCOc3ccc(-c4ccccc4)cc3)CC2)cc1 (nonaromatic ring conformer: 82.40193095910277 kcal/mol)

>  <smiles>  (2) 
Cc1ccc(CN2CCN(CCOc3ccc(-c4ccccc4)cc3)CC2)cc1

>  <score_type>  (2) 
oracle

>  <origin>  (2) 
adg

>  <m_score__min__energy>  (2) 
-10.609999999999999

>  <m_primary>  (2) 
energy

$$$$
2:0
     RDKit          3D

 61 64  0  0  0  0  0  0  0  0999 V2000
   -6.1956   25.1038  -32.0507 H   0  0  0  0  0  0  0  0  0  0  0  0
   -6.1670   24.9560  -30.9610 C   0  0  0  0  0  0  0  0  0  0  0  0
   -7.0230   24.1040  -30.3870 C   0  0  0  0  0  0  0  0  0  0  0  0
   -7.1405   24.1234  -29.2935 H   0  0  0  0  0  0  0  0  0  0  0  0
   -7.8360   23.1130  -31.1940 C   0  0  0  0  0  0  0  0  0  0  0  0
   -8.6788   22.7690  -30.5765 H   0  0  0  0  0  0  0  0  0  0  0  0
   -8.1711   23.6331  -32.1035 H   0  0  0  0  0  0  0  0  0  0  0  0
   -7.0600   21.9300  -31.6290 N   0  0  0  0  0  0  0  0  0  0  0  0
   -7.8900   20.9120  -32.2990 C   0  0  0  0  0  0  0  0  0  0  0  0
   -8.1544   21.2553  -33.3100 H   0  0  0  0  0  0  0  0  0  0  0  0
   -8.8152   20.7442  -31.7282 H   0  0  0  0  0  0  0  0  0  0  0  0
   -7.0990   19.6350  -32.3870 C   0  0  0  0  0  0  0  0  0  0  0  0
   -7.6750   18.3560  -32.1850 C   0  0  0  0  0  0  0  0  0  0  0  0
   -9.1420   18.1820  -31.8980 C   0  0  0  0  0  0  0  0  0  0  0  0
   -9.3030   18.1629  -30.8100 H   0  0  0  0  0  0  0  0  0  0  0  0
   -9.7034   19.0198  -32.3371 H   0  0  0  0  0  0  0  0  0  0  0  0
   -9.4918   17.2361  -32.3371 H   0  0  0  0  0  0  0  0  0  0  0  0
   -6.8520   17.2180  -32.2320 C   0  0  0  0  0  0  0  0  0  0  0  0
   -7.2853   16.2238  -32.0479 H   0  0  0  0  0  0  0  0  0  0  0  0
   -5.4910   17.3380  -32.5100 C   0  0  0  0  0  0  0  0  0  0  0  0
   -4.8558   16.4404  -32.5384 H   0  0  0  0  0  0  0  0  0  0  0  0
   -4.9330   18.5920  -32.7520 C   0  0  0  0  0  0  0  0  0  0  0  0
   -3.8633   18.6779  -32.9936 H   0  0  0  0  0  0  0  0  0  0  0  0
   -5.7280   19.7430  -32.6890 C   0  0  0  0  0  0  0  0  0  0  0  0
   -5.1320   21.0830  -33.0480 C   0  0  0  0  0  0  0  0  0  0  0  0
   -5.1548   21.1866  -34.1429 H   0  0  0  0  0  0  0  0  0  0  0  0
   -4.1124   21.0917  -32.6354 H   0  0  0  0  0  0  0  0  0  0  0  0
   -5.8670   22.3020  -32.4310 C   0  0  0  0  0  0  0  0  0  0  0  0
   -6.1893   22.9644  -33.2479 H   0  0  0  0  0  0  0  0  0  0  0  0
   -5.1592   22.7954  -31.7487 H   0  0  0  0  0  0  0  0  0  0  0  0
   -5.1690   25.7120  -30.1370 C   0  0  0  0  0  0  0  0  0  0  0  0
   -5.3518   25.5177  -29.0698 H   0  0  0  0  0  0  0  0  0  0  0  0
   -5.2696   26.7893  -30.3351 H   0  0  0  0  0  0  0  0  0  0  0  0
   -3.8500   25.2850  -30.4800 O   0  0  0  0  0  0  0  0  0  0  0  0
   -3.2850   24.0610  -30.0880 C   0  0  0  0  0  0  0  0  0  0  0  0
   -2.8730   23.9130  -28.7590 C   0  0  0  0  0  0  0  0  0  0  0  0
   -3.0079   24.7442  -28.0513 H   0  0  0  0  0  0  0  0  0  0  0  0
   -2.2920   22.7200  -28.3220 C   0  0  0  0  0  0  0  0  0  0  0  0
   -1.9796   22.6170  -27.2723 H   0  0  0  0  0  0  0  0  0  0  0  0
   -2.1040   21.6510  -29.2140 C   0  0  0  0  0  0  0  0  0  0  0  0
   -1.4550   20.3900  -28.7660 C   0  0  0  0  0  0  0  0  0  0  0  0
   -0.3880   19.8350  -29.4970 C   0  0  0  0  0  0  0  0  0  0  0  0
   -0.0535   20.3187  -30.4266 H   0  0  0  0  0  0  0  0  0  0  0  0
    0.2500   18.6740  -29.0510 C   0  0  0  0  0  0  0  0  0  0  0  0
    1.0751   18.2453  -29.6387 H   0  0  0  0  0  0  0  0  0  0  0  0
   -0.1540   18.0490  -27.8570 C   0  0  0  0  0  0  0  0  0  0  0  0
    0.5250   16.7920  -27.3930 C   0  0  0  0  0  0  0  0  0  0  0  0
    0.1708   15.9457  -27.9998 H   0  0  0  0  0  0  0  0  0  0  0  0
    0.2819   16.6309  -26.3324 H   0  0  0  0  0  0  0  0  0  0  0  0
    2.0380   16.9100  -27.5350 C   0  0  0  0  0  0  0  0  0  0  0  0
    2.4983   16.9459  -26.5366 H   0  0  0  0  0  0  0  0  0  0  0  0
    2.4236   16.0392  -28.0855 H   0  0  0  0  0  0  0  0  0  0  0  0
    2.2840   17.8301  -28.0855 H   0  0  0  0  0  0  0  0  0  0  0  0
   -1.2290   18.5860  -27.1340 C   0  0  0  0  0  0  0  0  0  0  0  0
   -1.5666   18.0951  -26.2093 H   0  0  0  0  0  0  0  0  0  0  0  0
   -1.8760   19.7470  -27.5850 C   0  0  0  0  0  0  0  0  0  0  0  0
   -2.7194   20.1587  -27.0113 H   0  0  0  0  0  0  0  0  0  0  0  0
   -2.5210   21.7990  -30.5480 C   0  0  0  0  0  0  0  0  0  0  0  0
   -2.3819   20.9697  -31.2572 H   0  0  0  0  0  0  0  0  0  0  0  0
   -3.1100   22.9880  -30.9820 C   0  0  0  0  0  0  0  0  0  0  0  0
   -3.4387   23.0867  -32.0271 H   0  0  0  0  0  0  0  0  0  0  0  0
  1  2  1  0
  2  3  2  0
  3  4  1  0
  3  5  1  0
  5  6  1  0
  5  7  1  0
  5  8  1  0
  8  9  1  0
  9 10  1  0
  9 11  1  0
  9 12  1  0
 12 13  2  0
 13 14  1  0
 14 15  1  0
 14 16  1  0
 14 17  1  0
 13 18  1  0
 18 19  1  0
 18 20  2  0
 20 21  1  0
 20 22  1  0
 22 23  1  0
 22 24  2  0
 24 25  1  0
 25 26  1  0
 25 27  1  0
 25 28  1  0
 28 29  1  0
 28 30  1  0
  2 31  1  0
 31 32  1  0
 31 33  1  0
 31 34  1  0
 34 35  1  0
 35 36  2  0
 36 37  1  0
 36 38  1  0
 38 39  1  0
 38 40  2  0
 40 41  1  0
 41 42  2  0
 42 43  1  0
 42 44  1  0
 44 45  1  0
 44 46  2  0
 46 47  1  0
 47 48  1  0
 47 49  1  0
 47 50  1  0
 50 51  1  0
 50 52  1  0
 50 53  1  0
 46 54  1  0
 54 55  1  0
 54 56  2  0
 56 57  1  0
 40 58  1  0
 58 59  1  0
 58 60  2  0
 60 61  1  0
 28  8  1  0
 60 35  1  0
 24 12  1  0
 56 41  1  0
M  END
>  <UniqueID>  (3) 
3

>  <SMILES>  (3) 
CCc1ccc(-c2ccc(OC/C=C/CN3CCc4cccc(C)c4C3)cc2)cc1

>  <Energy>  (3) 
74.98035624290691

>  <Genealogy>  (3) 
CCc1ccc(-c2ccc(OC/C=C/CN3CCc4cccc(C)c4C3)cc2)cc1 (cis-trans isomerization)
CCc1ccc(-c2ccc(OC/C=C/CN3CCc4cccc(C)c4C3)cc2)cc1 (3D coordinates assigned)
CCc1ccc(-c2ccc(OC/C=C/CN3CCc4cccc(C)c4C3)cc2)cc1 (nonaromatic ring conformer: 74.98035624290691 kcal/mol)

>  <smiles>  (3) 
CCc1ccc(-c2ccc(OCC=CCN3CCc4cccc(C)c4C3)cc2)cc1

>  <score_type>  (3) 
oracle

>  <origin>  (3) 
adg

>  <m_score__min__energy>  (3) 
-10.93

>  <m_primary>  (3) 
energy

$$$$
3:0
     RDKit          3D

 42 44  0  0  0  0  0  0  0  0999 V2000
    0.1530   22.4610  -27.1390 C   0  0  0  0  0  0  0  0  0  0  0  0
   -0.1330   22.2560  -28.5190 O   0  0  0  0  0  0  0  0  0  0  0  0
   -1.3960   22.4340  -29.1060 C   0  0  0  0  0  0  0  0  0  0  0  0
   -1.9450   23.7130  -29.3210 C   0  0  0  0  0  0  0  0  0  0  0  0
   -3.2050   23.8520  -29.9100 C   0  0  0  0  0  0  0  0  0  0  0  0
   -3.7310   25.0900  -30.0990 N   0  0  0  0  0  0  0  0  0  0  0  0
   -4.9560   25.2520  -30.6600 C   0  0  0  0  0  0  0  0  0  0  0  0
   -5.4250   26.4080  -30.8200 O   0  0  0  0  0  0  0  0  0  0  0  0
   -5.6750   24.1680  -31.0510 N   0  0  0  0  0  0  0  0  0  0  0  0
   -5.1960   22.9050  -30.8950 C   0  0  0  0  0  0  0  0  0  0  0  0
   -5.9920   21.7990  -31.3430 N   0  0  0  0  0  0  0  0  0  0  0  0
   -5.4280   20.8710  -32.3370 C   0  0  0  0  0  0  0  0  0  0  0  0
   -5.6830   19.3920  -31.9780 C   0  0  0  0  0  0  0  0  0  0  0  0
   -7.1590   19.0140  -31.7750 C   0  0  0  0  0  0  0  0  0  0  0  0
   -8.1500   19.9060  -32.5500 C   0  0  0  0  0  0  0  0  0  0  0  0
   -8.3880   21.3080  -31.9540 C   0  0  0  0  0  0  0  0  0  0  0  0
   -7.3820   21.7070  -30.8600 C   0  0  0  0  0  0  0  0  0  0  0  0
   -3.9330   22.7100  -30.3010 C   0  0  0  0  0  0  0  0  0  0  0  0
   -3.3920   21.4340  -30.0740 C   0  0  0  0  0  0  0  0  0  0  0  0
   -2.1220   21.2920  -29.4800 C   0  0  0  0  0  0  0  0  0  0  0  0
   -1.5480   20.0330  -29.2450 O   0  0  0  0  0  0  0  0  0  0  0  0
   -1.3990   19.4390  -27.9600 C   0  0  0  0  0  0  0  0  0  0  0  0
   -0.5902   21.9283  -26.5275 H   0  0  0  0  0  0  0  0  0  0  0  0
    1.1583   22.0765  -26.9118 H   0  0  0  0  0  0  0  0  0  0  0  0
    0.1118   23.5365  -26.9118 H   0  0  0  0  0  0  0  0  0  0  0  0
   -1.3788   24.6080  -29.0236 H   0  0  0  0  0  0  0  0  0  0  0  0
   -5.8863   21.0805  -33.3148 H   0  0  0  0  0  0  0  0  0  0  0  0
   -4.3392   21.0263  -32.3584 H   0  0  0  0  0  0  0  0  0  0  0  0
   -5.2810   18.7700  -32.7913 H   0  0  0  0  0  0  0  0  0  0  0  0
   -5.1882   19.2226  -31.0103 H   0  0  0  0  0  0  0  0  0  0  0  0
   -7.2980   17.9744  -32.1065 H   0  0  0  0  0  0  0  0  0  0  0  0
   -7.3775   19.1520  -30.7058 H   0  0  0  0  0  0  0  0  0  0  0  0
   -7.7633   20.0335  -33.5719 H   0  0  0  0  0  0  0  0  0  0  0  0
   -9.1203   19.3898  -32.5039 H   0  0  0  0  0  0  0  0  0  0  0  0
   -8.3226   22.0447  -32.7682 H   0  0  0  0  0  0  0  0  0  0  0  0
   -9.3797   21.2854  -31.4787 H   0  0  0  0  0  0  0  0  0  0  0  0
   -7.6762   22.6876  -30.4577 H   0  0  0  0  0  0  0  0  0  0  0  0
   -7.4065   20.9171  -30.0949 H   0  0  0  0  0  0  0  0  0  0  0  0
   -3.9635   20.5393  -30.3618 H   0  0  0  0  0  0  0  0  0  0  0  0
   -1.5884   20.1941  -27.1828 H   0  0  0  0  0  0  0  0  0  0  0  0
   -2.1179   18.6134  -27.8521 H   0  0  0  0  0  0  0  0  0  0  0  0
   -0.3756   19.0505  -27.8521 H   0  0  0  0  0  0  0  0  0  0  0  0
  1  2  1  0
  2  3  1  0
  3  4  2  0
  4  5  1  0
  5  6  1  0
  6  7  1  0
  7  8  2  0
  7  9  1  0
  9 10  2  0
 10 11  1  0
 11 12  1  0
 12 13  1  0
 13 14  1  0
 14 15  1  0
 15 16  1  0
 16 17  1  0
 10 18  1  0
 18 19  1  0
 19 20  2  0
 20 21  1  0
 21 22  1  0
 20  3  1  0
 18  5  2  0
 17 11  1  0
  1 23  1  0
  1 24  1  0
  1 25  1  0
  4 26  1  0
 12 27  1  0
 12 28  1  0
 13 29  1  0
 13 30  1  0
 14 31  1  0
 14 32  1  0
 15 33  1  0
 15 34  1  0
 16 35  1  0
 16 36  1  0
 17 37  1  0
 17 38  1  0
 19 39  1  0
 22 40  1  0
 22 41  1  0
 22 42  1  0
M  CHG  1   6  -1
M  END
>  <UniqueID>  (4) 
4

>  <SMILES>  (4) 
COc1cc2[n-]c(=O)nc(N3CCCCCC3)c2cc1OC

>  <Energy>  (4) 
55.82588034446678

>  <Genealogy>  (4) 
COc1cc2[n-]c(=O)nc(N3CCCCCC3)c2cc1OC (protonated)
COc1cc2[n-]c(=O)nc(N3CCCCCC3)c2cc1OC (3D coordinates assigned)
COc1cc2[n-]c(=O)nc(N3CCCCCC3)c2cc1OC (nonaromatic ring conformer: 55.82588034446678 kcal/mol)

>  <smiles>  (4) 
COc1cc2[nH]c(=O)nc(N3CCCCCC3)c2cc1OC

>  <score_type>  (4) 
oracle

>  <origin>  (4) 
adg

>  <m_score__min__energy>  (4) 
-5.4000000000000004

>  <m_primary>  (4) 
energy

$$$$
4:0
     RDKit          3D

 31 34  0  0  0  0  0  0  0  0999 V2000
   -1.8170   25.6030  -28.9790 O   0  0  0  0  0  0  0  0  0  0  0  0
   -2.8200   24.9200  -29.3110 C   0  0  0  0  0  0  0  0  0  0  0  0
   -3.5900   25.2930  -30.4480 N   0  0  0  0  0  0  0  0  0  0  0  0
   -4.7460   24.5530  -30.8410 C   0  0  0  0  0  0  0  0  0  0  0  0
   -5.3580   24.8990  -31.8870 O   0  0  0  0  0  0  0  0  0  0  0  0
   -5.2670   23.3880  -30.0130 C   0  0  0  0  0  0  0  0  0  0  0  0
   -6.6840   23.6970  -29.4470 C   0  0  0  0  0  0  0  0  0  0  0  0
   -7.5980   22.5150  -29.8330 C   0  0  0  0  0  0  0  0  0  0  0  0
   -6.8550   21.7440  -30.8090 N   0  0  0  0  0  0  0  0  0  0  0  0
   -7.3070   20.4870  -31.4060 C   0  0  0  0  0  0  0  0  0  0  0  0
   -6.2760   19.9290  -32.3600 C   0  0  0  0  0  0  0  0  0  0  0  0
   -6.5870   18.8110  -33.1460 C   0  0  0  0  0  0  0  0  0  0  0  0
   -5.6260   18.2650  -34.0040 C   0  0  0  0  0  0  0  0  0  0  0  0
   -4.3490   18.8270  -34.0760 C   0  0  0  0  0  0  0  0  0  0  0  0
   -4.0270   19.9380  -33.2910 C   0  0  0  0  0  0  0  0  0  0  0  0
   -4.9820   20.4940  -32.4330 C   0  0  0  0  0  0  0  0  0  0  0  0
   -4.6390   21.6380  -31.6390 N   0  0  0  0  0  0  0  0  0  0  0  0
   -5.5260   22.2150  -30.8890 C   0  0  0  0  0  0  0  0  0  0  0  0
   -4.3240   22.9840  -28.8910 C   0  0  0  0  0  0  0  0  0  0  0  0
   -4.5700   21.9530  -28.2100 O   0  0  0  0  0  0  0  0  0  0  0  0
   -3.1770   23.7670  -28.5580 N   0  0  0  0  0  0  0  0  0  0  0  0
   -6.6390   23.7967  -28.3524 H   0  0  0  0  0  0  0  0  0  0  0  0
   -7.0715   24.6406  -29.8588 H   0  0  0  0  0  0  0  0  0  0  0  0
   -7.8224   21.8998  -28.9492 H   0  0  0  0  0  0  0  0  0  0  0  0
   -8.5597   22.8624  -30.2385 H   0  0  0  0  0  0  0  0  0  0  0  0
   -7.4874   19.7547  -30.6053 H   0  0  0  0  0  0  0  0  0  0  0  0
   -8.2308   20.6834  -31.9699 H   0  0  0  0  0  0  0  0  0  0  0  0
   -7.5893   18.3616  -33.0882 H   0  0  0  0  0  0  0  0  0  0  0  0
   -5.8766   17.3911  -34.6233 H   0  0  0  0  0  0  0  0  0  0  0  0
   -3.5959   18.3947  -34.7513 H   0  0  0  0  0  0  0  0  0  0  0  0
   -3.0197   20.3764  -33.3481 H   0  0  0  0  0  0  0  0  0  0  0  0
  1  2  2  0
  2  3  1  0
  3  4  1  0
  4  5  2  0
  4  6  1  0
  6  7  1  0
  7  8  1  0
  8  9  1  0
  9 10  1  0
 10 11  1  0
 11 12  2  0
 12 13  1  0
 13 14  2  0
 14 15  1  0
 15 16  2  0
 16 17  1  0
 17 18  2  0
  6 19  1  0
 19 20  2  0
 19 21  1  0
 21  2  1  0
 18  6  1  0
 18  9  1  0
 16 11  1  0
  7 22  1  0
  7 23  1  0
  8 24  1  0
  8 25  1  0
 10 26  1  0
 10 27  1  0
 12 28  1  0
 13 29  1  0
 14 30  1  0
 15 31  1  0
M  CHG  2   3  -1  21  -1
M  END
>  <UniqueID>  (5) 
5

>  <SMILES>  (5) 
O=C1[N-]C(=O)C2(CCN3Cc4ccccc4N=C32)C(=O)[N-]1

>  <Energy>  (5) 
44.22392380677445

>  <Genealogy>  (5) 
O=C1[N-]C(=O)C2(CCN3Cc4ccccc4N=C32)C(=O)[N-]1 (protonated)
O=C1[N-]C(=O)C2(CCN3Cc4ccccc4N=C32)C(=O)[N-]1 (3D coordinates assigned)
O=C1[N-]C(=O)C2(CCN3Cc4ccccc4N=C32)C(=O)[N-]1 (nonaromatic ring conformer: 44.22392380677445 kcal/mol)

>  <smiles>  (5) 
O=C1NC(=O)C2(CCN3Cc4ccccc4N=C32)C(=O)N1

>  <score_type>  (5) 
oracle

>  <origin>  (5) 
adg

>  <m_score__min__energy>  (5) 
-9.8200000000000003

>  <m_primary>  (5) 
energy

$$$$
5:0
     RDKit          3D

 43 45  0  0  0  0  0  0  0  0999 V2000
   -6.4700   17.4370  -31.3720 C   0  0  0  0  0  0  0  0  0  0  0  0
   -6.8960   17.2220  -32.8210 C   0  0  0  0  0  0  0  0  0  0  0  0
   -5.7310   16.9490  -33.6700 N   0  0  0  0  0  0  0  0  0  0  0  0
   -5.4450   15.7500  -34.2160 C   0  0  0  0  0  0  0  0  0  0  0  0
   -4.2760   15.8580  -34.9340 C   0  0  0  0  0  0  0  0  0  0  0  0
   -3.8260   17.1190  -34.8310 N   0  0  0  0  0  0  0  0  0  0  0  0
   -4.7210   17.7720  -34.0590 C   0  0  0  0  0  0  0  0  0  0  0  0
   -4.5190   19.2190  -33.6530 C   0  0  0  0  0  0  0  0  0  0  0  0
   -5.8470   20.0110  -33.5310 C   0  0  0  0  0  0  0  0  0  0  0  0
   -5.9380   20.8760  -32.2620 C   0  0  0  0  0  0  0  0  0  0  0  0
   -4.6640   21.5640  -31.9860 N   0  0  0  0  0  0  0  0  0  0  0  0
   -4.6800   22.9020  -31.4340 C   0  0  0  0  0  0  0  0  0  0  0  0
   -3.6240   23.3830  -30.6410 C   0  0  0  0  0  0  0  0  0  0  0  0
   -3.6950   24.6810  -30.1330 C   0  0  0  0  0  0  0  0  0  0  0  0
   -2.6490   25.1690  -29.3440 O   0  0  0  0  0  0  0  0  0  0  0  0
   -2.2650   24.5630  -28.1160 C   0  0  0  0  0  0  0  0  0  0  0  0
   -4.7790   25.4550  -30.4110 N   0  0  0  0  0  0  0  0  0  0  0  0
   -5.7940   24.9840  -31.1790 C   0  0  0  0  0  0  0  0  0  0  0  0
   -5.7390   23.7240  -31.6800 N   0  0  0  0  0  0  0  0  0  0  0  0
   -3.3960   20.8140  -32.0660 C   0  0  0  0  0  0  0  0  0  0  0  0
   -3.6180   19.3380  -32.4120 C   0  0  0  0  0  0  0  0  0  0  0  0
   -7.2470   17.0448  -30.6993 H   0  0  0  0  0  0  0  0  0  0  0  0
   -5.5232   16.9088  -31.1859 H   0  0  0  0  0  0  0  0  0  0  0  0
   -6.3326   18.5124  -31.1859 H   0  0  0  0  0  0  0  0  0  0  0  0
   -7.5872   16.3677  -32.8710 H   0  0  0  0  0  0  0  0  0  0  0  0
   -7.3906   18.1354  -33.1830 H   0  0  0  0  0  0  0  0  0  0  0  0
   -6.0469   14.8359  -34.1057 H   0  0  0  0  0  0  0  0  0  0  0  0
   -3.7914   15.0473  -35.4978 H   0  0  0  0  0  0  0  0  0  0  0  0
   -2.9500   17.5030  -35.2510 H   0  0  0  0  0  0  0  0  0  0  0  0
   -3.9800   19.7080  -34.4778 H   0  0  0  0  0  0  0  0  0  0  0  0
   -5.9402   20.6694  -34.4073 H   0  0  0  0  0  0  0  0  0  0  0  0
   -6.6583   19.2704  -33.4736 H   0  0  0  0  0  0  0  0  0  0  0  0
   -6.7287   21.6285  -32.3981 H   0  0  0  0  0  0  0  0  0  0  0  0
   -6.1668   20.2179  -31.4108 H   0  0  0  0  0  0  0  0  0  0  0  0
   -2.7541   22.7457  -30.4239 H   0  0  0  0  0  0  0  0  0  0  0  0
   -2.6453   25.1632  -27.2763 H   0  0  0  0  0  0  0  0  0  0  0  0
   -2.6850   23.5478  -28.0610 H   0  0  0  0  0  0  0  0  0  0  0  0
   -1.1677   24.5093  -28.0610 H   0  0  0  0  0  0  0  0  0  0  0  0
   -6.6620   25.6241  -31.3956 H   0  0  0  0  0  0  0  0  0  0  0  0
   -2.7637   21.2688  -32.8428 H   0  0  0  0  0  0  0  0  0  0  0  0
   -2.9129   20.8607  -31.0789 H   0  0  0  0  0  0  0  0  0  0  0  0
   -2.6480   18.8624  -32.6190 H   0  0  0  0  0  0  0  0  0  0  0  0
   -4.1051   18.8370  -31.5624 H   0  0  0  0  0  0  0  0  0  0  0  0
  1  2  1  0
  2  3  1  0
  3  4  1  0
  4  5  2  0
  5  6  1  0
  6  7  2  0
  7  8  1  0
  8  9  1  0
  9 10  1  0
 10 11  1  0
 11 12  1  0
 12 13  2  0
 13 14  1  0
 14 15  1  0
 15 16  1  0
 14 17  2  0
 17 18  1  0
 18 19  2  0
 11 20  1  0
 20 21  1  0
  7  3  1  0
 21  8  1  0
 19 12  1  0
  1 22  1  0
  1 23  1  0
  1 24  1  0
  2 25  1  0
  2 26  1  0
  4 27  1  0
  5 28  1  0
  6 29  1  0
  8 30  1  0
  9 31  1  0
  9 32  1  0
 10 33  1  0
 10 34  1  0
 13 35  1  0
 16 36  1  0
 16 37  1  0
 16 38  1  0
 18 39  1  0
 20 40  1  0
 20 41  1  0
 21 42  1  0
 21 43  1  0
M  CHG  1   6   1
M  END
>  <UniqueID>  (6) 
6

>  <SMILES>  (6) 
CCn1cc[nH+]c1C1CCN(c2cc(OC)ncn2)CC1

>  <Energy>  (6) 
76.07514303280858

>  <Genealogy>  (6) 
CCn1cc[nH+]c1C1CCN(c2cc(OC)ncn2)CC1 (protonated)
CCn1cc[nH+]c1C1CCN(c2cc(OC)ncn2)CC1 (3D coordinates assigned)
CCn1cc[nH+]c1C1CCN(c2cc(OC)ncn2)CC1 (nonaromatic ring conformer: 76.07514303280858 kcal/mol)

>  <smiles>  (6) 
CCn1ccnc1C1CCN(c2cc(OC)ncn2)CC1

>  <score_type>  (6) 
oracle

>  <origin>  (6) 
adg

>  <m_score__min__energy>  (6) 
-6.1900000000000004

>  <m_primary>  (6) 
energy

$$$$
6:0
     RDKit          3D

 55 58  0  0  0  0  0  0  0  0999 V2000
   -9.0390   20.1590  -31.2170 C   0  0  0  0  0  0  0  0  0  0  0  0
   -8.2890   21.3960  -31.6020 C   0  0  0  0  0  0  0  0  0  0  0  0
   -8.9190   22.5290  -31.9800 N   0  0  0  0  0  0  0  0  0  0  0  0
   -7.9230   23.3900  -32.2590 C   0  0  0  0  0  0  0  0  0  0  0  0
   -6.7090   22.7750  -32.0420 C   0  0  0  0  0  0  0  0  0  0  0  0
   -5.3770   23.4100  -32.3470 C   0  0  0  0  0  0  0  0  0  0  0  0
   -4.8440   24.0840  -31.1460 N   0  0  0  0  0  0  0  0  0  0  0  0
   -5.8750   24.9610  -30.5650 C   0  0  0  0  0  0  0  0  0  0  0  0
   -4.3800   23.0980  -30.1440 C   0  0  0  0  0  0  0  0  0  0  0  0
   -3.6410   23.7910  -29.0320 C   0  0  0  0  0  0  0  0  0  0  0  0
   -4.2790   24.1380  -27.8390 C   0  0  0  0  0  0  0  0  0  0  0  0
   -3.5870   24.7760  -26.8620 N   0  0  0  0  0  0  0  0  0  0  0  0
   -2.2720   25.0910  -27.0110 C   0  0  0  0  0  0  0  0  0  0  0  0
   -1.5610   25.7890  -25.9100 C   0  0  0  0  0  0  0  0  0  0  0  0
   -1.1610   25.0710  -24.7670 C   0  0  0  0  0  0  0  0  0  0  0  0
   -0.4850   25.7160  -23.7250 C   0  0  0  0  0  0  0  0  0  0  0  0
   -0.1940   27.0780  -23.8160 C   0  0  0  0  0  0  0  0  0  0  0  0
   -0.5740   27.7990  -24.9500 C   0  0  0  0  0  0  0  0  0  0  0  0
   -1.2510   27.1600  -25.9940 C   0  0  0  0  0  0  0  0  0  0  0  0
   -1.6350   24.7730  -28.1770 N   0  0  0  0  0  0  0  0  0  0  0  0
   -2.2930   24.1330  -29.1800 C   0  0  0  0  0  0  0  0  0  0  0  0
   -6.9370   21.5110  -31.6110 N   0  0  0  0  0  0  0  0  0  0  0  0
   -5.9580   20.4510  -31.3210 C   0  0  0  0  0  0  0  0  0  0  0  0
   -5.8730   19.4500  -32.4510 C   0  0  0  0  0  0  0  0  0  0  0  0
   -6.8630   18.4560  -32.5690 C   0  0  0  0  0  0  0  0  0  0  0  0
   -6.8050   17.5130  -33.5970 C   0  0  0  0  0  0  0  0  0  0  0  0
   -5.7650   17.5550  -34.5270 C   0  0  0  0  0  0  0  0  0  0  0  0
   -4.7840   18.5430  -34.4330 C   0  0  0  0  0  0  0  0  0  0  0  0
   -4.8310   19.4940  -33.4060 C   0  0  0  0  0  0  0  0  0  0  0  0
   -3.5790   20.7290  -33.3660 Cl  0  0  0  0  0  0  0  0  0  0  0  0
   -9.0844   20.0841  -30.1205 H   0  0  0  0  0  0  0  0  0  0  0  0
  -10.0599   20.2076  -31.6238 H   0  0  0  0  0  0  0  0  0  0  0  0
   -8.5238   19.2763  -31.6238 H   0  0  0  0  0  0  0  0  0  0  0  0
   -8.0572   24.4250  -32.6066 H   0  0  0  0  0  0  0  0  0  0  0  0
   -4.6697   22.6322  -32.6707 H   0  0  0  0  0  0  0  0  0  0  0  0
   -5.5098   24.1543  -33.1460 H   0  0  0  0  0  0  0  0  0  0  0  0
   -5.8201   24.9143  -29.4674 H   0  0  0  0  0  0  0  0  0  0  0  0
   -5.7055   25.9960  -30.8969 H   0  0  0  0  0  0  0  0  0  0  0  0
   -6.8694   24.6277  -30.8969 H   0  0  0  0  0  0  0  0  0  0  0  0
   -5.2491   22.5682  -29.7270 H   0  0  0  0  0  0  0  0  0  0  0  0
   -3.7017   22.3834  -30.6331 H   0  0  0  0  0  0  0  0  0  0  0  0
   -5.3415   23.8942  -27.6917 H   0  0  0  0  0  0  0  0  0  0  0  0
   -1.3812   23.9959  -24.6924 H   0  0  0  0  0  0  0  0  0  0  0  0
   -0.1825   25.1484  -22.8326 H   0  0  0  0  0  0  0  0  0  0  0  0
    0.3347   27.5835  -22.9945 H   0  0  0  0  0  0  0  0  0  0  0  0
   -0.3405   28.8715  -25.0224 H   0  0  0  0  0  0  0  0  0  0  0  0
   -1.5432   27.7324  -26.8867 H   0  0  0  0  0  0  0  0  0  0  0  0
   -0.6390   25.0410  -28.3370 H   0  0  0  0  0  0  0  0  0  0  0  0
   -1.7633   23.8833  -30.1111 H   0  0  0  0  0  0  0  0  0  0  0  0
   -4.9687   20.9088  -31.1741 H   0  0  0  0  0  0  0  0  0  0  0  0
   -6.2829   19.9203  -30.4139 H   0  0  0  0  0  0  0  0  0  0  0  0
   -7.6900   18.4220  -31.8445 H   0  0  0  0  0  0  0  0  0  0  0  0
   -7.5798   16.7360  -33.6741 H   0  0  0  0  0  0  0  0  0  0  0  0
   -5.7187   16.8091  -35.3342 H   0  0  0  0  0  0  0  0  0  0  0  0
   -3.9684   18.5751  -35.1704 H   0  0  0  0  0  0  0  0  0  0  0  0
  1  2  1  0
  2  3  2  0
  3  4  1  0
  4  5  2  0
  5  6  1  0
  6  7  1  0
  7  8  1  0
  7  9  1  0
  9 10  1  0
 10 11  2  0
 11 12  1  0
 12 13  2  0
 13 14  1  0
 14 15  2  0
 15 16  1  0
 16 17  2  0
 17 18  1  0
 18 19  2  0
 13 20  1  0
 20 21  2  0
  5 22  1  0
 22 23  1  0
 23 24  1  0
 24 25  2  0
 25 26  1  0
 26 27  2  0
 27 28  1  0
 28 29  2  0
 29 30  1  0
 22  2  1  0
 29 24  1  0
 21 10  1  0
 19 14  1  0
  1 31  1  0
  1 32  1  0
  1 33  1  0
  4 34  1  0
  6 35  1  0
  6 36  1  0
  8 37  1  0
  8 38  1  0
  8 39  1  0
  9 40  1  0
  9 41  1  0
 11 42  1  0
 15 43  1  0
 16 44  1  0
 17 45  1  0
 18 46  1  0
 19 47  1  0
 20 48  1  0
 21 49  1  0
 23 50  1  0
 23 51  1  0
 25 52  1  0
 26 53  1  0
 27 54  1  0
 28 55  1  0
M  CHG  1  20   1
M  END
>  <UniqueID>  (7) 
7

>  <SMILES>  (7) 
Cc1ncc(CN(C)Cc2cnc(-c3ccccc3)[nH+]c2)n1Cc1ccccc1Cl

>  <Energy>  (7) 
93.05615229990082

>  <Genealogy>  (7) 
Cc1ncc(CN(C)Cc2cnc(-c3ccccc3)[nH+]c2)n1Cc1ccccc1Cl (protonated)
Cc1ncc(CN(C)Cc2cnc(-c3ccccc3)[nH+]c2)n1Cc1ccccc1Cl (3D coordinates assigned)
Cc1ncc(CN(C)Cc2cnc(-c3ccccc3)[nH+]c2)n1Cc1ccccc1Cl (optimized conformer: 93.05615229990082 kcal/mol)

>  <smiles>  (7) 
Cc1ncc(CN(C)Cc2cnc(-c3ccccc3)nc2)n1Cc1ccccc1Cl

>  <score_type>  (7) 
oracle

>  <origin>  (7) 
adg

>  <m_score__min__energy>  (7) 
-8.7799999999999994

>  <m_primary>  (7) 
energy

$$$$
7:0
     RDKit          3D

 39 40  0  0  0  0  0  0  0  0999 V2000
   -1.2330   21.9560  -26.6740 C   0  0  0  0  0  0  0  0  0  0  0  0
   -2.1290   21.1850  -27.5430 N   0  0  0  0  0  0  0  0  0  0  0  0
   -2.6430   19.8950  -27.0680 C   0  0  0  0  0  0  0  0  0  0  0  0
   -2.5020   21.6910  -28.8520 C   0  0  0  0  0  0  0  0  0  0  0  0
   -2.4020   20.8740  -29.9970 C   0  0  0  0  0  0  0  0  0  0  0  0
   -2.7370   21.3710  -31.2580 C   0  0  0  0  0  0  0  0  0  0  0  0
   -3.1880   22.6830  -31.4000 C   0  0  0  0  0  0  0  0  0  0  0  0
   -3.3240   23.5060  -30.2780 C   0  0  0  0  0  0  0  0  0  0  0  0
   -3.7550   24.8610  -30.4690 N   0  0  0  0  0  0  0  0  0  0  0  0
   -5.1120   25.3200  -30.4920 C   0  0  0  0  0  0  0  0  0  0  0  0
   -5.3670   26.5530  -30.4390 O   0  0  0  0  0  0  0  0  0  0  0  0
   -6.2300   24.3580  -30.4650 C   0  0  0  0  0  0  0  0  0  0  0  0
   -6.8180   23.8310  -31.5500 C   0  0  0  0  0  0  0  0  0  0  0  0
   -7.2110   22.4130  -31.6990 C   0  0  0  0  0  0  0  0  0  0  0  0
   -8.4780   21.9620  -31.2950 C   0  0  0  0  0  0  0  0  0  0  0  0
   -8.8260   20.6150  -31.4320 C   0  0  0  0  0  0  0  0  0  0  0  0
   -7.9030   19.6910  -31.9520 C   0  0  0  0  0  0  0  0  0  0  0  0
   -8.2580   18.3030  -32.1000 N   0  0  0  0  0  0  0  0  0  0  0  0
   -7.4880   17.5060  -32.6760 O   0  0  0  0  0  0  0  0  0  0  0  0
   -9.4510   17.8300  -31.6030 O   0  0  0  0  0  0  0  0  0  0  0  0
   -6.6220   20.1400  -32.3200 C   0  0  0  0  0  0  0  0  0  0  0  0
   -6.2780   21.4890  -32.1850 C   0  0  0  0  0  0  0  0  0  0  0  0
   -2.9630   23.0160  -29.0120 C   0  0  0  0  0  0  0  0  0  0  0  0
   -1.4747   21.7480  -25.6212 H   0  0  0  0  0  0  0  0  0  0  0  0
   -0.1904   21.6682  -26.8746 H   0  0  0  0  0  0  0  0  0  0  0  0
   -1.3621   23.0298  -26.8746 H   0  0  0  0  0  0  0  0  0  0  0  0
   -2.6472   19.8845  -25.9681 H   0  0  0  0  0  0  0  0  0  0  0  0
   -3.6679   19.7492  -27.4400 H   0  0  0  0  0  0  0  0  0  0  0  0
   -1.9992   19.0844  -27.4400 H   0  0  0  0  0  0  0  0  0  0  0  0
   -2.0566   19.8346  -29.8957 H   0  0  0  0  0  0  0  0  0  0  0  0
   -2.6448   20.7248  -32.1434 H   0  0  0  0  0  0  0  0  0  0  0  0
   -3.4376   23.0717  -32.3983 H   0  0  0  0  0  0  0  0  0  0  0  0
   -6.6107   24.0491  -29.4803 H   0  0  0  0  0  0  0  0  0  0  0  0
   -7.0236   24.5059  -32.3939 H   0  0  0  0  0  0  0  0  0  0  0  0
   -9.2009   22.6728  -30.8682 H   0  0  0  0  0  0  0  0  0  0  0  0
   -9.8283   20.2760  -31.1310 H   0  0  0  0  0  0  0  0  0  0  0  0
   -5.8857   19.4255  -32.7166 H   0  0  0  0  0  0  0  0  0  0  0  0
   -5.2683   21.8261  -32.4623 H   0  0  0  0  0  0  0  0  0  0  0  0
   -3.0405   23.6734  -28.1334 H   0  0  0  0  0  0  0  0  0  0  0  0
  1  2  1  0
  2  3  1  0
  2  4  1  0
  4  5  2  0
  5  6  1  0
  6  7  2  0
  7  8  1  0
  8  9  1  0
  9 10  1  0
 10 11  2  0
 10 12  1  0
 12 13  2  3
 13 14  1  0
 14 15  2  0
 15 16  1  0
 16 17  2  0
 17 18  1  0
 18 19  2  0
 18 20  1  0
 17 21  1  0
 21 22  2  0
  8 23  2  0
 23  4  1  0
 22 14  1  0
  1 24  1  0
  1 25  1  0
  1 26  1  0
  3 27  1  0
  3 28  1  0
  3 29  1  0
  5 30  1  0
  6 31  1  0
  7 32  1  0
 12 33  1  0
 13 34  1  0
 15 35  1  0
 16 36  1  0
 21 37  1  0
 22 38  1  0
 23 39  1  0
M  CHG  3   9  -1  18   1  20  -1
M  END
>  <UniqueID>  (8) 
8

>  <SMILES>  (8) 
CN(C)c1cccc([N-]C(=O)C=Cc2ccc([N+](=O)[O-])cc2)c1

>  <Energy>  (8) 
51.70612919432508

>  <Genealogy>  (8) 
CN(C)c1cccc([N-]C(=O)C=Cc2ccc([N+](=O)[O-])cc2)c1 (protonated)
CN(C)c1cccc([N-]C(=O)C=Cc2ccc([N+](=O)[O-])cc2)c1 (3D coordinates assigned)
CN(C)c1cccc([N-]C(=O)C=Cc2ccc([N+](=O)[O-])cc2)c1 (optimized conformer: 51.70612919432508 kcal/mol)

>  <smiles>  (8) 
CN(C)c1cccc(NC(=O)C=Cc2ccc([N+](=O)[O-])cc2)c1

>  <score_type>  (8) 
oracle

>  <origin>  (8) 
adg

>  <m_score__min__energy>  (8) 
-9.5299999999999994

>  <m_primary>  (8) 
energy

$$$$
8:0
     RDKit          3D

 44 46  0  0  0  0  0  0  0  0999 V2000
    0.2580   23.7590  -28.6050 C   0  0  0  0  0  0  0  0  0  0  0  0
   -0.3490   24.4980  -27.4440 C   0  0  0  0  0  0  0  0  0  0  0  0
    0.1820   24.3350  -26.1540 C   0  0  0  0  0  0  0  0  0  0  0  0
   -0.3740   25.0170  -25.0700 C   0  0  0  0  0  0  0  0  0  0  0  0
   -1.4680   25.8600  -25.2610 C   0  0  0  0  0  0  0  0  0  0  0  0
   -2.0040   26.0340  -26.5390 C   0  0  0  0  0  0  0  0  0  0  0  0
   -1.4380   25.3730  -27.6450 C   0  0  0  0  0  0  0  0  0  0  0  0
   -1.9850   25.5240  -28.9650 N   0  0  0  0  0  0  0  0  0  0  0  0
   -2.9830   24.6970  -29.5800 C   0  0  0  0  0  0  0  0  0  0  0  0
   -3.7780   25.1970  -30.4220 O   0  0  0  0  0  0  0  0  0  0  0  0
   -3.0330   23.2420  -29.2700 C   0  0  0  0  0  0  0  0  0  0  0  0
   -3.0240   22.8230  -27.9250 C   0  0  0  0  0  0  0  0  0  0  0  0
   -3.0530   21.4650  -27.6010 C   0  0  0  0  0  0  0  0  0  0  0  0
   -3.0910   20.5060  -28.6090 C   0  0  0  0  0  0  0  0  0  0  0  0
   -3.1060   20.8980  -29.9480 C   0  0  0  0  0  0  0  0  0  0  0  0
   -3.0840   22.2640  -30.2950 C   0  0  0  0  0  0  0  0  0  0  0  0
   -3.1190   22.6750  -31.6380 O   0  0  0  0  0  0  0  0  0  0  0  0
   -4.0990   22.2710  -32.5910 C   0  0  0  0  0  0  0  0  0  0  0  0
   -5.4230   22.8740  -32.2240 C   0  0  0  0  0  0  0  0  0  0  0  0
   -5.4650   24.1060  -31.9580 O   0  0  0  0  0  0  0  0  0  0  0  0
   -6.6760   22.0680  -32.1810 C   0  0  0  0  0  0  0  0  0  0  0  0
   -6.6830   20.7530  -32.6890 C   0  0  0  0  0  0  0  0  0  0  0  0
   -7.8470   19.9800  -32.6480 C   0  0  0  0  0  0  0  0  0  0  0  0
   -9.0190   20.5070  -32.1020 C   0  0  0  0  0  0  0  0  0  0  0  0
   -9.0290   21.8080  -31.5980 C   0  0  0  0  0  0  0  0  0  0  0  0
   -7.8680   22.5870  -31.6360 C   0  0  0  0  0  0  0  0  0  0  0  0
    0.9141   22.9603  -28.2286 H   0  0  0  0  0  0  0  0  0  0  0  0
   -0.5421   23.3181  -29.2177 H   0  0  0  0  0  0  0  0  0  0  0  0
    0.8460   24.4582  -29.2177 H   0  0  0  0  0  0  0  0  0  0  0  0
    1.0410   23.6661  -25.9968 H   0  0  0  0  0  0  0  0  0  0  0  0
    0.0517   24.8891  -24.0638 H   0  0  0  0  0  0  0  0  0  0  0  0
   -1.9098   26.3890  -24.4037 H   0  0  0  0  0  0  0  0  0  0  0  0
   -2.8740   26.6918  -26.6819 H   0  0  0  0  0  0  0  0  0  0  0  0
   -2.9938   23.5736  -27.1214 H   0  0  0  0  0  0  0  0  0  0  0  0
   -3.0458   21.1524  -26.5464 H   0  0  0  0  0  0  0  0  0  0  0  0
   -3.1092   19.4372  -28.3496 H   0  0  0  0  0  0  0  0  0  0  0  0
   -3.1352   20.1346  -30.7395 H   0  0  0  0  0  0  0  0  0  0  0  0
   -3.8025   22.6163  -33.5924 H   0  0  0  0  0  0  0  0  0  0  0  0
   -4.1809   21.1741  -32.5941 H   0  0  0  0  0  0  0  0  0  0  0  0
   -5.7638   20.3312  -33.1217 H   0  0  0  0  0  0  0  0  0  0  0  0
   -7.8396   18.9548  -33.0466 H   0  0  0  0  0  0  0  0  0  0  0  0
   -9.9338   19.8970  -32.0692 H   0  0  0  0  0  0  0  0  0  0  0  0
   -9.9533   22.2225  -31.1692 H   0  0  0  0  0  0  0  0  0  0  0  0
   -7.8852   23.6122  -31.2377 H   0  0  0  0  0  0  0  0  0  0  0  0
  1  2  1  0
  2  3  2  0
  3  4  1  0
  4  5  2  0
  5  6  1  0
  6  7  2  0
  7  8  1  0
  8  9  1  0
  9 10  2  0
  9 11  1  0
 11 12  2  0
 12 13  1  0
 13 14  2  0
 14 15  1  0
 15 16  2  0
 16 17  1  0
 17 18  1  0
 18 19  1  0
 19 20  2  0
 19 21  1  0
 21 22  2  0
 22 23  1  0
 23 24  2  0
 24 25  1  0
 25 26  2  0
  7  2  1  0
 16 11  1  0
 26 21  1  0
  1 27  1  0
  1 28  1  0
  1 29  1  0
  3 30  1  0
  4 31  1  0
  5 32  1  0
  6 33  1  0
 12 34  1  0
 13 35  1  0
 14 36  1  0
 15 37  1  0
 18 38  1  0
 18 39  1  0
 22 40  1  0
 23 41  1  0
 24 42  1  0
 25 43  1  0
 26 44  1  0
M  CHG  1   8  -1
M  END
>  <UniqueID>  (9) 
9

>  <SMILES>  (9) 
Cc1ccccc1[N-]C(=O)c1ccccc1OCC(=O)c1ccccc1

>  <Energy>  (9) 
52.77348325579984

>  <Genealogy>  (9) 
Cc1ccccc1[N-]C(=O)c1ccccc1OCC(=O)c1ccccc1 (protonated)
Cc1ccccc1[N-]C(=O)c1ccccc1OCC(=O)c1ccccc1 (3D coordinates assigned)
Cc1ccccc1[N-]C(=O)c1ccccc1OCC(=O)c1ccccc1 (optimized conformer: 52.77348325579984 kcal/mol)

>  <smiles>  (9) 
Cc1ccccc1NC(=O)c1ccccc1OCC(=O)c1ccccc1

>  <score_type>  (9) 
oracle

>  <origin>  (9) 
adg

>  <m_score__min__energy>  (9) 
-10.279999999999999

>  <m_primary>  (9) 
energy

$$$$
9:0
     RDKit          3D

 64 67  0  0  0  0  0  0  0  0999 V2000
   -4.7350   16.0440  -32.7380 C   0  0  0  0  0  0  0  0  0  0  0  0
   -4.2830   17.3920  -32.6850 O   0  0  0  0  0  0  0  0  0  0  0  0
   -5.1230   18.5180  -32.7090 C   0  0  0  0  0  0  0  0  0  0  0  0
   -6.5270   18.3980  -32.6720 C   0  0  0  0  0  0  0  0  0  0  0  0
   -7.3360   19.5380  -32.6760 C   0  0  0  0  0  0  0  0  0  0  0  0
   -9.2360   19.3600  -32.6200 Br  0  0  0  0  0  0  0  0  0  0  0  0
   -6.7560   20.8060  -32.7250 C   0  0  0  0  0  0  0  0  0  0  0  0
   -5.3670   20.9390  -32.7670 C   0  0  0  0  0  0  0  0  0  0  0  0
   -4.5420   19.8030  -32.7520 C   0  0  0  0  0  0  0  0  0  0  0  0
   -3.0720   19.9640  -32.8140 C   0  0  0  0  0  0  0  0  0  0  0  0
   -2.2460   19.3190  -33.7140 C   0  0  0  0  0  0  0  0  0  0  0  0
   -0.9990   19.8730  -33.4940 C   0  0  0  0  0  0  0  0  0  0  0  0
    0.2400   19.5690  -34.2310 C   0  0  0  0  0  0  0  0  0  0  0  0
    0.4340   18.3890  -34.6280 O   0  0  0  0  0  0  0  0  0  0  0  0
    1.2180   20.5870  -34.5180 N   0  0  0  0  0  0  0  0  0  0  0  0
    0.7940   21.9130  -34.9910 C   0  0  0  0  0  0  0  0  0  0  0  0
    1.8700   22.5340  -35.8940 C   0  0  0  0  0  0  0  0  0  0  0  0
    2.4700   21.5090  -36.7610 N   0  0  0  0  0  0  0  0  0  0  0  0
    3.1960   20.4750  -35.9960 C   0  0  0  0  0  0  0  0  0  0  0  0
    2.6430   20.2480  -34.5740 C   0  0  0  0  0  0  0  0  0  0  0  0
   -1.0770   20.8070  -32.5260 N   0  0  0  0  0  0  0  0  0  0  0  0
   -2.3320   20.8530  -32.1080 N   0  0  0  0  0  0  0  0  0  0  0  0
   -2.7610   21.7050  -31.0310 C   0  0  0  0  0  0  0  0  0  0  0  0
   -2.7920   21.2320  -29.7090 C   0  0  0  0  0  0  0  0  0  0  0  0
   -3.1980   22.0720  -28.6710 C   0  0  0  0  0  0  0  0  0  0  0  0
   -3.5630   23.3930  -28.9390 C   0  0  0  0  0  0  0  0  0  0  0  0
   -3.9520   24.1990  -27.9190 F   0  0  0  0  0  0  0  0  0  0  0  0
   -3.5140   23.8930  -30.2460 C   0  0  0  0  0  0  0  0  0  0  0  0
   -3.8760   25.2330  -30.4570 O   0  0  0  0  0  0  0  0  0  0  0  0
   -5.2100   25.7360  -30.5320 C   0  0  0  0  0  0  0  0  0  0  0  0
   -6.2120   24.8310  -29.7800 C   0  0  0  0  0  0  0  0  0  0  0  0
   -7.0440   23.9600  -30.6420 N   0  0  0  0  0  0  0  0  0  0  0  0
   -6.5450   23.8540  -32.0220 C   0  0  0  0  0  0  0  0  0  0  0  0
   -7.3050   22.6350  -30.0600 C   0  0  0  0  0  0  0  0  0  0  0  0
   -3.1100   23.0390  -31.2920 C   0  0  0  0  0  0  0  0  0  0  0  0
   -4.8638   15.6600  -31.7153 H   0  0  0  0  0  0  0  0  0  0  0  0
   -5.6969   16.0004  -33.2698 H   0  0  0  0  0  0  0  0  0  0  0  0
   -3.9938   15.4294  -33.2698 H   0  0  0  0  0  0  0  0  0  0  0  0
   -6.9892   17.4004  -32.6398 H   0  0  0  0  0  0  0  0  0  0  0  0
   -7.3940   21.7020  -32.7305 H   0  0  0  0  0  0  0  0  0  0  0  0
   -4.9156   21.9411  -32.8122 H   0  0  0  0  0  0  0  0  0  0  0  0
   -2.5190   18.5404  -34.4414 H   0  0  0  0  0  0  0  0  0  0  0  0
   -0.1416   21.8116  -35.5606 H   0  0  0  0  0  0  0  0  0  0  0  0
    0.6403   22.5677  -34.1205 H   0  0  0  0  0  0  0  0  0  0  0  0
    1.4114   23.3139  -36.5197 H   0  0  0  0  0  0  0  0  0  0  0  0
    2.6573   22.9694  -35.2611 H   0  0  0  0  0  0  0  0  0  0  0  0
    1.7020   21.0500  -37.3080 H   0  0  0  0  0  0  0  0  0  0  0  0
    3.1317   19.5260  -36.5485 H   0  0  0  0  0  0  0  0  0  0  0  0
    4.2317   20.8282  -35.8839 H   0  0  0  0  0  0  0  0  0  0  0  0
    2.7749   19.1913  -34.2985 H   0  0  0  0  0  0  0  0  0  0  0  0
    3.1905   20.8937  -33.8717 H   0  0  0  0  0  0  0  0  0  0  0  0
   -2.4952   20.1955  -29.4908 H   0  0  0  0  0  0  0  0  0  0  0  0
   -3.2306   21.6925  -27.6391 H   0  0  0  0  0  0  0  0  0  0  0  0
   -5.2361   26.7416  -30.0869 H   0  0  0  0  0  0  0  0  0  0  0  0
   -5.5045   25.7626  -31.5915 H   0  0  0  0  0  0  0  0  0  0  0  0
   -5.6412   24.1868  -29.0951 H   0  0  0  0  0  0  0  0  0  0  0  0
   -6.9097   25.5086  -29.2663 H   0  0  0  0  0  0  0  0  0  0  0  0
   -5.4691   23.6255  -32.0063 H   0  0  0  0  0  0  0  0  0  0  0  0
   -7.0830   23.0501  -32.5457 H   0  0  0  0  0  0  0  0  0  0  0  0
   -6.7098   24.8072  -32.5457 H   0  0  0  0  0  0  0  0  0  0  0  0
   -7.2907   22.7073  -28.9625 H   0  0  0  0  0  0  0  0  0  0  0  0
   -8.2910   22.2768  -30.3911 H   0  0  0  0  0  0  0  0  0  0  0  0
   -6.5285   21.9297  -30.3911 H   0  0  0  0  0  0  0  0  0  0  0  0
   -3.0679   23.4217  -32.3224 H   0  0  0  0  0  0  0  0  0  0  0  0
  1  2  1  0
  2  3  1  0
  3  4  2  0
  4  5  1  0
  5  6  1  0
  5  7  2  0
  7  8  1  0
  8  9  2  0
  9 10  1  0
 10 11  2  0
 11 12  1  0
 12 13  1  0
 13 14  2  0
 13 15  1  0
 15 16  1  0
 16 17  1  0
 17 18  1  0
 18 19  1  0
 19 20  1  0
 12 21  2  0
 21 22  1  0
 22 23  1  0
 23 24  2  0
 24 25  1  0
 25 26  2  0
 26 27  1  0
 26 28  1  0
 28 29  1  0
 29 30  1  0
 30 31  1  0
 31 32  1  0
 32 33  1  0
 32 34  1  0
 28 35  2  0
  9  3  1  0
 22 10  1  0
 35 23  1  0
 20 15  1  0
  1 36  1  0
  1 37  1  0
  1 38  1  0
  4 39  1  0
  7 40  1  0
  8 41  1  0
 11 42  1  0
 16 43  1  0
 16 44  1  0
 17 45  1  0
 17 46  1  0
 18 47  1  0
 19 48  1  0
 19 49  1  0
 20 50  1  0
 20 51  1  0
 24 52  1  0
 25 53  1  0
 30 54  1  0
 30 55  1  0
 31 56  1  0
 31 57  1  0
 33 58  1  0
 33 59  1  0
 33 60  1  0
 34 61  1  0
 34 62  1  0
 34 63  1  0
 35 64  1  0
M  END
>  <UniqueID>  (10) 
10

>  <SMILES>  (10) 
COc1cc(Br)ccc1-c1cc(C(=O)N2CCNCC2)nn1-c1ccc(F)c(OCCN(C)C)c1

>  <Energy>  (10) 
115.84884408865523

>  <Genealogy>  (10) 
COc1cc(Br)ccc1-c1cc(C(=O)N2CCNCC2)nn1-c1ccc(F)c(OCCN(C)C)c1 (3D coordinates assigned)
COc1cc(Br)ccc1-c1cc(C(=O)N2CCNCC2)nn1-c1ccc(F)c(OCCN(C)C)c1 (nonaromatic ring conformer: 115.84884408865523 kcal/mol)

>  <smiles>  (10) 
COc1cc(Br)ccc1-c1cc(C(=O)N2CCNCC2)nn1-c1ccc(F)c(OCCN(C)C)c1

>  <score_type>  (10) 
oracle

>  <origin>  (10) 
adg

>  <m_score__min__energy>  (10) 
-9.0500000000000007

>  <m_primary>  (10) 
energy

$$$$
10:0
     RDKit          3D

 37 39  0  0  0  0  0  0  0  0999 V2000
   -2.6730   24.5360  -29.3500 C   0  0  0  0  0  0  0  0  0  0  0  0
   -3.5100   24.8040  -30.4710 O   0  0  0  0  0  0  0  0  0  0  0  0
   -4.6260   24.0340  -30.8280 C   0  0  0  0  0  0  0  0  0  0  0  0
   -5.9000   24.5250  -30.5250 C   0  0  0  0  0  0  0  0  0  0  0  0
   -7.0430   23.7960  -30.8640 C   0  0  0  0  0  0  0  0  0  0  0  0
   -6.9280   22.5650  -31.5270 C   0  0  0  0  0  0  0  0  0  0  0  0
   -8.1430   21.7940  -31.8710 C   0  0  0  0  0  0  0  0  0  0  0  0
   -9.4450   22.2260  -31.7170 C   0  0  0  0  0  0  0  0  0  0  0  0
  -10.2430   21.1920  -32.0340 N   0  0  0  0  0  0  0  0  0  0  0  0
   -9.4800   20.1660  -32.3790 N   0  0  0  0  0  0  0  0  0  0  0  0
   -8.2020   20.5070  -32.2920 N   0  0  0  0  0  0  0  0  0  0  0  0
   -7.1280   19.6340  -32.6800 C   0  0  0  0  0  0  0  0  0  0  0  0
   -6.3840   19.8850  -33.8450 C   0  0  0  0  0  0  0  0  0  0  0  0
   -5.3520   19.0210  -34.2200 C   0  0  0  0  0  0  0  0  0  0  0  0
   -5.0640   17.8940  -33.4460 C   0  0  0  0  0  0  0  0  0  0  0  0
   -5.8090   17.6150  -32.2950 C   0  0  0  0  0  0  0  0  0  0  0  0
   -5.4860   16.4670  -31.5560 O   0  0  0  0  0  0  0  0  0  0  0  0
   -4.9730   15.2650  -32.1210 C   0  0  0  0  0  0  0  0  0  0  0  0
   -6.8490   18.4880  -31.9190 C   0  0  0  0  0  0  0  0  0  0  0  0
   -5.6500   22.0600  -31.8150 C   0  0  0  0  0  0  0  0  0  0  0  0
   -4.5070   22.7890  -31.4760 C   0  0  0  0  0  0  0  0  0  0  0  0
   -3.2348   24.7159  -28.4216 H   0  0  0  0  0  0  0  0  0  0  0  0
   -2.3428   23.4872  -29.3814 H   0  0  0  0  0  0  0  0  0  0  0  0
   -1.7950   25.1979  -29.3814 H   0  0  0  0  0  0  0  0  0  0  0  0
   -6.0033   25.4942  -30.0150 H   0  0  0  0  0  0  0  0  0  0  0  0
   -8.0382   24.1895  -30.6096 H   0  0  0  0  0  0  0  0  0  0  0  0
   -9.7683   23.2271  -31.3956 H   0  0  0  0  0  0  0  0  0  0  0  0
  -11.2860   21.1760  -32.0120 H   0  0  0  0  0  0  0  0  0  0  0  0
   -6.6147   20.7646  -34.4639 H   0  0  0  0  0  0  0  0  0  0  0  0
   -4.7649   19.2285  -35.1267 H   0  0  0  0  0  0  0  0  0  0  0  0
   -4.2460   17.2215  -33.7436 H   0  0  0  0  0  0  0  0  0  0  0  0
   -4.6793   14.5769  -31.3146 H   0  0  0  0  0  0  0  0  0  0  0  0
   -5.7477   14.7922  -32.7425 H   0  0  0  0  0  0  0  0  0  0  0  0
   -4.0956   15.4973  -32.7425 H   0  0  0  0  0  0  0  0  0  0  0  0
   -7.4471   18.2698  -31.0220 H   0  0  0  0  0  0  0  0  0  0  0  0
   -5.5477   21.0835  -32.3110 H   0  0  0  0  0  0  0  0  0  0  0  0
   -3.5108   22.3891  -31.7161 H   0  0  0  0  0  0  0  0  0  0  0  0
  1  2  1  0
  2  3  1  0
  3  4  2  0
  4  5  1  0
  5  6  2  0
  6  7  1  0
  7  8  2  0
  8  9  1  0
  9 10  2  0
 10 11  1  0
 11 12  1  0
 12 13  2  0
 13 14  1  0
 14 15  2  0
 15 16  1  0
 16 17  1  0
 17 18  1  0
 16 19  2  0
  6 20  1  0
 20 21  2  0
 21  3  1  0
 11  7  1  0
 19 12  1  0
  1 22  1  0
  1 23  1  0
  1 24  1  0
  4 25  1  0
  5 26  1  0
  8 27  1  0
  9 28  1  0
 13 29  1  0
 14 30  1  0
 15 31  1  0
 18 32  1  0
 18 33  1  0
 18 34  1  0
 19 35  1  0
 20 36  1  0
 21 37  1  0
M  CHG  1   9   1
M  END
>  <UniqueID>  (11) 
11

>  <SMILES>  (11) 
COc1ccc(-c2c[nH+]nn2-c2cccc(OC)c2)cc1

>  <Energy>  (11) 
82.48477318582744

>  <Genealogy>  (11) 
COc1ccc(-c2c[nH+]nn2-c2cccc(OC)c2)cc1 (protonated)
COc1ccc(-c2c[nH+]nn2-c2cccc(OC)c2)cc1 (3D coordinates assigned)
COc1ccc(-c2c[nH+]nn2-c2cccc(OC)c2)cc1 (optimized conformer: 82.48477318582744 kcal/mol)

>  <smiles>  (11) 
COc1ccc(-c2cnnn2-c2cccc(OC)c2)cc1

>  <score_type>  (11) 
oracle

>  <origin>  (11) 
adg

>  <m_score__min__energy>  (11) 
-7.4800000000000004

>  <m_primary>  (11) 
energy

$$$$
11:0
     RDKit          3D

 61 64  0  0  0  0  0  0  0  0999 V2000
    0.2220   23.0650  -24.3420 C   0  0  0  0  0  0  0  0  0  0  0  0
    0.5740   23.3890  -25.6850 O   0  0  0  0  0  0  0  0  0  0  0  0
   -0.3290   23.8670  -26.6460 C   0  0  0  0  0  0  0  0  0  0  0  0
   -1.5550   24.4660  -26.2980 C   0  0  0  0  0  0  0  0  0  0  0  0
   -2.4190   24.9260  -27.2950 C   0  0  0  0  0  0  0  0  0  0  0  0
   -2.0740   24.7970  -28.6520 C   0  0  0  0  0  0  0  0  0  0  0  0
   -2.9370   25.2130  -29.6770 O   0  0  0  0  0  0  0  0  0  0  0  0
   -4.0860   24.5260  -30.0910 C   0  0  0  0  0  0  0  0  0  0  0  0
   -5.3610   25.1160  -30.0300 C   0  0  0  0  0  0  0  0  0  0  0  0
   -6.4860   24.4120  -30.4670 C   0  0  0  0  0  0  0  0  0  0  0  0
   -6.3550   23.1110  -30.9800 C   0  0  0  0  0  0  0  0  0  0  0  0
   -7.5490   22.3720  -31.4390 C   0  0  0  0  0  0  0  0  0  0  0  0
   -7.5170   21.1030  -31.9030 N   0  0  0  0  0  0  0  0  0  0  0  0
   -8.8070   20.8550  -32.1980 C   0  0  0  0  0  0  0  0  0  0  0  0
   -9.3160   19.5480  -32.7240 C   0  0  0  0  0  0  0  0  0  0  0  0
   -8.2050   18.6000  -32.8670 N   0  0  0  0  0  0  0  0  0  0  0  0
   -7.9800   17.8730  -31.6110 C   0  0  0  0  0  0  0  0  0  0  0  0
   -6.4770   17.7890  -31.2590 C   0  0  0  0  0  0  0  0  0  0  0  0
   -5.5360   18.0340  -32.3790 N   0  0  0  0  0  0  0  0  0  0  0  0
   -5.2100   19.4490  -32.6220 C   0  0  0  0  0  0  0  0  0  0  0  0
   -3.9630   19.5570  -33.5210 C   0  0  0  0  0  0  0  0  0  0  0  0
   -3.8760   18.4880  -34.5480 N   0  0  0  0  0  0  0  0  0  0  0  0
   -2.8690   17.4710  -34.2000 C   0  0  0  0  0  0  0  0  0  0  0  0
   -5.1860   17.8790  -34.8590 C   0  0  0  0  0  0  0  0  0  0  0  0
   -5.8550   17.2750  -33.6070 C   0  0  0  0  0  0  0  0  0  0  0  0
   -9.5710   21.9620  -31.9030 C   0  0  0  0  0  0  0  0  0  0  0  0
   -8.7630   22.8800  -31.4370 O   0  0  0  0  0  0  0  0  0  0  0  0
   -5.0770   22.5290  -31.0520 C   0  0  0  0  0  0  0  0  0  0  0  0
   -3.9520   23.2370  -30.6200 C   0  0  0  0  0  0  0  0  0  0  0  0
   -0.8630   24.1880  -28.9950 C   0  0  0  0  0  0  0  0  0  0  0  0
    0.0080   23.7360  -27.9990 C   0  0  0  0  0  0  0  0  0  0  0  0
    0.8503   23.6433  -23.6486 H   0  0  0  0  0  0  0  0  0  0  0  0
   -0.8362   23.3117  -24.1706 H   0  0  0  0  0  0  0  0  0  0  0  0
    0.3803   21.9900  -24.1706 H   0  0  0  0  0  0  0  0  0  0  0  0
   -1.8330   24.5720  -25.2390 H   0  0  0  0  0  0  0  0  0  0  0  0
   -3.3756   25.3922  -27.0165 H   0  0  0  0  0  0  0  0  0  0  0  0
   -5.4732   26.1370  -29.6362 H   0  0  0  0  0  0  0  0  0  0  0  0
   -7.4801   24.8793  -30.4090 H   0  0  0  0  0  0  0  0  0  0  0  0
  -10.0581   19.1372  -32.0236 H   0  0  0  0  0  0  0  0  0  0  0  0
   -9.7822   19.7103  -33.7070 H   0  0  0  0  0  0  0  0  0  0  0  0
   -7.3450   19.1660  -33.0590 H   0  0  0  0  0  0  0  0  0  0  0  0
   -8.5077   18.3939  -30.7984 H   0  0  0  0  0  0  0  0  0  0  0  0
   -8.3603   16.8484  -31.7356 H   0  0  0  0  0  0  0  0  0  0  0  0
   -6.2716   18.5345  -30.4767 H   0  0  0  0  0  0  0  0  0  0  0  0
   -6.3020   16.7496  -30.9443 H   0  0  0  0  0  0  0  0  0  0  0  0
   -6.0606   19.9384  -33.1190 H   0  0  0  0  0  0  0  0  0  0  0  0
   -5.0050   19.9421  -31.6603 H   0  0  0  0  0  0  0  0  0  0  0  0
   -3.9868   20.5302  -34.0332 H   0  0  0  0  0  0  0  0  0  0  0  0
   -3.0844   19.4492  -32.8680 H   0  0  0  0  0  0  0  0  0  0  0  0
   -2.7907   17.3919  -33.1056 H   0  0  0  0  0  0  0  0  0  0  0  0
   -3.1703   16.4988  -34.6172 H   0  0  0  0  0  0  0  0  0  0  0  0
   -1.8939   17.7627  -34.6172 H   0  0  0  0  0  0  0  0  0  0  0  0
   -5.8471   18.6528  -35.2764 H   0  0  0  0  0  0  0  0  0  0  0  0
   -5.0196   17.0657  -35.5808 H   0  0  0  0  0  0  0  0  0  0  0  0
   -6.9454   17.2788  -33.7520 H   0  0  0  0  0  0  0  0  0  0  0  0
   -5.4701   16.2524  -33.4801 H   0  0  0  0  0  0  0  0  0  0  0  0
  -10.6589   22.0571  -32.0346 H   0  0  0  0  0  0  0  0  0  0  0  0
   -4.9619   21.5103  -31.4507 H   0  0  0  0  0  0  0  0  0  0  0  0
   -2.9551   22.7784  -30.6962 H   0  0  0  0  0  0  0  0  0  0  0  0
   -0.5940   24.0638  -30.0544 H   0  0  0  0  0  0  0  0  0  0  0  0
    0.9657   23.2738  -28.2804 H   0  0  0  0  0  0  0  0  0  0  0  0
  1  2  1  0
  2  3  1  0
  3  4  2  0
  4  5  1  0
  5  6  2  0
  6  7  1  0
  7  8  1  0
  8  9  2  0
  9 10  1  0
 10 11  2  0
 11 12  1  0
 12 13  2  0
 13 14  1  0
 14 15  1  0
 15 16  1  0
 16 17  1  0
 17 18  1  0
 18 19  1  0
 19 20  1  0
 20 21  1  0
 21 22  1  0
 22 23  1  0
 22 24  1  0
 24 25  1  0
 14 26  2  0
 26 27  1  0
 11 28  1  0
 28 29  2  0
  6 30  1  0
 30 31  2  0
 31  3  1  0
 29  8  1  0
 27 12  1  0
 25 19  1  0
  1 32  1  0
  1 33  1  0
  1 34  1  0
  4 35  1  0
  5 36  1  0
  9 37  1  0
 10 38  1  0
 15 39  1  0
 15 40  1  0
 16 41  1  0
 17 42  1  0
 17 43  1  0
 18 44  1  0
 18 45  1  0
 20 46  1  0
 20 47  1  0
 21 48  1  0
 21 49  1  0
 23 50  1  0
 23 51  1  0
 23 52  1  0
 24 53  1  0
 24 54  1  0
 25 55  1  0
 25 56  1  0
 26 57  1  0
 28 58  1  0
 29 59  1  0
 30 60  1  0
 31 61  1  0
M  END
>  <UniqueID>  (12) 
12

>  <SMILES>  (12) 
COc1ccc(Oc2ccc(-c3nc(CNCCN4CCN(C)CC4)co3)cc2)cc1

>  <Energy>  (12) 
112.55617438905837

>  <Genealogy>  (12) 
COc1ccc(Oc2ccc(-c3nc(CNCCN4CCN(C)CC4)co3)cc2)cc1 (3D coordinates assigned)
COc1ccc(Oc2ccc(-c3nc(CNCCN4CCN(C)CC4)co3)cc2)cc1 (nonaromatic ring conformer: 112.55617438905837 kcal/mol)

>  <smiles>  (12) 
COc1ccc(Oc2ccc(-c3nc(CNCCN4CCN(C)CC4)co3)cc2)cc1

>  <score_type>  (12) 
oracle

>  <origin>  (12) 
adg

>  <m_score__min__energy>  (12) 
-8.7899999999999991

>  <m_primary>  (12) 
energy

$$$$
12:0
     RDKit          3D

 44 46  0  0  0  0  0  0  0  0999 V2000
   -2.5040   21.8520  -29.6870 C   0  0  0  0  0  0  0  0  0  0  0  0
   -3.6620   22.2550  -28.7790 C   0  0  0  0  0  0  0  0  0  0  0  0
   -3.8260   23.7140  -28.7680 N   0  0  0  0  0  0  0  0  0  0  0  0
   -3.0410   24.5360  -27.8850 C   0  0  0  0  0  0  0  0  0  0  0  0
   -3.5260   24.8840  -26.6140 C   0  0  0  0  0  0  0  0  0  0  0  0
   -2.7560   25.6760  -25.7570 C   0  0  0  0  0  0  0  0  0  0  0  0
   -1.4920   26.1310  -26.1510 C   0  0  0  0  0  0  0  0  0  0  0  0
   -0.7590   26.9230  -25.2540 O   0  0  0  0  0  0  0  0  0  0  0  0
   -0.6870   26.6900  -23.8510 C   0  0  0  0  0  0  0  0  0  0  0  0
   -1.0040   25.7810  -27.4240 C   0  0  0  0  0  0  0  0  0  0  0  0
   -1.7750   24.9900  -28.2810 C   0  0  0  0  0  0  0  0  0  0  0  0
   -4.9550   24.4540  -29.8660 S   0  0  0  0  0  0  0  0  0  0  0  0
   -4.2090   25.2920  -30.8670 O   0  0  0  0  0  0  0  0  0  0  0  0
   -5.8880   25.3570  -29.1080 O   0  0  0  0  0  0  0  0  0  0  0  0
   -5.8820   23.2070  -30.6940 C   0  0  0  0  0  0  0  0  0  0  0  0
   -7.2550   23.0400  -30.3930 C   0  0  0  0  0  0  0  0  0  0  0  0
   -8.0100   22.0370  -31.0260 C   0  0  0  0  0  0  0  0  0  0  0  0
   -7.3640   21.2200  -31.9560 C   0  0  0  0  0  0  0  0  0  0  0  0
   -6.0360   21.3830  -32.2500 C   0  0  0  0  0  0  0  0  0  0  0  0
   -5.6970   20.4320  -33.1900 C   0  0  0  0  0  0  0  0  0  0  0  0
   -6.8680   19.7190  -33.4290 C   0  0  0  0  0  0  0  0  0  0  0  0
   -7.8820   20.2050  -32.6730 N   0  0  0  0  0  0  0  0  0  0  0  0
   -9.2540   19.7110  -32.6430 C   0  0  0  0  0  0  0  0  0  0  0  0
   -5.2600   22.3660  -31.6400 C   0  0  0  0  0  0  0  0  0  0  0  0
   -1.6428   21.5523  -29.0718 H   0  0  0  0  0  0  0  0  0  0  0  0
   -2.8124   21.0083  -30.3219 H   0  0  0  0  0  0  0  0  0  0  0  0
   -2.2220   22.7048  -30.3219 H   0  0  0  0  0  0  0  0  0  0  0  0
   -4.5885   21.7898  -29.1466 H   0  0  0  0  0  0  0  0  0  0  0  0
   -3.4455   21.9146  -27.7556 H   0  0  0  0  0  0  0  0  0  0  0  0
   -4.5167   24.5317  -26.2910 H   0  0  0  0  0  0  0  0  0  0  0  0
   -3.1468   25.9440  -24.7643 H   0  0  0  0  0  0  0  0  0  0  0  0
   -0.9701   27.6062  -23.3121 H   0  0  0  0  0  0  0  0  0  0  0  0
   -1.3757   25.8767  -23.5786 H   0  0  0  0  0  0  0  0  0  0  0  0
    0.3405   26.4071  -23.5786 H   0  0  0  0  0  0  0  0  0  0  0  0
   -0.0121   26.1312  -27.7458 H   0  0  0  0  0  0  0  0  0  0  0  0
   -1.3852   24.7217  -29.2740 H   0  0  0  0  0  0  0  0  0  0  0  0
   -7.7358   23.7011  -29.6570 H   0  0  0  0  0  0  0  0  0  0  0  0
   -9.0769   21.9001  -30.7957 H   0  0  0  0  0  0  0  0  0  0  0  0
   -4.7117   20.2715  -33.6519 H   0  0  0  0  0  0  0  0  0  0  0  0
   -6.9578   18.8786  -34.1330 H   0  0  0  0  0  0  0  0  0  0  0  0
   -9.5788   19.5940  -31.5986 H   0  0  0  0  0  0  0  0  0  0  0  0
   -9.9132   20.4282  -33.1539 H   0  0  0  0  0  0  0  0  0  0  0  0
   -9.3047   18.7382  -33.1539 H   0  0  0  0  0  0  0  0  0  0  0  0
   -4.1948   22.4827  -31.8885 H   0  0  0  0  0  0  0  0  0  0  0  0
  1  2  1  0
  2  3  1  0
  3  4  1  0
  4  5  2  0
  5  6  1  0
  6  7  2  0
  7  8  1  0
  8  9  1  0
  7 10  1  0
 10 11  2  0
  3 12  1  0
 12 13  2  0
 12 14  2  0
 12 15  1  0
 15 16  2  0
 16 17  1  0
 17 18  2  0
 18 19  1  0
 19 20  1  0
 20 21  2  0
 21 22  1  0
 22 23  1  0
 19 24  2  0
 11  4  1  0
 24 15  1  0
 22 18  1  0
  1 25  1  0
  1 26  1  0
  1 27  1  0
  2 28  1  0
  2 29  1  0
  5 30  1  0
  6 31  1  0
  9 32  1  0
  9 33  1  0
  9 34  1  0
 10 35  1  0
 11 36  1  0
 16 37  1  0
 17 38  1  0
 20 39  1  0
 21 40  1  0
 23 41  1  0
 23 42  1  0
 23 43  1  0
 24 44  1  0
M  END
>  <UniqueID>  (13) 
13

>  <SMILES>  (13) 
CCN(c1ccc(OC)cc1)S(=O)(=O)c1ccc2c(ccn2C)c1

>  <Energy>  (13) 
79.1785925248044

>  <Genealogy>  (13) 
CCN(c1ccc(OC)cc1)S(=O)(=O)c1ccc2c(ccn2C)c1 (3D coordinates assigned)
CCN(c1ccc(OC)cc1)S(=O)(=O)c1ccc2c(ccn2C)c1 (optimized conformer: 79.1785925248044 kcal/mol)

>  <smiles>  (13) 
CCN(c1ccc(OC)cc1)S(=O)(=O)c1ccc2c(ccn2C)c1

>  <score_type>  (13) 
oracle

>  <origin>  (13) 
adg

>  <m_score__min__energy>  (13) 
-8.5600000000000005

>  <m_primary>  (13) 
energy

$$$$
13:0
     RDKit          3D

 54 56  0  0  0  0  0  0  0  0999 V2000
   -9.0670   18.5520  -31.6570 C   0  0  0  0  0  0  0  0  0  0  0  0
   -7.7010   19.2180  -31.7830 C   0  0  0  0  0  0  0  0  0  0  0  0
   -7.5590   20.0610  -33.0560 C   0  0  0  0  0  0  0  0  0  0  0  0
   -6.5150   19.5630  -33.8970 O   0  0  0  0  0  0  0  0  0  0  0  0
   -5.8810   18.3090  -33.8110 C   0  0  0  0  0  0  0  0  0  0  0  0
   -6.4910   17.1340  -34.3000 C   0  0  0  0  0  0  0  0  0  0  0  0
   -5.8470   15.9020  -34.1910 C   0  0  0  0  0  0  0  0  0  0  0  0
   -4.5930   15.8180  -33.5950 C   0  0  0  0  0  0  0  0  0  0  0  0
   -3.9740   16.9670  -33.1010 C   0  0  0  0  0  0  0  0  0  0  0  0
   -4.6030   18.2250  -33.2020 C   0  0  0  0  0  0  0  0  0  0  0  0
   -3.9090   19.4340  -32.6790 C   0  0  0  0  0  0  0  0  0  0  0  0
   -2.6690   19.8200  -33.0640 N   0  0  0  0  0  0  0  0  0  0  0  0
   -2.2470   20.9540  -32.4420 C   0  0  0  0  0  0  0  0  0  0  0  0
   -0.9110   21.5490  -32.7600 C   0  0  0  0  0  0  0  0  0  0  0  0
   -3.1600   21.4780  -31.5210 C   0  0  0  0  0  0  0  0  0  0  0  0
   -2.9920   22.6540  -30.7040 N   0  0  0  0  0  0  0  0  0  0  0  0
   -1.7830   22.7970  -29.8800 C   0  0  0  0  0  0  0  0  0  0  0  0
   -2.1270   22.8910  -28.3860 C   0  0  0  0  0  0  0  0  0  0  0  0
   -3.0540   21.7660  -27.9360 C   0  0  0  0  0  0  0  0  0  0  0  0
   -3.9730   23.7100  -30.7110 C   0  0  0  0  0  0  0  0  0  0  0  0
   -3.6010   24.8980  -30.5030 O   0  0  0  0  0  0  0  0  0  0  0  0
   -5.4070   23.4360  -30.9730 C   0  0  0  0  0  0  0  0  0  0  0  0
   -5.9460   23.6640  -32.2520 C   0  0  0  0  0  0  0  0  0  0  0  0
   -7.2990   23.4160  -32.5040 C   0  0  0  0  0  0  0  0  0  0  0  0
   -8.1230   22.9270  -31.4880 C   0  0  0  0  0  0  0  0  0  0  0  0
   -9.4340   22.6860  -31.7340 F   0  0  0  0  0  0  0  0  0  0  0  0
   -7.5940   22.6820  -30.2180 C   0  0  0  0  0  0  0  0  0  0  0  0
   -6.2430   22.9290  -29.9610 C   0  0  0  0  0  0  0  0  0  0  0  0
   -4.5310   20.5040  -31.5320 S   0  0  0  0  0  0  0  0  0  0  0  0
   -9.3184   18.4294  -30.5932 H   0  0  0  0  0  0  0  0  0  0  0  0
   -9.8276   19.1804  -32.1435 H   0  0  0  0  0  0  0  0  0  0  0  0
   -9.0404   17.5658  -32.1435 H   0  0  0  0  0  0  0  0  0  0  0  0
   -7.5481   19.8714  -30.9114 H   0  0  0  0  0  0  0  0  0  0  0  0
   -6.9486   18.4172  -31.8338 H   0  0  0  0  0  0  0  0  0  0  0  0
   -8.5086   20.0348  -33.6105 H   0  0  0  0  0  0  0  0  0  0  0  0
   -7.3066   21.0909  -32.7633 H   0  0  0  0  0  0  0  0  0  0  0  0
   -7.4833   17.1906  -34.7713 H   0  0  0  0  0  0  0  0  0  0  0  0
   -6.3322   14.9936  -34.5776 H   0  0  0  0  0  0  0  0  0  0  0  0
   -4.0883   14.8441  -33.5129 H   0  0  0  0  0  0  0  0  0  0  0  0
   -2.9841   16.8905  -32.6274 H   0  0  0  0  0  0  0  0  0  0  0  0
   -0.3824   21.7844  -31.8245 H   0  0  0  0  0  0  0  0  0  0  0  0
   -0.3189   20.8295  -33.3446 H   0  0  0  0  0  0  0  0  0  0  0  0
   -1.0497   22.4704  -33.3446 H   0  0  0  0  0  0  0  0  0  0  0  0
   -1.1342   21.9238  -30.0430 H   0  0  0  0  0  0  0  0  0  0  0  0
   -1.2723   23.7254  -30.1753 H   0  0  0  0  0  0  0  0  0  0  0  0
   -1.1953   22.8364  -27.8039 H   0  0  0  0  0  0  0  0  0  0  0  0
   -2.6482   23.8452  -28.2190 H   0  0  0  0  0  0  0  0  0  0  0  0
   -3.0823   21.7317  -26.8369 H   0  0  0  0  0  0  0  0  0  0  0  0
   -4.0672   21.9487  -28.3233 H   0  0  0  0  0  0  0  0  0  0  0  0
   -2.6809   20.8064  -28.3233 H   0  0  0  0  0  0  0  0  0  0  0  0
   -5.2995   24.0396  -33.0588 H   0  0  0  0  0  0  0  0  0  0  0  0
   -7.7150   23.6064  -33.5043 H   0  0  0  0  0  0  0  0  0  0  0  0
   -8.2426   22.2938  -29.4189 H   0  0  0  0  0  0  0  0  0  0  0  0
   -5.8305   22.7259  -28.9617 H   0  0  0  0  0  0  0  0  0  0  0  0
  1  2  1  0
  2  3  1  0
  3  4  1  0
  4  5  1  0
  5  6  2  0
  6  7  1  0
  7  8  2  0
  8  9  1  0
  9 10  2  0
 10 11  1  0
 11 12  2  0
 12 13  1  0
 13 14  1  0
 13 15  2  0
 15 16  1  0
 16 17  1  0
 17 18  1  0
 18 19  1  0
 16 20  1  0
 20 21  2  0
 20 22  1  0
 22 23  2  0
 23 24  1  0
 24 25  2  0
 25 26  1  0
 25 27  1  0
 27 28  2  0
 15 29  1  0
 10  5  1  0
 29 11  1  0
 28 22  1  0
  1 30  1  0
  1 31  1  0
  1 32  1  0
  2 33  1  0
  2 34  1  0
  3 35  1  0
  3 36  1  0
  6 37  1  0
  7 38  1  0
  8 39  1  0
  9 40  1  0
 14 41  1  0
 14 42  1  0
 14 43  1  0
 17 44  1  0
 17 45  1  0
 18 46  1  0
 18 47  1  0
 19 48  1  0
 19 49  1  0
 19 50  1  0
 23 51  1  0
 24 52  1  0
 27 53  1  0
 28 54  1  0
M  END
>  <UniqueID>  (14) 
14

>  <SMILES>  (14) 
CCCOc1ccccc1-c1nc(C)c(N(CCC)C(=O)c2ccc(F)cc2)s1

>  <Energy>  (14) 
88.12128419824653

>  <Genealogy>  (14) 
CCCOc1ccccc1-c1nc(C)c(N(CCC)C(=O)c2ccc(F)cc2)s1 (3D coordinates assigned)
CCCOc1ccccc1-c1nc(C)c(N(CCC)C(=O)c2ccc(F)cc2)s1 (optimized conformer: 88.12128419824653 kcal/mol)

>  <smiles>  (14) 
CCCOc1ccccc1-c1nc(C)c(N(CCC)C(=O)c2ccc(F)cc2)s1

>  <score_type>  (14) 
oracle

>  <origin>  (14) 
adg

>  <m_score__min__energy>  (14) 
-8.6799999999999997

>  <m_primary>  (14) 
energy

$$$$
14:0
     RDKit          3D

 55 57  0  0  0  0  0  0  0  0999 V2000
   -0.0220   20.4250  -32.9230 C   0  0  0  0  0  0  0  0  0  0  0  0
   -0.9600   21.1830  -33.8640 C   0  0  0  0  0  0  0  0  0  0  0  0
   -2.2380   20.4800  -34.0710 N   0  0  0  0  0  0  0  0  0  0  0  0
   -2.0730   19.0140  -34.1060 C   0  0  0  0  0  0  0  0  0  0  0  0
   -3.4210   18.3010  -33.9370 C   0  0  0  0  0  0  0  0  0  0  0  0
   -4.5150   19.2920  -33.8030 N   0  0  0  0  0  0  0  0  0  0  0  0
   -5.6980   18.8610  -34.5650 C   0  0  0  0  0  0  0  0  0  0  0  0
   -4.8560   19.5160  -32.3790 C   0  0  0  0  0  0  0  0  0  0  0  0
   -5.5900   20.8350  -32.1930 C   0  0  0  0  0  0  0  0  0  0  0  0
   -4.8090   22.0070  -32.0640 C   0  0  0  0  0  0  0  0  0  0  0  0
   -3.4070   21.8990  -32.1150 O   0  0  0  0  0  0  0  0  0  0  0  0
   -2.5610   21.5920  -31.0050 C   0  0  0  0  0  0  0  0  0  0  0  0
   -2.8410   22.5220  -29.8540 C   0  0  0  0  0  0  0  0  0  0  0  0
   -3.8660   22.2200  -28.9420 C   0  0  0  0  0  0  0  0  0  0  0  0
   -4.1350   23.0820  -27.8750 C   0  0  0  0  0  0  0  0  0  0  0  0
   -3.3810   24.2470  -27.7090 C   0  0  0  0  0  0  0  0  0  0  0  0
   -2.3530   24.5490  -28.6060 C   0  0  0  0  0  0  0  0  0  0  0  0
   -2.0800   23.6880  -29.6750 C   0  0  0  0  0  0  0  0  0  0  0  0
   -5.4340   23.2510  -31.8780 C   0  0  0  0  0  0  0  0  0  0  0  0
   -6.8170   23.3460  -31.8080 C   0  0  0  0  0  0  0  0  0  0  0  0
   -7.6140   22.2060  -31.9320 C   0  0  0  0  0  0  0  0  0  0  0  0
   -9.0110   22.3280  -31.8570 C   0  0  0  0  0  0  0  0  0  0  0  0
   -9.8240   21.2060  -31.9900 C   0  0  0  0  0  0  0  0  0  0  0  0
   -9.2550   19.9530  -32.2040 C   0  0  0  0  0  0  0  0  0  0  0  0
   -7.8670   19.8120  -32.2790 C   0  0  0  0  0  0  0  0  0  0  0  0
   -7.0140   20.9330  -32.1360 C   0  0  0  0  0  0  0  0  0  0  0  0
   -0.2934   20.6443  -31.8798 H   0  0  0  0  0  0  0  0  0  0  0  0
   -0.1136   19.3442  -33.1063 H   0  0  0  0  0  0  0  0  0  0  0  0
    1.0155   20.7414  -33.1063 H   0  0  0  0  0  0  0  0  0  0  0  0
   -1.1677   22.1735  -33.4330 H   0  0  0  0  0  0  0  0  0  0  0  0
   -0.4605   21.2645  -34.8407 H   0  0  0  0  0  0  0  0  0  0  0  0
   -2.6270   20.8020  -34.9880 H   0  0  0  0  0  0  0  0  0  0  0  0
   -2.9160   20.7450  -33.3200 H   0  0  0  0  0  0  0  0  0  0  0  0
   -1.6327   18.7252  -35.0718 H   0  0  0  0  0  0  0  0  0  0  0  0
   -1.4149   18.7171  -33.2761 H   0  0  0  0  0  0  0  0  0  0  0  0
   -3.6099   17.6690  -34.8173 H   0  0  0  0  0  0  0  0  0  0  0  0
   -3.3864   17.6819  -33.0284 H   0  0  0  0  0  0  0  0  0  0  0  0
   -6.4973   18.5698  -33.8676 H   0  0  0  0  0  0  0  0  0  0  0  0
   -6.0479   19.6894  -35.1985 H   0  0  0  0  0  0  0  0  0  0  0  0
   -5.4330   18.0016  -35.1985 H   0  0  0  0  0  0  0  0  0  0  0  0
   -5.4991   18.6946  -32.0300 H   0  0  0  0  0  0  0  0  0  0  0  0
   -3.9230   19.5502  -31.7974 H   0  0  0  0  0  0  0  0  0  0  0  0
   -2.7449   20.5556  -30.6857 H   0  0  0  0  0  0  0  0  0  0  0  0
   -1.5121   21.7139  -31.3133 H   0  0  0  0  0  0  0  0  0  0  0  0
   -4.4589   21.3021  -29.0680 H   0  0  0  0  0  0  0  0  0  0  0  0
   -4.9408   22.8432  -27.1654 H   0  0  0  0  0  0  0  0  0  0  0  0
   -3.5970   24.9267  -26.8716 H   0  0  0  0  0  0  0  0  0  0  0  0
   -1.7578   25.4643  -28.4718 H   0  0  0  0  0  0  0  0  0  0  0  0
   -1.2670   23.9255  -30.3768 H   0  0  0  0  0  0  0  0  0  0  0  0
   -4.8209   24.1597  -31.7868 H   0  0  0  0  0  0  0  0  0  0  0  0
   -7.2892   24.3274  -31.6536 H   0  0  0  0  0  0  0  0  0  0  0  0
   -9.4655   23.3161  -31.6922 H   0  0  0  0  0  0  0  0  0  0  0  0
  -10.9173   21.3091  -31.9260 H   0  0  0  0  0  0  0  0  0  0  0  0
   -9.9016   19.0700  -32.3145 H   0  0  0  0  0  0  0  0  0  0  0  0
   -7.4311   18.8169  -32.4514 H   0  0  0  0  0  0  0  0  0  0  0  0
  1  2  1  0
  2  3  1  0
  3  4  1  0
  4  5  1  0
  5  6  1  0
  6  7  1  0
  6  8  1  0
  8  9  1  0
  9 10  2  0
 10 11  1  0
 11 12  1  0
 12 13  1  0
 13 14  2  0
 14 15  1  0
 15 16  2  0
 16 17  1  0
 17 18  2  0
 10 19  1  0
 19 20  2  0
 20 21  1  0
 21 22  2  0
 22 23  1  0
 23 24  2  0
 24 25  1  0
 25 26  2  0
 26  9  1  0
 18 13  1  0
 26 21  1  0
  1 27  1  0
  1 28  1  0
  1 29  1  0
  2 30  1  0
  2 31  1  0
  3 32  1  0
  3 33  1  0
  4 34  1  0
  4 35  1  0
  5 36  1  0
  5 37  1  0
  7 38  1  0
  7 39  1  0
  7 40  1  0
  8 41  1  0
  8 42  1  0
 12 43  1  0
 12 44  1  0
 14 45  1  0
 15 46  1  0
 16 47  1  0
 17 48  1  0
 18 49  1  0
 19 50  1  0
 20 51  1  0
 22 52  1  0
 23 53  1  0
 24 54  1  0
 25 55  1  0
M  CHG  1   3   1
M  END
>  <UniqueID>  (15) 
15

>  <SMILES>  (15) 
CC[NH2+]CCN(C)Cc1c(OCc2ccccc2)ccc2ccccc12

>  <Energy>  (15) 
61.080638995746426

>  <Genealogy>  (15) 
CC[NH2+]CCN(C)Cc1c(OCc2ccccc2)ccc2ccccc12 (protonated)
CC[NH2+]CCN(C)Cc1c(OCc2ccccc2)ccc2ccccc12 (3D coordinates assigned)
CC[NH2+]CCN(C)Cc1c(OCc2ccccc2)ccc2ccccc12 (optimized conformer: 61.080638995746426 kcal/mol)

>  <smiles>  (15) 
CCNCCN(C)Cc1c(OCc2ccccc2)ccc2ccccc12

>  <score_type>  (15) 
oracle

>  <origin>  (15) 
adg

>  <m_score__min__energy>  (15) 
-7.3300000000000001

>  <m_primary>  (15) 
energy

$$$$
15:0
     RDKit          3D

 27 29  0  0  0  0  0  0  0  0999 V2000
   -2.0410   22.0610  -30.4380 C   0  0  0  0  0  0  0  0  0  0  0  0
   -3.4110   22.4840  -30.8500 C   0  0  0  0  0  0  0  0  0  0  0  0
   -3.7420   23.8020  -30.8570 N   0  0  0  0  0  0  0  0  0  0  0  0
   -4.9920   24.2120  -31.1960 C   0  0  0  0  0  0  0  0  0  0  0  0
   -5.2520   25.4440  -31.2160 O   0  0  0  0  0  0  0  0  0  0  0  0
   -5.9750   23.2630  -31.5210 C   0  0  0  0  0  0  0  0  0  0  0  0
   -5.6120   21.9040  -31.5120 C   0  0  0  0  0  0  0  0  0  0  0  0
   -4.3440   21.5500  -31.1690 N   0  0  0  0  0  0  0  0  0  0  0  0
   -6.6140   20.8700  -31.8610 C   0  0  0  0  0  0  0  0  0  0  0  0
   -6.2310   19.5400  -32.1110 C   0  0  0  0  0  0  0  0  0  0  0  0
   -7.1900   18.5820  -32.4480 C   0  0  0  0  0  0  0  0  0  0  0  0
   -6.8130   17.3010  -32.6920 F   0  0  0  0  0  0  0  0  0  0  0  0
   -8.5380   18.9380  -32.5320 C   0  0  0  0  0  0  0  0  0  0  0  0
   -8.9320   20.2540  -32.2780 C   0  0  0  0  0  0  0  0  0  0  0  0
   -7.9760   21.2290  -31.9570 C   0  0  0  0  0  0  0  0  0  0  0  0
   -8.4130   22.6290  -31.5980 C   0  0  0  0  0  0  0  0  0  0  0  0
   -7.3550   23.6710  -31.9860 C   0  0  0  0  0  0  0  0  0  0  0  0
   -1.9779   22.0415  -29.3400 H   0  0  0  0  0  0  0  0  0  0  0  0
   -1.8324   21.0566  -30.8351 H   0  0  0  0  0  0  0  0  0  0  0  0
   -1.3025   22.7730  -30.8351 H   0  0  0  0  0  0  0  0  0  0  0  0
   -5.1714   19.2529  -32.0408 H   0  0  0  0  0  0  0  0  0  0  0  0
   -9.2904   18.1811  -32.7985 H   0  0  0  0  0  0  0  0  0  0  0  0
   -9.9964   20.5268  -32.3299 H   0  0  0  0  0  0  0  0  0  0  0  0
   -9.3493   22.8572  -32.1283 H   0  0  0  0  0  0  0  0  0  0  0  0
   -8.5559   22.6748  -30.5083 H   0  0  0  0  0  0  0  0  0  0  0  0
   -7.3453   23.7794  -33.0806 H   0  0  0  0  0  0  0  0  0  0  0  0
   -7.6147   24.6227  -31.4993 H   0  0  0  0  0  0  0  0  0  0  0  0
  1  2  1  0
  2  3  2  0
  3  4  1  0
  4  5  2  0
  4  6  1  0
  6  7  2  0
  7  8  1  0
  7  9  1  0
  9 10  2  0
 10 11  1  0
 11 12  1  0
 11 13  2  0
 13 14  1  0
 14 15  2  0
 15 16  1  0
 16 17  1  0
  8  2  1  0
 15  9  1  0
 17  6  1  0
  1 18  1  0
  1 19  1  0
  1 20  1  0
 10 21  1  0
 13 22  1  0
 14 23  1  0
 16 24  1  0
 16 25  1  0
 17 26  1  0
 17 27  1  0
M  CHG  1   8  -1
M  END
>  <UniqueID>  (16) 
16

>  <SMILES>  (16) 
Cc1nc(=O)c2c([n-]1)-c1cc(F)ccc1CC2

>  <Energy>  (16) 
33.03395103045872

>  <Genealogy>  (16) 
Cc1nc(=O)c2c([n-]1)-c1cc(F)ccc1CC2 (protonated)
Cc1nc(=O)c2c([n-]1)-c1cc(F)ccc1CC2 (3D coordinates assigned)
Cc1nc(=O)c2c([n-]1)-c1cc(F)ccc1CC2 (nonaromatic ring conformer: 33.03395103045872 kcal/mol)

>  <smiles>  (16) 
Cc1nc(=O)c2c([nH]1)-c1cc(F)ccc1CC2

>  <score_type>  (16) 
oracle

>  <origin>  (16) 
adg

>  <m_score__min__energy>  (16) 
-8.0099999999999998

>  <m_primary>  (16) 
energy

$$$$
16:0
     RDKit          3D

 59 62  0  0  0  0  0  0  0  0999 V2000
   -4.2580   23.3080  -27.8730 C   0  0  0  0  0  0  0  0  0  0  0  0
   -3.3810   24.5330  -28.1240 C   0  0  0  0  0  0  0  0  0  0  0  0
   -2.8160   24.5560  -29.5490 C   0  0  0  0  0  0  0  0  0  0  0  0
   -3.7090   25.2750  -30.4560 N   0  0  0  0  0  0  0  0  0  0  0  0
   -5.0270   24.8490  -30.8210 C   0  0  0  0  0  0  0  0  0  0  0  0
   -5.9590   25.6950  -30.8350 O   0  0  0  0  0  0  0  0  0  0  0  0
   -5.3230   23.4510  -31.1870 C   0  0  0  0  0  0  0  0  0  0  0  0
   -6.5500   22.8800  -30.8500 C   0  0  0  0  0  0  0  0  0  0  0  0
   -6.8340   21.5670  -31.2130 C   0  0  0  0  0  0  0  0  0  0  0  0
   -5.8940   20.8010  -31.9270 C   0  0  0  0  0  0  0  0  0  0  0  0
   -6.1630   19.4700  -32.2660 C   0  0  0  0  0  0  0  0  0  0  0  0
   -7.2650   18.9460  -31.9330 O   0  0  0  0  0  0  0  0  0  0  0  0
   -5.2310   18.7310  -32.9340 N   0  0  0  0  0  0  0  0  0  0  0  0
   -5.5120   17.3510  -33.2580 C   0  0  0  0  0  0  0  0  0  0  0  0
   -6.5860   17.0260  -34.1010 C   0  0  0  0  0  0  0  0  0  0  0  0
   -6.8550   15.6910  -34.4180 C   0  0  0  0  0  0  0  0  0  0  0  0
   -6.0520   14.6710  -33.8950 C   0  0  0  0  0  0  0  0  0  0  0  0
   -6.3890   12.9970  -34.2940 Cl  0  0  0  0  0  0  0  0  0  0  0  0
   -4.9800   14.9890  -33.0530 C   0  0  0  0  0  0  0  0  0  0  0  0
   -4.7110   16.3240  -32.7350 C   0  0  0  0  0  0  0  0  0  0  0  0
   -4.0240   19.2790  -33.2810 C   0  0  0  0  0  0  0  0  0  0  0  0
   -3.1750   18.5630  -33.8890 O   0  0  0  0  0  0  0  0  0  0  0  0
   -3.7250   20.5880  -32.9790 N   0  0  0  0  0  0  0  0  0  0  0  0
   -2.3620   21.0800  -33.2940 C   0  0  0  0  0  0  0  0  0  0  0  0
   -1.4700   20.8570  -32.1130 C   0  0  0  0  0  0  0  0  0  0  0  0
   -0.4680   20.0980  -32.2140 O   0  0  0  0  0  0  0  0  0  0  0  0
   -1.8300   21.4110  -30.8440 N   0  0  0  0  0  0  0  0  0  0  0  0
   -0.8900   21.5090  -29.7350 C   0  0  0  0  0  0  0  0  0  0  0  0
   -1.2870   20.5380  -28.6550 C   0  0  0  0  0  0  0  0  0  0  0  0
   -2.5610   20.6190  -28.0700 C   0  0  0  0  0  0  0  0  0  0  0  0
   -2.9650   19.6740  -27.1230 C   0  0  0  0  0  0  0  0  0  0  0  0
   -2.1000   18.6410  -26.7530 C   0  0  0  0  0  0  0  0  0  0  0  0
   -0.8320   18.5500  -27.3320 C   0  0  0  0  0  0  0  0  0  0  0  0
   -0.4270   19.4910  -28.2840 C   0  0  0  0  0  0  0  0  0  0  0  0
   -4.6450   21.3610  -32.2920 C   0  0  0  0  0  0  0  0  0  0  0  0
   -4.3830   22.7030  -31.9080 C   0  0  0  0  0  0  0  0  0  0  0  0
   -4.3693   23.1525  -26.7898 H   0  0  0  0  0  0  0  0  0  0  0  0
   -5.2484   23.4674  -28.3242 H   0  0  0  0  0  0  0  0  0  0  0  0
   -3.7879   22.4218  -28.3242 H   0  0  0  0  0  0  0  0  0  0  0  0
   -3.9844   25.4393  -27.9671 H   0  0  0  0  0  0  0  0  0  0  0  0
   -2.5333   24.4916  -27.4243 H   0  0  0  0  0  0  0  0  0  0  0  0
   -1.8357   25.0550  -29.5391 H   0  0  0  0  0  0  0  0  0  0  0  0
   -2.7177   23.5193  -29.9034 H   0  0  0  0  0  0  0  0  0  0  0  0
   -7.2954   23.4692  -30.2957 H   0  0  0  0  0  0  0  0  0  0  0  0
   -7.8027   21.1236  -30.9392 H   0  0  0  0  0  0  0  0  0  0  0  0
   -7.2190   17.8251  -34.5142 H   0  0  0  0  0  0  0  0  0  0  0  0
   -7.6984   15.4423  -35.0789 H   0  0  0  0  0  0  0  0  0  0  0  0
   -4.3485   14.1880  -32.6410 H   0  0  0  0  0  0  0  0  0  0  0  0
   -3.8682   16.5702  -32.0723 H   0  0  0  0  0  0  0  0  0  0  0  0
   -1.9656   20.5332  -34.1623 H   0  0  0  0  0  0  0  0  0  0  0  0
   -2.4029   22.1542  -33.5271 H   0  0  0  0  0  0  0  0  0  0  0  0
    0.1229   21.2686  -30.0903 H   0  0  0  0  0  0  0  0  0  0  0  0
   -0.9032   22.5323  -29.3317 H   0  0  0  0  0  0  0  0  0  0  0  0
   -3.2448   21.4308  -28.3587 H   0  0  0  0  0  0  0  0  0  0  0  0
   -3.9644   19.7435  -26.6687 H   0  0  0  0  0  0  0  0  0  0  0  0
   -2.4176   17.8991  -26.0055 H   0  0  0  0  0  0  0  0  0  0  0  0
   -0.1513   17.7372  -27.0388 H   0  0  0  0  0  0  0  0  0  0  0  0
    0.5689   19.4110  -28.7441 H   0  0  0  0  0  0  0  0  0  0  0  0
   -3.4228   23.1644  -32.1822 H   0  0  0  0  0  0  0  0  0  0  0  0
  1  2  1  0
  2  3  1  0
  3  4  1  0
  4  5  1  0
  5  6  2  0
  5  7  1  0
  7  8  2  0
  8  9  1  0
  9 10  2  0
 10 11  1  0
 11 12  2  0
 11 13  1  0
 13 14  1  0
 14 15  2  0
 15 16  1  0
 16 17  2  0
 17 18  1  0
 17 19  1  0
 19 20  2  0
 13 21  1  0
 21 22  2  0
 21 23  1  0
 23 24  1  0
 24 25  1  0
 25 26  2  0
 25 27  1  0
 27 28  1  0
 28 29  1  0
 29 30  2  0
 30 31  1  0
 31 32  2  0
 32 33  1  0
 33 34  2  0
 23 35  1  0
 35 36  2  0
 36  7  1  0
 35 10  1  0
 20 14  1  0
 34 29  1  0
  1 37  1  0
  1 38  1  0
  1 39  1  0
  2 40  1  0
  2 41  1  0
  3 42  1  0
  3 43  1  0
  8 44  1  0
  9 45  1  0
 15 46  1  0
 16 47  1  0
 19 48  1  0
 20 49  1  0
 24 50  1  0
 24 51  1  0
 28 52  1  0
 28 53  1  0
 30 54  1  0
 31 55  1  0
 32 56  1  0
 33 57  1  0
 34 58  1  0
 36 59  1  0
M  CHG  2   4  -1  27  -1
M  END
>  <UniqueID>  (17) 
17

>  <SMILES>  (17) 
CCC[N-]C(=O)c1ccc2c(=O)n(-c3ccc(Cl)cc3)c(=O)n(CC(=O)[N-]Cc3ccccc3)c2c1

>  <Energy>  (17) 
76.75141311271777

>  <Genealogy>  (17) 
CCC[N-]C(=O)c1ccc2c(=O)n(-c3ccc(Cl)cc3)c(=O)n(CC(=O)[N-]Cc3ccccc3)c2c1 (protonated)
CCC[N-]C(=O)c1ccc2c(=O)n(-c3ccc(Cl)cc3)c(=O)n(CC(=O)[N-]Cc3ccccc3)c2c1 (3D coordinates assigned)
CCC[N-]C(=O)c1ccc2c(=O)n(-c3ccc(Cl)cc3)c(=O)n(CC(=O)[N-]Cc3ccccc3)c2c1 (optimized conformer: 76.75141311271777 kcal/mol)

>  <smiles>  (17) 
CCCNC(=O)c1ccc2c(=O)n(-c3ccc(Cl)cc3)c(=O)n(CC(=O)NCc3ccccc3)c2c1

>  <score_type>  (17) 
oracle

>  <origin>  (17) 
adg

>  <m_score__min__energy>  (17) 
-11.800000000000001

>  <m_primary>  (17) 
energy

$$$$
17:0
     RDKit          3D

 49 51  0  0  0  0  0  0  0  0999 V2000
   -5.7520   25.5360  -30.1270 C   0  0  0  0  0  0  0  0  0  0  0  0
   -5.2860   24.2130  -30.5860 N   0  0  0  0  0  0  0  0  0  0  0  0
   -5.8330   23.9010  -31.9250 C   0  0  0  0  0  0  0  0  0  0  0  0
   -6.5960   22.6030  -31.8900 C   0  0  0  0  0  0  0  0  0  0  0  0
   -6.0930   21.4760  -32.5590 C   0  0  0  0  0  0  0  0  0  0  0  0
   -6.8070   20.2730  -32.5490 C   0  0  0  0  0  0  0  0  0  0  0  0
   -8.0280   20.1890  -31.8730 C   0  0  0  0  0  0  0  0  0  0  0  0
   -9.0030   18.5460  -31.8630 Br  0  0  0  0  0  0  0  0  0  0  0  0
   -8.5360   21.3080  -31.2060 C   0  0  0  0  0  0  0  0  0  0  0  0
   -7.8240   22.5120  -31.2140 C   0  0  0  0  0  0  0  0  0  0  0  0
   -3.8090   24.0130  -30.5010 C   0  0  1  0  0  0  0  0  0  0  0  0
   -3.1950   24.4960  -29.1540 C   0  0  0  0  0  0  0  0  0  0  0  0
   -3.9500   24.0750  -27.8650 C   0  0  0  0  0  0  0  0  0  0  0  0
   -3.8560   22.5840  -27.4700 C   0  0  0  0  0  0  0  0  0  0  0  0
   -3.1820   21.6880  -28.4630 N   0  0  1  0  0  0  0  0  0  0  0  0
   -2.8390   20.3710  -27.8680 C   0  0  0  0  0  0  0  0  0  0  0  0
   -1.3720   20.0450  -27.9600 C   0  0  0  0  0  0  0  0  0  0  0  0
   -0.7770   18.8720  -27.5390 C   0  0  0  0  0  0  0  0  0  0  0  0
    0.5680   19.0270  -27.7980 C   0  0  0  0  0  0  0  0  0  0  0  0
    0.7090   20.2790  -28.3600 C   0  0  0  0  0  0  0  0  0  0  0  0
   -0.4660   20.8610  -28.4430 O   0  0  0  0  0  0  0  0  0  0  0  0
   -3.8820   21.5100  -29.7630 C   0  0  0  0  0  0  0  0  0  0  0  0
   -3.4760   22.5400  -30.8320 C   0  0  0  0  0  0  0  0  0  0  0  0
   -5.7606   25.5605  -29.0273 H   0  0  0  0  0  0  0  0  0  0  0  0
   -5.0742   26.3152  -30.5058 H   0  0  0  0  0  0  0  0  0  0  0  0
   -6.7685   25.7184  -30.5058 H   0  0  0  0  0  0  0  0  0  0  0  0
   -6.5087   24.7105  -32.2383 H   0  0  0  0  0  0  0  0  0  0  0  0
   -5.0006   23.8069  -32.6379 H   0  0  0  0  0  0  0  0  0  0  0  0
   -5.1335   21.5391  -33.0933 H   0  0  0  0  0  0  0  0  0  0  0  0
   -6.4075   19.3924  -33.0734 H   0  0  0  0  0  0  0  0  0  0  0  0
   -9.4967   21.2414  -30.6744 H   0  0  0  0  0  0  0  0  0  0  0  0
   -8.2271   23.3906  -30.6891 H   0  0  0  0  0  0  0  0  0  0  0  0
   -3.3286   24.6566  -31.2527 H   0  0  0  0  0  0  0  0  0  0  0  0
   -2.1723   24.0963  -29.0892 H   0  0  0  0  0  0  0  0  0  0  0  0
   -3.2519   25.5942  -29.1823 H   0  0  0  0  0  0  0  0  0  0  0  0
   -3.5458   24.6682  -27.0315 H   0  0  0  0  0  0  0  0  0  0  0  0
   -5.0142   24.2545  -28.0777 H   0  0  0  0  0  0  0  0  0  0  0  0
   -3.2979   22.5199  -26.5243 H   0  0  0  0  0  0  0  0  0  0  0  0
   -4.8942   22.2269  -27.4018 H   0  0  0  0  0  0  0  0  0  0  0  0
   -2.2580   22.1330  -28.6860 H   0  0  0  0  0  0  0  0  0  0  0  0
   -3.1297   20.3798  -26.8072 H   0  0  0  0  0  0  0  0  0  0  0  0
   -3.3820   19.6025  -28.4377 H   0  0  0  0  0  0  0  0  0  0  0  0
   -1.2722   17.9978  -27.0912 H   0  0  0  0  0  0  0  0  0  0  0  0
    1.3678   18.2990  -27.5970 H   0  0  0  0  0  0  0  0  0  0  0  0
    1.6605   20.7225  -28.6886 H   0  0  0  0  0  0  0  0  0  0  0  0
   -3.6532   20.5043  -30.1455 H   0  0  0  0  0  0  0  0  0  0  0  0
   -4.9557   21.6527  -29.5714 H   0  0  0  0  0  0  0  0  0  0  0  0
   -2.3886   22.4638  -30.9796 H   0  0  0  0  0  0  0  0  0  0  0  0
   -4.0649   22.2923  -31.7275 H   0  0  0  0  0  0  0  0  0  0  0  0
  1  2  1  0
  2  3  1  0
  3  4  1  0
  4  5  2  0
  5  6  1  0
  6  7  2  0
  7  8  1  0
  7  9  1  0
  9 10  2  0
  2 11  1  0
 11 12  1  0
 12 13  1  0
 13 14  1  0
 14 15  1  0
 15 16  1  0
 16 17  1  0
 17 18  2  0
 18 19  1  0
 19 20  2  0
 20 21  1  0
 15 22  1  0
 22 23  1  0
 10  4  1  0
 23 11  1  0
 21 17  1  0
  1 24  1  0
  1 25  1  0
  1 26  1  0
  3 27  1  0
  3 28  1  0
  5 29  1  0
  6 30  1  0
  9 31  1  0
 10 32  1  0
 11 33  1  6
 12 34  1  0
 12 35  1  0
 13 36  1  0
 13 37  1  0
 14 38  1  0
 14 39  1  0
 15 40  1  6
 16 41  1  0
 16 42  1  0
 18 43  1  0
 19 44  1  0
 20 45  1  0
 22 46  1  0
 22 47  1  0
 23 48  1  0
 23 49  1  0
M  CHG  1  15   1
M  END
>  <UniqueID>  (18) 
18

>  <SMILES>  (18) 
CN(Cc1ccc(Br)cc1)[C@H]1CCC[N@@H+](Cc2ccco2)CC1

>  <Energy>  (18) 
98.5715623976236

>  <Genealogy>  (18) 
CN(Cc1ccc(Br)cc1)C1CCC[NH+](Cc2ccco2)CC1 (protonated)
CN(Cc1ccc(Br)cc1)[C@H]1CCC[N@@H+](Cc2ccco2)CC1 (chirality)
CN(Cc1ccc(Br)cc1)[C@H]1CCC[N@@H+](Cc2ccco2)CC1 (3D coordinates assigned)
CN(Cc1ccc(Br)cc1)[C@H]1CCC[N@@H+](Cc2ccco2)CC1 (nonaromatic ring conformer: 98.5715623976236 kcal/mol)

>  <smiles>  (18) 
CN(Cc1ccc(Br)cc1)C1CCCN(Cc2ccco2)CC1

>  <score_type>  (18) 
oracle

>  <origin>  (18) 
adg

>  <m_score__min__energy>  (18) 
-5.7000000000000002

>  <m_primary>  (18) 
energy

$$$$
18:0
     RDKit          3D

 46 47  0  0  0  0  0  0  0  0999 V2000
   -0.4600   26.9340  -27.1660 C   0  0  0  0  0  0  0  0  0  0  0  0
   -0.0830   25.8690  -28.0340 O   0  0  0  0  0  0  0  0  0  0  0  0
   -0.4040   24.5180  -27.8220 C   0  0  0  0  0  0  0  0  0  0  0  0
    0.3600   23.6980  -26.9680 C   0  0  0  0  0  0  0  0  0  0  0  0
    0.0160   22.3580  -26.7790 C   0  0  0  0  0  0  0  0  0  0  0  0
   -1.0800   21.8080  -27.4550 C   0  0  0  0  0  0  0  0  0  0  0  0
   -1.4610   20.3730  -27.2340 C   0  0  0  0  0  0  0  0  0  0  0  0
   -1.8540   22.6220  -28.2920 C   0  0  0  0  0  0  0  0  0  0  0  0
   -1.5290   23.9790  -28.4750 C   0  0  0  0  0  0  0  0  0  0  0  0
   -2.3030   24.8050  -29.3620 N   0  0  0  0  0  0  0  0  0  0  0  0
   -3.6730   24.5490  -29.7000 C   0  0  0  0  0  0  0  0  0  0  0  0
   -4.3510   23.7200  -29.0350 O   0  0  0  0  0  0  0  0  0  0  0  0
   -4.2760   25.2750  -30.7760 N   0  0  0  0  0  0  0  0  0  0  0  0
   -5.6880   25.6470  -30.8190 C   0  0  0  0  0  0  0  0  0  0  0  0
   -6.5850   24.4670  -30.4300 C   0  0  0  0  0  0  0  0  0  0  0  0
   -7.1440   23.7220  -31.6520 C   0  0  0  0  0  0  0  0  0  0  0  0
   -6.1090   22.7770  -32.2740 C   0  0  0  0  0  0  0  0  0  0  0  0
   -6.6570   21.4330  -32.4410 N   0  0  0  0  0  0  0  0  0  0  0  0
   -7.8140   20.9800  -31.9230 C   0  0  0  0  0  0  0  0  0  0  0  0
   -7.9810   19.6790  -32.3410 C   0  0  0  0  0  0  0  0  0  0  0  0
   -9.0750   18.7410  -31.9540 C   0  0  0  0  0  0  0  0  0  0  0  0
   -6.8660   19.3910  -33.1030 C   0  0  0  0  0  0  0  0  0  0  0  0
   -6.0750   20.4820  -33.1570 N   0  0  0  0  0  0  0  0  0  0  0  0
   -0.3462   26.6125  -26.1202 H   0  0  0  0  0  0  0  0  0  0  0  0
    0.1842   27.8056  -27.3538 H   0  0  0  0  0  0  0  0  0  0  0  0
   -1.5091   27.2062  -27.3538 H   0  0  0  0  0  0  0  0  0  0  0  0
    1.2335   24.1164  -26.4466 H   0  0  0  0  0  0  0  0  0  0  0  0
    0.6086   21.7316  -26.0960 H   0  0  0  0  0  0  0  0  0  0  0  0
   -1.5149   20.1701  -26.1542 H   0  0  0  0  0  0  0  0  0  0  0  0
   -2.4417   20.1792  -27.6929 H   0  0  0  0  0  0  0  0  0  0  0  0
   -0.7056   19.7182  -27.6929 H   0  0  0  0  0  0  0  0  0  0  0  0
   -2.7249   22.1961  -28.8117 H   0  0  0  0  0  0  0  0  0  0  0  0
   -1.8660   25.6730  -29.7480 H   0  0  0  0  0  0  0  0  0  0  0  0
   -5.8619   26.4762  -30.1175 H   0  0  0  0  0  0  0  0  0  0  0  0
   -5.9370   25.9493  -31.8469 H   0  0  0  0  0  0  0  0  0  0  0  0
   -5.9962   23.7610  -29.8259 H   0  0  0  0  0  0  0  0  0  0  0  0
   -7.4391   24.8695  -29.8657 H   0  0  0  0  0  0  0  0  0  0  0  0
   -8.0189   23.1334  -31.3390 H   0  0  0  0  0  0  0  0  0  0  0  0
   -7.4175   24.4711  -32.4097 H   0  0  0  0  0  0  0  0  0  0  0  0
   -5.8109   23.1682  -33.2579 H   0  0  0  0  0  0  0  0  0  0  0  0
   -5.2404   22.7190  -31.6016 H   0  0  0  0  0  0  0  0  0  0  0  0
   -8.5029   21.5479  -31.2805 H   0  0  0  0  0  0  0  0  0  0  0  0
   -9.1396   18.6856  -30.8573 H   0  0  0  0  0  0  0  0  0  0  0  0
  -10.0305   19.1048  -32.3597 H   0  0  0  0  0  0  0  0  0  0  0  0
   -8.8613   17.7411  -32.3597 H   0  0  0  0  0  0  0  0  0  0  0  0
   -6.6565   18.4263  -33.5882 H   0  0  0  0  0  0  0  0  0  0  0  0
  1  2  1  0
  2  3  1  0
  3  4  2  0
  4  5  1  0
  5  6  2  0
  6  7  1  0
  6  8  1  0
  8  9  2  0
  9 10  1  0
 10 11  1  0
 11 12  2  0
 11 13  1  0
 13 14  1  0
 14 15  1  0
 15 16  1  0
 16 17  1  0
 17 18  1  0
 18 19  1  0
 19 20  2  0
 20 21  1  0
 20 22  1  0
 22 23  2  0
  9  3  1  0
 23 18  1  0
  1 24  1  0
  1 25  1  0
  1 26  1  0
  4 27  1  0
  5 28  1  0
  7 29  1  0
  7 30  1  0
  7 31  1  0
  8 32  1  0
 10 33  1  0
 14 34  1  0
 14 35  1  0
 15 36  1  0
 15 37  1  0
 16 38  1  0
 16 39  1  0
 17 40  1  0
 17 41  1  0
 19 42  1  0
 21 43  1  0
 21 44  1  0
 21 45  1  0
 22 46  1  0
M  CHG  1  13  -1
M  END
>  <UniqueID>  (19) 
19

>  <SMILES>  (19) 
COc1ccc(C)cc1NC(=O)[N-]CCCCn1cc(C)cn1

>  <Energy>  (19) 
68.73912460172184

>  <Genealogy>  (19) 
COc1ccc(C)cc1NC(=O)[N-]CCCCn1cc(C)cn1 (protonated)
COc1ccc(C)cc1NC(=O)[N-]CCCCn1cc(C)cn1 (3D coordinates assigned)
COc1ccc(C)cc1NC(=O)[N-]CCCCn1cc(C)cn1 (optimized conformer: 68.73912460172184 kcal/mol)

>  <smiles>  (19) 
COc1ccc(C)cc1NC(=O)NCCCCn1cc(C)cn1

>  <score_type>  (19) 
oracle

>  <origin>  (19) 
adg

>  <m_score__min__energy>  (19) 
-9.5999999999999996

>  <m_primary>  (19) 
energy

$$$$
19:0
     RDKit          3D

 48 50  0  0  0  0  0  0  0  0999 V2000
   -4.9800   25.4430  -30.8230 C   0  0  0  0  0  0  0  0  0  0  0  0
   -5.3460   24.0630  -31.2010 N   0  0  0  0  0  0  0  0  0  0  0  0
   -6.7100   23.7300  -30.7290 C   0  0  0  0  0  0  0  0  0  0  0  0
   -7.7070   23.6410  -31.8920 C   0  0  0  0  0  0  0  0  0  0  0  0
   -7.0460   23.3310  -33.0890 O   0  0  0  0  0  0  0  0  0  0  0  0
   -4.3500   23.1000  -30.6750 C   0  0  0  0  0  0  0  0  0  0  0  0
   -4.0230   22.0250  -31.7230 C   0  0  0  0  0  0  0  0  0  0  0  0
   -5.1360   21.8440  -32.6700 N   0  0  0  0  0  0  0  0  0  0  0  0
   -5.3380   20.4320  -32.9540 C   0  0  0  0  0  0  0  0  0  0  0  0
   -6.5850   19.8120  -32.6770 C   0  0  0  0  0  0  0  0  0  0  0  0
   -7.7070   20.5610  -32.2390 C   0  0  0  0  0  0  0  0  0  0  0  0
   -8.8930   19.9320  -31.8720 C   0  0  0  0  0  0  0  0  0  0  0  0
   -8.9930   18.5500  -31.9290 C   0  0  0  0  0  0  0  0  0  0  0  0
   -7.9270   17.7920  -32.4040 C   0  0  0  0  0  0  0  0  0  0  0  0
   -6.7230   18.4050  -32.8420 C   0  0  0  0  0  0  0  0  0  0  0  0
   -5.7040   17.6640  -33.4050 N   0  0  0  0  0  0  0  0  0  0  0  0
   -5.9630   16.2740  -33.8500 C   0  0  0  0  0  0  0  0  0  0  0  0
   -4.4610   18.2310  -33.6080 C   0  0  0  0  0  0  0  0  0  0  0  0
   -3.3370   17.4360  -33.9580 C   0  0  0  0  0  0  0  0  0  0  0  0
   -2.1100   18.0170  -34.2630 C   0  0  0  0  0  0  0  0  0  0  0  0
   -1.9640   19.3950  -34.2240 C   0  0  0  0  0  0  0  0  0  0  0  0
   -3.0290   20.1990  -33.8290 C   0  0  0  0  0  0  0  0  0  0  0  0
   -4.2770   19.6340  -33.4610 C   0  0  0  0  0  0  0  0  0  0  0  0
   -4.9572   25.5290  -29.7266 H   0  0  0  0  0  0  0  0  0  0  0  0
   -3.9870   25.6837  -31.2304 H   0  0  0  0  0  0  0  0  0  0  0  0
   -5.7232   26.1441  -31.2304 H   0  0  0  0  0  0  0  0  0  0  0  0
   -6.6808   22.7608  -30.2095 H   0  0  0  0  0  0  0  0  0  0  0  0
   -7.0435   24.5302  -30.0519 H   0  0  0  0  0  0  0  0  0  0  0  0
   -8.4466   22.8564  -31.6743 H   0  0  0  0  0  0  0  0  0  0  0  0
   -8.2057   24.6148  -32.0055 H   0  0  0  0  0  0  0  0  0  0  0  0
   -6.2760   23.9540  -33.1610 H   0  0  0  0  0  0  0  0  0  0  0  0
   -3.4285   23.6410  -30.4138 H   0  0  0  0  0  0  0  0  0  0  0  0
   -4.7710   22.6084  -29.7856 H   0  0  0  0  0  0  0  0  0  0  0  0
   -3.1246   22.3294  -32.2800 H   0  0  0  0  0  0  0  0  0  0  0  0
   -3.8533   21.0718  -31.2009 H   0  0  0  0  0  0  0  0  0  0  0  0
   -6.0040   22.2870  -32.2980 H   0  0  0  0  0  0  0  0  0  0  0  0
   -4.9690   22.3780  -33.5510 H   0  0  0  0  0  0  0  0  0  0  0  0
   -7.6386   21.6577  -32.1885 H   0  0  0  0  0  0  0  0  0  0  0  0
   -9.7519   20.5317  -31.5364 H   0  0  0  0  0  0  0  0  0  0  0  0
   -9.9164   18.0522  -31.5982 H   0  0  0  0  0  0  0  0  0  0  0  0
   -8.0187   16.6964  -32.4410 H   0  0  0  0  0  0  0  0  0  0  0  0
   -6.0841   15.6241  -32.9708 H   0  0  0  0  0  0  0  0  0  0  0  0
   -6.8815   16.2477  -34.4547 H   0  0  0  0  0  0  0  0  0  0  0  0
   -5.1156   15.9187  -34.4547 H   0  0  0  0  0  0  0  0  0  0  0  0
   -3.4385   16.3411  -33.9885 H   0  0  0  0  0  0  0  0  0  0  0  0
   -1.2543   17.3817  -34.5355 H   0  0  0  0  0  0  0  0  0  0  0  0
   -1.0047   19.8537  -34.5057 H   0  0  0  0  0  0  0  0  0  0  0  0
   -2.9009   21.2912  -33.8017 H   0  0  0  0  0  0  0  0  0  0  0  0
  1  2  1  0
  2  3  1  0
  3  4  1  0
  4  5  1  0
  2  6  1  0
  6  7  1  0
  7  8  1  0
  8  9  1  0
  9 10  2  0
 10 11  1  0
 11 12  2  0
 12 13  1  0
 13 14  2  0
 14 15  1  0
 15 16  2  0
 16 17  1  0
 16 18  1  0
 18 19  2  0
 19 20  1  0
 20 21  2  0
 21 22  1  0
 22 23  2  0
 23  9  1  0
 15 10  1  0
 23 18  1  0
  1 24  1  0
  1 25  1  0
  1 26  1  0
  3 27  1  0
  3 28  1  0
  4 29  1  0
  4 30  1  0
  5 31  1  0
  6 32  1  0
  6 33  1  0
  7 34  1  0
  7 35  1  0
  8 36  1  0
  8 37  1  0
 11 38  1  0
 12 39  1  0
 13 40  1  0
 14 41  1  0
 17 42  1  0
 17 43  1  0
 17 44  1  0
 19 45  1  0
 20 46  1  0
 21 47  1  0
 22 48  1  0
M  CHG  2   8   1  16   1
M  END
>  <UniqueID>  (20) 
20

>  <SMILES>  (20) 
CN(CCO)CC[NH2+]c1c2ccccc2[n+](C)c2ccccc12

>  <Energy>  (20) 
77.14217683086797

>  <Genealogy>  (20) 
CN(CCO)CC[NH2+]c1c2ccccc2[n+](C)c2ccccc12 (protonated)
CN(CCO)CC[NH2+]c1c2ccccc2[n+](C)c2ccccc12 (3D coordinates assigned)
CN(CCO)CC[NH2+]c1c2ccccc2[n+](C)c2ccccc12 (optimized conformer: 77.14217683086797 kcal/mol)

>  <smiles>  (20) 
CN(CCO)CCNc1c2ccccc2[n+](C)c2ccccc12

>  <score_type>  (20) 
oracle

>  <origin>  (20) 
adg

>  <m_score__min__energy>  (20) 
-8.6400000000000006

>  <m_primary>  (20) 
energy

$$$$
20:0
     RDKit          3D

 38 40  0  0  1  0  0  0  0  0999 V2000
   -3.1240   24.1460  -29.7300 C   0  0  0  0  0  0  0  0  0  0  0  0
   -3.8680   25.0270  -30.4720 O   0  0  0  0  0  0  0  0  0  0  0  0
   -5.1610   25.2550  -30.0460 C   0  0  0  0  0  0  0  0  0  0  0  0
   -6.1130   25.0080  -31.1720 C   0  0  0  0  0  0  0  0  0  0  0  0
   -6.7280   23.7240  -31.0330 N   0  0  0  0  0  0  0  0  0  0  0  0
   -6.3430   22.6290  -31.5850 C   0  0  0  0  0  0  0  0  0  0  0  0
   -5.0310   22.4810  -31.8410 N   0  0  0  0  0  0  0  0  0  0  0  0
   -4.5950   21.3480  -32.4160 C   0  0  0  0  0  0  0  0  0  0  0  0
   -3.1940   21.0950  -32.7340 C   0  0  0  0  0  0  0  0  0  0  0  0
   -2.1710   21.5540  -31.8940 C   0  0  0  0  0  0  0  0  0  0  0  0
   -0.8460   21.3370  -32.1560 C   0  0  0  0  0  0  0  0  0  0  0  0
   -0.4580   20.6390  -33.2920 C   0  0  0  0  0  0  0  0  0  0  0  0
   -1.4420   20.1740  -34.1390 C   0  0  0  0  0  0  0  0  0  0  0  0
   -2.7880   20.4070  -33.8490 C   0  0  0  0  0  0  0  0  0  0  0  0
   -5.4990   20.3980  -32.7150 N   0  0  0  0  0  0  0  0  0  0  0  0
   -6.8180   20.5080  -32.4750 C   0  0  0  0  0  0  0  0  0  0  0  0
   -7.6560   19.4750  -32.8220 C   0  0  0  0  0  0  0  0  0  0  0  0
   -9.0040   19.6460  -32.5500 C   0  0  0  0  0  0  0  0  0  0  0  0
   -9.4920   20.8040  -31.9550 C   0  0  0  0  0  0  0  0  0  0  0  0
   -8.6230   21.8290  -31.6170 C   0  0  0  0  0  0  0  0  0  0  0  0
   -7.2740   21.6740  -31.8820 C   0  0  0  0  0  0  0  0  0  0  0  0
   -3.2871   24.3392  -28.6595 H   0  0  0  0  0  0  0  0  0  0  0  0
   -3.4302   23.1166  -29.9677 H   0  0  0  0  0  0  0  0  0  0  0  0
   -2.0578   24.2755  -29.9677 H   0  0  0  0  0  0  0  0  0  0  0  0
   -5.3964   24.5768  -29.2126 H   0  0  0  0  0  0  0  0  0  0  0  0
   -5.2557   26.2984  -29.7109 H   0  0  0  0  0  0  0  0  0  0  0  0
   -6.8914   25.7852  -31.1655 H   0  0  0  0  0  0  0  0  0  0  0  0
   -5.5578   25.0366  -32.1212 H   0  0  0  0  0  0  0  0  0  0  0  0
   -4.3690   23.2250  -31.6000 H   0  0  0  0  0  0  0  0  0  0  0  0
   -2.4445   22.1119  -30.9863 H   0  0  0  0  0  0  0  0  0  0  0  0
   -0.0825   21.7181  -31.4619 H   0  0  0  0  0  0  0  0  0  0  0  0
    0.6054   20.4618  -33.5104 H   0  0  0  0  0  0  0  0  0  0  0  0
   -1.1655   19.6174  -35.0466 H   0  0  0  0  0  0  0  0  0  0  0  0
   -3.5521   20.0240  -34.5414 H   0  0  0  0  0  0  0  0  0  0  0  0
   -7.2749   18.5569  -33.2929 H   0  0  0  0  0  0  0  0  0  0  0  0
   -9.7081   18.8426  -32.8123 H   0  0  0  0  0  0  0  0  0  0  0  0
  -10.5683   20.9065  -31.7525 H   0  0  0  0  0  0  0  0  0  0  0  0
   -8.9990   22.7494  -31.1464 H   0  0  0  0  0  0  0  0  0  0  0  0
  1  2  1  0
  2  3  1  0
  3  4  1  0
  4  5  1  0
  5  6  2  0
  6  7  1  0
  7  8  1  0
  8  9  1  0
  9 10  2  0
 10 11  1  0
 11 12  2  0
 12 13  1  0
 13 14  2  0
  8 15  2  0
 15 16  1  0
 16 17  2  0
 17 18  1  0
 18 19  2  0
 19 20  1  0
 20 21  2  0
 21  6  1  0
 14  9  1  0
 21 16  1  0
  1 22  1  0
  1 23  1  0
  1 24  1  0
  3 25  1  0
  3 26  1  0
  4 27  1  0
  4 28  1  0
  7 29  1  0
 10 30  1  0
 11 31  1  0
 12 32  1  0
 13 33  1  0
 14 34  1  0
 17 35  1  0
 18 36  1  0
 19 37  1  0
 20 38  1  0
M  END
>  <smiles>  (21) 
COCCN=c1[nH]c(-c2ccccc2)nc2ccccc12

>  <score_type>  (21) 
oracle

>  <origin>  (21) 
adg

>  <m_score__min__energy>  (21) 
-7.7800000000000002

>  <m_primary>  (21) 
energy

$$$$
21:0
     RDKit          3D

 32 33  0  0  0  0  0  0  0  0999 V2000
   -8.3310   18.5720  -32.1560 C   0  0  0  0  0  0  0  0  0  0  0  0
   -7.4390   19.7570  -32.3300 C   0  0  0  0  0  0  0  0  0  0  0  0
   -7.4270   20.8040  -31.5400 O   0  0  0  0  0  0  0  0  0  0  0  0
   -6.5060   21.6300  -31.9950 C   0  0  0  0  0  0  0  0  0  0  0  0
   -6.1940   22.9300  -31.3580 C   0  0  0  0  0  0  0  0  0  0  0  0
   -7.1720   23.6830  -30.6860 C   0  0  0  0  0  0  0  0  0  0  0  0
   -6.8370   24.9040  -30.0980 C   0  0  0  0  0  0  0  0  0  0  0  0
   -5.5250   25.3680  -30.1850 C   0  0  0  0  0  0  0  0  0  0  0  0
   -4.5860   24.6330  -30.8370 N   0  0  0  0  0  0  0  0  0  0  0  0
   -4.8860   23.4410  -31.4180 C   0  0  0  0  0  0  0  0  0  0  0  0
   -5.8950   21.1360  -33.0960 N   0  0  0  0  0  0  0  0  0  0  0  0
   -6.4900   19.9490  -33.3120 C   0  0  0  0  0  0  0  0  0  0  0  0
   -6.1130   18.9950  -34.4070 C   0  0  0  0  0  0  0  0  0  0  0  0
   -5.5820   17.7400  -33.8380 N   0  0  0  0  0  0  0  0  0  0  0  0
   -4.2260   17.4670  -34.3460 C   0  0  0  0  0  0  0  0  0  0  0  0
   -6.4700   16.6170  -34.1810 C   0  0  0  0  0  0  0  0  0  0  0  0
   -8.4773   18.3776  -31.0832 H   0  0  0  0  0  0  0  0  0  0  0  0
   -9.3039   18.7729  -32.6283 H   0  0  0  0  0  0  0  0  0  0  0  0
   -7.8688   17.6926  -32.6283 H   0  0  0  0  0  0  0  0  0  0  0  0
   -8.2046   23.3091  -30.6232 H   0  0  0  0  0  0  0  0  0  0  0  0
   -7.6009   25.4945  -29.5710 H   0  0  0  0  0  0  0  0  0  0  0  0
   -5.2500   26.3290  -29.7259 H   0  0  0  0  0  0  0  0  0  0  0  0
   -4.1005   22.8732  -31.9381 H   0  0  0  0  0  0  0  0  0  0  0  0
   -5.1240   21.5560  -33.6600 H   0  0  0  0  0  0  0  0  0  0  0  0
   -7.0027   18.7698  -35.0134 H   0  0  0  0  0  0  0  0  0  0  0  0
   -5.3362   19.4594  -35.0322 H   0  0  0  0  0  0  0  0  0  0  0  0
   -3.5381   17.3285  -33.4989 H   0  0  0  0  0  0  0  0  0  0  0  0
   -4.2411   16.5539  -34.9592 H   0  0  0  0  0  0  0  0  0  0  0  0
   -3.8866   18.3148  -34.9592 H   0  0  0  0  0  0  0  0  0  0  0  0
   -6.8410   16.1478  -33.2579 H   0  0  0  0  0  0  0  0  0  0  0  0
   -7.3207   16.9891  -34.7707 H   0  0  0  0  0  0  0  0  0  0  0  0
   -5.9117   15.8750  -34.7707 H   0  0  0  0  0  0  0  0  0  0  0  0
  1  2  1  0
  2  3  1  0
  3  4  1  0
  4  5  1  0
  5  6  2  0
  6  7  1  0
  7  8  2  0
  8  9  1  0
  9 10  2  0
  4 11  2  0
 11 12  1  0
 12 13  1  0
 13 14  1  0
 14 15  1  0
 14 16  1  0
 12  2  2  0
 10  5  1  0
  1 17  1  0
  1 18  1  0
  1 19  1  0
  6 20  1  0
  7 21  1  0
  8 22  1  0
 10 23  1  0
 11 24  1  0
 13 25  1  0
 13 26  1  0
 15 27  1  0
 15 28  1  0
 15 29  1  0
 16 30  1  0
 16 31  1  0
 16 32  1  0
M  CHG  1  11   1
M  END
>  <UniqueID>  (22) 
21

>  <SMILES>  (22) 
Cc1oc(-c2cccnc2)[nH+]c1CN(C)C

>  <Energy>  (22) 
62.205884640428565

>  <Genealogy>  (22) 
Cc1oc(-c2cccnc2)[nH+]c1CN(C)C (protonated)
Cc1oc(-c2cccnc2)[nH+]c1CN(C)C (3D coordinates assigned)
Cc1oc(-c2cccnc2)[nH+]c1CN(C)C (optimized conformer: 62.205884640428565 kcal/mol)

>  <smiles>  (22) 
Cc1oc(-c2cccnc2)nc1CN(C)C

>  <score_type>  (22) 
oracle

>  <origin>  (22) 
adg

>  <m_score__min__energy>  (22) 
-5.9400000000000004

>  <m_primary>  (22) 
energy

$$$$
22:0
     RDKit          3D

 33 34  0  0  0  0  0  0  0  0999 V2000
   -8.6080   18.5160  -31.7270 C   0  0  0  0  0  0  0  0  0  0  0  0
   -7.2510   17.8610  -31.9860 C   0  0  0  0  0  0  0  0  0  0  0  0
   -6.9840   17.5860  -33.4800 C   0  0  0  0  0  0  0  0  0  0  0  0
   -6.4880   18.7540  -34.2310 N   0  0  0  0  0  0  0  0  0  0  0  0
   -5.0270   18.9080  -34.1390 C   0  0  0  0  0  0  0  0  0  0  0  0
   -4.6770   20.0470  -33.2290 C   0  0  0  0  0  0  0  0  0  0  0  0
   -3.4130   20.4110  -32.8320 C   0  0  0  0  0  0  0  0  0  0  0  0
   -3.5300   21.4910  -32.1020 O   0  0  0  0  0  0  0  0  0  0  0  0
   -4.8090   21.7980  -32.0480 C   0  0  0  0  0  0  0  0  0  0  0  0
   -5.3290   22.9820  -31.3170 C   0  0  0  0  0  0  0  0  0  0  0  0
   -4.3960   23.9090  -30.8140 C   0  0  0  0  0  0  0  0  0  0  0  0
   -4.8180   25.0490  -30.1260 C   0  0  0  0  0  0  0  0  0  0  0  0
   -6.1770   25.2810  -29.9250 C   0  0  0  0  0  0  0  0  0  0  0  0
   -7.1180   24.3710  -30.4080 C   0  0  0  0  0  0  0  0  0  0  0  0
   -6.7120   23.2220  -31.1000 C   0  0  0  0  0  0  0  0  0  0  0  0
   -8.1090   22.0320  -31.6670 Br  0  0  0  0  0  0  0  0  0  0  0  0
   -5.5720   20.9300  -32.7490 N   0  0  0  0  0  0  0  0  0  0  0  0
   -8.7752   18.5967  -30.6428 H   0  0  0  0  0  0  0  0  0  0  0  0
   -8.6221   19.5201  -32.1759 H   0  0  0  0  0  0  0  0  0  0  0  0
   -9.4030   17.9024  -32.1759 H   0  0  0  0  0  0  0  0  0  0  0  0
   -6.4628   18.5282  -31.6071 H   0  0  0  0  0  0  0  0  0  0  0  0
   -7.2534   16.8894  -31.4702 H   0  0  0  0  0  0  0  0  0  0  0  0
   -6.2344   16.7844  -33.5545 H   0  0  0  0  0  0  0  0  0  0  0  0
   -7.9500   17.3096  -33.9278 H   0  0  0  0  0  0  0  0  0  0  0  0
   -6.7800   18.6950  -35.2340 H   0  0  0  0  0  0  0  0  0  0  0  0
   -6.9410   19.6040  -33.8200 H   0  0  0  0  0  0  0  0  0  0  0  0
   -4.5891   17.9800  -33.7428 H   0  0  0  0  0  0  0  0  0  0  0  0
   -4.6267   19.1171  -35.1420 H   0  0  0  0  0  0  0  0  0  0  0  0
   -2.4763   19.8911  -33.0815 H   0  0  0  0  0  0  0  0  0  0  0  0
   -3.3207   23.7331  -30.9649 H   0  0  0  0  0  0  0  0  0  0  0  0
   -4.0761   25.7648  -29.7422 H   0  0  0  0  0  0  0  0  0  0  0  0
   -6.5079   26.1809  -29.3859 H   0  0  0  0  0  0  0  0  0  0  0  0
   -8.1896   24.5574  -30.2439 H   0  0  0  0  0  0  0  0  0  0  0  0
  1  2  1  0
  2  3  1  0
  3  4  1  0
  4  5  1  0
  5  6  1  0
  6  7  2  0
  7  8  1  0
  8  9  1  0
  9 10  1  0
 10 11  2  0
 11 12  1  0
 12 13  2  0
 13 14  1  0
 14 15  2  0
 15 16  1  0
  9 17  2  0
 17  6  1  0
 15 10  1  0
  1 18  1  0
  1 19  1  0
  1 20  1  0
  2 21  1  0
  2 22  1  0
  3 23  1  0
  3 24  1  0
  4 25  1  0
  4 26  1  0
  5 27  1  0
  5 28  1  0
  7 29  1  0
 11 30  1  0
 12 31  1  0
 13 32  1  0
 14 33  1  0
M  CHG  1   4   1
M  END
>  <UniqueID>  (23) 
22

>  <SMILES>  (23) 
CCC[NH2+]Cc1coc(-c2ccccc2Br)n1

>  <Energy>  (23) 
62.76157680603728

>  <Genealogy>  (23) 
CCC[NH2+]Cc1coc(-c2ccccc2Br)n1 (protonated)
CCC[NH2+]Cc1coc(-c2ccccc2Br)n1 (3D coordinates assigned)
CCC[NH2+]Cc1coc(-c2ccccc2Br)n1 (optimized conformer: 62.76157680603728 kcal/mol)

>  <smiles>  (23) 
CCCNCc1coc(-c2ccccc2Br)n1

>  <score_type>  (23) 
oracle

>  <origin>  (23) 
adg

>  <m_score__min__energy>  (23) 
-5.8600000000000003

>  <m_primary>  (23) 
energy

$$$$
23:0
     RDKit          3D

 44 46  0  0  0  0  0  0  0  0999 V2000
   -1.8480   21.5410  -32.1380 C   0  0  0  0  0  0  0  0  0  0  0  0
   -2.0010   21.5430  -30.6210 C   0  0  0  0  0  0  0  0  0  0  0  0
   -3.4540   21.2730  -30.2120 C   0  0  0  0  0  0  0  0  0  0  0  0
   -4.3610   22.4170  -30.6060 C   0  0  0  0  0  0  0  0  0  0  0  0
   -4.3930   23.6350  -29.9200 C   0  0  0  0  0  0  0  0  0  0  0  0
   -3.5820   23.9910  -28.7880 C   0  0  0  0  0  0  0  0  0  0  0  0
   -2.8930   24.2750  -27.8410 C   0  0  0  0  0  0  0  0  0  0  0  0
   -2.0780   24.6020  -26.7020 C   0  0  0  0  0  0  0  0  0  0  0  0
   -2.3470   25.7560  -25.9520 C   0  0  0  0  0  0  0  0  0  0  0  0
   -1.5520   26.0710  -24.8450 C   0  0  0  0  0  0  0  0  0  0  0  0
   -0.4900   25.2360  -24.4840 C   0  0  0  0  0  0  0  0  0  0  0  0
   -0.2210   24.0830  -25.2310 C   0  0  0  0  0  0  0  0  0  0  0  0
   -1.0140   23.7660  -26.3380 C   0  0  0  0  0  0  0  0  0  0  0  0
   -5.5700   24.6320  -30.5860 S   0  0  0  0  0  0  0  0  0  0  0  0
   -6.0620   23.5330  -31.7560 C   0  0  0  0  0  0  0  0  0  0  0  0
   -7.0850   23.7910  -32.7190 N   0  0  0  0  0  0  0  0  0  0  0  0
   -5.3080   22.3650  -31.6560 C   0  0  0  0  0  0  0  0  0  0  0  0
   -5.5250   21.1930  -32.5240 C   0  0  0  0  0  0  0  0  0  0  0  0
   -4.6970   20.9590  -33.4460 O   0  0  0  0  0  0  0  0  0  0  0  0
   -6.6850   20.2910  -32.3340 C   0  0  0  0  0  0  0  0  0  0  0  0
   -7.9890   20.8150  -32.2870 C   0  0  0  0  0  0  0  0  0  0  0  0
   -9.0850   19.9670  -32.1040 C   0  0  0  0  0  0  0  0  0  0  0  0
   -8.8940   18.5910  -31.9750 C   0  0  0  0  0  0  0  0  0  0  0  0
   -7.6040   18.0570  -32.0350 C   0  0  0  0  0  0  0  0  0  0  0  0
   -6.5040   18.9000  -32.2180 C   0  0  0  0  0  0  0  0  0  0  0  0
   -0.7794   21.5270  -32.3987 H   0  0  0  0  0  0  0  0  0  0  0  0
   -2.3388   20.6492  -32.5549 H   0  0  0  0  0  0  0  0  0  0  0  0
   -2.3154   22.4453  -32.5549 H   0  0  0  0  0  0  0  0  0  0  0  0
   -1.3563   20.7607  -30.1939 H   0  0  0  0  0  0  0  0  0  0  0  0
   -1.7098   22.5337  -30.2419 H   0  0  0  0  0  0  0  0  0  0  0  0
   -3.8005   20.3545  -30.7084 H   0  0  0  0  0  0  0  0  0  0  0  0
   -3.4906   21.1638  -29.1180 H   0  0  0  0  0  0  0  0  0  0  0  0
   -3.1828   26.4132  -26.2341 H   0  0  0  0  0  0  0  0  0  0  0  0
   -1.7626   26.9769  -24.2576 H   0  0  0  0  0  0  0  0  0  0  0  0
    0.1340   25.4851  -23.6131 H   0  0  0  0  0  0  0  0  0  0  0  0
    0.6145   23.4263  -24.9470 H   0  0  0  0  0  0  0  0  0  0  0  0
   -0.8024   22.8593  -26.9238 H   0  0  0  0  0  0  0  0  0  0  0  0
   -8.0640   23.9980  -32.4240 H   0  0  0  0  0  0  0  0  0  0  0  0
   -6.8620   23.7590  -33.7380 H   0  0  0  0  0  0  0  0  0  0  0  0
   -8.1475   21.8982  -32.3948 H   0  0  0  0  0  0  0  0  0  0  0  0
  -10.1013   20.3858  -32.0616 H   0  0  0  0  0  0  0  0  0  0  0  0
   -9.7582   17.9269  -31.8262 H   0  0  0  0  0  0  0  0  0  0  0  0
   -7.4539   16.9716  -31.9381 H   0  0  0  0  0  0  0  0  0  0  0  0
   -5.4913   18.4739  -32.2716 H   0  0  0  0  0  0  0  0  0  0  0  0
  1  2  1  0
  2  3  1  0
  3  4  1  0
  4  5  2  0
  5  6  1  0
  6  7  3  0
  7  8  1  0
  8  9  2  0
  9 10  1  0
 10 11  2  0
 11 12  1  0
 12 13  2  0
  5 14  1  0
 14 15  1  0
 15 16  1  0
 15 17  2  0
 17 18  1  0
 18 19  2  0
 18 20  1  0
 20 21  2  0
 21 22  1  0
 22 23  2  0
 23 24  1  0
 24 25  2  0
 17  4  1  0
 25 20  1  0
 13  8  1  0
  1 26  1  0
  1 27  1  0
  1 28  1  0
  2 29  1  0
  2 30  1  0
  3 31  1  0
  3 32  1  0
  9 33  1  0
 10 34  1  0
 11 35  1  0
 12 36  1  0
 13 37  1  0
 16 38  1  0
 16 39  1  0
 21 40  1  0
 22 41  1  0
 23 42  1  0
 24 43  1  0
 25 44  1  0
M  END
>  <UniqueID>  (24) 
23

>  <SMILES>  (24) 
CCCc1c(C#Cc2ccccc2)sc(N)c1C(=O)c1ccccc1

>  <Energy>  (24) 
69.9697279182322

>  <Genealogy>  (24) 
CCCc1c(C#Cc2ccccc2)sc(N)c1C(=O)c1ccccc1 (3D coordinates assigned)
CCCc1c(C#Cc2ccccc2)sc(N)c1C(=O)c1ccccc1 (optimized conformer: 69.9697279182322 kcal/mol)

>  <smiles>  (24) 
CCCc1c(C#Cc2ccccc2)sc(N)c1C(=O)c1ccccc1

>  <score_type>  (24) 
oracle

>  <origin>  (24) 
adg

>  <m_score__min__energy>  (24) 
-8.7100000000000009

>  <m_primary>  (24) 
energy

$$$$
24:0
     RDKit          3D

 67 68  0  0  0  0  0  0  0  0999 V2000
   -0.8850   24.2260  -29.2530 C   0  0  0  0  0  0  0  0  0  0  0  0
   -1.3540   25.2330  -28.1900 C   0  0  0  0  0  0  0  0  0  0  0  0
   -1.7700   24.6300  -26.9010 N   0  0  0  0  0  0  0  0  0  0  0  0
   -2.7840   25.4060  -26.1470 C   0  0  0  0  0  0  0  0  0  0  0  0
   -4.2240   24.9210  -26.3350 C   0  0  0  0  0  0  0  0  0  0  0  0
   -0.6770   24.0490  -26.0900 C   0  0  0  0  0  0  0  0  0  0  0  0
   -0.6870   22.5180  -26.1360 C   0  0  0  0  0  0  0  0  0  0  0  0
   -1.6860   22.0390  -27.0890 N   0  0  0  0  0  0  0  0  0  0  0  0
   -1.9160   20.6480  -27.3560 C   0  0  0  0  0  0  0  0  0  0  0  0
   -1.2330   19.7650  -26.7680 O   0  0  0  0  0  0  0  0  0  0  0  0
   -2.9340   20.2570  -28.3880 C   0  0  0  0  0  0  0  0  0  0  0  0
   -3.1510   21.3250  -29.4310 C   0  0  0  0  0  0  0  0  0  0  0  0
   -3.8450   22.4290  -29.0520 N   0  0  0  0  0  0  0  0  0  0  0  0
   -4.1420   23.4200  -29.9240 C   0  0  0  0  0  0  0  0  0  0  0  0
   -5.0830   24.8360  -29.3730 S   0  0  0  0  0  0  0  0  0  0  0  0
   -6.0110   24.9370  -30.9040 C   0  0  0  0  0  0  0  0  0  0  0  0
   -6.6730   23.8760  -31.3800 C   0  0  0  0  0  0  0  0  0  0  0  0
   -7.3800   22.9400  -30.4430 C   0  0  0  0  0  0  0  0  0  0  0  0
   -8.5920   21.9460  -31.2970 S   0  0  0  0  0  0  0  0  0  0  0  0
   -9.3150   22.7770  -32.3200 O   0  0  0  0  0  0  0  0  0  0  0  0
   -9.5980   21.4340  -30.3040 O   0  0  0  0  0  0  0  0  0  0  0  0
   -7.8040   20.5770  -32.0720 C   0  0  0  0  0  0  0  0  0  0  0  0
   -6.6020   20.7700  -32.7700 C   0  0  0  0  0  0  0  0  0  0  0  0
   -5.9520   19.6870  -33.3680 C   0  0  0  0  0  0  0  0  0  0  0  0
   -6.4990   18.4040  -33.2720 C   0  0  0  0  0  0  0  0  0  0  0  0
   -7.7050   18.2060  -32.5910 C   0  0  0  0  0  0  0  0  0  0  0  0
   -8.3600   19.2910  -31.9970 C   0  0  0  0  0  0  0  0  0  0  0  0
   -3.7590   23.3200  -31.2180 N   0  0  0  0  0  0  0  0  0  0  0  0
   -3.0490   22.2540  -31.6620 C   0  0  0  0  0  0  0  0  0  0  0  0
   -2.7280   22.2090  -32.8780 O   0  0  0  0  0  0  0  0  0  0  0  0
   -2.6860   21.2140  -30.7710 C   0  0  0  0  0  0  0  0  0  0  0  0
   -1.8530   20.0180  -31.2440 C   0  0  0  0  0  0  0  0  0  0  0  0
   -2.4970   19.3360  -32.4550 C   0  0  0  0  0  0  0  0  0  0  0  0
   -0.3960   20.4080  -31.5290 C   0  0  0  0  0  0  0  0  0  0  0  0
   -0.4704   23.3359  -28.7572 H   0  0  0  0  0  0  0  0  0  0  0  0
   -1.7387   23.9316  -29.8812 H   0  0  0  0  0  0  0  0  0  0  0  0
   -0.1103   24.6900  -29.8812 H   0  0  0  0  0  0  0  0  0  0  0  0
   -0.5265   25.9297  -27.9903 H   0  0  0  0  0  0  0  0  0  0  0  0
   -2.2467   25.7253  -28.6032 H   0  0  0  0  0  0  0  0  0  0  0  0
   -2.5377   25.3443  -25.0767 H   0  0  0  0  0  0  0  0  0  0  0  0
   -2.7464   26.4332  -26.5387 H   0  0  0  0  0  0  0  0  0  0  0  0
   -4.6895   24.7642  -25.3508 H   0  0  0  0  0  0  0  0  0  0  0  0
   -4.7952   25.6763  -26.8946 H   0  0  0  0  0  0  0  0  0  0  0  0
   -4.2218   23.9740  -26.8946 H   0  0  0  0  0  0  0  0  0  0  0  0
    0.2862   24.4107  -26.4792 H   0  0  0  0  0  0  0  0  0  0  0  0
   -0.8233   24.3608  -25.0453 H   0  0  0  0  0  0  0  0  0  0  0  0
    0.3065   22.1590  -26.4425 H   0  0  0  0  0  0  0  0  0  0  0  0
   -0.9381   22.1346  -25.1360 H   0  0  0  0  0  0  0  0  0  0  0  0
   -2.3010   22.7460  -27.5510 H   0  0  0  0  0  0  0  0  0  0  0  0
   -2.5909   19.3404  -28.8901 H   0  0  0  0  0  0  0  0  0  0  0  0
   -3.8908   20.1042  -27.8672 H   0  0  0  0  0  0  0  0  0  0  0  0
   -6.0365   25.8856  -31.4604 H   0  0  0  0  0  0  0  0  0  0  0  0
   -6.6993   23.6886  -32.4636 H   0  0  0  0  0  0  0  0  0  0  0  0
   -6.6385   22.2753  -29.9756 H   0  0  0  0  0  0  0  0  0  0  0  0
   -7.9017   23.5419  -29.6843 H   0  0  0  0  0  0  0  0  0  0  0  0
   -6.1694   21.7784  -32.8468 H   0  0  0  0  0  0  0  0  0  0  0  0
   -5.0101   19.8440  -33.9141 H   0  0  0  0  0  0  0  0  0  0  0  0
   -5.9809   17.5497  -33.7322 H   0  0  0  0  0  0  0  0  0  0  0  0
   -8.1385   17.1974  -32.5224 H   0  0  0  0  0  0  0  0  0  0  0  0
   -9.3129   19.1351  -31.4701 H   0  0  0  0  0  0  0  0  0  0  0  0
   -1.8347   19.2901  -30.4195 H   0  0  0  0  0  0  0  0  0  0  0  0
   -3.2141   18.5766  -32.1098 H   0  0  0  0  0  0  0  0  0  0  0  0
   -3.0227   20.0874  -33.0624 H   0  0  0  0  0  0  0  0  0  0  0  0
   -1.7167   18.8542  -33.0624 H   0  0  0  0  0  0  0  0  0  0  0  0
    0.1380   20.5510  -30.5780 H   0  0  0  0  0  0  0  0  0  0  0  0
    0.0913   19.6087  -32.1066 H   0  0  0  0  0  0  0  0  0  0  0  0
   -0.3732   21.3439  -32.1066 H   0  0  0  0  0  0  0  0  0  0  0  0
  1  2  1  0
  2  3  1  0
  3  4  1  0
  4  5  1  0
  3  6  1  0
  6  7  1  0
  7  8  1  0
  8  9  1  0
  9 10  2  0
  9 11  1  0
 11 12  1  0
 12 13  1  0
 13 14  1  0
 14 15  1  0
 15 16  1  0
 16 17  2  3
 17 18  1  0
 18 19  1  0
 19 20  2  0
 19 21  2  0
 19 22  1  0
 22 23  2  0
 23 24  1  0
 24 25  2  0
 25 26  1  0
 26 27  2  0
 14 28  2  0
 28 29  1  0
 29 30  2  0
 29 31  1  0
 31 32  1  0
 32 33  1  0
 32 34  1  0
 31 12  2  0
 27 22  1  0
  1 35  1  0
  1 36  1  0
  1 37  1  0
  2 38  1  0
  2 39  1  0
  4 40  1  0
  4 41  1  0
  5 42  1  0
  5 43  1  0
  5 44  1  0
  6 45  1  0
  6 46  1  0
  7 47  1  0
  7 48  1  0
  8 49  1  0
 11 50  1  0
 11 51  1  0
 16 52  1  0
 17 53  1  0
 18 54  1  0
 18 55  1  0
 23 56  1  0
 24 57  1  0
 25 58  1  0
 26 59  1  0
 27 60  1  0
 32 61  1  0
 33 62  1  0
 33 63  1  0
 33 64  1  0
 34 65  1  0
 34 66  1  0
 34 67  1  0
M  CHG  1  13  -1
M  END
>  <UniqueID>  (25) 
24

>  <SMILES>  (25) 
CCN(CC)CCNC(=O)Cc1[n-]c(SC=CCS(=O)(=O)c2ccccc2)nc(=O)c1C(C)C

>  <Energy>  (25) 
55.62618360512332

>  <Genealogy>  (25) 
CCN(CC)CCNC(=O)Cc1[n-]c(SC=CCS(=O)(=O)c2ccccc2)nc(=O)c1C(C)C (protonated)
CCN(CC)CCNC(=O)Cc1[n-]c(SC=CCS(=O)(=O)c2ccccc2)nc(=O)c1C(C)C (3D coordinates assigned)
CCN(CC)CCNC(=O)Cc1[n-]c(SC=CCS(=O)(=O)c2ccccc2)nc(=O)c1C(C)C (optimized conformer: 55.62618360512332 kcal/mol)

>  <smiles>  (25) 
CCN(CC)CCNC(=O)Cc1[nH]c(SC=CCS(=O)(=O)c2ccccc2)nc(=O)c1C(C)C

>  <score_type>  (25) 
oracle

>  <origin>  (25) 
adg

>  <m_score__min__energy>  (25) 
-9.8699999999999992

>  <m_primary>  (25) 
energy

$$$$
26:0
     RDKit          3D

 44 46  0  0  1  0  0  0  0  0999 V2000
   -3.5110   24.1960  -29.2510 C   0  0  0  0  0  0  0  0  0  0  0  0
   -4.9570   24.5000  -28.9390 C   0  0  0  0  0  0  0  0  0  0  0  0
   -5.6910   25.1600  -30.0850 C   0  0  0  0  0  0  0  0  0  0  0  0
   -5.2930   24.6440  -31.3650 N   0  0  0  0  0  0  0  0  0  0  0  0
   -5.4330   23.4630  -31.7960 C   0  0  0  0  0  0  0  0  0  0  0  0
   -4.3630   22.7510  -32.1760 N   0  0  0  0  0  0  0  0  0  0  0  0
   -4.4830   21.4820  -32.6420 C   0  0  0  0  0  0  0  0  0  0  0  0
   -3.2800   20.6940  -33.0650 C   0  0  0  0  0  0  0  0  0  0  0  0
   -2.1390   21.4670  -33.1130 F   0  0  0  0  0  0  0  0  0  0  0  0
   -5.7240   20.9680  -32.7050 N   0  0  0  0  0  0  0  0  0  0  0  0
   -6.8230   21.6470  -32.3340 C   0  0  0  0  0  0  0  0  0  0  0  0
   -6.7010   22.9330  -31.8620 C   0  0  0  0  0  0  0  0  0  0  0  0
   -7.9200   23.3890  -31.5630 N   0  0  0  0  0  0  0  0  0  0  0  0
   -8.7730   22.3950  -31.8480 C   0  0  0  0  0  0  0  0  0  0  0  0
   -8.1230   21.3160  -32.3220 N   0  0  0  0  0  0  0  0  0  0  0  0
   -8.7540   20.0940  -32.7180 C   0  0  0  0  0  0  0  0  0  0  0  0
   -8.1720   18.9060  -32.0240 C   0  0  0  0  0  0  0  0  0  0  0  0
   -8.6100   18.4900  -30.9220 O   0  0  0  0  0  0  0  0  0  0  0  0
   -7.0930   18.2280  -32.6250 N   0  0  0  0  0  0  0  0  0  0  0  0
   -6.4650   17.0510  -32.0070 C   0  0  0  0  0  0  0  0  0  0  0  0
   -5.5660   16.4660  -33.0430 C   0  0  0  0  0  0  0  0  0  0  0  0
   -6.0760   17.0970  -34.3370 C   0  0  0  0  0  0  0  0  0  0  0  0
   -6.4100   18.5000  -33.8720 C   0  0  0  0  0  0  0  0  0  0  0  0
   -2.9502   24.0781  -28.3120 H   0  0  0  0  0  0  0  0  0  0  0  0
   -3.4495   23.2653  -29.8341 H   0  0  0  0  0  0  0  0  0  0  0  0
   -3.0800   25.0232  -29.8341 H   0  0  0  0  0  0  0  0  0  0  0  0
   -5.4672   23.5565  -28.6949 H   0  0  0  0  0  0  0  0  0  0  0  0
   -4.9665   25.2068  -28.0962 H   0  0  0  0  0  0  0  0  0  0  0  0
   -6.7702   24.9903  -29.9567 H   0  0  0  0  0  0  0  0  0  0  0  0
   -5.4442   26.2318  -30.0660 H   0  0  0  0  0  0  0  0  0  0  0  0
   -3.4110   23.1410  -32.1290 H   0  0  0  0  0  0  0  0  0  0  0  0
   -3.1229   19.8754  -32.3472 H   0  0  0  0  0  0  0  0  0  0  0  0
   -3.4688   20.3090  -34.0780 H   0  0  0  0  0  0  0  0  0  0  0  0
   -9.8630   22.4536  -31.7121 H   0  0  0  0  0  0  0  0  0  0  0  0
   -9.8256   20.1548  -32.4773 H   0  0  0  0  0  0  0  0  0  0  0  0
   -8.5923   19.9659  -33.7985 H   0  0  0  0  0  0  0  0  0  0  0  0
   -5.8835   17.3496  -31.1223 H   0  0  0  0  0  0  0  0  0  0  0  0
   -7.2194   16.3230  -31.6741 H   0  0  0  0  0  0  0  0  0  0  0  0
   -4.5171   16.7398  -32.8564 H   0  0  0  0  0  0  0  0  0  0  0  0
   -5.5835   15.3663  -33.0609 H   0  0  0  0  0  0  0  0  0  0  0  0
   -5.2982   17.1051  -35.1148 H   0  0  0  0  0  0  0  0  0  0  0  0
   -6.9200   16.5620  -34.7968 H   0  0  0  0  0  0  0  0  0  0  0  0
   -5.5011   19.0985  -33.7116 H   0  0  0  0  0  0  0  0  0  0  0  0
   -7.0008   19.0855  -34.5919 H   0  0  0  0  0  0  0  0  0  0  0  0
  1  2  1  0
  2  3  1  0
  3  4  1  0
  4  5  2  0
  5  6  1  0
  6  7  1  0
  7  8  1  0
  8  9  1  0
  7 10  2  0
 10 11  1  0
 11 12  2  0
 12 13  1  0
 13 14  2  0
 14 15  1  0
 15 16  1  0
 16 17  1  0
 17 18  2  0
 17 19  1  0
 19 20  1  0
 20 21  1  0
 21 22  1  0
 22 23  1  0
 12  5  1  0
 23 19  1  0
 15 11  1  0
  1 24  1  0
  1 25  1  0
  1 26  1  0
  2 27  1  0
  2 28  1  0
  3 29  1  0
  3 30  1  0
  6 31  1  0
  8 32  1  0
  8 33  1  0
 14 34  1  0
 16 35  1  0
 16 36  1  0
 20 37  1  0
 20 38  1  0
 21 39  1  0
 21 40  1  0
 22 41  1  0
 22 42  1  0
 23 43  1  0
 23 44  1  0
M  END
>  <smiles>  (26) 
CCCN=c1[nH]c(CF)nc2c1ncn2CC(=O)N1CCCC1

>  <score_type>  (26) 
oracle

>  <origin>  (26) 
adg

>  <m_score__min__energy>  (26) 
-7.2300000000000004

>  <m_primary>  (26) 
energy

$$$$
27:0
     RDKit          3D

 45 48  0  0  0  0  0  0  0  0999 V2000
   -1.5190   25.1310  -27.7480 C   0  0  0  0  0  0  0  0  0  0  0  0
   -1.9880   25.2960  -29.0830 O   0  0  0  0  0  0  0  0  0  0  0  0
   -2.8580   24.4070  -29.7320 C   0  0  0  0  0  0  0  0  0  0  0  0
   -4.1990   24.7290  -30.0090 C   0  0  0  0  0  0  0  0  0  0  0  0
   -5.0280   23.8080  -30.6560 C   0  0  0  0  0  0  0  0  0  0  0  0
   -4.5360   22.5450  -31.0360 C   0  0  0  0  0  0  0  0  0  0  0  0
   -5.3970   21.5530  -31.7320 C   0  0  0  0  0  0  0  0  0  0  0  0
   -4.8580   20.4450  -32.3960 C   0  0  0  0  0  0  0  0  0  0  0  0
   -5.7240   19.5460  -33.0310 C   0  0  0  0  0  0  0  0  0  0  0  0
   -5.2050   18.3930  -33.7210 N   0  0  0  0  0  0  0  0  0  0  0  0
   -3.8410   18.4180  -34.2580 C   0  0  0  0  0  0  0  0  0  0  0  0
   -3.2750   16.9960  -34.2890 C   0  0  0  0  0  0  0  0  0  0  0  0
   -4.1560   16.1190  -34.9680 O   0  0  0  0  0  0  0  0  0  0  0  0
   -5.3690   16.0050  -34.2470 C   0  0  0  0  0  0  0  0  0  0  0  0
   -6.1090   17.3460  -34.2090 C   0  0  0  0  0  0  0  0  0  0  0  0
   -7.0680   19.7720  -33.0020 N   0  0  0  0  0  0  0  0  0  0  0  0
   -7.5850   20.8630  -32.3590 C   0  0  0  0  0  0  0  0  0  0  0  0
   -9.0680   21.1660  -32.3000 C   0  0  0  0  0  0  0  0  0  0  0  0
   -9.4760   22.6040  -32.0190 C   0  0  0  0  0  0  0  0  0  0  0  0
   -9.6490   21.5380  -30.9440 C   0  0  0  0  0  0  0  0  0  0  0  0
   -6.7440   21.7310  -31.7380 N   0  0  0  0  0  0  0  0  0  0  0  0
   -3.1910   22.2350  -30.7660 C   0  0  0  0  0  0  0  0  0  0  0  0
   -2.3650   23.1570  -30.1170 C   0  0  0  0  0  0  0  0  0  0  0  0
   -2.3151   25.4111  -27.0424 H   0  0  0  0  0  0  0  0  0  0  0  0
   -1.2380   24.0800  -27.5854 H   0  0  0  0  0  0  0  0  0  0  0  0
   -0.6418   25.7745  -27.5854 H   0  0  0  0  0  0  0  0  0  0  0  0
   -4.5976   25.7111  -29.7148 H   0  0  0  0  0  0  0  0  0  0  0  0
   -6.0740   24.0725  -30.8701 H   0  0  0  0  0  0  0  0  0  0  0  0
   -3.7703   20.2827  -32.4187 H   0  0  0  0  0  0  0  0  0  0  0  0
   -3.8569   18.8280  -35.2786 H   0  0  0  0  0  0  0  0  0  0  0  0
   -3.2078   19.0493  -33.6173 H   0  0  0  0  0  0  0  0  0  0  0  0
   -2.3048   17.0052  -34.8073 H   0  0  0  0  0  0  0  0  0  0  0  0
   -3.1530   16.6423  -33.2546 H   0  0  0  0  0  0  0  0  0  0  0  0
   -6.0085   15.2541  -34.7341 H   0  0  0  0  0  0  0  0  0  0  0  0
   -5.1381   15.7010  -33.2154 H   0  0  0  0  0  0  0  0  0  0  0  0
   -6.4538   17.6027  -35.2215 H   0  0  0  0  0  0  0  0  0  0  0  0
   -6.9743   17.2668  -33.5345 H   0  0  0  0  0  0  0  0  0  0  0  0
   -7.6890   19.1050  -33.5080 H   0  0  0  0  0  0  0  0  0  0  0  0
   -9.3139   20.4257  -33.0755 H   0  0  0  0  0  0  0  0  0  0  0  0
   -8.7066   23.3816  -31.9038 H   0  0  0  0  0  0  0  0  0  0  0  0
  -10.1403   23.3335  -32.5054 H   0  0  0  0  0  0  0  0  0  0  0  0
   -9.0045   21.5458  -30.0527 H   0  0  0  0  0  0  0  0  0  0  0  0
  -10.4898   21.1787  -30.3325 H   0  0  0  0  0  0  0  0  0  0  0  0
   -2.7855   21.2582  -31.0683 H   0  0  0  0  0  0  0  0  0  0  0  0
   -1.3171   22.8965  -29.9072 H   0  0  0  0  0  0  0  0  0  0  0  0
  1  2  1  0
  2  3  1  0
  3  4  2  0
  4  5  1  0
  5  6  2  0
  6  7  1  0
  7  8  2  0
  8  9  1  0
  9 10  1  0
 10 11  1  0
 11 12  1  0
 12 13  1  0
 13 14  1  0
 14 15  1  0
  9 16  2  0
 16 17  1  0
 17 18  1  0
 18 19  1  0
 19 20  1  0
 17 21  2  0
  6 22  1  0
 22 23  2  0
 23  3  1  0
 21  7  1  0
 15 10  1  0
 20 18  1  0
  1 24  1  0
  1 25  1  0
  1 26  1  0
  4 27  1  0
  5 28  1  0
  8 29  1  0
 11 30  1  0
 11 31  1  0
 12 32  1  0
 12 33  1  0
 14 34  1  0
 14 35  1  0
 15 36  1  0
 15 37  1  0
 16 38  1  0
 18 39  1  0
 19 40  1  0
 19 41  1  0
 20 42  1  0
 20 43  1  0
 22 44  1  0
 23 45  1  0
M  CHG  1  16   1
M  END
>  <UniqueID>  (27) 
25

>  <SMILES>  (27) 
COc1ccc(-c2cc(N3CCOCC3)[nH+]c(C3CC3)n2)cc1

>  <Energy>  (27) 
322.4460407969323

>  <Genealogy>  (27) 
COc1ccc(-c2cc(N3CCOCC3)[nH+]c(C3CC3)n2)cc1 (protonated)
COc1ccc(-c2cc(N3CCOCC3)[nH+]c(C3CC3)n2)cc1 (3D coordinates assigned)
COc1ccc(-c2cc(N3CCOCC3)[nH+]c(C3CC3)n2)cc1 (nonaromatic ring conformer: 322.4460407969323 kcal/mol)

>  <smiles>  (27) 
COc1ccc(-c2cc(N3CCOCC3)nc(C3CC3)n2)cc1

>  <score_type>  (27) 
oracle

>  <origin>  (27) 
adg

>  <m_score__min__energy>  (27) 
-7.5099999999999998

>  <m_primary>  (27) 
energy

$$$$
28:0
     RDKit          3D

 57 60  0  0  0  0  0  0  0  0999 V2000
   -5.6810   18.0470  -34.8920 C   0  0  0  0  0  0  0  0  0  0  0  0
   -4.6450   17.6020  -33.8780 C   0  0  0  0  0  0  0  0  0  0  0  0
   -3.3240   17.3200  -34.5110 C   0  0  0  0  0  0  0  0  0  0  0  0
   -2.1620   17.5180  -33.5980 C   0  0  0  0  0  0  0  0  0  0  0  0
   -1.1880   18.4610  -34.1660 C   0  0  0  0  0  0  0  0  0  0  0  0
   -0.4600   18.3010  -35.2850 N   0  0  0  0  0  0  0  0  0  0  0  0
    0.3190   19.3490  -35.5020 C   0  0  0  0  0  0  0  0  0  0  0  0
    1.4500   19.5960  -36.8410 Cl  0  0  0  0  0  0  0  0  0  0  0  0
    0.0710   20.2290  -34.4590 C   0  0  0  0  0  0  0  0  0  0  0  0
    0.7630   21.5360  -34.3510 C   0  0  0  0  0  0  0  0  0  0  0  0
    0.0810   22.4850  -35.1480 O   0  0  0  0  0  0  0  0  0  0  0  0
   -0.8550   19.6750  -33.6440 N   0  0  0  0  0  0  0  0  0  0  0  0
   -1.3480   20.3160  -32.4450 C   0  0  0  0  0  0  0  0  0  0  0  0
   -2.8230   20.4380  -32.3890 C   0  0  0  0  0  0  0  0  0  0  0  0
   -3.5600   20.0630  -31.2880 C   0  0  0  0  0  0  0  0  0  0  0  0
   -4.9360   20.1640  -31.2180 C   0  0  0  0  0  0  0  0  0  0  0  0
   -5.6430   20.6690  -32.3060 C   0  0  0  0  0  0  0  0  0  0  0  0
   -7.0910   20.7560  -32.2020 C   0  0  0  0  0  0  0  0  0  0  0  0
   -7.8200   19.7270  -32.7800 C   0  0  0  0  0  0  0  0  0  0  0  0
   -9.2050   19.7090  -32.7260 C   0  0  0  0  0  0  0  0  0  0  0  0
   -9.8040   20.7620  -32.0730 C   0  0  0  0  0  0  0  0  0  0  0  0
   -9.1060   21.7990  -31.4900 C   0  0  0  0  0  0  0  0  0  0  0  0
   -7.7290   21.7890  -31.5590 C   0  0  0  0  0  0  0  0  0  0  0  0
   -7.0010   22.8860  -30.9480 C   0  0  0  0  0  0  0  0  0  0  0  0
   -7.2240   23.3260  -29.7040 N   0  0  0  0  0  0  0  0  0  0  0  0
   -6.4420   24.3340  -29.3770 N   0  0  0  0  0  0  0  0  0  0  0  0
   -5.6680   24.5660  -30.4620 C   0  0  0  0  0  0  0  0  0  0  0  0
   -4.6190   25.5930  -30.6250 C   0  0  0  0  0  0  0  0  0  0  0  0
   -6.0180   23.6680  -31.4320 N   0  0  0  0  0  0  0  0  0  0  0  0
   -4.9330   21.0530  -33.4240 C   0  0  0  0  0  0  0  0  0  0  0  0
   -3.5440   20.9400  -33.4650 C   0  0  0  0  0  0  0  0  0  0  0  0
   -6.5687   18.4283  -34.3661 H   0  0  0  0  0  0  0  0  0  0  0  0
   -5.2584   18.8430  -35.5227 H   0  0  0  0  0  0  0  0  0  0  0  0
   -5.9674   17.1925  -35.5227 H   0  0  0  0  0  0  0  0  0  0  0  0
   -4.5168   18.3978  -33.1295 H   0  0  0  0  0  0  0  0  0  0  0  0
   -5.0035   16.6712  -33.4141 H   0  0  0  0  0  0  0  0  0  0  0  0
   -3.3205   16.2750  -34.8544 H   0  0  0  0  0  0  0  0  0  0  0  0
   -3.2065   18.0365  -35.3374 H   0  0  0  0  0  0  0  0  0  0  0  0
   -2.5247   17.9133  -32.6377 H   0  0  0  0  0  0  0  0  0  0  0  0
   -1.6630   16.5478  -33.4574 H   0  0  0  0  0  0  0  0  0  0  0  0
    0.7636   21.8675  -33.3021 H   0  0  0  0  0  0  0  0  0  0  0  0
    1.8019   21.4365  -34.6986 H   0  0  0  0  0  0  0  0  0  0  0  0
   -0.8870   22.2900  -35.0800 H   0  0  0  0  0  0  0  0  0  0  0  0
   -1.0166   19.7272  -31.5770 H   0  0  0  0  0  0  0  0  0  0  0  0
   -0.9441   21.3392  -32.4426 H   0  0  0  0  0  0  0  0  0  0  0  0
   -3.0235   19.6608  -30.4160 H   0  0  0  0  0  0  0  0  0  0  0  0
   -5.4692   19.8478  -30.3093 H   0  0  0  0  0  0  0  0  0  0  0  0
   -7.2891   18.9101  -33.2907 H   0  0  0  0  0  0  0  0  0  0  0  0
   -9.7929   18.8977  -33.1801 H   0  0  0  0  0  0  0  0  0  0  0  0
  -10.9022   20.7775  -32.0126 H   0  0  0  0  0  0  0  0  0  0  0  0
   -9.6368   22.6168  -30.9807 H   0  0  0  0  0  0  0  0  0  0  0  0
   -6.4310   24.8330  -28.4780 H   0  0  0  0  0  0  0  0  0  0  0  0
   -4.2768   25.9280  -29.6347 H   0  0  0  0  0  0  0  0  0  0  0  0
   -3.7712   25.1661  -31.1808 H   0  0  0  0  0  0  0  0  0  0  0  0
   -5.0278   26.4497  -31.1808 H   0  0  0  0  0  0  0  0  0  0  0  0
   -5.4702   21.4542  -34.2960 H   0  0  0  0  0  0  0  0  0  0  0  0
   -3.0062   21.2559  -34.3711 H   0  0  0  0  0  0  0  0  0  0  0  0
  1  2  1  0
  2  3  1  0
  3  4  1  0
  4  5  1  0
  5  6  2  0
  6  7  1  0
  7  8  1  0
  7  9  2  0
  9 10  1  0
 10 11  1  0
  9 12  1  0
 12 13  1  0
 13 14  1  0
 14 15  2  0
 15 16  1  0
 16 17  2  0
 17 18  1  0
 18 19  2  0
 19 20  1  0
 20 21  2  0
 21 22  1  0
 22 23  2  0
 23 24  1  0
 24 25  2  0
 25 26  1  0
 26 27  1  0
 27 28  1  0
 27 29  2  0
 17 30  1  0
 30 31  2  0
 12  5  1  0
 31 14  1  0
 23 18  1  0
 29 24  1  0
  1 32  1  0
  1 33  1  0
  1 34  1  0
  2 35  1  0
  2 36  1  0
  3 37  1  0
  3 38  1  0
  4 39  1  0
  4 40  1  0
 10 41  1  0
 10 42  1  0
 11 43  1  0
 13 44  1  0
 13 45  1  0
 15 46  1  0
 16 47  1  0
 19 48  1  0
 20 49  1  0
 21 50  1  0
 22 51  1  0
 26 52  1  0
 28 53  1  0
 28 54  1  0
 28 55  1  0
 30 56  1  0
 31 57  1  0
M  END
>  <smiles>  (28) 
CCCCc1nc(Cl)c(CO)n1Cc1ccc(-c2ccccc2-c2n[nH]c(C)n2)cc1

>  <score_type>  (28) 
oracle

>  <origin>  (28) 
adg

>  <m_score__min__energy>  (28) 
-9.5899999999999999

>  <m_primary>  (28) 
energy

$$$$
29:0
     RDKit          3D

 42 45  0  0  0  0  0  0  0  0999 V2000
   -3.8780   11.9280  -36.2260 C   0  0  0  0  0  0  0  0  0  0  0  0
   -4.0650   13.2140  -35.4780 C   0  0  0  0  0  0  0  0  0  0  0  0
   -5.1420   13.3650  -34.5910 C   0  0  0  0  0  0  0  0  0  0  0  0
   -5.3400   14.5760  -33.9210 C   0  0  0  0  0  0  0  0  0  0  0  0
   -4.4600   15.6540  -34.1270 C   0  0  0  0  0  0  0  0  0  0  0  0
   -4.6570   16.9190  -33.4710 N   0  0  0  0  0  0  0  0  0  0  0  0
   -5.5360   17.9480  -33.9610 C   0  0  0  0  0  0  0  0  0  0  0  0
   -6.2600   17.7290  -34.9710 O   0  0  0  0  0  0  0  0  0  0  0  0
   -5.6180   19.2710  -33.2960 C   0  0  0  0  0  0  0  0  0  0  0  0
   -6.8460   19.9800  -33.2070 C   0  0  0  0  0  0  0  0  0  0  0  0
   -6.9090   21.2360  -32.5780 C   0  0  0  0  0  0  0  0  0  0  0  0
   -5.7300   21.7640  -32.0470 C   0  0  0  0  0  0  0  0  0  0  0  0
   -4.5480   21.0990  -32.1490 C   0  0  0  0  0  0  0  0  0  0  0  0
   -4.4440   19.8560  -32.7650 C   0  0  0  0  0  0  0  0  0  0  0  0
   -3.5600   21.8220  -31.6040 N   0  0  0  0  0  0  0  0  0  0  0  0
   -4.1820   22.9520  -31.1720 C   0  0  0  0  0  0  0  0  0  0  0  0
   -5.5340   22.9390  -31.4130 N   0  0  0  0  0  0  0  0  0  0  0  0
   -6.5930   23.9370  -31.2020 C   0  0  0  0  0  0  0  0  0  0  0  0
   -6.2740   24.9740  -30.1370 C   0  0  0  0  0  0  0  0  0  0  0  0
   -5.1340   25.8800  -30.5780 C   0  0  0  0  0  0  0  0  0  0  0  0
   -3.8640   25.3120  -30.1780 N   0  0  0  0  0  0  0  0  0  0  0  0
   -3.3850   24.0020  -30.4870 C   0  0  0  0  0  0  0  0  0  0  0  0
   -2.2020   23.7220  -30.1620 O   0  0  0  0  0  0  0  0  0  0  0  0
   -3.4110   15.5130  -35.0460 C   0  0  0  0  0  0  0  0  0  0  0  0
   -3.2120   14.3020  -35.7160 C   0  0  0  0  0  0  0  0  0  0  0  0
   -3.7578   11.1015  -35.5101 H   0  0  0  0  0  0  0  0  0  0  0  0
   -4.7583   11.7403  -36.8583 H   0  0  0  0  0  0  0  0  0  0  0  0
   -2.9807   11.9988  -36.8583 H   0  0  0  0  0  0  0  0  0  0  0  0
   -5.8337   12.5265  -34.4221 H   0  0  0  0  0  0  0  0  0  0  0  0
   -6.1882   14.6864  -33.2293 H   0  0  0  0  0  0  0  0  0  0  0  0
   -4.1610   17.0600  -32.5640 H   0  0  0  0  0  0  0  0  0  0  0  0
   -7.7590   19.5408  -33.6356 H   0  0  0  0  0  0  0  0  0  0  0  0
   -7.8587   21.7864  -32.5063 H   0  0  0  0  0  0  0  0  0  0  0  0
   -3.4745   19.3414  -32.8374 H   0  0  0  0  0  0  0  0  0  0  0  0
   -6.7656   24.4621  -32.1530 H   0  0  0  0  0  0  0  0  0  0  0  0
   -7.4780   23.3867  -30.8499 H   0  0  0  0  0  0  0  0  0  0  0  0
   -7.1689   25.5866  -29.9527 H   0  0  0  0  0  0  0  0  0  0  0  0
   -5.9684   24.4497  -29.2196 H   0  0  0  0  0  0  0  0  0  0  0  0
   -5.1564   25.9863  -31.6726 H   0  0  0  0  0  0  0  0  0  0  0  0
   -5.2531   26.8653  -30.1037 H   0  0  0  0  0  0  0  0  0  0  0  0
   -2.7391   16.3617  -35.2416 H   0  0  0  0  0  0  0  0  0  0  0  0
   -2.3834   14.2020  -36.4325 H   0  0  0  0  0  0  0  0  0  0  0  0
  1  2  1  0
  2  3  2  0
  3  4  1  0
  4  5  2  0
  5  6  1  0
  6  7  1  0
  7  8  2  0
  7  9  1  0
  9 10  2  0
 10 11  1  0
 11 12  2  0
 12 13  1  0
 13 14  2  0
 13 15  1  0
 15 16  2  0
 16 17  1  0
 17 18  1  0
 18 19  1  0
 19 20  1  0
 20 21  1  0
 21 22  1  0
 22 23  2  0
  5 24  1  0
 24 25  2  0
 25  2  1  0
 14  9  1  0
 22 16  1  0
 17 12  1  0
  1 26  1  0
  1 27  1  0
  1 28  1  0
  3 29  1  0
  4 30  1  0
  6 31  1  0
 10 32  1  0
 11 33  1  0
 14 34  1  0
 18 35  1  0
 18 36  1  0
 19 37  1  0
 19 38  1  0
 20 39  1  0
 20 40  1  0
 24 41  1  0
 25 42  1  0
M  CHG  1  21  -1
M  END
>  <UniqueID>  (29) 
26

>  <SMILES>  (29) 
Cc1ccc(NC(=O)c2ccc3c(c2)nc2n3CCC[N-]C2=O)cc1

>  <Energy>  (29) 
94.61369676134804

>  <Genealogy>  (29) 
Cc1ccc(NC(=O)c2ccc3c(c2)nc2n3CCC[N-]C2=O)cc1 (protonated)
Cc1ccc(NC(=O)c2ccc3c(c2)nc2n3CCC[N-]C2=O)cc1 (3D coordinates assigned)
Cc1ccc(NC(=O)c2ccc3c(c2)nc2n3CCC[N-]C2=O)cc1 (nonaromatic ring conformer: 94.61369676134804 kcal/mol)

>  <smiles>  (29) 
Cc1ccc(NC(=O)c2ccc3c(c2)nc2n3CCCNC2=O)cc1

>  <score_type>  (29) 
oracle

>  <origin>  (29) 
adg

>  <m_score__min__energy>  (29) 
-7.5499999999999998

>  <m_primary>  (29) 
energy

$$$$
30:0
     RDKit          3D

 37 38  0  0  0  0  0  0  0  0999 V2000
   -0.3920   22.3980  -26.9550 C   0  0  0  0  0  0  0  0  0  0  0  0
   -0.8590   23.0970  -28.1650 N   0  0  0  0  0  0  0  0  0  0  0  0
   -0.5290   22.3290  -29.3760 C   0  0  0  0  0  0  0  0  0  0  0  0
   -0.3460   24.4540  -28.2680 C   0  0  0  0  0  0  0  0  0  0  0  0
    0.8530   24.6450  -28.1230 O   0  0  0  0  0  0  0  0  0  0  0  0
   -1.2290   25.6510  -28.5520 C   0  0  0  0  0  0  0  0  0  0  0  0
   -2.3950   25.2740  -29.3460 N   0  0  0  0  0  0  0  0  0  0  0  0
   -3.4720   24.4370  -28.9040 C   0  0  0  0  0  0  0  0  0  0  0  0
   -3.3630   23.8390  -27.8010 O   0  0  0  0  0  0  0  0  0  0  0  0
   -4.6790   24.2170  -29.7200 C   0  0  0  0  0  0  0  0  0  0  0  0
   -5.7350   25.1350  -29.6870 C   0  0  0  0  0  0  0  0  0  0  0  0
   -6.8770   24.9170  -30.4590 C   0  0  0  0  0  0  0  0  0  0  0  0
   -6.9790   23.7760  -31.2570 C   0  0  0  0  0  0  0  0  0  0  0  0
   -5.9380   22.8300  -31.2860 C   0  0  0  0  0  0  0  0  0  0  0  0
   -6.0450   21.6450  -32.1010 N   0  0  0  0  0  0  0  0  0  0  0  0
   -7.1690   20.9390  -32.3530 C   0  0  0  0  0  0  0  0  0  0  0  0
   -6.8800   19.8700  -33.1750 C   0  0  0  0  0  0  0  0  0  0  0  0
   -5.5260   19.9270  -33.4350 C   0  0  0  0  0  0  0  0  0  0  0  0
   -5.0420   21.0300  -32.7630 C   0  0  0  0  0  0  0  0  0  0  0  0
   -4.7900   23.0590  -30.5030 C   0  0  0  0  0  0  0  0  0  0  0  0
   -0.7489   22.9322  -26.0621 H   0  0  0  0  0  0  0  0  0  0  0  0
   -0.7860   21.3710  -26.9497 H   0  0  0  0  0  0  0  0  0  0  0  0
    0.7076   22.3689  -26.9497 H   0  0  0  0  0  0  0  0  0  0  0  0
   -1.9040   23.1500  -28.0980 H   0  0  0  0  0  0  0  0  0  0  0  0
   -0.1098   21.3534  -29.0886 H   0  0  0  0  0  0  0  0  0  0  0  0
   -1.4404   22.1751  -29.9723 H   0  0  0  0  0  0  0  0  0  0  0  0
    0.2099   22.8843  -29.9723 H   0  0  0  0  0  0  0  0  0  0  0  0
   -1.5688   26.0800  -27.5978 H   0  0  0  0  0  0  0  0  0  0  0  0
   -0.6434   26.3866  -29.1229 H   0  0  0  0  0  0  0  0  0  0  0  0
   -5.6647   26.0300  -29.0514 H   0  0  0  0  0  0  0  0  0  0  0  0
   -7.6998   25.6468  -30.4387 H   0  0  0  0  0  0  0  0  0  0  0  0
   -7.8798   23.6155  -31.8675 H   0  0  0  0  0  0  0  0  0  0  0  0
   -8.1676   21.1812  -31.9604 H   0  0  0  0  0  0  0  0  0  0  0  0
   -7.5903   19.1185  -33.5502 H   0  0  0  0  0  0  0  0  0  0  0  0
   -4.9460   19.2291  -34.0567 H   0  0  0  0  0  0  0  0  0  0  0  0
   -3.9927   21.3601  -32.7660 H   0  0  0  0  0  0  0  0  0  0  0  0
   -3.9728   22.3226  -30.5057 H   0  0  0  0  0  0  0  0  0  0  0  0
  1  2  1  0
  2  3  1  0
  2  4  1  0
  4  5  2  0
  4  6  1  0
  6  7  1  0
  7  8  1  0
  8  9  2  0
  8 10  1  0
 10 11  2  0
 11 12  1  0
 12 13  2  0
 13 14  1  0
 14 15  1  0
 15 16  1  0
 16 17  2  0
 17 18  1  0
 18 19  2  0
 14 20  2  0
 20 10  1  0
 19 15  1  0
  1 21  1  0
  1 22  1  0
  1 23  1  0
  2 24  1  0
  3 25  1  0
  3 26  1  0
  3 27  1  0
  6 28  1  0
  6 29  1  0
 11 30  1  0
 12 31  1  0
 13 32  1  0
 16 33  1  0
 17 34  1  0
 18 35  1  0
 19 36  1  0
 20 37  1  0
M  CHG  2   2   1   7  -1
M  END
>  <UniqueID>  (30) 
27

>  <SMILES>  (30) 
C[NH+](C)C(=O)C[N-]C(=O)c1cccc(-n2cccc2)c1

>  <Energy>  (30) 
72.95472104864378

>  <Genealogy>  (30) 
C[NH+](C)C(=O)C[N-]C(=O)c1cccc(-n2cccc2)c1 (protonated)
C[NH+](C)C(=O)C[N-]C(=O)c1cccc(-n2cccc2)c1 (3D coordinates assigned)
C[NH+](C)C(=O)C[N-]C(=O)c1cccc(-n2cccc2)c1 (optimized conformer: 72.95472104864378 kcal/mol)

>  <smiles>  (30) 
CN(C)C(=O)CNC(=O)c1cccc(-n2cccc2)c1

>  <score_type>  (30) 
oracle

>  <origin>  (30) 
adg

>  <m_score__min__energy>  (30) 
-8.1799999999999997

>  <m_primary>  (30) 
energy

$$$$
31:0
     RDKit          3D

 58 60  0  0  0  0  0  0  0  0999 V2000
   -2.2000   22.1400  -30.0440 C   0  0  0  0  0  0  0  0  0  0  0  0
   -3.3920   22.9520  -29.7800 N   0  0  0  0  0  0  0  0  0  0  0  0
   -3.4350   24.0790  -29.0270 C   0  0  0  0  0  0  0  0  0  0  0  0
   -2.2830   24.7260  -28.3670 C   0  0  0  0  0  0  0  0  0  0  0  0
   -1.6860   25.6610  -28.9650 O   0  0  0  0  0  0  0  0  0  0  0  0
   -1.8090   24.2550  -27.0930 N   0  0  0  0  0  0  0  0  0  0  0  0
   -0.9000   25.0010  -26.2020 C   0  0  0  0  0  0  0  0  0  0  0  0
   -1.6170   26.2730  -25.7050 C   0  0  0  0  0  0  0  0  0  0  0  0
   -0.5270   24.1410  -24.9780 C   0  0  0  0  0  0  0  0  0  0  0  0
    0.3700   25.4220  -26.9670 C   0  0  0  0  0  0  0  0  0  0  0  0
   -4.7290   24.5510  -28.9400 C   0  0  0  0  0  0  0  0  0  0  0  0
   -5.5060   23.7060  -29.7000 C   0  0  0  0  0  0  0  0  0  0  0  0
   -4.6620   22.7390  -30.2190 C   0  0  0  0  0  0  0  0  0  0  0  0
   -5.1560   21.6060  -31.0990 C   0  0  0  0  0  0  0  0  0  0  0  0
   -4.2170   21.3500  -32.3010 C   0  0  0  0  0  0  0  0  0  0  0  0
   -4.9450   20.6640  -33.4680 C   0  0  0  0  0  0  0  0  0  0  0  0
   -6.0050   19.7810  -32.9460 N   0  0  0  0  0  0  0  0  0  0  0  0
   -6.4610   18.7620  -33.9180 C   0  0  0  0  0  0  0  0  0  0  0  0
   -5.9270   17.3690  -33.6470 C   0  0  0  0  0  0  0  0  0  0  0  0
   -6.6280   16.2380  -34.0970 C   0  0  0  0  0  0  0  0  0  0  0  0
   -6.1360   14.9530  -33.8460 C   0  0  0  0  0  0  0  0  0  0  0  0
   -4.9440   14.7850  -33.1330 C   0  0  0  0  0  0  0  0  0  0  0  0
   -4.4370   13.4620  -32.8750 C   0  0  0  0  0  0  0  0  0  0  0  0
   -4.0300   12.3990  -32.6670 N   0  0  0  0  0  0  0  0  0  0  0  0
   -4.2480   15.9070  -32.6660 C   0  0  0  0  0  0  0  0  0  0  0  0
   -4.7390   17.1910  -32.9160 C   0  0  0  0  0  0  0  0  0  0  0  0
   -7.1180   20.5390  -32.3270 C   0  0  0  0  0  0  0  0  0  0  0  0
   -6.6270   21.7660  -31.5250 C   0  0  0  0  0  0  0  0  0  0  0  0
   -1.7476   21.8318  -29.0899 H   0  0  0  0  0  0  0  0  0  0  0  0
   -2.4847   21.2472  -30.6201 H   0  0  0  0  0  0  0  0  0  0  0  0
   -1.4734   22.7318  -30.6201 H   0  0  0  0  0  0  0  0  0  0  0  0
   -2.1460   23.3150  -26.7830 H   0  0  0  0  0  0  0  0  0  0  0  0
   -1.6234   26.2843  -24.6051 H   0  0  0  0  0  0  0  0  0  0  0  0
   -1.0871   27.1620  -26.0777 H   0  0  0  0  0  0  0  0  0  0  0  0
   -2.6519   26.2799  -26.0777 H   0  0  0  0  0  0  0  0  0  0  0  0
   -0.7659   24.6918  -24.0563 H   0  0  0  0  0  0  0  0  0  0  0  0
   -1.0985   23.2014  -25.0022 H   0  0  0  0  0  0  0  0  0  0  0  0
    0.5495   23.9162  -25.0022 H   0  0  0  0  0  0  0  0  0  0  0  0
    1.1608   25.6841  -26.2487 H   0  0  0  0  0  0  0  0  0  0  0  0
    0.7104   24.5886  -27.5992 H   0  0  0  0  0  0  0  0  0  0  0  0
    0.1452   26.2937  -27.5992 H   0  0  0  0  0  0  0  0  0  0  0  0
   -5.0722   25.4298  -28.3744 H   0  0  0  0  0  0  0  0  0  0  0  0
   -6.5909   23.7843  -29.8637 H   0  0  0  0  0  0  0  0  0  0  0  0
   -5.1261   20.7016  -30.4735 H   0  0  0  0  0  0  0  0  0  0  0  0
   -3.8168   22.3134  -32.6499 H   0  0  0  0  0  0  0  0  0  0  0  0
   -3.4111   20.6812  -31.9646 H   0  0  0  0  0  0  0  0  0  0  0  0
   -5.3944   21.4290  -34.1183 H   0  0  0  0  0  0  0  0  0  0  0  0
   -4.2242   20.0649  -34.0438 H   0  0  0  0  0  0  0  0  0  0  0  0
   -7.5599   18.7230  -33.8884 H   0  0  0  0  0  0  0  0  0  0  0  0
   -6.0744   19.0653  -34.9021 H   0  0  0  0  0  0  0  0  0  0  0  0
   -7.5702   16.3638  -34.6505 H   0  0  0  0  0  0  0  0  0  0  0  0
   -6.6871   14.0732  -34.2097 H   0  0  0  0  0  0  0  0  0  0  0  0
   -3.3130   15.7771  -32.1013 H   0  0  0  0  0  0  0  0  0  0  0  0
   -4.1928   18.0681  -32.5386 H   0  0  0  0  0  0  0  0  0  0  0  0
   -7.7938   20.8855  -33.1227 H   0  0  0  0  0  0  0  0  0  0  0  0
   -7.6305   19.8650  -31.6248 H   0  0  0  0  0  0  0  0  0  0  0  0
   -6.7225   22.6649  -32.1518 H   0  0  0  0  0  0  0  0  0  0  0  0
   -7.2426   21.8559  -30.6178 H   0  0  0  0  0  0  0  0  0  0  0  0
  1  2  1  0
  2  3  1  0
  3  4  1  0
  4  5  2  0
  4  6  1  0
  6  7  1  0
  7  8  1  0
  7  9  1  0
  7 10  1  0
  3 11  2  0
 11 12  1  0
 12 13  2  0
 13 14  1  0
 14 15  1  0
 15 16  1  0
 16 17  1  0
 17 18  1  0
 18 19  1  0
 19 20  2  0
 20 21  1  0
 21 22  2  0
 22 23  1  0
 23 24  3  0
 22 25  1  0
 25 26  2  0
 17 27  1  0
 27 28  1  0
 13  2  1  0
 28 14  1  0
 26 19  1  0
  1 29  1  0
  1 30  1  0
  1 31  1  0
  6 32  1  0
  8 33  1  0
  8 34  1  0
  8 35  1  0
  9 36  1  0
  9 37  1  0
  9 38  1  0
 10 39  1  0
 10 40  1  0
 10 41  1  0
 11 42  1  0
 12 43  1  0
 14 44  1  0
 15 45  1  0
 15 46  1  0
 16 47  1  0
 16 48  1  0
 18 49  1  0
 18 50  1  0
 20 51  1  0
 21 52  1  0
 25 53  1  0
 26 54  1  0
 27 55  1  0
 27 56  1  0
 28 57  1  0
 28 58  1  0
M  END
>  <UniqueID>  (31) 
28

>  <SMILES>  (31) 
Cn1c(C(=O)NC(C)(C)C)ccc1C1CCN(Cc2ccc(C#N)cc2)CC1

>  <Energy>  (31) 
93.14187357365785

>  <Genealogy>  (31) 
Cn1c(C(=O)NC(C)(C)C)ccc1C1CCN(Cc2ccc(C#N)cc2)CC1 (3D coordinates assigned)
Cn1c(C(=O)NC(C)(C)C)ccc1C1CCN(Cc2ccc(C#N)cc2)CC1 (nonaromatic ring conformer: 93.14187357365785 kcal/mol)

>  <smiles>  (31) 
Cn1c(C(=O)NC(C)(C)C)ccc1C1CCN(Cc2ccc(C#N)cc2)CC1

>  <score_type>  (31) 
oracle

>  <origin>  (31) 
adg

>  <m_score__min__energy>  (31) 
-8.8499999999999996

>  <m_primary>  (31) 
energy

$$$$
32:0
     RDKit          3D

 61 63  0  0  0  0  0  0  0  0999 V2000
   -3.2670   15.7840  -33.7320 C   0  0  0  0  0  0  0  0  0  0  0  0
   -4.0480   16.3420  -34.9210 C   0  0  0  0  0  0  0  0  0  0  0  0
   -4.4740   17.7380  -34.6580 N   0  0  0  0  0  0  0  0  0  0  0  0
   -3.8280   18.2760  -33.4390 C   0  0  0  0  0  0  0  0  0  0  0  0
   -3.5680   19.7740  -33.5880 C   0  0  0  0  0  0  0  0  0  0  0  0
   -5.9540   17.8560  -34.5970 C   0  0  0  0  0  0  0  0  0  0  0  0
   -6.5350   16.7660  -33.6940 C   0  0  0  0  0  0  0  0  0  0  0  0
   -7.5920   17.3070  -32.8380 N   0  0  0  0  0  0  0  0  0  0  0  0
   -7.6460   18.6760  -32.4020 C   0  0  0  0  0  0  0  0  0  0  0  0
   -8.8630   19.3680  -32.4690 C   0  0  0  0  0  0  0  0  0  0  0  0
   -8.9400   20.7100  -32.0860 C   0  0  0  0  0  0  0  0  0  0  0  0
   -7.7930   21.3830  -31.6440 C   0  0  0  0  0  0  0  0  0  0  0  0
   -7.8510   22.7310  -31.2710 C   0  0  0  0  0  0  0  0  0  0  0  0
   -6.6880   23.3880  -30.8540 C   0  0  0  0  0  0  0  0  0  0  0  0
   -6.7180   24.7390  -30.4830 C   0  0  0  0  0  0  0  0  0  0  0  0
   -5.5460   25.3850  -30.0810 C   0  0  0  0  0  0  0  0  0  0  0  0
   -4.3220   24.6880  -30.0500 C   0  0  0  0  0  0  0  0  0  0  0  0
   -3.1120   25.2890  -29.6660 O   0  0  0  0  0  0  0  0  0  0  0  0
   -2.3200   24.9310  -28.5300 C   0  0  0  0  0  0  0  0  0  0  0  0
   -1.0000   24.2860  -28.9670 C   0  0  0  0  0  0  0  0  0  0  0  0
    0.1430   24.8540  -28.2160 N   0  0  0  0  0  0  0  0  0  0  0  0
   -0.2800   26.0120  -27.4100 C   0  0  0  0  0  0  0  0  0  0  0  0
    0.7480   23.8370  -27.3410 C   0  0  0  0  0  0  0  0  0  0  0  0
   -4.2980   23.3330  -30.4020 C   0  0  0  0  0  0  0  0  0  0  0  0
   -5.4690   22.6760  -30.8110 C   0  0  0  0  0  0  0  0  0  0  0  0
   -5.4340   21.3600  -31.1730 N   0  0  0  0  0  0  0  0  0  0  0  0
   -6.5570   20.7020  -31.5860 C   0  0  0  0  0  0  0  0  0  0  0  0
   -6.4900   19.3520  -31.9700 C   0  0  0  0  0  0  0  0  0  0  0  0
   -3.7362   16.1192  -32.7953 H   0  0  0  0  0  0  0  0  0  0  0  0
   -3.2734   14.6848  -33.7724 H   0  0  0  0  0  0  0  0  0  0  0  0
   -2.2292   16.1463  -33.7724 H   0  0  0  0  0  0  0  0  0  0  0  0
   -3.4078   16.3220  -35.8153 H   0  0  0  0  0  0  0  0  0  0  0  0
   -4.9430   15.7224  -35.0792 H   0  0  0  0  0  0  0  0  0  0  0  0
   -4.4878   18.1073  -32.5752 H   0  0  0  0  0  0  0  0  0  0  0  0
   -2.8675   17.7614  -33.2888 H   0  0  0  0  0  0  0  0  0  0  0  0
   -3.4883   20.2332  -32.5916 H   0  0  0  0  0  0  0  0  0  0  0  0
   -2.6293   19.9301  -34.1398 H   0  0  0  0  0  0  0  0  0  0  0  0
   -4.3992   20.2373  -34.1398 H   0  0  0  0  0  0  0  0  0  0  0  0
   -6.2233   18.8434  -34.1938 H   0  0  0  0  0  0  0  0  0  0  0  0
   -6.3651   17.7389  -35.6105 H   0  0  0  0  0  0  0  0  0  0  0  0
   -6.9534   15.9643  -34.3203 H   0  0  0  0  0  0  0  0  0  0  0  0
   -5.7308   16.3730  -33.0545 H   0  0  0  0  0  0  0  0  0  0  0  0
   -8.3050   16.6430  -32.4600 H   0  0  0  0  0  0  0  0  0  0  0  0
   -9.7655   18.8504  -32.8262 H   0  0  0  0  0  0  0  0  0  0  0  0
   -9.9033   21.2392  -32.1316 H   0  0  0  0  0  0  0  0  0  0  0  0
   -8.8080   23.2722  -31.3056 H   0  0  0  0  0  0  0  0  0  0  0  0
   -7.6679   25.2931  -30.5083 H   0  0  0  0  0  0  0  0  0  0  0  0
   -5.5792   26.4444  -29.7869 H   0  0  0  0  0  0  0  0  0  0  0  0
   -2.1023   25.8354  -27.9429 H   0  0  0  0  0  0  0  0  0  0  0  0
   -2.8822   24.2061  -27.9231 H   0  0  0  0  0  0  0  0  0  0  0  0
   -1.0500   23.2030  -28.7809 H   0  0  0  0  0  0  0  0  0  0  0  0
   -0.8498   24.4867  -30.0380 H   0  0  0  0  0  0  0  0  0  0  0  0
   -0.1906   25.7672  -26.3413 H   0  0  0  0  0  0  0  0  0  0  0  0
    0.3610   26.8750  -27.6434 H   0  0  0  0  0  0  0  0  0  0  0  0
   -1.3263   26.2586  -27.6434 H   0  0  0  0  0  0  0  0  0  0  0  0
    0.5835   24.1135  -26.2891 H   0  0  0  0  0  0  0  0  0  0  0  0
    0.2845   22.8595  -27.5399 H   0  0  0  0  0  0  0  0  0  0  0  0
    1.8282   23.7778  -27.5399 H   0  0  0  0  0  0  0  0  0  0  0  0
   -3.3501   22.7767  -30.3575 H   0  0  0  0  0  0  0  0  0  0  0  0
   -4.5230   20.8450  -31.1390 H   0  0  0  0  0  0  0  0  0  0  0  0
   -5.5278   18.8203  -31.9327 H   0  0  0  0  0  0  0  0  0  0  0  0
  1  2  1  0
  2  3  1  0
  3  4  1  0
  4  5  1  0
  3  6  1  0
  6  7  1  0
  7  8  1  0
  8  9  1  0
  9 10  2  0
 10 11  1  0
 11 12  2  0
 12 13  1  0
 13 14  2  0
 14 15  1  0
 15 16  2  0
 16 17  1  0
 17 18  1  0
 18 19  1  0
 19 20  1  0
 20 21  1  0
 21 22  1  0
 21 23  1  0
 17 24  2  0
 24 25  1  0
 25 26  2  0
 26 27  1  0
 27 28  2  0
 28  9  1  0
 27 12  1  0
 25 14  1  0
  1 29  1  0
  1 30  1  0
  1 31  1  0
  2 32  1  0
  2 33  1  0
  4 34  1  0
  4 35  1  0
  5 36  1  0
  5 37  1  0
  5 38  1  0
  6 39  1  0
  6 40  1  0
  7 41  1  0
  7 42  1  0
  8 43  1  0
 10 44  1  0
 11 45  1  0
 13 46  1  0
 15 47  1  0
 16 48  1  0
 19 49  1  0
 19 50  1  0
 20 51  1  0
 20 52  1  0
 22 53  1  0
 22 54  1  0
 22 55  1  0
 23 56  1  0
 23 57  1  0
 23 58  1  0
 24 59  1  0
 26 60  1  0
 28 61  1  0
M  CHG  1  26   1
M  END
>  <UniqueID>  (32) 
29

>  <SMILES>  (32) 
CCN(CC)CCNc1ccc2cc3ccc(OCCN(C)C)cc3[nH+]c2c1

>  <Energy>  (32) 
68.85406787096315

>  <Genealogy>  (32) 
CCN(CC)CCNc1ccc2cc3ccc(OCCN(C)C)cc3[nH+]c2c1 (protonated)
CCN(CC)CCNc1ccc2cc3ccc(OCCN(C)C)cc3[nH+]c2c1 (3D coordinates assigned)
CCN(CC)CCNc1ccc2cc3ccc(OCCN(C)C)cc3[nH+]c2c1 (optimized conformer: 68.85406787096315 kcal/mol)

>  <smiles>  (32) 
CCN(CC)CCNc1ccc2cc3ccc(OCCN(C)C)cc3nc2c1

>  <score_type>  (32) 
oracle

>  <origin>  (32) 
adg

>  <m_score__min__energy>  (32) 
-8.2699999999999996

>  <m_primary>  (32) 
energy

$$$$
33:0
     RDKit          3D

 64 66  0  0  0  0  0  0  0  0999 V2000
   -9.4670   19.3670  -32.7740 C   0  0  0  0  0  0  0  0  0  0  0  0
   -8.1400   19.6030  -32.1860 N   0  0  0  0  0  0  0  0  0  0  0  0
   -7.6630   18.3730  -31.5290 C   0  0  0  0  0  0  0  0  0  0  0  0
   -8.1810   20.7320  -31.2320 C   0  0  0  0  0  0  0  0  0  0  0  0
   -8.0530   22.0720  -31.9660 C   0  0  0  0  0  0  0  0  0  0  0  0
   -6.6810   22.4060  -32.1770 O   0  0  0  0  0  0  0  0  0  0  0  0
   -5.8060   22.9600  -31.2260 C   0  0  0  0  0  0  0  0  0  0  0  0
   -6.2580   23.8490  -30.2340 C   0  0  0  0  0  0  0  0  0  0  0  0
   -5.3770   24.3570  -29.2790 C   0  0  0  0  0  0  0  0  0  0  0  0
   -4.0250   23.9880  -29.2920 C   0  0  0  0  0  0  0  0  0  0  0  0
   -3.0840   24.5220  -28.2750 C   0  0  0  0  0  0  0  0  0  0  0  0
   -3.4930   24.6860  -26.9390 C   0  0  0  0  0  0  0  0  0  0  0  0
   -2.6030   25.1780  -25.9810 C   0  0  0  0  0  0  0  0  0  0  0  0
   -1.2890   25.5140  -26.3380 C   0  0  0  0  0  0  0  0  0  0  0  0
   -0.3360   26.0600  -25.3000 C   0  0  0  0  0  0  0  0  0  0  0  0
   -0.9930   27.0410  -24.4050 N   0  0  0  0  0  0  0  0  0  0  0  0
   -0.7170   28.4260  -24.8300 C   0  0  0  0  0  0  0  0  0  0  0  0
   -0.5300   26.8450  -23.0200 C   0  0  0  0  0  0  0  0  0  0  0  0
   -0.8790   25.3590  -27.6710 C   0  0  0  0  0  0  0  0  0  0  0  0
   -1.7670   24.8660  -28.6300 C   0  0  0  0  0  0  0  0  0  0  0  0
   -3.5710   23.1110  -30.2880 C   0  0  0  0  0  0  0  0  0  0  0  0
   -4.4400   22.6160  -31.2740 C   0  0  0  0  0  0  0  0  0  0  0  0
   -3.8470   21.4980  -32.5280 S   0  0  0  0  0  0  0  0  0  0  0  0
   -2.4380   21.0980  -32.1870 O   0  0  0  0  0  0  0  0  0  0  0  0
   -3.8300   22.2280  -33.8400 O   0  0  0  0  0  0  0  0  0  0  0  0
   -4.7630   20.0150  -32.7080 N   0  0  0  0  0  0  0  0  0  0  0  0
   -5.6820   20.0460  -33.8470 C   0  0  0  0  0  0  0  0  0  0  0  0
   -5.7800   18.6250  -34.3680 C   0  0  0  0  0  0  0  0  0  0  0  0
   -4.4740   17.9690  -33.9670 C   0  0  0  0  0  0  0  0  0  0  0  0
   -3.9220   18.8180  -32.8260 C   0  0  0  0  0  0  0  0  0  0  0  0
  -10.2062   19.2355  -31.9700 H   0  0  0  0  0  0  0  0  0  0  0  0
   -9.7510   20.2287  -33.3959 H   0  0  0  0  0  0  0  0  0  0  0  0
   -9.4365   18.4602  -33.3959 H   0  0  0  0  0  0  0  0  0  0  0  0
   -7.7115   18.4980  -30.4372 H   0  0  0  0  0  0  0  0  0  0  0  0
   -8.2981   17.5267  -31.8297 H   0  0  0  0  0  0  0  0  0  0  0  0
   -6.6234   18.1762  -31.8297 H   0  0  0  0  0  0  0  0  0  0  0  0
   -9.1365   20.7092  -30.6876 H   0  0  0  0  0  0  0  0  0  0  0  0
   -7.3382   20.6322  -30.5322 H   0  0  0  0  0  0  0  0  0  0  0  0
   -8.5603   21.9998  -32.9394 H   0  0  0  0  0  0  0  0  0  0  0  0
   -8.5160   22.8569  -31.3499 H   0  0  0  0  0  0  0  0  0  0  0  0
   -7.3167   24.1466  -30.2110 H   0  0  0  0  0  0  0  0  0  0  0  0
   -5.7461   25.0520  -28.5104 H   0  0  0  0  0  0  0  0  0  0  0  0
   -4.5208   24.4250  -26.6466 H   0  0  0  0  0  0  0  0  0  0  0  0
   -2.9351   25.3027  -24.9398 H   0  0  0  0  0  0  0  0  0  0  0  0
    0.0447   25.2251  -24.6933 H   0  0  0  0  0  0  0  0  0  0  0  0
    0.4815   26.5745  -25.8264 H   0  0  0  0  0  0  0  0  0  0  0  0
   -2.0290   26.8870  -24.4190 H   0  0  0  0  0  0  0  0  0  0  0  0
   -0.5900   29.0634  -23.9426 H   0  0  0  0  0  0  0  0  0  0  0  0
    0.2032   28.4483  -25.4322 H   0  0  0  0  0  0  0  0  0  0  0  0
   -1.5584   28.7993  -25.4322 H   0  0  0  0  0  0  0  0  0  0  0  0
   -1.3125   27.1763  -22.3215 H   0  0  0  0  0  0  0  0  0  0  0  0
   -0.3161   25.7791  -22.8523 H   0  0  0  0  0  0  0  0  0  0  0  0
    0.3842   27.4333  -22.8523 H   0  0  0  0  0  0  0  0  0  0  0  0
    0.1473   25.6272  -27.9624 H   0  0  0  0  0  0  0  0  0  0  0  0
   -1.4337   24.7458  -29.6714 H   0  0  0  0  0  0  0  0  0  0  0  0
   -2.5144   22.8051  -30.2970 H   0  0  0  0  0  0  0  0  0  0  0  0
   -6.6723   20.4008  -33.5253 H   0  0  0  0  0  0  0  0  0  0  0  0
   -5.3195   20.7295  -34.6289 H   0  0  0  0  0  0  0  0  0  0  0  0
   -6.6321   18.1027  -33.9085 H   0  0  0  0  0  0  0  0  0  0  0  0
   -5.9409   18.5940  -35.4557 H   0  0  0  0  0  0  0  0  0  0  0  0
   -4.6506   16.9377  -33.6276 H   0  0  0  0  0  0  0  0  0  0  0  0
   -3.7703   17.9138  -34.8107 H   0  0  0  0  0  0  0  0  0  0  0  0
   -3.9512   18.2464  -31.8866 H   0  0  0  0  0  0  0  0  0  0  0  0
   -2.8784   19.1008  -33.0284 H   0  0  0  0  0  0  0  0  0  0  0  0
  1  2  1  0
  2  3  1  0
  2  4  1  0
  4  5  1  0
  5  6  1  0
  6  7  1  0
  7  8  2  0
  8  9  1  0
  9 10  2  0
 10 11  1  0
 11 12  2  0
 12 13  1  0
 13 14  2  0
 14 15  1  0
 15 16  1  0
 16 17  1  0
 16 18  1  0
 14 19  1  0
 19 20  2  0
 10 21  1  0
 21 22  2  0
 22 23  1  0
 23 24  2  0
 23 25  2  0
 23 26  1  0
 26 27  1  0
 27 28  1  0
 28 29  1  0
 29 30  1  0
 22  7  1  0
 30 26  1  0
 20 11  1  0
  1 31  1  0
  1 32  1  0
  1 33  1  0
  3 34  1  0
  3 35  1  0
  3 36  1  0
  4 37  1  0
  4 38  1  0
  5 39  1  0
  5 40  1  0
  8 41  1  0
  9 42  1  0
 12 43  1  0
 13 44  1  0
 15 45  1  0
 15 46  1  0
 16 47  1  0
 17 48  1  0
 17 49  1  0
 17 50  1  0
 18 51  1  0
 18 52  1  0
 18 53  1  0
 19 54  1  0
 20 55  1  0
 21 56  1  0
 27 57  1  0
 27 58  1  0
 28 59  1  0
 28 60  1  0
 29 61  1  0
 29 62  1  0
 30 63  1  0
 30 64  1  0
M  CHG  1  16   1
M  END
>  <UniqueID>  (33) 
30

>  <SMILES>  (33) 
CN(C)CCOc1ccc(-c2ccc(C[NH+](C)C)cc2)cc1S(=O)(=O)N1CCCC1

>  <Energy>  (33) 
73.33648435628218

>  <Genealogy>  (33) 
CN(C)CCOc1ccc(-c2ccc(C[NH+](C)C)cc2)cc1S(=O)(=O)N1CCCC1 (protonated)
CN(C)CCOc1ccc(-c2ccc(C[NH+](C)C)cc2)cc1S(=O)(=O)N1CCCC1 (3D coordinates assigned)
CN(C)CCOc1ccc(-c2ccc(C[NH+](C)C)cc2)cc1S(=O)(=O)N1CCCC1 (nonaromatic ring conformer: 73.33648435628218 kcal/mol)

>  <smiles>  (33) 
CN(C)CCOc1ccc(-c2ccc(CN(C)C)cc2)cc1S(=O)(=O)N1CCCC1

>  <score_type>  (33) 
oracle

>  <origin>  (33) 
adg

>  <m_score__min__energy>  (33) 
-9.4600000000000009

>  <m_primary>  (33) 
energy

$$$$
34:0
     RDKit          3D

 41 42  0  0  0  0  0  0  0  0999 V2000
   -4.2660   19.0300  -33.8160 C   0  0  0  0  0  0  0  0  0  0  0  0
   -5.5420   18.2900  -34.2310 C   0  0  0  0  0  0  0  0  0  0  0  0
   -5.9920   17.2940  -33.2250 N   0  0  0  0  0  0  0  0  0  0  0  0
   -6.8290   16.2360  -33.8560 C   0  0  0  0  0  0  0  0  0  0  0  0
   -6.0290   14.9670  -34.1740 C   0  0  0  0  0  0  0  0  0  0  0  0
   -6.6790   17.8990  -32.0500 C   0  0  0  0  0  0  0  0  0  0  0  0
   -8.1290   18.3770  -32.3020 C   0  0  0  0  0  0  0  0  0  0  0  0
   -8.1540   19.6690  -32.9910 N   0  0  0  0  0  0  0  0  0  0  0  0
   -7.7250   20.9020  -32.3860 C   0  0  0  0  0  0  0  0  0  0  0  0
   -8.6910   21.8290  -31.9620 C   0  0  0  0  0  0  0  0  0  0  0  0
   -8.3120   23.0290  -31.3560 C   0  0  0  0  0  0  0  0  0  0  0  0
   -6.9560   23.3180  -31.1510 C   0  0  0  0  0  0  0  0  0  0  0  0
   -6.5650   24.5200  -30.5410 C   0  0  0  0  0  0  0  0  0  0  0  0
   -5.2110   24.7910  -30.3310 C   0  0  0  0  0  0  0  0  0  0  0  0
   -4.2380   23.8680  -30.7270 C   0  0  0  0  0  0  0  0  0  0  0  0
   -4.6150   22.6680  -31.3360 C   0  0  0  0  0  0  0  0  0  0  0  0
   -5.9730   22.3830  -31.5540 C   0  0  0  0  0  0  0  0  0  0  0  0
   -6.3630   21.1810  -32.1640 C   0  0  0  0  0  0  0  0  0  0  0  0
   -4.2036   19.0662  -32.7184 H   0  0  0  0  0  0  0  0  0  0  0  0
   -3.3886   18.5006  -34.2159 H   0  0  0  0  0  0  0  0  0  0  0  0
   -4.2898   20.0545  -34.2159 H   0  0  0  0  0  0  0  0  0  0  0  0
   -6.3440   19.0290  -34.3749 H   0  0  0  0  0  0  0  0  0  0  0  0
   -5.3161   17.7412  -35.1572 H   0  0  0  0  0  0  0  0  0  0  0  0
   -5.1330   16.8310  -32.8390 H   0  0  0  0  0  0  0  0  0  0  0  0
   -7.6460   15.9748  -33.1673 H   0  0  0  0  0  0  0  0  0  0  0  0
   -7.2135   16.6358  -34.8059 H   0  0  0  0  0  0  0  0  0  0  0  0
   -5.7230   14.4816  -33.2355 H   0  0  0  0  0  0  0  0  0  0  0  0
   -6.6548   14.2756  -34.7573 H   0  0  0  0  0  0  0  0  0  0  0  0
   -5.1353   15.2335  -34.7573 H   0  0  0  0  0  0  0  0  0  0  0  0
   -6.7043   17.1471  -31.2475 H   0  0  0  0  0  0  0  0  0  0  0  0
   -6.1032   18.8005  -31.7935 H   0  0  0  0  0  0  0  0  0  0  0  0
   -8.6491   17.6312  -32.9211 H   0  0  0  0  0  0  0  0  0  0  0  0
   -8.6288   18.4940  -31.3291 H   0  0  0  0  0  0  0  0  0  0  0  0
   -8.2080   19.6380  -34.0340 H   0  0  0  0  0  0  0  0  0  0  0  0
   -9.7584   21.6075  -32.1088 H   0  0  0  0  0  0  0  0  0  0  0  0
   -9.0802   23.7495  -31.0386 H   0  0  0  0  0  0  0  0  0  0  0  0
   -7.3261   25.2498  -30.2278 H   0  0  0  0  0  0  0  0  0  0  0  0
   -4.9089   25.7341  -29.8523 H   0  0  0  0  0  0  0  0  0  0  0  0
   -3.1732   24.0870  -30.5587 H   0  0  0  0  0  0  0  0  0  0  0  0
   -3.8462   21.9447  -31.6455 H   0  0  0  0  0  0  0  0  0  0  0  0
   -5.5991   20.4515  -32.4709 H   0  0  0  0  0  0  0  0  0  0  0  0
  1  2  1  0
  2  3  1  0
  3  4  1  0
  4  5  1  0
  3  6  1  0
  6  7  1  0
  7  8  1  0
  8  9  1  0
  9 10  2  0
 10 11  1  0
 11 12  2  0
 12 13  1  0
 13 14  2  0
 14 15  1  0
 15 16  2  0
 16 17  1  0
 17 18  2  0
 18  9  1  0
 17 12  1  0
  1 19  1  0
  1 20  1  0
  1 21  1  0
  2 22  1  0
  2 23  1  0
  3 24  1  0
  4 25  1  0
  4 26  1  0
  5 27  1  0
  5 28  1  0
  5 29  1  0
  6 30  1  0
  6 31  1  0
  7 32  1  0
  7 33  1  0
  8 34  1  0
 10 35  1  0
 11 36  1  0
 13 37  1  0
 14 38  1  0
 15 39  1  0
 16 40  1  0
 18 41  1  0
M  CHG  1   3   1
M  END
>  <UniqueID>  (34) 
31

>  <SMILES>  (34) 
CC[NH+](CC)CCNc1ccc2ccccc2c1

>  <Energy>  (34) 
48.33490123644958

>  <Genealogy>  (34) 
CC[NH+](CC)CCNc1ccc2ccccc2c1 (protonated)
CC[NH+](CC)CCNc1ccc2ccccc2c1 (3D coordinates assigned)
CC[NH+](CC)CCNc1ccc2ccccc2c1 (optimized conformer: 48.33490123644958 kcal/mol)

>  <smiles>  (34) 
CCN(CC)CCNc1ccc2ccccc2c1

>  <score_type>  (34) 
oracle

>  <origin>  (34) 
adg

>  <m_score__min__energy>  (34) 
-6.1299999999999999

>  <m_primary>  (34) 
energy

$$$$
35:0
     RDKit          3D

 45 48  0  0  0  0  0  0  0  0999 V2000
   -6.4870   24.7050  -29.7150 O   0  0  0  0  0  0  0  0  0  0  0  0
   -5.1640   24.3100  -30.3100 S   0  0  0  0  0  0  0  0  0  0  0  0
   -4.7060   25.4260  -31.2080 O   0  0  0  0  0  0  0  0  0  0  0  0
   -3.9830   24.0870  -29.0170 C   0  0  0  0  0  0  0  0  0  0  0  0
   -4.2570   24.5390  -27.7210 C   0  0  0  0  0  0  0  0  0  0  0  0
   -3.3240   24.3530  -26.6970 C   0  0  0  0  0  0  0  0  0  0  0  0
   -2.0980   23.7130  -26.9520 C   0  0  0  0  0  0  0  0  0  0  0  0
   -1.1470   23.5260  -25.8840 N   0  0  0  0  0  0  0  0  0  0  0  0
   -0.4450   22.4220  -25.5560 C   0  0  0  0  0  0  0  0  0  0  0  0
    0.3360   22.6730  -24.4870 N   0  0  0  0  0  0  0  0  0  0  0  0
    0.0900   23.9390  -24.1840 N   0  0  0  0  0  0  0  0  0  0  0  0
   -0.7960   24.4590  -25.0150 N   0  0  0  0  0  0  0  0  0  0  0  0
   -1.8280   23.2630  -28.2590 C   0  0  0  0  0  0  0  0  0  0  0  0
   -2.7630   23.4510  -29.2810 C   0  0  0  0  0  0  0  0  0  0  0  0
   -5.3620   22.8540  -31.2550 N   0  0  0  0  0  0  0  0  0  0  0  0
   -6.5310   22.9710  -32.1400 C   0  0  0  0  0  0  0  0  0  0  0  0
   -6.8540   21.5890  -32.7190 C   0  0  0  0  0  0  0  0  0  0  0  0
   -5.6200   20.8470  -33.0130 N   0  0  0  0  0  0  0  0  0  0  0  0
   -5.6650   19.4200  -33.2060 C   0  0  0  0  0  0  0  0  0  0  0  0
   -4.8870   18.8080  -34.2050 C   0  0  0  0  0  0  0  0  0  0  0  0
   -4.9410   17.4240  -34.3960 C   0  0  0  0  0  0  0  0  0  0  0  0
   -5.7770   16.6380  -33.5980 C   0  0  0  0  0  0  0  0  0  0  0  0
   -5.8460   14.9020  -33.8410 Cl  0  0  0  0  0  0  0  0  0  0  0  0
   -6.5620   17.2380  -32.6080 C   0  0  0  0  0  0  0  0  0  0  0  0
   -6.5090   18.6210  -32.4140 C   0  0  0  0  0  0  0  0  0  0  0  0
   -4.3680   21.5920  -33.1930 C   0  0  0  0  0  0  0  0  0  0  0  0
   -4.1280   22.5650  -32.0190 C   0  0  0  0  0  0  0  0  0  0  0  0
   -5.2111   25.0430  -27.5073 H   0  0  0  0  0  0  0  0  0  0  0  0
   -3.5509   24.7107  -25.6818 H   0  0  0  0  0  0  0  0  0  0  0  0
   -0.5017   21.4584  -26.0836 H   0  0  0  0  0  0  0  0  0  0  0  0
    0.5370   24.4560  -23.3950 H   0  0  0  0  0  0  0  0  0  0  0  0
   -0.8744   22.7599  -28.4772 H   0  0  0  0  0  0  0  0  0  0  0  0
   -2.5395   23.0975  -30.2984 H   0  0  0  0  0  0  0  0  0  0  0  0
   -7.3931   23.3419  -31.5663 H   0  0  0  0  0  0  0  0  0  0  0  0
   -6.3125   23.6757  -32.9559 H   0  0  0  0  0  0  0  0  0  0  0  0
   -7.4508   21.0223  -31.9891 H   0  0  0  0  0  0  0  0  0  0  0  0
   -7.4185   21.7207  -33.6539 H   0  0  0  0  0  0  0  0  0  0  0  0
   -4.2318   19.4221  -34.8402 H   0  0  0  0  0  0  0  0  0  0  0  0
   -4.3244   16.9529  -35.1757 H   0  0  0  0  0  0  0  0  0  0  0  0
   -7.2221   16.6204  -31.9812 H   0  0  0  0  0  0  0  0  0  0  0  0
   -7.1316   19.0878  -31.6366 H   0  0  0  0  0  0  0  0  0  0  0  0
   -3.5309   20.8804  -33.2470 H   0  0  0  0  0  0  0  0  0  0  0  0
   -4.4389   22.1760  -34.1225 H   0  0  0  0  0  0  0  0  0  0  0  0
   -3.3887   22.1187  -31.3376 H   0  0  0  0  0  0  0  0  0  0  0  0
   -3.7696   23.5147  -32.4427 H   0  0  0  0  0  0  0  0  0  0  0  0
  1  2  2  0
  2  3  2  0
  2  4  1  0
  4  5  2  0
  5  6  1  0
  6  7  2  0
  7  8  1  0
  8  9  1  0
  9 10  2  0
 10 11  1  0
 11 12  2  0
  7 13  1  0
 13 14  2  0
  2 15  1  0
 15 16  1  0
 16 17  1  0
 17 18  1  0
 18 19  1  0
 19 20  2  0
 20 21  1  0
 21 22  2  0
 22 23  1  0
 22 24  1  0
 24 25  2  0
 18 26  1  0
 26 27  1  0
 14  4  1  0
 27 15  1  0
 12  8  1  0
 25 19  1  0
  5 28  1  0
  6 29  1  0
  9 30  1  0
 11 31  1  0
 13 32  1  0
 14 33  1  0
 16 34  1  0
 16 35  1  0
 17 36  1  0
 17 37  1  0
 20 38  1  0
 21 39  1  0
 24 40  1  0
 25 41  1  0
 26 42  1  0
 26 43  1  0
 27 44  1  0
 27 45  1  0
M  CHG  1  11   1
M  END
>  <UniqueID>  (35) 
32

>  <SMILES>  (35) 
O=S(=O)(c1ccc(-n2cn[nH+]n2)cc1)N1CCN(c2ccc(Cl)cc2)CC1

>  <Energy>  (35) 
98.0822025199418

>  <Genealogy>  (35) 
O=S(=O)(c1ccc(-n2cn[nH+]n2)cc1)N1CCN(c2ccc(Cl)cc2)CC1 (protonated)
O=S(=O)(c1ccc(-n2cn[nH+]n2)cc1)N1CCN(c2ccc(Cl)cc2)CC1 (3D coordinates assigned)
O=S(=O)(c1ccc(-n2cn[nH+]n2)cc1)N1CCN(c2ccc(Cl)cc2)CC1 (nonaromatic ring conformer: 98.0822025199418 kcal/mol)

>  <smiles>  (35) 
O=S(=O)(c1ccc(-n2cnnn2)cc1)N1CCN(c2ccc(Cl)cc2)CC1

>  <score_type>  (35) 
oracle

>  <origin>  (35) 
adg

>  <m_score__min__energy>  (35) 
-9.8599999999999994

>  <m_primary>  (35) 
energy

$$$$
36:0
     RDKit          3D

 40 41  0  0  0  0  0  0  0  0999 V2000
   -6.5314   23.5021  -32.7498 H   0  0  0  0  0  0  0  0  0  0  0  0
   -6.1830   23.3470  -31.7180 C   0  0  0  0  0  0  0  0  0  0  0  0
   -4.9850   24.0770  -31.2520 C   0  0  0  0  0  0  0  0  0  0  0  0
   -4.9910   25.3370  -31.2040 O   0  0  0  0  0  0  0  0  0  0  0  0
   -3.7550   23.3430  -30.8670 C   0  0  0  0  0  0  0  0  0  0  0  0
   -2.7780   23.9810  -30.0770 C   0  0  0  0  0  0  0  0  0  0  0  0
   -2.9490   25.2990  -29.6650 O   0  0  0  0  0  0  0  0  0  0  0  0
   -1.6140   23.3040  -29.7070 C   0  0  0  0  0  0  0  0  0  0  0  0
   -0.8602   23.8121  -29.0877 H   0  0  0  0  0  0  0  0  0  0  0  0
   -1.3990   21.9790  -30.1200 C   0  0  0  0  0  0  0  0  0  0  0  0
   -0.2420   21.2630  -29.7790 O   0  0  0  0  0  0  0  0  0  0  0  0
   -0.1500   20.3550  -28.6860 C   0  0  0  0  0  0  0  0  0  0  0  0
   -0.2066   20.9132  -27.7398 H   0  0  0  0  0  0  0  0  0  0  0  0
   -0.9798   19.6346  -28.7369 H   0  0  0  0  0  0  0  0  0  0  0  0
    0.8074   19.8157  -28.7369 H   0  0  0  0  0  0  0  0  0  0  0  0
   -2.3690   21.3390  -30.8960 C   0  0  0  0  0  0  0  0  0  0  0  0
   -2.2047   20.3011  -31.2213 H   0  0  0  0  0  0  0  0  0  0  0  0
   -3.5550   22.0040  -31.2680 C   0  0  0  0  0  0  0  0  0  0  0  0
   -4.5570   21.3550  -32.0120 O   0  0  0  0  0  0  0  0  0  0  0  0
   -4.3200   20.5350  -33.1530 C   0  0  0  0  0  0  0  0  0  0  0  0
   -4.0284   19.5262  -32.8254 H   0  0  0  0  0  0  0  0  0  0  0  0
   -5.2371   20.4735  -33.7572 H   0  0  0  0  0  0  0  0  0  0  0  0
   -3.5115   20.9723  -33.7572 H   0  0  0  0  0  0  0  0  0  0  0  0
   -6.8590   22.5030  -30.9270 C   0  0  0  0  0  0  0  0  0  0  0  0
   -6.7569   22.6168  -29.8377 H   0  0  0  0  0  0  0  0  0  0  0  0
   -7.7380   21.4230  -31.4400 C   0  0  0  0  0  0  0  0  0  0  0  0
   -9.0720   21.6580  -31.8260 C   0  0  0  0  0  0  0  0  0  0  0  0
   -9.4961   22.6694  -31.7410 H   0  0  0  0  0  0  0  0  0  0  0  0
   -9.8590   20.6140  -32.3160 C   0  0  0  0  0  0  0  0  0  0  0  0
  -10.9021   20.8048  -32.6086 H   0  0  0  0  0  0  0  0  0  0  0  0
   -9.3270   19.3290  -32.4360 C   0  0  0  0  0  0  0  0  0  0  0  0
   -9.9555   18.5105  -32.8169 H   0  0  0  0  0  0  0  0  0  0  0  0
   -8.0000   19.0760  -32.0750 C   0  0  0  0  0  0  0  0  0  0  0  0
   -7.5090   17.7690  -32.2210 O   0  0  0  0  0  0  0  0  0  0  0  0
   -6.1610   17.3830  -31.9780 C   0  0  0  0  0  0  0  0  0  0  0  0
   -5.9839   17.3323  -30.8935 H   0  0  0  0  0  0  0  0  0  0  0  0
   -5.9758   16.3957  -32.4263 H   0  0  0  0  0  0  0  0  0  0  0  0
   -5.4813   18.1226  -32.4263 H   0  0  0  0  0  0  0  0  0  0  0  0
   -7.2060   20.1300  -31.5810 C   0  0  0  0  0  0  0  0  0  0  0  0
   -6.1591   19.9388  -31.3029 H   0  0  0  0  0  0  0  0  0  0  0  0
  1  2  1  0
  2  3  1  0
  3  4  2  0
  3  5  1  0
  5  6  2  0
  6  7  1  0
  6  8  1  0
  8  9  1  0
  8 10  2  0
 10 11  1  0
 11 12  1  0
 12 13  1  0
 12 14  1  0
 12 15  1  0
 10 16  1  0
 16 17  1  0
 16 18  2  0
 18 19  1  0
 19 20  1  0
 20 21  1  0
 20 22  1  0
 20 23  1  0
  2 24  2  0
 24 25  1  0
 24 26  1  0
 26 27  2  0
 27 28  1  0
 27 29  1  0
 29 30  1  0
 29 31  2  0
 31 32  1  0
 31 33  1  0
 33 34  1  0
 34 35  1  0
 35 36  1  0
 35 37  1  0
 35 38  1  0
 33 39  2  0
 39 40  1  0
 18  5  1  0
 39 26  1  0
M  CHG  1   7  -1
M  END
>  <UniqueID>  (36) 
33

>  <SMILES>  (36) 
COc1cccc(/C=C/C(=O)c2c([O-])cc(OC)cc2OC)c1

>  <Energy>  (36) 
46.32971838310319

>  <Genealogy>  (36) 
COc1cccc(C=CC(=O)c2c([O-])cc(OC)cc2OC)c1 (protonated)
COc1cccc(/C=C/C(=O)c2c([O-])cc(OC)cc2OC)c1 (cis-trans isomerization)
COc1cccc(/C=C/C(=O)c2c([O-])cc(OC)cc2OC)c1 (3D coordinates assigned)
COc1cccc(/C=C/C(=O)c2c([O-])cc(OC)cc2OC)c1 (optimized conformer: 46.32971838310319 kcal/mol)

>  <smiles>  (36) 
COc1cccc(C=CC(=O)c2c(O)cc(OC)cc2OC)c1

>  <score_type>  (36) 
oracle

>  <origin>  (36) 
adg

>  <m_score__min__energy>  (36) 
-10.26

>  <m_primary>  (36) 
energy

$$$$
37:0
     RDKit          3D

 41 44  0  0  0  0  0  0  0  0999 V2000
   -6.1620   17.2140  -33.9820 C   0  0  0  0  0  0  0  0  0  0  0  0
   -6.7720   17.0200  -32.7420 C   0  0  0  0  0  0  0  0  0  0  0  0
   -7.3150   18.1090  -32.0550 C   0  0  0  0  0  0  0  0  0  0  0  0
   -7.2320   19.3900  -32.6220 C   0  0  0  0  0  0  0  0  0  0  0  0
   -7.7900   20.5950  -31.8990 C   0  0  0  0  0  0  0  0  0  0  0  0
   -6.8970   21.7760  -31.9280 N   0  0  0  0  0  0  0  0  0  0  0  0
   -5.4790   21.4280  -32.0920 C   0  0  0  0  0  0  0  0  0  0  0  0
   -4.6550   22.7070  -32.3330 C   0  0  0  0  0  0  0  0  0  0  0  0
   -5.3650   23.9010  -32.0360 O   0  0  0  0  0  0  0  0  0  0  0  0
   -6.0480   23.8260  -30.7940 C   0  0  2  0  0  0  0  0  0  0  0  0
   -5.0810   23.7810  -29.6340 C   0  0  0  0  0  0  0  0  0  0  0  0
   -3.9940   24.5680  -29.5120 N   0  0  0  0  0  0  0  0  0  0  0  0
   -3.5010   24.1660  -28.3230 C   0  0  0  0  0  0  0  0  0  0  0  0
   -2.2780   24.7280  -27.7120 C   0  0  0  0  0  0  0  0  0  0  0  0
   -2.3030   25.2590  -26.4120 C   0  0  0  0  0  0  0  0  0  0  0  0
   -1.1380   25.7840  -25.8490 C   0  0  0  0  0  0  0  0  0  0  0  0
    0.0450   25.7730  -26.5900 C   0  0  0  0  0  0  0  0  0  0  0  0
    0.0570   25.2550  -27.8460 N   0  0  0  0  0  0  0  0  0  0  0  0
   -1.0640   24.7380  -28.4180 C   0  0  0  0  0  0  0  0  0  0  0  0
   -4.2520   23.1990  -27.7580 N   0  0  0  0  0  0  0  0  0  0  0  0
   -5.2190   22.9910  -28.5970 O   0  0  0  0  0  0  0  0  0  0  0  0
   -7.0870   22.6730  -30.7740 C   0  0  0  0  0  0  0  0  0  0  0  0
   -6.6400   19.5490  -33.8380 N   0  0  0  0  0  0  0  0  0  0  0  0
   -6.1090   18.5000  -34.5220 C   0  0  0  0  0  0  0  0  0  0  0  0
   -5.7279   16.3632  -34.5276 H   0  0  0  0  0  0  0  0  0  0  0  0
   -6.8253   16.0115  -32.3060 H   0  0  0  0  0  0  0  0  0  0  0  0
   -7.8025   17.9636  -31.0797 H   0  0  0  0  0  0  0  0  0  0  0  0
   -8.7450   20.8707  -32.3702 H   0  0  0  0  0  0  0  0  0  0  0  0
   -7.9084   20.3088  -30.8435 H   0  0  0  0  0  0  0  0  0  0  0  0
   -5.1180   20.9265  -31.1820 H   0  0  0  0  0  0  0  0  0  0  0  0
   -5.3666   20.7544  -32.9543 H   0  0  0  0  0  0  0  0  0  0  0  0
   -3.7575   22.6681  -31.6981 H   0  0  0  0  0  0  0  0  0  0  0  0
   -4.4063   22.7355  -33.4041 H   0  0  0  0  0  0  0  0  0  0  0  0
   -6.6293   24.7519  -30.6726 H   0  0  0  0  0  0  0  0  0  0  0  0
   -3.2408   25.2613  -25.8371 H   0  0  0  0  0  0  0  0  0  0  0  0
   -1.1523   26.2021  -24.8317 H   0  0  0  0  0  0  0  0  0  0  0  0
    0.9686   26.1842  -26.1565 H   0  0  0  0  0  0  0  0  0  0  0  0
   -1.0193   24.3264  -29.4371 H   0  0  0  0  0  0  0  0  0  0  0  0
   -6.9672   22.0959  -29.8453 H   0  0  0  0  0  0  0  0  0  0  0  0
   -8.0962   23.1073  -30.8279 H   0  0  0  0  0  0  0  0  0  0  0  0
   -5.6373   18.6654  -35.5019 H   0  0  0  0  0  0  0  0  0  0  0  0
  1  2  2  0
  2  3  1  0
  3  4  2  0
  4  5  1  0
  5  6  1  0
  6  7  1  0
  7  8  1  0
  8  9  1  0
  9 10  1  0
 10 11  1  0
 11 12  2  0
 12 13  1  0
 13 14  1  0
 14 15  2  0
 15 16  1  0
 16 17  2  0
 17 18  1  0
 18 19  2  0
 13 20  2  0
 20 21  1  0
 10 22  1  0
  4 23  1  0
 23 24  2  0
 24  1  1  0
 22  6  1  0
 21 11  1  0
 19 14  1  0
  1 25  1  0
  2 26  1  0
  3 27  1  0
  5 28  1  0
  5 29  1  0
  7 30  1  0
  7 31  1  0
  8 32  1  0
  8 33  1  0
 10 34  1  1
 15 35  1  0
 16 36  1  0
 17 37  1  0
 19 38  1  0
 22 39  1  0
 22 40  1  0
 24 41  1  0
M  END
>  <UniqueID>  (37) 
34

>  <SMILES>  (37) 
c1ccc(CN2CCO[C@H](c3nc(-c4cccnc4)no3)C2)nc1

>  <Energy>  (37) 
93.45688527546744

>  <Genealogy>  (37) 
c1ccc(CN2CCO[C@H](c3nc(-c4cccnc4)no3)C2)nc1 (chirality)
c1ccc(CN2CCO[C@H](c3nc(-c4cccnc4)no3)C2)nc1 (3D coordinates assigned)
c1ccc(CN2CCO[C@H](c3nc(-c4cccnc4)no3)C2)nc1 (nonaromatic ring conformer: 93.45688527546744 kcal/mol)

>  <smiles>  (37) 
c1ccc(CN2CCOC(c3nc(-c4cccnc4)no3)C2)nc1

>  <score_type>  (37) 
oracle

>  <origin>  (37) 
adg

>  <m_score__min__energy>  (37) 
-8.5199999999999996

>  <m_primary>  (37) 
energy

$$$$
38:0
     RDKit          3D

 46 48  0  0  0  0  0  0  0  0999 V2000
   -5.6600   26.1580  -30.3360 C   0  0  0  0  0  0  0  0  0  0  0  0
   -4.8570   25.1300  -30.9100 O   0  0  0  0  0  0  0  0  0  0  0  0
   -5.3190   23.8420  -31.2180 C   0  0  0  0  0  0  0  0  0  0  0  0
   -4.4500   22.7630  -31.4390 C   0  0  0  0  0  0  0  0  0  0  0  0
   -4.9510   21.4970  -31.7470 C   0  0  0  0  0  0  0  0  0  0  0  0
   -6.3410   21.2700  -31.8510 C   0  0  0  0  0  0  0  0  0  0  0  0
   -6.8970   19.9970  -32.1780 C   0  0  0  0  0  0  0  0  0  0  0  0
   -6.0770   18.7510  -32.4990 C   0  0  0  0  0  0  0  0  0  0  0  0
   -6.5950   18.0310  -33.6920 N   0  0  1  0  0  0  0  0  0  0  0  0
   -5.6320   18.0440  -34.8280 C   0  0  0  0  0  0  0  0  0  0  0  0
   -4.2860   17.3310  -34.5870 C   0  0  0  0  0  0  0  0  0  0  0  0
   -4.2480   15.8050  -34.7940 C   0  0  0  0  0  0  0  0  0  0  0  0
   -5.3330   15.0510  -34.1280 N   0  0  0  0  0  0  0  0  0  0  0  0
   -5.2390   13.6020  -34.3650 C   0  0  0  0  0  0  0  0  0  0  0  0
   -6.7200   15.5590  -34.2880 C   0  0  0  0  0  0  0  0  0  0  0  0
   -7.1110   16.6890  -33.3100 C   0  0  0  0  0  0  0  0  0  0  0  0
   -8.2980   19.8630  -32.2350 C   0  0  0  0  0  0  0  0  0  0  0  0
   -9.1380   20.9460  -31.9930 C   0  0  0  0  0  0  0  0  0  0  0  0
   -8.6030   22.1920  -31.6880 C   0  0  0  0  0  0  0  0  0  0  0  0
   -7.2160   22.3680  -31.6140 C   0  0  0  0  0  0  0  0  0  0  0  0
   -6.6970   23.6350  -31.3040 C   0  0  0  0  0  0  0  0  0  0  0  0
   -5.6095   26.0933  -29.2391 H   0  0  0  0  0  0  0  0  0  0  0  0
   -5.2874   27.1400  -30.6629 H   0  0  0  0  0  0  0  0  0  0  0  0
   -6.7030   26.0342  -30.6629 H   0  0  0  0  0  0  0  0  0  0  0  0
   -3.3630   22.9161  -31.3689 H   0  0  0  0  0  0  0  0  0  0  0  0
   -4.2524   20.6634  -31.9112 H   0  0  0  0  0  0  0  0  0  0  0  0
   -5.0362   19.0512  -32.6904 H   0  0  0  0  0  0  0  0  0  0  0  0
   -6.1448   18.0704  -31.6375 H   0  0  0  0  0  0  0  0  0  0  0  0
   -7.4320   18.5590  -34.0380 H   0  0  0  0  0  0  0  0  0  0  0  0
   -6.1195   17.5596  -35.6869 H   0  0  0  0  0  0  0  0  0  0  0  0
   -5.3800   19.1026  -34.9885 H   0  0  0  0  0  0  0  0  0  0  0  0
   -3.5491   17.7758  -35.2719 H   0  0  0  0  0  0  0  0  0  0  0  0
   -4.0771   17.4762  -33.5168 H   0  0  0  0  0  0  0  0  0  0  0  0
   -4.3093   15.6066  -35.8742 H   0  0  0  0  0  0  0  0  0  0  0  0
   -3.3100   15.4584  -34.3357 H   0  0  0  0  0  0  0  0  0  0  0  0
   -5.2048   13.0742  -33.4005 H   0  0  0  0  0  0  0  0  0  0  0  0
   -6.1172   13.2661  -34.9358 H   0  0  0  0  0  0  0  0  0  0  0  0
   -4.3247   13.3824  -34.9358 H   0  0  0  0  0  0  0  0  0  0  0  0
   -6.8287   15.9410  -35.3138 H   0  0  0  0  0  0  0  0  0  0  0  0
   -7.3878   14.7130  -34.0678 H   0  0  0  0  0  0  0  0  0  0  0  0
   -8.2088   16.7415  -33.2645 H   0  0  0  0  0  0  0  0  0  0  0  0
   -6.6560   16.4395  -32.3401 H   0  0  0  0  0  0  0  0  0  0  0  0
   -8.7367   18.8834  -32.4755 H   0  0  0  0  0  0  0  0  0  0  0  0
  -10.2291   20.8154  -32.0433 H   0  0  0  0  0  0  0  0  0  0  0  0
   -9.2731   23.0447  -31.5037 H   0  0  0  0  0  0  0  0  0  0  0  0
   -7.3846   24.4751  -31.1267 H   0  0  0  0  0  0  0  0  0  0  0  0
  1  2  1  0
  2  3  1  0
  3  4  2  0
  4  5  1  0
  5  6  2  0
  6  7  1  0
  7  8  1  0
  8  9  1  0
  9 10  1  0
 10 11  1  0
 11 12  1  0
 12 13  1  0
 13 14  1  0
 13 15  1  0
 15 16  1  0
  7 17  2  0
 17 18  1  0
 18 19  2  0
 19 20  1  0
 20 21  2  0
 21  3  1  0
 20  6  1  0
 16  9  1  0
  1 22  1  0
  1 23  1  0
  1 24  1  0
  4 25  1  0
  5 26  1  0
  8 27  1  0
  8 28  1  0
  9 29  1  6
 10 30  1  0
 10 31  1  0
 11 32  1  0
 11 33  1  0
 12 34  1  0
 12 35  1  0
 14 36  1  0
 14 37  1  0
 14 38  1  0
 15 39  1  0
 15 40  1  0
 16 41  1  0
 16 42  1  0
 17 43  1  0
 18 44  1  0
 19 45  1  0
 21 46  1  0
M  CHG  1   9   1
M  END
>  <UniqueID>  (38) 
35

>  <SMILES>  (38) 
COc1ccc2c(C[N@H+]3CCCN(C)CC3)cccc2c1

>  <Energy>  (38) 
78.01292587198617

>  <Genealogy>  (38) 
COc1ccc2c(C[NH+]3CCCN(C)CC3)cccc2c1 (protonated)
COc1ccc2c(C[N@H+]3CCCN(C)CC3)cccc2c1 (chirality)
COc1ccc2c(C[N@H+]3CCCN(C)CC3)cccc2c1 (3D coordinates assigned)
COc1ccc2c(C[N@H+]3CCCN(C)CC3)cccc2c1 (nonaromatic ring conformer: 78.01292587198617 kcal/mol)

>  <smiles>  (38) 
COc1ccc2c(CN3CCCN(C)CC3)cccc2c1

>  <score_type>  (38) 
oracle

>  <origin>  (38) 
adg

>  <m_score__min__energy>  (38) 
-6.0599999999999996

>  <m_primary>  (38) 
energy

$$$$
39:0
     RDKit          3D

 54 56  0  0  0  0  0  0  0  0999 V2000
   -1.4236   19.7253  -34.4383 H   0  0  0  0  0  0  0  0  0  0  0  0
   -1.8160   20.2950  -33.5830 C   0  0  0  0  0  0  0  0  0  0  0  0
   -3.1950   20.4490  -33.4190 C   0  0  0  0  0  0  0  0  0  0  0  0
   -3.8877   19.9962  -34.1436 H   0  0  0  0  0  0  0  0  0  0  0  0
   -3.6970   21.1780  -32.3350 C   0  0  0  0  0  0  0  0  0  0  0  0
   -4.7838   21.2933  -32.2100 H   0  0  0  0  0  0  0  0  0  0  0  0
   -2.8190   21.7650  -31.4030 C   0  0  0  0  0  0  0  0  0  0  0  0
   -3.3440   22.5490  -30.2530 C   0  0  0  0  0  0  0  0  0  0  0  0
   -4.5260   23.0800  -30.3390 N   0  0  0  0  0  0  0  0  0  0  0  0
   -4.8270   24.0450  -31.2720 O   0  0  0  0  0  0  0  0  0  0  0  0
   -6.1540   24.5140  -31.4390 C   0  0  0  0  0  0  0  0  0  0  0  0
   -6.1433   25.4353  -32.0399 H   0  0  0  0  0  0  0  0  0  0  0  0
   -6.5939   24.7216  -30.4524 H   0  0  0  0  0  0  0  0  0  0  0  0
   -6.9950   23.4450  -32.1570 C   0  0  0  0  0  0  0  0  0  0  0  0
   -6.7233   23.4455  -33.2229 H   0  0  0  0  0  0  0  0  0  0  0  0
   -8.0525   23.7025  -31.9973 H   0  0  0  0  0  0  0  0  0  0  0  0
   -6.7910   22.0730  -31.6190 N   0  0  1  0  0  0  0  0  0  0  0  0
   -5.8080   22.0430  -31.2570 H   0  0  0  0  0  0  0  0  0  0  0  0
   -7.6700   21.7500  -30.4670 C   0  0  0  0  0  0  0  0  0  0  0  0
   -7.5601   22.5396  -29.7090 H   0  0  0  0  0  0  0  0  0  0  0  0
   -7.3616   20.7672  -30.0809 H   0  0  0  0  0  0  0  0  0  0  0  0
   -9.1560   21.6480  -30.8590 C   0  0  0  0  0  0  0  0  0  0  0  0
   -9.5868   22.6601  -30.8717 H   0  0  0  0  0  0  0  0  0  0  0  0
   -9.6515   21.0039  -30.1176 H   0  0  0  0  0  0  0  0  0  0  0  0
   -9.3630   21.0080  -32.2420 C   0  0  0  0  0  0  0  0  0  0  0  0
   -9.5254   21.8073  -32.9801 H   0  0  0  0  0  0  0  0  0  0  0  0
  -10.2329   20.3382  -32.1740 H   0  0  0  0  0  0  0  0  0  0  0  0
   -8.1560   20.1640  -32.6860 C   0  0  2  0  0  0  0  0  0  0  0  0
   -8.3406   19.8047  -33.7092 H   0  0  0  0  0  0  0  0  0  0  0  0
   -7.9880   18.9120  -31.8480 C   0  0  0  0  0  0  0  0  0  0  0  0
   -9.0060   18.2570  -31.4830 O   0  0  0  0  0  0  0  0  0  0  0  0
   -6.7150   18.5210  -31.4150 O   0  0  0  0  0  0  0  0  0  0  0  0
   -6.0040   17.4370  -32.0050 C   0  0  0  0  0  0  0  0  0  0  0  0
   -5.5854   16.7987  -31.2130 H   0  0  0  0  0  0  0  0  0  0  0  0
   -6.6898   16.8450  -32.6289 H   0  0  0  0  0  0  0  0  0  0  0  0
   -5.1878   17.8301  -32.6289 H   0  0  0  0  0  0  0  0  0  0  0  0
   -6.8730   21.0490  -32.7080 C   0  0  0  0  0  0  0  0  0  0  0  0
   -6.8377   21.5745  -33.6737 H   0  0  0  0  0  0  0  0  0  0  0  0
   -6.0257   20.3653  -32.5510 H   0  0  0  0  0  0  0  0  0  0  0  0
   -2.5500   22.6800  -29.0030 C   0  0  0  0  0  0  0  0  0  0  0  0
   -1.9960   23.9210  -28.6450 C   0  0  0  0  0  0  0  0  0  0  0  0
   -2.1352   24.7926  -29.3015 H   0  0  0  0  0  0  0  0  0  0  0  0
   -1.2680   24.0530  -27.4570 C   0  0  0  0  0  0  0  0  0  0  0  0
   -0.8457   25.0294  -27.1771 H   0  0  0  0  0  0  0  0  0  0  0  0
   -1.0770   22.9460  -26.6260 C   0  0  0  0  0  0  0  0  0  0  0  0
   -0.0830   23.1240  -25.0070 Br  0  0  0  0  0  0  0  0  0  0  0  0
   -1.6130   21.7030  -26.9830 C   0  0  0  0  0  0  0  0  0  0  0  0
   -1.4523   20.8290  -26.3347 H   0  0  0  0  0  0  0  0  0  0  0  0
   -2.3520   21.5710  -28.1620 C   0  0  0  0  0  0  0  0  0  0  0  0
   -2.7806   20.5949  -28.4331 H   0  0  0  0  0  0  0  0  0  0  0  0
   -1.4310   21.5940  -31.5740 C   0  0  0  0  0  0  0  0  0  0  0  0
   -0.7323   22.0366  -30.8488 H   0  0  0  0  0  0  0  0  0  0  0  0
   -0.9360   20.8650  -32.6600 C   0  0  0  0  0  0  0  0  0  0  0  0
    0.1494   20.7401  -32.7877 H   0  0  0  0  0  0  0  0  0  0  0  0
  1  2  1  0
  2  3  2  0
  3  4  1  0
  3  5  1  0
  5  6  1  0
  5  7  2  0
  7  8  1  0
  8  9  2  0
  9 10  1  0
 10 11  1  0
 11 12  1  0
 11 13  1  0
 11 14  1  0
 14 15  1  0
 14 16  1  0
 14 17  1  0
 17 18  1  1
 17 19  1  0
 19 20  1  0
 19 21  1  0
 19 22  1  0
 22 23  1  0
 22 24  1  0
 22 25  1  0
 25 26  1  0
 25 27  1  0
 25 28  1  0
 28 29  1  6
 28 30  1  0
 30 31  2  0
 30 32  1  0
 32 33  1  0
 33 34  1  0
 33 35  1  0
 33 36  1  0
 28 37  1  0
 37 38  1  0
 37 39  1  0
  8 40  1  0
 40 41  2  0
 41 42  1  0
 41 43  1  0
 43 44  1  0
 43 45  2  0
 45 46  1  0
 45 47  1  0
 47 48  1  0
 47 49  2  0
 49 50  1  0
  7 51  1  0
 51 52  1  0
 51 53  2  0
 53 54  1  0
 53  2  1  0
 37 17  1  0
 49 40  1  0
M  CHG  1  17   1
M  END
>  <UniqueID>  (39) 
36

>  <SMILES>  (39) 
COC(=O)[C@H]1CCC[N@H+](CCO/N=C(/c2ccccc2)c2ccc(Br)cc2)C1

>  <Energy>  (39) 
69.23693683242445

>  <Genealogy>  (39) 
COC(=O)C1CCC[NH+](CCON=C(c2ccccc2)c2ccc(Br)cc2)C1 (protonated)
COC(=O)[C@H]1CCC[N@H+](CCON=C(c2ccccc2)c2ccc(Br)cc2)C1 (chirality)
COC(=O)[C@H]1CCC[N@H+](CCO/N=C(/c2ccccc2)c2ccc(Br)cc2)C1 (cis-trans isomerization)
COC(=O)[C@H]1CCC[N@H+](CCO/N=C(/c2ccccc2)c2ccc(Br)cc2)C1 (3D coordinates assigned)
COC(=O)[C@H]1CCC[N@H+](CCO/N=C(/c2ccccc2)c2ccc(Br)cc2)C1 (nonaromatic ring conformer: 69.23693683242445 kcal/mol)

>  <smiles>  (39) 
COC(=O)C1CCCN(CCON=C(c2ccccc2)c2ccc(Br)cc2)C1

>  <score_type>  (39) 
oracle

>  <origin>  (39) 
adg

>  <m_score__min__energy>  (39) 
-7.7300000000000004

>  <m_primary>  (39) 
energy

$$$$
40:0
     RDKit          3D

 52 54  0  0  1  0  0  0  0  0999 V2000
   -8.6430   22.9610  -31.9980 C   0  0  0  0  0  0  0  0  0  0  0  0
   -8.2380   21.9100  -30.9600 C   0  0  0  0  0  0  0  0  0  0  0  0
   -8.1280   20.6040  -31.5010 N   0  0  0  0  0  0  0  0  0  0  0  0
   -9.3710   20.0470  -31.7630 N   0  0  0  0  0  0  0  0  0  0  0  0
   -9.3100   18.8600  -32.3130 C   0  0  0  0  0  0  0  0  0  0  0  0
   -8.0040   18.5630  -32.4460 C   0  0  0  0  0  0  0  0  0  0  0  0
   -7.3930   17.4960  -32.9570 N   0  0  0  0  0  0  0  0  0  0  0  0
   -6.0630   17.4270  -32.9990 C   0  0  0  0  0  0  0  0  0  0  0  0
   -5.3700   16.2710  -33.5520 C   0  0  0  0  0  0  0  0  0  0  0  0
   -4.2940   16.6310  -34.5430 C   0  0  0  0  0  0  0  0  0  0  0  0
   -6.2950   15.2800  -34.2170 C   0  0  0  0  0  0  0  0  0  0  0  0
   -4.6810   15.5700  -32.3800 C   0  0  0  0  0  0  0  0  0  0  0  0
   -5.3740   18.4610  -32.5140 N   0  0  0  0  0  0  0  0  0  0  0  0
   -5.9720   19.5510  -31.9910 C   0  0  0  0  0  0  0  0  0  0  0  0
   -5.2540   20.4350  -31.5350 N   0  0  0  0  0  0  0  0  0  0  0  0
   -4.3200   21.2870  -32.0800 C   0  0  0  0  0  0  0  0  0  0  0  0
   -5.2340   22.5470  -32.3930 C   0  0  0  0  0  0  0  0  0  0  0  0
   -4.6190   23.6600  -31.6590 N   0  0  0  0  0  0  0  0  0  0  0  0
   -5.7530   24.3560  -31.0810 C   0  0  0  0  0  0  0  0  0  0  0  0
   -5.3290   25.6670  -30.4490 C   0  0  0  0  0  0  0  0  0  0  0  0
   -3.9440   25.5950  -30.2770 O   0  0  0  0  0  0  0  0  0  0  0  0
   -3.5760   24.4200  -29.6530 C   0  0  0  0  0  0  0  0  0  0  0  0
   -3.8440   23.1830  -30.5200 C   0  0  0  0  0  0  0  0  0  0  0  0
   -7.3230   19.6830  -31.9230 C   0  0  0  0  0  0  0  0  0  0  0  0
   -8.9927   23.8684  -31.4839 H   0  0  0  0  0  0  0  0  0  0  0  0
   -7.7755   23.2076  -32.6278 H   0  0  0  0  0  0  0  0  0  0  0  0
   -9.4517   22.5617  -32.6278 H   0  0  0  0  0  0  0  0  0  0  0  0
   -7.2644   22.1955  -30.5349 H   0  0  0  0  0  0  0  0  0  0  0  0
   -9.0298   21.8821  -30.1970 H   0  0  0  0  0  0  0  0  0  0  0  0
  -10.1607   18.2285  -32.6088 H   0  0  0  0  0  0  0  0  0  0  0  0
   -7.9860   16.6920  -33.3300 H   0  0  0  0  0  0  0  0  0  0  0  0
   -3.3851   16.9351  -34.0031 H   0  0  0  0  0  0  0  0  0  0  0  0
   -4.0706   15.7587  -35.1748 H   0  0  0  0  0  0  0  0  0  0  0  0
   -4.6406   17.4621  -35.1748 H   0  0  0  0  0  0  0  0  0  0  0  0
   -6.8313   14.7055  -33.4474 H   0  0  0  0  0  0  0  0  0  0  0  0
   -7.0204   15.8191  -34.8440 H   0  0  0  0  0  0  0  0  0  0  0  0
   -5.7072   14.5935  -34.8440 H   0  0  0  0  0  0  0  0  0  0  0  0
   -5.0729   15.9687  -31.4326 H   0  0  0  0  0  0  0  0  0  0  0  0
   -4.8779   14.4890  -32.4323 H   0  0  0  0  0  0  0  0  0  0  0  0
   -3.5968   15.7482  -32.4323 H   0  0  0  0  0  0  0  0  0  0  0  0
   -3.5232   21.5305  -31.3618 H   0  0  0  0  0  0  0  0  0  0  0  0
   -3.7796   20.8829  -32.9488 H   0  0  0  0  0  0  0  0  0  0  0  0
   -5.2456   22.7565  -33.4728 H   0  0  0  0  0  0  0  0  0  0  0  0
   -6.2788   22.3825  -32.0908 H   0  0  0  0  0  0  0  0  0  0  0  0
   -6.4892   24.5609  -31.8722 H   0  0  0  0  0  0  0  0  0  0  0  0
   -6.1907   23.7183  -30.2988 H   0  0  0  0  0  0  0  0  0  0  0  0
   -5.5867   26.5081  -31.1094 H   0  0  0  0  0  0  0  0  0  0  0  0
   -5.8411   25.8299  -29.4892 H   0  0  0  0  0  0  0  0  0  0  0  0
   -2.5009   24.4640  -29.4246 H   0  0  0  0  0  0  0  0  0  0  0  0
   -4.1810   24.3241  -28.7394 H   0  0  0  0  0  0  0  0  0  0  0  0
   -2.8962   22.7400  -30.8596 H   0  0  0  0  0  0  0  0  0  0  0  0
   -4.3823   22.4038  -29.9604 H   0  0  0  0  0  0  0  0  0  0  0  0
  1  2  1  0
  2  3  1  0
  3  4  1  0
  4  5  2  0
  5  6  1  0
  6  7  1  0
  7  8  1  0
  8  9  1  0
  9 10  1  0
  9 11  1  0
  9 12  1  0
  8 13  2  0
 13 14  1  0
 14 15  2  0
 15 16  1  0
 16 17  1  0
 17 18  1  0
 18 19  1  0
 19 20  1  0
 20 21  1  0
 21 22  1  0
 22 23  1  0
 14 24  1  0
 24  3  1  0
 24  6  2  0
 23 18  1  0
  1 25  1  0
  1 26  1  0
  1 27  1  0
  2 28  1  0
  2 29  1  0
  5 30  1  0
  7 31  1  0
 10 32  1  0
 10 33  1  0
 10 34  1  0
 11 35  1  0
 11 36  1  0
 11 37  1  0
 12 38  1  0
 12 39  1  0
 12 40  1  0
 16 41  1  0
 16 42  1  0
 17 43  1  0
 17 44  1  0
 19 45  1  0
 19 46  1  0
 20 47  1  0
 20 48  1  0
 22 49  1  0
 22 50  1  0
 23 51  1  0
 23 52  1  0
M  END
>  <smiles>  (40) 
CCn1ncc2[nH]c(C(C)(C)C)nc(=NCCN3CCOCC3)c21

>  <score_type>  (40) 
oracle

>  <origin>  (40) 
adg

>  <m_score__min__energy>  (40) 
-8.5199999999999996

>  <m_primary>  (40) 
energy

$$$$
41:0
     RDKit          3D

 48 51  0  0  0  0  0  0  0  0999 V2000
   -1.6820   20.4410  -33.9460 C   0  0  0  0  0  0  0  0  0  0  0  0
   -3.0690   20.0680  -33.5330 C   0  0  0  0  0  0  0  0  0  0  0  0
   -3.8260   19.1630  -34.1980 N   0  0  0  0  0  0  0  0  0  0  0  0
   -4.9810   19.1500  -33.5030 C   0  0  0  0  0  0  0  0  0  0  0  0
   -6.1020   18.3820  -33.8120 C   0  0  0  0  0  0  0  0  0  0  0  0
   -7.2380   18.5280  -33.0030 C   0  0  0  0  0  0  0  0  0  0  0  0
   -7.2320   19.4350  -31.9270 C   0  0  0  0  0  0  0  0  0  0  0  0
   -6.0770   20.1860  -31.6620 C   0  0  0  0  0  0  0  0  0  0  0  0
   -4.9870   19.9940  -32.4540 N   0  0  0  0  0  0  0  0  0  0  0  0
   -3.7760   20.5830  -32.4530 C   0  0  0  0  0  0  0  0  0  0  0  0
   -3.2970   21.5890  -31.4830 C   0  0  0  0  0  0  0  0  0  0  0  0
   -2.3180   21.2510  -30.6040 N   0  0  0  0  0  0  0  0  0  0  0  0
   -1.8570   22.1380  -29.6890 C   0  0  0  0  0  0  0  0  0  0  0  0
   -0.8420   21.7630  -28.8000 C   0  0  0  0  0  0  0  0  0  0  0  0
   -0.3650   22.6780  -27.8570 C   0  0  0  0  0  0  0  0  0  0  0  0
   -0.8980   23.9680  -27.8000 C   0  0  0  0  0  0  0  0  0  0  0  0
   -1.9130   24.3510  -28.6830 C   0  0  0  0  0  0  0  0  0  0  0  0
   -2.3990   23.4380  -29.6350 C   0  0  0  0  0  0  0  0  0  0  0  0
   -3.4230   23.7700  -30.5380 C   0  0  0  0  0  0  0  0  0  0  0  0
   -3.9840   25.0610  -30.4910 O   0  0  0  0  0  0  0  0  0  0  0  0
   -5.3490   25.3820  -30.7550 C   0  0  0  0  0  0  0  0  0  0  0  0
   -6.2850   24.3730  -30.0770 C   0  0  0  0  0  0  0  0  0  0  0  0
   -6.5750   23.2370  -30.9790 N   0  0  0  0  0  0  0  0  0  0  0  0
   -6.8410   23.7040  -32.3510 C   0  0  0  0  0  0  0  0  0  0  0  0
   -7.7390   22.4820  -30.4860 C   0  0  0  0  0  0  0  0  0  0  0  0
   -3.8500   22.8340  -31.4390 N   0  0  0  0  0  0  0  0  0  0  0  0
   -1.0649   20.6069  -33.0506 H   0  0  0  0  0  0  0  0  0  0  0  0
   -1.2468   19.6280  -34.5457 H   0  0  0  0  0  0  0  0  0  0  0  0
   -1.7133   21.3626  -34.5457 H   0  0  0  0  0  0  0  0  0  0  0  0
   -6.0959   17.6843  -34.6624 H   0  0  0  0  0  0  0  0  0  0  0  0
   -8.1381   17.9307  -33.2104 H   0  0  0  0  0  0  0  0  0  0  0  0
   -8.1266   19.5543  -31.2982 H   0  0  0  0  0  0  0  0  0  0  0  0
   -6.0530   20.9113  -30.8354 H   0  0  0  0  0  0  0  0  0  0  0  0
   -0.4200   20.7481  -28.8438 H   0  0  0  0  0  0  0  0  0  0  0  0
    0.4315   22.3817  -27.1586 H   0  0  0  0  0  0  0  0  0  0  0  0
   -0.5180   24.6854  -27.0578 H   0  0  0  0  0  0  0  0  0  0  0  0
   -2.3311   25.3672  -28.6324 H   0  0  0  0  0  0  0  0  0  0  0  0
   -5.5640   26.3895  -30.3693 H   0  0  0  0  0  0  0  0  0  0  0  0
   -5.5169   25.3450  -31.8415 H   0  0  0  0  0  0  0  0  0  0  0  0
   -5.8052   23.9940  -29.1626 H   0  0  0  0  0  0  0  0  0  0  0  0
   -7.2306   24.8788  -29.8319 H   0  0  0  0  0  0  0  0  0  0  0  0
   -7.3851   24.6593  -32.3141 H   0  0  0  0  0  0  0  0  0  0  0  0
   -5.8878   23.8452  -32.8815 H   0  0  0  0  0  0  0  0  0  0  0  0
   -7.4486   22.9561  -32.8815 H   0  0  0  0  0  0  0  0  0  0  0  0
   -7.7375   22.4830  -29.3860 H   0  0  0  0  0  0  0  0  0  0  0  0
   -8.6633   22.9530  -30.8518 H   0  0  0  0  0  0  0  0  0  0  0  0
   -7.6858   21.4460  -30.8518 H   0  0  0  0  0  0  0  0  0  0  0  0
   -4.6360   23.0510  -32.0900 H   0  0  0  0  0  0  0  0  0  0  0  0
  1  2  1  0
  2  3  1  0
  3  4  2  0
  4  5  1  0
  5  6  2  0
  6  7  1  0
  7  8  2  0
  8  9  1  0
  9 10  1  0
 10 11  1  0
 11 12  2  0
 12 13  1  0
 13 14  2  0
 14 15  1  0
 15 16  2  0
 16 17  1  0
 17 18  2  0
 18 19  1  0
 19 20  1  0
 20 21  1  0
 21 22  1  0
 22 23  1  0
 23 24  1  0
 23 25  1  0
 19 26  2  0
 10  2  2  0
 26 11  1  0
  9  4  1  0
 18 13  1  0
  1 27  1  0
  1 28  1  0
  1 29  1  0
  5 30  1  0
  6 31  1  0
  7 32  1  0
  8 33  1  0
 14 34  1  0
 15 35  1  0
 16 36  1  0
 17 37  1  0
 21 38  1  0
 21 39  1  0
 22 40  1  0
 22 41  1  0
 24 42  1  0
 24 43  1  0
 24 44  1  0
 25 45  1  0
 25 46  1  0
 25 47  1  0
 26 48  1  0
M  CHG  1  26   1
M  END
>  <UniqueID>  (41) 
37

>  <SMILES>  (41) 
Cc1nc2ccccn2c1-c1nc2ccccc2c(OCCN(C)C)[nH+]1

>  <Energy>  (41) 
92.68952836359955

>  <Genealogy>  (41) 
Cc1nc2ccccn2c1-c1nc2ccccc2c(OCCN(C)C)[nH+]1 (protonated)
Cc1nc2ccccn2c1-c1nc2ccccc2c(OCCN(C)C)[nH+]1 (3D coordinates assigned)
Cc1nc2ccccn2c1-c1nc2ccccc2c(OCCN(C)C)[nH+]1 (optimized conformer: 92.68952836359955 kcal/mol)

>  <smiles>  (41) 
Cc1nc2ccccn2c1-c1nc(OCCN(C)C)c2ccccc2n1

>  <score_type>  (41) 
oracle

>  <origin>  (41) 
adg

>  <m_score__min__energy>  (41) 
-7.25

>  <m_primary>  (41) 
energy

$$$$
42:0
     RDKit          3D

 43 45  0  0  0  0  0  0  0  0999 V2000
   -3.3020   24.9380  -26.6630 C   0  0  0  0  0  0  0  0  0  0  0  0
   -3.5200   24.3230  -27.9840 N   0  0  0  0  0  0  0  0  0  0  0  0
   -4.1460   22.9850  -27.8270 C   0  0  0  0  0  0  0  0  0  0  0  0
   -3.8620   22.0860  -29.0360 C   0  0  0  0  0  0  0  0  0  0  0  0
   -2.4110   21.8350  -29.1660 N   0  0  0  0  0  0  0  0  0  0  0  0
   -2.0250   21.2380  -30.4640 C   0  0  0  0  0  0  0  0  0  0  0  0
   -3.2050   21.0250  -31.4370 C   0  0  0  0  0  0  0  0  0  0  0  0
   -3.5330   22.2980  -32.2300 C   0  0  0  0  0  0  0  0  0  0  0  0
   -4.8510   22.8240  -31.8740 N   0  0  0  0  0  0  0  0  0  0  0  0
   -5.1230   23.9930  -31.0960 C   0  0  0  0  0  0  0  0  0  0  0  0
   -4.2530   24.8350  -30.7490 O   0  0  0  0  0  0  0  0  0  0  0  0
   -6.5370   24.0430  -30.7520 C   0  0  0  0  0  0  0  0  0  0  0  0
   -7.1240   24.9290  -30.0770 O   0  0  0  0  0  0  0  0  0  0  0  0
   -7.1230   22.8490  -31.3390 C   0  0  0  0  0  0  0  0  0  0  0  0
   -8.4350   22.3810  -31.3100 C   0  0  0  0  0  0  0  0  0  0  0  0
   -8.7180   21.1690  -31.9630 C   0  0  0  0  0  0  0  0  0  0  0  0
   -7.6940   20.4570  -32.6230 C   0  0  0  0  0  0  0  0  0  0  0  0
   -6.3780   20.9490  -32.6390 C   0  0  0  0  0  0  0  0  0  0  0  0
   -6.1140   22.1550  -31.9840 C   0  0  0  0  0  0  0  0  0  0  0  0
   -1.5420   22.9460  -28.7100 C   0  0  0  0  0  0  0  0  0  0  0  0
   -2.2600   24.3040  -28.7790 C   0  0  0  0  0  0  0  0  0  0  0  0
   -3.5584   24.2146  -25.8750 H   0  0  0  0  0  0  0  0  0  0  0  0
   -2.2459   25.2292  -26.5639 H   0  0  0  0  0  0  0  0  0  0  0  0
   -3.9390   25.8293  -26.5639 H   0  0  0  0  0  0  0  0  0  0  0  0
   -4.2020   24.9350  -28.4940 H   0  0  0  0  0  0  0  0  0  0  0  0
   -3.7428   22.5057  -26.9227 H   0  0  0  0  0  0  0  0  0  0  0  0
   -5.2346   23.1208  -27.7462 H   0  0  0  0  0  0  0  0  0  0  0  0
   -4.3848   21.1271  -28.9046 H   0  0  0  0  0  0  0  0  0  0  0  0
   -4.2183   22.5910  -29.9460 H   0  0  0  0  0  0  0  0  0  0  0  0
   -1.2952   21.9043  -30.9471 H   0  0  0  0  0  0  0  0  0  0  0  0
   -1.6119   20.2424  -30.2444 H   0  0  0  0  0  0  0  0  0  0  0  0
   -2.9425   20.2240  -32.1437 H   0  0  0  0  0  0  0  0  0  0  0  0
   -4.0912   20.7567  -30.8431 H   0  0  0  0  0  0  0  0  0  0  0  0
   -2.7720   23.0617  -32.0117 H   0  0  0  0  0  0  0  0  0  0  0  0
   -3.5382   22.0470  -33.3010 H   0  0  0  0  0  0  0  0  0  0  0  0
   -9.2257   22.9432  -30.7916 H   0  0  0  0  0  0  0  0  0  0  0  0
   -9.7442   20.7730  -31.9595 H   0  0  0  0  0  0  0  0  0  0  0  0
   -7.9280   19.5088  -33.1292 H   0  0  0  0  0  0  0  0  0  0  0  0
   -5.5763   20.3992  -33.1537 H   0  0  0  0  0  0  0  0  0  0  0  0
   -1.2398   22.7565  -27.6695 H   0  0  0  0  0  0  0  0  0  0  0  0
   -0.6679   22.9894  -29.3764 H   0  0  0  0  0  0  0  0  0  0  0  0
   -1.5851   25.0803  -28.3894 H   0  0  0  0  0  0  0  0  0  0  0  0
   -2.5248   24.4896  -29.8304 H   0  0  0  0  0  0  0  0  0  0  0  0
  1  2  1  0
  2  3  1  0
  3  4  1  0
  4  5  1  0
  5  6  1  0
  6  7  1  0
  7  8  1  0
  8  9  1  0
  9 10  1  0
 10 11  2  0
 10 12  1  0
 12 13  2  0
 12 14  1  0
 14 15  2  0
 15 16  1  0
 16 17  2  0
 17 18  1  0
 18 19  2  0
  5 20  1  0
 20 21  1  0
 21  2  1  0
 19  9  1  0
 19 14  1  0
  1 22  1  0
  1 23  1  0
  1 24  1  0
  2 25  1  0
  3 26  1  0
  3 27  1  0
  4 28  1  0
  4 29  1  0
  6 30  1  0
  6 31  1  0
  7 32  1  0
  7 33  1  0
  8 34  1  0
  8 35  1  0
 15 36  1  0
 16 37  1  0
 17 38  1  0
 18 39  1  0
 20 40  1  0
 20 41  1  0
 21 42  1  0
 21 43  1  0
M  CHG  1   2   1
M  END
>  <UniqueID>  (42) 
38

>  <SMILES>  (42) 
C[NH+]1CCN(CCCN2C(=O)C(=O)c3ccccc32)CC1

>  <Energy>  (42) 
86.43218660615352

>  <Genealogy>  (42) 
C[NH+]1CCN(CCCN2C(=O)C(=O)c3ccccc32)CC1 (protonated)
C[NH+]1CCN(CCCN2C(=O)C(=O)c3ccccc32)CC1 (3D coordinates assigned)
C[NH+]1CCN(CCCN2C(=O)C(=O)c3ccccc32)CC1 (nonaromatic ring conformer: 86.43218660615352 kcal/mol)

>  <smiles>  (42) 
CN1CCN(CCCN2C(=O)C(=O)c3ccccc32)CC1

>  <score_type>  (42) 
oracle

>  <origin>  (42) 
adg

>  <m_score__min__energy>  (42) 
-6.8300000000000001

>  <m_primary>  (42) 
energy

$$$$
43:0
     RDKit          3D

 49 50  0  0  1  0  0  0  0  0999 V2000
    0.4580   20.4830  -31.8290 C   0  0  0  0  0  0  0  0  0  0  0  0
   -0.9320   20.8830  -31.5210 C   0  0  0  0  0  0  0  0  0  0  0  0
   -1.3530   21.1250  -30.2360 C   0  0  0  0  0  0  0  0  0  0  0  0
   -2.6350   21.4970  -29.9740 C   0  0  0  0  0  0  0  0  0  0  0  0
   -2.9940   21.7360  -28.5340 C   0  0  0  0  0  0  0  0  0  0  0  0
   -3.6150   21.6590  -30.9800 C   0  0  0  0  0  0  0  0  0  0  0  0
   -5.2030   22.1080  -30.4440 S   0  0  0  0  0  0  0  0  0  0  0  0
   -6.3640   22.8860  -31.5040 C   0  0  1  0  0  0  0  0  0  0  0  0
   -7.7890   22.6360  -31.0030 C   0  0  0  0  0  0  0  0  0  0  0  0
   -8.6930   21.9750  -31.9700 C   0  0  0  0  0  0  0  0  0  0  0  0
   -8.2000   20.5560  -32.1610 C   0  0  0  0  0  0  0  0  0  0  0  0
   -7.2000   20.3030  -33.0770 C   0  0  0  0  0  0  0  0  0  0  0  0
   -6.6800   19.0700  -33.3350 C   0  0  0  0  0  0  0  0  0  0  0  0
   -7.2100   18.0010  -32.6110 C   0  0  0  0  0  0  0  0  0  0  0  0
   -8.2150   18.2460  -31.6880 C   0  0  0  0  0  0  0  0  0  0  0  0
   -8.7230   19.5040  -31.4470 C   0  0  0  0  0  0  0  0  0  0  0  0
   -6.2140   24.3910  -31.5730 C   0  0  0  0  0  0  0  0  0  0  0  0
   -5.3390   24.8790  -30.5140 C   0  0  0  0  0  0  0  0  0  0  0  0
   -5.7130   25.4420  -29.3140 O   0  0  0  0  0  0  0  0  0  0  0  0
   -4.0460   24.7760  -30.7150 N   0  0  0  0  0  0  0  0  0  0  0  0
   -3.1440   25.1730  -29.7350 O   0  0  0  0  0  0  0  0  0  0  0  0
   -3.1800   21.4120  -32.2550 C   0  0  0  0  0  0  0  0  0  0  0  0
   -4.0890   21.4820  -33.4160 C   0  0  0  0  0  0  0  0  0  0  0  0
   -1.8560   21.0300  -32.5190 C   0  0  0  0  0  0  0  0  0  0  0  0
    1.0102   20.3241  -30.8910 H   0  0  0  0  0  0  0  0  0  0  0  0
    0.4505   19.5506  -32.4125 H   0  0  0  0  0  0  0  0  0  0  0  0
    0.9472   21.2768  -32.4125 H   0  0  0  0  0  0  0  0  0  0  0  0
   -0.6412   21.0161  -29.4045 H   0  0  0  0  0  0  0  0  0  0  0  0
   -2.2546   21.2437  -27.8852 H   0  0  0  0  0  0  0  0  0  0  0  0
   -2.9973   22.8172  -28.3315 H   0  0  0  0  0  0  0  0  0  0  0  0
   -3.9928   21.3220  -28.3315 H   0  0  0  0  0  0  0  0  0  0  0  0
   -6.1738   22.4521  -32.4967 H   0  0  0  0  0  0  0  0  0  0  0  0
   -7.7275   22.0012  -30.1068 H   0  0  0  0  0  0  0  0  0  0  0  0
   -8.2223   23.6287  -30.8115 H   0  0  0  0  0  0  0  0  0  0  0  0
   -9.7204   21.9655  -31.5771 H   0  0  0  0  0  0  0  0  0  0  0  0
   -8.6958   22.5154  -32.9281 H   0  0  0  0  0  0  0  0  0  0  0  0
   -6.7936   21.1569  -33.6389 H   0  0  0  0  0  0  0  0  0  0  0  0
   -5.8816   18.9244  -34.0776 H   0  0  0  0  0  0  0  0  0  0  0  0
   -6.8358   16.9790  -32.7704 H   0  0  0  0  0  0  0  0  0  0  0  0
   -8.6258   17.3970  -31.1219 H   0  0  0  0  0  0  0  0  0  0  0  0
   -9.5215   19.6615  -30.7070 H   0  0  0  0  0  0  0  0  0  0  0  0
   -5.7855   24.6652  -32.5483 H   0  0  0  0  0  0  0  0  0  0  0  0
   -7.2065   24.8478  -31.4453 H   0  0  0  0  0  0  0  0  0  0  0  0
   -5.0930   25.6720  -28.5560 H   0  0  0  0  0  0  0  0  0  0  0  0
   -3.0950   26.0800  -29.3380 H   0  0  0  0  0  0  0  0  0  0  0  0
   -5.1280   21.5620  -33.0639 H   0  0  0  0  0  0  0  0  0  0  0  0
   -3.8392   22.3636  -34.0246 H   0  0  0  0  0  0  0  0  0  0  0  0
   -3.9771   20.5726  -34.0246 H   0  0  0  0  0  0  0  0  0  0  0  0
   -1.5519   20.8431  -33.5595 H   0  0  0  0  0  0  0  0  0  0  0  0
  1  2  1  0
  2  3  2  0
  3  4  1  0
  4  5  1  0
  4  6  2  0
  6  7  1  0
  7  8  1  0
  8  9  1  0
  9 10  1  0
 10 11  1  0
 11 12  2  0
 12 13  1  0
 13 14  2  0
 14 15  1  0
 15 16  2  0
  8 17  1  0
 17 18  1  0
 18 19  1  0
 18 20  2  0
 20 21  1  0
  6 22  1  0
 22 23  1  0
 22 24  2  0
 24  2  1  0
 16 11  1  0
  1 25  1  0
  1 26  1  0
  1 27  1  0
  3 28  1  0
  5 29  1  0
  5 30  1  0
  5 31  1  0
  8 32  1  6
  9 33  1  0
  9 34  1  0
 10 35  1  0
 10 36  1  0
 12 37  1  0
 13 38  1  0
 14 39  1  0
 15 40  1  0
 16 41  1  0
 17 42  1  0
 17 43  1  0
 19 44  1  0
 21 45  1  0
 23 46  1  0
 23 47  1  0
 23 48  1  0
 24 49  1  0
M  END
>  <smiles>  (43) 
Cc1cc(C)c(SC(CCc2ccccc2)CC(O)=NO)c(C)c1

>  <score_type>  (43) 
oracle

>  <origin>  (43) 
adg

>  <m_score__min__energy>  (43) 
-10.050000000000001

>  <m_primary>  (43) 
energy

$$$$
44:0
     RDKit          3D

 44 45  0  0  0  0  0  0  0  0999 V2000
   -7.5960   22.2930  -30.5280 C   0  0  0  0  0  0  0  0  0  0  0  0
   -7.4300   22.9980  -31.8670 C   0  0  0  0  0  0  0  0  0  0  0  0
   -6.6380   24.1530  -31.6860 O   0  0  0  0  0  0  0  0  0  0  0  0
   -6.6470   24.5600  -30.3290 C   0  0  0  0  0  0  0  0  0  0  0  0
   -5.2820   25.1300  -29.9500 C   0  0  0  0  0  0  0  0  0  0  0  0
   -4.2480   24.6200  -30.8580 N   0  0  0  0  0  0  0  0  0  0  0  0
   -3.5520   23.4790  -30.2550 C   0  0  0  0  0  0  0  0  0  0  0  0
   -3.5440   22.3260  -31.2200 C   0  0  0  0  0  0  0  0  0  0  0  0
   -2.7160   21.2180  -30.9880 C   0  0  0  0  0  0  0  0  0  0  0  0
   -2.6750   20.1620  -31.9020 C   0  0  0  0  0  0  0  0  0  0  0  0
   -3.4610   20.2030  -33.0700 C   0  0  0  0  0  0  0  0  0  0  0  0
   -3.4640   19.1670  -34.0190 O   0  0  0  0  0  0  0  0  0  0  0  0
   -4.6250   18.4840  -34.4930 C   0  0  0  0  0  0  0  0  0  0  0  0
   -5.6680   18.3880  -33.4110 C   0  0  0  0  0  0  0  0  0  0  0  0
   -5.4790   17.5130  -32.3290 C   0  0  0  0  0  0  0  0  0  0  0  0
   -6.4410   17.4250  -31.3180 C   0  0  0  0  0  0  0  0  0  0  0  0
   -7.5930   18.2130  -31.3760 C   0  0  0  0  0  0  0  0  0  0  0  0
   -7.7840   19.0950  -32.4440 C   0  0  0  0  0  0  0  0  0  0  0  0
   -9.2300   20.0870  -32.5140 Cl  0  0  0  0  0  0  0  0  0  0  0  0
   -6.8230   19.1870  -33.4570 C   0  0  0  0  0  0  0  0  0  0  0  0
   -4.2720   21.3190  -33.3060 C   0  0  0  0  0  0  0  0  0  0  0  0
   -4.3120   22.3760  -32.3940 C   0  0  0  0  0  0  0  0  0  0  0  0
   -7.4269   23.0111  -29.7121 H   0  0  0  0  0  0  0  0  0  0  0  0
   -8.6148   21.8851  -30.4522 H   0  0  0  0  0  0  0  0  0  0  0  0
   -6.8663   21.4734  -30.4522 H   0  0  0  0  0  0  0  0  0  0  0  0
   -6.9372   22.3216  -32.5808 H   0  0  0  0  0  0  0  0  0  0  0  0
   -8.4168   23.2832  -32.2605 H   0  0  0  0  0  0  0  0  0  0  0  0
   -7.4177   25.3315  -30.1844 H   0  0  0  0  0  0  0  0  0  0  0  0
   -6.8673   23.6913  -29.6911 H   0  0  0  0  0  0  0  0  0  0  0  0
   -5.3154   26.2274  -30.0177 H   0  0  0  0  0  0  0  0  0  0  0  0
   -5.0388   24.8234  -28.9220 H   0  0  0  0  0  0  0  0  0  0  0  0
   -4.7250   24.2810  -31.7280 H   0  0  0  0  0  0  0  0  0  0  0  0
   -2.5167   23.7653  -30.0180 H   0  0  0  0  0  0  0  0  0  0  0  0
   -4.0715   23.1800  -29.3327 H   0  0  0  0  0  0  0  0  0  0  0  0
   -2.0950   21.1801  -30.0808 H   0  0  0  0  0  0  0  0  0  0  0  0
   -2.0262   19.2950  -31.7086 H   0  0  0  0  0  0  0  0  0  0  0  0
   -5.0429   19.0343  -35.3489 H   0  0  0  0  0  0  0  0  0  0  0  0
   -4.3365   17.4666  -34.7959 H   0  0  0  0  0  0  0  0  0  0  0  0
   -4.5708   16.8945  -32.2766 H   0  0  0  0  0  0  0  0  0  0  0  0
   -6.2904   16.7340  -30.4755 H   0  0  0  0  0  0  0  0  0  0  0  0
   -8.3500   18.1396  -30.5813 H   0  0  0  0  0  0  0  0  0  0  0  0
   -6.9722   19.8872  -34.2922 H   0  0  0  0  0  0  0  0  0  0  0  0
   -4.8840   21.3641  -34.2189 H   0  0  0  0  0  0  0  0  0  0  0  0
   -4.9475   23.2507  -32.5964 H   0  0  0  0  0  0  0  0  0  0  0  0
  1  2  1  0
  2  3  1  0
  3  4  1  0
  4  5  1  0
  5  6  1  0
  6  7  1  0
  7  8  1  0
  8  9  2  0
  9 10  1  0
 10 11  2  0
 11 12  1  0
 12 13  1  0
 13 14  1  0
 14 15  2  0
 15 16  1  0
 16 17  2  0
 17 18  1  0
 18 19  1  0
 18 20  2  0
 11 21  1  0
 21 22  2  0
 22  8  1  0
 20 14  1  0
  1 23  1  0
  1 24  1  0
  1 25  1  0
  2 26  1  0
  2 27  1  0
  4 28  1  0
  4 29  1  0
  5 30  1  0
  5 31  1  0
  6 32  1  0
  7 33  1  0
  7 34  1  0
  9 35  1  0
 10 36  1  0
 13 37  1  0
 13 38  1  0
 15 39  1  0
 16 40  1  0
 17 41  1  0
 20 42  1  0
 21 43  1  0
 22 44  1  0
M  END
>  <UniqueID>  (44) 
39

>  <SMILES>  (44) 
CCOCCNCc1ccc(OCc2cccc(Cl)c2)cc1

>  <Energy>  (44) 
38.54733278687944

>  <Genealogy>  (44) 
CCOCCNCc1ccc(OCc2cccc(Cl)c2)cc1 (3D coordinates assigned)
CCOCCNCc1ccc(OCc2cccc(Cl)c2)cc1 (optimized conformer: 38.54733278687944 kcal/mol)

>  <smiles>  (44) 
CCOCCNCc1ccc(OCc2cccc(Cl)c2)cc1

>  <score_type>  (44) 
oracle

>  <origin>  (44) 
adg

>  <m_score__min__energy>  (44) 
-8.7599999999999998

>  <m_primary>  (44) 
energy

$$$$
