0:0
     RDKit          3D

 24 25  0  0  0  0  0  0  0  0999 V2000
   -5.6830   25.3980  -30.3100 C   0  0  0  0  0  0  0  0  0  0  0  0
   -4.9900   24.5490  -31.2170 O   0  0  0  0  0  0  0  0  0  0  0  0
   -5.4760   23.3170  -31.6810 C   0  0  0  0  0  0  0  0  0  0  0  0
   -4.6510   22.3780  -32.3430 C   0  0  0  0  0  0  0  0  0  0  0  0
   -5.1820   21.1490  -32.7950 C   0  0  0  0  0  0  0  0  0  0  0  0
   -4.4010   20.1890  -33.4570 O   0  0  0  0  0  0  0  0  0  0  0  0
   -2.9770   20.1790  -33.4680 C   0  0  0  0  0  0  0  0  0  0  0  0
   -6.5400   20.8820  -32.5730 C   0  0  0  0  0  0  0  0  0  0  0  0
   -7.3410   21.8010  -31.9270 C   0  0  0  0  0  0  0  0  0  0  0  0
   -6.8300   23.0200  -31.4750 C   0  0  0  0  0  0  0  0  0  0  0  0
   -8.7070   21.3480  -31.7920 C   0  0  0  0  0  0  0  0  0  0  0  0
   -9.6120   22.0230  -31.2340 O   0  0  0  0  0  0  0  0  0  0  0  0
   -8.9970   19.7330  -32.4890 S   0  0  0  0  0  0  0  0  0  0  0  0
   -7.2330   19.6220  -32.9970 C   0  0  0  0  0  0  0  0  0  0  0  0
   -5.4435   25.1046  -29.2773 H   0  0  0  0  0  0  0  0  0  0  0  0
   -5.3749   26.4409  -30.4757 H   0  0  0  0  0  0  0  0  0  0  0  0
   -6.7665   25.3050  -30.4757 H   0  0  0  0  0  0  0  0  0  0  0  0
   -3.5876   22.6063  -32.5073 H   0  0  0  0  0  0  0  0  0  0  0  0
   -2.6023   20.1764  -32.4338 H   0  0  0  0  0  0  0  0  0  0  0  0
   -2.6207   19.2783  -33.9894 H   0  0  0  0  0  0  0  0  0  0  0  0
   -2.6080   21.0746  -33.9894 H   0  0  0  0  0  0  0  0  0  0  0  0
   -7.4844   23.7402  -30.9621 H   0  0  0  0  0  0  0  0  0  0  0  0
   -6.7599   18.7559  -32.5111 H   0  0  0  0  0  0  0  0  0  0  0  0
   -7.1601   19.4984  -34.0876 H   0  0  0  0  0  0  0  0  0  0  0  0
  1  2  1  0
  2  3  1  0
  3  4  2  0
  4  5  1  0
  5  6  1  0
  6  7  1  0
  5  8  2  0
  8  9  1  0
  9 10  2  0
  9 11  1  0
 11 12  2  0
 11 13  1  0
 13 14  1  0
 10  3  1  0
 14  8  1  0
  1 15  1  0
  1 16  1  0
  1 17  1  0
  4 18  1  0
  7 19  1  0
  7 20  1  0
  7 21  1  0
 10 22  1  0
 14 23  1  0
 14 24  1  0
M  END
>  <UniqueID>  (1) 
1

>  <SMILES>  (1) 
COc1cc(OC)c2c(c1)C(=O)SC2

>  <Energy>  (1) 
33.02535903444557

>  <Genealogy>  (1) 
COc1cc(OC)c2c(c1)C(=O)SC2 (3D coordinates assigned)
COc1cc(OC)c2c(c1)C(=O)SC2 (nonaromatic ring conformer: 33.02535903444557 kcal/mol)

>  <smiles>  (1) 
COc1cc(OC)c2c(c1)C(=O)SC2

>  <score_type>  (1) 
oracle

>  <origin>  (1) 
adg

>  <m_score__min__energy>  (1) 
-5.8799999999999999

>  <m_primary>  (1) 
energy

$$$$
1:0
     RDKit          3D

 36 37  0  0  0  0  0  0  0  0999 V2000
   -6.4860   25.6690  -29.3450 C   0  0  0  0  0  0  0  0  0  0  0  0
   -6.1280   24.5680  -30.3000 C   0  0  0  0  0  0  0  0  0  0  0  0
   -7.0910   24.0570  -31.1810 C   0  0  0  0  0  0  0  0  0  0  0  0
   -6.7500   23.0580  -32.0970 C   0  0  0  0  0  0  0  0  0  0  0  0
   -5.4320   22.5640  -32.1600 C   0  0  0  0  0  0  0  0  0  0  0  0
   -5.0530   21.5290  -33.0900 N   0  0  0  0  0  0  0  0  0  0  0  0
   -5.2520   20.0950  -32.8680 C   0  0  0  0  0  0  0  0  0  0  0  0
   -6.3640   19.5260  -33.8000 C   0  0  1  0  0  0  0  0  0  0  0  0
   -5.9080   18.2190  -34.4560 C   0  0  0  0  0  0  0  0  0  0  0  0
   -6.4480   17.1140  -33.5580 C   0  0  0  0  0  0  0  0  0  0  0  0
   -7.4310   17.7970  -32.6080 C   0  0  0  0  0  0  0  0  0  0  0  0
   -7.6130   19.1710  -33.0930 N   0  0  1  0  0  0  0  0  0  0  0  0
   -8.0360   20.0970  -32.0270 C   0  0  0  0  0  0  0  0  0  0  0  0
   -4.4690   23.0890  -31.2790 C   0  0  0  0  0  0  0  0  0  0  0  0
   -3.1880   22.6430  -31.3160 F   0  0  0  0  0  0  0  0  0  0  0  0
   -4.8130   24.0890  -30.3650 C   0  0  0  0  0  0  0  0  0  0  0  0
   -6.3694   25.3104  -28.3117 H   0  0  0  0  0  0  0  0  0  0  0  0
   -5.8214   26.5295  -29.5117 H   0  0  0  0  0  0  0  0  0  0  0  0
   -7.5296   25.9741  -29.5117 H   0  0  0  0  0  0  0  0  0  0  0  0
   -8.1202   24.4441  -31.1513 H   0  0  0  0  0  0  0  0  0  0  0  0
   -7.5169   22.6541  -32.7743 H   0  0  0  0  0  0  0  0  0  0  0  0
   -4.6070   21.8080  -33.9940 H   0  0  0  0  0  0  0  0  0  0  0  0
   -4.3089   19.5667  -33.0717 H   0  0  0  0  0  0  0  0  0  0  0  0
   -5.5644   19.9456  -31.8239 H   0  0  0  0  0  0  0  0  0  0  0  0
   -6.5491   20.3361  -34.5208 H   0  0  0  0  0  0  0  0  0  0  0  0
   -6.3245   18.1303  -35.4702 H   0  0  0  0  0  0  0  0  0  0  0  0
   -4.8139   18.1691  -34.5578 H   0  0  0  0  0  0  0  0  0  0  0  0
   -6.9629   16.3493  -34.1581 H   0  0  0  0  0  0  0  0  0  0  0  0
   -5.6411   16.6050  -33.0104 H   0  0  0  0  0  0  0  0  0  0  0  0
   -8.3933   17.2641  -32.6130 H   0  0  0  0  0  0  0  0  0  0  0  0
   -7.0478   17.7923  -31.5769 H   0  0  0  0  0  0  0  0  0  0  0  0
   -8.3830   19.1560  -33.8060 H   0  0  0  0  0  0  0  0  0  0  0  0
   -7.8296   19.6451  -31.0456 H   0  0  0  0  0  0  0  0  0  0  0  0
   -7.4801   21.0416  -32.1200 H   0  0  0  0  0  0  0  0  0  0  0  0
   -9.1140   20.2953  -32.1200 H   0  0  0  0  0  0  0  0  0  0  0  0
   -4.0467   24.5024  -29.6927 H   0  0  0  0  0  0  0  0  0  0  0  0
  1  2  1  0
  2  3  2  0
  3  4  1  0
  4  5  2  0
  5  6  1  0
  6  7  1  0
  7  8  1  0
  8  9  1  0
  9 10  1  0
 10 11  1  0
 11 12  1  0
 12 13  1  0
  5 14  1  0
 14 15  1  0
 14 16  2  0
 16  2  1  0
 12  8  1  0
  1 17  1  0
  1 18  1  0
  1 19  1  0
  3 20  1  0
  4 21  1  0
  6 22  1  0
  7 23  1  0
  7 24  1  0
  8 25  1  6
  9 26  1  0
  9 27  1  0
 10 28  1  0
 10 29  1  0
 11 30  1  0
 11 31  1  0
 12 32  1  6
 13 33  1  0
 13 34  1  0
 13 35  1  0
 16 36  1  0
M  CHG  1  12   1
M  END
>  <UniqueID>  (2) 
2

>  <SMILES>  (2) 
Cc1ccc(NC[C@H]2CCC[N@H+]2C)c(F)c1

>  <Energy>  (2) 
40.78100121038906

>  <Genealogy>  (2) 
Cc1ccc(NCC2CCC[NH+]2C)c(F)c1 (protonated)
Cc1ccc(NC[C@H]2CCC[N@H+]2C)c(F)c1 (chirality)
Cc1ccc(NC[C@H]2CCC[N@H+]2C)c(F)c1 (3D coordinates assigned)
Cc1ccc(NC[C@H]2CCC[N@H+]2C)c(F)c1 (nonaromatic ring conformer: 40.78100121038906 kcal/mol)

>  <smiles>  (2) 
Cc1ccc(NCC2CCCN2C)c(F)c1

>  <score_type>  (2) 
oracle

>  <origin>  (2) 
adg

>  <m_score__min__energy>  (2) 
-6.0899999999999999

>  <m_primary>  (2) 
energy

$$$$
2:0
     RDKit          3D

 47 50  0  0  1  0  0  0  0  0999 V2000
   -0.3540   25.5920  -27.1060 C   0  0  0  0  0  0  0  0  0  0  0  0
   -0.1990   24.7940  -28.3090 N   0  0  0  0  0  0  0  0  0  0  0  0
   -1.1800   24.0680  -28.7390 C   0  0  0  0  0  0  0  0  0  0  0  0
   -1.1890   22.7790  -28.3920 N   0  0  0  0  0  0  0  0  0  0  0  0
   -2.2160   22.0110  -28.8390 C   0  0  0  0  0  0  0  0  0  0  0  0
   -2.2020   20.6540  -28.4450 N   0  0  0  0  0  0  0  0  0  0  0  0
   -3.0920   20.0710  -27.4600 C   0  0  0  0  0  0  0  0  0  0  0  0
   -2.2890   19.3960  -26.3560 C   0  0  0  0  0  0  0  0  0  0  0  0
   -1.2950   18.5810  -26.8860 O   0  0  0  0  0  0  0  0  0  0  0  0
   -0.4740   19.1840  -27.8030 C   0  0  0  0  0  0  0  0  0  0  0  0
   -1.2280   19.7100  -29.0290 C   0  0  0  0  0  0  0  0  0  0  0  0
   -3.1760   22.6030  -29.6140 C   0  0  0  0  0  0  0  0  0  0  0  0
   -4.2320   21.8610  -30.0930 C   0  0  0  0  0  0  0  0  0  0  0  0
   -5.2110   22.3990  -30.8700 C   0  0  0  0  0  0  0  0  0  0  0  0
   -6.2990   21.5480  -31.3390 C   0  0  0  0  0  0  0  0  0  0  0  0
   -7.6090   21.9730  -31.1220 C   0  0  0  0  0  0  0  0  0  0  0  0
   -8.6990   21.2260  -31.5340 C   0  0  0  0  0  0  0  0  0  0  0  0
   -8.4390   20.0250  -32.1790 C   0  0  0  0  0  0  0  0  0  0  0  0
   -7.1380   19.6140  -32.3890 C   0  0  0  0  0  0  0  0  0  0  0  0
   -6.8820   18.4120  -33.0350 O   0  0  0  0  0  0  0  0  0  0  0  0
   -6.0410   18.3820  -34.1970 C   0  0  0  0  0  0  0  0  0  0  0  0
   -6.0410   20.3540  -31.9810 C   0  0  0  0  0  0  0  0  0  0  0  0
   -5.1480   23.7430  -31.1950 C   0  0  0  0  0  0  0  0  0  0  0  0
   -4.1010   24.4700  -30.7200 N   0  0  0  0  0  0  0  0  0  0  0  0
   -3.1490   23.9410  -29.9620 C   0  0  0  0  0  0  0  0  0  0  0  0
   -2.1140   24.6610  -29.4970 N   0  0  0  0  0  0  0  0  0  0  0  0
   -0.2293   24.9500  -26.2215 H   0  0  0  0  0  0  0  0  0  0  0  0
    0.4066   26.3865  -27.0925 H   0  0  0  0  0  0  0  0  0  0  0  0
   -1.3567   26.0440  -27.0925 H   0  0  0  0  0  0  0  0  0  0  0  0
   -3.7170   20.8631  -27.0217 H   0  0  0  0  0  0  0  0  0  0  0  0
   -3.7266   19.3190  -27.9518 H   0  0  0  0  0  0  0  0  0  0  0  0
   -1.8225   20.1688  -25.7274 H   0  0  0  0  0  0  0  0  0  0  0  0
   -2.9711   18.7720  -25.7598 H   0  0  0  0  0  0  0  0  0  0  0  0
    0.0347   20.0288  -27.3156 H   0  0  0  0  0  0  0  0  0  0  0  0
    0.2380   18.4237  -28.1565 H   0  0  0  0  0  0  0  0  0  0  0  0
   -0.5455   20.2249  -29.7211 H   0  0  0  0  0  0  0  0  0  0  0  0
   -1.7010   18.9121  -29.6203 H   0  0  0  0  0  0  0  0  0  0  0  0
   -4.2865   20.7924  -29.8379 H   0  0  0  0  0  0  0  0  0  0  0  0
   -7.7814   22.9302  -30.6082 H   0  0  0  0  0  0  0  0  0  0  0  0
   -9.7288   21.5701  -31.3575 H   0  0  0  0  0  0  0  0  0  0  0  0
   -9.2737   19.3975  -32.5246 H   0  0  0  0  0  0  0  0  0  0  0  0
   -4.9867   18.3444  -33.8857 H   0  0  0  0  0  0  0  0  0  0  0  0
   -6.2778   17.4917  -34.7981 H   0  0  0  0  0  0  0  0  0  0  0  0
   -6.2138   19.2869  -34.7981 H   0  0  0  0  0  0  0  0  0  0  0  0
   -5.0128   20.0066  -32.1601 H   0  0  0  0  0  0  0  0  0  0  0  0
   -5.9232   24.2103  -31.8201 H   0  0  0  0  0  0  0  0  0  0  0  0
   -2.0640   25.6700  -29.7410 H   0  0  0  0  0  0  0  0  0  0  0  0
  1  2  1  0
  2  3  2  0
  3  4  1  0
  4  5  2  0
  5  6  1  0
  6  7  1  0
  7  8  1  0
  8  9  1  0
  9 10  1  0
 10 11  1  0
  5 12  1  0
 12 13  2  0
 13 14  1  0
 14 15  1  0
 15 16  2  0
 16 17  1  0
 17 18  2  0
 18 19  1  0
 19 20  1  0
 20 21  1  0
 19 22  2  0
 14 23  2  0
 23 24  1  0
 24 25  2  0
 25 26  1  0
 26  3  1  0
 11  6  1  0
 25 12  1  0
 22 15  1  0
  1 27  1  0
  1 28  1  0
  1 29  1  0
  7 30  1  0
  7 31  1  0
  8 32  1  0
  8 33  1  0
 10 34  1  0
 10 35  1  0
 11 36  1  0
 11 37  1  0
 13 38  1  0
 16 39  1  0
 17 40  1  0
 18 41  1  0
 21 42  1  0
 21 43  1  0
 21 44  1  0
 22 45  1  0
 23 46  1  0
 26 47  1  0
M  END
>  <smiles>  (3) 
CN=c1nc(N2CCOCC2)c2cc(-c3cccc(OC)c3)cnc2[nH]1

>  <score_type>  (3) 
oracle

>  <origin>  (3) 
adg

>  <m_score__min__energy>  (3) 
-8.8699999999999992

>  <m_primary>  (3) 
energy

$$$$
3:0
     RDKit          3D

 45 46  0  0  0  0  0  0  0  0999 V2000
   -5.3430   18.6110  -34.1260 C   0  0  0  0  0  0  0  0  0  0  0  0
   -4.2200   18.9150  -33.1360 C   0  0  0  0  0  0  0  0  0  0  0  0
   -3.3380   20.0830  -33.5920 C   0  0  0  0  0  0  0  0  0  0  0  0
   -2.4260   20.5520  -32.4980 C   0  0  0  0  0  0  0  0  0  0  0  0
   -2.6970   21.5960  -31.6840 N   0  0  0  0  0  0  0  0  0  0  0  0
   -1.6910   21.8400  -30.8000 C   0  0  0  0  0  0  0  0  0  0  0  0
   -1.7790   22.9210  -29.7640 C   0  0  0  0  0  0  0  0  0  0  0  0
   -3.1820   23.2970  -29.5450 N   0  0  0  0  0  0  0  0  0  0  0  0
   -3.8850   22.8470  -28.3410 C   0  0  0  0  0  0  0  0  0  0  0  0
   -3.8910   24.0730  -30.5310 C   0  0  0  0  0  0  0  0  0  0  0  0
   -3.8650   25.3330  -30.4830 O   0  0  0  0  0  0  0  0  0  0  0  0
   -4.6220   23.4140  -31.5720 N   0  0  0  0  0  0  0  0  0  0  0  0
   -5.8990   22.7350  -31.3670 C   0  0  0  0  0  0  0  0  0  0  0  0
   -7.0520   23.7560  -31.5020 C   0  0  0  0  0  0  0  0  0  0  0  0
   -8.3890   23.1240  -31.9420 C   0  0  0  0  0  0  0  0  0  0  0  0
   -8.4940   21.6570  -31.5180 C   0  0  0  0  0  0  0  0  0  0  0  0
   -7.3710   20.8040  -32.1430 C   0  0  0  0  0  0  0  0  0  0  0  0
   -6.0620   21.5870  -32.3770 C   0  0  0  0  0  0  0  0  0  0  0  0
   -0.6030   20.9770  -30.9010 C   0  0  0  0  0  0  0  0  0  0  0  0
   -0.9190   19.8920  -32.1480 S   0  0  0  0  0  0  0  0  0  0  0  0
   -6.2613   18.3624  -33.5738 H   0  0  0  0  0  0  0  0  0  0  0  0
   -5.5229   19.4928  -34.7585 H   0  0  0  0  0  0  0  0  0  0  0  0
   -5.0535   17.7589  -34.7585 H   0  0  0  0  0  0  0  0  0  0  0  0
   -4.6661   19.1683  -32.1629 H   0  0  0  0  0  0  0  0  0  0  0  0
   -3.5828   18.0210  -33.0673 H   0  0  0  0  0  0  0  0  0  0  0  0
   -2.7290   19.7564  -34.4478 H   0  0  0  0  0  0  0  0  0  0  0  0
   -3.9956   20.9194  -33.8712 H   0  0  0  0  0  0  0  0  0  0  0  0
   -3.5800   22.1520  -31.7330 H   0  0  0  0  0  0  0  0  0  0  0  0
   -1.3485   22.5560  -28.8198 H   0  0  0  0  0  0  0  0  0  0  0  0
   -1.2206   23.8017  -30.1141 H   0  0  0  0  0  0  0  0  0  0  0  0
   -3.3431   23.1939  -27.4488 H   0  0  0  0  0  0  0  0  0  0  0  0
   -4.9041   23.2611  -28.3351 H   0  0  0  0  0  0  0  0  0  0  0  0
   -3.9357   21.7482  -28.3351 H   0  0  0  0  0  0  0  0  0  0  0  0
   -5.9246   22.3022  -30.3561 H   0  0  0  0  0  0  0  0  0  0  0  0
   -7.2016   24.2424  -30.5268 H   0  0  0  0  0  0  0  0  0  0  0  0
   -6.7598   24.4705  -32.2857 H   0  0  0  0  0  0  0  0  0  0  0  0
   -9.2160   23.6865  -31.4841 H   0  0  0  0  0  0  0  0  0  0  0  0
   -8.4408   23.1660  -33.0400 H   0  0  0  0  0  0  0  0  0  0  0  0
   -8.4209   21.5960  -30.4221 H   0  0  0  0  0  0  0  0  0  0  0  0
   -9.4600   21.2654  -31.8695 H   0  0  0  0  0  0  0  0  0  0  0  0
   -7.1572   19.9616  -31.4687 H   0  0  0  0  0  0  0  0  0  0  0  0
   -7.7286   20.4692  -33.1279 H   0  0  0  0  0  0  0  0  0  0  0  0
   -5.2109   20.8978  -32.2741 H   0  0  0  0  0  0  0  0  0  0  0  0
   -6.0973   22.0208  -33.3872 H   0  0  0  0  0  0  0  0  0  0  0  0
    0.3023   21.0003  -30.2766 H   0  0  0  0  0  0  0  0  0  0  0  0
  1  2  1  0
  2  3  1  0
  3  4  1  0
  4  5  2  0
  5  6  1  0
  6  7  1  0
  7  8  1  0
  8  9  1  0
  8 10  1  0
 10 11  2  0
 10 12  1  0
 12 13  1  0
 13 14  1  0
 14 15  1  0
 15 16  1  0
 16 17  1  0
 17 18  1  0
  6 19  2  0
 19 20  1  0
 20  4  1  0
 18 13  1  0
  1 21  1  0
  1 22  1  0
  1 23  1  0
  2 24  1  0
  2 25  1  0
  3 26  1  0
  3 27  1  0
  5 28  1  0
  7 29  1  0
  7 30  1  0
  9 31  1  0
  9 32  1  0
  9 33  1  0
 13 34  1  0
 14 35  1  0
 14 36  1  0
 15 37  1  0
 15 38  1  0
 16 39  1  0
 16 40  1  0
 17 41  1  0
 17 42  1  0
 18 43  1  0
 18 44  1  0
 19 45  1  0
M  CHG  2   5   1  12  -1
M  END
>  <UniqueID>  (4) 
3

>  <SMILES>  (4) 
CCCc1[nH+]c(CN(C)C(=O)[N-]C2CCCCC2)cs1

>  <Energy>  (4) 
61.9234777385479

>  <Genealogy>  (4) 
CCCc1[nH+]c(CN(C)C(=O)[N-]C2CCCCC2)cs1 (protonated)
CCCc1[nH+]c(CN(C)C(=O)[N-]C2CCCCC2)cs1 (3D coordinates assigned)
CCCc1[nH+]c(CN(C)C(=O)[N-]C2CCCCC2)cs1 (nonaromatic ring conformer: 61.9234777385479 kcal/mol)

>  <smiles>  (4) 
CCCc1nc(CN(C)C(=O)NC2CCCCC2)cs1

>  <score_type>  (4) 
oracle

>  <origin>  (4) 
adg

>  <m_score__min__energy>  (4) 
-7.3600000000000003

>  <m_primary>  (4) 
energy

$$$$
4:0
     RDKit          3D

 31 33  0  0  0  0  0  0  0  0999 V2000
   -6.6999   21.1205  -31.9127 H   0  0  0  0  0  0  0  0  0  0  0  0
   -6.1220   21.9760  -31.5330 C   0  0  0  0  0  0  0  0  0  0  0  0
   -6.6140   23.2950  -31.7160 C   0  0  0  0  0  0  0  0  0  0  0  0
   -7.8270   23.5590  -32.3710 O   0  0  0  0  0  0  0  0  0  0  0  0
   -9.0830   23.0080  -31.9880 C   0  0  0  0  0  0  0  0  0  0  0  0
   -9.1510   22.9782  -30.8905 H   0  0  0  0  0  0  0  0  0  0  0  0
   -9.8949   23.6326  -32.3888 H   0  0  0  0  0  0  0  0  0  0  0  0
   -9.1733   21.9876  -32.3888 H   0  0  0  0  0  0  0  0  0  0  0  0
   -5.8730   24.3890  -31.2280 C   0  0  0  0  0  0  0  0  0  0  0  0
   -6.2425   25.4164  -31.3615 H   0  0  0  0  0  0  0  0  0  0  0  0
   -4.6640   24.1520  -30.5730 C   0  0  0  0  0  0  0  0  0  0  0  0
   -3.8660   25.1250  -30.0630 N   0  0  0  0  0  0  0  0  0  0  0  0
   -2.7620   24.5830  -29.4880 C   0  0  0  0  0  0  0  0  0  0  0  0
   -1.8220   25.2760  -28.9180 N   0  0  0  0  0  0  0  0  0  0  0  0
   -0.6460   24.7500  -28.2790 C   0  0  0  0  0  0  0  0  0  0  0  0
    0.2640   24.2060  -28.9630 O   0  0  0  0  0  0  0  0  0  0  0  0
   -0.4990   24.8490  -26.8080 C   0  0  0  0  0  0  0  0  0  0  0  0
   -0.9720   25.9760  -26.1120 C   0  0  0  0  0  0  0  0  0  0  0  0
   -1.4565   26.7989  -26.6579 H   0  0  0  0  0  0  0  0  0  0  0  0
   -0.8240   26.0460  -24.7250 C   0  0  0  0  0  0  0  0  0  0  0  0
   -1.1937   26.9262  -24.1786 H   0  0  0  0  0  0  0  0  0  0  0  0
   -0.2250   25.0310  -24.0470 N   0  0  0  0  0  0  0  0  0  0  0  0
   -0.1210   25.1000  -23.0100 H   0  0  0  0  0  0  0  0  0  0  0  0
    0.2420   23.9280  -24.6910 C   0  0  0  0  0  0  0  0  0  0  0  0
    0.7222   23.1211  -24.1180 H   0  0  0  0  0  0  0  0  0  0  0  0
    0.1140   23.8160  -26.0780 C   0  0  0  0  0  0  0  0  0  0  0  0
    0.4916   22.9225  -26.5967 H   0  0  0  0  0  0  0  0  0  0  0  0
   -2.7320   22.8940  -29.5880 S   0  0  0  0  0  0  0  0  0  0  0  0
   -4.1990   22.8580  -30.4050 C   0  0  0  0  0  0  0  0  0  0  0  0
   -4.9050   21.7550  -30.8720 C   0  0  0  0  0  0  0  0  0  0  0  0
   -4.5189   20.7353  -30.7268 H   0  0  0  0  0  0  0  0  0  0  0  0
  1  2  1  0
  2  3  2  0
  3  4  1  0
  4  5  1  0
  5  6  1  0
  5  7  1  0
  5  8  1  0
  3  9  1  0
  9 10  1  0
  9 11  2  0
 11 12  1  0
 12 13  1  0
 13 14  2  0
 14 15  1  0
 15 16  2  0
 15 17  1  0
 17 18  2  0
 18 19  1  0
 18 20  1  0
 20 21  1  0
 20 22  2  0
 22 23  1  0
 22 24  1  0
 24 25  1  0
 24 26  2  0
 26 27  1  0
 13 28  1  0
 28 29  1  0
 29 30  2  0
 30 31  1  0
 30  2  1  0
 29 11  1  0
 26 17  1  0
M  CHG  2  12  -1  22   1
M  END
>  <UniqueID>  (5) 
4

>  <SMILES>  (5) 
COc1ccc2s/c(=N/C(=O)c3cc[nH+]cc3)[n-]c2c1

>  <Energy>  (5) 
70.52236369062088

>  <Genealogy>  (5) 
COc1ccc2sc(=NC(=O)c3cc[nH+]cc3)[n-]c2c1 (protonated)
COc1ccc2s/c(=N/C(=O)c3cc[nH+]cc3)[n-]c2c1 (cis-trans isomerization)
COc1ccc2s/c(=N/C(=O)c3cc[nH+]cc3)[n-]c2c1 (3D coordinates assigned)
COc1ccc2s/c(=N/C(=O)c3cc[nH+]cc3)[n-]c2c1 (optimized conformer: 70.52236369062088 kcal/mol)

>  <smiles>  (5) 
COc1ccc2sc(=NC(=O)c3ccncc3)[nH]c2c1

>  <score_type>  (5) 
oracle

>  <origin>  (5) 
adg

>  <m_score__min__energy>  (5) 
-8.6699999999999999

>  <m_primary>  (5) 
energy

$$$$
5:0
     RDKit          3D

 36 38  0  0  0  0  0  0  0  0999 V2000
   -9.1330   18.6570  -31.6190 C   0  0  0  0  0  0  0  0  0  0  0  0
   -7.9450   19.1370  -32.3950 C   0  0  0  0  0  0  0  0  0  0  0  0
   -7.5750   20.4850  -32.5770 C   0  0  0  0  0  0  0  0  0  0  0  0
   -8.3150   21.6780  -32.0490 C   0  0  0  0  0  0  0  0  0  0  0  0
   -8.3150   21.6720  -30.5810 N   0  0  0  0  0  0  0  0  0  0  0  0
   -7.1030   22.3060  -30.0410 C   0  0  0  0  0  0  0  0  0  0  0  0
   -6.6660   23.4760  -30.9430 C   0  0  0  0  0  0  0  0  0  0  0  0
   -5.3290   23.1610  -31.6580 C   0  0  0  0  0  0  0  0  0  0  0  0
   -4.1350   23.7580  -30.9000 C   0  0  0  0  0  0  0  0  0  0  0  0
   -4.2150   25.2280  -30.7810 N   0  0  0  0  0  0  0  0  0  0  0  0
   -5.5890   25.7700  -30.7670 C   0  0  0  0  0  0  0  0  0  0  0  0
   -6.5860   24.7950  -30.1320 C   0  0  0  0  0  0  0  0  0  0  0  0
   -6.0920   20.5830  -33.4310 S   0  0  0  0  0  0  0  0  0  0  0  0
   -5.9420   18.9210  -33.5540 C   0  0  0  0  0  0  0  0  0  0  0  0
   -4.9720   18.1340  -34.0900 N   0  0  0  0  0  0  0  0  0  0  0  0
   -5.2380   16.8340  -33.9280 N   0  0  0  0  0  0  0  0  0  0  0  0
   -6.6910   16.6730  -33.1020 S   0  0  0  0  0  0  0  0  0  0  0  0
   -6.9860   18.3020  -32.9560 C   0  0  0  0  0  0  0  0  0  0  0  0
   -8.9257   18.7408  -30.5420 H   0  0  0  0  0  0  0  0  0  0  0  0
  -10.0093   19.2716  -31.8726 H   0  0  0  0  0  0  0  0  0  0  0  0
   -9.3364   17.6061  -31.8726 H   0  0  0  0  0  0  0  0  0  0  0  0
   -7.8259   22.5957  -32.4076 H   0  0  0  0  0  0  0  0  0  0  0  0
   -9.3548   21.6394  -32.4059 H   0  0  0  0  0  0  0  0  0  0  0  0
   -9.1400   22.2320  -30.2590 H   0  0  0  0  0  0  0  0  0  0  0  0
   -7.3114   22.6853  -29.0297 H   0  0  0  0  0  0  0  0  0  0  0  0
   -6.2948   21.5607  -30.0041 H   0  0  0  0  0  0  0  0  0  0  0  0
   -7.4285   23.6114  -31.7242 H   0  0  0  0  0  0  0  0  0  0  0  0
   -5.2045   22.0698  -31.7198 H   0  0  0  0  0  0  0  0  0  0  0  0
   -5.3598   23.6076  -32.6628 H   0  0  0  0  0  0  0  0  0  0  0  0
   -4.1064   23.3238  -29.8897 H   0  0  0  0  0  0  0  0  0  0  0  0
   -3.2253   23.5190  -31.4703 H   0  0  0  0  0  0  0  0  0  0  0  0
   -3.7090   25.6560  -31.5920 H   0  0  0  0  0  0  0  0  0  0  0  0
   -5.5947   26.7078  -30.1921 H   0  0  0  0  0  0  0  0  0  0  0  0
   -5.8973   25.9393  -31.8092 H   0  0  0  0  0  0  0  0  0  0  0  0
   -6.2625   24.5672  -29.1056 H   0  0  0  0  0  0  0  0  0  0  0  0
   -7.5808   25.2644  -30.1271 H   0  0  0  0  0  0  0  0  0  0  0  0
  1  2  1  0
  2  3  2  0
  3  4  1  0
  4  5  1  0
  5  6  1  0
  6  7  1  0
  7  8  1  0
  8  9  1  0
  9 10  1  0
 10 11  1  0
 11 12  1  0
  3 13  1  0
 13 14  1  0
 14 15  1  0
 15 16  2  0
 16 17  1  0
 17 18  1  0
 18  2  1  0
 12  7  1  0
 18 14  2  0
  1 19  1  0
  1 20  1  0
  1 21  1  0
  4 22  1  0
  4 23  1  0
  5 24  1  0
  6 25  1  0
  6 26  1  0
  7 27  1  0
  8 28  1  0
  8 29  1  0
  9 30  1  0
  9 31  1  0
 10 32  1  0
 11 33  1  0
 11 34  1  0
 12 35  1  0
 12 36  1  0
M  END
>  <UniqueID>  (6) 
5

>  <SMILES>  (6) 
Cc1c(CNCC2CCNCC2)sc2nnsc12

>  <Energy>  (6) 
119.25473509197691

>  <Genealogy>  (6) 
Cc1c(CNCC2CCNCC2)sc2nnsc12 (3D coordinates assigned)
Cc1c(CNCC2CCNCC2)sc2nnsc12 (nonaromatic ring conformer: 119.25473509197691 kcal/mol)

>  <smiles>  (6) 
Cc1c(CNCC2CCNCC2)sc2nnsc12

>  <score_type>  (6) 
oracle

>  <origin>  (6) 
adg

>  <m_score__min__energy>  (6) 
-8.6600000000000001

>  <m_primary>  (6) 
energy

$$$$
6:0
     RDKit          3D

 31 32  0  0  0  0  0  0  0  0999 V2000
   -4.5280   24.1940  -28.5990 C   0  0  0  0  0  0  0  0  0  0  0  0
   -3.9250   24.4080  -29.9900 C   0  0  0  0  0  0  0  0  0  0  0  0
   -4.7760   25.2430  -30.8530 N   0  0  0  0  0  0  0  0  0  0  0  0
   -5.8640   24.4770  -31.4770 C   0  0  0  0  0  0  0  0  0  0  0  0
   -5.5460   22.9630  -31.4590 C   0  0  2  0  0  0  0  0  0  0  0  0
   -4.4780   22.6470  -32.5360 C   0  0  0  0  0  0  0  0  0  0  0  0
   -4.3220   21.1430  -32.7310 C   0  0  0  0  0  0  0  0  0  0  0  0
   -5.5740   20.5760  -33.0980 O   0  0  0  0  0  0  0  0  0  0  0  0
   -6.7610   20.9570  -32.4690 C   0  0  0  0  0  0  0  0  0  0  0  0
   -7.9090   20.1820  -32.6600 C   0  0  0  0  0  0  0  0  0  0  0  0
   -9.0900   20.4980  -31.9890 C   0  0  0  0  0  0  0  0  0  0  0  0
   -9.1250   21.5840  -31.1130 C   0  0  0  0  0  0  0  0  0  0  0  0
   -7.9880   22.3760  -30.9290 C   0  0  0  0  0  0  0  0  0  0  0  0
   -6.8020   22.1070  -31.6450 C   0  0  0  0  0  0  0  0  0  0  0  0
   -3.7845   24.4579  -27.8325 H   0  0  0  0  0  0  0  0  0  0  0  0
   -5.4168   24.8316  -28.4826 H   0  0  0  0  0  0  0  0  0  0  0  0
   -4.8160   23.1388  -28.4826 H   0  0  0  0  0  0  0  0  0  0  0  0
   -2.9470   24.8990  -29.8784 H   0  0  0  0  0  0  0  0  0  0  0  0
   -3.8314   23.4218  -30.4681 H   0  0  0  0  0  0  0  0  0  0  0  0
   -4.1890   25.6810  -31.6020 H   0  0  0  0  0  0  0  0  0  0  0  0
   -6.7967   24.6568  -30.9223 H   0  0  0  0  0  0  0  0  0  0  0  0
   -5.9728   24.8035  -32.5218 H   0  0  0  0  0  0  0  0  0  0  0  0
   -5.1436   22.7051  -30.4683 H   0  0  0  0  0  0  0  0  0  0  0  0
   -4.7835   23.1029  -33.4893 H   0  0  0  0  0  0  0  0  0  0  0  0
   -3.5136   23.0575  -32.2021 H   0  0  0  0  0  0  0  0  0  0  0  0
   -3.5864   20.9515  -33.5262 H   0  0  0  0  0  0  0  0  0  0  0  0
   -3.9764   20.6872  -31.7914 H   0  0  0  0  0  0  0  0  0  0  0  0
   -7.8805   19.3196  -33.3422 H   0  0  0  0  0  0  0  0  0  0  0  0
   -9.9935   19.8916  -32.1501 H   0  0  0  0  0  0  0  0  0  0  0  0
  -10.0502   21.8174  -30.5657 H   0  0  0  0  0  0  0  0  0  0  0  0
   -8.0179   23.2164  -30.2198 H   0  0  0  0  0  0  0  0  0  0  0  0
  1  2  1  0
  2  3  1  0
  3  4  1  0
  4  5  1  0
  5  6  1  0
  6  7  1  0
  7  8  1  0
  8  9  1  0
  9 10  2  0
 10 11  1  0
 11 12  2  0
 12 13  1  0
 13 14  2  0
 14  5  1  0
 14  9  1  0
  1 15  1  0
  1 16  1  0
  1 17  1  0
  2 18  1  0
  2 19  1  0
  3 20  1  0
  4 21  1  0
  4 22  1  0
  5 23  1  1
  6 24  1  0
  6 25  1  0
  7 26  1  0
  7 27  1  0
 10 28  1  0
 11 29  1  0
 12 30  1  0
 13 31  1  0
M  END
>  <UniqueID>  (7) 
6

>  <SMILES>  (7) 
CCNC[C@@H]1CCOc2ccccc21

>  <Energy>  (7) 
29.723143220003735

>  <Genealogy>  (7) 
CCNC[C@@H]1CCOc2ccccc21 (chirality)
CCNC[C@@H]1CCOc2ccccc21 (3D coordinates assigned)
CCNC[C@@H]1CCOc2ccccc21 (nonaromatic ring conformer: 29.723143220003735 kcal/mol)

>  <smiles>  (7) 
CCNCC1CCOc2ccccc21

>  <score_type>  (7) 
oracle

>  <origin>  (7) 
adg

>  <m_score__min__energy>  (7) 
-6.4900000000000002

>  <m_primary>  (7) 
energy

$$$$
7:0
     RDKit          3D

 28 28  0  0  0  0  0  0  0  0999 V2000
   -7.7600   20.0710  -33.0720 C   0  0  0  0  0  0  0  0  0  0  0  0
   -7.1310   21.1870  -32.2790 C   0  0  0  0  0  0  0  0  0  0  0  0
   -5.7500   21.4210  -32.3960 C   0  0  0  0  0  0  0  0  0  0  0  0
   -5.1400   22.4470  -31.6730 C   0  0  0  0  0  0  0  0  0  0  0  0
   -5.8990   23.2560  -30.8210 C   0  0  0  0  0  0  0  0  0  0  0  0
   -5.1400   24.5620  -29.9160 S   0  0  0  0  0  0  0  0  0  0  0  0
   -6.1730   25.5100  -29.3730 O   0  0  0  0  0  0  0  0  0  0  0  0
   -4.2310   25.3190  -30.8420 O   0  0  0  0  0  0  0  0  0  0  0  0
   -4.1970   23.9210  -28.6020 N   0  0  0  0  0  0  0  0  0  0  0  0
   -3.9790   24.5210  -27.4940 N   0  0  0  0  0  0  0  0  0  0  0  0
   -2.7050   24.4360  -26.7800 C   0  0  0  0  0  0  0  0  0  0  0  0
   -4.9790   25.2990  -26.9500 O   0  0  0  0  0  0  0  0  0  0  0  0
   -7.2730   23.0270  -30.6880 C   0  0  0  0  0  0  0  0  0  0  0  0
   -7.9000   21.9950  -31.4080 C   0  0  0  0  0  0  0  0  0  0  0  0
   -9.3830   21.7810  -31.2500 C   0  0  0  0  0  0  0  0  0  0  0  0
   -8.1811   19.3239  -32.3832 H   0  0  0  0  0  0  0  0  0  0  0  0
   -8.5615   20.4782  -33.7059 H   0  0  0  0  0  0  0  0  0  0  0  0
   -6.9966   19.5962  -33.7059 H   0  0  0  0  0  0  0  0  0  0  0  0
   -5.1447   20.7899  -33.0633 H   0  0  0  0  0  0  0  0  0  0  0  0
   -4.0584   22.6201  -31.7735 H   0  0  0  0  0  0  0  0  0  0  0  0
   -2.8907   24.4484  -25.6959 H   0  0  0  0  0  0  0  0  0  0  0  0
   -2.1929   23.5017  -27.0536 H   0  0  0  0  0  0  0  0  0  0  0  0
   -2.0734   25.2940  -27.0536 H   0  0  0  0  0  0  0  0  0  0  0  0
   -5.3750   26.0760  -27.4660 H   0  0  0  0  0  0  0  0  0  0  0  0
   -7.8681   23.6604  -30.0138 H   0  0  0  0  0  0  0  0  0  0  0  0
   -9.6363   21.7445  -30.1802 H   0  0  0  0  0  0  0  0  0  0  0  0
   -9.9260   22.6101  -31.7272 H   0  0  0  0  0  0  0  0  0  0  0  0
   -9.6695   20.8322  -31.7272 H   0  0  0  0  0  0  0  0  0  0  0  0
  1  2  1  0
  2  3  2  0
  3  4  1  0
  4  5  2  0
  5  6  1  0
  6  7  2  0
  6  8  2  0
  6  9  1  0
  9 10  2  3
 10 11  1  0
 10 12  1  0
  5 13  1  0
 13 14  2  0
 14 15  1  0
 14  2  1  0
  1 16  1  0
  1 17  1  0
  1 18  1  0
  3 19  1  0
  4 20  1  0
 11 21  1  0
 11 22  1  0
 11 23  1  0
 12 24  1  0
 13 25  1  0
 15 26  1  0
 15 27  1  0
 15 28  1  0
M  CHG  1  10   1
M  END
>  <UniqueID>  (8) 
7

>  <SMILES>  (8) 
Cc1ccc(S(=O)(=O)N=[N+](C)O)cc1C

>  <Energy>  (8) 
28.982401559090093

>  <Genealogy>  (8) 
Cc1ccc(S(=O)(=O)N=[N+](C)O)cc1C (protonated)
Cc1ccc(S(=O)(=O)N=[N+](C)O)cc1C (3D coordinates assigned)
Cc1ccc(S(=O)(=O)N=[N+](C)O)cc1C (optimized conformer: 28.982401559090093 kcal/mol)

>  <smiles>  (8) 
Cc1ccc(S(=O)(=O)N=[N+](C)[O-])cc1C

>  <score_type>  (8) 
oracle

>  <origin>  (8) 
adg

>  <m_score__min__energy>  (8) 
-6.6500000000000004

>  <m_primary>  (8) 
energy

$$$$
8:0
     RDKit          3D

 37 38  0  0  0  0  0  0  0  0999 V2000
   -8.6760   23.0560  -31.9590 C   0  0  0  0  0  0  0  0  0  0  0  0
   -7.7870   22.7130  -30.7700 C   0  0  0  0  0  0  0  0  0  0  0  0
   -6.5790   23.5380  -30.7820 N   0  0  0  0  0  0  0  0  0  0  0  0
   -6.5240   24.8540  -30.5160 C   0  0  0  0  0  0  0  0  0  0  0  0
   -5.2110   25.2560  -30.6100 C   0  0  0  0  0  0  0  0  0  0  0  0
   -4.4360   24.1990  -30.9260 N   0  0  0  0  0  0  0  0  0  0  0  0
   -5.2980   23.1600  -31.0020 C   0  0  0  0  0  0  0  0  0  0  0  0
   -4.8710   21.7630  -31.4040 C   0  0  2  0  0  0  0  0  0  0  0  0
   -3.7570   21.2630  -30.4680 C   0  0  0  0  0  0  0  0  0  0  0  0
   -4.4440   21.7650  -32.8210 N   0  0  0  0  0  0  0  0  0  0  0  0
   -4.6790   20.4700  -33.4810 C   0  0  0  0  0  0  0  0  0  0  0  0
   -5.9330   19.8270  -32.9480 C   0  0  0  0  0  0  0  0  0  0  0  0
   -7.1910   20.3810  -33.2360 C   0  0  0  0  0  0  0  0  0  0  0  0
   -8.3510   19.8050  -32.7100 C   0  0  0  0  0  0  0  0  0  0  0  0
   -8.2640   18.6800  -31.8830 C   0  0  0  0  0  0  0  0  0  0  0  0
   -9.3900   18.1240  -31.3730 F   0  0  0  0  0  0  0  0  0  0  0  0
   -7.0130   18.1330  -31.5800 C   0  0  0  0  0  0  0  0  0  0  0  0
   -5.8500   18.7060  -32.1050 C   0  0  0  0  0  0  0  0  0  0  0  0
   -9.6450   23.4298  -31.5966 H   0  0  0  0  0  0  0  0  0  0  0  0
   -8.1891   23.8308  -32.5694 H   0  0  0  0  0  0  0  0  0  0  0  0
   -8.8357   22.1549  -32.5694 H   0  0  0  0  0  0  0  0  0  0  0  0
   -8.3417   22.8960  -29.8379 H   0  0  0  0  0  0  0  0  0  0  0  0
   -7.4966   21.6540  -30.8352 H   0  0  0  0  0  0  0  0  0  0  0  0
   -7.3799   25.4983  -30.2664 H   0  0  0  0  0  0  0  0  0  0  0  0
   -4.8493   26.2827  -30.4515 H   0  0  0  0  0  0  0  0  0  0  0  0
   -5.7187   21.0688  -31.3068 H   0  0  0  0  0  0  0  0  0  0  0  0
   -4.0671   21.4022  -29.4218 H   0  0  0  0  0  0  0  0  0  0  0  0
   -3.5715   20.1953  -30.6565 H   0  0  0  0  0  0  0  0  0  0  0  0
   -2.8359   21.8341  -30.6565 H   0  0  0  0  0  0  0  0  0  0  0  0
   -4.9930   22.4960  -33.3370 H   0  0  0  0  0  0  0  0  0  0  0  0
   -3.4280   22.0140  -32.8880 H   0  0  0  0  0  0  0  0  0  0  0  0
   -4.7861   20.6297  -34.5641 H   0  0  0  0  0  0  0  0  0  0  0  0
   -3.8250   19.8069  -33.2785 H   0  0  0  0  0  0  0  0  0  0  0  0
   -7.2638   21.2714  -33.8778 H   0  0  0  0  0  0  0  0  0  0  0  0
   -9.3344   20.2373  -32.9469 H   0  0  0  0  0  0  0  0  0  0  0  0
   -6.9435   17.2502  -30.9274 H   0  0  0  0  0  0  0  0  0  0  0  0
   -4.8676   18.2778  -31.8572 H   0  0  0  0  0  0  0  0  0  0  0  0
  1  2  1  0
  2  3  1  0
  3  4  1  0
  4  5  2  0
  5  6  1  0
  6  7  2  0
  7  8  1  0
  8  9  1  0
  8 10  1  0
 10 11  1  0
 11 12  1  0
 12 13  2  0
 13 14  1  0
 14 15  2  0
 15 16  1  0
 15 17  1  0
 17 18  2  0
  7  3  1  0
 18 12  1  0
  1 19  1  0
  1 20  1  0
  1 21  1  0
  2 22  1  0
  2 23  1  0
  4 24  1  0
  5 25  1  0
  8 26  1  6
  9 27  1  0
  9 28  1  0
  9 29  1  0
 10 30  1  0
 10 31  1  0
 11 32  1  0
 11 33  1  0
 13 34  1  0
 14 35  1  0
 17 36  1  0
 18 37  1  0
M  CHG  1  10   1
M  END
>  <UniqueID>  (9) 
8

>  <SMILES>  (9) 
CCn1ccnc1[C@H](C)[NH2+]Cc1ccc(F)cc1

>  <Energy>  (9) 
61.18858761340209

>  <Genealogy>  (9) 
CCn1ccnc1C(C)[NH2+]Cc1ccc(F)cc1 (protonated)
CCn1ccnc1[C@H](C)[NH2+]Cc1ccc(F)cc1 (chirality)
CCn1ccnc1[C@H](C)[NH2+]Cc1ccc(F)cc1 (3D coordinates assigned)
CCn1ccnc1[C@H](C)[NH2+]Cc1ccc(F)cc1 (optimized conformer: 61.18858761340209 kcal/mol)

>  <smiles>  (9) 
CCn1ccnc1C(C)NCc1ccc(F)cc1

>  <score_type>  (9) 
oracle

>  <origin>  (9) 
adg

>  <m_score__min__energy>  (9) 
-6.5

>  <m_primary>  (9) 
energy

$$$$
9:0
     RDKit          3D

 41 43  0  0  0  0  0  0  0  0999 V2000
   -6.4780   17.0480  -34.2030 C   0  0  0  0  0  0  0  0  0  0  0  0
   -6.5020   18.3620  -33.4800 C   0  0  0  0  0  0  0  0  0  0  0  0
   -7.5810   18.6910  -32.6470 C   0  0  0  0  0  0  0  0  0  0  0  0
   -7.6220   19.9290  -32.0010 C   0  0  0  0  0  0  0  0  0  0  0  0
   -6.5940   20.8700  -32.1900 C   0  0  0  0  0  0  0  0  0  0  0  0
   -6.6460   22.1950  -31.5180 C   0  0  0  0  0  0  0  0  0  0  0  0
   -7.5150   22.5550  -30.4970 C   0  0  0  0  0  0  0  0  0  0  0  0
   -7.1840   23.8430  -30.1330 C   0  0  0  0  0  0  0  0  0  0  0  0
   -6.1320   24.2170  -30.9430 C   0  0  0  0  0  0  0  0  0  0  0  0
   -5.3730   25.5050  -30.8390 C   0  0  0  0  0  0  0  0  0  0  0  0
   -3.9610   25.2490  -30.5080 N   0  0  0  0  0  0  0  0  0  0  0  0
   -3.7960   24.1530  -29.5390 C   0  0  0  0  0  0  0  0  0  0  0  0
   -2.7940   23.1370  -30.0260 C   0  0  0  0  0  0  0  0  0  0  0  0
   -3.0740   22.3530  -31.1570 C   0  0  0  0  0  0  0  0  0  0  0  0
   -2.1290   21.4370  -31.6320 C   0  0  0  0  0  0  0  0  0  0  0  0
   -0.9070   21.2880  -30.9730 C   0  0  0  0  0  0  0  0  0  0  0  0
   -0.6290   22.0470  -29.8340 C   0  0  0  0  0  0  0  0  0  0  0  0
   -1.5680   22.9680  -29.3580 C   0  0  0  0  0  0  0  0  0  0  0  0
   -5.8100   23.2200  -31.7880 N   0  0  0  0  0  0  0  0  0  0  0  0
   -5.5230   20.5410  -33.0420 C   0  0  0  0  0  0  0  0  0  0  0  0
   -5.4820   19.3000  -33.6850 C   0  0  0  0  0  0  0  0  0  0  0  0
   -6.4630   16.2270  -33.4711 H   0  0  0  0  0  0  0  0  0  0  0  0
   -7.3747   16.9603  -34.8341 H   0  0  0  0  0  0  0  0  0  0  0  0
   -5.5787   16.9931  -34.8341 H   0  0  0  0  0  0  0  0  0  0  0  0
   -8.3994   17.9705  -32.5015 H   0  0  0  0  0  0  0  0  0  0  0  0
   -8.4662   20.1701  -31.3383 H   0  0  0  0  0  0  0  0  0  0  0  0
   -8.3123   21.9337  -30.0630 H   0  0  0  0  0  0  0  0  0  0  0  0
   -7.6635   24.4513  -29.3520 H   0  0  0  0  0  0  0  0  0  0  0  0
   -5.4284   26.0360  -31.8008 H   0  0  0  0  0  0  0  0  0  0  0  0
   -5.8193   26.1163  -30.0408 H   0  0  0  0  0  0  0  0  0  0  0  0
   -3.4850   24.9510  -31.3920 H   0  0  0  0  0  0  0  0  0  0  0  0
   -3.4476   24.5698  -28.5825 H   0  0  0  0  0  0  0  0  0  0  0  0
   -4.7668   23.6509  -29.4143 H   0  0  0  0  0  0  0  0  0  0  0  0
   -4.0403   22.4595  -31.6716 H   0  0  0  0  0  0  0  0  0  0  0  0
   -2.3489   20.8338  -32.5252 H   0  0  0  0  0  0  0  0  0  0  0  0
   -0.1625   20.5721  -31.3513 H   0  0  0  0  0  0  0  0  0  0  0  0
    0.3300   21.9203  -29.3104 H   0  0  0  0  0  0  0  0  0  0  0  0
   -1.3469   23.5617  -28.4588 H   0  0  0  0  0  0  0  0  0  0  0  0
   -5.0460   23.2470  -32.4990 H   0  0  0  0  0  0  0  0  0  0  0  0
   -4.7117   21.2661  -33.2033 H   0  0  0  0  0  0  0  0  0  0  0  0
   -4.6440   19.0589  -34.3556 H   0  0  0  0  0  0  0  0  0  0  0  0
  1  2  1  0
  2  3  2  0
  3  4  1  0
  4  5  2  0
  5  6  1  0
  6  7  2  0
  7  8  1  0
  8  9  2  0
  9 10  1  0
 10 11  1  0
 11 12  1  0
 12 13  1  0
 13 14  2  0
 14 15  1  0
 15 16  2  0
 16 17  1  0
 17 18  2  0
  9 19  1  0
  5 20  1  0
 20 21  2  0
 21  2  1  0
 19  6  1  0
 18 13  1  0
  1 22  1  0
  1 23  1  0
  1 24  1  0
  3 25  1  0
  4 26  1  0
  7 27  1  0
  8 28  1  0
 10 29  1  0
 10 30  1  0
 11 31  1  0
 12 32  1  0
 12 33  1  0
 14 34  1  0
 15 35  1  0
 16 36  1  0
 17 37  1  0
 18 38  1  0
 19 39  1  0
 20 40  1  0
 21 41  1  0
M  END
>  <UniqueID>  (10) 
9

>  <SMILES>  (10) 
Cc1ccc(-c2ccc(CNCc3ccccc3)[nH]2)cc1

>  <Energy>  (10) 
65.22559445372192

>  <Genealogy>  (10) 
Cc1ccc(-c2ccc(CNCc3ccccc3)[nH]2)cc1 (3D coordinates assigned)
Cc1ccc(-c2ccc(CNCc3ccccc3)[nH]2)cc1 (optimized conformer: 65.22559445372192 kcal/mol)

>  <smiles>  (10) 
Cc1ccc(-c2ccc(CNCc3ccccc3)[nH]2)cc1

>  <score_type>  (10) 
oracle

>  <origin>  (10) 
adg

>  <m_score__min__energy>  (10) 
-8.2699999999999996

>  <m_primary>  (10) 
energy

$$$$
10:0
     RDKit          3D

 41 43  0  0  0  0  0  0  0  0999 V2000
   -4.3990   12.9560  -31.8280 C   0  0  0  0  0  0  0  0  0  0  0  0
   -4.6680   13.4780  -33.1260 O   0  0  0  0  0  0  0  0  0  0  0  0
   -5.0590   14.8010  -33.3800 C   0  0  0  0  0  0  0  0  0  0  0  0
   -6.3150   15.0240  -33.9570 C   0  0  0  0  0  0  0  0  0  0  0  0
   -6.7520   16.3240  -34.2280 C   0  0  0  0  0  0  0  0  0  0  0  0
   -5.9420   17.4250  -33.9130 C   0  0  0  0  0  0  0  0  0  0  0  0
   -6.4030   18.7530  -34.2230 N   0  0  0  0  0  0  0  0  0  0  0  0
   -6.3180   19.8670  -33.3160 C   0  0  0  0  0  0  0  0  0  0  0  0
   -5.1350   20.5980  -33.1900 C   0  0  0  0  0  0  0  0  0  0  0  0
   -5.0640   21.6220  -32.3050 N   0  0  0  0  0  0  0  0  0  0  0  0
   -6.0890   21.9620  -31.5160 N   0  0  0  0  0  0  0  0  0  0  0  0
   -5.9310   23.1230  -30.6160 C   0  0  0  0  0  0  0  0  0  0  0  0
   -4.6230   23.0320  -29.7950 C   0  0  0  0  0  0  0  0  0  0  0  0
   -3.5230   23.9150  -30.4100 C   0  0  0  0  0  0  0  0  0  0  0  0
   -3.8640   25.2950  -30.4720 O   0  0  0  0  0  0  0  0  0  0  0  0
   -5.2470   25.5510  -30.6930 C   0  0  0  0  0  0  0  0  0  0  0  0
   -5.9930   24.4280  -31.4310 C   0  0  0  0  0  0  0  0  0  0  0  0
   -7.2770   21.2820  -31.6050 C   0  0  0  0  0  0  0  0  0  0  0  0
   -8.2650   21.6140  -30.8920 O   0  0  0  0  0  0  0  0  0  0  0  0
   -7.4030   20.2100  -32.4980 C   0  0  0  0  0  0  0  0  0  0  0  0
   -8.9320   19.3390  -32.6170 Cl  0  0  0  0  0  0  0  0  0  0  0  0
   -4.6720   17.2030  -33.3530 C   0  0  0  0  0  0  0  0  0  0  0  0
   -4.2350   15.9040  -33.0820 C   0  0  0  0  0  0  0  0  0  0  0  0
   -4.7626   13.6616  -31.0665 H   0  0  0  0  0  0  0  0  0  0  0  0
   -4.9117   11.9903  -31.7077 H   0  0  0  0  0  0  0  0  0  0  0  0
   -3.3150   12.8131  -31.7077 H   0  0  0  0  0  0  0  0  0  0  0  0
   -6.9634   14.1691  -34.1992 H   0  0  0  0  0  0  0  0  0  0  0  0
   -7.7368   16.4844  -34.6910 H   0  0  0  0  0  0  0  0  0  0  0  0
   -6.8530   18.9100  -35.1520 H   0  0  0  0  0  0  0  0  0  0  0  0
   -4.2617   20.3431  -33.8083 H   0  0  0  0  0  0  0  0  0  0  0  0
   -6.7608   23.1196  -29.8939 H   0  0  0  0  0  0  0  0  0  0  0  0
   -4.8201   23.3674  -28.7661 H   0  0  0  0  0  0  0  0  0  0  0  0
   -4.2778   21.9876  -29.8006 H   0  0  0  0  0  0  0  0  0  0  0  0
   -2.6126   23.8094  -29.8017 H   0  0  0  0  0  0  0  0  0  0  0  0
   -3.3785   23.5732  -31.4455 H   0  0  0  0  0  0  0  0  0  0  0  0
   -5.7294   25.6994  -29.7156 H   0  0  0  0  0  0  0  0  0  0  0  0
   -5.3014   26.4398  -31.3389 H   0  0  0  0  0  0  0  0  0  0  0  0
   -7.0444   24.7202  -31.5695 H   0  0  0  0  0  0  0  0  0  0  0  0
   -5.5169   24.2633  -32.4089 H   0  0  0  0  0  0  0  0  0  0  0  0
   -4.0178   18.0578  -33.1266 H   0  0  0  0  0  0  0  0  0  0  0  0
   -3.2435   15.7419  -32.6341 H   0  0  0  0  0  0  0  0  0  0  0  0
  1  2  1  0
  2  3  1  0
  3  4  2  0
  4  5  1  0
  5  6  2  0
  6  7  1  0
  7  8  1  0
  8  9  1  0
  9 10  2  0
 10 11  1  0
 11 12  1  0
 12 13  1  0
 13 14  1  0
 14 15  1  0
 15 16  1  0
 16 17  1  0
 11 18  1  0
 18 19  2  0
 18 20  1  0
 20 21  1  0
  6 22  1  0
 22 23  2  0
 23  3  1  0
 20  8  2  0
 17 12  1  0
  1 24  1  0
  1 25  1  0
  1 26  1  0
  4 27  1  0
  5 28  1  0
  7 29  1  0
  9 30  1  0
 12 31  1  0
 13 32  1  0
 13 33  1  0
 14 34  1  0
 14 35  1  0
 16 36  1  0
 16 37  1  0
 17 38  1  0
 17 39  1  0
 22 40  1  0
 23 41  1  0
M  END
>  <UniqueID>  (11) 
10

>  <SMILES>  (11) 
COc1ccc(Nc2cnn(C3CCOCC3)c(=O)c2Cl)cc1

>  <Energy>  (11) 
61.712561538378

>  <Genealogy>  (11) 
COc1ccc(Nc2cnn(C3CCOCC3)c(=O)c2Cl)cc1 (3D coordinates assigned)
COc1ccc(Nc2cnn(C3CCOCC3)c(=O)c2Cl)cc1 (nonaromatic ring conformer: 61.712561538378 kcal/mol)

>  <smiles>  (11) 
COc1ccc(Nc2cnn(C3CCOCC3)c(=O)c2Cl)cc1

>  <score_type>  (11) 
oracle

>  <origin>  (11) 
adg

>  <m_score__min__energy>  (11) 
-8.5399999999999991

>  <m_primary>  (11) 
energy

$$$$
11:0
     RDKit          3D

 45 47  0  0  0  0  0  0  0  0999 V2000
   -3.2730   21.5220  -31.9520 C   0  0  0  0  0  0  0  0  0  0  0  0
   -4.6100   22.3060  -32.9090 S   0  0  0  0  0  0  0  0  0  0  0  0
   -5.1630   23.3500  -31.5540 C   0  0  0  0  0  0  0  0  0  0  0  0
   -4.2230   24.0570  -30.8690 N   0  0  0  0  0  0  0  0  0  0  0  0
   -4.5470   24.9090  -29.8630 C   0  0  0  0  0  0  0  0  0  0  0  0
   -5.8820   25.1020  -29.5150 C   0  0  0  0  0  0  0  0  0  0  0  0
   -6.8740   24.4100  -30.2090 C   0  0  0  0  0  0  0  0  0  0  0  0
   -6.5320   23.5140  -31.2320 C   0  0  0  0  0  0  0  0  0  0  0  0
   -7.6210   22.8270  -31.9670 C   0  0  0  0  0  0  0  0  0  0  0  0
   -8.6820   23.4670  -32.2090 O   0  0  0  0  0  0  0  0  0  0  0  0
   -7.5330   21.4210  -32.2940 N   0  0  0  0  0  0  0  0  0  0  0  0
   -6.6870   20.7220  -31.3050 C   0  0  0  0  0  0  0  0  0  0  0  0
   -6.6460   19.1980  -31.5660 C   0  0  0  0  0  0  0  0  0  0  0  0
   -7.3780   18.8550  -32.8000 N   0  0  0  0  0  0  0  0  0  0  0  0
   -7.2910   17.4090  -33.0810 C   0  0  0  0  0  0  0  0  0  0  0  0
   -5.9010   17.0490  -33.5420 C   0  0  0  0  0  0  0  0  0  0  0  0
   -5.2170   15.9820  -32.9380 C   0  0  0  0  0  0  0  0  0  0  0  0
   -3.9250   15.6470  -33.3530 C   0  0  0  0  0  0  0  0  0  0  0  0
   -3.3080   16.3740  -34.3750 C   0  0  0  0  0  0  0  0  0  0  0  0
   -3.9820   17.4380  -34.9810 C   0  0  0  0  0  0  0  0  0  0  0  0
   -5.2740   17.7760  -34.5680 C   0  0  0  0  0  0  0  0  0  0  0  0
   -8.7860   19.3000  -32.6970 C   0  0  0  0  0  0  0  0  0  0  0  0
   -8.8730   20.8030  -32.3520 C   0  0  0  0  0  0  0  0  0  0  0  0
   -3.4739   21.6398  -30.8769 H   0  0  0  0  0  0  0  0  0  0  0  0
   -3.2232   20.4516  -32.2006 H   0  0  0  0  0  0  0  0  0  0  0  0
   -2.3145   22.0011  -32.2006 H   0  0  0  0  0  0  0  0  0  0  0  0
   -3.7547   25.4474  -29.3222 H   0  0  0  0  0  0  0  0  0  0  0  0
   -6.1506   25.7925  -28.7019 H   0  0  0  0  0  0  0  0  0  0  0  0
   -7.9319   24.5681  -29.9522 H   0  0  0  0  0  0  0  0  0  0  0  0
   -7.0780   21.3220  -33.2290 H   0  0  0  0  0  0  0  0  0  0  0  0
   -5.6640   21.1219  -31.3644 H   0  0  0  0  0  0  0  0  0  0  0  0
   -7.1167   20.8884  -30.3062 H   0  0  0  0  0  0  0  0  0  0  0  0
   -5.5985   18.8782  -31.6680 H   0  0  0  0  0  0  0  0  0  0  0  0
   -7.1242   18.6836  -30.7194 H   0  0  0  0  0  0  0  0  0  0  0  0
   -7.5270   16.8465  -32.1657 H   0  0  0  0  0  0  0  0  0  0  0  0
   -8.0088   17.1545  -33.8748 H   0  0  0  0  0  0  0  0  0  0  0  0
   -5.7002   15.4069  -32.1344 H   0  0  0  0  0  0  0  0  0  0  0  0
   -3.3935   14.8108  -32.8751 H   0  0  0  0  0  0  0  0  0  0  0  0
   -2.2919   16.1087  -34.7024 H   0  0  0  0  0  0  0  0  0  0  0  0
   -3.4949   18.0103  -35.7842 H   0  0  0  0  0  0  0  0  0  0  0  0
   -5.8014   18.6137  -35.0477 H   0  0  0  0  0  0  0  0  0  0  0  0
   -9.2895   19.1229  -33.6588 H   0  0  0  0  0  0  0  0  0  0  0  0
   -9.2737   18.7293  -31.8930 H   0  0  0  0  0  0  0  0  0  0  0  0
   -9.4693   21.3132  -33.1228 H   0  0  0  0  0  0  0  0  0  0  0  0
   -9.3441   20.9045  -31.3632 H   0  0  0  0  0  0  0  0  0  0  0  0
  1  2  1  0
  2  3  1  0
  3  4  2  0
  4  5  1  0
  5  6  2  0
  6  7  1  0
  7  8  2  0
  8  9  1  0
  9 10  2  0
  9 11  1  0
 11 12  1  0
 12 13  1  0
 13 14  1  0
 14 15  1  0
 15 16  1  0
 16 17  2  0
 17 18  1  0
 18 19  2  0
 19 20  1  0
 20 21  2  0
 14 22  1  0
 22 23  1  0
  8  3  1  0
 23 11  1  0
 21 16  1  0
  1 24  1  0
  1 25  1  0
  1 26  1  0
  5 27  1  0
  6 28  1  0
  7 29  1  0
 11 30  1  0
 12 31  1  0
 12 32  1  0
 13 33  1  0
 13 34  1  0
 15 35  1  0
 15 36  1  0
 17 37  1  0
 18 38  1  0
 19 39  1  0
 20 40  1  0
 21 41  1  0
 22 42  1  0
 22 43  1  0
 23 44  1  0
 23 45  1  0
M  CHG  1  11   1
M  END
>  <UniqueID>  (12) 
11

>  <SMILES>  (12) 
CSc1ncccc1C(=O)[NH+]1CCN(Cc2ccccc2)CC1

>  <Energy>  (12) 
60.16702299768987

>  <Genealogy>  (12) 
CSc1ncccc1C(=O)[NH+]1CCN(Cc2ccccc2)CC1 (protonated)
CSc1ncccc1C(=O)[NH+]1CCN(Cc2ccccc2)CC1 (3D coordinates assigned)
CSc1ncccc1C(=O)[NH+]1CCN(Cc2ccccc2)CC1 (nonaromatic ring conformer: 60.16702299768987 kcal/mol)

>  <smiles>  (12) 
CSc1ncccc1C(=O)N1CCN(Cc2ccccc2)CC1

>  <score_type>  (12) 
oracle

>  <origin>  (12) 
adg

>  <m_score__min__energy>  (12) 
-7.3700000000000001

>  <m_primary>  (12) 
energy

$$$$
12:0
     RDKit          3D

 34 36  0  0  0  0  0  0  0  0999 V2000
   -4.0400   25.6500  -30.8440 O   0  0  0  0  0  0  0  0  0  0  0  0
   -3.5050   24.8780  -30.0060 C   0  0  0  0  0  0  0  0  0  0  0  0
   -2.3680   25.2900  -29.3240 O   0  0  0  0  0  0  0  0  0  0  0  0
   -4.0480   23.4970  -29.8110 C   0  0  0  0  0  0  0  0  0  0  0  0
   -4.0090   22.7360  -31.0630 N   0  0  0  0  0  0  0  0  0  0  0  0
   -4.9820   22.6190  -32.0070 C   0  0  0  0  0  0  0  0  0  0  0  0
   -6.6170   23.3480  -31.8670 S   0  0  0  0  0  0  0  0  0  0  0  0
   -7.3260   21.9810  -30.8820 C   0  0  0  0  0  0  0  0  0  0  0  0
   -7.1500   20.6540  -31.5690 C   0  0  0  0  0  0  0  0  0  0  0  0
   -5.9640   19.9260  -31.3810 C   0  0  0  0  0  0  0  0  0  0  0  0
   -5.7950   18.6800  -31.9920 C   0  0  0  0  0  0  0  0  0  0  0  0
   -6.8060   18.1540  -32.8040 C   0  0  0  0  0  0  0  0  0  0  0  0
   -6.5670   16.4590  -33.6500 Br  0  0  0  0  0  0  0  0  0  0  0  0
   -7.9870   18.8750  -33.0020 C   0  0  0  0  0  0  0  0  0  0  0  0
   -8.1610   20.1220  -32.3920 C   0  0  0  0  0  0  0  0  0  0  0  0
   -9.3160   20.8030  -32.6030 F   0  0  0  0  0  0  0  0  0  0  0  0
   -4.5930   21.9160  -33.1030 N   0  0  0  0  0  0  0  0  0  0  0  0
   -3.3260   21.5730  -32.8070 C   0  0  0  0  0  0  0  0  0  0  0  0
   -2.4420   20.8390  -33.5930 C   0  0  0  0  0  0  0  0  0  0  0  0
   -1.1480   20.6130  -33.0880 C   0  0  0  0  0  0  0  0  0  0  0  0
   -0.7730   21.1260  -31.8260 C   0  0  0  0  0  0  0  0  0  0  0  0
   -1.6900   21.8670  -31.0570 C   0  0  0  0  0  0  0  0  0  0  0  0
   -2.9680   22.0640  -31.5850 C   0  0  0  0  0  0  0  0  0  0  0  0
   -3.4430   22.9760  -29.0543 H   0  0  0  0  0  0  0  0  0  0  0  0
   -5.0943   23.5751  -29.4806 H   0  0  0  0  0  0  0  0  0  0  0  0
   -6.8223   21.9466  -29.9047 H   0  0  0  0  0  0  0  0  0  0  0  0
   -8.4037   22.1662  -30.7622 H   0  0  0  0  0  0  0  0  0  0  0  0
   -5.1634   20.3385  -30.7494 H   0  0  0  0  0  0  0  0  0  0  0  0
   -4.8661   18.1123  -31.8343 H   0  0  0  0  0  0  0  0  0  0  0  0
   -8.7820   18.4607  -33.6394 H   0  0  0  0  0  0  0  0  0  0  0  0
   -2.7448   20.4487  -34.5759 H   0  0  0  0  0  0  0  0  0  0  0  0
   -0.4240   20.0334  -33.6795 H   0  0  0  0  0  0  0  0  0  0  0  0
    0.2418   20.9452  -31.4421 H   0  0  0  0  0  0  0  0  0  0  0  0
   -1.4101   22.2764  -30.0751 H   0  0  0  0  0  0  0  0  0  0  0  0
  1  2  2  0
  2  3  1  0
  2  4  1  0
  4  5  1  0
  5  6  1  0
  6  7  1  0
  7  8  1  0
  8  9  1  0
  9 10  2  0
 10 11  1  0
 11 12  2  0
 12 13  1  0
 12 14  1  0
 14 15  2  0
 15 16  1  0
  6 17  2  0
 17 18  1  0
 18 19  2  0
 19 20  1  0
 20 21  2  0
 21 22  1  0
 22 23  2  0
 23  5  1  0
 15  9  1  0
 23 18  1  0
  4 24  1  0
  4 25  1  0
  8 26  1  0
  8 27  1  0
 10 28  1  0
 11 29  1  0
 14 30  1  0
 19 31  1  0
 20 32  1  0
 21 33  1  0
 22 34  1  0
M  CHG  1   3  -1
M  END
>  <UniqueID>  (13) 
12

>  <SMILES>  (13) 
O=C([O-])Cn1c(SCc2ccc(Br)cc2F)nc2ccccc21

>  <Energy>  (13) 
67.76466832920492

>  <Genealogy>  (13) 
O=C([O-])Cn1c(SCc2ccc(Br)cc2F)nc2ccccc21 (protonated)
O=C([O-])Cn1c(SCc2ccc(Br)cc2F)nc2ccccc21 (3D coordinates assigned)
O=C([O-])Cn1c(SCc2ccc(Br)cc2F)nc2ccccc21 (optimized conformer: 67.76466832920492 kcal/mol)

>  <smiles>  (13) 
O=C(O)Cn1c(SCc2ccc(Br)cc2F)nc2ccccc21

>  <score_type>  (13) 
oracle

>  <origin>  (13) 
adg

>  <m_score__min__energy>  (13) 
-10.800000000000001

>  <m_primary>  (13) 
energy

$$$$
13:0
     RDKit          3D

 46 49  0  0  0  0  0  0  0  0999 V2000
   -3.7170   15.5130  -35.0630 C   0  0  0  0  0  0  0  0  0  0  0  0
   -3.0240   16.7360  -34.9310 C   0  0  0  0  0  0  0  0  0  0  0  0
   -3.5910   17.8030  -34.2090 C   0  0  0  0  0  0  0  0  0  0  0  0
   -4.8500   17.6030  -33.6360 C   0  0  0  0  0  0  0  0  0  0  0  0
   -5.5170   16.4190  -33.7670 C   0  0  0  0  0  0  0  0  0  0  0  0
   -4.9840   15.3440  -34.4750 C   0  0  0  0  0  0  0  0  0  0  0  0
   -6.7060   16.4730  -33.1410 N   0  0  0  0  0  0  0  0  0  0  0  0
   -6.7300   17.7320  -32.6280 C   0  0  0  0  0  0  0  0  0  0  0  0
   -5.6060   18.4470  -32.9090 N   0  0  0  0  0  0  0  0  0  0  0  0
   -5.2890   19.8070  -32.4810 C   0  0  0  0  0  0  0  0  0  0  0  0
   -6.3800   20.8030  -32.9160 C   0  0  0  0  0  0  0  0  0  0  0  0
   -7.6220   20.7750  -32.1010 N   0  0  0  0  0  0  0  0  0  0  0  0
   -8.2940   22.0940  -31.9900 C   0  0  0  0  0  0  0  0  0  0  0  0
   -7.9650   22.8020  -30.6550 C   0  0  0  0  0  0  0  0  0  0  0  0
   -6.7250   23.6090  -30.6790 N   0  0  0  0  0  0  0  0  0  0  0  0
   -5.5010   22.8130  -30.4620 C   0  0  0  0  0  0  0  0  0  0  0  0
   -4.2730   23.7340  -30.3150 C   0  0  0  0  0  0  0  0  0  0  0  0
   -4.5330   25.0040  -30.8810 O   0  0  0  0  0  0  0  0  0  0  0  0
   -5.5210   25.6830  -30.1220 C   0  0  0  0  0  0  0  0  0  0  0  0
   -6.7520   24.8020  -29.8190 C   0  0  0  0  0  0  0  0  0  0  0  0
   -8.5000   19.6040  -32.3510 C   0  0  0  0  0  0  0  0  0  0  0  0
   -7.9280   18.2490  -31.8750 C   0  0  0  0  0  0  0  0  0  0  0  0
   -3.2632   14.6865  -35.6295 H   0  0  0  0  0  0  0  0  0  0  0  0
   -2.0342   16.8558  -35.3956 H   0  0  0  0  0  0  0  0  0  0  0  0
   -3.0616   18.7610  -34.0995 H   0  0  0  0  0  0  0  0  0  0  0  0
   -5.5344   14.3964  -34.5709 H   0  0  0  0  0  0  0  0  0  0  0  0
   -5.2039   19.8262  -31.3845 H   0  0  0  0  0  0  0  0  0  0  0  0
   -4.3408   20.1054  -32.9521 H   0  0  0  0  0  0  0  0  0  0  0  0
   -5.9578   21.8171  -32.8585 H   0  0  0  0  0  0  0  0  0  0  0  0
   -6.6754   20.5077  -33.9336 H   0  0  0  0  0  0  0  0  0  0  0  0
   -7.9620   22.7327  -32.8218 H   0  0  0  0  0  0  0  0  0  0  0  0
   -9.3804   21.9256  -32.0263 H   0  0  0  0  0  0  0  0  0  0  0  0
   -8.8036   23.4678  -30.4032 H   0  0  0  0  0  0  0  0  0  0  0  0
   -7.8079   22.0083  -29.9098 H   0  0  0  0  0  0  0  0  0  0  0  0
   -5.6163   22.2153  -29.5458 H   0  0  0  0  0  0  0  0  0  0  0  0
   -5.3482   22.1543  -31.3296 H   0  0  0  0  0  0  0  0  0  0  0  0
   -4.0377   23.8553  -29.2473 H   0  0  0  0  0  0  0  0  0  0  0  0
   -3.4223   23.2779  -30.8425 H   0  0  0  0  0  0  0  0  0  0  0  0
   -5.0742   26.0025  -29.1690 H   0  0  0  0  0  0  0  0  0  0  0  0
   -5.8659   26.5405  -30.7184 H   0  0  0  0  0  0  0  0  0  0  0  0
   -6.7312   24.4935  -28.7633 H   0  0  0  0  0  0  0  0  0  0  0  0
   -7.6702   25.3749  -30.0156 H   0  0  0  0  0  0  0  0  0  0  0  0
   -9.4537   19.7744  -31.8300 H   0  0  0  0  0  0  0  0  0  0  0  0
   -8.6085   19.5269  -33.4429 H   0  0  0  0  0  0  0  0  0  0  0  0
   -7.6392   18.3588  -30.8193 H   0  0  0  0  0  0  0  0  0  0  0  0
   -8.7268   17.5136  -32.0515 H   0  0  0  0  0  0  0  0  0  0  0  0
  1  2  2  0
  2  3  1  0
  3  4  2  0
  4  5  1  0
  5  6  2  0
  5  7  1  0
  7  8  2  0
  8  9  1  0
  9 10  1  0
 10 11  1  0
 11 12  1  0
 12 13  1  0
 13 14  1  0
 14 15  1  0
 15 16  1  0
 16 17  1  0
 17 18  1  0
 18 19  1  0
 19 20  1  0
 12 21  1  0
 21 22  1  0
  6  1  1  0
 22  8  1  0
  9  4  1  0
 20 15  1  0
  1 23  1  0
  2 24  1  0
  3 25  1  0
  6 26  1  0
 10 27  1  0
 10 28  1  0
 11 29  1  0
 11 30  1  0
 13 31  1  0
 13 32  1  0
 14 33  1  0
 14 34  1  0
 16 35  1  0
 16 36  1  0
 17 37  1  0
 17 38  1  0
 19 39  1  0
 19 40  1  0
 20 41  1  0
 20 42  1  0
 21 43  1  0
 21 44  1  0
 22 45  1  0
 22 46  1  0
M  END
>  <UniqueID>  (14) 
13

>  <SMILES>  (14) 
c1ccc2c(c1)nc1n2CCN(CCN2CCOCC2)CC1

>  <Energy>  (14) 
113.115688957486

>  <Genealogy>  (14) 
c1ccc2c(c1)nc1n2CCN(CCN2CCOCC2)CC1 (3D coordinates assigned)
c1ccc2c(c1)nc1n2CCN(CCN2CCOCC2)CC1 (nonaromatic ring conformer: 113.115688957486 kcal/mol)

>  <smiles>  (14) 
c1ccc2c(c1)nc1n2CCN(CCN2CCOCC2)CC1

>  <score_type>  (14) 
oracle

>  <origin>  (14) 
adg

>  <m_score__min__energy>  (14) 
-6.8700000000000001

>  <m_primary>  (14) 
energy

$$$$
14:0
     RDKit          3D

 46 48  0  0  0  0  0  0  0  0999 V2000
   -6.1810   25.3860  -29.7280 C   0  0  0  0  0  0  0  0  0  0  0  0
   -5.2210   24.8350  -30.7760 C   0  0  0  0  0  0  0  0  0  0  0  0
   -3.8620   25.3050  -30.5250 N   0  0  0  0  0  0  0  0  0  0  0  0
   -2.9620   24.6790  -29.6010 C   0  0  0  0  0  0  0  0  0  0  0  0
   -2.2350   25.3900  -28.8560 O   0  0  0  0  0  0  0  0  0  0  0  0
   -2.8790   23.2010  -29.5210 C   0  0  0  0  0  0  0  0  0  0  0  0
   -2.7470   22.4300  -30.6900 C   0  0  0  0  0  0  0  0  0  0  0  0
   -2.6860   21.0260  -30.6050 C   0  0  0  0  0  0  0  0  0  0  0  0
   -2.5090   20.1310  -31.8290 C   0  0  2  0  0  0  0  0  0  0  0  0
   -1.4240   20.5190  -32.8290 C   0  0  0  0  0  0  0  0  0  0  0  0
   -1.8050   19.7500  -34.0820 C   0  0  0  0  0  0  0  0  0  0  0  0
   -3.2420   19.2760  -33.8470 C   0  0  0  0  0  0  0  0  0  0  0  0
   -3.7400   19.9260  -32.6190 N   0  0  0  0  0  0  0  0  0  0  0  0
   -4.4390   21.1920  -32.9620 C   0  0  0  0  0  0  0  0  0  0  0  0
   -5.9170   21.0540  -32.7050 C   0  0  0  0  0  0  0  0  0  0  0  0
   -6.6440   22.1400  -32.1920 C   0  0  0  0  0  0  0  0  0  0  0  0
   -8.0150   22.0190  -31.9450 C   0  0  0  0  0  0  0  0  0  0  0  0
   -8.6690   20.8110  -32.2090 C   0  0  0  0  0  0  0  0  0  0  0  0
   -9.9990   20.6930  -31.9680 F   0  0  0  0  0  0  0  0  0  0  0  0
   -7.9530   19.7250  -32.7200 C   0  0  0  0  0  0  0  0  0  0  0  0
   -6.5810   19.8440  -32.9680 C   0  0  0  0  0  0  0  0  0  0  0  0
   -2.7040   20.4310  -29.3350 C   0  0  0  0  0  0  0  0  0  0  0  0
   -2.8360   21.2240  -28.1970 C   0  0  0  0  0  0  0  0  0  0  0  0
   -2.9260   22.5750  -28.3070 N   0  0  0  0  0  0  0  0  0  0  0  0
   -5.7935   25.1636  -28.7228 H   0  0  0  0  0  0  0  0  0  0  0  0
   -6.2740   26.4750  -29.8525 H   0  0  0  0  0  0  0  0  0  0  0  0
   -7.1682   24.9171  -29.8525 H   0  0  0  0  0  0  0  0  0  0  0  0
   -5.2362   23.7358  -30.7379 H   0  0  0  0  0  0  0  0  0  0  0  0
   -5.5400   25.1856  -31.7686 H   0  0  0  0  0  0  0  0  0  0  0  0
   -2.6914   22.9243  -31.6711 H   0  0  0  0  0  0  0  0  0  0  0  0
   -2.1958   19.2085  -31.3183 H   0  0  0  0  0  0  0  0  0  0  0  0
   -1.4309   21.6030  -33.0157 H   0  0  0  0  0  0  0  0  0  0  0  0
   -0.4100   20.2835  -32.4736 H   0  0  0  0  0  0  0  0  0  0  0  0
   -1.7550   20.4040  -34.9651 H   0  0  0  0  0  0  0  0  0  0  0  0
   -1.1220   18.9082  -34.2689 H   0  0  0  0  0  0  0  0  0  0  0  0
   -3.8734   19.5593  -34.7020 H   0  0  0  0  0  0  0  0  0  0  0  0
   -3.2714   18.1816  -33.7397 H   0  0  0  0  0  0  0  0  0  0  0  0
   -4.0370   22.0084  -32.3440 H   0  0  0  0  0  0  0  0  0  0  0  0
   -4.2783   21.4145  -34.0272 H   0  0  0  0  0  0  0  0  0  0  0  0
   -6.1324   23.0911  -31.9833 H   0  0  0  0  0  0  0  0  0  0  0  0
   -8.5791   22.8736  -31.5432 H   0  0  0  0  0  0  0  0  0  0  0  0
   -8.4685   18.7757  -32.9275 H   0  0  0  0  0  0  0  0  0  0  0  0
   -6.0204   18.9873  -33.3702 H   0  0  0  0  0  0  0  0  0  0  0  0
   -2.6140   19.3390  -29.2375 H   0  0  0  0  0  0  0  0  0  0  0  0
   -2.8675   20.7532  -27.2033 H   0  0  0  0  0  0  0  0  0  0  0  0
   -3.0240   23.1330  -27.4290 H   0  0  0  0  0  0  0  0  0  0  0  0
  1  2  1  0
  2  3  1  0
  3  4  1  0
  4  5  2  0
  4  6  1  0
  6  7  2  0
  7  8  1  0
  8  9  1  0
  9 10  1  0
 10 11  1  0
 11 12  1  0
 12 13  1  0
 13 14  1  0
 14 15  1  0
 15 16  2  0
 16 17  1  0
 17 18  2  0
 18 19  1  0
 18 20  1  0
 20 21  2  0
  8 22  2  0
 22 23  1  0
 23 24  2  0
 24  6  1  0
 13  9  1  0
 21 15  1  0
  1 25  1  0
  1 26  1  0
  1 27  1  0
  2 28  1  0
  2 29  1  0
  7 30  1  0
  9 31  1  1
 10 32  1  0
 10 33  1  0
 11 34  1  0
 11 35  1  0
 12 36  1  0
 12 37  1  0
 14 38  1  0
 14 39  1  0
 16 40  1  0
 17 41  1  0
 20 42  1  0
 21 43  1  0
 22 44  1  0
 23 45  1  0
 24 46  1  0
M  CHG  2   3  -1  24   1
M  END
>  <UniqueID>  (15) 
14

>  <SMILES>  (15) 
CC[N-]C(=O)c1cc([C@@H]2CCCN2Cc2ccc(F)cc2)cc[nH+]1

>  <Energy>  (15) 
54.116680934518776

>  <Genealogy>  (15) 
CC[N-]C(=O)c1cc(C2CCCN2Cc2ccc(F)cc2)cc[nH+]1 (protonated)
CC[N-]C(=O)c1cc([C@@H]2CCCN2Cc2ccc(F)cc2)cc[nH+]1 (chirality)
CC[N-]C(=O)c1cc([C@@H]2CCCN2Cc2ccc(F)cc2)cc[nH+]1 (3D coordinates assigned)
CC[N-]C(=O)c1cc([C@@H]2CCCN2Cc2ccc(F)cc2)cc[nH+]1 (nonaromatic ring conformer: 54.116680934518776 kcal/mol)

>  <smiles>  (15) 
CCNC(=O)c1cc(C2CCCN2Cc2ccc(F)cc2)ccn1

>  <score_type>  (15) 
oracle

>  <origin>  (15) 
adg

>  <m_score__min__energy>  (15) 
-9.4700000000000006

>  <m_primary>  (15) 
energy

$$$$
15:0
     RDKit          3D

 47 49  0  0  0  0  0  0  0  0999 V2000
   -8.7900   20.4470  -32.2660 C   0  0  0  0  0  0  0  0  0  0  0  0
   -7.6040   21.1090  -32.6920 O   0  0  0  0  0  0  0  0  0  0  0  0
   -6.4160   20.4570  -33.0620 C   0  0  0  0  0  0  0  0  0  0  0  0
   -6.4230   19.3000  -33.8660 C   0  0  0  0  0  0  0  0  0  0  0  0
   -5.2240   18.6780  -34.2220 C   0  0  0  0  0  0  0  0  0  0  0  0
   -4.0080   19.2000  -33.7830 C   0  0  0  0  0  0  0  0  0  0  0  0
   -3.9840   20.3470  -32.9870 C   0  0  0  0  0  0  0  0  0  0  0  0
   -5.1820   20.9840  -32.6210 C   0  0  0  0  0  0  0  0  0  0  0  0
   -5.1390   22.2390  -31.7850 C   0  0  0  0  0  0  0  0  0  0  0  0
   -5.9150   23.3060  -32.4300 N   0  0  0  0  0  0  0  0  0  0  0  0
   -6.8520   23.9470  -31.4950 C   0  0  0  0  0  0  0  0  0  0  0  0
   -6.1060   24.3530  -30.2220 C   0  0  0  0  0  0  0  0  0  0  0  0
   -5.2810   25.6290  -30.4410 C   0  0  0  0  0  0  0  0  0  0  0  0
   -3.8690   25.3020  -30.6250 N   0  0  0  0  0  0  0  0  0  0  0  0
   -3.1010   24.6440  -29.6070 C   0  0  0  0  0  0  0  0  0  0  0  0
   -3.4130   23.3340  -29.2250 C   0  0  0  0  0  0  0  0  0  0  0  0
   -2.6540   22.6970  -28.2380 C   0  0  0  0  0  0  0  0  0  0  0  0
   -2.9420   21.5160  -27.9010 O   0  0  0  0  0  0  0  0  0  0  0  0
   -1.5820   23.3800  -27.6330 C   0  0  0  0  0  0  0  0  0  0  0  0
   -0.7860   22.7880  -26.6350 C   0  0  0  0  0  0  0  0  0  0  0  0
    0.2680   23.5060  -26.0610 C   0  0  0  0  0  0  0  0  0  0  0  0
    0.5370   24.8140  -26.4730 C   0  0  0  0  0  0  0  0  0  0  0  0
   -0.2470   25.4130  -27.4630 C   0  0  0  0  0  0  0  0  0  0  0  0
   -1.3020   24.7030  -28.0460 C   0  0  0  0  0  0  0  0  0  0  0  0
   -2.0590   25.2880  -29.0100 N   0  0  0  0  0  0  0  0  0  0  0  0
   -8.8245   20.4278  -31.1667 H   0  0  0  0  0  0  0  0  0  0  0  0
   -9.6687   20.9851  -32.6510 H   0  0  0  0  0  0  0  0  0  0  0  0
   -8.7933   19.4166  -32.6510 H   0  0  0  0  0  0  0  0  0  0  0  0
   -7.3792   18.8837  -34.2158 H   0  0  0  0  0  0  0  0  0  0  0  0
   -5.2392   17.7748  -34.8497 H   0  0  0  0  0  0  0  0  0  0  0  0
   -3.0656   18.7073  -34.0643 H   0  0  0  0  0  0  0  0  0  0  0  0
   -3.0214   20.7545  -32.6443 H   0  0  0  0  0  0  0  0  0  0  0  0
   -5.5649   22.0292  -30.7928 H   0  0  0  0  0  0  0  0  0  0  0  0
   -4.0939   22.5668  -31.6839 H   0  0  0  0  0  0  0  0  0  0  0  0
   -6.4710   22.8800  -33.2090 H   0  0  0  0  0  0  0  0  0  0  0  0
   -7.2860   24.8411  -31.9664 H   0  0  0  0  0  0  0  0  0  0  0  0
   -7.6552   23.2403  -31.2393 H   0  0  0  0  0  0  0  0  0  0  0  0
   -6.8373   24.5325  -29.4201 H   0  0  0  0  0  0  0  0  0  0  0  0
   -5.4192   23.5387  -29.9478 H   0  0  0  0  0  0  0  0  0  0  0  0
   -5.6513   26.1499  -31.3363 H   0  0  0  0  0  0  0  0  0  0  0  0
   -5.3836   26.2744  -29.5562 H   0  0  0  0  0  0  0  0  0  0  0  0
   -3.3920   25.6320  -31.4960 H   0  0  0  0  0  0  0  0  0  0  0  0
   -4.2534   22.8067  -29.7001 H   0  0  0  0  0  0  0  0  0  0  0  0
   -0.9931   21.7590  -26.3058 H   0  0  0  0  0  0  0  0  0  0  0  0
    0.8881   23.0390  -25.2817 H   0  0  0  0  0  0  0  0  0  0  0  0
    1.3674   25.3732  -26.0173 H   0  0  0  0  0  0  0  0  0  0  0  0
   -0.0343   26.4434  -27.7839 H   0  0  0  0  0  0  0  0  0  0  0  0
  1  2  1  0
  2  3  1  0
  3  4  2  0
  4  5  1  0
  5  6  2  0
  6  7  1  0
  7  8  2  0
  8  9  1  0
  9 10  1  0
 10 11  1  0
 11 12  1  0
 12 13  1  0
 13 14  1  0
 14 15  1  0
 15 16  2  0
 16 17  1  0
 17 18  2  0
 17 19  1  0
 19 20  2  0
 20 21  1  0
 21 22  2  0
 22 23  1  0
 23 24  2  0
 24 25  1  0
  8  3  1  0
 25 15  1  0
 24 19  1  0
  1 26  1  0
  1 27  1  0
  1 28  1  0
  4 29  1  0
  5 30  1  0
  6 31  1  0
  7 32  1  0
  9 33  1  0
  9 34  1  0
 10 35  1  0
 11 36  1  0
 11 37  1  0
 12 38  1  0
 12 39  1  0
 13 40  1  0
 13 41  1  0
 14 42  1  0
 16 43  1  0
 20 44  1  0
 21 45  1  0
 22 46  1  0
 23 47  1  0
M  CHG  1  25  -1
M  END
>  <UniqueID>  (16) 
15

>  <SMILES>  (16) 
COc1ccccc1CNCCCNc1cc(=O)c2ccccc2[n-]1

>  <Energy>  (16) 
44.57393179725305

>  <Genealogy>  (16) 
COc1ccccc1CNCCCNc1cc(=O)c2ccccc2[n-]1 (protonated)
COc1ccccc1CNCCCNc1cc(=O)c2ccccc2[n-]1 (3D coordinates assigned)
COc1ccccc1CNCCCNc1cc(=O)c2ccccc2[n-]1 (optimized conformer: 44.57393179725305 kcal/mol)

>  <smiles>  (16) 
COc1ccccc1CNCCCNc1cc(=O)c2ccccc2[nH]1

>  <score_type>  (16) 
oracle

>  <origin>  (16) 
adg

>  <m_score__min__energy>  (16) 
-9.8499999999999996

>  <m_primary>  (16) 
energy

$$$$
16:0
     RDKit          3D

 50 52  0  0  0  0  0  0  0  0999 V2000
   -6.9899   25.1701  -31.3032 H   0  0  0  0  0  0  0  0  0  0  0  0
   -6.8890   24.1350  -30.9450 C   0  0  0  0  0  0  0  0  0  0  0  0
   -7.4490   23.0700  -31.7990 C   0  0  0  0  0  0  0  0  0  0  0  0
   -8.5710   23.2710  -32.3340 O   0  0  0  0  0  0  0  0  0  0  0  0
   -6.7040   21.8310  -32.1160 C   0  0  0  0  0  0  0  0  0  0  0  0
   -5.3800   21.7420  -32.5470 C   0  0  0  0  0  0  0  0  0  0  0  0
   -4.6899   22.5940  -32.6361 H   0  0  0  0  0  0  0  0  0  0  0  0
   -5.0650   20.4580  -32.8400 N   0  0  0  0  0  0  0  0  0  0  0  0
   -3.7820   19.9880  -33.3680 C   0  0  0  0  0  0  0  0  0  0  0  0
   -3.9401   19.5663  -34.3716 H   0  0  0  0  0  0  0  0  0  0  0  0
   -3.3832   19.2243  -32.6841 H   0  0  0  0  0  0  0  0  0  0  0  0
   -2.7700   21.1290  -33.4610 C   0  0  0  0  0  0  0  0  0  0  0  0
   -3.2607   22.0188  -33.8823 H   0  0  0  0  0  0  0  0  0  0  0  0
   -1.9364   20.8230  -34.1102 H   0  0  0  0  0  0  0  0  0  0  0  0
   -2.2720   21.4330  -32.1750 O   0  0  0  0  0  0  0  0  0  0  0  0
   -1.6360   20.2880  -31.6460 C   0  0  0  0  0  0  0  0  0  0  0  0
   -1.6595   20.3303  -30.5471 H   0  0  0  0  0  0  0  0  0  0  0  0
   -2.1618   19.3849  -31.9895 H   0  0  0  0  0  0  0  0  0  0  0  0
   -0.5915   20.2571  -31.9895 H   0  0  0  0  0  0  0  0  0  0  0  0
   -6.1750   19.7290  -32.5990 C   0  0  0  0  0  0  0  0  0  0  0  0
   -6.3570   18.3540  -32.7790 C   0  0  0  0  0  0  0  0  0  0  0  0
   -5.5409   17.7197  -33.1554 H   0  0  0  0  0  0  0  0  0  0  0  0
   -7.6130   17.8060  -32.4650 C   0  0  0  0  0  0  0  0  0  0  0  0
   -7.7861   16.7271  -32.5919 H   0  0  0  0  0  0  0  0  0  0  0  0
   -8.6530   18.6320  -31.9880 C   0  0  0  0  0  0  0  0  0  0  0  0
   -9.6296   18.1914  -31.7389 H   0  0  0  0  0  0  0  0  0  0  0  0
   -8.4500   20.0130  -31.8290 C   0  0  0  0  0  0  0  0  0  0  0  0
   -9.2564   20.6647  -31.4614 H   0  0  0  0  0  0  0  0  0  0  0  0
   -7.1950   20.5350  -32.1510 C   0  0  0  0  0  0  0  0  0  0  0  0
   -6.2670   23.9520  -29.7690 C   0  0  0  0  0  0  0  0  0  0  0  0
   -6.8817   24.0363  -28.8607 H   0  0  0  0  0  0  0  0  0  0  0  0
   -4.8290   23.6470  -29.5820 C   0  0  0  0  0  0  0  0  0  0  0  0
   -4.3700   22.3420  -29.3380 C   0  0  0  0  0  0  0  0  0  0  0  0
   -5.0864   21.5081  -29.3013 H   0  0  0  0  0  0  0  0  0  0  0  0
   -3.0110   22.0980  -29.1420 C   0  0  0  0  0  0  0  0  0  0  0  0
   -2.6586   21.0677  -28.9861 H   0  0  0  0  0  0  0  0  0  0  0  0
   -2.0870   23.1590  -29.1420 C   0  0  0  0  0  0  0  0  0  0  0  0
   -0.7130   22.9520  -28.9500 O   0  0  0  0  0  0  0  0  0  0  0  0
   -0.1100   21.6780  -28.7490 C   0  0  0  0  0  0  0  0  0  0  0  0
   -0.0173   21.4822  -27.6705 H   0  0  0  0  0  0  0  0  0  0  0  0
   -0.7352   20.8995  -29.2106 H   0  0  0  0  0  0  0  0  0  0  0  0
    0.8884   21.6680  -29.2106 H   0  0  0  0  0  0  0  0  0  0  0  0
   -2.5440   24.4720  -29.3340 C   0  0  0  0  0  0  0  0  0  0  0  0
   -1.6050   25.5160  -29.2990 O   0  0  0  0  0  0  0  0  0  0  0  0
   -0.9150   25.9420  -28.1280 C   0  0  0  0  0  0  0  0  0  0  0  0
   -1.4629   25.6038  -27.2361 H   0  0  0  0  0  0  0  0  0  0  0  0
    0.0972   25.5114  -28.1218 H   0  0  0  0  0  0  0  0  0  0  0  0
   -0.8465   27.0398  -28.1218 H   0  0  0  0  0  0  0  0  0  0  0  0
   -3.9140   24.7080  -29.5560 C   0  0  0  0  0  0  0  0  0  0  0  0
   -4.2703   25.7371  -29.7108 H   0  0  0  0  0  0  0  0  0  0  0  0
  1  2  1  0
  2  3  1  0
  3  4  2  0
  3  5  1  0
  5  6  2  0
  6  7  1  0
  6  8  1  0
  8  9  1  0
  9 10  1  0
  9 11  1  0
  9 12  1  0
 12 13  1  0
 12 14  1  0
 12 15  1  0
 15 16  1  0
 16 17  1  0
 16 18  1  0
 16 19  1  0
  8 20  1  0
 20 21  2  0
 21 22  1  0
 21 23  1  0
 23 24  1  0
 23 25  2  0
 25 26  1  0
 25 27  1  0
 27 28  1  0
 27 29  2  0
  2 30  2  0
 30 31  1  0
 30 32  1  0
 32 33  2  0
 33 34  1  0
 33 35  1  0
 35 36  1  0
 35 37  2  0
 37 38  1  0
 38 39  1  0
 39 40  1  0
 39 41  1  0
 39 42  1  0
 37 43  1  0
 43 44  1  0
 44 45  1  0
 45 46  1  0
 45 47  1  0
 45 48  1  0
 43 49  2  0
 49 50  1  0
 29  5  1  0
 49 32  1  0
 29 20  1  0
M  END
>  <UniqueID>  (17) 
16

>  <SMILES>  (17) 
COCCn1cc(C(=O)/C=C\c2ccc(OC)c(OC)c2)c2ccccc21

>  <Energy>  (17) 
89.10874658936483

>  <Genealogy>  (17) 
COCCn1cc(C(=O)/C=C\c2ccc(OC)c(OC)c2)c2ccccc21 (cis-trans isomerization)
COCCn1cc(C(=O)/C=C\c2ccc(OC)c(OC)c2)c2ccccc21 (3D coordinates assigned)
COCCn1cc(C(=O)/C=C\c2ccc(OC)c(OC)c2)c2ccccc21 (optimized conformer: 89.10874658936483 kcal/mol)

>  <smiles>  (17) 
COCCn1cc(C(=O)C=Cc2ccc(OC)c(OC)c2)c2ccccc21

>  <score_type>  (17) 
oracle

>  <origin>  (17) 
adg

>  <m_score__min__energy>  (17) 
-8.8499999999999996

>  <m_primary>  (17) 
energy

$$$$
17:0
     RDKit          3D

 57 59  0  0  0  0  0  0  0  0999 V2000
   -1.9490   26.0540  -25.3300 C   0  0  0  0  0  0  0  0  0  0  0  0
   -1.3270   25.3530  -26.5400 C   0  0  0  0  0  0  0  0  0  0  0  0
   -2.2690   25.1530  -27.6630 N   0  0  0  0  0  0  0  0  0  0  0  0
   -1.6540   24.6990  -28.9350 C   0  0  0  0  0  0  0  0  0  0  0  0
   -0.3530   23.9010  -28.7750 C   0  0  0  0  0  0  0  0  0  0  0  0
   -3.5570   24.5350  -27.2820 C   0  0  0  0  0  0  0  0  0  0  0  0
   -4.2960   24.0370  -28.5020 C   0  0  0  0  0  0  0  0  0  0  0  0
   -5.1600   24.9040  -29.1930 C   0  0  0  0  0  0  0  0  0  0  0  0
   -5.8670   24.4610  -30.3120 C   0  0  0  0  0  0  0  0  0  0  0  0
   -5.7120   23.1460  -30.7710 C   0  0  0  0  0  0  0  0  0  0  0  0
   -6.5020   22.6480  -31.9540 C   0  0  0  0  0  0  0  0  0  0  0  0
   -6.3320   21.1910  -32.1210 N   0  0  0  0  0  0  0  0  0  0  0  0
   -5.2610   20.9030  -33.0950 C   0  0  0  0  0  0  0  0  0  0  0  0
   -4.8920   19.4080  -33.0710 C   0  0  0  0  0  0  0  0  0  0  0  0
   -6.0620   18.5250  -32.5830 C   0  0  0  0  0  0  0  0  0  0  0  0
   -5.8910   17.0840  -33.0230 C   0  0  0  0  0  0  0  0  0  0  0  0
   -6.8460   16.4910  -33.8670 C   0  0  0  0  0  0  0  0  0  0  0  0
   -6.6830   15.1640  -34.2650 C   0  0  0  0  0  0  0  0  0  0  0  0
   -5.5780   14.4360  -33.8250 C   0  0  0  0  0  0  0  0  0  0  0  0
   -4.6480   15.0500  -32.9850 C   0  0  0  0  0  0  0  0  0  0  0  0
   -4.8180   16.3470  -32.6030 N   0  0  0  0  0  0  0  0  0  0  0  0
   -7.4080   19.1020  -33.0480 C   0  0  0  0  0  0  0  0  0  0  0  0
   -7.6060   20.5470  -32.5360 C   0  0  0  0  0  0  0  0  0  0  0  0
   -4.8420   22.2790  -30.0960 C   0  0  0  0  0  0  0  0  0  0  0  0
   -4.1300   22.7160  -28.9730 C   0  0  0  0  0  0  0  0  0  0  0  0
   -2.9330   21.4740  -28.1310 Br  0  0  0  0  0  0  0  0  0  0  0  0
   -1.5538   25.6086  -24.4051 H   0  0  0  0  0  0  0  0  0  0  0  0
   -1.6983   27.1247  -25.3576 H   0  0  0  0  0  0  0  0  0  0  0  0
   -3.0419   25.9325  -25.3576 H   0  0  0  0  0  0  0  0  0  0  0  0
   -0.4842   25.9622  -26.8985 H   0  0  0  0  0  0  0  0  0  0  0  0
   -1.0114   24.3541  -26.2045 H   0  0  0  0  0  0  0  0  0  0  0  0
   -2.3827   24.0630  -29.4590 H   0  0  0  0  0  0  0  0  0  0  0  0
   -1.3906   25.6098  -29.4927 H   0  0  0  0  0  0  0  0  0  0  0  0
   -0.1343   23.7669  -27.7053 H   0  0  0  0  0  0  0  0  0  0  0  0
   -0.4657   22.9165  -29.2525 H   0  0  0  0  0  0  0  0  0  0  0  0
    0.4735   24.4477  -29.2525 H   0  0  0  0  0  0  0  0  0  0  0  0
   -3.3647   23.6884  -26.6065 H   0  0  0  0  0  0  0  0  0  0  0  0
   -4.1764   25.2929  -26.7801 H   0  0  0  0  0  0  0  0  0  0  0  0
   -5.2802   25.9417  -28.8486 H   0  0  0  0  0  0  0  0  0  0  0  0
   -6.5488   25.1471  -30.8359 H   0  0  0  0  0  0  0  0  0  0  0  0
   -7.5675   22.8712  -31.7961 H   0  0  0  0  0  0  0  0  0  0  0  0
   -6.1359   23.1523  -32.8605 H   0  0  0  0  0  0  0  0  0  0  0  0
   -5.6075   21.1734  -34.1034 H   0  0  0  0  0  0  0  0  0  0  0  0
   -4.3712   21.4916  -32.8270 H   0  0  0  0  0  0  0  0  0  0  0  0
   -4.6131   19.0958  -34.0882 H   0  0  0  0  0  0  0  0  0  0  0  0
   -4.0556   19.2782  -32.3684 H   0  0  0  0  0  0  0  0  0  0  0  0
   -6.0548   18.5289  -31.4830 H   0  0  0  0  0  0  0  0  0  0  0  0
   -7.7160   17.0695  -34.2113 H   0  0  0  0  0  0  0  0  0  0  0  0
   -7.4255   14.6922  -34.9254 H   0  0  0  0  0  0  0  0  0  0  0  0
   -5.4410   13.3899  -34.1364 H   0  0  0  0  0  0  0  0  0  0  0  0
   -3.7739   14.4846  -32.6297 H   0  0  0  0  0  0  0  0  0  0  0  0
   -4.1030   16.7700  -31.9700 H   0  0  0  0  0  0  0  0  0  0  0  0
   -7.4362   19.1044  -34.1476 H   0  0  0  0  0  0  0  0  0  0  0  0
   -8.2144   18.4752  -32.6396 H   0  0  0  0  0  0  0  0  0  0  0  0
   -8.0569   21.1463  -33.3407 H   0  0  0  0  0  0  0  0  0  0  0  0
   -8.2562   20.4982  -31.6501 H   0  0  0  0  0  0  0  0  0  0  0  0
   -4.7176   21.2457  -30.4520 H   0  0  0  0  0  0  0  0  0  0  0  0
  1  2  1  0
  2  3  1  0
  3  4  1  0
  4  5  1  0
  3  6  1  0
  6  7  1  0
  7  8  2  0
  8  9  1  0
  9 10  2  0
 10 11  1  0
 11 12  1  0
 12 13  1  0
 13 14  1  0
 14 15  1  0
 15 16  1  0
 16 17  2  0
 17 18  1  0
 18 19  2  0
 19 20  1  0
 20 21  2  0
 15 22  1  0
 22 23  1  0
 10 24  1  0
 24 25  2  0
 25 26  1  0
 25  7  1  0
 23 12  1  0
 21 16  1  0
  1 27  1  0
  1 28  1  0
  1 29  1  0
  2 30  1  0
  2 31  1  0
  4 32  1  0
  4 33  1  0
  5 34  1  0
  5 35  1  0
  5 36  1  0
  6 37  1  0
  6 38  1  0
  8 39  1  0
  9 40  1  0
 11 41  1  0
 11 42  1  0
 13 43  1  0
 13 44  1  0
 14 45  1  0
 14 46  1  0
 15 47  1  0
 17 48  1  0
 18 49  1  0
 19 50  1  0
 20 51  1  0
 21 52  1  0
 22 53  1  0
 22 54  1  0
 23 55  1  0
 23 56  1  0
 24 57  1  0
M  CHG  1  21   1
M  END
>  <UniqueID>  (18) 
17

>  <SMILES>  (18) 
CCN(CC)Cc1ccc(CN2CCC(c3cccc[nH+]3)CC2)cc1Br

>  <Energy>  (18) 
70.12263363303013

>  <Genealogy>  (18) 
CCN(CC)Cc1ccc(CN2CCC(c3cccc[nH+]3)CC2)cc1Br (protonated)
CCN(CC)Cc1ccc(CN2CCC(c3cccc[nH+]3)CC2)cc1Br (3D coordinates assigned)
CCN(CC)Cc1ccc(CN2CCC(c3cccc[nH+]3)CC2)cc1Br (nonaromatic ring conformer: 70.12263363303013 kcal/mol)

>  <smiles>  (18) 
CCN(CC)Cc1ccc(CN2CCC(c3ccccn3)CC2)cc1Br

>  <score_type>  (18) 
oracle

>  <origin>  (18) 
adg

>  <m_score__min__energy>  (18) 
-8.4299999999999997

>  <m_primary>  (18) 
energy

$$$$
18:0
     RDKit          3D

 34 34  0  0  0  0  0  0  0  0999 V2000
   -3.1710   24.1940  -27.5440 C   0  0  0  0  0  0  0  0  0  0  0  0
   -2.3170   24.8860  -28.6010 C   0  0  0  0  0  0  0  0  0  0  0  0
   -3.1130   25.2750  -29.7210 O   0  0  0  0  0  0  0  0  0  0  0  0
   -4.1580   24.5220  -30.2820 C   0  0  0  0  0  0  0  0  0  0  0  0
   -5.4630   25.0120  -30.1540 C   0  0  0  0  0  0  0  0  0  0  0  0
   -6.5440   24.3090  -30.6930 C   0  0  0  0  0  0  0  0  0  0  0  0
   -6.3320   23.1070  -31.3870 C   0  0  0  0  0  0  0  0  0  0  0  0
   -7.4970   22.3450  -31.9660 C   0  0  0  0  0  0  0  0  0  0  0  0
   -7.0950   21.0340  -32.6870 C   0  0  0  0  0  0  0  0  0  0  0  0
   -8.1730   20.0290  -32.8740 N   0  0  0  0  0  0  0  0  0  0  0  0
   -7.8030   18.6830  -32.3980 C   0  0  0  0  0  0  0  0  0  0  0  0
   -9.4670   20.4520  -32.3100 C   0  0  0  0  0  0  0  0  0  0  0  0
   -5.0250   22.6060  -31.5060 C   0  0  0  0  0  0  0  0  0  0  0  0
   -3.9450   23.3100  -30.9650 C   0  0  0  0  0  0  0  0  0  0  0  0
   -2.8178   24.4802  -26.5423 H   0  0  0  0  0  0  0  0  0  0  0  0
   -4.2210   24.4991  -27.6636 H   0  0  0  0  0  0  0  0  0  0  0  0
   -3.0902   23.1035  -27.6636 H   0  0  0  0  0  0  0  0  0  0  0  0
   -1.8527   25.7806  -28.1605 H   0  0  0  0  0  0  0  0  0  0  0  0
   -1.5438   24.1833  -28.9450 H   0  0  0  0  0  0  0  0  0  0  0  0
   -5.6394   25.9596  -29.6240 H   0  0  0  0  0  0  0  0  0  0  0  0
   -7.5655   24.6991  -30.5730 H   0  0  0  0  0  0  0  0  0  0  0  0
   -8.1866   22.0922  -31.1471 H   0  0  0  0  0  0  0  0  0  0  0  0
   -7.9594   22.9960  -32.7225 H   0  0  0  0  0  0  0  0  0  0  0  0
   -6.7110   21.3029  -33.6821 H   0  0  0  0  0  0  0  0  0  0  0  0
   -6.3556   20.5526  -32.0301 H   0  0  0  0  0  0  0  0  0  0  0  0
   -8.3120   19.9440  -33.9100 H   0  0  0  0  0  0  0  0  0  0  0  0
   -7.7997   18.6711  -31.2981 H   0  0  0  0  0  0  0  0  0  0  0  0
   -8.5327   17.9489  -32.7705 H   0  0  0  0  0  0  0  0  0  0  0  0
   -6.8006   18.4251  -32.7705 H   0  0  0  0  0  0  0  0  0  0  0  0
   -9.4117   20.4339  -31.2115 H   0  0  0  0  0  0  0  0  0  0  0  0
   -9.6986   21.4726  -32.6487 H   0  0  0  0  0  0  0  0  0  0  0  0
  -10.2567   19.7652  -32.6487 H   0  0  0  0  0  0  0  0  0  0  0  0
   -4.8502   21.6537  -32.0282 H   0  0  0  0  0  0  0  0  0  0  0  0
   -2.9242   22.9148  -31.0737 H   0  0  0  0  0  0  0  0  0  0  0  0
  1  2  1  0
  2  3  1  0
  3  4  1  0
  4  5  2  0
  5  6  1  0
  6  7  2  0
  7  8  1  0
  8  9  1  0
  9 10  1  0
 10 11  1  0
 10 12  1  0
  7 13  1  0
 13 14  2  0
 14  4  1  0
  1 15  1  0
  1 16  1  0
  1 17  1  0
  2 18  1  0
  2 19  1  0
  5 20  1  0
  6 21  1  0
  8 22  1  0
  8 23  1  0
  9 24  1  0
  9 25  1  0
 10 26  1  0
 11 27  1  0
 11 28  1  0
 11 29  1  0
 12 30  1  0
 12 31  1  0
 12 32  1  0
 13 33  1  0
 14 34  1  0
M  CHG  1  10   1
M  END
>  <UniqueID>  (19) 
18

>  <SMILES>  (19) 
CCOc1ccc(CC[NH+](C)C)cc1

>  <Energy>  (19) 
32.539043014217

>  <Genealogy>  (19) 
CCOc1ccc(CC[NH+](C)C)cc1 (protonated)
CCOc1ccc(CC[NH+](C)C)cc1 (3D coordinates assigned)
CCOc1ccc(CC[NH+](C)C)cc1 (optimized conformer: 32.539043014217 kcal/mol)

>  <smiles>  (19) 
CCOc1ccc(CCN(C)C)cc1

>  <score_type>  (19) 
oracle

>  <origin>  (19) 
adg

>  <m_score__min__energy>  (19) 
-5.5800000000000001

>  <m_primary>  (19) 
energy

$$$$
19:0
     RDKit          3D

 37 39  0  0  0  0  0  0  0  0999 V2000
   -3.0160   23.5760  -29.1020 C   0  0  0  0  0  0  0  0  0  0  0  0
   -4.1470   24.1810  -28.5500 C   0  0  0  0  0  0  0  0  0  0  0  0
   -5.2640   24.4250  -29.3500 C   0  0  0  0  0  0  0  0  0  0  0  0
   -5.2350   24.0570  -30.7030 C   0  0  0  0  0  0  0  0  0  0  0  0
   -6.4320   24.2820  -31.5870 C   0  0  0  0  0  0  0  0  0  0  0  0
   -6.4900   23.3160  -32.7010 N   0  0  0  0  0  0  0  0  0  0  0  0
   -7.3380   22.1870  -32.3800 C   0  0  0  0  0  0  0  0  0  0  0  0
   -8.6620   22.4220  -31.9600 C   0  0  0  0  0  0  0  0  0  0  0  0
   -9.5030   21.3610  -31.6180 C   0  0  0  0  0  0  0  0  0  0  0  0
   -9.0420   20.0490  -31.7050 C   0  0  0  0  0  0  0  0  0  0  0  0
   -7.7420   19.7930  -32.1410 C   0  0  0  0  0  0  0  0  0  0  0  0
   -6.8770   20.8460  -32.4710 C   0  0  0  0  0  0  0  0  0  0  0  0
   -5.2480   20.4140  -33.1170 S   0  0  0  0  0  0  0  0  0  0  0  0
   -5.5980   18.6610  -33.2730 C   0  0  0  0  0  0  0  0  0  0  0  0
   -5.3580   17.8020  -32.1960 C   0  0  0  0  0  0  0  0  0  0  0  0
   -5.6170   16.4360  -32.3380 C   0  0  0  0  0  0  0  0  0  0  0  0
   -6.0780   15.9490  -33.5200 N   0  0  0  0  0  0  0  0  0  0  0  0
   -6.2970   16.7620  -34.5890 C   0  0  0  0  0  0  0  0  0  0  0  0
   -6.0510   18.1340  -34.4870 C   0  0  0  0  0  0  0  0  0  0  0  0
   -4.1200   23.4670  -31.2170 N   0  0  0  0  0  0  0  0  0  0  0  0
   -3.0210   23.2210  -30.4530 C   0  0  0  0  0  0  0  0  0  0  0  0
   -2.1303   23.3810  -28.4794 H   0  0  0  0  0  0  0  0  0  0  0  0
   -4.1574   24.4645  -27.4872 H   0  0  0  0  0  0  0  0  0  0  0  0
   -6.1589   24.9015  -28.9234 H   0  0  0  0  0  0  0  0  0  0  0  0
   -7.3444   24.1796  -30.9811 H   0  0  0  0  0  0  0  0  0  0  0  0
   -6.3495   25.2907  -32.0179 H   0  0  0  0  0  0  0  0  0  0  0  0
   -5.5200   23.0000  -32.9210 H   0  0  0  0  0  0  0  0  0  0  0  0
   -6.8430   23.7820  -33.5710 H   0  0  0  0  0  0  0  0  0  0  0  0
   -9.0380   23.4540  -31.9007 H   0  0  0  0  0  0  0  0  0  0  0  0
  -10.5303   21.5612  -31.2796 H   0  0  0  0  0  0  0  0  0  0  0  0
   -9.7037   19.2145  -31.4297 H   0  0  0  0  0  0  0  0  0  0  0  0
   -7.3917   18.7538  -32.2269 H   0  0  0  0  0  0  0  0  0  0  0  0
   -4.9691   18.1976  -31.2461 H   0  0  0  0  0  0  0  0  0  0  0  0
   -5.4475   15.7540  -31.4917 H   0  0  0  0  0  0  0  0  0  0  0  0
   -6.6680   16.3390  -35.5342 H   0  0  0  0  0  0  0  0  0  0  0  0
   -6.2120   18.7930  -35.3529 H   0  0  0  0  0  0  0  0  0  0  0  0
   -2.1367   22.7426  -30.8993 H   0  0  0  0  0  0  0  0  0  0  0  0
  1  2  2  0
  2  3  1  0
  3  4  2  0
  4  5  1  0
  5  6  1  0
  6  7  1  0
  7  8  2  0
  8  9  1  0
  9 10  2  0
 10 11  1  0
 11 12  2  0
 12 13  1  0
 13 14  1  0
 14 15  2  0
 15 16  1  0
 16 17  2  0
 17 18  1  0
 18 19  2  0
  4 20  1  0
 20 21  2  0
 21  1  1  0
 12  7  1  0
 19 14  1  0
  1 22  1  0
  2 23  1  0
  3 24  1  0
  5 25  1  0
  5 26  1  0
  6 27  1  0
  6 28  1  0
  8 29  1  0
  9 30  1  0
 10 31  1  0
 11 32  1  0
 15 33  1  0
 16 34  1  0
 18 35  1  0
 19 36  1  0
 21 37  1  0
M  CHG  1   6   1
M  END
>  <UniqueID>  (20) 
19

>  <SMILES>  (20) 
c1ccc(C[NH2+]c2ccccc2Sc2ccncc2)nc1

>  <Energy>  (20) 
40.13532492236006

>  <Genealogy>  (20) 
c1ccc(C[NH2+]c2ccccc2Sc2ccncc2)nc1 (protonated)
c1ccc(C[NH2+]c2ccccc2Sc2ccncc2)nc1 (3D coordinates assigned)
c1ccc(C[NH2+]c2ccccc2Sc2ccncc2)nc1 (optimized conformer: 40.13532492236006 kcal/mol)

>  <smiles>  (20) 
c1ccc(CNc2ccccc2Sc2ccncc2)nc1

>  <score_type>  (20) 
oracle

>  <origin>  (20) 
adg

>  <m_score__min__energy>  (20) 
-7.3499999999999996

>  <m_primary>  (20) 
energy

$$$$
20:0
     RDKit          3D

 36 38  0  0  0  0  0  0  0  0999 V2000
   -5.8760   18.0560  -31.7500 N   0  0  0  0  0  0  0  0  0  0  0  0
   -7.3300   17.9190  -31.6700 C   0  0  0  0  0  0  0  0  0  0  0  0
   -8.0230   18.8030  -32.7160 C   0  0  0  0  0  0  0  0  0  0  0  0
   -7.9590   20.2550  -32.3110 C   0  0  0  0  0  0  0  0  0  0  0  0
   -9.1140   20.8980  -31.8390 C   0  0  0  0  0  0  0  0  0  0  0  0
   -9.0660   22.2350  -31.4350 C   0  0  0  0  0  0  0  0  0  0  0  0
   -7.8640   22.9440  -31.4860 C   0  0  0  0  0  0  0  0  0  0  0  0
   -6.6930   22.3140  -31.9400 C   0  0  0  0  0  0  0  0  0  0  0  0
   -5.4580   22.9810  -31.9900 C   0  0  0  0  0  0  0  0  0  0  0  0
   -5.3540   24.1840  -31.6280 O   0  0  0  0  0  0  0  0  0  0  0  0
   -4.3270   22.2980  -32.4410 C   0  0  0  0  0  0  0  0  0  0  0  0
   -4.4470   20.9560  -32.8400 C   0  0  0  0  0  0  0  0  0  0  0  0
   -3.2830   20.1720  -33.3240 C   0  0  0  0  0  0  0  0  0  0  0  0
   -2.0100   20.7550  -33.4870 C   0  0  0  0  0  0  0  0  0  0  0  0
   -0.9350   19.9900  -33.9540 C   0  0  0  0  0  0  0  0  0  0  0  0
   -1.1180   18.6420  -34.2690 C   0  0  0  0  0  0  0  0  0  0  0  0
   -2.3770   18.0560  -34.1250 C   0  0  0  0  0  0  0  0  0  0  0  0
   -3.4550   18.8150  -33.6590 C   0  0  0  0  0  0  0  0  0  0  0  0
   -5.6340   20.3570  -32.7740 O   0  0  0  0  0  0  0  0  0  0  0  0
   -6.7410   20.9630  -32.3520 C   0  0  0  0  0  0  0  0  0  0  0  0
   -5.5620   18.8860  -31.1960 H   0  0  0  0  0  0  0  0  0  0  0  0
   -5.4140   17.1910  -31.3860 H   0  0  0  0  0  0  0  0  0  0  0  0
   -5.6000   18.1920  -32.7490 H   0  0  0  0  0  0  0  0  0  0  0  0
   -7.6029   16.8685  -31.8488 H   0  0  0  0  0  0  0  0  0  0  0  0
   -7.6579   18.2368  -30.6692 H   0  0  0  0  0  0  0  0  0  0  0  0
   -7.5209   18.6760  -33.6864 H   0  0  0  0  0  0  0  0  0  0  0  0
   -9.0784   18.5021  -32.7912 H   0  0  0  0  0  0  0  0  0  0  0  0
  -10.0638   20.3456  -31.7867 H   0  0  0  0  0  0  0  0  0  0  0  0
   -9.9794   22.7312  -31.0751 H   0  0  0  0  0  0  0  0  0  0  0  0
   -7.8339   23.9973  -31.1703 H   0  0  0  0  0  0  0  0  0  0  0  0
   -3.3519   22.8052  -32.4836 H   0  0  0  0  0  0  0  0  0  0  0  0
   -1.8605   21.8177  -33.2457 H   0  0  0  0  0  0  0  0  0  0  0  0
    0.0563   20.4517  -34.0731 H   0  0  0  0  0  0  0  0  0  0  0  0
   -0.2701   18.0417  -34.6306 H   0  0  0  0  0  0  0  0  0  0  0  0
   -2.5212   16.9954  -34.3786 H   0  0  0  0  0  0  0  0  0  0  0  0
   -4.4455   18.3483  -33.5532 H   0  0  0  0  0  0  0  0  0  0  0  0
  1  2  1  0
  2  3  1  0
  3  4  1  0
  4  5  2  0
  5  6  1  0
  6  7  2  0
  7  8  1  0
  8  9  1  0
  9 10  2  0
  9 11  1  0
 11 12  2  0
 12 13  1  0
 13 14  2  0
 14 15  1  0
 15 16  2  0
 16 17  1  0
 17 18  2  0
 12 19  1  0
 19 20  1  0
 20  4  1  0
 20  8  2  0
 18 13  1  0
  1 21  1  0
  1 22  1  0
  1 23  1  0
  2 24  1  0
  2 25  1  0
  3 26  1  0
  3 27  1  0
  5 28  1  0
  6 29  1  0
  7 30  1  0
 11 31  1  0
 14 32  1  0
 15 33  1  0
 16 34  1  0
 17 35  1  0
 18 36  1  0
M  CHG  1   1   1
M  END
>  <UniqueID>  (21) 
20

>  <SMILES>  (21) 
[NH3+]CCc1cccc2c(=O)cc(-c3ccccc3)oc12

>  <Energy>  (21) 
42.99367161619421

>  <Genealogy>  (21) 
[NH3+]CCc1cccc2c(=O)cc(-c3ccccc3)oc12 (protonated)
[NH3+]CCc1cccc2c(=O)cc(-c3ccccc3)oc12 (3D coordinates assigned)
[NH3+]CCc1cccc2c(=O)cc(-c3ccccc3)oc12 (optimized conformer: 42.99367161619421 kcal/mol)

>  <smiles>  (21) 
NCCc1cccc2c(=O)cc(-c3ccccc3)oc12

>  <score_type>  (21) 
oracle

>  <origin>  (21) 
adg

>  <m_score__min__energy>  (21) 
-6.5800000000000001

>  <m_primary>  (21) 
energy

$$$$
21:0
     RDKit          3D

 53 56  0  0  1  0  0  0  0  0999 V2000
   -0.6830   21.5970  -30.1790 C   0  0  0  0  0  0  0  0  0  0  0  0
   -1.5800   22.7250  -29.8060 C   0  0  0  0  0  0  0  0  0  0  0  0
   -2.6260   23.0630  -30.6290 C   0  0  0  0  0  0  0  0  0  0  0  0
   -3.4840   24.0880  -30.3440 C   0  0  0  0  0  0  0  0  0  0  0  0
   -4.4310   24.3530  -31.1420 N   0  0  0  0  0  0  0  0  0  0  0  0
   -5.4650   23.4570  -31.5440 C   0  0  0  0  0  0  0  0  0  0  0  0
   -6.8580   23.7790  -31.0880 C   0  0  0  0  0  0  0  0  0  0  0  0
   -7.7300   22.8630  -31.9610 C   0  0  0  0  0  0  0  0  0  0  0  0
   -7.5480   21.5350  -31.4810 N   0  0  0  0  0  0  0  0  0  0  0  0
   -8.4230   20.5770  -32.0830 C   0  0  0  0  0  0  0  0  0  0  0  0
   -7.6620   19.4510  -32.6680 C   0  0  0  0  0  0  0  0  0  0  0  0
   -7.7230   18.1570  -32.1870 C   0  0  0  0  0  0  0  0  0  0  0  0
   -6.9580   17.2070  -32.8320 C   0  0  0  0  0  0  0  0  0  0  0  0
   -6.1530   17.4810  -33.9110 C   0  0  0  0  0  0  0  0  0  0  0  0
   -6.0920   18.7740  -34.3920 C   0  0  0  0  0  0  0  0  0  0  0  0
   -6.8440   19.7230  -33.7620 C   0  0  0  0  0  0  0  0  0  0  0  0
   -6.2360   21.0850  -31.2310 C   0  0  0  0  0  0  0  0  0  0  0  0
   -5.1340   22.0180  -31.6720 C   0  0  0  0  0  0  0  0  0  0  0  0
   -3.2780   24.7770  -29.2080 N   0  0  0  0  0  0  0  0  0  0  0  0
   -2.2630   24.4710  -28.3810 C   0  0  0  0  0  0  0  0  0  0  0  0
   -1.9970   25.1610  -27.1720 N   0  0  0  0  0  0  0  0  0  0  0  0
   -0.8290   25.7060  -26.7740 C   0  0  0  0  0  0  0  0  0  0  0  0
   -1.0560   26.2670  -25.5350 C   0  0  0  0  0  0  0  0  0  0  0  0
   -2.3520   26.0390  -25.2310 N   0  0  0  0  0  0  0  0  0  0  0  0
   -2.9290   25.3650  -26.2260 C   0  0  0  0  0  0  0  0  0  0  0  0
   -4.3630   24.9270  -26.2590 C   0  0  0  0  0  0  0  0  0  0  0  0
   -1.4120   23.4450  -28.6780 N   0  0  0  0  0  0  0  0  0  0  0  0
   -0.3003   21.1158  -29.2669 H   0  0  0  0  0  0  0  0  0  0  0  0
   -1.2459   20.8618  -30.7729 H   0  0  0  0  0  0  0  0  0  0  0  0
    0.1600   21.9799  -30.7729 H   0  0  0  0  0  0  0  0  0  0  0  0
   -2.7793   22.4866  -31.5533 H   0  0  0  0  0  0  0  0  0  0  0  0
   -5.5080   23.7300  -32.6087 H   0  0  0  0  0  0  0  0  0  0  0  0
   -6.9876   23.5476  -30.0204 H   0  0  0  0  0  0  0  0  0  0  0  0
   -7.1116   24.8444  -31.1909 H   0  0  0  0  0  0  0  0  0  0  0  0
   -8.7873   23.1541  -31.8755 H   0  0  0  0  0  0  0  0  0  0  0  0
   -7.4434   22.9406  -33.0202 H   0  0  0  0  0  0  0  0  0  0  0  0
   -9.1093   20.1868  -31.3170 H   0  0  0  0  0  0  0  0  0  0  0  0
   -8.9832   21.0746  -32.8883 H   0  0  0  0  0  0  0  0  0  0  0  0
   -8.3552   17.8952  -31.3257 H   0  0  0  0  0  0  0  0  0  0  0  0
   -6.9947   16.1720  -32.4614 H   0  0  0  0  0  0  0  0  0  0  0  0
   -5.5651   16.6814  -34.3853 H   0  0  0  0  0  0  0  0  0  0  0  0
   -5.4586   19.0306  -35.2540 H   0  0  0  0  0  0  0  0  0  0  0  0
   -6.8018   20.7560  -34.1377 H   0  0  0  0  0  0  0  0  0  0  0  0
   -6.1327   20.9267  -30.1474 H   0  0  0  0  0  0  0  0  0  0  0  0
   -6.1123   20.1685  -31.8266 H   0  0  0  0  0  0  0  0  0  0  0  0
   -4.2437   21.8135  -31.0591 H   0  0  0  0  0  0  0  0  0  0  0  0
   -4.9693   21.8269  -32.7427 H   0  0  0  0  0  0  0  0  0  0  0  0
   -3.8940   25.5680  -28.9300 H   0  0  0  0  0  0  0  0  0  0  0  0
    0.1202   25.7034  -27.3299 H   0  0  0  0  0  0  0  0  0  0  0  0
   -0.3214   26.7990  -24.9127 H   0  0  0  0  0  0  0  0  0  0  0  0
   -4.7354   24.8133  -25.2302 H   0  0  0  0  0  0  0  0  0  0  0  0
   -4.9650   25.6822  -26.7855 H   0  0  0  0  0  0  0  0  0  0  0  0
   -4.4403   23.9643  -26.7855 H   0  0  0  0  0  0  0  0  0  0  0  0
  1  2  1  0
  2  3  2  0
  3  4  1  0
  4  5  2  0
  5  6  1  0
  6  7  1  0
  7  8  1  0
  8  9  1  0
  9 10  1  0
 10 11  1  0
 11 12  2  0
 12 13  1  0
 13 14  2  0
 14 15  1  0
 15 16  2  0
  9 17  1  0
 17 18  1  0
  4 19  1  0
 19 20  1  0
 20 21  1  0
 21 22  1  0
 22 23  2  0
 23 24  1  0
 24 25  2  0
 25 26  1  0
 20 27  2  0
 27  2  1  0
 18  6  1  0
 25 21  1  0
 16 11  1  0
  1 28  1  0
  1 29  1  0
  1 30  1  0
  3 31  1  0
  6 32  1  0
  7 33  1  0
  7 34  1  0
  8 35  1  0
  8 36  1  0
 10 37  1  0
 10 38  1  0
 12 39  1  0
 13 40  1  0
 14 41  1  0
 15 42  1  0
 16 43  1  0
 17 44  1  0
 17 45  1  0
 18 46  1  0
 18 47  1  0
 19 48  1  0
 22 49  1  0
 23 50  1  0
 26 51  1  0
 26 52  1  0
 26 53  1  0
M  END
>  <smiles>  (22) 
Cc1cc(=NC2CCN(Cc3ccccc3)CC2)[nH]c(-n2ccnc2C)n1

>  <score_type>  (22) 
oracle

>  <origin>  (22) 
adg

>  <m_score__min__energy>  (22) 
-9.7300000000000004

>  <m_primary>  (22) 
energy

$$$$
22:0
     RDKit          3D

 63 66  0  0  0  0  0  0  0  0999 V2000
   -9.1100   18.5720  -31.9130 C   0  0  0  0  0  0  0  0  0  0  0  0
   -8.4060   19.8980  -32.0550 C   0  0  0  0  0  0  0  0  0  0  0  0
   -9.0970   21.0900  -31.7840 C   0  0  0  0  0  0  0  0  0  0  0  0
   -8.4630   22.3300  -31.9300 C   0  0  0  0  0  0  0  0  0  0  0  0
   -7.1300   22.3920  -32.3460 C   0  0  0  0  0  0  0  0  0  0  0  0
   -6.4320   21.2140  -32.6250 C   0  0  0  0  0  0  0  0  0  0  0  0
   -7.0610   19.9650  -32.4870 C   0  0  0  0  0  0  0  0  0  0  0  0
   -6.3510   18.7750  -32.8550 N   0  0  0  0  0  0  0  0  0  0  0  0
   -5.7910   17.9280  -31.8020 C   0  0  0  0  0  0  0  0  0  0  0  0
   -5.1930   16.6310  -32.3780 C   0  0  0  0  0  0  0  0  0  0  0  0
   -4.3650   16.8560  -33.5870 N   0  0  0  0  0  0  0  0  0  0  0  0
   -2.9000   16.8350  -33.3720 C   0  0  0  0  0  0  0  0  0  0  0  0
   -2.2380   18.1820  -33.5800 C   0  0  0  0  0  0  0  0  0  0  0  0
   -1.0620   18.2890  -34.3360 C   0  0  0  0  0  0  0  0  0  0  0  0
   -0.4890   19.5380  -34.5770 C   0  0  0  0  0  0  0  0  0  0  0  0
   -1.0820   20.7060  -34.0860 C   0  0  0  0  0  0  0  0  0  0  0  0
   -0.4810   21.9220  -34.4210 O   0  0  0  0  0  0  0  0  0  0  0  0
   -2.2540   20.6100  -33.2910 C   0  0  0  0  0  0  0  0  0  0  0  0
   -3.0300   21.8060  -32.7850 C   0  0  0  0  0  0  0  0  0  0  0  0
   -2.9750   21.8390  -31.3090 N   0  0  0  0  0  0  0  0  0  0  0  0
   -1.6530   22.3020  -30.8310 C   0  0  0  0  0  0  0  0  0  0  0  0
   -1.7150   22.6460  -29.3360 C   0  0  0  0  0  0  0  0  0  0  0  0
   -2.6490   23.7680  -29.0700 N   0  0  0  0  0  0  0  0  0  0  0  0
   -3.2200   23.6630  -27.7150 C   0  0  0  0  0  0  0  0  0  0  0  0
   -3.7070   23.9220  -30.0970 C   0  0  0  0  0  0  0  0  0  0  0  0
   -4.1230   22.5690  -30.7050 C   0  0  0  0  0  0  0  0  0  0  0  0
   -2.7900   19.3390  -33.0180 C   0  0  0  0  0  0  0  0  0  0  0  0
   -4.8370   17.8830  -34.5490 C   0  0  0  0  0  0  0  0  0  0  0  0
   -6.2610   18.3640  -34.2560 C   0  0  0  0  0  0  0  0  0  0  0  0
   -9.2354   18.3358  -30.8460 H   0  0  0  0  0  0  0  0  0  0  0  0
  -10.0973   18.6276  -32.3947 H   0  0  0  0  0  0  0  0  0  0  0  0
   -8.5108   17.7853  -32.3947 H   0  0  0  0  0  0  0  0  0  0  0  0
  -10.1456   21.0493  -31.4541 H   0  0  0  0  0  0  0  0  0  0  0  0
   -9.0151   23.2572  -31.7169 H   0  0  0  0  0  0  0  0  0  0  0  0
   -6.6312   23.3665  -32.4536 H   0  0  0  0  0  0  0  0  0  0  0  0
   -5.3838   21.2647  -32.9547 H   0  0  0  0  0  0  0  0  0  0  0  0
   -4.9996   18.4847  -31.2788 H   0  0  0  0  0  0  0  0  0  0  0  0
   -6.6020   17.6562  -31.1104 H   0  0  0  0  0  0  0  0  0  0  0  0
   -4.5645   16.1629  -31.6061 H   0  0  0  0  0  0  0  0  0  0  0  0
   -6.0340   15.9863  -32.6732 H   0  0  0  0  0  0  0  0  0  0  0  0
   -2.7044   16.5067  -32.3405 H   0  0  0  0  0  0  0  0  0  0  0  0
   -2.4740   16.1472  -34.1173 H   0  0  0  0  0  0  0  0  0  0  0  0
   -0.5884   17.3828  -34.7415 H   0  0  0  0  0  0  0  0  0  0  0  0
    0.4410   19.6052  -35.1606 H   0  0  0  0  0  0  0  0  0  0  0  0
   -0.8560   22.5840  -35.0830 H   0  0  0  0  0  0  0  0  0  0  0  0
   -2.5873   22.7283  -33.1893 H   0  0  0  0  0  0  0  0  0  0  0  0
   -4.0775   21.7288  -33.1116 H   0  0  0  0  0  0  0  0  0  0  0  0
   -0.9110   21.5055  -30.9892 H   0  0  0  0  0  0  0  0  0  0  0  0
   -1.3658   23.2030  -31.3929 H   0  0  0  0  0  0  0  0  0  0  0  0
   -2.0547   21.7598  -28.7799 H   0  0  0  0  0  0  0  0  0  0  0  0
   -0.7094   22.9525  -29.0123 H   0  0  0  0  0  0  0  0  0  0  0  0
   -2.4245   23.8093  -26.9695 H   0  0  0  0  0  0  0  0  0  0  0  0
   -3.9932   24.4340  -27.5822 H   0  0  0  0  0  0  0  0  0  0  0  0
   -3.6684   22.6673  -27.5822 H   0  0  0  0  0  0  0  0  0  0  0  0
   -4.5881   24.3882  -29.6319 H   0  0  0  0  0  0  0  0  0  0  0  0
   -3.3056   24.5491  -30.9067 H   0  0  0  0  0  0  0  0  0  0  0  0
   -4.5598   21.9449  -29.9114 H   0  0  0  0  0  0  0  0  0  0  0  0
   -4.8493   22.7714  -31.5059 H   0  0  0  0  0  0  0  0  0  0  0  0
   -3.6597   19.2523  -32.3501 H   0  0  0  0  0  0  0  0  0  0  0  0
   -4.1579   18.7470  -34.5014 H   0  0  0  0  0  0  0  0  0  0  0  0
   -4.8432   17.4219  -35.5477 H   0  0  0  0  0  0  0  0  0  0  0  0
   -6.5020   19.2179  -34.9062 H   0  0  0  0  0  0  0  0  0  0  0  0
   -6.9736   17.5484  -34.4484 H   0  0  0  0  0  0  0  0  0  0  0  0
  1  2  1  0
  2  3  2  0
  3  4  1  0
  4  5  2  0
  5  6  1  0
  6  7  2  0
  7  8  1  0
  8  9  1  0
  9 10  1  0
 10 11  1  0
 11 12  1  0
 12 13  1  0
 13 14  2  0
 14 15  1  0
 15 16  2  0
 16 17  1  0
 16 18  1  0
 18 19  1  0
 19 20  1  0
 20 21  1  0
 21 22  1  0
 22 23  1  0
 23 24  1  0
 23 25  1  0
 25 26  1  0
 18 27  2  0
 11 28  1  0
 28 29  1  0
  7  2  1  0
 29  8  1  0
 27 13  1  0
 26 20  1  0
  1 30  1  0
  1 31  1  0
  1 32  1  0
  3 33  1  0
  4 34  1  0
  5 35  1  0
  6 36  1  0
  9 37  1  0
  9 38  1  0
 10 39  1  0
 10 40  1  0
 12 41  1  0
 12 42  1  0
 14 43  1  0
 15 44  1  0
 17 45  1  0
 19 46  1  0
 19 47  1  0
 21 48  1  0
 21 49  1  0
 22 50  1  0
 22 51  1  0
 24 52  1  0
 24 53  1  0
 24 54  1  0
 25 55  1  0
 25 56  1  0
 26 57  1  0
 26 58  1  0
 27 59  1  0
 28 60  1  0
 28 61  1  0
 29 62  1  0
 29 63  1  0
M  END
>  <UniqueID>  (23) 
21

>  <SMILES>  (23) 
Cc1ccccc1N1CCN(Cc2ccc(O)c(CN3CCN(C)CC3)c2)CC1

>  <Energy>  (23) 
90.38075197941225

>  <Genealogy>  (23) 
Cc1ccccc1N1CCN(Cc2ccc(O)c(CN3CCN(C)CC3)c2)CC1 (3D coordinates assigned)
Cc1ccccc1N1CCN(Cc2ccc(O)c(CN3CCN(C)CC3)c2)CC1 (nonaromatic ring conformer: 90.38075197941225 kcal/mol)

>  <smiles>  (23) 
Cc1ccccc1N1CCN(Cc2ccc(O)c(CN3CCN(C)CC3)c2)CC1

>  <score_type>  (23) 
oracle

>  <origin>  (23) 
adg

>  <m_score__min__energy>  (23) 
-10.470000000000001

>  <m_primary>  (23) 
energy

$$$$
23:0
     RDKit          3D

 49 51  0  0  0  0  0  0  0  0999 V2000
   -0.5020   23.7770  -26.9220 C   0  0  0  0  0  0  0  0  0  0  0  0
   -1.1520   23.5380  -28.2170 N   0  0  0  0  0  0  0  0  0  0  0  0
   -0.8520   22.3000  -28.9560 C   0  0  0  0  0  0  0  0  0  0  0  0
   -1.3380   21.0830  -28.2090 C   0  0  0  0  0  0  0  0  0  0  0  0
   -2.6760   20.9940  -27.7860 C   0  0  0  0  0  0  0  0  0  0  0  0
   -3.1170   19.8730  -27.0740 C   0  0  0  0  0  0  0  0  0  0  0  0
   -2.2240   18.8420  -26.7680 C   0  0  0  0  0  0  0  0  0  0  0  0
   -0.8880   18.9320  -27.1660 C   0  0  0  0  0  0  0  0  0  0  0  0
   -0.4420   20.0510  -27.8770 C   0  0  0  0  0  0  0  0  0  0  0  0
   -2.0620   24.5450  -28.7230 C   0  0  0  0  0  0  0  0  0  0  0  0
   -1.6280   25.7050  -28.9670 O   0  0  0  0  0  0  0  0  0  0  0  0
   -3.5220   24.2800  -28.9910 C   0  0  0  0  0  0  0  0  0  0  0  0
   -3.7970   24.3650  -30.4410 N   0  0  0  0  0  0  0  0  0  0  0  0
   -5.1420   24.9030  -30.7370 C   0  0  0  0  0  0  0  0  0  0  0  0
   -6.2500   23.8990  -30.4070 C   0  0  0  0  0  0  0  0  0  0  0  0
   -5.9720   22.6230  -31.0700 N   0  0  0  0  0  0  0  0  0  0  0  0
   -7.0670   21.8030  -31.5150 C   0  0  0  0  0  0  0  0  0  0  0  0
   -8.3590   21.9960  -30.9950 C   0  0  0  0  0  0  0  0  0  0  0  0
   -9.4220   21.2000  -31.4320 C   0  0  0  0  0  0  0  0  0  0  0  0
   -9.2040   20.2040  -32.3860 C   0  0  0  0  0  0  0  0  0  0  0  0
   -7.9210   20.0010  -32.9050 C   0  0  0  0  0  0  0  0  0  0  0  0
   -6.8540   20.7940  -32.4710 C   0  0  0  0  0  0  0  0  0  0  0  0
   -5.6110   20.5640  -32.9620 F   0  0  0  0  0  0  0  0  0  0  0  0
   -4.6410   22.0370  -30.9010 C   0  0  0  0  0  0  0  0  0  0  0  0
   -3.5520   23.0930  -31.1570 C   0  0  0  0  0  0  0  0  0  0  0  0
   -1.1981   23.5211  -26.1096 H   0  0  0  0  0  0  0  0  0  0  0  0
    0.3994   23.1515  -26.8432 H   0  0  0  0  0  0  0  0  0  0  0  0
   -0.2205   24.8374  -26.8432 H   0  0  0  0  0  0  0  0  0  0  0  0
   -1.3477   22.3396  -29.9372 H   0  0  0  0  0  0  0  0  0  0  0  0
    0.2389   22.2220  -29.0734 H   0  0  0  0  0  0  0  0  0  0  0  0
   -3.3786   21.8086  -28.0156 H   0  0  0  0  0  0  0  0  0  0  0  0
   -4.1673   19.8030  -26.7548 H   0  0  0  0  0  0  0  0  0  0  0  0
   -2.5737   17.9589  -26.2132 H   0  0  0  0  0  0  0  0  0  0  0  0
   -0.1858   18.1218  -26.9200 H   0  0  0  0  0  0  0  0  0  0  0  0
    0.6136   20.1241  -28.1776 H   0  0  0  0  0  0  0  0  0  0  0  0
   -3.7811   23.2737  -28.6301 H   0  0  0  0  0  0  0  0  0  0  0  0
   -4.1266   25.0339  -28.4655 H   0  0  0  0  0  0  0  0  0  0  0  0
   -5.2991   25.8134  -30.1399 H   0  0  0  0  0  0  0  0  0  0  0  0
   -5.1907   25.1188  -31.8145 H   0  0  0  0  0  0  0  0  0  0  0  0
   -6.2914   23.7444  -29.3187 H   0  0  0  0  0  0  0  0  0  0  0  0
   -7.2149   24.2913  -30.7608 H   0  0  0  0  0  0  0  0  0  0  0  0
   -8.5343   22.7771  -30.2406 H   0  0  0  0  0  0  0  0  0  0  0  0
  -10.4311   21.3585  -31.0239 H   0  0  0  0  0  0  0  0  0  0  0  0
  -10.0414   19.5789  -32.7295 H   0  0  0  0  0  0  0  0  0  0  0  0
   -7.7509   19.2157  -33.6563 H   0  0  0  0  0  0  0  0  0  0  0  0
   -4.5411   21.6553  -29.8742 H   0  0  0  0  0  0  0  0  0  0  0  0
   -4.5186   21.2167  -31.6236 H   0  0  0  0  0  0  0  0  0  0  0  0
   -2.5850   22.6859  -30.8266 H   0  0  0  0  0  0  0  0  0  0  0  0
   -3.5584   23.3164  -32.2341 H   0  0  0  0  0  0  0  0  0  0  0  0
  1  2  1  0
  2  3  1  0
  3  4  1  0
  4  5  2  0
  5  6  1  0
  6  7  2  0
  7  8  1  0
  8  9  2  0
  2 10  1  0
 10 11  2  0
 10 12  1  0
 12 13  1  0
 13 14  1  0
 14 15  1  0
 15 16  1  0
 16 17  1  0
 17 18  2  0
 18 19  1  0
 19 20  2  0
 20 21  1  0
 21 22  2  0
 22 23  1  0
 16 24  1  0
 24 25  1  0
  9  4  1  0
 25 13  1  0
 22 17  1  0
  1 26  1  0
  1 27  1  0
  1 28  1  0
  3 29  1  0
  3 30  1  0
  5 31  1  0
  6 32  1  0
  7 33  1  0
  8 34  1  0
  9 35  1  0
 12 36  1  0
 12 37  1  0
 14 38  1  0
 14 39  1  0
 15 40  1  0
 15 41  1  0
 18 42  1  0
 19 43  1  0
 20 44  1  0
 21 45  1  0
 24 46  1  0
 24 47  1  0
 25 48  1  0
 25 49  1  0
M  END
>  <UniqueID>  (24) 
22

>  <SMILES>  (24) 
CN(Cc1ccccc1)C(=O)CN1CCN(c2ccccc2F)CC1

>  <Energy>  (24) 
55.70044050819943

>  <Genealogy>  (24) 
CN(Cc1ccccc1)C(=O)CN1CCN(c2ccccc2F)CC1 (3D coordinates assigned)
CN(Cc1ccccc1)C(=O)CN1CCN(c2ccccc2F)CC1 (nonaromatic ring conformer: 55.70044050819943 kcal/mol)

>  <smiles>  (24) 
CN(Cc1ccccc1)C(=O)CN1CCN(c2ccccc2F)CC1

>  <score_type>  (24) 
oracle

>  <origin>  (24) 
adg

>  <m_score__min__energy>  (24) 
-8.6400000000000006

>  <m_primary>  (24) 
energy

$$$$
24:0
     RDKit          3D

 59 60  0  0  0  0  0  0  0  0999 V2000
   -1.2464   20.7420  -31.6703 H   0  0  0  0  0  0  0  0  0  0  0  0
   -2.1780   21.2850  -31.4530 C   0  0  0  0  0  0  0  0  0  0  0  0
   -2.2400   22.1480  -30.3580 C   0  0  0  0  0  0  0  0  0  0  0  0
   -1.3464   22.2949  -29.7336 H   0  0  0  0  0  0  0  0  0  0  0  0
   -3.4300   22.8350  -30.0390 C   0  0  0  0  0  0  0  0  0  0  0  0
   -4.5710   22.6080  -30.8380 C   0  0  0  0  0  0  0  0  0  0  0  0
   -4.4780   21.7910  -31.9790 C   0  0  0  0  0  0  0  0  0  0  0  0
   -5.3473   21.6897  -32.6454 H   0  0  0  0  0  0  0  0  0  0  0  0
   -3.2990   21.1070  -32.2780 C   0  0  0  0  0  0  0  0  0  0  0  0
   -3.2820   20.2680  -33.4030 O   0  0  0  0  0  0  0  0  0  0  0  0
   -2.5110   19.0760  -33.5050 C   0  0  0  0  0  0  0  0  0  0  0  0
   -2.2720   18.7065  -32.4969 H   0  0  0  0  0  0  0  0  0  0  0  0
   -3.0867   18.3123  -34.0485 H   0  0  0  0  0  0  0  0  0  0  0  0
   -1.5784   19.2879  -34.0485 H   0  0  0  0  0  0  0  0  0  0  0  0
   -5.8120   23.3340  -30.5150 C   0  0  0  0  0  0  0  0  0  0  0  0
   -7.0010   22.8250  -30.6950 N   0  0  0  0  0  0  0  0  0  0  0  0
   -7.7570   23.0010  -31.8380 O   0  0  0  0  0  0  0  0  0  0  0  0
   -9.0630   22.4410  -31.9570 C   0  0  0  0  0  0  0  0  0  0  0  0
   -9.6211   22.9752  -32.7400 H   0  0  0  0  0  0  0  0  0  0  0  0
   -9.5926   22.5386  -30.9978 H   0  0  0  0  0  0  0  0  0  0  0  0
   -8.9510   20.9560  -32.3310 C   0  0  0  0  0  0  0  0  0  0  0  0
   -9.2740   20.8314  -33.3751 H   0  0  0  0  0  0  0  0  0  0  0  0
   -9.5891   20.3909  -31.6356 H   0  0  0  0  0  0  0  0  0  0  0  0
   -7.5660   20.4290  -32.1960 N   0  0  0  0  0  0  0  0  0  0  0  0
   -7.0430   21.0770  -31.5610 H   0  0  0  0  0  0  0  0  0  0  0  0
   -6.8680   20.4190  -33.5090 C   0  0  0  0  0  0  0  0  0  0  0  0
   -6.1312   21.2356  -33.5228 H   0  0  0  0  0  0  0  0  0  0  0  0
   -7.6293   20.5470  -34.2926 H   0  0  0  0  0  0  0  0  0  0  0  0
   -6.1400   19.0950  -33.7790 C   0  0  0  0  0  0  0  0  0  0  0  0
   -5.8782   18.6189  -32.8226 H   0  0  0  0  0  0  0  0  0  0  0  0
   -6.7971   18.4259  -34.3540 H   0  0  0  0  0  0  0  0  0  0  0  0
   -5.2230   19.2914  -34.3540 H   0  0  0  0  0  0  0  0  0  0  0  0
   -7.5100   19.0900  -31.5470 C   0  0  0  0  0  0  0  0  0  0  0  0
   -6.7133   18.5067  -32.0317 H   0  0  0  0  0  0  0  0  0  0  0  0
   -7.3236   19.2689  -30.4778 H   0  0  0  0  0  0  0  0  0  0  0  0
   -8.8140   18.2840  -31.6330 C   0  0  0  0  0  0  0  0  0  0  0  0
   -9.1748   18.0610  -30.6181 H   0  0  0  0  0  0  0  0  0  0  0  0
   -9.5729   18.8708  -32.1713 H   0  0  0  0  0  0  0  0  0  0  0  0
   -8.6285   17.3428  -32.1713 H   0  0  0  0  0  0  0  0  0  0  0  0
   -5.6370   24.6760  -29.8460 C   0  0  0  0  0  0  0  0  0  0  0  0
   -6.9930   25.2700  -29.3900 C   0  0  0  0  0  0  0  0  0  0  0  0
   -7.0343   25.2881  -28.2909 H   0  0  0  0  0  0  0  0  0  0  0  0
   -7.0934   26.2945  -29.7776 H   0  0  0  0  0  0  0  0  0  0  0  0
   -7.8142   24.6492  -29.7776 H   0  0  0  0  0  0  0  0  0  0  0  0
   -5.0040   25.6800  -30.8340 C   0  0  0  0  0  0  0  0  0  0  0  0
   -4.4998   26.4796  -30.2715 H   0  0  0  0  0  0  0  0  0  0  0  0
   -4.2709   25.1587  -31.4671 H   0  0  0  0  0  0  0  0  0  0  0  0
   -5.7904   26.1168  -31.4671 H   0  0  0  0  0  0  0  0  0  0  0  0
   -4.7800   24.4990  -28.6500 N   0  0  0  0  0  0  0  0  0  0  0  0
   -5.3540   24.0170  -27.9170 H   0  0  0  0  0  0  0  0  0  0  0  0
   -3.4760   23.7810  -28.8210 C   0  0  0  0  0  0  0  0  0  0  0  0
   -3.2040   22.9390  -27.5490 C   0  0  0  0  0  0  0  0  0  0  0  0
   -3.4013   23.5499  -26.6558 H   0  0  0  0  0  0  0  0  0  0  0  0
   -3.8634   22.0586  -27.5441 H   0  0  0  0  0  0  0  0  0  0  0  0
   -2.1541   22.6108  -27.5441 H   0  0  0  0  0  0  0  0  0  0  0  0
   -2.3630   24.8470  -28.9260 C   0  0  0  0  0  0  0  0  0  0  0  0
   -2.0479   25.1488  -27.9162 H   0  0  0  0  0  0  0  0  0  0  0  0
   -1.5030   24.4270  -29.4683 H   0  0  0  0  0  0  0  0  0  0  0  0
   -2.7455   25.7243  -29.4683 H   0  0  0  0  0  0  0  0  0  0  0  0
  1  2  1  0
  2  3  2  0
  3  4  1  0
  3  5  1  0
  5  6  2  0
  6  7  1  0
  7  8  1  0
  7  9  2  0
  9 10  1  0
 10 11  1  0
 11 12  1  0
 11 13  1  0
 11 14  1  0
  6 15  1  0
 15 16  2  0
 16 17  1  0
 17 18  1  0
 18 19  1  0
 18 20  1  0
 18 21  1  0
 21 22  1  0
 21 23  1  0
 21 24  1  0
 24 25  1  0
 24 26  1  0
 26 27  1  0
 26 28  1  0
 26 29  1  0
 29 30  1  0
 29 31  1  0
 29 32  1  0
 24 33  1  0
 33 34  1  0
 33 35  1  0
 33 36  1  0
 36 37  1  0
 36 38  1  0
 36 39  1  0
 15 40  1  0
 40 41  1  0
 41 42  1  0
 41 43  1  0
 41 44  1  0
 40 45  1  0
 45 46  1  0
 45 47  1  0
 45 48  1  0
 40 49  1  0
 49 50  1  0
 49 51  1  0
 51 52  1  0
 52 53  1  0
 52 54  1  0
 52 55  1  0
 51 56  1  0
 56 57  1  0
 56 58  1  0
 56 59  1  0
  9  2  1  0
 51  5  1  0
M  CHG  1  24   1
M  END
>  <UniqueID>  (25) 
23

>  <SMILES>  (25) 
CC[NH+](CC)CCO/N=C1\c2cc(OC)ccc2C(C)(C)NC1(C)C

>  <Energy>  (25) 
78.11044447134

>  <Genealogy>  (25) 
CC[NH+](CC)CCON=C1c2cc(OC)ccc2C(C)(C)NC1(C)C (protonated)
CC[NH+](CC)CCO/N=C1\c2cc(OC)ccc2C(C)(C)NC1(C)C (cis-trans isomerization)
CC[NH+](CC)CCO/N=C1\c2cc(OC)ccc2C(C)(C)NC1(C)C (3D coordinates assigned)
CC[NH+](CC)CCO/N=C1\c2cc(OC)ccc2C(C)(C)NC1(C)C (nonaromatic ring conformer: 78.11044447134 kcal/mol)

>  <smiles>  (25) 
CCN(CC)CCON=C1c2cc(OC)ccc2C(C)(C)NC1(C)C

>  <score_type>  (25) 
oracle

>  <origin>  (25) 
adg

>  <m_score__min__energy>  (25) 
-7.5300000000000002

>  <m_primary>  (25) 
energy

$$$$
25:0
     RDKit          3D

 41 43  0  0  0  0  0  0  0  0999 V2000
   -3.7300   21.0600  -33.4430 C   0  0  0  0  0  0  0  0  0  0  0  0
   -4.9510   21.0000  -32.7140 O   0  0  0  0  0  0  0  0  0  0  0  0
   -5.8250   19.9000  -32.7110 C   0  0  0  0  0  0  0  0  0  0  0  0
   -5.4480   18.6500  -33.2420 C   0  0  0  0  0  0  0  0  0  0  0  0
   -6.3420   17.5760  -33.2260 C   0  0  0  0  0  0  0  0  0  0  0  0
   -7.6180   17.7350  -32.6850 C   0  0  0  0  0  0  0  0  0  0  0  0
   -8.0050   18.9680  -32.1560 C   0  0  0  0  0  0  0  0  0  0  0  0
   -7.1160   20.0550  -32.1630 C   0  0  0  0  0  0  0  0  0  0  0  0
   -7.5560   21.3860  -31.6020 C   0  0  0  0  0  0  0  0  0  0  0  0
   -7.3320   22.4660  -32.5770 N   0  0  0  0  0  0  0  0  0  0  0  0
   -7.2270   23.7930  -31.9470 C   0  0  0  0  0  0  0  0  0  0  0  0
   -5.8810   24.0110  -31.3160 C   0  0  0  0  0  0  0  0  0  0  0  0
   -5.3380   25.2200  -30.9350 C   0  0  0  0  0  0  0  0  0  0  0  0
   -4.1360   24.9850  -30.4590 O   0  0  0  0  0  0  0  0  0  0  0  0
   -3.9230   23.6890  -30.5490 C   0  0  0  0  0  0  0  0  0  0  0  0
   -2.6810   23.0350  -30.0920 C   0  0  0  0  0  0  0  0  0  0  0  0
   -1.9940   22.2040  -30.9920 C   0  0  0  0  0  0  0  0  0  0  0  0
   -0.8030   21.5790  -30.6130 C   0  0  0  0  0  0  0  0  0  0  0  0
   -0.2930   21.7680  -29.3280 C   0  0  0  0  0  0  0  0  0  0  0  0
   -0.9790   22.5710  -28.4150 C   0  0  0  0  0  0  0  0  0  0  0  0
   -2.1740   23.2020  -28.7820 C   0  0  0  0  0  0  0  0  0  0  0  0
   -3.1160   24.1750  -27.4220 Br  0  0  0  0  0  0  0  0  0  0  0  0
   -4.9850   23.0400  -31.0700 N   0  0  0  0  0  0  0  0  0  0  0  0
   -2.8849   21.1015  -32.7401 H   0  0  0  0  0  0  0  0  0  0  0  0
   -3.6366   20.1654  -34.0762 H   0  0  0  0  0  0  0  0  0  0  0  0
   -3.7248   21.9595  -34.0762 H   0  0  0  0  0  0  0  0  0  0  0  0
   -4.4439   18.5190  -33.6717 H   0  0  0  0  0  0  0  0  0  0  0  0
   -6.0390   16.6033  -33.6408 H   0  0  0  0  0  0  0  0  0  0  0  0
   -8.3200   16.8882  -32.6751 H   0  0  0  0  0  0  0  0  0  0  0  0
   -9.0125   19.0886  -31.7312 H   0  0  0  0  0  0  0  0  0  0  0  0
   -8.6274   21.3376  -31.3578 H   0  0  0  0  0  0  0  0  0  0  0  0
   -6.9657   21.5995  -30.6987 H   0  0  0  0  0  0  0  0  0  0  0  0
   -6.4470   22.2650  -33.0990 H   0  0  0  0  0  0  0  0  0  0  0  0
   -7.3887   24.5643  -32.7144 H   0  0  0  0  0  0  0  0  0  0  0  0
   -7.9878   23.8545  -31.1549 H   0  0  0  0  0  0  0  0  0  0  0  0
   -5.8236   26.2038  -31.0151 H   0  0  0  0  0  0  0  0  0  0  0  0
   -2.3966   22.0439  -32.0031 H   0  0  0  0  0  0  0  0  0  0  0  0
   -0.2672   20.9376  -31.3282 H   0  0  0  0  0  0  0  0  0  0  0  0
    0.6501   21.2840  -29.0342 H   0  0  0  0  0  0  0  0  0  0  0  0
   -0.5779   22.7090  -27.4001 H   0  0  0  0  0  0  0  0  0  0  0  0
   -5.1090   22.0140  -31.2140 H   0  0  0  0  0  0  0  0  0  0  0  0
  1  2  1  0
  2  3  1  0
  3  4  2  0
  4  5  1  0
  5  6  2  0
  6  7  1  0
  7  8  2  0
  8  9  1  0
  9 10  1  0
 10 11  1  0
 11 12  1  0
 12 13  2  0
 13 14  1  0
 14 15  1  0
 15 16  1  0
 16 17  2  0
 17 18  1  0
 18 19  2  0
 19 20  1  0
 20 21  2  0
 21 22  1  0
 15 23  2  0
  8  3  1  0
 23 12  1  0
 21 16  1  0
  1 24  1  0
  1 25  1  0
  1 26  1  0
  4 27  1  0
  5 28  1  0
  6 29  1  0
  7 30  1  0
  9 31  1  0
  9 32  1  0
 10 33  1  0
 11 34  1  0
 11 35  1  0
 13 36  1  0
 17 37  1  0
 18 38  1  0
 19 39  1  0
 20 40  1  0
 23 41  1  0
M  CHG  1  23   1
M  END
>  <UniqueID>  (26) 
24

>  <SMILES>  (26) 
COc1ccccc1CNCc1coc(-c2ccccc2Br)[nH+]1

>  <Energy>  (26) 
77.91203460795393

>  <Genealogy>  (26) 
COc1ccccc1CNCc1coc(-c2ccccc2Br)[nH+]1 (protonated)
COc1ccccc1CNCc1coc(-c2ccccc2Br)[nH+]1 (3D coordinates assigned)
COc1ccccc1CNCc1coc(-c2ccccc2Br)[nH+]1 (optimized conformer: 77.91203460795393 kcal/mol)

>  <smiles>  (26) 
COc1ccccc1CNCc1coc(-c2ccccc2Br)n1

>  <score_type>  (26) 
oracle

>  <origin>  (26) 
adg

>  <m_score__min__energy>  (26) 
-8.9299999999999997

>  <m_primary>  (26) 
energy

$$$$
26:0
     RDKit          3D

 28 29  0  0  0  0  0  0  0  0999 V2000
   -9.0990   18.5720  -31.5240 C   0  0  0  0  0  0  0  0  0  0  0  0
   -7.8420   19.0230  -32.1970 C   0  0  0  0  0  0  0  0  0  0  0  0
   -7.2390   18.2290  -33.1760 C   0  0  0  0  0  0  0  0  0  0  0  0
   -6.0590   18.6850  -33.7710 C   0  0  0  0  0  0  0  0  0  0  0  0
   -5.3720   17.8650  -34.8160 C   0  0  0  0  0  0  0  0  0  0  0  0
   -5.5260   19.8730  -33.3830 N   0  0  0  0  0  0  0  0  0  0  0  0
   -6.1210   20.6400  -32.4280 C   0  0  0  0  0  0  0  0  0  0  0  0
   -5.5250   21.8920  -32.0270 N   0  0  0  0  0  0  0  0  0  0  0  0
   -4.0630   22.0050  -31.8960 C   0  0  0  0  0  0  0  0  0  0  0  0
   -3.6750   22.9300  -30.7360 C   0  0  0  0  0  0  0  0  0  0  0  0
   -4.3960   24.2390  -30.8410 C   0  0  0  0  0  0  0  0  0  0  0  0
   -3.8600   25.2910  -30.4010 O   0  0  0  0  0  0  0  0  0  0  0  0
   -5.7200   24.2820  -31.3760 N   0  0  0  0  0  0  0  0  0  0  0  0
   -6.3110   23.0980  -31.9160 C   0  0  0  0  0  0  0  0  0  0  0  0
   -7.5070   23.1300  -32.3120 O   0  0  0  0  0  0  0  0  0  0  0  0
   -7.2700   20.2030  -31.8430 N   0  0  0  0  0  0  0  0  0  0  0  0
   -8.9679   18.6190  -30.4329 H   0  0  0  0  0  0  0  0  0  0  0  0
   -9.9302   19.2280  -31.8221 H   0  0  0  0  0  0  0  0  0  0  0  0
   -9.3235   17.5372  -31.8221 H   0  0  0  0  0  0  0  0  0  0  0  0
   -7.6827   17.2669  -33.4718 H   0  0  0  0  0  0  0  0  0  0  0  0
   -4.7382   17.1084  -34.3304 H   0  0  0  0  0  0  0  0  0  0  0  0
   -6.1247   17.3649  -35.4432 H   0  0  0  0  0  0  0  0  0  0  0  0
   -4.7478   18.5185  -35.4432 H   0  0  0  0  0  0  0  0  0  0  0  0
   -3.6418   21.0055  -31.7130 H   0  0  0  0  0  0  0  0  0  0  0  0
   -3.6639   22.4322  -32.8278 H   0  0  0  0  0  0  0  0  0  0  0  0
   -3.9401   22.4467  -29.7841 H   0  0  0  0  0  0  0  0  0  0  0  0
   -2.5919   23.1174  -30.7792 H   0  0  0  0  0  0  0  0  0  0  0  0
   -6.2580   25.1780  -31.3680 H   0  0  0  0  0  0  0  0  0  0  0  0
  1  2  1  0
  2  3  2  0
  3  4  1  0
  4  5  1  0
  4  6  2  0
  6  7  1  0
  7  8  1  0
  8  9  1  0
  9 10  1  0
 10 11  1  0
 11 12  2  0
 11 13  1  0
 13 14  1  0
 14 15  2  0
  7 16  2  0
 16  2  1  0
 14  8  1  0
  1 17  1  0
  1 18  1  0
  1 19  1  0
  3 20  1  0
  5 21  1  0
  5 22  1  0
  5 23  1  0
  9 24  1  0
  9 25  1  0
 10 26  1  0
 10 27  1  0
 13 28  1  0
M  END
>  <UniqueID>  (27) 
25

>  <SMILES>  (27) 
Cc1cc(C)nc(N2CCC(=O)NC2=O)n1

>  <Energy>  (27) 
26.108507853513412

>  <Genealogy>  (27) 
Cc1cc(C)nc(N2CCC(=O)NC2=O)n1 (3D coordinates assigned)
Cc1cc(C)nc(N2CCC(=O)NC2=O)n1 (nonaromatic ring conformer: 26.108507853513412 kcal/mol)

>  <smiles>  (27) 
Cc1cc(C)nc(N2CCC(=O)NC2=O)n1

>  <score_type>  (27) 
oracle

>  <origin>  (27) 
adg

>  <m_score__min__energy>  (27) 
-6.6100000000000003

>  <m_primary>  (27) 
energy

$$$$
27:0
     RDKit          3D

 66 69  0  0  0  0  0  0  0  0999 V2000
   -8.8938   23.9573  -32.0428 H   0  0  0  0  0  0  0  0  0  0  0  0
   -8.1460   23.2120  -31.7340 C   0  0  0  0  0  0  0  0  0  0  0  0
   -8.4690   21.9150  -31.8540 C   0  0  0  0  0  0  0  0  0  0  0  0
   -9.2757   21.6512  -32.5537 H   0  0  0  0  0  0  0  0  0  0  0  0
   -7.8000   20.7890  -31.0930 C   0  0  0  0  0  0  0  0  0  0  0  0
   -6.7733   21.0927  -30.8406 H   0  0  0  0  0  0  0  0  0  0  0  0
   -8.3930   20.5936  -30.1873 H   0  0  0  0  0  0  0  0  0  0  0  0
   -7.7470   19.5350  -31.8830 N   0  0  1  0  0  0  0  0  0  0  0  0
   -7.1780   18.8340  -31.3520 H   0  0  0  0  0  0  0  0  0  0  0  0
   -9.1150   18.9980  -32.0230 C   0  0  0  0  0  0  0  0  0  0  0  0
   -9.5463   18.8287  -31.0254 H   0  0  0  0  0  0  0  0  0  0  0  0
   -9.7372   19.7186  -32.5740 H   0  0  0  0  0  0  0  0  0  0  0  0
   -9.0808   18.0466  -32.5740 H   0  0  0  0  0  0  0  0  0  0  0  0
   -7.1160   19.7700  -33.2090 C   0  0  0  0  0  0  0  0  0  0  0  0
   -7.9018   19.7663  -33.9788 H   0  0  0  0  0  0  0  0  0  0  0  0
   -6.5968   20.7387  -33.1640 H   0  0  0  0  0  0  0  0  0  0  0  0
   -6.0820   18.7080  -33.5620 C   0  0  0  0  0  0  0  0  0  0  0  0
   -6.5610   17.4100  -33.8270 C   0  0  0  0  0  0  0  0  0  0  0  0
   -7.6404   17.2089  -33.7598 H   0  0  0  0  0  0  0  0  0  0  0  0
   -5.6950   16.3780  -34.1720 C   0  0  0  0  0  0  0  0  0  0  0  0
   -6.0945   15.3757  -34.3863 H   0  0  0  0  0  0  0  0  0  0  0  0
   -4.3250   16.6090  -34.2470 C   0  0  0  0  0  0  0  0  0  0  0  0
   -3.6450   15.7851  -34.5092 H   0  0  0  0  0  0  0  0  0  0  0  0
   -3.8060   17.8870  -33.9900 C   0  0  0  0  0  0  0  0  0  0  0  0
   -2.4200   18.1000  -34.0660 C   0  0  0  0  0  0  0  0  0  0  0  0
   -1.7508   17.2645  -34.3192 H   0  0  0  0  0  0  0  0  0  0  0  0
   -1.8880   19.3660  -33.8220 C   0  0  0  0  0  0  0  0  0  0  0  0
   -0.8000   19.5218  -33.8659 H   0  0  0  0  0  0  0  0  0  0  0  0
   -2.7310   20.4330  -33.5230 C   0  0  0  0  0  0  0  0  0  0  0  0
   -2.3062   21.4303  -33.3361 H   0  0  0  0  0  0  0  0  0  0  0  0
   -4.1160   20.2430  -33.4590 C   0  0  0  0  0  0  0  0  0  0  0  0
   -4.7726   21.0994  -33.2459 H   0  0  0  0  0  0  0  0  0  0  0  0
   -4.6820   18.9630  -33.6650 C   0  0  0  0  0  0  0  0  0  0  0  0
   -6.8560   23.7060  -31.2160 C   0  0  0  0  0  0  0  0  0  0  0  0
   -6.7920   24.8540  -30.4170 C   0  0  0  0  0  0  0  0  0  0  0  0
   -7.7115   25.4112  -30.1843 H   0  0  0  0  0  0  0  0  0  0  0  0
   -5.5680   25.2940  -29.9150 C   0  0  0  0  0  0  0  0  0  0  0  0
   -5.5308   26.1898  -29.2777 H   0  0  0  0  0  0  0  0  0  0  0  0
   -4.3800   24.6030  -30.2160 C   0  0  0  0  0  0  0  0  0  0  0  0
   -3.1410   25.0040  -29.6890 O   0  0  0  0  0  0  0  0  0  0  0  0
   -2.6090   24.5610  -28.4450 C   0  0  0  0  0  0  0  0  0  0  0  0
   -3.1684   25.0268  -27.6203 H   0  0  0  0  0  0  0  0  0  0  0  0
   -2.6985   23.4668  -28.3768 H   0  0  0  0  0  0  0  0  0  0  0  0
   -1.5491   24.8471  -28.3768 H   0  0  0  0  0  0  0  0  0  0  0  0
   -4.4340   23.4730  -31.0610 C   0  0  0  0  0  0  0  0  0  0  0  0
   -3.1750   22.6930  -31.3970 C   0  0  0  0  0  0  0  0  0  0  0  0
   -3.4408   21.9007  -32.1122 H   0  0  0  0  0  0  0  0  0  0  0  0
   -2.4561   23.4163  -31.8093 H   0  0  0  0  0  0  0  0  0  0  0  0
   -2.5200   22.0620  -30.2270 N   0  0  0  0  0  0  0  0  0  0  0  0
   -3.4440   21.2730  -29.3820 C   0  0  0  0  0  0  0  0  0  0  0  0
   -4.1761   21.9554  -28.9255 H   0  0  0  0  0  0  0  0  0  0  0  0
   -3.9361   20.5285  -30.0251 H   0  0  0  0  0  0  0  0  0  0  0  0
   -2.7040   20.5120  -28.2570 C   0  0  0  0  0  0  0  0  0  0  0  0
   -3.2799   20.6092  -27.3249 H   0  0  0  0  0  0  0  0  0  0  0  0
   -2.6140   19.4592  -28.5628 H   0  0  0  0  0  0  0  0  0  0  0  0
   -1.2910   21.0580  -28.0240 C   0  0  0  0  0  0  0  0  0  0  0  0
   -1.3662   22.0856  -27.6388 H   0  0  0  0  0  0  0  0  0  0  0  0
   -0.7864   20.3990  -27.3022 H   0  0  0  0  0  0  0  0  0  0  0  0
   -0.4570   21.0720  -29.3210 C   0  0  0  0  0  0  0  0  0  0  0  0
    0.2808   21.8853  -29.2562 H   0  0  0  0  0  0  0  0  0  0  0  0
    0.0281   20.0892  -29.4147 H   0  0  0  0  0  0  0  0  0  0  0  0
   -1.3170   21.2870  -30.5770 C   0  0  0  0  0  0  0  0  0  0  0  0
   -0.7337   21.8371  -31.3301 H   0  0  0  0  0  0  0  0  0  0  0  0
   -1.6179   20.3106  -30.9846 H   0  0  0  0  0  0  0  0  0  0  0  0
   -5.6730   23.0500  -31.5740 C   0  0  0  0  0  0  0  0  0  0  0  0
   -5.7127   22.1943  -32.2641 H   0  0  0  0  0  0  0  0  0  0  0  0
  1  2  1  0
  2  3  2  0
  3  4  1  0
  3  5  1  0
  5  6  1  0
  5  7  1  0
  5  8  1  0
  8  9  1  1
  8 10  1  0
 10 11  1  0
 10 12  1  0
 10 13  1  0
  8 14  1  0
 14 15  1  0
 14 16  1  0
 14 17  1  0
 17 18  2  0
 18 19  1  0
 18 20  1  0
 20 21  1  0
 20 22  2  0
 22 23  1  0
 22 24  1  0
 24 25  2  0
 25 26  1  0
 25 27  1  0
 27 28  1  0
 27 29  2  0
 29 30  1  0
 29 31  1  0
 31 32  1  0
 31 33  2  0
  2 34  1  0
 34 35  2  0
 35 36  1  0
 35 37  1  0
 37 38  1  0
 37 39  2  0
 39 40  1  0
 40 41  1  0
 41 42  1  0
 41 43  1  0
 41 44  1  0
 39 45  1  0
 45 46  1  0
 46 47  1  0
 46 48  1  0
 46 49  1  0
 49 50  1  0
 50 51  1  0
 50 52  1  0
 50 53  1  0
 53 54  1  0
 53 55  1  0
 53 56  1  0
 56 57  1  0
 56 58  1  0
 56 59  1  0
 59 60  1  0
 59 61  1  0
 59 62  1  0
 62 63  1  0
 62 64  1  0
 45 65  2  0
 65 66  1  0
 33 17  1  0
 65 34  1  0
 33 24  1  0
 62 49  1  0
M  CHG  1   8   1
M  END
>  <UniqueID>  (28) 
26

>  <SMILES>  (28) 
COc1ccc(/C=C\C[N@@H+](C)Cc2cccc3ccccc23)cc1CN1CCCCC1

>  <Energy>  (28) 
92.94147660016779

>  <Genealogy>  (28) 
COc1ccc(C=CC[NH+](C)Cc2cccc3ccccc23)cc1CN1CCCCC1 (protonated)
COc1ccc(C=CC[N@@H+](C)Cc2cccc3ccccc23)cc1CN1CCCCC1 (chirality)
COc1ccc(/C=C\C[N@@H+](C)Cc2cccc3ccccc23)cc1CN1CCCCC1 (cis-trans isomerization)
COc1ccc(/C=C\C[N@@H+](C)Cc2cccc3ccccc23)cc1CN1CCCCC1 (3D coordinates assigned)
COc1ccc(/C=C\C[N@@H+](C)Cc2cccc3ccccc23)cc1CN1CCCCC1 (nonaromatic ring conformer: 92.94147660016779 kcal/mol)

>  <smiles>  (28) 
COc1ccc(C=CCN(C)Cc2cccc3ccccc23)cc1CN1CCCCC1

>  <score_type>  (28) 
oracle

>  <origin>  (28) 
adg

>  <m_score__min__energy>  (28) 
-9.8300000000000001

>  <m_primary>  (28) 
energy

$$$$
28:0
     RDKit          3D

 36 37  0  0  0  0  0  0  0  0999 V2000
   -6.5080   16.4330  -33.7760 C   0  0  0  0  0  0  0  0  0  0  0  0
   -6.8370   17.0440  -32.7910 C   0  0  0  0  0  0  0  0  0  0  0  0
   -7.2380   17.7890  -31.5900 C   0  0  0  0  0  0  0  0  0  0  0  0
   -8.3300   18.8170  -31.9060 C   0  0  0  0  0  0  0  0  0  0  0  0
   -7.9900   19.7540  -33.0820 C   0  0  0  0  0  0  0  0  0  0  0  0
   -7.0070   20.7980  -32.6930 N   0  0  0  0  0  0  0  0  0  0  0  0
   -7.4910   21.9290  -32.0710 C   0  0  0  0  0  0  0  0  0  0  0  0
   -8.7330   22.0400  -31.8560 O   0  0  0  0  0  0  0  0  0  0  0  0
   -6.6520   22.9430  -31.6810 N   0  0  0  0  0  0  0  0  0  0  0  0
   -7.1930   24.1570  -31.0310 C   0  0  0  0  0  0  0  0  0  0  0  0
   -6.4780   24.4310  -29.7370 C   0  0  0  0  0  0  0  0  0  0  0  0
   -6.1350   25.6700  -29.3710 C   0  0  0  0  0  0  0  0  0  0  0  0
   -5.3100   22.8540  -31.9200 C   0  0  0  0  0  0  0  0  0  0  0  0
   -4.5440   23.8010  -31.5810 O   0  0  0  0  0  0  0  0  0  0  0  0
   -4.7750   21.7200  -32.5410 C   0  0  0  0  0  0  0  0  0  0  0  0
   -3.3900   21.6150  -32.7800 C   0  0  0  0  0  0  0  0  0  0  0  0
   -2.8610   20.4810  -33.3890 C   0  0  0  0  0  0  0  0  0  0  0  0
   -3.7010   19.4400  -33.7640 C   0  0  0  0  0  0  0  0  0  0  0  0
   -5.0760   19.5270  -33.5390 C   0  0  0  0  0  0  0  0  0  0  0  0
   -5.6490   20.6720  -32.9250 C   0  0  0  0  0  0  0  0  0  0  0  0
   -6.2076   15.8752  -34.6752 H   0  0  0  0  0  0  0  0  0  0  0  0
   -7.6202   17.0803  -30.8406 H   0  0  0  0  0  0  0  0  0  0  0  0
   -6.3580   18.3265  -31.2071 H   0  0  0  0  0  0  0  0  0  0  0  0
   -9.2545   18.2744  -32.1526 H   0  0  0  0  0  0  0  0  0  0  0  0
   -8.4357   19.4522  -31.0142 H   0  0  0  0  0  0  0  0  0  0  0  0
   -7.5672   19.1557  -33.9025 H   0  0  0  0  0  0  0  0  0  0  0  0
   -8.9164   20.2580  -33.3948 H   0  0  0  0  0  0  0  0  0  0  0  0
   -7.0617   25.0164  -31.7050 H   0  0  0  0  0  0  0  0  0  0  0  0
   -8.2605   23.9982  -30.8183 H   0  0  0  0  0  0  0  0  0  0  0  0
   -6.2305   23.5892  -29.0736 H   0  0  0  0  0  0  0  0  0  0  0  0
   -5.6124   25.8371  -28.4176 H   0  0  0  0  0  0  0  0  0  0  0  0
   -6.3753   26.5226  -30.0232 H   0  0  0  0  0  0  0  0  0  0  0  0
   -2.7215   22.4364  -32.4826 H   0  0  0  0  0  0  0  0  0  0  0  0
   -1.7789   20.4090  -33.5732 H   0  0  0  0  0  0  0  0  0  0  0  0
   -3.2804   18.5423  -34.2408 H   0  0  0  0  0  0  0  0  0  0  0  0
   -5.7270   18.6939  -33.8427 H   0  0  0  0  0  0  0  0  0  0  0  0
  1  2  3  0
  2  3  1  0
  3  4  1  0
  4  5  1  0
  5  6  1  0
  6  7  1  0
  7  8  2  0
  7  9  1  0
  9 10  1  0
 10 11  1  0
 11 12  2  0
  9 13  1  0
 13 14  2  0
 13 15  1  0
 15 16  2  0
 16 17  1  0
 17 18  2  0
 18 19  1  0
 19 20  2  0
 20  6  1  0
 20 15  1  0
  1 21  1  0
  3 22  1  0
  3 23  1  0
  4 24  1  0
  4 25  1  0
  5 26  1  0
  5 27  1  0
 10 28  1  0
 10 29  1  0
 11 30  1  0
 12 31  1  0
 12 32  1  0
 16 33  1  0
 17 34  1  0
 18 35  1  0
 19 36  1  0
M  END
>  <UniqueID>  (29) 
27

>  <SMILES>  (29) 
C#CCCCn1c(=O)n(CC=C)c(=O)c2ccccc21

>  <Energy>  (29) 
45.08557230968369

>  <Genealogy>  (29) 
C#CCCCn1c(=O)n(CC=C)c(=O)c2ccccc21 (3D coordinates assigned)
C#CCCCn1c(=O)n(CC=C)c(=O)c2ccccc21 (optimized conformer: 45.08557230968369 kcal/mol)

>  <smiles>  (29) 
C#CCCCn1c(=O)n(CC=C)c(=O)c2ccccc21

>  <score_type>  (29) 
oracle

>  <origin>  (29) 
adg

>  <m_score__min__energy>  (29) 
-7.0199999999999996

>  <m_primary>  (29) 
energy

$$$$
29:0
     RDKit          3D

 50 52  0  0  0  0  0  0  0  0999 V2000
   -4.2300   22.7970  -28.4590 C   0  0  0  0  0  0  0  0  0  0  0  0
   -4.4940   24.2970  -28.4280 C   0  0  0  0  0  0  0  0  0  0  0  0
   -5.0360   24.8880  -30.0230 S   0  0  0  0  0  0  0  0  0  0  0  0
   -6.0760   25.9570  -29.8320 O   0  0  0  0  0  0  0  0  0  0  0  0
   -3.8700   25.4810  -30.7650 O   0  0  0  0  0  0  0  0  0  0  0  0
   -5.7320   23.5620  -30.9510 C   0  0  0  0  0  0  0  0  0  0  0  0
   -4.9660   22.8880  -31.9090 C   0  0  0  0  0  0  0  0  0  0  0  0
   -5.5140   21.8170  -32.6190 C   0  0  0  0  0  0  0  0  0  0  0  0
   -6.8360   21.4040  -32.3780 C   0  0  0  0  0  0  0  0  0  0  0  0
   -7.6090   22.0870  -31.4230 C   0  0  0  0  0  0  0  0  0  0  0  0
   -7.0460   23.1520  -30.7020 C   0  0  0  0  0  0  0  0  0  0  0  0
   -9.0000   21.6280  -31.0970 C   0  0  0  0  0  0  0  0  0  0  0  0
   -9.6530   20.8580  -32.2590 C   0  0  0  0  0  0  0  0  0  0  0  0
   -8.7840   19.8290  -32.8870 N   0  0  2  0  0  0  0  0  0  0  0  0
   -8.8370   18.4960  -32.2360 C   0  0  0  0  0  0  0  0  0  0  0  0
   -7.4960   17.7400  -32.1910 C   0  0  0  0  0  0  0  0  0  0  0  0
   -7.1600   17.2430  -33.4870 O   0  0  0  0  0  0  0  0  0  0  0  0
   -6.1760   16.2780  -33.7690 C   0  0  0  0  0  0  0  0  0  0  0  0
   -6.5020   14.9650  -34.1680 C   0  0  0  0  0  0  0  0  0  0  0  0
   -5.4930   14.0380  -34.4390 C   0  0  0  0  0  0  0  0  0  0  0  0
   -4.1530   14.4030  -34.3140 C   0  0  0  0  0  0  0  0  0  0  0  0
   -3.8150   15.6970  -33.9150 C   0  0  0  0  0  0  0  0  0  0  0  0
   -4.8200   16.6390  -33.6380 C   0  0  0  0  0  0  0  0  0  0  0  0
   -4.4480   18.0330  -33.2130 C   0  0  0  0  0  0  0  0  0  0  0  0
   -7.4250   20.2690  -33.1240 C   0  0  0  0  0  0  0  0  0  0  0  0
   -6.7250   19.6620  -33.9810 O   0  0  0  0  0  0  0  0  0  0  0  0
   -4.1628   22.4152  -27.4296 H   0  0  0  0  0  0  0  0  0  0  0  0
   -5.0528   22.2907  -28.9849 H   0  0  0  0  0  0  0  0  0  0  0  0
   -3.2837   22.6020  -28.9849 H   0  0  0  0  0  0  0  0  0  0  0  0
   -5.2744   24.5090  -27.6823 H   0  0  0  0  0  0  0  0  0  0  0  0
   -3.5577   24.8109  -28.1650 H   0  0  0  0  0  0  0  0  0  0  0  0
   -3.9299   23.2024  -32.1033 H   0  0  0  0  0  0  0  0  0  0  0  0
   -4.9068   21.2931  -33.3719 H   0  0  0  0  0  0  0  0  0  0  0  0
   -7.6428   23.6680  -29.9354 H   0  0  0  0  0  0  0  0  0  0  0  0
   -8.9572   20.9694  -30.2170 H   0  0  0  0  0  0  0  0  0  0  0  0
   -9.6106   22.5221  -30.9029 H   0  0  0  0  0  0  0  0  0  0  0  0
  -10.5542   20.3576  -31.8751 H   0  0  0  0  0  0  0  0  0  0  0  0
   -9.8706   21.6006  -33.0408 H   0  0  0  0  0  0  0  0  0  0  0  0
   -9.1950   19.6760  -33.8400 H   0  0  0  0  0  0  0  0  0  0  0  0
   -9.1853   18.6349  -31.2019 H   0  0  0  0  0  0  0  0  0  0  0  0
   -9.5156   17.8823  -32.8467 H   0  0  0  0  0  0  0  0  0  0  0  0
   -6.7055   18.4244  -31.8493 H   0  0  0  0  0  0  0  0  0  0  0  0
   -7.5882   16.8917  -31.4968 H   0  0  0  0  0  0  0  0  0  0  0  0
   -7.5570   14.6694  -34.2663 H   0  0  0  0  0  0  0  0  0  0  0  0
   -5.7562   13.0169  -34.7520 H   0  0  0  0  0  0  0  0  0  0  0  0
   -3.3615   13.6703  -34.5301 H   0  0  0  0  0  0  0  0  0  0  0  0
   -2.7568   15.9807  -33.8169 H   0  0  0  0  0  0  0  0  0  0  0  0
   -4.4329   18.0897  -32.1146 H   0  0  0  0  0  0  0  0  0  0  0  0
   -3.4518   18.2828  -33.6068 H   0  0  0  0  0  0  0  0  0  0  0  0
   -5.1873   18.7460  -33.6068 H   0  0  0  0  0  0  0  0  0  0  0  0
  1  2  1  0
  2  3  1  0
  3  4  2  0
  3  5  2  0
  3  6  1  0
  6  7  2  0
  7  8  1  0
  8  9  2  0
  9 10  1  0
 10 11  2  0
 10 12  1  0
 12 13  1  0
 13 14  1  0
 14 15  1  0
 15 16  1  0
 16 17  1  0
 17 18  1  0
 18 19  2  0
 19 20  1  0
 20 21  2  0
 21 22  1  0
 22 23  2  0
 23 24  1  0
 14 25  1  0
 25 26  2  0
 11  6  1  0
 23 18  1  0
 25  9  1  0
  1 27  1  0
  1 28  1  0
  1 29  1  0
  2 30  1  0
  2 31  1  0
  7 32  1  0
  8 33  1  0
 11 34  1  0
 12 35  1  0
 12 36  1  0
 13 37  1  0
 13 38  1  0
 14 39  1  6
 15 40  1  0
 15 41  1  0
 16 42  1  0
 16 43  1  0
 19 44  1  0
 20 45  1  0
 21 46  1  0
 22 47  1  0
 24 48  1  0
 24 49  1  0
 24 50  1  0
M  CHG  1  14   1
M  END
>  <UniqueID>  (30) 
28

>  <SMILES>  (30) 
CCS(=O)(=O)c1ccc2c(c1)CC[N@H+](CCOc1ccccc1C)C2=O

>  <Energy>  (30) 
56.05135472119504

>  <Genealogy>  (30) 
CCS(=O)(=O)c1ccc2c(c1)CC[NH+](CCOc1ccccc1C)C2=O (protonated)
CCS(=O)(=O)c1ccc2c(c1)CC[N@H+](CCOc1ccccc1C)C2=O (chirality)
CCS(=O)(=O)c1ccc2c(c1)CC[N@H+](CCOc1ccccc1C)C2=O (3D coordinates assigned)
CCS(=O)(=O)c1ccc2c(c1)CC[N@H+](CCOc1ccccc1C)C2=O (nonaromatic ring conformer: 56.05135472119504 kcal/mol)

>  <smiles>  (30) 
CCS(=O)(=O)c1ccc2c(c1)CCN(CCOc1ccccc1C)C2=O

>  <score_type>  (30) 
oracle

>  <origin>  (30) 
adg

>  <m_score__min__energy>  (30) 
-9.7699999999999996

>  <m_primary>  (30) 
energy

$$$$
30:0
     RDKit          3D

 35 35  0  0  0  0  0  0  0  0999 V2000
   -5.7410   18.1730  -34.6330 C   0  0  0  0  0  0  0  0  0  0  0  0
   -6.6940   17.4270  -33.6940 C   0  0  0  0  0  0  0  0  0  0  0  0
   -6.5410   17.8510  -32.2780 N   0  0  0  0  0  0  0  0  0  0  0  0
   -5.7390   16.8680  -31.5050 C   0  0  0  0  0  0  0  0  0  0  0  0
   -4.9780   15.8530  -32.3750 C   0  0  0  0  0  0  0  0  0  0  0  0
   -7.8520   18.1360  -31.6180 C   0  0  0  0  0  0  0  0  0  0  0  0
   -8.7430   19.0750  -32.4510 C   0  0  0  0  0  0  0  0  0  0  0  0
   -7.9280   20.0570  -33.1700 N   0  0  0  0  0  0  0  0  0  0  0  0
   -7.3190   21.2030  -32.5490 C   0  0  0  0  0  0  0  0  0  0  0  0
   -8.1360   22.1510  -31.9100 C   0  0  0  0  0  0  0  0  0  0  0  0
   -7.5700   23.2680  -31.2880 C   0  0  0  0  0  0  0  0  0  0  0  0
   -6.1860   23.4580  -31.3100 C   0  0  0  0  0  0  0  0  0  0  0  0
   -5.4170   24.9860  -30.4610 Br  0  0  0  0  0  0  0  0  0  0  0  0
   -5.3660   22.5310  -31.9600 C   0  0  0  0  0  0  0  0  0  0  0  0
   -5.9270   21.4100  -32.5810 C   0  0  0  0  0  0  0  0  0  0  0  0
   -5.0123   18.7434  -34.0384 H   0  0  0  0  0  0  0  0  0  0  0  0
   -5.2096   17.4484  -35.2675 H   0  0  0  0  0  0  0  0  0  0  0  0
   -6.3168   18.8629  -35.2675 H   0  0  0  0  0  0  0  0  0  0  0  0
   -7.7286   17.6233  -34.0118 H   0  0  0  0  0  0  0  0  0  0  0  0
   -6.4512   16.3557  -33.7515 H   0  0  0  0  0  0  0  0  0  0  0  0
   -5.9570   18.7190  -32.2880 H   0  0  0  0  0  0  0  0  0  0  0  0
   -5.0062   17.4209  -30.8989 H   0  0  0  0  0  0  0  0  0  0  0  0
   -6.4488   16.2914  -30.8937 H   0  0  0  0  0  0  0  0  0  0  0  0
   -4.4447   15.1418  -31.7271 H   0  0  0  0  0  0  0  0  0  0  0  0
   -5.6911   15.3069  -33.0100 H   0  0  0  0  0  0  0  0  0  0  0  0
   -4.2539   16.3845  -33.0100 H   0  0  0  0  0  0  0  0  0  0  0  0
   -8.3850   17.1855  -31.4685 H   0  0  0  0  0  0  0  0  0  0  0  0
   -7.6414   18.6381  -30.6622 H   0  0  0  0  0  0  0  0  0  0  0  0
   -9.3158   18.4796  -33.1773 H   0  0  0  0  0  0  0  0  0  0  0  0
   -9.4255   19.6091  -31.7736 H   0  0  0  0  0  0  0  0  0  0  0  0
   -8.0170   20.0600  -34.2120 H   0  0  0  0  0  0  0  0  0  0  0  0
   -9.2273   22.0135  -31.8991 H   0  0  0  0  0  0  0  0  0  0  0  0
   -8.2161   23.9991  -30.7800 H   0  0  0  0  0  0  0  0  0  0  0  0
   -4.2769   22.6834  -31.9832 H   0  0  0  0  0  0  0  0  0  0  0  0
   -5.2776   20.6872  -33.0965 H   0  0  0  0  0  0  0  0  0  0  0  0
  1  2  1  0
  2  3  1  0
  3  4  1  0
  4  5  1  0
  3  6  1  0
  6  7  1  0
  7  8  1  0
  8  9  1  0
  9 10  2  0
 10 11  1  0
 11 12  2  0
 12 13  1  0
 12 14  1  0
 14 15  2  0
 15  9  1  0
  1 16  1  0
  1 17  1  0
  1 18  1  0
  2 19  1  0
  2 20  1  0
  3 21  1  0
  4 22  1  0
  4 23  1  0
  5 24  1  0
  5 25  1  0
  5 26  1  0
  6 27  1  0
  6 28  1  0
  7 29  1  0
  7 30  1  0
  8 31  1  0
 10 32  1  0
 11 33  1  0
 14 34  1  0
 15 35  1  0
M  CHG  1   3   1
M  END
>  <UniqueID>  (31) 
29

>  <SMILES>  (31) 
CC[NH+](CC)CCNc1ccc(Br)cc1

>  <Energy>  (31) 
36.30808227144209

>  <Genealogy>  (31) 
CC[NH+](CC)CCNc1ccc(Br)cc1 (protonated)
CC[NH+](CC)CCNc1ccc(Br)cc1 (3D coordinates assigned)
CC[NH+](CC)CCNc1ccc(Br)cc1 (optimized conformer: 36.30808227144209 kcal/mol)

>  <smiles>  (31) 
CCN(CC)CCNc1ccc(Br)cc1

>  <score_type>  (31) 
oracle

>  <origin>  (31) 
adg

>  <m_score__min__energy>  (31) 
-5.4000000000000004

>  <m_primary>  (31) 
energy

$$$$
31:0
     RDKit          3D

 66 65  0  0  0  0  0  0  0  0999 V2000
    1.5140   24.1850  -24.9220 C   0  0  0  0  0  0  0  0  0  0  0  0
    2.2380   25.4050  -24.3440 C   0  0  0  0  0  0  0  0  0  0  0  0
    1.4140   26.1440  -23.3700 N   0  0  0  0  0  0  0  0  0  0  0  0
    0.8410   27.3750  -23.9380 C   0  0  0  0  0  0  0  0  0  0  0  0
   -0.6950   27.2880  -23.9900 C   0  0  0  0  0  0  0  0  0  0  0  0
   -1.2390   27.0010  -25.4010 C   0  0  0  0  0  0  0  0  0  0  0  0
   -2.4390   26.0370  -25.4540 C   0  0  0  0  0  0  0  0  0  0  0  0
   -2.4750   25.2950  -26.7360 N   0  0  0  0  0  0  0  0  0  0  0  0
   -1.2140   24.5840  -27.0570 C   0  0  0  0  0  0  0  0  0  0  0  0
   -0.9130   24.6940  -28.5580 C   0  0  0  0  0  0  0  0  0  0  0  0
   -2.0180   25.3030  -29.2960 N   0  0  0  0  0  0  0  0  0  0  0  0
   -3.6760   24.4390  -26.8730 C   0  0  0  0  0  0  0  0  0  0  0  0
   -3.3640   22.9900  -27.3180 C   0  0  0  0  0  0  0  0  0  0  0  0
   -4.1890   22.6000  -28.5470 C   0  0  0  0  0  0  0  0  0  0  0  0
   -3.6090   23.2100  -29.7540 N   0  0  0  0  0  0  0  0  0  0  0  0
   -2.6990   22.2870  -30.4400 C   0  0  0  0  0  0  0  0  0  0  0  0
   -3.4820   21.2150  -31.2140 C   0  0  0  0  0  0  0  0  0  0  0  0
   -4.3140   21.8200  -32.3620 C   0  0  0  0  0  0  0  0  0  0  0  0
   -4.6730   23.2260  -32.1180 N   0  0  0  0  0  0  0  0  0  0  0  0
   -6.1080   23.4060  -31.8550 C   0  0  0  0  0  0  0  0  0  0  0  0
   -6.3120   24.2990  -30.6250 C   0  0  0  0  0  0  0  0  0  0  0  0
   -5.6700   25.6820  -30.7930 C   0  0  0  0  0  0  0  0  0  0  0  0
   -4.2430   25.6350  -30.4850 N   0  0  0  0  0  0  0  0  0  0  0  0
    1.1410   23.5565  -24.0999 H   0  0  0  0  0  0  0  0  0  0  0  0
    0.6682   24.5196  -25.5406 H   0  0  0  0  0  0  0  0  0  0  0  0
    2.2129   23.6029  -25.5406 H   0  0  0  0  0  0  0  0  0  0  0  0
    3.1562   25.0650  -23.8427 H   0  0  0  0  0  0  0  0  0  0  0  0
    2.4601   26.0869  -25.1781 H   0  0  0  0  0  0  0  0  0  0  0  0
    0.6420   25.5240  -23.0240 H   0  0  0  0  0  0  0  0  0  0  0  0
    2.0240   26.3880  -22.5540 H   0  0  0  0  0  0  0  0  0  0  0  0
    1.1330   28.2312  -23.3121 H   0  0  0  0  0  0  0  0  0  0  0  0
    1.2224   27.5023  -24.9619 H   0  0  0  0  0  0  0  0  0  0  0  0
   -1.0223   26.4807  -23.3183 H   0  0  0  0  0  0  0  0  0  0  0  0
   -1.0884   28.2677  -23.6812 H   0  0  0  0  0  0  0  0  0  0  0  0
   -1.5497   27.9570  -25.8476 H   0  0  0  0  0  0  0  0  0  0  0  0
   -0.4237   26.5063  -25.9493 H   0  0  0  0  0  0  0  0  0  0  0  0
   -2.3582   25.3179  -24.6255 H   0  0  0  0  0  0  0  0  0  0  0  0
   -3.3634   26.6269  -25.3673 H   0  0  0  0  0  0  0  0  0  0  0  0
   -0.3878   25.0333  -26.4865 H   0  0  0  0  0  0  0  0  0  0  0  0
   -1.3211   23.5227  -26.7884 H   0  0  0  0  0  0  0  0  0  0  0  0
   -0.0123   25.3103  -28.6951 H   0  0  0  0  0  0  0  0  0  0  0  0
   -0.7633   23.6770  -28.9494 H   0  0  0  0  0  0  0  0  0  0  0  0
   -2.1560   24.7890  -30.1970 H   0  0  0  0  0  0  0  0  0  0  0  0
   -2.8950   25.2090  -28.7330 H   0  0  0  0  0  0  0  0  0  0  0  0
   -4.1869   24.4003  -25.8996 H   0  0  0  0  0  0  0  0  0  0  0  0
   -4.3007   24.8877  -27.6594 H   0  0  0  0  0  0  0  0  0  0  0  0
   -2.2947   22.9123  -27.5640 H   0  0  0  0  0  0  0  0  0  0  0  0
   -3.6222   22.3087  -26.4939 H   0  0  0  0  0  0  0  0  0  0  0  0
   -4.1874   21.5053  -28.6549 H   0  0  0  0  0  0  0  0  0  0  0  0
   -5.2207   22.9597  -28.4196 H   0  0  0  0  0  0  0  0  0  0  0  0
   -3.0870   24.0700  -29.4700 H   0  0  0  0  0  0  0  0  0  0  0  0
   -2.0743   22.8553  -31.1449 H   0  0  0  0  0  0  0  0  0  0  0  0
   -2.0727   21.7875  -29.6862 H   0  0  0  0  0  0  0  0  0  0  0  0
   -2.7695   20.4908  -31.6358 H   0  0  0  0  0  0  0  0  0  0  0  0
   -4.1761   20.7297  -30.5120 H   0  0  0  0  0  0  0  0  0  0  0  0
   -3.7279   21.7618  -33.2910 H   0  0  0  0  0  0  0  0  0  0  0  0
   -5.2486   21.2447  -32.4364 H   0  0  0  0  0  0  0  0  0  0  0  0
   -4.1270   23.5870  -31.2970 H   0  0  0  0  0  0  0  0  0  0  0  0
   -6.5815   23.8772  -32.7289 H   0  0  0  0  0  0  0  0  0  0  0  0
   -6.5646   22.4234  -31.6654 H   0  0  0  0  0  0  0  0  0  0  0  0
   -7.3915   24.4287  -30.4578 H   0  0  0  0  0  0  0  0  0  0  0  0
   -5.8277   23.8063  -29.7690 H   0  0  0  0  0  0  0  0  0  0  0  0
   -5.8033   26.0171  -31.8322 H   0  0  0  0  0  0  0  0  0  0  0  0
   -6.1567   26.3822  -30.0981 H   0  0  0  0  0  0  0  0  0  0  0  0
   -3.7930   24.9190  -31.1030 H   0  0  0  0  0  0  0  0  0  0  0  0
   -4.1360   25.3030  -29.4970 H   0  0  0  0  0  0  0  0  0  0  0  0
  1  2  1  0
  2  3  1  0
  3  4  1  0
  4  5  1  0
  5  6  1  0
  6  7  1  0
  7  8  1  0
  8  9  1  0
  9 10  1  0
 10 11  1  0
  8 12  1  0
 12 13  1  0
 13 14  1  0
 14 15  1  0
 15 16  1  0
 16 17  1  0
 17 18  1  0
 18 19  1  0
 19 20  1  0
 20 21  1  0
 21 22  1  0
 22 23  1  0
  1 24  1  0
  1 25  1  0
  1 26  1  0
  2 27  1  0
  2 28  1  0
  3 29  1  0
  3 30  1  0
  4 31  1  0
  4 32  1  0
  5 33  1  0
  5 34  1  0
  6 35  1  0
  6 36  1  0
  7 37  1  0
  7 38  1  0
  9 39  1  0
  9 40  1  0
 10 41  1  0
 10 42  1  0
 11 43  1  0
 11 44  1  0
 12 45  1  0
 12 46  1  0
 13 47  1  0
 13 48  1  0
 14 49  1  0
 14 50  1  0
 15 51  1  0
 16 52  1  0
 16 53  1  0
 17 54  1  0
 17 55  1  0
 18 56  1  0
 18 57  1  0
 19 58  1  0
 20 59  1  0
 20 60  1  0
 21 61  1  0
 21 62  1  0
 22 63  1  0
 22 64  1  0
 23 65  1  0
 23 66  1  0
M  CHG  1   3   1
M  END
>  <UniqueID>  (32) 
30

>  <SMILES>  (32) 
CC[NH2+]CCCCN(CCN)CCCNCCCNCCCN

>  <Energy>  (32) 
50.36400126654462

>  <Genealogy>  (32) 
CC[NH2+]CCCCN(CCN)CCCNCCCNCCCN (protonated)
CC[NH2+]CCCCN(CCN)CCCNCCCNCCCN (3D coordinates assigned)
CC[NH2+]CCCCN(CCN)CCCNCCCNCCCN (optimized conformer: 50.36400126654462 kcal/mol)

>  <smiles>  (32) 
CCNCCCCN(CCN)CCCNCCCNCCCN

>  <score_type>  (32) 
oracle

>  <origin>  (32) 
adg

>  <m_score__min__energy>  (32) 
-4.9500000000000002

>  <m_primary>  (32) 
energy

$$$$
32:0
     RDKit          3D

 49 50  0  0  0  0  0  0  0  0999 V2000
   -2.1000   20.4530  -29.6660 C   0  0  0  0  0  0  0  0  0  0  0  0
   -3.4890   20.9930  -29.9830 C   0  0  0  0  0  0  0  0  0  0  0  0
   -3.3900   22.0510  -31.0210 N   0  0  0  0  0  0  0  0  0  0  0  0
   -3.1660   23.3870  -30.4220 C   0  0  0  0  0  0  0  0  0  0  0  0
   -3.5580   23.3970  -28.9450 C   0  0  0  0  0  0  0  0  0  0  0  0
   -2.3420   21.7440  -32.0230 C   0  0  0  0  0  0  0  0  0  0  0  0
   -2.9720   21.4160  -33.3920 C   0  0  0  0  0  0  0  0  0  0  0  0
   -4.4060   21.0790  -33.2850 N   0  0  0  0  0  0  0  0  0  0  0  0
   -4.6850   19.6460  -33.5070 C   0  0  0  0  0  0  0  0  0  0  0  0
   -6.0650   19.2570  -33.0180 C   0  0  0  0  0  0  0  0  0  0  0  0
   -6.3510   17.8990  -32.7910 C   0  0  0  0  0  0  0  0  0  0  0  0
   -7.6160   17.5040  -32.3510 C   0  0  0  0  0  0  0  0  0  0  0  0
   -8.6080   18.4590  -32.1290 C   0  0  0  0  0  0  0  0  0  0  0  0
   -8.3400   19.8110  -32.3510 C   0  0  0  0  0  0  0  0  0  0  0  0
   -7.0740   20.2210  -32.8110 C   0  0  0  0  0  0  0  0  0  0  0  0
   -6.7900   21.5800  -33.0190 O   0  0  0  0  0  0  0  0  0  0  0  0
   -6.7380   22.5590  -32.0170 C   0  0  0  0  0  0  0  0  0  0  0  0
   -6.1150   23.8040  -32.2240 C   0  0  0  0  0  0  0  0  0  0  0  0
   -6.0520   24.7390  -31.1860 C   0  0  0  0  0  0  0  0  0  0  0  0
   -6.5960   24.4360  -29.9350 C   0  0  0  0  0  0  0  0  0  0  0  0
   -7.2010   23.1950  -29.7200 C   0  0  0  0  0  0  0  0  0  0  0  0
   -7.2690   22.2580  -30.7560 C   0  0  0  0  0  0  0  0  0  0  0  0
   -1.9668   20.4012  -28.5753 H   0  0  0  0  0  0  0  0  0  0  0  0
   -1.9906   19.4468  -30.0969 H   0  0  0  0  0  0  0  0  0  0  0  0
   -1.3397   21.1211  -30.0969 H   0  0  0  0  0  0  0  0  0  0  0  0
   -4.1235   20.1747  -30.3543 H   0  0  0  0  0  0  0  0  0  0  0  0
   -3.9315   21.4185  -29.0702 H   0  0  0  0  0  0  0  0  0  0  0  0
   -2.1015   23.6485  -30.5135 H   0  0  0  0  0  0  0  0  0  0  0  0
   -3.7897   24.1195  -30.9553 H   0  0  0  0  0  0  0  0  0  0  0  0
   -2.6500   23.3738  -28.3245 H   0  0  0  0  0  0  0  0  0  0  0  0
   -4.1302   24.3100  -28.7237 H   0  0  0  0  0  0  0  0  0  0  0  0
   -4.1760   22.5143  -28.7237 H   0  0  0  0  0  0  0  0  0  0  0  0
   -1.6795   22.6155  -32.1305 H   0  0  0  0  0  0  0  0  0  0  0  0
   -1.7711   20.8689  -31.6790 H   0  0  0  0  0  0  0  0  0  0  0  0
   -2.8627   22.2907  -34.0500 H   0  0  0  0  0  0  0  0  0  0  0  0
   -2.4503   20.5376  -33.7998 H   0  0  0  0  0  0  0  0  0  0  0  0
   -4.7460   21.3610  -32.3360 H   0  0  0  0  0  0  0  0  0  0  0  0
   -4.9570   21.6420  -33.9750 H   0  0  0  0  0  0  0  0  0  0  0  0
   -4.6161   19.4329  -34.5840 H   0  0  0  0  0  0  0  0  0  0  0  0
   -3.9451   19.0626  -32.9393 H   0  0  0  0  0  0  0  0  0  0  0  0
   -5.5717   17.1416  -32.9615 H   0  0  0  0  0  0  0  0  0  0  0  0
   -7.8303   16.4388  -32.1793 H   0  0  0  0  0  0  0  0  0  0  0  0
   -9.6028   18.1465  -31.7786 H   0  0  0  0  0  0  0  0  0  0  0  0
   -9.1231   20.5609  -32.1653 H   0  0  0  0  0  0  0  0  0  0  0  0
   -5.6767   24.0421  -33.2044 H   0  0  0  0  0  0  0  0  0  0  0  0
   -5.5733   25.7149  -31.3546 H   0  0  0  0  0  0  0  0  0  0  0  0
   -6.5480   25.1737  -29.1204 H   0  0  0  0  0  0  0  0  0  0  0  0
   -7.6247   22.9545  -28.7338 H   0  0  0  0  0  0  0  0  0  0  0  0
   -7.7415   21.2804  -30.5800 H   0  0  0  0  0  0  0  0  0  0  0  0
  1  2  1  0
  2  3  1  0
  3  4  1  0
  4  5  1  0
  3  6  1  0
  6  7  1  0
  7  8  1  0
  8  9  1  0
  9 10  1  0
 10 11  2  0
 11 12  1  0
 12 13  2  0
 13 14  1  0
 14 15  2  0
 15 16  1  0
 16 17  1  0
 17 18  2  0
 18 19  1  0
 19 20  2  0
 20 21  1  0
 21 22  2  0
 15 10  1  0
 22 17  1  0
  1 23  1  0
  1 24  1  0
  1 25  1  0
  2 26  1  0
  2 27  1  0
  4 28  1  0
  4 29  1  0
  5 30  1  0
  5 31  1  0
  5 32  1  0
  6 33  1  0
  6 34  1  0
  7 35  1  0
  7 36  1  0
  8 37  1  0
  8 38  1  0
  9 39  1  0
  9 40  1  0
 11 41  1  0
 12 42  1  0
 13 43  1  0
 14 44  1  0
 18 45  1  0
 19 46  1  0
 20 47  1  0
 21 48  1  0
 22 49  1  0
M  CHG  1   8   1
M  END
>  <UniqueID>  (33) 
31

>  <SMILES>  (33) 
CCN(CC)CC[NH2+]Cc1ccccc1Oc1ccccc1

>  <Energy>  (33) 
52.178526215567004

>  <Genealogy>  (33) 
CCN(CC)CC[NH2+]Cc1ccccc1Oc1ccccc1 (protonated)
CCN(CC)CC[NH2+]Cc1ccccc1Oc1ccccc1 (3D coordinates assigned)
CCN(CC)CC[NH2+]Cc1ccccc1Oc1ccccc1 (optimized conformer: 52.178526215567004 kcal/mol)

>  <smiles>  (33) 
CCN(CC)CCNCc1ccccc1Oc1ccccc1

>  <score_type>  (33) 
oracle

>  <origin>  (33) 
adg

>  <m_score__min__energy>  (33) 
-6.7000000000000002

>  <m_primary>  (33) 
energy

$$$$
33:0
     RDKit          3D

 42 44  0  0  0  0  0  0  0  0999 V2000
   -3.9120   20.1270  -33.2700 C   0  0  0  0  0  0  0  0  0  0  0  0
   -3.1360   20.7110  -32.1270 C   0  0  0  0  0  0  0  0  0  0  0  0
   -3.6790   20.7180  -30.8330 C   0  0  0  0  0  0  0  0  0  0  0  0
   -2.9700   21.2900  -29.7710 C   0  0  0  0  0  0  0  0  0  0  0  0
   -1.7140   21.8780  -29.9940 C   0  0  0  0  0  0  0  0  0  0  0  0
   -0.9240   22.4550  -28.8510 C   0  0  0  0  0  0  0  0  0  0  0  0
   -0.6240   23.8570  -29.1110 N   0  0  0  0  0  0  0  0  0  0  0  0
   -1.6020   24.8980  -29.0400 C   0  0  0  0  0  0  0  0  0  0  0  0
   -1.2480   26.1060  -28.9610 O   0  0  0  0  0  0  0  0  0  0  0  0
   -3.0480   24.5510  -29.1420 C   0  0  0  0  0  0  0  0  0  0  0  0
   -3.5980   25.2160  -30.2720 O   0  0  0  0  0  0  0  0  0  0  0  0
   -4.9720   25.3070  -30.5130 C   0  0  0  0  0  0  0  0  0  0  0  0
   -5.5490   26.4290  -30.4630 O   0  0  0  0  0  0  0  0  0  0  0  0
   -5.7440   24.0840  -30.8210 C   0  0  0  0  0  0  0  0  0  0  0  0
   -5.5680   23.4270  -32.0510 C   0  0  0  0  0  0  0  0  0  0  0  0
   -6.2890   22.2670  -32.3460 C   0  0  0  0  0  0  0  0  0  0  0  0
   -7.2020   21.7360  -31.4180 C   0  0  0  0  0  0  0  0  0  0  0  0
   -7.9340   20.5330  -31.7360 N   0  0  0  0  0  0  0  0  0  0  0  0
   -9.1770   20.4050  -32.2360 C   0  0  0  0  0  0  0  0  0  0  0  0
   -9.4800   19.1010  -32.3750 N   0  0  0  0  0  0  0  0  0  0  0  0
   -8.4090   18.4450  -31.9510 N   0  0  0  0  0  0  0  0  0  0  0  0
   -7.4780   19.3050  -31.5660 N   0  0  0  0  0  0  0  0  0  0  0  0
   -7.3790   22.3960  -30.1880 C   0  0  0  0  0  0  0  0  0  0  0  0
   -6.6590   23.5570  -29.8940 C   0  0  0  0  0  0  0  0  0  0  0  0
   -1.1770   21.8830  -31.2920 C   0  0  0  0  0  0  0  0  0  0  0  0
   -1.8870   21.3120  -32.3520 C   0  0  0  0  0  0  0  0  0  0  0  0
   -4.7332   19.5090  -32.8779 H   0  0  0  0  0  0  0  0  0  0  0  0
   -4.3260   20.9395  -33.8852 H   0  0  0  0  0  0  0  0  0  0  0  0
   -3.2459   19.5042  -33.8852 H   0  0  0  0  0  0  0  0  0  0  0  0
   -4.6678   20.2712  -30.6526 H   0  0  0  0  0  0  0  0  0  0  0  0
   -3.3978   21.2792  -28.7577 H   0  0  0  0  0  0  0  0  0  0  0  0
   -1.5113   22.3738  -27.9244 H   0  0  0  0  0  0  0  0  0  0  0  0
    0.0183   21.8974  -28.7451 H   0  0  0  0  0  0  0  0  0  0  0  0
   -3.1600   23.4633  -29.2619 H   0  0  0  0  0  0  0  0  0  0  0  0
   -3.5743   24.8662  -28.2289 H   0  0  0  0  0  0  0  0  0  0  0  0
   -4.8568   23.8293  -32.7874 H   0  0  0  0  0  0  0  0  0  0  0  0
   -6.1409   21.7646  -33.3133 H   0  0  0  0  0  0  0  0  0  0  0  0
   -9.8449   21.2405  -32.4925 H   0  0  0  0  0  0  0  0  0  0  0  0
   -8.0904   21.9945  -29.4513 H   0  0  0  0  0  0  0  0  0  0  0  0
   -6.8098   24.0626  -28.9288 H   0  0  0  0  0  0  0  0  0  0  0  0
   -0.1927   22.3386  -31.4752 H   0  0  0  0  0  0  0  0  0  0  0  0
   -1.4652   21.3335  -33.3677 H   0  0  0  0  0  0  0  0  0  0  0  0
  1  2  1  0
  2  3  2  0
  3  4  1  0
  4  5  2  0
  5  6  1  0
  6  7  1  0
  7  8  1  0
  8  9  2  0
  8 10  1  0
 10 11  1  0
 11 12  1  0
 12 13  2  0
 12 14  1  0
 14 15  2  0
 15 16  1  0
 16 17  2  0
 17 18  1  0
 18 19  1  0
 19 20  2  0
 20 21  1  0
 21 22  2  0
 17 23  1  0
 23 24  2  0
  5 25  1  0
 25 26  2  0
 26  2  1  0
 24 14  1  0
 22 18  1  0
  1 27  1  0
  1 28  1  0
  1 29  1  0
  3 30  1  0
  4 31  1  0
  6 32  1  0
  6 33  1  0
 10 34  1  0
 10 35  1  0
 15 36  1  0
 16 37  1  0
 19 38  1  0
 23 39  1  0
 24 40  1  0
 25 41  1  0
 26 42  1  0
M  CHG  1   7  -1
M  END
>  <UniqueID>  (34) 
32

>  <SMILES>  (34) 
Cc1ccc(C[N-]C(=O)COC(=O)c2ccc(-n3cnnn3)cc2)cc1

>  <Energy>  (34) 
79.6573345353393

>  <Genealogy>  (34) 
Cc1ccc(C[N-]C(=O)COC(=O)c2ccc(-n3cnnn3)cc2)cc1 (protonated)
Cc1ccc(C[N-]C(=O)COC(=O)c2ccc(-n3cnnn3)cc2)cc1 (3D coordinates assigned)
Cc1ccc(C[N-]C(=O)COC(=O)c2ccc(-n3cnnn3)cc2)cc1 (optimized conformer: 79.6573345353393 kcal/mol)

>  <smiles>  (34) 
Cc1ccc(CNC(=O)COC(=O)c2ccc(-n3cnnn3)cc2)cc1

>  <score_type>  (34) 
oracle

>  <origin>  (34) 
adg

>  <m_score__min__energy>  (34) 
-10.369999999999999

>  <m_primary>  (34) 
energy

$$$$
34:0
     RDKit          3D

 49 52  0  0  0  0  0  0  0  0999 V2000
   -1.7790   20.3610  -30.9920 C   0  0  0  0  0  0  0  0  0  0  0  0
   -1.9300   21.6520  -30.3320 N   0  0  0  0  0  0  0  0  0  0  0  0
   -1.2510   22.0120  -29.2540 N   0  0  0  0  0  0  0  0  0  0  0  0
   -1.6210   23.2580  -28.9100 C   0  0  0  0  0  0  0  0  0  0  0  0
   -1.1130   23.9940  -27.7080 C   0  0  0  0  0  0  0  0  0  0  0  0
   -0.2490   23.1270  -26.8940 N   0  0  0  0  0  0  0  0  0  0  0  0
   -1.0110   22.1920  -26.0480 C   0  0  0  0  0  0  0  0  0  0  0  0
   -0.9680   20.7830  -26.5780 C   0  0  0  0  0  0  0  0  0  0  0  0
   -1.9570   19.8510  -26.2250 C   0  0  0  0  0  0  0  0  0  0  0  0
   -1.8960   18.5570  -26.7480 C   0  0  0  0  0  0  0  0  0  0  0  0
   -0.8590   18.2050  -27.6130 C   0  0  0  0  0  0  0  0  0  0  0  0
    0.1080   19.1580  -27.9430 C   0  0  0  0  0  0  0  0  0  0  0  0
    0.0320   20.4130  -27.4250 N   0  0  0  0  0  0  0  0  0  0  0  0
   -2.5740   23.7150  -29.8010 C   0  0  0  0  0  0  0  0  0  0  0  0
   -2.7310   22.6770  -30.7040 C   0  0  0  0  0  0  0  0  0  0  0  0
   -3.6940   22.6730  -31.8630 C   0  0  0  0  0  0  0  0  0  0  0  0
   -5.0530   23.0590  -31.4390 N   0  0  0  0  0  0  0  0  0  0  0  0
   -5.2870   24.3690  -30.8830 C   0  0  0  0  0  0  0  0  0  0  0  0
   -4.4410   25.2940  -31.0250 O   0  0  0  0  0  0  0  0  0  0  0  0
   -6.5180   24.6240  -30.0680 C   0  0  0  0  0  0  0  0  0  0  0  0
   -7.6160   23.8500  -30.5420 O   0  0  0  0  0  0  0  0  0  0  0  0
   -7.4580   22.5910  -31.1300 C   0  0  0  0  0  0  0  0  0  0  0  0
   -8.5800   21.7720  -31.2910 C   0  0  0  0  0  0  0  0  0  0  0  0
   -8.4540   20.5200  -31.8950 C   0  0  0  0  0  0  0  0  0  0  0  0
   -7.2100   20.0890  -32.3540 C   0  0  0  0  0  0  0  0  0  0  0  0
   -6.0850   20.9060  -32.2080 C   0  0  0  0  0  0  0  0  0  0  0  0
   -6.1900   22.1670  -31.5810 C   0  0  0  0  0  0  0  0  0  0  0  0
   -1.6865   19.5699  -30.2333 H   0  0  0  0  0  0  0  0  0  0  0  0
   -2.6604   20.1651  -31.6204 H   0  0  0  0  0  0  0  0  0  0  0  0
   -0.8762   20.3738  -31.6204 H   0  0  0  0  0  0  0  0  0  0  0  0
   -0.5550   21.4110  -28.7570 H   0  0  0  0  0  0  0  0  0  0  0  0
   -0.5363   24.8705  -28.0385 H   0  0  0  0  0  0  0  0  0  0  0  0
   -1.9720   24.3099  -27.0979 H   0  0  0  0  0  0  0  0  0  0  0  0
    0.3720   22.5800  -27.5350 H   0  0  0  0  0  0  0  0  0  0  0  0
   -0.5840   22.2026  -25.0343 H   0  0  0  0  0  0  0  0  0  0  0  0
   -2.0611   22.5195  -26.0428 H   0  0  0  0  0  0  0  0  0  0  0  0
   -2.7717   20.1368  -25.5434 H   0  0  0  0  0  0  0  0  0  0  0  0
   -2.6639   17.8170  -26.4785 H   0  0  0  0  0  0  0  0  0  0  0  0
   -0.8035   17.1887  -28.0303 H   0  0  0  0  0  0  0  0  0  0  0  0
    0.9315   18.8929  -28.6224 H   0  0  0  0  0  0  0  0  0  0  0  0
   -3.0916   24.6856  -29.7942 H   0  0  0  0  0  0  0  0  0  0  0  0
   -3.3411   23.3854  -32.6232 H   0  0  0  0  0  0  0  0  0  0  0  0
   -3.7372   21.6527  -32.2719 H   0  0  0  0  0  0  0  0  0  0  0  0
   -6.3166   24.3577  -29.0199 H   0  0  0  0  0  0  0  0  0  0  0  0
   -6.7789   25.6893  -30.1528 H   0  0  0  0  0  0  0  0  0  0  0  0
   -9.5646   22.1154  -30.9407 H   0  0  0  0  0  0  0  0  0  0  0  0
   -9.3364   19.8732  -32.0089 H   0  0  0  0  0  0  0  0  0  0  0  0
   -7.1135   19.1032  -32.8324 H   0  0  0  0  0  0  0  0  0  0  0  0
   -5.1098   20.5637  -32.5847 H   0  0  0  0  0  0  0  0  0  0  0  0
  1  2  1  0
  2  3  1  0
  3  4  2  0
  4  5  1  0
  5  6  1  0
  6  7  1  0
  7  8  1  0
  8  9  2  0
  9 10  1  0
 10 11  2  0
 11 12  1  0
 12 13  2  0
  4 14  1  0
 14 15  2  0
 15 16  1  0
 16 17  1  0
 17 18  1  0
 18 19  2  0
 18 20  1  0
 20 21  1  0
 21 22  1  0
 22 23  2  0
 23 24  1  0
 24 25  2  0
 25 26  1  0
 26 27  2  0
 15  2  1  0
 27 17  1  0
 13  8  1  0
 27 22  1  0
  1 28  1  0
  1 29  1  0
  1 30  1  0
  3 31  1  0
  5 32  1  0
  5 33  1  0
  6 34  1  0
  7 35  1  0
  7 36  1  0
  9 37  1  0
 10 38  1  0
 11 39  1  0
 12 40  1  0
 14 41  1  0
 16 42  1  0
 16 43  1  0
 20 44  1  0
 20 45  1  0
 23 46  1  0
 24 47  1  0
 25 48  1  0
 26 49  1  0
M  CHG  1   3   1
M  END
>  <UniqueID>  (35) 
33

>  <SMILES>  (35) 
Cn1[nH+]c(CNCc2ccccn2)cc1CN1C(=O)COc2ccccc21

>  <Energy>  (35) 
86.14297377431294

>  <Genealogy>  (35) 
Cn1[nH+]c(CNCc2ccccn2)cc1CN1C(=O)COc2ccccc21 (protonated)
Cn1[nH+]c(CNCc2ccccn2)cc1CN1C(=O)COc2ccccc21 (3D coordinates assigned)
Cn1[nH+]c(CNCc2ccccn2)cc1CN1C(=O)COc2ccccc21 (nonaromatic ring conformer: 86.14297377431294 kcal/mol)

>  <smiles>  (35) 
Cn1nc(CNCc2ccccn2)cc1CN1C(=O)COc2ccccc21

>  <score_type>  (35) 
oracle

>  <origin>  (35) 
adg

>  <m_score__min__energy>  (35) 
-7.6100000000000003

>  <m_primary>  (35) 
energy

$$$$
35:0
     RDKit          3D

 36 37  0  0  0  0  0  0  0  0999 V2000
   -8.4720   22.3580  -31.7150 C   0  0  0  0  0  0  0  0  0  0  0  0
   -7.1640   22.9900  -31.3430 C   0  0  0  0  0  0  0  0  0  0  0  0
   -5.9600   22.4690  -31.8420 C   0  0  0  0  0  0  0  0  0  0  0  0
   -4.7450   23.0910  -31.5390 C   0  0  0  0  0  0  0  0  0  0  0  0
   -4.7240   24.2570  -30.7590 C   0  0  0  0  0  0  0  0  0  0  0  0
   -3.4940   24.9150  -30.4390 N   0  0  0  0  0  0  0  0  0  0  0  0
   -2.6610   24.6350  -29.3060 C   0  0  0  0  0  0  0  0  0  0  0  0
   -1.6710   25.3800  -29.0860 O   0  0  0  0  0  0  0  0  0  0  0  0
   -2.8500   23.4030  -28.4550 C   0  0  0  0  0  0  0  0  0  0  0  0
   -1.7020   22.4050  -28.6550 C   0  0  0  0  0  0  0  0  0  0  0  0
   -1.7140   21.3740  -27.5970 N   0  0  0  0  0  0  0  0  0  0  0  0
   -3.0070   20.6940  -27.5080 C   0  0  0  0  0  0  0  0  0  0  0  0
   -2.7370   19.3480  -26.8550 C   0  0  0  0  0  0  0  0  0  0  0  0
   -1.2620   19.0730  -27.0990 C   0  0  0  0  0  0  0  0  0  0  0  0
   -0.7370   20.3020  -27.8250 C   0  0  0  0  0  0  0  0  0  0  0  0
   -5.9230   24.7630  -30.2420 C   0  0  0  0  0  0  0  0  0  0  0  0
   -7.1390   24.1450  -30.5460 C   0  0  0  0  0  0  0  0  0  0  0  0
   -9.0235   22.0915  -30.8013 H   0  0  0  0  0  0  0  0  0  0  0  0
   -9.0667   23.0681  -32.3083 H   0  0  0  0  0  0  0  0  0  0  0  0
   -8.2853   21.4507  -32.3083 H   0  0  0  0  0  0  0  0  0  0  0  0
   -5.9723   21.5684  -32.4735 H   0  0  0  0  0  0  0  0  0  0  0  0
   -3.8026   22.6648  -31.9134 H   0  0  0  0  0  0  0  0  0  0  0  0
   -2.8855   23.7007  -27.3966 H   0  0  0  0  0  0  0  0  0  0  0  0
   -3.7896   22.9155  -28.7542 H   0  0  0  0  0  0  0  0  0  0  0  0
   -1.8141   21.9178  -29.6348 H   0  0  0  0  0  0  0  0  0  0  0  0
   -0.7478   22.9501  -28.6058 H   0  0  0  0  0  0  0  0  0  0  0  0
   -3.7051   21.2820  -26.8941 H   0  0  0  0  0  0  0  0  0  0  0  0
   -3.4639   20.5721  -28.5012 H   0  0  0  0  0  0  0  0  0  0  0  0
   -2.9471   19.3939  -25.7762 H   0  0  0  0  0  0  0  0  0  0  0  0
   -3.3764   18.5550  -27.2701 H   0  0  0  0  0  0  0  0  0  0  0  0
   -0.7332   18.9347  -26.1444 H   0  0  0  0  0  0  0  0  0  0  0  0
   -1.1084   18.1549  -27.6850 H   0  0  0  0  0  0  0  0  0  0  0  0
    0.2445   20.5909  -27.4210 H   0  0  0  0  0  0  0  0  0  0  0  0
   -0.6098   20.1035  -28.8994 H   0  0  0  0  0  0  0  0  0  0  0  0
   -5.9076   25.6513  -29.5934 H   0  0  0  0  0  0  0  0  0  0  0  0
   -8.0793   24.5650  -30.1595 H   0  0  0  0  0  0  0  0  0  0  0  0
  1  2  1  0
  2  3  2  0
  3  4  1  0
  4  5  2  0
  5  6  1  0
  6  7  1  0
  7  8  2  0
  7  9  1  0
  9 10  1  0
 10 11  1  0
 11 12  1  0
 12 13  1  0
 13 14  1  0
 14 15  1  0
  5 16  1  0
 16 17  2  0
 17  2  1  0
 15 11  1  0
  1 18  1  0
  1 19  1  0
  1 20  1  0
  3 21  1  0
  4 22  1  0
  9 23  1  0
  9 24  1  0
 10 25  1  0
 10 26  1  0
 12 27  1  0
 12 28  1  0
 13 29  1  0
 13 30  1  0
 14 31  1  0
 14 32  1  0
 15 33  1  0
 15 34  1  0
 16 35  1  0
 17 36  1  0
M  CHG  1   6  -1
M  END
>  <UniqueID>  (36) 
34

>  <SMILES>  (36) 
Cc1ccc([N-]C(=O)CCN2CCCC2)cc1

>  <Energy>  (36) 
36.89154135832947

>  <Genealogy>  (36) 
Cc1ccc([N-]C(=O)CCN2CCCC2)cc1 (protonated)
Cc1ccc([N-]C(=O)CCN2CCCC2)cc1 (3D coordinates assigned)
Cc1ccc([N-]C(=O)CCN2CCCC2)cc1 (nonaromatic ring conformer: 36.89154135832947 kcal/mol)

>  <smiles>  (36) 
Cc1ccc(NC(=O)CCN2CCCC2)cc1

>  <score_type>  (36) 
oracle

>  <origin>  (36) 
adg

>  <m_score__min__energy>  (36) 
-8.3599999999999994

>  <m_primary>  (36) 
energy

$$$$
36:0
     RDKit          3D

114118  0  0  0  0  0  0  0  0999 V2000
   -1.8990   14.8720  -32.8660 H   0  0  0  0  0  0  0  0  0  0  0  0
   -1.6000   15.8180  -32.7880 O   0  0  0  0  0  0  0  0  0  0  0  0
   -0.5580   16.0000  -33.7130 C   0  0  1  0  0  0  0  0  0  0  0  0
    0.1684   16.7406  -33.3472 H   0  0  0  0  0  0  0  0  0  0  0  0
    0.2170   14.6660  -33.8790 C   0  0  1  0  0  0  0  0  0  0  0  0
    0.9801   14.6219  -33.0880 H   0  0  0  0  0  0  0  0  0  0  0  0
   -0.6590   13.5740  -33.7390 O   0  0  0  0  0  0  0  0  0  0  0  0
   -1.5800   13.9280  -33.8150 H   0  0  0  0  0  0  0  0  0  0  0  0
    0.9460   14.5950  -35.2390 C   0  0  2  0  0  0  0  0  0  0  0  0
    1.4448   13.6169  -35.3064 H   0  0  0  0  0  0  0  0  0  0  0  0
    1.9640   15.6480  -35.3280 N   0  0  0  0  0  0  0  0  0  0  0  0
    2.2940   15.8740  -34.3610 H   0  0  0  0  0  0  0  0  0  0  0  0
    1.5090   16.5220  -35.6790 H   0  0  0  0  0  0  0  0  0  0  0  0
   -0.0520   14.6930  -36.4220 C   0  0  0  0  0  0  0  0  0  0  0  0
    0.4620   15.1812  -37.2631 H   0  0  0  0  0  0  0  0  0  0  0  0
   -0.3693   13.6634  -36.6441 H   0  0  0  0  0  0  0  0  0  0  0  0
   -1.3490   15.4930  -36.1190 C   0  0  1  0  0  0  0  0  0  0  0  0
   -1.6480   15.9983  -37.0492 H   0  0  0  0  0  0  0  0  0  0  0  0
   -2.4200   14.5870  -35.6950 N   0  0  0  0  0  0  0  0  0  0  0  0
   -2.8370   14.9570  -34.8110 H   0  0  0  0  0  0  0  0  0  0  0  0
   -2.0000   13.6640  -35.4430 H   0  0  0  0  0  0  0  0  0  0  0  0
   -1.1180   16.5870  -35.0450 C   0  0  2  0  0  0  0  0  0  0  0  0
   -2.0956   17.0449  -34.8335 H   0  0  0  0  0  0  0  0  0  0  0  0
   -0.2020   17.5560  -35.5370 O   0  0  0  0  0  0  0  0  0  0  0  0
   -0.2950   18.7920  -34.8370 C   0  0  1  0  0  0  0  0  0  0  0  0
   -0.0990   19.6579  -35.4865 H   0  0  0  0  0  0  0  0  0  0  0  0
   -1.7600   18.9770  -34.3150 C   0  0  0  0  0  0  0  0  0  0  0  0
   -1.9218   18.2405  -33.5141 H   0  0  0  0  0  0  0  0  0  0  0  0
   -2.3967   18.8468  -35.2025 H   0  0  0  0  0  0  0  0  0  0  0  0
   -2.1360   20.3610  -33.7550 C   0  0  0  0  0  0  0  0  0  0  0  0
   -3.0809   20.2517  -33.2025 H   0  0  0  0  0  0  0  0  0  0  0  0
   -2.1909   21.0228  -34.6319 H   0  0  0  0  0  0  0  0  0  0  0  0
   -1.1080   21.0300  -32.8020 C   0  0  2  0  0  0  0  0  0  0  0  0
   -0.8935   20.2616  -32.0447 H   0  0  0  0  0  0  0  0  0  0  0  0
   -1.6790   22.2140  -32.2560 O   0  0  0  0  0  0  0  0  0  0  0  0
   -2.5840   21.9800  -31.1870 C   0  0  2  0  0  0  0  0  0  0  0  0
   -3.6148   22.2835  -31.4221 H   0  0  0  0  0  0  0  0  0  0  0  0
   -2.1500   22.7500  -30.0740 O   0  0  0  0  0  0  0  0  0  0  0  0
   -2.7170   22.3270  -28.8440 C   0  0  1  0  0  0  0  0  0  0  0  0
   -2.2376   22.9216  -28.0524 H   0  0  0  0  0  0  0  0  0  0  0  0
   -4.2230   22.6360  -28.7660 C   0  0  0  0  0  0  0  0  0  0  0  0
   -4.5302   22.6990  -27.7117 H   0  0  0  0  0  0  0  0  0  0  0  0
   -4.4269   23.5947  -29.2653 H   0  0  0  0  0  0  0  0  0  0  0  0
   -4.7880   21.8351  -29.2653 H   0  0  0  0  0  0  0  0  0  0  0  0
   -2.3890   20.8430  -28.5190 C   0  0  0  0  0  0  0  0  0  0  0  0
   -1.6468   20.8163  -27.7076 H   0  0  0  0  0  0  0  0  0  0  0  0
   -3.3289   20.3515  -28.2274 H   0  0  0  0  0  0  0  0  0  0  0  0
   -1.8450   20.1110  -29.6810 N   0  0  0  0  0  0  0  0  0  0  0  0
   -0.3820   20.2760  -29.8340 C   0  0  0  0  0  0  0  0  0  0  0  0
   -0.1777   21.1156  -30.5147 H   0  0  0  0  0  0  0  0  0  0  0  0
    0.0669   20.4807  -28.8508 H   0  0  0  0  0  0  0  0  0  0  0  0
    0.2100   19.0210  -30.3990 C   0  0  0  0  0  0  0  0  0  0  0  0
   -0.4200   18.3930  -31.2930 O   0  0  0  0  0  0  0  0  0  0  0  0
    1.4910   18.5520  -29.9460 N   0  0  0  0  0  0  0  0  0  0  0  0
    2.0210   19.1120  -29.2350 H   0  0  0  0  0  0  0  0  0  0  0  0
    2.1340   17.3710  -30.5230 C   0  0  0  0  0  0  0  0  0  0  0  0
    2.5250   17.6224  -31.5200 H   0  0  0  0  0  0  0  0  0  0  0  0
    2.9548   17.0544  -29.8626 H   0  0  0  0  0  0  0  0  0  0  0  0
    1.1260   16.2180  -30.6510 C   0  0  0  0  0  0  0  0  0  0  0  0
    0.2253   16.4712  -30.0725 H   0  0  0  0  0  0  0  0  0  0  0  0
    0.8983   16.0906  -31.7196 H   0  0  0  0  0  0  0  0  0  0  0  0
    1.6870   14.8840  -30.1310 C   0  0  0  0  0  0  0  0  0  0  0  0
    2.7816   14.9656  -30.0597 H   0  0  0  0  0  0  0  0  0  0  0  0
    1.2307   14.6900  -29.1491 H   0  0  0  0  0  0  0  0  0  0  0  0
    1.3390   13.6980  -31.0510 C   0  0  0  0  0  0  0  0  0  0  0  0
    0.6671   14.0556  -31.8452 H   0  0  0  0  0  0  0  0  0  0  0  0
    2.2838   13.3083  -31.4578 H   0  0  0  0  0  0  0  0  0  0  0  0
    0.6480   12.5450  -30.3070 C   0  0  0  0  0  0  0  0  0  0  0  0
    1.2856   11.6514  -30.3765 H   0  0  0  0  0  0  0  0  0  0  0  0
    0.5027   12.8669  -29.2652 H   0  0  0  0  0  0  0  0  0  0  0  0
   -0.7350   12.2040  -30.8780 C   0  0  0  0  0  0  0  0  0  0  0  0
   -0.6186   11.6012  -31.7907 H   0  0  0  0  0  0  0  0  0  0  0  0
   -1.3114   11.6305  -30.1372 H   0  0  0  0  0  0  0  0  0  0  0  0
   -1.4450   13.4570  -31.2000 N   0  0  0  0  0  0  0  0  0  0  0  0
   -1.0980   13.7940  -32.1310 H   0  0  0  0  0  0  0  0  0  0  0  0
   -2.9040   13.2860  -31.2940 C   0  0  0  0  0  0  0  0  0  0  0  0
   -3.2411   12.6139  -30.4911 H   0  0  0  0  0  0  0  0  0  0  0  0
   -3.3823   14.2714  -31.1935 H   0  0  0  0  0  0  0  0  0  0  0  0
   -3.2930   12.6870  -32.6460 C   0  0  0  0  0  0  0  0  0  0  0  0
   -2.4557   12.0888  -33.0346 H   0  0  0  0  0  0  0  0  0  0  0  0
   -4.1785   12.0470  -32.5178 H   0  0  0  0  0  0  0  0  0  0  0  0
   -3.6040   13.7550  -33.5900 N   0  0  0  0  0  0  0  0  0  0  0  0
   -4.7260   14.3500  -33.9120 C   0  0  0  0  0  0  0  0  0  0  0  0
   -5.6990   13.5120  -34.4720 C   0  0  0  0  0  0  0  0  0  0  0  0
   -5.4393   12.4741  -34.7274 H   0  0  0  0  0  0  0  0  0  0  0  0
   -6.9870   13.9740  -34.7090 C   0  0  0  0  0  0  0  0  0  0  0  0
   -7.7416   13.2996  -35.1400 H   0  0  0  0  0  0  0  0  0  0  0  0
   -7.3150   15.2510  -34.4110 N   0  0  0  0  0  0  0  0  0  0  0  0
   -6.4120   16.1290  -33.9060 C   0  0  0  0  0  0  0  0  0  0  0  0
   -6.8290   17.4410  -33.6470 C   0  0  0  0  0  0  0  0  0  0  0  0
   -7.8792   17.7245  -33.8107 H   0  0  0  0  0  0  0  0  0  0  0  0
   -5.9190   18.3880  -33.1830 C   0  0  0  0  0  0  0  0  0  0  0  0
   -6.4480   20.0320  -32.8610 Cl  0  0  0  0  0  0  0  0  0  0  0  0
   -4.5800   18.0400  -33.0150 C   0  0  0  0  0  0  0  0  0  0  0  0
   -3.8560   18.7980  -32.6813 H   0  0  0  0  0  0  0  0  0  0  0  0
   -4.1510   16.7330  -33.2680 C   0  0  0  0  0  0  0  0  0  0  0  0
   -3.0865   16.4817  -33.1509 H   0  0  0  0  0  0  0  0  0  0  0  0
   -5.0620   15.7280  -33.6720 C   0  0  0  0  0  0  0  0  0  0  0  0
   -2.5900   20.4560  -30.9020 C   0  0  0  0  0  0  0  0  0  0  0  0
   -2.1307   19.9352  -31.7551 H   0  0  0  0  0  0  0  0  0  0  0  0
   -3.6353   20.1461  -30.7560 H   0  0  0  0  0  0  0  0  0  0  0  0
    0.2630   21.4010  -33.4240 C   0  0  2  0  0  0  0  0  0  0  0  0
    0.6749   22.1822  -32.7683 H   0  0  0  0  0  0  0  0  0  0  0  0
    0.1230   21.9750  -34.7680 N   0  0  0  0  0  0  0  0  0  0  0  0
   -0.8620   22.3010  -34.8960 H   0  0  0  0  0  0  0  0  0  0  0  0
    0.7110   22.8370  -34.8300 H   0  0  0  0  0  0  0  0  0  0  0  0
    1.2970   20.2450  -33.3990 C   0  0  0  0  0  0  0  0  0  0  0  0
    1.7287   20.2146  -32.3877 H   0  0  0  0  0  0  0  0  0  0  0  0
    1.9980   20.4869  -34.2114 H   0  0  0  0  0  0  0  0  0  0  0  0
    0.8000   18.8140  -33.7310 C   0  0  2  0  0  0  0  0  0  0  0  0
    0.3307   18.3936  -32.8293 H   0  0  0  0  0  0  0  0  0  0  0  0
    1.9600   18.0130  -34.1480 N   0  0  0  0  0  0  0  0  0  0  0  0
    1.8900   17.0710  -33.7000 H   0  0  0  0  0  0  0  0  0  0  0  0
    1.8890   17.8250  -35.1740 H   0  0  0  0  0  0  0  0  0  0  0  0
  1  2  1  0
  2  3  1  0
  3  4  1  1
  3  5  1  0
  5  6  1  1
  5  7  1  0
  7  8  1  0
  5  9  1  0
  9 10  1  6
  9 11  1  0
 11 12  1  0
 11 13  1  0
  9 14  1  0
 14 15  1  0
 14 16  1  0
 14 17  1  0
 17 18  1  6
 17 19  1  0
 19 20  1  0
 19 21  1  0
 17 22  1  0
 22 23  1  1
 22 24  1  0
 24 25  1  0
 25 26  1  6
 25 27  1  0
 27 28  1  0
 27 29  1  0
 27 30  1  0
 30 31  1  0
 30 32  1  0
 30 33  1  0
 33 34  1  1
 33 35  1  0
 35 36  1  0
 36 37  1  6
 36 38  1  0
 38 39  1  0
 39 40  1  1
 39 41  1  0
 41 42  1  0
 41 43  1  0
 41 44  1  0
 39 45  1  0
 45 46  1  0
 45 47  1  0
 45 48  1  0
 48 49  1  0
 49 50  1  0
 49 51  1  0
 49 52  1  0
 52 53  2  0
 52 54  1  0
 54 55  1  0
 54 56  1  0
 56 57  1  0
 56 58  1  0
 56 59  1  0
 59 60  1  0
 59 61  1  0
 59 62  1  0
 62 63  1  0
 62 64  1  0
 62 65  1  0
 65 66  1  0
 65 67  1  0
 65 68  1  0
 68 69  1  0
 68 70  1  0
 68 71  1  0
 71 72  1  0
 71 73  1  0
 71 74  1  0
 74 75  1  0
 74 76  1  0
 76 77  1  0
 76 78  1  0
 76 79  1  0
 79 80  1  0
 79 81  1  0
 79 82  1  0
 82 83  2  0
 83 84  1  0
 84 85  1  0
 84 86  2  0
 86 87  1  0
 86 88  1  0
 88 89  1  0
 89 90  2  0
 90 91  1  0
 90 92  1  0
 92 93  1  0
 92 94  2  0
 94 95  1  0
 94 96  1  0
 96 97  1  0
 96 98  2  0
 48 99  1  0
 99100  1  0
 99101  1  0
 33102  1  0
102103  1  1
102104  1  0
104105  1  0
104106  1  0
102107  1  0
107108  1  0
107109  1  0
107110  1  0
110111  1  1
110112  1  0
112113  1  0
112114  1  0
 22  3  1  0
110 25  1  0
 99 36  1  0
 98 83  1  0
 98 89  1  0
M  CHG  1  88  -1
M  END
>  <UniqueID>  (37) 
35

>  <SMILES>  (37) 
C[C@H]1CN(CC(=O)NCCCCCCNCC/N=c2/cc[n-]c3cc(Cl)ccc23)C[C@H](OC2CCC(OC3C(N)CC(N)C(O)C3O)C(N)CC2N)O1

>  <Energy>  (37) 
167.28651302879652

>  <Genealogy>  (37) 
CC1CN(CC(=O)NCCCCCCNCCN=c2cc[n-]c3cc(Cl)ccc23)CC(OC2CCC(OC3C(N)CC(N)C(O)C3O)C(N)CC2N)O1 (protonated)
C[C@H]1CN(CC(=O)NCCCCCCNCCN=c2cc[n-]c3cc(Cl)ccc23)C[C@H](OC2CCC(OC3C(N)CC(N)C(O)C3O)C(N)CC2N)O1 (chirality)
C[C@H]1CN(CC(=O)NCCCCCCNCC/N=c2/cc[n-]c3cc(Cl)ccc23)C[C@H](OC2CCC(OC3C(N)CC(N)C(O)C3O)C(N)CC2N)O1 (cis-trans isomerization)
C[C@H]1CN(CC(=O)NCCCCCCNCC/N=c2/cc[n-]c3cc(Cl)ccc23)C[C@H](OC2CCC(OC3C(N)CC(N)C(O)C3O)C(N)CC2N)O1 (3D coordinates assigned)
C[C@H]1CN(CC(=O)NCCCCCCNCC/N=c2/cc[n-]c3cc(Cl)ccc23)C[C@H](OC2CCC(OC3C(N)CC(N)C(O)C3O)C(N)CC2N)O1 (nonaromatic ring conformer: 167.28651302879652 kcal/mol)

>  <smiles>  (37) 
CC1CN(CC(=O)NCCCCCCNCCN=c2cc[nH]c3cc(Cl)ccc23)CC(OC2CCC(OC3C(N)CC(N)C(O)C3O)C(N)CC2N)O1

>  <score_type>  (37) 
oracle

>  <origin>  (37) 
adg

>  <m_score__min__energy>  (37) 
-6.21

>  <m_primary>  (37) 
energy

$$$$
37:0
     RDKit          3D

 68 72  0  0  0  0  0  0  0  0999 V2000
   -2.9080   24.1780  -27.6580 C   0  0  0  0  0  0  0  0  0  0  0  0
   -2.0550   24.6170  -26.5010 C   0  0  0  0  0  0  0  0  0  0  0  0
   -2.2850   25.8760  -25.9190 C   0  0  0  0  0  0  0  0  0  0  0  0
   -1.5110   26.3080  -24.8380 C   0  0  0  0  0  0  0  0  0  0  0  0
   -0.4970   25.4930  -24.3330 C   0  0  0  0  0  0  0  0  0  0  0  0
   -0.2460   24.2480  -24.9130 C   0  0  0  0  0  0  0  0  0  0  0  0
   -1.0080   23.8070  -26.0060 C   0  0  0  0  0  0  0  0  0  0  0  0
   -0.7120   22.5310  -26.5960 N   0  0  0  0  0  0  0  0  0  0  0  0
    0.2330   22.4450  -27.7130 C   0  0  0  0  0  0  0  0  0  0  0  0
    0.8430   21.0360  -27.8060 C   0  0  0  0  0  0  0  0  0  0  0  0
   -0.1740   19.9440  -27.8020 N   0  0  0  0  0  0  0  0  0  0  0  0
   -0.4430   19.3860  -29.1540 C   0  0  0  0  0  0  0  0  0  0  0  0
   -0.4140   20.4260  -30.2950 C   0  0  0  0  0  0  0  0  0  0  0  0
   -1.5300   21.4640  -30.1260 C   0  0  0  0  0  0  0  0  0  0  0  0
   -2.0160   22.0250  -31.4730 C   0  0  0  0  0  0  0  0  0  0  0  0
   -3.4670   21.8000  -31.6680 N   0  0  0  0  0  0  0  0  0  0  0  0
   -3.9000   20.6080  -32.1800 C   0  0  0  0  0  0  0  0  0  0  0  0
   -3.0690   19.6950  -32.4530 O   0  0  0  0  0  0  0  0  0  0  0  0
   -5.2610   20.3880  -32.4220 C   0  0  0  0  0  0  0  0  0  0  0  0
   -5.6940   19.0980  -33.0120 C   0  0  0  0  0  0  0  0  0  0  0  0
   -5.3590   18.7800  -34.3370 C   0  0  0  0  0  0  0  0  0  0  0  0
   -5.7780   17.5690  -34.8960 C   0  0  0  0  0  0  0  0  0  0  0  0
   -6.5370   16.6730  -34.1390 C   0  0  0  0  0  0  0  0  0  0  0  0
   -6.8800   16.9870  -32.8210 C   0  0  0  0  0  0  0  0  0  0  0  0
   -6.4630   18.1970  -32.2580 C   0  0  0  0  0  0  0  0  0  0  0  0
   -6.1760   21.4160  -32.1140 C   0  0  0  0  0  0  0  0  0  0  0  0
   -7.5630   21.2330  -32.3070 C   0  0  0  0  0  0  0  0  0  0  0  0
   -8.4500   22.2590  -32.0030 C   0  0  0  0  0  0  0  0  0  0  0  0
   -7.9680   23.4590  -31.4990 C   0  0  0  0  0  0  0  0  0  0  0  0
   -6.5990   23.6180  -31.2990 C   0  0  0  0  0  0  0  0  0  0  0  0
   -5.7140   22.6100  -31.5980 N   0  0  0  0  0  0  0  0  0  0  0  0
   -4.3690   22.7960  -31.3820 C   0  0  0  0  0  0  0  0  0  0  0  0
   -3.9530   23.8980  -30.9200 O   0  0  0  0  0  0  0  0  0  0  0  0
   -1.4310   20.2510  -27.0640 C   0  0  0  0  0  0  0  0  0  0  0  0
   -1.2260   21.3090  -25.9780 C   0  0  0  0  0  0  0  0  0  0  0  0
   -3.8260   23.7056  -27.2783 H   0  0  0  0  0  0  0  0  0  0  0  0
   -3.1722   25.0522  -28.2712 H   0  0  0  0  0  0  0  0  0  0  0  0
   -2.3502   23.4550  -28.2712 H   0  0  0  0  0  0  0  0  0  0  0  0
   -3.0790   26.5252  -26.3167 H   0  0  0  0  0  0  0  0  0  0  0  0
   -1.7016   27.2920  -24.3847 H   0  0  0  0  0  0  0  0  0  0  0  0
    0.1052   25.8318  -23.4771 H   0  0  0  0  0  0  0  0  0  0  0  0
    0.5539   23.6089  -24.5108 H   0  0  0  0  0  0  0  0  0  0  0  0
   -0.2956   22.6716  -28.6507 H   0  0  0  0  0  0  0  0  0  0  0  0
    1.0436   23.1695  -27.5453 H   0  0  0  0  0  0  0  0  0  0  0  0
    1.4222   20.9685  -28.7387 H   0  0  0  0  0  0  0  0  0  0  0  0
    1.4704   20.8962  -26.9133 H   0  0  0  0  0  0  0  0  0  0  0  0
    0.2710   19.1550  -27.2740 H   0  0  0  0  0  0  0  0  0  0  0  0
    0.3181   18.6210  -29.3673 H   0  0  0  0  0  0  0  0  0  0  0  0
   -1.4653   18.9809  -29.1268 H   0  0  0  0  0  0  0  0  0  0  0  0
    0.5585   20.9400  -30.2877 H   0  0  0  0  0  0  0  0  0  0  0  0
   -0.5674   19.9011  -31.2494 H   0  0  0  0  0  0  0  0  0  0  0  0
   -2.3797   20.9892  -29.6135 H   0  0  0  0  0  0  0  0  0  0  0  0
   -1.1238   22.3017  -29.5401 H   0  0  0  0  0  0  0  0  0  0  0  0
   -1.8157   23.1062  -31.5021 H   0  0  0  0  0  0  0  0  0  0  0  0
   -1.4766   21.5027  -32.2769 H   0  0  0  0  0  0  0  0  0  0  0  0
   -4.7653   19.4852  -34.9373 H   0  0  0  0  0  0  0  0  0  0  0  0
   -5.5096   17.3212  -35.9336 H   0  0  0  0  0  0  0  0  0  0  0  0
   -6.8647   15.7202  -34.5804 H   0  0  0  0  0  0  0  0  0  0  0  0
   -7.4786   16.2815  -32.2260 H   0  0  0  0  0  0  0  0  0  0  0  0
   -6.7380   18.4437  -31.2219 H   0  0  0  0  0  0  0  0  0  0  0  0
   -7.9418   20.2773  -32.6984 H   0  0  0  0  0  0  0  0  0  0  0  0
   -9.5297   22.1205  -32.1612 H   0  0  0  0  0  0  0  0  0  0  0  0
   -8.6620   24.2781  -31.2594 H   0  0  0  0  0  0  0  0  0  0  0  0
   -6.2191   24.5677  -30.8943 H   0  0  0  0  0  0  0  0  0  0  0  0
   -2.1799   20.6203  -27.7801 H   0  0  0  0  0  0  0  0  0  0  0  0
   -1.7657   19.3258  -26.5721 H   0  0  0  0  0  0  0  0  0  0  0  0
   -2.1855   21.5210  -25.4836 H   0  0  0  0  0  0  0  0  0  0  0  0
   -0.5087   20.9402  -25.2300 H   0  0  0  0  0  0  0  0  0  0  0  0
  1  2  1  0
  2  3  2  0
  3  4  1  0
  4  5  2  0
  5  6  1  0
  6  7  2  0
  7  8  1  0
  8  9  1  0
  9 10  1  0
 10 11  1  0
 11 12  1  0
 12 13  1  0
 13 14  1  0
 14 15  1  0
 15 16  1  0
 16 17  1  0
 17 18  2  0
 17 19  1  0
 19 20  1  0
 20 21  2  0
 21 22  1  0
 22 23  2  0
 23 24  1  0
 24 25  2  0
 19 26  2  0
 26 27  1  0
 27 28  2  0
 28 29  1  0
 29 30  2  0
 30 31  1  0
 31 32  1  0
 32 33  2  0
 11 34  1  0
 34 35  1  0
  7  2  1  0
 35  8  1  0
 32 16  1  0
 25 20  1  0
 31 26  1  0
  1 36  1  0
  1 37  1  0
  1 38  1  0
  3 39  1  0
  4 40  1  0
  5 41  1  0
  6 42  1  0
  9 43  1  0
  9 44  1  0
 10 45  1  0
 10 46  1  0
 11 47  1  0
 12 48  1  0
 12 49  1  0
 13 50  1  0
 13 51  1  0
 14 52  1  0
 14 53  1  0
 15 54  1  0
 15 55  1  0
 21 56  1  0
 22 57  1  0
 23 58  1  0
 24 59  1  0
 25 60  1  0
 27 61  1  0
 28 62  1  0
 29 63  1  0
 30 64  1  0
 34 65  1  0
 34 66  1  0
 35 67  1  0
 35 68  1  0
M  CHG  1  11   1
M  END
>  <UniqueID>  (38) 
36

>  <SMILES>  (38) 
Cc1ccccc1N1CC[NH+](CCCCn2c(=O)c(-c3ccccc3)c3ccccn3c2=O)CC1

>  <Energy>  (38) 
102.343184984844

>  <Genealogy>  (38) 
Cc1ccccc1N1CC[NH+](CCCCn2c(=O)c(-c3ccccc3)c3ccccn3c2=O)CC1 (protonated)
Cc1ccccc1N1CC[NH+](CCCCn2c(=O)c(-c3ccccc3)c3ccccn3c2=O)CC1 (3D coordinates assigned)
Cc1ccccc1N1CC[NH+](CCCCn2c(=O)c(-c3ccccc3)c3ccccn3c2=O)CC1 (nonaromatic ring conformer: 102.343184984844 kcal/mol)

>  <smiles>  (38) 
Cc1ccccc1N1CCN(CCCCn2c(=O)c(-c3ccccc3)c3ccccn3c2=O)CC1

>  <score_type>  (38) 
oracle

>  <origin>  (38) 
adg

>  <m_score__min__energy>  (38) 
-9.3100000000000005

>  <m_primary>  (38) 
energy

$$$$
38:0
     RDKit          3D

 41 42  0  0  0  0  0  0  0  0999 V2000
   -0.4930   22.8340  -26.9520 C   0  0  0  0  0  0  0  0  0  0  0  0
   -1.4940   23.4590  -27.8980 C   0  0  0  0  0  0  0  0  0  0  0  0
   -1.1970   24.7100  -28.4590 C   0  0  0  0  0  0  0  0  0  0  0  0
   -2.0510   25.2910  -29.3340 N   0  0  0  0  0  0  0  0  0  0  0  0
   -3.2020   24.6960  -29.7260 C   0  0  0  0  0  0  0  0  0  0  0  0
   -3.9440   25.2890  -30.5560 O   0  0  0  0  0  0  0  0  0  0  0  0
   -3.5680   23.4340  -29.2100 C   0  0  0  0  0  0  0  0  0  0  0  0
   -4.8340   22.7520  -29.7170 C   0  0  0  0  0  0  0  0  0  0  0  0
   -6.0360   23.5410  -29.3930 N   0  0  0  0  0  0  0  0  0  0  0  0
   -6.5710   24.2720  -30.5700 C   0  0  0  0  0  0  0  0  0  0  0  0
   -7.5730   23.4360  -31.3950 C   0  0  0  0  0  0  0  0  0  0  0  0
   -7.6840   22.0580  -30.8560 N   0  0  0  0  0  0  0  0  0  0  0  0
   -9.0650   21.5330  -30.8790 C   0  0  0  0  0  0  0  0  0  0  0  0
   -9.1180   20.3340  -31.8170 C   0  0  0  0  0  0  0  0  0  0  0  0
   -7.7840   20.3290  -32.5290 C   0  0  0  0  0  0  0  0  0  0  0  0
   -6.8600   21.0920  -31.6000 C   0  0  0  0  0  0  0  0  0  0  0  0
   -2.7250   22.8330  -28.2230 C   0  0  0  0  0  0  0  0  0  0  0  0
   -3.0860   21.5150  -27.5720 C   0  0  0  0  0  0  0  0  0  0  0  0
   -0.8006   23.0260  -25.9135 H   0  0  0  0  0  0  0  0  0  0  0  0
   -0.4509   21.7489  -27.1273 H   0  0  0  0  0  0  0  0  0  0  0  0
    0.5005   23.2725  -27.1273 H   0  0  0  0  0  0  0  0  0  0  0  0
   -0.2630   25.2228  -28.1858 H   0  0  0  0  0  0  0  0  0  0  0  0
   -4.7655   22.6360  -30.8087 H   0  0  0  0  0  0  0  0  0  0  0  0
   -4.9201   21.7718  -29.2252 H   0  0  0  0  0  0  0  0  0  0  0  0
   -5.7850   24.2380  -28.6570 H   0  0  0  0  0  0  0  0  0  0  0  0
   -6.7730   22.9170  -28.9850 H   0  0  0  0  0  0  0  0  0  0  0  0
   -7.0802   25.1807  -30.2165 H   0  0  0  0  0  0  0  0  0  0  0  0
   -5.7199   24.5070  -31.2261 H   0  0  0  0  0  0  0  0  0  0  0  0
   -8.5610   23.9180  -31.3572 H   0  0  0  0  0  0  0  0  0  0  0  0
   -7.2123   23.3792  -32.4326 H   0  0  0  0  0  0  0  0  0  0  0  0
   -9.3597   21.2230  -29.8656 H   0  0  0  0  0  0  0  0  0  0  0  0
   -9.7561   22.3135  -31.2302 H   0  0  0  0  0  0  0  0  0  0  0  0
   -9.2543   19.4035  -31.2464 H   0  0  0  0  0  0  0  0  0  0  0  0
   -9.9601   20.3999  -32.5216 H   0  0  0  0  0  0  0  0  0  0  0  0
   -7.4250   19.2997  -32.6765 H   0  0  0  0  0  0  0  0  0  0  0  0
   -7.8405   20.7815  -33.5300 H   0  0  0  0  0  0  0  0  0  0  0  0
   -6.3720   20.3970  -30.9009 H   0  0  0  0  0  0  0  0  0  0  0  0
   -6.0754   21.6095  -32.1714 H   0  0  0  0  0  0  0  0  0  0  0  0
   -3.0556   21.6259  -26.4780 H   0  0  0  0  0  0  0  0  0  0  0  0
   -4.0986   21.2179  -27.8824 H   0  0  0  0  0  0  0  0  0  0  0  0
   -2.3661   20.7434  -27.8824 H   0  0  0  0  0  0  0  0  0  0  0  0
  1  2  1  0
  2  3  2  0
  3  4  1  0
  4  5  1  0
  5  6  2  0
  5  7  1  0
  7  8  1  0
  8  9  1  0
  9 10  1  0
 10 11  1  0
 11 12  1  0
 12 13  1  0
 13 14  1  0
 14 15  1  0
 15 16  1  0
  7 17  2  0
 17 18  1  0
 17  2  1  0
 16 12  1  0
  1 19  1  0
  1 20  1  0
  1 21  1  0
  3 22  1  0
  8 23  1  0
  8 24  1  0
  9 25  1  0
  9 26  1  0
 10 27  1  0
 10 28  1  0
 11 29  1  0
 11 30  1  0
 13 31  1  0
 13 32  1  0
 14 33  1  0
 14 34  1  0
 15 35  1  0
 15 36  1  0
 16 37  1  0
 16 38  1  0
 18 39  1  0
 18 40  1  0
 18 41  1  0
M  CHG  2   4  -1   9   1
M  END
>  <UniqueID>  (39) 
37

>  <SMILES>  (39) 
Cc1c[n-]c(=O)c(C[NH2+]CCN2CCCC2)c1C

>  <Energy>  (39) 
49.75903315682242

>  <Genealogy>  (39) 
Cc1c[n-]c(=O)c(C[NH2+]CCN2CCCC2)c1C (protonated)
Cc1c[n-]c(=O)c(C[NH2+]CCN2CCCC2)c1C (3D coordinates assigned)
Cc1c[n-]c(=O)c(C[NH2+]CCN2CCCC2)c1C (nonaromatic ring conformer: 49.75903315682242 kcal/mol)

>  <smiles>  (39) 
Cc1c[nH]c(=O)c(CNCCN2CCCC2)c1C

>  <score_type>  (39) 
oracle

>  <origin>  (39) 
adg

>  <m_score__min__energy>  (39) 
-8.2799999999999994

>  <m_primary>  (39) 
energy

$$$$
39:0
     RDKit          3D

 52 55  0  0  0  0  0  0  0  0999 V2000
   -9.7480   20.9520  -31.2420 H   0  0  0  0  0  0  0  0  0  0  0  0
   -9.6480   21.9040  -30.9160 O   0  0  0  0  0  0  0  0  0  0  0  0
   -8.7980   22.7690  -31.5680 N   0  0  0  0  0  0  0  0  0  0  0  0
   -7.5800   22.4400  -31.8780 C   0  0  0  0  0  0  0  0  0  0  0  0
   -6.4250   23.1630  -31.3030 C   0  0  0  0  0  0  0  0  0  0  0  0
   -5.1290   22.6340  -31.4060 C   0  0  0  0  0  0  0  0  0  0  0  0
   -4.9689   21.6733  -31.9173 H   0  0  0  0  0  0  0  0  0  0  0  0
   -4.0410   23.3220  -30.8620 C   0  0  0  0  0  0  0  0  0  0  0  0
   -3.0297   22.8977  -30.9474 H   0  0  0  0  0  0  0  0  0  0  0  0
   -4.2270   24.5470  -30.2090 C   0  0  0  0  0  0  0  0  0  0  0  0
   -3.1020   25.1970  -29.6840 O   0  0  0  0  0  0  0  0  0  0  0  0
   -2.0460   24.5430  -28.9830 C   0  0  0  0  0  0  0  0  0  0  0  0
   -2.3599   23.5246  -28.7102 H   0  0  0  0  0  0  0  0  0  0  0  0
   -1.1539   24.4868  -29.6241 H   0  0  0  0  0  0  0  0  0  0  0  0
   -1.7280   25.3210  -27.7400 C   0  0  0  0  0  0  0  0  0  0  0  0
   -2.3570   24.9970  -26.5270 C   0  0  0  0  0  0  0  0  0  0  0  0
   -3.0512   24.1450  -26.4799 H   0  0  0  0  0  0  0  0  0  0  0  0
   -2.1040   25.7530  -25.3800 C   0  0  0  0  0  0  0  0  0  0  0  0
   -2.5944   25.4908  -24.4309 H   0  0  0  0  0  0  0  0  0  0  0  0
   -1.2300   26.8410  -25.4350 C   0  0  0  0  0  0  0  0  0  0  0  0
   -1.0374   27.4354  -24.5297 H   0  0  0  0  0  0  0  0  0  0  0  0
   -0.5960   27.1790  -26.6420 C   0  0  0  0  0  0  0  0  0  0  0  0
    0.3100   28.3710  -26.7190 C   0  0  0  0  0  0  0  0  0  0  0  0
    0.5638   28.7049  -25.7021 H   0  0  0  0  0  0  0  0  0  0  0  0
    1.2305   28.0978  -27.2557 H   0  0  0  0  0  0  0  0  0  0  0  0
   -0.1996   29.1848  -27.2557 H   0  0  0  0  0  0  0  0  0  0  0  0
   -0.8640   26.4260  -27.7960 C   0  0  0  0  0  0  0  0  0  0  0  0
   -0.3937   26.7037  -28.7508 H   0  0  0  0  0  0  0  0  0  0  0  0
   -5.5260   25.0800  -30.1070 C   0  0  0  0  0  0  0  0  0  0  0  0
   -5.6854   26.0408  -29.5957 H   0  0  0  0  0  0  0  0  0  0  0  0
   -6.6140   24.3930  -30.6530 C   0  0  0  0  0  0  0  0  0  0  0  0
   -7.6250   24.8189  -30.5729 H   0  0  0  0  0  0  0  0  0  0  0  0
   -7.3600   21.2210  -32.7200 C   0  0  2  0  0  0  0  0  0  0  0  0
   -6.7410   21.7019  -33.4917 H   0  0  0  0  0  0  0  0  0  0  0  0
   -8.4520   20.3310  -32.6780 O   0  0  0  0  0  0  0  0  0  0  0  0
   -7.2940   19.9380  -31.9750 C   0  0  1  0  0  0  0  0  0  0  0  0
   -7.0183   19.6617  -30.9466 H   0  0  0  0  0  0  0  0  0  0  0  0
   -6.5850   18.8150  -32.6690 C   0  0  0  0  0  0  0  0  0  0  0  0
   -6.4330   17.5760  -32.0300 C   0  0  0  0  0  0  0  0  0  0  0  0
   -6.8145   17.4359  -31.0078 H   0  0  0  0  0  0  0  0  0  0  0  0
   -5.7980   16.5180  -32.6880 C   0  0  0  0  0  0  0  0  0  0  0  0
   -5.6731   15.5529  -32.1751 H   0  0  0  0  0  0  0  0  0  0  0  0
   -5.3200   16.6770  -33.9940 C   0  0  0  0  0  0  0  0  0  0  0  0
   -4.6940   15.5830  -34.6110 O   0  0  0  0  0  0  0  0  0  0  0  0
   -3.3630   15.6020  -35.1200 C   0  0  0  0  0  0  0  0  0  0  0  0
   -2.6502   15.6122  -34.2823 H   0  0  0  0  0  0  0  0  0  0  0  0
   -3.1929   14.7062  -35.7353 H   0  0  0  0  0  0  0  0  0  0  0  0
   -3.2186   16.5023  -35.7353 H   0  0  0  0  0  0  0  0  0  0  0  0
   -5.4860   17.9170  -34.6400 C   0  0  0  0  0  0  0  0  0  0  0  0
   -5.1146   18.0543  -35.6662 H   0  0  0  0  0  0  0  0  0  0  0  0
   -6.1210   18.9740  -33.9820 C   0  0  0  0  0  0  0  0  0  0  0  0
   -6.2574   19.9361  -34.4975 H   0  0  0  0  0  0  0  0  0  0  0  0
  1  2  1  0
  2  3  1  0
  3  4  2  0
  4  5  1  0
  5  6  2  0
  6  7  1  0
  6  8  1  0
  8  9  1  0
  8 10  2  0
 10 11  1  0
 11 12  1  0
 12 13  1  0
 12 14  1  0
 12 15  1  0
 15 16  2  0
 16 17  1  0
 16 18  1  0
 18 19  1  0
 18 20  2  0
 20 21  1  0
 20 22  1  0
 22 23  1  0
 23 24  1  0
 23 25  1  0
 23 26  1  0
 22 27  2  0
 27 28  1  0
 10 29  1  0
 29 30  1  0
 29 31  2  0
 31 32  1  0
  4 33  1  0
 33 34  1  6
 33 35  1  0
 35 36  1  0
 36 37  1  1
 36 38  1  0
 38 39  2  0
 39 40  1  0
 39 41  1  0
 41 42  1  0
 41 43  2  0
 43 44  1  0
 44 45  1  0
 45 46  1  0
 45 47  1  0
 45 48  1  0
 43 49  1  0
 49 50  1  0
 49 51  2  0
 51 52  1  0
 31  5  1  0
 36 33  1  0
 51 38  1  0
 27 15  1  0
M  END
>  <UniqueID>  (40) 
38

>  <SMILES>  (40) 
COc1ccc([C@@H]2O[C@H]2/C(=N/O)c2ccc(OCc3cccc(C)c3)cc2)cc1

>  <Energy>  (40) 
389.66835451609114

>  <Genealogy>  (40) 
COc1ccc([C@@H]2O[C@H]2C(=NO)c2ccc(OCc3cccc(C)c3)cc2)cc1 (chirality)
COc1ccc([C@@H]2O[C@H]2/C(=N/O)c2ccc(OCc3cccc(C)c3)cc2)cc1 (cis-trans isomerization)
COc1ccc([C@@H]2O[C@H]2/C(=N/O)c2ccc(OCc3cccc(C)c3)cc2)cc1 (3D coordinates assigned)
COc1ccc([C@@H]2O[C@H]2/C(=N/O)c2ccc(OCc3cccc(C)c3)cc2)cc1 (nonaromatic ring conformer: 389.66835451609114 kcal/mol)

>  <smiles>  (40) 
COc1ccc(C2OC2C(=NO)c2ccc(OCc3cccc(C)c3)cc2)cc1

>  <score_type>  (40) 
oracle

>  <origin>  (40) 
adg

>  <m_score__min__energy>  (40) 
-9.8900000000000006

>  <m_primary>  (40) 
energy

$$$$
40:0
     RDKit          3D

 43 45  0  0  0  0  0  0  0  0999 V2000
   -9.1410   18.3680  -31.9550 N   0  0  0  0  0  0  0  0  0  0  0  0
   -8.7840   19.4600  -31.8240 C   0  0  0  0  0  0  0  0  0  0  0  0
   -8.3420   20.8170  -31.6610 C   0  0  0  0  0  0  0  0  0  0  0  0
   -9.0740   21.9410  -31.9710 C   0  0  0  0  0  0  0  0  0  0  0  0
   -8.2630   23.0110  -31.6550 C   0  0  0  0  0  0  0  0  0  0  0  0
   -7.0820   22.4670  -31.1710 C   0  0  0  0  0  0  0  0  0  0  0  0
   -5.8870   23.2030  -30.6970 C   0  0  0  0  0  0  0  0  0  0  0  0
   -4.7870   22.4890  -30.1930 C   0  0  0  0  0  0  0  0  0  0  0  0
   -3.6480   23.1610  -29.7390 C   0  0  0  0  0  0  0  0  0  0  0  0
   -3.5910   24.5680  -29.7770 C   0  0  0  0  0  0  0  0  0  0  0  0
   -2.4750   25.2970  -29.3350 O   0  0  0  0  0  0  0  0  0  0  0  0
   -1.2210   24.7400  -28.9390 C   0  0  0  0  0  0  0  0  0  0  0  0
   -1.0720   24.7790  -27.4070 C   0  0  0  0  0  0  0  0  0  0  0  0
   -1.7080   25.9870  -26.8140 N   0  0  0  0  0  0  0  0  0  0  0  0
   -0.8470   27.1820  -26.9800 C   0  0  0  0  0  0  0  0  0  0  0  0
    0.4500   27.0960  -26.1530 C   0  0  0  0  0  0  0  0  0  0  0  0
    0.2340   26.4590  -24.7690 C   0  0  0  0  0  0  0  0  0  0  0  0
   -1.2350   26.4930  -24.3540 C   0  0  0  0  0  0  0  0  0  0  0  0
   -2.1210   25.7720  -25.3930 C   0  0  0  0  0  0  0  0  0  0  0  0
   -4.6840   25.2780  -30.2840 C   0  0  0  0  0  0  0  0  0  0  0  0
   -5.8230   24.6080  -30.7380 C   0  0  0  0  0  0  0  0  0  0  0  0
   -7.1640   21.1540  -31.1890 O   0  0  0  0  0  0  0  0  0  0  0  0
  -10.0927   21.9780  -32.3843 H   0  0  0  0  0  0  0  0  0  0  0  0
   -8.5037   24.0787  -31.7645 H   0  0  0  0  0  0  0  0  0  0  0  0
   -4.8222   21.3902  -30.1552 H   0  0  0  0  0  0  0  0  0  0  0  0
   -2.7928   22.5885  -29.3505 H   0  0  0  0  0  0  0  0  0  0  0  0
   -1.1644   23.6962  -29.2815 H   0  0  0  0  0  0  0  0  0  0  0  0
   -0.4110   25.3321  -29.3899 H   0  0  0  0  0  0  0  0  0  0  0  0
   -1.5470   23.8828  -26.9814 H   0  0  0  0  0  0  0  0  0  0  0  0
    0.0020   24.8110  -27.1715 H   0  0  0  0  0  0  0  0  0  0  0  0
   -2.5760   26.1890  -27.3660 H   0  0  0  0  0  0  0  0  0  0  0  0
   -0.5814   27.2802  -28.0429 H   0  0  0  0  0  0  0  0  0  0  0  0
   -1.4139   28.0540  -26.6217 H   0  0  0  0  0  0  0  0  0  0  0  0
    1.1813   26.4904  -26.7083 H   0  0  0  0  0  0  0  0  0  0  0  0
    0.8088   28.1233  -25.9922 H   0  0  0  0  0  0  0  0  0  0  0  0
    0.5709   25.4124  -24.8019 H   0  0  0  0  0  0  0  0  0  0  0  0
    0.8116   27.0364  -24.0322 H   0  0  0  0  0  0  0  0  0  0  0  0
   -1.3451   25.9944  -23.3797 H   0  0  0  0  0  0  0  0  0  0  0  0
   -1.5561   27.5430  -24.2883 H   0  0  0  0  0  0  0  0  0  0  0  0
   -2.0863   24.6925  -25.1844 H   0  0  0  0  0  0  0  0  0  0  0  0
   -3.1308   26.1966  -25.2924 H   0  0  0  0  0  0  0  0  0  0  0  0
   -4.6466   26.3766  -30.3259 H   0  0  0  0  0  0  0  0  0  0  0  0
   -6.6751   25.1826  -31.1300 H   0  0  0  0  0  0  0  0  0  0  0  0
  1  2  3  0
  2  3  1  0
  3  4  2  0
  4  5  1  0
  5  6  2  0
  6  7  1  0
  7  8  2  0
  8  9  1  0
  9 10  2  0
 10 11  1  0
 11 12  1  0
 12 13  1  0
 13 14  1  0
 14 15  1  0
 15 16  1  0
 16 17  1  0
 17 18  1  0
 18 19  1  0
 10 20  1  0
 20 21  2  0
  6 22  1  0
 22  3  1  0
 21  7  1  0
 19 14  1  0
  4 23  1  0
  5 24  1  0
  8 25  1  0
  9 26  1  0
 12 27  1  0
 12 28  1  0
 13 29  1  0
 13 30  1  0
 14 31  1  0
 15 32  1  0
 15 33  1  0
 16 34  1  0
 16 35  1  0
 17 36  1  0
 17 37  1  0
 18 38  1  0
 18 39  1  0
 19 40  1  0
 19 41  1  0
 20 42  1  0
 21 43  1  0
M  CHG  1  14   1
M  END
>  <UniqueID>  (41) 
39

>  <SMILES>  (41) 
N#Cc1ccc(-c2ccc(OCC[NH+]3CCCCC3)cc2)o1

>  <Energy>  (41) 
79.25133586818924

>  <Genealogy>  (41) 
N#Cc1ccc(-c2ccc(OCC[NH+]3CCCCC3)cc2)o1 (protonated)
N#Cc1ccc(-c2ccc(OCC[NH+]3CCCCC3)cc2)o1 (3D coordinates assigned)
N#Cc1ccc(-c2ccc(OCC[NH+]3CCCCC3)cc2)o1 (nonaromatic ring conformer: 79.25133586818924 kcal/mol)

>  <smiles>  (41) 
N#Cc1ccc(-c2ccc(OCCN3CCCCC3)cc2)o1

>  <score_type>  (41) 
oracle

>  <origin>  (41) 
adg

>  <m_score__min__energy>  (41) 
-7.1600000000000001

>  <m_primary>  (41) 
energy

$$$$
41:0
     RDKit          3D

 70 71  0  0  0  0  0  0  0  0999 V2000
   -0.1090   20.4850  -35.0100 C   0  0  0  0  0  0  0  0  0  0  0  0
   -1.3760   20.4850  -34.1410 C   0  0  0  0  0  0  0  0  0  0  0  0
   -1.4890   19.3200  -33.2220 N   0  0  0  0  0  0  0  0  0  0  0  0
   -1.5990   19.7120  -31.7920 C   0  0  0  0  0  0  0  0  0  0  0  0
   -0.9590   21.0720  -31.4910 C   0  0  0  0  0  0  0  0  0  0  0  0
   -0.3660   18.3570  -33.4260 C   0  0  0  0  0  0  0  0  0  0  0  0
   -0.7710   16.9040  -33.1280 C   0  0  0  0  0  0  0  0  0  0  0  0
   -2.1310   16.8400  -32.7150 O   0  0  0  0  0  0  0  0  0  0  0  0
   -3.1880   16.6550  -33.6100 C   0  0  0  0  0  0  0  0  0  0  0  0
   -3.1950   17.2630  -34.7160 O   0  0  0  0  0  0  0  0  0  0  0  0
   -4.3140   15.7230  -33.2220 C   0  0  0  0  0  0  0  0  0  0  0  0
   -5.2760   15.4720  -34.4120 C   0  0  0  0  0  0  0  0  0  0  0  0
   -6.6820   16.0600  -34.1910 C   0  0  0  0  0  0  0  0  0  0  0  0
   -6.6490   17.3980  -33.5590 N   0  0  0  0  0  0  0  0  0  0  0  0
   -6.1140   18.4520  -34.4520 C   0  0  0  0  0  0  0  0  0  0  0  0
   -5.4070   19.5280  -33.6710 C   0  0  0  0  0  0  0  0  0  0  0  0
   -4.1590   19.6460  -33.7950 O   0  0  0  0  0  0  0  0  0  0  0  0
   -6.1550   20.4780  -32.8140 C   0  0  0  0  0  0  0  0  0  0  0  0
   -7.5300   20.5090  -32.6430 C   0  0  0  0  0  0  0  0  0  0  0  0
   -7.7980   21.5720  -31.8060 C   0  0  0  0  0  0  0  0  0  0  0  0
   -9.1750   21.9950  -31.3850 C   0  0  0  0  0  0  0  0  0  0  0  0
   -6.6500   22.1910  -31.4420 N   0  0  0  0  0  0  0  0  0  0  0  0
   -6.5460   23.4000  -30.6150 C   0  0  0  0  0  0  0  0  0  0  0  0
   -5.8990   24.5370  -31.4100 C   0  0  0  0  0  0  0  0  0  0  0  0
   -4.6460   24.8770  -30.8470 O   0  0  0  0  0  0  0  0  0  0  0  0
   -4.5910   24.4790  -29.4940 C   0  0  0  0  0  0  0  0  0  0  0  0
   -5.6390   21.5310  -32.0630 C   0  0  0  0  0  0  0  0  0  0  0  0
   -4.1840   21.9010  -31.9830 C   0  0  0  0  0  0  0  0  0  0  0  0
   -5.9900   17.3960  -32.2250 C   0  0  0  0  0  0  0  0  0  0  0  0
   -5.0770   16.1780  -31.9630 C   0  0  0  0  0  0  0  0  0  0  0  0
    0.1934   19.4479  -35.2174 H   0  0  0  0  0  0  0  0  0  0  0  0
   -0.3146   21.0035  -35.9581 H   0  0  0  0  0  0  0  0  0  0  0  0
    0.7014   21.0035  -34.4767 H   0  0  0  0  0  0  0  0  0  0  0  0
   -1.3780   21.4031  -33.5351 H   0  0  0  0  0  0  0  0  0  0  0  0
   -2.2308   20.4258  -34.8308 H   0  0  0  0  0  0  0  0  0  0  0  0
   -2.3850   18.8420  -33.4810 H   0  0  0  0  0  0  0  0  0  0  0  0
   -2.6645   19.7591  -31.5228 H   0  0  0  0  0  0  0  0  0  0  0  0
   -1.0585   18.9571  -31.2022 H   0  0  0  0  0  0  0  0  0  0  0  0
   -0.8926   21.2130  -30.4021 H   0  0  0  0  0  0  0  0  0  0  0  0
    0.0501   21.1070  -31.9275 H   0  0  0  0  0  0  0  0  0  0  0  0
   -1.5752   21.8719  -31.9275 H   0  0  0  0  0  0  0  0  0  0  0  0
   -0.0319   18.4220  -34.4720 H   0  0  0  0  0  0  0  0  0  0  0  0
    0.4373   18.6291  -32.7256 H   0  0  0  0  0  0  0  0  0  0  0  0
   -0.6398   16.2981  -34.0367 H   0  0  0  0  0  0  0  0  0  0  0  0
   -0.1350   16.5165  -32.3185 H   0  0  0  0  0  0  0  0  0  0  0  0
   -3.8404   14.7660  -32.9579 H   0  0  0  0  0  0  0  0  0  0  0  0
   -4.8434   15.9301  -35.3137 H   0  0  0  0  0  0  0  0  0  0  0  0
   -5.3901   14.3828  -34.5155 H   0  0  0  0  0  0  0  0  0  0  0  0
   -7.1856   16.1434  -35.1654 H   0  0  0  0  0  0  0  0  0  0  0  0
   -7.2213   15.3845  -33.5107 H   0  0  0  0  0  0  0  0  0  0  0  0
   -5.4035   17.9965  -35.1575 H   0  0  0  0  0  0  0  0  0  0  0  0
   -6.9571   18.9114  -34.9887 H   0  0  0  0  0  0  0  0  0  0  0  0
   -8.2638   19.8207  -33.0877 H   0  0  0  0  0  0  0  0  0  0  0  0
   -9.2333   22.0129  -30.2867 H   0  0  0  0  0  0  0  0  0  0  0  0
   -9.3867   22.9996  -31.7799 H   0  0  0  0  0  0  0  0  0  0  0  0
   -9.9142   21.2825  -31.7799 H   0  0  0  0  0  0  0  0  0  0  0  0
   -7.5525   23.7082  -30.2956 H   0  0  0  0  0  0  0  0  0  0  0  0
   -5.9217   23.1787  -29.7368 H   0  0  0  0  0  0  0  0  0  0  0  0
   -5.7537   24.2149  -32.4517 H   0  0  0  0  0  0  0  0  0  0  0  0
   -6.5576   25.4174  -31.3770 H   0  0  0  0  0  0  0  0  0  0  0  0
   -4.7128   25.3604  -28.8473 H   0  0  0  0  0  0  0  0  0  0  0  0
   -5.3984   23.7602  -29.2901 H   0  0  0  0  0  0  0  0  0  0  0  0
   -3.6190   24.0061  -29.2901 H   0  0  0  0  0  0  0  0  0  0  0  0
   -3.8826   21.9776  -30.9279 H   0  0  0  0  0  0  0  0  0  0  0  0
   -3.5811   21.1276  -32.4813 H   0  0  0  0  0  0  0  0  0  0  0  0
   -4.0238   22.8685  -32.4813 H   0  0  0  0  0  0  0  0  0  0  0  0
   -5.3793   18.3072  -32.1422 H   0  0  0  0  0  0  0  0  0  0  0  0
   -6.7962   17.3489  -31.4781 H   0  0  0  0  0  0  0  0  0  0  0  0
   -4.3456   16.4473  -31.1868 H   0  0  0  0  0  0  0  0  0  0  0  0
   -5.7200   15.3439  -31.6454 H   0  0  0  0  0  0  0  0  0  0  0  0
  1  2  1  0
  2  3  1  0
  3  4  1  0
  4  5  1  0
  3  6  1  0
  6  7  1  0
  7  8  1  0
  8  9  1  0
  9 10  2  0
  9 11  1  0
 11 12  1  0
 12 13  1  0
 13 14  1  0
 14 15  1  0
 15 16  1  0
 16 17  2  0
 16 18  1  0
 18 19  1  0
 19 20  2  0
 20 21  1  0
 20 22  1  0
 22 23  1  0
 23 24  1  0
 24 25  1  0
 25 26  1  0
 22 27  1  0
 27 28  1  0
 14 29  1  0
 29 30  1  0
 30 11  1  0
 27 18  2  0
  1 31  1  0
  1 32  1  0
  1 33  1  0
  2 34  1  0
  2 35  1  0
  3 36  1  0
  4 37  1  0
  4 38  1  0
  5 39  1  0
  5 40  1  0
  5 41  1  0
  6 42  1  0
  6 43  1  0
  7 44  1  0
  7 45  1  0
 11 46  1  0
 12 47  1  0
 12 48  1  0
 13 49  1  0
 13 50  1  0
 15 51  1  0
 15 52  1  0
 19 53  1  0
 21 54  1  0
 21 55  1  0
 21 56  1  0
 23 57  1  0
 23 58  1  0
 24 59  1  0
 24 60  1  0
 26 61  1  0
 26 62  1  0
 26 63  1  0
 28 64  1  0
 28 65  1  0
 28 66  1  0
 29 67  1  0
 29 68  1  0
 30 69  1  0
 30 70  1  0
M  CHG  1   3   1
M  END
>  <UniqueID>  (42) 
40

>  <SMILES>  (42) 
CC[NH+](CC)CCOC(=O)C1CCN(CC(=O)c2cc(C)n(CCOC)c2C)CC1

>  <Energy>  (42) 
104.78498226062874

>  <Genealogy>  (42) 
CC[NH+](CC)CCOC(=O)C1CCN(CC(=O)c2cc(C)n(CCOC)c2C)CC1 (protonated)
CC[NH+](CC)CCOC(=O)C1CCN(CC(=O)c2cc(C)n(CCOC)c2C)CC1 (3D coordinates assigned)
CC[NH+](CC)CCOC(=O)C1CCN(CC(=O)c2cc(C)n(CCOC)c2C)CC1 (nonaromatic ring conformer: 104.78498226062874 kcal/mol)

>  <smiles>  (42) 
CCN(CC)CCOC(=O)C1CCN(CC(=O)c2cc(C)n(CCOC)c2C)CC1

>  <score_type>  (42) 
oracle

>  <origin>  (42) 
adg

>  <m_score__min__energy>  (42) 
-9.5

>  <m_primary>  (42) 
energy

$$$$
42:0
     RDKit          3D

 32 34  0  0  0  0  0  0  0  0999 V2000
   -1.2300   26.0160  -28.9780 N   0  0  0  0  0  0  0  0  0  0  0  0
   -1.2650   24.3400  -28.5600 S   0  0  0  0  0  0  0  0  0  0  0  0
    0.0270   23.6940  -28.9750 O   0  0  0  0  0  0  0  0  0  0  0  0
   -1.4210   24.1950  -27.0730 O   0  0  0  0  0  0  0  0  0  0  0  0
   -2.6140   23.5590  -29.3790 C   0  0  0  0  0  0  0  0  0  0  0  0
   -2.3990   22.4120  -30.1570 C   0  0  0  0  0  0  0  0  0  0  0  0
   -3.4660   21.7950  -30.8180 C   0  0  0  0  0  0  0  0  0  0  0  0
   -4.7580   22.3250  -30.7110 C   0  0  0  0  0  0  0  0  0  0  0  0
   -5.8450   21.7310  -31.3630 C   0  0  0  0  0  0  0  0  0  0  0  0
   -7.1200   22.2920  -31.2410 C   0  0  0  0  0  0  0  0  0  0  0  0
   -8.5200   21.5490  -32.0790 S   0  0  0  0  0  0  0  0  0  0  0  0
   -7.6040   20.0640  -32.4900 C   0  0  0  0  0  0  0  0  0  0  0  0
   -6.8380   20.0130  -33.6610 C   0  0  0  0  0  0  0  0  0  0  0  0
   -6.1200   18.8560  -33.9790 C   0  0  0  0  0  0  0  0  0  0  0  0
   -6.1680   17.7470  -33.1290 C   0  0  0  0  0  0  0  0  0  0  0  0
   -6.9350   17.7940  -31.9600 C   0  0  0  0  0  0  0  0  0  0  0  0
   -7.6550   18.9500  -31.6410 C   0  0  0  0  0  0  0  0  0  0  0  0
   -7.2930   23.4400  -30.4600 C   0  0  0  0  0  0  0  0  0  0  0  0
   -6.2290   24.0060  -29.8320 N   0  0  0  0  0  0  0  0  0  0  0  0
   -4.9770   23.4850  -29.9350 C   0  0  0  0  0  0  0  0  0  0  0  0
   -3.9050   24.0970  -29.2750 C   0  0  0  0  0  0  0  0  0  0  0  0
   -1.2220   26.0700  -30.0210 H   0  0  0  0  0  0  0  0  0  0  0  0
   -1.3851   21.9952  -30.2478 H   0  0  0  0  0  0  0  0  0  0  0  0
   -3.2903   20.8928  -31.4223 H   0  0  0  0  0  0  0  0  0  0  0  0
   -5.6966   20.8255  -31.9696 H   0  0  0  0  0  0  0  0  0  0  0  0
   -6.8010   20.8842  -34.3316 H   0  0  0  0  0  0  0  0  0  0  0  0
   -5.5171   18.8184  -34.8983 H   0  0  0  0  0  0  0  0  0  0  0  0
   -5.6026   16.8373  -33.3795 H   0  0  0  0  0  0  0  0  0  0  0  0
   -6.9719   16.9214  -31.2913 H   0  0  0  0  0  0  0  0  0  0  0  0
   -8.2613   18.9848  -30.7238 H   0  0  0  0  0  0  0  0  0  0  0  0
   -8.2931   23.8856  -30.3540 H   0  0  0  0  0  0  0  0  0  0  0  0
   -4.0755   25.0020  -28.6734 H   0  0  0  0  0  0  0  0  0  0  0  0
  1  2  1  0
  2  3  2  0
  2  4  2  0
  2  5  1  0
  5  6  2  0
  6  7  1  0
  7  8  2  0
  8  9  1  0
  9 10  2  0
 10 11  1  0
 11 12  1  0
 12 13  2  0
 13 14  1  0
 14 15  2  0
 15 16  1  0
 16 17  2  0
 10 18  1  0
 18 19  2  0
 19 20  1  0
 20 21  2  0
 21  5  1  0
 20  8  1  0
 17 12  1  0
  1 22  1  0
  6 23  1  0
  7 24  1  0
  9 25  1  0
 13 26  1  0
 14 27  1  0
 15 28  1  0
 16 29  1  0
 17 30  1  0
 18 31  1  0
 21 32  1  0
M  CHG  1   1  -1
M  END
>  <UniqueID>  (43) 
41

>  <SMILES>  (43) 
[NH-]S(=O)(=O)c1ccc2cc(Sc3ccccc3)cnc2c1

>  <Energy>  (43) 
33.09151471542025

>  <Genealogy>  (43) 
[NH-]S(=O)(=O)c1ccc2cc(Sc3ccccc3)cnc2c1 (protonated)
[NH-]S(=O)(=O)c1ccc2cc(Sc3ccccc3)cnc2c1 (3D coordinates assigned)
[NH-]S(=O)(=O)c1ccc2cc(Sc3ccccc3)cnc2c1 (optimized conformer: 33.09151471542025 kcal/mol)

>  <smiles>  (43) 
NS(=O)(=O)c1ccc2cc(Sc3ccccc3)cnc2c1

>  <score_type>  (43) 
oracle

>  <origin>  (43) 
adg

>  <m_score__min__energy>  (43) 
-11.140000000000001

>  <m_primary>  (43) 
energy

$$$$
43:0
     RDKit          3D

 49 52  0  0  0  0  0  0  0  0999 V2000
   -1.8870   24.9200  -28.2450 C   0  0  0  0  0  0  0  0  0  0  0  0
   -2.7170   25.2860  -29.3430 O   0  0  0  0  0  0  0  0  0  0  0  0
   -3.9220   24.6480  -29.6720 C   0  0  0  0  0  0  0  0  0  0  0  0
   -4.9130   25.2650  -30.4580 C   0  0  0  0  0  0  0  0  0  0  0  0
   -6.0980   24.5870  -30.7580 C   0  0  0  0  0  0  0  0  0  0  0  0
   -6.3120   23.2860  -30.2780 C   0  0  0  0  0  0  0  0  0  0  0  0
   -7.5840   22.5570  -30.6210 C   0  0  0  0  0  0  0  0  0  0  0  0
   -7.2820   21.2960  -31.3260 N   0  0  0  0  0  0  0  0  0  0  0  0
   -8.4950   20.4820  -31.5180 C   0  0  0  0  0  0  0  0  0  0  0  0
   -8.0750   19.0720  -31.9290 C   0  0  0  0  0  0  0  0  0  0  0  0
   -6.9780   19.1170  -32.9040 N   0  0  0  0  0  0  0  0  0  0  0  0
   -6.3710   17.8850  -33.3350 C   0  0  0  0  0  0  0  0  0  0  0  0
   -7.1430   16.8150  -33.5760 C   0  0  0  0  0  0  0  0  0  0  0  0
   -6.5650   15.5280  -34.0040 C   0  0  0  0  0  0  0  0  0  0  0  0
   -7.3290   14.5500  -34.2240 O   0  0  0  0  0  0  0  0  0  0  0  0
   -5.1000   15.3950  -34.1650 C   0  0  0  0  0  0  0  0  0  0  0  0
   -4.5190   14.1770  -34.5590 C   0  0  0  0  0  0  0  0  0  0  0  0
   -3.1340   14.0730  -34.7050 C   0  0  0  0  0  0  0  0  0  0  0  0
   -2.3190   15.1800  -34.4600 C   0  0  0  0  0  0  0  0  0  0  0  0
   -2.8850   16.3950  -34.0680 C   0  0  0  0  0  0  0  0  0  0  0  0
   -4.2770   16.5130  -33.9180 C   0  0  0  0  0  0  0  0  0  0  0  0
   -4.8980   17.7940  -33.5070 C   0  0  0  0  0  0  0  0  0  0  0  0
   -4.1820   18.8160  -33.3240 O   0  0  0  0  0  0  0  0  0  0  0  0
   -6.6570   20.3710  -33.5960 C   0  0  0  0  0  0  0  0  0  0  0  0
   -6.6190   21.5710  -32.6220 C   0  0  0  0  0  0  0  0  0  0  0  0
   -5.3230   22.6710  -29.4950 C   0  0  0  0  0  0  0  0  0  0  0  0
   -4.1380   23.3500  -29.1950 C   0  0  0  0  0  0  0  0  0  0  0  0
   -2.4049   25.1484  -27.3018 H   0  0  0  0  0  0  0  0  0  0  0  0
   -1.6699   23.8427  -28.2926 H   0  0  0  0  0  0  0  0  0  0  0  0
   -0.9452   25.4863  -28.2926 H   0  0  0  0  0  0  0  0  0  0  0  0
   -4.7544   26.2851  -30.8379 H   0  0  0  0  0  0  0  0  0  0  0  0
   -6.8671   25.0761  -31.3738 H   0  0  0  0  0  0  0  0  0  0  0  0
   -8.1332   22.3316  -29.6950 H   0  0  0  0  0  0  0  0  0  0  0  0
   -8.1941   23.1948  -31.2775 H   0  0  0  0  0  0  0  0  0  0  0  0
   -9.0656   20.4398  -30.5785 H   0  0  0  0  0  0  0  0  0  0  0  0
   -9.1278   20.9286  -32.2991 H   0  0  0  0  0  0  0  0  0  0  0  0
   -7.7422   18.5207  -31.0372 H   0  0  0  0  0  0  0  0  0  0  0  0
   -8.9368   18.5686  -32.3915 H   0  0  0  0  0  0  0  0  0  0  0  0
   -8.2326   16.8997  -33.4514 H   0  0  0  0  0  0  0  0  0  0  0  0
   -5.1576   13.3026  -34.7530 H   0  0  0  0  0  0  0  0  0  0  0  0
   -2.6845   13.1176  -35.0135 H   0  0  0  0  0  0  0  0  0  0  0  0
   -1.2285   15.0948  -34.5760 H   0  0  0  0  0  0  0  0  0  0  0  0
   -2.2381   17.2636  -33.8758 H   0  0  0  0  0  0  0  0  0  0  0  0
   -5.6724   20.2708  -34.0760 H   0  0  0  0  0  0  0  0  0  0  0  0
   -7.4430   20.5608  -34.3417 H   0  0  0  0  0  0  0  0  0  0  0  0
   -5.5676   21.8300  -32.4281 H   0  0  0  0  0  0  0  0  0  0  0  0
   -7.1681   22.3956  -33.1000 H   0  0  0  0  0  0  0  0  0  0  0  0
   -5.4806   21.6506  -29.1157 H   0  0  0  0  0  0  0  0  0  0  0  0
   -3.3694   22.8601  -28.5792 H   0  0  0  0  0  0  0  0  0  0  0  0
  1  2  1  0
  2  3  1  0
  3  4  2  0
  4  5  1  0
  5  6  2  0
  6  7  1  0
  7  8  1  0
  8  9  1  0
  9 10  1  0
 10 11  1  0
 11 12  1  0
 12 13  2  0
 13 14  1  0
 14 15  2  0
 14 16  1  0
 16 17  2  0
 17 18  1  0
 18 19  2  0
 19 20  1  0
 20 21  2  0
 21 22  1  0
 22 23  2  0
 11 24  1  0
 24 25  1  0
  6 26  1  0
 26 27  2  0
 27  3  1  0
 25  8  1  0
 22 12  1  0
 21 16  1  0
  1 28  1  0
  1 29  1  0
  1 30  1  0
  4 31  1  0
  5 32  1  0
  7 33  1  0
  7 34  1  0
  9 35  1  0
  9 36  1  0
 10 37  1  0
 10 38  1  0
 13 39  1  0
 17 40  1  0
 18 41  1  0
 19 42  1  0
 20 43  1  0
 24 44  1  0
 24 45  1  0
 25 46  1  0
 25 47  1  0
 26 48  1  0
 27 49  1  0
M  END
>  <UniqueID>  (44) 
42

>  <SMILES>  (44) 
COc1ccc(CN2CCN(C3=CC(=O)c4ccccc4C3=O)CC2)cc1

>  <Energy>  (44) 
63.07654652543977

>  <Genealogy>  (44) 
COc1ccc(CN2CCN(C3=CC(=O)c4ccccc4C3=O)CC2)cc1 (3D coordinates assigned)
COc1ccc(CN2CCN(C3=CC(=O)c4ccccc4C3=O)CC2)cc1 (nonaromatic ring conformer: 63.07654652543977 kcal/mol)

>  <smiles>  (44) 
COc1ccc(CN2CCN(C3=CC(=O)c4ccccc4C3=O)CC2)cc1

>  <score_type>  (44) 
oracle

>  <origin>  (44) 
adg

>  <m_score__min__energy>  (44) 
-8.9199999999999999

>  <m_primary>  (44) 
energy

$$$$
44:0
     RDKit          3D

 42 44  0  0  0  0  0  0  0  0999 V2000
   -9.1520   22.6760  -31.9550 C   0  0  0  0  0  0  0  0  0  0  0  0
   -8.0240   22.3090  -30.9900 C   0  0  0  0  0  0  0  0  0  0  0  0
   -6.8020   21.8880  -31.7250 N   0  0  0  0  0  0  0  0  0  0  0  0
   -5.7430   22.7720  -31.8790 C   0  0  0  0  0  0  0  0  0  0  0  0
   -5.7700   24.2040  -31.3690 C   0  0  0  0  0  0  0  0  0  0  0  0
   -4.4390   24.6260  -30.9130 N   0  0  0  0  0  0  0  0  0  0  0  0
   -4.2130   24.2530  -29.5110 C   0  0  0  0  0  0  0  0  0  0  0  0
   -3.2440   23.1060  -29.4460 C   0  0  0  0  0  0  0  0  0  0  0  0
   -2.2240   22.9840  -30.4040 C   0  0  0  0  0  0  0  0  0  0  0  0
   -1.3490   21.8940  -30.3670 C   0  0  0  0  0  0  0  0  0  0  0  0
   -1.4900   20.9150  -29.3800 C   0  0  0  0  0  0  0  0  0  0  0  0
   -2.5110   21.0220  -28.4300 C   0  0  0  0  0  0  0  0  0  0  0  0
   -2.7110   19.6770  -27.0890 Br  0  0  0  0  0  0  0  0  0  0  0  0
   -3.3890   22.1110  -28.4650 C   0  0  0  0  0  0  0  0  0  0  0  0
   -4.5730   22.3640  -32.5320 C   0  0  0  0  0  0  0  0  0  0  0  0
   -4.4560   21.0830  -33.0420 C   0  0  0  0  0  0  0  0  0  0  0  0
   -3.3870   20.7500  -33.6250 O   0  0  0  0  0  0  0  0  0  0  0  0
   -5.5160   20.1820  -32.9060 C   0  0  0  0  0  0  0  0  0  0  0  0
   -5.4120   18.8760  -33.4240 C   0  0  0  0  0  0  0  0  0  0  0  0
   -6.4640   17.9730  -33.2890 C   0  0  0  0  0  0  0  0  0  0  0  0
   -6.3180   16.3500  -33.9390 Cl  0  0  0  0  0  0  0  0  0  0  0  0
   -7.6300   18.3580  -32.6370 C   0  0  0  0  0  0  0  0  0  0  0  0
   -7.7540   19.6470  -32.1160 C   0  0  0  0  0  0  0  0  0  0  0  0
   -6.7030   20.5960  -32.2340 C   0  0  0  0  0  0  0  0  0  0  0  0
  -10.0448   22.9665  -31.3819 H   0  0  0  0  0  0  0  0  0  0  0  0
   -8.8334   23.5168  -32.5886 H   0  0  0  0  0  0  0  0  0  0  0  0
   -9.3892   21.8087  -32.5886 H   0  0  0  0  0  0  0  0  0  0  0  0
   -7.7848   23.1844  -30.3683 H   0  0  0  0  0  0  0  0  0  0  0  0
   -8.3606   21.4689  -30.3647 H   0  0  0  0  0  0  0  0  0  0  0  0
   -6.0995   24.8688  -32.1811 H   0  0  0  0  0  0  0  0  0  0  0  0
   -6.4656   24.2599  -30.5187 H   0  0  0  0  0  0  0  0  0  0  0  0
   -3.7300   24.1210  -31.4970 H   0  0  0  0  0  0  0  0  0  0  0  0
   -3.7991   25.1136  -28.9651 H   0  0  0  0  0  0  0  0  0  0  0  0
   -5.1673   23.9523  -29.0539 H   0  0  0  0  0  0  0  0  0  0  0  0
   -2.1131   23.7491  -31.1865 H   0  0  0  0  0  0  0  0  0  0  0  0
   -0.5483   21.8070  -31.1162 H   0  0  0  0  0  0  0  0  0  0  0  0
   -0.7982   20.0603  -29.3501 H   0  0  0  0  0  0  0  0  0  0  0  0
   -4.1959   22.1883  -27.7214 H   0  0  0  0  0  0  0  0  0  0  0  0
   -3.7369   23.0705  -32.6407 H   0  0  0  0  0  0  0  0  0  0  0  0
   -4.4912   18.5664  -33.9400 H   0  0  0  0  0  0  0  0  0  0  0  0
   -8.4592   17.6430  -32.5312 H   0  0  0  0  0  0  0  0  0  0  0  0
   -8.6842   19.9340  -31.6037 H   0  0  0  0  0  0  0  0  0  0  0  0
  1  2  1  0
  2  3  1  0
  3  4  1  0
  4  5  1  0
  5  6  1  0
  6  7  1  0
  7  8  1  0
  8  9  2  0
  9 10  1  0
 10 11  2  0
 11 12  1  0
 12 13  1  0
 12 14  2  0
  4 15  2  0
 15 16  1  0
 16 17  2  0
 16 18  1  0
 18 19  2  0
 19 20  1  0
 20 21  1  0
 20 22  2  0
 22 23  1  0
 23 24  2  0
 24  3  1  0
 14  8  1  0
 24 18  1  0
  1 25  1  0
  1 26  1  0
  1 27  1  0
  2 28  1  0
  2 29  1  0
  5 30  1  0
  5 31  1  0
  6 32  1  0
  7 33  1  0
  7 34  1  0
  9 35  1  0
 10 36  1  0
 11 37  1  0
 14 38  1  0
 15 39  1  0
 19 40  1  0
 22 41  1  0
 23 42  1  0
M  END
>  <UniqueID>  (45) 
43

>  <SMILES>  (45) 
CCn1c(CNCc2cccc(Br)c2)cc(=O)c2cc(Cl)ccc21

>  <Energy>  (45) 
54.54708790536808

>  <Genealogy>  (45) 
CCn1c(CNCc2cccc(Br)c2)cc(=O)c2cc(Cl)ccc21 (3D coordinates assigned)
CCn1c(CNCc2cccc(Br)c2)cc(=O)c2cc(Cl)ccc21 (optimized conformer: 54.54708790536808 kcal/mol)

>  <smiles>  (45) 
CCn1c(CNCc2cccc(Br)c2)cc(=O)c2cc(Cl)ccc21

>  <score_type>  (45) 
oracle

>  <origin>  (45) 
adg

>  <m_score__min__energy>  (45) 
-9.1699999999999999

>  <m_primary>  (45) 
energy

$$$$
