0:0
     RDKit          3D

 40 43  0  0  1  0  0  0  0  0999 V2000
   -6.8510   25.2950  -29.6730 C   0  0  0  0  0  0  0  0  0  0  0  0
   -5.9220   24.4160  -30.3850 C   0  0  0  0  0  0  0  0  0  0  0  0
   -4.1570   24.4690  -30.0910 S   0  0  0  0  0  0  0  0  0  0  0  0
   -3.8850   23.1030  -31.2500 C   0  0  0  0  0  0  0  0  0  0  0  0
   -2.6840   22.5740  -31.5480 N   0  0  0  0  0  0  0  0  0  0  0  0
   -2.5860   21.5480  -32.4180 C   0  0  0  0  0  0  0  0  0  0  0  0
   -1.3060   20.9780  -32.7500 C   0  0  0  0  0  0  0  0  0  0  0  0
   -0.5330   20.1740  -31.9350 C   0  0  0  0  0  0  0  0  0  0  0  0
    0.5700   19.8630  -32.6190 N   0  0  0  0  0  0  0  0  0  0  0  0
    0.5060   20.4420  -33.8170 N   0  0  0  0  0  0  0  0  0  0  0  0
    1.5620   20.2940  -34.7980 C   0  0  0  0  0  0  0  0  0  0  0  0
   -0.6340   21.1410  -33.9410 C   0  0  0  0  0  0  0  0  0  0  0  0
   -3.7390   21.1150  -32.9350 N   0  0  0  0  0  0  0  0  0  0  0  0
   -4.9590   21.6400  -32.6400 C   0  0  0  0  0  0  0  0  0  0  0  0
   -5.9370   21.0530  -33.0060 N   0  0  0  0  0  0  0  0  0  0  0  0
   -6.8900   20.1990  -32.7530 C   0  0  0  0  0  0  0  0  0  0  0  0
   -6.5860   18.8640  -32.3600 C   0  0  0  0  0  0  0  0  0  0  0  0
   -7.5580   17.9910  -31.9580 C   0  0  0  0  0  0  0  0  0  0  0  0
   -8.8660   18.4170  -31.9310 C   0  0  0  0  0  0  0  0  0  0  0  0
   -9.1180   19.7060  -32.3150 C   0  0  0  0  0  0  0  0  0  0  0  0
   -8.2120   20.5940  -32.7150 N   0  0  0  0  0  0  0  0  0  0  0  0
   -5.1000   22.7260  -31.7480 C   0  0  0  0  0  0  0  0  0  0  0  0
   -6.1820   23.3960  -31.3260 C   0  0  0  0  0  0  0  0  0  0  0  0
   -7.6210   23.4150  -31.8140 C   0  0  0  0  0  0  0  0  0  0  0  0
   -6.7173   25.1685  -28.5885 H   0  0  0  0  0  0  0  0  0  0  0  0
   -6.6496   26.3409  -29.9477 H   0  0  0  0  0  0  0  0  0  0  0  0
   -7.8842   25.0361  -29.9477 H   0  0  0  0  0  0  0  0  0  0  0  0
   -0.7803   19.8505  -30.9131 H   0  0  0  0  0  0  0  0  0  0  0  0
    2.5246   20.1591  -34.2830 H   0  0  0  0  0  0  0  0  0  0  0  0
    1.3569   19.4158  -35.4279 H   0  0  0  0  0  0  0  0  0  0  0  0
    1.6062   21.1947  -35.4279 H   0  0  0  0  0  0  0  0  0  0  0  0
   -0.9632   21.7237  -34.8140 H   0  0  0  0  0  0  0  0  0  0  0  0
   -3.6370   20.3050  -33.6180 H   0  0  0  0  0  0  0  0  0  0  0  0
   -5.5394   18.5260  -32.3806 H   0  0  0  0  0  0  0  0  0  0  0  0
   -7.2986   16.9642  -31.6608 H   0  0  0  0  0  0  0  0  0  0  0  0
   -9.6782   17.7469  -31.6128 H   0  0  0  0  0  0  0  0  0  0  0  0
  -10.1663   20.0384  -32.2907 H   0  0  0  0  0  0  0  0  0  0  0  0
   -8.3012   23.4240  -30.9496 H   0  0  0  0  0  0  0  0  0  0  0  0
   -7.7899   24.3155  -32.4228 H   0  0  0  0  0  0  0  0  0  0  0  0
   -7.8136   22.5193  -32.4228 H   0  0  0  0  0  0  0  0  0  0  0  0
  1  2  1  0
  2  3  1  0
  3  4  1  0
  4  5  1  0
  5  6  2  0
  6  7  1  0
  7  8  1  0
  8  9  2  0
  9 10  1  0
 10 11  1  0
 10 12  1  0
  6 13  1  0
 13 14  1  0
 14 15  2  0
 15 16  1  0
 16 17  2  0
 17 18  1  0
 18 19  2  0
 19 20  1  0
 20 21  2  0
 14 22  1  0
 22 23  1  0
 23 24  1  0
 23  2  2  0
 22  4  2  0
 12  7  2  0
 21 16  1  0
  1 25  1  0
  1 26  1  0
  1 27  1  0
  8 28  1  0
 11 29  1  0
 11 30  1  0
 11 31  1  0
 12 32  1  0
 13 33  1  0
 17 34  1  0
 18 35  1  0
 19 36  1  0
 20 37  1  0
 24 38  1  0
 24 39  1  0
 24 40  1  0
M  END
>  <smiles>  (1) 
Cc1sc2nc(-c3cnn(C)c3)[nH]c(=Nc3ccccn3)c2c1C

>  <score_type>  (1) 
oracle

>  <origin>  (1) 
adg

>  <m_score__min__energy>  (1) 
-8.4000000000000004

>  <m_primary>  (1) 
energy

$$$$
1:0
     RDKit          3D

 67 69  0  0  0  0  0  0  0  0999 V2000
   -4.8280   20.0590  -32.3500 H   0  0  0  0  0  0  0  0  0  0  0  0
   -5.1140   20.6340  -31.5720 O   0  0  0  0  0  0  0  0  0  0  0  0
   -4.5120   21.8300  -31.1630 C   0  0  0  0  0  0  0  0  0  0  0  0
   -5.2950   22.9850  -30.8960 C   0  0  0  0  0  0  0  0  0  0  0  0
   -6.6930   23.0240  -31.1300 C   0  0  0  0  0  0  0  0  0  0  0  0
   -7.1987   22.1376  -31.5405 H   0  0  0  0  0  0  0  0  0  0  0  0
   -7.4370   24.1710  -30.8470 C   0  0  0  0  0  0  0  0  0  0  0  0
   -8.5202   24.1823  -31.0382 H   0  0  0  0  0  0  0  0  0  0  0  0
   -6.8150   25.2980  -30.3250 C   0  0  0  0  0  0  0  0  0  0  0  0
   -7.4067   26.1971  -30.0981 H   0  0  0  0  0  0  0  0  0  0  0  0
   -5.4440   25.2900  -30.0890 C   0  0  0  0  0  0  0  0  0  0  0  0
   -4.9577   26.1879  -29.6800 H   0  0  0  0  0  0  0  0  0  0  0  0
   -4.6700   24.1440  -30.3680 C   0  0  0  0  0  0  0  0  0  0  0  0
   -3.2910   24.1480  -30.1060 C   0  0  0  0  0  0  0  0  0  0  0  0
   -2.7260   25.2990  -29.5570 O   0  0  0  0  0  0  0  0  0  0  0  0
   -2.4930   23.0140  -30.3900 C   0  0  0  0  0  0  0  0  0  0  0  0
   -1.0960   23.0060  -30.1070 C   0  0  0  0  0  0  0  0  0  0  0  0
   -0.4500   24.1270  -29.4850 N   0  0  0  0  0  0  0  0  0  0  0  0
   -0.0940   24.2080  -28.2350 C   0  0  0  0  0  0  0  0  0  0  0  0
    0.4010   25.1293  -27.8941 H   0  0  0  0  0  0  0  0  0  0  0  0
   -0.3230   23.1090  -27.2300 C   0  0  0  0  0  0  0  0  0  0  0  0
    0.3667   23.2422  -26.3835 H   0  0  0  0  0  0  0  0  0  0  0  0
   -0.1425   22.1382  -27.7147 H   0  0  0  0  0  0  0  0  0  0  0  0
   -1.7150   23.1470  -26.7350 N   0  0  0  0  0  0  0  0  0  0  0  0
   -2.5620   22.1050  -27.3590 C   0  0  0  0  0  0  0  0  0  0  0  0
   -2.6475   22.3092  -28.4365 H   0  0  0  0  0  0  0  0  0  0  0  0
   -3.5526   22.1278  -26.8814 H   0  0  0  0  0  0  0  0  0  0  0  0
   -1.9600   20.7160  -27.1610 C   0  0  0  0  0  0  0  0  0  0  0  0
   -1.8689   20.5058  -26.0851 H   0  0  0  0  0  0  0  0  0  0  0  0
   -2.6128   19.9635  -27.6276 H   0  0  0  0  0  0  0  0  0  0  0  0
   -0.9646   20.6779  -27.6276 H   0  0  0  0  0  0  0  0  0  0  0  0
   -2.2990   24.5120  -26.7810 C   0  0  0  0  0  0  0  0  0  0  0  0
   -1.9493   25.0652  -25.8969 H   0  0  0  0  0  0  0  0  0  0  0  0
   -1.9682   24.9619  -27.7287 H   0  0  0  0  0  0  0  0  0  0  0  0
   -3.8350   24.5480  -26.7930 C   0  0  0  0  0  0  0  0  0  0  0  0
   -4.2096   24.5568  -25.7588 H   0  0  0  0  0  0  0  0  0  0  0  0
   -4.1765   25.4544  -27.3144 H   0  0  0  0  0  0  0  0  0  0  0  0
   -4.2186   23.6586  -27.3144 H   0  0  0  0  0  0  0  0  0  0  0  0
   -0.3410   21.8610  -30.3620 C   0  0  0  0  0  0  0  0  0  0  0  0
    0.7181   21.8322  -30.0663 H   0  0  0  0  0  0  0  0  0  0  0  0
   -0.9060   20.7630  -30.9810 C   0  0  0  0  0  0  0  0  0  0  0  0
   -0.2748   19.8964  -31.2272 H   0  0  0  0  0  0  0  0  0  0  0  0
   -2.2680   20.7350  -31.3000 C   0  0  0  0  0  0  0  0  0  0  0  0
   -2.7690   19.5970  -32.0290 N   0  0  0  0  0  0  0  0  0  0  0  0
   -3.5950   19.0780  -31.6510 H   0  0  0  0  0  0  0  0  0  0  0  0
   -2.2430   19.1650  -33.3270 C   0  0  0  0  0  0  0  0  0  0  0  0
   -1.8109   20.0336  -33.8455 H   0  0  0  0  0  0  0  0  0  0  0  0
   -1.4770   18.3951  -33.1522 H   0  0  0  0  0  0  0  0  0  0  0  0
   -3.3490   18.5580  -34.2040 C   0  0  0  0  0  0  0  0  0  0  0  0
   -3.4261   19.1394  -35.1346 H   0  0  0  0  0  0  0  0  0  0  0  0
   -3.0849   17.5113  -34.4154 H   0  0  0  0  0  0  0  0  0  0  0  0
   -4.6640   18.5750  -33.5150 N   0  0  0  0  0  0  0  0  0  0  0  0
   -4.9280   17.2730  -32.8560 C   0  0  0  0  0  0  0  0  0  0  0  0
   -5.1529   16.5188  -33.6245 H   0  0  0  0  0  0  0  0  0  0  0  0
   -4.0361   16.9806  -32.2824 H   0  0  0  0  0  0  0  0  0  0  0  0
   -6.1130   17.3810  -31.8980 C   0  0  0  0  0  0  0  0  0  0  0  0
   -5.7497   17.3479  -30.8602 H   0  0  0  0  0  0  0  0  0  0  0  0
   -6.6398   18.3309  -32.0720 H   0  0  0  0  0  0  0  0  0  0  0  0
   -6.8028   16.5420  -32.0720 H   0  0  0  0  0  0  0  0  0  0  0  0
   -5.7500   18.9090  -34.4690 C   0  0  0  0  0  0  0  0  0  0  0  0
   -5.3146   19.3836  -35.3607 H   0  0  0  0  0  0  0  0  0  0  0  0
   -6.2739   17.9830  -34.7484 H   0  0  0  0  0  0  0  0  0  0  0  0
   -6.7510   19.8670  -33.8290 C   0  0  0  0  0  0  0  0  0  0  0  0
   -6.6773   19.7965  -32.7337 H   0  0  0  0  0  0  0  0  0  0  0  0
   -6.5276   20.8964  -34.1460 H   0  0  0  0  0  0  0  0  0  0  0  0
   -7.7696   19.5986  -34.1460 H   0  0  0  0  0  0  0  0  0  0  0  0
   -3.0990   21.8570  -30.9720 C   0  0  0  0  0  0  0  0  0  0  0  0
  1  2  1  0
  2  3  1  0
  3  4  2  0
  4  5  1  0
  5  6  1  0
  5  7  2  0
  7  8  1  0
  7  9  1  0
  9 10  1  0
  9 11  2  0
 11 12  1  0
 11 13  1  0
 13 14  2  0
 14 15  1  0
 14 16  1  0
 16 17  2  0
 17 18  1  0
 18 19  2  0
 19 20  1  0
 19 21  1  0
 21 22  1  0
 21 23  1  0
 21 24  1  0
 24 25  1  0
 25 26  1  0
 25 27  1  0
 25 28  1  0
 28 29  1  0
 28 30  1  0
 28 31  1  0
 24 32  1  0
 32 33  1  0
 32 34  1  0
 32 35  1  0
 35 36  1  0
 35 37  1  0
 35 38  1  0
 17 39  1  0
 39 40  1  0
 39 41  2  0
 41 42  1  0
 41 43  1  0
 43 44  1  0
 44 45  1  0
 44 46  1  0
 46 47  1  0
 46 48  1  0
 46 49  1  0
 49 50  1  0
 49 51  1  0
 49 52  1  0
 52 53  1  0
 53 54  1  0
 53 55  1  0
 53 56  1  0
 56 57  1  0
 56 58  1  0
 56 59  1  0
 52 60  1  0
 60 61  1  0
 60 62  1  0
 60 63  1  0
 63 64  1  0
 63 65  1  0
 63 66  1  0
 43 67  2  0
 67  3  1  0
 13  4  1  0
 67 16  1  0
M  CHG  1  15  -1
M  END
>  <UniqueID>  (2) 
1

>  <SMILES>  (2) 
CCN(CC)C/C=N\c1ccc(NCCN(CC)CC)c2c(O)c3ccccc3c([O-])c12

>  <Energy>  (2) 
94.20159805310308

>  <Genealogy>  (2) 
CCN(CC)CC=Nc1ccc(NCCN(CC)CC)c2c(O)c3ccccc3c([O-])c12 (protonated)
CCN(CC)C/C=N\c1ccc(NCCN(CC)CC)c2c(O)c3ccccc3c([O-])c12 (cis-trans isomerization)
CCN(CC)C/C=N\c1ccc(NCCN(CC)CC)c2c(O)c3ccccc3c([O-])c12 (3D coordinates assigned)
CCN(CC)C/C=N\c1ccc(NCCN(CC)CC)c2c(O)c3ccccc3c([O-])c12 (optimized conformer: 94.20159805310308 kcal/mol)

>  <smiles>  (2) 
CCN(CC)CC=Nc1ccc(NCCN(CC)CC)c2c(O)c3ccccc3c(O)c12

>  <score_type>  (2) 
oracle

>  <origin>  (2) 
adg

>  <m_score__min__energy>  (2) 
-9.75

>  <m_primary>  (2) 
energy

$$$$
2:0
     RDKit          3D

 33 34  0  0  0  0  0  0  0  0999 V2000
   -9.2280   18.5250  -33.4700 H   0  0  0  0  0  0  0  0  0  0  0  0
   -9.5150   19.1950  -32.7650 O   0  0  0  0  0  0  0  0  0  0  0  0
   -8.7580   20.3310  -32.4850 C   0  0  0  0  0  0  0  0  0  0  0  0
   -9.3550   21.4450  -31.8810 C   0  0  0  0  0  0  0  0  0  0  0  0
  -10.4237   21.4206  -31.6216 H   0  0  0  0  0  0  0  0  0  0  0  0
   -8.5990   22.5860  -31.6070 C   0  0  0  0  0  0  0  0  0  0  0  0
   -9.0705   23.4501  -31.1161 H   0  0  0  0  0  0  0  0  0  0  0  0
   -7.2430   22.6360  -31.9540 C   0  0  0  0  0  0  0  0  0  0  0  0
   -6.4700   23.8610  -31.6590 C   0  0  0  0  0  0  0  0  0  0  0  0
   -6.4119   24.6246  -32.4487 H   0  0  0  0  0  0  0  0  0  0  0  0
   -5.8330   24.1170  -30.5050 C   0  0  0  0  0  0  0  0  0  0  0  0
   -6.4067   23.9890  -29.5752 H   0  0  0  0  0  0  0  0  0  0  0  0
   -4.4240   24.5570  -30.3760 C   0  0  0  0  0  0  0  0  0  0  0  0
   -4.1090   25.6740  -30.8650 O   0  0  0  0  0  0  0  0  0  0  0  0
   -3.3680   23.7100  -29.7640 C   0  0  0  0  0  0  0  0  0  0  0  0
   -3.5360   22.3150  -29.6830 C   0  0  0  0  0  0  0  0  0  0  0  0
   -4.4432   21.8499  -30.0962 H   0  0  0  0  0  0  0  0  0  0  0  0
   -2.5600   21.5160  -29.0820 C   0  0  0  0  0  0  0  0  0  0  0  0
   -2.7067   20.4280  -29.0134 H   0  0  0  0  0  0  0  0  0  0  0  0
   -1.4000   22.0960  -28.5690 C   0  0  0  0  0  0  0  0  0  0  0  0
   -0.6351   21.4658  -28.0916 H   0  0  0  0  0  0  0  0  0  0  0  0
   -1.2090   23.4760  -28.6610 C   0  0  0  0  0  0  0  0  0  0  0  0
   -0.2897   23.9296  -28.2621 H   0  0  0  0  0  0  0  0  0  0  0  0
   -2.1830   24.2850  -29.2590 C   0  0  0  0  0  0  0  0  0  0  0  0
   -1.9690   25.6580  -29.3280 O   0  0  0  0  0  0  0  0  0  0  0  0
   -6.6360   21.5060  -32.5280 C   0  0  0  0  0  0  0  0  0  0  0  0
   -5.5612   21.5231  -32.7613 H   0  0  0  0  0  0  0  0  0  0  0  0
   -7.3940   20.3510  -32.8070 C   0  0  0  0  0  0  0  0  0  0  0  0
   -6.8290   19.2100  -33.3980 O   0  0  0  0  0  0  0  0  0  0  0  0
   -6.4720   18.0290  -32.6900 C   0  0  0  0  0  0  0  0  0  0  0  0
   -6.5293   18.2187  -31.6080 H   0  0  0  0  0  0  0  0  0  0  0  0
   -7.1650   17.2176  -32.9573 H   0  0  0  0  0  0  0  0  0  0  0  0
   -5.4456   17.7374  -32.9573 H   0  0  0  0  0  0  0  0  0  0  0  0
  1  2  1  0
  2  3  1  0
  3  4  2  0
  4  5  1  0
  4  6  1  0
  6  7  1  0
  6  8  2  0
  8  9  1  0
  9 10  1  0
  9 11  2  0
 11 12  1  0
 11 13  1  0
 13 14  2  0
 13 15  1  0
 15 16  2  0
 16 17  1  0
 16 18  1  0
 18 19  1  0
 18 20  2  0
 20 21  1  0
 20 22  1  0
 22 23  1  0
 22 24  2  0
 24 25  1  0
  8 26  1  0
 26 27  1  0
 26 28  2  0
 28 29  1  0
 29 30  1  0
 30 31  1  0
 30 32  1  0
 30 33  1  0
 28  3  1  0
 24 15  1  0
M  CHG  1  25  -1
M  END
>  <UniqueID>  (3) 
2

>  <SMILES>  (3) 
COc1cc(/C=C\C(=O)c2ccccc2[O-])ccc1O

>  <Energy>  (3) 
43.30860768676724

>  <Genealogy>  (3) 
COc1cc(C=CC(=O)c2ccccc2[O-])ccc1O (protonated)
COc1cc(/C=C\C(=O)c2ccccc2[O-])ccc1O (cis-trans isomerization)
COc1cc(/C=C\C(=O)c2ccccc2[O-])ccc1O (3D coordinates assigned)
COc1cc(/C=C\C(=O)c2ccccc2[O-])ccc1O (optimized conformer: 43.30860768676724 kcal/mol)

>  <smiles>  (3) 
COc1cc(C=CC(=O)c2ccccc2O)ccc1O

>  <score_type>  (3) 
oracle

>  <origin>  (3) 
adg

>  <m_score__min__energy>  (3) 
-10.970000000000001

>  <m_primary>  (3) 
energy

$$$$
3:0
     RDKit          3D

 36 38  0  0  0  0  0  0  0  0999 V2000
   -8.4200   18.4502  -32.4273 H   0  0  0  0  0  0  0  0  0  0  0  0
   -7.9430   19.4400  -32.3750 C   0  0  0  0  0  0  0  0  0  0  0  0
   -8.6720   20.5420  -31.9290 C   0  0  0  0  0  0  0  0  0  0  0  0
   -9.7263   20.4221  -31.6389 H   0  0  0  0  0  0  0  0  0  0  0  0
   -8.0650   21.7990  -31.8500 C   0  0  0  0  0  0  0  0  0  0  0  0
   -8.6479   22.6615  -31.4946 H   0  0  0  0  0  0  0  0  0  0  0  0
   -6.7180   21.9760  -32.2190 C   0  0  0  0  0  0  0  0  0  0  0  0
   -6.1290   23.2970  -32.1260 N   0  0  0  0  0  0  0  0  0  0  0  0
   -6.1070   23.7490  -33.0690 H   0  0  0  0  0  0  0  0  0  0  0  0
   -5.1300   23.2260  -31.8180 H   0  0  0  0  0  0  0  0  0  0  0  0
   -6.8800   24.1600  -31.1960 C   0  0  0  0  0  0  0  0  0  0  0  0
   -7.6498   24.7083  -31.7588 H   0  0  0  0  0  0  0  0  0  0  0  0
   -7.3396   23.5226  -30.4263 H   0  0  0  0  0  0  0  0  0  0  0  0
   -5.9710   25.1530  -30.5110 C   0  0  0  0  0  0  0  0  0  0  0  0
   -6.4860   26.0190  -29.7570 O   0  0  0  0  0  0  0  0  0  0  0  0
   -4.5670   25.2380  -30.8030 N   0  0  0  0  0  0  0  0  0  0  0  0
   -3.6580   24.3700  -30.4710 C   0  0  0  0  0  0  0  0  0  0  0  0
   -3.4390   23.2060  -31.1330 N   0  0  0  0  0  0  0  0  0  0  0  0
   -2.4550   22.4890  -30.5310 C   0  0  0  0  0  0  0  0  0  0  0  0
   -2.0020   21.2440  -30.9710 C   0  0  0  0  0  0  0  0  0  0  0  0
   -2.4396   20.7705  -31.8622 H   0  0  0  0  0  0  0  0  0  0  0  0
   -0.9740   20.6070  -30.2510 C   0  0  0  0  0  0  0  0  0  0  0  0
   -0.6034   19.6255  -30.5816 H   0  0  0  0  0  0  0  0  0  0  0  0
   -0.4160   21.2170  -29.1100 C   0  0  0  0  0  0  0  0  0  0  0  0
    0.3865   20.7094  -28.5547 H   0  0  0  0  0  0  0  0  0  0  0  0
   -0.8800   22.4700  -28.6790 C   0  0  0  0  0  0  0  0  0  0  0  0
   -0.4476   22.9576  -27.7928 H   0  0  0  0  0  0  0  0  0  0  0  0
   -1.9010   23.0790  -29.4020 C   0  0  0  0  0  0  0  0  0  0  0  0
   -2.6640   24.5490  -29.1120 S   0  0  0  0  0  0  0  0  0  0  0  0
   -5.9820   20.8520  -32.6910 C   0  0  0  0  0  0  0  0  0  0  0  0
   -4.5290   20.9630  -33.0870 C   0  0  0  0  0  0  0  0  0  0  0  0
   -3.9050   21.0107  -32.1824 H   0  0  0  0  0  0  0  0  0  0  0  0
   -4.2434   20.0841  -33.6836 H   0  0  0  0  0  0  0  0  0  0  0  0
   -4.3802   21.8751  -33.6836 H   0  0  0  0  0  0  0  0  0  0  0  0
   -6.6090   19.5920  -32.7550 C   0  0  0  0  0  0  0  0  0  0  0  0
   -6.0409   18.7188  -33.1083 H   0  0  0  0  0  0  0  0  0  0  0  0
  1  2  1  0
  2  3  2  0
  3  4  1  0
  3  5  1  0
  5  6  1  0
  5  7  2  0
  7  8  1  0
  8  9  1  0
  8 10  1  0
  8 11  1  0
 11 12  1  0
 11 13  1  0
 11 14  1  0
 14 15  2  0
 14 16  1  0
 16 17  2  0
 17 18  1  0
 18 19  1  0
 19 20  2  0
 20 21  1  0
 20 22  1  0
 22 23  1  0
 22 24  2  0
 24 25  1  0
 24 26  1  0
 26 27  1  0
 26 28  2  0
 28 29  1  0
  7 30  1  0
 30 31  1  0
 31 32  1  0
 31 33  1  0
 31 34  1  0
 30 35  2  0
 35 36  1  0
 35  2  1  0
 29 17  1  0
 28 19  1  0
M  CHG  2   8   1  18  -1
M  END
>  <UniqueID>  (4) 
3

>  <SMILES>  (4) 
Cc1ccccc1[NH2+]CC(=O)/N=c1\[n-]c2ccccc2s1

>  <Energy>  (4) 
80.16352015934383

>  <Genealogy>  (4) 
Cc1ccccc1[NH2+]CC(=O)N=c1[n-]c2ccccc2s1 (protonated)
Cc1ccccc1[NH2+]CC(=O)/N=c1\[n-]c2ccccc2s1 (cis-trans isomerization)
Cc1ccccc1[NH2+]CC(=O)/N=c1\[n-]c2ccccc2s1 (3D coordinates assigned)
Cc1ccccc1[NH2+]CC(=O)/N=c1\[n-]c2ccccc2s1 (optimized conformer: 80.16352015934383 kcal/mol)

>  <smiles>  (4) 
Cc1ccccc1NCC(=O)N=c1[nH]c2ccccc2s1

>  <score_type>  (4) 
oracle

>  <origin>  (4) 
adg

>  <m_score__min__energy>  (4) 
-9.3599999999999994

>  <m_primary>  (4) 
energy

$$$$
4:0
     RDKit          3D

 43 46  0  0  0  0  0  0  0  0999 V2000
   -1.7110   25.0640  -28.0520 C   0  0  0  0  0  0  0  0  0  0  0  0
   -2.3870   25.2990  -29.2820 O   0  0  0  0  0  0  0  0  0  0  0  0
   -3.3820   24.4640  -29.8120 C   0  0  0  0  0  0  0  0  0  0  0  0
   -3.2440   23.0810  -29.6510 C   0  0  0  0  0  0  0  0  0  0  0  0
   -4.2060   22.2050  -30.1620 C   0  0  0  0  0  0  0  0  0  0  0  0
   -5.3260   22.7020  -30.8530 C   0  0  0  0  0  0  0  0  0  0  0  0
   -6.3310   21.8160  -31.3810 N   0  0  0  0  0  0  0  0  0  0  0  0
   -7.6390   22.0750  -31.3500 N   0  0  0  0  0  0  0  0  0  0  0  0
   -8.2940   21.0530  -31.9600 C   0  0  0  0  0  0  0  0  0  0  0  0
   -9.7660   21.0210  -32.2090 C   0  0  0  0  0  0  0  0  0  0  0  0
   -7.3580   20.1480  -32.4040 C   0  0  0  0  0  0  0  0  0  0  0  0
   -7.4700   19.0320  -33.1620 N   0  0  0  0  0  0  0  0  0  0  0  0
   -6.3220   18.3830  -33.5340 C   0  0  0  0  0  0  0  0  0  0  0  0
   -6.4460   16.9780  -34.5850 Cl  0  0  0  0  0  0  0  0  0  0  0  0
   -5.0530   18.9020  -33.1350 C   0  0  0  0  0  0  0  0  0  0  0  0
   -3.8310   18.2530  -33.5090 N   0  0  0  0  0  0  0  0  0  0  0  0
   -3.5150   16.8900  -33.1160 C   0  0  0  0  0  0  0  0  0  0  0  0
   -2.0720   16.6660  -33.5410 C   0  0  0  0  0  0  0  0  0  0  0  0
   -1.4740   18.0570  -33.7380 C   0  0  0  0  0  0  0  0  0  0  0  0
   -2.6570   18.9970  -33.9370 C   0  0  0  0  0  0  0  0  0  0  0  0
   -4.9970   20.0560  -32.3980 N   0  0  0  0  0  0  0  0  0  0  0  0
   -6.1570   20.6450  -32.0280 C   0  0  0  0  0  0  0  0  0  0  0  0
   -5.4720   24.0910  -31.0000 C   0  0  0  0  0  0  0  0  0  0  0  0
   -4.5080   24.9650  -30.4890 C   0  0  0  0  0  0  0  0  0  0  0  0
   -2.3835   25.2978  -27.2135 H   0  0  0  0  0  0  0  0  0  0  0  0
   -1.4084   24.0079  -27.9959 H   0  0  0  0  0  0  0  0  0  0  0  0
   -0.8186   25.7046  -27.9959 H   0  0  0  0  0  0  0  0  0  0  0  0
   -2.3701   22.6792  -29.1172 H   0  0  0  0  0  0  0  0  0  0  0  0
   -4.0865   21.1204  -30.0229 H   0  0  0  0  0  0  0  0  0  0  0  0
  -10.3003   21.0094  -31.2476 H   0  0  0  0  0  0  0  0  0  0  0  0
  -10.0605   21.9130  -32.7814 H   0  0  0  0  0  0  0  0  0  0  0  0
  -10.0215   20.1171  -32.7814 H   0  0  0  0  0  0  0  0  0  0  0  0
   -8.4060   18.6880  -33.4730 H   0  0  0  0  0  0  0  0  0  0  0  0
   -3.6176   16.7707  -32.0273 H   0  0  0  0  0  0  0  0  0  0  0  0
   -4.1949   16.1632  -33.5846 H   0  0  0  0  0  0  0  0  0  0  0  0
   -1.5230   16.1205  -32.7593 H   0  0  0  0  0  0  0  0  0  0  0  0
   -2.0100   16.0654  -34.4605 H   0  0  0  0  0  0  0  0  0  0  0  0
   -0.8949   18.3535  -32.8510 H   0  0  0  0  0  0  0  0  0  0  0  0
   -0.7886   18.0834  -34.5980 H   0  0  0  0  0  0  0  0  0  0  0  0
   -2.5336   19.9028  -33.3252 H   0  0  0  0  0  0  0  0  0  0  0  0
   -2.7437   19.3225  -34.9842 H   0  0  0  0  0  0  0  0  0  0  0  0
   -6.3523   24.4947  -31.5216 H   0  0  0  0  0  0  0  0  0  0  0  0
   -4.6310   26.0506  -30.6172 H   0  0  0  0  0  0  0  0  0  0  0  0
  1  2  1  0
  2  3  1  0
  3  4  2  0
  4  5  1  0
  5  6  2  0
  6  7  1  0
  7  8  1  0
  8  9  2  0
  9 10  1  0
  9 11  1  0
 11 12  2  0
 12 13  1  0
 13 14  1  0
 13 15  2  0
 15 16  1  0
 16 17  1  0
 17 18  1  0
 18 19  1  0
 19 20  1  0
 15 21  1  0
 21 22  2  0
  6 23  1  0
 23 24  2  0
 24  3  1  0
 22  7  1  0
 22 11  1  0
 20 16  1  0
  1 25  1  0
  1 26  1  0
  1 27  1  0
  4 28  1  0
  5 29  1  0
 10 30  1  0
 10 31  1  0
 10 32  1  0
 12 33  1  0
 17 34  1  0
 17 35  1  0
 18 36  1  0
 18 37  1  0
 19 38  1  0
 19 39  1  0
 20 40  1  0
 20 41  1  0
 23 42  1  0
 24 43  1  0
M  CHG  1  12   1
M  END
>  <UniqueID>  (5) 
4

>  <SMILES>  (5) 
COc1ccc(-n2nc(C)c3[nH+]c(Cl)c(N4CCCC4)nc32)cc1

>  <Energy>  (5) 
97.39323163020272

>  <Genealogy>  (5) 
COc1ccc(-n2nc(C)c3[nH+]c(Cl)c(N4CCCC4)nc32)cc1 (protonated)
COc1ccc(-n2nc(C)c3[nH+]c(Cl)c(N4CCCC4)nc32)cc1 (3D coordinates assigned)
COc1ccc(-n2nc(C)c3[nH+]c(Cl)c(N4CCCC4)nc32)cc1 (nonaromatic ring conformer: 97.39323163020272 kcal/mol)

>  <smiles>  (5) 
COc1ccc(-n2nc(C)c3nc(Cl)c(N4CCCC4)nc32)cc1

>  <score_type>  (5) 
oracle

>  <origin>  (5) 
adg

>  <m_score__min__energy>  (5) 
-7.8899999999999997

>  <m_primary>  (5) 
energy

$$$$
5:0
     RDKit          3D

 53 55  0  0  0  0  0  0  0  0999 V2000
   -3.7140   24.4880  -26.8300 C   0  0  0  0  0  0  0  0  0  0  0  0
   -2.4580   25.3080  -26.7310 C   0  0  0  0  0  0  0  0  0  0  0  0
   -2.1800   26.0330  -25.5590 C   0  0  0  0  0  0  0  0  0  0  0  0
   -1.0150   26.7960  -25.4600 C   0  0  0  0  0  0  0  0  0  0  0  0
   -0.1190   26.8430  -26.5280 C   0  0  0  0  0  0  0  0  0  0  0  0
   -0.3820   26.1270  -27.6980 C   0  0  0  0  0  0  0  0  0  0  0  0
   -1.5560   25.3540  -27.8140 C   0  0  0  0  0  0  0  0  0  0  0  0
   -1.8570   24.6120  -28.9710 O   0  0  0  0  0  0  0  0  0  0  0  0
   -1.9450   23.1890  -29.0510 C   0  0  0  0  0  0  0  0  0  0  0  0
   -2.2280   22.7440  -30.4840 C   0  0  0  0  0  0  0  0  0  0  0  0
   -3.1240   23.6970  -31.1230 N   0  0  0  0  0  0  0  0  0  0  0  0
   -4.1360   24.4090  -30.4070 C   0  0  0  0  0  0  0  0  0  0  0  0
   -4.1980   25.6670  -30.4660 O   0  0  0  0  0  0  0  0  0  0  0  0
   -5.0970   23.6570  -29.5430 C   0  0  0  0  0  0  0  0  0  0  0  0
   -6.7620   23.8460  -30.1560 S   0  0  0  0  0  0  0  0  0  0  0  0
   -7.2470   25.2410  -29.8730 O   0  0  0  0  0  0  0  0  0  0  0  0
   -7.6540   22.8610  -29.4550 O   0  0  0  0  0  0  0  0  0  0  0  0
   -6.8000   23.5430  -31.9140 C   0  0  0  0  0  0  0  0  0  0  0  0
   -7.0820   22.0990  -32.1870 C   0  0  0  0  0  0  0  0  0  0  0  0
   -6.1770   21.2450  -32.7040 N   0  0  0  0  0  0  0  0  0  0  0  0
   -6.8710   20.0900  -32.8300 C   0  0  0  0  0  0  0  0  0  0  0  0
   -6.2970   18.8320  -33.3590 C   0  0  0  0  0  0  0  0  0  0  0  0
   -5.1420   18.8830  -34.1600 C   0  0  0  0  0  0  0  0  0  0  0  0
   -4.5800   17.7080  -34.6710 C   0  0  0  0  0  0  0  0  0  0  0  0
   -5.1640   16.4720  -34.3880 C   0  0  0  0  0  0  0  0  0  0  0  0
   -6.3110   16.4070  -33.5930 C   0  0  0  0  0  0  0  0  0  0  0  0
   -6.8790   17.5780  -33.0780 C   0  0  0  0  0  0  0  0  0  0  0  0
   -7.9910   17.4770  -32.3050 F   0  0  0  0  0  0  0  0  0  0  0  0
   -8.1210   20.2060  -32.4320 O   0  0  0  0  0  0  0  0  0  0  0  0
   -8.2850   21.4420  -32.0330 C   0  0  0  0  0  0  0  0  0  0  0  0
   -9.5650   22.0000  -31.5050 C   0  0  0  0  0  0  0  0  0  0  0  0
   -4.0775   24.2507  -25.8193 H   0  0  0  0  0  0  0  0  0  0  0  0
   -4.4828   25.0587  -27.3716 H   0  0  0  0  0  0  0  0  0  0  0  0
   -3.5008   23.5546  -27.3716 H   0  0  0  0  0  0  0  0  0  0  0  0
   -2.8846   25.9989  -24.7150 H   0  0  0  0  0  0  0  0  0  0  0  0
   -0.8037   27.3602  -24.5396 H   0  0  0  0  0  0  0  0  0  0  0  0
    0.7976   27.4459  -26.4485 H   0  0  0  0  0  0  0  0  0  0  0  0
    0.3312   26.1662  -28.5345 H   0  0  0  0  0  0  0  0  0  0  0  0
   -0.9933   22.7493  -28.7179 H   0  0  0  0  0  0  0  0  0  0  0  0
   -2.7693   22.8495  -28.4066 H   0  0  0  0  0  0  0  0  0  0  0  0
   -1.2835   22.6960  -31.0458 H   0  0  0  0  0  0  0  0  0  0  0  0
   -2.6998   21.7504  -30.4717 H   0  0  0  0  0  0  0  0  0  0  0  0
   -4.8286   22.5902  -29.5454 H   0  0  0  0  0  0  0  0  0  0  0  0
   -5.0456   24.0569  -28.5196 H   0  0  0  0  0  0  0  0  0  0  0  0
   -7.5881   24.1592  -32.3713 H   0  0  0  0  0  0  0  0  0  0  0  0
   -5.8210   23.8033  -32.3428 H   0  0  0  0  0  0  0  0  0  0  0  0
   -4.6771   19.8539  -34.3864 H   0  0  0  0  0  0  0  0  0  0  0  0
   -3.6767   17.7582  -35.2967 H   0  0  0  0  0  0  0  0  0  0  0  0
   -4.7211   15.5493  -34.7910 H   0  0  0  0  0  0  0  0  0  0  0  0
   -6.7694   15.4320  -33.3710 H   0  0  0  0  0  0  0  0  0  0  0  0
   -9.5431   21.9905  -30.4053 H   0  0  0  0  0  0  0  0  0  0  0  0
   -9.6886   23.0337  -31.8603 H   0  0  0  0  0  0  0  0  0  0  0  0
  -10.4064   21.3870  -31.8603 H   0  0  0  0  0  0  0  0  0  0  0  0
  1  2  1  0
  2  3  2  0
  3  4  1  0
  4  5  2  0
  5  6  1  0
  6  7  2  0
  7  8  1  0
  8  9  1  0
  9 10  1  0
 10 11  1  0
 11 12  1  0
 12 13  2  0
 12 14  1  0
 14 15  1  0
 15 16  2  0
 15 17  2  0
 15 18  1  0
 18 19  1  0
 19 20  1  0
 20 21  2  0
 21 22  1  0
 22 23  2  0
 23 24  1  0
 24 25  2  0
 25 26  1  0
 26 27  2  0
 27 28  1  0
 21 29  1  0
 29 30  1  0
 30 31  1  0
  7  2  1  0
 30 19  2  0
 27 22  1  0
  1 32  1  0
  1 33  1  0
  1 34  1  0
  3 35  1  0
  4 36  1  0
  5 37  1  0
  6 38  1  0
  9 39  1  0
  9 40  1  0
 10 41  1  0
 10 42  1  0
 14 43  1  0
 14 44  1  0
 18 45  1  0
 18 46  1  0
 23 47  1  0
 24 48  1  0
 25 49  1  0
 26 50  1  0
 31 51  1  0
 31 52  1  0
 31 53  1  0
M  CHG  1  11  -1
M  END
>  <UniqueID>  (6) 
5

>  <SMILES>  (6) 
Cc1ccccc1OCC[N-]C(=O)CS(=O)(=O)Cc1nc(-c2ccccc2F)oc1C

>  <Energy>  (6) 
70.3203374022394

>  <Genealogy>  (6) 
Cc1ccccc1OCC[N-]C(=O)CS(=O)(=O)Cc1nc(-c2ccccc2F)oc1C (protonated)
Cc1ccccc1OCC[N-]C(=O)CS(=O)(=O)Cc1nc(-c2ccccc2F)oc1C (3D coordinates assigned)
Cc1ccccc1OCC[N-]C(=O)CS(=O)(=O)Cc1nc(-c2ccccc2F)oc1C (optimized conformer: 70.3203374022394 kcal/mol)

>  <smiles>  (6) 
Cc1ccccc1OCCNC(=O)CS(=O)(=O)Cc1nc(-c2ccccc2F)oc1C

>  <score_type>  (6) 
oracle

>  <origin>  (6) 
adg

>  <m_score__min__energy>  (6) 
-11.99

>  <m_primary>  (6) 
energy

$$$$
6:0
     RDKit          3D

 53 55  0  0  0  0  0  0  0  0999 V2000
   -8.7255   18.1742  -33.4923 H   0  0  0  0  0  0  0  0  0  0  0  0
   -8.0850   18.9560  -33.0580 C   0  0  0  0  0  0  0  0  0  0  0  0
   -8.6080   19.8390  -32.1120 C   0  0  0  0  0  0  0  0  0  0  0  0
   -9.6601   19.7506  -31.8034 H   0  0  0  0  0  0  0  0  0  0  0  0
   -7.8010   20.8350  -31.5550 C   0  0  0  0  0  0  0  0  0  0  0  0
   -8.5040   21.9100  -30.3500 Cl  0  0  0  0  0  0  0  0  0  0  0  0
   -6.4500   20.9500  -31.9460 C   0  0  0  0  0  0  0  0  0  0  0  0
   -5.5880   22.0000  -31.3600 C   0  0  0  0  0  0  0  0  0  0  0  0
   -4.4130   21.6370  -30.7010 C   0  0  0  0  0  0  0  0  0  0  0  0
   -4.1367   20.5762  -30.6098 H   0  0  0  0  0  0  0  0  0  0  0  0
   -3.5910   22.6220  -30.1590 C   0  0  0  0  0  0  0  0  0  0  0  0
   -2.3940   22.3030  -29.5100 C   0  0  0  0  0  0  0  0  0  0  0  0
   -2.0852   21.2521  -29.4090 H   0  0  0  0  0  0  0  0  0  0  0  0
   -1.6140   23.2920  -29.0050 N   0  0  0  0  0  0  0  0  0  0  0  0
   -1.9740   24.6000  -29.1190 C   0  0  0  0  0  0  0  0  0  0  0  0
   -1.2240   25.5440  -28.6360 N   0  0  0  0  0  0  0  0  0  0  0  0
   -0.6090   25.5040  -27.3120 C   0  0  0  0  0  0  0  0  0  0  0  0
    0.2280   26.2168  -27.2750 H   0  0  0  0  0  0  0  0  0  0  0  0
   -0.2358   24.4887  -27.1121 H   0  0  0  0  0  0  0  0  0  0  0  0
   -1.6470   25.8820  -26.2550 C   0  0  0  0  0  0  0  0  0  0  0  0
   -2.4860   25.1725  -26.3072 H   0  0  0  0  0  0  0  0  0  0  0  0
   -1.9903   26.9072  -26.4574 H   0  0  0  0  0  0  0  0  0  0  0  0
   -1.0480   25.8430  -24.8460 C   0  0  0  0  0  0  0  0  0  0  0  0
   -0.1814   25.1656  -24.8351 H   0  0  0  0  0  0  0  0  0  0  0  0
   -1.8065   25.4814  -24.1361 H   0  0  0  0  0  0  0  0  0  0  0  0
   -0.6150   27.2040  -24.4530 N   0  0  0  0  0  0  0  0  0  0  0  0
    0.8510   27.3020  -24.2830 C   0  0  0  0  0  0  0  0  0  0  0  0
    1.2712   27.8562  -25.1352 H   0  0  0  0  0  0  0  0  0  0  0  0
    1.2567   26.2807  -24.2340 H   0  0  0  0  0  0  0  0  0  0  0  0
    1.2300   28.0240  -22.9890 C   0  0  0  0  0  0  0  0  0  0  0  0
    0.9130   27.4202  -22.1259 H   0  0  0  0  0  0  0  0  0  0  0  0
    2.3200   28.1681  -22.9552 H   0  0  0  0  0  0  0  0  0  0  0  0
    0.7295   29.0030  -22.9552 H   0  0  0  0  0  0  0  0  0  0  0  0
   -1.2170   28.2590  -25.3060 C   0  0  0  0  0  0  0  0  0  0  0  0
   -1.9253   27.7793  -25.9975 H   0  0  0  0  0  0  0  0  0  0  0  0
   -1.6998   28.9751  -24.6247 H   0  0  0  0  0  0  0  0  0  0  0  0
   -0.2030   29.0610  -26.1370 C   0  0  0  0  0  0  0  0  0  0  0  0
    0.4787   29.6002  -25.4628 H   0  0  0  0  0  0  0  0  0  0  0  0
    0.3762   28.3740  -26.7715 H   0  0  0  0  0  0  0  0  0  0  0  0
   -0.7382   29.7828  -26.7715 H   0  0  0  0  0  0  0  0  0  0  0  0
   -3.1350   24.9280  -29.7440 N   0  0  0  0  0  0  0  0  0  0  0  0
   -3.9600   23.9760  -30.2670 C   0  0  0  0  0  0  0  0  0  0  0  0
   -5.1330   24.3290  -30.8920 N   0  0  0  0  0  0  0  0  0  0  0  0
   -5.4930   25.7520  -31.0190 C   0  0  0  0  0  0  0  0  0  0  0  0
   -5.6045   26.1928  -30.0174 H   0  0  0  0  0  0  0  0  0  0  0  0
   -4.7009   26.2831  -31.5672 H   0  0  0  0  0  0  0  0  0  0  0  0
   -6.4423   25.8425  -31.5672 H   0  0  0  0  0  0  0  0  0  0  0  0
   -5.9310   23.3620  -31.4610 C   0  0  0  0  0  0  0  0  0  0  0  0
   -6.9780   23.6880  -32.0870 O   0  0  0  0  0  0  0  0  0  0  0  0
   -5.9300   20.0540  -32.9040 C   0  0  0  0  0  0  0  0  0  0  0  0
   -4.2610   20.1630  -33.4560 Cl  0  0  0  0  0  0  0  0  0  0  0  0
   -6.7510   19.0630  -33.4540 C   0  0  0  0  0  0  0  0  0  0  0  0
   -6.3435   18.3660  -34.2010 H   0  0  0  0  0  0  0  0  0  0  0  0
  1  2  1  0
  2  3  2  0
  3  4  1  0
  3  5  1  0
  5  6  1  0
  5  7  2  0
  7  8  1  0
  8  9  2  0
  9 10  1  0
  9 11  1  0
 11 12  2  0
 12 13  1  0
 12 14  1  0
 14 15  1  0
 15 16  2  0
 16 17  1  0
 17 18  1  0
 17 19  1  0
 17 20  1  0
 20 21  1  0
 20 22  1  0
 20 23  1  0
 23 24  1  0
 23 25  1  0
 23 26  1  0
 26 27  1  0
 27 28  1  0
 27 29  1  0
 27 30  1  0
 30 31  1  0
 30 32  1  0
 30 33  1  0
 26 34  1  0
 34 35  1  0
 34 36  1  0
 34 37  1  0
 37 38  1  0
 37 39  1  0
 37 40  1  0
 15 41  1  0
 41 42  2  0
 42 43  1  0
 43 44  1  0
 44 45  1  0
 44 46  1  0
 44 47  1  0
 43 48  1  0
 48 49  2  0
  7 50  1  0
 50 51  1  0
 50 52  2  0
 52 53  1  0
 52  2  1  0
 48  8  1  0
 42 11  1  0
M  CHG  1  14  -1
M  END
>  <UniqueID>  (7) 
6

>  <SMILES>  (7) 
CCN(CC)CCC/N=c1/nc2c(c[n-]1)cc(-c1c(Cl)cccc1Cl)c(=O)n2C

>  <Energy>  (7) 
70.23422566242859

>  <Genealogy>  (7) 
CCN(CC)CCCN=c1nc2c(c[n-]1)cc(-c1c(Cl)cccc1Cl)c(=O)n2C (protonated)
CCN(CC)CCC/N=c1/nc2c(c[n-]1)cc(-c1c(Cl)cccc1Cl)c(=O)n2C (cis-trans isomerization)
CCN(CC)CCC/N=c1/nc2c(c[n-]1)cc(-c1c(Cl)cccc1Cl)c(=O)n2C (3D coordinates assigned)
CCN(CC)CCC/N=c1/nc2c(c[n-]1)cc(-c1c(Cl)cccc1Cl)c(=O)n2C (optimized conformer: 70.23422566242859 kcal/mol)

>  <smiles>  (7) 
CCN(CC)CCCN=c1nc2c(c[nH]1)cc(-c1c(Cl)cccc1Cl)c(=O)n2C

>  <score_type>  (7) 
oracle

>  <origin>  (7) 
adg

>  <m_score__min__energy>  (7) 
-10.1

>  <m_primary>  (7) 
energy

$$$$
7:0
     RDKit          3D

 36 38  0  0  0  0  0  0  0  0999 V2000
   -3.4010   18.8760  -33.4270 O   0  0  0  0  0  0  0  0  0  0  0  0
   -4.3200   19.3800  -32.7240 C   0  0  0  0  0  0  0  0  0  0  0  0
   -4.1580   20.6660  -32.1970 C   0  0  0  0  0  0  0  0  0  0  0  0
   -2.6870   21.5810  -32.5200 Cl  0  0  0  0  0  0  0  0  0  0  0  0
   -5.1950   21.2280  -31.4450 C   0  0  0  0  0  0  0  0  0  0  0  0
   -5.0720   22.5420  -30.8830 N   0  0  0  0  0  0  0  0  0  0  0  0
   -4.0540   22.7800  -29.8560 C   0  0  0  0  0  0  0  0  0  0  0  0
   -4.0780   24.2430  -29.3990 C   0  0  0  0  0  0  0  0  0  0  0  0
   -4.2560   25.1310  -30.5530 N   0  0  0  0  0  0  0  0  0  0  0  0
   -5.5720   24.9560  -31.1970 C   0  0  0  0  0  0  0  0  0  0  0  0
   -6.1380   23.5220  -31.0990 C   0  0  0  0  0  0  0  0  0  0  0  0
   -6.3630   20.4940  -31.2550 C   0  0  0  0  0  0  0  0  0  0  0  0
   -6.4740   19.2470  -31.7820 N   0  0  0  0  0  0  0  0  0  0  0  0
   -5.4820   18.6880  -32.4910 N   0  0  0  0  0  0  0  0  0  0  0  0
   -5.6660   17.3580  -33.0160 C   0  0  0  0  0  0  0  0  0  0  0  0
   -4.7350   16.3480  -32.7180 C   0  0  0  0  0  0  0  0  0  0  0  0
   -4.9000   15.0620  -33.2370 C   0  0  0  0  0  0  0  0  0  0  0  0
   -5.9900   14.7730  -34.0620 C   0  0  0  0  0  0  0  0  0  0  0  0
   -6.9160   15.7730  -34.3730 C   0  0  0  0  0  0  0  0  0  0  0  0
   -6.7550   17.0620  -33.8550 C   0  0  0  0  0  0  0  0  0  0  0  0
   -4.2530   22.1285  -28.9923 H   0  0  0  0  0  0  0  0  0  0  0  0
   -3.0639   22.5581  -30.2809 H   0  0  0  0  0  0  0  0  0  0  0  0
   -4.9105   24.3903  -28.6953 H   0  0  0  0  0  0  0  0  0  0  0  0
   -3.1236   24.4811  -28.9066 H   0  0  0  0  0  0  0  0  0  0  0  0
   -3.5060   24.9230  -31.2540 H   0  0  0  0  0  0  0  0  0  0  0  0
   -6.2852   25.6422  -30.7169 H   0  0  0  0  0  0  0  0  0  0  0  0
   -5.4315   25.1685  -32.2671 H   0  0  0  0  0  0  0  0  0  0  0  0
   -6.8454   23.4729  -30.2581 H   0  0  0  0  0  0  0  0  0  0  0  0
   -6.6422   23.2827  -32.0469 H   0  0  0  0  0  0  0  0  0  0  0  0
   -7.1954   20.9238  -30.6784 H   0  0  0  0  0  0  0  0  0  0  0  0
   -7.3580   18.7170  -31.6060 H   0  0  0  0  0  0  0  0  0  0  0  0
   -3.8724   16.5715  -32.0730 H   0  0  0  0  0  0  0  0  0  0  0  0
   -4.1703   14.2750  -32.9958 H   0  0  0  0  0  0  0  0  0  0  0  0
   -6.1195   13.7584  -34.4668 H   0  0  0  0  0  0  0  0  0  0  0  0
   -7.7719   15.5458  -35.0256 H   0  0  0  0  0  0  0  0  0  0  0  0
   -7.4833   17.8476  -34.1049 H   0  0  0  0  0  0  0  0  0  0  0  0
  1  2  2  0
  2  3  1  0
  3  4  1  0
  3  5  2  0
  5  6  1  0
  6  7  1  0
  7  8  1  0
  8  9  1  0
  9 10  1  0
 10 11  1  0
  5 12  1  0
 12 13  2  0
 13 14  1  0
 14 15  1  0
 15 16  2  0
 16 17  1  0
 17 18  2  0
 18 19  1  0
 19 20  2  0
 14  2  1  0
 20 15  1  0
 11  6  1  0
  7 21  1  0
  7 22  1  0
  8 23  1  0
  8 24  1  0
  9 25  1  0
 10 26  1  0
 10 27  1  0
 11 28  1  0
 11 29  1  0
 12 30  1  0
 13 31  1  0
 16 32  1  0
 17 33  1  0
 18 34  1  0
 19 35  1  0
 20 36  1  0
M  CHG  1  13   1
M  END
>  <UniqueID>  (8) 
7

>  <SMILES>  (8) 
O=c1c(Cl)c(N2CCNCC2)c[nH+]n1-c1ccccc1

>  <Energy>  (8) 
55.915901224631895

>  <Genealogy>  (8) 
O=c1c(Cl)c(N2CCNCC2)c[nH+]n1-c1ccccc1 (protonated)
O=c1c(Cl)c(N2CCNCC2)c[nH+]n1-c1ccccc1 (3D coordinates assigned)
O=c1c(Cl)c(N2CCNCC2)c[nH+]n1-c1ccccc1 (nonaromatic ring conformer: 55.915901224631895 kcal/mol)

>  <smiles>  (8) 
O=c1c(Cl)c(N2CCNCC2)cnn1-c1ccccc1

>  <score_type>  (8) 
oracle

>  <origin>  (8) 
adg

>  <m_score__min__energy>  (8) 
-6.4900000000000002

>  <m_primary>  (8) 
energy

$$$$
8:0
     RDKit          3D

 41 42  0  0  0  0  0  0  0  0999 V2000
   -7.7170   23.4100  -31.6570 C   0  0  0  0  0  0  0  0  0  0  0  0
   -7.2310   23.9300  -30.3050 C   0  0  0  0  0  0  0  0  0  0  0  0
   -6.2030   25.0610  -30.4460 C   0  0  0  0  0  0  0  0  0  0  0  0
   -4.8180   24.5300  -30.6730 C   0  0  0  0  0  0  0  0  0  0  0  0
   -3.8320   25.3050  -30.5350 O   0  0  0  0  0  0  0  0  0  0  0  0
   -4.6310   23.1730  -31.1090 N   0  0  0  0  0  0  0  0  0  0  0  0
   -3.3560   22.5090  -31.1990 C   0  0  0  0  0  0  0  0  0  0  0  0
   -2.1280   22.9170  -30.1830 S   0  0  0  0  0  0  0  0  0  0  0  0
   -3.2120   21.3320  -32.0960 C   0  0  0  0  0  0  0  0  0  0  0  0
   -1.9790   21.0510  -32.7090 C   0  0  0  0  0  0  0  0  0  0  0  0
   -1.8160   19.9570  -33.5140 N   0  0  0  0  0  0  0  0  0  0  0  0
   -0.5010   19.7300  -34.1380 C   0  0  0  0  0  0  0  0  0  0  0  0
   -0.0840   20.9470  -34.9590 C   0  0  0  0  0  0  0  0  0  0  0  0
   -2.8700   19.1140  -33.7640 C   0  0  0  0  0  0  0  0  0  0  0  0
   -2.7140   18.0390  -34.5890 N   0  0  0  0  0  0  0  0  0  0  0  0
   -3.7300   17.1790  -34.8710 C   0  0  0  0  0  0  0  0  0  0  0  0
   -3.4800   16.0020  -35.7590 C   0  0  0  0  0  0  0  0  0  0  0  0
   -4.9850   17.3750  -34.2880 C   0  0  0  0  0  0  0  0  0  0  0  0
   -5.1870   18.4660  -33.4440 C   0  0  0  0  0  0  0  0  0  0  0  0
   -4.1310   19.3540  -33.1730 C   0  0  0  0  0  0  0  0  0  0  0  0
   -4.2980   20.4700  -32.3360 C   0  0  0  0  0  0  0  0  0  0  0  0
   -5.4240   20.7110  -31.8190 O   0  0  0  0  0  0  0  0  0  0  0  0
   -8.4602   22.6148  -31.4983 H   0  0  0  0  0  0  0  0  0  0  0  0
   -8.1765   24.2337  -32.2230 H   0  0  0  0  0  0  0  0  0  0  0  0
   -6.8641   23.0072  -32.2230 H   0  0  0  0  0  0  0  0  0  0  0  0
   -8.0962   24.3079  -29.7405 H   0  0  0  0  0  0  0  0  0  0  0  0
   -6.7407   23.0955  -29.7823 H   0  0  0  0  0  0  0  0  0  0  0  0
   -6.4857   25.6948  -31.2995 H   0  0  0  0  0  0  0  0  0  0  0  0
   -6.1988   25.6380  -29.5095 H   0  0  0  0  0  0  0  0  0  0  0  0
   -5.4760   22.6410  -31.4140 H   0  0  0  0  0  0  0  0  0  0  0  0
   -1.1268   21.7251  -32.5379 H   0  0  0  0  0  0  0  0  0  0  0  0
    0.2469   19.5497  -33.3518 H   0  0  0  0  0  0  0  0  0  0  0  0
   -0.5681   18.8568  -34.8036 H   0  0  0  0  0  0  0  0  0  0  0  0
    0.1970   21.7672  -34.2820 H   0  0  0  0  0  0  0  0  0  0  0  0
    0.7754   20.6844  -35.5934 H   0  0  0  0  0  0  0  0  0  0  0  0
   -0.9239   21.2666  -35.5934 H   0  0  0  0  0  0  0  0  0  0  0  0
   -3.2908   15.1110  -35.1423 H   0  0  0  0  0  0  0  0  0  0  0  0
   -4.3612   15.8280  -36.3940 H   0  0  0  0  0  0  0  0  0  0  0  0
   -2.6041   16.2012  -36.3940 H   0  0  0  0  0  0  0  0  0  0  0  0
   -5.8071   16.6737  -34.4936 H   0  0  0  0  0  0  0  0  0  0  0  0
   -6.1746   18.6325  -32.9891 H   0  0  0  0  0  0  0  0  0  0  0  0
  1  2  1  0
  2  3  1  0
  3  4  1  0
  4  5  2  0
  4  6  1  0
  6  7  1  0
  7  8  2  0
  7  9  1  0
  9 10  2  0
 10 11  1  0
 11 12  1  0
 12 13  1  0
 11 14  1  0
 14 15  2  0
 15 16  1  0
 16 17  1  0
 16 18  2  0
 18 19  1  0
 19 20  2  0
 20 21  1  0
 21 22  2  0
 21  9  1  0
 20 14  1  0
  1 23  1  0
  1 24  1  0
  1 25  1  0
  2 26  1  0
  2 27  1  0
  3 28  1  0
  3 29  1  0
  6 30  1  0
 10 31  1  0
 12 32  1  0
 12 33  1  0
 13 34  1  0
 13 35  1  0
 13 36  1  0
 17 37  1  0
 17 38  1  0
 17 39  1  0
 18 40  1  0
 19 41  1  0
M  END
>  <UniqueID>  (9) 
8

>  <SMILES>  (9) 
CCCC(=O)NC(=S)c1cn(CC)c2nc(C)ccc2c1=O

>  <Energy>  (9) 
45.12341048908245

>  <Genealogy>  (9) 
CCCC(=O)NC(=S)c1cn(CC)c2nc(C)ccc2c1=O (3D coordinates assigned)
CCCC(=O)NC(=S)c1cn(CC)c2nc(C)ccc2c1=O (optimized conformer: 45.12341048908245 kcal/mol)

>  <smiles>  (9) 
CCCC(=O)NC(=S)c1cn(CC)c2nc(C)ccc2c1=O

>  <score_type>  (9) 
oracle

>  <origin>  (9) 
adg

>  <m_score__min__energy>  (9) 
-7.7400000000000002

>  <m_primary>  (9) 
energy

$$$$
9:0
     RDKit          3D

 34 36  0  0  1  0  0  0  0  0999 V2000
   -1.9570   24.9270  -28.3850 C   0  0  0  0  0  0  0  0  0  0  0  0
   -2.8090   25.2680  -29.4300 O   0  0  0  0  0  0  0  0  0  0  0  0
   -3.9150   24.5480  -29.8610 C   0  0  0  0  0  0  0  0  0  0  0  0
   -3.9100   23.1590  -29.6780 C   0  0  0  0  0  0  0  0  0  0  0  0
   -4.9950   22.4080  -30.0930 C   0  0  0  0  0  0  0  0  0  0  0  0
   -6.0920   23.0020  -30.6900 C   0  0  0  0  0  0  0  0  0  0  0  0
   -7.2410   22.2020  -31.1300 C   0  0  0  0  0  0  0  0  0  0  0  0
   -8.3610   22.2470  -30.3580 N   0  0  0  0  0  0  0  0  0  0  0  0
   -9.4610   21.5580  -30.6650 C   0  0  0  0  0  0  0  0  0  0  0  0
   -9.4830   20.7860  -31.7740 N   0  0  0  0  0  0  0  0  0  0  0  0
   -8.3850   20.7120  -32.5730 C   0  0  0  0  0  0  0  0  0  0  0  0
   -7.2430   21.4300  -32.2490 C   0  0  0  0  0  0  0  0  0  0  0  0
   -6.0630   21.3960  -33.0420 N   0  0  0  0  0  0  0  0  0  0  0  0
   -5.4520   20.2790  -33.2640 C   0  0  0  0  0  0  0  0  0  0  0  0
   -6.1590   19.1680  -33.5810 N   0  0  0  0  0  0  0  0  0  0  0  0
   -5.5400   17.9900  -33.8170 C   0  0  0  0  0  0  0  0  0  0  0  0
   -6.4310   16.5340  -34.2290 Cl  0  0  0  0  0  0  0  0  0  0  0  0
   -4.1840   17.8870  -33.7410 N   0  0  0  0  0  0  0  0  0  0  0  0
   -3.4240   18.9540  -33.4310 C   0  0  0  0  0  0  0  0  0  0  0  0
   -4.0880   20.1570  -33.1920 C   0  0  0  0  0  0  0  0  0  0  0  0
   -3.1260   21.5480  -32.7890 Cl  0  0  0  0  0  0  0  0  0  0  0  0
   -6.1080   24.3860  -30.8780 C   0  0  0  0  0  0  0  0  0  0  0  0
   -5.0130   25.1340  -30.4570 C   0  0  0  0  0  0  0  0  0  0  0  0
   -2.4558   25.1267  -27.4252 H   0  0  0  0  0  0  0  0  0  0  0  0
   -1.7044   23.8585  -28.4517 H   0  0  0  0  0  0  0  0  0  0  0  0
   -1.0369   25.5262  -28.4517 H   0  0  0  0  0  0  0  0  0  0  0  0
   -3.0465   22.6675  -29.2061 H   0  0  0  0  0  0  0  0  0  0  0  0
   -4.9851   21.3180  -29.9454 H   0  0  0  0  0  0  0  0  0  0  0  0
  -10.3480   21.6180  -30.0172 H   0  0  0  0  0  0  0  0  0  0  0  0
   -8.4024   20.0833  -33.4755 H   0  0  0  0  0  0  0  0  0  0  0  0
   -7.1960   19.1650  -33.6580 H   0  0  0  0  0  0  0  0  0  0  0  0
   -2.3282   18.8804  -33.3690 H   0  0  0  0  0  0  0  0  0  0  0  0
   -6.9717   24.8762  -31.3509 H   0  0  0  0  0  0  0  0  0  0  0  0
   -5.0228   26.2242  -30.6035 H   0  0  0  0  0  0  0  0  0  0  0  0
  1  2  1  0
  2  3  1  0
  3  4  2  0
  4  5  1  0
  5  6  2  0
  6  7  1  0
  7  8  2  0
  8  9  1  0
  9 10  2  0
 10 11  1  0
 11 12  2  0
 12 13  1  0
 13 14  2  0
 14 15  1  0
 15 16  1  0
 16 17  1  0
 16 18  2  0
 18 19  1  0
 19 20  2  0
 20 21  1  0
  6 22  1  0
 22 23  2  0
 23  3  1  0
 12  7  1  0
 20 14  1  0
  1 24  1  0
  1 25  1  0
  1 26  1  0
  4 27  1  0
  5 28  1  0
  9 29  1  0
 11 30  1  0
 15 31  1  0
 19 32  1  0
 22 33  1  0
 23 34  1  0
M  END
>  <smiles>  (10) 
COc1ccc(-c2ncncc2N=c2[nH]c(Cl)ncc2Cl)cc1

>  <score_type>  (10) 
oracle

>  <origin>  (10) 
adg

>  <m_score__min__energy>  (10) 
-8.1500000000000004

>  <m_primary>  (10) 
energy

$$$$
10:0
     RDKit          3D

 42 45  0  0  0  0  0  0  0  0999 V2000
   -6.4660   25.8060  -29.3340 C   0  0  0  0  0  0  0  0  0  0  0  0
   -5.9030   24.6530  -30.1120 C   0  0  0  0  0  0  0  0  0  0  0  0
   -6.2210   24.4930  -31.4680 C   0  0  0  0  0  0  0  0  0  0  0  0
   -5.7260   23.3990  -32.1830 C   0  0  0  0  0  0  0  0  0  0  0  0
   -4.9080   22.4480  -31.5530 C   0  0  0  0  0  0  0  0  0  0  0  0
   -4.4000   21.2870  -32.3150 C   0  0  0  0  0  0  0  0  0  0  0  0
   -3.1280   21.1810  -32.7480 N   0  0  0  0  0  0  0  0  0  0  0  0
   -3.0110   20.0810  -33.4770 N   0  0  0  0  0  0  0  0  0  0  0  0
   -1.7930   19.6420  -34.1100 C   0  0  0  0  0  0  0  0  0  0  0  0
   -1.5150   18.2710  -34.2520 C   0  0  0  0  0  0  0  0  0  0  0  0
   -0.3330   17.8470  -34.8660 C   0  0  0  0  0  0  0  0  0  0  0  0
    0.5850   18.7850  -35.3430 C   0  0  0  0  0  0  0  0  0  0  0  0
    0.3210   20.1500  -35.2100 C   0  0  0  0  0  0  0  0  0  0  0  0
   -0.8600   20.5790  -34.5960 C   0  0  0  0  0  0  0  0  0  0  0  0
   -4.2060   19.4550  -33.5220 C   0  0  0  0  0  0  0  0  0  0  0  0
   -5.1190   20.1890  -32.7840 C   0  0  0  0  0  0  0  0  0  0  0  0
   -6.5180   19.7990  -32.5020 C   0  0  0  0  0  0  0  0  0  0  0  0
   -6.8440   18.4750  -32.1660 C   0  0  0  0  0  0  0  0  0  0  0  0
   -8.1750   18.1340  -31.9180 C   0  0  0  0  0  0  0  0  0  0  0  0
   -9.1500   19.0760  -32.0130 N   0  0  0  0  0  0  0  0  0  0  0  0
   -8.8670   20.3630  -32.3510 C   0  0  0  0  0  0  0  0  0  0  0  0
   -7.5480   20.7460  -32.6080 C   0  0  0  0  0  0  0  0  0  0  0  0
   -4.6200   22.5920  -30.1850 C   0  0  0  0  0  0  0  0  0  0  0  0
   -5.1150   23.6860  -29.4700 C   0  0  0  0  0  0  0  0  0  0  0  0
   -6.3676   25.6046  -28.2571 H   0  0  0  0  0  0  0  0  0  0  0  0
   -5.9145   26.7234  -29.5873 H   0  0  0  0  0  0  0  0  0  0  0  0
   -7.5286   25.9352  -29.5873 H   0  0  0  0  0  0  0  0  0  0  0  0
   -6.8626   25.2314  -31.9711 H   0  0  0  0  0  0  0  0  0  0  0  0
   -5.9792   23.2823  -33.2471 H   0  0  0  0  0  0  0  0  0  0  0  0
   -2.3690   21.8820  -32.5900 H   0  0  0  0  0  0  0  0  0  0  0  0
   -2.2329   17.5267  -33.8772 H   0  0  0  0  0  0  0  0  0  0  0  0
   -0.1255   16.7721  -34.9737 H   0  0  0  0  0  0  0  0  0  0  0  0
    1.5158   18.4489  -35.8233 H   0  0  0  0  0  0  0  0  0  0  0  0
    1.0429   20.8886  -35.5887 H   0  0  0  0  0  0  0  0  0  0  0  0
   -1.0618   21.6553  -34.4918 H   0  0  0  0  0  0  0  0  0  0  0  0
   -4.4191   18.5174  -34.0563 H   0  0  0  0  0  0  0  0  0  0  0  0
   -6.0554   17.7111  -32.0986 H   0  0  0  0  0  0  0  0  0  0  0  0
   -8.4351   17.1006  -31.6451 H   0  0  0  0  0  0  0  0  0  0  0  0
   -9.6776   21.1032  -32.4221 H   0  0  0  0  0  0  0  0  0  0  0  0
   -7.3185   21.7837  -32.8917 H   0  0  0  0  0  0  0  0  0  0  0  0
   -4.0015   21.8394  -29.6742 H   0  0  0  0  0  0  0  0  0  0  0  0
   -4.8858   23.7893  -28.3991 H   0  0  0  0  0  0  0  0  0  0  0  0
  1  2  1  0
  2  3  2  0
  3  4  1  0
  4  5  2  0
  5  6  1  0
  6  7  2  0
  7  8  1  0
  8  9  1  0
  9 10  2  0
 10 11  1  0
 11 12  2  0
 12 13  1  0
 13 14  2  0
  8 15  1  0
 15 16  2  0
 16 17  1  0
 17 18  2  0
 18 19  1  0
 19 20  2  0
 20 21  1  0
 21 22  2  0
  5 23  1  0
 23 24  2  0
 24  2  1  0
 16  6  1  0
 22 17  1  0
 14  9  1  0
  1 25  1  0
  1 26  1  0
  1 27  1  0
  3 28  1  0
  4 29  1  0
  7 30  1  0
 10 31  1  0
 11 32  1  0
 12 33  1  0
 13 34  1  0
 14 35  1  0
 15 36  1  0
 18 37  1  0
 19 38  1  0
 21 39  1  0
 22 40  1  0
 23 41  1  0
 24 42  1  0
M  CHG  1   7   1
M  END
>  <UniqueID>  (11) 
9

>  <SMILES>  (11) 
Cc1ccc(-c2[nH+]n(-c3ccccc3)cc2-c2ccncc2)cc1

>  <Energy>  (11) 
88.73160569343352

>  <Genealogy>  (11) 
Cc1ccc(-c2[nH+]n(-c3ccccc3)cc2-c2ccncc2)cc1 (protonated)
Cc1ccc(-c2[nH+]n(-c3ccccc3)cc2-c2ccncc2)cc1 (3D coordinates assigned)
Cc1ccc(-c2[nH+]n(-c3ccccc3)cc2-c2ccncc2)cc1 (optimized conformer: 88.73160569343352 kcal/mol)

>  <smiles>  (11) 
Cc1ccc(-c2nn(-c3ccccc3)cc2-c2ccncc2)cc1

>  <score_type>  (11) 
oracle

>  <origin>  (11) 
adg

>  <m_score__min__energy>  (11) 
-7.5

>  <m_primary>  (11) 
energy

$$$$
11:0
     RDKit          3D

 41 42  0  0  0  0  0  0  0  0999 V2000
   -2.3500   18.5540  -26.3220 C   0  0  0  0  0  0  0  0  0  0  0  0
   -2.1040   19.8970  -26.9430 C   0  0  0  0  0  0  0  0  0  0  0  0
   -1.3110   20.8470  -26.2800 C   0  0  0  0  0  0  0  0  0  0  0  0
   -1.1080   22.1090  -26.8430 C   0  0  0  0  0  0  0  0  0  0  0  0
   -1.6930   22.4330  -28.0740 C   0  0  0  0  0  0  0  0  0  0  0  0
   -1.4040   24.0450  -28.8100 S   0  0  0  0  0  0  0  0  0  0  0  0
   -2.3190   24.9960  -27.5380 C   0  0  0  0  0  0  0  0  0  0  0  0
   -3.6280   24.3030  -27.1100 C   0  0  0  0  0  0  0  0  0  0  0  0
   -4.7470   24.6440  -28.0120 N   0  0  0  0  0  0  0  0  0  0  0  0
   -4.8860   23.6860  -29.1210 C   0  0  0  0  0  0  0  0  0  0  0  0
   -4.5830   24.3240  -30.4570 C   0  0  0  0  0  0  0  0  0  0  0  0
   -3.8680   25.3600  -30.4890 O   0  0  0  0  0  0  0  0  0  0  0  0
   -4.9710   23.7140  -31.6960 N   0  0  0  0  0  0  0  0  0  0  0  0
   -6.0490   22.7870  -31.8710 C   0  0  0  0  0  0  0  0  0  0  0  0
   -7.3790   23.1590  -31.6140 C   0  0  0  0  0  0  0  0  0  0  0  0
   -8.4130   22.2370  -31.7940 C   0  0  0  0  0  0  0  0  0  0  0  0
   -8.1290   20.9470  -32.2530 C   0  0  0  0  0  0  0  0  0  0  0  0
   -6.8110   20.5820  -32.5420 C   0  0  0  0  0  0  0  0  0  0  0  0
   -6.4240   18.8230  -33.1790 Br  0  0  0  0  0  0  0  0  0  0  0  0
   -5.7740   21.5050  -32.3630 C   0  0  0  0  0  0  0  0  0  0  0  0
   -2.5120   21.5010  -28.7210 C   0  0  0  0  0  0  0  0  0  0  0  0
   -2.7190   20.2390  -28.1570 C   0  0  0  0  0  0  0  0  0  0  0  0
   -2.3328   18.6480  -25.2262 H   0  0  0  0  0  0  0  0  0  0  0  0
   -3.3323   18.1763  -26.6422 H   0  0  0  0  0  0  0  0  0  0  0  0
   -1.5654   17.8527  -26.6422 H   0  0  0  0  0  0  0  0  0  0  0  0
   -0.8481   20.5967  -25.3141 H   0  0  0  0  0  0  0  0  0  0  0  0
   -0.4872   22.8503  -26.3185 H   0  0  0  0  0  0  0  0  0  0  0  0
   -1.6755   25.1115  -26.6533 H   0  0  0  0  0  0  0  0  0  0  0  0
   -2.5842   25.9698  -27.9755 H   0  0  0  0  0  0  0  0  0  0  0  0
   -3.4764   23.2136  -27.1261 H   0  0  0  0  0  0  0  0  0  0  0  0
   -3.8850   24.6503  -26.0984 H   0  0  0  0  0  0  0  0  0  0  0  0
   -5.6500   24.6390  -27.4830 H   0  0  0  0  0  0  0  0  0  0  0  0
   -4.6060   25.6080  -28.3950 H   0  0  0  0  0  0  0  0  0  0  0  0
   -4.1886   22.8508  -28.9592 H   0  0  0  0  0  0  0  0  0  0  0  0
   -5.9280   23.3341  -29.1394 H   0  0  0  0  0  0  0  0  0  0  0  0
   -7.6068   24.1787  -31.2702 H   0  0  0  0  0  0  0  0  0  0  0  0
   -9.4514   22.5260  -31.5745 H   0  0  0  0  0  0  0  0  0  0  0  0
   -8.9430   20.2193  -32.3867 H   0  0  0  0  0  0  0  0  0  0  0  0
   -4.7399   21.2225  -32.6095 H   0  0  0  0  0  0  0  0  0  0  0  0
   -2.9936   21.7619  -29.6749 H   0  0  0  0  0  0  0  0  0  0  0  0
   -3.3668   19.5108  -28.6670 H   0  0  0  0  0  0  0  0  0  0  0  0
  1  2  1  0
  2  3  2  0
  3  4  1  0
  4  5  2  0
  5  6  1  0
  6  7  1  0
  7  8  1  0
  8  9  1  0
  9 10  1  0
 10 11  1  0
 11 12  2  0
 11 13  1  0
 13 14  1  0
 14 15  2  0
 15 16  1  0
 16 17  2  0
 17 18  1  0
 18 19  1  0
 18 20  2  0
  5 21  1  0
 21 22  2  0
 22  2  1  0
 20 14  1  0
  1 23  1  0
  1 24  1  0
  1 25  1  0
  3 26  1  0
  4 27  1  0
  7 28  1  0
  7 29  1  0
  8 30  1  0
  8 31  1  0
  9 32  1  0
  9 33  1  0
 10 34  1  0
 10 35  1  0
 15 36  1  0
 16 37  1  0
 17 38  1  0
 20 39  1  0
 21 40  1  0
 22 41  1  0
M  CHG  2   9   1  13  -1
M  END
>  <UniqueID>  (12) 
10

>  <SMILES>  (12) 
Cc1ccc(SCC[NH2+]CC(=O)[N-]c2cccc(Br)c2)cc1

>  <Energy>  (12) 
40.676005895074084

>  <Genealogy>  (12) 
Cc1ccc(SCC[NH2+]CC(=O)[N-]c2cccc(Br)c2)cc1 (protonated)
Cc1ccc(SCC[NH2+]CC(=O)[N-]c2cccc(Br)c2)cc1 (3D coordinates assigned)
Cc1ccc(SCC[NH2+]CC(=O)[N-]c2cccc(Br)c2)cc1 (optimized conformer: 40.676005895074084 kcal/mol)

>  <smiles>  (12) 
Cc1ccc(SCCNCC(=O)Nc2cccc(Br)c2)cc1

>  <score_type>  (12) 
oracle

>  <origin>  (12) 
adg

>  <m_score__min__energy>  (12) 
-9.9199999999999999

>  <m_primary>  (12) 
energy

$$$$
12:0
     RDKit          3D

 38 40  0  0  0  0  0  0  0  0999 V2000
   -1.6590   21.6890  -31.5470 C   0  0  0  0  0  0  0  0  0  0  0  0
   -2.0790   22.4220  -30.2790 C   0  0  0  0  0  0  0  0  0  0  0  0
   -3.3440   23.1190  -30.4970 N   0  0  0  0  0  0  0  0  0  0  0  0
   -3.6150   24.4180  -30.2310 C   0  0  0  0  0  0  0  0  0  0  0  0
   -2.7310   25.2950  -29.6120 O   0  0  0  0  0  0  0  0  0  0  0  0
   -4.9230   24.6990  -30.5650 C   0  0  0  0  0  0  0  0  0  0  0  0
   -5.4800   23.5580  -30.9860 C   0  0  0  0  0  0  0  0  0  0  0  0
   -4.5110   22.5780  -30.9180 C   0  0  0  0  0  0  0  0  0  0  0  0
   -4.7160   21.2220  -31.1390 O   0  0  0  0  0  0  0  0  0  0  0  0
   -6.9280   23.5390  -30.7030 C   0  0  2  0  0  0  0  0  0  0  0  0
   -7.7080   23.2390  -31.9530 C   0  0  0  0  0  0  0  0  0  0  0  0
   -7.4000   23.7990  -33.0410 O   0  0  0  0  0  0  0  0  0  0  0  0
   -8.7850   22.3010  -31.9040 N   0  0  0  0  0  0  0  0  0  0  0  0
   -8.6840   20.9990  -31.2540 C   0  0  0  0  0  0  0  0  0  0  0  0
   -7.9190   20.0490  -32.1370 C   0  0  0  0  0  0  0  0  0  0  0  0
   -6.9130   20.5290  -32.9930 C   0  0  0  0  0  0  0  0  0  0  0  0
   -6.1710   19.6400  -33.7780 C   0  0  0  0  0  0  0  0  0  0  0  0
   -6.4240   18.2670  -33.7100 C   0  0  0  0  0  0  0  0  0  0  0  0
   -5.7070   17.4060  -34.4720 F   0  0  0  0  0  0  0  0  0  0  0  0
   -7.4160   17.7810  -32.8540 C   0  0  0  0  0  0  0  0  0  0  0  0
   -8.1600   18.6650  -32.0650 C   0  0  0  0  0  0  0  0  0  0  0  0
   -9.1100   18.1710  -31.2300 F   0  0  0  0  0  0  0  0  0  0  0  0
   -7.2280   24.8830  -30.1420 N   0  0  0  0  0  0  0  0  0  0  0  0
   -5.9350   25.5810  -29.9500 C   0  0  0  0  0  0  0  0  0  0  0  0
   -1.1288   20.7637  -31.2771 H   0  0  0  0  0  0  0  0  0  0  0  0
   -2.5518   21.4405  -32.1397 H   0  0  0  0  0  0  0  0  0  0  0  0
   -0.9932   22.3336  -32.1397 H   0  0  0  0  0  0  0  0  0  0  0  0
   -2.2002   21.6954  -29.4621 H   0  0  0  0  0  0  0  0  0  0  0  0
   -1.3042   23.1568  -30.0149 H   0  0  0  0  0  0  0  0  0  0  0  0
   -7.2150   22.7499  -29.9924 H   0  0  0  0  0  0  0  0  0  0  0  0
   -8.1585   21.1094  -30.2939 H   0  0  0  0  0  0  0  0  0  0  0  0
   -9.6940   20.6001  -31.0785 H   0  0  0  0  0  0  0  0  0  0  0  0
   -6.7081   21.6085  -33.0460 H   0  0  0  0  0  0  0  0  0  0  0  0
   -5.3878   20.0218  -34.4494 H   0  0  0  0  0  0  0  0  0  0  0  0
   -7.6125   16.7000  -32.8004 H   0  0  0  0  0  0  0  0  0  0  0  0
   -7.8120   25.4460  -30.8050 H   0  0  0  0  0  0  0  0  0  0  0  0
   -5.9477   26.5607  -30.4501 H   0  0  0  0  0  0  0  0  0  0  0  0
   -5.7239   25.7698  -28.8871 H   0  0  0  0  0  0  0  0  0  0  0  0
  1  2  1  0
  2  3  1  0
  3  4  1  0
  4  5  1  0
  4  6  2  0
  6  7  1  0
  7  8  2  0
  8  9  1  0
  7 10  1  0
 10 11  1  0
 11 12  2  0
 11 13  1  0
 13 14  1  0
 14 15  1  0
 15 16  2  0
 16 17  1  0
 17 18  2  0
 18 19  1  0
 18 20  1  0
 20 21  2  0
 21 22  1  0
 10 23  1  0
 23 24  1  0
  8  3  1  0
 21 15  1  0
 24  6  1  0
  1 25  1  0
  1 26  1  0
  1 27  1  0
  2 28  1  0
  2 29  1  0
 10 30  1  1
 14 31  1  0
 14 32  1  0
 16 33  1  0
 17 34  1  0
 20 35  1  0
 23 36  1  0
 24 37  1  0
 24 38  1  0
M  CHG  3   5  -1   9  -1  13  -1
M  END
>  <UniqueID>  (13) 
11

>  <SMILES>  (13) 
CCn1c([O-])c2c(c1[O-])[C@H](C(=O)[N-]Cc1ccc(F)cc1F)NC2

>  <Energy>  (13) 
90.11382004279221

>  <Genealogy>  (13) 
CCn1c([O-])c2c(c1[O-])C(C(=O)[N-]Cc1ccc(F)cc1F)NC2 (protonated)
CCn1c([O-])c2c(c1[O-])[C@H](C(=O)[N-]Cc1ccc(F)cc1F)NC2 (chirality)
CCn1c([O-])c2c(c1[O-])[C@H](C(=O)[N-]Cc1ccc(F)cc1F)NC2 (3D coordinates assigned)
CCn1c([O-])c2c(c1[O-])[C@H](C(=O)[N-]Cc1ccc(F)cc1F)NC2 (nonaromatic ring conformer: 90.11382004279221 kcal/mol)

>  <smiles>  (13) 
CCn1c(O)c2c(c1O)C(C(=O)NCc1ccc(F)cc1F)NC2

>  <score_type>  (13) 
oracle

>  <origin>  (13) 
adg

>  <m_score__min__energy>  (13) 
-11.01

>  <m_primary>  (13) 
energy

$$$$
13:0
     RDKit          3D

 52 54  0  0  0  0  0  0  0  0999 V2000
   -1.2100   24.5310  -26.1510 C   0  0  0  0  0  0  0  0  0  0  0  0
   -0.0700   23.7500  -27.2740 S   0  0  0  0  0  0  0  0  0  0  0  0
    0.5750   24.7800  -28.1570 O   0  0  0  0  0  0  0  0  0  0  0  0
    1.0150   23.0930  -26.4680 O   0  0  0  0  0  0  0  0  0  0  0  0
   -0.9200   22.5180  -28.2260 C   0  0  0  0  0  0  0  0  0  0  0  0
   -0.3810   21.2190  -28.2150 C   0  0  0  0  0  0  0  0  0  0  0  0
   -0.9720   20.1910  -28.9500 C   0  0  0  0  0  0  0  0  0  0  0  0
   -2.1100   20.4450  -29.7100 C   0  0  0  0  0  0  0  0  0  0  0  0
   -2.6690   21.7220  -29.7270 C   0  0  0  0  0  0  0  0  0  0  0  0
   -2.1040   22.7670  -28.9760 C   0  0  0  0  0  0  0  0  0  0  0  0
   -2.9110   24.3480  -29.0400 S   0  0  0  0  0  0  0  0  0  0  0  0
   -1.8680   25.4270  -28.9690 O   0  0  0  0  0  0  0  0  0  0  0  0
   -3.8710   24.5150  -27.8940 O   0  0  0  0  0  0  0  0  0  0  0  0
   -3.7520   24.5220  -30.5030 O   0  0  0  0  0  0  0  0  0  0  0  0
   -5.1220   24.6870  -30.2250 C   0  0  0  0  0  0  0  0  0  0  0  0
   -5.6930   23.3620  -29.7260 C   0  0  0  0  0  0  0  0  0  0  0  0
   -5.9800   22.4690  -30.8620 N   0  0  0  0  0  0  0  0  0  0  0  0
   -5.0070   22.2660  -31.8000 C   0  0  0  0  0  0  0  0  0  0  0  0
   -5.2170   21.4010  -32.8730 C   0  0  0  0  0  0  0  0  0  0  0  0
   -6.4360   20.7160  -32.9860 C   0  0  0  0  0  0  0  0  0  0  0  0
   -6.7010   19.8230  -34.0390 O   0  0  0  0  0  0  0  0  0  0  0  0
   -5.7520   18.9320  -34.6270 C   0  0  0  0  0  0  0  0  0  0  0  0
   -5.4800   17.7630  -33.7170 C   0  0  0  0  0  0  0  0  0  0  0  0
   -6.0190   17.7400  -32.4200 C   0  0  0  0  0  0  0  0  0  0  0  0
   -5.7730   16.6560  -31.5730 C   0  0  0  0  0  0  0  0  0  0  0  0
   -4.9940   15.5830  -32.0170 C   0  0  0  0  0  0  0  0  0  0  0  0
   -4.7550   14.5330  -31.1930 F   0  0  0  0  0  0  0  0  0  0  0  0
   -4.4660   15.5920  -33.3100 C   0  0  0  0  0  0  0  0  0  0  0  0
   -4.7100   16.6760  -34.1610 C   0  0  0  0  0  0  0  0  0  0  0  0
   -7.4220   20.9250  -32.0170 C   0  0  0  0  0  0  0  0  0  0  0  0
   -9.0970   19.9950  -32.1390 Br  0  0  0  0  0  0  0  0  0  0  0  0
   -7.1780   21.8030  -30.9500 C   0  0  0  0  0  0  0  0  0  0  0  0
   -8.0670   21.9720  -30.0710 O   0  0  0  0  0  0  0  0  0  0  0  0
   -0.9052   24.3222  -25.1149 H   0  0  0  0  0  0  0  0  0  0  0  0
   -1.2069   25.6176  -26.3222 H   0  0  0  0  0  0  0  0  0  0  0  0
   -2.2222   24.1357  -26.3222 H   0  0  0  0  0  0  0  0  0  0  0  0
    0.5193   21.0106  -27.6184 H   0  0  0  0  0  0  0  0  0  0  0  0
   -0.5388   19.1801  -28.9289 H   0  0  0  0  0  0  0  0  0  0  0  0
   -2.5691   19.6368  -30.2982 H   0  0  0  0  0  0  0  0  0  0  0  0
   -3.5643   21.9143  -30.3364 H   0  0  0  0  0  0  0  0  0  0  0  0
   -5.2507   25.4583  -29.4514 H   0  0  0  0  0  0  0  0  0  0  0  0
   -5.6508   24.9983  -31.1380 H   0  0  0  0  0  0  0  0  0  0  0  0
   -4.9620   22.8794  -29.0607 H   0  0  0  0  0  0  0  0  0  0  0  0
   -6.6275   23.5580  -29.1799 H   0  0  0  0  0  0  0  0  0  0  0  0
   -4.0454   22.7921  -31.7071 H   0  0  0  0  0  0  0  0  0  0  0  0
   -4.4301   21.2562  -33.6279 H   0  0  0  0  0  0  0  0  0  0  0  0
   -6.1505   18.5601  -35.5824 H   0  0  0  0  0  0  0  0  0  0  0  0
   -4.8109   19.4775  -34.7908 H   0  0  0  0  0  0  0  0  0  0  0  0
   -6.6377   18.5792  -32.0694 H   0  0  0  0  0  0  0  0  0  0  0  0
   -6.1925   16.6468  -30.5562 H   0  0  0  0  0  0  0  0  0  0  0  0
   -3.8572   14.7454  -33.6602 H   0  0  0  0  0  0  0  0  0  0  0  0
   -4.2973   16.6764  -35.1807 H   0  0  0  0  0  0  0  0  0  0  0  0
  1  2  1  0
  2  3  2  0
  2  4  2  0
  2  5  1  0
  5  6  2  0
  6  7  1  0
  7  8  2  0
  8  9  1  0
  9 10  2  0
 10 11  1  0
 11 12  2  0
 11 13  2  0
 11 14  1  0
 14 15  1  0
 15 16  1  0
 16 17  1  0
 17 18  1  0
 18 19  2  0
 19 20  1  0
 20 21  1  0
 21 22  1  0
 22 23  1  0
 23 24  2  0
 24 25  1  0
 25 26  2  0
 26 27  1  0
 26 28  1  0
 28 29  2  0
 20 30  2  0
 30 31  1  0
 30 32  1  0
 32 33  2  0
 10  5  1  0
 32 17  1  0
 29 23  1  0
  1 34  1  0
  1 35  1  0
  1 36  1  0
  6 37  1  0
  7 38  1  0
  8 39  1  0
  9 40  1  0
 15 41  1  0
 15 42  1  0
 16 43  1  0
 16 44  1  0
 18 45  1  0
 19 46  1  0
 22 47  1  0
 22 48  1  0
 24 49  1  0
 25 50  1  0
 28 51  1  0
 29 52  1  0
M  END
>  <UniqueID>  (14) 
12

>  <SMILES>  (14) 
CS(=O)(=O)c1ccccc1S(=O)(=O)OCCn1ccc(OCc2ccc(F)cc2)c(Br)c1=O

>  <Energy>  (14) 
58.67437923020879

>  <Genealogy>  (14) 
CS(=O)(=O)c1ccccc1S(=O)(=O)OCCn1ccc(OCc2ccc(F)cc2)c(Br)c1=O (3D coordinates assigned)
CS(=O)(=O)c1ccccc1S(=O)(=O)OCCn1ccc(OCc2ccc(F)cc2)c(Br)c1=O (optimized conformer: 58.67437923020879 kcal/mol)

>  <smiles>  (14) 
CS(=O)(=O)c1ccccc1S(=O)(=O)OCCn1ccc(OCc2ccc(F)cc2)c(Br)c1=O

>  <score_type>  (14) 
oracle

>  <origin>  (14) 
adg

>  <m_score__min__energy>  (14) 
-10.140000000000001

>  <m_primary>  (14) 
energy

$$$$
14:0
     RDKit          3D

 34 34  0  0  1  0  0  0  0  0999 V2000
   -5.4470   18.6400  -34.1550 C   0  0  0  0  0  0  0  0  0  0  0  0
   -6.6510   18.9560  -33.3670 C   0  0  0  0  0  0  0  0  0  0  0  0
   -7.6430   19.2270  -32.7370 C   0  0  0  0  0  0  0  0  0  0  0  0
   -8.8470   19.5640  -31.9460 C   0  0  0  0  0  0  0  0  0  0  0  0
   -9.1230   20.9320  -32.1250 O   0  0  0  0  0  0  0  0  0  0  0  0
   -8.2570   21.8620  -31.5630 C   0  0  0  0  0  0  0  0  0  0  0  0
   -8.1120   22.0140  -30.1900 C   0  0  0  0  0  0  0  0  0  0  0  0
   -7.2230   22.9690  -29.7440 C   0  0  0  0  0  0  0  0  0  0  0  0
   -6.4800   23.7680  -30.5860 C   0  0  0  0  0  0  0  0  0  0  0  0
   -5.3600   24.9700  -30.0560 S   0  0  0  0  0  0  0  0  0  0  0  0
   -6.1290   26.2050  -29.7020 O   0  0  0  0  0  0  0  0  0  0  0  0
   -4.4130   25.2700  -31.1820 O   0  0  0  0  0  0  0  0  0  0  0  0
   -4.4330   24.4940  -28.6790 N   0  0  0  0  0  0  0  0  0  0  0  0
   -3.3370   23.6380  -29.0450 C   0  0  0  0  0  0  0  0  0  0  0  0
   -2.0150   24.2640  -28.9830 C   0  0  0  0  0  0  0  0  0  0  0  0
   -1.9890   25.6760  -28.9450 O   0  0  0  0  0  0  0  0  0  0  0  0
   -0.8840   23.6870  -28.9570 N   0  0  0  0  0  0  0  0  0  0  0  0
    0.2750   24.3440  -28.7760 O   0  0  0  0  0  0  0  0  0  0  0  0
   -6.6490   23.5900  -31.9540 C   0  0  0  0  0  0  0  0  0  0  0  0
   -7.5330   22.6420  -32.4440 C   0  0  0  0  0  0  0  0  0  0  0  0
   -4.6108   18.4205  -33.4748 H   0  0  0  0  0  0  0  0  0  0  0  0
   -5.6436   17.7630  -34.7893 H   0  0  0  0  0  0  0  0  0  0  0  0
   -5.1876   19.5005  -34.7893 H   0  0  0  0  0  0  0  0  0  0  0  0
   -9.7007   18.9635  -32.2934 H   0  0  0  0  0  0  0  0  0  0  0  0
   -8.6745   19.3477  -30.8814 H   0  0  0  0  0  0  0  0  0  0  0  0
   -8.6854   21.3951  -29.4842 H   0  0  0  0  0  0  0  0  0  0  0  0
   -7.1003   23.1001  -28.6587 H   0  0  0  0  0  0  0  0  0  0  0  0
   -4.1220   25.3250  -28.1230 H   0  0  0  0  0  0  0  0  0  0  0  0
   -3.3374   22.7736  -28.3647 H   0  0  0  0  0  0  0  0  0  0  0  0
   -3.4987   23.3653  -30.0983 H   0  0  0  0  0  0  0  0  0  0  0  0
   -1.1810   26.1670  -28.5370 H   0  0  0  0  0  0  0  0  0  0  0  0
    0.4050   25.3250  -28.5860 H   0  0  0  0  0  0  0  0  0  0  0  0
   -6.0734   24.2099  -32.6571 H   0  0  0  0  0  0  0  0  0  0  0  0
   -7.6577   22.5112  -33.5291 H   0  0  0  0  0  0  0  0  0  0  0  0
  1  2  1  0
  2  3  3  0
  3  4  1  0
  4  5  1  0
  5  6  1  0
  6  7  2  0
  7  8  1  0
  8  9  2  0
  9 10  1  0
 10 11  2  0
 10 12  2  0
 10 13  1  0
 13 14  1  0
 14 15  1  0
 15 16  1  0
 15 17  2  0
 17 18  1  0
  9 19  1  0
 19 20  2  0
 20  6  1  0
  1 21  1  0
  1 22  1  0
  1 23  1  0
  4 24  1  0
  4 25  1  0
  7 26  1  0
  8 27  1  0
 13 28  1  0
 14 29  1  0
 14 30  1  0
 16 31  1  0
 18 32  1  0
 19 33  1  0
 20 34  1  0
M  END
>  <smiles>  (15) 
CC#CCOc1ccc(S(=O)(=O)NCC(O)=NO)cc1

>  <score_type>  (15) 
oracle

>  <origin>  (15) 
adg

>  <m_score__min__energy>  (15) 
-8.3699999999999992

>  <m_primary>  (15) 
energy

$$$$
15:0
     RDKit          3D

 47 49  0  0  1  0  0  0  0  0999 V2000
   -1.5800   25.5430  -26.9730 C   0  0  0  0  0  0  0  0  0  0  0  0
   -1.1850   25.6910  -28.4360 C   0  0  0  0  0  0  0  0  0  0  0  0
   -2.1680   25.1870  -29.2520 O   0  0  0  0  0  0  0  0  0  0  0  0
   -2.6160   24.0040  -28.6810 C   0  0  0  0  0  0  0  0  0  0  0  0
   -2.7670   22.9260  -29.8340 C   0  0  0  0  0  0  0  0  0  0  0  0
   -3.3980   23.8220  -30.7100 N   0  0  0  0  0  0  0  0  0  0  0  0
   -4.6480   24.0350  -30.6370 C   0  0  0  0  0  0  0  0  0  0  0  0
   -5.0070   25.0950  -29.8480 N   0  0  0  0  0  0  0  0  0  0  0  0
   -6.2780   25.4670  -29.6630 C   0  0  0  0  0  0  0  0  0  0  0  0
   -7.2270   24.7540  -30.2900 N   0  0  0  0  0  0  0  0  0  0  0  0
   -6.9270   23.6980  -31.0800 C   0  0  0  0  0  0  0  0  0  0  0  0
   -5.6140   23.2870  -31.2910 C   0  0  0  0  0  0  0  0  0  0  0  0
   -5.0190   22.1920  -32.0780 C   0  0  0  0  0  0  0  0  0  0  0  0
   -6.2960   21.4950  -32.6770 C   0  0  0  0  0  0  0  0  0  0  0  0
   -7.1100   20.9190  -31.6660 N   0  0  0  0  0  0  0  0  0  0  0  0
   -7.5020   19.5920  -32.0770 C   0  0  0  0  0  0  0  0  0  0  0  0
   -6.5070   18.7500  -32.6550 C   0  0  0  0  0  0  0  0  0  0  0  0
   -5.6880   17.7550  -32.2450 C   0  0  0  0  0  0  0  0  0  0  0  0
   -4.8430   17.1520  -33.0620 C   0  0  0  0  0  0  0  0  0  0  0  0
   -4.8180   17.5880  -34.4220 C   0  0  0  0  0  0  0  0  0  0  0  0
   -6.0740   18.9200  -34.4860 S   0  0  0  0  0  0  0  0  0  0  0  0
   -8.2850   21.6570  -31.2970 C   0  0  0  0  0  0  0  0  0  0  0  0
   -8.1810   23.1270  -31.6300 C   0  0  0  0  0  0  0  0  0  0  0  0
   -0.7420   25.8570  -26.3334 H   0  0  0  0  0  0  0  0  0  0  0  0
   -2.4568   26.1736  -26.7643 H   0  0  0  0  0  0  0  0  0  0  0  0
   -1.8266   24.4915  -26.7643 H   0  0  0  0  0  0  0  0  0  0  0  0
   -1.0354   26.7565  -28.6648 H   0  0  0  0  0  0  0  0  0  0  0  0
   -0.2544   25.1316  -28.6120 H   0  0  0  0  0  0  0  0  0  0  0  0
   -1.8891   23.6518  -27.9343 H   0  0  0  0  0  0  0  0  0  0  0  0
   -3.5825   24.1646  -28.1808 H   0  0  0  0  0  0  0  0  0  0  0  0
   -1.8026   22.5552  -30.2116 H   0  0  0  0  0  0  0  0  0  0  0  0
   -3.2720   21.9768  -29.6014 H   0  0  0  0  0  0  0  0  0  0  0  0
   -4.2810   25.6710  -29.3460 H   0  0  0  0  0  0  0  0  0  0  0  0
   -6.5357   26.3233  -29.0224 H   0  0  0  0  0  0  0  0  0  0  0  0
   -4.3645   22.5797  -32.8726 H   0  0  0  0  0  0  0  0  0  0  0  0
   -4.3783   21.5182  -31.4902 H   0  0  0  0  0  0  0  0  0  0  0  0
   -6.8863   22.2447  -33.2242 H   0  0  0  0  0  0  0  0  0  0  0  0
   -5.9612   20.6879  -33.3452 H   0  0  0  0  0  0  0  0  0  0  0  0
   -7.8913   19.0754  -31.1873 H   0  0  0  0  0  0  0  0  0  0  0  0
   -8.2269   19.7578  -32.8876 H   0  0  0  0  0  0  0  0  0  0  0  0
   -5.7269   17.4362  -31.1929 H   0  0  0  0  0  0  0  0  0  0  0  0
   -4.1840   16.3452  -32.7086 H   0  0  0  0  0  0  0  0  0  0  0  0
   -4.1893   17.2108  -35.2421 H   0  0  0  0  0  0  0  0  0  0  0  0
   -9.1479   21.2352  -31.8332 H   0  0  0  0  0  0  0  0  0  0  0  0
   -8.4012   21.5716  -30.2065 H   0  0  0  0  0  0  0  0  0  0  0  0
   -8.1864   23.2517  -32.7229 H   0  0  0  0  0  0  0  0  0  0  0  0
   -9.0371   23.6539  -31.1834 H   0  0  0  0  0  0  0  0  0  0  0  0
  1  2  1  0
  2  3  1  0
  3  4  1  0
  4  5  1  0
  5  6  1  0
  6  7  2  0
  7  8  1  0
  8  9  1  0
  9 10  2  0
 10 11  1  0
 11 12  2  0
 12 13  1  0
 13 14  1  0
 14 15  1  0
 15 16  1  0
 16 17  1  0
 17 18  2  0
 18 19  1  0
 19 20  2  0
 20 21  1  0
 15 22  1  0
 22 23  1  0
 12  7  1  0
 21 17  1  0
 23 11  1  0
  1 24  1  0
  1 25  1  0
  1 26  1  0
  2 27  1  0
  2 28  1  0
  4 29  1  0
  4 30  1  0
  5 31  1  0
  5 32  1  0
  8 33  1  0
  9 34  1  0
 13 35  1  0
 13 36  1  0
 14 37  1  0
 14 38  1  0
 16 39  1  0
 16 40  1  0
 18 41  1  0
 19 42  1  0
 20 43  1  0
 22 44  1  0
 22 45  1  0
 23 46  1  0
 23 47  1  0
M  END
>  <smiles>  (16) 
CCOCCN=c1[nH]cnc2c1CCN(Cc1cccs1)CC2

>  <score_type>  (16) 
oracle

>  <origin>  (16) 
adg

>  <m_score__min__energy>  (16) 
-6.7300000000000004

>  <m_primary>  (16) 
energy

$$$$
16:0
     RDKit          3D

 28 29  0  0  0  0  0  0  0  0999 V2000
   -4.3970   22.2150  -32.3370 C   0  0  0  0  0  0  0  0  0  0  0  0
   -5.8000   22.0830  -31.8050 C   0  0  0  0  0  0  0  0  0  0  0  0
   -6.6160   21.0470  -32.2960 C   0  0  0  0  0  0  0  0  0  0  0  0
   -7.9140   20.8730  -31.8120 C   0  0  0  0  0  0  0  0  0  0  0  0
   -9.0090   19.4660  -32.4980 Br  0  0  0  0  0  0  0  0  0  0  0  0
   -8.4110   21.7270  -30.8270 C   0  0  0  0  0  0  0  0  0  0  0  0
   -7.6100   22.7510  -30.3180 C   0  0  0  0  0  0  0  0  0  0  0  0
   -6.3010   22.9380  -30.7900 C   0  0  0  0  0  0  0  0  0  0  0  0
   -5.3200   24.2350  -30.0890 S   0  0  0  0  0  0  0  0  0  0  0  0
   -6.1780   25.1830  -29.2980 O   0  0  0  0  0  0  0  0  0  0  0  0
   -4.6520   25.0030  -31.1940 O   0  0  0  0  0  0  0  0  0  0  0  0
   -4.1130   23.5720  -29.0380 N   0  0  0  0  0  0  0  0  0  0  0  0
   -2.9470   24.1180  -28.8920 C   0  0  0  0  0  0  0  0  0  0  0  0
   -2.6070   25.2990  -29.3500 O   0  0  0  0  0  0  0  0  0  0  0  0
   -1.3740   25.5760  -29.0350 N   0  0  0  0  0  0  0  0  0  0  0  0
   -0.8980   24.5170  -28.3460 C   0  0  0  0  0  0  0  0  0  0  0  0
    0.4740   24.4490  -27.7610 C   0  0  0  0  0  0  0  0  0  0  0  0
   -1.8840   23.5570  -28.2280 C   0  0  0  0  0  0  0  0  0  0  0  0
   -1.8050   21.8730  -27.3280 Br  0  0  0  0  0  0  0  0  0  0  0  0
   -3.6908   22.2814  -31.4963 H   0  0  0  0  0  0  0  0  0  0  0  0
   -4.1537   21.3358  -32.9516 H   0  0  0  0  0  0  0  0  0  0  0  0
   -4.3219   23.1242  -32.9516 H   0  0  0  0  0  0  0  0  0  0  0  0
   -6.2274   20.3675  -33.0688 H   0  0  0  0  0  0  0  0  0  0  0  0
   -9.4359   21.5933  -30.4507 H   0  0  0  0  0  0  0  0  0  0  0  0
   -8.0085   23.4180  -29.5393 H   0  0  0  0  0  0  0  0  0  0  0  0
    0.4051   24.4524  -26.6632 H   0  0  0  0  0  0  0  0  0  0  0  0
    0.9694   23.5252  -28.0944 H   0  0  0  0  0  0  0  0  0  0  0  0
    1.0583   25.3193  -28.0944 H   0  0  0  0  0  0  0  0  0  0  0  0
  1  2  1  0
  2  3  2  0
  3  4  1  0
  4  5  1  0
  4  6  2  0
  6  7  1  0
  7  8  2  0
  8  9  1  0
  9 10  2  0
  9 11  2  0
  9 12  1  0
 12 13  2  3
 13 14  1  0
 14 15  1  0
 15 16  1  0
 16 17  1  0
 16 18  2  0
 18 19  1  0
  8  2  1  0
 18 13  1  0
  1 20  1  0
  1 21  1  0
  1 22  1  0
  3 23  1  0
  6 24  1  0
  7 25  1  0
 17 26  1  0
 17 27  1  0
 17 28  1  0
M  CHG  1  15  -1
M  END
>  <UniqueID>  (17) 
13

>  <SMILES>  (17) 
Cc1cc(Br)ccc1S(=O)(=O)N=c1o[n-]c(C)c1Br

>  <Energy>  (17) 
62.30508613167862

>  <Genealogy>  (17) 
Cc1cc(Br)ccc1S(=O)(=O)N=c1o[n-]c(C)c1Br (protonated)
Cc1cc(Br)ccc1S(=O)(=O)N=c1o[n-]c(C)c1Br (3D coordinates assigned)
Cc1cc(Br)ccc1S(=O)(=O)N=c1o[n-]c(C)c1Br (optimized conformer: 62.30508613167862 kcal/mol)

>  <smiles>  (17) 
Cc1cc(Br)ccc1S(=O)(=O)N=c1o[nH]c(C)c1Br

>  <score_type>  (17) 
oracle

>  <origin>  (17) 
adg

>  <m_score__min__energy>  (17) 
-11.4

>  <m_primary>  (17) 
energy

$$$$
17:0
     RDKit          3D

 61 62  0  0  0  0  0  0  0  0999 V2000
   -2.6090   19.2060  -26.3750 C   0  0  0  0  0  0  0  0  0  0  0  0
   -1.2150   19.6730  -26.7930 C   0  0  0  0  0  0  0  0  0  0  0  0
   -1.0330   21.2000  -26.6800 C   0  0  0  0  0  0  0  0  0  0  0  0
   -0.4060   21.8520  -27.9300 C   0  0  0  0  0  0  0  0  0  0  0  0
   -1.3620   22.7430  -28.6290 N   0  0  0  0  0  0  0  0  0  0  0  0
   -2.5160   22.2450  -29.2100 C   0  0  0  0  0  0  0  0  0  0  0  0
   -2.8310   20.8380  -29.1620 N   0  0  0  0  0  0  0  0  0  0  0  0
   -3.4070   23.1230  -29.8620 C   0  0  0  0  0  0  0  0  0  0  0  0
   -4.6270   22.6500  -30.4650 N   0  0  0  0  0  0  0  0  0  0  0  0
   -5.9030   23.2220  -29.9980 C   0  0  0  0  0  0  0  0  0  0  0  0
   -6.7380   23.7290  -31.1670 C   0  0  0  0  0  0  0  0  0  0  0  0
   -4.5430   21.6530  -31.5110 C   0  0  0  0  0  0  0  0  0  0  0  0
   -4.8300   20.4530  -31.2470 O   0  0  0  0  0  0  0  0  0  0  0  0
   -4.0320   21.9570  -32.8930 C   0  0  0  0  0  0  0  0  0  0  0  0
   -2.6570   21.5850  -32.9890 O   0  0  0  0  0  0  0  0  0  0  0  0
   -2.2120   20.4070  -33.6010 C   0  0  0  0  0  0  0  0  0  0  0  0
   -1.3260   20.4420  -34.5030 O   0  0  0  0  0  0  0  0  0  0  0  0
   -2.8220   19.0960  -33.2080 C   0  0  0  0  0  0  0  0  0  0  0  0
   -3.7840   18.3930  -34.5950 S   0  0  0  0  0  0  0  0  0  0  0  0
   -5.3570   18.3750  -33.7210 C   0  0  0  0  0  0  0  0  0  0  0  0
   -5.8610   17.1680  -33.2210 C   0  0  0  0  0  0  0  0  0  0  0  0
   -7.0810   17.1490  -32.5420 C   0  0  0  0  0  0  0  0  0  0  0  0
   -7.8230   18.3340  -32.3650 C   0  0  0  0  0  0  0  0  0  0  0  0
   -9.1390   18.2800  -31.6300 C   0  0  0  0  0  0  0  0  0  0  0  0
   -7.3180   19.5500  -32.8830 C   0  0  0  0  0  0  0  0  0  0  0  0
   -8.0670   20.8470  -32.7070 C   0  0  0  0  0  0  0  0  0  0  0  0
   -6.0770   19.5580  -33.5490 C   0  0  0  0  0  0  0  0  0  0  0  0
   -3.0930   24.4850  -29.9100 C   0  0  0  0  0  0  0  0  0  0  0  0
   -3.8630   25.3020  -30.4850 O   0  0  0  0  0  0  0  0  0  0  0  0
   -1.9510   24.9330  -29.3420 N   0  0  0  0  0  0  0  0  0  0  0  0
   -1.0920   24.0920  -28.7110 C   0  0  0  0  0  0  0  0  0  0  0  0
   -0.0420   24.5780  -28.2040 O   0  0  0  0  0  0  0  0  0  0  0  0
   -2.6745   19.1841  -25.2772 H   0  0  0  0  0  0  0  0  0  0  0  0
   -3.3632   19.9005  -26.7735 H   0  0  0  0  0  0  0  0  0  0  0  0
   -2.7926   18.1973  -26.7735 H   0  0  0  0  0  0  0  0  0  0  0  0
   -0.4723   19.1825  -26.1465 H   0  0  0  0  0  0  0  0  0  0  0  0
   -1.0804   19.4026  -27.8507 H   0  0  0  0  0  0  0  0  0  0  0  0
   -2.0205   21.6544  -26.5115 H   0  0  0  0  0  0  0  0  0  0  0  0
   -0.3373   21.3765  -25.8464 H   0  0  0  0  0  0  0  0  0  0  0  0
    0.4694   22.4423  -27.6216 H   0  0  0  0  0  0  0  0  0  0  0  0
   -0.1191   21.0490  -28.6248 H   0  0  0  0  0  0  0  0  0  0  0  0
   -2.1240   20.0980  -28.9630 H   0  0  0  0  0  0  0  0  0  0  0  0
   -3.7970   20.4880  -29.3560 H   0  0  0  0  0  0  0  0  0  0  0  0
   -6.4694   22.4463  -29.4618 H   0  0  0  0  0  0  0  0  0  0  0  0
   -5.6828   24.0698  -29.3327 H   0  0  0  0  0  0  0  0  0  0  0  0
   -7.6192   24.2641  -30.7833 H   0  0  0  0  0  0  0  0  0  0  0  0
   -6.1327   24.4122  -31.7809 H   0  0  0  0  0  0  0  0  0  0  0  0
   -7.0650   22.8768  -31.7809 H   0  0  0  0  0  0  0  0  0  0  0  0
   -4.6169   21.3901  -33.6323 H   0  0  0  0  0  0  0  0  0  0  0  0
   -4.1331   23.0344  -33.0905 H   0  0  0  0  0  0  0  0  0  0  0  0
   -2.0222   18.3938  -32.9301 H   0  0  0  0  0  0  0  0  0  0  0  0
   -3.4971   19.2602  -32.3552 H   0  0  0  0  0  0  0  0  0  0  0  0
   -5.2959   16.2350  -33.3631 H   0  0  0  0  0  0  0  0  0  0  0  0
   -7.4667   16.1999  -32.1414 H   0  0  0  0  0  0  0  0  0  0  0  0
   -8.9540   18.2876  -30.5457 H   0  0  0  0  0  0  0  0  0  0  0  0
   -9.7482   19.1539  -31.9041 H   0  0  0  0  0  0  0  0  0  0  0  0
   -9.6746   17.3591  -31.9041 H   0  0  0  0  0  0  0  0  0  0  0  0
   -8.1886   21.0575  -31.6342 H   0  0  0  0  0  0  0  0  0  0  0  0
   -7.5016   21.6639  -33.1792 H   0  0  0  0  0  0  0  0  0  0  0  0
   -9.0571   20.7656  -33.1792 H   0  0  0  0  0  0  0  0  0  0  0  0
   -5.6720   20.5044  -33.9367 H   0  0  0  0  0  0  0  0  0  0  0  0
  1  2  1  0
  2  3  1  0
  3  4  1  0
  4  5  1  0
  5  6  1  0
  6  7  1  0
  6  8  2  0
  8  9  1  0
  9 10  1  0
 10 11  1  0
  9 12  1  0
 12 13  2  0
 12 14  1  0
 14 15  1  0
 15 16  1  0
 16 17  2  0
 16 18  1  0
 18 19  1  0
 19 20  1  0
 20 21  2  0
 21 22  1  0
 22 23  2  0
 23 24  1  0
 23 25  1  0
 25 26  1  0
 25 27  2  0
  8 28  1  0
 28 29  2  0
 28 30  1  0
 30 31  1  0
 31 32  2  0
 31  5  1  0
 27 20  1  0
  1 33  1  0
  1 34  1  0
  1 35  1  0
  2 36  1  0
  2 37  1  0
  3 38  1  0
  3 39  1  0
  4 40  1  0
  4 41  1  0
  7 42  1  0
  7 43  1  0
 10 44  1  0
 10 45  1  0
 11 46  1  0
 11 47  1  0
 11 48  1  0
 14 49  1  0
 14 50  1  0
 18 51  1  0
 18 52  1  0
 21 53  1  0
 22 54  1  0
 24 55  1  0
 24 56  1  0
 24 57  1  0
 26 58  1  0
 26 59  1  0
 26 60  1  0
 27 61  1  0
M  CHG  1  30  -1
M  END
>  <UniqueID>  (18) 
14

>  <SMILES>  (18) 
CCCCn1c(N)c(N(CC)C(=O)COC(=O)CSc2ccc(C)c(C)c2)c(=O)[n-]c1=O

>  <Energy>  (18) 
60.57230701149745

>  <Genealogy>  (18) 
CCCCn1c(N)c(N(CC)C(=O)COC(=O)CSc2ccc(C)c(C)c2)c(=O)[n-]c1=O (protonated)
CCCCn1c(N)c(N(CC)C(=O)COC(=O)CSc2ccc(C)c(C)c2)c(=O)[n-]c1=O (3D coordinates assigned)
CCCCn1c(N)c(N(CC)C(=O)COC(=O)CSc2ccc(C)c(C)c2)c(=O)[n-]c1=O (optimized conformer: 60.57230701149745 kcal/mol)

>  <smiles>  (18) 
CCCCn1c(N)c(N(CC)C(=O)COC(=O)CSc2ccc(C)c(C)c2)c(=O)[nH]c1=O

>  <score_type>  (18) 
oracle

>  <origin>  (18) 
adg

>  <m_score__min__energy>  (18) 
-9.8699999999999992

>  <m_primary>  (18) 
energy

$$$$
18:0
     RDKit          3D

 48 49  0  0  0  0  0  0  0  0999 V2000
   -9.3950   21.3550  -31.9650 C   0  0  0  0  0  0  0  0  0  0  0  0
   -8.8160   19.9690  -31.6430 C   0  0  0  0  0  0  0  0  0  0  0  0
   -8.0260   19.3480  -32.7430 N   0  0  0  0  0  0  0  0  0  0  0  0
   -7.5960   17.9550  -32.4500 C   0  0  0  0  0  0  0  0  0  0  0  0
   -6.5680   17.4140  -33.4510 C   0  0  0  0  0  0  0  0  0  0  0  0
   -6.8420   20.1510  -33.1460 C   0  0  0  0  0  0  0  0  0  0  0  0
   -5.9040   20.4820  -31.9680 C   0  0  0  0  0  0  0  0  0  0  0  0
   -5.1300   21.7020  -32.2380 N   0  0  0  0  0  0  0  0  0  0  0  0
   -4.0800   21.6830  -33.2700 C   0  0  0  0  0  0  0  0  0  0  0  0
   -2.7720   21.1980  -32.6960 C   0  0  0  0  0  0  0  0  0  0  0  0
   -2.6820   20.8310  -31.3420 C   0  0  0  0  0  0  0  0  0  0  0  0
   -1.4590   20.4210  -30.8030 C   0  0  0  0  0  0  0  0  0  0  0  0
   -0.3180   20.3750  -31.6070 C   0  0  0  0  0  0  0  0  0  0  0  0
   -0.3990   20.7380  -32.9540 C   0  0  0  0  0  0  0  0  0  0  0  0
   -1.6190   21.1490  -33.4980 C   0  0  0  0  0  0  0  0  0  0  0  0
   -5.3620   22.8870  -31.4460 C   0  0  0  0  0  0  0  0  0  0  0  0
   -6.6640   23.3870  -31.2670 C   0  0  0  0  0  0  0  0  0  0  0  0
   -6.8830   24.5280  -30.4880 C   0  0  0  0  0  0  0  0  0  0  0  0
   -5.8070   25.1830  -29.8870 C   0  0  0  0  0  0  0  0  0  0  0  0
   -4.5080   24.7000  -30.0640 C   0  0  0  0  0  0  0  0  0  0  0  0
   -4.2840   23.5600  -30.8420 C   0  0  0  0  0  0  0  0  0  0  0  0
   -9.6170   21.8864  -31.0278 H   0  0  0  0  0  0  0  0  0  0  0  0
   -8.6626   21.9317  -32.5489 H   0  0  0  0  0  0  0  0  0  0  0  0
  -10.3200   21.2393  -32.5489 H   0  0  0  0  0  0  0  0  0  0  0  0
   -8.1604   20.0681  -30.7653 H   0  0  0  0  0  0  0  0  0  0  0  0
   -9.6776   19.3073  -31.4705 H   0  0  0  0  0  0  0  0  0  0  0  0
   -8.6560   19.2980  -33.5800 H   0  0  0  0  0  0  0  0  0  0  0  0
   -7.1502   17.9314  -31.4447 H   0  0  0  0  0  0  0  0  0  0  0  0
   -8.4887   17.3165  -32.5228 H   0  0  0  0  0  0  0  0  0  0  0  0
   -5.7231   16.9694  -32.9047 H   0  0  0  0  0  0  0  0  0  0  0  0
   -7.0400   16.6475  -34.0832 H   0  0  0  0  0  0  0  0  0  0  0  0
   -6.2035   18.2371  -34.0832 H   0  0  0  0  0  0  0  0  0  0  0  0
   -6.2733   19.5830  -33.8970 H   0  0  0  0  0  0  0  0  0  0  0  0
   -7.2147   21.1056  -33.5457 H   0  0  0  0  0  0  0  0  0  0  0  0
   -6.5062   20.6316  -31.0597 H   0  0  0  0  0  0  0  0  0  0  0  0
   -5.2032   19.6451  -31.8321 H   0  0  0  0  0  0  0  0  0  0  0  0
   -4.3874   21.0108  -34.0847 H   0  0  0  0  0  0  0  0  0  0  0  0
   -3.9404   22.7061  -33.6492 H   0  0  0  0  0  0  0  0  0  0  0  0
   -3.5774   20.8666  -30.7041 H   0  0  0  0  0  0  0  0  0  0  0  0
   -1.3952   20.1339  -29.7430 H   0  0  0  0  0  0  0  0  0  0  0  0
    0.6435   20.0533  -31.1804 H   0  0  0  0  0  0  0  0  0  0  0  0
    0.4994   20.7002  -33.5875 H   0  0  0  0  0  0  0  0  0  0  0  0
   -1.6770   21.4354  -34.5585 H   0  0  0  0  0  0  0  0  0  0  0  0
   -7.5154   22.8779  -31.7424 H   0  0  0  0  0  0  0  0  0  0  0  0
   -7.9052   24.9098  -30.3488 H   0  0  0  0  0  0  0  0  0  0  0  0
   -5.9817   26.0795  -29.2740 H   0  0  0  0  0  0  0  0  0  0  0  0
   -3.6604   25.2172  -29.5907 H   0  0  0  0  0  0  0  0  0  0  0  0
   -3.2588   23.1870  -30.9827 H   0  0  0  0  0  0  0  0  0  0  0  0
  1  2  1  0
  2  3  1  0
  3  4  1  0
  4  5  1  0
  3  6  1  0
  6  7  1  0
  7  8  1  0
  8  9  1  0
  9 10  1  0
 10 11  2  0
 11 12  1  0
 12 13  2  0
 13 14  1  0
 14 15  2  0
  8 16  1  0
 16 17  2  0
 17 18  1  0
 18 19  2  0
 19 20  1  0
 20 21  2  0
 15 10  1  0
 21 16  1  0
  1 22  1  0
  1 23  1  0
  1 24  1  0
  2 25  1  0
  2 26  1  0
  3 27  1  0
  4 28  1  0
  4 29  1  0
  5 30  1  0
  5 31  1  0
  5 32  1  0
  6 33  1  0
  6 34  1  0
  7 35  1  0
  7 36  1  0
  9 37  1  0
  9 38  1  0
 11 39  1  0
 12 40  1  0
 13 41  1  0
 14 42  1  0
 15 43  1  0
 17 44  1  0
 18 45  1  0
 19 46  1  0
 20 47  1  0
 21 48  1  0
M  CHG  1   3   1
M  END
>  <UniqueID>  (19) 
15

>  <SMILES>  (19) 
CC[NH+](CC)CCN(Cc1ccccc1)c1ccccc1

>  <Energy>  (19) 
51.403701638817836

>  <Genealogy>  (19) 
CC[NH+](CC)CCN(Cc1ccccc1)c1ccccc1 (protonated)
CC[NH+](CC)CCN(Cc1ccccc1)c1ccccc1 (3D coordinates assigned)
CC[NH+](CC)CCN(Cc1ccccc1)c1ccccc1 (optimized conformer: 51.403701638817836 kcal/mol)

>  <smiles>  (19) 
CCN(CC)CCN(Cc1ccccc1)c1ccccc1

>  <score_type>  (19) 
oracle

>  <origin>  (19) 
adg

>  <m_score__min__energy>  (19) 
-6.21

>  <m_primary>  (19) 
energy

$$$$
19:0
     RDKit          3D

 44 46  0  0  0  0  0  0  0  0999 V2000
   -5.2840   23.3230  -29.3230 C   0  0  0  0  0  0  0  0  0  0  0  0
   -4.3780   23.8960  -30.7450 S   0  0  0  0  0  0  0  0  0  0  0  0
   -5.2970   23.8960  -31.9320 O   0  0  0  0  0  0  0  0  0  0  0  0
   -3.8830   25.2960  -30.5120 O   0  0  0  0  0  0  0  0  0  0  0  0
   -3.0600   22.8520  -31.0690 O   0  0  0  0  0  0  0  0  0  0  0  0
   -3.0670   21.8000  -31.9970 C   0  0  0  0  0  0  0  0  0  0  0  0
   -1.9900   21.5330  -32.8530 C   0  0  0  0  0  0  0  0  0  0  0  0
   -2.0440   20.4450  -33.7190 C   0  0  0  0  0  0  0  0  0  0  0  0
   -3.1800   19.6320  -33.7720 C   0  0  0  0  0  0  0  0  0  0  0  0
   -4.3210   19.9380  -32.9970 C   0  0  0  0  0  0  0  0  0  0  0  0
   -4.2070   20.9890  -32.0610 C   0  0  0  0  0  0  0  0  0  0  0  0
   -5.5550   19.0150  -33.0300 C   0  0  1  0  0  0  0  0  0  0  0  0
   -6.9580   19.7350  -32.9000 C   0  0  0  0  0  0  0  0  0  0  0  0
   -6.9190   21.1060  -32.1840 C   0  0  0  0  0  0  0  0  0  0  0  0
   -8.2910   21.7900  -32.2370 C   0  0  0  0  0  0  0  0  0  0  0  0
   -9.3760   20.8860  -31.6400 C   0  0  0  0  0  0  0  0  0  0  0  0
   -9.4360   19.5390  -32.3720 C   0  0  0  0  0  0  0  0  0  0  0  0
   -8.0760   18.8260  -32.3360 C   0  0  0  0  0  0  0  0  0  0  0  0
   -5.5870   18.0940  -34.2960 C   0  0  2  0  0  0  0  0  0  0  0  0
   -6.4420   16.9130  -34.0410 C   0  0  0  0  0  0  0  0  0  0  0  0
   -7.1100   15.9890  -33.8410 N   0  0  0  0  0  0  0  0  0  0  0  0
   -4.2220   17.6600  -34.7600 C   0  0  0  0  0  0  0  0  0  0  0  0
   -4.0650   16.5560  -35.4190 N   0  0  0  0  0  0  0  0  0  0  0  0
   -3.1280   18.4950  -34.5720 O   0  0  0  0  0  0  0  0  0  0  0  0
   -4.7706   23.6477  -28.4059 H   0  0  0  0  0  0  0  0  0  0  0  0
   -6.3006   23.7428  -29.3424 H   0  0  0  0  0  0  0  0  0  0  0  0
   -5.3404   22.2246  -29.3424 H   0  0  0  0  0  0  0  0  0  0  0  0
   -1.1026   22.1829  -32.8404 H   0  0  0  0  0  0  0  0  0  0  0  0
   -1.1843   20.2225  -34.3682 H   0  0  0  0  0  0  0  0  0  0  0  0
   -5.0363   21.1759  -31.3629 H   0  0  0  0  0  0  0  0  0  0  0  0
   -5.4174   18.4134  -32.1194 H   0  0  0  0  0  0  0  0  0  0  0  0
   -7.2235   19.9542  -33.9447 H   0  0  0  0  0  0  0  0  0  0  0  0
   -6.6320   20.9554  -31.1328 H   0  0  0  0  0  0  0  0  0  0  0  0
   -6.1860   21.7483  -32.6940 H   0  0  0  0  0  0  0  0  0  0  0  0
   -8.2482   22.7280  -31.6640 H   0  0  0  0  0  0  0  0  0  0  0  0
   -8.5421   21.9934  -33.2885 H   0  0  0  0  0  0  0  0  0  0  0  0
   -9.1513   20.7082  -30.5780 H   0  0  0  0  0  0  0  0  0  0  0  0
  -10.3488   21.3876  -31.7503 H   0  0  0  0  0  0  0  0  0  0  0  0
  -10.1889   18.9003  -31.8870 H   0  0  0  0  0  0  0  0  0  0  0  0
   -9.7039   19.7252  -33.4225 H   0  0  0  0  0  0  0  0  0  0  0  0
   -7.8351   18.5631  -31.2954 H   0  0  0  0  0  0  0  0  0  0  0  0
   -8.1385   17.9207  -32.9577 H   0  0  0  0  0  0  0  0  0  0  0  0
   -6.0108   18.6980  -35.1118 H   0  0  0  0  0  0  0  0  0  0  0  0
   -3.7220   16.5610  -36.4060 H   0  0  0  0  0  0  0  0  0  0  0  0
  1  2  1  0
  2  3  2  0
  2  4  2  0
  2  5  1  0
  5  6  1  0
  6  7  2  0
  7  8  1  0
  8  9  2  0
  9 10  1  0
 10 11  2  0
 10 12  1  0
 12 13  1  0
 13 14  1  0
 14 15  1  0
 15 16  1  0
 16 17  1  0
 17 18  1  0
 12 19  1  0
 19 20  1  0
 20 21  3  0
 19 22  1  0
 22 23  2  3
 22 24  1  0
 11  6  1  0
 18 13  1  0
 24  9  1  0
  1 25  1  0
  1 26  1  0
  1 27  1  0
  7 28  1  0
  8 29  1  0
 11 30  1  0
 12 31  1  1
 13 32  1  0
 14 33  1  0
 14 34  1  0
 15 35  1  0
 15 36  1  0
 16 37  1  0
 16 38  1  0
 17 39  1  0
 17 40  1  0
 18 41  1  0
 18 42  1  0
 19 43  1  6
 23 44  1  0
M  END
>  <UniqueID>  (20) 
16

>  <SMILES>  (20) 
CS(=O)(=O)Oc1ccc2c(c1)[C@@H](C1CCCCC1)[C@H](C#N)C(=N)O2

>  <Energy>  (20) 
47.419445552255546

>  <Genealogy>  (20) 
CS(=O)(=O)Oc1ccc2c(c1)[C@@H](C1CCCCC1)[C@H](C#N)C(=N)O2 (chirality)
CS(=O)(=O)Oc1ccc2c(c1)[C@@H](C1CCCCC1)[C@H](C#N)C(=N)O2 (3D coordinates assigned)
CS(=O)(=O)Oc1ccc2c(c1)[C@@H](C1CCCCC1)[C@H](C#N)C(=N)O2 (nonaromatic ring conformer: 47.419445552255546 kcal/mol)

>  <smiles>  (20) 
CS(=O)(=O)Oc1ccc2c(c1)C(C1CCCCC1)C(C#N)C(=N)O2

>  <score_type>  (20) 
oracle

>  <origin>  (20) 
adg

>  <m_score__min__energy>  (20) 
-9.4900000000000002

>  <m_primary>  (20) 
energy

$$$$
20:0
     RDKit          3D

 54 58  0  0  0  0  0  0  0  0999 V2000
   -4.5840   25.2340  -31.2140 O   0  0  0  0  0  0  0  0  0  0  0  0
   -5.0100   24.0370  -30.4100 S   0  0  0  0  0  0  0  0  0  0  0  0
   -5.6950   24.5310  -29.1690 O   0  0  0  0  0  0  0  0  0  0  0  0
   -6.1640   23.0380  -31.3590 C   0  0  2  0  0  0  0  0  0  0  0  0
   -7.6180   23.5140  -31.1400 C   0  0  0  0  0  0  0  0  0  0  0  0
   -8.6440   22.6640  -31.9400 C   0  0  0  0  0  0  0  0  0  0  0  0
   -8.0790   21.3560  -32.3460 N   0  0  2  0  0  0  0  0  0  0  0  0
   -9.0750   20.3370  -32.6920 C   0  0  0  0  0  0  0  0  0  0  0  0
   -8.4090   18.9810  -32.4290 C   0  0  0  0  0  0  0  0  0  0  0  0
   -7.1430   19.2900  -31.6300 C   0  0  0  0  0  0  0  0  0  0  0  0
   -7.3050   20.7560  -31.2590 C   0  0  1  0  0  0  0  0  0  0  0  0
   -5.9950   21.5340  -31.0260 C   0  0  0  0  0  0  0  0  0  0  0  0
   -3.5990   23.0880  -30.0110 N   0  0  0  0  0  0  0  0  0  0  0  0
   -2.9710   22.9380  -28.8070 C   0  0  0  0  0  0  0  0  0  0  0  0
   -3.3560   23.6170  -27.5190 C   0  0  0  0  0  0  0  0  0  0  0  0
   -2.4540   24.7830  -27.1930 C   0  0  0  0  0  0  0  0  0  0  0  0
   -2.4500   25.3560  -25.9070 C   0  0  0  0  0  0  0  0  0  0  0  0
   -1.6060   26.4320  -25.6160 C   0  0  0  0  0  0  0  0  0  0  0  0
   -0.7390   26.9270  -26.5930 C   0  0  0  0  0  0  0  0  0  0  0  0
   -0.7060   26.3390  -27.8600 C   0  0  0  0  0  0  0  0  0  0  0  0
   -1.5510   25.2650  -28.1570 C   0  0  0  0  0  0  0  0  0  0  0  0
   -1.9240   22.0760  -28.8530 N   0  0  0  0  0  0  0  0  0  0  0  0
   -1.9010   21.6850  -30.1370 C   0  0  0  0  0  0  0  0  0  0  0  0
   -1.0060   20.7950  -30.7260 C   0  0  0  0  0  0  0  0  0  0  0  0
   -1.1520   20.5310  -32.0980 C   0  0  0  0  0  0  0  0  0  0  0  0
   -2.1720   21.1610  -32.8410 C   0  0  0  0  0  0  0  0  0  0  0  0
   -3.0610   22.0570  -32.2180 C   0  0  0  0  0  0  0  0  0  0  0  0
   -4.0130   22.6760  -32.9550 F   0  0  0  0  0  0  0  0  0  0  0  0
   -2.9000   22.2910  -30.8440 C   0  0  0  0  0  0  0  0  0  0  0  0
   -5.9350   23.1669  -32.4272 H   0  0  0  0  0  0  0  0  0  0  0  0
   -7.8567   23.4405  -30.0687 H   0  0  0  0  0  0  0  0  0  0  0  0
   -7.6896   24.5519  -31.4974 H   0  0  0  0  0  0  0  0  0  0  0  0
   -9.5291   22.4894  -31.3106 H   0  0  0  0  0  0  0  0  0  0  0  0
   -8.9098   23.2189  -32.8518 H   0  0  0  0  0  0  0  0  0  0  0  0
   -7.4620   21.4950  -33.1840 H   0  0  0  0  0  0  0  0  0  0  0  0
   -9.9706   20.4502  -32.0634 H   0  0  0  0  0  0  0  0  0  0  0  0
   -9.3956   20.4295  -33.7402 H   0  0  0  0  0  0  0  0  0  0  0  0
   -9.0797   18.3305  -31.8485 H   0  0  0  0  0  0  0  0  0  0  0  0
   -8.1789   18.4531  -33.3662 H   0  0  0  0  0  0  0  0  0  0  0  0
   -7.0833   18.6610  -30.7295 H   0  0  0  0  0  0  0  0  0  0  0  0
   -6.2207   19.0910  -32.1955 H   0  0  0  0  0  0  0  0  0  0  0  0
   -7.8052   20.8134  -30.2810 H   0  0  0  0  0  0  0  0  0  0  0  0
   -5.7008   21.4318  -29.9710 H   0  0  0  0  0  0  0  0  0  0  0  0
   -5.2222   21.1173  -31.6887 H   0  0  0  0  0  0  0  0  0  0  0  0
   -4.3894   23.9834  -27.6076 H   0  0  0  0  0  0  0  0  0  0  0  0
   -3.2587   22.8799  -26.7083 H   0  0  0  0  0  0  0  0  0  0  0  0
   -3.1143   24.9551  -25.1272 H   0  0  0  0  0  0  0  0  0  0  0  0
   -1.6247   26.8896  -24.6159 H   0  0  0  0  0  0  0  0  0  0  0  0
   -0.0824   27.7795  -26.3649 H   0  0  0  0  0  0  0  0  0  0  0  0
   -0.0143   26.7214  -28.6251 H   0  0  0  0  0  0  0  0  0  0  0  0
   -1.5090   24.7946  -29.1505 H   0  0  0  0  0  0  0  0  0  0  0  0
   -0.2112   20.3148  -30.1364 H   0  0  0  0  0  0  0  0  0  0  0  0
   -0.4669   19.8289  -32.5957 H   0  0  0  0  0  0  0  0  0  0  0  0
   -2.2736   20.9504  -33.9159 H   0  0  0  0  0  0  0  0  0  0  0  0
  1  2  2  0
  2  3  2  0
  2  4  1  0
  4  5  1  0
  5  6  1  0
  6  7  1  0
  7  8  1  0
  8  9  1  0
  9 10  1  0
 10 11  1  0
 11 12  1  0
  2 13  1  0
 13 14  1  0
 14 15  1  0
 15 16  1  0
 16 17  2  0
 17 18  1  0
 18 19  2  0
 19 20  1  0
 20 21  2  0
 14 22  2  0
 22 23  1  0
 23 24  2  0
 24 25  1  0
 25 26  2  0
 26 27  1  0
 27 28  1  0
 27 29  2  0
 12  4  1  0
 29 13  1  0
 11  7  1  0
 21 16  1  0
 29 23  1  0
  4 30  1  6
  5 31  1  0
  5 32  1  0
  6 33  1  0
  6 34  1  0
  7 35  1  6
  8 36  1  0
  8 37  1  0
  9 38  1  0
  9 39  1  0
 10 40  1  0
 10 41  1  0
 11 42  1  1
 12 43  1  0
 12 44  1  0
 15 45  1  0
 15 46  1  0
 17 47  1  0
 18 48  1  0
 19 49  1  0
 20 50  1  0
 21 51  1  0
 24 52  1  0
 25 53  1  0
 26 54  1  0
M  CHG  1   7   1
M  END
>  <UniqueID>  (21) 
17

>  <SMILES>  (21) 
O=S(=O)([C@@H]1CC[N@@H+]2CCCC2C1)n1c(Cc2ccccc2)nc2cccc(F)c21

>  <Energy>  (21) 
103.55073024325525

>  <Genealogy>  (21) 
O=S(=O)(C1CC[NH+]2CCCC2C1)n1c(Cc2ccccc2)nc2cccc(F)c21 (protonated)
O=S(=O)([C@@H]1CC[N@@H+]2CCCC2C1)n1c(Cc2ccccc2)nc2cccc(F)c21 (chirality)
O=S(=O)([C@@H]1CC[N@@H+]2CCCC2C1)n1c(Cc2ccccc2)nc2cccc(F)c21 (3D coordinates assigned)
O=S(=O)([C@@H]1CC[N@@H+]2CCCC2C1)n1c(Cc2ccccc2)nc2cccc(F)c21 (nonaromatic ring conformer: 103.55073024325525 kcal/mol)

>  <smiles>  (21) 
O=S(=O)(C1CCN2CCCC2C1)n1c(Cc2ccccc2)nc2cccc(F)c21

>  <score_type>  (21) 
oracle

>  <origin>  (21) 
adg

>  <m_score__min__energy>  (21) 
-9.2200000000000006

>  <m_primary>  (21) 
energy

$$$$
21:0
     RDKit          3D

 80 85  0  0  0  0  0  0  0  0999 V2000
   -2.0000   25.1930  -28.7190 O   0  0  0  0  0  0  0  0  0  0  0  0
   -2.4110   24.5070  -29.6910 C   0  0  0  0  0  0  0  0  0  0  0  0
   -1.7190   23.2290  -30.0500 C   0  0  0  0  0  0  0  0  0  0  0  0
   -1.7940   22.2480  -28.9090 C   0  0  0  0  0  0  0  0  0  0  0  0
   -3.0300   21.6900  -28.5360 C   0  0  0  0  0  0  0  0  0  0  0  0
   -3.1030   20.7820  -27.4760 C   0  0  0  0  0  0  0  0  0  0  0  0
   -1.9460   20.4180  -26.7810 C   0  0  0  0  0  0  0  0  0  0  0  0
   -0.7130   20.9730  -27.1410 C   0  0  0  0  0  0  0  0  0  0  0  0
   -0.6360   21.8950  -28.1920 C   0  0  0  0  0  0  0  0  0  0  0  0
   -3.5640   24.9310  -30.4210 N   0  0  0  0  0  0  0  0  0  0  0  0
   -4.9370   24.7410  -29.9550 C   0  0  0  0  0  0  0  0  0  0  0  0
   -5.9210   24.6000  -31.1240 C   0  0  0  0  0  0  0  0  0  0  0  0
   -5.5760   23.3940  -32.0160 C   0  0  0  0  0  0  0  0  0  0  0  0
   -6.8250   22.5400  -32.3350 C   0  0  2  0  0  0  0  0  0  0  0  0
   -8.0980   23.2110  -31.7380 C   0  0  0  0  0  0  0  0  0  0  0  0
   -9.3930   22.3910  -31.9790 C   0  0  0  0  0  0  0  0  0  0  0  0
   -9.2120   20.8900  -31.6580 C   0  0  0  0  0  0  0  0  0  0  0  0
   -7.9990   20.4130  -32.3360 N   0  0  2  0  0  0  0  0  0  0  0  0
   -7.6600   19.0440  -32.2000 C   0  0  0  0  0  0  0  0  0  0  0  0
   -8.4850   18.1450  -32.1080 O   0  0  0  0  0  0  0  0  0  0  0  0
   -6.1900   18.8430  -32.2220 C   0  0  1  0  0  0  0  0  0  0  0  0
   -5.7010   18.1870  -33.5230 C   0  0  0  0  0  0  0  0  0  0  0  0
   -4.7880   17.0060  -33.2560 C   0  0  0  0  0  0  0  0  0  0  0  0
   -5.3620   15.8770  -32.6450 C   0  0  0  0  0  0  0  0  0  0  0  0
   -4.6010   14.7460  -32.3690 C   0  0  0  0  0  0  0  0  0  0  0  0
   -3.2500   14.7110  -32.7010 C   0  0  0  0  0  0  0  0  0  0  0  0
   -2.6460   15.8110  -33.3240 C   0  0  0  0  0  0  0  0  0  0  0  0
   -1.2850   15.7560  -33.6640 C   0  0  0  0  0  0  0  0  0  0  0  0
   -0.6730   16.8370  -34.2960 C   0  0  0  0  0  0  0  0  0  0  0  0
   -1.4110   17.9780  -34.5990 C   0  0  0  0  0  0  0  0  0  0  0  0
   -2.7660   18.0520  -34.2660 C   0  0  0  0  0  0  0  0  0  0  0  0
   -3.4100   16.9750  -33.6160 C   0  0  0  0  0  0  0  0  0  0  0  0
   -5.6440   20.2170  -32.1290 N   0  0  0  0  0  0  0  0  0  0  0  0
   -4.4610   20.2940  -31.2220 C   0  0  0  0  0  0  0  0  0  0  0  0
   -3.1130   20.5390  -31.8830 C   0  0  0  0  0  0  0  0  0  0  0  0
   -1.9380   20.0320  -31.2930 C   0  0  0  0  0  0  0  0  0  0  0  0
   -0.7010   20.2090  -31.9180 C   0  0  0  0  0  0  0  0  0  0  0  0
   -0.6240   20.8690  -33.1470 C   0  0  0  0  0  0  0  0  0  0  0  0
   -1.7880   21.3370  -33.7650 C   0  0  0  0  0  0  0  0  0  0  0  0
   -3.0270   21.1610  -33.1440 C   0  0  0  0  0  0  0  0  0  0  0  0
   -6.8070   21.0800  -31.7900 C   0  0  1  0  0  0  0  0  0  0  0  0
   -2.2035   22.7917  -30.9354 H   0  0  0  0  0  0  0  0  0  0  0  0
   -0.6618   23.4454  -30.2633 H   0  0  0  0  0  0  0  0  0  0  0  0
   -3.9436   21.9696  -29.0812 H   0  0  0  0  0  0  0  0  0  0  0  0
   -4.0738   20.3525  -27.1878 H   0  0  0  0  0  0  0  0  0  0  0  0
   -2.0048   19.6966  -25.9527 H   0  0  0  0  0  0  0  0  0  0  0  0
    0.1983   20.6842  -26.5969 H   0  0  0  0  0  0  0  0  0  0  0  0
    0.3322   22.3444  -28.4578 H   0  0  0  0  0  0  0  0  0  0  0  0
   -4.9815   23.8299  -29.3402 H   0  0  0  0  0  0  0  0  0  0  0  0
   -5.2254   25.6269  -29.3702 H   0  0  0  0  0  0  0  0  0  0  0  0
   -6.9360   24.4670  -30.7215 H   0  0  0  0  0  0  0  0  0  0  0  0
   -5.8567   25.5103  -31.7381 H   0  0  0  0  0  0  0  0  0  0  0  0
   -5.1448   23.7605  -32.9593 H   0  0  0  0  0  0  0  0  0  0  0  0
   -4.8586   22.7612  -31.4730 H   0  0  0  0  0  0  0  0  0  0  0  0
   -6.8275   22.4860  -33.4337 H   0  0  0  0  0  0  0  0  0  0  0  0
   -7.9553   23.3280  -30.6536 H   0  0  0  0  0  0  0  0  0  0  0  0
   -8.2253   24.1786  -32.2455 H   0  0  0  0  0  0  0  0  0  0  0  0
  -10.1906   22.7950  -31.3382 H   0  0  0  0  0  0  0  0  0  0  0  0
   -9.6486   22.4761  -33.0455 H   0  0  0  0  0  0  0  0  0  0  0  0
   -9.1086   20.7524  -30.5715 H   0  0  0  0  0  0  0  0  0  0  0  0
  -10.0872   20.3213  -32.0054 H   0  0  0  0  0  0  0  0  0  0  0  0
   -8.0910   20.5800  -33.3680 H   0  0  0  0  0  0  0  0  0  0  0  0
   -5.8695   18.1722  -31.4112 H   0  0  0  0  0  0  0  0  0  0  0  0
   -6.5738   17.8389  -34.0949 H   0  0  0  0  0  0  0  0  0  0  0  0
   -5.1287   18.9378  -34.0876 H   0  0  0  0  0  0  0  0  0  0  0  0
   -6.4298   15.8885  -32.3811 H   0  0  0  0  0  0  0  0  0  0  0  0
   -5.0690   13.8754  -31.8862 H   0  0  0  0  0  0  0  0  0  0  0  0
   -2.6534   13.8153  -32.4732 H   0  0  0  0  0  0  0  0  0  0  0  0
   -0.6986   14.8551  -33.4304 H   0  0  0  0  0  0  0  0  0  0  0  0
    0.3948   16.7886  -34.5558 H   0  0  0  0  0  0  0  0  0  0  0  0
   -0.9247   18.8260  -35.1034 H   0  0  0  0  0  0  0  0  0  0  0  0
   -3.3379   18.9587  -34.5126 H   0  0  0  0  0  0  0  0  0  0  0  0
   -4.6382   21.1141  -30.5107 H   0  0  0  0  0  0  0  0  0  0  0  0
   -4.3824   19.2982  -30.7614 H   0  0  0  0  0  0  0  0  0  0  0  0
   -1.9950   19.4940  -30.3352 H   0  0  0  0  0  0  0  0  0  0  0  0
    0.2142   19.8279  -31.4414 H   0  0  0  0  0  0  0  0  0  0  0  0
    0.3531   21.0207  -33.6290 H   0  0  0  0  0  0  0  0  0  0  0  0
   -1.7280   21.8435  -34.7396 H   0  0  0  0  0  0  0  0  0  0  0  0
   -3.9425   21.5108  -33.6436 H   0  0  0  0  0  0  0  0  0  0  0  0
   -6.7610   21.1916  -30.6966 H   0  0  0  0  0  0  0  0  0  0  0  0
  1  2  2  0
  2  3  1  0
  3  4  1  0
  4  5  2  0
  5  6  1  0
  6  7  2  0
  7  8  1  0
  8  9  2  0
  2 10  1  0
 10 11  1  0
 11 12  1  0
 12 13  1  0
 13 14  1  0
 14 15  1  0
 15 16  1  0
 16 17  1  0
 17 18  1  0
 18 19  1  0
 19 20  2  0
 19 21  1  0
 21 22  1  0
 22 23  1  0
 23 24  2  0
 24 25  1  0
 25 26  2  0
 26 27  1  0
 27 28  2  0
 28 29  1  0
 29 30  2  0
 30 31  1  0
 31 32  2  0
 21 33  1  0
 33 34  1  0
 34 35  1  0
 35 36  2  0
 36 37  1  0
 37 38  2  0
 38 39  1  0
 39 40  2  0
 33 41  1  0
  9  4  1  0
 41 14  1  0
 41 18  1  0
 32 23  1  0
 40 35  1  0
 32 27  1  0
  3 42  1  0
  3 43  1  0
  5 44  1  0
  6 45  1  0
  7 46  1  0
  8 47  1  0
  9 48  1  0
 11 49  1  0
 11 50  1  0
 12 51  1  0
 12 52  1  0
 13 53  1  0
 13 54  1  0
 14 55  1  6
 15 56  1  0
 15 57  1  0
 16 58  1  0
 16 59  1  0
 17 60  1  0
 17 61  1  0
 18 62  1  6
 21 63  1  1
 22 64  1  0
 22 65  1  0
 24 66  1  0
 25 67  1  0
 26 68  1  0
 28 69  1  0
 29 70  1  0
 30 71  1  0
 31 72  1  0
 34 73  1  0
 34 74  1  0
 36 75  1  0
 37 76  1  0
 38 77  1  0
 39 78  1  0
 40 79  1  0
 41 80  1  1
M  CHG  2  10  -1  18   1
M  END
>  <UniqueID>  (22) 
18

>  <SMILES>  (22) 
O=C(Cc1ccccc1)[N-]CCC[C@@H]1CCC[N@@H+]2C(=O)C(Cc3cccc4ccccc34)N(Cc3ccccc3)C12

>  <Energy>  (22) 
112.12292937836179

>  <Genealogy>  (22) 
O=C(Cc1ccccc1)[N-]CCCC1CCC[NH+]2C(=O)C(Cc3cccc4ccccc34)N(Cc3ccccc3)C12 (protonated)
O=C(Cc1ccccc1)[N-]CCC[C@@H]1CCC[N@@H+]2C(=O)C(Cc3cccc4ccccc34)N(Cc3ccccc3)C12 (chirality)
O=C(Cc1ccccc1)[N-]CCC[C@@H]1CCC[N@@H+]2C(=O)C(Cc3cccc4ccccc34)N(Cc3ccccc3)C12 (3D coordinates assigned)
O=C(Cc1ccccc1)[N-]CCC[C@@H]1CCC[N@@H+]2C(=O)C(Cc3cccc4ccccc34)N(Cc3ccccc3)C12 (nonaromatic ring conformer: 112.12292937836179 kcal/mol)

>  <smiles>  (22) 
O=C(Cc1ccccc1)NCCCC1CCCN2C(=O)C(Cc3cccc4ccccc34)N(Cc3ccccc3)C12

>  <score_type>  (22) 
oracle

>  <origin>  (22) 
adg

>  <m_score__min__energy>  (22) 
-13.69

>  <m_primary>  (22) 
energy

$$$$
22:0
     RDKit          3D

 32 33  0  0  0  0  0  0  0  0999 V2000
   -2.2820   24.8710  -28.6180 C   0  0  0  0  0  0  0  0  0  0  0  0
   -3.1180   25.2890  -29.6920 O   0  0  0  0  0  0  0  0  0  0  0  0
   -4.2230   24.5640  -30.1640 C   0  0  0  0  0  0  0  0  0  0  0  0
   -4.0680   23.1930  -30.3970 C   0  0  0  0  0  0  0  0  0  0  0  0
   -5.1380   22.4280  -30.8700 C   0  0  0  0  0  0  0  0  0  0  0  0
   -6.3780   23.0270  -31.1340 C   0  0  0  0  0  0  0  0  0  0  0  0
   -7.4710   22.2150  -31.5940 N   0  0  0  0  0  0  0  0  0  0  0  0
   -7.3300   20.8830  -32.1180 C   0  0  0  0  0  0  0  0  0  0  0  0
   -6.3620   20.5810  -33.0940 C   0  0  0  0  0  0  0  0  0  0  0  0
   -6.2250   19.2740  -33.5700 C   0  0  0  0  0  0  0  0  0  0  0  0
   -7.0420   18.2540  -33.0690 C   0  0  0  0  0  0  0  0  0  0  0  0
   -6.8620   16.5770  -33.6780 S   0  0  0  0  0  0  0  0  0  0  0  0
   -5.3050   16.9320  -34.5510 C   0  0  0  0  0  0  0  0  0  0  0  0
   -7.9870   18.5430  -32.0780 C   0  0  0  0  0  0  0  0  0  0  0  0
   -8.1260   19.8500  -31.6010 C   0  0  0  0  0  0  0  0  0  0  0  0
   -6.5420   24.4000  -30.8800 C   0  0  0  0  0  0  0  0  0  0  0  0
   -5.4720   25.1650  -30.4060 C   0  0  0  0  0  0  0  0  0  0  0  0
   -2.7664   25.1132  -27.6606 H   0  0  0  0  0  0  0  0  0  0  0  0
   -2.1185   23.7851  -28.6818 H   0  0  0  0  0  0  0  0  0  0  0  0
   -1.3152   25.3917  -28.6818 H   0  0  0  0  0  0  0  0  0  0  0  0
   -3.0965   22.7135  -30.2064 H   0  0  0  0  0  0  0  0  0  0  0  0
   -5.0064   21.3486  -31.0363 H   0  0  0  0  0  0  0  0  0  0  0  0
   -8.4350   22.6190  -31.5440 H   0  0  0  0  0  0  0  0  0  0  0  0
   -5.7105   21.3770  -33.4839 H   0  0  0  0  0  0  0  0  0  0  0  0
   -5.4733   19.0465  -34.3402 H   0  0  0  0  0  0  0  0  0  0  0  0
   -4.5063   17.1141  -33.8169 H   0  0  0  0  0  0  0  0  0  0  0  0
   -5.0342   16.0726  -35.1819 H   0  0  0  0  0  0  0  0  0  0  0  0
   -5.4335   17.8239  -35.1819 H   0  0  0  0  0  0  0  0  0  0  0  0
   -8.6215   17.7406  -31.6736 H   0  0  0  0  0  0  0  0  0  0  0  0
   -8.8641   20.0696  -30.8155 H   0  0  0  0  0  0  0  0  0  0  0  0
   -7.5183   24.8754  -31.0553 H   0  0  0  0  0  0  0  0  0  0  0  0
   -5.6071   26.2410  -30.2215 H   0  0  0  0  0  0  0  0  0  0  0  0
  1  2  1  0
  2  3  1  0
  3  4  2  0
  4  5  1  0
  5  6  2  0
  6  7  1  0
  7  8  1  0
  8  9  2  0
  9 10  1  0
 10 11  2  0
 11 12  1  0
 12 13  1  0
 11 14  1  0
 14 15  2  0
  6 16  1  0
 16 17  2  0
 17  3  1  0
 15  8  1  0
  1 18  1  0
  1 19  1  0
  1 20  1  0
  4 21  1  0
  5 22  1  0
  7 23  1  0
  9 24  1  0
 10 25  1  0
 13 26  1  0
 13 27  1  0
 13 28  1  0
 14 29  1  0
 15 30  1  0
 16 31  1  0
 17 32  1  0
M  END
>  <UniqueID>  (23) 
19

>  <SMILES>  (23) 
COc1ccc(Nc2ccc(SC)cc2)cc1

>  <Energy>  (23) 
32.74722355088921

>  <Genealogy>  (23) 
COc1ccc(Nc2ccc(SC)cc2)cc1 (3D coordinates assigned)
COc1ccc(Nc2ccc(SC)cc2)cc1 (optimized conformer: 32.74722355088921 kcal/mol)

>  <smiles>  (23) 
COc1ccc(Nc2ccc(SC)cc2)cc1

>  <score_type>  (23) 
oracle

>  <origin>  (23) 
adg

>  <m_score__min__energy>  (23) 
-7.1299999999999999

>  <m_primary>  (23) 
energy

$$$$
23:0
     RDKit          3D

 54 55  0  0  0  0  0  0  0  0999 V2000
   -1.6600   25.4570  -29.0490 O   0  0  0  0  0  0  0  0  0  0  0  0
   -2.8230   24.5500  -29.3360 S   0  0  0  0  0  0  0  0  0  0  0  0
   -3.6050   24.3550  -28.0650 O   0  0  0  0  0  0  0  0  0  0  0  0
   -3.8560   25.2950  -30.5190 N   0  0  0  0  0  0  0  0  0  0  0  0
   -5.2390   25.2870  -30.0430 C   0  0  0  0  0  0  0  0  0  0  0  0
   -6.1570   24.7180  -31.1250 C   0  0  0  0  0  0  0  0  0  0  0  0
   -5.4580   23.8010  -31.9480 O   0  0  0  0  0  0  0  0  0  0  0  0
   -5.9760   22.4970  -31.7890 C   0  0  0  0  0  0  0  0  0  0  0  0
   -7.4130   22.4550  -32.2900 C   0  0  0  0  0  0  0  0  0  0  0  0
   -7.7710   21.1140  -32.5610 O   0  0  0  0  0  0  0  0  0  0  0  0
   -8.5880   20.5870  -31.5320 C   0  0  0  0  0  0  0  0  0  0  0  0
   -8.6950   19.0690  -31.6820 C   0  0  0  0  0  0  0  0  0  0  0  0
   -8.1900   18.6790  -32.9460 O   0  0  0  0  0  0  0  0  0  0  0  0
   -6.9380   18.0280  -32.7960 C   0  0  0  0  0  0  0  0  0  0  0  0
   -5.9320   18.5530  -33.8200 C   0  0  0  0  0  0  0  0  0  0  0  0
   -6.4760   19.6520  -34.4990 O   0  0  0  0  0  0  0  0  0  0  0  0
   -2.2110   22.9860  -29.9140 C   0  0  0  0  0  0  0  0  0  0  0  0
   -2.6870   22.4940  -31.1390 C   0  0  0  0  0  0  0  0  0  0  0  0
   -2.1920   21.3010  -31.6710 C   0  0  0  0  0  0  0  0  0  0  0  0
   -1.2130   20.5840  -30.9860 C   0  0  0  0  0  0  0  0  0  0  0  0
   -0.7370   21.0510  -29.7600 C   0  0  0  0  0  0  0  0  0  0  0  0
   -1.2360   22.2400  -29.2030 C   0  0  0  0  0  0  0  0  0  0  0  0
   -0.7120   22.6730  -27.8880 C   0  0  0  0  0  0  0  0  0  0  0  0
    0.3330   23.6100  -27.8210 C   0  0  0  0  0  0  0  0  0  0  0  0
    0.8320   24.0230  -26.5820 C   0  0  0  0  0  0  0  0  0  0  0  0
    0.2990   23.4940  -25.4040 C   0  0  0  0  0  0  0  0  0  0  0  0
   -0.7230   22.5420  -25.4620 C   0  0  0  0  0  0  0  0  0  0  0  0
   -1.2210   22.1240  -26.7000 C   0  0  0  0  0  0  0  0  0  0  0  0
   -5.3103   24.6640  -29.1392 H   0  0  0  0  0  0  0  0  0  0  0  0
   -5.5482   26.3165  -29.8096 H   0  0  0  0  0  0  0  0  0  0  0  0
   -7.0015   24.2011  -30.6459 H   0  0  0  0  0  0  0  0  0  0  0  0
   -6.5198   25.5469  -31.7506 H   0  0  0  0  0  0  0  0  0  0  0  0
   -5.3657   21.7874  -32.3670 H   0  0  0  0  0  0  0  0  0  0  0  0
   -5.9515   22.2209  -30.7245 H   0  0  0  0  0  0  0  0  0  0  0  0
   -8.0831   22.8666  -31.5209 H   0  0  0  0  0  0  0  0  0  0  0  0
   -7.5025   23.0545  -33.2079 H   0  0  0  0  0  0  0  0  0  0  0  0
   -8.1444   20.8270  -30.5544 H   0  0  0  0  0  0  0  0  0  0  0  0
   -9.5921   21.0306  -31.6023 H   0  0  0  0  0  0  0  0  0  0  0  0
   -8.1108   18.5808  -30.8881 H   0  0  0  0  0  0  0  0  0  0  0  0
   -9.7499   18.7678  -31.6018 H   0  0  0  0  0  0  0  0  0  0  0  0
   -6.5529   18.2144  -31.7826 H   0  0  0  0  0  0  0  0  0  0  0  0
   -7.0780   16.9490  -32.9577 H   0  0  0  0  0  0  0  0  0  0  0  0
   -5.0118   18.8622  -33.3027 H   0  0  0  0  0  0  0  0  0  0  0  0
   -5.7007   17.7571  -34.5433 H   0  0  0  0  0  0  0  0  0  0  0  0
   -7.4160   19.7250  -34.1900 H   0  0  0  0  0  0  0  0  0  0  0  0
   -3.4590   23.0544  -31.6867 H   0  0  0  0  0  0  0  0  0  0  0  0
   -2.5755   20.9271  -32.6318 H   0  0  0  0  0  0  0  0  0  0  0  0
   -0.8156   19.6506  -31.4113 H   0  0  0  0  0  0  0  0  0  0  0  0
    0.0371   20.4820  -29.2243 H   0  0  0  0  0  0  0  0  0  0  0  0
    0.7605   24.0205  -28.7477 H   0  0  0  0  0  0  0  0  0  0  0  0
    1.6437   24.7639  -26.5348 H   0  0  0  0  0  0  0  0  0  0  0  0
    0.6842   23.8272  -24.4290 H   0  0  0  0  0  0  0  0  0  0  0  0
   -1.1357   22.1214  -24.5331 H   0  0  0  0  0  0  0  0  0  0  0  0
   -2.0139   21.3628  -26.7434 H   0  0  0  0  0  0  0  0  0  0  0  0
  1  2  2  0
  2  3  2  0
  2  4  1  0
  4  5  1  0
  5  6  1  0
  6  7  1  0
  7  8  1  0
  8  9  1  0
  9 10  1  0
 10 11  1  0
 11 12  1  0
 12 13  1  0
 13 14  1  0
 14 15  1  0
 15 16  1  0
  2 17  1  0
 17 18  2  0
 18 19  1  0
 19 20  2  0
 20 21  1  0
 21 22  2  0
 22 23  1  0
 23 24  2  0
 24 25  1  0
 25 26  2  0
 26 27  1  0
 27 28  2  0
 22 17  1  0
 28 23  1  0
  5 29  1  0
  5 30  1  0
  6 31  1  0
  6 32  1  0
  8 33  1  0
  8 34  1  0
  9 35  1  0
  9 36  1  0
 11 37  1  0
 11 38  1  0
 12 39  1  0
 12 40  1  0
 14 41  1  0
 14 42  1  0
 15 43  1  0
 15 44  1  0
 16 45  1  0
 18 46  1  0
 19 47  1  0
 20 48  1  0
 21 49  1  0
 24 50  1  0
 25 51  1  0
 26 52  1  0
 27 53  1  0
 28 54  1  0
M  CHG  1   4  -1
M  END
>  <UniqueID>  (24) 
20

>  <SMILES>  (24) 
O=S(=O)([N-]CCOCCOCCOCCO)c1ccccc1-c1ccccc1

>  <Energy>  (24) 
56.93237773745845

>  <Genealogy>  (24) 
O=S(=O)([N-]CCOCCOCCOCCO)c1ccccc1-c1ccccc1 (protonated)
O=S(=O)([N-]CCOCCOCCOCCO)c1ccccc1-c1ccccc1 (3D coordinates assigned)
O=S(=O)([N-]CCOCCOCCOCCO)c1ccccc1-c1ccccc1 (optimized conformer: 56.93237773745845 kcal/mol)

>  <smiles>  (24) 
O=S(=O)(NCCOCCOCCOCCO)c1ccccc1-c1ccccc1

>  <score_type>  (24) 
oracle

>  <origin>  (24) 
adg

>  <m_score__min__energy>  (24) 
-8.4399999999999995

>  <m_primary>  (24) 
energy

$$$$
24:0
     RDKit          3D

 63 65  0  0  0  0  0  0  0  0999 V2000
   -4.2310   24.7420  -26.6960 C   0  0  0  0  0  0  0  0  0  0  0  0
   -3.9040   24.0010  -27.9360 N   0  0  1  0  0  0  0  0  0  0  0  0
   -4.6990   24.5170  -29.0870 C   0  0  0  0  0  0  0  0  0  0  0  0
   -5.2440   23.4380  -30.0070 C   0  0  0  0  0  0  0  0  0  0  0  0
   -6.5960   23.0580  -29.9490 C   0  0  0  0  0  0  0  0  0  0  0  0
   -7.0860   22.0520  -30.7860 C   0  0  0  0  0  0  0  0  0  0  0  0
   -6.2420   21.4240  -31.7160 C   0  0  0  0  0  0  0  0  0  0  0  0
   -6.7390   20.3670  -32.5580 N   0  0  0  0  0  0  0  0  0  0  0  0
   -5.7950   19.5680  -33.3570 C   0  0  0  0  0  0  0  0  0  0  0  0
   -6.4600   18.3060  -33.9240 C   0  0  0  0  0  0  0  0  0  0  0  0
   -7.3070   17.6170  -32.8460 C   0  0  0  0  0  0  0  0  0  0  0  0
   -8.3770   18.5500  -32.2320 C   0  0  0  0  0  0  0  0  0  0  0  0
   -8.1700   20.0310  -32.5820 C   0  0  0  0  0  0  0  0  0  0  0  0
   -4.8990   21.8260  -31.7970 C   0  0  0  0  0  0  0  0  0  0  0  0
   -4.4090   22.8320  -30.9590 C   0  0  0  0  0  0  0  0  0  0  0  0
   -2.4390   23.8360  -28.2610 C   0  0  0  0  0  0  0  0  0  0  0  0
   -1.4450   24.3310  -27.1690 C   0  0  0  0  0  0  0  0  0  0  0  0
   -0.5540   23.2250  -26.5200 C   0  0  0  0  0  0  0  0  0  0  0  0
   -0.2330   23.6440  -25.0660 C   0  0  0  0  0  0  0  0  0  0  0  0
    0.8020   23.1190  -27.2580 C   0  0  0  0  0  0  0  0  0  0  0  0
   -1.2280   21.9030  -26.4770 N   0  0  0  0  0  0  0  0  0  0  0  0
   -1.7660   21.3430  -27.7440 C   0  0  0  0  0  0  0  0  0  0  0  0
   -0.7370   20.3380  -28.3080 C   0  0  0  0  0  0  0  0  0  0  0  0
   -3.0510   20.5200  -27.4620 C   0  0  0  0  0  0  0  0  0  0  0  0
   -2.0740   22.4330  -28.8130 C   0  0  0  0  0  0  0  0  0  0  0  0
   -3.9614   24.1311  -25.8219 H   0  0  0  0  0  0  0  0  0  0  0  0
   -3.6655   25.6852  -26.6726 H   0  0  0  0  0  0  0  0  0  0  0  0
   -5.3089   24.9600  -26.6726 H   0  0  0  0  0  0  0  0  0  0  0  0
   -4.2940   23.0420  -27.7770 H   0  0  0  0  0  0  0  0  0  0  0  0
   -5.5487   25.0908  -28.6886 H   0  0  0  0  0  0  0  0  0  0  0  0
   -4.0143   25.1292  -29.6922 H   0  0  0  0  0  0  0  0  0  0  0  0
   -7.2732   23.5561  -29.2396 H   0  0  0  0  0  0  0  0  0  0  0  0
   -8.1413   21.7497  -30.7158 H   0  0  0  0  0  0  0  0  0  0  0  0
   -5.4251   20.1820  -34.1914 H   0  0  0  0  0  0  0  0  0  0  0  0
   -4.9685   19.2560  -32.7016 H   0  0  0  0  0  0  0  0  0  0  0  0
   -7.1064   18.5855  -34.7690 H   0  0  0  0  0  0  0  0  0  0  0  0
   -5.6769   17.6108  -34.2607 H   0  0  0  0  0  0  0  0  0  0  0  0
   -7.8139   16.7517  -33.2981 H   0  0  0  0  0  0  0  0  0  0  0  0
   -6.6273   17.3164  -32.0350 H   0  0  0  0  0  0  0  0  0  0  0  0
   -9.3647   18.2390  -32.6030 H   0  0  0  0  0  0  0  0  0  0  0  0
   -8.2959   18.4609  -31.1386 H   0  0  0  0  0  0  0  0  0  0  0  0
   -8.5714   20.2255  -33.5875 H   0  0  0  0  0  0  0  0  0  0  0  0
   -8.6949   20.6503  -31.8397 H   0  0  0  0  0  0  0  0  0  0  0  0
   -4.2280   21.3461  -32.5247 H   0  0  0  0  0  0  0  0  0  0  0  0
   -3.3601   23.1515  -31.0463 H   0  0  0  0  0  0  0  0  0  0  0  0
   -2.2955   24.5430  -29.0914 H   0  0  0  0  0  0  0  0  0  0  0  0
   -0.7791   25.0758  -27.6294 H   0  0  0  0  0  0  0  0  0  0  0  0
   -2.0662   24.7343  -26.3556 H   0  0  0  0  0  0  0  0  0  0  0  0
   -0.7498   22.9695  -24.3675 H   0  0  0  0  0  0  0  0  0  0  0  0
    0.8525   23.5840  -24.8983 H   0  0  0  0  0  0  0  0  0  0  0  0
   -0.5734   24.6765  -24.8983 H   0  0  0  0  0  0  0  0  0  0  0  0
    1.6164   23.0553  -26.5213 H   0  0  0  0  0  0  0  0  0  0  0  0
    0.8068   22.2177  -27.8886 H   0  0  0  0  0  0  0  0  0  0  0  0
    0.9468   24.0086  -27.8886 H   0  0  0  0  0  0  0  0  0  0  0  0
   -1.9490   21.8920  -25.7200 H   0  0  0  0  0  0  0  0  0  0  0  0
   -0.2219   19.8350  -27.4763 H   0  0  0  0  0  0  0  0  0  0  0  0
   -1.2558   19.5892  -28.9246 H   0  0  0  0  0  0  0  0  0  0  0  0
   -0.0007   20.8743  -28.9246 H   0  0  0  0  0  0  0  0  0  0  0  0
   -3.1959   20.4272  -26.3755 H   0  0  0  0  0  0  0  0  0  0  0  0
   -3.9184   21.0310  -27.9053 H   0  0  0  0  0  0  0  0  0  0  0  0
   -2.9496   19.5184  -27.9053 H   0  0  0  0  0  0  0  0  0  0  0  0
   -1.1838   22.5421  -29.4500 H   0  0  0  0  0  0  0  0  0  0  0  0
   -2.9677   22.0813  -29.3494 H   0  0  0  0  0  0  0  0  0  0  0  0
  1  2  1  0
  2  3  1  0
  3  4  1  0
  4  5  2  0
  5  6  1  0
  6  7  2  0
  7  8  1  0
  8  9  1  0
  9 10  1  0
 10 11  1  0
 11 12  1  0
 12 13  1  0
  7 14  1  0
 14 15  2  0
  2 16  1  0
 16 17  1  0
 17 18  1  0
 18 19  1  0
 18 20  1  0
 18 21  1  0
 21 22  1  0
 22 23  1  0
 22 24  1  0
 22 25  1  0
 15  4  1  0
 25 16  1  0
 13  8  1  0
  1 26  1  0
  1 27  1  0
  1 28  1  0
  2 29  1  1
  3 30  1  0
  3 31  1  0
  5 32  1  0
  6 33  1  0
  9 34  1  0
  9 35  1  0
 10 36  1  0
 10 37  1  0
 11 38  1  0
 11 39  1  0
 12 40  1  0
 12 41  1  0
 13 42  1  0
 13 43  1  0
 14 44  1  0
 15 45  1  0
 16 46  1  0
 17 47  1  0
 17 48  1  0
 19 49  1  0
 19 50  1  0
 19 51  1  0
 20 52  1  0
 20 53  1  0
 20 54  1  0
 21 55  1  0
 23 56  1  0
 23 57  1  0
 23 58  1  0
 24 59  1  0
 24 60  1  0
 24 61  1  0
 25 62  1  0
 25 63  1  0
M  CHG  1   2   1
M  END
>  <UniqueID>  (25) 
21

>  <SMILES>  (25) 
C[N@@H+](Cc1ccc(N2CCCCC2)cc1)C1CC(C)(C)NC(C)(C)C1

>  <Energy>  (25) 
97.54637676424484

>  <Genealogy>  (25) 
C[NH+](Cc1ccc(N2CCCCC2)cc1)C1CC(C)(C)NC(C)(C)C1 (protonated)
C[N@@H+](Cc1ccc(N2CCCCC2)cc1)C1CC(C)(C)NC(C)(C)C1 (chirality)
C[N@@H+](Cc1ccc(N2CCCCC2)cc1)C1CC(C)(C)NC(C)(C)C1 (3D coordinates assigned)
C[N@@H+](Cc1ccc(N2CCCCC2)cc1)C1CC(C)(C)NC(C)(C)C1 (nonaromatic ring conformer: 97.54637676424484 kcal/mol)

>  <smiles>  (25) 
CN(Cc1ccc(N2CCCCC2)cc1)C1CC(C)(C)NC(C)(C)C1

>  <score_type>  (25) 
oracle

>  <origin>  (25) 
adg

>  <m_score__min__energy>  (25) 
-8.3599999999999994

>  <m_primary>  (25) 
energy

$$$$
25:0
     RDKit          3D

 32 33  0  0  0  0  0  0  0  0999 V2000
   -7.4810   20.0690  -33.1010 C   0  0  0  0  0  0  0  0  0  0  0  0
   -6.8910   21.2160  -32.3350 C   0  0  0  0  0  0  0  0  0  0  0  0
   -5.5590   21.5990  -32.5480 C   0  0  0  0  0  0  0  0  0  0  0  0
   -5.0190   22.6890  -31.8590 C   0  0  0  0  0  0  0  0  0  0  0  0
   -5.8090   23.4150  -30.9590 C   0  0  0  0  0  0  0  0  0  0  0  0
   -5.1090   24.7770  -30.0860 S   0  0  0  0  0  0  0  0  0  0  0  0
   -6.1040   25.8990  -29.9860 O   0  0  0  0  0  0  0  0  0  0  0  0
   -3.9040   25.2680  -30.8380 O   0  0  0  0  0  0  0  0  0  0  0  0
   -4.6140   24.2830  -28.4370 C   0  0  0  0  0  0  0  0  0  0  0  0
   -3.0940   24.1590  -28.2920 C   0  0  0  0  0  0  0  0  0  0  0  0
   -2.5650   23.0580  -29.0960 N   0  0  0  0  0  0  0  0  0  0  0  0
   -1.4470   23.0830  -29.8470 C   0  0  0  0  0  0  0  0  0  0  0  0
   -1.2720   21.8610  -30.4610 C   0  0  0  0  0  0  0  0  0  0  0  0
   -2.3260   21.0620  -30.0600 C   0  0  0  0  0  0  0  0  0  0  0  0
   -3.1040   21.8290  -29.2180 C   0  0  0  0  0  0  0  0  0  0  0  0
   -7.1480   23.0480  -30.7610 C   0  0  0  0  0  0  0  0  0  0  0  0
   -7.6880   21.9570  -31.4480 C   0  0  0  0  0  0  0  0  0  0  0  0
   -7.8674   19.3177  -32.3965 H   0  0  0  0  0  0  0  0  0  0  0  0
   -8.3028   20.4349  -33.7341 H   0  0  0  0  0  0  0  0  0  0  0  0
   -6.7054   19.6133  -33.7341 H   0  0  0  0  0  0  0  0  0  0  0  0
   -4.9359   21.0390  -33.2608 H   0  0  0  0  0  0  0  0  0  0  0  0
   -3.9704   22.9773  -32.0243 H   0  0  0  0  0  0  0  0  0  0  0  0
   -4.9764   25.0345  -27.7201 H   0  0  0  0  0  0  0  0  0  0  0  0
   -5.0499   23.2924  -28.2404 H   0  0  0  0  0  0  0  0  0  0  0  0
   -2.6261   25.0985  -28.6213 H   0  0  0  0  0  0  0  0  0  0  0  0
   -2.8645   23.9552  -27.2357 H   0  0  0  0  0  0  0  0  0  0  0  0
   -0.7753   23.9475  -29.9542 H   0  0  0  0  0  0  0  0  0  0  0  0
   -0.4529   21.5772  -31.1382 H   0  0  0  0  0  0  0  0  0  0  0  0
   -2.5088   20.0181  -30.3548 H   0  0  0  0  0  0  0  0  0  0  0  0
   -4.0248   21.4890  -28.7214 H   0  0  0  0  0  0  0  0  0  0  0  0
   -7.7756   23.6208  -30.0625 H   0  0  0  0  0  0  0  0  0  0  0  0
   -8.7407   21.6781  -31.2932 H   0  0  0  0  0  0  0  0  0  0  0  0
  1  2  1  0
  2  3  2  0
  3  4  1  0
  4  5  2  0
  5  6  1  0
  6  7  2  0
  6  8  2  0
  6  9  1  0
  9 10  1  0
 10 11  1  0
 11 12  1  0
 12 13  2  0
 13 14  1  0
 14 15  2  0
  5 16  1  0
 16 17  2  0
 17  2  1  0
 15 11  1  0
  1 18  1  0
  1 19  1  0
  1 20  1  0
  3 21  1  0
  4 22  1  0
  9 23  1  0
  9 24  1  0
 10 25  1  0
 10 26  1  0
 12 27  1  0
 13 28  1  0
 14 29  1  0
 15 30  1  0
 16 31  1  0
 17 32  1  0
M  END
>  <UniqueID>  (26) 
22

>  <SMILES>  (26) 
Cc1ccc(S(=O)(=O)CCn2cccc2)cc1

>  <Energy>  (26) 
50.254158534055364

>  <Genealogy>  (26) 
Cc1ccc(S(=O)(=O)CCn2cccc2)cc1 (3D coordinates assigned)
Cc1ccc(S(=O)(=O)CCn2cccc2)cc1 (optimized conformer: 50.254158534055364 kcal/mol)

>  <smiles>  (26) 
Cc1ccc(S(=O)(=O)CCn2cccc2)cc1

>  <score_type>  (26) 
oracle

>  <origin>  (26) 
adg

>  <m_score__min__energy>  (26) 
-7.0899999999999999

>  <m_primary>  (26) 
energy

$$$$
26:0
     RDKit          3D

 52 55  0  0  0  0  0  0  0  0999 V2000
    0.1630   20.1620  -34.6940 C   0  0  0  0  0  0  0  0  0  0  0  0
   -1.1900   20.1620  -34.0450 C   0  0  0  0  0  0  0  0  0  0  0  0
   -1.5600   21.1990  -33.1820 C   0  0  0  0  0  0  0  0  0  0  0  0
   -2.8040   21.1560  -32.5510 C   0  0  0  0  0  0  0  0  0  0  0  0
   -3.6460   20.1080  -32.7630 N   0  0  0  0  0  0  0  0  0  0  0  0
   -3.3130   19.0760  -33.5930 C   0  0  0  0  0  0  0  0  0  0  0  0
   -4.2150   17.9680  -33.7690 N   0  0  0  0  0  0  0  0  0  0  0  0
   -5.3670   18.0910  -34.6670 C   0  0  0  0  0  0  0  0  0  0  0  0
   -6.4850   17.1190  -34.2480 C   0  0  0  0  0  0  0  0  0  0  0  0
   -6.5000   16.9050  -32.7850 N   0  0  0  0  0  0  0  0  0  0  0  0
   -6.8710   18.1260  -32.0260 C   0  0  0  0  0  0  0  0  0  0  0  0
   -7.6680   19.1250  -32.8970 C   0  0  1  0  0  0  0  0  0  0  0  0
   -9.0350   19.4830  -32.2830 C   0  0  0  0  0  0  0  0  0  0  0  0
   -8.8890   20.3700  -31.1730 O   0  0  0  0  0  0  0  0  0  0  0  0
   -7.9200   21.3790  -31.1440 C   0  0  0  0  0  0  0  0  0  0  0  0
   -7.9390   22.3210  -30.1140 C   0  0  0  0  0  0  0  0  0  0  0  0
   -6.9620   23.3180  -30.0530 C   0  0  0  0  0  0  0  0  0  0  0  0
   -5.9490   23.3850  -31.0270 C   0  0  0  0  0  0  0  0  0  0  0  0
   -4.9400   24.4110  -30.9670 N   0  0  0  0  0  0  0  0  0  0  0  0
   -3.7320   24.1120  -30.8680 O   0  0  0  0  0  0  0  0  0  0  0  0
   -5.2910   25.7410  -31.0330 O   0  0  0  0  0  0  0  0  0  0  0  0
   -5.9340   22.4330  -32.0620 C   0  0  0  0  0  0  0  0  0  0  0  0
   -6.9050   21.4230  -32.1170 C   0  0  0  0  0  0  0  0  0  0  0  0
   -6.8820   20.4110  -33.2360 C   0  0  0  0  0  0  0  0  0  0  0  0
   -5.2470   16.2680  -32.3000 C   0  0  0  0  0  0  0  0  0  0  0  0
   -3.9930   16.6870  -33.0940 C   0  0  0  0  0  0  0  0  0  0  0  0
   -2.0640   19.0850  -34.2360 C   0  0  0  0  0  0  0  0  0  0  0  0
    0.4936   19.1249  -34.8526 H   0  0  0  0  0  0  0  0  0  0  0  0
    0.1052   20.6805  -35.6624 H   0  0  0  0  0  0  0  0  0  0  0  0
    0.8820   20.6805  -34.0428 H   0  0  0  0  0  0  0  0  0  0  0  0
   -0.8759   22.0415  -33.0022 H   0  0  0  0  0  0  0  0  0  0  0  0
   -3.1054   21.9731  -31.8791 H   0  0  0  0  0  0  0  0  0  0  0  0
   -4.5720   20.1110  -32.2800 H   0  0  0  0  0  0  0  0  0  0  0  0
   -5.7494   19.1216  -34.6258 H   0  0  0  0  0  0  0  0  0  0  0  0
   -5.0475   17.8450  -35.6904 H   0  0  0  0  0  0  0  0  0  0  0  0
   -7.4548   17.5355  -34.5578 H   0  0  0  0  0  0  0  0  0  0  0  0
   -6.2996   16.1505  -34.7356 H   0  0  0  0  0  0  0  0  0  0  0  0
   -7.4882   17.8349  -31.1633 H   0  0  0  0  0  0  0  0  0  0  0  0
   -5.9439   18.6207  -31.7007 H   0  0  0  0  0  0  0  0  0  0  0  0
   -7.8424   18.5912  -33.8429 H   0  0  0  0  0  0  0  0  0  0  0  0
   -9.6564   19.9682  -33.0501 H   0  0  0  0  0  0  0  0  0  0  0  0
   -9.5091   18.5564  -31.9270 H   0  0  0  0  0  0  0  0  0  0  0  0
   -8.7265   22.2782  -29.3471 H   0  0  0  0  0  0  0  0  0  0  0  0
   -6.9850   24.0559  -29.2375 H   0  0  0  0  0  0  0  0  0  0  0  0
   -5.1534   22.4812  -32.8355 H   0  0  0  0  0  0  0  0  0  0  0  0
   -7.3262   20.8682  -34.1325 H   0  0  0  0  0  0  0  0  0  0  0  0
   -5.8330   20.1239  -33.4011 H   0  0  0  0  0  0  0  0  0  0  0  0
   -5.1005   16.5472  -31.2461 H   0  0  0  0  0  0  0  0  0  0  0  0
   -5.3649   15.1825  -32.4332 H   0  0  0  0  0  0  0  0  0  0  0  0
   -3.1432   16.7851  -32.4025 H   0  0  0  0  0  0  0  0  0  0  0  0
   -3.7797   15.9188  -33.8519 H   0  0  0  0  0  0  0  0  0  0  0  0
   -1.7734   18.2480  -34.8879 H   0  0  0  0  0  0  0  0  0  0  0  0
  1  2  1  0
  2  3  2  0
  3  4  1  0
  4  5  2  0
  5  6  1  0
  6  7  1  0
  7  8  1  0
  8  9  1  0
  9 10  1  0
 10 11  1  0
 11 12  1  0
 12 13  1  0
 13 14  1  0
 14 15  1  0
 15 16  2  0
 16 17  1  0
 17 18  2  0
 18 19  1  0
 19 20  2  0
 19 21  1  0
 18 22  1  0
 22 23  2  0
 23 24  1  0
 10 25  1  0
 25 26  1  0
  6 27  2  0
 27  2  1  0
 26  7  1  0
 24 12  1  0
 23 15  1  0
  1 28  1  0
  1 29  1  0
  1 30  1  0
  3 31  1  0
  4 32  1  0
  5 33  1  0
  8 34  1  0
  8 35  1  0
  9 36  1  0
  9 37  1  0
 11 38  1  0
 11 39  1  0
 12 40  1  6
 13 41  1  0
 13 42  1  0
 16 43  1  0
 17 44  1  0
 22 45  1  0
 24 46  1  0
 24 47  1  0
 25 48  1  0
 25 49  1  0
 26 50  1  0
 26 51  1  0
 27 52  1  0
M  CHG  3   5   1  19   1  21  -1
M  END
>  <UniqueID>  (27) 
23

>  <SMILES>  (27) 
Cc1cc[nH+]c(N2CCN(C[C@H]3COc4ccc([N+](=O)[O-])cc4C3)CC2)c1

>  <Energy>  (27) 
67.51851565696398

>  <Genealogy>  (27) 
Cc1cc[nH+]c(N2CCN(CC3COc4ccc([N+](=O)[O-])cc4C3)CC2)c1 (protonated)
Cc1cc[nH+]c(N2CCN(C[C@H]3COc4ccc([N+](=O)[O-])cc4C3)CC2)c1 (chirality)
Cc1cc[nH+]c(N2CCN(C[C@H]3COc4ccc([N+](=O)[O-])cc4C3)CC2)c1 (3D coordinates assigned)
Cc1cc[nH+]c(N2CCN(C[C@H]3COc4ccc([N+](=O)[O-])cc4C3)CC2)c1 (nonaromatic ring conformer: 67.51851565696398 kcal/mol)

>  <smiles>  (27) 
Cc1ccnc(N2CCN(CC3COc4ccc([N+](=O)[O-])cc4C3)CC2)c1

>  <score_type>  (27) 
oracle

>  <origin>  (27) 
adg

>  <m_score__min__energy>  (27) 
-9.2100000000000009

>  <m_primary>  (27) 
energy

$$$$
27:0
     RDKit          3D

 25 26  0  0  0  0  0  0  0  0999 V2000
   -2.9530   21.1130  -33.1480 C   0  0  0  0  0  0  0  0  0  0  0  0
   -3.9710   21.8940  -32.5320 O   0  0  0  0  0  0  0  0  0  0  0  0
   -5.3270   21.5330  -32.4630 C   0  0  0  0  0  0  0  0  0  0  0  0
   -5.8110   20.3780  -33.1070 C   0  0  0  0  0  0  0  0  0  0  0  0
   -7.1570   20.0230  -33.0140 C   0  0  0  0  0  0  0  0  0  0  0  0
   -8.0490   20.8220  -32.2910 C   0  0  0  0  0  0  0  0  0  0  0  0
   -9.4890   20.4210  -32.1630 C   0  0  0  0  0  0  0  0  0  0  0  0
   -7.5750   21.9650  -31.6340 C   0  0  0  0  0  0  0  0  0  0  0  0
   -6.2190   22.3380  -31.7170 C   0  0  0  0  0  0  0  0  0  0  0  0
   -5.7570   23.5300  -31.0490 N   0  0  0  0  0  0  0  0  0  0  0  0
   -6.0130   23.9310  -29.7890 C   0  0  0  0  0  0  0  0  0  0  0  0
   -5.3980   25.1050  -29.5730 N   0  0  0  0  0  0  0  0  0  0  0  0
   -4.7740   25.4180  -30.6960 N   0  0  0  0  0  0  0  0  0  0  0  0
   -4.9910   24.4650  -31.5910 N   0  0  0  0  0  0  0  0  0  0  0  0
   -2.3346   20.6386  -32.3718 H   0  0  0  0  0  0  0  0  0  0  0  0
   -3.4155   20.3358  -33.7742 H   0  0  0  0  0  0  0  0  0  0  0  0
   -2.3221   21.7610  -33.7742 H   0  0  0  0  0  0  0  0  0  0  0  0
   -5.1210   19.7495  -33.6891 H   0  0  0  0  0  0  0  0  0  0  0  0
   -7.5184   19.1108  -33.5114 H   0  0  0  0  0  0  0  0  0  0  0  0
   -9.7557   20.3467  -31.0984 H   0  0  0  0  0  0  0  0  0  0  0  0
  -10.1245   21.1763  -32.6484 H   0  0  0  0  0  0  0  0  0  0  0  0
   -9.6426   19.4459  -32.6484 H   0  0  0  0  0  0  0  0  0  0  0  0
   -8.2714   22.5799  -31.0450 H   0  0  0  0  0  0  0  0  0  0  0  0
   -6.6260   23.3857  -29.0563 H   0  0  0  0  0  0  0  0  0  0  0  0
   -5.3960   25.6750  -28.6980 H   0  0  0  0  0  0  0  0  0  0  0  0
  1  2  1  0
  2  3  1  0
  3  4  2  0
  4  5  1  0
  5  6  2  0
  6  7  1  0
  6  8  1  0
  8  9  2  0
  9 10  1  0
 10 11  1  0
 11 12  2  0
 12 13  1  0
 13 14  2  0
  9  3  1  0
 14 10  1  0
  1 15  1  0
  1 16  1  0
  1 17  1  0
  4 18  1  0
  5 19  1  0
  7 20  1  0
  7 21  1  0
  7 22  1  0
  8 23  1  0
 11 24  1  0
 12 25  1  0
M  CHG  1  12   1
M  END
>  <UniqueID>  (28) 
24

>  <SMILES>  (28) 
COc1ccc(C)cc1-n1c[nH+]nn1

>  <Energy>  (28) 
68.44169867615769

>  <Genealogy>  (28) 
COc1ccc(C)cc1-n1c[nH+]nn1 (protonated)
COc1ccc(C)cc1-n1c[nH+]nn1 (3D coordinates assigned)
COc1ccc(C)cc1-n1c[nH+]nn1 (optimized conformer: 68.44169867615769 kcal/mol)

>  <smiles>  (28) 
COc1ccc(C)cc1-n1cnnn1

>  <score_type>  (28) 
oracle

>  <origin>  (28) 
adg

>  <m_score__min__energy>  (28) 
-5.7699999999999996

>  <m_primary>  (28) 
energy

$$$$
28:0
     RDKit          3D

 44 46  0  0  0  0  0  0  0  0999 V2000
   -7.1500   18.3310  -31.6340 C   0  0  0  0  0  0  0  0  0  0  0  0
   -7.1680   19.5020  -32.5260 N   0  0  0  0  0  0  0  0  0  0  0  0
   -6.5060   19.1550  -33.7970 C   0  0  0  0  0  0  0  0  0  0  0  0
   -8.5600   19.9460  -32.7550 C   0  0  0  0  0  0  0  0  0  0  0  0
   -9.0660   20.7820  -31.5690 C   0  0  0  0  0  0  0  0  0  0  0  0
   -8.6470   22.2540  -31.6770 C   0  0  0  0  0  0  0  0  0  0  0  0
   -7.2230   22.4140  -31.3860 N   0  0  0  0  0  0  0  0  0  0  0  0
   -6.7000   22.9490  -30.2650 C   0  0  0  0  0  0  0  0  0  0  0  0
   -5.3220   22.8530  -30.3390 C   0  0  0  0  0  0  0  0  0  0  0  0
   -4.3710   23.3940  -29.3520 C   0  0  0  0  0  0  0  0  0  0  0  0
   -4.2310   22.9900  -28.0260 C   0  0  0  0  0  0  0  0  0  0  0  0
   -3.2030   23.6550  -27.3490 C   0  0  0  0  0  0  0  0  0  0  0  0
   -2.5280   24.5680  -28.1450 C   0  0  0  0  0  0  0  0  0  0  0  0
   -1.1780   25.5630  -27.6420 Cl  0  0  0  0  0  0  0  0  0  0  0  0
   -3.1940   24.5520  -29.6860 S   0  0  0  0  0  0  0  0  0  0  0  0
   -5.0680   22.2130  -31.5520 C   0  0  0  0  0  0  0  0  0  0  0  0
   -3.7720   21.7440  -32.0800 C   0  0  0  0  0  0  0  0  0  0  0  0
   -2.6040   21.8360  -31.3030 C   0  0  0  0  0  0  0  0  0  0  0  0
   -1.3850   21.3690  -31.8050 C   0  0  0  0  0  0  0  0  0  0  0  0
   -1.3260   20.7930  -33.0780 C   0  0  0  0  0  0  0  0  0  0  0  0
    0.2040   20.2050  -33.7050 Cl  0  0  0  0  0  0  0  0  0  0  0  0
   -2.4870   20.6780  -33.8470 C   0  0  0  0  0  0  0  0  0  0  0  0
   -3.7070   21.1460  -33.3480 C   0  0  0  0  0  0  0  0  0  0  0  0
   -6.2460   21.9690  -32.1600 N   0  0  0  0  0  0  0  0  0  0  0  0
   -7.1552   18.6677  -30.5868 H   0  0  0  0  0  0  0  0  0  0  0  0
   -8.0387   17.7114  -31.8243 H   0  0  0  0  0  0  0  0  0  0  0  0
   -6.2426   17.7390  -31.8243 H   0  0  0  0  0  0  0  0  0  0  0  0
   -5.5496   18.6537  -33.5874 H   0  0  0  0  0  0  0  0  0  0  0  0
   -7.1542   18.4807  -34.3759 H   0  0  0  0  0  0  0  0  0  0  0  0
   -6.3203   20.0717  -34.3759 H   0  0  0  0  0  0  0  0  0  0  0  0
   -8.5985   20.5563  -33.6694 H   0  0  0  0  0  0  0  0  0  0  0  0
   -9.2012   19.0585  -32.8610 H   0  0  0  0  0  0  0  0  0  0  0  0
  -10.1643   20.7275  -31.5401 H   0  0  0  0  0  0  0  0  0  0  0  0
   -8.6205   20.3705  -30.6513 H   0  0  0  0  0  0  0  0  0  0  0  0
   -8.8484   22.6118  -32.6975 H   0  0  0  0  0  0  0  0  0  0  0  0
   -9.2232   22.8380  -30.9442 H   0  0  0  0  0  0  0  0  0  0  0  0
   -7.2713   23.3871  -29.4333 H   0  0  0  0  0  0  0  0  0  0  0  0
   -4.8661   22.2237  -27.5576 H   0  0  0  0  0  0  0  0  0  0  0  0
   -2.9554   23.4722  -26.2929 H   0  0  0  0  0  0  0  0  0  0  0  0
   -2.6490   22.2770  -30.2963 H   0  0  0  0  0  0  0  0  0  0  0  0
   -0.4717   21.4548  -31.1979 H   0  0  0  0  0  0  0  0  0  0  0  0
   -2.4415   20.2190  -34.8456 H   0  0  0  0  0  0  0  0  0  0  0  0
   -4.6203   21.0448  -33.9526 H   0  0  0  0  0  0  0  0  0  0  0  0
   -6.3860   21.4660  -33.0640 H   0  0  0  0  0  0  0  0  0  0  0  0
  1  2  1  0
  2  3  1  0
  2  4  1  0
  4  5  1  0
  5  6  1  0
  6  7  1  0
  7  8  1  0
  8  9  2  0
  9 10  1  0
 10 11  2  0
 11 12  1  0
 12 13  2  0
 13 14  1  0
 13 15  1  0
  9 16  1  0
 16 17  1  0
 17 18  2  0
 18 19  1  0
 19 20  2  0
 20 21  1  0
 20 22  1  0
 22 23  2  0
 16 24  2  0
 24  7  1  0
 15 10  1  0
 23 17  1  0
  1 25  1  0
  1 26  1  0
  1 27  1  0
  3 28  1  0
  3 29  1  0
  3 30  1  0
  4 31  1  0
  4 32  1  0
  5 33  1  0
  5 34  1  0
  6 35  1  0
  6 36  1  0
  8 37  1  0
 11 38  1  0
 12 39  1  0
 18 40  1  0
 19 41  1  0
 22 42  1  0
 23 43  1  0
 24 44  1  0
M  CHG  1  24   1
M  END
>  <UniqueID>  (29) 
25

>  <SMILES>  (29) 
CN(C)CCCn1cc(-c2ccc(Cl)s2)c(-c2ccc(Cl)cc2)[nH+]1

>  <Energy>  (29) 
104.23550864593314

>  <Genealogy>  (29) 
CN(C)CCCn1cc(-c2ccc(Cl)s2)c(-c2ccc(Cl)cc2)[nH+]1 (protonated)
CN(C)CCCn1cc(-c2ccc(Cl)s2)c(-c2ccc(Cl)cc2)[nH+]1 (3D coordinates assigned)
CN(C)CCCn1cc(-c2ccc(Cl)s2)c(-c2ccc(Cl)cc2)[nH+]1 (optimized conformer: 104.23550864593314 kcal/mol)

>  <smiles>  (29) 
CN(C)CCCn1cc(-c2ccc(Cl)s2)c(-c2ccc(Cl)cc2)n1

>  <score_type>  (29) 
oracle

>  <origin>  (29) 
adg

>  <m_score__min__energy>  (29) 
-7.79

>  <m_primary>  (29) 
energy

$$$$
29:0
     RDKit          3D

 43 45  0  0  0  0  0  0  0  0999 V2000
   -8.7200   19.0620  -31.7720 C   0  0  0  0  0  0  0  0  0  0  0  0
   -7.2160   18.7890  -31.9190 C   0  0  1  0  0  0  0  0  0  0  0  0
   -6.9860   17.3810  -32.5210 C   0  0  0  0  0  0  0  0  0  0  0  0
   -5.7410   17.3580  -33.3050 N   0  0  0  0  0  0  0  0  0  0  0  0
   -4.7040   16.3990  -33.0240 C   0  0  0  0  0  0  0  0  0  0  0  0
   -3.3700   16.6670  -33.3790 C   0  0  0  0  0  0  0  0  0  0  0  0
   -2.3660   15.7300  -33.1200 C   0  0  0  0  0  0  0  0  0  0  0  0
   -2.6830   14.5110  -32.5080 C   0  0  0  0  0  0  0  0  0  0  0  0
   -1.6480   13.5470  -32.2410 C   0  0  0  0  0  0  0  0  0  0  0  0
   -0.8170   12.7720  -32.0260 N   0  0  0  0  0  0  0  0  0  0  0  0
   -4.0100   14.2330  -32.1590 C   0  0  0  0  0  0  0  0  0  0  0  0
   -5.0160   15.1680  -32.4190 C   0  0  0  0  0  0  0  0  0  0  0  0
   -5.5730   18.3250  -34.4040 C   0  0  0  0  0  0  0  0  0  0  0  0
   -6.4780   19.5480  -34.1960 C   0  0  0  0  0  0  0  0  0  0  0  0
   -6.5830   19.8290  -32.7570 N   0  0  0  0  0  0  0  0  0  0  0  0
   -5.8210   20.9050  -32.1460 C   0  0  0  0  0  0  0  0  0  0  0  0
   -6.3630   22.2010  -32.0450 C   0  0  0  0  0  0  0  0  0  0  0  0
   -5.6370   23.2370  -31.4510 C   0  0  0  0  0  0  0  0  0  0  0  0
   -4.3530   23.0050  -30.9330 C   0  0  0  0  0  0  0  0  0  0  0  0
   -3.5820   24.1020  -30.3010 C   0  0  0  0  0  0  0  0  0  0  0  0
   -3.9620   25.4630  -30.4990 N   0  0  0  0  0  0  0  0  0  0  0  0
   -2.5800   23.8430  -29.5810 O   0  0  0  0  0  0  0  0  0  0  0  0
   -3.8120   21.7120  -31.0190 C   0  0  0  0  0  0  0  0  0  0  0  0
   -4.5370   20.6750  -31.6140 C   0  0  0  0  0  0  0  0  0  0  0  0
   -8.9814   19.1095  -30.7046 H   0  0  0  0  0  0  0  0  0  0  0  0
   -8.9676   20.0198  -32.2531 H   0  0  0  0  0  0  0  0  0  0  0  0
   -9.2884   18.2523  -32.2531 H   0  0  0  0  0  0  0  0  0  0  0  0
   -6.7498   18.8213  -30.9232 H   0  0  0  0  0  0  0  0  0  0  0  0
   -6.9155   16.6451  -31.7064 H   0  0  0  0  0  0  0  0  0  0  0  0
   -7.8296   17.1321  -33.1817 H   0  0  0  0  0  0  0  0  0  0  0  0
   -3.1150   17.6208  -33.8640 H   0  0  0  0  0  0  0  0  0  0  0  0
   -1.3246   15.9505  -33.3974 H   0  0  0  0  0  0  0  0  0  0  0  0
   -4.2617   13.2759  -31.6788 H   0  0  0  0  0  0  0  0  0  0  0  0
   -6.0576   14.9399  -32.1489 H   0  0  0  0  0  0  0  0  0  0  0  0
   -4.5239   18.6540  -34.4379 H   0  0  0  0  0  0  0  0  0  0  0  0
   -5.8513   17.8366  -35.3495 H   0  0  0  0  0  0  0  0  0  0  0  0
   -6.0451   20.4184  -34.7107 H   0  0  0  0  0  0  0  0  0  0  0  0
   -7.4774   19.3440  -34.6078 H   0  0  0  0  0  0  0  0  0  0  0  0
   -7.3706   22.4003  -32.4387 H   0  0  0  0  0  0  0  0  0  0  0  0
   -6.0758   24.2438  -31.3888 H   0  0  0  0  0  0  0  0  0  0  0  0
   -3.5180   26.0420  -31.2460 H   0  0  0  0  0  0  0  0  0  0  0  0
   -2.8086   21.5131  -30.6145 H   0  0  0  0  0  0  0  0  0  0  0  0
   -4.0994   19.6672  -31.6673 H   0  0  0  0  0  0  0  0  0  0  0  0
  1  2  1  0
  2  3  1  0
  3  4  1  0
  4  5  1  0
  5  6  2  0
  6  7  1  0
  7  8  2  0
  8  9  1  0
  9 10  3  0
  8 11  1  0
 11 12  2  0
  4 13  1  0
 13 14  1  0
 14 15  1  0
 15 16  1  0
 16 17  2  0
 17 18  1  0
 18 19  2  0
 19 20  1  0
 20 21  1  0
 20 22  2  0
 19 23  1  0
 23 24  2  0
 15  2  1  0
 24 16  1  0
 12  5  1  0
  1 25  1  0
  1 26  1  0
  1 27  1  0
  2 28  1  1
  3 29  1  0
  3 30  1  0
  6 31  1  0
  7 32  1  0
 11 33  1  0
 12 34  1  0
 13 35  1  0
 13 36  1  0
 14 37  1  0
 14 38  1  0
 17 39  1  0
 18 40  1  0
 21 41  1  0
 23 42  1  0
 24 43  1  0
M  CHG  1  21  -1
M  END
>  <UniqueID>  (30) 
26

>  <SMILES>  (30) 
C[C@H]1CN(c2ccc(C#N)cc2)CCN1c1ccc(C([NH-])=O)cc1

>  <Energy>  (30) 
54.412857703893025

>  <Genealogy>  (30) 
CC1CN(c2ccc(C#N)cc2)CCN1c1ccc(C([NH-])=O)cc1 (protonated)
C[C@H]1CN(c2ccc(C#N)cc2)CCN1c1ccc(C([NH-])=O)cc1 (chirality)
C[C@H]1CN(c2ccc(C#N)cc2)CCN1c1ccc(C([NH-])=O)cc1 (3D coordinates assigned)
C[C@H]1CN(c2ccc(C#N)cc2)CCN1c1ccc(C([NH-])=O)cc1 (nonaromatic ring conformer: 54.412857703893025 kcal/mol)

>  <smiles>  (30) 
CC1CN(c2ccc(C#N)cc2)CCN1c1ccc(C(N)=O)cc1

>  <score_type>  (30) 
oracle

>  <origin>  (30) 
adg

>  <m_score__min__energy>  (30) 
-10.119999999999999

>  <m_primary>  (30) 
energy

$$$$
30:0
     RDKit          3D

 50 54  0  0  0  0  0  0  0  0999 V2000
   -1.9590   16.7090  -34.6940 O   0  0  0  0  0  0  0  0  0  0  0  0
   -2.6830   17.7160  -34.4710 C   0  0  0  0  0  0  0  0  0  0  0  0
   -4.0450   17.6940  -34.9220 N   0  0  0  0  0  0  0  0  0  0  0  0
   -5.2090   17.9580  -34.1240 C   0  0  0  0  0  0  0  0  0  0  0  0
   -6.0910   16.9060  -33.8500 C   0  0  0  0  0  0  0  0  0  0  0  0
   -7.2300   17.1270  -33.0740 C   0  0  0  0  0  0  0  0  0  0  0  0
   -7.5060   18.4030  -32.5770 C   0  0  0  0  0  0  0  0  0  0  0  0
   -6.6510   19.4790  -32.8700 C   0  0  0  0  0  0  0  0  0  0  0  0
   -6.9360   20.8320  -32.3370 C   0  0  0  0  0  0  0  0  0  0  0  0
   -8.2610   21.2600  -32.1230 C   0  0  0  0  0  0  0  0  0  0  0  0
   -8.4880   22.5440  -31.5910 C   0  0  0  0  0  0  0  0  0  0  0  0
   -7.4420   23.3650  -31.2920 N   0  0  0  0  0  0  0  0  0  0  0  0
   -6.1810   22.9210  -31.5150 C   0  0  0  0  0  0  0  0  0  0  0  0
   -4.9910   23.5820  -31.3140 C   0  0  0  0  0  0  0  0  0  0  0  0
   -4.7680   24.9330  -30.7780 C   0  0  0  0  0  0  0  0  0  0  0  0
   -5.6940   25.7860  -30.8390 O   0  0  0  0  0  0  0  0  0  0  0  0
   -3.5200   25.2530  -30.1490 N   0  0  0  0  0  0  0  0  0  0  0  0
   -2.7650   24.4140  -29.2650 C   0  0  0  0  0  0  0  0  0  0  0  0
   -1.3670   24.5080  -29.2810 C   0  0  0  0  0  0  0  0  0  0  0  0
   -0.5940   23.7250  -28.4190 C   0  0  0  0  0  0  0  0  0  0  0  0
   -1.2150   22.8520  -27.5210 C   0  0  0  0  0  0  0  0  0  0  0  0
   -2.6080   22.7690  -27.4790 C   0  0  0  0  0  0  0  0  0  0  0  0
   -3.3850   23.5500  -28.3420 C   0  0  0  0  0  0  0  0  0  0  0  0
   -4.0320   22.6700  -31.7420 C   0  0  0  0  0  0  0  0  0  0  0  0
   -4.6350   21.5340  -32.1730 N   0  0  0  0  0  0  0  0  0  0  0  0
   -5.9390   21.7040  -32.0190 N   0  0  0  0  0  0  0  0  0  0  0  0
   -5.5060   19.2490  -33.6530 C   0  0  0  0  0  0  0  0  0  0  0  0
   -2.1270   18.8550  -33.7030 C   0  0  0  0  0  0  0  0  0  0  0  0
   -2.2590   20.1670  -34.1900 C   0  0  0  0  0  0  0  0  0  0  0  0
   -1.7230   21.2430  -33.4790 C   0  0  0  0  0  0  0  0  0  0  0  0
   -1.0590   21.0240  -32.2700 C   0  0  0  0  0  0  0  0  0  0  0  0
   -0.9310   19.7260  -31.7670 C   0  0  0  0  0  0  0  0  0  0  0  0
   -0.0900   19.4630  -30.2490 Cl  0  0  0  0  0  0  0  0  0  0  0  0
   -1.4670   18.6410  -32.4770 C   0  0  0  0  0  0  0  0  0  0  0  0
   -1.3140   17.3840  -31.9880 F   0  0  0  0  0  0  0  0  0  0  0  0
   -5.8856   15.9012  -34.2478 H   0  0  0  0  0  0  0  0  0  0  0  0
   -7.9128   16.2933  -32.8530 H   0  0  0  0  0  0  0  0  0  0  0  0
   -8.3971   18.5663  -31.9531 H   0  0  0  0  0  0  0  0  0  0  0  0
   -9.1065   20.6004  -32.3680 H   0  0  0  0  0  0  0  0  0  0  0  0
   -9.5182   22.8872  -31.4153 H   0  0  0  0  0  0  0  0  0  0  0  0
   -0.8744   25.2030  -29.9769 H   0  0  0  0  0  0  0  0  0  0  0  0
    0.5034   23.7958  -28.4472 H   0  0  0  0  0  0  0  0  0  0  0  0
   -0.6063   22.2306  -26.8477 H   0  0  0  0  0  0  0  0  0  0  0  0
   -3.0959   22.0882  -26.7660 H   0  0  0  0  0  0  0  0  0  0  0  0
   -4.4825   23.4888  -28.2992 H   0  0  0  0  0  0  0  0  0  0  0  0
   -2.9459   22.8441  -31.7324 H   0  0  0  0  0  0  0  0  0  0  0  0
   -4.8367   20.0865  -33.8992 H   0  0  0  0  0  0  0  0  0  0  0  0
   -2.7880   20.3474  -35.1374 H   0  0  0  0  0  0  0  0  0  0  0  0
   -1.8241   22.2654  -33.8722 H   0  0  0  0  0  0  0  0  0  0  0  0
   -0.6365   21.8734  -31.7132 H   0  0  0  0  0  0  0  0  0  0  0  0
  1  2  2  0
  2  3  1  0
  3  4  1  0
  4  5  2  0
  5  6  1  0
  6  7  2  0
  7  8  1  0
  8  9  1  0
  9 10  2  0
 10 11  1  0
 11 12  2  0
 12 13  1  0
 13 14  2  0
 14 15  1  0
 15 16  2  0
 15 17  1  0
 17 18  1  0
 18 19  2  0
 19 20  1  0
 20 21  2  0
 21 22  1  0
 22 23  2  0
 14 24  1  0
 24 25  2  0
 25 26  1  0
  8 27  2  0
  2 28  1  0
 28 29  2  0
 29 30  1  0
 30 31  2  0
 31 32  1  0
 32 33  1  0
 32 34  2  0
 34 35  1  0
 27  4  1  0
 34 28  1  0
 26  9  1  0
 26 13  1  0
 23 18  1  0
  5 36  1  0
  6 37  1  0
  7 38  1  0
 10 39  1  0
 11 40  1  0
 19 41  1  0
 20 42  1  0
 21 43  1  0
 22 44  1  0
 23 45  1  0
 24 46  1  0
 27 47  1  0
 29 48  1  0
 30 49  1  0
 31 50  1  0
M  CHG  2   3  -1  17  -1
M  END
>  <UniqueID>  (31) 
27

>  <SMILES>  (31) 
O=C([N-]c1cccc(-c2ccnc3c(C(=O)[N-]c4ccccc4)cnn23)c1)c1cccc(Cl)c1F

>  <Energy>  (31) 
110.49397631401933

>  <Genealogy>  (31) 
O=C([N-]c1cccc(-c2ccnc3c(C(=O)[N-]c4ccccc4)cnn23)c1)c1cccc(Cl)c1F (protonated)
O=C([N-]c1cccc(-c2ccnc3c(C(=O)[N-]c4ccccc4)cnn23)c1)c1cccc(Cl)c1F (3D coordinates assigned)
O=C([N-]c1cccc(-c2ccnc3c(C(=O)[N-]c4ccccc4)cnn23)c1)c1cccc(Cl)c1F (optimized conformer: 110.49397631401933 kcal/mol)

>  <smiles>  (31) 
O=C(Nc1cccc(-c2ccnc3c(C(=O)Nc4ccccc4)cnn23)c1)c1cccc(Cl)c1F

>  <score_type>  (31) 
oracle

>  <origin>  (31) 
adg

>  <m_score__min__energy>  (31) 
-11.859999999999999

>  <m_primary>  (31) 
energy

$$$$
31:0
     RDKit          3D

 47 49  0  0  0  0  0  0  0  0999 V2000
   -6.7840   25.6480  -29.3610 C   0  0  0  0  0  0  0  0  0  0  0  0
   -6.3400   24.3200  -29.8140 N   0  0  1  0  0  0  0  0  0  0  0  0
   -6.7800   24.0700  -31.2070 C   0  0  0  0  0  0  0  0  0  0  0  0
   -7.2040   22.6350  -31.4320 C   0  0  0  0  0  0  0  0  0  0  0  0
   -8.4430   22.1800  -30.9510 C   0  0  0  0  0  0  0  0  0  0  0  0
   -8.8490   20.8600  -31.1660 C   0  0  0  0  0  0  0  0  0  0  0  0
   -8.0240   19.9760  -31.8730 C   0  0  0  0  0  0  0  0  0  0  0  0
   -8.4190   18.6470  -32.0920 C   0  0  0  0  0  0  0  0  0  0  0  0
   -7.5890   17.7750  -32.8030 C   0  0  0  0  0  0  0  0  0  0  0  0
   -6.3620   18.2220  -33.3000 C   0  0  0  0  0  0  0  0  0  0  0  0
   -5.9560   19.5420  -33.0900 C   0  0  0  0  0  0  0  0  0  0  0  0
   -6.7800   20.4280  -32.3770 C   0  0  0  0  0  0  0  0  0  0  0  0
   -6.3830   21.7560  -32.1590 C   0  0  0  0  0  0  0  0  0  0  0  0
   -4.6030   24.1710  -29.6110 S   0  0  0  0  0  0  0  0  0  0  0  0
   -4.1870   22.8320  -30.1510 O   0  0  0  0  0  0  0  0  0  0  0  0
   -3.8850   25.2300  -30.3970 O   0  0  0  0  0  0  0  0  0  0  0  0
   -4.0480   24.2440  -27.9040 C   0  0  0  0  0  0  0  0  0  0  0  0
   -2.6040   23.7690  -27.7340 C   0  0  0  0  0  0  0  0  0  0  0  0
   -1.8040   24.8090  -27.0890 N   0  0  0  0  0  0  0  0  0  0  0  0
   -1.6550   24.9580  -25.6520 C   0  0  0  0  0  0  0  0  0  0  0  0
   -0.7460   26.1860  -25.4460 C   0  0  0  0  0  0  0  0  0  0  0  0
   -0.5510   26.8490  -26.8190 C   0  0  0  0  0  0  0  0  0  0  0  0
   -1.2010   25.9050  -27.7480 C   0  0  0  0  0  0  0  0  0  0  0  0
   -1.2370   26.0640  -28.9970 O   0  0  0  0  0  0  0  0  0  0  0  0
   -6.7934   25.6761  -28.2614 H   0  0  0  0  0  0  0  0  0  0  0  0
   -6.0934   26.4150  -29.7415 H   0  0  0  0  0  0  0  0  0  0  0  0
   -7.7970   25.8455  -29.7415 H   0  0  0  0  0  0  0  0  0  0  0  0
   -6.7860   23.6200  -29.1760 H   0  0  0  0  0  0  0  0  0  0  0  0
   -7.6318   24.7289  -31.4315 H   0  0  0  0  0  0  0  0  0  0  0  0
   -5.9255   24.2738  -31.8691 H   0  0  0  0  0  0  0  0  0  0  0  0
   -9.0998   22.8691  -30.3999 H   0  0  0  0  0  0  0  0  0  0  0  0
   -9.8190   20.5145  -30.7790 H   0  0  0  0  0  0  0  0  0  0  0  0
   -9.3843   18.2906  -31.7031 H   0  0  0  0  0  0  0  0  0  0  0  0
   -7.9028   16.7343  -32.9716 H   0  0  0  0  0  0  0  0  0  0  0  0
   -5.7131   17.5317  -33.8589 H   0  0  0  0  0  0  0  0  0  0  0  0
   -4.9890   19.8882  -33.4839 H   0  0  0  0  0  0  0  0  0  0  0  0
   -5.4224   22.1117  -32.5599 H   0  0  0  0  0  0  0  0  0  0  0  0
   -4.1201   25.2844  -27.5543 H   0  0  0  0  0  0  0  0  0  0  0  0
   -4.6909   23.5727  -27.3157 H   0  0  0  0  0  0  0  0  0  0  0  0
   -2.5906   22.8618  -27.1120 H   0  0  0  0  0  0  0  0  0  0  0  0
   -2.1785   23.5509  -28.7246 H   0  0  0  0  0  0  0  0  0  0  0  0
   -2.6351   25.1242  -25.1810 H   0  0  0  0  0  0  0  0  0  0  0  0
   -1.2235   24.0552  -25.1952 H   0  0  0  0  0  0  0  0  0  0  0  0
   -1.2217   26.8936  -24.7510 H   0  0  0  0  0  0  0  0  0  0  0  0
    0.2221   25.8854  -25.0188 H   0  0  0  0  0  0  0  0  0  0  0  0
   -1.0387   27.8344  -26.8535 H   0  0  0  0  0  0  0  0  0  0  0  0
    0.5061   27.0324  -27.0619 H   0  0  0  0  0  0  0  0  0  0  0  0
  1  2  1  0
  2  3  1  0
  3  4  1  0
  4  5  2  0
  5  6  1  0
  6  7  2  0
  7  8  1  0
  8  9  2  0
  9 10  1  0
 10 11  2  0
 11 12  1  0
 12 13  2  0
  2 14  1  0
 14 15  2  0
 14 16  2  0
 14 17  1  0
 17 18  1  0
 18 19  1  0
 19 20  1  0
 20 21  1  0
 21 22  1  0
 22 23  1  0
 23 24  2  0
 13  4  1  0
 23 19  1  0
 12  7  1  0
  1 25  1  0
  1 26  1  0
  1 27  1  0
  2 28  1  1
  3 29  1  0
  3 30  1  0
  5 31  1  0
  6 32  1  0
  8 33  1  0
  9 34  1  0
 10 35  1  0
 11 36  1  0
 13 37  1  0
 17 38  1  0
 17 39  1  0
 18 40  1  0
 18 41  1  0
 20 42  1  0
 20 43  1  0
 21 44  1  0
 21 45  1  0
 22 46  1  0
 22 47  1  0
M  CHG  1   2   1
M  END
>  <UniqueID>  (32) 
28

>  <SMILES>  (32) 
C[N@@H+](Cc1ccc2ccccc2c1)S(=O)(=O)CCN1CCCC1=O

>  <Energy>  (32) 
50.70906205290019

>  <Genealogy>  (32) 
C[NH+](Cc1ccc2ccccc2c1)S(=O)(=O)CCN1CCCC1=O (protonated)
C[N@@H+](Cc1ccc2ccccc2c1)S(=O)(=O)CCN1CCCC1=O (chirality)
C[N@@H+](Cc1ccc2ccccc2c1)S(=O)(=O)CCN1CCCC1=O (3D coordinates assigned)
C[N@@H+](Cc1ccc2ccccc2c1)S(=O)(=O)CCN1CCCC1=O (nonaromatic ring conformer: 50.70906205290019 kcal/mol)

>  <smiles>  (32) 
CN(Cc1ccc2ccccc2c1)S(=O)(=O)CCN1CCCC1=O

>  <score_type>  (32) 
oracle

>  <origin>  (32) 
adg

>  <m_score__min__energy>  (32) 
-9.6099999999999994

>  <m_primary>  (32) 
energy

$$$$
32:0
     RDKit          3D

 48 50  0  0  0  0  0  0  0  0999 V2000
   -3.8620   25.3080  -30.4840 O   0  0  0  0  0  0  0  0  0  0  0  0
   -4.9590   24.9620  -29.9660 C   0  0  0  0  0  0  0  0  0  0  0  0
   -6.2320   25.0880  -30.7620 C   0  0  0  0  0  0  0  0  0  0  0  0
   -6.4640   23.9510  -31.6790 N   0  0  0  0  0  0  0  0  0  0  0  0
   -7.8400   23.3980  -31.6230 C   0  0  0  0  0  0  0  0  0  0  0  0
   -7.8790   21.9990  -30.9850 C   0  0  0  0  0  0  0  0  0  0  0  0
   -7.0070   21.0280  -31.6960 N   0  0  0  0  0  0  0  0  0  0  0  0
   -7.7800   20.2060  -32.6540 C   0  0  0  0  0  0  0  0  0  0  0  0
   -6.9960   18.9880  -33.0750 C   0  0  0  0  0  0  0  0  0  0  0  0
   -6.1110   19.0560  -34.1600 C   0  0  0  0  0  0  0  0  0  0  0  0
   -5.4190   17.9140  -34.5680 C   0  0  0  0  0  0  0  0  0  0  0  0
   -5.6250   16.7110  -33.8880 C   0  0  0  0  0  0  0  0  0  0  0  0
   -6.4850   16.6600  -32.8370 N   0  0  0  0  0  0  0  0  0  0  0  0
   -7.1670   17.7580  -32.4190 C   0  0  0  0  0  0  0  0  0  0  0  0
   -5.8260   21.6560  -32.3450 C   0  0  0  0  0  0  0  0  0  0  0  0
   -5.3930   22.9320  -31.6190 C   0  0  0  0  0  0  0  0  0  0  0  0
   -4.9910   24.4410  -28.6310 N   0  0  0  0  0  0  0  0  0  0  0  0
   -3.7860   24.3720  -27.8050 C   0  0  0  0  0  0  0  0  0  0  0  0
   -2.7630   23.4680  -28.4400 C   0  0  0  0  0  0  0  0  0  0  0  0
   -3.1270   22.1870  -28.8900 C   0  0  0  0  0  0  0  0  0  0  0  0
   -2.1840   21.3700  -29.5260 C   0  0  0  0  0  0  0  0  0  0  0  0
   -0.8780   21.8300  -29.7250 C   0  0  0  0  0  0  0  0  0  0  0  0
   -0.5130   23.1080  -29.2920 C   0  0  0  0  0  0  0  0  0  0  0  0
   -1.4530   23.9290  -28.6580 C   0  0  0  0  0  0  0  0  0  0  0  0
   -7.0774   25.1492  -30.0609 H   0  0  0  0  0  0  0  0  0  0  0  0
   -6.1406   25.9924  -31.3814 H   0  0  0  0  0  0  0  0  0  0  0  0
   -8.4702   24.0760  -31.0287 H   0  0  0  0  0  0  0  0  0  0  0  0
   -8.2101   23.3087  -32.6550 H   0  0  0  0  0  0  0  0  0  0  0  0
   -7.5424   22.0774  -29.9407 H   0  0  0  0  0  0  0  0  0  0  0  0
   -8.9133   21.6300  -31.0483 H   0  0  0  0  0  0  0  0  0  0  0  0
   -8.7174   19.8836  -32.1771 H   0  0  0  0  0  0  0  0  0  0  0  0
   -7.9914   20.8131  -33.5466 H   0  0  0  0  0  0  0  0  0  0  0  0
   -5.9618   20.0085  -34.6896 H   0  0  0  0  0  0  0  0  0  0  0  0
   -4.7193   17.9609  -35.4155 H   0  0  0  0  0  0  0  0  0  0  0  0
   -5.0900   15.8033  -34.2040 H   0  0  0  0  0  0  0  0  0  0  0  0
   -7.8552   17.6835  -31.5642 H   0  0  0  0  0  0  0  0  0  0  0  0
   -4.9912   20.9398  -32.3356 H   0  0  0  0  0  0  0  0  0  0  0  0
   -6.1032   21.9247  -33.3750 H   0  0  0  0  0  0  0  0  0  0  0  0
   -5.1778   22.6945  -30.5667 H   0  0  0  0  0  0  0  0  0  0  0  0
   -4.4932   23.3323  -32.1090 H   0  0  0  0  0  0  0  0  0  0  0  0
   -5.9060   24.1210  -28.2370 H   0  0  0  0  0  0  0  0  0  0  0  0
   -3.3614   25.3812  -27.6991 H   0  0  0  0  0  0  0  0  0  0  0  0
   -4.0540   23.9680  -26.8176 H   0  0  0  0  0  0  0  0  0  0  0  0
   -4.1553   21.8253  -28.7422 H   0  0  0  0  0  0  0  0  0  0  0  0
   -2.4707   20.3651  -29.8696 H   0  0  0  0  0  0  0  0  0  0  0  0
   -0.1380   21.1858  -30.2224 H   0  0  0  0  0  0  0  0  0  0  0  0
    0.5141   23.4690  -29.4496 H   0  0  0  0  0  0  0  0  0  0  0  0
   -1.1655   24.9386  -28.3292 H   0  0  0  0  0  0  0  0  0  0  0  0
  1  2  2  0
  2  3  1  0
  3  4  1  0
  4  5  1  0
  5  6  1  0
  6  7  1  0
  7  8  1  0
  8  9  1  0
  9 10  2  0
 10 11  1  0
 11 12  2  0
 12 13  1  0
 13 14  2  0
  7 15  1  0
 15 16  1  0
  2 17  1  0
 17 18  1  0
 18 19  1  0
 19 20  2  0
 20 21  1  0
 21 22  2  0
 22 23  1  0
 23 24  2  0
 16  4  1  0
 24 19  1  0
 14  9  1  0
  3 25  1  0
  3 26  1  0
  5 27  1  0
  5 28  1  0
  6 29  1  0
  6 30  1  0
  8 31  1  0
  8 32  1  0
 10 33  1  0
 11 34  1  0
 12 35  1  0
 14 36  1  0
 15 37  1  0
 15 38  1  0
 16 39  1  0
 16 40  1  0
 17 41  1  0
 18 42  1  0
 18 43  1  0
 20 44  1  0
 21 45  1  0
 22 46  1  0
 23 47  1  0
 24 48  1  0
M  END
>  <UniqueID>  (33) 
29

>  <SMILES>  (33) 
O=C(CN1CCN(Cc2cccnc2)CC1)NCc1ccccc1

>  <Energy>  (33) 
61.83961881144157

>  <Genealogy>  (33) 
O=C(CN1CCN(Cc2cccnc2)CC1)NCc1ccccc1 (3D coordinates assigned)
O=C(CN1CCN(Cc2cccnc2)CC1)NCc1ccccc1 (nonaromatic ring conformer: 61.83961881144157 kcal/mol)

>  <smiles>  (33) 
O=C(CN1CCN(Cc2cccnc2)CC1)NCc1ccccc1

>  <score_type>  (33) 
oracle

>  <origin>  (33) 
adg

>  <m_score__min__energy>  (33) 
-9.0899999999999999

>  <m_primary>  (33) 
energy

$$$$
33:0
     RDKit          3D

 32 33  0  0  0  0  0  0  0  0999 V2000
   -5.2440   25.2950  -30.5360 C   0  0  0  0  0  0  0  0  0  0  0  0
   -6.6560   24.9260  -30.0850 C   0  0  0  0  0  0  0  0  0  0  0  0
   -6.9210   23.4230  -30.1920 C   0  0  0  0  0  0  0  0  0  0  0  0
   -8.0180   23.0490  -31.6110 S   0  0  0  0  0  0  0  0  0  0  0  0
   -6.9800   21.7410  -32.2750 C   0  0  0  0  0  0  0  0  0  0  0  0
   -5.8170   21.9640  -32.9040 N   0  0  0  0  0  0  0  0  0  0  0  0
   -5.3190   20.7950  -33.2700 N   0  0  0  0  0  0  0  0  0  0  0  0
   -6.1980   19.8550  -32.8580 C   0  0  0  0  0  0  0  0  0  0  0  0
   -5.9750   18.4140  -33.1150 C   0  0  0  0  0  0  0  0  0  0  0  0
   -5.7240   17.8700  -34.3710 C   0  0  0  0  0  0  0  0  0  0  0  0
   -5.5950   16.4750  -34.3660 C   0  0  0  0  0  0  0  0  0  0  0  0
   -5.7530   15.9050  -33.1100 C   0  0  0  0  0  0  0  0  0  0  0  0
   -6.0540   17.1410  -32.0140 S   0  0  0  0  0  0  0  0  0  0  0  0
   -7.2540   20.4220  -32.2130 N   0  0  0  0  0  0  0  0  0  0  0  0
   -8.4330   19.8050  -31.6010 C   0  0  0  0  0  0  0  0  0  0  0  0
   -9.4100   19.3390  -32.6750 C   0  0  0  0  0  0  0  0  0  0  0  0
   -4.6088   25.4610  -29.6534 H   0  0  0  0  0  0  0  0  0  0  0  0
   -4.8261   24.4759  -31.1397 H   0  0  0  0  0  0  0  0  0  0  0  0
   -5.2803   26.2138  -31.1397 H   0  0  0  0  0  0  0  0  0  0  0  0
   -6.7857   25.2352  -29.0373 H   0  0  0  0  0  0  0  0  0  0  0  0
   -7.3680   25.4429  -30.7452 H   0  0  0  0  0  0  0  0  0  0  0  0
   -5.9642   22.8979  -30.3289 H   0  0  0  0  0  0  0  0  0  0  0  0
   -7.4159   23.0878  -29.2686 H   0  0  0  0  0  0  0  0  0  0  0  0
   -5.3660   22.8880  -33.0860 H   0  0  0  0  0  0  0  0  0  0  0  0
   -5.6351   18.4787  -35.2829 H   0  0  0  0  0  0  0  0  0  0  0  0
   -5.3880   15.8866  -35.2721 H   0  0  0  0  0  0  0  0  0  0  0  0
   -5.6918   14.8323  -32.8743 H   0  0  0  0  0  0  0  0  0  0  0  0
   -8.1176   18.9402  -30.9988 H   0  0  0  0  0  0  0  0  0  0  0  0
   -8.9333   20.5488  -30.9635 H   0  0  0  0  0  0  0  0  0  0  0  0
  -10.3042   18.9125  -32.1971 H   0  0  0  0  0  0  0  0  0  0  0  0
   -9.7019   20.1948  -33.3014 H   0  0  0  0  0  0  0  0  0  0  0  0
   -8.9286   18.5735  -33.3014 H   0  0  0  0  0  0  0  0  0  0  0  0
  1  2  1  0
  2  3  1  0
  3  4  1  0
  4  5  1  0
  5  6  2  0
  6  7  1  0
  7  8  2  0
  8  9  1  0
  9 10  2  0
 10 11  1  0
 11 12  2  0
 12 13  1  0
  8 14  1  0
 14 15  1  0
 15 16  1  0
 14  5  1  0
 13  9  1  0
  1 17  1  0
  1 18  1  0
  1 19  1  0
  2 20  1  0
  2 21  1  0
  3 22  1  0
  3 23  1  0
  6 24  1  0
 10 25  1  0
 11 26  1  0
 12 27  1  0
 15 28  1  0
 15 29  1  0
 16 30  1  0
 16 31  1  0
 16 32  1  0
M  CHG  1   6   1
M  END
>  <UniqueID>  (34) 
30

>  <SMILES>  (34) 
CCCSc1[nH+]nc(-c2cccs2)n1CC

>  <Energy>  (34) 
85.47409617235851

>  <Genealogy>  (34) 
CCCSc1[nH+]nc(-c2cccs2)n1CC (protonated)
CCCSc1[nH+]nc(-c2cccs2)n1CC (3D coordinates assigned)
CCCSc1[nH+]nc(-c2cccs2)n1CC (optimized conformer: 85.47409617235851 kcal/mol)

>  <smiles>  (34) 
CCCSc1nnc(-c2cccs2)n1CC

>  <score_type>  (34) 
oracle

>  <origin>  (34) 
adg

>  <m_score__min__energy>  (34) 
-5.9900000000000002

>  <m_primary>  (34) 
energy

$$$$
34:0
     RDKit          3D

 30 33  0  0  0  0  0  0  0  0999 V2000
   -5.7360   18.1800  -34.7750 Br  0  0  0  0  0  0  0  0  0  0  0  0
   -5.8210   19.5330  -33.4320 C   0  0  0  0  0  0  0  0  0  0  0  0
   -7.0690   20.0970  -33.0780 C   0  0  0  0  0  0  0  0  0  0  0  0
   -7.1440   21.0960  -32.0880 C   0  0  0  0  0  0  0  0  0  0  0  0
   -8.8240   21.8660  -31.5980 Br  0  0  0  0  0  0  0  0  0  0  0  0
   -5.9540   21.4990  -31.4830 C   0  0  0  0  0  0  0  0  0  0  0  0
   -5.7860   22.4250  -30.5280 N   0  0  0  0  0  0  0  0  0  0  0  0
   -4.4420   22.4030  -30.3220 C   0  0  0  0  0  0  0  0  0  0  0  0
   -3.7660   23.2740  -29.3350 C   0  0  0  0  0  0  0  0  0  0  0  0
   -4.2570   23.3940  -28.0270 C   0  0  0  0  0  0  0  0  0  0  0  0
   -3.6100   24.2190  -27.1050 C   0  0  0  0  0  0  0  0  0  0  0  0
   -2.4620   24.9300  -27.4940 C   0  0  0  0  0  0  0  0  0  0  0  0
   -1.7590   25.7930  -26.5780 N   0  0  0  0  0  0  0  0  0  0  0  0
   -0.8630   26.7400  -26.9100 C   0  0  0  0  0  0  0  0  0  0  0  0
   -0.4230   27.3410  -25.7550 C   0  0  0  0  0  0  0  0  0  0  0  0
   -1.0350   26.7800  -24.6940 N   0  0  0  0  0  0  0  0  0  0  0  0
   -1.8430   25.8420  -25.2300 C   0  0  0  0  0  0  0  0  0  0  0  0
   -2.0040   24.7960  -28.7700 N   0  0  0  0  0  0  0  0  0  0  0  0
   -2.6170   23.9990  -29.6840 C   0  0  0  0  0  0  0  0  0  0  0  0
   -3.7720   21.5130  -31.1030 N   0  0  0  0  0  0  0  0  0  0  0  0
   -4.7550   20.9570  -31.8250 C   0  0  0  0  0  0  0  0  0  0  0  0
   -4.6400   19.9670  -32.7980 C   0  0  0  0  0  0  0  0  0  0  0  0
   -7.9862   19.7534  -33.5788 H   0  0  0  0  0  0  0  0  0  0  0  0
   -5.1558   22.8357  -27.7261 H   0  0  0  0  0  0  0  0  0  0  0  0
   -3.9968   24.3119  -26.0795 H   0  0  0  0  0  0  0  0  0  0  0  0
   -0.5383   26.9903  -27.9307 H   0  0  0  0  0  0  0  0  0  0  0  0
    0.3153   28.1549  -25.7046 H   0  0  0  0  0  0  0  0  0  0  0  0
   -2.4983   25.1887  -24.6352 H   0  0  0  0  0  0  0  0  0  0  0  0
   -2.2100   23.9219  -30.7030 H   0  0  0  0  0  0  0  0  0  0  0  0
   -3.6617   19.5391  -33.0621 H   0  0  0  0  0  0  0  0  0  0  0  0
  1  2  1  0
  2  3  2  0
  3  4  1  0
  4  5  1  0
  4  6  2  0
  6  7  1  0
  7  8  2  0
  8  9  1  0
  9 10  2  0
 10 11  1  0
 11 12  2  0
 12 13  1  0
 13 14  1  0
 14 15  2  0
 15 16  1  0
 16 17  2  0
 12 18  1  0
 18 19  2  0
  8 20  1  0
 20 21  1  0
 21 22  2  0
 22  2  1  0
 21  6  1  0
 19  9  1  0
 17 13  1  0
  3 23  1  0
 10 24  1  0
 11 25  1  0
 14 26  1  0
 15 27  1  0
 17 28  1  0
 19 29  1  0
 22 30  1  0
M  CHG  1  20  -1
M  END
>  <UniqueID>  (35) 
31

>  <SMILES>  (35) 
Brc1cc(Br)c2nc(-c3ccc(-n4ccnc4)nc3)[n-]c2c1

>  <Energy>  (35) 
101.72271310198627

>  <Genealogy>  (35) 
Brc1cc(Br)c2nc(-c3ccc(-n4ccnc4)nc3)[n-]c2c1 (protonated)
Brc1cc(Br)c2nc(-c3ccc(-n4ccnc4)nc3)[n-]c2c1 (3D coordinates assigned)
Brc1cc(Br)c2nc(-c3ccc(-n4ccnc4)nc3)[n-]c2c1 (optimized conformer: 101.72271310198627 kcal/mol)

>  <smiles>  (35) 
Brc1cc(Br)c2nc(-c3ccc(-n4ccnc4)nc3)[nH]c2c1

>  <score_type>  (35) 
oracle

>  <origin>  (35) 
adg

>  <m_score__min__energy>  (35) 
-7.6900000000000004

>  <m_primary>  (35) 
energy

$$$$
35:0
     RDKit          3D

 50 53  0  0  0  0  0  0  0  0999 V2000
   -2.2750   24.5910  -28.9170 C   0  0  0  0  0  0  0  0  0  0  0  0
   -3.2270   25.2720  -29.7270 O   0  0  0  0  0  0  0  0  0  0  0  0
   -4.4540   24.7280  -30.1340 C   0  0  0  0  0  0  0  0  0  0  0  0
   -5.6280   25.4110  -29.7940 C   0  0  0  0  0  0  0  0  0  0  0  0
   -6.8750   24.9110  -30.1740 C   0  0  0  0  0  0  0  0  0  0  0  0
   -6.9610   23.7220  -30.9000 C   0  0  0  0  0  0  0  0  0  0  0  0
   -5.7960   23.0220  -31.2560 C   0  0  0  0  0  0  0  0  0  0  0  0
   -5.8860   21.7880  -31.9940 N   0  0  0  0  0  0  0  0  0  0  0  0
   -4.6570   21.1270  -32.4540 C   0  0  0  0  0  0  0  0  0  0  0  0
   -4.9480   19.7580  -33.0850 C   0  0  0  0  0  0  0  0  0  0  0  0
   -5.9160   19.0080  -32.2670 N   0  0  0  0  0  0  0  0  0  0  0  0
   -5.7570   17.5980  -32.0000 C   0  0  0  0  0  0  0  0  0  0  0  0
   -6.3180   17.1000  -30.9850 O   0  0  0  0  0  0  0  0  0  0  0  0
   -4.9140   16.7050  -32.8950 C   0  0  1  0  0  0  0  0  0  0  0  0
   -4.9870   15.1910  -32.5920 C   0  0  0  0  0  0  0  0  0  0  0  0
   -5.4890   14.7670  -33.9730 C   0  0  1  0  0  0  0  0  0  0  0  0
   -6.6470   15.6980  -34.1920 C   0  0  0  0  0  0  0  0  0  0  0  0
   -5.4430   16.5930  -34.3310 C   0  0  2  0  0  0  0  0  0  0  0  0
   -4.6050   15.5170  -34.8670 N   0  0  0  0  0  0  0  0  0  0  0  0
   -3.3570   15.3560  -35.5380 C   0  0  0  0  0  0  0  0  0  0  0  0
   -3.0270   14.0590  -36.2000 C   0  0  0  0  0  0  0  0  0  0  0  0
   -2.5460   16.3180  -35.5910 O   0  0  0  0  0  0  0  0  0  0  0  0
   -7.1150   19.6860  -31.7470 C   0  0  0  0  0  0  0  0  0  0  0  0
   -7.1860   21.1420  -32.2120 C   0  0  0  0  0  0  0  0  0  0  0  0
   -4.5440   23.5280  -30.8670 C   0  0  0  0  0  0  0  0  0  0  0  0
   -2.5098   24.7589  -27.8555 H   0  0  0  0  0  0  0  0  0  0  0  0
   -2.3123   23.5134  -29.1348 H   0  0  0  0  0  0  0  0  0  0  0  0
   -1.2672   24.9744  -29.1348 H   0  0  0  0  0  0  0  0  0  0  0  0
   -5.5674   26.3491  -29.2229 H   0  0  0  0  0  0  0  0  0  0  0  0
   -7.7912   25.4550  -29.9008 H   0  0  0  0  0  0  0  0  0  0  0  0
   -7.9460   23.3310  -31.1949 H   0  0  0  0  0  0  0  0  0  0  0  0
   -4.1671   21.7672  -33.2025 H   0  0  0  0  0  0  0  0  0  0  0  0
   -4.0060   20.9699  -31.5813 H   0  0  0  0  0  0  0  0  0  0  0  0
   -5.3631   19.9050  -34.0930 H   0  0  0  0  0  0  0  0  0  0  0  0
   -4.0104   19.1855  -33.1406 H   0  0  0  0  0  0  0  0  0  0  0  0
   -3.9365   17.1849  -32.7393 H   0  0  0  0  0  0  0  0  0  0  0  0
   -4.0049   14.7600  -32.3475 H   0  0  0  0  0  0  0  0  0  0  0  0
   -5.5915   14.8843  -31.7257 H   0  0  0  0  0  0  0  0  0  0  0  0
   -5.6132   13.6799  -34.0860 H   0  0  0  0  0  0  0  0  0  0  0  0
   -7.2544   15.5351  -35.0945 H   0  0  0  0  0  0  0  0  0  0  0  0
   -7.5175   15.8468  -33.5362 H   0  0  0  0  0  0  0  0  0  0  0  0
   -5.5337   17.5626  -34.8426 H   0  0  0  0  0  0  0  0  0  0  0  0
   -2.8326   13.2949  -35.4330 H   0  0  0  0  0  0  0  0  0  0  0  0
   -3.8731   13.7418  -36.8274 H   0  0  0  0  0  0  0  0  0  0  0  0
   -2.1322   14.1848  -36.8274 H   0  0  0  0  0  0  0  0  0  0  0  0
   -8.0090   19.1535  -32.1037 H   0  0  0  0  0  0  0  0  0  0  0  0
   -7.0649   19.6782  -30.6482 H   0  0  0  0  0  0  0  0  0  0  0  0
   -7.4363   21.1734  -33.2827 H   0  0  0  0  0  0  0  0  0  0  0  0
   -7.9605   21.6730  -31.6392 H   0  0  0  0  0  0  0  0  0  0  0  0
   -3.6273   22.9831  -31.1368 H   0  0  0  0  0  0  0  0  0  0  0  0
  1  2  1  0
  2  3  1  0
  3  4  2  0
  4  5  1  0
  5  6  2  0
  6  7  1  0
  7  8  1  0
  8  9  1  0
  9 10  1  0
 10 11  1  0
 11 12  1  0
 12 13  2  0
 12 14  1  0
 14 15  1  0
 15 16  1  0
 16 17  1  0
 17 18  1  0
 18 19  1  0
 19 20  1  0
 20 21  1  0
 20 22  2  0
 11 23  1  0
 23 24  1  0
  7 25  2  0
 25  3  1  0
 24  8  1  0
 18 14  1  0
 19 16  1  0
  1 26  1  0
  1 27  1  0
  1 28  1  0
  4 29  1  0
  5 30  1  0
  6 31  1  0
  9 32  1  0
  9 33  1  0
 10 34  1  0
 10 35  1  0
 14 36  1  6
 15 37  1  0
 15 38  1  0
 16 39  1  6
 17 40  1  0
 17 41  1  0
 18 42  1  6
 21 43  1  0
 21 44  1  0
 21 45  1  0
 23 46  1  0
 23 47  1  0
 24 48  1  0
 24 49  1  0
 25 50  1  0
M  END
>  <UniqueID>  (36) 
32

>  <SMILES>  (36) 
COc1cccc(N2CCN(C(=O)[C@H]3C[C@H]4CC3N4C(C)=O)CC2)c1

>  <Energy>  (36) 
157.04291397727434

>  <Genealogy>  (36) 
COc1cccc(N2CCN(C(=O)[C@H]3C[C@H]4CC3N4C(C)=O)CC2)c1 (chirality)
COc1cccc(N2CCN(C(=O)[C@H]3C[C@H]4CC3N4C(C)=O)CC2)c1 (3D coordinates assigned)
COc1cccc(N2CCN(C(=O)[C@H]3C[C@H]4CC3N4C(C)=O)CC2)c1 (nonaromatic ring conformer: 157.04291397727434 kcal/mol)

>  <smiles>  (36) 
COc1cccc(N2CCN(C(=O)C3CC4CC3N4C(C)=O)CC2)c1

>  <score_type>  (36) 
oracle

>  <origin>  (36) 
adg

>  <m_score__min__energy>  (36) 
-8.2300000000000004

>  <m_primary>  (36) 
energy

$$$$
36:0
     RDKit          3D

 38 39  0  0  0  0  0  0  0  0999 V2000
   -4.9510   21.7680  -32.7050 C   0  0  0  0  0  0  0  0  0  0  0  0
   -5.9720   22.2280  -32.2600 C   0  0  0  0  0  0  0  0  0  0  0  0
   -7.2170   22.7880  -31.7170 C   0  0  0  0  0  0  0  0  0  0  0  0
   -6.9600   24.0770  -30.9280 C   0  0  0  0  0  0  0  0  0  0  0  0
   -5.5250   24.1980  -30.5060 C   0  0  0  0  0  0  0  0  0  0  0  0
   -4.7080   25.0350  -31.0430 N   0  0  0  0  0  0  0  0  0  0  0  0
   -3.4710   24.9070  -30.4690 O   0  0  0  0  0  0  0  0  0  0  0  0
   -3.4280   23.9040  -29.4610 C   0  0  1  0  0  0  0  0  0  0  0  0
   -2.4070   22.8170  -29.8580 C   0  0  0  0  0  0  0  0  0  0  0  0
   -1.1450   23.3860  -30.0990 O   0  0  0  0  0  0  0  0  0  0  0  0
   -3.0770   24.5530  -28.1070 C   0  0  0  0  0  0  0  0  0  0  0  0
   -1.9930   25.4740  -28.2370 O   0  0  0  0  0  0  0  0  0  0  0  0
   -0.7400   25.2980  -27.6330 C   0  0  0  0  0  0  0  0  0  0  0  0
    0.2120   24.7820  -28.2820 O   0  0  0  0  0  0  0  0  0  0  0  0
   -0.5370   25.7200  -26.2310 C   0  0  0  0  0  0  0  0  0  0  0  0
   -1.0430   26.9480  -25.7750 C   0  0  0  0  0  0  0  0  0  0  0  0
   -0.8430   27.3380  -24.4500 C   0  0  0  0  0  0  0  0  0  0  0  0
   -0.1380   26.4980  -23.5870 C   0  0  0  0  0  0  0  0  0  0  0  0
    0.3490   25.3110  -24.0360 N   0  0  0  0  0  0  0  0  0  0  0  0
    0.1680   24.9080  -25.3240 C   0  0  0  0  0  0  0  0  0  0  0  0
   -4.8810   23.3590  -29.4530 C   0  0  0  0  0  0  0  0  0  0  0  0
   -4.0190   21.3481  -33.1112 H   0  0  0  0  0  0  0  0  0  0  0  0
   -7.9014   23.0095  -32.5492 H   0  0  0  0  0  0  0  0  0  0  0  0
   -7.6569   22.0479  -31.0324 H   0  0  0  0  0  0  0  0  0  0  0  0
   -7.2185   24.9388  -31.5608 H   0  0  0  0  0  0  0  0  0  0  0  0
   -7.5812   24.0509  -30.0206 H   0  0  0  0  0  0  0  0  0  0  0  0
   -2.3231   22.0848  -29.0414 H   0  0  0  0  0  0  0  0  0  0  0  0
   -2.7545   22.3241  -30.7780 H   0  0  0  0  0  0  0  0  0  0  0  0
   -1.2230   24.3600  -29.9280 H   0  0  0  0  0  0  0  0  0  0  0  0
   -3.9592   25.0895  -27.7277 H   0  0  0  0  0  0  0  0  0  0  0  0
   -2.7746   23.7579  -27.4096 H   0  0  0  0  0  0  0  0  0  0  0  0
   -1.5976   27.6032  -26.4629 H   0  0  0  0  0  0  0  0  0  0  0  0
   -1.2377   28.2992  -24.0890 H   0  0  0  0  0  0  0  0  0  0  0  0
    0.0240   26.7971  -22.5409 H   0  0  0  0  0  0  0  0  0  0  0  0
    0.8740   24.6940  -23.3780 H   0  0  0  0  0  0  0  0  0  0  0  0
    0.5753   23.9420  -25.6572 H   0  0  0  0  0  0  0  0  0  0  0  0
   -4.9103   22.2916  -29.7173 H   0  0  0  0  0  0  0  0  0  0  0  0
   -5.3744   23.4178  -28.4716 H   0  0  0  0  0  0  0  0  0  0  0  0
  1  2  3  0
  2  3  1  0
  3  4  1  0
  4  5  1  0
  5  6  2  0
  6  7  1  0
  7  8  1  0
  8  9  1  6
  9 10  1  0
  8 11  1  0
 11 12  1  0
 12 13  1  0
 13 14  2  0
 13 15  1  0
 15 16  2  0
 16 17  1  0
 17 18  2  0
 18 19  1  0
 19 20  2  0
  8 21  1  0
 21  5  1  0
 20 15  1  0
  1 22  1  0
  3 23  1  0
  3 24  1  0
  4 25  1  0
  4 26  1  0
  9 27  1  0
  9 28  1  0
 10 29  1  0
 11 30  1  0
 11 31  1  0
 16 32  1  0
 17 33  1  0
 18 34  1  0
 19 35  1  0
 20 36  1  0
 21 37  1  0
 21 38  1  0
M  CHG  1  19   1
M  END
>  <UniqueID>  (37) 
33

>  <SMILES>  (37) 
C#CCCC1=NO[C@@](CO)(COC(=O)c2ccc[nH+]c2)C1

>  <Energy>  (37) 
43.980756190176535

>  <Genealogy>  (37) 
C#CCCC1=NOC(CO)(COC(=O)c2ccc[nH+]c2)C1 (protonated)
C#CCCC1=NO[C@@](CO)(COC(=O)c2ccc[nH+]c2)C1 (chirality)
C#CCCC1=NO[C@@](CO)(COC(=O)c2ccc[nH+]c2)C1 (3D coordinates assigned)
C#CCCC1=NO[C@@](CO)(COC(=O)c2ccc[nH+]c2)C1 (nonaromatic ring conformer: 43.980756190176535 kcal/mol)

>  <smiles>  (37) 
C#CCCC1=NOC(CO)(COC(=O)c2cccnc2)C1

>  <score_type>  (37) 
oracle

>  <origin>  (37) 
adg

>  <m_score__min__energy>  (37) 
-8.9299999999999997

>  <m_primary>  (37) 
energy

$$$$
37:0
     RDKit          3D

 43 45  0  0  0  0  0  0  0  0999 V2000
   -5.0870   18.1660  -34.1720 C   0  0  0  0  0  0  0  0  0  0  0  0
   -6.4340   18.0880  -33.5820 N   0  0  0  0  0  0  0  0  0  0  0  0
   -6.8550   16.6750  -33.5390 C   0  0  0  0  0  0  0  0  0  0  0  0
   -6.4900   18.6640  -32.2120 C   0  0  0  0  0  0  0  0  0  0  0  0
   -7.4540   19.8880  -31.9860 C   0  0  2  0  0  0  0  0  0  0  0  0
   -8.9340   19.6040  -32.3500 C   0  0  0  0  0  0  0  0  0  0  0  0
   -9.8080   20.8670  -32.3410 C   0  0  0  0  0  0  0  0  0  0  0  0
   -9.1970   21.9750  -31.4850 C   0  0  0  0  0  0  0  0  0  0  0  0
   -7.8690   22.3910  -31.9960 N   0  0  0  0  0  0  0  0  0  0  0  0
   -7.2170   23.3290  -31.0440 C   0  0  0  0  0  0  0  0  0  0  0  0
   -6.1310   22.6510  -30.2030 C   0  0  0  0  0  0  0  0  0  0  0  0
   -5.0960   22.1190  -31.1400 C   0  0  0  0  0  0  0  0  0  0  0  0
   -3.7260   22.2850  -30.8870 C   0  0  0  0  0  0  0  0  0  0  0  0
   -2.7890   21.9200  -31.8580 C   0  0  0  0  0  0  0  0  0  0  0  0
   -3.2170   21.4160  -33.0880 C   0  0  0  0  0  0  0  0  0  0  0  0
   -4.5810   21.2420  -33.3390 C   0  0  0  0  0  0  0  0  0  0  0  0
   -5.5280   21.5520  -32.3480 C   0  0  0  0  0  0  0  0  0  0  0  0
   -7.0150   21.2830  -32.5560 C   0  0  1  0  0  0  0  0  0  0  0  0
   -4.3368   18.2094  -33.3687 H   0  0  0  0  0  0  0  0  0  0  0  0
   -4.9071   17.2768  -34.7940 H   0  0  0  0  0  0  0  0  0  0  0  0
   -5.0109   19.0701  -34.7940 H   0  0  0  0  0  0  0  0  0  0  0  0
   -7.1180   18.5710  -34.2080 H   0  0  0  0  0  0  0  0  0  0  0  0
   -6.9510   16.3527  -32.4917 H   0  0  0  0  0  0  0  0  0  0  0  0
   -7.8247   16.5657  -34.0466 H   0  0  0  0  0  0  0  0  0  0  0  0
   -6.1032   16.0528  -34.0466 H   0  0  0  0  0  0  0  0  0  0  0  0
   -6.8068   17.8624  -31.5285 H   0  0  0  0  0  0  0  0  0  0  0  0
   -5.4803   19.0602  -32.0291 H   0  0  0  0  0  0  0  0  0  0  0  0
   -7.3619   19.9938  -30.8950 H   0  0  0  0  0  0  0  0  0  0  0  0
   -8.9686   19.1611  -33.3563 H   0  0  0  0  0  0  0  0  0  0  0  0
   -9.3351   18.9212  -31.5865 H   0  0  0  0  0  0  0  0  0  0  0  0
   -9.9154   21.2328  -33.3728 H   0  0  0  0  0  0  0  0  0  0  0  0
  -10.7853   20.6028  -31.9108 H   0  0  0  0  0  0  0  0  0  0  0  0
   -9.8707   22.8445  -31.4928 H   0  0  0  0  0  0  0  0  0  0  0  0
   -9.0664   21.5878  -30.4637 H   0  0  0  0  0  0  0  0  0  0  0  0
   -6.7594   24.1500  -31.6154 H   0  0  0  0  0  0  0  0  0  0  0  0
   -7.9913   23.6979  -30.3553 H   0  0  0  0  0  0  0  0  0  0  0  0
   -5.6762   23.3823  -29.5186 H   0  0  0  0  0  0  0  0  0  0  0  0
   -6.5617   21.8363  -29.6023 H   0  0  0  0  0  0  0  0  0  0  0  0
   -3.3898   22.7017  -29.9261 H   0  0  0  0  0  0  0  0  0  0  0  0
   -1.7139   22.0298  -31.6531 H   0  0  0  0  0  0  0  0  0  0  0  0
   -2.4791   21.1554  -33.8610 H   0  0  0  0  0  0  0  0  0  0  0  0
   -4.9143   20.8611  -34.3156 H   0  0  0  0  0  0  0  0  0  0  0  0
   -7.1753   21.2544  -33.6439 H   0  0  0  0  0  0  0  0  0  0  0  0
  1  2  1  0
  2  3  1  0
  2  4  1  0
  4  5  1  0
  5  6  1  0
  6  7  1  0
  7  8  1  0
  8  9  1  0
  9 10  1  0
 10 11  1  0
 11 12  1  0
 12 13  2  0
 13 14  1  0
 14 15  2  0
 15 16  1  0
 16 17  2  0
 17 18  1  0
 18  5  1  0
 18  9  1  0
 17 12  1  0
  1 19  1  0
  1 20  1  0
  1 21  1  0
  2 22  1  0
  3 23  1  0
  3 24  1  0
  3 25  1  0
  4 26  1  0
  4 27  1  0
  5 28  1  1
  6 29  1  0
  6 30  1  0
  7 31  1  0
  7 32  1  0
  8 33  1  0
  8 34  1  0
 10 35  1  0
 10 36  1  0
 11 37  1  0
 11 38  1  0
 13 39  1  0
 14 40  1  0
 15 41  1  0
 16 42  1  0
 18 43  1  6
M  CHG  1   2   1
M  END
>  <UniqueID>  (38) 
34

>  <SMILES>  (38) 
C[NH+](C)C[C@@H]1CCCN2CCc3ccccc3[C@@H]12

>  <Energy>  (38) 
71.80527869858135

>  <Genealogy>  (38) 
C[NH+](C)CC1CCCN2CCc3ccccc3C12 (protonated)
C[NH+](C)C[C@@H]1CCCN2CCc3ccccc3[C@@H]12 (chirality)
C[NH+](C)C[C@@H]1CCCN2CCc3ccccc3[C@@H]12 (3D coordinates assigned)
C[NH+](C)C[C@@H]1CCCN2CCc3ccccc3[C@@H]12 (nonaromatic ring conformer: 71.80527869858135 kcal/mol)

>  <smiles>  (38) 
CN(C)CC1CCCN2CCc3ccccc3C12

>  <score_type>  (38) 
oracle

>  <origin>  (38) 
adg

>  <m_score__min__energy>  (38) 
-6.71

>  <m_primary>  (38) 
energy

$$$$
38:0
     RDKit          3D

 49 52  0  0  0  0  0  0  0  0999 V2000
   -1.0720   15.7390  -35.2120 C   0  0  0  0  0  0  0  0  0  0  0  0
   -2.0460   16.7450  -35.4710 O   0  0  0  0  0  0  0  0  0  0  0  0
   -3.3020   16.8120  -34.8520 C   0  0  0  0  0  0  0  0  0  0  0  0
   -4.2080   17.7770  -35.2940 C   0  0  0  0  0  0  0  0  0  0  0  0
   -5.4800   17.8690  -34.7290 C   0  0  0  0  0  0  0  0  0  0  0  0
   -5.8660   17.0090  -33.6890 C   0  0  0  0  0  0  0  0  0  0  0  0
   -7.2640   17.1100  -33.1130 C   0  0  0  0  0  0  0  0  0  0  0  0
   -7.3310   17.7830  -31.7970 N   0  0  0  0  0  0  0  0  0  0  0  0
   -6.0410   18.2640  -31.2430 C   0  0  0  0  0  0  0  0  0  0  0  0
   -5.6430   19.6780  -31.7260 C   0  0  0  0  0  0  0  0  0  0  0  0
   -6.8190   20.5260  -31.8940 N   0  0  0  0  0  0  0  0  0  0  0  0
   -6.9160   21.8430  -32.1710 C   0  0  0  0  0  0  0  0  0  0  0  0
   -5.7600   22.7820  -32.3340 C   0  0  0  0  0  0  0  0  0  0  0  0
   -5.8710   23.8760  -31.3770 N   0  0  0  0  0  0  0  0  0  0  0  0
   -6.8620   24.0480  -30.4820 C   0  0  0  0  0  0  0  0  0  0  0  0
   -6.5740   25.1690  -29.7330 C   0  0  0  0  0  0  0  0  0  0  0  0
   -5.3660   25.6240  -30.2270 C   0  0  0  0  0  0  0  0  0  0  0  0
   -4.9540   24.8170  -31.2240 N   0  0  0  0  0  0  0  0  0  0  0  0
   -8.2060   22.2180  -32.3200 N   0  0  0  0  0  0  0  0  0  0  0  0
   -8.9320   21.1240  -32.1420 N   0  0  0  0  0  0  0  0  0  0  0  0
   -8.0880   20.1070  -31.9030 C   0  0  0  0  0  0  0  0  0  0  0  0
   -8.4750   18.6980  -31.6030 C   0  0  0  0  0  0  0  0  0  0  0  0
   -4.9580   16.0290  -33.2280 C   0  0  0  0  0  0  0  0  0  0  0  0
   -5.3530   15.1680  -32.1900 O   0  0  0  0  0  0  0  0  0  0  0  0
   -4.6010   14.0490  -31.7330 C   0  0  0  0  0  0  0  0  0  0  0  0
   -3.6790   15.9410  -33.8140 C   0  0  0  0  0  0  0  0  0  0  0  0
   -0.9524   15.6155  -34.1255 H   0  0  0  0  0  0  0  0  0  0  0  0
   -1.4009   14.7875  -35.6552 H   0  0  0  0  0  0  0  0  0  0  0  0
   -0.1103   16.0369  -35.6552 H   0  0  0  0  0  0  0  0  0  0  0  0
   -3.9163   18.4716  -36.0955 H   0  0  0  0  0  0  0  0  0  0  0  0
   -6.1881   18.6235  -35.1024 H   0  0  0  0  0  0  0  0  0  0  0  0
   -7.8888   17.6741  -33.8211 H   0  0  0  0  0  0  0  0  0  0  0  0
   -7.6176   16.0798  -32.9593 H   0  0  0  0  0  0  0  0  0  0  0  0
   -6.1197   18.2816  -30.1460 H   0  0  0  0  0  0  0  0  0  0  0  0
   -5.2622   17.5731  -31.5981 H   0  0  0  0  0  0  0  0  0  0  0  0
   -4.9729   20.1359  -30.9835 H   0  0  0  0  0  0  0  0  0  0  0  0
   -5.1370   19.5856  -32.6983 H   0  0  0  0  0  0  0  0  0  0  0  0
   -4.8204   22.2377  -32.1584 H   0  0  0  0  0  0  0  0  0  0  0  0
   -5.7672   23.1916  -33.3549 H   0  0  0  0  0  0  0  0  0  0  0  0
   -7.7477   23.4056  -30.3682 H   0  0  0  0  0  0  0  0  0  0  0  0
   -7.1738   25.6054  -28.9207 H   0  0  0  0  0  0  0  0  0  0  0  0
   -4.8242   26.5091  -29.8622 H   0  0  0  0  0  0  0  0  0  0  0  0
   -9.9740   21.0840  -32.1890 H   0  0  0  0  0  0  0  0  0  0  0  0
   -8.8151   18.6327  -30.5589 H   0  0  0  0  0  0  0  0  0  0  0  0
   -9.2816   18.4018  -32.2897 H   0  0  0  0  0  0  0  0  0  0  0  0
   -4.5930   14.0371  -30.6331 H   0  0  0  0  0  0  0  0  0  0  0  0
   -5.0599   13.1216  -32.1064 H   0  0  0  0  0  0  0  0  0  0  0  0
   -3.5690   14.1236  -32.1064 H   0  0  0  0  0  0  0  0  0  0  0  0
   -2.9676   15.1825  -33.4554 H   0  0  0  0  0  0  0  0  0  0  0  0
  1  2  1  0
  2  3  1  0
  3  4  2  0
  4  5  1  0
  5  6  2  0
  6  7  1  0
  7  8  1  0
  8  9  1  0
  9 10  1  0
 10 11  1  0
 11 12  1  0
 12 13  1  0
 13 14  1  0
 14 15  1  0
 15 16  2  0
 16 17  1  0
 17 18  2  0
 12 19  2  0
 19 20  1  0
 20 21  2  0
 21 22  1  0
  6 23  1  0
 23 24  1  0
 24 25  1  0
 23 26  2  0
 26  3  1  0
 22  8  1  0
 21 11  1  0
 18 14  1  0
  1 27  1  0
  1 28  1  0
  1 29  1  0
  4 30  1  0
  5 31  1  0
  7 32  1  0
  7 33  1  0
  9 34  1  0
  9 35  1  0
 10 36  1  0
 10 37  1  0
 13 38  1  0
 13 39  1  0
 15 40  1  0
 16 41  1  0
 17 42  1  0
 20 43  1  0
 22 44  1  0
 22 45  1  0
 25 46  1  0
 25 47  1  0
 25 48  1  0
 26 49  1  0
M  CHG  1  20   1
M  END
>  <UniqueID>  (39) 
35

>  <SMILES>  (39) 
COc1ccc(CN2CCn3c(Cn4cccn4)n[nH+]c3C2)c(OC)c1

>  <Energy>  (39) 
120.68599418093518

>  <Genealogy>  (39) 
COc1ccc(CN2CCn3c(Cn4cccn4)n[nH+]c3C2)c(OC)c1 (protonated)
COc1ccc(CN2CCn3c(Cn4cccn4)n[nH+]c3C2)c(OC)c1 (3D coordinates assigned)
COc1ccc(CN2CCn3c(Cn4cccn4)n[nH+]c3C2)c(OC)c1 (nonaromatic ring conformer: 120.68599418093518 kcal/mol)

>  <smiles>  (39) 
COc1ccc(CN2CCn3c(nnc3Cn3cccn3)C2)c(OC)c1

>  <score_type>  (39) 
oracle

>  <origin>  (39) 
adg

>  <m_score__min__energy>  (39) 
-7.6500000000000004

>  <m_primary>  (39) 
energy

$$$$
39:0
     RDKit          3D

 65 67  0  0  0  0  0  0  0  0999 V2000
   -9.3030   22.8509  -32.7861 H   0  0  0  0  0  0  0  0  0  0  0  0
   -8.4250   22.8780  -32.1240 C   0  0  0  0  0  0  0  0  0  0  0  0
   -8.4610   22.2310  -30.8860 C   0  0  0  0  0  0  0  0  0  0  0  0
   -9.3598   21.6734  -30.5840 H   0  0  0  0  0  0  0  0  0  0  0  0
   -7.3550   22.2910  -30.0290 C   0  0  0  0  0  0  0  0  0  0  0  0
   -7.3921   21.7904  -29.0502 H   0  0  0  0  0  0  0  0  0  0  0  0
   -6.1990   22.9880  -30.4150 C   0  0  0  0  0  0  0  0  0  0  0  0
   -5.0260   23.0600  -29.5230 C   0  0  0  0  0  0  0  0  0  0  0  0
   -4.1500   22.0990  -29.4700 N   0  0  0  0  0  0  0  0  0  0  0  0
   -2.8930   22.0020  -30.2090 C   0  0  0  0  0  0  0  0  0  0  0  0
   -2.4976   20.9792  -30.1221 H   0  0  0  0  0  0  0  0  0  0  0  0
   -2.1716   22.7184  -29.7890 H   0  0  0  0  0  0  0  0  0  0  0  0
   -3.1260   22.3320  -31.6880 C   0  0  0  0  0  0  0  0  0  0  0  0
   -2.2183   22.8030  -32.0932 H   0  0  0  0  0  0  0  0  0  0  0  0
   -3.9904   23.0093  -31.7509 H   0  0  0  0  0  0  0  0  0  0  0  0
   -3.4410   21.1010  -32.5040 C   0  0  0  0  0  0  0  0  0  0  0  0
   -2.3980   20.3240  -33.0350 C   0  0  0  0  0  0  0  0  0  0  0  0
   -1.3533   20.5898  -32.8161 H   0  0  0  0  0  0  0  0  0  0  0  0
   -2.6770   19.2190  -33.8370 C   0  0  0  0  0  0  0  0  0  0  0  0
   -1.8504   18.6232  -34.2515 H   0  0  0  0  0  0  0  0  0  0  0  0
   -4.0080   18.8590  -34.1210 C   0  0  0  0  0  0  0  0  0  0  0  0
   -4.3140   17.7530  -34.9320 O   0  0  0  0  0  0  0  0  0  0  0  0
   -3.3840   16.7570  -35.3380 C   0  0  0  0  0  0  0  0  0  0  0  0
   -2.9421   16.2837  -34.4488 H   0  0  0  0  0  0  0  0  0  0  0  0
   -3.9017   15.9954  -35.9397 H   0  0  0  0  0  0  0  0  0  0  0  0
   -2.5888   17.2213  -35.9397 H   0  0  0  0  0  0  0  0  0  0  0  0
   -5.0630   19.6280  -33.5800 C   0  0  0  0  0  0  0  0  0  0  0  0
   -6.5100   19.2850  -33.8660 C   0  0  0  0  0  0  0  0  0  0  0  0
   -7.0563   20.2143  -34.0849 H   0  0  0  0  0  0  0  0  0  0  0  0
   -6.5272   18.5948  -34.7223 H   0  0  0  0  0  0  0  0  0  0  0  0
   -7.1930   18.5780  -32.6810 C   0  0  0  0  0  0  0  0  0  0  0  0
   -7.4011   19.3277  -31.9034 H   0  0  0  0  0  0  0  0  0  0  0  0
   -8.1088   18.1107  -33.0720 H   0  0  0  0  0  0  0  0  0  0  0  0
   -6.3420   17.4450  -32.0520 C   0  0  0  0  0  0  0  0  0  0  0  0
   -5.5104   17.8999  -31.4938 H   0  0  0  0  0  0  0  0  0  0  0  0
   -7.0050   16.8604  -31.3972 H   0  0  0  0  0  0  0  0  0  0  0  0
   -5.7810   16.5140  -33.0600 N   0  0  0  0  0  0  0  0  0  0  0  0
   -5.1320   17.0330  -33.7010 H   0  0  0  0  0  0  0  0  0  0  0  0
   -6.8420   15.8840  -33.8660 C   0  0  0  0  0  0  0  0  0  0  0  0
   -7.5936   15.4377  -33.1982 H   0  0  0  0  0  0  0  0  0  0  0  0
   -7.3207   16.6443  -34.5007 H   0  0  0  0  0  0  0  0  0  0  0  0
   -6.4036   15.0998  -34.5007 H   0  0  0  0  0  0  0  0  0  0  0  0
   -4.9860   15.4730  -32.3860 C   0  0  0  0  0  0  0  0  0  0  0  0
   -5.0761   15.5910  -31.2961 H   0  0  0  0  0  0  0  0  0  0  0  0
   -5.3579   14.4802  -32.6793 H   0  0  0  0  0  0  0  0  0  0  0  0
   -3.9303   15.5704  -32.6793 H   0  0  0  0  0  0  0  0  0  0  0  0
   -4.7700   20.7520  -32.7890 C   0  0  0  0  0  0  0  0  0  0  0  0
   -5.5912   21.3648  -32.3890 H   0  0  0  0  0  0  0  0  0  0  0  0
   -4.9040   24.1640  -28.6120 N   0  0  0  0  0  0  0  0  0  0  0  0
   -5.7720   24.6800  -28.3330 H   0  0  0  0  0  0  0  0  0  0  0  0
   -3.6580   24.5390  -28.0000 C   0  0  0  0  0  0  0  0  0  0  0  0
   -3.6160   24.8470  -26.6320 C   0  0  0  0  0  0  0  0  0  0  0  0
   -4.5329   24.7801  -26.0281 H   0  0  0  0  0  0  0  0  0  0  0  0
   -2.4140   25.2390  -26.0310 C   0  0  0  0  0  0  0  0  0  0  0  0
   -2.3824   25.4550  -24.9529 H   0  0  0  0  0  0  0  0  0  0  0  0
   -1.2510   25.3560  -26.8040 C   0  0  0  0  0  0  0  0  0  0  0  0
   -0.3076   25.6691  -26.3328 H   0  0  0  0  0  0  0  0  0  0  0  0
   -1.2880   25.0750  -28.1750 C   0  0  0  0  0  0  0  0  0  0  0  0
   -0.3781   25.1812  -28.7840 H   0  0  0  0  0  0  0  0  0  0  0  0
   -2.4840   24.6590  -28.7690 C   0  0  0  0  0  0  0  0  0  0  0  0
   -2.5079   24.4241  -29.8434 H   0  0  0  0  0  0  0  0  0  0  0  0
   -6.1590   23.6140  -31.6710 C   0  0  0  0  0  0  0  0  0  0  0  0
   -5.2516   24.1483  -31.9890 H   0  0  0  0  0  0  0  0  0  0  0  0
   -7.2700   23.5600  -32.5190 C   0  0  0  0  0  0  0  0  0  0  0  0
   -7.2350   24.0559  -33.5003 H   0  0  0  0  0  0  0  0  0  0  0  0
  1  2  1  0
  2  3  2  0
  3  4  1  0
  3  5  1  0
  5  6  1  0
  5  7  2  0
  7  8  1  0
  8  9  2  0
  9 10  1  0
 10 11  1  0
 10 12  1  0
 10 13  1  0
 13 14  1  0
 13 15  1  0
 13 16  1  0
 16 17  2  0
 17 18  1  0
 17 19  1  0
 19 20  1  0
 19 21  2  0
 21 22  1  0
 22 23  1  0
 23 24  1  0
 23 25  1  0
 23 26  1  0
 21 27  1  0
 27 28  1  0
 28 29  1  0
 28 30  1  0
 28 31  1  0
 31 32  1  0
 31 33  1  0
 31 34  1  0
 34 35  1  0
 34 36  1  0
 34 37  1  0
 37 38  1  0
 37 39  1  0
 39 40  1  0
 39 41  1  0
 39 42  1  0
 37 43  1  0
 43 44  1  0
 43 45  1  0
 43 46  1  0
 27 47  2  0
 47 48  1  0
  8 49  1  0
 49 50  1  0
 49 51  1  0
 51 52  2  0
 52 53  1  0
 52 54  1  0
 54 55  1  0
 54 56  2  0
 56 57  1  0
 56 58  1  0
 58 59  1  0
 58 60  2  0
 60 61  1  0
  7 62  1  0
 62 63  1  0
 62 64  2  0
 64 65  1  0
 64  2  1  0
 47 16  1  0
 60 51  1  0
M  CHG  1  37   1
M  END
>  <UniqueID>  (40) 
36

>  <SMILES>  (40) 
COc1ccc(CC/N=C(/Nc2ccccc2)c2ccccc2)cc1CCC[NH+](C)C

>  <Energy>  (40) 
70.34033316522662

>  <Genealogy>  (40) 
COc1ccc(CCN=C(Nc2ccccc2)c2ccccc2)cc1CCC[NH+](C)C (protonated)
COc1ccc(CC/N=C(/Nc2ccccc2)c2ccccc2)cc1CCC[NH+](C)C (cis-trans isomerization)
COc1ccc(CC/N=C(/Nc2ccccc2)c2ccccc2)cc1CCC[NH+](C)C (3D coordinates assigned)
COc1ccc(CC/N=C(/Nc2ccccc2)c2ccccc2)cc1CCC[NH+](C)C (optimized conformer: 70.34033316522662 kcal/mol)

>  <smiles>  (40) 
COc1ccc(CCN=C(Nc2ccccc2)c2ccccc2)cc1CCCN(C)C

>  <score_type>  (40) 
oracle

>  <origin>  (40) 
adg

>  <m_score__min__energy>  (40) 
-9.3200000000000003

>  <m_primary>  (40) 
energy

$$$$
40:0
     RDKit          3D

 54 57  0  0  0  0  0  0  0  0999 V2000
   -4.4660   11.5180  -35.9140 C   0  0  0  0  0  0  0  0  0  0  0  0
   -4.3950   12.6550  -34.9360 C   0  0  0  0  0  0  0  0  0  0  0  0
   -4.4940   12.4120  -33.5570 C   0  0  0  0  0  0  0  0  0  0  0  0
   -4.3820   13.4670  -32.6390 C   0  0  0  0  0  0  0  0  0  0  0  0
   -4.5500   13.2030  -31.1700 C   0  0  0  0  0  0  0  0  0  0  0  0
   -4.1750   14.7730  -33.1080 C   0  0  0  0  0  0  0  0  0  0  0  0
   -4.0350   15.0190  -34.4850 C   0  0  0  0  0  0  0  0  0  0  0  0
   -3.8090   16.3110  -34.9830 O   0  0  0  0  0  0  0  0  0  0  0  0
   -3.9600   17.5000  -34.2560 C   0  0  0  0  0  0  0  0  0  0  0  0
   -2.8090   18.0880  -33.6800 C   0  0  0  0  0  0  0  0  0  0  0  0
   -2.9110   19.2320  -32.8690 C   0  0  0  0  0  0  0  0  0  0  0  0
   -4.1770   19.7760  -32.6650 C   0  0  0  0  0  0  0  0  0  0  0  0
   -4.5010   20.7950  -31.8440 N   0  0  0  0  0  0  0  0  0  0  0  0
   -5.8500   20.8850  -31.9020 C   0  0  0  0  0  0  0  0  0  0  0  0
   -6.3770   19.9470  -32.7810 C   0  0  0  0  0  0  0  0  0  0  0  0
   -5.2970   19.2270  -33.2420 C   0  0  0  0  0  0  0  0  0  0  0  0
   -5.2340   18.0790  -34.0280 C   0  0  0  0  0  0  0  0  0  0  0  0
   -7.8330   19.6140  -32.8900 C   0  0  0  0  0  0  0  0  0  0  0  0
   -8.6960   20.7410  -32.2890 C   0  0  0  0  0  0  0  0  0  0  0  0
   -8.1260   21.2390  -30.9450 C   0  0  0  0  0  0  0  0  0  0  0  0
   -6.7030   21.8420  -31.1010 C   0  0  2  0  0  0  0  0  0  0  0  0
   -6.7550   23.1810  -31.7490 N   0  0  0  0  0  0  0  0  0  0  0  0
   -7.1750   24.2500  -30.8210 C   0  0  0  0  0  0  0  0  0  0  0  0
   -6.0240   24.7520  -29.9260 C   0  0  0  0  0  0  0  0  0  0  0  0
   -4.6900   24.5700  -30.5830 C   0  0  0  0  0  0  0  0  0  0  0  0
   -4.2940   23.4190  -30.9030 O   0  0  0  0  0  0  0  0  0  0  0  0
   -3.8790   25.6730  -30.8280 O   0  0  0  0  0  0  0  0  0  0  0  0
   -4.1590   13.9600  -35.3910 C   0  0  0  0  0  0  0  0  0  0  0  0
   -4.5254   10.5661  -35.3659 H   0  0  0  0  0  0  0  0  0  0  0  0
   -5.3587   11.6334  -36.5463 H   0  0  0  0  0  0  0  0  0  0  0  0
   -3.5659   11.5215  -36.5463 H   0  0  0  0  0  0  0  0  0  0  0  0
   -4.6606   11.3872  -33.1936 H   0  0  0  0  0  0  0  0  0  0  0  0
   -4.0464   13.9943  -30.5953 H   0  0  0  0  0  0  0  0  0  0  0  0
   -5.6210   13.1929  -30.9194 H   0  0  0  0  0  0  0  0  0  0  0  0
   -4.1056   12.2285  -30.9194 H   0  0  0  0  0  0  0  0  0  0  0  0
   -4.1220   15.6087  -32.3946 H   0  0  0  0  0  0  0  0  0  0  0  0
   -1.8206   17.6439  -33.8694 H   0  0  0  0  0  0  0  0  0  0  0  0
   -2.0190   19.6833  -32.4100 H   0  0  0  0  0  0  0  0  0  0  0  0
   -3.8500   21.3430  -31.2340 H   0  0  0  0  0  0  0  0  0  0  0  0
   -6.1440   17.6355  -34.4584 H   0  0  0  0  0  0  0  0  0  0  0  0
   -8.0954   19.4846  -33.9504 H   0  0  0  0  0  0  0  0  0  0  0  0
   -8.0261   18.6853  -32.3330 H   0  0  0  0  0  0  0  0  0  0  0  0
   -8.7274   21.5824  -32.9969 H   0  0  0  0  0  0  0  0  0  0  0  0
   -9.7047   20.3416  -32.1075 H   0  0  0  0  0  0  0  0  0  0  0  0
   -8.7961   22.0116  -30.5401 H   0  0  0  0  0  0  0  0  0  0  0  0
   -8.0556   20.3761  -30.2665 H   0  0  0  0  0  0  0  0  0  0  0  0
   -6.2576   21.9822  -30.1050 H   0  0  0  0  0  0  0  0  0  0  0  0
   -7.3970   23.1760  -32.5730 H   0  0  0  0  0  0  0  0  0  0  0  0
   -5.8070   23.4290  -32.1220 H   0  0  0  0  0  0  0  0  0  0  0  0
   -7.5567   25.0968  -31.4103 H   0  0  0  0  0  0  0  0  0  0  0  0
   -7.9483   23.8301  -30.1609 H   0  0  0  0  0  0  0  0  0  0  0  0
   -6.1754   25.8213  -29.7172 H   0  0  0  0  0  0  0  0  0  0  0  0
   -6.0312   24.1635  -28.9967 H   0  0  0  0  0  0  0  0  0  0  0  0
   -4.0705   14.1531  -36.4703 H   0  0  0  0  0  0  0  0  0  0  0  0
  1  2  1  0
  2  3  2  0
  3  4  1  0
  4  5  1  0
  4  6  2  0
  6  7  1  0
  7  8  1  0
  8  9  1  0
  9 10  2  0
 10 11  1  0
 11 12  2  0
 12 13  1  0
 13 14  1  0
 14 15  2  0
 15 16  1  0
 16 17  2  0
 15 18  1  0
 18 19  1  0
 19 20  1  0
 20 21  1  0
 21 22  1  0
 22 23  1  0
 23 24  1  0
 24 25  1  0
 25 26  2  0
 25 27  1  0
  7 28  2  0
 28  2  1  0
 17  9  1  0
 16 12  1  0
 21 14  1  0
  1 29  1  0
  1 30  1  0
  1 31  1  0
  3 32  1  0
  5 33  1  0
  5 34  1  0
  5 35  1  0
  6 36  1  0
 10 37  1  0
 11 38  1  0
 13 39  1  0
 17 40  1  0
 18 41  1  0
 18 42  1  0
 19 43  1  0
 19 44  1  0
 20 45  1  0
 20 46  1  0
 21 47  1  1
 22 48  1  0
 22 49  1  0
 23 50  1  0
 23 51  1  0
 24 52  1  0
 24 53  1  0
 28 54  1  0
M  CHG  2  22   1  27  -1
M  END
>  <UniqueID>  (41) 
37

>  <SMILES>  (41) 
Cc1cc(C)cc(Oc2ccc3[nH]c4c(c3c2)CCC[C@@H]4[NH2+]CCC(=O)[O-])c1

>  <Energy>  (41) 
96.72840129463427

>  <Genealogy>  (41) 
Cc1cc(C)cc(Oc2ccc3[nH]c4c(c3c2)CCCC4[NH2+]CCC(=O)[O-])c1 (protonated)
Cc1cc(C)cc(Oc2ccc3[nH]c4c(c3c2)CCC[C@@H]4[NH2+]CCC(=O)[O-])c1 (chirality)
Cc1cc(C)cc(Oc2ccc3[nH]c4c(c3c2)CCC[C@@H]4[NH2+]CCC(=O)[O-])c1 (3D coordinates assigned)
Cc1cc(C)cc(Oc2ccc3[nH]c4c(c3c2)CCC[C@@H]4[NH2+]CCC(=O)[O-])c1 (nonaromatic ring conformer: 96.72840129463427 kcal/mol)

>  <smiles>  (41) 
Cc1cc(C)cc(Oc2ccc3[nH]c4c(c3c2)CCCC4NCCC(=O)O)c1

>  <score_type>  (41) 
oracle

>  <origin>  (41) 
adg

>  <m_score__min__energy>  (41) 
-9.9600000000000009

>  <m_primary>  (41) 
energy

$$$$
41:0
     RDKit          3D

 45 48  0  0  0  0  0  0  0  0999 V2000
   -5.2330   21.3730  -32.7390 C   0  0  0  0  0  0  0  0  0  0  0  0
   -4.4830   22.5380  -32.4180 O   0  0  0  0  0  0  0  0  0  0  0  0
   -4.1830   22.9050  -31.1010 C   0  0  0  0  0  0  0  0  0  0  0  0
   -3.5020   22.0600  -30.2810 N   0  0  0  0  0  0  0  0  0  0  0  0
   -3.2010   22.3720  -29.0180 N   0  0  0  0  0  0  0  0  0  0  0  0
   -2.4430   21.4100  -28.2680 C   0  0  0  0  0  0  0  0  0  0  0  0
   -1.0430   21.3590  -28.3810 C   0  0  0  0  0  0  0  0  0  0  0  0
   -0.3150   20.4030  -27.6650 C   0  0  0  0  0  0  0  0  0  0  0  0
   -0.9790   19.4870  -26.8450 C   0  0  0  0  0  0  0  0  0  0  0  0
   -2.3740   19.5210  -26.7430 C   0  0  0  0  0  0  0  0  0  0  0  0
   -3.1050   20.4750  -27.4570 C   0  0  0  0  0  0  0  0  0  0  0  0
   -3.6060   23.5730  -28.4800 C   0  0  0  0  0  0  0  0  0  0  0  0
   -3.3520   23.9470  -27.0320 C   0  0  0  0  0  0  0  0  0  0  0  0
   -2.4490   25.0490  -26.9390 O   0  0  0  0  0  0  0  0  0  0  0  0
   -1.0510   24.9470  -26.8100 C   0  0  0  0  0  0  0  0  0  0  0  0
   -0.2520   24.3710  -27.8180 C   0  0  0  0  0  0  0  0  0  0  0  0
    1.1320   24.2790  -27.6640 C   0  0  0  0  0  0  0  0  0  0  0  0
    1.7450   24.7590  -26.5060 C   0  0  0  0  0  0  0  0  0  0  0  0
    0.9720   25.3380  -25.4910 C   0  0  0  0  0  0  0  0  0  0  0  0
    1.5740   25.8250  -24.3230 C   0  0  0  0  0  0  0  0  0  0  0  0
    0.8130   26.3830  -23.3420 N   0  0  0  0  0  0  0  0  0  0  0  0
   -0.5370   26.4860  -23.4610 C   0  0  0  0  0  0  0  0  0  0  0  0
   -1.1840   26.0170  -24.6050 C   0  0  0  0  0  0  0  0  0  0  0  0
   -0.4320   25.4360  -25.6400 C   0  0  0  0  0  0  0  0  0  0  0  0
   -4.2800   24.4890  -29.3010 C   0  0  0  0  0  0  0  0  0  0  0  0
   -4.5760   24.1490  -30.6170 C   0  0  0  0  0  0  0  0  0  0  0  0
   -5.1950   24.9590  -31.3580 O   0  0  0  0  0  0  0  0  0  0  0  0
   -5.5531   20.8758  -31.8114 H   0  0  0  0  0  0  0  0  0  0  0  0
   -6.1182   21.6572  -33.3269 H   0  0  0  0  0  0  0  0  0  0  0  0
   -4.6078   20.6849  -33.3269 H   0  0  0  0  0  0  0  0  0  0  0  0
   -0.5187   22.0724  -29.0339 H   0  0  0  0  0  0  0  0  0  0  0  0
    0.7815   20.3723  -27.7476 H   0  0  0  0  0  0  0  0  0  0  0  0
   -0.4046   18.7387  -26.2793 H   0  0  0  0  0  0  0  0  0  0  0  0
   -2.8959   18.7965  -26.1005 H   0  0  0  0  0  0  0  0  0  0  0  0
   -4.2024   20.4930  -27.3830 H   0  0  0  0  0  0  0  0  0  0  0  0
   -4.3061   24.2228  -26.5590 H   0  0  0  0  0  0  0  0  0  0  0  0
   -2.9039   23.0826  -26.5202 H   0  0  0  0  0  0  0  0  0  0  0  0
   -0.7241   23.9900  -28.7356 H   0  0  0  0  0  0  0  0  0  0  0  0
    1.7424   23.8260  -28.4591 H   0  0  0  0  0  0  0  0  0  0  0  0
    2.8362   24.6827  -26.3899 H   0  0  0  0  0  0  0  0  0  0  0  0
    2.6648   25.7561  -24.1986 H   0  0  0  0  0  0  0  0  0  0  0  0
    1.2780   26.7400  -22.4780 H   0  0  0  0  0  0  0  0  0  0  0  0
   -1.1236   26.9422  -22.6500 H   0  0  0  0  0  0  0  0  0  0  0  0
   -2.2769   26.1017  -24.6960 H   0  0  0  0  0  0  0  0  0  0  0  0
   -4.5735   25.4727  -28.9057 H   0  0  0  0  0  0  0  0  0  0  0  0
  1  2  1  0
  2  3  1  0
  3  4  2  0
  4  5  1  0
  5  6  1  0
  6  7  2  0
  7  8  1  0
  8  9  2  0
  9 10  1  0
 10 11  2  0
  5 12  1  0
 12 13  1  0
 13 14  1  0
 14 15  1  0
 15 16  2  0
 16 17  1  0
 17 18  2  0
 18 19  1  0
 19 20  2  0
 20 21  1  0
 21 22  2  0
 22 23  1  0
 23 24  2  0
 12 25  2  0
 25 26  1  0
 26 27  2  0
 26  3  1  0
 11  6  1  0
 24 15  1  0
 24 19  1  0
  1 28  1  0
  1 29  1  0
  1 30  1  0
  7 31  1  0
  8 32  1  0
  9 33  1  0
 10 34  1  0
 11 35  1  0
 13 36  1  0
 13 37  1  0
 16 38  1  0
 17 39  1  0
 18 40  1  0
 20 41  1  0
 21 42  1  0
 22 43  1  0
 23 44  1  0
 25 45  1  0
M  CHG  1  21   1
M  END
>  <UniqueID>  (42) 
38

>  <SMILES>  (42) 
COc1nn(-c2ccccc2)c(COc2cccc3c[nH+]ccc23)cc1=O

>  <Energy>  (42) 
60.37845113343218

>  <Genealogy>  (42) 
COc1nn(-c2ccccc2)c(COc2cccc3c[nH+]ccc23)cc1=O (protonated)
COc1nn(-c2ccccc2)c(COc2cccc3c[nH+]ccc23)cc1=O (3D coordinates assigned)
COc1nn(-c2ccccc2)c(COc2cccc3c[nH+]ccc23)cc1=O (optimized conformer: 60.37845113343218 kcal/mol)

>  <smiles>  (42) 
COc1nn(-c2ccccc2)c(COc2cccc3cnccc23)cc1=O

>  <score_type>  (42) 
oracle

>  <origin>  (42) 
adg

>  <m_score__min__energy>  (42) 
-8.6899999999999995

>  <m_primary>  (42) 
energy

$$$$
42:0
     RDKit          3D

 25 27  0  0  0  0  0  0  0  0999 V2000
   -8.8940   20.8090  -31.9340 C   0  0  0  0  0  0  0  0  0  0  0  0
   -8.9760   21.8930  -30.4770 S   0  0  0  0  0  0  0  0  0  0  0  0
   -7.3800   22.6360  -30.8020 C   0  0  0  0  0  0  0  0  0  0  0  0
   -6.5220   23.0310  -29.8390 N   0  0  0  0  0  0  0  0  0  0  0  0
   -5.3790   23.5650  -30.3500 C   0  0  0  0  0  0  0  0  0  0  0  0
   -4.2900   24.0640  -29.4920 C   0  0  0  0  0  0  0  0  0  0  0  0
   -4.3360   23.9960  -28.1350 N   0  0  0  0  0  0  0  0  0  0  0  0
   -3.1690   24.5500  -27.7770 C   0  0  0  0  0  0  0  0  0  0  0  0
   -2.6760   24.7450  -26.4890 C   0  0  0  0  0  0  0  0  0  0  0  0
   -1.4130   25.3540  -26.3570 C   0  0  0  0  0  0  0  0  0  0  0  0
   -0.6860   25.7450  -27.5040 C   0  0  0  0  0  0  0  0  0  0  0  0
   -1.2160   25.5310  -28.7910 C   0  0  0  0  0  0  0  0  0  0  0  0
   -2.4680   24.9260  -28.8810 C   0  0  0  0  0  0  0  0  0  0  0  0
   -3.1590   24.6290  -29.9910 N   0  0  0  0  0  0  0  0  0  0  0  0
   -5.3260   23.5960  -31.7430 C   0  0  0  0  0  0  0  0  0  0  0  0
   -6.7590   22.9350  -32.3330 S   0  0  0  0  0  0  0  0  0  0  0  0
   -8.8148   19.7615  -31.6077 H   0  0  0  0  0  0  0  0  0  0  0  0
   -9.8044   20.9370  -32.5380 H   0  0  0  0  0  0  0  0  0  0  0  0
   -8.0132   21.0725  -32.5380 H   0  0  0  0  0  0  0  0  0  0  0  0
   -6.7210   22.9320  -28.8180 H   0  0  0  0  0  0  0  0  0  0  0  0
   -3.2531   24.4342  -25.6056 H   0  0  0  0  0  0  0  0  0  0  0  0
   -0.9903   25.5262  -25.3561 H   0  0  0  0  0  0  0  0  0  0  0  0
    0.3000   26.2194  -27.3908 H   0  0  0  0  0  0  0  0  0  0  0  0
   -0.6617   25.8306  -29.6927 H   0  0  0  0  0  0  0  0  0  0  0  0
   -4.4947   23.9839  -32.3500 H   0  0  0  0  0  0  0  0  0  0  0  0
  1  2  1  0
  2  3  1  0
  3  4  2  0
  4  5  1  0
  5  6  1  0
  6  7  2  0
  7  8  1  0
  8  9  2  0
  9 10  1  0
 10 11  2  0
 11 12  1  0
 12 13  2  0
 13 14  1  0
  5 15  2  0
 15 16  1  0
 16  3  1  0
 14  6  1  0
 13  8  1  0
  1 17  1  0
  1 18  1  0
  1 19  1  0
  4 20  1  0
  9 21  1  0
 10 22  1  0
 11 23  1  0
 12 24  1  0
 15 25  1  0
M  CHG  2   4   1  14  -1
M  END
>  <UniqueID>  (43) 
39

>  <SMILES>  (43) 
CSc1[nH+]c(-c2nc3ccccc3[n-]2)cs1

>  <Energy>  (43) 
86.72818014115119

>  <Genealogy>  (43) 
CSc1[nH+]c(-c2nc3ccccc3[n-]2)cs1 (protonated)
CSc1[nH+]c(-c2nc3ccccc3[n-]2)cs1 (3D coordinates assigned)
CSc1[nH+]c(-c2nc3ccccc3[n-]2)cs1 (optimized conformer: 86.72818014115119 kcal/mol)

>  <smiles>  (43) 
CSc1nc(-c2nc3ccccc3[nH]2)cs1

>  <score_type>  (43) 
oracle

>  <origin>  (43) 
adg

>  <m_score__min__energy>  (43) 
-6.1100000000000003

>  <m_primary>  (43) 
energy

$$$$
43:0
     RDKit          3D

 37 39  0  0  0  0  0  0  0  0999 V2000
   -8.3050   18.9290  -32.0660 C   0  0  0  0  0  0  0  0  0  0  0  0
   -7.0120   18.5320  -32.7080 C   0  0  0  0  0  0  0  0  0  0  0  0
   -6.8150   17.3640  -33.4180 C   0  0  0  0  0  0  0  0  0  0  0  0
   -5.5100   17.3910  -33.8650 C   0  0  0  0  0  0  0  0  0  0  0  0
   -4.9530   18.5680  -33.3960 C   0  0  0  0  0  0  0  0  0  0  0  0
   -3.5450   18.9750  -33.6180 C   0  0  0  0  0  0  0  0  0  0  0  0
   -2.5260   18.0130  -33.7250 C   0  0  0  0  0  0  0  0  0  0  0  0
   -1.2010   18.4090  -33.9350 C   0  0  0  0  0  0  0  0  0  0  0  0
   -0.8830   19.7650  -34.0500 C   0  0  0  0  0  0  0  0  0  0  0  0
    0.9260   20.3020  -34.3360 Br  0  0  0  0  0  0  0  0  0  0  0  0
   -1.8940   20.7270  -33.9620 C   0  0  0  0  0  0  0  0  0  0  0  0
   -3.2200   20.3350  -33.7520 C   0  0  0  0  0  0  0  0  0  0  0  0
   -5.8730   19.2630  -32.6830 N   0  0  0  0  0  0  0  0  0  0  0  0
   -5.7190   20.5770  -32.1180 C   0  0  0  0  0  0  0  0  0  0  0  0
   -4.7170   20.8290  -31.1700 C   0  0  0  0  0  0  0  0  0  0  0  0
   -4.5600   22.1100  -30.6330 C   0  0  0  0  0  0  0  0  0  0  0  0
   -5.3990   23.1540  -31.0440 C   0  0  0  0  0  0  0  0  0  0  0  0
   -5.2090   24.7660  -30.3610 S   0  0  0  0  0  0  0  0  0  0  0  0
   -3.5530   25.2450  -30.4650 N   0  0  0  0  0  0  0  0  0  0  0  0
   -6.0630   25.7450  -31.1170 O   0  0  0  0  0  0  0  0  0  0  0  0
   -5.6420   24.7610  -28.9200 O   0  0  0  0  0  0  0  0  0  0  0  0
   -6.4060   22.9040  -31.9860 C   0  0  0  0  0  0  0  0  0  0  0  0
   -6.5640   21.6230  -32.5220 C   0  0  0  0  0  0  0  0  0  0  0  0
   -8.1965   18.8957  -30.9719 H   0  0  0  0  0  0  0  0  0  0  0  0
   -8.5706   19.9501  -32.3772 H   0  0  0  0  0  0  0  0  0  0  0  0
   -9.0978   18.2329  -32.3772 H   0  0  0  0  0  0  0  0  0  0  0  0
   -7.5538   16.5680  -33.5929 H   0  0  0  0  0  0  0  0  0  0  0  0
   -5.0093   16.6254  -34.4758 H   0  0  0  0  0  0  0  0  0  0  0  0
   -2.7715   16.9439  -33.6432 H   0  0  0  0  0  0  0  0  0  0  0  0
   -0.4072   17.6511  -34.0098 H   0  0  0  0  0  0  0  0  0  0  0  0
   -1.6459   21.7943  -34.0582 H   0  0  0  0  0  0  0  0  0  0  0  0
   -4.0124   21.0955  -33.6915 H   0  0  0  0  0  0  0  0  0  0  0  0
   -4.0514   20.0148  -30.8474 H   0  0  0  0  0  0  0  0  0  0  0  0
   -3.7754   22.2989  -29.8855 H   0  0  0  0  0  0  0  0  0  0  0  0
   -3.4890   25.9610  -31.2230 H   0  0  0  0  0  0  0  0  0  0  0  0
   -7.0738   23.7181  -32.3043 H   0  0  0  0  0  0  0  0  0  0  0  0
   -7.3539   21.4334  -33.2637 H   0  0  0  0  0  0  0  0  0  0  0  0
  1  2  1  0
  2  3  2  0
  3  4  1  0
  4  5  2  0
  5  6  1  0
  6  7  2  0
  7  8  1  0
  8  9  2  0
  9 10  1  0
  9 11  1  0
 11 12  2  0
  5 13  1  0
 13 14  1  0
 14 15  2  0
 15 16  1  0
 16 17  2  0
 17 18  1  0
 18 19  1  0
 18 20  2  0
 18 21  2  0
 17 22  1  0
 22 23  2  0
 13  2  1  0
 23 14  1  0
 12  6  1  0
  1 24  1  0
  1 25  1  0
  1 26  1  0
  3 27  1  0
  4 28  1  0
  7 29  1  0
  8 30  1  0
 11 31  1  0
 12 32  1  0
 15 33  1  0
 16 34  1  0
 19 35  1  0
 22 36  1  0
 23 37  1  0
M  CHG  1  19  -1
M  END
>  <UniqueID>  (44) 
40

>  <SMILES>  (44) 
Cc1ccc(-c2ccc(Br)cc2)n1-c1ccc(S([NH-])(=O)=O)cc1

>  <Energy>  (44) 
74.03751233382755

>  <Genealogy>  (44) 
Cc1ccc(-c2ccc(Br)cc2)n1-c1ccc(S([NH-])(=O)=O)cc1 (protonated)
Cc1ccc(-c2ccc(Br)cc2)n1-c1ccc(S([NH-])(=O)=O)cc1 (3D coordinates assigned)
Cc1ccc(-c2ccc(Br)cc2)n1-c1ccc(S([NH-])(=O)=O)cc1 (optimized conformer: 74.03751233382755 kcal/mol)

>  <smiles>  (44) 
Cc1ccc(-c2ccc(Br)cc2)n1-c1ccc(S(N)(=O)=O)cc1

>  <score_type>  (44) 
oracle

>  <origin>  (44) 
adg

>  <m_score__min__energy>  (44) 
-10.93

>  <m_primary>  (44) 
energy

$$$$
44:0
     RDKit          3D

 41 44  0  0  0  0  0  0  0  0999 V2000
   -2.6810   16.2350  -35.3300 C   0  0  0  0  0  0  0  0  0  0  0  0
   -3.0010   17.4670  -34.6200 N   0  0  0  0  0  0  0  0  0  0  0  0
   -4.2170   17.8220  -34.1710 C   0  0  0  0  0  0  0  0  0  0  0  0
   -4.1180   19.0850  -33.6210 C   0  0  0  0  0  0  0  0  0  0  0  0
   -5.2130   19.8650  -33.0100 C   0  0  0  0  0  0  0  0  0  0  0  0
   -6.5580   19.5020  -33.1790 C   0  0  0  0  0  0  0  0  0  0  0  0
   -7.5610   20.2710  -32.5780 C   0  0  0  0  0  0  0  0  0  0  0  0
   -8.9140   19.9320  -32.7250 C   0  0  0  0  0  0  0  0  0  0  0  0
   -9.8780   20.6840  -32.1300 N   0  0  0  0  0  0  0  0  0  0  0  0
   -9.5680   21.7770  -31.3810 C   0  0  0  0  0  0  0  0  0  0  0  0
   -8.2360   22.1580  -31.2060 C   0  0  0  0  0  0  0  0  0  0  0  0
   -7.2160   21.4040  -31.8100 C   0  0  0  0  0  0  0  0  0  0  0  0
   -5.8530   21.7370  -31.6720 C   0  0  0  0  0  0  0  0  0  0  0  0
   -5.4350   22.8810  -30.9170 N   0  0  0  0  0  0  0  0  0  0  0  0
   -4.2550   22.7780  -30.0580 C   0  0  0  0  0  0  0  0  0  0  0  0
   -3.9120   24.1430  -29.4540 C   0  0  0  0  0  0  0  0  0  0  0  0
   -3.9920   25.1860  -30.4830 N   0  0  0  0  0  0  0  0  0  0  0  0
   -5.3580   25.3610  -31.0190 C   0  0  0  0  0  0  0  0  0  0  0  0
   -6.2460   24.1010  -30.9260 C   0  0  0  0  0  0  0  0  0  0  0  0
   -4.9070   20.9640  -32.2680 N   0  0  0  0  0  0  0  0  0  0  0  0
   -2.7880   19.4430  -33.7870 C   0  0  0  0  0  0  0  0  0  0  0  0
   -2.1320   18.4420  -34.4060 N   0  0  0  0  0  0  0  0  0  0  0  0
   -2.4735   15.4361  -34.6029 H   0  0  0  0  0  0  0  0  0  0  0  0
   -3.5333   15.9438  -35.9615 H   0  0  0  0  0  0  0  0  0  0  0  0
   -1.7947   16.3953  -35.9615 H   0  0  0  0  0  0  0  0  0  0  0  0
   -5.1312   17.2132  -34.2311 H   0  0  0  0  0  0  0  0  0  0  0  0
   -6.8221   18.6192  -33.7797 H   0  0  0  0  0  0  0  0  0  0  0  0
   -9.1965   19.0539  -33.3243 H   0  0  0  0  0  0  0  0  0  0  0  0
  -10.8810   20.4160  -32.2480 H   0  0  0  0  0  0  0  0  0  0  0  0
  -10.3710   22.3636  -30.9108 H   0  0  0  0  0  0  0  0  0  0  0  0
   -7.9873   23.0416  -30.5999 H   0  0  0  0  0  0  0  0  0  0  0  0
   -4.4588   22.0638  -29.2466 H   0  0  0  0  0  0  0  0  0  0  0  0
   -3.4036   22.4316  -30.6622 H   0  0  0  0  0  0  0  0  0  0  0  0
   -4.6237   24.3728  -28.6474 H   0  0  0  0  0  0  0  0  0  0  0  0
   -2.8881   24.1115  -29.0531 H   0  0  0  0  0  0  0  0  0  0  0  0
   -3.3500   24.9260  -31.2690 H   0  0  0  0  0  0  0  0  0  0  0  0
   -5.8476   26.1693  -30.4560 H   0  0  0  0  0  0  0  0  0  0  0  0
   -5.2484   25.5895  -32.0894 H   0  0  0  0  0  0  0  0  0  0  0  0
   -6.8368   24.1460  -29.9992 H   0  0  0  0  0  0  0  0  0  0  0  0
   -6.9059   24.0742  -31.8056 H   0  0  0  0  0  0  0  0  0  0  0  0
   -2.3396   20.3942  -33.4642 H   0  0  0  0  0  0  0  0  0  0  0  0
  1  2  1  0
  2  3  1  0
  3  4  2  0
  4  5  1  0
  5  6  2  0
  6  7  1  0
  7  8  2  0
  8  9  1  0
  9 10  2  0
 10 11  1  0
 11 12  2  0
 12 13  1  0
 13 14  1  0
 14 15  1  0
 15 16  1  0
 16 17  1  0
 17 18  1  0
 18 19  1  0
 13 20  2  0
  4 21  1  0
 21 22  2  0
 22  2  1  0
 20  5  1  0
 12  7  1  0
 19 14  1  0
  1 23  1  0
  1 24  1  0
  1 25  1  0
  3 26  1  0
  6 27  1  0
  8 28  1  0
  9 29  1  0
 10 30  1  0
 11 31  1  0
 15 32  1  0
 15 33  1  0
 16 34  1  0
 16 35  1  0
 17 36  1  0
 18 37  1  0
 18 38  1  0
 19 39  1  0
 19 40  1  0
 21 41  1  0
M  CHG  1   9   1
M  END
>  <UniqueID>  (45) 
41

>  <SMILES>  (45) 
Cn1cc(-c2cc3c[nH+]ccc3c(N3CCNCC3)n2)cn1

>  <Energy>  (45) 
87.83302538182815

>  <Genealogy>  (45) 
Cn1cc(-c2cc3c[nH+]ccc3c(N3CCNCC3)n2)cn1 (protonated)
Cn1cc(-c2cc3c[nH+]ccc3c(N3CCNCC3)n2)cn1 (3D coordinates assigned)
Cn1cc(-c2cc3c[nH+]ccc3c(N3CCNCC3)n2)cn1 (nonaromatic ring conformer: 87.83302538182815 kcal/mol)

>  <smiles>  (45) 
Cn1cc(-c2cc3cnccc3c(N3CCNCC3)n2)cn1

>  <score_type>  (45) 
oracle

>  <origin>  (45) 
adg

>  <m_score__min__energy>  (45) 
-7.5

>  <m_primary>  (45) 
energy

$$$$
45:0
     RDKit          3D

 65 69  0  0  0  0  0  0  0  0999 V2000
   -6.5950   17.0640  -32.9250 C   0  0  0  0  0  0  0  0  0  0  0  0
   -6.1570   18.4940  -32.9180 C   0  0  0  0  0  0  0  0  0  0  0  0
   -7.0390   19.4870  -32.6030 N   0  0  0  0  0  0  0  0  0  0  0  0
   -6.6720   20.8110  -32.5860 C   0  0  0  0  0  0  0  0  0  0  0  0
   -7.6840   21.8760  -32.2090 C   0  0  0  0  0  0  0  0  0  0  0  0
   -7.2860   23.2650  -32.7420 C   0  0  0  0  0  0  0  0  0  0  0  0
   -6.2160   23.9390  -31.8760 C   0  0  0  0  0  0  0  0  0  0  0  0
   -6.6570   24.0150  -30.4720 N   0  0  0  0  0  0  0  0  0  0  0  0
   -5.4380   24.8350  -29.5300 S   0  0  0  0  0  0  0  0  0  0  0  0
   -4.5540   25.6320  -30.4510 O   0  0  0  0  0  0  0  0  0  0  0  0
   -6.1200   25.7940  -28.5920 O   0  0  0  0  0  0  0  0  0  0  0  0
   -4.4980   23.6480  -28.6330 N   0  0  0  0  0  0  0  0  0  0  0  0
   -3.6010   22.8650  -29.5060 C   0  0  0  0  0  0  0  0  0  0  0  0
   -2.2250   23.5380  -29.6910 C   0  0  0  0  0  0  0  0  0  0  0  0
   -2.2900   24.9140  -29.3860 O   0  0  0  0  0  0  0  0  0  0  0  0
   -2.5520   25.0900  -28.0060 C   0  0  0  0  0  0  0  0  0  0  0  0
   -3.7570   24.2540  -27.5140 C   0  0  0  0  0  0  0  0  0  0  0  0
   -6.8620   22.6660  -29.9160 C   0  0  0  0  0  0  0  0  0  0  0  0
   -7.9550   21.9170  -30.6910 C   0  0  0  0  0  0  0  0  0  0  0  0
   -5.3820   21.1630  -32.8980 N   0  0  0  0  0  0  0  0  0  0  0  0
   -4.5100   20.1780  -33.2310 C   0  0  0  0  0  0  0  0  0  0  0  0
   -4.8610   18.8710  -33.2460 C   0  0  0  0  0  0  0  0  0  0  0  0
   -3.8060   18.0980  -33.5630 N   0  0  0  0  0  0  0  0  0  0  0  0
   -2.8090   19.0090  -33.7360 C   0  0  0  0  0  0  0  0  0  0  0  0
   -1.4010   18.6030  -34.0590 C   0  0  0  0  0  0  0  0  0  0  0  0
   -0.4760   19.2300  -33.1690 O   0  0  0  0  0  0  0  0  0  0  0  0
   -0.5980   19.2750  -31.7710 C   0  0  0  0  0  0  0  0  0  0  0  0
   -1.2560   20.3230  -31.0970 C   0  0  0  0  0  0  0  0  0  0  0  0
   -1.3390   20.3200  -29.7010 C   0  0  0  0  0  0  0  0  0  0  0  0
   -0.7740   19.2730  -28.9660 C   0  0  0  0  0  0  0  0  0  0  0  0
   -0.8790   19.2730  -27.2160 Cl  0  0  0  0  0  0  0  0  0  0  0  0
   -0.1260   18.2260  -29.6300 C   0  0  0  0  0  0  0  0  0  0  0  0
   -0.0410   18.2280  -31.0250 C   0  0  0  0  0  0  0  0  0  0  0  0
   -3.2140   20.2980  -33.5580 N   0  0  0  0  0  0  0  0  0  0  0  0
   -2.4040   21.5140  -33.5690 C   0  0  0  0  0  0  0  0  0  0  0  0
   -6.7038   16.7088  -31.8896 H   0  0  0  0  0  0  0  0  0  0  0  0
   -7.5604   16.9788  -33.4453 H   0  0  0  0  0  0  0  0  0  0  0  0
   -5.8429   16.4527  -33.4453 H   0  0  0  0  0  0  0  0  0  0  0  0
   -8.6270   21.5914  -32.6987 H   0  0  0  0  0  0  0  0  0  0  0  0
   -6.8941   23.1523  -33.7636 H   0  0  0  0  0  0  0  0  0  0  0  0
   -8.1831   23.9013  -32.7221 H   0  0  0  0  0  0  0  0  0  0  0  0
   -5.2855   23.3550  -31.9315 H   0  0  0  0  0  0  0  0  0  0  0  0
   -6.0478   24.9595  -32.2505 H   0  0  0  0  0  0  0  0  0  0  0  0
   -3.4509   21.8716  -29.0581 H   0  0  0  0  0  0  0  0  0  0  0  0
   -4.0751   22.7935  -30.4960 H   0  0  0  0  0  0  0  0  0  0  0  0
   -1.4960   23.0556  -29.0233 H   0  0  0  0  0  0  0  0  0  0  0  0
   -1.9185   23.4260  -30.7415 H   0  0  0  0  0  0  0  0  0  0  0  0
   -1.6597   24.7890  -27.4375 H   0  0  0  0  0  0  0  0  0  0  0  0
   -2.7976   26.1505  -27.8478 H   0  0  0  0  0  0  0  0  0  0  0  0
   -3.3892   23.4531  -26.8558 H   0  0  0  0  0  0  0  0  0  0  0  0
   -4.4415   24.9263  -26.9760 H   0  0  0  0  0  0  0  0  0  0  0  0
   -5.9205   22.1012  -29.9837 H   0  0  0  0  0  0  0  0  0  0  0  0
   -7.1767   22.7615  -28.8663 H   0  0  0  0  0  0  0  0  0  0  0  0
   -8.0091   20.8847  -30.3148 H   0  0  0  0  0  0  0  0  0  0  0  0
   -8.9016   22.4555  -30.5361 H   0  0  0  0  0  0  0  0  0  0  0  0
   -5.0770   22.1610  -32.8770 H   0  0  0  0  0  0  0  0  0  0  0  0
   -1.3096   17.5110  -33.9637 H   0  0  0  0  0  0  0  0  0  0  0  0
   -1.1700   18.9180  -35.0873 H   0  0  0  0  0  0  0  0  0  0  0  0
   -1.7060   21.1464  -31.6710 H   0  0  0  0  0  0  0  0  0  0  0  0
   -1.8499   21.1431  -29.1799 H   0  0  0  0  0  0  0  0  0  0  0  0
    0.3170   17.4004  -29.0536 H   0  0  0  0  0  0  0  0  0  0  0  0
    0.4675   17.4006  -31.5416 H   0  0  0  0  0  0  0  0  0  0  0  0
   -2.1964   21.8256  -32.5347 H   0  0  0  0  0  0  0  0  0  0  0  0
   -1.4554   21.3180  -34.0903 H   0  0  0  0  0  0  0  0  0  0  0  0
   -2.9504   22.3138  -34.0903 H   0  0  0  0  0  0  0  0  0  0  0  0
  1  2  1  0
  2  3  2  0
  3  4  1  0
  4  5  1  0
  5  6  1  0
  6  7  1  0
  7  8  1  0
  8  9  1  0
  9 10  2  0
  9 11  2  0
  9 12  1  0
 12 13  1  0
 13 14  1  0
 14 15  1  0
 15 16  1  0
 16 17  1  0
  8 18  1  0
 18 19  1  0
  4 20  2  0
 20 21  1  0
 21 22  2  0
 22 23  1  0
 23 24  2  0
 24 25  1  0
 25 26  1  0
 26 27  1  0
 27 28  2  0
 28 29  1  0
 29 30  2  0
 30 31  1  0
 30 32  1  0
 32 33  2  0
 24 34  1  0
 34 35  1  0
 22  2  1  0
 33 27  1  0
 19  5  1  0
 34 21  1  0
 17 12  1  0
  1 36  1  0
  1 37  1  0
  1 38  1  0
  5 39  1  0
  6 40  1  0
  6 41  1  0
  7 42  1  0
  7 43  1  0
 13 44  1  0
 13 45  1  0
 14 46  1  0
 14 47  1  0
 16 48  1  0
 16 49  1  0
 17 50  1  0
 17 51  1  0
 18 52  1  0
 18 53  1  0
 19 54  1  0
 19 55  1  0
 20 56  1  0
 25 57  1  0
 25 58  1  0
 28 59  1  0
 29 60  1  0
 32 61  1  0
 33 62  1  0
 35 63  1  0
 35 64  1  0
 35 65  1  0
M  CHG  1  20   1
M  END
>  <UniqueID>  (46) 
42

>  <SMILES>  (46) 
Cc1nc(C2CCN(S(=O)(=O)N3CCOCC3)CC2)[nH+]c2c1nc(COc1ccc(Cl)cc1)n2C

>  <Energy>  (46) 
111.99793744429063

>  <Genealogy>  (46) 
Cc1nc(C2CCN(S(=O)(=O)N3CCOCC3)CC2)[nH+]c2c1nc(COc1ccc(Cl)cc1)n2C (protonated)
Cc1nc(C2CCN(S(=O)(=O)N3CCOCC3)CC2)[nH+]c2c1nc(COc1ccc(Cl)cc1)n2C (3D coordinates assigned)
Cc1nc(C2CCN(S(=O)(=O)N3CCOCC3)CC2)[nH+]c2c1nc(COc1ccc(Cl)cc1)n2C (nonaromatic ring conformer: 111.99793744429063 kcal/mol)

>  <smiles>  (46) 
Cc1nc(C2CCN(S(=O)(=O)N3CCOCC3)CC2)nc2c1nc(COc1ccc(Cl)cc1)n2C

>  <score_type>  (46) 
oracle

>  <origin>  (46) 
adg

>  <m_score__min__energy>  (46) 
-10.18

>  <m_primary>  (46) 
energy

$$$$
46:0
     RDKit          3D

 47 49  0  0  0  0  0  0  0  0999 V2000
   -6.3960   16.2100  -33.5270 C   0  0  0  0  0  0  0  0  0  0  0  0
   -6.8520   17.4590  -34.0380 O   0  0  0  0  0  0  0  0  0  0  0  0
   -6.4150   18.7120  -33.5800 C   0  0  0  0  0  0  0  0  0  0  0  0
   -7.3070   19.6730  -33.0680 C   0  0  0  0  0  0  0  0  0  0  0  0
   -6.8360   20.9100  -32.6200 C   0  0  0  0  0  0  0  0  0  0  0  0
   -7.7020   21.8260  -32.1230 N   0  0  0  0  0  0  0  0  0  0  0  0
   -7.2740   23.0340  -31.6810 C   0  0  0  0  0  0  0  0  0  0  0  0
   -5.9500   23.3670  -31.7350 N   0  0  0  0  0  0  0  0  0  0  0  0
   -5.5200   24.6740  -31.2110 C   0  0  0  0  0  0  0  0  0  0  0  0
   -4.7670   24.4950  -29.8940 C   0  0  0  0  0  0  0  0  0  0  0  0
   -3.5260   25.2660  -29.9230 N   0  0  0  0  0  0  0  0  0  0  0  0
   -2.2890   24.8760  -29.3100 C   0  0  0  0  0  0  0  0  0  0  0  0
   -1.4760   25.7750  -28.9680 O   0  0  0  0  0  0  0  0  0  0  0  0
   -1.9320   23.4590  -29.0790 C   0  0  0  0  0  0  0  0  0  0  0  0
   -1.8270   22.9670  -27.7680 C   0  0  0  0  0  0  0  0  0  0  0  0
   -1.4900   21.6300  -27.5430 C   0  0  0  0  0  0  0  0  0  0  0  0
   -1.2400   20.7760  -28.6200 C   0  0  0  0  0  0  0  0  0  0  0  0
   -1.3010   21.2630  -29.9340 C   0  0  0  0  0  0  0  0  0  0  0  0
   -1.0620   20.3390  -31.0920 C   0  0  0  0  0  0  0  0  0  0  0  0
   -1.6510   22.6040  -30.1590 C   0  0  0  0  0  0  0  0  0  0  0  0
   -5.0350   22.4650  -32.2180 C   0  0  0  0  0  0  0  0  0  0  0  0
   -3.8080   22.7610  -32.2480 O   0  0  0  0  0  0  0  0  0  0  0  0
   -5.4640   21.2070  -32.6800 C   0  0  0  0  0  0  0  0  0  0  0  0
   -4.5690   20.2490  -33.1900 C   0  0  0  0  0  0  0  0  0  0  0  0
   -5.0420   19.0010  -33.6400 C   0  0  0  0  0  0  0  0  0  0  0  0
   -4.1790   18.0200  -34.1550 O   0  0  0  0  0  0  0  0  0  0  0  0
   -2.7810   17.9540  -33.8910 C   0  0  0  0  0  0  0  0  0  0  0  0
   -6.4062   16.2380  -32.4274 H   0  0  0  0  0  0  0  0  0  0  0  0
   -7.0585   15.4057  -33.8795 H   0  0  0  0  0  0  0  0  0  0  0  0
   -5.3711   16.0218  -33.8795 H   0  0  0  0  0  0  0  0  0  0  0  0
   -8.3828   19.4486  -33.0202 H   0  0  0  0  0  0  0  0  0  0  0  0
   -8.0001   23.7535  -31.2747 H   0  0  0  0  0  0  0  0  0  0  0  0
   -4.8588   25.1592  -31.9441 H   0  0  0  0  0  0  0  0  0  0  0  0
   -6.4081   25.2983  -31.0336 H   0  0  0  0  0  0  0  0  0  0  0  0
   -5.3961   24.8472  -29.0632 H   0  0  0  0  0  0  0  0  0  0  0  0
   -4.5291   23.4302  -29.7542 H   0  0  0  0  0  0  0  0  0  0  0  0
   -2.0108   23.6368  -26.9150 H   0  0  0  0  0  0  0  0  0  0  0  0
   -1.4212   21.2482  -26.5137 H   0  0  0  0  0  0  0  0  0  0  0  0
   -0.9948   19.7194  -28.4371 H   0  0  0  0  0  0  0  0  0  0  0  0
   -0.8032   19.3384  -30.7153 H   0  0  0  0  0  0  0  0  0  0  0  0
   -1.9733   20.2757  -31.7048 H   0  0  0  0  0  0  0  0  0  0  0  0
   -0.2343   20.7255  -31.7048 H   0  0  0  0  0  0  0  0  0  0  0  0
   -1.7058   22.9885  -31.1881 H   0  0  0  0  0  0  0  0  0  0  0  0
   -3.4937   20.4758  -33.2376 H   0  0  0  0  0  0  0  0  0  0  0  0
   -2.6131   17.9461  -32.8039 H   0  0  0  0  0  0  0  0  0  0  0  0
   -2.3674   17.0353  -34.3326 H   0  0  0  0  0  0  0  0  0  0  0  0
   -2.2827   18.8296  -34.3326 H   0  0  0  0  0  0  0  0  0  0  0  0
  1  2  1  0
  2  3  1  0
  3  4  2  0
  4  5  1  0
  5  6  1  0
  6  7  2  0
  7  8  1  0
  8  9  1  0
  9 10  1  0
 10 11  1  0
 11 12  1  0
 12 13  2  0
 12 14  1  0
 14 15  2  0
 15 16  1  0
 16 17  2  0
 17 18  1  0
 18 19  1  0
 18 20  2  0
  8 21  1  0
 21 22  2  0
 21 23  1  0
 23 24  1  0
 24 25  2  0
 25 26  1  0
 26 27  1  0
 25  3  1  0
 23  5  2  0
 20 14  1  0
  1 28  1  0
  1 29  1  0
  1 30  1  0
  4 31  1  0
  7 32  1  0
  9 33  1  0
  9 34  1  0
 10 35  1  0
 10 36  1  0
 15 37  1  0
 16 38  1  0
 17 39  1  0
 19 40  1  0
 19 41  1  0
 19 42  1  0
 20 43  1  0
 24 44  1  0
 27 45  1  0
 27 46  1  0
 27 47  1  0
M  CHG  1  11  -1
M  END
>  <UniqueID>  (47) 
43

>  <SMILES>  (47) 
COc1cc2ncn(CC[N-]C(=O)c3cccc(C)c3)c(=O)c2cc1OC

>  <Energy>  (47) 
56.36103572609544

>  <Genealogy>  (47) 
COc1cc2ncn(CC[N-]C(=O)c3cccc(C)c3)c(=O)c2cc1OC (protonated)
COc1cc2ncn(CC[N-]C(=O)c3cccc(C)c3)c(=O)c2cc1OC (3D coordinates assigned)
COc1cc2ncn(CC[N-]C(=O)c3cccc(C)c3)c(=O)c2cc1OC (optimized conformer: 56.36103572609544 kcal/mol)

>  <smiles>  (47) 
COc1cc2ncn(CCNC(=O)c3cccc(C)c3)c(=O)c2cc1OC

>  <score_type>  (47) 
oracle

>  <origin>  (47) 
adg

>  <m_score__min__energy>  (47) 
-9.3100000000000005

>  <m_primary>  (47) 
energy

$$$$
