0:0
     RDKit          3D

 28 30  0  0  0  0  0  0  0  0999 V2000
   -2.2020   24.1900  -29.3000 C   0  0  0  0  0  0  0  0  0  0  0  0
   -3.1260   24.9230  -30.0980 O   0  0  0  0  0  0  0  0  0  0  0  0
   -4.4350   24.5040  -30.3820 C   0  0  0  0  0  0  0  0  0  0  0  0
   -5.5590   25.2980  -30.0920 C   0  0  0  0  0  0  0  0  0  0  0  0
   -6.8420   24.8350  -30.3950 C   0  0  0  0  0  0  0  0  0  0  0  0
   -7.0170   23.5810  -30.9850 C   0  0  0  0  0  0  0  0  0  0  0  0
   -5.9050   22.7740  -31.2810 C   0  0  0  0  0  0  0  0  0  0  0  0
   -6.0880   21.4450  -31.9060 C   0  0  0  0  0  0  0  0  0  0  0  0
   -5.3300   21.0070  -32.9490 N   0  0  0  0  0  0  0  0  0  0  0  0
   -5.8300   19.7870  -33.1850 C   0  0  0  0  0  0  0  0  0  0  0  0
   -5.4280   18.8720  -34.1560 C   0  0  0  0  0  0  0  0  0  0  0  0
   -6.1070   17.6400  -34.2140 C   0  0  0  0  0  0  0  0  0  0  0  0
   -7.1590   17.3600  -33.3100 C   0  0  0  0  0  0  0  0  0  0  0  0
   -7.5370   18.3110  -32.3430 C   0  0  0  0  0  0  0  0  0  0  0  0
   -6.8420   19.5170  -32.3150 C   0  0  0  0  0  0  0  0  0  0  0  0
   -7.0290   20.5560  -31.4890 N   0  0  0  0  0  0  0  0  0  0  0  0
   -4.6160   23.2470  -30.9730 C   0  0  0  0  0  0  0  0  0  0  0  0
   -2.4194   24.3625  -28.2356 H   0  0  0  0  0  0  0  0  0  0  0  0
   -2.2946   23.1170  -29.5240 H   0  0  0  0  0  0  0  0  0  0  0  0
   -1.1782   24.5243  -29.5240 H   0  0  0  0  0  0  0  0  0  0  0  0
   -5.4278   26.2856  -29.6257 H   0  0  0  0  0  0  0  0  0  0  0  0
   -7.7179   25.4606  -30.1680 H   0  0  0  0  0  0  0  0  0  0  0  0
   -8.0305   23.2232  -31.2192 H   0  0  0  0  0  0  0  0  0  0  0  0
   -4.6090   19.1041  -34.8527 H   0  0  0  0  0  0  0  0  0  0  0  0
   -5.8182   16.8911  -34.9661 H   0  0  0  0  0  0  0  0  0  0  0  0
   -7.6839   16.3948  -33.3630 H   0  0  0  0  0  0  0  0  0  0  0  0
   -8.3533   18.1081  -31.6341 H   0  0  0  0  0  0  0  0  0  0  0  0
   -3.7396   22.6219  -31.1992 H   0  0  0  0  0  0  0  0  0  0  0  0
  1  2  1  0
  2  3  1  0
  3  4  2  0
  4  5  1  0
  5  6  2  0
  6  7  1  0
  7  8  1  0
  8  9  2  0
  9 10  1  0
 10 11  2  0
 11 12  1  0
 12 13  2  0
 13 14  1  0
 14 15  2  0
 15 16  1  0
  7 17  2  0
 17  3  1  0
 16  8  1  0
 15 10  1  0
  1 18  1  0
  1 19  1  0
  1 20  1  0
  4 21  1  0
  5 22  1  0
  6 23  1  0
 11 24  1  0
 12 25  1  0
 13 26  1  0
 14 27  1  0
 17 28  1  0
M  CHG  1  16  -1
M  END
>  <UniqueID>  (1) 
1

>  <SMILES>  (1) 
COc1cccc(-c2nc3ccccc3[n-]2)c1

>  <Energy>  (1) 
65.49655480354151

>  <Genealogy>  (1) 
COc1cccc(-c2nc3ccccc3[n-]2)c1 (protonated)
COc1cccc(-c2nc3ccccc3[n-]2)c1 (3D coordinates assigned)
COc1cccc(-c2nc3ccccc3[n-]2)c1 (optimized conformer: 65.49655480354151 kcal/mol)

>  <smiles>  (1) 
COc1cccc(-c2nc3ccccc3[nH]2)c1

>  <score_type>  (1) 
oracle

>  <origin>  (1) 
adg

>  <m_score__min__energy>  (1) 
-7.2599999999999998

>  <m_primary>  (1) 
energy

$$$$
1:0
     RDKit          3D

 53 54  0  0  0  0  0  0  0  0999 V2000
   -7.1680   17.9000  -31.7750 C   0  0  0  0  0  0  0  0  0  0  0  0
   -8.5750   18.5010  -31.9010 C   0  0  0  0  0  0  0  0  0  0  0  0
   -8.6130   19.6500  -32.8420 N   0  0  2  0  0  0  0  0  0  0  0  0
   -7.2390   20.1400  -33.0710 C   0  0  0  0  0  0  0  0  0  0  0  0
   -9.4730   20.7470  -32.3180 C   0  0  0  0  0  0  0  0  0  0  0  0
   -8.7050   21.6670  -31.3500 C   0  0  0  0  0  0  0  0  0  0  0  0
   -8.3540   23.0530  -31.9460 C   0  0  0  0  0  0  0  0  0  0  0  0
   -7.0800   23.6580  -31.4890 N   0  0  0  0  0  0  0  0  0  0  0  0
   -7.0270   24.0190  -30.0590 C   0  0  0  0  0  0  0  0  0  0  0  0
   -5.8770   25.0070  -29.7910 C   0  0  0  0  0  0  0  0  0  0  0  0
   -4.7060   24.8550  -30.7840 C   0  0  0  0  0  0  0  0  0  0  0  0
   -3.5060   25.2510  -30.1390 O   0  0  0  0  0  0  0  0  0  0  0  0
   -2.7480   24.1320  -29.7200 C   0  0  0  0  0  0  0  0  0  0  0  0
   -2.0320   24.4320  -28.4200 C   0  0  0  0  0  0  0  0  0  0  0  0
   -1.4310   25.6940  -28.2660 C   0  0  0  0  0  0  0  0  0  0  0  0
   -0.7430   26.0140  -27.0940 C   0  0  0  0  0  0  0  0  0  0  0  0
   -0.6450   25.0810  -26.0620 C   0  0  0  0  0  0  0  0  0  0  0  0
   -1.2340   23.8220  -26.1990 C   0  0  0  0  0  0  0  0  0  0  0  0
   -1.9270   23.4870  -27.3710 C   0  0  0  0  0  0  0  0  0  0  0  0
   -2.5140   22.1720  -27.4690 C   0  0  0  0  0  0  0  0  0  0  0  0
   -2.9860   21.1180  -27.5480 N   0  0  0  0  0  0  0  0  0  0  0  0
   -4.5900   23.3970  -31.2510 C   0  0  0  0  0  0  0  0  0  0  0  0
   -5.8720   22.9550  -31.9810 C   0  0  0  0  0  0  0  0  0  0  0  0
   -6.9102   17.7899  -30.7113 H   0  0  0  0  0  0  0  0  0  0  0  0
   -7.1456   16.9138  -32.2617 H   0  0  0  0  0  0  0  0  0  0  0  0
   -6.4400   18.5657  -32.2617 H   0  0  0  0  0  0  0  0  0  0  0  0
   -9.2614   17.7223  -32.2650 H   0  0  0  0  0  0  0  0  0  0  0  0
   -8.8753   18.8678  -30.9084 H   0  0  0  0  0  0  0  0  0  0  0  0
   -8.9820   19.3160  -33.7640 H   0  0  0  0  0  0  0  0  0  0  0  0
   -6.7463   20.3157  -32.1033 H   0  0  0  0  0  0  0  0  0  0  0  0
   -6.6719   19.3887  -33.6401 H   0  0  0  0  0  0  0  0  0  0  0  0
   -7.2752   21.0806  -33.6401 H   0  0  0  0  0  0  0  0  0  0  0  0
   -9.8386   21.3472  -33.1642 H   0  0  0  0  0  0  0  0  0  0  0  0
  -10.3075   20.2912  -31.7650 H   0  0  0  0  0  0  0  0  0  0  0  0
   -9.3248   21.8221  -30.4546 H   0  0  0  0  0  0  0  0  0  0  0  0
   -7.7520   21.1668  -31.1229 H   0  0  0  0  0  0  0  0  0  0  0  0
   -8.3009   22.9446  -33.0394 H   0  0  0  0  0  0  0  0  0  0  0  0
   -9.1450   23.7328  -31.5964 H   0  0  0  0  0  0  0  0  0  0  0  0
   -7.9797   24.4860  -29.7686 H   0  0  0  0  0  0  0  0  0  0  0  0
   -6.8548   23.1065  -29.4694 H   0  0  0  0  0  0  0  0  0  0  0  0
   -6.2704   26.0314  -29.8675 H   0  0  0  0  0  0  0  0  0  0  0  0
   -5.4856   24.7906  -28.7860 H   0  0  0  0  0  0  0  0  0  0  0  0
   -4.8861   25.4892  -31.6645 H   0  0  0  0  0  0  0  0  0  0  0  0
   -3.4205   23.2740  -29.5730 H   0  0  0  0  0  0  0  0  0  0  0  0
   -1.9999   23.9002  -30.4924 H   0  0  0  0  0  0  0  0  0  0  0  0
   -1.5035   26.4352  -29.0756 H   0  0  0  0  0  0  0  0  0  0  0  0
   -0.2771   27.0044  -26.9843 H   0  0  0  0  0  0  0  0  0  0  0  0
   -0.1034   25.3369  -25.1394 H   0  0  0  0  0  0  0  0  0  0  0  0
   -1.1538   23.0890  -25.3827 H   0  0  0  0  0  0  0  0  0  0  0  0
   -3.7343   23.3043  -31.9360 H   0  0  0  0  0  0  0  0  0  0  0  0
   -4.4454   22.7542  -30.3701 H   0  0  0  0  0  0  0  0  0  0  0  0
   -5.7557   23.1640  -33.0547 H   0  0  0  0  0  0  0  0  0  0  0  0
   -6.0107   21.8808  -31.7890 H   0  0  0  0  0  0  0  0  0  0  0  0
  1  2  1  0
  2  3  1  0
  3  4  1  0
  3  5  1  0
  5  6  1  0
  6  7  1  0
  7  8  1  0
  8  9  1  0
  9 10  1  0
 10 11  1  0
 11 12  1  0
 12 13  1  0
 13 14  1  0
 14 15  2  0
 15 16  1  0
 16 17  2  0
 17 18  1  0
 18 19  2  0
 19 20  1  0
 20 21  3  0
 11 22  1  0
 22 23  1  0
 23  8  1  0
 19 14  1  0
  1 24  1  0
  1 25  1  0
  1 26  1  0
  2 27  1  0
  2 28  1  0
  3 29  1  6
  4 30  1  0
  4 31  1  0
  4 32  1  0
  5 33  1  0
  5 34  1  0
  6 35  1  0
  6 36  1  0
  7 37  1  0
  7 38  1  0
  9 39  1  0
  9 40  1  0
 10 41  1  0
 10 42  1  0
 11 43  1  0
 13 44  1  0
 13 45  1  0
 15 46  1  0
 16 47  1  0
 17 48  1  0
 18 49  1  0
 22 50  1  0
 22 51  1  0
 23 52  1  0
 23 53  1  0
M  CHG  1   3   1
M  END
>  <UniqueID>  (2) 
2

>  <SMILES>  (2) 
CC[N@H+](C)CCCN1CCC(OCc2ccccc2C#N)CC1

>  <Energy>  (2) 
65.74115227527355

>  <Genealogy>  (2) 
CC[NH+](C)CCCN1CCC(OCc2ccccc2C#N)CC1 (protonated)
CC[N@H+](C)CCCN1CCC(OCc2ccccc2C#N)CC1 (chirality)
CC[N@H+](C)CCCN1CCC(OCc2ccccc2C#N)CC1 (3D coordinates assigned)
CC[N@H+](C)CCCN1CCC(OCc2ccccc2C#N)CC1 (nonaromatic ring conformer: 65.74115227527355 kcal/mol)

>  <smiles>  (2) 
CCN(C)CCCN1CCC(OCc2ccccc2C#N)CC1

>  <score_type>  (2) 
oracle

>  <origin>  (2) 
adg

>  <m_score__min__energy>  (2) 
-7.8399999999999999

>  <m_primary>  (2) 
energy

$$$$
2:0
     RDKit          3D

 54 57  0  0  0  0  0  0  0  0999 V2000
   -0.3190   16.8190  -34.2190 C   0  0  0  0  0  0  0  0  0  0  0  0
   -0.5070   17.2090  -32.8630 O   0  0  0  0  0  0  0  0  0  0  0  0
   -1.1670   18.3750  -32.4360 C   0  0  0  0  0  0  0  0  0  0  0  0
   -2.5180   18.6040  -32.7450 C   0  0  0  0  0  0  0  0  0  0  0  0
   -3.1980   19.7660  -32.3090 C   0  0  0  0  0  0  0  0  0  0  0  0
   -4.5800   19.9470  -32.5830 C   0  0  0  0  0  0  0  0  0  0  0  0
   -5.2020   21.1620  -32.2500 C   0  0  0  0  0  0  0  0  0  0  0  0
   -4.5030   22.1630  -31.5550 C   0  0  0  0  0  0  0  0  0  0  0  0
   -5.1630   23.3570  -31.2020 C   0  0  0  0  0  0  0  0  0  0  0  0
   -4.5120   24.3570  -30.4680 C   0  0  0  0  0  0  0  0  0  0  0  0
   -5.1550   25.5500  -30.0890 O   0  0  0  0  0  0  0  0  0  0  0  0
   -6.3810   25.6190  -29.3700 C   0  0  0  0  0  0  0  0  0  0  0  0
   -3.1810   24.1750  -30.0830 C   0  0  0  0  0  0  0  0  0  0  0  0
   -2.5660   25.1940  -29.3350 O   0  0  0  0  0  0  0  0  0  0  0  0
   -1.9320   25.0120  -28.0750 C   0  0  0  0  0  0  0  0  0  0  0  0
   -2.5070   22.9970  -30.4460 C   0  0  0  0  0  0  0  0  0  0  0  0
   -3.1440   21.9700  -31.1930 C   0  0  0  0  0  0  0  0  0  0  0  0
   -2.4780   20.7650  -31.5930 C   0  0  0  0  0  0  0  0  0  0  0  0
   -1.1100   20.5220  -31.3090 C   0  0  0  0  0  0  0  0  0  0  0  0
   -0.4610   19.3440  -31.6960 C   0  0  0  0  0  0  0  0  0  0  0  0
    0.8880   19.2120  -31.3140 O   0  0  0  0  0  0  0  0  0  0  0  0
    1.4080   18.3100  -30.3440 C   0  0  0  0  0  0  0  0  0  0  0  0
   -6.5460   21.3600  -32.5870 O   0  0  0  0  0  0  0  0  0  0  0  0
   -7.2590   20.4400  -33.4050 C   0  0  0  0  0  0  0  0  0  0  0  0
   -6.8880   19.0590  -33.0620 N   0  0  0  0  0  0  0  0  0  0  0  0
   -7.3220   18.6940  -31.6930 C   0  0  0  0  0  0  0  0  0  0  0  0
   -8.8470   18.7690  -31.5800 C   0  0  0  0  0  0  0  0  0  0  0  0
   -9.4210   18.9370  -32.8460 O   0  0  0  0  0  0  0  0  0  0  0  0
   -5.4310   18.8680  -33.2530 C   0  0  0  0  0  0  0  0  0  0  0  0
    0.1584   15.8286  -34.2529 H   0  0  0  0  0  0  0  0  0  0  0  0
   -1.2941   16.7735  -34.7260 H   0  0  0  0  0  0  0  0  0  0  0  0
    0.3240   17.5535  -34.7260 H   0  0  0  0  0  0  0  0  0  0  0  0
   -3.0630   17.8588  -33.3430 H   0  0  0  0  0  0  0  0  0  0  0  0
   -6.2088   23.5066  -31.5085 H   0  0  0  0  0  0  0  0  0  0  0  0
   -6.1737   25.6073  -28.2898 H   0  0  0  0  0  0  0  0  0  0  0  0
   -6.9080   26.5482  -29.6322 H   0  0  0  0  0  0  0  0  0  0  0  0
   -7.0090   24.7548  -29.6322 H   0  0  0  0  0  0  0  0  0  0  0  0
   -2.6517   25.2186  -27.2692 H   0  0  0  0  0  0  0  0  0  0  0  0
   -1.5748   23.9750  -27.9906 H   0  0  0  0  0  0  0  0  0  0  0  0
   -1.0792   25.7016  -27.9906 H   0  0  0  0  0  0  0  0  0  0  0  0
   -1.4575   22.8662  -30.1436 H   0  0  0  0  0  0  0  0  0  0  0  0
   -0.5379   21.2876  -30.7645 H   0  0  0  0  0  0  0  0  0  0  0  0
    1.1889   18.6900  -29.3353 H   0  0  0  0  0  0  0  0  0  0  0  0
    0.9404   17.3228  -30.4735 H   0  0  0  0  0  0  0  0  0  0  0  0
    2.4966   18.2199  -30.4735 H   0  0  0  0  0  0  0  0  0  0  0  0
   -8.3391   20.5755  -33.2472 H   0  0  0  0  0  0  0  0  0  0  0  0
   -7.0060   20.6274  -34.4590 H   0  0  0  0  0  0  0  0  0  0  0  0
   -6.9917   17.6689  -31.4691 H   0  0  0  0  0  0  0  0  0  0  0  0
   -6.8755   19.3994  -30.9767 H   0  0  0  0  0  0  0  0  0  0  0  0
   -9.2237   17.8379  -31.1315 H   0  0  0  0  0  0  0  0  0  0  0  0
   -9.1169   19.6281  -30.9482 H   0  0  0  0  0  0  0  0  0  0  0  0
   -8.7390   18.6400  -33.5100 H   0  0  0  0  0  0  0  0  0  0  0  0
   -5.1499   17.8916  -32.8315 H   0  0  0  0  0  0  0  0  0  0  0  0
   -5.2364   18.9282  -34.3340 H   0  0  0  0  0  0  0  0  0  0  0  0
  1  2  1  0
  2  3  1  0
  3  4  2  0
  4  5  1  0
  5  6  2  0
  6  7  1  0
  7  8  2  0
  8  9  1  0
  9 10  2  0
 10 11  1  0
 11 12  1  0
 10 13  1  0
 13 14  1  0
 14 15  1  0
 13 16  2  0
 16 17  1  0
 17 18  2  0
 18 19  1  0
 19 20  2  0
 20 21  1  0
 21 22  1  0
  7 23  1  0
 23 24  1  0
 24 25  1  0
 25 26  1  0
 26 27  1  0
 27 28  1  0
 25 29  1  0
 20  3  1  0
 18  5  1  0
 29  6  1  0
 17  8  1  0
  1 30  1  0
  1 31  1  0
  1 32  1  0
  4 33  1  0
  9 34  1  0
 12 35  1  0
 12 36  1  0
 12 37  1  0
 15 38  1  0
 15 39  1  0
 15 40  1  0
 16 41  1  0
 19 42  1  0
 22 43  1  0
 22 44  1  0
 22 45  1  0
 24 46  1  0
 24 47  1  0
 26 48  1  0
 26 49  1  0
 27 50  1  0
 27 51  1  0
 28 52  1  0
 29 53  1  0
 29 54  1  0
M  END
>  <UniqueID>  (3) 
3

>  <SMILES>  (3) 
COc1cc2c3c(c4cc(OC)c(OC)cc4c2cc1OC)OCN(CCO)C3

>  <Energy>  (3) 
78.99763960868387

>  <Genealogy>  (3) 
COc1cc2c3c(c4cc(OC)c(OC)cc4c2cc1OC)OCN(CCO)C3 (3D coordinates assigned)
COc1cc2c3c(c4cc(OC)c(OC)cc4c2cc1OC)OCN(CCO)C3 (nonaromatic ring conformer: 78.99763960868387 kcal/mol)

>  <smiles>  (3) 
COc1cc2c3c(c4cc(OC)c(OC)cc4c2cc1OC)OCN(CCO)C3

>  <score_type>  (3) 
oracle

>  <origin>  (3) 
adg

>  <m_score__min__energy>  (3) 
-8.1699999999999999

>  <m_primary>  (3) 
energy

$$$$
3:0
     RDKit          3D

 61 65  0  0  0  0  0  0  0  0999 V2000
   -0.5774   20.0179  -30.8437 H   0  0  0  0  0  0  0  0  0  0  0  0
   -1.3020   19.7690  -31.6330 C   0  0  0  0  0  0  0  0  0  0  0  0
   -1.2740   18.5040  -32.2290 C   0  0  0  0  0  0  0  0  0  0  0  0
   -0.5410   17.7573  -31.8898 H   0  0  0  0  0  0  0  0  0  0  0  0
   -2.1750   18.1790  -33.2580 C   0  0  0  0  0  0  0  0  0  0  0  0
   -2.1440   16.8780  -33.8790 N   0  0  0  0  0  0  0  0  0  0  0  0
   -2.5130   16.7400  -35.2960 C   0  0  0  0  0  0  0  0  0  0  0  0
   -1.8627   17.3886  -35.9014 H   0  0  0  0  0  0  0  0  0  0  0  0
   -3.5670   17.0322  -35.4126 H   0  0  0  0  0  0  0  0  0  0  0  0
   -2.3540   15.2870  -35.7700 C   0  0  0  0  0  0  0  0  0  0  0  0
   -2.3180   15.2719  -36.8693 H   0  0  0  0  0  0  0  0  0  0  0  0
   -3.2115   14.7075  -35.3973 H   0  0  0  0  0  0  0  0  0  0  0  0
   -1.1170   14.6750  -35.2410 N   0  0  0  0  0  0  0  0  0  0  0  0
    0.0930   15.2910  -35.8190 C   0  0  0  0  0  0  0  0  0  0  0  0
    0.7556   15.6283  -35.0084 H   0  0  0  0  0  0  0  0  0  0  0  0
    0.6201   14.5515  -36.4397 H   0  0  0  0  0  0  0  0  0  0  0  0
   -0.1948   16.1523  -36.4397 H   0  0  0  0  0  0  0  0  0  0  0  0
   -1.0650   14.6460  -33.7560 C   0  0  0  0  0  0  0  0  0  0  0  0
   -0.0308   14.8541  -33.4443 H   0  0  0  0  0  0  0  0  0  0  0  0
   -1.4140   13.6487  -33.4502 H   0  0  0  0  0  0  0  0  0  0  0  0
   -1.9920   15.6670  -33.0630 C   0  0  0  0  0  0  0  0  0  0  0  0
   -1.5607   15.9413  -32.0890 H   0  0  0  0  0  0  0  0  0  0  0  0
   -2.9825   15.2073  -32.9301 H   0  0  0  0  0  0  0  0  0  0  0  0
   -3.0990   19.1510  -33.6820 C   0  0  0  0  0  0  0  0  0  0  0  0
   -3.8033   18.9164  -34.4937 H   0  0  0  0  0  0  0  0  0  0  0  0
   -3.1300   20.4120  -33.0810 C   0  0  0  0  0  0  0  0  0  0  0  0
   -3.8512   21.1650  -33.4316 H   0  0  0  0  0  0  0  0  0  0  0  0
   -2.2530   20.7260  -32.0380 C   0  0  0  0  0  0  0  0  0  0  0  0
   -2.3040   22.0510  -31.4780 N   0  0  0  0  0  0  0  0  0  0  0  0
   -3.3640   22.7100  -31.1120 C   0  0  0  0  0  0  0  0  0  0  0  0
   -4.6050   22.1640  -31.0110 N   0  0  0  0  0  0  0  0  0  0  0  0
   -5.3290   23.2330  -30.6350 C   0  0  0  0  0  0  0  0  0  0  0  0
   -6.7010   23.2630  -30.3550 C   0  0  0  0  0  0  0  0  0  0  0  0
   -7.5100   22.0730  -30.4220 N   0  0  0  0  0  0  0  0  0  0  0  0
   -6.9560   21.2510  -30.0810 H   0  0  0  0  0  0  0  0  0  0  0  0
   -8.3450   22.1820  -29.7990 H   0  0  0  0  0  0  0  0  0  0  0  0
   -7.9460   21.8380  -31.8060 C   0  0  0  0  0  0  0  0  0  0  0  0
   -9.0453   21.8435  -31.8456 H   0  0  0  0  0  0  0  0  0  0  0  0
   -7.5407   22.6341  -32.4479 H   0  0  0  0  0  0  0  0  0  0  0  0
   -7.4380   20.5070  -32.2980 C   0  0  0  0  0  0  0  0  0  0  0  0
   -6.6460   20.4360  -33.4540 C   0  0  0  0  0  0  0  0  0  0  0  0
   -6.3678   21.3590  -33.9837 H   0  0  0  0  0  0  0  0  0  0  0  0
   -6.2080   19.1980  -33.9370 C   0  0  0  0  0  0  0  0  0  0  0  0
   -5.5915   19.1525  -34.8469 H   0  0  0  0  0  0  0  0  0  0  0  0
   -6.5520   18.0120  -33.2650 C   0  0  0  0  0  0  0  0  0  0  0  0
   -6.1290   16.6720  -33.8170 C   0  0  0  0  0  0  0  0  0  0  0  0
   -7.2550   15.9270  -34.1140 F   0  0  0  0  0  0  0  0  0  0  0  0
   -5.3770   16.8320  -34.9690 F   0  0  0  0  0  0  0  0  0  0  0  0
   -5.3630   15.9840  -32.8920 F   0  0  0  0  0  0  0  0  0  0  0  0
   -7.3790   18.0840  -32.1300 C   0  0  0  0  0  0  0  0  0  0  0  0
   -7.6850   17.1602  -31.6172 H   0  0  0  0  0  0  0  0  0  0  0  0
   -7.8150   19.3230  -31.6490 C   0  0  0  0  0  0  0  0  0  0  0  0
   -8.4570   19.3685  -30.7569 H   0  0  0  0  0  0  0  0  0  0  0  0
   -7.2440   24.5000  -29.9460 C   0  0  0  0  0  0  0  0  0  0  0  0
   -8.3131   24.5714  -29.6972 H   0  0  0  0  0  0  0  0  0  0  0  0
   -6.4260   25.6450  -29.8540 C   0  0  0  0  0  0  0  0  0  0  0  0
   -6.8556   26.6091  -29.5444 H   0  0  0  0  0  0  0  0  0  0  0  0
   -5.0610   25.5460  -30.1600 C   0  0  0  0  0  0  0  0  0  0  0  0
   -4.4024   26.4250  -30.0994 H   0  0  0  0  0  0  0  0  0  0  0  0
   -4.5760   24.3350  -30.5330 N   0  0  0  0  0  0  0  0  0  0  0  0
   -3.3290   24.0330  -30.8340 N   0  0  0  0  0  0  0  0  0  0  0  0
  1  2  1  0
  2  3  2  0
  3  4  1  0
  3  5  1  0
  5  6  1  0
  6  7  1  0
  7  8  1  0
  7  9  1  0
  7 10  1  0
 10 11  1  0
 10 12  1  0
 10 13  1  0
 13 14  1  0
 14 15  1  0
 14 16  1  0
 14 17  1  0
 13 18  1  0
 18 19  1  0
 18 20  1  0
 18 21  1  0
 21 22  1  0
 21 23  1  0
  5 24  2  0
 24 25  1  0
 24 26  1  0
 26 27  1  0
 26 28  2  0
 28 29  1  0
 29 30  2  0
 30 31  1  0
 31 32  2  0
 32 33  1  0
 33 34  1  0
 34 35  1  0
 34 36  1  0
 34 37  1  0
 37 38  1  0
 37 39  1  0
 37 40  1  0
 40 41  2  0
 41 42  1  0
 41 43  1  0
 43 44  1  0
 43 45  2  0
 45 46  1  0
 46 47  1  0
 46 48  1  0
 46 49  1  0
 45 50  1  0
 50 51  1  0
 50 52  2  0
 52 53  1  0
 33 54  2  0
 54 55  1  0
 54 56  1  0
 56 57  1  0
 56 58  2  0
 58 59  1  0
 58 60  1  0
 60 61  1  0
 28  2  1  0
 61 30  1  0
 21  6  1  0
 60 32  1  0
 52 40  1  0
M  CHG  2  34   1  61  -1
M  END
>  <UniqueID>  (4) 
4

>  <SMILES>  (4) 
CN1CCN(c2ccc(/N=c3\nc4c([NH2+]Cc5ccc(C(F)(F)F)cc5)cccn4[n-]3)cc2)CC1

>  <Energy>  (4) 
121.41762929393636

>  <Genealogy>  (4) 
CN1CCN(c2ccc(N=c3nc4c([NH2+]Cc5ccc(C(F)(F)F)cc5)cccn4[n-]3)cc2)CC1 (protonated)
CN1CCN(c2ccc(/N=c3\nc4c([NH2+]Cc5ccc(C(F)(F)F)cc5)cccn4[n-]3)cc2)CC1 (cis-trans isomerization)
CN1CCN(c2ccc(/N=c3\nc4c([NH2+]Cc5ccc(C(F)(F)F)cc5)cccn4[n-]3)cc2)CC1 (3D coordinates assigned)
CN1CCN(c2ccc(/N=c3\nc4c([NH2+]Cc5ccc(C(F)(F)F)cc5)cccn4[n-]3)cc2)CC1 (nonaromatic ring conformer: 121.41762929393636 kcal/mol)

>  <smiles>  (4) 
CN1CCN(c2ccc(N=c3nc4c(NCc5ccc(C(F)(F)F)cc5)cccn4[nH]3)cc2)CC1

>  <score_type>  (4) 
oracle

>  <origin>  (4) 
adg

>  <m_score__min__energy>  (4) 
-8.9900000000000002

>  <m_primary>  (4) 
energy

$$$$
4:0
     RDKit          3D

 45 47  0  0  0  0  0  0  0  0999 V2000
   -1.9790   25.2630  -27.9410 C   0  0  0  0  0  0  0  0  0  0  0  0
   -2.3980   25.2960  -29.3010 O   0  0  0  0  0  0  0  0  0  0  0  0
   -3.4220   24.4990  -29.8390 C   0  0  0  0  0  0  0  0  0  0  0  0
   -4.6440   25.0520  -30.2730 C   0  0  0  0  0  0  0  0  0  0  0  0
   -5.6400   24.2330  -30.8080 C   0  0  0  0  0  0  0  0  0  0  0  0
   -5.4370   22.8530  -30.9160 C   0  0  0  0  0  0  0  0  0  0  0  0
   -6.6730   21.8160  -31.6270 S   0  0  0  0  0  0  0  0  0  0  0  0
   -7.6840   21.4820  -30.5660 O   0  0  0  0  0  0  0  0  0  0  0  0
   -7.3730   22.5430  -32.7420 O   0  0  0  0  0  0  0  0  0  0  0  0
   -5.9350   20.3520  -32.2420 N   0  0  2  0  0  0  0  0  0  0  0  0
   -4.8010   20.7170  -33.1180 C   0  0  0  0  0  0  0  0  0  0  0  0
   -4.1500   19.4690  -33.6580 C   0  0  0  0  0  0  0  0  0  0  0  0
   -2.7540   19.2640  -33.6830 C   0  0  0  0  0  0  0  0  0  0  0  0
   -1.6160   20.4680  -33.0900 Cl  0  0  0  0  0  0  0  0  0  0  0  0
   -2.2420   18.0670  -34.2010 C   0  0  0  0  0  0  0  0  0  0  0  0
   -3.1050   17.0870  -34.7010 C   0  0  0  0  0  0  0  0  0  0  0  0
   -4.4850   17.2970  -34.6910 C   0  0  0  0  0  0  0  0  0  0  0  0
   -5.0080   18.4850  -34.1610 C   0  0  0  0  0  0  0  0  0  0  0  0
   -6.4800   18.7820  -34.2020 C   0  0  0  0  0  0  0  0  0  0  0  0
   -6.9660   19.4740  -32.8960 C   0  0  1  0  0  0  0  0  0  0  0  0
   -7.4710   18.4060  -31.9060 C   0  0  0  0  0  0  0  0  0  0  0  0
   -4.2260   22.2960  -30.4920 C   0  0  0  0  0  0  0  0  0  0  0  0
   -3.2180   23.1100  -29.9490 C   0  0  0  0  0  0  0  0  0  0  0  0
   -1.9170   22.5010  -29.5060 C   0  0  0  0  0  0  0  0  0  0  0  0
   -2.8589   25.3323  -27.2845 H   0  0  0  0  0  0  0  0  0  0  0  0
   -1.4477   24.3202  -27.7438 H   0  0  0  0  0  0  0  0  0  0  0  0
   -1.3067   26.1110  -27.7438 H   0  0  0  0  0  0  0  0  0  0  0  0
   -4.8138   26.1356  -30.1896 H   0  0  0  0  0  0  0  0  0  0  0  0
   -6.5889   24.6748  -31.1462 H   0  0  0  0  0  0  0  0  0  0  0  0
   -5.5240   19.8610  -31.4120 H   0  0  0  0  0  0  0  0  0  0  0  0
   -5.1685   21.3286  -33.9552 H   0  0  0  0  0  0  0  0  0  0  0  0
   -4.0628   21.2891  -32.5368 H   0  0  0  0  0  0  0  0  0  0  0  0
   -1.1552   17.8973  -34.2144 H   0  0  0  0  0  0  0  0  0  0  0  0
   -2.6956   16.1485  -35.1031 H   0  0  0  0  0  0  0  0  0  0  0  0
   -5.1614   16.5312  -35.0985 H   0  0  0  0  0  0  0  0  0  0  0  0
   -6.6857   19.4459  -35.0546 H   0  0  0  0  0  0  0  0  0  0  0  0
   -7.0186   17.8284  -34.3047 H   0  0  0  0  0  0  0  0  0  0  0  0
   -7.7840   20.1498  -33.1861 H   0  0  0  0  0  0  0  0  0  0  0  0
   -7.3064   18.7541  -30.8756 H   0  0  0  0  0  0  0  0  0  0  0  0
   -8.5455   18.2348  -32.0679 H   0  0  0  0  0  0  0  0  0  0  0  0
   -6.9216   17.4669  -32.0679 H   0  0  0  0  0  0  0  0  0  0  0  0
   -4.0617   21.2123  -30.5845 H   0  0  0  0  0  0  0  0  0  0  0  0
   -1.8765   22.4820  -28.4069 H   0  0  0  0  0  0  0  0  0  0  0  0
   -1.8420   21.4742  -29.8935 H   0  0  0  0  0  0  0  0  0  0  0  0
   -1.0805   23.1011  -29.8935 H   0  0  0  0  0  0  0  0  0  0  0  0
  1  2  1  0
  2  3  1  0
  3  4  2  0
  4  5  1  0
  5  6  2  0
  6  7  1  0
  7  8  2  0
  7  9  2  0
  7 10  1  0
 10 11  1  0
 11 12  1  0
 12 13  2  0
 13 14  1  0
 13 15  1  0
 15 16  2  0
 16 17  1  0
 17 18  2  0
 18 19  1  0
 19 20  1  0
 20 21  1  0
  6 22  1  0
 22 23  2  0
 23 24  1  0
 23  3  1  0
 20 10  1  0
 18 12  1  0
  1 25  1  0
  1 26  1  0
  1 27  1  0
  4 28  1  0
  5 29  1  0
 10 30  1  1
 11 31  1  0
 11 32  1  0
 15 33  1  0
 16 34  1  0
 17 35  1  0
 19 36  1  0
 19 37  1  0
 20 38  1  6
 21 39  1  0
 21 40  1  0
 21 41  1  0
 22 42  1  0
 24 43  1  0
 24 44  1  0
 24 45  1  0
M  CHG  1  10   1
M  END
>  <UniqueID>  (5) 
5

>  <SMILES>  (5) 
COc1ccc(S(=O)(=O)[N@@H+]2Cc3c(Cl)cccc3C[C@H]2C)cc1C

>  <Energy>  (5) 
55.07177997293071

>  <Genealogy>  (5) 
COc1ccc(S(=O)(=O)[NH+]2Cc3c(Cl)cccc3CC2C)cc1C (protonated)
COc1ccc(S(=O)(=O)[N@@H+]2Cc3c(Cl)cccc3C[C@H]2C)cc1C (chirality)
COc1ccc(S(=O)(=O)[N@@H+]2Cc3c(Cl)cccc3C[C@H]2C)cc1C (3D coordinates assigned)
COc1ccc(S(=O)(=O)[N@@H+]2Cc3c(Cl)cccc3C[C@H]2C)cc1C (nonaromatic ring conformer: 55.07177997293071 kcal/mol)

>  <smiles>  (5) 
COc1ccc(S(=O)(=O)N2Cc3c(Cl)cccc3CC2C)cc1C

>  <score_type>  (5) 
oracle

>  <origin>  (5) 
adg

>  <m_score__min__energy>  (5) 
-8.4900000000000002

>  <m_primary>  (5) 
energy

$$$$
5:0
     RDKit          3D

 68 71  0  0  0  0  0  0  0  0999 V2000
   -5.5540   18.2160  -33.8070 C   0  0  0  0  0  0  0  0  0  0  0  0
   -5.6100   17.7350  -32.4180 N   0  0  0  0  0  0  0  0  0  0  0  0
   -5.2380   16.3140  -32.3320 C   0  0  0  0  0  0  0  0  0  0  0  0
   -6.8970   18.0350  -31.7540 C   0  0  0  0  0  0  0  0  0  0  0  0
   -8.0580   18.3400  -32.7230 C   0  0  0  0  0  0  0  0  0  0  0  0
   -8.6980   19.5640  -32.3590 O   0  0  0  0  0  0  0  0  0  0  0  0
   -8.0400   20.7540  -32.0040 C   0  0  0  0  0  0  0  0  0  0  0  0
   -8.6310   21.7370  -31.1870 C   0  0  0  0  0  0  0  0  0  0  0  0
   -7.9270   22.8980  -30.8610 C   0  0  0  0  0  0  0  0  0  0  0  0
   -6.6270   23.1080  -31.3490 C   0  0  0  0  0  0  0  0  0  0  0  0
   -5.8740   24.3540  -30.9510 C   0  0  0  0  0  0  0  0  0  0  0  0
   -4.8550   24.0420  -29.9270 N   0  0  0  0  0  0  0  0  0  0  0  0
   -5.0130   22.6580  -29.4460 C   0  0  0  0  0  0  0  0  0  0  0  0
   -4.0590   22.3900  -28.2640 C   0  0  0  0  0  0  0  0  0  0  0  0
   -2.9950   23.4180  -28.1700 N   0  0  0  0  0  0  0  0  0  0  0  0
   -1.9380   23.0100  -27.2220 C   0  0  0  0  0  0  0  0  0  0  0  0
   -1.5160   21.5850  -27.4750 C   0  0  0  0  0  0  0  0  0  0  0  0
   -1.7030   20.6090  -26.4850 C   0  0  0  0  0  0  0  0  0  0  0  0
   -1.3410   19.2820  -26.7290 C   0  0  0  0  0  0  0  0  0  0  0  0
   -0.8110   18.9150  -27.9680 C   0  0  0  0  0  0  0  0  0  0  0  0
   -0.6500   19.8700  -28.9780 C   0  0  0  0  0  0  0  0  0  0  0  0
   -0.1210   19.4640  -30.2130 O   0  0  0  0  0  0  0  0  0  0  0  0
   -0.6780   19.7560  -31.4660 C   0  0  0  0  0  0  0  0  0  0  0  0
   -1.5740   18.8790  -32.1060 C   0  0  0  0  0  0  0  0  0  0  0  0
   -2.1040   19.2060  -33.3580 C   0  0  0  0  0  0  0  0  0  0  0  0
   -1.7320   20.3980  -33.9870 C   0  0  0  0  0  0  0  0  0  0  0  0
   -0.8230   21.2600  -33.3690 C   0  0  0  0  0  0  0  0  0  0  0  0
   -0.2970   20.9400  -32.1140 C   0  0  0  0  0  0  0  0  0  0  0  0
   -0.9820   21.2130  -28.7180 C   0  0  0  0  0  0  0  0  0  0  0  0
   -2.4170   23.6690  -29.5030 C   0  0  0  0  0  0  0  0  0  0  0  0
   -3.4860   24.2420  -30.4550 C   0  0  0  0  0  0  0  0  0  0  0  0
   -6.0350   22.1240  -32.1680 C   0  0  0  0  0  0  0  0  0  0  0  0
   -4.3990   22.3080  -32.7940 Cl  0  0  0  0  0  0  0  0  0  0  0  0
   -6.7450   20.9630  -32.4910 C   0  0  0  0  0  0  0  0  0  0  0  0
   -5.4268   19.3086  -33.8118 H   0  0  0  0  0  0  0  0  0  0  0  0
   -4.7045   17.7457  -34.3239 H   0  0  0  0  0  0  0  0  0  0  0  0
   -6.4888   17.9534  -34.3239 H   0  0  0  0  0  0  0  0  0  0  0  0
   -5.1607   16.0185  -31.2753 H   0  0  0  0  0  0  0  0  0  0  0  0
   -6.0065   15.7031  -32.8282 H   0  0  0  0  0  0  0  0  0  0  0  0
   -4.2688   16.1580  -32.8282 H   0  0  0  0  0  0  0  0  0  0  0  0
   -7.1791   17.1657  -31.1418 H   0  0  0  0  0  0  0  0  0  0  0  0
   -6.7380   18.9457  -31.1580 H   0  0  0  0  0  0  0  0  0  0  0  0
   -7.6636   18.4269  -33.7462 H   0  0  0  0  0  0  0  0  0  0  0  0
   -8.7922   17.5226  -32.6707 H   0  0  0  0  0  0  0  0  0  0  0  0
   -9.6516   21.5896  -30.8040 H   0  0  0  0  0  0  0  0  0  0  0  0
   -8.3953   23.6557  -30.2155 H   0  0  0  0  0  0  0  0  0  0  0  0
   -5.3780   24.7752  -31.8378 H   0  0  0  0  0  0  0  0  0  0  0  0
   -6.5864   25.0800  -30.5322 H   0  0  0  0  0  0  0  0  0  0  0  0
   -6.0512   22.5047  -29.1164 H   0  0  0  0  0  0  0  0  0  0  0  0
   -4.7715   21.9647  -30.2651 H   0  0  0  0  0  0  0  0  0  0  0  0
   -4.6401   22.3928  -27.3300 H   0  0  0  0  0  0  0  0  0  0  0  0
   -3.5778   21.4145  -28.4279 H   0  0  0  0  0  0  0  0  0  0  0  0
   -1.0678   23.6715  -27.3450 H   0  0  0  0  0  0  0  0  0  0  0  0
   -2.3331   23.0852  -26.1982 H   0  0  0  0  0  0  0  0  0  0  0  0
   -2.1360   20.8894  -25.5135 H   0  0  0  0  0  0  0  0  0  0  0  0
   -1.4738   18.5239  -25.9430 H   0  0  0  0  0  0  0  0  0  0  0  0
   -0.5188   17.8704  -28.1507 H   0  0  0  0  0  0  0  0  0  0  0  0
   -1.8580   17.9340  -31.6199 H   0  0  0  0  0  0  0  0  0  0  0  0
   -2.8145   18.5245  -33.8487 H   0  0  0  0  0  0  0  0  0  0  0  0
   -2.1552   20.6570  -34.9687 H   0  0  0  0  0  0  0  0  0  0  0  0
   -0.5209   22.1913  -33.8703 H   0  0  0  0  0  0  0  0  0  0  0  0
    0.4199   21.6208  -31.6319 H   0  0  0  0  0  0  0  0  0  0  0  0
   -0.8218   21.9757  -29.4943 H   0  0  0  0  0  0  0  0  0  0  0  0
   -1.5913   24.3898  -29.4098 H   0  0  0  0  0  0  0  0  0  0  0  0
   -2.0458   22.7189  -29.9149 H   0  0  0  0  0  0  0  0  0  0  0  0
   -3.3077   25.3198  -30.5836 H   0  0  0  0  0  0  0  0  0  0  0  0
   -3.4086   23.7117  -31.4156 H   0  0  0  0  0  0  0  0  0  0  0  0
   -6.2790   20.2040  -33.1366 H   0  0  0  0  0  0  0  0  0  0  0  0
  1  2  1  0
  2  3  1  0
  2  4  1  0
  4  5  1  0
  5  6  1  0
  6  7  1  0
  7  8  2  0
  8  9  1  0
  9 10  2  0
 10 11  1  0
 11 12  1  0
 12 13  1  0
 13 14  1  0
 14 15  1  0
 15 16  1  0
 16 17  1  0
 17 18  2  0
 18 19  1  0
 19 20  2  0
 20 21  1  0
 21 22  1  0
 22 23  1  0
 23 24  2  0
 24 25  1  0
 25 26  2  0
 26 27  1  0
 27 28  2  0
 21 29  2  0
 15 30  1  0
 30 31  1  0
 10 32  1  0
 32 33  1  0
 32 34  2  0
 34  7  1  0
 31 12  1  0
 29 17  1  0
 28 23  1  0
  1 35  1  0
  1 36  1  0
  1 37  1  0
  3 38  1  0
  3 39  1  0
  3 40  1  0
  4 41  1  0
  4 42  1  0
  5 43  1  0
  5 44  1  0
  8 45  1  0
  9 46  1  0
 11 47  1  0
 11 48  1  0
 13 49  1  0
 13 50  1  0
 14 51  1  0
 14 52  1  0
 16 53  1  0
 16 54  1  0
 18 55  1  0
 19 56  1  0
 20 57  1  0
 24 58  1  0
 25 59  1  0
 26 60  1  0
 27 61  1  0
 28 62  1  0
 29 63  1  0
 30 64  1  0
 30 65  1  0
 31 66  1  0
 31 67  1  0
 34 68  1  0
M  END
>  <UniqueID>  (6) 
6

>  <SMILES>  (6) 
CN(C)CCOc1ccc(CN2CCN(Cc3cccc(Oc4ccccc4)c3)CC2)c(Cl)c1

>  <Energy>  (6) 
87.01084148338765

>  <Genealogy>  (6) 
CN(C)CCOc1ccc(CN2CCN(Cc3cccc(Oc4ccccc4)c3)CC2)c(Cl)c1 (3D coordinates assigned)
CN(C)CCOc1ccc(CN2CCN(Cc3cccc(Oc4ccccc4)c3)CC2)c(Cl)c1 (nonaromatic ring conformer: 87.01084148338765 kcal/mol)

>  <smiles>  (6) 
CN(C)CCOc1ccc(CN2CCN(Cc3cccc(Oc4ccccc4)c3)CC2)c(Cl)c1

>  <score_type>  (6) 
oracle

>  <origin>  (6) 
adg

>  <m_score__min__energy>  (6) 
-9.7200000000000006

>  <m_primary>  (6) 
energy

$$$$
6:0
     RDKit          3D

 72 73  0  0  0  0  0  0  0  0999 V2000
   -6.8486   25.5658  -31.0774 H   0  0  0  0  0  0  0  0  0  0  0  0
   -6.1180   24.9300  -30.5560 C   0  0  0  0  0  0  0  0  0  0  0  0
   -6.5240   23.7180  -29.9900 C   0  0  0  0  0  0  0  0  0  0  0  0
   -7.5768   23.4061  -30.0551 H   0  0  0  0  0  0  0  0  0  0  0  0
   -5.5920   22.9020  -29.3410 C   0  0  0  0  0  0  0  0  0  0  0  0
   -5.9169   21.9562  -28.8828 H   0  0  0  0  0  0  0  0  0  0  0  0
   -4.2410   23.2860  -29.2720 C   0  0  0  0  0  0  0  0  0  0  0  0
   -3.2760   22.4930  -28.5680 N   0  0  0  0  0  0  0  0  0  0  0  0
   -2.2840   21.8140  -29.0810 C   0  0  0  0  0  0  0  0  0  0  0  0
   -1.5340   22.3240  -30.6560 S   0  0  0  0  0  0  0  0  0  0  0  0
   -2.3660   21.0440  -31.6670 C   0  0  0  0  0  0  0  0  0  0  0  0
   -1.9955   21.1115  -32.7005 H   0  0  0  0  0  0  0  0  0  0  0  0
   -2.1388   20.0622  -31.2260 H   0  0  0  0  0  0  0  0  0  0  0  0
   -3.8950   21.2190  -31.6750 C   0  0  0  0  0  0  0  0  0  0  0  0
   -4.3509   20.3812  -31.1270 H   0  0  0  0  0  0  0  0  0  0  0  0
   -4.1285   22.1820  -31.1975 H   0  0  0  0  0  0  0  0  0  0  0  0
   -4.4640   21.2470  -33.0980 C   0  0  0  0  0  0  0  0  0  0  0  0
   -4.7596   22.2772  -33.3457 H   0  0  0  0  0  0  0  0  0  0  0  0
   -3.6877   20.8884  -33.7900 H   0  0  0  0  0  0  0  0  0  0  0  0
   -5.6040   20.3940  -33.2170 O   0  0  0  0  0  0  0  0  0  0  0  0
   -6.8980   20.6850  -32.7510 C   0  0  0  0  0  0  0  0  0  0  0  0
   -7.2970   21.9890  -32.3930 C   0  0  0  0  0  0  0  0  0  0  0  0
   -6.5829   22.8215  -32.4766 H   0  0  0  0  0  0  0  0  0  0  0  0
   -8.5930   22.2300  -31.9330 C   0  0  0  0  0  0  0  0  0  0  0  0
   -8.8959   23.2501  -31.6545 H   0  0  0  0  0  0  0  0  0  0  0  0
   -9.5040   21.1800  -31.8260 C   0  0  0  0  0  0  0  0  0  0  0  0
  -10.5239   21.3730  -31.4620 H   0  0  0  0  0  0  0  0  0  0  0  0
   -9.1240   19.8840  -32.1800 C   0  0  0  0  0  0  0  0  0  0  0  0
   -9.8480   19.0599  -32.0981 H   0  0  0  0  0  0  0  0  0  0  0  0
   -7.8170   19.6260  -32.6420 C   0  0  0  0  0  0  0  0  0  0  0  0
   -7.3870   18.3360  -33.0010 O   0  0  0  0  0  0  0  0  0  0  0  0
   -6.7790   17.3860  -32.1250 C   0  0  0  0  0  0  0  0  0  0  0  0
   -6.7596   17.8031  -31.1073 H   0  0  0  0  0  0  0  0  0  0  0  0
   -7.3714   16.4600  -32.1647 H   0  0  0  0  0  0  0  0  0  0  0  0
   -5.3340   17.0460  -32.5520 C   0  0  0  0  0  0  0  0  0  0  0  0
   -4.6866   17.1451  -31.6683 H   0  0  0  0  0  0  0  0  0  0  0  0
   -5.3704   16.0253  -32.9604 H   0  0  0  0  0  0  0  0  0  0  0  0
   -4.7720   17.8990  -33.6300 N   0  0  0  0  0  0  0  0  0  0  0  0
   -5.2860   18.8100  -33.5840 H   0  0  0  0  0  0  0  0  0  0  0  0
   -5.0030   17.3490  -34.9790 C   0  0  0  0  0  0  0  0  0  0  0  0
   -5.4277   16.3378  -34.8949 H   0  0  0  0  0  0  0  0  0  0  0  0
   -5.7049   17.9973  -35.5241 H   0  0  0  0  0  0  0  0  0  0  0  0
   -4.0487   17.3017  -35.5241 H   0  0  0  0  0  0  0  0  0  0  0  0
   -3.3440   18.2090  -33.4270 C   0  0  0  0  0  0  0  0  0  0  0  0
   -3.1285   18.2558  -32.3493 H   0  0  0  0  0  0  0  0  0  0  0  0
   -2.7288   17.4235  -33.8902 H   0  0  0  0  0  0  0  0  0  0  0  0
   -3.1099   19.1789  -33.8902 H   0  0  0  0  0  0  0  0  0  0  0  0
   -1.7620   20.6720  -28.3490 N   0  0  0  0  0  0  0  0  0  0  0  0
   -2.2600   20.3870  -26.9910 C   0  0  0  0  0  0  0  0  0  0  0  0
   -3.2307   20.8852  -26.8510 H   0  0  0  0  0  0  0  0  0  0  0  0
   -1.5277   20.7626  -26.2612 H   0  0  0  0  0  0  0  0  0  0  0  0
   -2.4350   18.8730  -26.7790 C   0  0  0  0  0  0  0  0  0  0  0  0
   -1.5670   18.4840  -26.2265 H   0  0  0  0  0  0  0  0  0  0  0  0
   -2.5135   18.3872  -27.7628 H   0  0  0  0  0  0  0  0  0  0  0  0
   -3.7060   18.5770  -25.9860 C   0  0  0  0  0  0  0  0  0  0  0  0
   -3.4867   18.6281  -24.9093 H   0  0  0  0  0  0  0  0  0  0  0  0
   -4.4772   19.3196  -26.2387 H   0  0  0  0  0  0  0  0  0  0  0  0
   -4.0697   17.5701  -26.2387 H   0  0  0  0  0  0  0  0  0  0  0  0
   -0.8500   19.6950  -28.9760 C   0  0  0  0  0  0  0  0  0  0  0  0
   -1.3397   18.7104  -29.0025 H   0  0  0  0  0  0  0  0  0  0  0  0
   -0.6170   20.0351  -29.9958 H   0  0  0  0  0  0  0  0  0  0  0  0
    0.4600   19.5840  -28.1840 C   0  0  0  0  0  0  0  0  0  0  0  0
    1.2750   20.0252  -28.7765 H   0  0  0  0  0  0  0  0  0  0  0  0
    0.3356   20.1203  -27.2317 H   0  0  0  0  0  0  0  0  0  0  0  0
    0.8020   18.1280  -27.8750 C   0  0  0  0  0  0  0  0  0  0  0  0
    0.8361   17.9827  -26.7852 H   0  0  0  0  0  0  0  0  0  0  0  0
    0.0338   17.4709  -28.3086 H   0  0  0  0  0  0  0  0  0  0  0  0
    1.7825   17.8817  -28.3086 H   0  0  0  0  0  0  0  0  0  0  0  0
   -3.8480   24.5220  -29.8080 C   0  0  0  0  0  0  0  0  0  0  0  0
   -2.5530   24.9230  -29.7200 F   0  0  0  0  0  0  0  0  0  0  0  0
   -4.7820   25.3340  -30.4590 C   0  0  0  0  0  0  0  0  0  0  0  0
   -4.4656   26.2927  -30.8959 H   0  0  0  0  0  0  0  0  0  0  0  0
  1  2  1  0
  2  3  2  0
  3  4  1  0
  3  5  1  0
  5  6  1  0
  5  7  2  0
  7  8  1  0
  8  9  2  0
  9 10  1  0
 10 11  1  0
 11 12  1  0
 11 13  1  0
 11 14  1  0
 14 15  1  0
 14 16  1  0
 14 17  1  0
 17 18  1  0
 17 19  1  0
 17 20  1  0
 20 21  1  0
 21 22  2  0
 22 23  1  0
 22 24  1  0
 24 25  1  0
 24 26  2  0
 26 27  1  0
 26 28  1  0
 28 29  1  0
 28 30  2  0
 30 31  1  0
 31 32  1  0
 32 33  1  0
 32 34  1  0
 32 35  1  0
 35 36  1  0
 35 37  1  0
 35 38  1  0
 38 39  1  0
 38 40  1  0
 40 41  1  0
 40 42  1  0
 40 43  1  0
 38 44  1  0
 44 45  1  0
 44 46  1  0
 44 47  1  0
  9 48  1  0
 48 49  1  0
 49 50  1  0
 49 51  1  0
 49 52  1  0
 52 53  1  0
 52 54  1  0
 52 55  1  0
 55 56  1  0
 55 57  1  0
 55 58  1  0
 48 59  1  0
 59 60  1  0
 59 61  1  0
 59 62  1  0
 62 63  1  0
 62 64  1  0
 62 65  1  0
 65 66  1  0
 65 67  1  0
 65 68  1  0
  7 69  1  0
 69 70  1  0
 69 71  2  0
 71 72  1  0
 71  2  1  0
 30 21  1  0
M  CHG  1  38   1
M  END
>  <UniqueID>  (7) 
7

>  <SMILES>  (7) 
CCCN(CCC)/C(=N/c1ccccc1F)SCCCOc1ccccc1OCC[NH+](C)C

>  <Energy>  (7) 
62.91982641861905

>  <Genealogy>  (7) 
CCCN(CCC)C(=Nc1ccccc1F)SCCCOc1ccccc1OCC[NH+](C)C (protonated)
CCCN(CCC)/C(=N/c1ccccc1F)SCCCOc1ccccc1OCC[NH+](C)C (cis-trans isomerization)
CCCN(CCC)/C(=N/c1ccccc1F)SCCCOc1ccccc1OCC[NH+](C)C (3D coordinates assigned)
CCCN(CCC)/C(=N/c1ccccc1F)SCCCOc1ccccc1OCC[NH+](C)C (optimized conformer: 62.91982641861905 kcal/mol)

>  <smiles>  (7) 
CCCN(CCC)C(=Nc1ccccc1F)SCCCOc1ccccc1OCCN(C)C

>  <score_type>  (7) 
oracle

>  <origin>  (7) 
adg

>  <m_score__min__energy>  (7) 
-7.1100000000000003

>  <m_primary>  (7) 
energy

$$$$
7:0
     RDKit          3D

 62 65  0  0  0  0  0  0  0  0999 V2000
   -3.8620   21.8910  -33.4100 C   0  0  0  0  0  0  0  0  0  0  0  0
   -3.2310   20.6670  -33.7760 O   0  0  0  0  0  0  0  0  0  0  0  0
   -2.1450   20.0900  -33.1010 C   0  0  0  0  0  0  0  0  0  0  0  0
   -1.1200   20.8870  -32.5540 C   0  0  0  0  0  0  0  0  0  0  0  0
   -0.0410   20.3000  -31.8920 C   0  0  0  0  0  0  0  0  0  0  0  0
    0.0270   18.9140  -31.7620 C   0  0  0  0  0  0  0  0  0  0  0  0
   -0.9840   18.1110  -32.2930 C   0  0  0  0  0  0  0  0  0  0  0  0
   -2.0760   18.6810  -32.9740 C   0  0  0  0  0  0  0  0  0  0  0  0
   -3.1140   17.8250  -33.5140 N   0  0  0  0  0  0  0  0  0  0  0  0
   -3.3510   17.8310  -34.9660 C   0  0  0  0  0  0  0  0  0  0  0  0
   -4.7770   17.3890  -35.3550 C   0  0  0  0  0  0  0  0  0  0  0  0
   -5.4840   16.5780  -34.3290 N   0  0  0  0  0  0  0  0  0  0  0  0
   -6.5710   17.3070  -33.6150 C   0  0  0  0  0  0  0  0  0  0  0  0
   -6.2420   18.7580  -33.2030 C   0  0  0  0  0  0  0  0  0  0  0  0
   -7.4130   19.7180  -33.4670 C   0  0  0  0  0  0  0  0  0  0  0  0
   -7.5490   20.6890  -32.3760 N   0  0  0  0  0  0  0  0  0  0  0  0
   -6.4290   21.2130  -31.8670 N   0  0  0  0  0  0  0  0  0  0  0  0
   -6.4350   22.0990  -30.8330 C   0  0  0  0  0  0  0  0  0  0  0  0
   -5.1410   22.6350  -30.3300 C   0  0  0  0  0  0  0  0  0  0  0  0
   -4.0350   21.7960  -30.1010 C   0  0  0  0  0  0  0  0  0  0  0  0
   -2.8190   22.3260  -29.6570 C   0  0  0  0  0  0  0  0  0  0  0  0
   -2.6830   23.7030  -29.4220 C   0  0  0  0  0  0  0  0  0  0  0  0
   -1.3590   24.2890  -29.0010 C   0  0  0  0  0  0  0  0  0  0  0  0
   -1.2970   25.6390  -29.2970 F   0  0  0  0  0  0  0  0  0  0  0  0
   -0.3220   23.6520  -29.6590 F   0  0  0  0  0  0  0  0  0  0  0  0
   -1.1990   24.1210  -27.6380 F   0  0  0  0  0  0  0  0  0  0  0  0
   -3.7750   24.5480  -29.6800 C   0  0  0  0  0  0  0  0  0  0  0  0
   -4.9910   24.0190  -30.1200 C   0  0  0  0  0  0  0  0  0  0  0  0
   -7.6680   22.4800  -30.2830 C   0  0  0  0  0  0  0  0  0  0  0  0
   -8.8400   21.9400  -30.8000 C   0  0  0  0  0  0  0  0  0  0  0  0
   -8.7710   21.0330  -31.8590 C   0  0  0  0  0  0  0  0  0  0  0  0
   -9.8360   20.5450  -32.3260 O   0  0  0  0  0  0  0  0  0  0  0  0
   -4.5750   15.7990  -33.4590 C   0  0  0  0  0  0  0  0  0  0  0  0
   -3.5370   16.6580  -32.7240 C   0  0  0  0  0  0  0  0  0  0  0  0
   -3.9023   21.9692  -32.3135 H   0  0  0  0  0  0  0  0  0  0  0  0
   -3.2871   22.7359  -33.8170 H   0  0  0  0  0  0  0  0  0  0  0  0
   -4.8837   21.9128  -33.8170 H   0  0  0  0  0  0  0  0  0  0  0  0
   -1.1708   21.9817  -32.6496 H   0  0  0  0  0  0  0  0  0  0  0  0
    0.7562   20.9313  -31.4726 H   0  0  0  0  0  0  0  0  0  0  0  0
    0.8783   18.4523  -31.2404 H   0  0  0  0  0  0  0  0  0  0  0  0
   -0.9265   17.0186  -32.1777 H   0  0  0  0  0  0  0  0  0  0  0  0
   -3.1874   18.8517  -35.3419 H   0  0  0  0  0  0  0  0  0  0  0  0
   -2.6532   17.1072  -35.4123 H   0  0  0  0  0  0  0  0  0  0  0  0
   -5.3741   18.2926  -35.5470 H   0  0  0  0  0  0  0  0  0  0  0  0
   -4.6688   16.7420  -36.2380 H   0  0  0  0  0  0  0  0  0  0  0  0
   -6.0030   15.8430  -34.8700 H   0  0  0  0  0  0  0  0  0  0  0  0
   -7.4507   17.3337  -34.2748 H   0  0  0  0  0  0  0  0  0  0  0  0
   -6.7357   16.7576  -32.6764 H   0  0  0  0  0  0  0  0  0  0  0  0
   -6.0049   18.7759  -32.1290 H   0  0  0  0  0  0  0  0  0  0  0  0
   -5.3873   19.0946  -33.8082 H   0  0  0  0  0  0  0  0  0  0  0  0
   -7.2317   20.2571  -34.4086 H   0  0  0  0  0  0  0  0  0  0  0  0
   -8.3410   19.1311  -33.5333 H   0  0  0  0  0  0  0  0  0  0  0  0
   -4.1274   20.7134  -30.2727 H   0  0  0  0  0  0  0  0  0  0  0  0
   -1.9615   21.6574  -29.4905 H   0  0  0  0  0  0  0  0  0  0  0  0
   -3.6721   25.6335  -29.5347 H   0  0  0  0  0  0  0  0  0  0  0  0
   -5.8413   24.6919  -30.3045 H   0  0  0  0  0  0  0  0  0  0  0  0
   -7.7070   23.1987  -29.4512 H   0  0  0  0  0  0  0  0  0  0  0  0
   -9.8148   22.2253  -30.3777 H   0  0  0  0  0  0  0  0  0  0  0  0
   -5.1812   15.2696  -32.7091 H   0  0  0  0  0  0  0  0  0  0  0  0
   -4.0181   15.1102  -34.1112 H   0  0  0  0  0  0  0  0  0  0  0  0
   -3.9760   17.0113  -31.7793 H   0  0  0  0  0  0  0  0  0  0  0  0
   -2.6492   16.0331  -32.5471 H   0  0  0  0  0  0  0  0  0  0  0  0
  1  2  1  0
  2  3  1  0
  3  4  2  0
  4  5  1  0
  5  6  2  0
  6  7  1  0
  7  8  2  0
  8  9  1  0
  9 10  1  0
 10 11  1  0
 11 12  1  0
 12 13  1  0
 13 14  1  0
 14 15  1  0
 15 16  1  0
 16 17  1  0
 17 18  2  0
 18 19  1  0
 19 20  2  0
 20 21  1  0
 21 22  2  0
 22 23  1  0
 23 24  1  0
 23 25  1  0
 23 26  1  0
 22 27  1  0
 27 28  2  0
 18 29  1  0
 29 30  2  0
 30 31  1  0
 31 32  2  0
 12 33  1  0
 33 34  1  0
  8  3  1  0
 34  9  1  0
 31 16  1  0
 28 19  1  0
  1 35  1  0
  1 36  1  0
  1 37  1  0
  4 38  1  0
  5 39  1  0
  6 40  1  0
  7 41  1  0
 10 42  1  0
 10 43  1  0
 11 44  1  0
 11 45  1  0
 12 46  1  0
 13 47  1  0
 13 48  1  0
 14 49  1  0
 14 50  1  0
 15 51  1  0
 15 52  1  0
 20 53  1  0
 21 54  1  0
 27 55  1  0
 28 56  1  0
 29 57  1  0
 30 58  1  0
 33 59  1  0
 33 60  1  0
 34 61  1  0
 34 62  1  0
M  CHG  1  12   1
M  END
>  <UniqueID>  (8) 
8

>  <SMILES>  (8) 
COc1ccccc1N1CC[NH+](CCCn2nc(-c3ccc(C(F)(F)F)cc3)ccc2=O)CC1

>  <Energy>  (8) 
87.2063893031609

>  <Genealogy>  (8) 
COc1ccccc1N1CC[NH+](CCCn2nc(-c3ccc(C(F)(F)F)cc3)ccc2=O)CC1 (protonated)
COc1ccccc1N1CC[NH+](CCCn2nc(-c3ccc(C(F)(F)F)cc3)ccc2=O)CC1 (3D coordinates assigned)
COc1ccccc1N1CC[NH+](CCCn2nc(-c3ccc(C(F)(F)F)cc3)ccc2=O)CC1 (nonaromatic ring conformer: 87.2063893031609 kcal/mol)

>  <smiles>  (8) 
COc1ccccc1N1CCN(CCCn2nc(-c3ccc(C(F)(F)F)cc3)ccc2=O)CC1

>  <score_type>  (8) 
oracle

>  <origin>  (8) 
adg

>  <m_score__min__energy>  (8) 
-8.4800000000000004

>  <m_primary>  (8) 
energy

$$$$
8:0
     RDKit          3D

 40 42  0  0  0  0  0  0  0  0999 V2000
   -6.1530   17.5850  -31.2560 C   0  0  0  0  0  0  0  0  0  0  0  0
   -7.0290   17.9560  -32.3810 N   0  0  0  0  0  0  0  0  0  0  0  0
   -6.8590   16.9840  -33.4730 C   0  0  0  0  0  0  0  0  0  0  0  0
   -8.4480   18.0050  -31.9620 C   0  0  0  0  0  0  0  0  0  0  0  0
   -9.1490   19.2700  -32.4830 C   0  0  0  0  0  0  0  0  0  0  0  0
   -8.2880   20.0230  -33.4090 N   0  0  0  0  0  0  0  0  0  0  0  0
   -7.6420   21.1130  -32.7140 C   0  0  0  0  0  0  0  0  0  0  0  0
   -8.4280   22.0490  -32.0230 C   0  0  0  0  0  0  0  0  0  0  0  0
   -7.8350   23.0940  -31.3230 C   0  0  0  0  0  0  0  0  0  0  0  0
   -6.4470   23.2220  -31.2900 C   0  0  0  0  0  0  0  0  0  0  0  0
   -5.6080   22.2980  -31.9540 C   0  0  0  0  0  0  0  0  0  0  0  0
   -4.1870   22.4650  -31.8790 C   0  0  0  0  0  0  0  0  0  0  0  0
   -3.7470   23.4500  -31.2200 O   0  0  0  0  0  0  0  0  0  0  0  0
   -3.2260   21.6010  -32.4920 C   0  0  0  0  0  0  0  0  0  0  0  0
   -1.8430   21.8670  -32.3460 C   0  0  0  0  0  0  0  0  0  0  0  0
   -0.8830   21.0380  -32.9340 C   0  0  0  0  0  0  0  0  0  0  0  0
   -1.2750   19.9260  -33.6780 C   0  0  0  0  0  0  0  0  0  0  0  0
   -2.6290   19.6400  -33.8400 C   0  0  0  0  0  0  0  0  0  0  0  0
   -3.5930   20.4680  -33.2530 C   0  0  0  0  0  0  0  0  0  0  0  0
   -5.2260   20.1250  -33.4460 S   0  0  0  0  0  0  0  0  0  0  0  0
   -6.2300   21.2370  -32.6650 C   0  0  0  0  0  0  0  0  0  0  0  0
   -6.6642   17.8015  -30.3064 H   0  0  0  0  0  0  0  0  0  0  0  0
   -5.9206   16.5112  -31.3108 H   0  0  0  0  0  0  0  0  0  0  0  0
   -5.2201   18.1653  -31.3108 H   0  0  0  0  0  0  0  0  0  0  0  0
   -6.6841   15.9839  -33.0497 H   0  0  0  0  0  0  0  0  0  0  0  0
   -7.7676   16.9661  -34.0927 H   0  0  0  0  0  0  0  0  0  0  0  0
   -5.9982   17.2756  -34.0927 H   0  0  0  0  0  0  0  0  0  0  0  0
   -8.9678   17.1201  -32.3580 H   0  0  0  0  0  0  0  0  0  0  0  0
   -8.4815   18.0213  -30.8626 H   0  0  0  0  0  0  0  0  0  0  0  0
  -10.0694   18.9772  -33.0094 H   0  0  0  0  0  0  0  0  0  0  0  0
   -9.3776   19.9162  -31.6227 H   0  0  0  0  0  0  0  0  0  0  0  0
   -7.5710   19.3960  -33.8410 H   0  0  0  0  0  0  0  0  0  0  0  0
   -8.8720   20.4000  -34.1930 H   0  0  0  0  0  0  0  0  0  0  0  0
   -9.5239   21.9547  -32.0355 H   0  0  0  0  0  0  0  0  0  0  0  0
   -8.4644   23.8236  -30.7924 H   0  0  0  0  0  0  0  0  0  0  0  0
   -5.9958   24.0586  -30.7363 H   0  0  0  0  0  0  0  0  0  0  0  0
   -1.5187   22.7399  -31.7605 H   0  0  0  0  0  0  0  0  0  0  0  0
    0.1862   21.2641  -32.8091 H   0  0  0  0  0  0  0  0  0  0  0  0
   -0.5161   19.2751  -34.1367 H   0  0  0  0  0  0  0  0  0  0  0  0
   -2.9401   18.7644  -34.4286 H   0  0  0  0  0  0  0  0  0  0  0  0
  1  2  1  0
  2  3  1  0
  2  4  1  0
  4  5  1  0
  5  6  1  0
  6  7  1  0
  7  8  2  0
  8  9  1  0
  9 10  2  0
 10 11  1  0
 11 12  1  0
 12 13  2  0
 12 14  1  0
 14 15  2  0
 15 16  1  0
 16 17  2  0
 17 18  1  0
 18 19  2  0
 19 20  1  0
 20 21  1  0
 21  7  1  0
 21 11  2  0
 19 14  1  0
  1 22  1  0
  1 23  1  0
  1 24  1  0
  3 25  1  0
  3 26  1  0
  3 27  1  0
  4 28  1  0
  4 29  1  0
  5 30  1  0
  5 31  1  0
  6 32  1  0
  6 33  1  0
  8 34  1  0
  9 35  1  0
 10 36  1  0
 15 37  1  0
 16 38  1  0
 17 39  1  0
 18 40  1  0
M  CHG  1   6   1
M  END
>  <UniqueID>  (9) 
9

>  <SMILES>  (9) 
CN(C)CC[NH2+]c1cccc2c(=O)c3ccccc3sc12

>  <Energy>  (9) 
55.10600578660245

>  <Genealogy>  (9) 
CN(C)CC[NH2+]c1cccc2c(=O)c3ccccc3sc12 (protonated)
CN(C)CC[NH2+]c1cccc2c(=O)c3ccccc3sc12 (3D coordinates assigned)
CN(C)CC[NH2+]c1cccc2c(=O)c3ccccc3sc12 (optimized conformer: 55.10600578660245 kcal/mol)

>  <smiles>  (9) 
CN(C)CCNc1cccc2c(=O)c3ccccc3sc12

>  <score_type>  (9) 
oracle

>  <origin>  (9) 
adg

>  <m_score__min__energy>  (9) 
-8.1699999999999999

>  <m_primary>  (9) 
energy

$$$$
9:0
     RDKit          3D

 55 57  0  0  0  0  0  0  0  0999 V2000
   -9.4860   21.8760  -31.3590 C   0  0  0  0  0  0  0  0  0  0  0  0
   -8.6330   20.6410  -31.0650 C   0  0  0  0  0  0  0  0  0  0  0  0
   -8.3820   19.8460  -32.2900 N   0  0  0  0  0  0  0  0  0  0  0  0
   -9.6310   19.6690  -33.0600 C   0  0  0  0  0  0  0  0  0  0  0  0
   -7.8010   18.5270  -31.9450 C   0  0  0  0  0  0  0  0  0  0  0  0
   -7.0360   17.9490  -33.1460 C   0  0  0  0  0  0  0  0  0  0  0  0
   -6.5330   18.9920  -34.0640 N   0  0  0  0  0  0  0  0  0  0  0  0
   -5.1700   19.4070  -33.7490 C   0  0  0  0  0  0  0  0  0  0  0  0
   -4.0740   18.5570  -34.0720 C   0  0  0  0  0  0  0  0  0  0  0  0
   -4.2670   17.2640  -34.6230 C   0  0  0  0  0  0  0  0  0  0  0  0
   -3.1890   16.4230  -34.8870 C   0  0  0  0  0  0  0  0  0  0  0  0
   -1.8970   16.8370  -34.6030 C   0  0  0  0  0  0  0  0  0  0  0  0
   -1.6720   18.1070  -34.0790 C   0  0  0  0  0  0  0  0  0  0  0  0
   -2.7440   19.0050  -33.8390 C   0  0  0  0  0  0  0  0  0  0  0  0
   -2.5120   20.2830  -33.3780 N   0  0  0  0  0  0  0  0  0  0  0  0
   -1.1510   20.8630  -33.4650 C   0  0  0  0  0  0  0  0  0  0  0  0
   -3.5500   21.0340  -32.8670 C   0  0  0  0  0  0  0  0  0  0  0  0
   -3.2970   22.2010  -32.1030 C   0  0  0  0  0  0  0  0  0  0  0  0
   -4.3370   23.0140  -31.6310 C   0  0  0  0  0  0  0  0  0  0  0  0
   -4.0980   24.1790  -30.8830 O   0  0  0  0  0  0  0  0  0  0  0  0
   -3.7520   24.2010  -29.5020 C   0  0  0  0  0  0  0  0  0  0  0  0
   -5.6570   22.6650  -31.9020 C   0  0  0  0  0  0  0  0  0  0  0  0
   -6.6750   23.5050  -31.4200 O   0  0  0  0  0  0  0  0  0  0  0  0
   -6.9270   23.7710  -30.0440 C   0  0  0  0  0  0  0  0  0  0  0  0
   -5.9330   21.4940  -32.6240 C   0  0  0  0  0  0  0  0  0  0  0  0
   -4.9000   20.6400  -33.0850 C   0  0  0  0  0  0  0  0  0  0  0  0
   -9.8038   22.3361  -30.4117 H   0  0  0  0  0  0  0  0  0  0  0  0
   -8.8948   22.6005  -31.9384 H   0  0  0  0  0  0  0  0  0  0  0  0
  -10.3729   21.5796  -31.9384 H   0  0  0  0  0  0  0  0  0  0  0  0
   -7.6688   20.9648  -30.6460 H   0  0  0  0  0  0  0  0  0  0  0  0
   -9.1797   20.0080  -30.3505 H   0  0  0  0  0  0  0  0  0  0  0  0
  -10.4759   19.5493  -32.3658 H   0  0  0  0  0  0  0  0  0  0  0  0
   -9.7994   20.5523  -33.6936 H   0  0  0  0  0  0  0  0  0  0  0  0
   -9.5474   18.7737  -33.6936 H   0  0  0  0  0  0  0  0  0  0  0  0
   -7.1096   18.6457  -31.0977 H   0  0  0  0  0  0  0  0  0  0  0  0
   -8.6147   17.8379  -31.6746 H   0  0  0  0  0  0  0  0  0  0  0  0
   -6.1798   17.3693  -32.7706 H   0  0  0  0  0  0  0  0  0  0  0  0
   -7.7386   17.3211  -33.7134 H   0  0  0  0  0  0  0  0  0  0  0  0
   -7.2010   19.7890  -34.1240 H   0  0  0  0  0  0  0  0  0  0  0  0
   -6.5600   18.6240  -35.0420 H   0  0  0  0  0  0  0  0  0  0  0  0
   -5.2875   16.9193  -34.8459 H   0  0  0  0  0  0  0  0  0  0  0  0
   -3.3632   15.4278  -35.3219 H   0  0  0  0  0  0  0  0  0  0  0  0
   -1.0493   16.1619  -34.7917 H   0  0  0  0  0  0  0  0  0  0  0  0
   -0.6435   18.4203  -33.8466 H   0  0  0  0  0  0  0  0  0  0  0  0
   -0.7583   21.0304  -32.4512 H   0  0  0  0  0  0  0  0  0  0  0  0
   -0.4902   20.1683  -34.0042 H   0  0  0  0  0  0  0  0  0  0  0  0
   -1.1944   21.8208  -34.0042 H   0  0  0  0  0  0  0  0  0  0  0  0
   -2.2568   22.4760  -31.8744 H   0  0  0  0  0  0  0  0  0  0  0  0
   -4.6668   24.1428  -28.8938 H   0  0  0  0  0  0  0  0  0  0  0  0
   -3.1040   23.3422  -29.2726 H   0  0  0  0  0  0  0  0  0  0  0  0
   -3.2180   25.1349  -29.2726 H   0  0  0  0  0  0  0  0  0  0  0  0
   -6.3027   23.1120  -29.4228 H   0  0  0  0  0  0  0  0  0  0  0  0
   -6.6845   24.8210  -29.8231 H   0  0  0  0  0  0  0  0  0  0  0  0
   -7.9885   23.5856  -29.8231 H   0  0  0  0  0  0  0  0  0  0  0  0
   -6.9796   21.2316  -32.8381 H   0  0  0  0  0  0  0  0  0  0  0  0
  1  2  1  0
  2  3  1  0
  3  4  1  0
  3  5  1  0
  5  6  1  0
  6  7  1  0
  7  8  1  0
  8  9  2  0
  9 10  1  0
 10 11  2  0
 11 12  1  0
 12 13  2  0
 13 14  1  0
 14 15  2  0
 15 16  1  0
 15 17  1  0
 17 18  2  0
 18 19  1  0
 19 20  1  0
 20 21  1  0
 19 22  2  0
 22 23  1  0
 23 24  1  0
 22 25  1  0
 25 26  2  0
 26  8  1  0
 14  9  1  0
 26 17  1  0
  1 27  1  0
  1 28  1  0
  1 29  1  0
  2 30  1  0
  2 31  1  0
  4 32  1  0
  4 33  1  0
  4 34  1  0
  5 35  1  0
  5 36  1  0
  6 37  1  0
  6 38  1  0
  7 39  1  0
  7 40  1  0
 10 41  1  0
 11 42  1  0
 12 43  1  0
 13 44  1  0
 16 45  1  0
 16 46  1  0
 16 47  1  0
 18 48  1  0
 21 49  1  0
 21 50  1  0
 21 51  1  0
 24 52  1  0
 24 53  1  0
 24 54  1  0
 25 55  1  0
M  CHG  2   7   1  15   1
M  END
>  <UniqueID>  (10) 
10

>  <SMILES>  (10) 
CCN(C)CC[NH2+]c1c2ccccc2[n+](C)c2cc(OC)c(OC)cc12

>  <Energy>  (10) 
84.71042771916464

>  <Genealogy>  (10) 
CCN(C)CC[NH2+]c1c2ccccc2[n+](C)c2cc(OC)c(OC)cc12 (protonated)
CCN(C)CC[NH2+]c1c2ccccc2[n+](C)c2cc(OC)c(OC)cc12 (3D coordinates assigned)
CCN(C)CC[NH2+]c1c2ccccc2[n+](C)c2cc(OC)c(OC)cc12 (optimized conformer: 84.71042771916464 kcal/mol)

>  <smiles>  (10) 
CCN(C)CCNc1c2ccccc2[n+](C)c2cc(OC)c(OC)cc12

>  <score_type>  (10) 
oracle

>  <origin>  (10) 
adg

>  <m_score__min__energy>  (10) 
-7.3600000000000003

>  <m_primary>  (10) 
energy

$$$$
10:0
     RDKit          3D

 38 39  0  0  0  0  0  0  0  0999 V2000
   -6.7660   17.8650  -32.5410 C   0  0  0  0  0  0  0  0  0  0  0  0
   -5.9050   18.7130  -31.5930 C   0  0  0  0  0  0  0  0  0  0  0  0
   -4.7480   19.3890  -32.2470 N   0  0  1  0  0  0  0  0  0  0  0  0
   -3.7610   18.3820  -32.6960 C   0  0  0  0  0  0  0  0  0  0  0  0
   -5.1280   20.3250  -33.3600 C   0  0  2  0  0  0  0  0  0  0  0  0
   -4.0310   21.3700  -33.6740 C   0  0  0  0  0  0  0  0  0  0  0  0
   -3.7420   22.2840  -32.4760 C   0  0  0  0  0  0  0  0  0  0  0  0
   -4.9860   22.7310  -31.7270 C   0  0  0  0  0  0  0  0  0  0  0  0
   -4.8450   23.7080  -30.7190 C   0  0  0  0  0  0  0  0  0  0  0  0
   -3.5730   24.2520  -30.4750 O   0  0  0  0  0  0  0  0  0  0  0  0
   -2.6600   23.7700  -29.4940 C   0  0  0  0  0  0  0  0  0  0  0  0
   -5.9720   24.1110  -29.9830 C   0  0  0  0  0  0  0  0  0  0  0  0
   -7.2200   23.5530  -30.2400 C   0  0  0  0  0  0  0  0  0  0  0  0
   -7.3740   22.5770  -31.2260 C   0  0  0  0  0  0  0  0  0  0  0  0
   -9.1470   21.9060  -31.5330 Br  0  0  0  0  0  0  0  0  0  0  0  0
   -6.2540   22.1340  -31.9630 C   0  0  0  0  0  0  0  0  0  0  0  0
   -6.4240   21.1210  -33.0770 C   0  0  0  0  0  0  0  0  0  0  0  0
   -7.4276   17.2134  -31.9513 H   0  0  0  0  0  0  0  0  0  0  0  0
   -7.3738   18.5270  -33.1753 H   0  0  0  0  0  0  0  0  0  0  0  0
   -6.1133   17.2472  -33.1753 H   0  0  0  0  0  0  0  0  0  0  0  0
   -6.5466   19.4863  -31.1453 H   0  0  0  0  0  0  0  0  0  0  0  0
   -5.4834   18.0206  -30.8495 H   0  0  0  0  0  0  0  0  0  0  0  0
   -4.2850   19.9420  -31.4880 H   0  0  0  0  0  0  0  0  0  0  0  0
   -3.2962   17.9078  -31.8191 H   0  0  0  0  0  0  0  0  0  0  0  0
   -4.2680   17.6162  -33.3014 H   0  0  0  0  0  0  0  0  0  0  0  0
   -2.9851   18.8735  -33.3014 H   0  0  0  0  0  0  0  0  0  0  0  0
   -5.2755   19.6507  -34.2165 H   0  0  0  0  0  0  0  0  0  0  0  0
   -3.1060   20.8414  -33.9476 H   0  0  0  0  0  0  0  0  0  0  0  0
   -4.3912   22.0001  -34.5006 H   0  0  0  0  0  0  0  0  0  0  0  0
   -3.0923   21.7401  -31.7745 H   0  0  0  0  0  0  0  0  0  0  0  0
   -3.2667   23.1921  -32.8753 H   0  0  0  0  0  0  0  0  0  0  0  0
   -3.0567   23.9794  -28.4896 H   0  0  0  0  0  0  0  0  0  0  0  0
   -2.5284   22.6849  -29.6173 H   0  0  0  0  0  0  0  0  0  0  0  0
   -1.6898   24.2734  -29.6173 H   0  0  0  0  0  0  0  0  0  0  0  0
   -5.8666   24.8737  -29.1974 H   0  0  0  0  0  0  0  0  0  0  0  0
   -8.0943   23.8842  -29.6604 H   0  0  0  0  0  0  0  0  0  0  0  0
   -7.2168   20.4137  -32.7921 H   0  0  0  0  0  0  0  0  0  0  0  0
   -6.6827   21.6729  -33.9927 H   0  0  0  0  0  0  0  0  0  0  0  0
  1  2  1  0
  2  3  1  0
  3  4  1  0
  3  5  1  0
  5  6  1  0
  6  7  1  0
  7  8  1  0
  8  9  2  0
  9 10  1  0
 10 11  1  0
  9 12  1  0
 12 13  2  0
 13 14  1  0
 14 15  1  0
 14 16  2  0
 16 17  1  0
 17  5  1  0
 16  8  1  0
  1 18  1  0
  1 19  1  0
  1 20  1  0
  2 21  1  0
  2 22  1  0
  3 23  1  1
  4 24  1  0
  4 25  1  0
  4 26  1  0
  5 27  1  6
  6 28  1  0
  6 29  1  0
  7 30  1  0
  7 31  1  0
 11 32  1  0
 11 33  1  0
 11 34  1  0
 12 35  1  0
 13 36  1  0
 17 37  1  0
 17 38  1  0
M  CHG  1   3   1
M  END
>  <UniqueID>  (11) 
11

>  <SMILES>  (11) 
CC[N@@H+](C)[C@@H]1CCc2c(OC)ccc(Br)c2C1

>  <Energy>  (11) 
48.13293926470278

>  <Genealogy>  (11) 
CC[NH+](C)C1CCc2c(OC)ccc(Br)c2C1 (protonated)
CC[N@@H+](C)[C@@H]1CCc2c(OC)ccc(Br)c2C1 (chirality)
CC[N@@H+](C)[C@@H]1CCc2c(OC)ccc(Br)c2C1 (3D coordinates assigned)
CC[N@@H+](C)[C@@H]1CCc2c(OC)ccc(Br)c2C1 (nonaromatic ring conformer: 48.13293926470278 kcal/mol)

>  <smiles>  (11) 
CCN(C)C1CCc2c(OC)ccc(Br)c2C1

>  <score_type>  (11) 
oracle

>  <origin>  (11) 
adg

>  <m_score__min__energy>  (11) 
-5.8200000000000003

>  <m_primary>  (11) 
energy

$$$$
11:0
     RDKit          3D

 28 28  0  0  0  0  0  0  0  0999 V2000
   -8.9140   18.5420  -31.6090 C   0  0  0  0  0  0  0  0  0  0  0  0
   -8.9230   19.8620  -32.3740 C   0  0  0  0  0  0  0  0  0  0  0  0
   -7.5270   20.4100  -32.5050 C   0  0  0  0  0  0  0  0  0  0  0  0
   -6.5210   19.6420  -33.1090 C   0  0  0  0  0  0  0  0  0  0  0  0
   -5.2190   20.1360  -33.1950 C   0  0  0  0  0  0  0  0  0  0  0  0
   -4.9070   21.3920  -32.6700 C   0  0  0  0  0  0  0  0  0  0  0  0
   -5.8940   22.1730  -32.0470 C   0  0  0  0  0  0  0  0  0  0  0  0
   -5.5260   23.4580  -31.5070 N   0  0  0  0  0  0  0  0  0  0  0  0
   -6.3610   24.2850  -30.6300 C   0  0  0  0  0  0  0  0  0  0  0  0
   -5.7250   25.6580  -30.3940 C   0  0  0  0  0  0  0  0  0  0  0  0
   -4.2810   25.6150  -30.6030 N   0  0  0  0  0  0  0  0  0  0  0  0
   -7.2090   21.6680  -31.9680 C   0  0  0  0  0  0  0  0  0  0  0  0
   -8.9154   18.7448  -30.5279 H   0  0  0  0  0  0  0  0  0  0  0  0
   -9.8082   17.9586  -31.8738 H   0  0  0  0  0  0  0  0  0  0  0  0
   -8.0119   17.9709  -31.8738 H   0  0  0  0  0  0  0  0  0  0  0  0
   -9.3411   19.6950  -33.3776 H   0  0  0  0  0  0  0  0  0  0  0  0
   -9.5375   20.5875  -31.8207 H   0  0  0  0  0  0  0  0  0  0  0  0
   -6.7589   18.6481  -33.5158 H   0  0  0  0  0  0  0  0  0  0  0  0
   -4.4353   19.5340  -33.6781 H   0  0  0  0  0  0  0  0  0  0  0  0
   -3.8780   21.7733  -32.7452 H   0  0  0  0  0  0  0  0  0  0  0  0
   -4.5810   23.8400  -31.7430 H   0  0  0  0  0  0  0  0  0  0  0  0
   -7.3471   24.4219  -31.0979 H   0  0  0  0  0  0  0  0  0  0  0  0
   -6.4595   23.7752  -29.6603 H   0  0  0  0  0  0  0  0  0  0  0  0
   -6.1671   26.3830  -31.0933 H   0  0  0  0  0  0  0  0  0  0  0  0
   -5.9170   25.9559  -29.3527 H   0  0  0  0  0  0  0  0  0  0  0  0
   -3.8670   26.4600  -30.1460 H   0  0  0  0  0  0  0  0  0  0  0  0
   -4.0950   25.7200  -31.6270 H   0  0  0  0  0  0  0  0  0  0  0  0
   -7.9933   22.2659  -31.4807 H   0  0  0  0  0  0  0  0  0  0  0  0
  1  2  1  0
  2  3  1  0
  3  4  2  0
  4  5  1  0
  5  6  2  0
  6  7  1  0
  7  8  1  0
  8  9  1  0
  9 10  1  0
 10 11  1  0
  7 12  2  0
 12  3  1  0
  1 13  1  0
  1 14  1  0
  1 15  1  0
  2 16  1  0
  2 17  1  0
  4 18  1  0
  5 19  1  0
  6 20  1  0
  8 21  1  0
  9 22  1  0
  9 23  1  0
 10 24  1  0
 10 25  1  0
 11 26  1  0
 11 27  1  0
 12 28  1  0
M  END
>  <UniqueID>  (12) 
12

>  <SMILES>  (12) 
CCc1cccc(NCCN)c1

>  <Energy>  (12) 
20.014800701997792

>  <Genealogy>  (12) 
CCc1cccc(NCCN)c1 (3D coordinates assigned)
CCc1cccc(NCCN)c1 (optimized conformer: 20.014800701997792 kcal/mol)

>  <smiles>  (12) 
CCc1cccc(NCCN)c1

>  <score_type>  (12) 
oracle

>  <origin>  (12) 
adg

>  <m_score__min__energy>  (12) 
-6.7199999999999998

>  <m_primary>  (12) 
energy

$$$$
12:0
     RDKit          3D

 57 58  0  0  0  0  0  0  0  0999 V2000
   -9.1310   19.3340  -32.3020 C   0  0  0  0  0  0  0  0  0  0  0  0
   -7.9450   18.4680  -32.7130 C   0  0  0  0  0  0  0  0  0  0  0  0
   -6.7940   18.7080  -31.8160 N   0  0  0  0  0  0  0  0  0  0  0  0
   -6.0810   17.4660  -31.4440 C   0  0  0  0  0  0  0  0  0  0  0  0
   -5.6270   16.6220  -32.6440 C   0  0  0  0  0  0  0  0  0  0  0  0
   -5.7040   19.9300  -32.4420 S   0  0  0  0  0  0  0  0  0  0  0  0
   -4.2790   19.5600  -32.1310 O   0  0  0  0  0  0  0  0  0  0  0  0
   -5.8530   20.0480  -33.9340 O   0  0  0  0  0  0  0  0  0  0  0  0
   -6.0430   21.4800  -31.6800 C   0  0  0  0  0  0  0  0  0  0  0  0
   -7.3580   21.9050  -31.4780 C   0  0  0  0  0  0  0  0  0  0  0  0
   -7.6130   23.1340  -30.8690 C   0  0  0  0  0  0  0  0  0  0  0  0
   -6.5560   23.9570  -30.4410 C   0  0  0  0  0  0  0  0  0  0  0  0
   -6.8900   25.2590  -29.7600 C   0  0  0  0  0  0  0  0  0  0  0  0
   -5.2160   23.5390  -30.6620 C   0  0  0  0  0  0  0  0  0  0  0  0
   -4.0450   24.3620  -30.2750 C   0  0  0  0  0  0  0  0  0  0  0  0
   -3.8570   25.4790  -30.8310 O   0  0  0  0  0  0  0  0  0  0  0  0
   -3.1490   23.9180  -29.2490 N   0  0  0  0  0  0  0  0  0  0  0  0
   -1.6970   24.0300  -29.3350 C   0  0  0  0  0  0  0  0  0  0  0  0
   -1.0700   22.6590  -29.6160 C   0  0  0  0  0  0  0  0  0  0  0  0
   -2.1320   21.5960  -29.9240 C   0  0  0  0  0  0  0  0  0  0  0  0
   -2.0270   20.4480  -28.9950 N   0  0  0  0  0  0  0  0  0  0  0  0
   -2.7700   20.6920  -27.7440 C   0  0  0  0  0  0  0  0  0  0  0  0
   -2.6960   19.4440  -26.8360 C   0  0  0  0  0  0  0  0  0  0  0  0
   -1.7000   18.5240  -27.2520 O   0  0  0  0  0  0  0  0  0  0  0  0
   -0.4830   19.2060  -27.4810 C   0  0  0  0  0  0  0  0  0  0  0  0
   -0.6100   20.1530  -28.6900 C   0  0  0  0  0  0  0  0  0  0  0  0
   -4.9800   22.2920  -31.2700 C   0  0  0  0  0  0  0  0  0  0  0  0
   -9.1904   19.3774  -31.2045 H   0  0  0  0  0  0  0  0  0  0  0  0
   -8.9994   20.3500  -32.7025 H   0  0  0  0  0  0  0  0  0  0  0  0
  -10.0587   18.8993  -32.7025 H   0  0  0  0  0  0  0  0  0  0  0  0
   -8.2336   17.4081  -32.6561 H   0  0  0  0  0  0  0  0  0  0  0  0
   -7.6547   18.7269  -33.7419 H   0  0  0  0  0  0  0  0  0  0  0  0
   -5.1915   17.7403  -30.8579 H   0  0  0  0  0  0  0  0  0  0  0  0
   -6.7917   16.8504  -30.8731 H   0  0  0  0  0  0  0  0  0  0  0  0
   -5.1347   15.7068  -32.2833 H   0  0  0  0  0  0  0  0  0  0  0  0
   -6.5015   16.3518  -33.2541 H   0  0  0  0  0  0  0  0  0  0  0  0
   -4.9196   17.2028  -33.2541 H   0  0  0  0  0  0  0  0  0  0  0  0
   -8.1954   21.2686  -31.8001 H   0  0  0  0  0  0  0  0  0  0  0  0
   -8.6523   23.4629  -30.7220 H   0  0  0  0  0  0  0  0  0  0  0  0
   -6.8548   25.1218  -28.6692 H   0  0  0  0  0  0  0  0  0  0  0  0
   -6.1595   26.0260  -30.0569 H   0  0  0  0  0  0  0  0  0  0  0  0
   -7.8995   25.5797  -30.0569 H   0  0  0  0  0  0  0  0  0  0  0  0
   -1.4346   24.7221  -30.1487 H   0  0  0  0  0  0  0  0  0  0  0  0
   -1.3113   24.4088  -28.3770 H   0  0  0  0  0  0  0  0  0  0  0  0
   -0.3945   22.7473  -30.4796 H   0  0  0  0  0  0  0  0  0  0  0  0
   -0.5233   22.3433  -28.7152 H   0  0  0  0  0  0  0  0  0  0  0  0
   -3.1303   22.0472  -29.8251 H   0  0  0  0  0  0  0  0  0  0  0  0
   -1.9710   21.2301  -30.9488 H   0  0  0  0  0  0  0  0  0  0  0  0
   -2.3279   21.5516  -27.2190 H   0  0  0  0  0  0  0  0  0  0  0  0
   -3.8226   20.9035  -27.9835 H   0  0  0  0  0  0  0  0  0  0  0  0
   -2.4692   19.7682  -25.8096 H   0  0  0  0  0  0  0  0  0  0  0  0
   -3.6676   18.9316  -26.8948 H   0  0  0  0  0  0  0  0  0  0  0  0
   -0.2243   19.7933  -26.5876 H   0  0  0  0  0  0  0  0  0  0  0  0
    0.3034   18.4662  -27.6916 H   0  0  0  0  0  0  0  0  0  0  0  0
   -0.0886   21.0948  -28.4638 H   0  0  0  0  0  0  0  0  0  0  0  0
   -0.1616   19.6605  -29.5654 H   0  0  0  0  0  0  0  0  0  0  0  0
   -3.9457   21.9511  -31.4250 H   0  0  0  0  0  0  0  0  0  0  0  0
  1  2  1  0
  2  3  1  0
  3  4  1  0
  4  5  1  0
  3  6  1  0
  6  7  2  0
  6  8  2  0
  6  9  1  0
  9 10  2  0
 10 11  1  0
 11 12  2  0
 12 13  1  0
 12 14  1  0
 14 15  1  0
 15 16  2  0
 15 17  1  0
 17 18  1  0
 18 19  1  0
 19 20  1  0
 20 21  1  0
 21 22  1  0
 22 23  1  0
 23 24  1  0
 24 25  1  0
 25 26  1  0
 14 27  2  0
 27  9  1  0
 26 21  1  0
  1 28  1  0
  1 29  1  0
  1 30  1  0
  2 31  1  0
  2 32  1  0
  4 33  1  0
  4 34  1  0
  5 35  1  0
  5 36  1  0
  5 37  1  0
 10 38  1  0
 11 39  1  0
 13 40  1  0
 13 41  1  0
 13 42  1  0
 18 43  1  0
 18 44  1  0
 19 45  1  0
 19 46  1  0
 20 47  1  0
 20 48  1  0
 22 49  1  0
 22 50  1  0
 23 51  1  0
 23 52  1  0
 25 53  1  0
 25 54  1  0
 26 55  1  0
 26 56  1  0
 27 57  1  0
M  CHG  1  17  -1
M  END
>  <UniqueID>  (13) 
13

>  <SMILES>  (13) 
CCN(CC)S(=O)(=O)c1ccc(C)c(C(=O)[N-]CCCN2CCOCC2)c1

>  <Energy>  (13) 
63.73795400700546

>  <Genealogy>  (13) 
CCN(CC)S(=O)(=O)c1ccc(C)c(C(=O)[N-]CCCN2CCOCC2)c1 (protonated)
CCN(CC)S(=O)(=O)c1ccc(C)c(C(=O)[N-]CCCN2CCOCC2)c1 (3D coordinates assigned)
CCN(CC)S(=O)(=O)c1ccc(C)c(C(=O)[N-]CCCN2CCOCC2)c1 (nonaromatic ring conformer: 63.73795400700546 kcal/mol)

>  <smiles>  (13) 
CCN(CC)S(=O)(=O)c1ccc(C)c(C(=O)NCCCN2CCOCC2)c1

>  <score_type>  (13) 
oracle

>  <origin>  (13) 
adg

>  <m_score__min__energy>  (13) 
-9.5999999999999996

>  <m_primary>  (13) 
energy

$$$$
13:0
     RDKit          3D

 63 66  0  0  0  0  0  0  0  0999 V2000
   -0.4600   22.2310  -28.8530 C   0  0  0  0  0  0  0  0  0  0  0  0
   -0.5370   21.7060  -30.2840 C   0  0  0  0  0  0  0  0  0  0  0  0
   -0.6920   20.2320  -30.2880 N   0  0  0  0  0  0  0  0  0  0  0  0
   -0.9260   19.7180  -28.9190 C   0  0  0  0  0  0  0  0  0  0  0  0
   -0.0650   18.4840  -28.6630 C   0  0  0  0  0  0  0  0  0  0  0  0
    0.4830   19.5750  -30.9060 C   0  0  0  0  0  0  0  0  0  0  0  0
    0.5440   19.8680  -32.4070 C   0  0  0  0  0  0  0  0  0  0  0  0
   -0.3510   19.0140  -33.0870 O   0  0  0  0  0  0  0  0  0  0  0  0
   -0.8340   19.6590  -34.2470 C   0  0  0  0  0  0  0  0  0  0  0  0
   -1.7540   20.8100  -33.8470 C   0  0  0  0  0  0  0  0  0  0  0  0
   -2.4330   20.5330  -32.5810 N   0  0  0  0  0  0  0  0  0  0  0  0
   -3.8640   20.5720  -32.4850 C   0  0  0  0  0  0  0  0  0  0  0  0
   -4.6740   19.5100  -32.9480 C   0  0  0  0  0  0  0  0  0  0  0  0
   -4.0910   18.3350  -33.4600 C   0  0  0  0  0  0  0  0  0  0  0  0
   -4.8870   17.2620  -33.8550 C   0  0  0  0  0  0  0  0  0  0  0  0
   -6.2710   17.3340  -33.7310 C   0  0  0  0  0  0  0  0  0  0  0  0
   -6.8780   18.4870  -33.2320 C   0  0  0  0  0  0  0  0  0  0  0  0
   -6.1060   19.6120  -32.8540 C   0  0  0  0  0  0  0  0  0  0  0  0
   -6.6950   20.7770  -32.3780 N   0  0  0  0  0  0  0  0  0  0  0  0
   -8.1410   21.0280  -32.5080 C   0  0  0  0  0  0  0  0  0  0  0  0
   -5.8760   21.7320  -31.8320 C   0  0  0  0  0  0  0  0  0  0  0  0
   -4.5030   21.6600  -31.9090 C   0  0  0  0  0  0  0  0  0  0  0  0
   -3.9360   22.7240  -31.3840 O   0  0  0  0  0  0  0  0  0  0  0  0
   -4.9040   23.4920  -30.9340 C   0  0  0  0  0  0  0  0  0  0  0  0
   -4.7560   24.7160  -30.2850 C   0  0  0  0  0  0  0  0  0  0  0  0
   -3.4710   25.2440  -30.1000 O   0  0  0  0  0  0  0  0  0  0  0  0
   -2.4830   24.6610  -29.2580 C   0  0  0  0  0  0  0  0  0  0  0  0
   -5.9300   25.3610  -29.8330 C   0  0  0  0  0  0  0  0  0  0  0  0
   -7.1940   24.7620  -30.0210 C   0  0  0  0  0  0  0  0  0  0  0  0
   -7.3130   23.5290  -30.6860 C   0  0  0  0  0  0  0  0  0  0  0  0
   -6.1440   22.9260  -31.1670 C   0  0  0  0  0  0  0  0  0  0  0  0
   -0.5826   21.3950  -28.1486 H   0  0  0  0  0  0  0  0  0  0  0  0
    0.5177   22.7078  -28.6895 H   0  0  0  0  0  0  0  0  0  0  0  0
   -1.2596   22.9685  -28.6895 H   0  0  0  0  0  0  0  0  0  0  0  0
   -1.4000   22.1622  -30.7911 H   0  0  0  0  0  0  0  0  0  0  0  0
    0.3932   21.9675  -30.8097 H   0  0  0  0  0  0  0  0  0  0  0  0
   -0.6673   20.4990  -28.1889 H   0  0  0  0  0  0  0  0  0  0  0  0
   -1.9860   19.4427  -28.8161 H   0  0  0  0  0  0  0  0  0  0  0  0
    0.0423   18.3302  -27.5791 H   0  0  0  0  0  0  0  0  0  0  0  0
   -0.5450   17.6023  -29.1127 H   0  0  0  0  0  0  0  0  0  0  0  0
    0.9282   18.6302  -29.1127 H   0  0  0  0  0  0  0  0  0  0  0  0
    1.3993   19.9514  -30.4278 H   0  0  0  0  0  0  0  0  0  0  0  0
    0.3944   18.4880  -30.7628 H   0  0  0  0  0  0  0  0  0  0  0  0
    0.2615   20.9155  -32.5885 H   0  0  0  0  0  0  0  0  0  0  0  0
    1.5667   19.6967  -32.7741 H   0  0  0  0  0  0  0  0  0  0  0  0
    0.0138   20.0525  -34.8271 H   0  0  0  0  0  0  0  0  0  0  0  0
   -1.3956   18.9380  -34.8591 H   0  0  0  0  0  0  0  0  0  0  0  0
   -1.1552   21.7264  -33.7393 H   0  0  0  0  0  0  0  0  0  0  0  0
   -2.5166   20.9329  -34.6301 H   0  0  0  0  0  0  0  0  0  0  0  0
   -1.8800   20.4430  -31.6970 H   0  0  0  0  0  0  0  0  0  0  0  0
   -2.9969   18.2636  -33.5489 H   0  0  0  0  0  0  0  0  0  0  0  0
   -4.4199   16.3550  -34.2662 H   0  0  0  0  0  0  0  0  0  0  0  0
   -6.8912   16.4756  -34.0286 H   0  0  0  0  0  0  0  0  0  0  0  0
   -7.9728   18.5224  -33.1308 H   0  0  0  0  0  0  0  0  0  0  0  0
   -8.5910   21.1061  -31.5073 H   0  0  0  0  0  0  0  0  0  0  0  0
   -8.3022   21.9676  -33.0569 H   0  0  0  0  0  0  0  0  0  0  0  0
   -8.6094   20.1977  -33.0569 H   0  0  0  0  0  0  0  0  0  0  0  0
   -2.7569   24.8226  -28.2050 H   0  0  0  0  0  0  0  0  0  0  0  0
   -2.4206   23.5813  -29.4591 H   0  0  0  0  0  0  0  0  0  0  0  0
   -1.5077   25.1284  -29.4591 H   0  0  0  0  0  0  0  0  0  0  0  0
   -5.8578   26.3371  -29.3310 H   0  0  0  0  0  0  0  0  0  0  0  0
   -8.0961   25.2654  -29.6430 H   0  0  0  0  0  0  0  0  0  0  0  0
   -8.2946   23.0523  -30.8243 H   0  0  0  0  0  0  0  0  0  0  0  0
  1  2  1  0
  2  3  1  0
  3  4  1  0
  4  5  1  0
  3  6  1  0
  6  7  1  0
  7  8  1  0
  8  9  1  0
  9 10  1  0
 10 11  1  0
 11 12  1  0
 12 13  2  0
 13 14  1  0
 14 15  2  0
 15 16  1  0
 16 17  2  0
 17 18  1  0
 18 19  2  0
 19 20  1  0
 19 21  1  0
 21 22  2  0
 22 23  1  0
 23 24  1  0
 24 25  2  0
 25 26  1  0
 26 27  1  0
 25 28  1  0
 28 29  2  0
 29 30  1  0
 30 31  2  0
 22 12  1  0
 31 24  1  0
 18 13  1  0
 31 21  1  0
  1 32  1  0
  1 33  1  0
  1 34  1  0
  2 35  1  0
  2 36  1  0
  4 37  1  0
  4 38  1  0
  5 39  1  0
  5 40  1  0
  5 41  1  0
  6 42  1  0
  6 43  1  0
  7 44  1  0
  7 45  1  0
  9 46  1  0
  9 47  1  0
 10 48  1  0
 10 49  1  0
 11 50  1  0
 14 51  1  0
 15 52  1  0
 16 53  1  0
 17 54  1  0
 20 55  1  0
 20 56  1  0
 20 57  1  0
 27 58  1  0
 27 59  1  0
 27 60  1  0
 28 61  1  0
 29 62  1  0
 30 63  1  0
M  CHG  1  19   1
M  END
>  <UniqueID>  (14) 
14

>  <SMILES>  (14) 
CCN(CC)CCOCCNc1c2ccccc2[n+](C)c2c1oc1c(OC)cccc12

>  <Energy>  (14) 
120.45884215958478

>  <Genealogy>  (14) 
CCN(CC)CCOCCNc1c2ccccc2[n+](C)c2c1oc1c(OC)cccc12 (3D coordinates assigned)
CCN(CC)CCOCCNc1c2ccccc2[n+](C)c2c1oc1c(OC)cccc12 (optimized conformer: 120.45884215958478 kcal/mol)

>  <smiles>  (14) 
CCN(CC)CCOCCNc1c2ccccc2[n+](C)c2c1oc1c(OC)cccc12

>  <score_type>  (14) 
oracle

>  <origin>  (14) 
adg

>  <m_score__min__energy>  (14) 
-8.5899999999999999

>  <m_primary>  (14) 
energy

$$$$
14:0
     RDKit          3D

 50 51  0  0  0  0  0  0  0  0999 V2000
   -8.3330   18.3890  -31.9450 C   0  0  0  0  0  0  0  0  0  0  0  0
   -6.9160   17.8900  -31.6240 C   0  0  0  0  0  0  0  0  0  0  0  0
   -6.0020   17.7710  -32.7910 N   0  0  0  0  0  0  0  0  0  0  0  0
   -6.4670   16.8630  -33.8650 C   0  0  0  0  0  0  0  0  0  0  0  0
   -5.7680   15.5000  -33.8200 C   0  0  0  0  0  0  0  0  0  0  0  0
   -5.5610   19.3340  -33.4530 S   0  0  0  0  0  0  0  0  0  0  0  0
   -4.1730   19.2620  -34.0280 O   0  0  0  0  0  0  0  0  0  0  0  0
   -6.5010   19.6720  -34.5770 O   0  0  0  0  0  0  0  0  0  0  0  0
   -5.6330   20.6420  -32.2680 C   0  0  0  0  0  0  0  0  0  0  0  0
   -4.5340   20.8970  -31.4370 C   0  0  0  0  0  0  0  0  0  0  0  0
   -4.5900   21.9270  -30.4930 C   0  0  0  0  0  0  0  0  0  0  0  0
   -5.7430   22.7090  -30.3590 C   0  0  0  0  0  0  0  0  0  0  0  0
   -5.7430   23.7340  -29.3980 O   0  0  0  0  0  0  0  0  0  0  0  0
   -4.5860   24.2260  -28.7220 C   0  0  0  0  0  0  0  0  0  0  0  0
   -3.6630   24.9270  -29.6830 C   0  0  0  0  0  0  0  0  0  0  0  0
   -4.0550   25.1490  -30.8590 O   0  0  0  0  0  0  0  0  0  0  0  0
   -2.3280   25.2970  -29.3200 N   0  0  0  0  0  0  0  0  0  0  0  0
   -1.4840   24.5500  -28.3970 C   0  0  0  0  0  0  0  0  0  0  0  0
   -1.5280   23.0930  -28.7510 C   0  0  0  0  0  0  0  0  0  0  0  0
   -1.1660   22.6640  -30.0400 C   0  0  0  0  0  0  0  0  0  0  0  0
   -1.1770   21.3030  -30.3570 C   0  0  0  0  0  0  0  0  0  0  0  0
   -1.5350   20.3600  -29.3900 C   0  0  0  0  0  0  0  0  0  0  0  0
   -1.8800   20.7760  -28.1000 C   0  0  0  0  0  0  0  0  0  0  0  0
   -2.3660   19.4850  -26.7770 Br  0  0  0  0  0  0  0  0  0  0  0  0
   -1.8720   22.1380  -27.7790 C   0  0  0  0  0  0  0  0  0  0  0  0
   -6.8530   22.4390  -31.1830 C   0  0  0  0  0  0  0  0  0  0  0  0
   -6.7970   21.4100  -32.1270 C   0  0  0  0  0  0  0  0  0  0  0  0
   -8.8756   18.5801  -31.0074 H   0  0  0  0  0  0  0  0  0  0  0  0
   -8.2707   19.3193  -32.5287 H   0  0  0  0  0  0  0  0  0  0  0  0
   -8.8673   17.6250  -32.5287 H   0  0  0  0  0  0  0  0  0  0  0  0
   -6.4630   18.5919  -30.9084 H   0  0  0  0  0  0  0  0  0  0  0  0
   -7.0361   16.8708  -31.2279 H   0  0  0  0  0  0  0  0  0  0  0  0
   -5.1020   17.3800  -32.4230 H   0  0  0  0  0  0  0  0  0  0  0  0
   -7.5503   16.7085  -33.7527 H   0  0  0  0  0  0  0  0  0  0  0  0
   -6.2251   17.3327  -34.8298 H   0  0  0  0  0  0  0  0  0  0  0  0
   -5.6147   15.2010  -32.7726 H   0  0  0  0  0  0  0  0  0  0  0  0
   -6.3930   14.7505  -34.3276 H   0  0  0  0  0  0  0  0  0  0  0  0
   -4.7946   15.5702  -34.3276 H   0  0  0  0  0  0  0  0  0  0  0  0
   -3.6244   20.2850  -31.5275 H   0  0  0  0  0  0  0  0  0  0  0  0
   -3.7198   22.1245  -29.8497 H   0  0  0  0  0  0  0  0  0  0  0  0
   -4.8988   24.9343  -27.9407 H   0  0  0  0  0  0  0  0  0  0  0  0
   -4.0502   23.3754  -28.2754 H   0  0  0  0  0  0  0  0  0  0  0  0
   -0.4486   24.9143  -28.4694 H   0  0  0  0  0  0  0  0  0  0  0  0
   -1.8495   24.6899  -27.3690 H   0  0  0  0  0  0  0  0  0  0  0  0
   -0.8732   23.4019  -30.8014 H   0  0  0  0  0  0  0  0  0  0  0  0
   -0.9032   20.9733  -31.3701 H   0  0  0  0  0  0  0  0  0  0  0  0
   -1.5455   19.2897  -29.6435 H   0  0  0  0  0  0  0  0  0  0  0  0
   -2.1361   22.4625  -26.7617 H   0  0  0  0  0  0  0  0  0  0  0  0
   -7.7683   23.0409  -31.0830 H   0  0  0  0  0  0  0  0  0  0  0  0
   -7.6705   21.2018  -32.7623 H   0  0  0  0  0  0  0  0  0  0  0  0
  1  2  1  0
  2  3  1  0
  3  4  1  0
  4  5  1  0
  3  6  1  0
  6  7  2  0
  6  8  2  0
  6  9  1  0
  9 10  2  0
 10 11  1  0
 11 12  2  0
 12 13  1  0
 13 14  1  0
 14 15  1  0
 15 16  2  0
 15 17  1  0
 17 18  1  0
 18 19  1  0
 19 20  2  0
 20 21  1  0
 21 22  2  0
 22 23  1  0
 23 24  1  0
 23 25  2  0
 12 26  1  0
 26 27  2  0
 27  9  1  0
 25 19  1  0
  1 28  1  0
  1 29  1  0
  1 30  1  0
  2 31  1  0
  2 32  1  0
  3 33  1  0
  4 34  1  0
  4 35  1  0
  5 36  1  0
  5 37  1  0
  5 38  1  0
 10 39  1  0
 11 40  1  0
 14 41  1  0
 14 42  1  0
 18 43  1  0
 18 44  1  0
 20 45  1  0
 21 46  1  0
 22 47  1  0
 25 48  1  0
 26 49  1  0
 27 50  1  0
M  CHG  2   3   1  17  -1
M  END
>  <UniqueID>  (15) 
15

>  <SMILES>  (15) 
CC[NH+](CC)S(=O)(=O)c1ccc(OCC(=O)[N-]Cc2cccc(Br)c2)cc1

>  <Energy>  (15) 
47.89165547494963

>  <Genealogy>  (15) 
CC[NH+](CC)S(=O)(=O)c1ccc(OCC(=O)[N-]Cc2cccc(Br)c2)cc1 (protonated)
CC[NH+](CC)S(=O)(=O)c1ccc(OCC(=O)[N-]Cc2cccc(Br)c2)cc1 (3D coordinates assigned)
CC[NH+](CC)S(=O)(=O)c1ccc(OCC(=O)[N-]Cc2cccc(Br)c2)cc1 (optimized conformer: 47.89165547494963 kcal/mol)

>  <smiles>  (15) 
CCN(CC)S(=O)(=O)c1ccc(OCC(=O)NCc2cccc(Br)c2)cc1

>  <score_type>  (15) 
oracle

>  <origin>  (15) 
adg

>  <m_score__min__energy>  (15) 
-10.720000000000001

>  <m_primary>  (15) 
energy

$$$$
15:0
     RDKit          3D

 57 60  0  0  0  0  0  0  0  0999 V2000
   -3.6390   20.1500  -31.9780 C   0  0  0  0  0  0  0  0  0  0  0  0
   -4.0370   21.1270  -33.0740 C   0  0  0  0  0  0  0  0  0  0  0  0
   -5.2330   20.6740  -33.7030 O   0  0  0  0  0  0  0  0  0  0  0  0
   -5.7410   19.3680  -33.6150 C   0  0  0  0  0  0  0  0  0  0  0  0
   -5.1560   18.3020  -34.3300 C   0  0  0  0  0  0  0  0  0  0  0  0
   -5.6800   17.0130  -34.2370 C   0  0  0  0  0  0  0  0  0  0  0  0
   -6.7920   16.7650  -33.4330 C   0  0  0  0  0  0  0  0  0  0  0  0
   -7.3830   17.8080  -32.7170 C   0  0  0  0  0  0  0  0  0  0  0  0
   -6.8680   19.1160  -32.7960 C   0  0  0  0  0  0  0  0  0  0  0  0
   -7.5180   20.2010  -32.0230 C   0  0  0  0  0  0  0  0  0  0  0  0
   -6.8360   21.0850  -31.2600 N   0  0  0  0  0  0  0  0  0  0  0  0
   -7.8070   21.8700  -30.7570 C   0  0  0  0  0  0  0  0  0  0  0  0
   -7.5660   22.9910  -29.7860 C   0  0  0  0  0  0  0  0  0  0  0  0
   -7.1790   24.2530  -30.4680 N   0  0  0  0  0  0  0  0  0  0  0  0
   -6.6580   25.2870  -29.5370 C   0  0  0  0  0  0  0  0  0  0  0  0
   -5.3630   24.8350  -28.8460 C   0  0  0  0  0  0  0  0  0  0  0  0
   -4.5350   24.0490  -29.7660 N   0  0  0  0  0  0  0  0  0  0  0  0
   -3.4550   23.2500  -29.2530 C   0  0  0  0  0  0  0  0  0  0  0  0
   -3.6220   21.8630  -29.0980 C   0  0  0  0  0  0  0  0  0  0  0  0
   -2.5790   21.0770  -28.6050 C   0  0  0  0  0  0  0  0  0  0  0  0
   -1.3610   21.6650  -28.2640 C   0  0  0  0  0  0  0  0  0  0  0  0
   -1.1770   23.0410  -28.4230 C   0  0  0  0  0  0  0  0  0  0  0  0
   -2.2200   23.8450  -28.9260 C   0  0  0  0  0  0  0  0  0  0  0  0
   -2.0590   25.2250  -29.1310 O   0  0  0  0  0  0  0  0  0  0  0  0
   -1.2540   26.0750  -28.3210 C   0  0  0  0  0  0  0  0  0  0  0  0
   -4.7390   24.1930  -31.2090 C   0  0  0  0  0  0  0  0  0  0  0  0
   -6.2240   23.9910  -31.5820 C   0  0  0  0  0  0  0  0  0  0  0  0
   -9.0320   21.4420  -31.2150 C   0  0  0  0  0  0  0  0  0  0  0  0
   -8.8170   20.4140  -31.9960 O   0  0  0  0  0  0  0  0  0  0  0  0
   -3.8250   20.6065  -30.9946 H   0  0  0  0  0  0  0  0  0  0  0  0
   -4.2339   19.2297  -32.0734 H   0  0  0  0  0  0  0  0  0  0  0  0
   -2.5703   19.9074  -32.0734 H   0  0  0  0  0  0  0  0  0  0  0  0
   -4.2075   22.1210  -32.6349 H   0  0  0  0  0  0  0  0  0  0  0  0
   -3.2312   21.1891  -33.8202 H   0  0  0  0  0  0  0  0  0  0  0  0
   -4.2787   18.4891  -34.9666 H   0  0  0  0  0  0  0  0  0  0  0  0
   -5.2150   16.1898  -34.7993 H   0  0  0  0  0  0  0  0  0  0  0  0
   -7.2038   15.7474  -33.3628 H   0  0  0  0  0  0  0  0  0  0  0  0
   -8.2600   17.6056  -32.0847 H   0  0  0  0  0  0  0  0  0  0  0  0
   -8.4881   23.1669  -29.2126 H   0  0  0  0  0  0  0  0  0  0  0  0
   -6.7352   22.6947  -29.1287 H   0  0  0  0  0  0  0  0  0  0  0  0
   -8.0490   24.6450  -30.9000 H   0  0  0  0  0  0  0  0  0  0  0  0
   -6.4557   26.2072  -30.1047 H   0  0  0  0  0  0  0  0  0  0  0  0
   -7.4170   25.4595  -28.7597 H   0  0  0  0  0  0  0  0  0  0  0  0
   -4.7991   25.7212  -28.5193 H   0  0  0  0  0  0  0  0  0  0  0  0
   -5.6229   24.2090  -27.9796 H   0  0  0  0  0  0  0  0  0  0  0  0
   -4.5801   21.3942  -29.3667 H   0  0  0  0  0  0  0  0  0  0  0  0
   -2.7179   19.9924  -28.4853 H   0  0  0  0  0  0  0  0  0  0  0  0
   -0.5434   21.0441  -27.8690 H   0  0  0  0  0  0  0  0  0  0  0  0
   -0.2137   23.4991  -28.1544 H   0  0  0  0  0  0  0  0  0  0  0  0
   -1.4524   25.8655  -27.2595 H   0  0  0  0  0  0  0  0  0  0  0  0
   -0.1917   25.8906  -28.5388 H   0  0  0  0  0  0  0  0  0  0  0  0
   -1.4959   27.1257  -28.5388 H   0  0  0  0  0  0  0  0  0  0  0  0
   -4.4247   25.2009  -31.5177 H   0  0  0  0  0  0  0  0  0  0  0  0
   -4.1412   23.4273  -31.7251 H   0  0  0  0  0  0  0  0  0  0  0  0
   -6.4665   24.6725  -32.4107 H   0  0  0  0  0  0  0  0  0  0  0  0
   -6.3389   22.9308  -31.8517 H   0  0  0  0  0  0  0  0  0  0  0  0
  -10.0100   21.8820  -30.9702 H   0  0  0  0  0  0  0  0  0  0  0  0
  1  2  1  0
  2  3  1  0
  3  4  1  0
  4  5  2  0
  5  6  1  0
  6  7  2  0
  7  8  1  0
  8  9  2  0
  9 10  1  0
 10 11  2  0
 11 12  1  0
 12 13  1  0
 13 14  1  0
 14 15  1  0
 15 16  1  0
 16 17  1  0
 17 18  1  0
 18 19  2  0
 19 20  1  0
 20 21  2  0
 21 22  1  0
 22 23  2  0
 23 24  1  0
 24 25  1  0
 17 26  1  0
 26 27  1  0
 12 28  2  0
 28 29  1  0
  9  4  1  0
 29 10  1  0
 27 14  1  0
 23 18  1  0
  1 30  1  0
  1 31  1  0
  1 32  1  0
  2 33  1  0
  2 34  1  0
  5 35  1  0
  6 36  1  0
  7 37  1  0
  8 38  1  0
 13 39  1  0
 13 40  1  0
 14 41  1  0
 15 42  1  0
 15 43  1  0
 16 44  1  0
 16 45  1  0
 19 46  1  0
 20 47  1  0
 21 48  1  0
 22 49  1  0
 25 50  1  0
 25 51  1  0
 25 52  1  0
 26 53  1  0
 26 54  1  0
 27 55  1  0
 27 56  1  0
 28 57  1  0
M  CHG  1  14   1
M  END
>  <UniqueID>  (16) 
16

>  <SMILES>  (16) 
CCOc1ccccc1-c1nc(C[NH+]2CCN(c3ccccc3OC)CC2)co1

>  <Energy>  (16) 
99.4023647035737

>  <Genealogy>  (16) 
CCOc1ccccc1-c1nc(C[NH+]2CCN(c3ccccc3OC)CC2)co1 (protonated)
CCOc1ccccc1-c1nc(C[NH+]2CCN(c3ccccc3OC)CC2)co1 (3D coordinates assigned)
CCOc1ccccc1-c1nc(C[NH+]2CCN(c3ccccc3OC)CC2)co1 (nonaromatic ring conformer: 99.4023647035737 kcal/mol)

>  <smiles>  (16) 
CCOc1ccccc1-c1nc(CN2CCN(c3ccccc3OC)CC2)co1

>  <score_type>  (16) 
oracle

>  <origin>  (16) 
adg

>  <m_score__min__energy>  (16) 
-7.3399999999999999

>  <m_primary>  (16) 
energy

$$$$
16:0
     RDKit          3D

 41 43  0  0  0  0  0  0  0  0999 V2000
   -8.1005   24.2230  -30.8970 H   0  0  0  0  0  0  0  0  0  0  0  0
   -7.8580   23.2670  -31.3840 C   0  0  0  0  0  0  0  0  0  0  0  0
   -8.7480   22.2940  -31.6940 N   0  0  0  0  0  0  0  0  0  0  0  0
   -8.1000   21.2950  -32.2780 N   0  0  0  0  0  0  0  0  0  0  0  0
   -8.7400   20.0490  -32.6950 C   0  0  0  0  0  0  0  0  0  0  0  0
   -9.8274   20.2051  -32.7520 H   0  0  0  0  0  0  0  0  0  0  0  0
   -8.3389   19.7619  -33.6782 H   0  0  0  0  0  0  0  0  0  0  0  0
   -8.4480   18.9210  -31.7020 C   0  0  0  0  0  0  0  0  0  0  0  0
   -7.8973   19.3282  -30.8412 H   0  0  0  0  0  0  0  0  0  0  0  0
   -9.3997   18.4833  -31.3662 H   0  0  0  0  0  0  0  0  0  0  0  0
   -7.6380   17.8730  -32.3460 N   0  0  0  0  0  0  0  0  0  0  0  0
   -7.2580   18.2500  -33.2460 H   0  0  0  0  0  0  0  0  0  0  0  0
   -6.4930   17.4920  -31.5170 C   0  0  0  0  0  0  0  0  0  0  0  0
   -6.7634   17.5820  -30.4546 H   0  0  0  0  0  0  0  0  0  0  0  0
   -6.2112   16.4517  -31.7368 H   0  0  0  0  0  0  0  0  0  0  0  0
   -5.6441   18.1561  -31.7368 H   0  0  0  0  0  0  0  0  0  0  0  0
   -6.7950   21.6170  -32.3350 C   0  0  0  0  0  0  0  0  0  0  0  0
   -6.5880   22.8620  -31.7810 C   0  0  0  0  0  0  0  0  0  0  0  0
   -5.2740   23.4260  -31.7190 C   0  0  0  0  0  0  0  0  0  0  0  0
   -4.9960   24.5950  -31.2130 N   0  0  0  0  0  0  0  0  0  0  0  0
   -5.6770   25.2950  -30.1320 C   0  0  0  0  0  0  0  0  0  0  0  0
   -5.3118   24.9196  -29.1647 H   0  0  0  0  0  0  0  0  0  0  0  0
   -5.4729   26.3733  -30.2075 H   0  0  0  0  0  0  0  0  0  0  0  0
   -6.7605   25.1207  -30.2075 H   0  0  0  0  0  0  0  0  0  0  0  0
   -4.2350   22.6820  -32.2270 N   0  0  0  0  0  0  0  0  0  0  0  0
   -4.4750   21.4510  -32.7640 C   0  0  0  0  0  0  0  0  0  0  0  0
   -5.7150   20.9020  -32.8340 C   0  0  0  0  0  0  0  0  0  0  0  0
   -5.6660   19.6920  -33.4230 N   0  0  0  0  0  0  0  0  0  0  0  0
   -4.3400   19.5480  -33.6990 C   0  0  0  0  0  0  0  0  0  0  0  0
   -3.9192   18.6604  -34.1940 H   0  0  0  0  0  0  0  0  0  0  0  0
   -3.5880   20.6080  -33.3030 N   0  0  0  0  0  0  0  0  0  0  0  0
   -2.1500   20.8020  -33.4860 C   0  0  0  0  0  0  0  0  0  0  0  0
   -1.9593   21.8554  -33.7390 H   0  0  0  0  0  0  0  0  0  0  0  0
   -1.8094   20.1410  -34.2966 H   0  0  0  0  0  0  0  0  0  0  0  0
   -1.3770   20.4460  -32.2120 C   0  0  0  0  0  0  0  0  0  0  0  0
   -0.3483   20.1709  -32.4877 H   0  0  0  0  0  0  0  0  0  0  0  0
   -1.8995   19.6100  -31.7241 H   0  0  0  0  0  0  0  0  0  0  0  0
   -1.3260   21.6070  -31.2210 C   0  0  0  0  0  0  0  0  0  0  0  0
   -1.3433   21.2134  -30.1940 H   0  0  0  0  0  0  0  0  0  0  0  0
   -0.4017   22.1825  -31.3776 H   0  0  0  0  0  0  0  0  0  0  0  0
   -2.1963   22.2613  -31.3776 H   0  0  0  0  0  0  0  0  0  0  0  0
  1  2  1  0
  2  3  2  0
  3  4  1  0
  4  5  1  0
  5  6  1  0
  5  7  1  0
  5  8  1  0
  8  9  1  0
  8 10  1  0
  8 11  1  0
 11 12  1  0
 11 13  1  0
 13 14  1  0
 13 15  1  0
 13 16  1  0
  4 17  1  0
 17 18  2  0
 18 19  1  0
 19 20  2  0
 20 21  1  0
 21 22  1  0
 21 23  1  0
 21 24  1  0
 19 25  1  0
 25 26  1  0
 26 27  2  0
 27 28  1  0
 28 29  2  0
 29 30  1  0
 29 31  1  0
 31 32  1  0
 32 33  1  0
 32 34  1  0
 32 35  1  0
 35 36  1  0
 35 37  1  0
 35 38  1  0
 38 39  1  0
 38 40  1  0
 38 41  1  0
 18  2  1  0
 31 26  1  0
 27 17  1  0
M  CHG  1  25  -1
M  END
>  <UniqueID>  (17) 
17

>  <SMILES>  (17) 
CCCn1cnc2c1[n-]/c(=N/C)c1cnn(CCNC)c12

>  <Energy>  (17) 
118.34486240925187

>  <Genealogy>  (17) 
CCCn1cnc2c1[n-]c(=NC)c1cnn(CCNC)c12 (protonated)
CCCn1cnc2c1[n-]/c(=N/C)c1cnn(CCNC)c12 (cis-trans isomerization)
CCCn1cnc2c1[n-]/c(=N/C)c1cnn(CCNC)c12 (3D coordinates assigned)
CCCn1cnc2c1[n-]/c(=N/C)c1cnn(CCNC)c12 (optimized conformer: 118.34486240925187 kcal/mol)

>  <smiles>  (17) 
CCCn1cnc2c1[nH]c(=NC)c1cnn(CCNC)c12

>  <score_type>  (17) 
oracle

>  <origin>  (17) 
adg

>  <m_score__min__energy>  (17) 
-7.1699999999999999

>  <m_primary>  (17) 
energy

$$$$
17:0
     RDKit          3D

 45 47  0  0  0  0  0  0  0  0999 V2000
   -6.2760   25.6770  -29.2910 C   0  0  0  0  0  0  0  0  0  0  0  0
   -5.3770   26.0470  -30.4660 C   0  0  0  0  0  0  0  0  0  0  0  0
   -4.7190   24.8900  -30.9820 O   0  0  0  0  0  0  0  0  0  0  0  0
   -5.3200   23.6400  -31.2240 C   0  0  0  0  0  0  0  0  0  0  0  0
   -6.7140   23.4910  -31.3670 C   0  0  0  0  0  0  0  0  0  0  0  0
   -7.2680   22.2340  -31.6200 C   0  0  0  0  0  0  0  0  0  0  0  0
   -6.4440   21.1150  -31.7360 C   0  0  0  0  0  0  0  0  0  0  0  0
   -5.0620   21.2470  -31.5990 C   0  0  0  0  0  0  0  0  0  0  0  0
   -4.4910   22.5040  -31.3370 C   0  0  0  0  0  0  0  0  0  0  0  0
   -2.9910   22.6360  -31.2120 C   0  0  0  0  0  0  0  0  0  0  0  0
   -2.6280   23.2750  -29.9310 N   0  0  0  0  0  0  0  0  0  0  0  0
   -1.1670   23.2080  -29.6840 C   0  0  0  0  0  0  0  0  0  0  0  0
   -0.7730   23.3420  -28.1950 C   0  0  0  0  0  0  0  0  0  0  0  0
   -1.8300   23.9630  -27.3780 N   0  0  0  0  0  0  0  0  0  0  0  0
   -1.4630   24.7360  -26.2080 C   0  0  0  0  0  0  0  0  0  0  0  0
   -0.6530   24.2040  -25.1860 C   0  0  0  0  0  0  0  0  0  0  0  0
   -0.3320   24.9710  -24.1090 N   0  0  0  0  0  0  0  0  0  0  0  0
   -0.7790   26.2480  -23.9970 C   0  0  0  0  0  0  0  0  0  0  0  0
   -1.5820   26.7850  -25.0020 C   0  0  0  0  0  0  0  0  0  0  0  0
   -1.9020   26.0210  -26.0770 N   0  0  0  0  0  0  0  0  0  0  0  0
   -3.2350   23.5800  -27.6000 C   0  0  0  0  0  0  0  0  0  0  0  0
   -3.3810   22.6760  -28.8200 C   0  0  0  0  0  0  0  0  0  0  0  0
   -5.7532   25.8922  -28.3474 H   0  0  0  0  0  0  0  0  0  0  0  0
   -7.2034   26.2665  -29.3390 H   0  0  0  0  0  0  0  0  0  0  0  0
   -6.5198   24.6054  -29.3390 H   0  0  0  0  0  0  0  0  0  0  0  0
   -5.9890   26.4988  -31.2606 H   0  0  0  0  0  0  0  0  0  0  0  0
   -4.6159   26.7608  -30.1178 H   0  0  0  0  0  0  0  0  0  0  0  0
   -7.3697   24.3698  -31.2789 H   0  0  0  0  0  0  0  0  0  0  0  0
   -8.3574   22.1265  -31.7281 H   0  0  0  0  0  0  0  0  0  0  0  0
   -6.8843   20.1270  -31.9358 H   0  0  0  0  0  0  0  0  0  0  0  0
   -4.4157   20.3623  -31.6966 H   0  0  0  0  0  0  0  0  0  0  0  0
   -2.5354   21.6359  -31.2585 H   0  0  0  0  0  0  0  0  0  0  0  0
   -2.6212   23.2626  -32.0370 H   0  0  0  0  0  0  0  0  0  0  0  0
   -0.7980   22.2398  -30.0534 H   0  0  0  0  0  0  0  0  0  0  0  0
   -0.7163   24.0625  -30.2101 H   0  0  0  0  0  0  0  0  0  0  0  0
   -0.5637   22.3388  -27.7953 H   0  0  0  0  0  0  0  0  0  0  0  0
    0.1111   23.9945  -28.1440 H   0  0  0  0  0  0  0  0  0  0  0  0
   -0.2809   23.1714  -25.2583 H   0  0  0  0  0  0  0  0  0  0  0  0
    0.2690   24.5710  -23.3540 H   0  0  0  0  0  0  0  0  0  0  0  0
   -0.5095   26.8544  -23.1197 H   0  0  0  0  0  0  0  0  0  0  0  0
   -1.9526   27.8178  -24.9245 H   0  0  0  0  0  0  0  0  0  0  0  0
   -3.6044   23.0453  -26.7125 H   0  0  0  0  0  0  0  0  0  0  0  0
   -3.8189   24.4954  -27.7764 H   0  0  0  0  0  0  0  0  0  0  0  0
   -2.9786   21.6776  -28.5935 H   0  0  0  0  0  0  0  0  0  0  0  0
   -4.4420   22.5751  -29.0921 H   0  0  0  0  0  0  0  0  0  0  0  0
  1  2  1  0
  2  3  1  0
  3  4  1  0
  4  5  2  0
  5  6  1  0
  6  7  2  0
  7  8  1  0
  8  9  2  0
  9 10  1  0
 10 11  1  0
 11 12  1  0
 12 13  1  0
 13 14  1  0
 14 15  1  0
 15 16  2  0
 16 17  1  0
 17 18  2  0
 18 19  1  0
 19 20  2  0
 14 21  1  0
 21 22  1  0
  9  4  1  0
 22 11  1  0
 20 15  1  0
  1 23  1  0
  1 24  1  0
  1 25  1  0
  2 26  1  0
  2 27  1  0
  5 28  1  0
  6 29  1  0
  7 30  1  0
  8 31  1  0
 10 32  1  0
 10 33  1  0
 12 34  1  0
 12 35  1  0
 13 36  1  0
 13 37  1  0
 16 38  1  0
 17 39  1  0
 18 40  1  0
 19 41  1  0
 21 42  1  0
 21 43  1  0
 22 44  1  0
 22 45  1  0
M  CHG  1  17   1
M  END
>  <UniqueID>  (18) 
18

>  <SMILES>  (18) 
CCOc1ccccc1CN1CCN(c2c[nH+]ccn2)CC1

>  <Energy>  (18) 
53.15155605345426

>  <Genealogy>  (18) 
CCOc1ccccc1CN1CCN(c2c[nH+]ccn2)CC1 (protonated)
CCOc1ccccc1CN1CCN(c2c[nH+]ccn2)CC1 (3D coordinates assigned)
CCOc1ccccc1CN1CCN(c2c[nH+]ccn2)CC1 (nonaromatic ring conformer: 53.15155605345426 kcal/mol)

>  <smiles>  (18) 
CCOc1ccccc1CN1CCN(c2cnccn2)CC1

>  <score_type>  (18) 
oracle

>  <origin>  (18) 
adg

>  <m_score__min__energy>  (18) 
-7.4800000000000004

>  <m_primary>  (18) 
energy

$$$$
18:0
     RDKit          3D

 43 44  0  0  0  0  0  0  0  0999 V2000
   -1.5290   25.2710  -28.1850 C   0  0  0  0  0  0  0  0  0  0  0  0
   -2.4070   24.2900  -28.9730 C   0  0  0  0  0  0  0  0  0  0  0  0
   -3.8280   24.2800  -28.5580 N   0  0  0  0  0  0  0  0  0  0  0  0
   -4.2100   23.0370  -27.8580 C   0  0  0  0  0  0  0  0  0  0  0  0
   -3.1220   21.9780  -28.0060 C   0  0  0  0  0  0  0  0  0  0  0  0
   -4.9150   24.6500  -29.8860 S   0  0  0  0  0  0  0  0  0  0  0  0
   -6.1600   25.3220  -29.3720 O   0  0  0  0  0  0  0  0  0  0  0  0
   -4.2370   25.5830  -30.8480 O   0  0  0  0  0  0  0  0  0  0  0  0
   -5.3450   23.1850  -30.7700 C   0  0  0  0  0  0  0  0  0  0  0  0
   -4.3380   22.4200  -31.3630 C   0  0  0  0  0  0  0  0  0  0  0  0
   -4.6570   21.2450  -32.0430 C   0  0  0  0  0  0  0  0  0  0  0  0
   -5.9890   20.8200  -32.1450 C   0  0  0  0  0  0  0  0  0  0  0  0
   -6.2720   19.5670  -32.7810 N   0  0  0  0  0  0  0  0  0  0  0  0
   -5.9520   19.2900  -34.1690 C   0  0  0  0  0  0  0  0  0  0  0  0
   -6.1060   17.7820  -34.3290 C   0  0  0  0  0  0  0  0  0  0  0  0
   -6.8740   17.3030  -33.0970 C   0  0  0  0  0  0  0  0  0  0  0  0
   -6.6960   18.3900  -32.0460 C   0  0  0  0  0  0  0  0  0  0  0  0
   -7.0200   21.5970  -31.5650 C   0  0  0  0  0  0  0  0  0  0  0  0
   -8.4060   21.2280  -31.6910 N   0  0  0  0  0  0  0  0  0  0  0  0
   -9.2190   21.9880  -32.2570 O   0  0  0  0  0  0  0  0  0  0  0  0
   -8.8810   20.0990  -31.0660 O   0  0  0  0  0  0  0  0  0  0  0  0
   -6.6800   22.7720  -30.8710 C   0  0  0  0  0  0  0  0  0  0  0  0
   -1.6744   25.1085  -27.1068 H   0  0  0  0  0  0  0  0  0  0  0  0
   -0.4723   25.1049  -28.4416 H   0  0  0  0  0  0  0  0  0  0  0  0
   -1.8108   26.3029  -28.4416 H   0  0  0  0  0  0  0  0  0  0  0  0
   -2.3603   24.5635  -30.0374 H   0  0  0  0  0  0  0  0  0  0  0  0
   -2.0124   23.2826  -28.7744 H   0  0  0  0  0  0  0  0  0  0  0  0
   -4.3586   23.2551  -26.7901 H   0  0  0  0  0  0  0  0  0  0  0  0
   -5.1400   22.6527  -28.3023 H   0  0  0  0  0  0  0  0  0  0  0  0
   -2.7884   21.6533  -27.0094 H   0  0  0  0  0  0  0  0  0  0  0  0
   -3.5230   21.1149  -28.5577 H   0  0  0  0  0  0  0  0  0  0  0  0
   -2.2701   22.4022  -28.5577 H   0  0  0  0  0  0  0  0  0  0  0  0
   -3.2896   22.7455  -31.2934 H   0  0  0  0  0  0  0  0  0  0  0  0
   -3.8568   20.6467  -32.5032 H   0  0  0  0  0  0  0  0  0  0  0  0
   -6.6466   19.8204  -34.8370 H   0  0  0  0  0  0  0  0  0  0  0  0
   -4.9376   19.6266  -34.4291 H   0  0  0  0  0  0  0  0  0  0  0  0
   -6.6699   17.5505  -35.2446 H   0  0  0  0  0  0  0  0  0  0  0  0
   -5.1287   17.2842  -34.4129 H   0  0  0  0  0  0  0  0  0  0  0  0
   -7.9397   17.1735  -33.3369 H   0  0  0  0  0  0  0  0  0  0  0  0
   -6.5007   16.3316  -32.7407 H   0  0  0  0  0  0  0  0  0  0  0  0
   -7.6459   18.5821  -31.5256 H   0  0  0  0  0  0  0  0  0  0  0  0
   -5.9646   18.1011  -31.2768 H   0  0  0  0  0  0  0  0  0  0  0  0
   -7.4719   23.3742  -30.4017 H   0  0  0  0  0  0  0  0  0  0  0  0
  1  2  1  0
  2  3  1  0
  3  4  1  0
  4  5  1  0
  3  6  1  0
  6  7  2  0
  6  8  2  0
  6  9  1  0
  9 10  2  0
 10 11  1  0
 11 12  2  0
 12 13  1  0
 13 14  1  0
 14 15  1  0
 15 16  1  0
 16 17  1  0
 12 18  1  0
 18 19  1  0
 19 20  2  0
 19 21  1  0
 18 22  2  0
 22  9  1  0
 17 13  1  0
  1 23  1  0
  1 24  1  0
  1 25  1  0
  2 26  1  0
  2 27  1  0
  4 28  1  0
  4 29  1  0
  5 30  1  0
  5 31  1  0
  5 32  1  0
 10 33  1  0
 11 34  1  0
 14 35  1  0
 14 36  1  0
 15 37  1  0
 15 38  1  0
 16 39  1  0
 16 40  1  0
 17 41  1  0
 17 42  1  0
 22 43  1  0
M  CHG  2  19   1  21  -1
M  END
>  <UniqueID>  (19) 
19

>  <SMILES>  (19) 
CCN(CC)S(=O)(=O)c1ccc(N2CCCC2)c([N+](=O)[O-])c1

>  <Energy>  (19) 
49.811577573520914

>  <Genealogy>  (19) 
CCN(CC)S(=O)(=O)c1ccc(N2CCCC2)c([N+](=O)[O-])c1 (3D coordinates assigned)
CCN(CC)S(=O)(=O)c1ccc(N2CCCC2)c([N+](=O)[O-])c1 (nonaromatic ring conformer: 49.811577573520914 kcal/mol)

>  <smiles>  (19) 
CCN(CC)S(=O)(=O)c1ccc(N2CCCC2)c([N+](=O)[O-])c1

>  <score_type>  (19) 
oracle

>  <origin>  (19) 
adg

>  <m_score__min__energy>  (19) 
-8.0899999999999999

>  <m_primary>  (19) 
energy

$$$$
19:0
     RDKit          3D

 53 56  0  0  0  0  0  0  0  0999 V2000
   -5.2520   25.6800  -30.5580 C   0  0  0  0  0  0  0  0  0  0  0  0
   -3.8890   25.3030  -30.3900 O   0  0  0  0  0  0  0  0  0  0  0  0
   -3.4520   24.2620  -29.5580 C   0  0  0  0  0  0  0  0  0  0  0  0
   -2.0770   24.1170  -29.3410 C   0  0  0  0  0  0  0  0  0  0  0  0
   -1.5920   23.0950  -28.5190 C   0  0  0  0  0  0  0  0  0  0  0  0
   -2.4790   22.2040  -27.8980 C   0  0  0  0  0  0  0  0  0  0  0  0
   -1.9570   21.0820  -27.0330 C   0  0  0  0  0  0  0  0  0  0  0  0
   -2.0800   19.7710  -27.6890 N   0  0  0  0  0  0  0  0  0  0  0  0
   -0.7700   19.2130  -28.0510 C   0  0  0  0  0  0  0  0  0  0  0  0
   -0.4950   19.4440  -29.5370 C   0  0  0  0  0  0  0  0  0  0  0  0
   -1.2110   20.5820  -30.0200 O   0  0  0  0  0  0  0  0  0  0  0  0
   -1.9960   20.6200  -31.1850 C   0  0  0  0  0  0  0  0  0  0  0  0
   -1.4830   20.3150  -32.4610 C   0  0  0  0  0  0  0  0  0  0  0  0
   -2.3150   20.3630  -33.5830 C   0  0  0  0  0  0  0  0  0  0  0  0
   -3.6580   20.7230  -33.4480 C   0  0  0  0  0  0  0  0  0  0  0  0
   -4.1760   21.0490  -32.1860 C   0  0  0  0  0  0  0  0  0  0  0  0
   -5.6040   21.4110  -32.0420 C   0  0  0  0  0  0  0  0  0  0  0  0
   -5.9420   22.7720  -31.9540 C   0  0  0  0  0  0  0  0  0  0  0  0
   -7.2750   23.1730  -31.8600 C   0  0  0  0  0  0  0  0  0  0  0  0
   -8.2950   22.2230  -31.8480 C   0  0  0  0  0  0  0  0  0  0  0  0
   -7.9880   20.8620  -31.9170 C   0  0  0  0  0  0  0  0  0  0  0  0
   -8.9920   19.9440  -31.8860 N   0  0  0  0  0  0  0  0  0  0  0  0
   -8.7460   18.6090  -31.9300 C   0  0  0  0  0  0  0  0  0  0  0  0
   -7.4340   18.1410  -31.9980 C   0  0  0  0  0  0  0  0  0  0  0  0
   -6.3780   19.0530  -32.0310 C   0  0  0  0  0  0  0  0  0  0  0  0
   -6.6370   20.4380  -32.0070 C   0  0  0  0  0  0  0  0  0  0  0  0
   -3.3410   20.9860  -31.0600 C   0  0  0  0  0  0  0  0  0  0  0  0
   -3.8580   22.3420  -28.1180 C   0  0  0  0  0  0  0  0  0  0  0  0
   -4.3440   23.3640  -28.9390 C   0  0  0  0  0  0  0  0  0  0  0  0
   -5.7208   25.8097  -29.5714 H   0  0  0  0  0  0  0  0  0  0  0  0
   -5.3045   26.6264  -31.1162 H   0  0  0  0  0  0  0  0  0  0  0  0
   -5.7834   24.8951  -31.1162 H   0  0  0  0  0  0  0  0  0  0  0  0
   -1.3724   24.8123  -29.8207 H   0  0  0  0  0  0  0  0  0  0  0  0
   -0.5089   22.9894  -28.3587 H   0  0  0  0  0  0  0  0  0  0  0  0
   -0.8958   21.2694  -26.8121 H   0  0  0  0  0  0  0  0  0  0  0  0
   -2.5592   21.0569  -26.1128 H   0  0  0  0  0  0  0  0  0  0  0  0
   -2.6580   19.8750  -28.5570 H   0  0  0  0  0  0  0  0  0  0  0  0
    0.0127   19.7051  -27.4550 H   0  0  0  0  0  0  0  0  0  0  0  0
   -0.7698   18.1319  -27.8479 H   0  0  0  0  0  0  0  0  0  0  0  0
    0.5828   19.6093  -29.6818 H   0  0  0  0  0  0  0  0  0  0  0  0
   -0.8279   18.5574  -30.0967 H   0  0  0  0  0  0  0  0  0  0  0  0
   -0.4245   20.0382  -32.5747 H   0  0  0  0  0  0  0  0  0  0  0  0
   -1.9109   20.1164  -34.5759 H   0  0  0  0  0  0  0  0  0  0  0  0
   -4.3105   20.7509  -34.3331 H   0  0  0  0  0  0  0  0  0  0  0  0
   -5.1457   23.5308  -31.9593 H   0  0  0  0  0  0  0  0  0  0  0  0
   -7.5220   24.2429  -31.7951 H   0  0  0  0  0  0  0  0  0  0  0  0
   -9.3446   22.5459  -31.7840 H   0  0  0  0  0  0  0  0  0  0  0  0
   -9.5831   17.8956  -31.9120 H   0  0  0  0  0  0  0  0  0  0  0  0
   -7.2327   17.0599  -32.0255 H   0  0  0  0  0  0  0  0  0  0  0  0
   -5.3407   18.6897  -32.0759 H   0  0  0  0  0  0  0  0  0  0  0  0
   -3.7485   21.2272  -30.0671 H   0  0  0  0  0  0  0  0  0  0  0  0
   -4.5605   21.6422  -27.6419 H   0  0  0  0  0  0  0  0  0  0  0  0
   -5.4269   23.4674  -29.1023 H   0  0  0  0  0  0  0  0  0  0  0  0
  1  2  1  0
  2  3  1  0
  3  4  2  0
  4  5  1  0
  5  6  2  0
  6  7  1  0
  7  8  1  0
  8  9  1  0
  9 10  1  0
 10 11  1  0
 11 12  1  0
 12 13  2  0
 13 14  1  0
 14 15  2  0
 15 16  1  0
 16 17  1  0
 17 18  2  0
 18 19  1  0
 19 20  2  0
 20 21  1  0
 21 22  2  0
 22 23  1  0
 23 24  2  0
 24 25  1  0
 25 26  2  0
 16 27  2  0
  6 28  1  0
 28 29  2  0
 29  3  1  0
 27 12  1  0
 26 17  1  0
 26 21  1  0
  1 30  1  0
  1 31  1  0
  1 32  1  0
  4 33  1  0
  5 34  1  0
  7 35  1  0
  7 36  1  0
  8 37  1  0
  9 38  1  0
  9 39  1  0
 10 40  1  0
 10 41  1  0
 13 42  1  0
 14 43  1  0
 15 44  1  0
 18 45  1  0
 19 46  1  0
 20 47  1  0
 23 48  1  0
 24 49  1  0
 25 50  1  0
 27 51  1  0
 28 52  1  0
 29 53  1  0
M  END
>  <UniqueID>  (20) 
20

>  <SMILES>  (20) 
COc1ccc(CNCCOc2cccc(-c3cccc4ncccc34)c2)cc1

>  <Energy>  (20) 
66.57665228090919

>  <Genealogy>  (20) 
COc1ccc(CNCCOc2cccc(-c3cccc4ncccc34)c2)cc1 (3D coordinates assigned)
COc1ccc(CNCCOc2cccc(-c3cccc4ncccc34)c2)cc1 (optimized conformer: 66.57665228090919 kcal/mol)

>  <smiles>  (20) 
COc1ccc(CNCCOc2cccc(-c3cccc4ncccc34)c2)cc1

>  <score_type>  (20) 
oracle

>  <origin>  (20) 
adg

>  <m_score__min__energy>  (20) 
-9.4399999999999995

>  <m_primary>  (20) 
energy

$$$$
20:0
     RDKit          3D

 36 38  0  0  0  0  0  0  0  0999 V2000
   -3.5920   24.4880  -27.1490 C   0  0  0  0  0  0  0  0  0  0  0  0
   -2.2610   24.7320  -27.8520 C   0  0  0  0  0  0  0  0  0  0  0  0
   -2.4490   24.8400  -29.2990 N   0  0  0  0  0  0  0  0  0  0  0  0
   -3.1990   23.9090  -30.1050 C   0  0  0  0  0  0  0  0  0  0  0  0
   -2.5110   22.9380  -30.8340 C   0  0  0  0  0  0  0  0  0  0  0  0
   -3.2010   22.0150  -31.6150 C   0  0  0  0  0  0  0  0  0  0  0  0
   -4.6080   22.0300  -31.7070 C   0  0  0  0  0  0  0  0  0  0  0  0
   -5.3200   23.0470  -30.9980 C   0  0  0  0  0  0  0  0  0  0  0  0
   -4.6000   23.9550  -30.1940 C   0  0  0  0  0  0  0  0  0  0  0  0
   -6.8280   23.2110  -30.9910 C   0  0  0  0  0  0  0  0  0  0  0  0
   -7.5130   22.8060  -32.2950 C   0  0  0  0  0  0  0  0  0  0  0  0
   -7.7170   21.3230  -32.3000 C   0  0  0  0  0  0  0  0  0  0  0  0
   -9.0130   20.7910  -32.1730 C   0  0  0  0  0  0  0  0  0  0  0  0
   -9.2090   19.4090  -32.1490 C   0  0  0  0  0  0  0  0  0  0  0  0
   -8.1160   18.5480  -32.2470 C   0  0  0  0  0  0  0  0  0  0  0  0
   -6.8260   19.0670  -32.3650 C   0  0  0  0  0  0  0  0  0  0  0  0
   -6.6120   20.4570  -32.3730 C   0  0  0  0  0  0  0  0  0  0  0  0
   -5.2350   20.9660  -32.5550 C   0  0  0  0  0  0  0  0  0  0  0  0
   -4.5340   20.4160  -33.4480 O   0  0  0  0  0  0  0  0  0  0  0  0
   -3.4418   24.5155  -26.0597 H   0  0  0  0  0  0  0  0  0  0  0  0
   -4.3091   25.2696  -27.4401 H   0  0  0  0  0  0  0  0  0  0  0  0
   -3.9852   23.5028  -27.4401 H   0  0  0  0  0  0  0  0  0  0  0  0
   -1.8202   25.6666  -27.4750 H   0  0  0  0  0  0  0  0  0  0  0  0
   -1.5929   23.8828  -27.6460 H   0  0  0  0  0  0  0  0  0  0  0  0
   -2.0050   25.6600  -29.7730 H   0  0  0  0  0  0  0  0  0  0  0  0
   -1.4124   22.9016  -30.7911 H   0  0  0  0  0  0  0  0  0  0  0  0
   -2.6348   21.2554  -32.1740 H   0  0  0  0  0  0  0  0  0  0  0  0
   -5.1491   24.7179  -29.6226 H   0  0  0  0  0  0  0  0  0  0  0  0
   -7.2377   22.5908  -30.1801 H   0  0  0  0  0  0  0  0  0  0  0  0
   -7.0264   24.2840  -30.8524 H   0  0  0  0  0  0  0  0  0  0  0  0
   -8.4865   23.3122  -32.3725 H   0  0  0  0  0  0  0  0  0  0  0  0
   -6.8849   23.0970  -33.1499 H   0  0  0  0  0  0  0  0  0  0  0  0
   -9.8766   21.4675  -32.0922 H   0  0  0  0  0  0  0  0  0  0  0  0
  -10.2252   18.9991  -32.0528 H   0  0  0  0  0  0  0  0  0  0  0  0
   -8.2710   17.4591  -32.2313 H   0  0  0  0  0  0  0  0  0  0  0  0
   -5.9690   18.3829  -32.4525 H   0  0  0  0  0  0  0  0  0  0  0  0
  1  2  1  0
  2  3  1  0
  3  4  1  0
  4  5  2  0
  5  6  1  0
  6  7  2  0
  7  8  1  0
  8  9  2  0
  8 10  1  0
 10 11  1  0
 11 12  1  0
 12 13  2  0
 13 14  1  0
 14 15  2  0
 15 16  1  0
 16 17  2  0
 17 18  1  0
 18 19  2  0
  9  4  1  0
 17 12  1  0
 18  7  1  0
  1 20  1  0
  1 21  1  0
  1 22  1  0
  2 23  1  0
  2 24  1  0
  3 25  1  0
  5 26  1  0
  6 27  1  0
  9 28  1  0
 10 29  1  0
 10 30  1  0
 11 31  1  0
 11 32  1  0
 13 33  1  0
 14 34  1  0
 15 35  1  0
 16 36  1  0
M  END
>  <UniqueID>  (21) 
21

>  <SMILES>  (21) 
CCNc1ccc2c(c1)CCc1ccccc1C2=O

>  <Energy>  (21) 
51.749937381512005

>  <Genealogy>  (21) 
CCNc1ccc2c(c1)CCc1ccccc1C2=O (3D coordinates assigned)
CCNc1ccc2c(c1)CCc1ccccc1C2=O (nonaromatic ring conformer: 51.749937381512005 kcal/mol)

>  <smiles>  (21) 
CCNc1ccc2c(c1)CCc1ccccc1C2=O

>  <score_type>  (21) 
oracle

>  <origin>  (21) 
adg

>  <m_score__min__energy>  (21) 
-7.3300000000000001

>  <m_primary>  (21) 
energy

$$$$
21:0
     RDKit          3D

 46 49  0  0  0  0  0  0  0  0999 V2000
    0.3440   17.4320  -28.2260 C   0  0  0  0  0  0  0  0  0  0  0  0
   -0.2090   18.1920  -27.1690 O   0  0  0  0  0  0  0  0  0  0  0  0
   -0.5450   19.5190  -27.3720 C   0  0  0  0  0  0  0  0  0  0  0  0
   -1.8380   19.9960  -27.1670 C   0  0  0  0  0  0  0  0  0  0  0  0
   -2.0720   21.3470  -27.3990 C   0  0  0  0  0  0  0  0  0  0  0  0
   -1.0910   22.2100  -27.8130 C   0  0  0  0  0  0  0  0  0  0  0  0
   -1.3600   23.9130  -28.1110 S   0  0  0  0  0  0  0  0  0  0  0  0
   -1.9890   24.5460  -26.9100 O   0  0  0  0  0  0  0  0  0  0  0  0
   -0.0300   24.5530  -28.3380 O   0  0  0  0  0  0  0  0  0  0  0  0
   -2.3410   24.0450  -29.5120 N   0  0  0  0  0  0  0  0  0  0  0  0
   -2.1350   23.0240  -30.4650 C   0  0  0  0  0  0  0  0  0  0  0  0
   -3.3000   22.6800  -31.3340 C   0  0  0  0  0  0  0  0  0  0  0  0
   -4.5780   22.7840  -30.7040 N   0  0  0  0  0  0  0  0  0  0  0  0
   -5.6730   21.9790  -31.1550 C   0  0  0  0  0  0  0  0  0  0  0  0
   -6.9740   22.3770  -31.2590 N   0  0  0  0  0  0  0  0  0  0  0  0
   -7.7190   21.3520  -31.7170 C   0  0  0  0  0  0  0  0  0  0  0  0
   -9.0780   21.1930  -32.0080 C   0  0  0  0  0  0  0  0  0  0  0  0
   -9.5490   19.9660  -32.4820 C   0  0  0  0  0  0  0  0  0  0  0  0
   -8.6990   18.9060  -32.6690 C   0  0  0  0  0  0  0  0  0  0  0  0
   -7.3440   19.0470  -32.3840 C   0  0  0  0  0  0  0  0  0  0  0  0
   -6.8700   20.2730  -31.9100 C   0  0  0  0  0  0  0  0  0  0  0  0
   -5.6410   20.6960  -31.5580 N   0  0  0  0  0  0  0  0  0  0  0  0
   -4.7970   23.6870  -29.6140 C   0  0  0  0  0  0  0  0  0  0  0  0
   -3.6360   24.5570  -29.3170 C   0  0  0  0  0  0  0  0  0  0  0  0
    0.1770   21.7010  -28.0050 C   0  0  0  0  0  0  0  0  0  0  0  0
    0.4570   20.3670  -27.7880 C   0  0  0  0  0  0  0  0  0  0  0  0
    1.7230   19.9110  -27.9900 F   0  0  0  0  0  0  0  0  0  0  0  0
    0.9433   16.6083  -27.8109 H   0  0  0  0  0  0  0  0  0  0  0  0
   -0.4669   17.0199  -28.8446 H   0  0  0  0  0  0  0  0  0  0  0  0
    0.9856   18.0768  -28.8446 H   0  0  0  0  0  0  0  0  0  0  0  0
   -2.6453   19.3274  -26.8334 H   0  0  0  0  0  0  0  0  0  0  0  0
   -3.0877   21.7398  -27.2436 H   0  0  0  0  0  0  0  0  0  0  0  0
   -1.3104   23.3402  -31.1208 H   0  0  0  0  0  0  0  0  0  0  0  0
   -1.9297   22.1157  -29.8795 H   0  0  0  0  0  0  0  0  0  0  0  0
   -3.2909   23.3580  -32.2001 H   0  0  0  0  0  0  0  0  0  0  0  0
   -3.1776   21.6210  -31.6051 H   0  0  0  0  0  0  0  0  0  0  0  0
   -9.7744   22.0322  -31.8639 H   0  0  0  0  0  0  0  0  0  0  0  0
  -10.6189   19.8482  -32.7089 H   0  0  0  0  0  0  0  0  0  0  0  0
   -9.0871   17.9471  -33.0432 H   0  0  0  0  0  0  0  0  0  0  0  0
   -6.6541   18.2028  -32.5302 H   0  0  0  0  0  0  0  0  0  0  0  0
   -4.7410   20.1520  -31.5720 H   0  0  0  0  0  0  0  0  0  0  0  0
   -5.6563   24.3276  -29.8615 H   0  0  0  0  0  0  0  0  0  0  0  0
   -4.9744   23.0724  -28.7191 H   0  0  0  0  0  0  0  0  0  0  0  0
   -3.7300   25.4503  -29.9520 H   0  0  0  0  0  0  0  0  0  0  0  0
   -3.6971   24.7223  -28.2312 H   0  0  0  0  0  0  0  0  0  0  0  0
    0.9819   22.3727  -28.3381 H   0  0  0  0  0  0  0  0  0  0  0  0
  1  2  1  0
  2  3  1  0
  3  4  2  0
  4  5  1  0
  5  6  2  0
  6  7  1  0
  7  8  2  0
  7  9  2  0
  7 10  1  0
 10 11  1  0
 11 12  1  0
 12 13  1  0
 13 14  1  0
 14 15  2  0
 15 16  1  0
 16 17  2  0
 17 18  1  0
 18 19  2  0
 19 20  1  0
 20 21  2  0
 21 22  1  0
 13 23  1  0
 23 24  1  0
  6 25  1  0
 25 26  2  0
 26 27  1  0
 26  3  1  0
 24 10  1  0
 22 14  1  0
 21 16  1  0
  1 28  1  0
  1 29  1  0
  1 30  1  0
  4 31  1  0
  5 32  1  0
 11 33  1  0
 11 34  1  0
 12 35  1  0
 12 36  1  0
 17 37  1  0
 18 38  1  0
 19 39  1  0
 20 40  1  0
 22 41  1  0
 23 42  1  0
 23 43  1  0
 24 44  1  0
 24 45  1  0
 25 46  1  0
M  END
>  <smiles>  (22) 
COc1ccc(S(=O)(=O)N2CCN(c3nc4ccccc4[nH]3)CC2)cc1F

>  <score_type>  (22) 
oracle

>  <origin>  (22) 
adg

>  <m_score__min__energy>  (22) 
-8.9100000000000001

>  <m_primary>  (22) 
energy

$$$$
22:0
     RDKit          3D

 41 43  0  0  0  0  0  0  0  0999 V2000
   -3.5610   22.3020  -28.2940 C   0  0  0  0  0  0  0  0  0  0  0  0
   -3.8570   23.6000  -27.5390 C   0  0  0  0  0  0  0  0  0  0  0  0
   -4.7110   24.5190  -28.3090 N   0  0  0  0  0  0  0  0  0  0  0  0
   -4.3430   24.5600  -29.7310 C   0  0  0  0  0  0  0  0  0  0  0  0
   -5.4260   25.2720  -30.5490 C   0  0  0  0  0  0  0  0  0  0  0  0
   -6.8290   25.1910  -29.9290 C   0  0  0  0  0  0  0  0  0  0  0  0
   -7.2300   23.8340  -29.7210 O   0  0  0  0  0  0  0  0  0  0  0  0
   -7.1850   22.7940  -30.6660 C   0  0  0  0  0  0  0  0  0  0  0  0
   -8.3980   22.3560  -31.2130 C   0  0  0  0  0  0  0  0  0  0  0  0
   -8.4290   21.3110  -32.1400 C   0  0  0  0  0  0  0  0  0  0  0  0
   -7.2390   20.6910  -32.5410 C   0  0  0  0  0  0  0  0  0  0  0  0
   -7.2490   19.6630  -33.4370 N   0  0  0  0  0  0  0  0  0  0  0  0
   -6.0860   19.0600  -33.8220 C   0  0  0  0  0  0  0  0  0  0  0  0
   -6.0910   18.0000  -34.7420 C   0  0  0  0  0  0  0  0  0  0  0  0
   -4.8870   17.3980  -35.1230 C   0  0  0  0  0  0  0  0  0  0  0  0
   -3.6740   17.8480  -34.5880 C   0  0  0  0  0  0  0  0  0  0  0  0
   -3.6600   18.9050  -33.6710 C   0  0  0  0  0  0  0  0  0  0  0  0
   -4.8590   19.5120  -33.2860 C   0  0  0  0  0  0  0  0  0  0  0  0
   -4.8560   20.5370  -32.3960 N   0  0  0  0  0  0  0  0  0  0  0  0
   -6.0110   21.1380  -32.0090 C   0  0  0  0  0  0  0  0  0  0  0  0
   -5.9840   22.1880  -31.0850 C   0  0  0  0  0  0  0  0  0  0  0  0
   -3.3763   21.4922  -27.5728 H   0  0  0  0  0  0  0  0  0  0  0  0
   -4.4226   22.0407  -28.9259 H   0  0  0  0  0  0  0  0  0  0  0  0
   -2.6713   22.4401  -28.9259 H   0  0  0  0  0  0  0  0  0  0  0  0
   -4.3668   23.3513  -26.5965 H   0  0  0  0  0  0  0  0  0  0  0  0
   -2.8979   24.1076  -27.3589 H   0  0  0  0  0  0  0  0  0  0  0  0
   -5.7110   24.2230  -28.2210 H   0  0  0  0  0  0  0  0  0  0  0  0
   -3.3917   25.1009  -29.8426 H   0  0  0  0  0  0  0  0  0  0  0  0
   -4.2405   23.5289  -30.1003 H   0  0  0  0  0  0  0  0  0  0  0  0
   -5.1490   26.3325  -30.6414 H   0  0  0  0  0  0  0  0  0  0  0  0
   -5.4774   24.7623  -31.5224 H   0  0  0  0  0  0  0  0  0  0  0  0
   -6.8237   25.7149  -28.9618 H   0  0  0  0  0  0  0  0  0  0  0  0
   -7.5418   25.6602  -30.6231 H   0  0  0  0  0  0  0  0  0  0  0  0
   -9.3375   22.8407  -30.9090 H   0  0  0  0  0  0  0  0  0  0  0  0
   -9.3902   20.9746  -32.5557 H   0  0  0  0  0  0  0  0  0  0  0  0
   -8.1580   19.3300  -33.8330 H   0  0  0  0  0  0  0  0  0  0  0  0
   -7.0420   17.6425  -35.1636 H   0  0  0  0  0  0  0  0  0  0  0  0
   -4.8934   16.5684  -35.8453 H   0  0  0  0  0  0  0  0  0  0  0  0
   -2.7302   17.3698  -34.8890 H   0  0  0  0  0  0  0  0  0  0  0  0
   -2.7057   19.2582  -33.2532 H   0  0  0  0  0  0  0  0  0  0  0  0
   -5.0224   22.5415  -30.6844 H   0  0  0  0  0  0  0  0  0  0  0  0
  1  2  1  0
  2  3  1  0
  3  4  1  0
  4  5  1  0
  5  6  1  0
  6  7  1  0
  7  8  1  0
  8  9  2  0
  9 10  1  0
 10 11  2  0
 11 12  1  0
 12 13  2  0
 13 14  1  0
 14 15  2  0
 15 16  1  0
 16 17  2  0
 17 18  1  0
 18 19  2  0
 19 20  1  0
 20 21  2  0
 21  8  1  0
 20 11  1  0
 18 13  1  0
  1 22  1  0
  1 23  1  0
  1 24  1  0
  2 25  1  0
  2 26  1  0
  3 27  1  0
  4 28  1  0
  4 29  1  0
  5 30  1  0
  5 31  1  0
  6 32  1  0
  6 33  1  0
  9 34  1  0
 10 35  1  0
 12 36  1  0
 14 37  1  0
 15 38  1  0
 16 39  1  0
 17 40  1  0
 21 41  1  0
M  CHG  1  12   1
M  END
>  <UniqueID>  (23) 
22

>  <SMILES>  (23) 
CCNCCCOc1ccc2[nH+]c3ccccc3nc2c1

>  <Energy>  (23) 
44.498088817740054

>  <Genealogy>  (23) 
CCNCCCOc1ccc2[nH+]c3ccccc3nc2c1 (protonated)
CCNCCCOc1ccc2[nH+]c3ccccc3nc2c1 (3D coordinates assigned)
CCNCCCOc1ccc2[nH+]c3ccccc3nc2c1 (optimized conformer: 44.498088817740054 kcal/mol)

>  <smiles>  (23) 
CCNCCCOc1ccc2nc3ccccc3nc2c1

>  <score_type>  (23) 
oracle

>  <origin>  (23) 
adg

>  <m_score__min__energy>  (23) 
-7.2199999999999998

>  <m_primary>  (23) 
energy

$$$$
23:0
     RDKit          3D

 56 58  0  0  0  0  0  0  0  0999 V2000
   -5.3470   25.2990  -30.8490 C   0  0  0  0  0  0  0  0  0  0  0  0
   -4.0350   24.7770  -30.6650 O   0  0  0  0  0  0  0  0  0  0  0  0
   -3.6670   23.8910  -29.6410 C   0  0  0  0  0  0  0  0  0  0  0  0
   -3.8530   24.2140  -28.2820 C   0  0  0  0  0  0  0  0  0  0  0  0
   -3.5000   23.3010  -27.2840 C   0  0  0  0  0  0  0  0  0  0  0  0
   -2.9610   22.0620  -27.6280 C   0  0  0  0  0  0  0  0  0  0  0  0
   -2.7660   21.7320  -28.9690 C   0  0  0  0  0  0  0  0  0  0  0  0
   -3.1130   22.6400  -29.9830 C   0  0  0  0  0  0  0  0  0  0  0  0
   -2.9010   22.2780  -31.3600 N   0  0  0  0  0  0  0  0  0  0  0  0
   -4.0280   22.2750  -32.3030 C   0  0  0  0  0  0  0  0  0  0  0  0
   -4.0710   20.9680  -33.1250 C   0  0  0  0  0  0  0  0  0  0  0  0
   -2.7870   20.2270  -33.1140 N   0  0  0  0  0  0  0  0  0  0  0  0
   -2.7260   19.2100  -34.1910 C   0  0  0  0  0  0  0  0  0  0  0  0
   -3.3760   17.9010  -33.7270 C   0  0  0  0  0  0  0  0  0  0  0  0
   -4.3260   17.2600  -34.7570 C   0  0  0  0  0  0  0  0  0  0  0  0
   -5.6840   17.9680  -34.8480 C   0  0  0  0  0  0  0  0  0  0  0  0
   -6.4760   17.6500  -33.7090 O   0  0  0  0  0  0  0  0  0  0  0  0
   -7.2570   18.5710  -32.9960 C   0  0  0  0  0  0  0  0  0  0  0  0
   -6.9790   19.9340  -33.1550 C   0  0  0  0  0  0  0  0  0  0  0  0
   -7.7190   20.8940  -32.4610 C   0  0  0  0  0  0  0  0  0  0  0  0
   -8.7540   20.5030  -31.5980 C   0  0  0  0  0  0  0  0  0  0  0  0
   -9.4960   21.5350  -30.7990 C   0  0  0  0  0  0  0  0  0  0  0  0
   -9.0290   19.1360  -31.4280 C   0  0  0  0  0  0  0  0  0  0  0  0
   -8.2930   18.1760  -32.1270 C   0  0  0  0  0  0  0  0  0  0  0  0
   -1.6360   21.1470  -33.1550 C   0  0  0  0  0  0  0  0  0  0  0  0
   -1.5580   21.9070  -31.8280 C   0  0  0  0  0  0  0  0  0  0  0  0
   -5.8093   25.4830  -29.8680 H   0  0  0  0  0  0  0  0  0  0  0  0
   -5.2906   26.2432  -31.4106 H   0  0  0  0  0  0  0  0  0  0  0  0
   -5.9546   24.5741  -31.4106 H   0  0  0  0  0  0  0  0  0  0  0  0
   -4.2783   25.1899  -28.0050 H   0  0  0  0  0  0  0  0  0  0  0  0
   -3.6477   23.5606  -26.2253 H   0  0  0  0  0  0  0  0  0  0  0  0
   -2.6891   21.3437  -26.8405 H   0  0  0  0  0  0  0  0  0  0  0  0
   -2.3376   20.7542  -29.2343 H   0  0  0  0  0  0  0  0  0  0  0  0
   -4.9671   22.3741  -31.7388 H   0  0  0  0  0  0  0  0  0  0  0  0
   -3.8999   23.1175  -32.9985 H   0  0  0  0  0  0  0  0  0  0  0  0
   -4.8532   20.3177  -32.7065 H   0  0  0  0  0  0  0  0  0  0  0  0
   -4.2784   21.2458  -34.1689 H   0  0  0  0  0  0  0  0  0  0  0  0
   -3.2604   19.5864  -35.0757 H   0  0  0  0  0  0  0  0  0  0  0  0
   -1.6722   19.0166  -34.4401 H   0  0  0  0  0  0  0  0  0  0  0  0
   -2.5757   17.1805  -33.5026 H   0  0  0  0  0  0  0  0  0  0  0  0
   -3.9889   18.1500  -32.8482 H   0  0  0  0  0  0  0  0  0  0  0  0
   -3.8456   17.2964  -35.7459 H   0  0  0  0  0  0  0  0  0  0  0  0
   -4.5165   16.2277  -34.4284 H   0  0  0  0  0  0  0  0  0  0  0  0
   -5.5257   19.0558  -34.8894 H   0  0  0  0  0  0  0  0  0  0  0  0
   -6.2062   17.6322  -35.7561 H   0  0  0  0  0  0  0  0  0  0  0  0
   -6.1717   20.2512  -33.8316 H   0  0  0  0  0  0  0  0  0  0  0  0
   -7.4893   21.9618  -32.5916 H   0  0  0  0  0  0  0  0  0  0  0  0
   -9.3550   21.3389  -29.7258 H   0  0  0  0  0  0  0  0  0  0  0  0
   -9.1091   22.5354  -31.0429 H   0  0  0  0  0  0  0  0  0  0  0  0
  -10.5675   21.4868  -31.0429 H   0  0  0  0  0  0  0  0  0  0  0  0
   -9.8278   18.8198  -30.7411 H   0  0  0  0  0  0  0  0  0  0  0  0
   -8.5233   17.1081  -31.9984 H   0  0  0  0  0  0  0  0  0  0  0  0
   -0.7100   20.5728  -33.3061 H   0  0  0  0  0  0  0  0  0  0  0  0
   -1.7586   21.8590  -33.9845 H   0  0  0  0  0  0  0  0  0  0  0  0
   -1.0770   21.2671  -31.0735 H   0  0  0  0  0  0  0  0  0  0  0  0
   -0.9716   22.8250  -31.9811 H   0  0  0  0  0  0  0  0  0  0  0  0
  1  2  1  0
  2  3  1  0
  3  4  2  0
  4  5  1  0
  5  6  2  0
  6  7  1  0
  7  8  2  0
  8  9  1  0
  9 10  1  0
 10 11  1  0
 11 12  1  0
 12 13  1  0
 13 14  1  0
 14 15  1  0
 15 16  1  0
 16 17  1  0
 17 18  1  0
 18 19  2  0
 19 20  1  0
 20 21  2  0
 21 22  1  0
 21 23  1  0
 23 24  2  0
 12 25  1  0
 25 26  1  0
  8  3  1  0
 26  9  1  0
 24 18  1  0
  1 27  1  0
  1 28  1  0
  1 29  1  0
  4 30  1  0
  5 31  1  0
  6 32  1  0
  7 33  1  0
 10 34  1  0
 10 35  1  0
 11 36  1  0
 11 37  1  0
 13 38  1  0
 13 39  1  0
 14 40  1  0
 14 41  1  0
 15 42  1  0
 15 43  1  0
 16 44  1  0
 16 45  1  0
 19 46  1  0
 20 47  1  0
 22 48  1  0
 22 49  1  0
 22 50  1  0
 23 51  1  0
 24 52  1  0
 25 53  1  0
 25 54  1  0
 26 55  1  0
 26 56  1  0
M  END
>  <UniqueID>  (24) 
23

>  <SMILES>  (24) 
COc1ccccc1N1CCN(CCCCOc2ccc(C)cc2)CC1

>  <Energy>  (24) 
64.09081681730713

>  <Genealogy>  (24) 
COc1ccccc1N1CCN(CCCCOc2ccc(C)cc2)CC1 (3D coordinates assigned)
COc1ccccc1N1CCN(CCCCOc2ccc(C)cc2)CC1 (nonaromatic ring conformer: 64.09081681730713 kcal/mol)

>  <smiles>  (24) 
COc1ccccc1N1CCN(CCCCOc2ccc(C)cc2)CC1

>  <score_type>  (24) 
oracle

>  <origin>  (24) 
adg

>  <m_score__min__energy>  (24) 
-8.3699999999999992

>  <m_primary>  (24) 
energy

$$$$
24:0
     RDKit          3D

 43 45  0  0  0  0  0  0  0  0999 V2000
   -1.2130   22.6470  -28.3210 O   0  0  0  0  0  0  0  0  0  0  0  0
   -1.9460   22.8840  -29.3200 C   0  0  0  0  0  0  0  0  0  0  0  0
   -2.7070   24.0560  -29.3500 C   0  0  0  0  0  0  0  0  0  0  0  0
   -3.5230   24.3310  -30.4540 C   0  0  0  0  0  0  0  0  0  0  0  0
   -4.3090   25.5310  -30.4890 N   0  0  0  0  0  0  0  0  0  0  0  0
   -5.6750   25.5920  -29.9740 C   0  0  0  0  0  0  0  0  0  0  0  0
   -6.5990   24.6830  -30.7940 C   0  0  0  0  0  0  0  0  0  0  0  0
   -6.8500   23.3480  -30.0880 C   0  0  0  0  0  0  0  0  0  0  0  0
   -6.2400   22.2490  -30.8470 N   0  0  0  0  0  0  0  0  0  0  0  0
   -6.8520   22.1120  -32.1750 C   0  0  0  0  0  0  0  0  0  0  0  0
   -6.8600   20.6670  -32.6010 C   0  0  0  0  0  0  0  0  0  0  0  0
   -7.9350   19.8300  -32.2700 C   0  0  0  0  0  0  0  0  0  0  0  0
   -7.9230   18.4860  -32.6480 C   0  0  0  0  0  0  0  0  0  0  0  0
   -6.8370   17.9610  -33.3580 C   0  0  0  0  0  0  0  0  0  0  0  0
   -6.8580   16.2630  -33.8140 Cl  0  0  0  0  0  0  0  0  0  0  0  0
   -5.7550   18.7930  -33.6910 C   0  0  0  0  0  0  0  0  0  0  0  0
   -4.3680   18.1730  -34.5760 Cl  0  0  0  0  0  0  0  0  0  0  0  0
   -5.7700   20.1400  -33.3120 C   0  0  0  0  0  0  0  0  0  0  0  0
   -3.5710   23.4490  -31.4910 N   0  0  0  0  0  0  0  0  0  0  0  0
   -2.8440   22.3000  -31.4980 C   0  0  0  0  0  0  0  0  0  0  0  0
   -2.9270   21.4300  -32.5900 C   0  0  0  0  0  0  0  0  0  0  0  0
   -2.1820   20.2470  -32.6010 C   0  0  0  0  0  0  0  0  0  0  0  0
   -1.3510   19.9300  -31.5230 C   0  0  0  0  0  0  0  0  0  0  0  0
   -1.2610   20.7930  -30.4260 C   0  0  0  0  0  0  0  0  0  0  0  0
   -2.0060   21.9860  -30.4030 C   0  0  0  0  0  0  0  0  0  0  0  0
   -2.6649   24.7616  -28.5071 H   0  0  0  0  0  0  0  0  0  0  0  0
   -3.8770   26.4140  -30.8480 H   0  0  0  0  0  0  0  0  0  0  0  0
   -5.6813   25.2626  -28.9245 H   0  0  0  0  0  0  0  0  0  0  0  0
   -6.0374   26.6279  -30.0483 H   0  0  0  0  0  0  0  0  0  0  0  0
   -7.5615   25.1941  -30.9432 H   0  0  0  0  0  0  0  0  0  0  0  0
   -6.1101   24.4755  -31.7573 H   0  0  0  0  0  0  0  0  0  0  0  0
   -6.4098   23.3817  -29.0805 H   0  0  0  0  0  0  0  0  0  0  0  0
   -7.9345   23.1773  -30.0192 H   0  0  0  0  0  0  0  0  0  0  0  0
   -5.2270   22.4790  -30.9840 H   0  0  0  0  0  0  0  0  0  0  0  0
   -7.8861   22.4851  -32.1381 H   0  0  0  0  0  0  0  0  0  0  0  0
   -6.2663   22.6955  -32.9006 H   0  0  0  0  0  0  0  0  0  0  0  0
   -8.7914   20.2339  -31.7102 H   0  0  0  0  0  0  0  0  0  0  0  0
   -8.7713   17.8364  -32.3865 H   0  0  0  0  0  0  0  0  0  0  0  0
   -4.9221   20.7904  -33.5729 H   0  0  0  0  0  0  0  0  0  0  0  0
   -3.5790   21.6768  -33.4409 H   0  0  0  0  0  0  0  0  0  0  0  0
   -2.2501   19.5639  -33.4605 H   0  0  0  0  0  0  0  0  0  0  0  0
   -0.7658   18.9987  -31.5373 H   0  0  0  0  0  0  0  0  0  0  0  0
   -0.6063   20.5383  -29.5795 H   0  0  0  0  0  0  0  0  0  0  0  0
  1  2  2  0
  2  3  1  0
  3  4  2  0
  4  5  1  0
  5  6  1  0
  6  7  1  0
  7  8  1  0
  8  9  1  0
  9 10  1  0
 10 11  1  0
 11 12  2  0
 12 13  1  0
 13 14  2  0
 14 15  1  0
 14 16  1  0
 16 17  1  0
 16 18  2  0
  4 19  1  0
 19 20  1  0
 20 21  2  0
 21 22  1  0
 22 23  2  0
 23 24  1  0
 24 25  2  0
 25  2  1  0
 18 11  1  0
 25 20  1  0
  3 26  1  0
  5 27  1  0
  6 28  1  0
  6 29  1  0
  7 30  1  0
  7 31  1  0
  8 32  1  0
  8 33  1  0
  9 34  1  0
 10 35  1  0
 10 36  1  0
 12 37  1  0
 13 38  1  0
 18 39  1  0
 21 40  1  0
 22 41  1  0
 23 42  1  0
 24 43  1  0
M  CHG  1  19  -1
M  END
>  <UniqueID>  (25) 
24

>  <SMILES>  (25) 
O=c1cc(NCCCNCc2ccc(Cl)c(Cl)c2)[n-]c2ccccc12

>  <Energy>  (25) 
42.658457687741354

>  <Genealogy>  (25) 
O=c1cc(NCCCNCc2ccc(Cl)c(Cl)c2)[n-]c2ccccc12 (protonated)
O=c1cc(NCCCNCc2ccc(Cl)c(Cl)c2)[n-]c2ccccc12 (3D coordinates assigned)
O=c1cc(NCCCNCc2ccc(Cl)c(Cl)c2)[n-]c2ccccc12 (optimized conformer: 42.658457687741354 kcal/mol)

>  <smiles>  (25) 
O=c1cc(NCCCNCc2ccc(Cl)c(Cl)c2)[nH]c2ccccc12

>  <score_type>  (25) 
oracle

>  <origin>  (25) 
adg

>  <m_score__min__energy>  (25) 
-11.289999999999999

>  <m_primary>  (25) 
energy

$$$$
25:0
     RDKit          3D

 49 51  0  0  0  0  0  0  0  0999 V2000
   -5.6990   17.4320  -34.8220 C   0  0  0  0  0  0  0  0  0  0  0  0
   -6.6500   17.0990  -33.6630 C   0  0  0  0  0  0  0  0  0  0  0  0
   -6.7240   18.1370  -32.6060 N   0  0  0  0  0  0  0  0  0  0  0  0
   -5.3980   18.4510  -32.0470 C   0  0  0  0  0  0  0  0  0  0  0  0
   -7.6920   17.8540  -31.5240 C   0  0  0  0  0  0  0  0  0  0  0  0
   -9.1370   18.1300  -31.9650 C   0  0  0  0  0  0  0  0  0  0  0  0
   -9.2950   19.4950  -32.3530 O   0  0  0  0  0  0  0  0  0  0  0  0
   -8.3940   20.5350  -32.0660 C   0  0  0  0  0  0  0  0  0  0  0  0
   -8.5590   21.2380  -30.8670 C   0  0  0  0  0  0  0  0  0  0  0  0
   -7.6850   22.2730  -30.5230 C   0  0  0  0  0  0  0  0  0  0  0  0
   -6.6230   22.6170  -31.3740 C   0  0  0  0  0  0  0  0  0  0  0  0
   -5.7020   23.7120  -30.9990 C   0  0  0  0  0  0  0  0  0  0  0  0
   -6.1480   25.2800  -30.6380 S   0  0  0  0  0  0  0  0  0  0  0  0
   -4.6310   25.9190  -30.4410 N   0  0  0  0  0  0  0  0  0  0  0  0
   -3.7520   24.9420  -30.6430 N   0  0  0  0  0  0  0  0  0  0  0  0
   -4.2970   23.7220  -30.9470 C   0  0  0  0  0  0  0  0  0  0  0  0
   -3.4390   22.5300  -31.1180 C   0  0  0  0  0  0  0  0  0  0  0  0
   -3.3750   21.8850  -32.3650 C   0  0  0  0  0  0  0  0  0  0  0  0
   -2.5780   20.7520  -32.5380 C   0  0  0  0  0  0  0  0  0  0  0  0
   -1.8460   20.2440  -31.4650 C   0  0  0  0  0  0  0  0  0  0  0  0
   -1.9090   20.8650  -30.2160 C   0  0  0  0  0  0  0  0  0  0  0  0
   -2.7060   22.0120  -30.0270 C   0  0  0  0  0  0  0  0  0  0  0  0
   -2.7800   22.6650  -28.7860 O   0  0  0  0  0  0  0  0  0  0  0  0
   -3.8630   22.5420  -27.8700 C   0  0  0  0  0  0  0  0  0  0  0  0
   -6.4720   21.9320  -32.5890 C   0  0  0  0  0  0  0  0  0  0  0  0
   -7.3450   20.8960  -32.9330 C   0  0  0  0  0  0  0  0  0  0  0  0
   -4.7333   17.7702  -34.4183 H   0  0  0  0  0  0  0  0  0  0  0  0
   -5.5445   16.5345  -35.4389 H   0  0  0  0  0  0  0  0  0  0  0  0
   -6.1381   18.2299  -35.4389 H   0  0  0  0  0  0  0  0  0  0  0  0
   -7.6594   16.9588  -34.0771 H   0  0  0  0  0  0  0  0  0  0  0  0
   -6.2504   16.1936  -33.1828 H   0  0  0  0  0  0  0  0  0  0  0  0
   -5.4509   18.4385  -30.9483 H   0  0  0  0  0  0  0  0  0  0  0  0
   -4.6694   17.7005  -32.3876 H   0  0  0  0  0  0  0  0  0  0  0  0
   -5.0833   19.4485  -32.3876 H   0  0  0  0  0  0  0  0  0  0  0  0
   -7.6038   16.7963  -31.2350 H   0  0  0  0  0  0  0  0  0  0  0  0
   -7.4608   18.5160  -30.6765 H   0  0  0  0  0  0  0  0  0  0  0  0
   -9.3841   17.4813  -32.8183 H   0  0  0  0  0  0  0  0  0  0  0  0
   -9.8100   17.9227  -31.1200 H   0  0  0  0  0  0  0  0  0  0  0  0
   -9.3841   20.9735  -30.1893 H   0  0  0  0  0  0  0  0  0  0  0  0
   -7.8301   22.8210  -29.5803 H   0  0  0  0  0  0  0  0  0  0  0  0
   -3.9579   22.2762  -33.2119 H   0  0  0  0  0  0  0  0  0  0  0  0
   -2.5273   20.2599  -33.5205 H   0  0  0  0  0  0  0  0  0  0  0  0
   -1.2175   19.3519  -31.6030 H   0  0  0  0  0  0  0  0  0  0  0  0
   -1.3323   20.4560  -29.3733 H   0  0  0  0  0  0  0  0  0  0  0  0
   -3.4789   22.5856  -26.8401 H   0  0  0  0  0  0  0  0  0  0  0  0
   -4.5748   23.3651  -28.0311 H   0  0  0  0  0  0  0  0  0  0  0  0
   -4.3720   21.5803  -28.0311 H   0  0  0  0  0  0  0  0  0  0  0  0
   -5.6602   22.2124  -33.2763 H   0  0  0  0  0  0  0  0  0  0  0  0
   -7.2120   20.3607  -33.8847 H   0  0  0  0  0  0  0  0  0  0  0  0
  1  2  1  0
  2  3  1  0
  3  4  1  0
  3  5  1  0
  5  6  1  0
  6  7  1  0
  7  8  1  0
  8  9  2  0
  9 10  1  0
 10 11  2  0
 11 12  1  0
 12 13  1  0
 13 14  1  0
 14 15  2  0
 15 16  1  0
 16 17  1  0
 17 18  2  0
 18 19  1  0
 19 20  2  0
 20 21  1  0
 21 22  2  0
 22 23  1  0
 23 24  1  0
 11 25  1  0
 25 26  2  0
 26  8  1  0
 16 12  2  0
 22 17  1  0
  1 27  1  0
  1 28  1  0
  1 29  1  0
  2 30  1  0
  2 31  1  0
  4 32  1  0
  4 33  1  0
  4 34  1  0
  5 35  1  0
  5 36  1  0
  6 37  1  0
  6 38  1  0
  9 39  1  0
 10 40  1  0
 18 41  1  0
 19 42  1  0
 20 43  1  0
 21 44  1  0
 24 45  1  0
 24 46  1  0
 24 47  1  0
 25 48  1  0
 26 49  1  0
M  END
>  <UniqueID>  (26) 
25

>  <SMILES>  (26) 
CCN(C)CCOc1ccc(-c2snnc2-c2ccccc2OC)cc1

>  <Energy>  (26) 
98.37274443289584

>  <Genealogy>  (26) 
CCN(C)CCOc1ccc(-c2snnc2-c2ccccc2OC)cc1 (3D coordinates assigned)
CCN(C)CCOc1ccc(-c2snnc2-c2ccccc2OC)cc1 (optimized conformer: 98.37274443289584 kcal/mol)

>  <smiles>  (26) 
CCN(C)CCOc1ccc(-c2snnc2-c2ccccc2OC)cc1

>  <score_type>  (26) 
oracle

>  <origin>  (26) 
adg

>  <m_score__min__energy>  (26) 
-8.6899999999999995

>  <m_primary>  (26) 
energy

$$$$
26:0
     RDKit          3D

 59 61  0  0  0  0  0  0  0  0999 V2000
   -0.1550   22.9270  -24.4870 C   0  0  0  0  0  0  0  0  0  0  0  0
   -0.8410   23.8270  -25.5090 C   0  0  0  0  0  0  0  0  0  0  0  0
   -0.8820   23.1790  -26.8230 N   0  0  0  0  0  0  0  0  0  0  0  0
   -0.8560   24.0120  -27.9960 C   0  0  0  0  0  0  0  0  0  0  0  0
    0.2290   24.1820  -28.6120 O   0  0  0  0  0  0  0  0  0  0  0  0
   -2.1170   24.6270  -28.5220 C   0  0  0  0  0  0  0  0  0  0  0  0
   -3.4380   23.3890  -28.7660 S   0  0  0  0  0  0  0  0  0  0  0  0
   -2.7060   22.6400  -30.2280 C   0  0  0  0  0  0  0  0  0  0  0  0
   -1.3800   22.4590  -30.3770 N   0  0  0  0  0  0  0  0  0  0  0  0
   -1.1970   21.8820  -31.5560 N   0  0  0  0  0  0  0  0  0  0  0  0
   -2.4140   21.7240  -32.1110 C   0  0  0  0  0  0  0  0  0  0  0  0
   -2.6300   21.1330  -33.4680 C   0  0  0  0  0  0  0  0  0  0  0  0
   -3.3880   22.1930  -31.3030 N   0  0  0  0  0  0  0  0  0  0  0  0
   -4.8060   22.2290  -31.5450 C   0  0  0  0  0  0  0  0  0  0  0  0
   -5.4810   21.0480  -31.8880 C   0  0  0  0  0  0  0  0  0  0  0  0
   -6.8640   21.0410  -32.0900 C   0  0  0  0  0  0  0  0  0  0  0  0
   -7.4830   19.8260  -32.4170 O   0  0  0  0  0  0  0  0  0  0  0  0
   -8.7830   19.4420  -31.9830 C   0  0  0  0  0  0  0  0  0  0  0  0
   -7.5820   22.2420  -31.9570 C   0  0  0  0  0  0  0  0  0  0  0  0
   -6.9170   23.4300  -31.6430 C   0  0  0  0  0  0  0  0  0  0  0  0
   -5.5220   23.4380  -31.4460 C   0  0  0  0  0  0  0  0  0  0  0  0
   -4.8180   24.6220  -31.1750 O   0  0  0  0  0  0  0  0  0  0  0  0
   -5.3540   25.7360  -30.4680 C   0  0  0  0  0  0  0  0  0  0  0  0
   -0.7940   21.7060  -26.9130 C   0  0  0  0  0  0  0  0  0  0  0  0
    0.1960   21.2490  -28.0160 C   0  0  0  0  0  0  0  0  0  0  0  0
   -0.0960   19.8250  -28.5390 C   0  0  0  0  0  0  0  0  0  0  0  0
   -0.7590   18.9450  -27.4740 C   0  0  0  0  0  0  0  0  0  0  0  0
   -2.1070   19.5310  -27.0010 C   0  0  0  0  0  0  0  0  0  0  0  0
   -2.1810   21.0680  -27.1080 C   0  0  0  0  0  0  0  0  0  0  0  0
   -0.4114   23.2634  -23.4716 H   0  0  0  0  0  0  0  0  0  0  0  0
   -0.4937   21.8897  -24.6261 H   0  0  0  0  0  0  0  0  0  0  0  0
    0.9350   22.9786  -24.6261 H   0  0  0  0  0  0  0  0  0  0  0  0
   -1.8687   24.0340  -25.1760 H   0  0  0  0  0  0  0  0  0  0  0  0
   -0.2719   24.7645  -25.5939 H   0  0  0  0  0  0  0  0  0  0  0  0
   -2.4683   25.3834  -27.8048 H   0  0  0  0  0  0  0  0  0  0  0  0
   -1.8911   25.0774  -29.4998 H   0  0  0  0  0  0  0  0  0  0  0  0
   -3.0059   20.1044  -33.3644 H   0  0  0  0  0  0  0  0  0  0  0  0
   -3.3650   21.7383  -34.0188 H   0  0  0  0  0  0  0  0  0  0  0  0
   -1.6779   21.1217  -34.0188 H   0  0  0  0  0  0  0  0  0  0  0  0
   -4.9129   20.1127  -31.9997 H   0  0  0  0  0  0  0  0  0  0  0  0
   -8.8146   19.4327  -30.8835 H   0  0  0  0  0  0  0  0  0  0  0  0
   -9.5240   20.1596  -32.3650 H   0  0  0  0  0  0  0  0  0  0  0  0
   -9.0151   18.4369  -32.3650 H   0  0  0  0  0  0  0  0  0  0  0  0
   -8.6726   22.2466  -32.1008 H   0  0  0  0  0  0  0  0  0  0  0  0
   -7.4869   24.3661  -31.5489 H   0  0  0  0  0  0  0  0  0  0  0  0
   -5.2688   25.5589  -29.3857 H   0  0  0  0  0  0  0  0  0  0  0  0
   -4.7943   26.6442  -30.7361 H   0  0  0  0  0  0  0  0  0  0  0  0
   -6.4130   25.8654  -30.7361 H   0  0  0  0  0  0  0  0  0  0  0  0
   -0.3950   21.3506  -25.9515 H   0  0  0  0  0  0  0  0  0  0  0  0
    0.1298   21.9522  -28.8593 H   0  0  0  0  0  0  0  0  0  0  0  0
    1.2013   21.2352  -27.5697 H   0  0  0  0  0  0  0  0  0  0  0  0
   -0.7668   19.8968  -29.4078 H   0  0  0  0  0  0  0  0  0  0  0  0
    0.8631   19.3612  -28.8129 H   0  0  0  0  0  0  0  0  0  0  0  0
   -0.9349   17.9453  -27.8978 H   0  0  0  0  0  0  0  0  0  0  0  0
   -0.0856   18.8946  -26.6057 H   0  0  0  0  0  0  0  0  0  0  0  0
   -2.9096   19.1000  -27.6175 H   0  0  0  0  0  0  0  0  0  0  0  0
   -2.2155   19.2751  -25.9367 H   0  0  0  0  0  0  0  0  0  0  0  0
   -2.5649   21.3406  -28.1021 H   0  0  0  0  0  0  0  0  0  0  0  0
   -2.8504   21.4407  -26.3186 H   0  0  0  0  0  0  0  0  0  0  0  0
  1  2  1  0
  2  3  1  0
  3  4  1  0
  4  5  2  0
  4  6  1  0
  6  7  1  0
  7  8  1  0
  8  9  2  0
  9 10  1  0
 10 11  2  0
 11 12  1  0
 11 13  1  0
 13 14  1  0
 14 15  2  0
 15 16  1  0
 16 17  1  0
 17 18  1  0
 16 19  2  0
 19 20  1  0
 20 21  2  0
 21 22  1  0
 22 23  1  0
  3 24  1  0
 24 25  1  0
 25 26  1  0
 26 27  1  0
 27 28  1  0
 28 29  1  0
 13  8  1  0
 21 14  1  0
 29 24  1  0
  1 30  1  0
  1 31  1  0
  1 32  1  0
  2 33  1  0
  2 34  1  0
  6 35  1  0
  6 36  1  0
 12 37  1  0
 12 38  1  0
 12 39  1  0
 15 40  1  0
 18 41  1  0
 18 42  1  0
 18 43  1  0
 19 44  1  0
 20 45  1  0
 23 46  1  0
 23 47  1  0
 23 48  1  0
 24 49  1  0
 25 50  1  0
 25 51  1  0
 26 52  1  0
 26 53  1  0
 27 54  1  0
 27 55  1  0
 28 56  1  0
 28 57  1  0
 29 58  1  0
 29 59  1  0
M  END
>  <UniqueID>  (27) 
26

>  <SMILES>  (27) 
CCN(C(=O)CSc1nnc(C)n1-c1cc(OC)ccc1OC)C1CCCCC1

>  <Energy>  (27) 
94.9956763589911

>  <Genealogy>  (27) 
CCN(C(=O)CSc1nnc(C)n1-c1cc(OC)ccc1OC)C1CCCCC1 (3D coordinates assigned)
CCN(C(=O)CSc1nnc(C)n1-c1cc(OC)ccc1OC)C1CCCCC1 (nonaromatic ring conformer: 94.9956763589911 kcal/mol)

>  <smiles>  (27) 
CCN(C(=O)CSc1nnc(C)n1-c1cc(OC)ccc1OC)C1CCCCC1

>  <score_type>  (27) 
oracle

>  <origin>  (27) 
adg

>  <m_score__min__energy>  (27) 
-9

>  <m_primary>  (27) 
energy

$$$$
27:0
     RDKit          3D

 47 50  0  0  0  0  0  0  0  0999 V2000
    1.0307   18.4058  -27.2225 H   0  0  0  0  0  0  0  0  0  0  0  0
    0.2960   19.0310  -27.7510 C   0  0  0  0  0  0  0  0  0  0  0  0
   -0.9270   19.2530  -27.2020 N   0  0  0  0  0  0  0  0  0  0  0  0
   -1.8640   20.0160  -27.8250 C   0  0  0  0  0  0  0  0  0  0  0  0
   -2.8438   20.1748  -27.3510 H   0  0  0  0  0  0  0  0  0  0  0  0
   -1.5870   20.6030  -29.0720 C   0  0  0  0  0  0  0  0  0  0  0  0
   -2.5950   21.4440  -29.7620 C   0  0  0  0  0  0  0  0  0  0  0  0
   -3.6510   20.8570  -30.4990 C   0  0  0  0  0  0  0  0  0  0  0  0
   -3.7226   19.7610  -30.5595 H   0  0  0  0  0  0  0  0  0  0  0  0
   -4.6200   21.6560  -31.1620 C   0  0  0  0  0  0  0  0  0  0  0  0
   -5.7100   21.0050  -31.9290 C   0  0  0  0  0  0  0  0  0  0  0  0
   -6.9730   20.8760  -31.4700 N   0  0  0  0  0  0  0  0  0  0  0  0
   -7.6750   20.2540  -32.4030 N   0  0  0  0  0  0  0  0  0  0  0  0
   -9.1040   19.9820  -32.2980 C   0  0  0  0  0  0  0  0  0  0  0  0
   -9.4647   19.5622  -33.2486 H   0  0  0  0  0  0  0  0  0  0  0  0
   -9.2736   19.2642  -31.4819 H   0  0  0  0  0  0  0  0  0  0  0  0
   -9.8640   21.2680  -31.9950 C   0  0  0  0  0  0  0  0  0  0  0  0
   -9.9419   21.3999  -30.9057 H   0  0  0  0  0  0  0  0  0  0  0  0
   -9.3261   22.1231  -32.4303 H   0  0  0  0  0  0  0  0  0  0  0  0
  -10.8725   21.2092  -32.4303 H   0  0  0  0  0  0  0  0  0  0  0  0
   -6.8950   19.9920  -33.4670 C   0  0  0  0  0  0  0  0  0  0  0  0
   -7.2171   19.4941  -34.3935 H   0  0  0  0  0  0  0  0  0  0  0  0
   -5.6240   20.4530  -33.2000 C   0  0  0  0  0  0  0  0  0  0  0  0
   -4.7381   20.3962  -33.8496 H   0  0  0  0  0  0  0  0  0  0  0  0
   -4.5300   23.0660  -31.0790 C   0  0  0  0  0  0  0  0  0  0  0  0
   -5.2664   23.7103  -31.5816 H   0  0  0  0  0  0  0  0  0  0  0  0
   -3.4840   23.6140  -30.3440 C   0  0  0  0  0  0  0  0  0  0  0  0
   -3.2400   24.9150  -30.1260 N   0  0  0  0  0  0  0  0  0  0  0  0
   -2.1330   24.8740  -29.3370 C   0  0  0  0  0  0  0  0  0  0  0  0
   -1.5370   25.9330  -28.8750 N   0  0  0  0  0  0  0  0  0  0  0  0
   -0.9990   26.1000  -27.5540 C   0  0  0  0  0  0  0  0  0  0  0  0
   -0.5000   27.2000  -27.1920 O   0  0  0  0  0  0  0  0  0  0  0  0
   -1.0440   24.9970  -26.6420 N   0  0  0  0  0  0  0  0  0  0  0  0
   -1.5260   24.1190  -26.9410 H   0  0  0  0  0  0  0  0  0  0  0  0
   -0.5120   25.0730  -25.2820 C   0  0  0  0  0  0  0  0  0  0  0  0
    0.5713   25.2582  -25.3278 H   0  0  0  0  0  0  0  0  0  0  0  0
   -0.7150   24.1214  -24.7690 H   0  0  0  0  0  0  0  0  0  0  0  0
   -1.1800   26.2010  -24.5050 C   0  0  0  0  0  0  0  0  0  0  0  0
   -1.0713   26.0174  -23.4259 H   0  0  0  0  0  0  0  0  0  0  0  0
   -0.7026   27.1575  -24.7641 H   0  0  0  0  0  0  0  0  0  0  0  0
   -2.2482   26.2422  -24.7641 H   0  0  0  0  0  0  0  0  0  0  0  0
   -1.6840   23.6250  -29.0560 N   0  0  0  0  0  0  0  0  0  0  0  0
   -2.5560   22.8430  -29.7130 C   0  0  0  0  0  0  0  0  0  0  0  0
   -0.3230   20.3860  -29.6450 C   0  0  0  0  0  0  0  0  0  0  0  0
   -0.0756   20.8396  -30.6161 H   0  0  0  0  0  0  0  0  0  0  0  0
    0.6200   19.5960  -28.9850 C   0  0  0  0  0  0  0  0  0  0  0  0
    1.6090   19.4206  -29.4335 H   0  0  0  0  0  0  0  0  0  0  0  0
  1  2  1  0
  2  3  2  0
  3  4  1  0
  4  5  1  0
  4  6  2  0
  6  7  1  0
  7  8  2  0
  8  9  1  0
  8 10  1  0
 10 11  1  0
 11 12  2  0
 12 13  1  0
 13 14  1  0
 14 15  1  0
 14 16  1  0
 14 17  1  0
 17 18  1  0
 17 19  1  0
 17 20  1  0
 13 21  1  0
 21 22  1  0
 21 23  2  0
 23 24  1  0
 10 25  2  0
 25 26  1  0
 25 27  1  0
 27 28  1  0
 28 29  1  0
 29 30  2  0
 30 31  1  0
 31 32  2  0
 31 33  1  0
 33 34  1  0
 33 35  1  0
 35 36  1  0
 35 37  1  0
 35 38  1  0
 38 39  1  0
 38 40  1  0
 38 41  1  0
 29 42  1  0
 42 43  1  0
  6 44  1  0
 44 45  1  0
 44 46  2  0
 46 47  1  0
 46  2  1  0
 43  7  1  0
 23 11  1  0
 43 27  2  0
M  CHG  2  28  -1  42  -1
M  END
>  <UniqueID>  (28) 
27

>  <SMILES>  (28) 
CCNC(=O)/N=c1\[n-]c2cc(-c3ccn(CC)n3)cc(-c3cccnc3)c2[n-]1

>  <Energy>  (28) 
115.73574272847134

>  <Genealogy>  (28) 
CCNC(=O)N=c1[n-]c2cc(-c3ccn(CC)n3)cc(-c3cccnc3)c2[n-]1 (protonated)
CCNC(=O)/N=c1\[n-]c2cc(-c3ccn(CC)n3)cc(-c3cccnc3)c2[n-]1 (cis-trans isomerization)
CCNC(=O)/N=c1\[n-]c2cc(-c3ccn(CC)n3)cc(-c3cccnc3)c2[n-]1 (3D coordinates assigned)
CCNC(=O)/N=c1\[n-]c2cc(-c3ccn(CC)n3)cc(-c3cccnc3)c2[n-]1 (optimized conformer: 115.73574272847134 kcal/mol)

>  <smiles>  (28) 
CCNC(=O)N=c1[nH]c2cc(-c3ccn(CC)n3)cc(-c3cccnc3)c2[nH]1

>  <score_type>  (28) 
oracle

>  <origin>  (28) 
adg

>  <m_score__min__energy>  (28) 
-10.26

>  <m_primary>  (28) 
energy

$$$$
28:0
     RDKit          3D

 49 51  0  0  0  0  0  0  0  0999 V2000
   -9.0960   20.6440  -32.2820 C   0  0  0  0  0  0  0  0  0  0  0  0
   -9.0410   21.7290  -31.2070 C   0  0  0  0  0  0  0  0  0  0  0  0
   -8.3240   23.0010  -31.6860 C   0  0  0  0  0  0  0  0  0  0  0  0
   -6.8210   22.8950  -31.5600 C   0  0  0  0  0  0  0  0  0  0  0  0
   -6.2160   21.8800  -32.2190 N   0  0  0  0  0  0  0  0  0  0  0  0
   -4.8800   21.6440  -32.1840 C   0  0  0  0  0  0  0  0  0  0  0  0
   -4.0450   22.4830  -31.4190 C   0  0  0  0  0  0  0  0  0  0  0  0
   -4.6490   23.5250  -30.6460 C   0  0  0  0  0  0  0  0  0  0  0  0
   -3.6760   24.5300  -29.4860 S   0  0  0  0  0  0  0  0  0  0  0  0
   -3.8360   23.3800  -28.0680 C   0  0  0  0  0  0  0  0  0  0  0  0
   -2.4880   22.9960  -27.4940 C   0  0  0  0  0  0  0  0  0  0  0  0
   -1.7680   23.9190  -26.6970 C   0  0  0  0  0  0  0  0  0  0  0  0
   -2.3720   25.5420  -26.3710 Cl  0  0  0  0  0  0  0  0  0  0  0  0
   -0.5390   23.5560  -26.1380 C   0  0  0  0  0  0  0  0  0  0  0  0
   -0.0060   22.2890  -26.3660 C   0  0  0  0  0  0  0  0  0  0  0  0
   -0.6960   21.3750  -27.1600 C   0  0  0  0  0  0  0  0  0  0  0  0
   -1.9290   21.7150  -27.7260 C   0  0  0  0  0  0  0  0  0  0  0  0
   -2.7220   20.4980  -28.7230 Cl  0  0  0  0  0  0  0  0  0  0  0  0
   -6.0480   23.7620  -30.7560 C   0  0  0  0  0  0  0  0  0  0  0  0
   -6.7220   24.9350  -30.0690 C   0  0  0  0  0  0  0  0  0  0  0  0
   -2.6520   22.2280  -31.4690 C   0  0  0  0  0  0  0  0  0  0  0  0
   -1.8430   22.9520  -30.8270 O   0  0  0  0  0  0  0  0  0  0  0  0
   -2.1600   21.2010  -32.2330 N   0  0  0  0  0  0  0  0  0  0  0  0
   -0.7080   20.9420  -32.2620 C   0  0  0  0  0  0  0  0  0  0  0  0
   -3.0130   20.3720  -32.9120 C   0  0  0  0  0  0  0  0  0  0  0  0
   -2.5450   19.4040  -33.5760 O   0  0  0  0  0  0  0  0  0  0  0  0
   -4.3640   20.5830  -32.8790 N   0  0  0  0  0  0  0  0  0  0  0  0
   -5.2700   19.7050  -33.6450 C   0  0  0  0  0  0  0  0  0  0  0  0
   -9.1461   19.6552  -31.8027 H   0  0  0  0  0  0  0  0  0  0  0  0
   -9.9877   20.7934  -32.9085 H   0  0  0  0  0  0  0  0  0  0  0  0
   -8.1937   20.7025  -32.9085 H   0  0  0  0  0  0  0  0  0  0  0  0
  -10.0696   21.9918  -30.9190 H   0  0  0  0  0  0  0  0  0  0  0  0
   -8.4714   21.3262  -30.3565 H   0  0  0  0  0  0  0  0  0  0  0  0
   -8.5790   23.1744  -32.7419 H   0  0  0  0  0  0  0  0  0  0  0  0
   -8.6569   23.8345  -31.0500 H   0  0  0  0  0  0  0  0  0  0  0  0
   -4.4313   23.8667  -27.2814 H   0  0  0  0  0  0  0  0  0  0  0  0
   -4.3258   22.4631  -28.4277 H   0  0  0  0  0  0  0  0  0  0  0  0
    0.0110   24.2757  -25.5138 H   0  0  0  0  0  0  0  0  0  0  0  0
    0.9597   22.0101  -25.9191 H   0  0  0  0  0  0  0  0  0  0  0  0
   -0.2677   20.3785  -27.3430 H   0  0  0  0  0  0  0  0  0  0  0  0
   -6.6509   24.8113  -28.9783 H   0  0  0  0  0  0  0  0  0  0  0  0
   -6.2231   25.8695  -30.3653 H   0  0  0  0  0  0  0  0  0  0  0  0
   -7.7806   24.9746  -30.3653 H   0  0  0  0  0  0  0  0  0  0  0  0
   -0.3270   20.8740  -31.2323 H   0  0  0  0  0  0  0  0  0  0  0  0
   -0.5149   19.9952  -32.7877 H   0  0  0  0  0  0  0  0  0  0  0  0
   -0.1994   21.7636  -32.7877 H   0  0  0  0  0  0  0  0  0  0  0  0
   -5.8816   19.1123  -32.9488 H   0  0  0  0  0  0  0  0  0  0  0  0
   -5.9269   20.3191  -34.2785 H   0  0  0  0  0  0  0  0  0  0  0  0
   -4.6768   19.0292  -34.2785 H   0  0  0  0  0  0  0  0  0  0  0  0
  1  2  1  0
  2  3  1  0
  3  4  1  0
  4  5  2  0
  5  6  1  0
  6  7  2  0
  7  8  1  0
  8  9  1  0
  9 10  1  0
 10 11  1  0
 11 12  2  0
 12 13  1  0
 12 14  1  0
 14 15  2  0
 15 16  1  0
 16 17  2  0
 17 18  1  0
  8 19  2  0
 19 20  1  0
  7 21  1  0
 21 22  2  0
 21 23  1  0
 23 24  1  0
 23 25  1  0
 25 26  2  0
 25 27  1  0
 27 28  1  0
 19  4  1  0
 27  6  1  0
 17 11  1  0
  1 29  1  0
  1 30  1  0
  1 31  1  0
  2 32  1  0
  2 33  1  0
  3 34  1  0
  3 35  1  0
 10 36  1  0
 10 37  1  0
 14 38  1  0
 15 39  1  0
 16 40  1  0
 20 41  1  0
 20 42  1  0
 20 43  1  0
 24 44  1  0
 24 45  1  0
 24 46  1  0
 28 47  1  0
 28 48  1  0
 28 49  1  0
M  END
>  <UniqueID>  (29) 
28

>  <SMILES>  (29) 
CCCc1nc2c(c(SCc3c(Cl)cccc3Cl)c1C)c(=O)n(C)c(=O)n2C

>  <Energy>  (29) 
62.06448724744071

>  <Genealogy>  (29) 
CCCc1nc2c(c(SCc3c(Cl)cccc3Cl)c1C)c(=O)n(C)c(=O)n2C (3D coordinates assigned)
CCCc1nc2c(c(SCc3c(Cl)cccc3Cl)c1C)c(=O)n(C)c(=O)n2C (optimized conformer: 62.06448724744071 kcal/mol)

>  <smiles>  (29) 
CCCc1nc2c(c(SCc3c(Cl)cccc3Cl)c1C)c(=O)n(C)c(=O)n2C

>  <score_type>  (29) 
oracle

>  <origin>  (29) 
adg

>  <m_score__min__energy>  (29) 
-8.8000000000000007

>  <m_primary>  (29) 
energy

$$$$
29:0
     RDKit          3D

 40 42  0  0  0  0  0  0  0  0999 V2000
   -6.1150   25.2840  -29.4590 C   0  0  0  0  0  0  0  0  0  0  0  0
   -5.3080   25.6720  -30.6920 C   0  0  0  0  0  0  0  0  0  0  0  0
   -3.9360   25.3170  -30.5290 O   0  0  0  0  0  0  0  0  0  0  0  0
   -3.5050   24.0210  -30.2160 C   0  0  0  0  0  0  0  0  0  0  0  0
   -2.8060   23.8120  -29.1870 O   0  0  0  0  0  0  0  0  0  0  0  0
   -3.8560   22.8880  -31.0880 C   0  0  0  0  0  0  0  0  0  0  0  0
   -5.1080   22.4170  -31.1540 C   0  0  0  0  0  0  0  0  0  0  0  0
   -5.4070   21.3060  -32.0200 N   0  0  0  0  0  0  0  0  0  0  0  0
   -6.7490   20.7890  -32.1030 C   0  0  0  0  0  0  0  0  0  0  0  0
   -7.8540   21.6410  -31.9230 C   0  0  0  0  0  0  0  0  0  0  0  0
   -9.1570   21.1380  -32.0060 C   0  0  0  0  0  0  0  0  0  0  0  0
   -9.3680   19.7810  -32.2660 C   0  0  0  0  0  0  0  0  0  0  0  0
   -8.2780   18.9260  -32.4450 C   0  0  0  0  0  0  0  0  0  0  0  0
   -6.9750   19.4250  -32.3640 C   0  0  0  0  0  0  0  0  0  0  0  0
   -4.3530   20.7160  -32.8030 C   0  0  0  0  0  0  0  0  0  0  0  0
   -3.1030   21.2000  -32.7140 C   0  0  0  0  0  0  0  0  0  0  0  0
   -1.9750   20.6380  -33.5000 C   0  0  0  0  0  0  0  0  0  0  0  0
   -1.9290   19.2780  -33.8690 C   0  0  0  0  0  0  0  0  0  0  0  0
   -0.8460   18.7780  -34.5990 C   0  0  0  0  0  0  0  0  0  0  0  0
    0.2060   19.6220  -34.9620 C   0  0  0  0  0  0  0  0  0  0  0  0
    1.6840   18.9360  -35.9580 Br  0  0  0  0  0  0  0  0  0  0  0  0
    0.1780   20.9690  -34.5900 C   0  0  0  0  0  0  0  0  0  0  0  0
   -0.9020   21.4730  -33.8590 C   0  0  0  0  0  0  0  0  0  0  0  0
   -2.8540   22.2900  -31.8650 O   0  0  0  0  0  0  0  0  0  0  0  0
   -5.5529   25.5543  -28.5529 H   0  0  0  0  0  0  0  0  0  0  0  0
   -7.0765   25.8183  -29.4670 H   0  0  0  0  0  0  0  0  0  0  0  0
   -6.2981   24.1994  -29.4670 H   0  0  0  0  0  0  0  0  0  0  0  0
   -5.7148   25.1479  -31.5694 H   0  0  0  0  0  0  0  0  0  0  0  0
   -5.3773   26.7609  -30.8317 H   0  0  0  0  0  0  0  0  0  0  0  0
   -5.9040   22.8766  -30.5497 H   0  0  0  0  0  0  0  0  0  0  0  0
   -7.6926   22.7092  -31.7157 H   0  0  0  0  0  0  0  0  0  0  0  0
  -10.0159   21.8110  -31.8665 H   0  0  0  0  0  0  0  0  0  0  0  0
  -10.3927   19.3862  -32.3297 H   0  0  0  0  0  0  0  0  0  0  0  0
   -8.4454   17.8583  -32.6500 H   0  0  0  0  0  0  0  0  0  0  0  0
   -6.1205   18.7469  -32.5052 H   0  0  0  0  0  0  0  0  0  0  0  0
   -4.5706   19.8709  -33.4726 H   0  0  0  0  0  0  0  0  0  0  0  0
   -2.7505   18.6057  -33.5807 H   0  0  0  0  0  0  0  0  0  0  0  0
   -0.8226   17.7169  -34.8881 H   0  0  0  0  0  0  0  0  0  0  0  0
    1.0074   21.6339  -34.8729 H   0  0  0  0  0  0  0  0  0  0  0  0
   -0.9125   22.5321  -33.5621 H   0  0  0  0  0  0  0  0  0  0  0  0
  1  2  1  0
  2  3  1  0
  3  4  1  0
  4  5  2  0
  4  6  1  0
  6  7  2  0
  7  8  1  0
  8  9  1  0
  9 10  2  0
 10 11  1  0
 11 12  2  0
 12 13  1  0
 13 14  2  0
  8 15  1  0
 15 16  2  0
 16 17  1  0
 17 18  2  0
 18 19  1  0
 19 20  2  0
 20 21  1  0
 20 22  1  0
 22 23  2  0
 16 24  1  0
 24  6  1  0
 14  9  1  0
 23 17  1  0
  1 25  1  0
  1 26  1  0
  1 27  1  0
  2 28  1  0
  2 29  1  0
  7 30  1  0
 10 31  1  0
 11 32  1  0
 12 33  1  0
 13 34  1  0
 14 35  1  0
 15 36  1  0
 18 37  1  0
 19 38  1  0
 22 39  1  0
 23 40  1  0
M  END
>  <UniqueID>  (30) 
29

>  <SMILES>  (30) 
CCOC(=O)C1=CN(c2ccccc2)C=C(c2ccc(Br)cc2)O1

>  <Energy>  (30) 
44.98986982858108

>  <Genealogy>  (30) 
CCOC(=O)C1=CN(c2ccccc2)C=C(c2ccc(Br)cc2)O1 (3D coordinates assigned)
CCOC(=O)C1=CN(c2ccccc2)C=C(c2ccc(Br)cc2)O1 (nonaromatic ring conformer: 44.98986982858108 kcal/mol)

>  <smiles>  (30) 
CCOC(=O)C1=CN(c2ccccc2)C=C(c2ccc(Br)cc2)O1

>  <score_type>  (30) 
oracle

>  <origin>  (30) 
adg

>  <m_score__min__energy>  (30) 
-8.5700000000000003

>  <m_primary>  (30) 
energy

$$$$
30:0
     RDKit          3D

 50 50  0  0  0  0  0  0  0  0999 V2000
   -1.0720   26.3930  -26.5040 C   0  0  0  0  0  0  0  0  0  0  0  0
   -0.9970   26.3410  -28.0320 C   0  0  0  0  0  0  0  0  0  0  0  0
   -1.7420   25.1950  -28.6060 N   0  0  0  0  0  0  0  0  0  0  0  0
   -0.8000   24.1950  -29.1590 C   0  0  0  0  0  0  0  0  0  0  0  0
   -0.4770   23.0870  -28.1550 C   0  0  0  0  0  0  0  0  0  0  0  0
   -2.7670   24.6170  -27.6940 C   0  0  0  0  0  0  0  0  0  0  0  0
   -3.9260   23.8850  -28.4040 C   0  0  0  0  0  0  0  0  0  0  0  0
   -3.7690   23.9170  -29.9280 C   0  0  0  0  0  0  0  0  0  0  0  0
   -3.9560   25.2920  -30.4240 N   0  0  0  0  0  0  0  0  0  0  0  0
   -5.3730   25.6800  -30.5170 C   0  0  0  0  0  0  0  0  0  0  0  0
   -6.2730   24.4420  -30.6290 C   0  0  0  0  0  0  0  0  0  0  0  0
   -6.3380   23.8320  -32.0420 C   0  0  0  0  0  0  0  0  0  0  0  0
   -7.0760   22.5100  -32.0760 C   0  0  0  0  0  0  0  0  0  0  0  0
   -8.3860   22.4290  -31.5720 C   0  0  0  0  0  0  0  0  0  0  0  0
   -9.0890   21.2250  -31.6140 C   0  0  0  0  0  0  0  0  0  0  0  0
   -8.4890   20.0830  -32.1440 C   0  0  0  0  0  0  0  0  0  0  0  0
   -9.1760   18.9150  -32.1850 F   0  0  0  0  0  0  0  0  0  0  0  0
   -7.1780   20.1380  -32.6220 C   0  0  0  0  0  0  0  0  0  0  0  0
   -6.4550   21.3470  -32.5850 C   0  0  0  0  0  0  0  0  0  0  0  0
   -5.1260   21.4260  -33.0370 O   0  0  0  0  0  0  0  0  0  0  0  0
   -3.9810   21.1620  -32.2340 C   0  0  0  0  0  0  0  0  0  0  0  0
   -0.2392   25.8156  -26.0762 H   0  0  0  0  0  0  0  0  0  0  0  0
   -1.0036   27.4385  -26.1689 H   0  0  0  0  0  0  0  0  0  0  0  0
   -2.0271   25.9623  -26.1689 H   0  0  0  0  0  0  0  0  0  0  0  0
   -1.4195   27.2726  -28.4363 H   0  0  0  0  0  0  0  0  0  0  0  0
    0.0610   26.2190  -28.3073 H   0  0  0  0  0  0  0  0  0  0  0  0
   -1.2504   23.7414  -30.0542 H   0  0  0  0  0  0  0  0  0  0  0  0
    0.1388   24.7142  -29.4020 H   0  0  0  0  0  0  0  0  0  0  0  0
   -0.5901   23.4749  -27.1319 H   0  0  0  0  0  0  0  0  0  0  0  0
   -1.1666   22.2433  -28.3056 H   0  0  0  0  0  0  0  0  0  0  0  0
    0.5579   22.7460  -28.3056 H   0  0  0  0  0  0  0  0  0  0  0  0
   -2.2663   23.8994  -27.0274 H   0  0  0  0  0  0  0  0  0  0  0  0
   -3.2183   25.4650  -27.1582 H   0  0  0  0  0  0  0  0  0  0  0  0
   -3.9437   22.8372  -28.0696 H   0  0  0  0  0  0  0  0  0  0  0  0
   -4.8643   24.3977  -28.1456 H   0  0  0  0  0  0  0  0  0  0  0  0
   -2.7622   23.5658  -30.1982 H   0  0  0  0  0  0  0  0  0  0  0  0
   -4.5265   23.2622  -30.3834 H   0  0  0  0  0  0  0  0  0  0  0  0
   -3.4930   25.9440  -29.7490 H   0  0  0  0  0  0  0  0  0  0  0  0
   -5.6510   26.2472  -29.6165 H   0  0  0  0  0  0  0  0  0  0  0  0
   -5.5103   26.2972  -31.4171 H   0  0  0  0  0  0  0  0  0  0  0  0
   -5.8909   23.6747  -29.9396 H   0  0  0  0  0  0  0  0  0  0  0  0
   -7.2930   24.7702  -30.3801 H   0  0  0  0  0  0  0  0  0  0  0  0
   -6.8540   24.5400  -32.7073 H   0  0  0  0  0  0  0  0  0  0  0  0
   -5.3050   23.6437  -32.3698 H   0  0  0  0  0  0  0  0  0  0  0  0
   -8.8606   23.3228  -31.1409 H   0  0  0  0  0  0  0  0  0  0  0  0
  -10.1181   21.1762  -31.2285 H   0  0  0  0  0  0  0  0  0  0  0  0
   -6.7067   19.2317  -33.0300 H   0  0  0  0  0  0  0  0  0  0  0  0
   -4.2562   21.2255  -31.1709 H   0  0  0  0  0  0  0  0  0  0  0  0
   -3.6027   20.1531  -32.4552 H   0  0  0  0  0  0  0  0  0  0  0  0
   -3.1991   21.9034  -32.4552 H   0  0  0  0  0  0  0  0  0  0  0  0
  1  2  1  0
  2  3  1  0
  3  4  1  0
  4  5  1  0
  3  6  1  0
  6  7  1  0
  7  8  1  0
  8  9  1  0
  9 10  1  0
 10 11  1  0
 11 12  1  0
 12 13  1  0
 13 14  2  0
 14 15  1  0
 15 16  2  0
 16 17  1  0
 16 18  1  0
 18 19  2  0
 19 20  1  0
 20 21  1  0
 19 13  1  0
  1 22  1  0
  1 23  1  0
  1 24  1  0
  2 25  1  0
  2 26  1  0
  4 27  1  0
  4 28  1  0
  5 29  1  0
  5 30  1  0
  5 31  1  0
  6 32  1  0
  6 33  1  0
  7 34  1  0
  7 35  1  0
  8 36  1  0
  8 37  1  0
  9 38  1  0
 10 39  1  0
 10 40  1  0
 11 41  1  0
 11 42  1  0
 12 43  1  0
 12 44  1  0
 14 45  1  0
 15 46  1  0
 18 47  1  0
 21 48  1  0
 21 49  1  0
 21 50  1  0
M  END
>  <UniqueID>  (31) 
30

>  <SMILES>  (31) 
CCN(CC)CCCNCCCc1ccc(F)cc1OC

>  <Energy>  (31) 
43.54282236231955

>  <Genealogy>  (31) 
CCN(CC)CCCNCCCc1ccc(F)cc1OC (3D coordinates assigned)
CCN(CC)CCCNCCCc1ccc(F)cc1OC (optimized conformer: 43.54282236231955 kcal/mol)

>  <smiles>  (31) 
CCN(CC)CCCNCCCc1ccc(F)cc1OC

>  <score_type>  (31) 
oracle

>  <origin>  (31) 
adg

>  <m_score__min__energy>  (31) 
-6.79

>  <m_primary>  (31) 
energy

$$$$
31:0
     RDKit          3D

 50 52  0  0  0  0  0  0  0  0999 V2000
   -0.5070   27.5480  -24.2670 C   0  0  0  0  0  0  0  0  0  0  0  0
   -0.4540   27.3910  -25.7920 C   0  0  0  0  0  0  0  0  0  0  0  0
   -0.9090   26.0450  -26.2340 N   0  0  0  0  0  0  0  0  0  0  0  0
   -1.9680   25.5300  -25.3240 C   0  0  0  0  0  0  0  0  0  0  0  0
   -3.3010   25.3000  -26.0500 C   0  0  0  0  0  0  0  0  0  0  0  0
    0.2460   25.1040  -26.2670 C   0  0  0  0  0  0  0  0  0  0  0  0
    0.4580   24.4330  -27.6380 C   0  0  0  0  0  0  0  0  0  0  0  0
   -0.4860   24.9100  -28.6000 O   0  0  0  0  0  0  0  0  0  0  0  0
   -1.5770   24.2010  -29.1320 C   0  0  0  0  0  0  0  0  0  0  0  0
   -1.3330   22.9180  -29.6370 C   0  0  0  0  0  0  0  0  0  0  0  0
   -2.3650   22.1610  -30.1950 C   0  0  0  0  0  0  0  0  0  0  0  0
   -3.6660   22.6770  -30.2550 C   0  0  0  0  0  0  0  0  0  0  0  0
   -4.7080   21.9260  -30.8210 C   0  0  0  0  0  0  0  0  0  0  0  0
   -6.0140   22.4430  -30.8790 C   0  0  0  0  0  0  0  0  0  0  0  0
   -7.1140   21.6450  -31.4800 C   0  0  0  0  0  0  0  0  0  0  0  0
   -8.4500   22.0790  -31.3800 C   0  0  0  0  0  0  0  0  0  0  0  0
   -9.4830   21.3230  -31.9420 C   0  0  0  0  0  0  0  0  0  0  0  0
   -9.1980   20.1300  -32.6080 C   0  0  0  0  0  0  0  0  0  0  0  0
   -7.8770   19.6920  -32.7150 C   0  0  0  0  0  0  0  0  0  0  0  0
   -6.8390   20.4430  -32.1550 C   0  0  0  0  0  0  0  0  0  0  0  0
   -6.2650   23.7260  -30.3610 C   0  0  0  0  0  0  0  0  0  0  0  0
   -5.2330   24.4810  -29.7960 C   0  0  0  0  0  0  0  0  0  0  0  0
   -3.9310   23.9650  -29.7380 C   0  0  0  0  0  0  0  0  0  0  0  0
   -2.8880   24.7180  -29.1740 C   0  0  0  0  0  0  0  0  0  0  0  0
   -0.1899   26.6087  -23.7905 H   0  0  0  0  0  0  0  0  0  0  0  0
    0.1664   28.3612  -23.9585 H   0  0  0  0  0  0  0  0  0  0  0  0
   -1.5355   27.7867  -23.9585 H   0  0  0  0  0  0  0  0  0  0  0  0
   -1.1030   28.1523  -26.2494 H   0  0  0  0  0  0  0  0  0  0  0  0
    0.5922   27.5148  -26.1083 H   0  0  0  0  0  0  0  0  0  0  0  0
   -1.3070   26.1310  -27.1960 H   0  0  0  0  0  0  0  0  0  0  0  0
   -1.6307   24.5756  -24.8936 H   0  0  0  0  0  0  0  0  0  0  0  0
   -2.1369   26.2863  -24.5433 H   0  0  0  0  0  0  0  0  0  0  0  0
   -4.1027   25.1617  -25.3096 H   0  0  0  0  0  0  0  0  0  0  0  0
   -3.5304   26.1718  -26.6803 H   0  0  0  0  0  0  0  0  0  0  0  0
   -3.2250   24.4017  -26.6803 H   0  0  0  0  0  0  0  0  0  0  0  0
    1.1574   25.6634  -26.0093 H   0  0  0  0  0  0  0  0  0  0  0  0
    0.0285   24.3020  -25.5462 H   0  0  0  0  0  0  0  0  0  0  0  0
    1.4751   24.6557  -27.9928 H   0  0  0  0  0  0  0  0  0  0  0  0
    0.3164   23.3485  -27.5200 H   0  0  0  0  0  0  0  0  0  0  0  0
   -0.3159   22.5014  -29.5936 H   0  0  0  0  0  0  0  0  0  0  0  0
   -2.1557   21.1556  -30.5890 H   0  0  0  0  0  0  0  0  0  0  0  0
   -4.5007   20.9233  -31.2230 H   0  0  0  0  0  0  0  0  0  0  0  0
   -8.6821   23.0183  -30.8567 H   0  0  0  0  0  0  0  0  0  0  0  0
  -10.5237   21.6695  -31.8590 H   0  0  0  0  0  0  0  0  0  0  0  0
  -10.0128   19.5361  -33.0477 H   0  0  0  0  0  0  0  0  0  0  0  0
   -7.6518   18.7529  -33.2416 H   0  0  0  0  0  0  0  0  0  0  0  0
   -5.8006   20.0910  -32.2432 H   0  0  0  0  0  0  0  0  0  0  0  0
   -7.2835   24.1396  -30.4008 H   0  0  0  0  0  0  0  0  0  0  0  0
   -5.4435   25.4836  -29.3955 H   0  0  0  0  0  0  0  0  0  0  0  0
   -3.0953   25.7169  -28.7627 H   0  0  0  0  0  0  0  0  0  0  0  0
  1  2  1  0
  2  3  1  0
  3  4  1  0
  4  5  1  0
  3  6  1  0
  6  7  1  0
  7  8  1  0
  8  9  1  0
  9 10  2  0
 10 11  1  0
 11 12  2  0
 12 13  1  0
 13 14  2  0
 14 15  1  0
 15 16  2  0
 16 17  1  0
 17 18  2  0
 18 19  1  0
 19 20  2  0
 14 21  1  0
 21 22  2  0
 22 23  1  0
 23 24  2  0
 24  9  1  0
 23 12  1  0
 20 15  1  0
  1 25  1  0
  1 26  1  0
  1 27  1  0
  2 28  1  0
  2 29  1  0
  3 30  1  0
  4 31  1  0
  4 32  1  0
  5 33  1  0
  5 34  1  0
  5 35  1  0
  6 36  1  0
  6 37  1  0
  7 38  1  0
  7 39  1  0
 10 40  1  0
 11 41  1  0
 13 42  1  0
 16 43  1  0
 17 44  1  0
 18 45  1  0
 19 46  1  0
 20 47  1  0
 21 48  1  0
 22 49  1  0
 24 50  1  0
M  CHG  1   3   1
M  END
>  <UniqueID>  (32) 
31

>  <SMILES>  (32) 
CC[NH+](CC)CCOc1ccc2cc(-c3ccccc3)ccc2c1

>  <Energy>  (32) 
62.46752974970767

>  <Genealogy>  (32) 
CC[NH+](CC)CCOc1ccc2cc(-c3ccccc3)ccc2c1 (protonated)
CC[NH+](CC)CCOc1ccc2cc(-c3ccccc3)ccc2c1 (3D coordinates assigned)
CC[NH+](CC)CCOc1ccc2cc(-c3ccccc3)ccc2c1 (optimized conformer: 62.46752974970767 kcal/mol)

>  <smiles>  (32) 
CCN(CC)CCOc1ccc2cc(-c3ccccc3)ccc2c1

>  <score_type>  (32) 
oracle

>  <origin>  (32) 
adg

>  <m_score__min__energy>  (32) 
-7.6900000000000004

>  <m_primary>  (32) 
energy

$$$$
32:0
     RDKit          3D

 45 47  0  0  0  0  0  0  0  0999 V2000
   -9.1160   22.9430  -31.9240 C   0  0  0  0  0  0  0  0  0  0  0  0
   -8.4270   22.0460  -30.9000 C   0  0  0  0  0  0  0  0  0  0  0  0
   -8.0670   20.7090  -31.5050 C   0  0  0  0  0  0  0  0  0  0  0  0
   -9.0920   19.7920  -31.7930 C   0  0  0  0  0  0  0  0  0  0  0  0
   -8.7980   18.5550  -32.3700 C   0  0  0  0  0  0  0  0  0  0  0  0
   -7.4760   18.2200  -32.6710 C   0  0  0  0  0  0  0  0  0  0  0  0
   -6.4480   19.1220  -32.3980 C   0  0  0  0  0  0  0  0  0  0  0  0
   -6.7310   20.3680  -31.8210 C   0  0  0  0  0  0  0  0  0  0  0  0
   -5.6510   21.2720  -31.5490 N   0  0  0  0  0  0  0  0  0  0  0  0
   -4.4740   20.7380  -30.8390 C   0  0  0  0  0  0  0  0  0  0  0  0
   -3.1290   21.1460  -31.4670 C   0  0  0  0  0  0  0  0  0  0  0  0
   -2.8950   22.6700  -31.5800 C   0  0  0  0  0  0  0  0  0  0  0  0
   -3.8200   23.4640  -30.7530 N   0  0  0  0  0  0  0  0  0  0  0  0
   -3.4280   23.8660  -29.4220 C   0  0  0  0  0  0  0  0  0  0  0  0
   -4.3770   23.9310  -28.3840 C   0  0  0  0  0  0  0  0  0  0  0  0
   -3.9970   24.3320  -27.1000 C   0  0  0  0  0  0  0  0  0  0  0  0
   -2.6670   24.6690  -26.8370 C   0  0  0  0  0  0  0  0  0  0  0  0
   -1.7150   24.6030  -27.8560 C   0  0  0  0  0  0  0  0  0  0  0  0
   -2.0900   24.2020  -29.1420 C   0  0  0  0  0  0  0  0  0  0  0  0
   -5.2040   23.6800  -31.2060 C   0  0  0  0  0  0  0  0  0  0  0  0
   -5.6650   22.5960  -32.1860 C   0  0  0  0  0  0  0  0  0  0  0  0
   -9.7056   23.7106  -31.4013 H   0  0  0  0  0  0  0  0  0  0  0  0
   -8.3573   23.4297  -32.5545 H   0  0  0  0  0  0  0  0  0  0  0  0
   -9.7819   22.3355  -32.5545 H   0  0  0  0  0  0  0  0  0  0  0  0
   -7.5093   22.5404  -30.5487 H   0  0  0  0  0  0  0  0  0  0  0  0
   -9.1189   21.8760  -30.0619 H   0  0  0  0  0  0  0  0  0  0  0  0
  -10.1357   20.0511  -31.5617 H   0  0  0  0  0  0  0  0  0  0  0  0
   -9.6083   17.8437  -32.5877 H   0  0  0  0  0  0  0  0  0  0  0  0
   -7.2455   17.2443  -33.1236 H   0  0  0  0  0  0  0  0  0  0  0  0
   -5.4082   18.8541  -32.6370 H   0  0  0  0  0  0  0  0  0  0  0  0
   -4.4982   21.1059  -29.8026 H   0  0  0  0  0  0  0  0  0  0  0  0
   -4.5350   19.6413  -30.8991 H   0  0  0  0  0  0  0  0  0  0  0  0
   -2.3224   20.7219  -30.8510 H   0  0  0  0  0  0  0  0  0  0  0  0
   -3.1416   20.7602  -32.4970 H   0  0  0  0  0  0  0  0  0  0  0  0
   -1.8653   22.8898  -31.2614 H   0  0  0  0  0  0  0  0  0  0  0  0
   -3.0729   22.9503  -32.6287 H   0  0  0  0  0  0  0  0  0  0  0  0
   -5.4251   23.6643  -28.5849 H   0  0  0  0  0  0  0  0  0  0  0  0
   -4.7459   24.3823  -26.2959 H   0  0  0  0  0  0  0  0  0  0  0  0
   -2.3698   24.9865  -25.8266 H   0  0  0  0  0  0  0  0  0  0  0  0
   -0.6678   24.8670  -27.6468 H   0  0  0  0  0  0  0  0  0  0  0  0
   -1.3347   24.1488  -29.9399 H   0  0  0  0  0  0  0  0  0  0  0  0
   -5.8693   23.6725  -30.3300 H   0  0  0  0  0  0  0  0  0  0  0  0
   -5.2427   24.6475  -31.7280 H   0  0  0  0  0  0  0  0  0  0  0  0
   -6.6880   22.8240  -32.5199 H   0  0  0  0  0  0  0  0  0  0  0  0
   -4.9752   22.5808  -33.0427 H   0  0  0  0  0  0  0  0  0  0  0  0
  1  2  1  0
  2  3  1  0
  3  4  2  0
  4  5  1  0
  5  6  2  0
  6  7  1  0
  7  8  2  0
  8  9  1  0
  9 10  1  0
 10 11  1  0
 11 12  1  0
 12 13  1  0
 13 14  1  0
 14 15  2  0
 15 16  1  0
 16 17  2  0
 17 18  1  0
 18 19  2  0
 13 20  1  0
 20 21  1  0
  8  3  1  0
 21  9  1  0
 19 14  1  0
  1 22  1  0
  1 23  1  0
  1 24  1  0
  2 25  1  0
  2 26  1  0
  4 27  1  0
  5 28  1  0
  6 29  1  0
  7 30  1  0
 10 31  1  0
 10 32  1  0
 11 33  1  0
 11 34  1  0
 12 35  1  0
 12 36  1  0
 15 37  1  0
 16 38  1  0
 17 39  1  0
 18 40  1  0
 19 41  1  0
 20 42  1  0
 20 43  1  0
 21 44  1  0
 21 45  1  0
M  END
>  <UniqueID>  (33) 
32

>  <SMILES>  (33) 
CCc1ccccc1N1CCCN(c2ccccc2)CC1

>  <Energy>  (33) 
57.31638961230153

>  <Genealogy>  (33) 
CCc1ccccc1N1CCCN(c2ccccc2)CC1 (3D coordinates assigned)
CCc1ccccc1N1CCCN(c2ccccc2)CC1 (nonaromatic ring conformer: 57.31638961230153 kcal/mol)

>  <smiles>  (33) 
CCc1ccccc1N1CCCN(c2ccccc2)CC1

>  <score_type>  (33) 
oracle

>  <origin>  (33) 
adg

>  <m_score__min__energy>  (33) 
-6.0499999999999998

>  <m_primary>  (33) 
energy

$$$$
33:0
     RDKit          3D

 36 37  0  0  0  0  0  0  0  0999 V2000
   -3.8860   24.2190  -27.2560 C   0  0  0  0  0  0  0  0  0  0  0  0
   -2.8130   23.9270  -28.2990 C   0  0  0  0  0  0  0  0  0  0  0  0
   -3.4100   23.2920  -29.4850 N   0  0  0  0  0  0  0  0  0  0  0  0
   -3.4990   21.9300  -29.5380 C   0  0  0  0  0  0  0  0  0  0  0  0
   -4.0750   21.2990  -30.6380 C   0  0  0  0  0  0  0  0  0  0  0  0
   -4.5610   22.0830  -31.6910 C   0  0  0  0  0  0  0  0  0  0  0  0
   -5.1890   21.4470  -32.8310 N   0  0  1  0  0  0  0  0  0  0  0  0
   -4.6920   20.1480  -33.1570 C   0  0  0  0  0  0  0  0  0  0  0  0
   -3.4680   19.8460  -33.1400 O   0  0  0  0  0  0  0  0  0  0  0  0
   -5.6560   19.2920  -33.6380 O   0  0  0  0  0  0  0  0  0  0  0  0
   -6.8940   19.9740  -33.6750 C   0  0  0  0  0  0  0  0  0  0  0  0
   -6.6640   21.2210  -32.7820 C   0  0  1  0  0  0  0  0  0  0  0  0
   -7.3350   20.9960  -31.3740 C   0  0  0  0  0  0  0  0  0  0  0  0
   -8.5150   20.0120  -31.3840 C   0  0  0  0  0  0  0  0  0  0  0  0
   -7.6860   22.2770  -30.5950 C   0  0  0  0  0  0  0  0  0  0  0  0
   -4.4860   23.4380  -31.5870 N   0  0  0  0  0  0  0  0  0  0  0  0
   -3.9220   24.0450  -30.5110 C   0  0  0  0  0  0  0  0  0  0  0  0
   -3.8820   25.3040  -30.4700 O   0  0  0  0  0  0  0  0  0  0  0  0
   -3.4595   24.1029  -26.2487 H   0  0  0  0  0  0  0  0  0  0  0  0
   -4.2505   25.2490  -27.3834 H   0  0  0  0  0  0  0  0  0  0  0  0
   -4.7222   23.5157  -27.3834 H   0  0  0  0  0  0  0  0  0  0  0  0
   -2.3307   24.8698  -28.5967 H   0  0  0  0  0  0  0  0  0  0  0  0
   -2.0693   23.2430  -27.8642 H   0  0  0  0  0  0  0  0  0  0  0  0
   -3.1121   21.3259  -28.7041 H   0  0  0  0  0  0  0  0  0  0  0  0
   -4.1469   20.2021  -30.6787 H   0  0  0  0  0  0  0  0  0  0  0  0
   -4.9860   22.0380  -33.6720 H   0  0  0  0  0  0  0  0  0  0  0  0
   -7.1458   20.2712  -34.7037 H   0  0  0  0  0  0  0  0  0  0  0  0
   -7.7303   19.3514  -33.3244 H   0  0  0  0  0  0  0  0  0  0  0  0
   -7.1478   22.1510  -33.1151 H   0  0  0  0  0  0  0  0  0  0  0  0
   -6.5200   20.5181  -30.8106 H   0  0  0  0  0  0  0  0  0  0  0  0
   -8.8018   19.7729  -30.3493 H   0  0  0  0  0  0  0  0  0  0  0  0
   -9.3692   20.4691  -31.9049 H   0  0  0  0  0  0  0  0  0  0  0  0
   -8.2188   19.0896  -31.9049 H   0  0  0  0  0  0  0  0  0  0  0  0
   -7.6309   22.0760  -29.5149 H   0  0  0  0  0  0  0  0  0  0  0  0
   -6.9727   23.0724  -30.8568 H   0  0  0  0  0  0  0  0  0  0  0  0
   -8.7051   22.5977  -30.8568 H   0  0  0  0  0  0  0  0  0  0  0  0
  1  2  1  0
  2  3  1  0
  3  4  1  0
  4  5  2  0
  5  6  1  0
  6  7  1  0
  7  8  1  0
  8  9  2  0
  8 10  1  0
 10 11  1  0
 11 12  1  0
 12 13  1  0
 13 14  1  0
 13 15  1  0
  6 16  2  0
 16 17  1  0
 17 18  2  0
 17  3  1  0
 12  7  1  0
  1 19  1  0
  1 20  1  0
  1 21  1  0
  2 22  1  0
  2 23  1  0
  4 24  1  0
  5 25  1  0
  7 26  1  6
 11 27  1  0
 11 28  1  0
 12 29  1  6
 13 30  1  0
 14 31  1  0
 14 32  1  0
 14 33  1  0
 15 34  1  0
 15 35  1  0
 15 36  1  0
M  CHG  1   7   1
M  END
>  <UniqueID>  (34) 
33

>  <SMILES>  (34) 
CCn1ccc([N@H+]2C(=O)OC[C@H]2C(C)C)nc1=O

>  <Energy>  (34) 
59.47513288574193

>  <Genealogy>  (34) 
CCn1ccc([NH+]2C(=O)OCC2C(C)C)nc1=O (protonated)
CCn1ccc([N@H+]2C(=O)OC[C@H]2C(C)C)nc1=O (chirality)
CCn1ccc([N@H+]2C(=O)OC[C@H]2C(C)C)nc1=O (3D coordinates assigned)
CCn1ccc([N@H+]2C(=O)OC[C@H]2C(C)C)nc1=O (nonaromatic ring conformer: 59.47513288574193 kcal/mol)

>  <smiles>  (34) 
CCn1ccc(N2C(=O)OCC2C(C)C)nc1=O

>  <score_type>  (34) 
oracle

>  <origin>  (34) 
adg

>  <m_score__min__energy>  (34) 
-6.3200000000000003

>  <m_primary>  (34) 
energy

$$$$
34:0
     RDKit          3D

 59 62  0  0  0  0  0  0  0  0999 V2000
   -9.8320   21.1670  -31.7270 C   0  0  0  0  0  0  0  0  0  0  0  0
   -8.5080   20.6110  -32.1860 C   0  0  0  0  0  0  0  0  0  0  0  0
   -8.3780   19.2610  -32.3250 N   0  0  0  0  0  0  0  0  0  0  0  0
   -7.2030   18.7300  -32.7370 C   0  0  0  0  0  0  0  0  0  0  0  0
   -6.9050   17.0930  -32.9590 S   0  0  0  0  0  0  0  0  0  0  0  0
   -5.3110   17.3570  -33.4380 C   0  0  0  0  0  0  0  0  0  0  0  0
   -5.0530   18.7320  -33.4130 C   0  0  0  0  0  0  0  0  0  0  0  0
   -3.7120   19.2850  -33.8060 C   0  0  0  0  0  0  0  0  0  0  0  0
   -6.1250   19.4970  -33.0160 N   0  0  0  0  0  0  0  0  0  0  0  0
   -6.1860   20.8570  -32.8750 C   0  0  0  0  0  0  0  0  0  0  0  0
   -5.1790   21.5760  -33.1170 O   0  0  0  0  0  0  0  0  0  0  0  0
   -7.3960   21.4570  -32.4530 C   0  0  0  0  0  0  0  0  0  0  0  0
   -7.4910   22.9680  -32.3200 C   0  0  0  0  0  0  0  0  0  0  0  0
   -6.2250   23.5610  -31.6860 C   0  0  0  0  0  0  0  0  0  0  0  0
   -6.1580   23.2270  -30.2440 N   0  0  0  0  0  0  0  0  0  0  0  0
   -7.4600   22.7350  -29.7590 C   0  0  0  0  0  0  0  0  0  0  0  0
   -5.7100   24.3770  -29.4320 C   0  0  0  0  0  0  0  0  0  0  0  0
   -4.9540   25.3930  -30.3080 C   0  0  0  0  0  0  0  0  0  0  0  0
   -3.5880   25.0080  -30.4820 O   0  0  0  0  0  0  0  0  0  0  0  0
   -3.0850   23.7020  -30.3380 C   0  0  0  0  0  0  0  0  0  0  0  0
   -3.2480   22.7260  -31.3410 C   0  0  0  0  0  0  0  0  0  0  0  0
   -2.6620   21.4660  -31.2060 C   0  0  0  0  0  0  0  0  0  0  0  0
   -1.9110   21.1640  -30.0710 C   0  0  0  0  0  0  0  0  0  0  0  0
   -1.7650   22.1090  -29.0550 C   0  0  0  0  0  0  0  0  0  0  0  0
   -2.3610   23.3750  -29.1690 C   0  0  0  0  0  0  0  0  0  0  0  0
   -2.2270   24.3460  -28.0580 C   0  0  0  0  0  0  0  0  0  0  0  0
   -3.1880   24.3960  -27.0340 C   0  0  0  0  0  0  0  0  0  0  0  0
   -3.0470   25.2980  -25.9760 C   0  0  0  0  0  0  0  0  0  0  0  0
   -1.9480   26.1620  -25.9320 C   0  0  0  0  0  0  0  0  0  0  0  0
   -0.9830   26.1150  -26.9410 C   0  0  0  0  0  0  0  0  0  0  0  0
   -1.1190   25.2100  -27.9990 C   0  0  0  0  0  0  0  0  0  0  0  0
   -9.8629   21.1800  -30.6275 H   0  0  0  0  0  0  0  0  0  0  0  0
   -9.9518   22.1914  -32.1093 H   0  0  0  0  0  0  0  0  0  0  0  0
  -10.6473   20.5353  -32.1093 H   0  0  0  0  0  0  0  0  0  0  0  0
   -9.1790   18.6210  -32.1140 H   0  0  0  0  0  0  0  0  0  0  0  0
   -4.5910   16.5760  -33.7236 H   0  0  0  0  0  0  0  0  0  0  0  0
   -3.1341   19.5233  -32.9009 H   0  0  0  0  0  0  0  0  0  0  0  0
   -3.1678   18.5379  -34.4024 H   0  0  0  0  0  0  0  0  0  0  0  0
   -3.8526   20.1985  -34.4024 H   0  0  0  0  0  0  0  0  0  0  0  0
   -7.6284   23.4062  -33.3195 H   0  0  0  0  0  0  0  0  0  0  0  0
   -8.3446   23.2026  -31.6670 H   0  0  0  0  0  0  0  0  0  0  0  0
   -5.3400   23.1500  -32.1937 H   0  0  0  0  0  0  0  0  0  0  0  0
   -6.2528   24.6552  -31.7955 H   0  0  0  0  0  0  0  0  0  0  0  0
   -7.4647   22.7332  -28.6590 H   0  0  0  0  0  0  0  0  0  0  0  0
   -8.2610   23.3925  -30.1280 H   0  0  0  0  0  0  0  0  0  0  0  0
   -7.6260   21.7121  -30.1280 H   0  0  0  0  0  0  0  0  0  0  0  0
   -6.5868   24.8672  -28.9836 H   0  0  0  0  0  0  0  0  0  0  0  0
   -5.0342   24.0143  -28.6435 H   0  0  0  0  0  0  0  0  0  0  0  0
   -5.4396   25.4490  -31.2934 H   0  0  0  0  0  0  0  0  0  0  0  0
   -4.9796   26.3723  -29.8077 H   0  0  0  0  0  0  0  0  0  0  0  0
   -3.8416   22.9586  -32.2374 H   0  0  0  0  0  0  0  0  0  0  0  0
   -2.7929   20.7113  -31.9955 H   0  0  0  0  0  0  0  0  0  0  0  0
   -1.4323   20.1782  -29.9762 H   0  0  0  0  0  0  0  0  0  0  0  0
   -1.1787   21.8603  -28.1581 H   0  0  0  0  0  0  0  0  0  0  0  0
   -4.0562   23.7213  -27.0654 H   0  0  0  0  0  0  0  0  0  0  0  0
   -3.8017   25.3286  -25.1763 H   0  0  0  0  0  0  0  0  0  0  0  0
   -1.8436   26.8780  -25.1035 H   0  0  0  0  0  0  0  0  0  0  0  0
   -0.1154   26.7902  -26.9035 H   0  0  0  0  0  0  0  0  0  0  0  0
   -0.3548   25.1740  -28.7894 H   0  0  0  0  0  0  0  0  0  0  0  0
  1  2  1  0
  2  3  1  0
  3  4  2  0
  4  5  1  0
  5  6  1  0
  6  7  2  0
  7  8  1  0
  7  9  1  0
  9 10  1  0
 10 11  2  0
 10 12  1  0
 12 13  1  0
 13 14  1  0
 14 15  1  0
 15 16  1  0
 15 17  1  0
 17 18  1  0
 18 19  1  0
 19 20  1  0
 20 21  2  0
 21 22  1  0
 22 23  2  0
 23 24  1  0
 24 25  2  0
 25 26  1  0
 26 27  2  0
 27 28  1  0
 28 29  2  0
 29 30  1  0
 30 31  2  0
 12  2  2  0
 25 20  1  0
 31 26  1  0
  9  4  1  0
  1 32  1  0
  1 33  1  0
  1 34  1  0
  3 35  1  0
  6 36  1  0
  8 37  1  0
  8 38  1  0
  8 39  1  0
 13 40  1  0
 13 41  1  0
 14 42  1  0
 14 43  1  0
 16 44  1  0
 16 45  1  0
 16 46  1  0
 17 47  1  0
 17 48  1  0
 18 49  1  0
 18 50  1  0
 21 51  1  0
 22 52  1  0
 23 53  1  0
 24 54  1  0
 27 55  1  0
 28 56  1  0
 29 57  1  0
 30 58  1  0
 31 59  1  0
M  CHG  1   3   1
M  END
>  <UniqueID>  (35) 
34

>  <SMILES>  (35) 
Cc1[nH+]c2scc(C)n2c(=O)c1CCN(C)CCOc1ccccc1-c1ccccc1

>  <Energy>  (35) 
104.17515227330435

>  <Genealogy>  (35) 
Cc1[nH+]c2scc(C)n2c(=O)c1CCN(C)CCOc1ccccc1-c1ccccc1 (protonated)
Cc1[nH+]c2scc(C)n2c(=O)c1CCN(C)CCOc1ccccc1-c1ccccc1 (3D coordinates assigned)
Cc1[nH+]c2scc(C)n2c(=O)c1CCN(C)CCOc1ccccc1-c1ccccc1 (optimized conformer: 104.17515227330435 kcal/mol)

>  <smiles>  (35) 
Cc1nc2scc(C)n2c(=O)c1CCN(C)CCOc1ccccc1-c1ccccc1

>  <score_type>  (35) 
oracle

>  <origin>  (35) 
adg

>  <m_score__min__energy>  (35) 
-9.8599999999999994

>  <m_primary>  (35) 
energy

$$$$
35:0
     RDKit          3D

 48 50  0  0  0  0  0  0  0  0999 V2000
   -5.0280   17.3020  -34.5890 C   0  0  0  0  0  0  0  0  0  0  0  0
   -6.1070   17.0690  -33.6910 O   0  0  0  0  0  0  0  0  0  0  0  0
   -6.8490   18.0830  -33.0650 C   0  0  0  0  0  0  0  0  0  0  0  0
   -7.9910   17.8120  -32.2860 C   0  0  0  0  0  0  0  0  0  0  0  0
   -8.6770   18.8570  -31.6610 C   0  0  0  0  0  0  0  0  0  0  0  0
   -8.2390   20.1750  -31.8080 C   0  0  0  0  0  0  0  0  0  0  0  0
   -7.1120   20.4620  -32.5970 C   0  0  0  0  0  0  0  0  0  0  0  0
   -6.5840   21.8700  -32.6950 C   0  0  0  0  0  0  0  0  0  0  0  0
   -6.6000   22.4910  -31.3660 N   0  0  0  0  0  0  0  0  0  0  0  0
   -7.2470   23.8070  -31.4130 C   0  0  0  0  0  0  0  0  0  0  0  0
   -7.1560   24.5220  -30.0550 C   0  0  0  0  0  0  0  0  0  0  0  0
   -5.8780   25.3730  -29.8960 C   0  0  0  0  0  0  0  0  0  0  0  0
   -5.0140   24.8610  -28.8120 N   0  0  0  0  0  0  0  0  0  0  0  0
   -3.9300   24.0890  -29.3550 C   0  0  0  0  0  0  0  0  0  0  0  0
   -2.6660   24.0960  -28.7440 C   0  0  0  0  0  0  0  0  0  0  0  0
   -1.6180   23.3600  -29.3070 C   0  0  0  0  0  0  0  0  0  0  0  0
   -0.4860   23.3700  -28.7510 O   0  0  0  0  0  0  0  0  0  0  0  0
   -1.8390   22.6200  -30.4850 C   0  0  0  0  0  0  0  0  0  0  0  0
   -0.8210   21.8640  -31.0940 C   0  0  0  0  0  0  0  0  0  0  0  0
   -1.0860   21.1430  -32.2620 C   0  0  0  0  0  0  0  0  0  0  0  0
   -2.3610   21.1730  -32.8350 C   0  0  0  0  0  0  0  0  0  0  0  0
   -3.3790   21.9270  -32.2430 C   0  0  0  0  0  0  0  0  0  0  0  0
   -3.1260   22.6490  -31.0730 C   0  0  0  0  0  0  0  0  0  0  0  0
   -4.1180   23.3780  -30.5000 N   0  0  0  0  0  0  0  0  0  0  0  0
   -6.4200   19.4090  -33.2160 C   0  0  0  0  0  0  0  0  0  0  0  0
   -4.1103   17.5002  -34.0159 H   0  0  0  0  0  0  0  0  0  0  0  0
   -4.8803   16.4151  -35.2226 H   0  0  0  0  0  0  0  0  0  0  0  0
   -5.2594   18.1709  -35.2226 H   0  0  0  0  0  0  0  0  0  0  0  0
   -8.3433   16.7765  -32.1695 H   0  0  0  0  0  0  0  0  0  0  0  0
   -9.5660   18.6404  -31.0505 H   0  0  0  0  0  0  0  0  0  0  0  0
   -8.7779   20.9911  -31.3045 H   0  0  0  0  0  0  0  0  0  0  0  0
   -5.5530   21.8493  -33.0778 H   0  0  0  0  0  0  0  0  0  0  0  0
   -7.2174   22.4527  -33.3800 H   0  0  0  0  0  0  0  0  0  0  0  0
   -5.6020   22.6430  -31.0870 H   0  0  0  0  0  0  0  0  0  0  0  0
   -6.7504   24.4235  -32.1767 H   0  0  0  0  0  0  0  0  0  0  0  0
   -8.3093   23.6634  -31.6597 H   0  0  0  0  0  0  0  0  0  0  0  0
   -8.0299   25.1816  -29.9487 H   0  0  0  0  0  0  0  0  0  0  0  0
   -7.1268   23.7432  -29.2787 H   0  0  0  0  0  0  0  0  0  0  0  0
   -5.3153   25.3518  -30.8410 H   0  0  0  0  0  0  0  0  0  0  0  0
   -6.1784   26.3998  -29.6402 H   0  0  0  0  0  0  0  0  0  0  0  0
   -4.6320   25.6660  -28.2610 H   0  0  0  0  0  0  0  0  0  0  0  0
   -5.5520   24.2580  -28.1510 H   0  0  0  0  0  0  0  0  0  0  0  0
   -2.5003   24.6783  -27.8256 H   0  0  0  0  0  0  0  0  0  0  0  0
    0.1853   21.8401  -30.6504 H   0  0  0  0  0  0  0  0  0  0  0  0
   -0.2881   20.5496  -32.7322 H   0  0  0  0  0  0  0  0  0  0  0  0
   -2.5637   20.6023  -33.7533 H   0  0  0  0  0  0  0  0  0  0  0  0
   -4.3800   21.9520  -32.6984 H   0  0  0  0  0  0  0  0  0  0  0  0
   -5.5312   19.6269  -33.8264 H   0  0  0  0  0  0  0  0  0  0  0  0
  1  2  1  0
  2  3  1  0
  3  4  2  0
  4  5  1  0
  5  6  2  0
  6  7  1  0
  7  8  1  0
  8  9  1  0
  9 10  1  0
 10 11  1  0
 11 12  1  0
 12 13  1  0
 13 14  1  0
 14 15  2  0
 15 16  1  0
 16 17  2  0
 16 18  1  0
 18 19  2  0
 19 20  1  0
 20 21  2  0
 21 22  1  0
 22 23  2  0
 23 24  1  0
  7 25  2  0
 25  3  1  0
 24 14  1  0
 23 18  1  0
  1 26  1  0
  1 27  1  0
  1 28  1  0
  4 29  1  0
  5 30  1  0
  6 31  1  0
  8 32  1  0
  8 33  1  0
  9 34  1  0
 10 35  1  0
 10 36  1  0
 11 37  1  0
 11 38  1  0
 12 39  1  0
 12 40  1  0
 13 41  1  0
 13 42  1  0
 15 43  1  0
 19 44  1  0
 20 45  1  0
 21 46  1  0
 22 47  1  0
 25 48  1  0
M  CHG  2  13   1  24  -1
M  END
>  <UniqueID>  (36) 
35

>  <SMILES>  (36) 
COc1cccc(CNCCC[NH2+]c2cc(=O)c3ccccc3[n-]2)c1

>  <Energy>  (36) 
50.51540818886172

>  <Genealogy>  (36) 
COc1cccc(CNCCC[NH2+]c2cc(=O)c3ccccc3[n-]2)c1 (protonated)
COc1cccc(CNCCC[NH2+]c2cc(=O)c3ccccc3[n-]2)c1 (3D coordinates assigned)
COc1cccc(CNCCC[NH2+]c2cc(=O)c3ccccc3[n-]2)c1 (optimized conformer: 50.51540818886172 kcal/mol)

>  <smiles>  (36) 
COc1cccc(CNCCCNc2cc(=O)c3ccccc3[nH]2)c1

>  <score_type>  (36) 
oracle

>  <origin>  (36) 
adg

>  <m_score__min__energy>  (36) 
-8.3000000000000007

>  <m_primary>  (36) 
energy

$$$$
36:0
     RDKit          3D

 36 37  0  0  0  0  0  0  0  0999 V2000
   -9.1290   21.8720  -31.1650 C   0  0  0  0  0  0  0  0  0  0  0  0
   -8.0890   21.0810  -31.9090 C   0  0  0  0  0  0  0  0  0  0  0  0
   -8.4010   19.8080  -32.4100 C   0  0  0  0  0  0  0  0  0  0  0  0
   -7.4350   19.0580  -33.0810 C   0  0  0  0  0  0  0  0  0  0  0  0
   -6.1470   19.5650  -33.2650 C   0  0  0  0  0  0  0  0  0  0  0  0
   -5.8110   20.8430  -32.7800 C   0  0  0  0  0  0  0  0  0  0  0  0
   -4.5210   21.3990  -32.9340 C   0  0  0  0  0  0  0  0  0  0  0  0
   -3.4980   20.7230  -33.6850 N   0  0  0  0  0  0  0  0  0  0  0  0
   -3.0450   19.3660  -33.3750 C   0  0  0  0  0  0  0  0  0  0  0  0
   -1.6080   19.1570  -33.8590 C   0  0  0  0  0  0  0  0  0  0  0  0
   -1.0290   20.4300  -34.3400 N   0  0  0  0  0  0  0  0  0  0  0  0
   -0.4110   21.1810  -33.2330 C   0  0  0  0  0  0  0  0  0  0  0  0
   -0.0240   20.1810  -35.3860 C   0  0  0  0  0  0  0  0  0  0  0  0
   -4.2650   22.6630  -32.3850 C   0  0  0  0  0  0  0  0  0  0  0  0
   -5.2820   23.3370  -31.7070 C   0  0  0  0  0  0  0  0  0  0  0  0
   -5.0600   24.4740  -31.2140 O   0  0  0  0  0  0  0  0  0  0  0  0
   -6.4840   22.7920  -31.5830 O   0  0  0  0  0  0  0  0  0  0  0  0
   -6.7900   21.5960  -32.0810 C   0  0  0  0  0  0  0  0  0  0  0  0
   -8.9742   21.7542  -30.0823 H   0  0  0  0  0  0  0  0  0  0  0  0
   -9.0431   22.9351  -31.4342 H   0  0  0  0  0  0  0  0  0  0  0  0
  -10.1306   21.5054  -31.4342 H   0  0  0  0  0  0  0  0  0  0  0  0
   -9.4130   19.3992  -32.2729 H   0  0  0  0  0  0  0  0  0  0  0  0
   -7.6897   18.0603  -33.4679 H   0  0  0  0  0  0  0  0  0  0  0  0
   -5.3916   18.9630  -33.7913 H   0  0  0  0  0  0  0  0  0  0  0  0
   -3.1080   21.1760  -34.5430 H   0  0  0  0  0  0  0  0  0  0  0  0
   -3.0868   19.2101  -32.2869 H   0  0  0  0  0  0  0  0  0  0  0  0
   -3.7010   18.6463  -33.8866 H   0  0  0  0  0  0  0  0  0  0  0  0
   -0.9986   18.7745  -33.0269 H   0  0  0  0  0  0  0  0  0  0  0  0
   -1.6155   18.4354  -34.6892 H   0  0  0  0  0  0  0  0  0  0  0  0
   -0.7523   20.7663  -32.2730 H   0  0  0  0  0  0  0  0  0  0  0  0
    0.6838   21.0980  -33.2998 H   0  0  0  0  0  0  0  0  0  0  0  0
   -0.7032   22.2394  -33.2998 H   0  0  0  0  0  0  0  0  0  0  0  0
    0.9418   19.9417  -34.9170 H   0  0  0  0  0  0  0  0  0  0  0  0
   -0.3473   19.3358  -36.0114 H   0  0  0  0  0  0  0  0  0  0  0  0
    0.0847   21.0794  -36.0114 H   0  0  0  0  0  0  0  0  0  0  0  0
   -3.2699   23.1204  -32.4877 H   0  0  0  0  0  0  0  0  0  0  0  0
  1  2  1  0
  2  3  2  0
  3  4  1  0
  4  5  2  0
  5  6  1  0
  6  7  1  0
  7  8  1  0
  8  9  1  0
  9 10  1  0
 10 11  1  0
 11 12  1  0
 11 13  1  0
  7 14  2  0
 14 15  1  0
 15 16  2  0
 15 17  1  0
 17 18  1  0
 18  2  1  0
 18  6  2  0
  1 19  1  0
  1 20  1  0
  1 21  1  0
  3 22  1  0
  4 23  1  0
  5 24  1  0
  8 25  1  0
  9 26  1  0
  9 27  1  0
 10 28  1  0
 10 29  1  0
 12 30  1  0
 12 31  1  0
 12 32  1  0
 13 33  1  0
 13 34  1  0
 13 35  1  0
 14 36  1  0
M  END
>  <UniqueID>  (37) 
36

>  <SMILES>  (37) 
Cc1cccc2c(NCCN(C)C)cc(=O)oc12

>  <Energy>  (37) 
42.554513066170685

>  <Genealogy>  (37) 
Cc1cccc2c(NCCN(C)C)cc(=O)oc12 (3D coordinates assigned)
Cc1cccc2c(NCCN(C)C)cc(=O)oc12 (optimized conformer: 42.554513066170685 kcal/mol)

>  <smiles>  (37) 
Cc1cccc2c(NCCN(C)C)cc(=O)oc12

>  <score_type>  (37) 
oracle

>  <origin>  (37) 
adg

>  <m_score__min__energy>  (37) 
-6.9299999999999997

>  <m_primary>  (37) 
energy

$$$$
37:0
     RDKit          3D

 27 28  0  0  0  0  0  0  0  0999 V2000
   -4.1180   24.1440  -28.2690 C   0  0  0  0  0  0  0  0  0  0  0  0
   -3.1740   24.3410  -29.4500 C   0  0  0  0  0  0  0  0  0  0  0  0
   -3.7730   25.1720  -30.4420 O   0  0  0  0  0  0  0  0  0  0  0  0
   -5.1570   25.3010  -30.6050 C   0  0  0  0  0  0  0  0  0  0  0  0
   -5.7360   26.3940  -30.3600 O   0  0  0  0  0  0  0  0  0  0  0  0
   -5.9380   24.1450  -31.0580 C   0  0  0  0  0  0  0  0  0  0  0  0
   -5.4350   22.9240  -31.4580 C   0  0  0  0  0  0  0  0  0  0  0  0
   -6.5670   22.1960  -31.7790 C   0  0  0  0  0  0  0  0  0  0  0  0
   -6.6330   20.8030  -32.2730 C   0  0  0  0  0  0  0  0  0  0  0  0
   -5.6160   20.3140  -33.1120 C   0  0  0  0  0  0  0  0  0  0  0  0
   -5.6610   19.0000  -33.5900 C   0  0  0  0  0  0  0  0  0  0  0  0
   -6.7210   18.1600  -33.2370 C   0  0  0  0  0  0  0  0  0  0  0  0
   -6.7740   16.5140  -33.8370 Cl  0  0  0  0  0  0  0  0  0  0  0  0
   -7.7370   18.6360  -32.4040 C   0  0  0  0  0  0  0  0  0  0  0  0
   -7.6960   19.9480  -31.9230 C   0  0  0  0  0  0  0  0  0  0  0  0
   -7.6220   22.9540  -31.5730 O   0  0  0  0  0  0  0  0  0  0  0  0
   -7.2820   24.1330  -31.1380 N   0  0  0  0  0  0  0  0  0  0  0  0
   -3.5586   24.2607  -27.3291 H   0  0  0  0  0  0  0  0  0  0  0  0
   -4.9217   24.8938  -28.3130 H   0  0  0  0  0  0  0  0  0  0  0  0
   -4.5547   23.1354  -28.3130 H   0  0  0  0  0  0  0  0  0  0  0  0
   -2.2462   24.8137  -29.0955 H   0  0  0  0  0  0  0  0  0  0  0  0
   -2.9565   23.3593  -29.8960 H   0  0  0  0  0  0  0  0  0  0  0  0
   -4.3835   22.6050  -31.5095 H   0  0  0  0  0  0  0  0  0  0  0  0
   -4.7790   20.9694  -33.3945 H   0  0  0  0  0  0  0  0  0  0  0  0
   -4.8602   18.6269  -34.2453 H   0  0  0  0  0  0  0  0  0  0  0  0
   -8.5719   17.9761  -32.1258 H   0  0  0  0  0  0  0  0  0  0  0  0
   -8.4991   20.3149  -31.2670 H   0  0  0  0  0  0  0  0  0  0  0  0
  1  2  1  0
  2  3  1  0
  3  4  1  0
  4  5  2  0
  4  6  1  0
  6  7  1  0
  7  8  2  0
  8  9  1  0
  9 10  2  0
 10 11  1  0
 11 12  2  0
 12 13  1  0
 12 14  1  0
 14 15  2  0
  8 16  1  0
 16 17  1  0
 17  6  2  0
 15  9  1  0
  1 18  1  0
  1 19  1  0
  1 20  1  0
  2 21  1  0
  2 22  1  0
  7 23  1  0
 10 24  1  0
 11 25  1  0
 14 26  1  0
 15 27  1  0
M  END
>  <UniqueID>  (38) 
37

>  <SMILES>  (38) 
CCOC(=O)c1cc(-c2ccc(Cl)cc2)on1

>  <Energy>  (38) 
53.489330991832055

>  <Genealogy>  (38) 
CCOC(=O)c1cc(-c2ccc(Cl)cc2)on1 (3D coordinates assigned)
CCOC(=O)c1cc(-c2ccc(Cl)cc2)on1 (optimized conformer: 53.489330991832055 kcal/mol)

>  <smiles>  (38) 
CCOC(=O)c1cc(-c2ccc(Cl)cc2)on1

>  <score_type>  (38) 
oracle

>  <origin>  (38) 
adg

>  <m_score__min__energy>  (38) 
-7.54

>  <m_primary>  (38) 
energy

$$$$
38:0
     RDKit          3D

 32 34  0  0  0  0  0  0  0  0999 V2000
   -8.7970   20.3620  -31.9750 C   0  0  0  0  0  0  0  0  0  0  0  0
   -8.1820   21.6410  -32.1020 O   0  0  0  0  0  0  0  0  0  0  0  0
   -7.0030   22.0220  -31.4430 C   0  0  0  0  0  0  0  0  0  0  0  0
   -5.7770   21.6420  -32.0020 C   0  0  0  0  0  0  0  0  0  0  0  0
   -4.5750   21.9980  -31.3830 C   0  0  0  0  0  0  0  0  0  0  0  0
   -4.5880   22.7370  -30.1920 C   0  0  0  0  0  0  0  0  0  0  0  0
   -3.3490   23.1020  -29.5530 N   0  0  0  0  0  0  0  0  0  0  0  0
   -2.8750   24.3780  -29.7210 C   0  0  0  0  0  0  0  0  0  0  0  0
   -3.5230   25.2100  -30.4180 O   0  0  0  0  0  0  0  0  0  0  0  0
   -1.7030   24.7640  -29.1450 N   0  0  0  0  0  0  0  0  0  0  0  0
   -1.2490   26.0520  -29.3310 O   0  0  0  0  0  0  0  0  0  0  0  0
   -0.9700   23.9000  -28.3930 C   0  0  0  0  0  0  0  0  0  0  0  0
    0.1140   24.2890  -27.8760 O   0  0  0  0  0  0  0  0  0  0  0  0
   -1.4220   22.5880  -28.1950 C   0  0  0  0  0  0  0  0  0  0  0  0
   -0.6920   21.6680  -27.4180 C   0  0  0  0  0  0  0  0  0  0  0  0
   -1.1680   20.3700  -27.2300 C   0  0  0  0  0  0  0  0  0  0  0  0
   -2.3730   19.9770  -27.8090 C   0  0  0  0  0  0  0  0  0  0  0  0
   -3.1090   20.8760  -28.5830 C   0  0  0  0  0  0  0  0  0  0  0  0
   -2.6440   22.1960  -28.7940 C   0  0  0  0  0  0  0  0  0  0  0  0
   -5.8110   23.1220  -29.6290 C   0  0  0  0  0  0  0  0  0  0  0  0
   -7.0130   22.7680  -30.2480 C   0  0  0  0  0  0  0  0  0  0  0  0
   -8.9152   20.1162  -30.9094 H   0  0  0  0  0  0  0  0  0  0  0  0
   -9.7847   20.3804  -32.4588 H   0  0  0  0  0  0  0  0  0  0  0  0
   -8.1659   19.6020  -32.4588 H   0  0  0  0  0  0  0  0  0  0  0  0
   -5.7593   21.0592  -32.9348 H   0  0  0  0  0  0  0  0  0  0  0  0
   -3.6167   21.6974  -31.8317 H   0  0  0  0  0  0  0  0  0  0  0  0
    0.2585   21.9743  -26.9568 H   0  0  0  0  0  0  0  0  0  0  0  0
   -0.5912   19.6559  -26.6239 H   0  0  0  0  0  0  0  0  0  0  0  0
   -2.7461   18.9536  -27.6555 H   0  0  0  0  0  0  0  0  0  0  0  0
   -4.0599   20.5552  -29.0334 H   0  0  0  0  0  0  0  0  0  0  0  0
   -5.8257   23.7051  -28.6964 H   0  0  0  0  0  0  0  0  0  0  0  0
   -7.9704   23.0730  -29.8004 H   0  0  0  0  0  0  0  0  0  0  0  0
  1  2  1  0
  2  3  1  0
  3  4  2  0
  4  5  1  0
  5  6  2  0
  6  7  1  0
  7  8  1  0
  8  9  2  0
  8 10  1  0
 10 11  1  0
 10 12  1  0
 12 13  2  0
 12 14  1  0
 14 15  2  0
 15 16  1  0
 16 17  2  0
 17 18  1  0
 18 19  2  0
  6 20  1  0
 20 21  2  0
 21  3  1  0
 19  7  1  0
 19 14  1  0
  1 22  1  0
  1 23  1  0
  1 24  1  0
  4 25  1  0
  5 26  1  0
 15 27  1  0
 16 28  1  0
 17 29  1  0
 18 30  1  0
 20 31  1  0
 21 32  1  0
M  CHG  1  11  -1
M  END
>  <UniqueID>  (39) 
38

>  <SMILES>  (39) 
COc1ccc(-n2c(=O)n([O-])c(=O)c3ccccc32)cc1

>  <Energy>  (39) 
51.88729634424512

>  <Genealogy>  (39) 
COc1ccc(-n2c(=O)n([O-])c(=O)c3ccccc32)cc1 (protonated)
COc1ccc(-n2c(=O)n([O-])c(=O)c3ccccc32)cc1 (3D coordinates assigned)
COc1ccc(-n2c(=O)n([O-])c(=O)c3ccccc32)cc1 (optimized conformer: 51.88729634424512 kcal/mol)

>  <smiles>  (39) 
COc1ccc(-n2c(=O)n(O)c(=O)c3ccccc32)cc1

>  <score_type>  (39) 
oracle

>  <origin>  (39) 
adg

>  <m_score__min__energy>  (39) 
-10.01

>  <m_primary>  (39) 
energy

$$$$
39:0
     RDKit          3D

 44 46  0  0  0  0  0  0  0  0999 V2000
   -5.0260   25.4460  -30.6540 C   0  0  0  0  0  0  0  0  0  0  0  0
   -5.2430   24.1650  -31.3440 N   0  0  0  0  0  0  0  0  0  0  0  0
   -6.6620   23.7780  -31.3170 C   0  0  0  0  0  0  0  0  0  0  0  0
   -4.3400   23.0900  -30.8730 C   0  0  0  0  0  0  0  0  0  0  0  0
   -3.6850   22.2670  -32.0080 C   0  0  0  0  0  0  0  0  0  0  0  0
   -4.6330   21.9750  -33.1010 N   0  0  0  0  0  0  0  0  0  0  0  0
   -4.9320   20.5510  -33.2050 C   0  0  0  0  0  0  0  0  0  0  0  0
   -3.9300   19.6050  -33.5730 C   0  0  0  0  0  0  0  0  0  0  0  0
   -2.5950   19.9900  -33.8730 C   0  0  0  0  0  0  0  0  0  0  0  0
   -1.6140   19.0420  -34.1510 C   0  0  0  0  0  0  0  0  0  0  0  0
   -1.9230   17.6930  -34.1310 C   0  0  0  0  0  0  0  0  0  0  0  0
   -3.2270   17.2820  -33.8800 C   0  0  0  0  0  0  0  0  0  0  0  0
   -4.2650   18.2220  -33.6460 C   0  0  0  0  0  0  0  0  0  0  0  0
   -5.5710   17.8090  -33.4810 N   0  0  0  0  0  0  0  0  0  0  0  0
   -5.9680   16.4410  -33.8860 C   0  0  0  0  0  0  0  0  0  0  0  0
   -6.5150   18.6780  -32.9790 C   0  0  0  0  0  0  0  0  0  0  0  0
   -7.7790   18.2100  -32.5360 C   0  0  0  0  0  0  0  0  0  0  0  0
   -8.7640   19.0900  -32.0990 C   0  0  0  0  0  0  0  0  0  0  0  0
   -8.5180   20.4550  -32.0810 C   0  0  0  0  0  0  0  0  0  0  0  0
   -9.7740   21.5620  -31.5530 Cl  0  0  0  0  0  0  0  0  0  0  0  0
   -7.2700   20.9430  -32.4620 C   0  0  0  0  0  0  0  0  0  0  0  0
   -6.2330   20.0700  -32.8830 C   0  0  0  0  0  0  0  0  0  0  0  0
   -5.0532   25.2857  -29.5661 H   0  0  0  0  0  0  0  0  0  0  0  0
   -4.0458   25.8551  -30.9400 H   0  0  0  0  0  0  0  0  0  0  0  0
   -5.8168   26.1551  -30.9400 H   0  0  0  0  0  0  0  0  0  0  0  0
   -6.9973   23.6865  -30.2734 H   0  0  0  0  0  0  0  0  0  0  0  0
   -7.2612   24.5455  -31.8287 H   0  0  0  0  0  0  0  0  0  0  0  0
   -6.7886   22.8125  -31.8287 H   0  0  0  0  0  0  0  0  0  0  0  0
   -3.5397   23.5497  -30.2745 H   0  0  0  0  0  0  0  0  0  0  0  0
   -4.9589   22.3900  -30.2925 H   0  0  0  0  0  0  0  0  0  0  0  0
   -2.8379   22.8376  -32.4163 H   0  0  0  0  0  0  0  0  0  0  0  0
   -3.3529   21.3084  -31.5828 H   0  0  0  0  0  0  0  0  0  0  0  0
   -5.4790   22.5740  -33.0120 H   0  0  0  0  0  0  0  0  0  0  0  0
   -4.2340   22.3170  -34.0040 H   0  0  0  0  0  0  0  0  0  0  0  0
   -2.3318   21.0580  -33.8858 H   0  0  0  0  0  0  0  0  0  0  0  0
   -0.5898   19.3662  -34.3874 H   0  0  0  0  0  0  0  0  0  0  0  0
   -1.1365   16.9460  -34.3138 H   0  0  0  0  0  0  0  0  0  0  0  0
   -3.4593   16.2070  -33.8623 H   0  0  0  0  0  0  0  0  0  0  0  0
   -6.1453   15.8299  -32.9887 H   0  0  0  0  0  0  0  0  0  0  0  0
   -6.8893   16.4888  -34.4851 H   0  0  0  0  0  0  0  0  0  0  0  0
   -5.1642   15.9882  -34.4851 H   0  0  0  0  0  0  0  0  0  0  0  0
   -7.9844   17.1293  -32.5381 H   0  0  0  0  0  0  0  0  0  0  0  0
   -9.7388   18.7029  -31.7674 H   0  0  0  0  0  0  0  0  0  0  0  0
   -7.0845   22.0269  -32.4360 H   0  0  0  0  0  0  0  0  0  0  0  0
  1  2  1  0
  2  3  1  0
  2  4  1  0
  4  5  1  0
  5  6  1  0
  6  7  1  0
  7  8  2  0
  8  9  1  0
  9 10  2  0
 10 11  1  0
 11 12  2  0
 12 13  1  0
 13 14  2  0
 14 15  1  0
 14 16  1  0
 16 17  2  0
 17 18  1  0
 18 19  2  0
 19 20  1  0
 19 21  1  0
 21 22  2  0
 22  7  1  0
 13  8  1  0
 22 16  1  0
  1 23  1  0
  1 24  1  0
  1 25  1  0
  3 26  1  0
  3 27  1  0
  3 28  1  0
  4 29  1  0
  4 30  1  0
  5 31  1  0
  5 32  1  0
  6 33  1  0
  6 34  1  0
  9 35  1  0
 10 36  1  0
 11 37  1  0
 12 38  1  0
 15 39  1  0
 15 40  1  0
 15 41  1  0
 17 42  1  0
 18 43  1  0
 21 44  1  0
M  CHG  2   6   1  14   1
M  END
>  <UniqueID>  (40) 
39

>  <SMILES>  (40) 
CN(C)CC[NH2+]c1c2ccccc2[n+](C)c2ccc(Cl)cc12

>  <Energy>  (40) 
77.72997355792803

>  <Genealogy>  (40) 
CN(C)CC[NH2+]c1c2ccccc2[n+](C)c2ccc(Cl)cc12 (protonated)
CN(C)CC[NH2+]c1c2ccccc2[n+](C)c2ccc(Cl)cc12 (3D coordinates assigned)
CN(C)CC[NH2+]c1c2ccccc2[n+](C)c2ccc(Cl)cc12 (optimized conformer: 77.72997355792803 kcal/mol)

>  <smiles>  (40) 
CN(C)CCNc1c2ccccc2[n+](C)c2ccc(Cl)cc12

>  <score_type>  (40) 
oracle

>  <origin>  (40) 
adg

>  <m_score__min__energy>  (40) 
-7.4400000000000004

>  <m_primary>  (40) 
energy

$$$$
40:0
     RDKit          3D

 54 57  0  0  0  0  0  0  0  0999 V2000
   -1.2530   17.0130  -34.5720 C   0  0  0  0  0  0  0  0  0  0  0  0
   -1.5310   15.9000  -35.5860 C   0  0  0  0  0  0  0  0  0  0  0  0
   -2.5810   14.9680  -35.1330 N   0  0  0  0  0  0  0  0  0  0  0  0
   -2.9150   15.1580  -33.7120 C   0  0  0  0  0  0  0  0  0  0  0  0
   -4.4430   15.1000  -33.4960 C   0  0  0  0  0  0  0  0  0  0  0  0
   -5.2470   15.8360  -34.5040 N   0  0  0  0  0  0  0  0  0  0  0  0
   -4.6160   17.0240  -35.1050 C   0  0  0  0  0  0  0  0  0  0  0  0
   -4.8610   18.2680  -34.2970 C   0  0  0  0  0  0  0  0  0  0  0  0
   -5.9050   18.3920  -33.4650 C   0  0  0  0  0  0  0  0  0  0  0  0
   -6.0580   19.6150  -32.6520 C   0  0  0  0  0  0  0  0  0  0  0  0
   -5.0270   20.3730  -32.1070 C   0  0  0  0  0  0  0  0  0  0  0  0
   -5.5260   21.4570  -31.4640 N   0  0  0  0  0  0  0  0  0  0  0  0
   -4.7430   22.4690  -30.8100 C   0  0  0  0  0  0  0  0  0  0  0  0
   -3.5680   22.1170  -30.1250 C   0  0  0  0  0  0  0  0  0  0  0  0
   -2.7920   23.1000  -29.5040 C   0  0  0  0  0  0  0  0  0  0  0  0
   -3.1760   24.4420  -29.5700 C   0  0  0  0  0  0  0  0  0  0  0  0
   -2.4220   25.3940  -28.9690 F   0  0  0  0  0  0  0  0  0  0  0  0
   -4.3350   24.8030  -30.2640 C   0  0  0  0  0  0  0  0  0  0  0  0
   -5.1130   23.8230  -30.8860 C   0  0  0  0  0  0  0  0  0  0  0  0
   -6.8700   21.3950  -31.6000 C   0  0  0  0  0  0  0  0  0  0  0  0
   -7.8340   22.2740  -31.0950 C   0  0  0  0  0  0  0  0  0  0  0  0
   -9.1840   22.0190  -31.3940 C   0  0  0  0  0  0  0  0  0  0  0  0
   -9.5450   20.9040  -32.1780 C   0  0  0  0  0  0  0  0  0  0  0  0
   -8.5610   20.0210  -32.6560 C   0  0  0  0  0  0  0  0  0  0  0  0
   -7.2280   20.2850  -32.3290 C   0  0  0  0  0  0  0  0  0  0  0  0
   -6.8850   17.2620  -33.2430 C   0  0  0  0  0  0  0  0  0  0  0  0
   -6.6660   16.0540  -34.1680 C   0  0  0  0  0  0  0  0  0  0  0  0
   -1.3529   16.6132  -33.5521 H   0  0  0  0  0  0  0  0  0  0  0  0
   -0.2318   17.3951  -34.7177 H   0  0  0  0  0  0  0  0  0  0  0  0
   -1.9746   17.8304  -34.7177 H   0  0  0  0  0  0  0  0  0  0  0  0
   -1.8518   16.3585  -36.5330 H   0  0  0  0  0  0  0  0  0  0  0  0
   -0.6032   15.3220  -35.7084 H   0  0  0  0  0  0  0  0  0  0  0  0
   -2.2730   13.9810  -35.2980 H   0  0  0  0  0  0  0  0  0  0  0  0
   -3.4370   15.1460  -35.7100 H   0  0  0  0  0  0  0  0  0  0  0  0
   -2.4365   14.3641  -33.1197 H   0  0  0  0  0  0  0  0  0  0  0  0
   -2.5508   16.1457  -33.3929 H   0  0  0  0  0  0  0  0  0  0  0  0
   -4.7511   14.0443  -33.5184 H   0  0  0  0  0  0  0  0  0  0  0  0
   -4.6361   15.5906  -32.5306 H   0  0  0  0  0  0  0  0  0  0  0  0
   -3.5314   16.8532  -35.1721 H   0  0  0  0  0  0  0  0  0  0  0  0
   -5.0601   17.1750  -36.1000 H   0  0  0  0  0  0  0  0  0  0  0  0
   -4.1572   19.1080  -34.3920 H   0  0  0  0  0  0  0  0  0  0  0  0
   -3.9577   20.1275  -32.1865 H   0  0  0  0  0  0  0  0  0  0  0  0
   -3.2572   21.0629  -30.0771 H   0  0  0  0  0  0  0  0  0  0  0  0
   -1.8775   22.8166  -28.9624 H   0  0  0  0  0  0  0  0  0  0  0  0
   -4.6347   25.8599  -30.3204 H   0  0  0  0  0  0  0  0  0  0  0  0
   -6.0195   24.1125  -31.4378 H   0  0  0  0  0  0  0  0  0  0  0  0
   -7.5442   23.1399  -30.4816 H   0  0  0  0  0  0  0  0  0  0  0  0
   -9.9644   22.6944  -31.0134 H   0  0  0  0  0  0  0  0  0  0  0  0
  -10.6035   20.7239  -32.4172 H   0  0  0  0  0  0  0  0  0  0  0  0
   -8.8320   19.1487  -33.2689 H   0  0  0  0  0  0  0  0  0  0  0  0
   -6.7904   16.9217  -32.2013 H   0  0  0  0  0  0  0  0  0  0  0  0
   -7.8855   17.6592  -33.4695 H   0  0  0  0  0  0  0  0  0  0  0  0
   -7.0497   15.1537  -33.6658 H   0  0  0  0  0  0  0  0  0  0  0  0
   -7.1993   16.2583  -35.1081 H   0  0  0  0  0  0  0  0  0  0  0  0
  1  2  1  0
  2  3  1  0
  3  4  1  0
  4  5  1  0
  5  6  1  0
  6  7  1  0
  7  8  1  0
  8  9  2  0
  9 10  1  0
 10 11  2  0
 11 12  1  0
 12 13  1  0
 13 14  2  0
 14 15  1  0
 15 16  2  0
 16 17  1  0
 16 18  1  0
 18 19  2  0
 12 20  1  0
 20 21  2  0
 21 22  1  0
 22 23  2  0
 23 24  1  0
 24 25  2  0
  9 26  1  0
 26 27  1  0
 27  6  1  0
 25 10  1  0
 19 13  1  0
 25 20  1  0
  1 28  1  0
  1 29  1  0
  1 30  1  0
  2 31  1  0
  2 32  1  0
  3 33  1  0
  3 34  1  0
  4 35  1  0
  4 36  1  0
  5 37  1  0
  5 38  1  0
  7 39  1  0
  7 40  1  0
  8 41  1  0
 11 42  1  0
 14 43  1  0
 15 44  1  0
 18 45  1  0
 19 46  1  0
 21 47  1  0
 22 48  1  0
 23 49  1  0
 24 50  1  0
 26 51  1  0
 26 52  1  0
 27 53  1  0
 27 54  1  0
M  CHG  1   3   1
M  END
>  <UniqueID>  (41) 
40

>  <SMILES>  (41) 
CC[NH2+]CCN1CC=C(c2cn(-c3ccc(F)cc3)c3ccccc23)CC1

>  <Energy>  (41) 
106.52986825064704

>  <Genealogy>  (41) 
CC[NH2+]CCN1CC=C(c2cn(-c3ccc(F)cc3)c3ccccc23)CC1 (protonated)
CC[NH2+]CCN1CC=C(c2cn(-c3ccc(F)cc3)c3ccccc23)CC1 (3D coordinates assigned)
CC[NH2+]CCN1CC=C(c2cn(-c3ccc(F)cc3)c3ccccc23)CC1 (nonaromatic ring conformer: 106.52986825064704 kcal/mol)

>  <smiles>  (41) 
CCNCCN1CC=C(c2cn(-c3ccc(F)cc3)c3ccccc23)CC1

>  <score_type>  (41) 
oracle

>  <origin>  (41) 
adg

>  <m_score__min__energy>  (41) 
-8.2300000000000004

>  <m_primary>  (41) 
energy

$$$$
42:0
     RDKit          3D

 29 31  0  0  0  0  0  0  0  0999 V2000
   -7.2370   16.2580  -34.5460 O   0  0  0  0  0  0  0  0  0  0  0  0
   -6.5180   16.8310  -33.7010 N   0  0  0  0  0  0  0  0  0  0  0  0
   -7.1040   17.3350  -32.5630 O   0  0  0  0  0  0  0  0  0  0  0  0
   -5.1580   17.1680  -34.0180 C   0  0  0  0  0  0  0  0  0  0  0  0
   -4.3330   16.1890  -34.6000 C   0  0  0  0  0  0  0  0  0  0  0  0
   -2.9790   16.4400  -34.8230 C   0  0  0  0  0  0  0  0  0  0  0  0
   -2.4270   17.6690  -34.4670 C   0  0  0  0  0  0  0  0  0  0  0  0
   -3.2340   18.6610  -33.9080 C   0  0  0  0  0  0  0  0  0  0  0  0
   -4.6050   18.4380  -33.7010 C   0  0  0  0  0  0  0  0  0  0  0  0
   -5.4240   19.5640  -33.2040 C   0  0  0  0  0  0  0  0  0  0  0  0
   -6.7520   19.6980  -33.3750 N   0  0  0  0  0  0  0  0  0  0  0  0
   -7.1120   20.8460  -32.8280 N   0  0  0  0  0  0  0  0  0  0  0  0
   -5.9740   21.3840  -32.3390 C   0  0  0  0  0  0  0  0  0  0  0  0
   -5.8990   22.6790  -31.6360 C   0  0  0  0  0  0  0  0  0  0  0  0
   -7.0480   23.2690  -31.0840 C   0  0  0  0  0  0  0  0  0  0  0  0
   -6.9550   24.4950  -30.4240 C   0  0  0  0  0  0  0  0  0  0  0  0
   -5.7120   25.1240  -30.3200 C   0  0  0  0  0  0  0  0  0  0  0  0
   -4.6090   24.5430  -30.8580 N   0  0  0  0  0  0  0  0  0  0  0  0
   -4.6730   23.3490  -31.5060 C   0  0  0  0  0  0  0  0  0  0  0  0
   -4.9400   20.6060  -32.5720 O   0  0  0  0  0  0  0  0  0  0  0  0
   -4.7598   15.2153  -34.8823 H   0  0  0  0  0  0  0  0  0  0  0  0
   -2.3456   15.6660  -35.2809 H   0  0  0  0  0  0  0  0  0  0  0  0
   -1.3551   17.8573  -34.6266 H   0  0  0  0  0  0  0  0  0  0  0  0
   -2.7914   19.6279  -33.6265 H   0  0  0  0  0  0  0  0  0  0  0  0
   -7.4020   19.0520  -33.8760 H   0  0  0  0  0  0  0  0  0  0  0  0
   -8.0215   22.7644  -31.1720 H   0  0  0  0  0  0  0  0  0  0  0  0
   -7.8516   24.9615  -29.9899 H   0  0  0  0  0  0  0  0  0  0  0  0
   -5.6268   26.0906  -29.8019 H   0  0  0  0  0  0  0  0  0  0  0  0
   -3.7596   22.9065  -31.9301 H   0  0  0  0  0  0  0  0  0  0  0  0
  1  2  2  0
  2  3  1  0
  2  4  1  0
  4  5  2  0
  5  6  1  0
  6  7  2  0
  7  8  1  0
  8  9  2  0
  9 10  1  0
 10 11  2  0
 11 12  1  0
 12 13  2  0
 13 14  1  0
 14 15  2  0
 15 16  1  0
 16 17  2  0
 17 18  1  0
 18 19  2  0
 13 20  1  0
  9  4  1  0
 20 10  1  0
 19 14  1  0
  5 21  1  0
  6 22  1  0
  7 23  1  0
  8 24  1  0
 11 25  1  0
 15 26  1  0
 16 27  1  0
 17 28  1  0
 19 29  1  0
M  CHG  3   2   1   3  -1  11   1
M  END
>  <UniqueID>  (42) 
41

>  <SMILES>  (42) 
O=[N+]([O-])c1ccccc1-c1[nH+]nc(-c2cccnc2)o1

>  <Energy>  (42) 
77.05091900605551

>  <Genealogy>  (42) 
O=[N+]([O-])c1ccccc1-c1[nH+]nc(-c2cccnc2)o1 (protonated)
O=[N+]([O-])c1ccccc1-c1[nH+]nc(-c2cccnc2)o1 (3D coordinates assigned)
O=[N+]([O-])c1ccccc1-c1[nH+]nc(-c2cccnc2)o1 (optimized conformer: 77.05091900605551 kcal/mol)

>  <smiles>  (42) 
O=[N+]([O-])c1ccccc1-c1nnc(-c2cccnc2)o1

>  <score_type>  (42) 
oracle

>  <origin>  (42) 
adg

>  <m_score__min__energy>  (42) 
-7.3799999999999999

>  <m_primary>  (42) 
energy

$$$$
