0:0
     RDKit          3D

 69 72  0  0  0  0  0  0  0  0999 V2000
   -6.2160   25.5020  -29.5940 C   0  0  0  0  0  0  0  0  0  0  0  0
   -5.3490   25.5060  -30.8450 C   0  0  0  0  0  0  0  0  0  0  0  0
   -3.9410   25.2940  -30.4680 N   0  0  0  0  0  0  0  0  0  0  0  0
   -3.7910   24.4980  -29.2420 C   0  0  0  0  0  0  0  0  0  0  0  0
   -3.7060   23.0000  -29.5620 C   0  0  0  0  0  0  0  0  0  0  0  0
   -3.3710   22.7850  -30.9700 N   0  0  0  0  0  0  0  0  0  0  0  0
   -3.9160   21.6730  -31.6940 C   0  0  0  0  0  0  0  0  0  0  0  0
   -5.3140   21.5190  -31.7610 C   0  0  0  0  0  0  0  0  0  0  0  0
   -6.1770   22.4650  -31.1650 C   0  0  0  0  0  0  0  0  0  0  0  0
   -7.5580   22.3280  -31.2530 C   0  0  0  0  0  0  0  0  0  0  0  0
   -8.1090   21.2610  -31.9530 C   0  0  0  0  0  0  0  0  0  0  0  0
   -9.8520   21.1150  -32.0960 Cl  0  0  0  0  0  0  0  0  0  0  0  0
   -7.2770   20.3200  -32.5620 C   0  0  0  0  0  0  0  0  0  0  0  0
   -5.8640   20.4150  -32.4620 C   0  0  0  0  0  0  0  0  0  0  0  0
   -5.0310   19.4880  -33.0530 N   0  0  0  0  0  0  0  0  0  0  0  0
   -5.5830   18.2000  -33.5300 C   0  0  0  0  0  0  0  0  0  0  0  0
   -3.6820   19.7550  -33.1860 C   0  0  0  0  0  0  0  0  0  0  0  0
   -2.8750   19.0060  -34.0750 C   0  0  0  0  0  0  0  0  0  0  0  0
   -1.5120   19.2450  -34.1830 C   0  0  0  0  0  0  0  0  0  0  0  0
   -0.9060   20.2100  -33.3950 C   0  0  0  0  0  0  0  0  0  0  0  0
   -1.6620   20.9830  -32.4970 C   0  0  0  0  0  0  0  0  0  0  0  0
   -1.0320   21.9020  -31.6350 O   0  0  0  0  0  0  0  0  0  0  0  0
   -0.3680   21.6010  -30.4070 C   0  0  0  0  0  0  0  0  0  0  0  0
   -0.8090   20.2640  -29.7510 C   0  0  0  0  0  0  0  0  0  0  0  0
   -0.2480   19.9070  -28.3960 N   0  0  0  0  0  0  0  0  0  0  0  0
    1.2210   19.7030  -28.5270 C   0  0  0  0  0  0  0  0  0  0  0  0
   -0.4280   21.0760  -27.4800 C   0  0  0  0  0  0  0  0  0  0  0  0
   -1.9050   21.4010  -27.1510 C   0  0  0  0  0  0  0  0  0  0  0  0
   -2.8120   20.1630  -27.1560 C   0  0  0  0  0  0  0  0  0  0  0  0
   -2.0230   18.9120  -26.8050 C   0  0  0  0  0  0  0  0  0  0  0  0
   -0.8460   18.6690  -27.7760 C   0  0  0  0  0  0  0  0  0  0  0  0
   -3.0780   20.8120  -32.4450 C   0  0  0  0  0  0  0  0  0  0  0  0
   -5.5725   25.5050  -28.7019 H   0  0  0  0  0  0  0  0  0  0  0  0
   -6.8552   26.3972  -29.5880 H   0  0  0  0  0  0  0  0  0  0  0  0
   -6.8469   24.6009  -29.5880 H   0  0  0  0  0  0  0  0  0  0  0  0
   -5.6736   24.6992  -31.5185 H   0  0  0  0  0  0  0  0  0  0  0  0
   -5.4493   26.4743  -31.3572 H   0  0  0  0  0  0  0  0  0  0  0  0
   -3.4680   24.7710  -31.2430 H   0  0  0  0  0  0  0  0  0  0  0  0
   -2.8715   24.8072  -28.7234 H   0  0  0  0  0  0  0  0  0  0  0  0
   -4.6711   24.6694  -28.6048 H   0  0  0  0  0  0  0  0  0  0  0  0
   -2.9293   22.5408  -28.9328 H   0  0  0  0  0  0  0  0  0  0  0  0
   -4.6851   22.5413  -29.3597 H   0  0  0  0  0  0  0  0  0  0  0  0
   -2.7040   23.4210  -31.4660 H   0  0  0  0  0  0  0  0  0  0  0  0
   -5.7506   23.3223  -30.6235 H   0  0  0  0  0  0  0  0  0  0  0  0
   -8.2152   23.0649  -30.7681 H   0  0  0  0  0  0  0  0  0  0  0  0
   -7.7240   19.4903  -33.1293 H   0  0  0  0  0  0  0  0  0  0  0  0
   -5.8514   17.5738  -32.6664 H   0  0  0  0  0  0  0  0  0  0  0  0
   -6.4794   18.3883  -34.1390 H   0  0  0  0  0  0  0  0  0  0  0  0
   -4.8284   17.6807  -34.1390 H   0  0  0  0  0  0  0  0  0  0  0  0
   -3.3361   18.2203  -34.6915 H   0  0  0  0  0  0  0  0  0  0  0  0
   -0.9098   18.6652  -34.8980 H   0  0  0  0  0  0  0  0  0  0  0  0
    0.1790   20.3731  -33.4730 H   0  0  0  0  0  0  0  0  0  0  0  0
    0.7128   21.5475  -30.6043 H   0  0  0  0  0  0  0  0  0  0  0  0
   -0.6355   22.4008  -29.7008 H   0  0  0  0  0  0  0  0  0  0  0  0
   -1.9039   20.2972  -29.6506 H   0  0  0  0  0  0  0  0  0  0  0  0
   -0.4071   19.4899  -30.4212 H   0  0  0  0  0  0  0  0  0  0  0  0
    1.6732   19.6402  -27.5262 H   0  0  0  0  0  0  0  0  0  0  0  0
    1.4140   18.7694  -29.0758 H   0  0  0  0  0  0  0  0  0  0  0  0
    1.6611   20.5486  -29.0758 H   0  0  0  0  0  0  0  0  0  0  0  0
    0.0961   20.8599  -26.5374 H   0  0  0  0  0  0  0  0  0  0  0  0
   -0.0195   21.9536  -28.0025 H   0  0  0  0  0  0  0  0  0  0  0  0
   -1.9477   21.8616  -26.1530 H   0  0  0  0  0  0  0  0  0  0  0  0
   -2.2730   22.0790  -27.9351 H   0  0  0  0  0  0  0  0  0  0  0  0
   -3.6150   20.3017  -26.4171 H   0  0  0  0  0  0  0  0  0  0  0  0
   -3.2349   20.0409  -28.1641 H   0  0  0  0  0  0  0  0  0  0  0  0
   -1.6240   19.0199  -25.7856 H   0  0  0  0  0  0  0  0  0  0  0  0
   -2.7047   18.0520  -26.8809 H   0  0  0  0  0  0  0  0  0  0  0  0
   -0.0506   18.1502  -27.2209 H   0  0  0  0  0  0  0  0  0  0  0  0
   -1.2595   18.0836  -28.6105 H   0  0  0  0  0  0  0  0  0  0  0  0
  1  2  1  0
  2  3  1  0
  3  4  1  0
  4  5  1  0
  5  6  1  0
  6  7  1  0
  7  8  2  0
  8  9  1  0
  9 10  2  0
 10 11  1  0
 11 12  1  0
 11 13  2  0
 13 14  1  0
 14 15  2  0
 15 16  1  0
 15 17  1  0
 17 18  2  0
 18 19  1  0
 19 20  2  0
 20 21  1  0
 21 22  1  0
 22 23  1  0
 23 24  1  0
 24 25  1  0
 25 26  1  0
 25 27  1  0
 27 28  1  0
 28 29  1  0
 29 30  1  0
 30 31  1  0
 21 32  2  0
 32  7  1  0
 14  8  1  0
 32 17  1  0
 31 25  1  0
  1 33  1  0
  1 34  1  0
  1 35  1  0
  2 36  1  0
  2 37  1  0
  3 38  1  0
  4 39  1  0
  4 40  1  0
  5 41  1  0
  5 42  1  0
  6 43  1  0
  9 44  1  0
 10 45  1  0
 13 46  1  0
 16 47  1  0
 16 48  1  0
 16 49  1  0
 18 50  1  0
 19 51  1  0
 20 52  1  0
 23 53  1  0
 23 54  1  0
 24 55  1  0
 24 56  1  0
 26 57  1  0
 26 58  1  0
 26 59  1  0
 27 60  1  0
 27 61  1  0
 28 62  1  0
 28 63  1  0
 29 64  1  0
 29 65  1  0
 30 66  1  0
 30 67  1  0
 31 68  1  0
 31 69  1  0
M  CHG  2  15   1  25   1
M  END
>  <UniqueID>  (1) 
1

>  <SMILES>  (1) 
CCNCCNc1c2ccc(Cl)cc2[n+](C)c2cccc(OCC[N+]3(C)CCCCC3)c12

>  <Energy>  (1) 
117.52911191882554

>  <Genealogy>  (1) 
CCNCCNc1c2ccc(Cl)cc2[n+](C)c2cccc(OCC[N+]3(C)CCCCC3)c12 (3D coordinates assigned)
CCNCCNc1c2ccc(Cl)cc2[n+](C)c2cccc(OCC[N+]3(C)CCCCC3)c12 (nonaromatic ring conformer: 117.52911191882554 kcal/mol)

>  <smiles>  (1) 
CCNCCNc1c2ccc(Cl)cc2[n+](C)c2cccc(OCC[N+]3(C)CCCCC3)c12

>  <score_type>  (1) 
oracle

>  <origin>  (1) 
adg

>  <m_score__min__energy>  (1) 
-8.6799999999999997

>  <m_primary>  (1) 
energy

$$$$
1:0
     RDKit          3D

 86 89  0  0  0  0  0  0  0  0999 V2000
   -1.2220   26.4950  -24.5200 C   0  0  0  0  0  0  0  0  0  0  0  0
   -1.7760   25.6790  -25.6820 C   0  0  0  0  0  0  0  0  0  0  0  0
   -0.7280   24.7840  -26.2230 N   0  0  0  0  0  0  0  0  0  0  0  0
   -0.4280   23.6950  -25.2740 C   0  0  0  0  0  0  0  0  0  0  0  0
   -1.1130   24.2320  -27.5390 C   0  0  0  0  0  0  0  0  0  0  0  0
   -1.1590   25.3490  -28.5830 C   0  0  0  0  0  0  0  0  0  0  0  0
   -2.3610   25.2770  -29.3270 O   0  0  0  0  0  0  0  0  0  0  0  0
   -3.1810   24.2090  -28.8920 C   0  0  0  0  0  0  0  0  0  0  0  0
   -4.3250   23.9530  -29.8810 C   0  0  0  0  0  0  0  0  0  0  0  0
   -4.9050   22.6780  -29.6670 O   0  0  0  0  0  0  0  0  0  0  0  0
   -4.4620   21.7350  -30.6250 C   0  0  0  0  0  0  0  0  0  0  0  0
   -4.1660   22.4320  -31.9540 C   0  0  0  0  0  0  0  0  0  0  0  0
   -4.6820   21.6450  -33.0740 N   0  0  0  0  0  0  0  0  0  0  0  0
   -5.8230   20.7880  -32.9190 C   0  0  0  0  0  0  0  0  0  0  0  0
   -7.0410   21.3410  -32.4890 C   0  0  0  0  0  0  0  0  0  0  0  0
   -7.1930   22.7380  -32.3590 C   0  0  0  0  0  0  0  0  0  0  0  0
   -8.4090   23.2870  -31.9630 C   0  0  0  0  0  0  0  0  0  0  0  0
   -9.4950   22.4590  -31.7050 C   0  0  0  0  0  0  0  0  0  0  0  0
   -9.3660   21.0770  -31.8200 C   0  0  0  0  0  0  0  0  0  0  0  0
   -8.1280   20.4840  -32.1810 C   0  0  0  0  0  0  0  0  0  0  0  0
   -7.9650   19.1150  -32.2360 N   0  0  0  0  0  0  0  0  0  0  0  0
   -8.9760   18.2290  -31.6180 C   0  0  0  0  0  0  0  0  0  0  0  0
   -6.8520   18.5740  -32.8520 C   0  0  0  0  0  0  0  0  0  0  0  0
   -6.7970   17.1980  -33.1840 C   0  0  0  0  0  0  0  0  0  0  0  0
   -5.6670   16.6430  -33.7690 C   0  0  0  0  0  0  0  0  0  0  0  0
   -4.5750   17.4370  -34.0720 C   0  0  0  0  0  0  0  0  0  0  0  0
   -4.6000   18.8220  -33.8260 C   0  0  0  0  0  0  0  0  0  0  0  0
   -3.5230   19.6390  -34.2170 O   0  0  0  0  0  0  0  0  0  0  0  0
   -2.1440   19.4460  -33.8960 C   0  0  0  0  0  0  0  0  0  0  0  0
   -1.5450   20.6920  -33.1880 C   0  0  0  0  0  0  0  0  0  0  0  0
   -0.4790   20.4270  -32.1630 N   0  0  0  0  0  0  0  0  0  0  0  0
    0.8420   20.2700  -32.8290 C   0  0  0  0  0  0  0  0  0  0  0  0
   -0.8150   19.1250  -31.4840 C   0  0  0  0  0  0  0  0  0  0  0  0
   -0.2640   19.0280  -30.0500 C   0  0  0  0  0  0  0  0  0  0  0  0
   -0.8730   20.1180  -29.1510 C   0  0  0  0  0  0  0  0  0  0  0  0
   -1.2980   21.3610  -29.9480 C   0  0  0  0  0  0  0  0  0  0  0  0
   -0.4000   21.5620  -31.1780 C   0  0  0  0  0  0  0  0  0  0  0  0
   -5.7400   19.4000  -33.1930 C   0  0  0  0  0  0  0  0  0  0  0  0
   -1.5328   26.0371  -23.5693 H   0  0  0  0  0  0  0  0  0  0  0  0
   -0.1236   26.5139  -24.5760 H   0  0  0  0  0  0  0  0  0  0  0  0
   -1.6097   27.5229  -24.5760 H   0  0  0  0  0  0  0  0  0  0  0  0
   -2.6242   25.0739  -25.3294 H   0  0  0  0  0  0  0  0  0  0  0  0
   -2.1082   26.3641  -26.4759 H   0  0  0  0  0  0  0  0  0  0  0  0
   -0.5306   24.0675  -24.2441 H   0  0  0  0  0  0  0  0  0  0  0  0
   -1.1307   22.8642  -25.4352 H   0  0  0  0  0  0  0  0  0  0  0  0
    0.6010   23.3413  -25.4352 H   0  0  0  0  0  0  0  0  0  0  0  0
   -0.3753   23.4762  -27.8467 H   0  0  0  0  0  0  0  0  0  0  0  0
   -2.1088   23.7715  -27.4595 H   0  0  0  0  0  0  0  0  0  0  0  0
   -1.1046   26.3231  -28.0748 H   0  0  0  0  0  0  0  0  0  0  0  0
   -0.3065   25.2334  -29.2685 H   0  0  0  0  0  0  0  0  0  0  0  0
   -2.5697   23.2985  -28.8063 H   0  0  0  0  0  0  0  0  0  0  0  0
   -3.6151   24.4764  -27.9173 H   0  0  0  0  0  0  0  0  0  0  0  0
   -5.0960   24.7261  -29.7472 H   0  0  0  0  0  0  0  0  0  0  0  0
   -3.9192   23.9865  -30.9029 H   0  0  0  0  0  0  0  0  0  0  0  0
   -3.5466   21.2473  -30.2586 H   0  0  0  0  0  0  0  0  0  0  0  0
   -5.2506   20.9842  -30.7811 H   0  0  0  0  0  0  0  0  0  0  0  0
   -4.6445   23.4225  -31.9573 H   0  0  0  0  0  0  0  0  0  0  0  0
   -3.0766   22.5355  -32.0653 H   0  0  0  0  0  0  0  0  0  0  0  0
   -4.2510   21.7510  -34.0200 H   0  0  0  0  0  0  0  0  0  0  0  0
   -6.3411   23.4002  -32.5730 H   0  0  0  0  0  0  0  0  0  0  0  0
   -8.5106   24.3769  -31.8541 H   0  0  0  0  0  0  0  0  0  0  0  0
  -10.4598   22.8967  -31.4089 H   0  0  0  0  0  0  0  0  0  0  0  0
  -10.2379   20.4345  -31.6279 H   0  0  0  0  0  0  0  0  0  0  0  0
   -8.9008   18.2949  -30.5226 H   0  0  0  0  0  0  0  0  0  0  0  0
   -9.9814   18.5421  -31.9360 H   0  0  0  0  0  0  0  0  0  0  0  0
   -8.7975   17.1912  -31.9360 H   0  0  0  0  0  0  0  0  0  0  0  0
   -7.6661   16.5572  -32.9743 H   0  0  0  0  0  0  0  0  0  0  0  0
   -5.6396   15.5664  -33.9929 H   0  0  0  0  0  0  0  0  0  0  0  0
   -3.6760   16.9795  -34.5108 H   0  0  0  0  0  0  0  0  0  0  0  0
   -2.0505   18.5764  -33.2289 H   0  0  0  0  0  0  0  0  0  0  0  0
   -1.5911   19.2820  -34.8327 H   0  0  0  0  0  0  0  0  0  0  0  0
   -1.1110   21.3413  -33.9626 H   0  0  0  0  0  0  0  0  0  0  0  0
   -2.3802   21.1434  -32.6325 H   0  0  0  0  0  0  0  0  0  0  0  0
    1.6286   20.1765  -32.0658 H   0  0  0  0  0  0  0  0  0  0  0  0
    0.8311   19.3668  -33.4568 H   0  0  0  0  0  0  0  0  0  0  0  0
    1.0431   21.1506  -33.4568 H   0  0  0  0  0  0  0  0  0  0  0  0
   -1.9096   19.0234  -31.4454 H   0  0  0  0  0  0  0  0  0  0  0  0
   -0.3453   18.3208  -32.0693 H   0  0  0  0  0  0  0  0  0  0  0  0
   -0.5118   18.0397  -29.6354 H   0  0  0  0  0  0  0  0  0  0  0  0
    0.8264   19.1694  -30.0830 H   0  0  0  0  0  0  0  0  0  0  0  0
   -1.7566   19.7045  -28.6428 H   0  0  0  0  0  0  0  0  0  0  0  0
   -0.1029   20.4281  -28.4293 H   0  0  0  0  0  0  0  0  0  0  0  0
   -2.3394   21.2365  -30.2798 H   0  0  0  0  0  0  0  0  0  0  0  0
   -1.2027   22.2429  -29.2975 H   0  0  0  0  0  0  0  0  0  0  0  0
   -0.7063   22.4880  -31.6866 H   0  0  0  0  0  0  0  0  0  0  0  0
    0.6387   21.6111  -30.8192 H   0  0  0  0  0  0  0  0  0  0  0  0
  1  2  1  0
  2  3  1  0
  3  4  1  0
  3  5  1  0
  5  6  1  0
  6  7  1  0
  7  8  1  0
  8  9  1  0
  9 10  1  0
 10 11  1  0
 11 12  1  0
 12 13  1  0
 13 14  1  0
 14 15  2  0
 15 16  1  0
 16 17  2  0
 17 18  1  0
 18 19  2  0
 19 20  1  0
 20 21  2  0
 21 22  1  0
 21 23  1  0
 23 24  2  0
 24 25  1  0
 25 26  2  0
 26 27  1  0
 27 28  1  0
 28 29  1  0
 29 30  1  0
 30 31  1  0
 31 32  1  0
 31 33  1  0
 33 34  1  0
 34 35  1  0
 35 36  1  0
 36 37  1  0
 27 38  2  0
 38 14  1  0
 20 15  1  0
 38 23  1  0
 37 31  1  0
  1 39  1  0
  1 40  1  0
  1 41  1  0
  2 42  1  0
  2 43  1  0
  4 44  1  0
  4 45  1  0
  4 46  1  0
  5 47  1  0
  5 48  1  0
  6 49  1  0
  6 50  1  0
  8 51  1  0
  8 52  1  0
  9 53  1  0
  9 54  1  0
 11 55  1  0
 11 56  1  0
 12 57  1  0
 12 58  1  0
 13 59  1  0
 16 60  1  0
 17 61  1  0
 18 62  1  0
 19 63  1  0
 22 64  1  0
 22 65  1  0
 22 66  1  0
 24 67  1  0
 25 68  1  0
 26 69  1  0
 29 70  1  0
 29 71  1  0
 30 72  1  0
 30 73  1  0
 32 74  1  0
 32 75  1  0
 32 76  1  0
 33 77  1  0
 33 78  1  0
 34 79  1  0
 34 80  1  0
 35 81  1  0
 35 82  1  0
 36 83  1  0
 36 84  1  0
 37 85  1  0
 37 86  1  0
M  CHG  2  21   1  31   1
M  END
>  <UniqueID>  (2) 
2

>  <SMILES>  (2) 
CCN(C)CCOCCOCCNc1c2ccccc2[n+](C)c2cccc(OCC[N+]3(C)CCCCC3)c12

>  <Energy>  (2) 
136.16623912986256

>  <Genealogy>  (2) 
CCN(C)CCOCCOCCNc1c2ccccc2[n+](C)c2cccc(OCC[N+]3(C)CCCCC3)c12 (3D coordinates assigned)
CCN(C)CCOCCOCCNc1c2ccccc2[n+](C)c2cccc(OCC[N+]3(C)CCCCC3)c12 (nonaromatic ring conformer: 136.16623912986256 kcal/mol)

>  <smiles>  (2) 
CCN(C)CCOCCOCCNc1c2ccccc2[n+](C)c2cccc(OCC[N+]3(C)CCCCC3)c12

>  <score_type>  (2) 
oracle

>  <origin>  (2) 
adg

>  <m_score__min__energy>  (2) 
-9.2300000000000004

>  <m_primary>  (2) 
energy

$$$$
2:0
     RDKit          3D

 64 67  0  0  0  0  0  0  0  0999 V2000
   -3.9600   19.6790  -33.5310 C   0  0  0  0  0  0  0  0  0  0  0  0
   -4.5070   18.3270  -33.7280 N   0  0  0  0  0  0  0  0  0  0  0  0
   -3.6930   17.5560  -34.6790 C   0  0  0  0  0  0  0  0  0  0  0  0
   -5.9510   18.3290  -34.0560 C   0  0  0  0  0  0  0  0  0  0  0  0
   -6.8610   17.7100  -32.9800 C   0  0  0  0  0  0  0  0  0  0  0  0
   -8.0140   18.5260  -32.7830 O   0  0  0  0  0  0  0  0  0  0  0  0
   -7.9850   19.8410  -32.2930 C   0  0  0  0  0  0  0  0  0  0  0  0
   -9.1450   20.6170  -32.4070 C   0  0  0  0  0  0  0  0  0  0  0  0
   -9.1720   21.9260  -31.9190 C   0  0  0  0  0  0  0  0  0  0  0  0
   -8.0380   22.4730  -31.3160 C   0  0  0  0  0  0  0  0  0  0  0  0
   -6.8610   21.7140  -31.2030 C   0  0  0  0  0  0  0  0  0  0  0  0
   -5.6870   22.2710  -30.5860 N   0  0  0  0  0  0  0  0  0  0  0  0
   -4.4450   21.4950  -30.5340 C   0  0  0  0  0  0  0  0  0  0  0  0
   -3.2240   22.4300  -30.5750 C   0  0  0  0  0  0  0  0  0  0  0  0
   -3.3320   23.5610  -29.6260 N   0  0  0  0  0  0  0  0  0  0  0  0
   -3.0910   23.1700  -28.2180 C   0  0  0  0  0  0  0  0  0  0  0  0
   -1.5910   23.2190  -27.9040 C   0  0  0  0  0  0  0  0  0  0  0  0
   -1.2330   24.4920  -27.2460 N   0  0  0  0  0  0  0  0  0  0  0  0
   -1.2080   25.6470  -27.9910 C   0  0  0  0  0  0  0  0  0  0  0  0
   -1.5380   25.6200  -29.3470 O   0  0  0  0  0  0  0  0  0  0  0  0
   -0.8520   26.8640  -27.4020 C   0  0  0  0  0  0  0  0  0  0  0  0
   -0.5020   26.9090  -26.0520 C   0  0  0  0  0  0  0  0  0  0  0  0
   -0.1400   28.1250  -25.4480 C   0  0  0  0  0  0  0  0  0  0  0  0
    0.2180   28.1590  -24.1000 C   0  0  0  0  0  0  0  0  0  0  0  0
    0.2210   26.9840  -23.3450 C   0  0  0  0  0  0  0  0  0  0  0  0
   -0.1400   25.7680  -23.9340 C   0  0  0  0  0  0  0  0  0  0  0  0
   -0.5080   25.7190  -25.2940 C   0  0  0  0  0  0  0  0  0  0  0  0
   -0.8830   24.5110  -25.9160 C   0  0  0  0  0  0  0  0  0  0  0  0
   -0.8920   23.4420  -25.2430 O   0  0  0  0  0  0  0  0  0  0  0  0
   -4.5850   24.3180  -29.8180 C   0  0  0  0  0  0  0  0  0  0  0  0
   -5.8190   23.4220  -29.6910 C   0  0  0  0  0  0  0  0  0  0  0  0
   -6.8400   20.3990  -31.6920 C   0  0  0  0  0  0  0  0  0  0  0  0
   -3.8758   19.8871  -32.4542 H   0  0  0  0  0  0  0  0  0  0  0  0
   -2.9651   19.7433  -33.9958 H   0  0  0  0  0  0  0  0  0  0  0  0
   -4.6303   20.4170  -33.9958 H   0  0  0  0  0  0  0  0  0  0  0  0
   -3.0029   16.9024  -34.1253 H   0  0  0  0  0  0  0  0  0  0  0  0
   -4.3511   16.9423  -35.3116 H   0  0  0  0  0  0  0  0  0  0  0  0
   -3.1159   18.2464  -35.3116 H   0  0  0  0  0  0  0  0  0  0  0  0
   -6.2649   19.3719  -34.2102 H   0  0  0  0  0  0  0  0  0  0  0  0
   -6.0643   17.7028  -34.9533 H   0  0  0  0  0  0  0  0  0  0  0  0
   -7.1763   16.7071  -33.3035 H   0  0  0  0  0  0  0  0  0  0  0  0
   -6.3037   17.6408  -32.0342 H   0  0  0  0  0  0  0  0  0  0  0  0
  -10.0411   20.1932  -32.8840 H   0  0  0  0  0  0  0  0  0  0  0  0
  -10.0889   22.5268  -32.0102 H   0  0  0  0  0  0  0  0  0  0  0  0
   -8.0660   23.5019  -30.9279 H   0  0  0  0  0  0  0  0  0  0  0  0
   -4.4221   20.9102  -29.6026 H   0  0  0  0  0  0  0  0  0  0  0  0
   -4.4083   20.8232  -31.4042 H   0  0  0  0  0  0  0  0  0  0  0  0
   -2.3262   21.8460  -30.3242 H   0  0  0  0  0  0  0  0  0  0  0  0
   -3.1669   22.8539  -31.5884 H   0  0  0  0  0  0  0  0  0  0  0  0
   -3.6245   23.8639  -27.5518 H   0  0  0  0  0  0  0  0  0  0  0  0
   -3.4568   22.1443  -28.0628 H   0  0  0  0  0  0  0  0  0  0  0  0
   -1.3352   22.3835  -27.2358 H   0  0  0  0  0  0  0  0  0  0  0  0
   -1.0310   23.1407  -28.8476 H   0  0  0  0  0  0  0  0  0  0  0  0
   -1.5420   24.7570  -29.8780 H   0  0  0  0  0  0  0  0  0  0  0  0
   -0.8478   27.7856  -28.0026 H   0  0  0  0  0  0  0  0  0  0  0  0
   -0.1389   29.0524  -26.0395 H   0  0  0  0  0  0  0  0  0  0  0  0
    0.4986   29.1135  -23.6307 H   0  0  0  0  0  0  0  0  0  0  0  0
    0.5082   27.0151  -22.2836 H   0  0  0  0  0  0  0  0  0  0  0  0
   -0.1368   24.8462  -23.3338 H   0  0  0  0  0  0  0  0  0  0  0  0
   -4.6415   25.1107  -29.0575 H   0  0  0  0  0  0  0  0  0  0  0  0
   -4.5748   24.7418  -30.8331 H   0  0  0  0  0  0  0  0  0  0  0  0
   -5.9097   23.0695  -28.6530 H   0  0  0  0  0  0  0  0  0  0  0  0
   -6.7161   23.9962  -29.9658 H   0  0  0  0  0  0  0  0  0  0  0  0
   -5.9220   19.7992  -31.6053 H   0  0  0  0  0  0  0  0  0  0  0  0
  1  2  1  0
  2  3  1  0
  2  4  1  0
  4  5  1  0
  5  6  1  0
  6  7  1  0
  7  8  2  0
  8  9  1  0
  9 10  2  0
 10 11  1  0
 11 12  1  0
 12 13  1  0
 13 14  1  0
 14 15  1  0
 15 16  1  0
 16 17  1  0
 17 18  1  0
 18 19  1  0
 19 20  1  0
 19 21  2  0
 21 22  1  0
 22 23  2  0
 23 24  1  0
 24 25  2  0
 25 26  1  0
 26 27  2  0
 27 28  1  0
 28 29  2  0
 15 30  1  0
 30 31  1  0
 11 32  2  0
 32  7  1  0
 31 12  1  0
 28 18  1  0
 27 22  1  0
  1 33  1  0
  1 34  1  0
  1 35  1  0
  3 36  1  0
  3 37  1  0
  3 38  1  0
  4 39  1  0
  4 40  1  0
  5 41  1  0
  5 42  1  0
  8 43  1  0
  9 44  1  0
 10 45  1  0
 13 46  1  0
 13 47  1  0
 14 48  1  0
 14 49  1  0
 16 50  1  0
 16 51  1  0
 17 52  1  0
 17 53  1  0
 20 54  1  0
 21 55  1  0
 23 56  1  0
 24 57  1  0
 25 58  1  0
 26 59  1  0
 30 60  1  0
 30 61  1  0
 31 62  1  0
 31 63  1  0
 32 64  1  0
M  END
>  <UniqueID>  (3) 
3

>  <SMILES>  (3) 
CN(C)CCOc1cccc(N2CCN(CCn3c(O)cc4ccccc4c3=O)CC2)c1

>  <Energy>  (3) 
81.88202195102139

>  <Genealogy>  (3) 
CN(C)CCOc1cccc(N2CCN(CCn3c(O)cc4ccccc4c3=O)CC2)c1 (3D coordinates assigned)
CN(C)CCOc1cccc(N2CCN(CCn3c(O)cc4ccccc4c3=O)CC2)c1 (nonaromatic ring conformer: 81.88202195102139 kcal/mol)

>  <smiles>  (3) 
CN(C)CCOc1cccc(N2CCN(CCn3c(O)cc4ccccc4c3=O)CC2)c1

>  <score_type>  (3) 
oracle

>  <origin>  (3) 
adg

>  <m_score__min__energy>  (3) 
-9.5700000000000003

>  <m_primary>  (3) 
energy

$$$$
3:0
     RDKit          3D

 48 52  0  0  0  0  0  0  0  0999 V2000
   -0.8350   21.1250  -34.0760 C   0  0  0  0  0  0  0  0  0  0  0  0
   -1.8210   21.2910  -33.0170 N   0  0  0  0  0  0  0  0  0  0  0  0
   -2.9790   21.9230  -33.1460 N   0  0  0  0  0  0  0  0  0  0  0  0
   -3.6460   21.8520  -31.9690 C   0  0  0  0  0  0  0  0  0  0  0  0
   -4.9330   22.5210  -31.7090 C   0  0  0  0  0  0  0  0  0  0  0  0
   -6.1380   21.8660  -32.0090 C   0  0  0  0  0  0  0  0  0  0  0  0
   -7.3630   22.5000  -31.7740 C   0  0  0  0  0  0  0  0  0  0  0  0
   -7.3910   23.7850  -31.2260 C   0  0  0  0  0  0  0  0  0  0  0  0
   -6.1970   24.4360  -30.9060 C   0  0  0  0  0  0  0  0  0  0  0  0
   -4.9720   23.8050  -31.1420 C   0  0  0  0  0  0  0  0  0  0  0  0
   -2.8700   21.1300  -31.0680 C   0  0  0  0  0  0  0  0  0  0  0  0
   -1.7450   20.8140  -31.7650 C   0  0  0  0  0  0  0  0  0  0  0  0
   -0.6750   20.1380  -31.1950 O   0  0  0  0  0  0  0  0  0  0  0  0
   -0.7370   19.7360  -29.8490 C   0  0  0  0  0  0  0  0  0  0  0  0
   -1.8080   20.0540  -29.0600 C   0  0  0  0  0  0  0  0  0  0  0  0
   -1.8560   19.5520  -27.6600 C   0  0  0  0  0  0  0  0  0  0  0  0
   -2.8460   19.8120  -26.9250 O   0  0  0  0  0  0  0  0  0  0  0  0
   -0.7130   18.7660  -27.0840 C   0  0  0  0  0  0  0  0  0  0  0  0
    0.0290   18.0110  -28.1860 C   0  0  0  0  0  0  0  0  0  0  0  0
    0.4420   18.9720  -29.3040 C   0  0  0  0  0  0  0  0  0  0  0  0
   -2.9770   20.9070  -29.5810 C   0  0  1  0  0  0  0  0  0  0  0  0
   -3.0080   22.2480  -28.8610 C   0  0  0  0  0  0  0  0  0  0  0  0
   -4.1740   22.6240  -28.1610 C   0  0  0  0  0  0  0  0  0  0  0  0
   -4.2330   23.8370  -27.4720 C   0  0  0  0  0  0  0  0  0  0  0  0
   -3.1360   24.6970  -27.4740 C   0  0  0  0  0  0  0  0  0  0  0  0
   -1.9790   24.3500  -28.1720 C   0  0  0  0  0  0  0  0  0  0  0  0
   -1.9040   23.1370  -28.8690 C   0  0  0  0  0  0  0  0  0  0  0  0
   -0.4160   22.8010  -29.7500 Cl  0  0  0  0  0  0  0  0  0  0  0  0
    0.1568   20.9580  -33.6306 H   0  0  0  0  0  0  0  0  0  0  0  0
   -1.1077   20.2601  -34.6986 H   0  0  0  0  0  0  0  0  0  0  0  0
   -0.8095   22.0315  -34.6986 H   0  0  0  0  0  0  0  0  0  0  0  0
   -3.3040   22.4000  -34.0170 H   0  0  0  0  0  0  0  0  0  0  0  0
   -6.1190   20.8502  -32.4305 H   0  0  0  0  0  0  0  0  0  0  0  0
   -8.3041   21.9867  -32.0207 H   0  0  0  0  0  0  0  0  0  0  0  0
   -8.3543   24.2847  -31.0463 H   0  0  0  0  0  0  0  0  0  0  0  0
   -6.2208   25.4449  -30.4684 H   0  0  0  0  0  0  0  0  0  0  0  0
   -4.0338   24.3171  -30.8821 H   0  0  0  0  0  0  0  0  0  0  0  0
   -0.0156   19.4549  -26.5849 H   0  0  0  0  0  0  0  0  0  0  0  0
   -1.1111   18.0384  -26.3614 H   0  0  0  0  0  0  0  0  0  0  0  0
    0.9281   17.5407  -27.7614 H   0  0  0  0  0  0  0  0  0  0  0  0
   -0.6374   17.2419  -28.6036 H   0  0  0  0  0  0  0  0  0  0  0  0
    1.1764   19.6874  -28.9054 H   0  0  0  0  0  0  0  0  0  0  0  0
    0.8731   18.3782  -30.1235 H   0  0  0  0  0  0  0  0  0  0  0  0
   -3.9105   20.3610  -29.3798 H   0  0  0  0  0  0  0  0  0  0  0  0
   -5.0464   21.9539  -28.1581 H   0  0  0  0  0  0  0  0  0  0  0  0
   -5.1470   24.1145  -26.9265 H   0  0  0  0  0  0  0  0  0  0  0  0
   -3.1826   25.6492  -26.9253 H   0  0  0  0  0  0  0  0  0  0  0  0
   -1.1181   25.0347  -28.1751 H   0  0  0  0  0  0  0  0  0  0  0  0
  1  2  1  0
  2  3  1  0
  3  4  2  0
  4  5  1  0
  5  6  2  0
  6  7  1  0
  7  8  2  0
  8  9  1  0
  9 10  2  0
  4 11  1  0
 11 12  2  0
 12 13  1  0
 13 14  1  0
 14 15  2  0
 15 16  1  0
 16 17  2  0
 16 18  1  0
 18 19  1  0
 19 20  1  0
 15 21  1  0
 21 22  1  0
 22 23  2  0
 23 24  1  0
 24 25  2  0
 25 26  1  0
 26 27  2  0
 27 28  1  0
 12  2  1  0
 20 14  1  0
 27 22  1  0
 10  5  1  0
 21 11  1  0
  1 29  1  0
  1 30  1  0
  1 31  1  0
  3 32  1  0
  6 33  1  0
  7 34  1  0
  8 35  1  0
  9 36  1  0
 10 37  1  0
 18 38  1  0
 18 39  1  0
 19 40  1  0
 19 41  1  0
 20 42  1  0
 20 43  1  0
 21 44  1  6
 23 45  1  0
 24 46  1  0
 25 47  1  0
 26 48  1  0
M  CHG  1   3   1
M  END
>  <UniqueID>  (4) 
4

>  <SMILES>  (4) 
Cn1[nH+]c(-c2ccccc2)c2c1OC1=C(C(=O)CCC1)[C@H]2c1ccccc1Cl

>  <Energy>  (4) 
93.89451106291759

>  <Genealogy>  (4) 
Cn1[nH+]c(-c2ccccc2)c2c1OC1=C(C(=O)CCC1)C2c1ccccc1Cl (protonated)
Cn1[nH+]c(-c2ccccc2)c2c1OC1=C(C(=O)CCC1)[C@H]2c1ccccc1Cl (chirality)
Cn1[nH+]c(-c2ccccc2)c2c1OC1=C(C(=O)CCC1)[C@H]2c1ccccc1Cl (3D coordinates assigned)
Cn1[nH+]c(-c2ccccc2)c2c1OC1=C(C(=O)CCC1)[C@H]2c1ccccc1Cl (nonaromatic ring conformer: 93.89451106291759 kcal/mol)

>  <smiles>  (4) 
Cn1nc(-c2ccccc2)c2c1OC1=C(C(=O)CCC1)C2c1ccccc1Cl

>  <score_type>  (4) 
oracle

>  <origin>  (4) 
adg

>  <m_score__min__energy>  (4) 
-7.8300000000000001

>  <m_primary>  (4) 
energy

$$$$
4:0
     RDKit          3D

 36 38  0  0  0  0  0  0  0  0999 V2000
   -6.0670   18.1880  -33.7430 C   0  0  0  0  0  0  0  0  0  0  0  0
   -6.2920   19.3970  -32.9580 N   0  0  0  0  0  0  0  0  0  0  0  0
   -5.3310   20.2120  -32.5370 N   0  0  0  0  0  0  0  0  0  0  0  0
   -5.8990   21.2460  -31.8740 C   0  0  0  0  0  0  0  0  0  0  0  0
   -5.1670   22.3390  -31.2980 N   0  0  0  0  0  0  0  0  0  0  0  0
   -4.0730   22.0180  -30.3610 C   0  0  0  0  0  0  0  0  0  0  0  0
   -2.8360   22.9260  -30.5240 C   0  0  0  0  0  0  0  0  0  0  0  0
   -2.9740   24.2750  -29.7920 C   0  0  0  0  0  0  0  0  0  0  0  0
   -3.8750   25.2080  -30.4840 N   0  0  0  0  0  0  0  0  0  0  0  0
   -5.2620   24.7220  -30.5230 C   0  0  0  0  0  0  0  0  0  0  0  0
   -5.5110   23.7230  -31.6710 C   0  0  0  0  0  0  0  0  0  0  0  0
   -7.2740   21.0860  -31.9000 C   0  0  0  0  0  0  0  0  0  0  0  0
   -8.3320   21.8730  -31.4490 C   0  0  0  0  0  0  0  0  0  0  0  0
   -9.6380   21.4110  -31.6910 C   0  0  0  0  0  0  0  0  0  0  0  0
   -9.8540   20.1970  -32.3850 C   0  0  0  0  0  0  0  0  0  0  0  0
   -8.7640   19.4360  -32.8490 C   0  0  0  0  0  0  0  0  0  0  0  0
   -7.4800   19.9160  -32.5870 C   0  0  0  0  0  0  0  0  0  0  0  0
   -5.9084   17.3356  -33.0661 H   0  0  0  0  0  0  0  0  0  0  0  0
   -6.9445   17.9941  -34.3774 H   0  0  0  0  0  0  0  0  0  0  0  0
   -5.1785   18.3228  -34.3774 H   0  0  0  0  0  0  0  0  0  0  0  0
   -4.3090   20.0600  -32.6920 H   0  0  0  0  0  0  0  0  0  0  0  0
   -4.4514   22.1264  -29.3338 H   0  0  0  0  0  0  0  0  0  0  0  0
   -3.7504   20.9896  -30.5807 H   0  0  0  0  0  0  0  0  0  0  0  0
   -1.9589   22.3978  -30.1218 H   0  0  0  0  0  0  0  0  0  0  0  0
   -2.7296   23.1450  -31.5967 H   0  0  0  0  0  0  0  0  0  0  0  0
   -3.3688   24.0885  -28.7824 H   0  0  0  0  0  0  0  0  0  0  0  0
   -1.9770   24.7387  -29.7605 H   0  0  0  0  0  0  0  0  0  0  0  0
   -3.5420   25.2870  -31.4740 H   0  0  0  0  0  0  0  0  0  0  0  0
   -5.4873   24.2242  -29.5683 H   0  0  0  0  0  0  0  0  0  0  0  0
   -5.9139   25.5917  -30.6924 H   0  0  0  0  0  0  0  0  0  0  0  0
   -6.5753   23.7601  -31.9466 H   0  0  0  0  0  0  0  0  0  0  0  0
   -4.8654   24.0130  -32.5131 H   0  0  0  0  0  0  0  0  0  0  0  0
   -8.1519   22.8218  -30.9224 H   0  0  0  0  0  0  0  0  0  0  0  0
  -10.4986   21.9981  -31.3379 H   0  0  0  0  0  0  0  0  0  0  0  0
  -10.8809   19.8452  -32.5633 H   0  0  0  0  0  0  0  0  0  0  0  0
   -8.9191   18.4960  -33.3988 H   0  0  0  0  0  0  0  0  0  0  0  0
  1  2  1  0
  2  3  1  0
  3  4  2  0
  4  5  1  0
  5  6  1  0
  6  7  1  0
  7  8  1  0
  8  9  1  0
  9 10  1  0
 10 11  1  0
  4 12  1  0
 12 13  2  0
 13 14  1  0
 14 15  2  0
 15 16  1  0
 16 17  2  0
 17  2  1  0
 11  5  1  0
 17 12  1  0
  1 18  1  0
  1 19  1  0
  1 20  1  0
  3 21  1  0
  6 22  1  0
  6 23  1  0
  7 24  1  0
  7 25  1  0
  8 26  1  0
  8 27  1  0
  9 28  1  0
 10 29  1  0
 10 30  1  0
 11 31  1  0
 11 32  1  0
 13 33  1  0
 14 34  1  0
 15 35  1  0
 16 36  1  0
M  CHG  1   3   1
M  END
>  <UniqueID>  (5) 
5

>  <SMILES>  (5) 
Cn1[nH+]c(N2CCCNCC2)c2ccccc21

>  <Energy>  (5) 
86.65953769327159

>  <Genealogy>  (5) 
Cn1[nH+]c(N2CCCNCC2)c2ccccc21 (protonated)
Cn1[nH+]c(N2CCCNCC2)c2ccccc21 (3D coordinates assigned)
Cn1[nH+]c(N2CCCNCC2)c2ccccc21 (nonaromatic ring conformer: 86.65953769327159 kcal/mol)

>  <smiles>  (5) 
Cn1nc(N2CCCNCC2)c2ccccc21

>  <score_type>  (5) 
oracle

>  <origin>  (5) 
adg

>  <m_score__min__energy>  (5) 
-5.1900000000000004

>  <m_primary>  (5) 
energy

$$$$
5:0
     RDKit          3D

 51 52  0  0  0  0  0  0  0  0999 V2000
   -2.7210   20.6270  -28.0190 C   0  0  0  0  0  0  0  0  0  0  0  0
   -2.8830   21.0030  -29.4980 C   0  0  0  0  0  0  0  0  0  0  0  0
   -1.7400   21.7910  -30.0390 N   0  0  0  0  0  0  0  0  0  0  0  0
   -1.5720   21.5610  -31.5030 C   0  0  0  0  0  0  0  0  0  0  0  0
   -2.6900   20.7130  -32.1270 C   0  0  0  0  0  0  0  0  0  0  0  0
   -0.5050   21.5470  -29.2380 C   0  0  0  0  0  0  0  0  0  0  0  0
    0.1090   22.7910  -28.5560 C   0  0  0  0  0  0  0  0  0  0  0  0
   -0.7520   23.9040  -28.6740 O   0  0  0  0  0  0  0  0  0  0  0  0
   -1.6830   23.9310  -27.6070 C   0  0  0  0  0  0  0  0  0  0  0  0
   -2.9990   24.6020  -28.0310 C   0  0  0  0  0  0  0  0  0  0  0  0
   -3.2160   24.4650  -29.4400 O   0  0  0  0  0  0  0  0  0  0  0  0
   -4.4430   24.1790  -30.0620 C   0  0  0  0  0  0  0  0  0  0  0  0
   -5.6780   24.6560  -29.5770 C   0  0  0  0  0  0  0  0  0  0  0  0
   -6.8740   24.3130  -30.2270 C   0  0  0  0  0  0  0  0  0  0  0  0
   -6.8480   23.5060  -31.3790 C   0  0  0  0  0  0  0  0  0  0  0  0
   -8.1350   23.0570  -32.0240 C   0  0  0  0  0  0  0  0  0  0  0  0
   -8.1950   21.5630  -32.0320 C   0  0  0  0  0  0  0  0  0  0  0  0
   -8.9960   20.7740  -31.2150 C   0  0  0  0  0  0  0  0  0  0  0  0
   -8.7320   19.4030  -31.3390 C   0  0  0  0  0  0  0  0  0  0  0  0
   -7.7240   19.1130  -32.2480 C   0  0  0  0  0  0  0  0  0  0  0  0
   -7.1430   20.5590  -32.8800 S   0  0  0  0  0  0  0  0  0  0  0  0
   -5.6150   23.0460  -31.8690 C   0  0  0  0  0  0  0  0  0  0  0  0
   -4.4270   23.3900  -31.2210 C   0  0  0  0  0  0  0  0  0  0  0  0
   -3.0778   21.4551  -27.3889 H   0  0  0  0  0  0  0  0  0  0  0  0
   -3.3094   19.7228  -27.8040 H   0  0  0  0  0  0  0  0  0  0  0  0
   -1.6597   20.4336  -27.8040 H   0  0  0  0  0  0  0  0  0  0  0  0
   -2.9763   20.0771  -30.0845 H   0  0  0  0  0  0  0  0  0  0  0  0
   -3.7786   21.6371  -29.5747 H   0  0  0  0  0  0  0  0  0  0  0  0
   -1.9680   22.8080  -29.9170 H   0  0  0  0  0  0  0  0  0  0  0  0
   -1.5540   22.5380  -32.0082 H   0  0  0  0  0  0  0  0  0  0  0  0
   -0.6334   21.0029  -31.6351 H   0  0  0  0  0  0  0  0  0  0  0  0
   -3.2927   20.2559  -31.3284 H   0  0  0  0  0  0  0  0  0  0  0  0
   -3.3318   21.3534  -32.7498 H   0  0  0  0  0  0  0  0  0  0  0  0
   -2.2463   19.9223  -32.7498 H   0  0  0  0  0  0  0  0  0  0  0  0
   -0.7506   20.8176  -28.4521 H   0  0  0  0  0  0  0  0  0  0  0  0
    0.2516   21.1939  -29.9541 H   0  0  0  0  0  0  0  0  0  0  0  0
    0.2734   22.5737  -27.4903 H   0  0  0  0  0  0  0  0  0  0  0  0
    1.0626   23.0291  -29.0499 H   0  0  0  0  0  0  0  0  0  0  0  0
   -1.8932   22.8993  -27.2887 H   0  0  0  0  0  0  0  0  0  0  0  0
   -1.2474   24.5121  -26.7808 H   0  0  0  0  0  0  0  0  0  0  0  0
   -3.8333   24.1301  -27.4913 H   0  0  0  0  0  0  0  0  0  0  0  0
   -2.9392   25.6733  -27.7888 H   0  0  0  0  0  0  0  0  0  0  0  0
   -5.7044   25.2997  -28.6854 H   0  0  0  0  0  0  0  0  0  0  0  0
   -7.8350   24.6765  -29.8341 H   0  0  0  0  0  0  0  0  0  0  0  0
   -8.9883   23.4550  -31.4552 H   0  0  0  0  0  0  0  0  0  0  0  0
   -8.1764   23.4307  -33.0577 H   0  0  0  0  0  0  0  0  0  0  0  0
   -9.7605   21.1843  -30.5388 H   0  0  0  0  0  0  0  0  0  0  0  0
   -9.2717   18.6312  -30.7706 H   0  0  0  0  0  0  0  0  0  0  0  0
   -7.3656   18.1068  -32.5107 H   0  0  0  0  0  0  0  0  0  0  0  0
   -5.5849   22.4119  -32.7673 H   0  0  0  0  0  0  0  0  0  0  0  0
   -3.4664   23.0376  -31.6248 H   0  0  0  0  0  0  0  0  0  0  0  0
  1  2  1  0
  2  3  1  0
  3  4  1  0
  4  5  1  0
  3  6  1  0
  6  7  1  0
  7  8  1  0
  8  9  1  0
  9 10  1  0
 10 11  1  0
 11 12  1  0
 12 13  2  0
 13 14  1  0
 14 15  2  0
 15 16  1  0
 16 17  1  0
 17 18  2  0
 18 19  1  0
 19 20  2  0
 20 21  1  0
 15 22  1  0
 22 23  2  0
 23 12  1  0
 21 17  1  0
  1 24  1  0
  1 25  1  0
  1 26  1  0
  2 27  1  0
  2 28  1  0
  3 29  1  0
  4 30  1  0
  4 31  1  0
  5 32  1  0
  5 33  1  0
  5 34  1  0
  6 35  1  0
  6 36  1  0
  7 37  1  0
  7 38  1  0
  9 39  1  0
  9 40  1  0
 10 41  1  0
 10 42  1  0
 13 43  1  0
 14 44  1  0
 16 45  1  0
 16 46  1  0
 18 47  1  0
 19 48  1  0
 20 49  1  0
 22 50  1  0
 23 51  1  0
M  CHG  1   3   1
M  END
>  <UniqueID>  (6) 
6

>  <SMILES>  (6) 
CC[NH+](CC)CCOCCOc1ccc(Cc2cccs2)cc1

>  <Energy>  (6) 
76.15323287947311

>  <Genealogy>  (6) 
CC[NH+](CC)CCOCCOc1ccc(Cc2cccs2)cc1 (protonated)
CC[NH+](CC)CCOCCOc1ccc(Cc2cccs2)cc1 (3D coordinates assigned)
CC[NH+](CC)CCOCCOc1ccc(Cc2cccs2)cc1 (optimized conformer: 76.15323287947311 kcal/mol)

>  <smiles>  (6) 
CCN(CC)CCOCCOc1ccc(Cc2cccs2)cc1

>  <score_type>  (6) 
oracle

>  <origin>  (6) 
adg

>  <m_score__min__energy>  (6) 
-7.9400000000000004

>  <m_primary>  (6) 
energy

$$$$
6:0
     RDKit          3D

 83 85  0  0  0  0  0  0  0  0999 V2000
   -0.5960   25.2700  -26.1160 C   0  0  0  0  0  0  0  0  0  0  0  0
   -0.4960   25.6630  -27.5920 C   0  0  0  0  0  0  0  0  0  0  0  0
    0.1010   24.5630  -28.3800 N   0  0  0  0  0  0  0  0  0  0  0  0
    0.6960   23.5610  -27.4800 C   0  0  0  0  0  0  0  0  0  0  0  0
   -0.8900   23.9270  -29.2780 C   0  0  0  0  0  0  0  0  0  0  0  0
   -2.2910   24.0620  -28.6820 C   0  0  0  0  0  0  0  0  0  0  0  0
   -3.2300   24.2200  -29.7240 O   0  0  0  0  0  0  0  0  0  0  0  0
   -4.5090   24.5350  -29.2150 C   0  0  0  0  0  0  0  0  0  0  0  0
   -5.4360   24.8590  -30.3800 C   0  0  0  0  0  0  0  0  0  0  0  0
   -5.0290   24.1130  -31.5080 O   0  0  0  0  0  0  0  0  0  0  0  0
   -6.1360   23.8050  -32.3370 C   0  0  0  0  0  0  0  0  0  0  0  0
   -7.3610   23.3400  -31.5260 C   0  0  0  0  0  0  0  0  0  0  0  0
   -8.2390   22.4600  -32.3140 N   0  0  0  0  0  0  0  0  0  0  0  0
   -9.1250   21.6300  -31.4760 C   0  0  0  0  0  0  0  0  0  0  0  0
   -8.5270   20.2280  -31.2800 C   0  0  0  0  0  0  0  0  0  0  0  0
   -8.2840   19.4520  -32.5920 C   0  0  0  0  0  0  0  0  0  0  0  0
   -7.2820   20.0840  -33.4770 N   0  0  0  0  0  0  0  0  0  0  0  0
   -5.9770   19.4170  -33.3770 C   0  0  0  0  0  0  0  0  0  0  0  0
   -4.8610   20.4250  -33.0310 C   0  0  0  0  0  0  0  0  0  0  0  0
   -4.8630   20.8400  -31.5420 C   0  0  0  0  0  0  0  0  0  0  0  0
   -3.8050   21.8060  -31.1800 N   0  0  0  0  0  0  0  0  0  0  0  0
   -2.5200   21.1800  -30.8780 C   0  0  0  0  0  0  0  0  0  0  0  0
   -2.1920   20.7550  -29.5540 C   0  0  0  0  0  0  0  0  0  0  0  0
   -3.0820   20.9120  -28.4560 C   0  0  0  0  0  0  0  0  0  0  0  0
   -2.6880   20.6020  -27.1570 C   0  0  0  0  0  0  0  0  0  0  0  0
   -1.4120   20.1220  -26.9110 C   0  0  0  0  0  0  0  0  0  0  0  0
   -0.5470   19.8790  -27.9690 C   0  0  0  0  0  0  0  0  0  0  0  0
   -0.9310   20.1370  -29.3110 C   0  0  0  0  0  0  0  0  0  0  0  0
   -0.1070   19.7990  -30.3640 N   0  0  0  0  0  0  0  0  0  0  0  0
    1.0120   18.8520  -30.1440 C   0  0  0  0  0  0  0  0  0  0  0  0
   -0.3330   20.3250  -31.6200 C   0  0  0  0  0  0  0  0  0  0  0  0
    0.6400   20.2140  -32.6510 C   0  0  0  0  0  0  0  0  0  0  0  0
    0.4070   20.7200  -33.9250 C   0  0  0  0  0  0  0  0  0  0  0  0
   -0.7810   21.3710  -34.2040 C   0  0  0  0  0  0  0  0  0  0  0  0
   -1.7400   21.5350  -33.2100 C   0  0  0  0  0  0  0  0  0  0  0  0
   -1.5430   21.0190  -31.9030 C   0  0  0  0  0  0  0  0  0  0  0  0
   -0.3734   26.1450  -25.4877 H   0  0  0  0  0  0  0  0  0  0  0  0
   -1.6137   24.9128  -25.8998 H   0  0  0  0  0  0  0  0  0  0  0  0
    0.1272   24.4698  -25.8998 H   0  0  0  0  0  0  0  0  0  0  0  0
   -1.5029   25.8802  -27.9781 H   0  0  0  0  0  0  0  0  0  0  0  0
    0.1437   26.5534  -27.6812 H   0  0  0  0  0  0  0  0  0  0  0  0
    0.5205   23.8565  -26.4351 H   0  0  0  0  0  0  0  0  0  0  0  0
    0.2337   22.5804  -27.6663 H   0  0  0  0  0  0  0  0  0  0  0  0
    1.7783   23.4975  -27.6663 H   0  0  0  0  0  0  0  0  0  0  0  0
   -0.8621   24.4207  -30.2606 H   0  0  0  0  0  0  0  0  0  0  0  0
   -0.6451   22.8607  -29.3917 H   0  0  0  0  0  0  0  0  0  0  0  0
   -2.5327   23.1579  -28.1040 H   0  0  0  0  0  0  0  0  0  0  0  0
   -2.3258   24.9395  -28.0196 H   0  0  0  0  0  0  0  0  0  0  0  0
   -4.9058   23.6754  -28.6550 H   0  0  0  0  0  0  0  0  0  0  0  0
   -4.4396   25.4015  -28.5410 H   0  0  0  0  0  0  0  0  0  0  0  0
   -6.4698   24.5931  -30.1146 H   0  0  0  0  0  0  0  0  0  0  0  0
   -5.3887   25.9343  -30.6068 H   0  0  0  0  0  0  0  0  0  0  0  0
   -6.4106   24.7035  -32.9091 H   0  0  0  0  0  0  0  0  0  0  0  0
   -5.8397   22.9807  -33.0024 H   0  0  0  0  0  0  0  0  0  0  0  0
   -7.0125   22.7921  -30.6381 H   0  0  0  0  0  0  0  0  0  0  0  0
   -7.9391   24.2312  -31.2404 H   0  0  0  0  0  0  0  0  0  0  0  0
   -7.6080   21.8180  -32.8530 H   0  0  0  0  0  0  0  0  0  0  0  0
   -9.2487   22.1107  -30.4944 H   0  0  0  0  0  0  0  0  0  0  0  0
  -10.0991   21.5330  -31.9777 H   0  0  0  0  0  0  0  0  0  0  0  0
   -7.5640   20.3340  -30.7590 H   0  0  0  0  0  0  0  0  0  0  0  0
   -9.2636   19.6491  -30.7034 H   0  0  0  0  0  0  0  0  0  0  0  0
   -7.9347   18.4403  -32.3380 H   0  0  0  0  0  0  0  0  0  0  0  0
   -9.2372   19.4401  -33.1409 H   0  0  0  0  0  0  0  0  0  0  0  0
   -7.6070   20.0600  -34.4700 H   0  0  0  0  0  0  0  0  0  0  0  0
   -6.0251   18.6505  -32.5895 H   0  0  0  0  0  0  0  0  0  0  0  0
   -5.7440   18.9592  -34.3497 H   0  0  0  0  0  0  0  0  0  0  0  0
   -3.8891   19.9664  -33.2658 H   0  0  0  0  0  0  0  0  0  0  0  0
   -5.0410   21.3325  -33.6260 H   0  0  0  0  0  0  0  0  0  0  0  0
   -5.8380   21.2943  -31.3120 H   0  0  0  0  0  0  0  0  0  0  0  0
   -4.6696   19.9271  -30.9596 H   0  0  0  0  0  0  0  0  0  0  0  0
   -3.6810   22.4850  -31.9640 H   0  0  0  0  0  0  0  0  0  0  0  0
   -4.1610   22.4190  -30.4250 H   0  0  0  0  0  0  0  0  0  0  0  0
   -4.1009   21.2854  -28.6363 H   0  0  0  0  0  0  0  0  0  0  0  0
   -3.3924   20.7387  -26.3232 H   0  0  0  0  0  0  0  0  0  0  0  0
   -1.0845   19.9336  -25.8779 H   0  0  0  0  0  0  0  0  0  0  0  0
    0.4566   19.4783  -27.7633 H   0  0  0  0  0  0  0  0  0  0  0  0
    1.1713   18.7172  -29.0640 H   0  0  0  0  0  0  0  0  0  0  0  0
    0.7673   17.8825  -30.6024 H   0  0  0  0  0  0  0  0  0  0  0  0
    1.9277   19.2536  -30.6024 H   0  0  0  0  0  0  0  0  0  0  0  0
    1.5976   19.7172  -32.4361 H   0  0  0  0  0  0  0  0  0  0  0  0
    1.1675   20.6025  -34.7110 H   0  0  0  0  0  0  0  0  0  0  0  0
   -0.9681   21.7604  -35.2156 H   0  0  0  0  0  0  0  0  0  0  0  0
   -2.6696   22.0755  -33.4417 H   0  0  0  0  0  0  0  0  0  0  0  0
  1  2  1  0
  2  3  1  0
  3  4  1  0
  3  5  1  0
  5  6  1  0
  6  7  1  0
  7  8  1  0
  8  9  1  0
  9 10  1  0
 10 11  1  0
 11 12  1  0
 12 13  1  0
 13 14  1  0
 14 15  1  0
 15 16  1  0
 16 17  1  0
 17 18  1  0
 18 19  1  0
 19 20  1  0
 20 21  1  0
 21 22  1  0
 22 23  2  0
 23 24  1  0
 24 25  2  0
 25 26  1  0
 26 27  2  0
 27 28  1  0
 28 29  2  0
 29 30  1  0
 29 31  1  0
 31 32  2  0
 32 33  1  0
 33 34  2  0
 34 35  1  0
 35 36  2  0
 36 22  1  0
 28 23  1  0
 36 31  1  0
  1 37  1  0
  1 38  1  0
  1 39  1  0
  2 40  1  0
  2 41  1  0
  4 42  1  0
  4 43  1  0
  4 44  1  0
  5 45  1  0
  5 46  1  0
  6 47  1  0
  6 48  1  0
  8 49  1  0
  8 50  1  0
  9 51  1  0
  9 52  1  0
 11 53  1  0
 11 54  1  0
 12 55  1  0
 12 56  1  0
 13 57  1  0
 14 58  1  0
 14 59  1  0
 15 60  1  0
 15 61  1  0
 16 62  1  0
 16 63  1  0
 17 64  1  0
 18 65  1  0
 18 66  1  0
 19 67  1  0
 19 68  1  0
 20 69  1  0
 20 70  1  0
 21 71  1  0
 21 72  1  0
 24 73  1  0
 25 74  1  0
 26 75  1  0
 27 76  1  0
 30 77  1  0
 30 78  1  0
 30 79  1  0
 32 80  1  0
 33 81  1  0
 34 82  1  0
 35 83  1  0
M  CHG  2  21   1  29   1
M  END
>  <UniqueID>  (7) 
7

>  <SMILES>  (7) 
CCN(C)CCOCCOCCNCCCNCCC[NH2+]c1c2ccccc2[n+](C)c2ccccc12

>  <Energy>  (7) 
104.26928169456528

>  <Genealogy>  (7) 
CCN(C)CCOCCOCCNCCCNCCC[NH2+]c1c2ccccc2[n+](C)c2ccccc12 (protonated)
CCN(C)CCOCCOCCNCCCNCCC[NH2+]c1c2ccccc2[n+](C)c2ccccc12 (3D coordinates assigned)
CCN(C)CCOCCOCCNCCCNCCC[NH2+]c1c2ccccc2[n+](C)c2ccccc12 (optimized conformer: 104.26928169456528 kcal/mol)

>  <smiles>  (7) 
CCN(C)CCOCCOCCNCCCNCCCNc1c2ccccc2[n+](C)c2ccccc12

>  <score_type>  (7) 
oracle

>  <origin>  (7) 
adg

>  <m_score__min__energy>  (7) 
-8.4000000000000004

>  <m_primary>  (7) 
energy

$$$$
7:0
     RDKit          3D

 53 56  0  0  0  0  0  0  0  0999 V2000
   -6.6770   21.2760  -33.0990 C   0  0  0  0  0  0  0  0  0  0  0  0
   -7.5740   21.3580  -31.9480 N   0  0  0  0  0  0  0  0  0  0  0  0
   -8.6680   20.6050  -31.7000 C   0  0  0  0  0  0  0  0  0  0  0  0
   -9.2830   19.3040  -32.7720 S   0  0  0  0  0  0  0  0  0  0  0  0
   -8.2910   18.0050  -31.9570 C   0  0  0  0  0  0  0  0  0  0  0  0
   -7.0520   18.6000  -31.2820 C   0  0  0  0  0  0  0  0  0  0  0  0
   -5.7450   18.1060  -31.9260 C   0  0  0  0  0  0  0  0  0  0  0  0
   -4.8280   19.2340  -32.2070 N   0  0  0  0  0  0  0  0  0  0  0  0
   -4.5190   20.0180  -30.9700 C   0  0  0  0  0  0  0  0  0  0  0  0
   -3.1200   20.6860  -30.8960 C   0  0  0  0  0  0  0  0  0  0  0  0
   -2.6610   21.5460  -32.1210 C   0  0  1  0  0  0  0  0  0  0  0  0
   -1.2620   21.1140  -32.5890 C   0  0  0  0  0  0  0  0  0  0  0  0
   -1.5000   20.0260  -33.6470 C   0  0  0  0  0  0  0  0  0  0  0  0
   -3.0250   19.9420  -33.8280 C   0  0  2  0  0  0  0  0  0  0  0  0
   -3.4940   21.3200  -33.3710 C   0  0  0  0  0  0  0  0  0  0  0  0
   -3.6390   18.7860  -32.9730 C   0  0  0  0  0  0  0  0  0  0  0  0
   -9.2570   20.9440  -30.5370 N   0  0  0  0  0  0  0  0  0  0  0  0
   -8.5340   21.9310  -30.0330 N   0  0  0  0  0  0  0  0  0  0  0  0
   -7.5270   22.1970  -30.8880 C   0  0  0  0  0  0  0  0  0  0  0  0
   -6.5230   23.2590  -30.6600 C   0  0  0  0  0  0  0  0  0  0  0  0
   -6.8570   24.3930  -29.9050 C   0  0  0  0  0  0  0  0  0  0  0  0
   -5.9150   25.4030  -29.7060 C   0  0  0  0  0  0  0  0  0  0  0  0
   -4.6470   25.2790  -30.2740 C   0  0  0  0  0  0  0  0  0  0  0  0
   -4.3410   24.1860  -31.0210 N   0  0  0  0  0  0  0  0  0  0  0  0
   -5.2390   23.1850  -31.2270 C   0  0  0  0  0  0  0  0  0  0  0  0
   -5.6386   21.1811  -32.7486 H   0  0  0  0  0  0  0  0  0  0  0  0
   -6.9404   20.3982  -33.7073 H   0  0  0  0  0  0  0  0  0  0  0  0
   -6.7769   22.1870  -33.7073 H   0  0  0  0  0  0  0  0  0  0  0  0
   -8.9090   17.5048  -31.1968 H   0  0  0  0  0  0  0  0  0  0  0  0
   -7.9612   17.2859  -32.7213 H   0  0  0  0  0  0  0  0  0  0  0  0
   -7.0955   19.6960  -31.3649 H   0  0  0  0  0  0  0  0  0  0  0  0
   -7.0530   18.2774  -30.2304 H   0  0  0  0  0  0  0  0  0  0  0  0
   -5.2499   17.4032  -31.2397 H   0  0  0  0  0  0  0  0  0  0  0  0
   -5.9903   17.6107  -32.8771 H   0  0  0  0  0  0  0  0  0  0  0  0
   -5.2730   20.8143  -30.8837 H   0  0  0  0  0  0  0  0  0  0  0  0
   -4.5301   19.2820  -30.1525 H   0  0  0  0  0  0  0  0  0  0  0  0
   -3.1150   21.3421  -30.0131 H   0  0  0  0  0  0  0  0  0  0  0  0
   -2.4109   19.8457  -30.8637 H   0  0  0  0  0  0  0  0  0  0  0  0
   -2.7335   22.5813  -31.7564 H   0  0  0  0  0  0  0  0  0  0  0  0
   -0.7237   21.9665  -33.0288 H   0  0  0  0  0  0  0  0  0  0  0  0
   -0.6490   20.7437  -31.7541 H   0  0  0  0  0  0  0  0  0  0  0  0
   -1.0166   20.3023  -34.5957 H   0  0  0  0  0  0  0  0  0  0  0  0
   -1.0760   19.0599  -33.3359 H   0  0  0  0  0  0  0  0  0  0  0  0
   -3.3360   19.7089  -34.8570 H   0  0  0  0  0  0  0  0  0  0  0  0
   -3.2849   22.0852  -34.1331 H   0  0  0  0  0  0  0  0  0  0  0  0
   -4.5782   21.3809  -33.1954 H   0  0  0  0  0  0  0  0  0  0  0  0
   -3.9366   17.9670  -33.6443 H   0  0  0  0  0  0  0  0  0  0  0  0
   -2.8765   18.4528  -32.2536 H   0  0  0  0  0  0  0  0  0  0  0  0
   -8.7450   22.4200  -29.1360 H   0  0  0  0  0  0  0  0  0  0  0  0
   -7.8627   24.4862  -29.4693 H   0  0  0  0  0  0  0  0  0  0  0  0
   -6.1701   26.2893  -29.1064 H   0  0  0  0  0  0  0  0  0  0  0  0
   -3.8948   26.0661  -30.1172 H   0  0  0  0  0  0  0  0  0  0  0  0
   -4.9593   22.3150  -31.8392 H   0  0  0  0  0  0  0  0  0  0  0  0
  1  2  1  0
  2  3  1  0
  3  4  1  0
  4  5  1  0
  5  6  1  0
  6  7  1  0
  7  8  1  0
  8  9  1  0
  9 10  1  0
 10 11  1  0
 11 12  1  0
 12 13  1  0
 13 14  1  0
 14 15  1  0
 14 16  1  0
  3 17  2  0
 17 18  1  0
 18 19  2  0
 19 20  1  0
 20 21  2  0
 21 22  1  0
 22 23  2  0
 23 24  1  0
 24 25  2  0
 19  2  1  0
 25 20  1  0
 16  8  1  0
 15 11  1  0
  1 26  1  0
  1 27  1  0
  1 28  1  0
  5 29  1  0
  5 30  1  0
  6 31  1  0
  6 32  1  0
  7 33  1  0
  7 34  1  0
  9 35  1  0
  9 36  1  0
 10 37  1  0
 10 38  1  0
 11 39  1  1
 12 40  1  0
 12 41  1  0
 13 42  1  0
 13 43  1  0
 14 44  1  6
 15 45  1  0
 15 46  1  0
 16 47  1  0
 16 48  1  0
 18 49  1  0
 21 50  1  0
 22 51  1  0
 23 52  1  0
 25 53  1  0
M  CHG  1  18   1
M  END
>  <UniqueID>  (8) 
8

>  <SMILES>  (8) 
Cn1c(SCCCN2CC[C@H]3CC[C@H](C3)C2)n[nH+]c1-c1cccnc1

>  <Energy>  (8) 
117.54994362558688

>  <Genealogy>  (8) 
Cn1c(SCCCN2CCC3CCC(C3)C2)n[nH+]c1-c1cccnc1 (protonated)
Cn1c(SCCCN2CC[C@H]3CC[C@H](C3)C2)n[nH+]c1-c1cccnc1 (chirality)
Cn1c(SCCCN2CC[C@H]3CC[C@H](C3)C2)n[nH+]c1-c1cccnc1 (3D coordinates assigned)
Cn1c(SCCCN2CC[C@H]3CC[C@H](C3)C2)n[nH+]c1-c1cccnc1 (nonaromatic ring conformer: 117.54994362558688 kcal/mol)

>  <smiles>  (8) 
Cn1c(SCCCN2CCC3CCC(C3)C2)nnc1-c1cccnc1

>  <score_type>  (8) 
oracle

>  <origin>  (8) 
adg

>  <m_score__min__energy>  (8) 
-7.4199999999999999

>  <m_primary>  (8) 
energy

$$$$
8:0
     RDKit          3D

 34 35  0  0  0  0  0  0  0  0999 V2000
   -3.8200   24.4420  -27.1910 C   0  0  0  0  0  0  0  0  0  0  0  0
   -3.2930   23.7930  -28.2310 C   0  0  0  0  0  0  0  0  0  0  0  0
   -2.5990   24.5360  -29.3370 C   0  0  0  0  0  0  0  0  0  0  0  0
   -3.5180   24.8660  -30.3790 O   0  0  0  0  0  0  0  0  0  0  0  0
   -4.6760   24.1370  -30.6990 C   0  0  0  0  0  0  0  0  0  0  0  0
   -5.9700   24.6010  -30.4070 C   0  0  0  0  0  0  0  0  0  0  0  0
   -7.0910   23.8410  -30.7510 C   0  0  0  0  0  0  0  0  0  0  0  0
   -6.9440   22.5960  -31.4010 C   0  0  0  0  0  0  0  0  0  0  0  0
   -8.0480   21.7920  -31.7890 C   0  0  0  0  0  0  0  0  0  0  0  0
   -9.4630   22.2940  -31.5790 C   0  0  0  0  0  0  0  0  0  0  0  0
   -7.7880   20.5080  -32.3450 C   0  0  0  0  0  0  0  0  0  0  0  0
   -8.8950   19.5370  -32.7150 C   0  0  0  0  0  0  0  0  0  0  0  0
   -9.1020   18.4970  -31.6170 C   0  0  0  0  0  0  0  0  0  0  0  0
   -6.4460   20.1430  -32.5880 C   0  0  0  0  0  0  0  0  0  0  0  0
   -6.1710   19.0400  -33.1300 O   0  0  0  0  0  0  0  0  0  0  0  0
   -5.4510   20.9510  -32.2510 O   0  0  0  0  0  0  0  0  0  0  0  0
   -5.6380   22.1270  -31.6720 C   0  0  0  0  0  0  0  0  0  0  0  0
   -4.5240   22.8990  -31.3280 C   0  0  0  0  0  0  0  0  0  0  0  0
   -4.3244   23.8807  -26.3907 H   0  0  0  0  0  0  0  0  0  0  0  0
   -3.7500   25.5383  -27.1340 H   0  0  0  0  0  0  0  0  0  0  0  0
   -3.3679   22.6966  -28.2793 H   0  0  0  0  0  0  0  0  0  0  0  0
   -2.1644   25.4620  -28.9324 H   0  0  0  0  0  0  0  0  0  0  0  0
   -1.8093   23.8931  -29.7531 H   0  0  0  0  0  0  0  0  0  0  0  0
   -6.1014   25.5702  -29.9036 H   0  0  0  0  0  0  0  0  0  0  0  0
   -8.0974   24.2160  -30.5132 H   0  0  0  0  0  0  0  0  0  0  0  0
   -9.6698   22.3674  -30.5011 H   0  0  0  0  0  0  0  0  0  0  0  0
   -9.5726   23.2859  -32.0418 H   0  0  0  0  0  0  0  0  0  0  0  0
  -10.1732   21.5930  -32.0418 H   0  0  0  0  0  0  0  0  0  0  0  0
   -9.8305   20.0970  -32.8607 H   0  0  0  0  0  0  0  0  0  0  0  0
   -8.6086   19.0162  -33.6406 H   0  0  0  0  0  0  0  0  0  0  0  0
   -9.0061   18.9788  -30.6328 H   0  0  0  0  0  0  0  0  0  0  0  0
  -10.1054   18.0567  -31.7135 H   0  0  0  0  0  0  0  0  0  0  0  0
   -8.3437   17.7060  -31.7135 H   0  0  0  0  0  0  0  0  0  0  0  0
   -3.5144   22.5264  -31.5558 H   0  0  0  0  0  0  0  0  0  0  0  0
  1  2  2  0
  2  3  1  0
  3  4  1  0
  4  5  1  0
  5  6  2  0
  6  7  1  0
  7  8  2  0
  8  9  1  0
  9 10  1  0
  9 11  2  0
 11 12  1  0
 12 13  1  0
 11 14  1  0
 14 15  2  0
 14 16  1  0
 16 17  1  0
 17 18  2  0
 18  5  1  0
 17  8  1  0
  1 19  1  0
  1 20  1  0
  2 21  1  0
  3 22  1  0
  3 23  1  0
  6 24  1  0
  7 25  1  0
 10 26  1  0
 10 27  1  0
 10 28  1  0
 12 29  1  0
 12 30  1  0
 13 31  1  0
 13 32  1  0
 13 33  1  0
 18 34  1  0
M  END
>  <UniqueID>  (9) 
9

>  <SMILES>  (9) 
C=CCOc1ccc2c(C)c(CC)c(=O)oc2c1

>  <Energy>  (9) 
38.92846115170669

>  <Genealogy>  (9) 
C=CCOc1ccc2c(C)c(CC)c(=O)oc2c1 (3D coordinates assigned)
C=CCOc1ccc2c(C)c(CC)c(=O)oc2c1 (optimized conformer: 38.92846115170669 kcal/mol)

>  <smiles>  (9) 
C=CCOc1ccc2c(C)c(CC)c(=O)oc2c1

>  <score_type>  (9) 
oracle

>  <origin>  (9) 
adg

>  <m_score__min__energy>  (9) 
-7.46

>  <m_primary>  (9) 
energy

$$$$
9:0
     RDKit          3D

 47 49  0  0  0  0  0  0  0  0999 V2000
   -2.0980   21.5030  -31.4090 C   0  0  0  0  0  0  0  0  0  0  0  0
   -2.0520   22.6740  -30.4140 C   0  0  0  0  0  0  0  0  0  0  0  0
   -3.3600   22.9890  -29.7900 N   0  0  0  0  0  0  0  0  0  0  0  0
   -3.7260   22.0410  -28.7130 C   0  0  0  0  0  0  0  0  0  0  0  0
   -2.7660   22.2030  -27.5420 C   0  0  0  0  0  0  0  0  0  0  0  0
   -3.5060   24.4150  -29.4190 C   0  0  0  0  0  0  0  0  0  0  0  0
   -4.9810   24.7780  -29.1910 C   0  0  0  0  0  0  0  0  0  0  0  0
   -5.8050   25.4550  -30.6780 S   0  0  0  0  0  0  0  0  0  0  0  0
   -6.2690   23.8560  -31.3430 C   0  0  0  0  0  0  0  0  0  0  0  0
   -5.3320   23.0890  -31.9700 N   0  0  0  0  0  0  0  0  0  0  0  0
   -5.6260   21.8640  -32.4900 C   0  0  0  0  0  0  0  0  0  0  0  0
   -4.6220   21.1780  -33.2400 N   0  0  0  0  0  0  0  0  0  0  0  0
   -6.9390   21.3710  -32.3400 C   0  0  0  0  0  0  0  0  0  0  0  0
   -7.4970   20.1230  -32.7110 C   0  0  0  0  0  0  0  0  0  0  0  0
   -6.7500   18.9360  -33.1700 C   0  0  0  0  0  0  0  0  0  0  0  0
   -6.6140   17.8190  -32.3310 C   0  0  0  0  0  0  0  0  0  0  0  0
   -5.8820   16.7060  -32.7540 C   0  0  0  0  0  0  0  0  0  0  0  0
   -5.2680   16.7060  -34.0110 C   0  0  0  0  0  0  0  0  0  0  0  0
   -4.2680   15.1840  -34.5860 Br  0  0  0  0  0  0  0  0  0  0  0  0
   -5.3830   17.8240  -34.8440 C   0  0  0  0  0  0  0  0  0  0  0  0
   -6.1140   18.9390  -34.4240 C   0  0  0  0  0  0  0  0  0  0  0  0
   -8.8690   20.0510  -32.4510 C   0  0  0  0  0  0  0  0  0  0  0  0
   -9.3850   21.4810  -31.7190 S   0  0  0  0  0  0  0  0  0  0  0  0
   -7.8750   22.2050  -31.7490 C   0  0  0  0  0  0  0  0  0  0  0  0
   -7.5570   23.4240  -31.2540 N   0  0  0  0  0  0  0  0  0  0  0  0
   -2.1353   20.5530  -30.8557 H   0  0  0  0  0  0  0  0  0  0  0  0
   -2.9933   21.5943  -32.0416 H   0  0  0  0  0  0  0  0  0  0  0  0
   -1.1983   21.5238  -32.0416 H   0  0  0  0  0  0  0  0  0  0  0  0
   -1.3399   22.4207  -29.6148 H   0  0  0  0  0  0  0  0  0  0  0  0
   -1.7499   23.5643  -30.9851 H   0  0  0  0  0  0  0  0  0  0  0  0
   -4.7525   22.2481  -28.3762 H   0  0  0  0  0  0  0  0  0  0  0  0
   -3.6648   21.0116  -29.0959 H   0  0  0  0  0  0  0  0  0  0  0  0
   -3.3212   22.1093  -26.5970 H   0  0  0  0  0  0  0  0  0  0  0  0
   -1.9922   21.4227  -27.5916 H   0  0  0  0  0  0  0  0  0  0  0  0
   -2.2911   23.1940  -27.5916 H   0  0  0  0  0  0  0  0  0  0  0  0
   -2.9419   24.6053  -28.4940 H   0  0  0  0  0  0  0  0  0  0  0  0
   -3.1172   25.0322  -30.2424 H   0  0  0  0  0  0  0  0  0  0  0  0
   -5.5184   23.8707  -28.8780 H   0  0  0  0  0  0  0  0  0  0  0  0
   -5.0054   25.5639  -28.4218 H   0  0  0  0  0  0  0  0  0  0  0  0
   -4.2350   20.2610  -32.9300 H   0  0  0  0  0  0  0  0  0  0  0  0
   -4.4110   21.4820  -34.2170 H   0  0  0  0  0  0  0  0  0  0  0  0
   -7.0852   17.8196  -31.3370 H   0  0  0  0  0  0  0  0  0  0  0  0
   -5.7885   15.8285  -32.0973 H   0  0  0  0  0  0  0  0  0  0  0  0
   -4.8974   17.8257  -35.8310 H   0  0  0  0  0  0  0  0  0  0  0  0
   -6.1919   19.8212  -35.0764 H   0  0  0  0  0  0  0  0  0  0  0  0
   -9.5142   19.1922  -32.6878 H   0  0  0  0  0  0  0  0  0  0  0  0
   -8.2880   24.0160  -30.7980 H   0  0  0  0  0  0  0  0  0  0  0  0
  1  2  1  0
  2  3  1  0
  3  4  1  0
  4  5  1  0
  3  6  1  0
  6  7  1  0
  7  8  1  0
  8  9  1  0
  9 10  2  0
 10 11  1  0
 11 12  1  0
 11 13  2  0
 13 14  1  0
 14 15  1  0
 15 16  2  0
 16 17  1  0
 17 18  2  0
 18 19  1  0
 18 20  1  0
 20 21  2  0
 14 22  2  0
 22 23  1  0
 23 24  1  0
 24 25  2  0
 25  9  1  0
 24 13  1  0
 21 15  1  0
  1 26  1  0
  1 27  1  0
  1 28  1  0
  2 29  1  0
  2 30  1  0
  4 31  1  0
  4 32  1  0
  5 33  1  0
  5 34  1  0
  5 35  1  0
  6 36  1  0
  6 37  1  0
  7 38  1  0
  7 39  1  0
 12 40  1  0
 12 41  1  0
 16 42  1  0
 17 43  1  0
 20 44  1  0
 21 45  1  0
 22 46  1  0
 25 47  1  0
M  CHG  1  25   1
M  END
>  <UniqueID>  (10) 
10

>  <SMILES>  (10) 
CCN(CC)CCSc1nc(N)c2c(-c3ccc(Br)cc3)csc2[nH+]1

>  <Energy>  (10) 
88.74964622414946

>  <Genealogy>  (10) 
CCN(CC)CCSc1nc(N)c2c(-c3ccc(Br)cc3)csc2[nH+]1 (protonated)
CCN(CC)CCSc1nc(N)c2c(-c3ccc(Br)cc3)csc2[nH+]1 (3D coordinates assigned)
CCN(CC)CCSc1nc(N)c2c(-c3ccc(Br)cc3)csc2[nH+]1 (optimized conformer: 88.74964622414946 kcal/mol)

>  <smiles>  (10) 
CCN(CC)CCSc1nc(N)c2c(-c3ccc(Br)cc3)csc2n1

>  <score_type>  (10) 
oracle

>  <origin>  (10) 
adg

>  <m_score__min__energy>  (10) 
-8.1600000000000001

>  <m_primary>  (10) 
energy

$$$$
10:0
     RDKit          3D

 47 46  0  0  0  0  0  0  0  0999 V2000
   -1.8350   21.5380  -32.0370 C   0  0  0  0  0  0  0  0  0  0  0  0
   -2.2970   21.1830  -33.4460 C   0  0  0  0  0  0  0  0  0  0  0  0
   -3.5100   20.3550  -33.3980 N   0  0  0  0  0  0  0  0  0  0  0  0
   -4.8090   20.9630  -33.0970 C   0  0  0  0  0  0  0  0  0  0  0  0
   -5.1390   20.8120  -31.6160 C   0  0  0  0  0  0  0  0  0  0  0  0
   -3.4630   19.0980  -33.6190 N   0  0  0  0  0  0  0  0  0  0  0  0
   -4.1220   18.5180  -34.6820 O   0  0  0  0  0  0  0  0  0  0  0  0
   -4.9530   17.3880  -34.4800 C   0  0  0  0  0  0  0  0  0  0  0  0
   -6.1360   17.7880  -33.7200 C   0  0  0  0  0  0  0  0  0  0  0  0
   -7.1050   18.1340  -33.0890 C   0  0  0  0  0  0  0  0  0  0  0  0
   -8.2750   18.5830  -32.3240 C   0  0  0  0  0  0  0  0  0  0  0  0
   -8.5340   20.0870  -32.5120 C   0  0  0  0  0  0  0  0  0  0  0  0
   -9.1470   20.7780  -31.2790 C   0  0  0  0  0  0  0  0  0  0  0  0
   -8.3050   21.9590  -30.7740 C   0  0  0  0  0  0  0  0  0  0  0  0
   -7.8220   22.8380  -31.9290 C   0  0  0  0  0  0  0  0  0  0  0  0
   -6.8740   23.8380  -31.4240 C   0  0  0  0  0  0  0  0  0  0  0  0
   -6.1190   24.6730  -30.9950 C   0  0  0  0  0  0  0  0  0  0  0  0
   -5.2140   25.6900  -30.4440 C   0  0  0  0  0  0  0  0  0  0  0  0
   -3.8670   25.2940  -30.6150 O   0  0  0  0  0  0  0  0  0  0  0  0
   -3.6640   24.0020  -30.0790 C   0  0  0  0  0  0  0  0  0  0  0  0
   -2.4838   21.0394  -31.3019 H   0  0  0  0  0  0  0  0  0  0  0  0
   -0.7967   21.2032  -31.8963 H   0  0  0  0  0  0  0  0  0  0  0  0
   -1.8912   22.6275  -31.8963 H   0  0  0  0  0  0  0  0  0  0  0  0
   -2.5125   22.1086  -34.0000 H   0  0  0  0  0  0  0  0  0  0  0  0
   -1.4997   20.6161  -33.9489 H   0  0  0  0  0  0  0  0  0  0  0  0
   -4.7764   22.0322  -33.3534 H   0  0  0  0  0  0  0  0  0  0  0  0
   -5.5852   20.4548  -33.6880 H   0  0  0  0  0  0  0  0  0  0  0  0
   -4.3024   21.1948  -31.0130 H   0  0  0  0  0  0  0  0  0  0  0  0
   -6.0500   21.3828  -31.3833 H   0  0  0  0  0  0  0  0  0  0  0  0
   -5.3026   19.7494  -31.3833 H   0  0  0  0  0  0  0  0  0  0  0  0
   -5.2623   16.9805  -35.4538 H   0  0  0  0  0  0  0  0  0  0  0  0
   -4.3994   16.6185  -33.9221 H   0  0  0  0  0  0  0  0  0  0  0  0
   -9.1592   18.0237  -32.6637 H   0  0  0  0  0  0  0  0  0  0  0  0
   -8.0785   18.3994  -31.2574 H   0  0  0  0  0  0  0  0  0  0  0  0
   -7.5761   20.5765  -32.7419 H   0  0  0  0  0  0  0  0  0  0  0  0
   -9.2665   20.1836  -33.3270 H   0  0  0  0  0  0  0  0  0  0  0  0
  -10.1474   21.1493  -31.5462 H   0  0  0  0  0  0  0  0  0  0  0  0
   -9.1885   20.0333  -30.4705 H   0  0  0  0  0  0  0  0  0  0  0  0
   -8.9167   22.5685  -30.0926 H   0  0  0  0  0  0  0  0  0  0  0  0
   -7.4229   21.5566  -30.2545 H   0  0  0  0  0  0  0  0  0  0  0  0
   -7.3249   22.2105  -32.6834 H   0  0  0  0  0  0  0  0  0  0  0  0
   -8.6834   23.3486  -32.3842 H   0  0  0  0  0  0  0  0  0  0  0  0
   -5.3805   26.6443  -30.9652 H   0  0  0  0  0  0  0  0  0  0  0  0
   -5.4188   25.8062  -29.3695 H   0  0  0  0  0  0  0  0  0  0  0  0
   -3.6724   24.0554  -28.9803 H   0  0  0  0  0  0  0  0  0  0  0  0
   -4.4681   23.3332  -30.4198 H   0  0  0  0  0  0  0  0  0  0  0  0
   -2.6936   23.6120  -30.4198 H   0  0  0  0  0  0  0  0  0  0  0  0
  1  2  1  0
  2  3  1  0
  3  4  1  0
  4  5  1  0
  3  6  2  3
  6  7  1  0
  7  8  1  0
  8  9  1  0
  9 10  3  0
 10 11  1  0
 11 12  1  0
 12 13  1  0
 13 14  1  0
 14 15  1  0
 15 16  1  0
 16 17  3  0
 17 18  1  0
 18 19  1  0
 19 20  1  0
  1 21  1  0
  1 22  1  0
  1 23  1  0
  2 24  1  0
  2 25  1  0
  4 26  1  0
  4 27  1  0
  5 28  1  0
  5 29  1  0
  5 30  1  0
  8 31  1  0
  8 32  1  0
 11 33  1  0
 11 34  1  0
 12 35  1  0
 12 36  1  0
 13 37  1  0
 13 38  1  0
 14 39  1  0
 14 40  1  0
 15 41  1  0
 15 42  1  0
 18 43  1  0
 18 44  1  0
 20 45  1  0
 20 46  1  0
 20 47  1  0
M  CHG  1   3   1
M  END
>  <UniqueID>  (11) 
11

>  <SMILES>  (11) 
CC[N+](CC)=NOCC#CCCCCCC#CCOC

>  <Energy>  (11) 
15.235015835628072

>  <Genealogy>  (11) 
CC[N+](CC)=NOCC#CCCCCCC#CCOC (3D coordinates assigned)
CC[N+](CC)=NOCC#CCCCCCC#CCOC (optimized conformer: 15.235015835628072 kcal/mol)

>  <smiles>  (11) 
CC[N+](CC)=NOCC#CCCCCCC#CCOC

>  <score_type>  (11) 
oracle

>  <origin>  (11) 
adg

>  <m_score__min__energy>  (11) 
-4.8799999999999999

>  <m_primary>  (11) 
energy

$$$$
11:0
     RDKit          3D

 52 53  0  0  0  0  0  0  0  0999 V2000
   -5.6530   18.1610  -34.6510 C   0  0  0  0  0  0  0  0  0  0  0  0
   -5.9170   19.5320  -34.0430 C   0  0  0  0  0  0  0  0  0  0  0  0
   -7.2000   19.4430  -32.7450 S   0  0  0  0  0  0  0  0  0  0  0  0
   -6.8810   21.0800  -32.0810 C   0  0  0  0  0  0  0  0  0  0  0  0
   -7.9420   21.9650  -31.8480 C   0  0  0  0  0  0  0  0  0  0  0  0
   -7.6940   23.2390  -31.3290 C   0  0  0  0  0  0  0  0  0  0  0  0
   -6.3800   23.6300  -31.0280 C   0  0  0  0  0  0  0  0  0  0  0  0
   -5.3260   22.7330  -31.2300 C   0  0  0  0  0  0  0  0  0  0  0  0
   -5.5720   21.4660  -31.7660 C   0  0  0  0  0  0  0  0  0  0  0  0
   -4.0270   23.1250  -30.9160 O   0  0  0  0  0  0  0  0  0  0  0  0
   -3.5770   23.3230  -29.5730 C   0  0  1  0  0  0  0  0  0  0  0  0
   -2.1420   23.8530  -29.6060 C   0  0  0  0  0  0  0  0  0  0  0  0
   -2.1500   25.2310  -29.2990 O   0  0  0  0  0  0  0  0  0  0  0  0
   -1.2740   25.4800  -28.2190 C   0  0  0  0  0  0  0  0  0  0  0  0
   -1.9390   25.0340  -26.9160 C   0  0  0  0  0  0  0  0  0  0  0  0
   -0.9330   24.5600  -25.9380 N   0  0  0  0  0  0  0  0  0  0  0  0
   -0.8820   23.0990  -25.6780 C   0  0  0  0  0  0  0  0  0  0  0  0
   -0.2160   22.6970  -24.3530 C   0  0  0  0  0  0  0  0  0  0  0  0
   -0.8100   25.4120  -24.7350 C   0  0  0  0  0  0  0  0  0  0  0  0
   -1.6460   26.6920  -24.8000 C   0  0  0  0  0  0  0  0  0  0  0  0
   -4.4440   24.2470  -28.7260 C   0  0  0  0  0  0  0  0  0  0  0  0
   -5.5370   24.9340  -29.1150 C   0  0  0  0  0  0  0  0  0  0  0  0
   -6.0620   25.0030  -30.5140 C   0  0  0  0  0  0  0  0  0  0  0  0
   -5.5111   17.4243  -33.8465 H   0  0  0  0  0  0  0  0  0  0  0  0
   -6.5105   17.8644  -35.2728 H   0  0  0  0  0  0  0  0  0  0  0  0
   -4.7466   18.2040  -35.2728 H   0  0  0  0  0  0  0  0  0  0  0  0
   -4.9850   19.9139  -33.6008 H   0  0  0  0  0  0  0  0  0  0  0  0
   -6.2723   20.2034  -34.8386 H   0  0  0  0  0  0  0  0  0  0  0  0
   -8.9733   21.6563  -32.0742 H   0  0  0  0  0  0  0  0  0  0  0  0
   -8.5283   23.9349  -31.1565 H   0  0  0  0  0  0  0  0  0  0  0  0
   -4.7371   20.7715  -31.9406 H   0  0  0  0  0  0  0  0  0  0  0  0
   -3.6426   22.3398  -29.0841 H   0  0  0  0  0  0  0  0  0  0  0  0
   -1.5335   23.3143  -28.8648 H   0  0  0  0  0  0  0  0  0  0  0  0
   -1.7138   23.6995  -30.6075 H   0  0  0  0  0  0  0  0  0  0  0  0
   -0.3401   24.9177  -28.3662 H   0  0  0  0  0  0  0  0  0  0  0  0
   -1.0479   26.5553  -28.1682 H   0  0  0  0  0  0  0  0  0  0  0  0
   -2.4876   25.8838  -26.4836 H   0  0  0  0  0  0  0  0  0  0  0  0
   -2.6253   24.2042  -27.1407 H   0  0  0  0  0  0  0  0  0  0  0  0
   -1.9138   22.7177  -25.6705 H   0  0  0  0  0  0  0  0  0  0  0  0
   -0.2617   22.6665  -26.4769 H   0  0  0  0  0  0  0  0  0  0  0  0
   -0.8227   23.0632  -23.5117 H   0  0  0  0  0  0  0  0  0  0  0  0
   -0.1384   21.6011  -24.2993 H   0  0  0  0  0  0  0  0  0  0  0  0
    0.7899   23.1389  -24.2993 H   0  0  0  0  0  0  0  0  0  0  0  0
   -1.1357   24.8284  -23.8613 H   0  0  0  0  0  0  0  0  0  0  0  0
    0.2439   25.7194  -24.6650 H   0  0  0  0  0  0  0  0  0  0  0  0
   -1.8704   27.0356  -23.7794 H   0  0  0  0  0  0  0  0  0  0  0  0
   -1.0823   27.4714  -25.3337 H   0  0  0  0  0  0  0  0  0  0  0  0
   -2.5862   26.4891  -25.3337 H   0  0  0  0  0  0  0  0  0  0  0  0
   -4.1430   24.3674  -27.6749 H   0  0  0  0  0  0  0  0  0  0  0  0
   -6.0873   25.4887  -28.3408 H   0  0  0  0  0  0  0  0  0  0  0  0
   -6.9763   25.6144  -30.5271 H   0  0  0  0  0  0  0  0  0  0  0  0
   -5.2932   25.4534  -31.1590 H   0  0  0  0  0  0  0  0  0  0  0  0
  1  2  1  0
  2  3  1  0
  3  4  1  0
  4  5  2  0
  5  6  1  0
  6  7  2  0
  7  8  1  0
  8  9  2  0
  8 10  1  0
 10 11  1  0
 11 12  1  0
 12 13  1  0
 13 14  1  0
 14 15  1  0
 15 16  1  0
 16 17  1  0
 17 18  1  0
 16 19  1  0
 19 20  1  0
 11 21  1  0
 21 22  2  0
 22 23  1  0
  9  4  1  0
 23  7  1  0
  1 24  1  0
  1 25  1  0
  1 26  1  0
  2 27  1  0
  2 28  1  0
  5 29  1  0
  6 30  1  0
  9 31  1  0
 11 32  1  1
 12 33  1  0
 12 34  1  0
 14 35  1  0
 14 36  1  0
 15 37  1  0
 15 38  1  0
 17 39  1  0
 17 40  1  0
 18 41  1  0
 18 42  1  0
 18 43  1  0
 19 44  1  0
 19 45  1  0
 20 46  1  0
 20 47  1  0
 20 48  1  0
 21 49  1  0
 22 50  1  0
 23 51  1  0
 23 52  1  0
M  END
>  <UniqueID>  (12) 
12

>  <SMILES>  (12) 
CCSc1ccc2c(c1)O[C@@H](COCCN(CC)CC)C=CC2

>  <Energy>  (12) 
58.93467936692005

>  <Genealogy>  (12) 
CCSc1ccc2c(c1)O[C@@H](COCCN(CC)CC)C=CC2 (chirality)
CCSc1ccc2c(c1)O[C@@H](COCCN(CC)CC)C=CC2 (3D coordinates assigned)
CCSc1ccc2c(c1)O[C@@H](COCCN(CC)CC)C=CC2 (nonaromatic ring conformer: 58.93467936692005 kcal/mol)

>  <smiles>  (12) 
CCSc1ccc2c(c1)OC(COCCN(CC)CC)C=CC2

>  <score_type>  (12) 
oracle

>  <origin>  (12) 
adg

>  <m_score__min__energy>  (12) 
-6.0300000000000002

>  <m_primary>  (12) 
energy

$$$$
12:0
     RDKit          3D

 75 78  0  0  0  0  0  0  0  0999 V2000
   -5.7200   25.6300  -30.1110 C   0  0  0  0  0  0  0  0  0  0  0  0
   -4.7520   24.8700  -30.9190 N   0  0  0  0  0  0  0  0  0  0  0  0
   -3.7460   24.2650  -30.0310 C   0  0  0  0  0  0  0  0  0  0  0  0
   -5.4210   23.8150  -31.7080 C   0  0  0  0  0  0  0  0  0  0  0  0
   -4.5550   22.5490  -31.7960 C   0  0  0  0  0  0  0  0  0  0  0  0
   -4.7970   21.8420  -33.0540 N   0  0  0  0  0  0  0  0  0  0  0  0
   -5.1880   20.4670  -33.0430 C   0  0  0  0  0  0  0  0  0  0  0  0
   -6.4970   20.1370  -32.6590 C   0  0  0  0  0  0  0  0  0  0  0  0
   -7.3420   21.1000  -32.0650 C   0  0  0  0  0  0  0  0  0  0  0  0
   -8.6240   20.7550  -31.6430 C   0  0  0  0  0  0  0  0  0  0  0  0
   -9.0830   19.4520  -31.8000 C   0  0  0  0  0  0  0  0  0  0  0  0
   -8.2730   18.4930  -32.4050 C   0  0  0  0  0  0  0  0  0  0  0  0
   -6.9760   18.8220  -32.8770 C   0  0  0  0  0  0  0  0  0  0  0  0
   -6.1870   17.9070  -33.5430 N   0  0  0  0  0  0  0  0  0  0  0  0
   -6.7920   16.6630  -34.0740 C   0  0  0  0  0  0  0  0  0  0  0  0
   -4.8390   18.1590  -33.7300 C   0  0  0  0  0  0  0  0  0  0  0  0
   -3.9620   17.1370  -34.1590 C   0  0  0  0  0  0  0  0  0  0  0  0
   -2.6220   17.3950  -34.3950 C   0  0  0  0  0  0  0  0  0  0  0  0
   -2.0970   18.6540  -34.1550 C   0  0  0  0  0  0  0  0  0  0  0  0
   -2.9000   19.6950  -33.6480 C   0  0  0  0  0  0  0  0  0  0  0  0
   -2.3010   20.9220  -33.2660 O   0  0  0  0  0  0  0  0  0  0  0  0
   -0.8780   21.0870  -33.1550 C   0  0  0  0  0  0  0  0  0  0  0  0
   -0.3690   21.3850  -31.7200 C   0  0  0  0  0  0  0  0  0  0  0  0
   -0.8190   20.4710  -30.6090 N   0  0  0  0  0  0  0  0  0  0  0  0
   -0.7350   19.0440  -31.0220 C   0  0  0  0  0  0  0  0  0  0  0  0
    0.0340   20.6790  -29.3950 C   0  0  0  0  0  0  0  0  0  0  0  0
   -0.5620   21.6930  -28.3990 C   0  0  0  0  0  0  0  0  0  0  0  0
   -1.8830   21.2450  -27.8560 N   0  0  0  0  0  0  0  0  0  0  0  0
   -2.6680   22.4440  -27.4670 C   0  0  0  0  0  0  0  0  0  0  0  0
   -1.6690   20.4250  -26.6370 C   0  0  0  0  0  0  0  0  0  0  0  0
   -2.6540   20.4430  -28.8580 C   0  0  0  0  0  0  0  0  0  0  0  0
   -2.2590   20.7860  -30.3080 C   0  0  0  0  0  0  0  0  0  0  0  0
   -4.3020   19.4600  -33.4790 C   0  0  0  0  0  0  0  0  0  0  0  0
   -5.5134   25.4678  -29.0428 H   0  0  0  0  0  0  0  0  0  0  0  0
   -5.6303   26.7015  -30.3432 H   0  0  0  0  0  0  0  0  0  0  0  0
   -6.7396   25.2886  -30.3432 H   0  0  0  0  0  0  0  0  0  0  0  0
   -4.0316   24.4367  -28.9827 H   0  0  0  0  0  0  0  0  0  0  0  0
   -3.6902   23.1834  -30.2233 H   0  0  0  0  0  0  0  0  0  0  0  0
   -2.7644   24.7227  -30.2233 H   0  0  0  0  0  0  0  0  0  0  0  0
   -6.3781   23.5617  -31.2286 H   0  0  0  0  0  0  0  0  0  0  0  0
   -5.5845   24.1950  -32.7272 H   0  0  0  0  0  0  0  0  0  0  0  0
   -3.4938   22.8331  -31.7400 H   0  0  0  0  0  0  0  0  0  0  0  0
   -4.8170   21.8831  -30.9606 H   0  0  0  0  0  0  0  0  0  0  0  0
   -4.6030   22.2930  -33.9760 H   0  0  0  0  0  0  0  0  0  0  0  0
   -6.9846   22.1321  -31.9343 H   0  0  0  0  0  0  0  0  0  0  0  0
   -9.2743   21.5147  -31.1848 H   0  0  0  0  0  0  0  0  0  0  0  0
  -10.0876   19.1776  -31.4459 H   0  0  0  0  0  0  0  0  0  0  0  0
   -8.6452   17.4641  -32.5185 H   0  0  0  0  0  0  0  0  0  0  0  0
   -7.1043   16.0209  -33.2372 H   0  0  0  0  0  0  0  0  0  0  0  0
   -7.6681   16.9151  -34.6895 H   0  0  0  0  0  0  0  0  0  0  0  0
   -6.0527   16.1295  -34.6895 H   0  0  0  0  0  0  0  0  0  0  0  0
   -4.3506   16.1188  -34.3080 H   0  0  0  0  0  0  0  0  0  0  0  0
   -1.9703   16.5947  -34.7756 H   0  0  0  0  0  0  0  0  0  0  0  0
   -1.0340   18.8447  -34.3639 H   0  0  0  0  0  0  0  0  0  0  0  0
   -0.3976   20.1608  -33.5033 H   0  0  0  0  0  0  0  0  0  0  0  0
   -0.6190   21.9651  -33.7647 H   0  0  0  0  0  0  0  0  0  0  0  0
    0.7301   21.3501  -31.7482 H   0  0  0  0  0  0  0  0  0  0  0  0
   -0.8075   22.3620  -31.4687 H   0  0  0  0  0  0  0  0  0  0  0  0
   -0.6974   18.4050  -30.1274 H   0  0  0  0  0  0  0  0  0  0  0  0
   -1.6194   18.7833  -31.6219 H   0  0  0  0  0  0  0  0  0  0  0  0
    0.1738   18.8888  -31.6219 H   0  0  0  0  0  0  0  0  0  0  0  0
    0.1525   19.7134  -28.8816 H   0  0  0  0  0  0  0  0  0  0  0  0
    0.9965   21.0860  -29.7384 H   0  0  0  0  0  0  0  0  0  0  0  0
    0.1398   21.8211  -27.5617 H   0  0  0  0  0  0  0  0  0  0  0  0
   -0.7220   22.6392  -28.9366 H   0  0  0  0  0  0  0  0  0  0  0  0
   -2.7130   22.5128  -26.3701 H   0  0  0  0  0  0  0  0  0  0  0  0
   -2.1848   23.3457  -27.8714 H   0  0  0  0  0  0  0  0  0  0  0  0
   -3.6877   22.3617  -27.8714 H   0  0  0  0  0  0  0  0  0  0  0  0
   -1.8312   21.0464  -25.7439 H   0  0  0  0  0  0  0  0  0  0  0  0
   -2.3777   19.5837  -26.6319 H   0  0  0  0  0  0  0  0  0  0  0  0
   -0.6396   20.0373  -26.6319 H   0  0  0  0  0  0  0  0  0  0  0  0
   -2.4599   19.3748  -28.6814 H   0  0  0  0  0  0  0  0  0  0  0  0
   -3.7203   20.6826  -28.7333 H   0  0  0  0  0  0  0  0  0  0  0  0
   -2.8962   20.2067  -30.9924 H   0  0  0  0  0  0  0  0  0  0  0  0
   -2.3965   21.8691  -30.4418 H   0  0  0  0  0  0  0  0  0  0  0  0
  1  2  1  0
  2  3  1  0
  2  4  1  0
  4  5  1  0
  5  6  1  0
  6  7  1  0
  7  8  2  0
  8  9  1  0
  9 10  2  0
 10 11  1  0
 11 12  2  0
 12 13  1  0
 13 14  2  0
 14 15  1  0
 14 16  1  0
 16 17  2  0
 17 18  1  0
 18 19  2  0
 19 20  1  0
 20 21  1  0
 21 22  1  0
 22 23  1  0
 23 24  1  0
 24 25  1  0
 24 26  1  0
 26 27  1  0
 27 28  1  0
 28 29  1  0
 28 30  1  0
 28 31  1  0
 31 32  1  0
 20 33  2  0
 33  7  1  0
 13  8  1  0
 33 16  1  0
 32 24  1  0
  1 34  1  0
  1 35  1  0
  1 36  1  0
  3 37  1  0
  3 38  1  0
  3 39  1  0
  4 40  1  0
  4 41  1  0
  5 42  1  0
  5 43  1  0
  6 44  1  0
  9 45  1  0
 10 46  1  0
 11 47  1  0
 12 48  1  0
 15 49  1  0
 15 50  1  0
 15 51  1  0
 17 52  1  0
 18 53  1  0
 19 54  1  0
 22 55  1  0
 22 56  1  0
 23 57  1  0
 23 58  1  0
 25 59  1  0
 25 60  1  0
 25 61  1  0
 26 62  1  0
 26 63  1  0
 27 64  1  0
 27 65  1  0
 29 66  1  0
 29 67  1  0
 29 68  1  0
 30 69  1  0
 30 70  1  0
 30 71  1  0
 31 72  1  0
 31 73  1  0
 32 74  1  0
 32 75  1  0
M  CHG  3  14   1  24   1  28   1
M  END
>  <UniqueID>  (13) 
13

>  <SMILES>  (13) 
CN(C)CCNc1c2ccccc2[n+](C)c2cccc(OCC[N+]3(C)CC[N+](C)(C)CC3)c12

>  <Energy>  (13) 
135.49670970672145

>  <Genealogy>  (13) 
CN(C)CCNc1c2ccccc2[n+](C)c2cccc(OCC[N+]3(C)CC[N+](C)(C)CC3)c12 (3D coordinates assigned)
CN(C)CCNc1c2ccccc2[n+](C)c2cccc(OCC[N+]3(C)CC[N+](C)(C)CC3)c12 (nonaromatic ring conformer: 135.49670970672145 kcal/mol)

>  <smiles>  (13) 
CN(C)CCNc1c2ccccc2[n+](C)c2cccc(OCC[N+]3(C)CC[N+](C)(C)CC3)c12

>  <score_type>  (13) 
oracle

>  <origin>  (13) 
adg

>  <m_score__min__energy>  (13) 
-7.71

>  <m_primary>  (13) 
energy

$$$$
13:0
     RDKit          3D

 55 59  0  0  0  0  0  0  0  0999 V2000
   -4.0990   24.1750  -28.3850 C   0  0  0  0  0  0  0  0  0  0  0  0
   -3.4260   24.5340  -29.7060 C   0  0  0  0  0  0  0  0  0  0  0  0
   -4.2440   25.5040  -30.4480 N   0  0  0  0  0  0  0  0  0  0  0  0
   -5.6700   25.4420  -30.0790 C   0  0  0  0  0  0  0  0  0  0  0  0
   -6.4000   24.2580  -30.7340 C   0  0  0  0  0  0  0  0  0  0  0  0
   -5.5340   23.5610  -31.6870 N   0  0  0  0  0  0  0  0  0  0  0  0
   -5.7370   22.1780  -32.0290 C   0  0  0  0  0  0  0  0  0  0  0  0
   -4.6380   21.3640  -32.3620 C   0  0  0  0  0  0  0  0  0  0  0  0
   -4.8470   19.9780  -32.5800 C   0  0  0  0  0  0  0  0  0  0  0  0
   -6.0750   19.4170  -32.2870 N   0  0  0  0  0  0  0  0  0  0  0  0
   -6.1890   17.9810  -31.9760 C   0  0  0  0  0  0  0  0  0  0  0  0
   -7.1870   20.2260  -32.1700 C   0  0  0  0  0  0  0  0  0  0  0  0
   -8.4970   19.6890  -32.1710 C   0  0  0  0  0  0  0  0  0  0  0  0
   -9.6130   20.5190  -32.0590 C   0  0  0  0  0  0  0  0  0  0  0  0
   -9.4520   21.8970  -31.9570 C   0  0  0  0  0  0  0  0  0  0  0  0
   -8.1740   22.4530  -31.9590 C   0  0  0  0  0  0  0  0  0  0  0  0
   -7.0320   21.6310  -32.0530 C   0  0  0  0  0  0  0  0  0  0  0  0
   -3.6980   19.2040  -33.1440 C   0  0  0  0  0  0  0  0  0  0  0  0
   -3.7220   17.9610  -33.6950 N   0  0  0  0  0  0  0  0  0  0  0  0
   -2.5080   17.7780  -34.2430 C   0  0  0  0  0  0  0  0  0  0  0  0
   -2.0770   16.6780  -34.9850 C   0  0  0  0  0  0  0  0  0  0  0  0
   -0.7950   16.7340  -35.5640 C   0  0  0  0  0  0  0  0  0  0  0  0
    0.0080   17.8860  -35.4110 C   0  0  0  0  0  0  0  0  0  0  0  0
   -0.4610   18.9890  -34.6770 C   0  0  0  0  0  0  0  0  0  0  0  0
   -1.7220   18.8900  -34.0880 C   0  0  0  0  0  0  0  0  0  0  0  0
   -2.4730   19.8080  -33.3900 C   0  0  0  0  0  0  0  0  0  0  0  0
   -2.2520   21.2800  -33.3030 C   0  0  0  0  0  0  0  0  0  0  0  0
   -3.2170   21.9200  -32.2950 C   0  0  0  0  0  0  0  0  0  0  0  0
   -3.4683   24.5114  -27.5489 H   0  0  0  0  0  0  0  0  0  0  0  0
   -5.0797   24.6698  -28.3268 H   0  0  0  0  0  0  0  0  0  0  0  0
   -4.2343   23.0849  -28.3268 H   0  0  0  0  0  0  0  0  0  0  0  0
   -2.4381   24.9729  -29.5025 H   0  0  0  0  0  0  0  0  0  0  0  0
   -3.3157   23.6219  -30.3109 H   0  0  0  0  0  0  0  0  0  0  0  0
   -3.8720   26.4650  -30.2680 H   0  0  0  0  0  0  0  0  0  0  0  0
   -5.7470   25.3422  -28.9862 H   0  0  0  0  0  0  0  0  0  0  0  0
   -6.1469   26.3663  -30.4370 H   0  0  0  0  0  0  0  0  0  0  0  0
   -6.7123   23.5518  -29.9506 H   0  0  0  0  0  0  0  0  0  0  0  0
   -7.2735   24.6465  -31.2781 H   0  0  0  0  0  0  0  0  0  0  0  0
   -4.7470   24.0820  -32.1340 H   0  0  0  0  0  0  0  0  0  0  0  0
   -6.2000   17.8419  -30.8849 H   0  0  0  0  0  0  0  0  0  0  0  0
   -7.1214   17.5857  -32.4055 H   0  0  0  0  0  0  0  0  0  0  0  0
   -5.3307   17.4435  -32.4055 H   0  0  0  0  0  0  0  0  0  0  0  0
   -8.6370   18.6017  -32.2614 H   0  0  0  0  0  0  0  0  0  0  0  0
  -10.6227   20.0826  -32.0513 H   0  0  0  0  0  0  0  0  0  0  0  0
  -10.3344   22.5486  -31.8747 H   0  0  0  0  0  0  0  0  0  0  0  0
   -8.0549   23.5441  -31.8865 H   0  0  0  0  0  0  0  0  0  0  0  0
   -4.5250   17.3070  -33.8050 H   0  0  0  0  0  0  0  0  0  0  0  0
   -2.7191   15.7942  -35.1137 H   0  0  0  0  0  0  0  0  0  0  0  0
   -0.4165   15.8759  -36.1388 H   0  0  0  0  0  0  0  0  0  0  0  0
    1.0073   17.9201  -35.8695 H   0  0  0  0  0  0  0  0  0  0  0  0
    0.1460   19.9002  -34.5704 H   0  0  0  0  0  0  0  0  0  0  0  0
   -1.2173   21.4705  -32.9820 H   0  0  0  0  0  0  0  0  0  0  0  0
   -2.4344   21.7220  -34.2936 H   0  0  0  0  0  0  0  0  0  0  0  0
   -2.8247   21.7474  -31.2819 H   0  0  0  0  0  0  0  0  0  0  0  0
   -3.2796   22.9891  -32.5464 H   0  0  0  0  0  0  0  0  0  0  0  0
  1  2  1  0
  2  3  1  0
  3  4  1  0
  4  5  1  0
  5  6  1  0
  6  7  1  0
  7  8  2  0
  8  9  1  0
  9 10  2  0
 10 11  1  0
 10 12  1  0
 12 13  2  0
 13 14  1  0
 14 15  2  0
 15 16  1  0
 16 17  2  0
  9 18  1  0
 18 19  1  0
 19 20  1  0
 20 21  2  0
 21 22  1  0
 22 23  2  0
 23 24  1  0
 24 25  2  0
 25 26  1  0
 26 27  1  0
 27 28  1  0
 17  7  1  0
 26 18  2  0
 28  8  1  0
 17 12  1  0
 25 20  1  0
  1 29  1  0
  1 30  1  0
  1 31  1  0
  2 32  1  0
  2 33  1  0
  3 34  1  0
  4 35  1  0
  4 36  1  0
  5 37  1  0
  5 38  1  0
  6 39  1  0
 11 40  1  0
 11 41  1  0
 11 42  1  0
 13 43  1  0
 14 44  1  0
 15 45  1  0
 16 46  1  0
 19 47  1  0
 21 48  1  0
 22 49  1  0
 23 50  1  0
 24 51  1  0
 27 52  1  0
 27 53  1  0
 28 54  1  0
 28 55  1  0
M  CHG  1  10   1
M  END
>  <UniqueID>  (14) 
14

>  <SMILES>  (14) 
CCNCCNc1c2c([n+](C)c3ccccc13)-c1[nH]c3ccccc3c1CC2

>  <Energy>  (14) 
123.697275171365

>  <Genealogy>  (14) 
CCNCCNc1c2c([n+](C)c3ccccc13)-c1[nH]c3ccccc3c1CC2 (3D coordinates assigned)
CCNCCNc1c2c([n+](C)c3ccccc13)-c1[nH]c3ccccc3c1CC2 (nonaromatic ring conformer: 123.697275171365 kcal/mol)

>  <smiles>  (14) 
CCNCCNc1c2c([n+](C)c3ccccc13)-c1[nH]c3ccccc3c1CC2

>  <score_type>  (14) 
oracle

>  <origin>  (14) 
adg

>  <m_score__min__energy>  (14) 
-9.7300000000000004

>  <m_primary>  (14) 
energy

$$$$
14:0
     RDKit          3D

 42 43  0  0  0  0  0  0  0  0999 V2000
   -4.6350   16.5380  -34.5560 C   0  0  0  0  0  0  0  0  0  0  0  0
   -5.8130   17.5140  -34.5520 C   0  0  0  0  0  0  0  0  0  0  0  0
   -6.4570   17.6770  -33.1530 C   0  0  0  0  0  0  0  0  0  0  0  0
   -7.1770   18.9670  -32.9880 N   0  0  1  0  0  0  0  0  0  0  0  0
   -8.1780   18.8950  -31.8830 C   0  0  0  0  0  0  0  0  0  0  0  0
   -9.4690   19.7070  -32.1280 C   0  0  0  0  0  0  0  0  0  0  0  0
   -9.2350   21.2320  -32.2490 C   0  0  0  0  0  0  0  0  0  0  0  0
   -7.8940   21.6130  -31.7510 N   0  0  0  0  0  0  0  0  0  0  0  0
   -7.9020   22.9690  -31.1640 C   0  0  0  0  0  0  0  0  0  0  0  0
   -6.5420   23.3130  -30.6120 C   0  0  0  0  0  0  0  0  0  0  0  0
   -5.7080   22.3110  -30.0880 C   0  0  0  0  0  0  0  0  0  0  0  0
   -4.4600   22.6440  -29.5530 C   0  0  0  0  0  0  0  0  0  0  0  0
   -4.0370   23.9770  -29.5330 C   0  0  0  0  0  0  0  0  0  0  0  0
   -2.3350   24.4290  -28.7970 Br  0  0  0  0  0  0  0  0  0  0  0  0
   -4.8640   24.9790  -30.0520 C   0  0  0  0  0  0  0  0  0  0  0  0
   -6.1120   24.6490  -30.5880 C   0  0  0  0  0  0  0  0  0  0  0  0
   -6.8590   21.4990  -32.8070 C   0  0  0  0  0  0  0  0  0  0  0  0
   -6.2140   20.0980  -32.8940 C   0  0  0  0  0  0  0  0  0  0  0  0
   -4.3506   16.3023  -33.5199 H   0  0  0  0  0  0  0  0  0  0  0  0
   -4.9267   15.6133  -35.0755 H   0  0  0  0  0  0  0  0  0  0  0  0
   -3.7807   16.9965  -35.0755 H   0  0  0  0  0  0  0  0  0  0  0  0
   -5.4548   18.4976  -34.8901 H   0  0  0  0  0  0  0  0  0  0  0  0
   -6.5823   17.1050  -35.2235 H   0  0  0  0  0  0  0  0  0  0  0  0
   -7.1718   16.8552  -32.9990 H   0  0  0  0  0  0  0  0  0  0  0  0
   -5.6428   17.6595  -32.4136 H   0  0  0  0  0  0  0  0  0  0  0  0
   -7.7120   19.1430  -33.8730 H   0  0  0  0  0  0  0  0  0  0  0  0
   -8.4579   17.8405  -31.7423 H   0  0  0  0  0  0  0  0  0  0  0  0
   -7.6964   19.3365  -30.9981 H   0  0  0  0  0  0  0  0  0  0  0  0
   -9.9300   19.3519  -33.0614 H   0  0  0  0  0  0  0  0  0  0  0  0
  -10.1163   19.5510  -31.2524 H   0  0  0  0  0  0  0  0  0  0  0  0
   -9.3209   21.5247  -33.3059 H   0  0  0  0  0  0  0  0  0  0  0  0
   -9.9908   21.7481  -31.6388 H   0  0  0  0  0  0  0  0  0  0  0  0
   -8.1722   23.6986  -31.9416 H   0  0  0  0  0  0  0  0  0  0  0  0
   -8.6362   22.9981  -30.3454 H   0  0  0  0  0  0  0  0  0  0  0  0
   -6.0379   21.2617  -30.0987 H   0  0  0  0  0  0  0  0  0  0  0  0
   -3.8092   21.8557  -29.1468 H   0  0  0  0  0  0  0  0  0  0  0  0
   -4.5318   26.0275  -30.0382 H   0  0  0  0  0  0  0  0  0  0  0  0
   -6.7603   25.4400  -30.9930 H   0  0  0  0  0  0  0  0  0  0  0  0
   -7.3252   21.7277  -33.7767 H   0  0  0  0  0  0  0  0  0  0  0  0
   -6.0574   22.2071  -32.5500 H   0  0  0  0  0  0  0  0  0  0  0  0
   -5.5706   20.0733  -33.7858 H   0  0  0  0  0  0  0  0  0  0  0  0
   -5.6622   19.9546  -31.9533 H   0  0  0  0  0  0  0  0  0  0  0  0
  1  2  1  0
  2  3  1  0
  3  4  1  0
  4  5  1  0
  5  6  1  0
  6  7  1  0
  7  8  1  0
  8  9  1  0
  9 10  1  0
 10 11  2  0
 11 12  1  0
 12 13  2  0
 13 14  1  0
 13 15  1  0
 15 16  2  0
  8 17  1  0
 17 18  1  0
 18  4  1  0
 16 10  1  0
  1 19  1  0
  1 20  1  0
  1 21  1  0
  2 22  1  0
  2 23  1  0
  3 24  1  0
  3 25  1  0
  4 26  1  6
  5 27  1  0
  5 28  1  0
  6 29  1  0
  6 30  1  0
  7 31  1  0
  7 32  1  0
  9 33  1  0
  9 34  1  0
 11 35  1  0
 12 36  1  0
 15 37  1  0
 16 38  1  0
 17 39  1  0
 17 40  1  0
 18 41  1  0
 18 42  1  0
M  CHG  1   4   1
M  END
>  <UniqueID>  (15) 
15

>  <SMILES>  (15) 
CCC[N@H+]1CCCN(Cc2ccc(Br)cc2)CC1

>  <Energy>  (15) 
57.05355812362774

>  <Genealogy>  (15) 
CCC[NH+]1CCCN(Cc2ccc(Br)cc2)CC1 (protonated)
CCC[N@H+]1CCCN(Cc2ccc(Br)cc2)CC1 (chirality)
CCC[N@H+]1CCCN(Cc2ccc(Br)cc2)CC1 (3D coordinates assigned)
CCC[N@H+]1CCCN(Cc2ccc(Br)cc2)CC1 (nonaromatic ring conformer: 57.05355812362774 kcal/mol)

>  <smiles>  (15) 
CCCN1CCCN(Cc2ccc(Br)cc2)CC1

>  <score_type>  (15) 
oracle

>  <origin>  (15) 
adg

>  <m_score__min__energy>  (15) 
-4.75

>  <m_primary>  (15) 
energy

$$$$
15:0
     RDKit          3D

 41 42  0  0  0  0  0  0  0  0999 V2000
   -9.1010   20.9690  -30.8440 C   0  0  0  0  0  0  0  0  0  0  0  0
   -9.6180   20.9460  -32.2850 C   0  0  0  0  0  0  0  0  0  0  0  0
   -9.2070   19.7310  -33.0120 N   0  0  0  0  0  0  0  0  0  0  0  0
   -8.4160   18.8110  -32.1820 C   0  0  0  0  0  0  0  0  0  0  0  0
   -7.1990   18.3320  -32.9330 C   0  0  0  0  0  0  0  0  0  0  0  0
   -6.9330   16.9580  -33.0440 C   0  0  0  0  0  0  0  0  0  0  0  0
   -5.8440   16.5210  -33.7320 N   0  0  0  0  0  0  0  0  0  0  0  0
   -4.9910   17.3900  -34.3380 C   0  0  0  0  0  0  0  0  0  0  0  0
   -5.2160   18.7640  -34.2590 C   0  0  0  0  0  0  0  0  0  0  0  0
   -6.3210   19.2470  -33.5400 C   0  0  0  0  0  0  0  0  0  0  0  0
   -6.5950   20.6220  -33.4570 O   0  0  0  0  0  0  0  0  0  0  0  0
   -5.9150   21.5410  -32.6430 C   0  0  0  0  0  0  0  0  0  0  0  0
   -4.5280   21.4660  -32.4360 C   0  0  0  0  0  0  0  0  0  0  0  0
   -3.8910   22.3860  -31.6030 C   0  0  0  0  0  0  0  0  0  0  0  0
   -4.6270   23.3830  -30.9520 C   0  0  0  0  0  0  0  0  0  0  0  0
   -3.7540   24.5410  -29.8850 S   0  0  0  0  0  0  0  0  0  0  0  0
   -4.2470   23.6950  -28.3510 C   0  0  0  0  0  0  0  0  0  0  0  0
   -6.0230   23.4650  -31.1480 C   0  0  0  0  0  0  0  0  0  0  0  0
   -6.8420   24.5300  -30.4710 C   0  0  0  0  0  0  0  0  0  0  0  0
   -6.6550   22.5290  -31.9850 C   0  0  0  0  0  0  0  0  0  0  0  0
   -9.9523   20.9311  -30.1484 H   0  0  0  0  0  0  0  0  0  0  0  0
   -8.4497   20.0989  -30.6742 H   0  0  0  0  0  0  0  0  0  0  0  0
   -8.5296   21.8935  -30.6742 H   0  0  0  0  0  0  0  0  0  0  0  0
  -10.7169   20.9915  -32.2665 H   0  0  0  0  0  0  0  0  0  0  0  0
   -9.1867   21.8116  -32.8091 H   0  0  0  0  0  0  0  0  0  0  0  0
   -8.6440   19.9980  -33.8540 H   0  0  0  0  0  0  0  0  0  0  0  0
   -8.0949   19.3333  -31.2687 H   0  0  0  0  0  0  0  0  0  0  0  0
   -9.0386   17.9416  -31.9241 H   0  0  0  0  0  0  0  0  0  0  0  0
   -7.6094   16.2304  -32.5717 H   0  0  0  0  0  0  0  0  0  0  0  0
   -5.6620   15.4950  -33.8040 H   0  0  0  0  0  0  0  0  0  0  0  0
   -4.1210   17.0078  -34.8921 H   0  0  0  0  0  0  0  0  0  0  0  0
   -4.5312   19.4658  -34.7575 H   0  0  0  0  0  0  0  0  0  0  0  0
   -3.9417   20.6788  -32.9326 H   0  0  0  0  0  0  0  0  0  0  0  0
   -2.8023   22.3276  -31.4566 H   0  0  0  0  0  0  0  0  0  0  0  0
   -3.9062   24.2798  -27.4839 H   0  0  0  0  0  0  0  0  0  0  0  0
   -5.3424   23.5991  -28.3209 H   0  0  0  0  0  0  0  0  0  0  0  0
   -3.7904   22.6947  -28.3209 H   0  0  0  0  0  0  0  0  0  0  0  0
   -6.7571   24.4196  -29.3799 H   0  0  0  0  0  0  0  0  0  0  0  0
   -6.4719   25.5221  -30.7691 H   0  0  0  0  0  0  0  0  0  0  0  0
   -7.8958   24.4270  -30.7691 H   0  0  0  0  0  0  0  0  0  0  0  0
   -7.7452   22.5741  -32.1243 H   0  0  0  0  0  0  0  0  0  0  0  0
  1  2  1  0
  2  3  1  0
  3  4  1  0
  4  5  1  0
  5  6  2  0
  6  7  1  0
  7  8  2  0
  8  9  1  0
  9 10  2  0
 10 11  1  0
 11 12  1  0
 12 13  2  0
 13 14  1  0
 14 15  2  0
 15 16  1  0
 16 17  1  0
 15 18  1  0
 18 19  1  0
 18 20  2  0
 10  5  1  0
 20 12  1  0
  1 21  1  0
  1 22  1  0
  1 23  1  0
  2 24  1  0
  2 25  1  0
  3 26  1  0
  4 27  1  0
  4 28  1  0
  6 29  1  0
  7 30  1  0
  8 31  1  0
  9 32  1  0
 13 33  1  0
 14 34  1  0
 17 35  1  0
 17 36  1  0
 17 37  1  0
 19 38  1  0
 19 39  1  0
 19 40  1  0
 20 41  1  0
M  CHG  1   7   1
M  END
>  <UniqueID>  (16) 
16

>  <SMILES>  (16) 
CCNCc1c[nH+]ccc1Oc1ccc(SC)c(C)c1

>  <Energy>  (16) 
41.964221046472304

>  <Genealogy>  (16) 
CCNCc1c[nH+]ccc1Oc1ccc(SC)c(C)c1 (protonated)
CCNCc1c[nH+]ccc1Oc1ccc(SC)c(C)c1 (3D coordinates assigned)
CCNCc1c[nH+]ccc1Oc1ccc(SC)c(C)c1 (optimized conformer: 41.964221046472304 kcal/mol)

>  <smiles>  (16) 
CCNCc1cnccc1Oc1ccc(SC)c(C)c1

>  <score_type>  (16) 
oracle

>  <origin>  (16) 
adg

>  <m_score__min__energy>  (16) 
-7.0499999999999998

>  <m_primary>  (16) 
energy

$$$$
16:0
     RDKit          3D

 53 55  0  0  0  0  0  0  0  0999 V2000
   -6.4890   25.6490  -29.3860 C   0  0  0  0  0  0  0  0  0  0  0  0
   -5.4260   24.5850  -29.7230 C   0  0  0  0  0  0  0  0  0  0  0  0
   -5.9180   23.4160  -30.5250 N   0  0  0  0  0  0  0  0  0  0  0  0
   -6.3140   23.8690  -31.8860 C   0  0  0  0  0  0  0  0  0  0  0  0
   -7.1590   22.9210  -29.8710 C   0  0  0  0  0  0  0  0  0  0  0  0
   -4.8440   22.3530  -30.6470 C   0  0  0  0  0  0  0  0  0  0  0  0
   -3.9120   22.3880  -31.8860 C   0  0  0  0  0  0  0  0  0  0  0  0
   -4.5110   21.7520  -33.0600 N   0  0  0  0  0  0  0  0  0  0  0  0
   -4.7610   20.3370  -33.0640 C   0  0  0  0  0  0  0  0  0  0  0  0
   -3.7450   19.4350  -33.4200 C   0  0  0  0  0  0  0  0  0  0  0  0
   -2.4880   19.8970  -33.8590 C   0  0  0  0  0  0  0  0  0  0  0  0
   -1.4950   19.0020  -34.2520 C   0  0  0  0  0  0  0  0  0  0  0  0
   -1.7460   17.6350  -34.2360 C   0  0  0  0  0  0  0  0  0  0  0  0
   -2.9830   17.1530  -33.8100 C   0  0  0  0  0  0  0  0  0  0  0  0
   -4.0000   18.0370  -33.3650 C   0  0  0  0  0  0  0  0  0  0  0  0
   -5.2210   17.5720  -32.9100 N   0  0  0  0  0  0  0  0  0  0  0  0
   -5.3900   16.1370  -32.5850 C   0  0  0  0  0  0  0  0  0  0  0  0
   -6.2750   18.4500  -32.7370 C   0  0  0  0  0  0  0  0  0  0  0  0
   -7.6020   17.9940  -32.5320 C   0  0  0  0  0  0  0  0  0  0  0  0
   -8.6450   18.8890  -32.2960 C   0  0  0  0  0  0  0  0  0  0  0  0
   -8.4070   20.2630  -32.2780 C   0  0  0  0  0  0  0  0  0  0  0  0
   -9.5250   21.2170  -31.9730 C   0  0  0  0  0  0  0  0  0  0  0  0
   -7.1110   20.7400  -32.5020 C   0  0  0  0  0  0  0  0  0  0  0  0
   -6.0470   19.8520  -32.7700 C   0  0  0  0  0  0  0  0  0  0  0  0
   -6.5816   25.7417  -28.2938 H   0  0  0  0  0  0  0  0  0  0  0  0
   -6.1866   26.6171  -29.8118 H   0  0  0  0  0  0  0  0  0  0  0  0
   -7.4574   25.3475  -29.8118 H   0  0  0  0  0  0  0  0  0  0  0  0
   -4.6241   25.0753  -30.2944 H   0  0  0  0  0  0  0  0  0  0  0  0
   -5.0930   24.1729  -28.7590 H   0  0  0  0  0  0  0  0  0  0  0  0
   -7.0359   24.6948  -31.8020 H   0  0  0  0  0  0  0  0  0  0  0  0
   -5.4232   24.2147  -32.4310 H   0  0  0  0  0  0  0  0  0  0  0  0
   -6.7756   23.0324  -32.4310 H   0  0  0  0  0  0  0  0  0  0  0  0
   -7.0414   22.9679  -28.7783 H   0  0  0  0  0  0  0  0  0  0  0  0
   -8.0094   23.5488  -30.1755 H   0  0  0  0  0  0  0  0  0  0  0  0
   -7.3439   21.8803  -30.1755 H   0  0  0  0  0  0  0  0  0  0  0  0
   -4.2041   22.4328  -29.7558 H   0  0  0  0  0  0  0  0  0  0  0  0
   -5.4041   21.4125  -30.7553 H   0  0  0  0  0  0  0  0  0  0  0  0
   -3.6889   23.4373  -32.1293 H   0  0  0  0  0  0  0  0  0  0  0  0
   -3.0003   21.8272  -31.6325 H   0  0  0  0  0  0  0  0  0  0  0  0
   -4.9900   22.3300  -33.7850 H   0  0  0  0  0  0  0  0  0  0  0  0
   -2.2882   20.9782  -33.8918 H   0  0  0  0  0  0  0  0  0  0  0  0
   -0.5127   19.3772  -34.5748 H   0  0  0  0  0  0  0  0  0  0  0  0
   -0.9658   16.9308  -34.5606 H   0  0  0  0  0  0  0  0  0  0  0  0
   -3.1737   16.0697  -33.8190 H   0  0  0  0  0  0  0  0  0  0  0  0
   -5.4052   16.0078  -31.4927 H   0  0  0  0  0  0  0  0  0  0  0  0
   -6.3371   15.7738  -33.0104 H   0  0  0  0  0  0  0  0  0  0  0  0
   -4.5532   15.5637  -33.0104 H   0  0  0  0  0  0  0  0  0  0  0  0
   -7.8124   16.9147  -32.5596 H   0  0  0  0  0  0  0  0  0  0  0  0
   -9.6625   18.5086  -32.1228 H   0  0  0  0  0  0  0  0  0  0  0  0
   -9.6378   21.3132  -30.8830 H   0  0  0  0  0  0  0  0  0  0  0  0
   -9.2953   22.2017  -32.4062 H   0  0  0  0  0  0  0  0  0  0  0  0
  -10.4612   20.8352  -32.4062 H   0  0  0  0  0  0  0  0  0  0  0  0
   -6.9184   21.8225  -32.4688 H   0  0  0  0  0  0  0  0  0  0  0  0
  1  2  1  0
  2  3  1  0
  3  4  1  0
  3  5  1  0
  3  6  1  0
  6  7  1  0
  7  8  1  0
  8  9  1  0
  9 10  2  0
 10 11  1  0
 11 12  2  0
 12 13  1  0
 13 14  2  0
 14 15  1  0
 15 16  2  0
 16 17  1  0
 16 18  1  0
 18 19  2  0
 19 20  1  0
 20 21  2  0
 21 22  1  0
 21 23  1  0
 23 24  2  0
 24  9  1  0
 15 10  1  0
 24 18  1  0
  1 25  1  0
  1 26  1  0
  1 27  1  0
  2 28  1  0
  2 29  1  0
  4 30  1  0
  4 31  1  0
  4 32  1  0
  5 33  1  0
  5 34  1  0
  5 35  1  0
  6 36  1  0
  6 37  1  0
  7 38  1  0
  7 39  1  0
  8 40  1  0
 11 41  1  0
 12 42  1  0
 13 43  1  0
 14 44  1  0
 17 45  1  0
 17 46  1  0
 17 47  1  0
 19 48  1  0
 20 49  1  0
 22 50  1  0
 22 51  1  0
 22 52  1  0
 23 53  1  0
M  CHG  2   3   1  16   1
M  END
>  <UniqueID>  (17) 
17

>  <SMILES>  (17) 
CC[N+](C)(C)CCNc1c2ccccc2[n+](C)c2ccc(C)cc12

>  <Energy>  (17) 
97.20465925518106

>  <Genealogy>  (17) 
CC[N+](C)(C)CCNc1c2ccccc2[n+](C)c2ccc(C)cc12 (3D coordinates assigned)
CC[N+](C)(C)CCNc1c2ccccc2[n+](C)c2ccc(C)cc12 (optimized conformer: 97.20465925518106 kcal/mol)

>  <smiles>  (17) 
CC[N+](C)(C)CCNc1c2ccccc2[n+](C)c2ccc(C)cc12

>  <score_type>  (17) 
oracle

>  <origin>  (17) 
adg

>  <m_score__min__energy>  (17) 
-7.04

>  <m_primary>  (17) 
energy

$$$$
17:0
     RDKit          3D

 46 48  0  0  0  0  0  0  0  0999 V2000
   -8.6474   19.5967  -31.0707 H   0  0  0  0  0  0  0  0  0  0  0  0
   -8.0270   20.0300  -31.8690 C   0  0  0  0  0  0  0  0  0  0  0  0
   -8.0480   21.3590  -32.0320 C   0  0  0  0  0  0  0  0  0  0  0  0
   -7.7523   21.7867  -33.0014 H   0  0  0  0  0  0  0  0  0  0  0  0
   -8.4670   22.2800  -30.9190 C   0  0  0  0  0  0  0  0  0  0  0  0
   -8.3986   21.7425  -29.9617 H   0  0  0  0  0  0  0  0  0  0  0  0
   -9.5012   22.6063  -31.1032 H   0  0  0  0  0  0  0  0  0  0  0  0
   -7.5970   23.4740  -30.8670 N   0  0  0  0  0  0  0  0  0  0  0  0
   -6.9620   23.7340  -32.1840 C   0  0  0  0  0  0  0  0  0  0  0  0
   -6.9216   24.8207  -32.3497 H   0  0  0  0  0  0  0  0  0  0  0  0
   -7.5663   23.2342  -32.9554 H   0  0  0  0  0  0  0  0  0  0  0  0
   -5.5380   23.1690  -32.2610 C   0  0  0  0  0  0  0  0  0  0  0  0
   -5.1276   23.3628  -33.2630 H   0  0  0  0  0  0  0  0  0  0  0  0
   -5.5784   22.0875  -32.0643 H   0  0  0  0  0  0  0  0  0  0  0  0
   -4.6620   23.8010  -31.2480 N   0  0  0  0  0  0  0  0  0  0  0  0
   -3.4100   23.0480  -31.0140 C   0  0  0  0  0  0  0  0  0  0  0  0
   -3.2762   22.9238  -29.9293 H   0  0  0  0  0  0  0  0  0  0  0  0
   -2.5944   23.6268  -31.4719 H   0  0  0  0  0  0  0  0  0  0  0  0
   -3.3990   21.6840  -31.6550 C   0  0  0  0  0  0  0  0  0  0  0  0
   -4.0640   20.5490  -31.2260 C   0  0  0  0  0  0  0  0  0  0  0  0
   -4.7068   20.4860  -30.3356 H   0  0  0  0  0  0  0  0  0  0  0  0
   -3.8000   19.5330  -32.0710 N   0  0  0  0  0  0  0  0  0  0  0  0
   -2.9980   20.0000  -33.0170 N   0  0  0  0  0  0  0  0  0  0  0  0
   -2.4420   19.1830  -34.0860 C   0  0  0  0  0  0  0  0  0  0  0  0
   -1.8735   18.3477  -33.6512 H   0  0  0  0  0  0  0  0  0  0  0  0
   -3.2587   18.7867  -34.7072 H   0  0  0  0  0  0  0  0  0  0  0  0
   -1.7737   19.7973  -34.7072 H   0  0  0  0  0  0  0  0  0  0  0  0
   -2.7190   21.2960  -32.7900 C   0  0  0  0  0  0  0  0  0  0  0  0
   -2.0640   21.9338  -33.4018 H   0  0  0  0  0  0  0  0  0  0  0  0
   -5.3610   24.2210  -30.0100 C   0  0  0  0  0  0  0  0  0  0  0  0
   -5.6526   25.2772  -30.1070 H   0  0  0  0  0  0  0  0  0  0  0  0
   -4.6731   24.0758  -29.1640 H   0  0  0  0  0  0  0  0  0  0  0  0
   -6.6200   23.3800  -29.7500 C   0  0  0  0  0  0  0  0  0  0  0  0
   -7.1008   23.7374  -28.8274 H   0  0  0  0  0  0  0  0  0  0  0  0
   -6.3113   22.3282  -29.6581 H   0  0  0  0  0  0  0  0  0  0  0  0
   -7.2160   19.1070  -32.7020 C   0  0  0  0  0  0  0  0  0  0  0  0
   -7.2090   17.7390  -32.3770 C   0  0  0  0  0  0  0  0  0  0  0  0
   -7.7903   17.3805  -31.5147 H   0  0  0  0  0  0  0  0  0  0  0  0
   -6.4700   16.8310  -33.1400 C   0  0  0  0  0  0  0  0  0  0  0  0
   -6.4660   15.7641  -32.8724 H   0  0  0  0  0  0  0  0  0  0  0  0
   -5.7370   17.2760  -34.2410 C   0  0  0  0  0  0  0  0  0  0  0  0
   -5.1506   16.5610  -34.8368 H   0  0  0  0  0  0  0  0  0  0  0  0
   -5.7480   18.6280  -34.5860 C   0  0  0  0  0  0  0  0  0  0  0  0
   -5.1749   18.9759  -35.4581 H   0  0  0  0  0  0  0  0  0  0  0  0
   -6.4850   19.5420  -33.8270 C   0  0  0  0  0  0  0  0  0  0  0  0
   -6.4948   20.6053  -34.1085 H   0  0  0  0  0  0  0  0  0  0  0  0
  1  2  1  0
  2  3  2  0
  3  4  1  0
  3  5  1  0
  5  6  1  0
  5  7  1  0
  5  8  1  0
  8  9  1  0
  9 10  1  0
  9 11  1  0
  9 12  1  0
 12 13  1  0
 12 14  1  0
 12 15  1  0
 15 16  1  0
 16 17  1  0
 16 18  1  0
 16 19  1  0
 19 20  1  0
 20 21  1  0
 20 22  2  0
 22 23  1  0
 23 24  1  0
 24 25  1  0
 24 26  1  0
 24 27  1  0
 23 28  1  0
 28 29  1  0
 15 30  1  0
 30 31  1  0
 30 32  1  0
 30 33  1  0
 33 34  1  0
 33 35  1  0
  2 36  1  0
 36 37  2  0
 37 38  1  0
 37 39  1  0
 39 40  1  0
 39 41  2  0
 41 42  1  0
 41 43  1  0
 43 44  1  0
 43 45  2  0
 45 46  1  0
 33  8  1  0
 45 36  1  0
 28 19  2  0
M  END
>  <UniqueID>  (18) 
18

>  <SMILES>  (18) 
Cn1cc(CN2CCN(C/C=C/c3ccccc3)CC2)cn1

>  <Energy>  (18) 
90.88413755929004

>  <Genealogy>  (18) 
Cn1cc(CN2CCN(C/C=C/c3ccccc3)CC2)cn1 (cis-trans isomerization)
Cn1cc(CN2CCN(C/C=C/c3ccccc3)CC2)cn1 (3D coordinates assigned)
Cn1cc(CN2CCN(C/C=C/c3ccccc3)CC2)cn1 (nonaromatic ring conformer: 90.88413755929004 kcal/mol)

>  <smiles>  (18) 
Cn1cc(CN2CCN(CC=Cc3ccccc3)CC2)cn1

>  <score_type>  (18) 
oracle

>  <origin>  (18) 
adg

>  <m_score__min__energy>  (18) 
-8.3399999999999999

>  <m_primary>  (18) 
energy

$$$$
18:0
     RDKit          3D

 89 93  0  0  0  0  0  0  0  0999 V2000
   -3.9260   24.1660  -27.4010 C   0  0  0  0  0  0  0  0  0  0  0  0
   -4.1850   24.0870  -28.9150 C   0  0  0  0  0  0  0  0  0  0  0  0
   -5.6010   24.2960  -29.3140 N   0  0  1  0  0  0  0  0  0  0  0  0
   -5.7700   25.5410  -30.0960 C   0  0  0  0  0  0  0  0  0  0  0  0
   -6.1520   23.1060  -30.0090 C   0  0  0  0  0  0  0  0  0  0  0  0
   -6.9500   23.4310  -31.2840 C   0  0  0  0  0  0  0  0  0  0  0  0
   -6.3320   22.8590  -32.4830 N   0  0  0  0  0  0  0  0  0  0  0  0
   -6.0640   21.4500  -32.5950 C   0  0  0  0  0  0  0  0  0  0  0  0
   -7.1120   20.5220  -32.4770 C   0  0  0  0  0  0  0  0  0  0  0  0
   -8.4390   20.9550  -32.2770 C   0  0  0  0  0  0  0  0  0  0  0  0
   -9.4790   20.0380  -32.1410 C   0  0  0  0  0  0  0  0  0  0  0  0
   -9.2110   18.6730  -32.1930 C   0  0  0  0  0  0  0  0  0  0  0  0
   -7.9060   18.2220  -32.3920 C   0  0  0  0  0  0  0  0  0  0  0  0
   -6.8290   19.1300  -32.5620 C   0  0  0  0  0  0  0  0  0  0  0  0
   -5.5370   18.6860  -32.7900 N   0  0  0  0  0  0  0  0  0  0  0  0
   -5.2990   17.2560  -33.0980 C   0  0  0  0  0  0  0  0  0  0  0  0
   -4.4860   19.5890  -32.7890 C   0  0  0  0  0  0  0  0  0  0  0  0
   -3.1320   19.1690  -32.8030 C   0  0  0  0  0  0  0  0  0  0  0  0
   -2.0840   20.0870  -32.9820 C   0  0  0  0  0  0  0  0  0  0  0  0
   -0.7350   19.7060  -33.0970 O   0  0  0  0  0  0  0  0  0  0  0  0
    0.3100   20.0080  -32.1710 C   0  0  0  0  0  0  0  0  0  0  0  0
    1.4790   18.9830  -32.1910 C   0  0  0  0  0  0  0  0  0  0  0  0
    1.2670   17.6430  -31.5450 N   0  0  2  0  0  0  0  0  0  0  0  0
    0.0500   16.9940  -32.1000 C   0  0  0  0  0  0  0  0  0  0  0  0
    1.0330   17.8890  -30.0740 C   0  0  0  0  0  0  0  0  0  0  0  0
    1.6220   16.7790  -29.1720 C   0  0  0  0  0  0  0  0  0  0  0  0
    3.1070   16.6490  -29.3230 N   0  0  1  0  0  0  0  0  0  0  0  0
    3.7620   17.6350  -28.4170 C   0  0  0  0  0  0  0  0  0  0  0  0
    3.5670   15.2890  -28.8780 C   0  0  0  0  0  0  0  0  0  0  0  0
    2.5770   14.4880  -28.0440 C   0  0  0  0  0  0  0  0  0  0  0  0
    2.3020   14.8510  -26.7110 C   0  0  0  0  0  0  0  0  0  0  0  0
    1.3690   14.1320  -25.9610 C   0  0  0  0  0  0  0  0  0  0  0  0
    0.6780   13.0630  -26.5390 C   0  0  0  0  0  0  0  0  0  0  0  0
   -0.6030   12.0880  -25.5090 Br  0  0  0  0  0  0  0  0  0  0  0  0
    0.9160   12.7170  -27.8720 C   0  0  0  0  0  0  0  0  0  0  0  0
    1.8530   13.4310  -28.6240 C   0  0  0  0  0  0  0  0  0  0  0  0
    3.5530   16.9480  -30.7250 C   0  0  0  0  0  0  0  0  0  0  0  0
    2.4330   16.7230  -31.7560 C   0  0  0  0  0  0  0  0  0  0  0  0
   -2.3770   21.4440  -33.0630 C   0  0  0  0  0  0  0  0  0  0  0  0
   -3.6840   21.8980  -32.9390 C   0  0  0  0  0  0  0  0  0  0  0  0
   -4.7470   20.9880  -32.7710 C   0  0  0  0  0  0  0  0  0  0  0  0
   -4.8407   23.8870  -26.8575 H   0  0  0  0  0  0  0  0  0  0  0  0
   -3.1140   23.4747  -27.1314 H   0  0  0  0  0  0  0  0  0  0  0  0
   -3.6381   25.1928  -27.1314 H   0  0  0  0  0  0  0  0  0  0  0  0
   -3.5729   24.8565  -29.4080 H   0  0  0  0  0  0  0  0  0  0  0  0
   -3.9233   23.0637  -29.2222 H   0  0  0  0  0  0  0  0  0  0  0  0
   -6.1280   24.4210  -28.4190 H   0  0  0  0  0  0  0  0  0  0  0  0
   -5.8856   26.3925  -29.4093 H   0  0  0  0  0  0  0  0  0  0  0  0
   -4.8850   25.6988  -30.7300 H   0  0  0  0  0  0  0  0  0  0  0  0
   -6.6650   25.4571  -30.7300 H   0  0  0  0  0  0  0  0  0  0  0  0
   -5.3138   22.4494  -30.2851 H   0  0  0  0  0  0  0  0  0  0  0  0
   -6.8552   22.6300  -29.3097 H   0  0  0  0  0  0  0  0  0  0  0  0
   -7.9662   23.0229  -31.1799 H   0  0  0  0  0  0  0  0  0  0  0  0
   -6.9686   24.5245  -31.4019 H   0  0  0  0  0  0  0  0  0  0  0  0
   -6.1860   23.4690  -33.3200 H   0  0  0  0  0  0  0  0  0  0  0  0
   -8.6561   22.0322  -32.2277 H   0  0  0  0  0  0  0  0  0  0  0  0
  -10.5099   20.3919  -31.9928 H   0  0  0  0  0  0  0  0  0  0  0  0
  -10.0303   17.9482  -32.0769 H   0  0  0  0  0  0  0  0  0  0  0  0
   -7.7078   17.1403  -32.4176 H   0  0  0  0  0  0  0  0  0  0  0  0
   -5.2047   16.6896  -32.1598 H   0  0  0  0  0  0  0  0  0  0  0  0
   -6.1438   16.8611  -33.6814 H   0  0  0  0  0  0  0  0  0  0  0  0
   -4.3719   17.1560  -33.6814 H   0  0  0  0  0  0  0  0  0  0  0  0
   -2.8973   18.1025  -32.6710 H   0  0  0  0  0  0  0  0  0  0  0  0
    0.7147   21.0010  -32.4160 H   0  0  0  0  0  0  0  0  0  0  0  0
   -0.1322   19.9714  -31.1645 H   0  0  0  0  0  0  0  0  0  0  0  0
    1.7319   18.7990  -33.2456 H   0  0  0  0  0  0  0  0  0  0  0  0
    2.2629   19.4557  -31.5810 H   0  0  0  0  0  0  0  0  0  0  0  0
   -0.5918   16.6518  -31.2748 H   0  0  0  0  0  0  0  0  0  0  0  0
   -0.5020   17.7175  -32.7179 H   0  0  0  0  0  0  0  0  0  0  0  0
    0.3433   16.1325  -32.7179 H   0  0  0  0  0  0  0  0  0  0  0  0
    1.4999   18.8468  -29.8006 H   0  0  0  0  0  0  0  0  0  0  0  0
   -0.0550   17.9002  -29.9123 H   0  0  0  0  0  0  0  0  0  0  0  0
    1.3931   17.0176  -28.1229 H   0  0  0  0  0  0  0  0  0  0  0  0
    1.1689   15.8239  -29.4760 H   0  0  0  0  0  0  0  0  0  0  0  0
    3.5743   17.3525  -27.3706 H   0  0  0  0  0  0  0  0  0  0  0  0
    4.8456   17.6431  -28.6059 H   0  0  0  0  0  0  0  0  0  0  0  0
    3.3494   18.6370  -28.6059 H   0  0  0  0  0  0  0  0  0  0  0  0
    3.8007   14.7018  -29.7783 H   0  0  0  0  0  0  0  0  0  0  0  0
    4.4302   15.4691  -28.2205 H   0  0  0  0  0  0  0  0  0  0  0  0
    2.8254   15.7060  -26.2581 H   0  0  0  0  0  0  0  0  0  0  0  0
    1.1774   14.4073  -24.9134 H   0  0  0  0  0  0  0  0  0  0  0  0
    0.3653   11.8820  -28.3297 H   0  0  0  0  0  0  0  0  0  0  0  0
    2.0254   13.1643  -29.6772 H   0  0  0  0  0  0  0  0  0  0  0  0
    3.8755   17.9984  -30.7769 H   0  0  0  0  0  0  0  0  0  0  0  0
    4.3771   16.2615  -30.9690 H   0  0  0  0  0  0  0  0  0  0  0  0
    2.8405   16.8947  -32.7632 H   0  0  0  0  0  0  0  0  0  0  0  0
    2.0711   15.6910  -31.6377 H   0  0  0  0  0  0  0  0  0  0  0  0
   -1.5640   22.1666  -33.2272 H   0  0  0  0  0  0  0  0  0  0  0  0
   -3.8912   22.9778  -32.9722 H   0  0  0  0  0  0  0  0  0  0  0  0
  1  2  1  0
  2  3  1  0
  3  4  1  0
  3  5  1  0
  5  6  1  0
  6  7  1  0
  7  8  1  0
  8  9  2  0
  9 10  1  0
 10 11  2  0
 11 12  1  0
 12 13  2  0
 13 14  1  0
 14 15  2  0
 15 16  1  0
 15 17  1  0
 17 18  2  0
 18 19  1  0
 19 20  1  0
 20 21  1  0
 21 22  1  0
 23 22  1  6
 23 24  1  0
 23 25  1  0
 25 26  1  0
 26 27  1  0
 27 28  1  1
 27 29  1  0
 29 30  1  0
 30 31  2  0
 31 32  1  0
 32 33  2  0
 33 34  1  0
 33 35  1  0
 35 36  2  0
 27 37  1  0
 37 38  1  0
 19 39  2  0
 39 40  1  0
 40 41  2  0
 41  8  1  0
 14  9  1  0
 41 17  1  0
 38 23  1  0
 36 30  1  0
  1 42  1  0
  1 43  1  0
  1 44  1  0
  2 45  1  0
  2 46  1  0
  3 47  1  1
  4 48  1  0
  4 49  1  0
  4 50  1  0
  5 51  1  0
  5 52  1  0
  6 53  1  0
  6 54  1  0
  7 55  1  0
 10 56  1  0
 11 57  1  0
 12 58  1  0
 13 59  1  0
 16 60  1  0
 16 61  1  0
 16 62  1  0
 18 63  1  0
 21 64  1  0
 21 65  1  0
 22 66  1  0
 22 67  1  0
 24 68  1  0
 24 69  1  0
 24 70  1  0
 25 71  1  0
 25 72  1  0
 26 73  1  0
 26 74  1  0
 28 75  1  0
 28 76  1  0
 28 77  1  0
 29 78  1  0
 29 79  1  0
 31 80  1  0
 32 81  1  0
 35 82  1  0
 36 83  1  0
 37 84  1  0
 37 85  1  0
 38 86  1  0
 38 87  1  0
 39 88  1  0
 40 89  1  0
M  CHG  4   3   1  15   1  23   1  27   1
M  END
>  <UniqueID>  (19) 
19

>  <SMILES>  (19) 
CC[N@@H+](C)CCNc1c2ccccc2[n+](C)c2cc(OCC[N+]3(C)CC[N+](C)(Cc4ccc(Br)cc4)CC3)ccc12

>  <Energy>  (19) 
157.5867557078693

>  <Genealogy>  (19) 
CC[NH+](C)CCNc1c2ccccc2[n+](C)c2cc(OCC[N+]3(C)CC[N+](C)(Cc4ccc(Br)cc4)CC3)ccc12 (protonated)
CC[N@@H+](C)CCNc1c2ccccc2[n+](C)c2cc(OCC[N+]3(C)CC[N+](C)(Cc4ccc(Br)cc4)CC3)ccc12 (chirality)
CC[N@@H+](C)CCNc1c2ccccc2[n+](C)c2cc(OCC[N+]3(C)CC[N+](C)(Cc4ccc(Br)cc4)CC3)ccc12 (3D coordinates assigned)
CC[N@@H+](C)CCNc1c2ccccc2[n+](C)c2cc(OCC[N+]3(C)CC[N+](C)(Cc4ccc(Br)cc4)CC3)ccc12 (nonaromatic ring conformer: 157.5867557078693 kcal/mol)

>  <smiles>  (19) 
CCN(C)CCNc1c2ccccc2[n+](C)c2cc(OCC[N+]3(C)CC[N+](C)(Cc4ccc(Br)cc4)CC3)ccc12

>  <score_type>  (19) 
oracle

>  <origin>  (19) 
adg

>  <m_score__min__energy>  (19) 
-7.6600000000000001

>  <m_primary>  (19) 
energy

$$$$
19:0
     RDKit          3D

 59 62  0  0  0  0  0  0  0  0999 V2000
   -6.8740   25.2970  -29.7290 C   0  0  0  0  0  0  0  0  0  0  0  0
   -5.3780   24.9490  -29.6670 C   0  0  0  0  0  0  0  0  0  0  0  0
   -5.0720   23.6110  -29.0920 N   0  0  2  0  0  0  0  0  0  0  0  0
   -3.8880   23.6650  -28.2130 C   0  0  0  0  0  0  0  0  0  0  0  0
   -4.9090   22.5290  -30.0960 C   0  0  0  0  0  0  0  0  0  0  0  0
   -4.1150   22.9790  -31.3360 C   0  0  0  0  0  0  0  0  0  0  0  0
   -4.7240   22.4620  -32.5640 N   0  0  0  0  0  0  0  0  0  0  0  0
   -5.5280   21.2690  -32.5740 C   0  0  0  0  0  0  0  0  0  0  0  0
   -6.9080   21.3560  -32.3150 C   0  0  0  0  0  0  0  0  0  0  0  0
   -7.6360   20.1600  -32.1080 C   0  0  0  0  0  0  0  0  0  0  0  0
   -6.9920   18.9460  -32.1960 N   0  0  0  0  0  0  0  0  0  0  0  0
   -7.5330   17.8040  -31.4320 C   0  0  0  0  0  0  0  0  0  0  0  0
   -5.7630   18.8630  -32.8200 C   0  0  0  0  0  0  0  0  0  0  0  0
   -4.9580   20.0160  -32.8740 C   0  0  0  0  0  0  0  0  0  0  0  0
   -3.4770   19.8650  -33.1040 C   0  0  0  0  0  0  0  0  0  0  0  0
   -3.1680   18.7930  -34.1360 C   0  0  0  0  0  0  0  0  0  0  0  0
   -3.9280   17.5560  -33.9080 N   0  0  0  0  0  0  0  0  0  0  0  0
   -3.3920   16.3940  -34.3990 C   0  0  0  0  0  0  0  0  0  0  0  0
   -4.1680   15.2460  -34.5230 C   0  0  0  0  0  0  0  0  0  0  0  0
   -5.5180   15.3070  -34.2100 C   0  0  0  0  0  0  0  0  0  0  0  0
   -6.0590   16.4860  -33.7080 C   0  0  0  0  0  0  0  0  0  0  0  0
   -5.2270   17.5970  -33.4480 C   0  0  0  0  0  0  0  0  0  0  0  0
   -9.0880   20.2270  -31.6510 C   0  0  0  0  0  0  0  0  0  0  0  0
   -9.7780   21.5330  -32.0400 C   0  0  0  0  0  0  0  0  0  0  0  0
   -8.9350   22.7140  -31.5840 C   0  0  0  0  0  0  0  0  0  0  0  0
   -7.5910   22.7150  -32.3110 C   0  0  0  0  0  0  0  0  0  0  0  0
   -7.2716   25.3895  -28.7075 H   0  0  0  0  0  0  0  0  0  0  0  0
   -7.0070   26.2501  -30.2619 H   0  0  0  0  0  0  0  0  0  0  0  0
   -7.4140   24.5005  -30.2619 H   0  0  0  0  0  0  0  0  0  0  0  0
   -4.9763   24.9816  -30.6905 H   0  0  0  0  0  0  0  0  0  0  0  0
   -4.9157   25.6877  -28.9957 H   0  0  0  0  0  0  0  0  0  0  0  0
   -5.8830   23.3520  -28.4780 H   0  0  0  0  0  0  0  0  0  0  0  0
   -4.2109   23.6503  -27.1616 H   0  0  0  0  0  0  0  0  0  0  0  0
   -3.2443   22.7953  -28.4111 H   0  0  0  0  0  0  0  0  0  0  0  0
   -3.3261   24.5897  -28.4111 H   0  0  0  0  0  0  0  0  0  0  0  0
   -4.3776   21.6893  -29.6243 H   0  0  0  0  0  0  0  0  0  0  0  0
   -5.9143   22.2378  -30.4347 H   0  0  0  0  0  0  0  0  0  0  0  0
   -4.1021   24.0782  -31.3758 H   0  0  0  0  0  0  0  0  0  0  0  0
   -3.0910   22.5847  -31.2592 H   0  0  0  0  0  0  0  0  0  0  0  0
   -4.6880   23.0490  -33.4280 H   0  0  0  0  0  0  0  0  0  0  0  0
   -7.4376   18.0053  -30.3548 H   0  0  0  0  0  0  0  0  0  0  0  0
   -8.5939   17.6625  -31.6860 H   0  0  0  0  0  0  0  0  0  0  0  0
   -6.9705   16.8935  -31.6860 H   0  0  0  0  0  0  0  0  0  0  0  0
   -3.0726   20.8251  -33.4571 H   0  0  0  0  0  0  0  0  0  0  0  0
   -3.0141   19.5644  -32.1525 H   0  0  0  0  0  0  0  0  0  0  0  0
   -3.4182   19.1818  -35.1341 H   0  0  0  0  0  0  0  0  0  0  0  0
   -2.0988   18.5482  -34.0534 H   0  0  0  0  0  0  0  0  0  0  0  0
   -2.3340   16.3688  -34.6990 H   0  0  0  0  0  0  0  0  0  0  0  0
   -3.7171   14.3026  -34.8647 H   0  0  0  0  0  0  0  0  0  0  0  0
   -6.1589   14.4254  -34.3584 H   0  0  0  0  0  0  0  0  0  0  0  0
   -7.1394   16.5532  -33.5127 H   0  0  0  0  0  0  0  0  0  0  0  0
   -9.6378   19.3908  -32.1076 H   0  0  0  0  0  0  0  0  0  0  0  0
   -9.0895   20.1693  -30.5525 H   0  0  0  0  0  0  0  0  0  0  0  0
   -9.8997   21.5709  -33.1326 H   0  0  0  0  0  0  0  0  0  0  0  0
  -10.7648   21.5816  -31.5564 H   0  0  0  0  0  0  0  0  0  0  0  0
   -9.4693   23.6494  -31.8068 H   0  0  0  0  0  0  0  0  0  0  0  0
   -8.7575   22.6316  -30.5016 H   0  0  0  0  0  0  0  0  0  0  0  0
   -7.7580   23.0248  -33.3532 H   0  0  0  0  0  0  0  0  0  0  0  0
   -6.9300   23.4102  -31.7727 H   0  0  0  0  0  0  0  0  0  0  0  0
  1  2  1  0
  2  3  1  0
  3  4  1  0
  3  5  1  0
  5  6  1  0
  6  7  1  0
  7  8  1  0
  8  9  2  0
  9 10  1  0
 10 11  2  0
 11 12  1  0
 11 13  1  0
 13 14  2  0
 14 15  1  0
 15 16  1  0
 16 17  1  0
 17 18  2  0
 18 19  1  0
 19 20  2  0
 20 21  1  0
 21 22  2  0
 10 23  1  0
 23 24  1  0
 24 25  1  0
 25 26  1  0
 14  8  1  0
 22 17  1  0
 26  9  1  0
 22 13  1  0
  1 27  1  0
  1 28  1  0
  1 29  1  0
  2 30  1  0
  2 31  1  0
  3 32  1  1
  4 33  1  0
  4 34  1  0
  4 35  1  0
  5 36  1  0
  5 37  1  0
  6 38  1  0
  6 39  1  0
  7 40  1  0
 12 41  1  0
 12 42  1  0
 12 43  1  0
 15 44  1  0
 15 45  1  0
 16 46  1  0
 16 47  1  0
 18 48  1  0
 19 49  1  0
 20 50  1  0
 21 51  1  0
 23 52  1  0
 23 53  1  0
 24 54  1  0
 24 55  1  0
 25 56  1  0
 25 57  1  0
 26 58  1  0
 26 59  1  0
M  CHG  3   3   1  11   1  17   1
M  END
>  <UniqueID>  (20) 
20

>  <SMILES>  (20) 
CC[N@H+](C)CCNc1c2c([n+](C)c3c1CC[n+]1ccccc1-3)CCCC2

>  <Energy>  (20) 
97.05623989210233

>  <Genealogy>  (20) 
CC[NH+](C)CCNc1c2c([n+](C)c3c1CC[n+]1ccccc1-3)CCCC2 (protonated)
CC[N@H+](C)CCNc1c2c([n+](C)c3c1CC[n+]1ccccc1-3)CCCC2 (chirality)
CC[N@H+](C)CCNc1c2c([n+](C)c3c1CC[n+]1ccccc1-3)CCCC2 (3D coordinates assigned)
CC[N@H+](C)CCNc1c2c([n+](C)c3c1CC[n+]1ccccc1-3)CCCC2 (nonaromatic ring conformer: 97.05623989210233 kcal/mol)

>  <smiles>  (20) 
CCN(C)CCNc1c2c([n+](C)c3c1CC[n+]1ccccc1-3)CCCC2

>  <score_type>  (20) 
oracle

>  <origin>  (20) 
adg

>  <m_score__min__energy>  (20) 
-7.2000000000000002

>  <m_primary>  (20) 
energy

$$$$
20:0
     RDKit          3D

 50 52  0  0  0  0  0  0  0  0999 V2000
   -3.0480   24.1450  -29.6800 C   0  0  0  0  0  0  0  0  0  0  0  0
   -3.8960   24.9500  -30.4680 O   0  0  0  0  0  0  0  0  0  0  0  0
   -5.2390   24.5190  -30.3470 C   0  0  0  0  0  0  0  0  0  0  0  0
   -5.8530   24.2990  -31.7330 C   0  0  0  0  0  0  0  0  0  0  0  0
   -6.3910   22.9260  -31.8460 N   0  0  0  0  0  0  0  0  0  0  0  0
   -7.6120   22.7530  -31.0390 C   0  0  0  0  0  0  0  0  0  0  0  0
   -8.3140   21.4240  -31.3930 C   0  0  0  0  0  0  0  0  0  0  0  0
   -7.3410   20.3210  -31.9190 C   0  0  0  0  0  0  0  0  0  0  0  0
   -5.9630   20.5230  -31.2220 C   0  0  0  0  0  0  0  0  0  0  0  0
   -5.3650   21.9260  -31.4690 C   0  0  0  0  0  0  0  0  0  0  0  0
   -7.9120   18.9120  -31.5540 C   0  0  0  0  0  0  0  0  0  0  0  0
   -7.5690   17.7890  -32.5580 C   0  0  0  0  0  0  0  0  0  0  0  0
   -6.3530   18.0860  -33.3340 N   0  0  0  0  0  0  0  0  0  0  0  0
   -5.3700   17.0600  -33.5940 C   0  0  0  0  0  0  0  0  0  0  0  0
   -4.5700   17.1430  -34.6930 N   0  0  0  0  0  0  0  0  0  0  0  0
   -3.6350   16.1960  -34.9610 C   0  0  0  0  0  0  0  0  0  0  0  0
   -3.4690   15.1130  -34.0920 C   0  0  0  0  0  0  0  0  0  0  0  0
   -2.4720   14.0330  -34.3880 C   0  0  0  0  0  0  0  0  0  0  0  0
   -4.3100   15.0300  -32.9790 C   0  0  0  0  0  0  0  0  0  0  0  0
   -5.2320   16.0010  -32.7500 N   0  0  0  0  0  0  0  0  0  0  0  0
   -6.2410   19.3770  -34.0310 C   0  0  0  0  0  0  0  0  0  0  0  0
   -7.2200   20.4160  -33.4690 C   0  0  0  0  0  0  0  0  0  0  0  0
   -3.2478   24.3347  -28.6151 H   0  0  0  0  0  0  0  0  0  0  0  0
   -3.2357   23.0848  -29.9051 H   0  0  0  0  0  0  0  0  0  0  0  0
   -1.9989   24.3875  -29.9051 H   0  0  0  0  0  0  0  0  0  0  0  0
   -5.2678   23.5749  -29.7832 H   0  0  0  0  0  0  0  0  0  0  0  0
   -5.8166   25.2913  -29.8180 H   0  0  0  0  0  0  0  0  0  0  0  0
   -6.6679   25.0215  -31.8873 H   0  0  0  0  0  0  0  0  0  0  0  0
   -5.0730   24.4407  -32.4956 H   0  0  0  0  0  0  0  0  0  0  0  0
   -7.3425   22.7466  -29.9725 H   0  0  0  0  0  0  0  0  0  0  0  0
   -8.2992   23.5849  -31.2530 H   0  0  0  0  0  0  0  0  0  0  0  0
   -8.8141   21.0441  -30.4899 H   0  0  0  0  0  0  0  0  0  0  0  0
   -9.0232   21.6413  -32.2053 H   0  0  0  0  0  0  0  0  0  0  0  0
   -6.0935   20.3827  -30.1388 H   0  0  0  0  0  0  0  0  0  0  0  0
   -5.2658   19.7869  -31.6487 H   0  0  0  0  0  0  0  0  0  0  0  0
   -4.8664   22.2632  -30.5483 H   0  0  0  0  0  0  0  0  0  0  0  0
   -4.6577   21.8431  -32.3074 H   0  0  0  0  0  0  0  0  0  0  0  0
   -7.5105   18.6252  -30.5708 H   0  0  0  0  0  0  0  0  0  0  0  0
   -9.0074   19.0114  -31.5660 H   0  0  0  0  0  0  0  0  0  0  0  0
   -7.4141   16.8525  -32.0021 H   0  0  0  0  0  0  0  0  0  0  0  0
   -8.4070   17.7021  -33.2653 H   0  0  0  0  0  0  0  0  0  0  0  0
   -3.0084   16.2805  -35.8611 H   0  0  0  0  0  0  0  0  0  0  0  0
   -2.0893   13.6184  -33.4437 H   0  0  0  0  0  0  0  0  0  0  0  0
   -2.9576   13.2349  -34.9687 H   0  0  0  0  0  0  0  0  0  0  0  0
   -1.6377   14.4533  -34.9687 H   0  0  0  0  0  0  0  0  0  0  0  0
   -4.2254   14.1782  -32.2882 H   0  0  0  0  0  0  0  0  0  0  0  0
   -5.2148   19.7559  -33.9154 H   0  0  0  0  0  0  0  0  0  0  0  0
   -6.4863   19.2151  -35.0910 H   0  0  0  0  0  0  0  0  0  0  0  0
   -6.8639   21.4217  -33.7370 H   0  0  0  0  0  0  0  0  0  0  0  0
   -8.2121   20.2185  -33.9012 H   0  0  0  0  0  0  0  0  0  0  0  0
  1  2  1  0
  2  3  1  0
  3  4  1  0
  4  5  1  0
  5  6  1  0
  6  7  1  0
  7  8  1  0
  8  9  1  0
  9 10  1  0
  8 11  1  0
 11 12  1  0
 12 13  1  0
 13 14  1  0
 14 15  2  0
 15 16  1  0
 16 17  2  0
 17 18  1  0
 17 19  1  0
 19 20  2  0
 13 21  1  0
 21 22  1  0
 10  5  1  0
 20 14  1  0
 22  8  1  0
  1 23  1  0
  1 24  1  0
  1 25  1  0
  3 26  1  0
  3 27  1  0
  4 28  1  0
  4 29  1  0
  6 30  1  0
  6 31  1  0
  7 32  1  0
  7 33  1  0
  9 34  1  0
  9 35  1  0
 10 36  1  0
 10 37  1  0
 11 38  1  0
 11 39  1  0
 12 40  1  0
 12 41  1  0
 16 42  1  0
 18 43  1  0
 18 44  1  0
 18 45  1  0
 19 46  1  0
 21 47  1  0
 21 48  1  0
 22 49  1  0
 22 50  1  0
M  END
>  <UniqueID>  (21) 
21

>  <SMILES>  (21) 
COCCN1CCC2(CC1)CCN(c1ncc(C)cn1)CC2

>  <Energy>  (21) 
65.42583141943304

>  <Genealogy>  (21) 
COCCN1CCC2(CC1)CCN(c1ncc(C)cn1)CC2 (3D coordinates assigned)
COCCN1CCC2(CC1)CCN(c1ncc(C)cn1)CC2 (nonaromatic ring conformer: 65.42583141943304 kcal/mol)

>  <smiles>  (21) 
COCCN1CCC2(CC1)CCN(c1ncc(C)cn1)CC2

>  <score_type>  (21) 
oracle

>  <origin>  (21) 
adg

>  <m_score__min__energy>  (21) 
-7.54

>  <m_primary>  (21) 
energy

$$$$
21:0
     RDKit          3D

 34 35  0  0  0  0  0  0  0  0999 V2000
   -6.4690   25.6760  -29.3670 C   0  0  0  0  0  0  0  0  0  0  0  0
   -5.6330   24.4100  -29.5080 C   0  0  0  0  0  0  0  0  0  0  0  0
   -5.0030   24.2060  -31.2140 S   0  0  0  0  0  0  0  0  0  0  0  0
   -5.9880   22.7430  -31.5870 C   0  0  0  0  0  0  0  0  0  0  0  0
   -7.3120   22.7920  -31.3200 N   0  0  0  0  0  0  0  0  0  0  0  0
   -8.1410   21.7410  -31.5200 C   0  0  0  0  0  0  0  0  0  0  0  0
   -9.5860   21.9140  -31.1410 C   0  0  0  0  0  0  0  0  0  0  0  0
   -7.6300   20.5340  -32.0540 C   0  0  0  0  0  0  0  0  0  0  0  0
   -8.4580   19.4090  -32.1970 C   0  0  0  0  0  0  0  0  0  0  0  0
   -7.9620   18.2180  -32.6980 C   0  0  0  0  0  0  0  0  0  0  0  0
   -6.6430   18.1230  -33.1450 C   0  0  0  0  0  0  0  0  0  0  0  0
   -6.1800   16.7970  -33.6960 C   0  0  0  0  0  0  0  0  0  0  0  0
   -5.8040   19.2710  -33.1190 C   0  0  0  0  0  0  0  0  0  0  0  0
   -4.4830   19.2180  -33.8620 C   0  0  0  0  0  0  0  0  0  0  0  0
   -6.2570   20.4610  -32.4480 C   0  0  0  0  0  0  0  0  0  0  0  0
   -5.4180   21.5810  -32.1430 C   0  0  0  0  0  0  0  0  0  0  0  0
   -3.9770   21.5510  -32.2770 C   0  0  0  0  0  0  0  0  0  0  0  0
   -2.8240   21.5420  -32.3920 N   0  0  0  0  0  0  0  0  0  0  0  0
   -6.6173   25.9006  -28.3004 H   0  0  0  0  0  0  0  0  0  0  0  0
   -5.9471   26.5156  -29.8494 H   0  0  0  0  0  0  0  0  0  0  0  0
   -7.4461   25.5258  -29.8494 H   0  0  0  0  0  0  0  0  0  0  0  0
   -4.7794   24.4669  -28.8166 H   0  0  0  0  0  0  0  0  0  0  0  0
   -6.2727   23.5469  -29.2717 H   0  0  0  0  0  0  0  0  0  0  0  0
   -9.6788   21.9251  -30.0450 H   0  0  0  0  0  0  0  0  0  0  0  0
   -9.9613   22.8635  -31.5504 H   0  0  0  0  0  0  0  0  0  0  0  0
  -10.1748   21.0799  -31.5504 H   0  0  0  0  0  0  0  0  0  0  0  0
   -9.5169   19.4753  -31.9064 H   0  0  0  0  0  0  0  0  0  0  0  0
   -8.6158   17.3346  -32.7446 H   0  0  0  0  0  0  0  0  0  0  0  0
   -5.9426   16.1172  -32.8645 H   0  0  0  0  0  0  0  0  0  0  0  0
   -6.9778   16.3575  -34.3126 H   0  0  0  0  0  0  0  0  0  0  0  0
   -5.2820   16.9496  -34.3126 H   0  0  0  0  0  0  0  0  0  0  0  0
   -3.6559   19.1848  -33.1375 H   0  0  0  0  0  0  0  0  0  0  0  0
   -4.4535   18.3179  -34.4937 H   0  0  0  0  0  0  0  0  0  0  0  0
   -4.3815   20.1128  -34.4937 H   0  0  0  0  0  0  0  0  0  0  0  0
  1  2  1  0
  2  3  1  0
  3  4  1  0
  4  5  2  0
  5  6  1  0
  6  7  1  0
  6  8  2  0
  8  9  1  0
  9 10  2  0
 10 11  1  0
 11 12  1  0
 11 13  2  0
 13 14  1  0
 13 15  1  0
 15 16  2  0
 16 17  1  0
 17 18  3  0
 16  4  1  0
 15  8  1  0
  1 19  1  0
  1 20  1  0
  1 21  1  0
  2 22  1  0
  2 23  1  0
  7 24  1  0
  7 25  1  0
  7 26  1  0
  9 27  1  0
 10 28  1  0
 12 29  1  0
 12 30  1  0
 12 31  1  0
 14 32  1  0
 14 33  1  0
 14 34  1  0
M  END
>  <UniqueID>  (22) 
22

>  <SMILES>  (22) 
CCSc1nc(C)c2ccc(C)c(C)c2c1C#N

>  <Energy>  (22) 
46.84358584118226

>  <Genealogy>  (22) 
CCSc1nc(C)c2ccc(C)c(C)c2c1C#N (3D coordinates assigned)
CCSc1nc(C)c2ccc(C)c(C)c2c1C#N (optimized conformer: 46.84358584118226 kcal/mol)

>  <smiles>  (22) 
CCSc1nc(C)c2ccc(C)c(C)c2c1C#N

>  <score_type>  (22) 
oracle

>  <origin>  (22) 
adg

>  <m_score__min__energy>  (22) 
-7.7300000000000004

>  <m_primary>  (22) 
energy

$$$$
22:0
     RDKit          3D

 80 83  0  0  0  0  0  0  0  0999 V2000
   -7.4640   18.1860  -31.5480 C   0  0  0  0  0  0  0  0  0  0  0  0
   -8.7400   18.4570  -32.3420 C   0  0  0  0  0  0  0  0  0  0  0  0
   -8.6340   19.7380  -33.0510 N   0  0  0  0  0  0  0  0  0  0  0  0
   -8.9610   20.8700  -32.1670 C   0  0  0  0  0  0  0  0  0  0  0  0
   -7.7350   21.7740  -31.9230 C   0  0  0  0  0  0  0  0  0  0  0  0
   -6.8130   21.8280  -33.0740 N   0  0  0  0  0  0  0  0  0  0  0  0
   -5.4540   21.4430  -32.7050 C   0  0  0  0  0  0  0  0  0  0  0  0
   -4.8890   20.2010  -33.1290 C   0  0  0  0  0  0  0  0  0  0  0  0
   -5.6320   19.2280  -33.8530 C   0  0  0  0  0  0  0  0  0  0  0  0
   -5.0670   18.0090  -34.2180 C   0  0  0  0  0  0  0  0  0  0  0  0
   -3.7590   17.7130  -33.8720 C   0  0  0  0  0  0  0  0  0  0  0  0
   -2.9950   18.6460  -33.1800 C   0  0  0  0  0  0  0  0  0  0  0  0
   -3.5240   19.9160  -32.8260 C   0  0  0  0  0  0  0  0  0  0  0  0
   -2.7380   20.8540  -32.1940 N   0  0  0  0  0  0  0  0  0  0  0  0
   -1.2630   20.6950  -32.1930 C   0  0  0  0  0  0  0  0  0  0  0  0
   -3.3140   21.9620  -31.6090 C   0  0  0  0  0  0  0  0  0  0  0  0
   -2.5870   22.7700  -30.7010 C   0  0  0  0  0  0  0  0  0  0  0  0
   -3.1090   23.9700  -30.2000 C   0  0  0  0  0  0  0  0  0  0  0  0
   -2.3720   24.8040  -29.3380 O   0  0  0  0  0  0  0  0  0  0  0  0
   -1.7510   24.3690  -28.1310 C   0  0  0  0  0  0  0  0  0  0  0  0
   -2.1970   25.2700  -26.9560 C   0  0  0  0  0  0  0  0  0  0  0  0
   -1.1260   25.5960  -25.9520 N   0  0  0  0  0  0  0  0  0  0  0  0
   -0.5840   24.3390  -25.3630 C   0  0  0  0  0  0  0  0  0  0  0  0
   -0.0060   26.3660  -26.6020 C   0  0  0  0  0  0  0  0  0  0  0  0
   -0.1660   27.8910  -26.4510 C   0  0  0  0  0  0  0  0  0  0  0  0
   -0.1310   28.3240  -25.0180 N   0  0  0  0  0  0  0  0  0  0  0  0
   -0.8530   29.6180  -24.8880 C   0  0  0  0  0  0  0  0  0  0  0  0
    1.2820   28.5500  -24.6000 C   0  0  0  0  0  0  0  0  0  0  0  0
   -0.7510   27.3020  -24.1160 C   0  0  0  0  0  0  0  0  0  0  0  0
   -1.7620   26.3980  -24.8520 C   0  0  0  0  0  0  0  0  0  0  0  0
   -4.3920   24.3670  -30.5690 C   0  0  0  0  0  0  0  0  0  0  0  0
   -4.8660   25.6020  -30.0970 O   0  0  0  0  0  0  0  0  0  0  0  0
   -6.1380   25.8110  -29.4870 C   0  0  0  0  0  0  0  0  0  0  0  0
   -5.1650   23.5340  -31.3920 C   0  0  0  0  0  0  0  0  0  0  0  0
   -4.6590   22.3120  -31.9040 C   0  0  0  0  0  0  0  0  0  0  0  0
   -7.6851   18.2330  -30.4715 H   0  0  0  0  0  0  0  0  0  0  0  0
   -7.0805   17.1864  -31.8003 H   0  0  0  0  0  0  0  0  0  0  0  0
   -6.7073   18.9435  -31.8003 H   0  0  0  0  0  0  0  0  0  0  0  0
   -8.8917   17.6489  -33.0727 H   0  0  0  0  0  0  0  0  0  0  0  0
   -9.5921   18.5007  -31.6477 H   0  0  0  0  0  0  0  0  0  0  0  0
   -9.3380   19.7330  -33.8300 H   0  0  0  0  0  0  0  0  0  0  0  0
   -9.7581   21.4679  -32.6330 H   0  0  0  0  0  0  0  0  0  0  0  0
   -9.2881   20.4657  -31.1977 H   0  0  0  0  0  0  0  0  0  0  0  0
   -8.0893   22.7936  -31.7110 H   0  0  0  0  0  0  0  0  0  0  0  0
   -7.1768   21.3458  -31.0774 H   0  0  0  0  0  0  0  0  0  0  0  0
   -6.8790   22.7560  -33.5340 H   0  0  0  0  0  0  0  0  0  0  0  0
   -7.1640   21.2040  -33.8340 H   0  0  0  0  0  0  0  0  0  0  0  0
   -6.6745   19.4430  -34.1303 H   0  0  0  0  0  0  0  0  0  0  0  0
   -5.6624   17.2774  -34.7839 H   0  0  0  0  0  0  0  0  0  0  0  0
   -3.3247   16.7399  -34.1447 H   0  0  0  0  0  0  0  0  0  0  0  0
   -1.9607   18.3959  -32.9012 H   0  0  0  0  0  0  0  0  0  0  0  0
   -0.8991   20.6558  -31.1557 H   0  0  0  0  0  0  0  0  0  0  0  0
   -0.9944   19.7627  -32.7113 H   0  0  0  0  0  0  0  0  0  0  0  0
   -0.8018   21.5486  -32.7113 H   0  0  0  0  0  0  0  0  0  0  0  0
   -1.5856   22.4468  -30.3804 H   0  0  0  0  0  0  0  0  0  0  0  0
   -2.0434   23.3289  -27.9246 H   0  0  0  0  0  0  0  0  0  0  0  0
   -0.6585   24.4327  -28.2421 H   0  0  0  0  0  0  0  0  0  0  0  0
   -2.5683   26.2165  -27.3758 H   0  0  0  0  0  0  0  0  0  0  0  0
   -2.9621   24.6993  -26.4092 H   0  0  0  0  0  0  0  0  0  0  0  0
   -0.6129   24.4061  -24.2654 H   0  0  0  0  0  0  0  0  0  0  0  0
   -1.1942   23.4859  -25.6944 H   0  0  0  0  0  0  0  0  0  0  0  0
    0.4553   24.1971  -25.6944 H   0  0  0  0  0  0  0  0  0  0  0  0
    0.9443   26.0643  -26.1374 H   0  0  0  0  0  0  0  0  0  0  0  0
   -0.0248   26.1351  -27.6773 H   0  0  0  0  0  0  0  0  0  0  0  0
    0.6528   28.3884  -26.9915 H   0  0  0  0  0  0  0  0  0  0  0  0
   -1.1463   28.1704  -26.8645 H   0  0  0  0  0  0  0  0  0  0  0  0
   -0.9868   29.8578  -23.8228 H   0  0  0  0  0  0  0  0  0  0  0  0
   -0.2687   30.4142  -25.3725 H   0  0  0  0  0  0  0  0  0  0  0  0
   -1.8374   29.5389  -25.3725 H   0  0  0  0  0  0  0  0  0  0  0  0
    1.3424   28.5597  -23.5017 H   0  0  0  0  0  0  0  0  0  0  0  0
    1.9150   27.7417  -24.9949 H   0  0  0  0  0  0  0  0  0  0  0  0
    1.6313   29.5154  -24.9949 H   0  0  0  0  0  0  0  0  0  0  0  0
    0.0468   26.6708  -23.6975 H   0  0  0  0  0  0  0  0  0  0  0  0
   -1.2972   27.8404  -23.3275 H   0  0  0  0  0  0  0  0  0  0  0  0
   -2.2098   25.7051  -24.1244 H   0  0  0  0  0  0  0  0  0  0  0  0
   -2.5198   27.0502  -25.3106 H   0  0  0  0  0  0  0  0  0  0  0  0
   -6.0273   25.7928  -28.3927 H   0  0  0  0  0  0  0  0  0  0  0  0
   -6.5383   26.7870  -29.7989 H   0  0  0  0  0  0  0  0  0  0  0  0
   -6.8295   25.0144  -29.7989 H   0  0  0  0  0  0  0  0  0  0  0  0
   -6.1913   23.8369  -31.6470 H   0  0  0  0  0  0  0  0  0  0  0  0
  1  2  1  0
  2  3  1  0
  3  4  1  0
  4  5  1  0
  5  6  1  0
  6  7  1  0
  7  8  2  0
  8  9  1  0
  9 10  2  0
 10 11  1  0
 11 12  2  0
 12 13  1  0
 13 14  2  0
 14 15  1  0
 14 16  1  0
 16 17  2  0
 17 18  1  0
 18 19  1  0
 19 20  1  0
 20 21  1  0
 21 22  1  0
 22 23  1  0
 22 24  1  0
 24 25  1  0
 25 26  1  0
 26 27  1  0
 26 28  1  0
 26 29  1  0
 29 30  1  0
 18 31  2  0
 31 32  1  0
 32 33  1  0
 31 34  1  0
 34 35  2  0
 35  7  1  0
 13  8  1  0
 35 16  1  0
 30 22  1  0
  1 36  1  0
  1 37  1  0
  1 38  1  0
  2 39  1  0
  2 40  1  0
  3 41  1  0
  4 42  1  0
  4 43  1  0
  5 44  1  0
  5 45  1  0
  6 46  1  0
  6 47  1  0
  9 48  1  0
 10 49  1  0
 11 50  1  0
 12 51  1  0
 15 52  1  0
 15 53  1  0
 15 54  1  0
 17 55  1  0
 20 56  1  0
 20 57  1  0
 21 58  1  0
 21 59  1  0
 23 60  1  0
 23 61  1  0
 23 62  1  0
 24 63  1  0
 24 64  1  0
 25 65  1  0
 25 66  1  0
 27 67  1  0
 27 68  1  0
 27 69  1  0
 28 70  1  0
 28 71  1  0
 28 72  1  0
 29 73  1  0
 29 74  1  0
 30 75  1  0
 30 76  1  0
 33 77  1  0
 33 78  1  0
 33 79  1  0
 34 80  1  0
M  CHG  4   6   1  14   1  22   1  26   1
M  END
>  <UniqueID>  (23) 
23

>  <SMILES>  (23) 
CCNCC[NH2+]c1c2ccccc2[n+](C)c2cc(OCC[N+]3(C)CC[N+](C)(C)CC3)c(OC)cc12

>  <Energy>  (23) 
134.06145934442236

>  <Genealogy>  (23) 
CCNCC[NH2+]c1c2ccccc2[n+](C)c2cc(OCC[N+]3(C)CC[N+](C)(C)CC3)c(OC)cc12 (protonated)
CCNCC[NH2+]c1c2ccccc2[n+](C)c2cc(OCC[N+]3(C)CC[N+](C)(C)CC3)c(OC)cc12 (3D coordinates assigned)
CCNCC[NH2+]c1c2ccccc2[n+](C)c2cc(OCC[N+]3(C)CC[N+](C)(C)CC3)c(OC)cc12 (nonaromatic ring conformer: 134.06145934442236 kcal/mol)

>  <smiles>  (23) 
CCNCCNc1c2ccccc2[n+](C)c2cc(OCC[N+]3(C)CC[N+](C)(C)CC3)c(OC)cc12

>  <score_type>  (23) 
oracle

>  <origin>  (23) 
adg

>  <m_score__min__energy>  (23) 
-8.0999999999999996

>  <m_primary>  (23) 
energy

$$$$
23:0
     RDKit          3D

 55 58  0  0  0  0  0  0  0  0999 V2000
   -3.8460   16.6910  -35.7160 C   0  0  0  0  0  0  0  0  0  0  0  0
   -4.0640   17.1340  -34.3270 N   0  0  0  0  0  0  0  0  0  0  0  0
   -2.7610   17.3690  -33.6790 C   0  0  0  0  0  0  0  0  0  0  0  0
   -4.8510   16.1200  -33.5900 C   0  0  0  0  0  0  0  0  0  0  0  0
   -6.3410   16.2050  -33.9610 C   0  0  0  0  0  0  0  0  0  0  0  0
   -6.9790   17.5290  -33.4950 C   0  0  0  0  0  0  0  0  0  0  0  0
   -6.4630   18.7030  -34.2360 N   0  0  0  0  0  0  0  0  0  0  0  0
   -5.9670   19.7220  -33.3330 C   0  0  0  0  0  0  0  0  0  0  0  0
   -4.5890   19.9750  -33.2860 C   0  0  0  0  0  0  0  0  0  0  0  0
   -4.0620   20.9220  -32.4120 C   0  0  0  0  0  0  0  0  0  0  0  0
   -4.9000   21.6490  -31.5520 C   0  0  0  0  0  0  0  0  0  0  0  0
   -6.3010   21.4500  -31.6280 C   0  0  0  0  0  0  0  0  0  0  0  0
   -6.8360   20.4440  -32.4720 C   0  0  0  0  0  0  0  0  0  0  0  0
   -8.3310   20.1930  -32.5090 C   0  0  0  0  0  0  0  0  0  0  0  0
   -9.0850   20.8600  -31.3490 C   0  0  0  0  0  0  0  0  0  0  0  0
   -8.6260   22.2410  -31.1170 N   0  0  0  0  0  0  0  0  0  0  0  0
   -8.9130   23.1140  -32.2760 C   0  0  0  0  0  0  0  0  0  0  0  0
   -7.2040   22.2390  -30.6900 C   0  0  2  0  0  0  0  0  0  0  0  0
   -6.6560   23.6660  -30.4640 C   0  0  0  0  0  0  0  0  0  0  0  0
   -5.2210   23.6110  -30.0190 C   0  0  0  0  0  0  0  0  0  0  0  0
   -4.7300   24.5650  -29.1140 C   0  0  0  0  0  0  0  0  0  0  0  0
   -3.3890   24.5420  -28.7260 C   0  0  0  0  0  0  0  0  0  0  0  0
   -2.5320   23.5700  -29.2400 C   0  0  0  0  0  0  0  0  0  0  0  0
   -3.0050   22.6240  -30.1550 C   0  0  0  0  0  0  0  0  0  0  0  0
   -4.3520   22.6460  -30.5770 C   0  0  0  0  0  0  0  0  0  0  0  0
   -3.3603   15.7040  -35.7141 H   0  0  0  0  0  0  0  0  0  0  0  0
   -4.8134   16.6226  -36.2352 H   0  0  0  0  0  0  0  0  0  0  0  0
   -3.2017   17.4158  -36.2352 H   0  0  0  0  0  0  0  0  0  0  0  0
   -2.8856   17.3465  -32.5863 H   0  0  0  0  0  0  0  0  0  0  0  0
   -2.0531   16.5840  -33.9836 H   0  0  0  0  0  0  0  0  0  0  0  0
   -2.3720   18.3518  -33.9836 H   0  0  0  0  0  0  0  0  0  0  0  0
   -4.4737   15.1181  -33.8425 H   0  0  0  0  0  0  0  0  0  0  0  0
   -4.7462   16.3098  -32.5116 H   0  0  0  0  0  0  0  0  0  0  0  0
   -6.4395   16.1289  -35.0539 H   0  0  0  0  0  0  0  0  0  0  0  0
   -6.8641   15.3800  -33.4553 H   0  0  0  0  0  0  0  0  0  0  0  0
   -8.0669   17.4678  -33.6457 H   0  0  0  0  0  0  0  0  0  0  0  0
   -6.7229   17.6664  -32.4341 H   0  0  0  0  0  0  0  0  0  0  0  0
   -5.7030   18.4300  -34.9020 H   0  0  0  0  0  0  0  0  0  0  0  0
   -7.2210   19.0950  -34.8390 H   0  0  0  0  0  0  0  0  0  0  0  0
   -3.9132   19.4164  -33.9503 H   0  0  0  0  0  0  0  0  0  0  0  0
   -2.9770   21.1025  -32.3952 H   0  0  0  0  0  0  0  0  0  0  0  0
   -8.7283   20.5863  -33.4564 H   0  0  0  0  0  0  0  0  0  0  0  0
   -8.4828   19.1075  -32.4165 H   0  0  0  0  0  0  0  0  0  0  0  0
  -10.1590   20.8773  -31.5862 H   0  0  0  0  0  0  0  0  0  0  0  0
   -8.8898   20.2780  -30.4362 H   0  0  0  0  0  0  0  0  0  0  0  0
   -9.2379   24.1024  -31.9190 H   0  0  0  0  0  0  0  0  0  0  0  0
   -8.0040   23.2249  -32.8855 H   0  0  0  0  0  0  0  0  0  0  0  0
   -9.7105   22.6639  -32.8855 H   0  0  0  0  0  0  0  0  0  0  0  0
   -7.1912   21.7188  -29.7209 H   0  0  0  0  0  0  0  0  0  0  0  0
   -6.7226   24.2331  -31.4042 H   0  0  0  0  0  0  0  0  0  0  0  0
   -7.2536   24.1586  -29.6828 H   0  0  0  0  0  0  0  0  0  0  0  0
   -5.4044   25.3338  -28.7089 H   0  0  0  0  0  0  0  0  0  0  0  0
   -3.0089   25.2904  -28.0151 H   0  0  0  0  0  0  0  0  0  0  0  0
   -1.4785   23.5470  -28.9243 H   0  0  0  0  0  0  0  0  0  0  0  0
   -2.3222   21.8568  -30.5489 H   0  0  0  0  0  0  0  0  0  0  0  0
  1  2  1  0
  2  3  1  0
  2  4  1  0
  4  5  1  0
  5  6  1  0
  6  7  1  0
  7  8  1  0
  8  9  2  0
  9 10  1  0
 10 11  2  0
 11 12  1  0
 12 13  2  0
 13 14  1  0
 14 15  1  0
 15 16  1  0
 16 17  1  0
 16 18  1  0
 18 19  1  0
 19 20  1  0
 20 21  2  0
 21 22  1  0
 22 23  2  0
 23 24  1  0
 24 25  2  0
 13  8  1  0
 25 20  1  0
 25 11  1  0
 18 12  1  0
  1 26  1  0
  1 27  1  0
  1 28  1  0
  3 29  1  0
  3 30  1  0
  3 31  1  0
  4 32  1  0
  4 33  1  0
  5 34  1  0
  5 35  1  0
  6 36  1  0
  6 37  1  0
  7 38  1  0
  7 39  1  0
  9 40  1  0
 10 41  1  0
 14 42  1  0
 14 43  1  0
 15 44  1  0
 15 45  1  0
 17 46  1  0
 17 47  1  0
 17 48  1  0
 18 49  1  1
 19 50  1  0
 19 51  1  0
 21 52  1  0
 22 53  1  0
 23 54  1  0
 24 55  1  0
M  CHG  1   7   1
M  END
>  <UniqueID>  (24) 
24

>  <SMILES>  (24) 
CN(C)CCC[NH2+]c1ccc2c3c1CCN(C)[C@@H]3Cc1ccccc1-2

>  <Energy>  (24) 
76.30424709650046

>  <Genealogy>  (24) 
CN(C)CCC[NH2+]c1ccc2c3c1CCN(C)C3Cc1ccccc1-2 (protonated)
CN(C)CCC[NH2+]c1ccc2c3c1CCN(C)[C@@H]3Cc1ccccc1-2 (chirality)
CN(C)CCC[NH2+]c1ccc2c3c1CCN(C)[C@@H]3Cc1ccccc1-2 (3D coordinates assigned)
CN(C)CCC[NH2+]c1ccc2c3c1CCN(C)[C@@H]3Cc1ccccc1-2 (nonaromatic ring conformer: 76.30424709650046 kcal/mol)

>  <smiles>  (24) 
CN(C)CCCNc1ccc2c3c1CCN(C)C3Cc1ccccc1-2

>  <score_type>  (24) 
oracle

>  <origin>  (24) 
adg

>  <m_score__min__energy>  (24) 
-8.1099999999999994

>  <m_primary>  (24) 
energy

$$$$
24:0
     RDKit          3D

 57 59  0  0  0  0  0  0  0  0999 V2000
   -5.2340   18.0510  -34.7140 C   0  0  0  0  0  0  0  0  0  0  0  0
   -6.1130   19.2820  -34.5210 C   0  0  0  0  0  0  0  0  0  0  0  0
   -5.7810   19.9350  -33.3120 O   0  0  0  0  0  0  0  0  0  0  0  0
   -4.9730   19.1050  -32.5020 C   0  0  0  0  0  0  0  0  0  0  0  0
   -5.8560   18.3510  -31.5160 C   0  0  0  0  0  0  0  0  0  0  0  0
   -7.0480   19.0810  -31.3220 O   0  0  0  0  0  0  0  0  0  0  0  0
   -8.1630   18.2640  -31.6090 C   0  0  0  0  0  0  0  0  0  0  0  0
   -9.0140   18.9520  -32.6670 C   0  0  0  0  0  0  0  0  0  0  0  0
   -8.6410   20.3730  -32.7470 N   0  0  0  0  0  0  0  0  0  0  0  0
   -9.5260   21.2260  -31.9410 C   0  0  0  0  0  0  0  0  0  0  0  0
   -8.7140   22.3090  -31.2080 C   0  0  0  0  0  0  0  0  0  0  0  0
   -7.6390   22.9700  -32.0900 C   0  0  0  0  0  0  0  0  0  0  0  0
   -6.4500   22.1180  -32.2540 N   0  0  0  0  0  0  0  0  0  0  0  0
   -5.3520   22.6520  -31.4860 C   0  0  0  0  0  0  0  0  0  0  0  0
   -5.2700   24.0290  -31.2210 C   0  0  0  0  0  0  0  0  0  0  0  0
   -4.2180   24.5460  -30.4620 C   0  0  0  0  0  0  0  0  0  0  0  0
   -3.2290   23.6900  -29.9460 C   0  0  0  0  0  0  0  0  0  0  0  0
   -2.1520   24.1680  -29.1780 C   0  0  0  0  0  0  0  0  0  0  0  0
   -2.0380   25.4020  -28.9360 O   0  0  0  0  0  0  0  0  0  0  0  0
   -1.2030   23.2560  -28.6840 C   0  0  0  0  0  0  0  0  0  0  0  0
   -0.1010   23.6660  -27.9100 C   0  0  0  0  0  0  0  0  0  0  0  0
    0.8160   22.7220  -27.4390 C   0  0  0  0  0  0  0  0  0  0  0  0
    0.6450   21.3670  -27.7330 C   0  0  0  0  0  0  0  0  0  0  0  0
   -0.4450   20.9480  -28.5020 C   0  0  0  0  0  0  0  0  0  0  0  0
   -1.3700   21.8820  -28.9800 C   0  0  0  0  0  0  0  0  0  0  0  0
   -2.4000   21.4700  -29.7100 O   0  0  0  0  0  0  0  0  0  0  0  0
   -3.3160   22.3020  -30.1960 C   0  0  0  0  0  0  0  0  0  0  0  0
   -4.3720   21.7930  -30.9590 C   0  0  0  0  0  0  0  0  0  0  0  0
   -4.9464   17.6482  -33.7317 H   0  0  0  0  0  0  0  0  0  0  0  0
   -5.7917   17.2865  -35.2748 H   0  0  0  0  0  0  0  0  0  0  0  0
   -4.3298   18.3303  -35.2748 H   0  0  0  0  0  0  0  0  0  0  0  0
   -5.9585   19.9741  -35.3619 H   0  0  0  0  0  0  0  0  0  0  0  0
   -7.1664   18.9678  -34.4814 H   0  0  0  0  0  0  0  0  0  0  0  0
   -4.4330   18.3862  -33.1359 H   0  0  0  0  0  0  0  0  0  0  0  0
   -4.2477   19.7214  -31.9506 H   0  0  0  0  0  0  0  0  0  0  0  0
   -6.0937   17.3555  -31.9191 H   0  0  0  0  0  0  0  0  0  0  0  0
   -5.3296   18.2336  -30.5573 H   0  0  0  0  0  0  0  0  0  0  0  0
   -7.8201   17.2893  -31.9864 H   0  0  0  0  0  0  0  0  0  0  0  0
   -8.7561   18.1059  -30.6962 H   0  0  0  0  0  0  0  0  0  0  0  0
   -8.8448   18.4728  -33.6426 H   0  0  0  0  0  0  0  0  0  0  0  0
  -10.0767   18.8661  -32.3963 H   0  0  0  0  0  0  0  0  0  0  0  0
   -7.6640   20.4730  -32.3860 H   0  0  0  0  0  0  0  0  0  0  0  0
  -10.2611   21.7099  -32.6009 H   0  0  0  0  0  0  0  0  0  0  0  0
  -10.0382   20.6008  -31.1948 H   0  0  0  0  0  0  0  0  0  0  0  0
   -9.4074   23.0889  -30.8602 H   0  0  0  0  0  0  0  0  0  0  0  0
   -8.1918   21.8150  -30.3754 H   0  0  0  0  0  0  0  0  0  0  0  0
   -8.0698   23.1710  -33.0820 H   0  0  0  0  0  0  0  0  0  0  0  0
   -7.3215   23.8992  -31.5943 H   0  0  0  0  0  0  0  0  0  0  0  0
   -6.1880   22.0640  -33.2660 H   0  0  0  0  0  0  0  0  0  0  0  0
   -6.6530   21.1490  -31.9180 H   0  0  0  0  0  0  0  0  0  0  0  0
   -6.0418   24.7065  -31.6151 H   0  0  0  0  0  0  0  0  0  0  0  0
   -4.1628   25.6272  -30.2670 H   0  0  0  0  0  0  0  0  0  0  0  0
    0.0388   24.7315  -27.6753 H   0  0  0  0  0  0  0  0  0  0  0  0
    1.6756   23.0473  -26.8345 H   0  0  0  0  0  0  0  0  0  0  0  0
    1.3692   20.6284  -27.3588 H   0  0  0  0  0  0  0  0  0  0  0  0
   -0.5755   19.8802  -28.7319 H   0  0  0  0  0  0  0  0  0  0  0  0
   -4.4362   20.7113  -31.1483 H   0  0  0  0  0  0  0  0  0  0  0  0
  1  2  1  0
  2  3  1  0
  3  4  1  0
  4  5  1  0
  5  6  1  0
  6  7  1  0
  7  8  1  0
  8  9  1  0
  9 10  1  0
 10 11  1  0
 11 12  1  0
 12 13  1  0
 13 14  1  0
 14 15  2  0
 15 16  1  0
 16 17  2  0
 17 18  1  0
 18 19  2  0
 18 20  1  0
 20 21  2  0
 21 22  1  0
 22 23  2  0
 23 24  1  0
 24 25  2  0
 25 26  1  0
 26 27  1  0
 27 28  2  0
 28 14  1  0
 27 17  1  0
 25 20  1  0
  1 29  1  0
  1 30  1  0
  1 31  1  0
  2 32  1  0
  2 33  1  0
  4 34  1  0
  4 35  1  0
  5 36  1  0
  5 37  1  0
  7 38  1  0
  7 39  1  0
  8 40  1  0
  8 41  1  0
  9 42  1  0
 10 43  1  0
 10 44  1  0
 11 45  1  0
 11 46  1  0
 12 47  1  0
 12 48  1  0
 13 49  1  0
 13 50  1  0
 15 51  1  0
 16 52  1  0
 21 53  1  0
 22 54  1  0
 23 55  1  0
 24 56  1  0
 28 57  1  0
M  CHG  1  13   1
M  END
>  <UniqueID>  (25) 
25

>  <SMILES>  (25) 
CCOCCOCCNCCC[NH2+]c1ccc2c(=O)c3ccccc3oc2c1

>  <Energy>  (25) 
58.97231737016383

>  <Genealogy>  (25) 
CCOCCOCCNCCC[NH2+]c1ccc2c(=O)c3ccccc3oc2c1 (protonated)
CCOCCOCCNCCC[NH2+]c1ccc2c(=O)c3ccccc3oc2c1 (3D coordinates assigned)
CCOCCOCCNCCC[NH2+]c1ccc2c(=O)c3ccccc3oc2c1 (optimized conformer: 58.97231737016383 kcal/mol)

>  <smiles>  (25) 
CCOCCOCCNCCCNc1ccc2c(=O)c3ccccc3oc2c1

>  <score_type>  (25) 
oracle

>  <origin>  (25) 
adg

>  <m_score__min__energy>  (25) 
-7.1500000000000004

>  <m_primary>  (25) 
energy

$$$$
25:0
     RDKit          3D

 62 64  0  0  0  0  0  0  0  0999 V2000
   -1.7470   19.3560  -26.7680 C   0  0  0  0  0  0  0  0  0  0  0  0
   -3.0210   20.0810  -27.2040 C   0  0  0  0  0  0  0  0  0  0  0  0
   -2.7420   20.9850  -28.3420 N   0  0  0  0  0  0  0  0  0  0  0  0
   -1.6170   20.4570  -29.1350 C   0  0  0  0  0  0  0  0  0  0  0  0
   -2.4550   22.3650  -27.8790 C   0  0  0  0  0  0  0  0  0  0  0  0
   -3.7500   23.0870  -27.4790 C   0  0  0  0  0  0  0  0  0  0  0  0
   -3.9950   24.2000  -28.3190 O   0  0  0  0  0  0  0  0  0  0  0  0
   -5.1130   23.9750  -29.1580 C   0  0  0  0  0  0  0  0  0  0  0  0
   -4.9870   24.8050  -30.4350 C   0  0  0  0  0  0  0  0  0  0  0  0
   -4.6320   23.9680  -31.5200 O   0  0  0  0  0  0  0  0  0  0  0  0
   -3.9640   22.8010  -31.0740 C   0  0  0  0  0  0  0  0  0  0  0  0
   -3.5820   21.9060  -32.2600 C   0  0  0  0  0  0  0  0  0  0  0  0
   -4.6150   21.9410  -33.3080 N   0  0  0  0  0  0  0  0  0  0  0  0
   -5.7120   21.0570  -32.9690 C   0  0  0  0  0  0  0  0  0  0  0  0
   -6.9180   21.5850  -32.4870 C   0  0  0  0  0  0  0  0  0  0  0  0
   -7.9770   20.7730  -32.1690 C   0  0  0  0  0  0  0  0  0  0  0  0
   -7.9190   19.4100  -32.3090 N   0  0  0  0  0  0  0  0  0  0  0  0
   -9.0990   18.5830  -31.9840 C   0  0  0  0  0  0  0  0  0  0  0  0
   -6.7380   18.8270  -32.7350 C   0  0  0  0  0  0  0  0  0  0  0  0
   -6.6120   17.4200  -32.8490 C   0  0  0  0  0  0  0  0  0  0  0  0
   -5.4180   16.8350  -33.2710 C   0  0  0  0  0  0  0  0  0  0  0  0
   -4.3210   17.6290  -33.5820 C   0  0  0  0  0  0  0  0  0  0  0  0
   -4.4080   19.0160  -33.4810 C   0  0  0  0  0  0  0  0  0  0  0  0
   -5.6060   19.6420  -33.0680 C   0  0  0  0  0  0  0  0  0  0  0  0
   -9.1460   21.5670  -31.6920 C   0  0  0  0  0  0  0  0  0  0  0  0
   -8.6370   23.0140  -31.6380 C   0  0  0  0  0  0  0  0  0  0  0  0
   -7.2440   23.0230  -32.2790 C   0  0  0  0  0  0  0  0  0  0  0  0
   -1.6985   19.3284  -25.6694 H   0  0  0  0  0  0  0  0  0  0  0  0
   -1.7573   18.3285  -27.1605 H   0  0  0  0  0  0  0  0  0  0  0  0
   -0.8688   19.8897  -27.1605 H   0  0  0  0  0  0  0  0  0  0  0  0
   -3.7735   19.3385  -27.5081 H   0  0  0  0  0  0  0  0  0  0  0  0
   -3.3957   20.6785  -26.3599 H   0  0  0  0  0  0  0  0  0  0  0  0
   -0.8322   20.0887  -28.4580 H   0  0  0  0  0  0  0  0  0  0  0  0
   -1.9713   19.6311  -29.7694 H   0  0  0  0  0  0  0  0  0  0  0  0
   -1.2081   21.2572  -29.7694 H   0  0  0  0  0  0  0  0  0  0  0  0
   -1.7833   22.3210  -27.0090 H   0  0  0  0  0  0  0  0  0  0  0  0
   -1.9811   22.9211  -28.7013 H   0  0  0  0  0  0  0  0  0  0  0  0
   -4.5924   22.3842  -27.5595 H   0  0  0  0  0  0  0  0  0  0  0  0
   -3.6434   23.4472  -26.4451 H   0  0  0  0  0  0  0  0  0  0  0  0
   -5.1616   22.9080  -29.4209 H   0  0  0  0  0  0  0  0  0  0  0  0
   -6.0285   24.2713  -28.6250 H   0  0  0  0  0  0  0  0  0  0  0  0
   -5.9495   25.2923  -30.6498 H   0  0  0  0  0  0  0  0  0  0  0  0
   -4.2071   25.5681  -30.2957 H   0  0  0  0  0  0  0  0  0  0  0  0
   -3.0515   23.0921  -30.5331 H   0  0  0  0  0  0  0  0  0  0  0  0
   -4.6389   22.2396  -30.4112 H   0  0  0  0  0  0  0  0  0  0  0  0
   -2.6296   22.2582  -32.6831 H   0  0  0  0  0  0  0  0  0  0  0  0
   -3.4871   20.8713  -31.8990 H   0  0  0  0  0  0  0  0  0  0  0  0
   -4.9560   22.9240  -33.4120 H   0  0  0  0  0  0  0  0  0  0  0  0
   -4.2210   21.6870  -34.2410 H   0  0  0  0  0  0  0  0  0  0  0  0
   -9.2050   18.5087  -30.8916 H   0  0  0  0  0  0  0  0  0  0  0  0
  -10.0008   19.0477  -32.4092 H   0  0  0  0  0  0  0  0  0  0  0  0
   -8.9699   17.5767  -32.4092 H   0  0  0  0  0  0  0  0  0  0  0  0
   -7.4702   16.7784  -32.6005 H   0  0  0  0  0  0  0  0  0  0  0  0
   -5.3447   15.7409  -33.3579 H   0  0  0  0  0  0  0  0  0  0  0  0
   -3.3807   17.1611  -33.9090 H   0  0  0  0  0  0  0  0  0  0  0  0
   -3.5311   19.6331  -33.7264 H   0  0  0  0  0  0  0  0  0  0  0  0
   -9.9882   21.4778  -32.3940 H   0  0  0  0  0  0  0  0  0  0  0  0
   -9.5159   21.2188  -30.7163 H   0  0  0  0  0  0  0  0  0  0  0  0
   -9.3151   23.6742  -32.1985 H   0  0  0  0  0  0  0  0  0  0  0  0
   -8.5942   23.3768  -30.6004 H   0  0  0  0  0  0  0  0  0  0  0  0
   -7.2615   23.5602  -33.2388 H   0  0  0  0  0  0  0  0  0  0  0  0
   -6.4988   23.5335  -31.6513 H   0  0  0  0  0  0  0  0  0  0  0  0
  1  2  1  0
  2  3  1  0
  3  4  1  0
  3  5  1  0
  5  6  1  0
  6  7  1  0
  7  8  1  0
  8  9  1  0
  9 10  1  0
 10 11  1  0
 11 12  1  0
 12 13  1  0
 13 14  1  0
 14 15  2  0
 15 16  1  0
 16 17  2  0
 17 18  1  0
 17 19  1  0
 19 20  2  0
 20 21  1  0
 21 22  2  0
 22 23  1  0
 23 24  2  0
 16 25  1  0
 25 26  1  0
 26 27  1  0
 24 14  1  0
 27 15  1  0
 24 19  1  0
  1 28  1  0
  1 29  1  0
  1 30  1  0
  2 31  1  0
  2 32  1  0
  4 33  1  0
  4 34  1  0
  4 35  1  0
  5 36  1  0
  5 37  1  0
  6 38  1  0
  6 39  1  0
  8 40  1  0
  8 41  1  0
  9 42  1  0
  9 43  1  0
 11 44  1  0
 11 45  1  0
 12 46  1  0
 12 47  1  0
 13 48  1  0
 13 49  1  0
 18 50  1  0
 18 51  1  0
 18 52  1  0
 20 53  1  0
 21 54  1  0
 22 55  1  0
 23 56  1  0
 25 57  1  0
 25 58  1  0
 26 59  1  0
 26 60  1  0
 27 61  1  0
 27 62  1  0
M  CHG  2  13   1  17   1
M  END
>  <UniqueID>  (26) 
26

>  <SMILES>  (26) 
CCN(C)CCOCCOCC[NH2+]c1c2c([n+](C)c3ccccc13)CCC2

>  <Energy>  (26) 
84.47821741689148

>  <Genealogy>  (26) 
CCN(C)CCOCCOCC[NH2+]c1c2c([n+](C)c3ccccc13)CCC2 (protonated)
CCN(C)CCOCCOCC[NH2+]c1c2c([n+](C)c3ccccc13)CCC2 (3D coordinates assigned)
CCN(C)CCOCCOCC[NH2+]c1c2c([n+](C)c3ccccc13)CCC2 (nonaromatic ring conformer: 84.47821741689148 kcal/mol)

>  <smiles>  (26) 
CCN(C)CCOCCOCCNc1c2c([n+](C)c3ccccc13)CCC2

>  <score_type>  (26) 
oracle

>  <origin>  (26) 
adg

>  <m_score__min__energy>  (26) 
-8.2799999999999994

>  <m_primary>  (26) 
energy

$$$$
26:0
     RDKit          3D

 43 45  0  0  0  0  0  0  0  0999 V2000
   -4.2290   23.8430  -28.4310 C   0  0  0  0  0  0  0  0  0  0  0  0
   -3.2340   24.1860  -29.5430 C   0  0  0  0  0  0  0  0  0  0  0  0
   -3.5980   23.5640  -30.8270 N   0  0  0  0  0  0  0  0  0  0  0  0
   -2.7200   22.4420  -31.1930 C   0  0  0  0  0  0  0  0  0  0  0  0
   -3.3170   21.6200  -32.3510 C   0  0  0  0  0  0  0  0  0  0  0  0
   -4.6290   22.1180  -32.8050 N   0  0  0  0  0  0  0  0  0  0  0  0
   -5.7010   21.1700  -32.5510 C   0  0  0  0  0  0  0  0  0  0  0  0
   -5.7110   19.8430  -33.0940 C   0  0  0  0  0  0  0  0  0  0  0  0
   -4.6380   19.3410  -33.8730 C   0  0  0  0  0  0  0  0  0  0  0  0
   -4.6770   18.0590  -34.4140 C   0  0  0  0  0  0  0  0  0  0  0  0
   -5.7780   17.2430  -34.2070 C   0  0  0  0  0  0  0  0  0  0  0  0
   -6.8540   17.6970  -33.4510 C   0  0  0  0  0  0  0  0  0  0  0  0
   -6.8520   18.9900  -32.8710 C   0  0  0  0  0  0  0  0  0  0  0  0
   -7.9320   19.4360  -32.1260 N   0  0  0  0  0  0  0  0  0  0  0  0
   -9.0910   18.5600  -31.8630 C   0  0  0  0  0  0  0  0  0  0  0  0
   -7.9050   20.7160  -31.6460 C   0  0  0  0  0  0  0  0  0  0  0  0
   -8.8870   21.4250  -30.9680 C   0  0  0  0  0  0  0  0  0  0  0  0
   -8.4330   22.6300  -30.7080 O   0  0  0  0  0  0  0  0  0  0  0  0
   -7.2100   22.7400  -31.1790 C   0  0  0  0  0  0  0  0  0  0  0  0
   -6.4350   23.9280  -31.0160 N   0  0  0  0  0  0  0  0  0  0  0  0
   -6.7350   24.7300  -30.1090 O   0  0  0  0  0  0  0  0  0  0  0  0
   -5.7040   24.3860  -32.0860 O   0  0  0  0  0  0  0  0  0  0  0  0
   -6.8320   21.5540  -31.8070 C   0  0  0  0  0  0  0  0  0  0  0  0
   -3.7552   24.0063  -27.4518 H   0  0  0  0  0  0  0  0  0  0  0  0
   -5.1160   24.4872  -28.5211 H   0  0  0  0  0  0  0  0  0  0  0  0
   -4.5306   22.7890  -28.5211 H   0  0  0  0  0  0  0  0  0  0  0  0
   -3.2103   25.2781  -29.6726 H   0  0  0  0  0  0  0  0  0  0  0  0
   -2.2490   23.7964  -29.2465 H   0  0  0  0  0  0  0  0  0  0  0  0
   -3.5730   24.2820  -31.5900 H   0  0  0  0  0  0  0  0  0  0  0  0
   -1.7416   22.8385  -31.5020 H   0  0  0  0  0  0  0  0  0  0  0  0
   -2.6140   21.7838  -30.3180 H   0  0  0  0  0  0  0  0  0  0  0  0
   -2.6181   21.6539  -33.1997 H   0  0  0  0  0  0  0  0  0  0  0  0
   -3.4685   20.5959  -31.9790 H   0  0  0  0  0  0  0  0  0  0  0  0
   -4.8100   23.0660  -32.4190 H   0  0  0  0  0  0  0  0  0  0  0  0
   -4.5810   22.2940  -33.8300 H   0  0  0  0  0  0  0  0  0  0  0  0
   -3.7583   19.9764  -34.0532 H   0  0  0  0  0  0  0  0  0  0  0  0
   -3.8285   17.6912  -35.0096 H   0  0  0  0  0  0  0  0  0  0  0  0
   -5.8011   16.2329  -34.6420 H   0  0  0  0  0  0  0  0  0  0  0  0
   -7.7231   17.0397  -33.3006 H   0  0  0  0  0  0  0  0  0  0  0  0
   -9.2315   18.4538  -30.7772 H   0  0  0  0  0  0  0  0  0  0  0  0
   -9.9941   19.0033  -32.3079 H   0  0  0  0  0  0  0  0  0  0  0  0
   -8.9110   17.5702  -32.3079 H   0  0  0  0  0  0  0  0  0  0  0  0
   -9.8808   21.0414  -30.6938 H   0  0  0  0  0  0  0  0  0  0  0  0
  1  2  1  0
  2  3  1  0
  3  4  1  0
  4  5  1  0
  5  6  1  0
  6  7  1  0
  7  8  2  0
  8  9  1  0
  9 10  2  0
 10 11  1  0
 11 12  2  0
 12 13  1  0
 13 14  2  0
 14 15  1  0
 14 16  1  0
 16 17  2  0
 17 18  1  0
 18 19  1  0
 19 20  1  0
 20 21  2  0
 20 22  1  0
 19 23  2  0
 23  7  1  0
 13  8  1  0
 23 16  1  0
  1 24  1  0
  1 25  1  0
  1 26  1  0
  2 27  1  0
  2 28  1  0
  3 29  1  0
  4 30  1  0
  4 31  1  0
  5 32  1  0
  5 33  1  0
  6 34  1  0
  6 35  1  0
  9 36  1  0
 10 37  1  0
 11 38  1  0
 12 39  1  0
 15 40  1  0
 15 41  1  0
 15 42  1  0
 17 43  1  0
M  CHG  4   6   1  14   1  20   1  22  -1
M  END
>  <UniqueID>  (27) 
27

>  <SMILES>  (27) 
CCNCC[NH2+]c1c2ccccc2[n+](C)c2coc([N+](=O)[O-])c12

>  <Energy>  (27) 
102.71401037402957

>  <Genealogy>  (27) 
CCNCC[NH2+]c1c2ccccc2[n+](C)c2coc([N+](=O)[O-])c12 (protonated)
CCNCC[NH2+]c1c2ccccc2[n+](C)c2coc([N+](=O)[O-])c12 (3D coordinates assigned)
CCNCC[NH2+]c1c2ccccc2[n+](C)c2coc([N+](=O)[O-])c12 (optimized conformer: 102.71401037402957 kcal/mol)

>  <smiles>  (27) 
CCNCCNc1c2ccccc2[n+](C)c2coc([N+](=O)[O-])c12

>  <score_type>  (27) 
oracle

>  <origin>  (27) 
adg

>  <m_score__min__energy>  (27) 
-6.9699999999999998

>  <m_primary>  (27) 
energy

$$$$
27:0
     RDKit          3D

 68 69  0  0  0  0  0  0  0  0999 V2000
   -2.7320   20.8030  -28.8380 C   0  0  0  0  0  0  0  0  0  0  0  0
   -3.4840   20.7890  -30.1650 C   0  0  0  0  0  0  0  0  0  0  0  0
   -3.3350   22.0930  -30.8540 N   0  0  0  0  0  0  0  0  0  0  0  0
   -2.9760   21.9270  -32.2810 C   0  0  0  0  0  0  0  0  0  0  0  0
   -4.1940   21.5520  -33.1260 C   0  0  0  0  0  0  0  0  0  0  0  0
   -2.4490   23.0250  -30.1130 C   0  0  0  0  0  0  0  0  0  0  0  0
   -3.1810   24.2080  -29.4560 C   0  0  0  0  0  0  0  0  0  0  0  0
   -3.5900   25.1070  -30.4660 O   0  0  0  0  0  0  0  0  0  0  0  0
   -4.9970   25.2730  -30.4520 C   0  0  0  0  0  0  0  0  0  0  0  0
   -5.6820   23.9380  -30.7500 C   0  0  0  0  0  0  0  0  0  0  0  0
   -7.4950   24.1380  -30.8410 S   0  0  0  0  0  0  0  0  0  0  0  0
   -7.7960   22.4580  -31.3870 C   0  0  0  0  0  0  0  0  0  0  0  0
   -9.0080   21.8880  -31.4520 N   0  0  0  0  0  0  0  0  0  0  0  0
   -8.8390   20.6470  -31.8760 N   0  0  0  0  0  0  0  0  0  0  0  0
   -7.5090   20.5080  -32.0630 C   0  0  0  0  0  0  0  0  0  0  0  0
   -6.8560   19.2660  -32.5210 C   0  0  0  0  0  0  0  0  0  0  0  0
   -6.6080   18.2150  -31.6210 C   0  0  0  0  0  0  0  0  0  0  0  0
   -5.9650   17.0510  -32.0560 C   0  0  0  0  0  0  0  0  0  0  0  0
   -5.5540   16.9250  -33.3930 C   0  0  0  0  0  0  0  0  0  0  0  0
   -4.8500   15.6740  -33.8510 C   0  0  0  0  0  0  0  0  0  0  0  0
   -3.4100   15.9240  -34.0730 N   0  0  0  0  0  0  0  0  0  0  0  0
   -3.1240   16.1330  -35.5060 C   0  0  0  0  0  0  0  0  0  0  0  0
   -2.9300   17.0760  -33.2700 C   0  0  0  0  0  0  0  0  0  0  0  0
   -2.3310   18.1420  -34.1930 C   0  0  0  0  0  0  0  0  0  0  0  0
   -1.8210   19.2940  -33.4150 N   0  0  0  0  0  0  0  0  0  0  0  0
   -0.8680   20.0780  -34.2190 C   0  0  0  0  0  0  0  0  0  0  0  0
   -1.1670   18.8470  -32.1720 C   0  0  0  0  0  0  0  0  0  0  0  0
   -5.8100   17.9710  -34.2920 C   0  0  0  0  0  0  0  0  0  0  0  0
   -6.4550   19.1320  -33.8590 C   0  0  0  0  0  0  0  0  0  0  0  0
   -6.8650   21.6170  -31.7650 O   0  0  0  0  0  0  0  0  0  0  0  0
   -3.4533   20.7896  -28.0076 H   0  0  0  0  0  0  0  0  0  0  0  0
   -2.0835   19.9168  -28.7747 H   0  0  0  0  0  0  0  0  0  0  0  0
   -2.1169   21.7128  -28.7747 H   0  0  0  0  0  0  0  0  0  0  0  0
   -3.0769   19.9920  -30.8045 H   0  0  0  0  0  0  0  0  0  0  0  0
   -4.5512   20.6071  -29.9699 H   0  0  0  0  0  0  0  0  0  0  0  0
   -2.5580   22.8726  -32.6566 H   0  0  0  0  0  0  0  0  0  0  0  0
   -2.2388   21.1143  -32.3588 H   0  0  0  0  0  0  0  0  0  0  0  0
   -5.0338   21.2934  -32.4643 H   0  0  0  0  0  0  0  0  0  0  0  0
   -4.4765   22.4048  -33.7608 H   0  0  0  0  0  0  0  0  0  0  0  0
   -3.9479   20.6880  -33.7608 H   0  0  0  0  0  0  0  0  0  0  0  0
   -1.9348   22.4570  -29.3237 H   0  0  0  0  0  0  0  0  0  0  0  0
   -1.7562   23.4546  -30.8515 H   0  0  0  0  0  0  0  0  0  0  0  0
   -4.0619   23.8403  -28.9093 H   0  0  0  0  0  0  0  0  0  0  0  0
   -2.5089   24.7185  -28.7506 H   0  0  0  0  0  0  0  0  0  0  0  0
   -5.3121   25.6313  -29.4609 H   0  0  0  0  0  0  0  0  0  0  0  0
   -5.2827   26.0061  -31.2207 H   0  0  0  0  0  0  0  0  0  0  0  0
   -5.3140   23.5518  -31.7120 H   0  0  0  0  0  0  0  0  0  0  0  0
   -5.4475   23.2349  -29.9372 H   0  0  0  0  0  0  0  0  0  0  0  0
   -9.9260   22.3170  -31.1970 H   0  0  0  0  0  0  0  0  0  0  0  0
   -6.9207   18.3081  -30.5705 H   0  0  0  0  0  0  0  0  0  0  0  0
   -5.7804   16.2303  -31.3472 H   0  0  0  0  0  0  0  0  0  0  0  0
   -4.9651   14.8953  -33.0826 H   0  0  0  0  0  0  0  0  0  0  0  0
   -5.2985   15.3490  -34.8014 H   0  0  0  0  0  0  0  0  0  0  0  0
   -2.2401   16.7789  -35.6131 H   0  0  0  0  0  0  0  0  0  0  0  0
   -2.9295   15.1627  -35.9864 H   0  0  0  0  0  0  0  0  0  0  0  0
   -3.9893   16.6131  -35.9864 H   0  0  0  0  0  0  0  0  0  0  0  0
   -3.7738   17.5087  -32.7125 H   0  0  0  0  0  0  0  0  0  0  0  0
   -2.1577   16.7305  -32.5670 H   0  0  0  0  0  0  0  0  0  0  0  0
   -1.5019   17.6984  -34.7638 H   0  0  0  0  0  0  0  0  0  0  0  0
   -3.1192   18.4998  -34.8718 H   0  0  0  0  0  0  0  0  0  0  0  0
   -0.1936   20.6328  -33.5502 H   0  0  0  0  0  0  0  0  0  0  0  0
   -0.2787   19.3997  -34.8536 H   0  0  0  0  0  0  0  0  0  0  0  0
   -1.4199   20.7869  -34.8536 H   0  0  0  0  0  0  0  0  0  0  0  0
   -1.7264   19.2293  -31.3054 H   0  0  0  0  0  0  0  0  0  0  0  0
   -1.1501   17.7476  -32.1415 H   0  0  0  0  0  0  0  0  0  0  0  0
   -0.1365   19.2305  -32.1415 H   0  0  0  0  0  0  0  0  0  0  0  0
   -5.5012   17.8765  -35.3435 H   0  0  0  0  0  0  0  0  0  0  0  0
   -6.6499   19.9468  -34.5718 H   0  0  0  0  0  0  0  0  0  0  0  0
  1  2  1  0
  2  3  1  0
  3  4  1  0
  4  5  1  0
  3  6  1  0
  6  7  1  0
  7  8  1  0
  8  9  1  0
  9 10  1  0
 10 11  1  0
 11 12  1  0
 12 13  2  0
 13 14  1  0
 14 15  2  0
 15 16  1  0
 16 17  2  0
 17 18  1  0
 18 19  2  0
 19 20  1  0
 20 21  1  0
 21 22  1  0
 21 23  1  0
 23 24  1  0
 24 25  1  0
 25 26  1  0
 25 27  1  0
 19 28  1  0
 28 29  2  0
 15 30  1  0
 30 12  1  0
 29 16  1  0
  1 31  1  0
  1 32  1  0
  1 33  1  0
  2 34  1  0
  2 35  1  0
  4 36  1  0
  4 37  1  0
  5 38  1  0
  5 39  1  0
  5 40  1  0
  6 41  1  0
  6 42  1  0
  7 43  1  0
  7 44  1  0
  9 45  1  0
  9 46  1  0
 10 47  1  0
 10 48  1  0
 13 49  1  0
 17 50  1  0
 18 51  1  0
 20 52  1  0
 20 53  1  0
 22 54  1  0
 22 55  1  0
 22 56  1  0
 23 57  1  0
 23 58  1  0
 24 59  1  0
 24 60  1  0
 26 61  1  0
 26 62  1  0
 26 63  1  0
 27 64  1  0
 27 65  1  0
 27 66  1  0
 28 67  1  0
 29 68  1  0
M  CHG  1  13   1
M  END
>  <UniqueID>  (28) 
28

>  <SMILES>  (28) 
CCN(CC)CCOCCSc1[nH+]nc(-c2ccc(CN(C)CCN(C)C)cc2)o1

>  <Energy>  (28) 
100.71191655281726

>  <Genealogy>  (28) 
CCN(CC)CCOCCSc1[nH+]nc(-c2ccc(CN(C)CCN(C)C)cc2)o1 (protonated)
CCN(CC)CCOCCSc1[nH+]nc(-c2ccc(CN(C)CCN(C)C)cc2)o1 (3D coordinates assigned)
CCN(CC)CCOCCSc1[nH+]nc(-c2ccc(CN(C)CCN(C)C)cc2)o1 (optimized conformer: 100.71191655281726 kcal/mol)

>  <smiles>  (28) 
CCN(CC)CCOCCSc1nnc(-c2ccc(CN(C)CCN(C)C)cc2)o1

>  <score_type>  (28) 
oracle

>  <origin>  (28) 
adg

>  <m_score__min__energy>  (28) 
-7.4000000000000004

>  <m_primary>  (28) 
energy

$$$$
28:0
     RDKit          3D

 60 62  0  0  0  0  0  0  0  0999 V2000
   -1.5550   26.3350  -26.2720 C   0  0  0  0  0  0  0  0  0  0  0  0
   -0.8580   26.8140  -27.5490 C   0  0  0  0  0  0  0  0  0  0  0  0
   -1.3410   26.1210  -28.7530 N   0  0  0  0  0  0  0  0  0  0  0  0
   -1.3130   24.6620  -28.6030 C   0  0  0  0  0  0  0  0  0  0  0  0
   -2.7000   24.0800  -28.8920 C   0  0  0  0  0  0  0  0  0  0  0  0
   -3.4060   24.9100  -29.7950 O   0  0  0  0  0  0  0  0  0  0  0  0
   -4.1510   24.1320  -30.7090 C   0  0  0  0  0  0  0  0  0  0  0  0
   -5.5490   24.7390  -30.8520 C   0  0  0  0  0  0  0  0  0  0  0  0
   -6.6250   23.6750  -31.1190 C   0  0  0  0  0  0  0  0  0  0  0  0
   -6.3710   22.9520  -32.3680 N   0  0  0  0  0  0  0  0  0  0  0  0
   -6.1670   21.5300  -32.4230 C   0  0  0  0  0  0  0  0  0  0  0  0
   -7.2220   20.6600  -32.1140 C   0  0  0  0  0  0  0  0  0  0  0  0
   -7.0040   19.2680  -32.0940 C   0  0  0  0  0  0  0  0  0  0  0  0
   -5.7830   18.7390  -32.4740 N   0  0  0  0  0  0  0  0  0  0  0  0
   -5.6390   17.2750  -32.6540 C   0  0  0  0  0  0  0  0  0  0  0  0
   -6.1270   16.8390  -34.0350 C   0  0  0  0  0  0  0  0  0  0  0  0
   -4.7160   19.5860  -32.7340 C   0  0  0  0  0  0  0  0  0  0  0  0
   -3.4040   19.0960  -32.9730 C   0  0  0  0  0  0  0  0  0  0  0  0
   -2.3620   19.9560  -33.3130 C   0  0  0  0  0  0  0  0  0  0  0  0
   -2.5890   21.3210  -33.4250 C   0  0  0  0  0  0  0  0  0  0  0  0
   -3.8500   21.8410  -33.1540 C   0  0  0  0  0  0  0  0  0  0  0  0
   -4.9110   20.9960  -32.7620 C   0  0  0  0  0  0  0  0  0  0  0  0
   -8.1610   18.4280  -31.5630 C   0  0  0  0  0  0  0  0  0  0  0  0
   -9.4750   18.8080  -32.2600 C   0  0  0  0  0  0  0  0  0  0  0  0
   -9.7000   20.3360  -32.3700 C   0  0  0  0  0  0  0  0  0  0  0  0
   -8.5910   21.1780  -31.7200 C   0  0  0  0  0  0  0  0  0  0  0  0
   -1.0092   26.7101  -25.3937 H   0  0  0  0  0  0  0  0  0  0  0  0
   -2.5869   26.7157  -26.2526 H   0  0  0  0  0  0  0  0  0  0  0  0
   -1.5695   25.2353  -26.2526 H   0  0  0  0  0  0  0  0  0  0  0  0
   -1.0407   27.8923  -27.6664 H   0  0  0  0  0  0  0  0  0  0  0  0
    0.2144   26.5922  -27.4455 H   0  0  0  0  0  0  0  0  0  0  0  0
   -2.3230   26.4260  -28.9560 H   0  0  0  0  0  0  0  0  0  0  0  0
   -0.5849   24.2369  -29.3095 H   0  0  0  0  0  0  0  0  0  0  0  0
   -1.0228   24.4100  -27.5723 H   0  0  0  0  0  0  0  0  0  0  0  0
   -2.5879   23.0783  -29.3326 H   0  0  0  0  0  0  0  0  0  0  0  0
   -3.2639   24.0180  -27.9496 H   0  0  0  0  0  0  0  0  0  0  0  0
   -3.6479   24.1289  -31.6872 H   0  0  0  0  0  0  0  0  0  0  0  0
   -4.2292   23.0982  -30.3415 H   0  0  0  0  0  0  0  0  0  0  0  0
   -5.8004   25.2700  -29.9220 H   0  0  0  0  0  0  0  0  0  0  0  0
   -5.5315   25.4221  -31.7141 H   0  0  0  0  0  0  0  0  0  0  0  0
   -6.6313   22.9568  -30.2858 H   0  0  0  0  0  0  0  0  0  0  0  0
   -7.5966   24.1831  -31.2073 H   0  0  0  0  0  0  0  0  0  0  0  0
   -6.3530   23.4890  -33.2640 H   0  0  0  0  0  0  0  0  0  0  0  0
   -4.5789   17.0024  -32.5452 H   0  0  0  0  0  0  0  0  0  0  0  0
   -6.2492   16.7680  -31.8921 H   0  0  0  0  0  0  0  0  0  0  0  0
   -6.9430   16.1100  -33.9222 H   0  0  0  0  0  0  0  0  0  0  0  0
   -6.4930   17.7164  -34.5884 H   0  0  0  0  0  0  0  0  0  0  0  0
   -5.2962   16.3768  -34.5884 H   0  0  0  0  0  0  0  0  0  0  0  0
   -3.2072   18.0171  -32.8880 H   0  0  0  0  0  0  0  0  0  0  0  0
   -1.3550   19.5517  -33.4935 H   0  0  0  0  0  0  0  0  0  0  0  0
   -1.7713   21.9914  -33.7282 H   0  0  0  0  0  0  0  0  0  0  0  0
   -4.0228   22.9234  -33.2461 H   0  0  0  0  0  0  0  0  0  0  0  0
   -7.9492   17.3645  -31.7477 H   0  0  0  0  0  0  0  0  0  0  0  0
   -8.2669   18.6154  -30.4843 H   0  0  0  0  0  0  0  0  0  0  0  0
   -9.4653   18.3841  -33.2750 H   0  0  0  0  0  0  0  0  0  0  0  0
  -10.2938   18.4052  -31.6457 H   0  0  0  0  0  0  0  0  0  0  0  0
   -9.7566   20.6017  -33.4359 H   0  0  0  0  0  0  0  0  0  0  0  0
  -10.6304   20.5611  -31.8281 H   0  0  0  0  0  0  0  0  0  0  0  0
   -8.6904   22.2225  -32.0505 H   0  0  0  0  0  0  0  0  0  0  0  0
   -8.6923   21.1115  -30.6267 H   0  0  0  0  0  0  0  0  0  0  0  0
  1  2  1  0
  2  3  1  0
  3  4  1  0
  4  5  1  0
  5  6  1  0
  6  7  1  0
  7  8  1  0
  8  9  1  0
  9 10  1  0
 10 11  1  0
 11 12  2  0
 12 13  1  0
 13 14  2  0
 14 15  1  0
 15 16  1  0
 14 17  1  0
 17 18  2  0
 18 19  1  0
 19 20  2  0
 20 21  1  0
 21 22  2  0
 13 23  1  0
 23 24  1  0
 24 25  1  0
 25 26  1  0
 22 11  1  0
 26 12  1  0
 22 17  1  0
  1 27  1  0
  1 28  1  0
  1 29  1  0
  2 30  1  0
  2 31  1  0
  3 32  1  0
  4 33  1  0
  4 34  1  0
  5 35  1  0
  5 36  1  0
  7 37  1  0
  7 38  1  0
  8 39  1  0
  8 40  1  0
  9 41  1  0
  9 42  1  0
 10 43  1  0
 15 44  1  0
 15 45  1  0
 16 46  1  0
 16 47  1  0
 16 48  1  0
 18 49  1  0
 19 50  1  0
 20 51  1  0
 21 52  1  0
 23 53  1  0
 23 54  1  0
 24 55  1  0
 24 56  1  0
 25 57  1  0
 25 58  1  0
 26 59  1  0
 26 60  1  0
M  CHG  1  14   1
M  END
>  <UniqueID>  (29) 
29

>  <SMILES>  (29) 
CCNCCOCCCNc1c2c([n+](CC)c3ccccc13)CCCC2

>  <Energy>  (29) 
76.01915242288035

>  <Genealogy>  (29) 
CCNCCOCCCNc1c2c([n+](CC)c3ccccc13)CCCC2 (3D coordinates assigned)
CCNCCOCCCNc1c2c([n+](CC)c3ccccc13)CCCC2 (nonaromatic ring conformer: 76.01915242288035 kcal/mol)

>  <smiles>  (29) 
CCNCCOCCCNc1c2c([n+](CC)c3ccccc13)CCCC2

>  <score_type>  (29) 
oracle

>  <origin>  (29) 
adg

>  <m_score__min__energy>  (29) 
-9.8699999999999992

>  <m_primary>  (29) 
energy

$$$$
