0:0
     RDKit          3D

 37 39  0  0  0  0  0  0  0  0999 V2000
   -4.5050   24.5280  -30.4580 C   0  0  0  0  0  0  0  0  0  0  0  0
   -4.6380   23.5770  -31.5090 O   0  0  0  0  0  0  0  0  0  0  0  0
   -5.7680   22.7720  -31.7340 C   0  0  0  0  0  0  0  0  0  0  0  0
   -7.0520   23.3410  -31.7890 C   0  0  0  0  0  0  0  0  0  0  0  0
   -8.1750   22.5480  -31.9690 C   0  0  0  0  0  0  0  0  0  0  0  0
   -8.0550   21.1590  -32.0470 C   0  0  0  0  0  0  0  0  0  0  0  0
   -9.2150   20.3770  -32.1700 C   0  0  0  0  0  0  0  0  0  0  0  0
   -9.1270   18.9880  -32.1950 C   0  0  0  0  0  0  0  0  0  0  0  0
   -7.8880   18.3670  -32.0810 C   0  0  0  0  0  0  0  0  0  0  0  0
   -6.7230   19.1280  -31.9650 C   0  0  0  0  0  0  0  0  0  0  0  0
   -6.7720   20.5450  -31.9800 C   0  0  0  0  0  0  0  0  0  0  0  0
   -5.6030   21.3700  -31.9030 C   0  0  0  0  0  0  0  0  0  0  0  0
   -4.1830   20.7830  -31.9650 C   0  0  1  0  0  0  0  0  0  0  0  0
   -3.5270   20.8890  -33.3740 C   0  0  0  0  0  0  0  0  0  0  0  0
   -2.4590   21.8950  -33.3890 N   0  0  0  0  0  0  0  0  0  0  0  0
   -1.3450   21.5020  -32.5100 C   0  0  0  0  0  0  0  0  0  0  0  0
   -1.8200   21.0520  -31.1090 C   0  0  0  0  0  0  0  0  0  0  0  0
   -3.2920   21.3990  -30.8640 C   0  0  2  0  0  0  0  0  0  0  0  0
   -3.6770   20.9190  -29.6240 F   0  0  0  0  0  0  0  0  0  0  0  0
   -4.5768   24.0147  -29.4878 H   0  0  0  0  0  0  0  0  0  0  0  0
   -3.5282   25.0277  -30.5371 H   0  0  0  0  0  0  0  0  0  0  0  0
   -5.3072   25.2765  -30.5371 H   0  0  0  0  0  0  0  0  0  0  0  0
   -7.1675   24.4302  -31.6879 H   0  0  0  0  0  0  0  0  0  0  0  0
   -9.1670   23.0162  -32.0509 H   0  0  0  0  0  0  0  0  0  0  0  0
  -10.1980   20.8645  -32.2470 H   0  0  0  0  0  0  0  0  0  0  0  0
  -10.0380   18.3813  -32.3050 H   0  0  0  0  0  0  0  0  0  0  0  0
   -7.8252   17.2688  -32.0822 H   0  0  0  0  0  0  0  0  0  0  0  0
   -5.7526   18.6206  -31.8604 H   0  0  0  0  0  0  0  0  0  0  0  0
   -4.2778   19.7041  -31.7726 H   0  0  0  0  0  0  0  0  0  0  0  0
   -3.1026   19.9114  -33.6464 H   0  0  0  0  0  0  0  0  0  0  0  0
   -4.3000   21.1916  -34.0957 H   0  0  0  0  0  0  0  0  0  0  0  0
   -2.0900   21.9660  -34.3660 H   0  0  0  0  0  0  0  0  0  0  0  0
   -0.8016   20.6698  -32.9814 H   0  0  0  0  0  0  0  0  0  0  0  0
   -0.7014   22.3838  -32.3751 H   0  0  0  0  0  0  0  0  0  0  0  0
   -1.6928   19.9627  -31.0236 H   0  0  0  0  0  0  0  0  0  0  0  0
   -1.2160   21.5828  -30.3584 H   0  0  0  0  0  0  0  0  0  0  0  0
   -3.4110   22.4922  -30.8899 H   0  0  0  0  0  0  0  0  0  0  0  0
  1  2  1  0
  2  3  1  0
  3  4  2  0
  4  5  1  0
  5  6  2  0
  6  7  1  0
  7  8  2  0
  8  9  1  0
  9 10  2  0
 10 11  1  0
 11 12  2  0
 12 13  1  0
 13 14  1  0
 14 15  1  0
 15 16  1  0
 16 17  1  0
 17 18  1  0
 18 19  1  0
 12  3  1  0
 18 13  1  0
 11  6  1  0
  1 20  1  0
  1 21  1  0
  1 22  1  0
  4 23  1  0
  5 24  1  0
  7 25  1  0
  8 26  1  0
  9 27  1  0
 10 28  1  0
 13 29  1  1
 14 30  1  0
 14 31  1  0
 15 32  1  0
 16 33  1  0
 16 34  1  0
 17 35  1  0
 17 36  1  0
 18 37  1  1
M  END
>  <UniqueID>  (1) 
1

>  <SMILES>  (1) 
COc1ccc2ccccc2c1[C@H]1CNCC[C@@H]1F

>  <Energy>  (1) 
54.09443078329711

>  <Genealogy>  (1) 
COc1ccc2ccccc2c1[C@H]1CNCC[C@@H]1F (chirality)
COc1ccc2ccccc2c1[C@H]1CNCC[C@@H]1F (3D coordinates assigned)
COc1ccc2ccccc2c1[C@H]1CNCC[C@@H]1F (nonaromatic ring conformer: 54.09443078329711 kcal/mol)

>  <smiles>  (1) 
COc1ccc2ccccc2c1C1CNCCC1F

>  <score_type>  (1) 
oracle

>  <origin>  (1) 
adg

>  <m_score__min__energy>  (1) 
-7.4000000000000004

>  <m_primary>  (1) 
energy

$$$$
1:0
     RDKit          3D

 38 39  0  0  0  0  0  0  0  0999 V2000
   -4.1710   24.3680  -27.2310 C   0  0  0  0  0  0  0  0  0  0  0  0
   -4.9770   24.5790  -28.4370 N   0  0  0  0  0  0  0  0  0  0  0  0
   -4.8270   23.4500  -29.3680 C   0  0  0  0  0  0  0  0  0  0  0  0
   -3.9860   23.8500  -30.6020 C   0  0  2  0  0  0  0  0  0  0  0  0
   -4.1020   25.2320  -30.8430 O   0  0  0  0  0  0  0  0  0  0  0  0
   -4.4000   23.0420  -31.8690 C   0  0  0  0  0  0  0  0  0  0  0  0
   -3.4980   21.8500  -32.1540 C   0  0  0  0  0  0  0  0  0  0  0  0
   -3.5100   21.2720  -33.4390 C   0  0  0  0  0  0  0  0  0  0  0  0
   -2.7230   20.1540  -33.7230 C   0  0  0  0  0  0  0  0  0  0  0  0
   -1.9240   19.5870  -32.7280 C   0  0  0  0  0  0  0  0  0  0  0  0
   -1.9150   20.1370  -31.4440 C   0  0  0  0  0  0  0  0  0  0  0  0
   -2.7010   21.2570  -31.1540 C   0  0  0  0  0  0  0  0  0  0  0  0
   -5.8510   22.5920  -31.8220 C   0  0  0  0  0  0  0  0  0  0  0  0
   -6.9080   23.5170  -31.9350 C   0  0  0  0  0  0  0  0  0  0  0  0
   -8.2370   23.0840  -31.8840 C   0  0  0  0  0  0  0  0  0  0  0  0
   -8.5260   21.7280  -31.7160 C   0  0  0  0  0  0  0  0  0  0  0  0
   -7.4870   20.8020  -31.5960 C   0  0  0  0  0  0  0  0  0  0  0  0
   -6.1580   21.2300  -31.6470 C   0  0  0  0  0  0  0  0  0  0  0  0
   -4.7948   24.5313  -26.3398 H   0  0  0  0  0  0  0  0  0  0  0  0
   -3.7841   23.3383  -27.2241 H   0  0  0  0  0  0  0  0  0  0  0  0
   -3.3292   25.0760  -27.2241 H   0  0  0  0  0  0  0  0  0  0  0  0
   -4.6610   25.4630  -28.8990 H   0  0  0  0  0  0  0  0  0  0  0  0
   -5.9800   24.6760  -28.1520 H   0  0  0  0  0  0  0  0  0  0  0  0
   -4.3275   22.6197  -28.8474 H   0  0  0  0  0  0  0  0  0  0  0  0
   -5.8271   23.1471  -29.7117 H   0  0  0  0  0  0  0  0  0  0  0  0
   -2.9353   23.6089  -30.3831 H   0  0  0  0  0  0  0  0  0  0  0  0
   -3.4880   25.4590  -31.5900 H   0  0  0  0  0  0  0  0  0  0  0  0
   -4.2781   23.7522  -32.7001 H   0  0  0  0  0  0  0  0  0  0  0  0
   -4.1451   21.7054  -34.2256 H   0  0  0  0  0  0  0  0  0  0  0  0
   -2.7325   19.7188  -34.7332 H   0  0  0  0  0  0  0  0  0  0  0  0
   -1.3024   18.7083  -32.9550 H   0  0  0  0  0  0  0  0  0  0  0  0
   -1.2883   19.6883  -30.6592 H   0  0  0  0  0  0  0  0  0  0  0  0
   -2.6972   21.6782  -30.1379 H   0  0  0  0  0  0  0  0  0  0  0  0
   -6.6865   24.5867  -32.0642 H   0  0  0  0  0  0  0  0  0  0  0  0
   -9.0559   23.8126  -31.9764 H   0  0  0  0  0  0  0  0  0  0  0  0
   -9.5718   21.3891  -31.6782 H   0  0  0  0  0  0  0  0  0  0  0  0
   -7.7155   19.7345  -31.4612 H   0  0  0  0  0  0  0  0  0  0  0  0
   -5.3446   20.4959  -31.5495 H   0  0  0  0  0  0  0  0  0  0  0  0
  1  2  1  0
  2  3  1  0
  3  4  1  0
  4  5  1  0
  4  6  1  0
  6  7  1  0
  7  8  2  0
  8  9  1  0
  9 10  2  0
 10 11  1  0
 11 12  2  0
  6 13  1  0
 13 14  2  0
 14 15  1  0
 15 16  2  0
 16 17  1  0
 17 18  2  0
 12  7  1  0
 18 13  1  0
  1 19  1  0
  1 20  1  0
  1 21  1  0
  2 22  1  0
  2 23  1  0
  3 24  1  0
  3 25  1  0
  4 26  1  1
  5 27  1  0
  6 28  1  0
  8 29  1  0
  9 30  1  0
 10 31  1  0
 11 32  1  0
 12 33  1  0
 14 34  1  0
 15 35  1  0
 16 36  1  0
 17 37  1  0
 18 38  1  0
M  CHG  1   2   1
M  END
>  <UniqueID>  (2) 
2

>  <SMILES>  (2) 
C[NH2+]C[C@H](O)C(c1ccccc1)c1ccccc1

>  <Energy>  (2) 
37.59760487505138

>  <Genealogy>  (2) 
C[NH2+]CC(O)C(c1ccccc1)c1ccccc1 (protonated)
C[NH2+]C[C@H](O)C(c1ccccc1)c1ccccc1 (chirality)
C[NH2+]C[C@H](O)C(c1ccccc1)c1ccccc1 (3D coordinates assigned)
C[NH2+]C[C@H](O)C(c1ccccc1)c1ccccc1 (optimized conformer: 37.59760487505138 kcal/mol)

>  <smiles>  (2) 
CNCC(O)C(c1ccccc1)c1ccccc1

>  <score_type>  (2) 
oracle

>  <origin>  (2) 
adg

>  <m_score__min__energy>  (2) 
-6.96

>  <m_primary>  (2) 
energy

$$$$
2:0
     RDKit          3D

 46 48  0  0  0  0  0  0  0  0999 V2000
   -2.9820   22.0550  -31.5800 C   0  0  0  0  0  0  0  0  0  0  0  0
   -4.2420   22.6500  -30.9570 C   0  0  0  0  0  0  0  0  0  0  0  0
   -4.1170   24.1190  -30.8410 N   0  0  0  0  0  0  0  0  0  0  0  0
   -3.5420   24.5190  -29.5340 C   0  0  0  0  0  0  0  0  0  0  0  0
   -4.2420   23.8310  -28.3620 C   0  0  0  0  0  0  0  0  0  0  0  0
   -5.3600   24.8390  -31.2260 C   0  0  0  0  0  0  0  0  0  0  0  0
   -6.6550   24.0040  -31.1710 C   0  0  0  0  0  0  0  0  0  0  0  0
   -6.7920   23.1340  -32.3400 N   0  0  0  0  0  0  0  0  0  0  0  0
   -7.5690   21.9190  -32.3340 C   0  0  0  0  0  0  0  0  0  0  0  0
   -8.9290   21.9600  -31.9700 C   0  0  0  0  0  0  0  0  0  0  0  0
   -9.7050   20.8020  -31.9700 C   0  0  0  0  0  0  0  0  0  0  0  0
   -9.1460   19.5820  -32.3400 C   0  0  0  0  0  0  0  0  0  0  0  0
   -7.7990   19.5100  -32.7200 C   0  0  0  0  0  0  0  0  0  0  0  0
   -7.2430   18.2820  -33.0900 C   0  0  0  0  0  0  0  0  0  0  0  0
   -5.8960   18.2090  -33.4580 C   0  0  0  0  0  0  0  0  0  0  0  0
   -5.3400   16.9740  -33.8250 C   0  0  0  0  0  0  0  0  0  0  0  0
   -3.9960   16.9050  -34.1870 C   0  0  0  0  0  0  0  0  0  0  0  0
   -3.2190   18.0590  -34.1810 C   0  0  0  0  0  0  0  0  0  0  0  0
   -3.7950   19.2760  -33.8120 C   0  0  0  0  0  0  0  0  0  0  0  0
   -5.1160   19.3460  -33.4580 N   0  0  0  0  0  0  0  0  0  0  0  0
   -5.6460   20.5550  -33.1030 C   0  0  0  0  0  0  0  0  0  0  0  0
   -6.9980   20.6770  -32.7250 C   0  0  0  0  0  0  0  0  0  0  0  0
   -2.2966   21.7313  -30.7829 H   0  0  0  0  0  0  0  0  0  0  0  0
   -3.2542   21.1903  -32.2030 H   0  0  0  0  0  0  0  0  0  0  0  0
   -2.4872   22.8146  -32.2030 H   0  0  0  0  0  0  0  0  0  0  0  0
   -5.1080   22.4091  -31.5910 H   0  0  0  0  0  0  0  0  0  0  0  0
   -4.3781   22.2236  -29.9522 H   0  0  0  0  0  0  0  0  0  0  0  0
   -2.4758   24.2489  -29.5182 H   0  0  0  0  0  0  0  0  0  0  0  0
   -3.6810   25.6043  -29.4212 H   0  0  0  0  0  0  0  0  0  0  0  0
   -3.8428   24.2233  -27.4150 H   0  0  0  0  0  0  0  0  0  0  0  0
   -5.3230   24.0279  -28.4138 H   0  0  0  0  0  0  0  0  0  0  0  0
   -4.0639   22.7468  -28.4138 H   0  0  0  0  0  0  0  0  0  0  0  0
   -5.4799   25.6955  -30.5462 H   0  0  0  0  0  0  0  0  0  0  0  0
   -5.2294   25.1245  -32.2802 H   0  0  0  0  0  0  0  0  0  0  0  0
   -6.6389   23.3816  -30.2641 H   0  0  0  0  0  0  0  0  0  0  0  0
   -7.5085   24.6979  -31.1598 H   0  0  0  0  0  0  0  0  0  0  0  0
   -6.4850   23.5230  -33.2590 H   0  0  0  0  0  0  0  0  0  0  0  0
   -9.3849   22.9187  -31.6818 H   0  0  0  0  0  0  0  0  0  0  0  0
  -10.7639   20.8525  -31.6763 H   0  0  0  0  0  0  0  0  0  0  0  0
   -9.7635   18.6717  -32.3341 H   0  0  0  0  0  0  0  0  0  0  0  0
   -7.8643   17.3743  -33.0917 H   0  0  0  0  0  0  0  0  0  0  0  0
   -5.9611   16.0661  -33.8269 H   0  0  0  0  0  0  0  0  0  0  0  0
   -3.5511   15.9415  -34.4764 H   0  0  0  0  0  0  0  0  0  0  0  0
   -2.1574   18.0128  -34.4652 H   0  0  0  0  0  0  0  0  0  0  0  0
   -3.1810   20.1887  -33.8055 H   0  0  0  0  0  0  0  0  0  0  0  0
   -5.0053   21.4491  -33.1126 H   0  0  0  0  0  0  0  0  0  0  0  0
  1  2  1  0
  2  3  1  0
  3  4  1  0
  4  5  1  0
  3  6  1  0
  6  7  1  0
  7  8  1  0
  8  9  1  0
  9 10  2  0
 10 11  1  0
 11 12  2  0
 12 13  1  0
 13 14  2  0
 14 15  1  0
 15 16  2  0
 16 17  1  0
 17 18  2  0
 18 19  1  0
 19 20  2  0
 20 21  1  0
 21 22  2  0
 22  9  1  0
 22 13  1  0
 20 15  1  0
  1 23  1  0
  1 24  1  0
  1 25  1  0
  2 26  1  0
  2 27  1  0
  4 28  1  0
  4 29  1  0
  5 30  1  0
  5 31  1  0
  5 32  1  0
  6 33  1  0
  6 34  1  0
  7 35  1  0
  7 36  1  0
  8 37  1  0
 10 38  1  0
 11 39  1  0
 12 40  1  0
 14 41  1  0
 16 42  1  0
 17 43  1  0
 18 44  1  0
 19 45  1  0
 21 46  1  0
M  CHG  1  20   1
M  END
>  <UniqueID>  (3) 
3

>  <SMILES>  (3) 
CCN(CC)CCNc1cccc2cc3cccc[n+]3cc12

>  <Energy>  (3) 
59.44207301019674

>  <Genealogy>  (3) 
CCN(CC)CCNc1cccc2cc3cccc[n+]3cc12 (3D coordinates assigned)
CCN(CC)CCNc1cccc2cc3cccc[n+]3cc12 (optimized conformer: 59.44207301019674 kcal/mol)

>  <smiles>  (3) 
CCN(CC)CCNc1cccc2cc3cccc[n+]3cc12

>  <score_type>  (3) 
oracle

>  <origin>  (3) 
adg

>  <m_score__min__energy>  (3) 
-8.2100000000000009

>  <m_primary>  (3) 
energy

$$$$
3:0
     RDKit          3D

 47 50  0  0  0  0  0  0  0  0999 V2000
   -6.1460   14.1950  -34.2480 C   0  0  0  0  0  0  0  0  0  0  0  0
   -7.0120   15.3240  -34.2860 O   0  0  0  0  0  0  0  0  0  0  0  0
   -6.7170   16.5690  -33.7090 C   0  0  0  0  0  0  0  0  0  0  0  0
   -7.5180   17.1460  -32.7090 C   0  0  0  0  0  0  0  0  0  0  0  0
   -7.1850   18.3910  -32.1720 C   0  0  0  0  0  0  0  0  0  0  0  0
   -6.0530   19.0830  -32.6250 C   0  0  0  0  0  0  0  0  0  0  0  0
   -5.2310   18.4980  -33.6070 C   0  0  0  0  0  0  0  0  0  0  0  0
   -5.5810   17.2550  -34.1540 C   0  0  0  0  0  0  0  0  0  0  0  0
   -4.0450   19.2440  -34.1650 C   0  0  0  0  0  0  0  0  0  0  0  0
   -3.5120   20.2570  -33.2340 N   0  0  0  0  0  0  0  0  0  0  0  0
   -2.7150   19.6670  -32.1440 C   0  0  0  0  0  0  0  0  0  0  0  0
   -1.9370   20.7690  -31.4190 C   0  0  0  0  0  0  0  0  0  0  0  0
   -2.7750   21.9960  -31.1480 C   0  0  0  0  0  0  0  0  0  0  0  0
   -2.2810   22.9750  -30.2750 C   0  0  0  0  0  0  0  0  0  0  0  0
   -2.9950   24.1660  -30.0490 C   0  0  0  0  0  0  0  0  0  0  0  0
   -2.5300   25.1610  -29.1740 O   0  0  0  0  0  0  0  0  0  0  0  0
   -2.1100   24.9250  -27.8340 C   0  0  0  0  0  0  0  0  0  0  0  0
   -4.2110   24.3820  -30.7130 C   0  0  0  0  0  0  0  0  0  0  0  0
   -4.9030   25.5790  -30.4650 O   0  0  0  0  0  0  0  0  0  0  0  0
   -6.1170   25.6710  -29.7270 C   0  0  0  0  0  0  0  0  0  0  0  0
   -4.7020   23.4060  -31.6000 C   0  0  0  0  0  0  0  0  0  0  0  0
   -3.9870   22.2210  -31.8320 C   0  0  0  0  0  0  0  0  0  0  0  0
   -4.5750   21.1560  -32.7310 C   0  0  2  0  0  0  0  0  0  0  0  0
   -5.6890   20.3920  -31.9760 C   0  0  0  0  0  0  0  0  0  0  0  0
   -5.9398   13.9261  -33.2015 H   0  0  0  0  0  0  0  0  0  0  0  0
   -6.6271   13.3466  -34.7566 H   0  0  0  0  0  0  0  0  0  0  0  0
   -5.2018   14.4398  -34.7566 H   0  0  0  0  0  0  0  0  0  0  0  0
   -8.4109   16.6147  -32.3478 H   0  0  0  0  0  0  0  0  0  0  0  0
   -7.8162   18.8327  -31.3868 H   0  0  0  0  0  0  0  0  0  0  0  0
   -4.9546   16.8134  -34.9431 H   0  0  0  0  0  0  0  0  0  0  0  0
   -3.2482   18.5192  -34.3883 H   0  0  0  0  0  0  0  0  0  0  0  0
   -4.3836   19.7726  -35.0683 H   0  0  0  0  0  0  0  0  0  0  0  0
   -3.3854   19.1636  -31.4319 H   0  0  0  0  0  0  0  0  0  0  0  0
   -2.0072   18.9372  -32.5639 H   0  0  0  0  0  0  0  0  0  0  0  0
   -1.5760   20.3710  -30.4592 H   0  0  0  0  0  0  0  0  0  0  0  0
   -1.1065   21.0731  -32.0731 H   0  0  0  0  0  0  0  0  0  0  0  0
   -1.3230   22.8100  -29.7601 H   0  0  0  0  0  0  0  0  0  0  0  0
   -2.8527   25.3423  -27.1381 H   0  0  0  0  0  0  0  0  0  0  0  0
   -2.0164   23.8422  -27.6644 H   0  0  0  0  0  0  0  0  0  0  0  0
   -1.1365   25.4082  -27.6644 H   0  0  0  0  0  0  0  0  0  0  0  0
   -5.8936   25.6541  -28.6501 H   0  0  0  0  0  0  0  0  0  0  0  0
   -6.6298   26.6106  -29.9804 H   0  0  0  0  0  0  0  0  0  0  0  0
   -6.7656   24.8194  -29.9804 H   0  0  0  0  0  0  0  0  0  0  0  0
   -5.6579   23.5740  -32.1178 H   0  0  0  0  0  0  0  0  0  0  0  0
   -5.0344   21.6273  -33.6124 H   0  0  0  0  0  0  0  0  0  0  0  0
   -5.3425   20.1903  -30.9517 H   0  0  0  0  0  0  0  0  0  0  0  0
   -6.5880   21.0257  -31.9899 H   0  0  0  0  0  0  0  0  0  0  0  0
  1  2  1  0
  2  3  1  0
  3  4  2  0
  4  5  1  0
  5  6  2  0
  6  7  1  0
  7  8  2  0
  7  9  1  0
  9 10  1  0
 10 11  1  0
 11 12  1  0
 12 13  1  0
 13 14  2  0
 14 15  1  0
 15 16  1  0
 16 17  1  0
 15 18  2  0
 18 19  1  0
 19 20  1  0
 18 21  1  0
 21 22  2  0
 22 23  1  0
 23 24  1  0
  8  3  1  0
 23 10  1  0
 24  6  1  0
 22 13  1  0
  1 25  1  0
  1 26  1  0
  1 27  1  0
  4 28  1  0
  5 29  1  0
  8 30  1  0
  9 31  1  0
  9 32  1  0
 11 33  1  0
 11 34  1  0
 12 35  1  0
 12 36  1  0
 14 37  1  0
 17 38  1  0
 17 39  1  0
 17 40  1  0
 20 41  1  0
 20 42  1  0
 20 43  1  0
 21 44  1  0
 23 45  1  6
 24 46  1  0
 24 47  1  0
M  END
>  <UniqueID>  (4) 
4

>  <SMILES>  (4) 
COc1ccc2c(c1)CN1CCc3cc(OC)c(OC)cc3[C@@H]1C2

>  <Energy>  (4) 
57.366621674183506

>  <Genealogy>  (4) 
COc1ccc2c(c1)CN1CCc3cc(OC)c(OC)cc3[C@@H]1C2 (chirality)
COc1ccc2c(c1)CN1CCc3cc(OC)c(OC)cc3[C@@H]1C2 (3D coordinates assigned)
COc1ccc2c(c1)CN1CCc3cc(OC)c(OC)cc3[C@@H]1C2 (nonaromatic ring conformer: 57.366621674183506 kcal/mol)

>  <smiles>  (4) 
COc1ccc2c(c1)CN1CCc3cc(OC)c(OC)cc3C1C2

>  <score_type>  (4) 
oracle

>  <origin>  (4) 
adg

>  <m_score__min__energy>  (4) 
-7.8600000000000003

>  <m_primary>  (4) 
energy

$$$$
4:0
     RDKit          3D

 36 37  0  0  0  0  0  0  0  0999 V2000
   -6.9197   24.4123  -30.1427 H   0  0  0  0  0  0  0  0  0  0  0  0
   -6.8220   23.5380  -30.8030 C   0  0  0  0  0  0  0  0  0  0  0  0
   -7.9370   22.7420  -31.0700 C   0  0  0  0  0  0  0  0  0  0  0  0
   -8.9115   23.0036  -30.6319 H   0  0  0  0  0  0  0  0  0  0  0  0
   -7.8250   21.6090  -31.8940 C   0  0  0  0  0  0  0  0  0  0  0  0
   -9.0470   20.7720  -32.1680 C   0  0  0  0  0  0  0  0  0  0  0  0
   -9.5001   20.4617  -31.2149 H   0  0  0  0  0  0  0  0  0  0  0  0
   -9.7742   21.3625  -32.7446 H   0  0  0  0  0  0  0  0  0  0  0  0
   -8.7591   19.8806  -32.7446 H   0  0  0  0  0  0  0  0  0  0  0  0
   -6.5670   21.2790  -32.4510 C   0  0  0  0  0  0  0  0  0  0  0  0
   -6.3910   20.0590  -33.3200 C   0  0  0  0  0  0  0  0  0  0  0  0
   -6.2629   19.1709  -32.6836 H   0  0  0  0  0  0  0  0  0  0  0  0
   -7.2798   19.9299  -33.9551 H   0  0  0  0  0  0  0  0  0  0  0  0
   -5.5019   20.1864  -33.9551 H   0  0  0  0  0  0  0  0  0  0  0  0
   -5.4530   22.0860  -32.1660 C   0  0  0  0  0  0  0  0  0  0  0  0
   -4.4673   21.8161  -32.5729 H   0  0  0  0  0  0  0  0  0  0  0  0
   -5.5840   23.2310  -31.3690 C   0  0  0  0  0  0  0  0  0  0  0  0
   -4.4460   24.0450  -31.0600 N   0  0  0  0  0  0  0  0  0  0  0  0
   -3.4430   23.7150  -30.2940 C   0  0  0  0  0  0  0  0  0  0  0  0
   -2.9310   24.6980  -29.3840 N   0  0  0  0  0  0  0  0  0  0  0  0
   -3.0580   25.6980  -29.6600 H   0  0  0  0  0  0  0  0  0  0  0  0
   -2.7550   24.4600  -27.9500 C   0  0  0  0  0  0  0  0  0  0  0  0
   -3.2572   25.2696  -27.4002 H   0  0  0  0  0  0  0  0  0  0  0  0
   -1.6717   24.4307  -27.7614 H   0  0  0  0  0  0  0  0  0  0  0  0
   -3.3290   23.1180  -27.4670 C   0  0  0  0  0  0  0  0  0  0  0  0
   -4.3504   23.0077  -27.8601 H   0  0  0  0  0  0  0  0  0  0  0  0
   -3.3216   23.1241  -26.3670 H   0  0  0  0  0  0  0  0  0  0  0  0
   -2.4850   21.9210  -27.9380 C   0  0  0  0  0  0  0  0  0  0  0  0
   -2.6178   21.0976  -27.2208 H   0  0  0  0  0  0  0  0  0  0  0  0
   -1.4408   22.2626  -27.9922 H   0  0  0  0  0  0  0  0  0  0  0  0
   -2.8680   21.4140  -29.3370 C   0  0  0  0  0  0  0  0  0  0  0  0
   -3.9298   21.1275  -29.3161 H   0  0  0  0  0  0  0  0  0  0  0  0
   -2.1904   20.5750  -29.5535 H   0  0  0  0  0  0  0  0  0  0  0  0
   -2.6710   22.4260  -30.4770 C   0  0  0  0  0  0  0  0  0  0  0  0
   -2.9981   21.9570  -31.4167 H   0  0  0  0  0  0  0  0  0  0  0  0
   -1.6037   22.6920  -30.4865 H   0  0  0  0  0  0  0  0  0  0  0  0
  1  2  1  0
  2  3  2  0
  3  4  1  0
  3  5  1  0
  5  6  1  0
  6  7  1  0
  6  8  1  0
  6  9  1  0
  5 10  2  0
 10 11  1  0
 11 12  1  0
 11 13  1  0
 11 14  1  0
 10 15  1  0
 15 16  1  0
 15 17  2  0
 17 18  1  0
 18 19  2  0
 19 20  1  0
 20 21  1  0
 20 22  1  0
 22 23  1  0
 22 24  1  0
 22 25  1  0
 25 26  1  0
 25 27  1  0
 25 28  1  0
 28 29  1  0
 28 30  1  0
 28 31  1  0
 31 32  1  0
 31 33  1  0
 31 34  1  0
 34 35  1  0
 34 36  1  0
 17  2  1  0
 34 19  1  0
M  END
>  <UniqueID>  (5) 
5

>  <SMILES>  (5) 
Cc1ccc(/N=C2\CCCCCN2)cc1C

>  <Energy>  (5) 
48.99192900616489

>  <Genealogy>  (5) 
Cc1ccc(/N=C2\CCCCCN2)cc1C (cis-trans isomerization)
Cc1ccc(/N=C2\CCCCCN2)cc1C (3D coordinates assigned)
Cc1ccc(/N=C2\CCCCCN2)cc1C (nonaromatic ring conformer: 48.99192900616489 kcal/mol)

>  <smiles>  (5) 
Cc1ccc(N=C2CCCCCN2)cc1C

>  <score_type>  (5) 
oracle

>  <origin>  (5) 
adg

>  <m_score__min__energy>  (5) 
-5.8499999999999996

>  <m_primary>  (5) 
energy

$$$$
5:0
     RDKit          3D

 46 48  0  0  0  0  0  0  0  0999 V2000
   -3.0500   18.5510  -26.0610 C   0  0  0  0  0  0  0  0  0  0  0  0
   -2.3490   19.6520  -26.8570 C   0  0  0  0  0  0  0  0  0  0  0  0
   -1.0570   19.1680  -27.5310 C   0  0  0  0  0  0  0  0  0  0  0  0
   -0.2590   20.3110  -28.1730 C   0  0  0  0  0  0  0  0  0  0  0  0
   -1.1710   21.2410  -28.8610 N   0  0  0  0  0  0  0  0  0  0  0  0
   -1.5750   22.4230  -28.2760 C   0  0  0  0  0  0  0  0  0  0  0  0
   -1.1820   22.7050  -27.1090 O   0  0  0  0  0  0  0  0  0  0  0  0
   -2.4060   23.3010  -28.9530 N   0  0  0  0  0  0  0  0  0  0  0  0
   -2.8570   24.5450  -28.2980 C   0  0  0  0  0  0  0  0  0  0  0  0
   -3.8910   24.2340  -27.2210 C   0  0  0  0  0  0  0  0  0  0  0  0
   -2.8540   22.9960  -30.2190 C   0  0  0  0  0  0  0  0  0  0  0  0
   -3.6280   23.7720  -30.8400 O   0  0  0  0  0  0  0  0  0  0  0  0
   -2.4270   21.8080  -30.8000 C   0  0  0  0  0  0  0  0  0  0  0  0
   -1.6030   20.9750  -30.1240 C   0  0  0  0  0  0  0  0  0  0  0  0
   -1.3140   19.8830  -30.8610 N   0  0  0  0  0  0  0  0  0  0  0  0
   -2.0050   20.1020  -32.0080 C   0  0  0  0  0  0  0  0  0  0  0  0
   -2.6940   21.2710  -32.0060 N   0  0  0  0  0  0  0  0  0  0  0  0
   -3.5830   21.7560  -33.0620 C   0  0  0  0  0  0  0  0  0  0  0  0
   -4.9600   21.1620  -32.9090 C   0  0  0  0  0  0  0  0  0  0  0  0
   -5.2480   19.9000  -33.4560 C   0  0  0  0  0  0  0  0  0  0  0  0
   -6.5230   19.3440  -33.3140 C   0  0  0  0  0  0  0  0  0  0  0  0
   -7.5220   20.0450  -32.6320 C   0  0  0  0  0  0  0  0  0  0  0  0
   -9.1210   19.3470  -32.4540 Cl  0  0  0  0  0  0  0  0  0  0  0  0
   -7.2460   21.3080  -32.0960 C   0  0  0  0  0  0  0  0  0  0  0  0
   -5.9730   21.8660  -32.2360 C   0  0  0  0  0  0  0  0  0  0  0  0
   -2.9281   18.7424  -24.9847 H   0  0  0  0  0  0  0  0  0  0  0  0
   -4.1208   18.5416  -26.3128 H   0  0  0  0  0  0  0  0  0  0  0  0
   -2.6055   17.5768  -26.3128 H   0  0  0  0  0  0  0  0  0  0  0  0
   -3.0365   20.0153  -27.6350 H   0  0  0  0  0  0  0  0  0  0  0  0
   -2.0753   20.4490  -26.1499 H   0  0  0  0  0  0  0  0  0  0  0  0
   -0.4260   18.6808  -26.7730 H   0  0  0  0  0  0  0  0  0  0  0  0
   -1.3419   18.4709  -28.3328 H   0  0  0  0  0  0  0  0  0  0  0  0
    0.2923   20.8538  -27.3911 H   0  0  0  0  0  0  0  0  0  0  0  0
    0.4463   19.8908  -28.9051 H   0  0  0  0  0  0  0  0  0  0  0  0
   -1.9929   25.0457  -27.8370 H   0  0  0  0  0  0  0  0  0  0  0  0
   -3.3148   25.2004  -29.0536 H   0  0  0  0  0  0  0  0  0  0  0  0
   -3.4382   24.3702  -26.2278 H   0  0  0  0  0  0  0  0  0  0  0  0
   -4.7490   24.9138  -27.3292 H   0  0  0  0  0  0  0  0  0  0  0  0
   -4.2316   23.1937  -27.3292 H   0  0  0  0  0  0  0  0  0  0  0  0
   -2.0065   19.4011  -32.8558 H   0  0  0  0  0  0  0  0  0  0  0  0
   -3.6530   22.8521  -33.0008 H   0  0  0  0  0  0  0  0  0  0  0  0
   -3.1729   21.4553  -34.0374 H   0  0  0  0  0  0  0  0  0  0  0  0
   -4.4669   19.3471  -33.9983 H   0  0  0  0  0  0  0  0  0  0  0  0
   -6.7404   18.3533  -33.7396 H   0  0  0  0  0  0  0  0  0  0  0  0
   -8.0329   21.8623  -31.5635 H   0  0  0  0  0  0  0  0  0  0  0  0
   -5.7626   22.8612  -31.8174 H   0  0  0  0  0  0  0  0  0  0  0  0
  1  2  1  0
  2  3  1  0
  3  4  1  0
  4  5  1  0
  5  6  1  0
  6  7  2  0
  6  8  1  0
  8  9  1  0
  9 10  1  0
  8 11  1  0
 11 12  2  0
 11 13  1  0
 13 14  2  0
 14 15  1  0
 15 16  2  0
 16 17  1  0
 17 18  1  0
 18 19  1  0
 19 20  2  0
 20 21  1  0
 21 22  2  0
 22 23  1  0
 22 24  1  0
 24 25  2  0
 14  5  1  0
 25 19  1  0
 17 13  1  0
  1 26  1  0
  1 27  1  0
  1 28  1  0
  2 29  1  0
  2 30  1  0
  3 31  1  0
  3 32  1  0
  4 33  1  0
  4 34  1  0
  9 35  1  0
  9 36  1  0
 10 37  1  0
 10 38  1  0
 10 39  1  0
 16 40  1  0
 18 41  1  0
 18 42  1  0
 20 43  1  0
 21 44  1  0
 24 45  1  0
 25 46  1  0
M  END
>  <UniqueID>  (6) 
6

>  <SMILES>  (6) 
CCCCn1c(=O)n(CC)c(=O)c2c1ncn2Cc1ccc(Cl)cc1

>  <Energy>  (6) 
83.22259079953075

>  <Genealogy>  (6) 
CCCCn1c(=O)n(CC)c(=O)c2c1ncn2Cc1ccc(Cl)cc1 (3D coordinates assigned)
CCCCn1c(=O)n(CC)c(=O)c2c1ncn2Cc1ccc(Cl)cc1 (optimized conformer: 83.22259079953075 kcal/mol)

>  <smiles>  (6) 
CCCCn1c(=O)n(CC)c(=O)c2c1ncn2Cc1ccc(Cl)cc1

>  <score_type>  (6) 
oracle

>  <origin>  (6) 
adg

>  <m_score__min__energy>  (6) 
-7.4699999999999998

>  <m_primary>  (6) 
energy

$$$$
6:0
     RDKit          3D

 29 29  0  0  0  0  0  0  0  0999 V2000
   -6.0360   16.8100  -34.2260 C   0  0  0  0  0  0  0  0  0  0  0  0
   -5.8100   18.3170  -34.1160 C   0  0  0  0  0  0  0  0  0  0  0  0
   -6.7450   18.9140  -33.1500 N   0  0  0  0  0  0  0  0  0  0  0  0
   -6.8720   20.2170  -33.0960 C   0  0  0  0  0  0  0  0  0  0  0  0
   -7.8210   20.8830  -32.1540 C   0  0  0  0  0  0  0  0  0  0  0  0
   -7.8060   22.2320  -31.9670 C   0  0  0  0  0  0  0  0  0  0  0  0
   -9.0890   23.0330  -31.9750 C   0  0  0  0  0  0  0  0  0  0  0  0
   -6.5150   22.9810  -31.7260 C   0  0  0  0  0  0  0  0  0  0  0  0
   -8.7500   19.9990  -31.3390 C   0  0  0  0  0  0  0  0  0  0  0  0
   -8.8630   18.5930  -31.9290 C   0  0  0  0  0  0  0  0  0  0  0  0
   -7.4720   18.0380  -32.2170 C   0  0  0  0  0  0  0  0  0  0  0  0
   -6.1013   16.3745  -33.2180 H   0  0  0  0  0  0  0  0  0  0  0  0
   -6.9729   16.6185  -34.7696 H   0  0  0  0  0  0  0  0  0  0  0  0
   -5.1965   16.3520  -34.7696 H   0  0  0  0  0  0  0  0  0  0  0  0
   -4.7785   18.5040  -33.7829 H   0  0  0  0  0  0  0  0  0  0  0  0
   -5.9814   18.7731  -35.1022 H   0  0  0  0  0  0  0  0  0  0  0  0
   -6.2606   20.8400  -33.7653 H   0  0  0  0  0  0  0  0  0  0  0  0
   -9.4047   23.2301  -30.9399 H   0  0  0  0  0  0  0  0  0  0  0  0
   -8.9221   23.9876  -32.4955 H   0  0  0  0  0  0  0  0  0  0  0  0
   -9.8733   22.4639  -32.4955 H   0  0  0  0  0  0  0  0  0  0  0  0
   -6.3449   23.0797  -30.6437 H   0  0  0  0  0  0  0  0  0  0  0  0
   -5.6797   22.4273  -32.1795 H   0  0  0  0  0  0  0  0  0  0  0  0
   -6.5811   23.9810  -32.1795 H   0  0  0  0  0  0  0  0  0  0  0  0
   -8.3600   19.9238  -30.3132 H   0  0  0  0  0  0  0  0  0  0  0  0
   -9.7511   20.4548  -31.3505 H   0  0  0  0  0  0  0  0  0  0  0  0
   -9.3763   17.9363  -31.2112 H   0  0  0  0  0  0  0  0  0  0  0  0
   -9.4362   18.6386  -32.8667 H   0  0  0  0  0  0  0  0  0  0  0  0
   -6.9090   17.9679  -31.2746 H   0  0  0  0  0  0  0  0  0  0  0  0
   -7.5761   17.0431  -32.6745 H   0  0  0  0  0  0  0  0  0  0  0  0
  1  2  1  0
  2  3  1  0
  3  4  2  0
  4  5  1  0
  5  6  2  3
  6  7  1  0
  6  8  1  0
  5  9  1  0
  9 10  1  0
 10 11  1  0
 11  3  1  0
  1 12  1  0
  1 13  1  0
  1 14  1  0
  2 15  1  0
  2 16  1  0
  4 17  1  0
  7 18  1  0
  7 19  1  0
  7 20  1  0
  8 21  1  0
  8 22  1  0
  8 23  1  0
  9 24  1  0
  9 25  1  0
 10 26  1  0
 10 27  1  0
 11 28  1  0
 11 29  1  0
M  CHG  1   3   1
M  END
>  <UniqueID>  (7) 
7

>  <SMILES>  (7) 
CC[N+]1=CC(=C(C)C)CCC1

>  <Energy>  (7) 
22.616098515637628

>  <Genealogy>  (7) 
CC[N+]1=CC(=C(C)C)CCC1 (3D coordinates assigned)
CC[N+]1=CC(=C(C)C)CCC1 (nonaromatic ring conformer: 22.616098515637628 kcal/mol)

>  <smiles>  (7) 
CC[N+]1=CC(=C(C)C)CCC1

>  <score_type>  (7) 
oracle

>  <origin>  (7) 
adg

>  <m_score__min__energy>  (7) 
-4.7800000000000002

>  <m_primary>  (7) 
energy

$$$$
7:0
     RDKit          3D

 43 44  0  0  1  0  0  0  0  0999 V2000
   -7.6980   20.5240  -31.8910 O   0  0  0  0  0  0  0  0  0  0  0  0
   -6.7230   21.0400  -32.5040 C   0  0  0  0  0  0  0  0  0  0  0  0
   -6.5730   22.4740  -32.6020 N   0  0  0  0  0  0  0  0  0  0  0  0
   -7.6120   23.2520  -31.9540 C   0  0  0  0  0  0  0  0  0  0  0  0
   -7.6080   23.1390  -30.4660 C   0  0  0  0  0  0  0  0  0  0  0  0
   -6.2590   22.9250  -29.8500 C   0  0  0  0  0  0  0  0  0  0  0  0
   -5.3530   24.0600  -30.0030 C   0  0  0  0  0  0  0  0  0  0  0  0
   -4.7960   24.7130  -28.9010 O   0  0  0  0  0  0  0  0  0  0  0  0
   -4.9940   24.5530  -31.1660 N   0  0  0  0  0  0  0  0  0  0  0  0
   -4.0620   25.5910  -31.1460 O   0  0  0  0  0  0  0  0  0  0  0  0
   -5.6830   20.2510  -33.1550 C   0  0  0  0  0  0  0  0  0  0  0  0
   -6.0980   19.2490  -34.0130 C   0  0  0  0  0  0  0  0  0  0  0  0
   -5.1260   18.4790  -34.6460 C   0  0  0  0  0  0  0  0  0  0  0  0
   -3.8140   18.7090  -34.4260 N   0  0  0  0  0  0  0  0  0  0  0  0
   -3.4360   19.6860  -33.5880 C   0  0  0  0  0  0  0  0  0  0  0  0
   -2.0940   19.9060  -33.3760 C   0  0  0  0  0  0  0  0  0  0  0  0
   -1.6990   20.9200  -32.5100 C   0  0  0  0  0  0  0  0  0  0  0  0
   -2.5680   21.7320  -31.8400 C   0  0  0  0  0  0  0  0  0  0  0  0
   -2.2810   22.7410  -30.9840 O   0  0  0  0  0  0  0  0  0  0  0  0
   -1.7560   22.6890  -29.7000 C   0  0  0  0  0  0  0  0  0  0  0  0
   -1.5640   23.9900  -28.9920 C   0  0  0  0  0  0  0  0  0  0  0  0
   -2.3640   24.9560  -29.6260 O   0  0  0  0  0  0  0  0  0  0  0  0
   -3.9350   21.4870  -32.0740 C   0  0  0  0  0  0  0  0  0  0  0  0
   -4.3390   20.4860  -32.9290 C   0  0  0  0  0  0  0  0  0  0  0  0
   -5.7650   22.9040  -33.1070 H   0  0  0  0  0  0  0  0  0  0  0  0
   -7.4718   24.3096  -32.2221 H   0  0  0  0  0  0  0  0  0  0  0  0
   -8.5761   22.8539  -32.3034 H   0  0  0  0  0  0  0  0  0  0  0  0
   -8.0284   24.0675  -30.0523 H   0  0  0  0  0  0  0  0  0  0  0  0
   -8.2012   22.2447  -30.2244 H   0  0  0  0  0  0  0  0  0  0  0  0
   -6.3952   22.7327  -28.7755 H   0  0  0  0  0  0  0  0  0  0  0  0
   -5.7987   22.0753  -30.3755 H   0  0  0  0  0  0  0  0  0  0  0  0
   -4.3120   25.5990  -28.9800 H   0  0  0  0  0  0  0  0  0  0  0  0
   -3.1660   25.3450  -31.5930 H   0  0  0  0  0  0  0  0  0  0  0  0
   -7.1679   19.0652  -34.1907 H   0  0  0  0  0  0  0  0  0  0  0  0
   -5.4301   17.6750  -35.3324 H   0  0  0  0  0  0  0  0  0  0  0  0
   -1.3418   19.2864  -33.8861 H   0  0  0  0  0  0  0  0  0  0  0  0
   -0.6213   21.0772  -32.3556 H   0  0  0  0  0  0  0  0  0  0  0  0
   -2.4345   22.0757  -29.0888 H   0  0  0  0  0  0  0  0  0  0  0  0
   -0.7428   22.2785  -29.8224 H   0  0  0  0  0  0  0  0  0  0  0  0
   -1.8657   23.8892  -27.9390 H   0  0  0  0  0  0  0  0  0  0  0  0
   -0.5062   24.2896  -29.0269 H   0  0  0  0  0  0  0  0  0  0  0  0
   -3.0680   24.5080  -30.1510 H   0  0  0  0  0  0  0  0  0  0  0  0
   -4.6909   22.1042  -31.5664 H   0  0  0  0  0  0  0  0  0  0  0  0
  1  2  2  0
  2  3  1  0
  3  4  1  0
  4  5  1  0
  5  6  1  0
  6  7  1  0
  7  8  1  0
  7  9  2  0
  9 10  1  0
  2 11  1  0
 11 12  2  0
 12 13  1  0
 13 14  2  0
 14 15  1  0
 15 16  2  0
 16 17  1  0
 17 18  2  0
 18 19  1  0
 19 20  1  0
 20 21  1  0
 21 22  1  0
 18 23  1  0
 23 24  2  0
 24 11  1  0
 24 15  1  0
  3 25  1  0
  4 26  1  0
  4 27  1  0
  5 28  1  0
  5 29  1  0
  6 30  1  0
  6 31  1  0
  8 32  1  0
 10 33  1  0
 12 34  1  0
 13 35  1  0
 16 36  1  0
 17 37  1  0
 20 38  1  0
 20 39  1  0
 21 40  1  0
 21 41  1  0
 22 42  1  0
 23 43  1  0
M  END
>  <smiles>  (8) 
O=C(NCCCC(O)=NO)c1ccnc2ccc(OCCO)cc12

>  <score_type>  (8) 
oracle

>  <origin>  (8) 
adg

>  <m_score__min__energy>  (8) 
-7.5

>  <m_primary>  (8) 
energy

$$$$
8:0
     RDKit          3D

 51 53  0  0  0  0  0  0  0  0999 V2000
   -2.4430   14.4980  -32.7260 C   0  0  0  0  0  0  0  0  0  0  0  0
   -3.8640   14.7590  -32.4650 N   0  0  0  0  0  0  0  0  0  0  0  0
   -4.6050   13.8450  -31.5880 C   0  0  0  0  0  0  0  0  0  0  0  0
   -4.5260   15.8960  -33.0740 C   0  0  0  0  0  0  0  0  0  0  0  0
   -5.8130   15.7690  -33.6360 C   0  0  0  0  0  0  0  0  0  0  0  0
   -6.4520   16.8690  -34.2130 C   0  0  0  0  0  0  0  0  0  0  0  0
   -5.8220   18.1130  -34.2400 C   0  0  0  0  0  0  0  0  0  0  0  0
   -4.5420   18.2670  -33.6920 C   0  0  0  0  0  0  0  0  0  0  0  0
   -3.8690   19.6190  -33.7020 C   0  0  0  0  0  0  0  0  0  0  0  0
   -4.1500   20.3950  -32.4820 N   0  0  0  0  0  0  0  0  0  0  0  0
   -4.9630   21.5960  -32.7310 C   0  0  0  0  0  0  0  0  0  0  0  0
   -6.3560   21.4580  -32.1550 C   0  0  0  0  0  0  0  0  0  0  0  0
   -7.2240   20.4820  -32.6660 C   0  0  0  0  0  0  0  0  0  0  0  0
   -8.5010   20.3270  -32.1280 C   0  0  0  0  0  0  0  0  0  0  0  0
   -8.9080   21.1550  -31.0840 C   0  0  0  0  0  0  0  0  0  0  0  0
   -8.0660   22.1060  -30.5970 N   0  0  0  0  0  0  0  0  0  0  0  0
   -6.8130   22.2840  -31.1040 C   0  0  0  0  0  0  0  0  0  0  0  0
   -5.9660   23.3000  -30.5490 N   0  0  0  0  0  0  0  0  0  0  0  0
   -6.4790   24.6640  -30.3910 C   0  0  0  0  0  0  0  0  0  0  0  0
   -5.3360   25.7030  -30.4700 C   0  0  0  0  0  0  0  0  0  0  0  0
   -4.0420   25.1240  -30.5180 O   0  0  0  0  0  0  0  0  0  0  0  0
   -3.9100   24.1450  -29.5080 C   0  0  0  0  0  0  0  0  0  0  0  0
   -4.7170   22.9060  -29.8930 C   0  0  0  0  0  0  0  0  0  0  0  0
   -3.8990   17.1590  -33.1150 C   0  0  0  0  0  0  0  0  0  0  0  0
   -1.9068   14.3995  -31.7706 H   0  0  0  0  0  0  0  0  0  0  0  0
   -2.3410   13.5661  -33.3015 H   0  0  0  0  0  0  0  0  0  0  0  0
   -2.0165   15.3328  -33.3015 H   0  0  0  0  0  0  0  0  0  0  0  0
   -4.3998   14.0981  -30.5374 H   0  0  0  0  0  0  0  0  0  0  0  0
   -5.6830   13.9415  -31.7846 H   0  0  0  0  0  0  0  0  0  0  0  0
   -4.2876   12.8103  -31.7846 H   0  0  0  0  0  0  0  0  0  0  0  0
   -6.3195   14.7927  -33.6199 H   0  0  0  0  0  0  0  0  0  0  0  0
   -7.4559   16.7536  -34.6477 H   0  0  0  0  0  0  0  0  0  0  0  0
   -6.3319   18.9760  -34.6931 H   0  0  0  0  0  0  0  0  0  0  0  0
   -2.7820   19.4719  -33.7846 H   0  0  0  0  0  0  0  0  0  0  0  0
   -4.2654   20.1847  -34.5581 H   0  0  0  0  0  0  0  0  0  0  0  0
   -3.2450   20.6900  -32.0470 H   0  0  0  0  0  0  0  0  0  0  0  0
   -4.4697   22.4629  -32.2673 H   0  0  0  0  0  0  0  0  0  0  0  0
   -5.0534   21.7295  -33.8191 H   0  0  0  0  0  0  0  0  0  0  0  0
   -6.8962   19.8365  -33.4942 H   0  0  0  0  0  0  0  0  0  0  0  0
   -9.1807   19.5582  -32.5241 H   0  0  0  0  0  0  0  0  0  0  0  0
   -9.9131   21.0394  -30.6523 H   0  0  0  0  0  0  0  0  0  0  0  0
   -8.3980   22.7180  -29.8180 H   0  0  0  0  0  0  0  0  0  0  0  0
   -7.2063   24.8689  -31.1905 H   0  0  0  0  0  0  0  0  0  0  0  0
   -6.9562   24.7449  -29.4032 H   0  0  0  0  0  0  0  0  0  0  0  0
   -5.4793   26.3088  -31.3769 H   0  0  0  0  0  0  0  0  0  0  0  0
   -5.3849   26.3055  -29.5510 H   0  0  0  0  0  0  0  0  0  0  0  0
   -2.8500   23.8727  -29.3973 H   0  0  0  0  0  0  0  0  0  0  0  0
   -4.2861   24.5469  -28.5556 H   0  0  0  0  0  0  0  0  0  0  0  0
   -4.1245   22.2860  -30.5819 H   0  0  0  0  0  0  0  0  0  0  0  0
   -4.9539   22.3348  -28.9833 H   0  0  0  0  0  0  0  0  0  0  0  0
   -2.8919   17.2781  -32.6890 H   0  0  0  0  0  0  0  0  0  0  0  0
  1  2  1  0
  2  3  1  0
  2  4  1  0
  4  5  2  0
  5  6  1  0
  6  7  2  0
  7  8  1  0
  8  9  1  0
  9 10  1  0
 10 11  1  0
 11 12  1  0
 12 13  2  0
 13 14  1  0
 14 15  2  0
 15 16  1  0
 16 17  2  0
 17 18  1  0
 18 19  1  0
 19 20  1  0
 20 21  1  0
 21 22  1  0
 22 23  1  0
  8 24  2  0
 24  4  1  0
 17 12  1  0
 23 18  1  0
  1 25  1  0
  1 26  1  0
  1 27  1  0
  3 28  1  0
  3 29  1  0
  3 30  1  0
  5 31  1  0
  6 32  1  0
  7 33  1  0
  9 34  1  0
  9 35  1  0
 10 36  1  0
 11 37  1  0
 11 38  1  0
 13 39  1  0
 14 40  1  0
 15 41  1  0
 16 42  1  0
 19 43  1  0
 19 44  1  0
 20 45  1  0
 20 46  1  0
 22 47  1  0
 22 48  1  0
 23 49  1  0
 23 50  1  0
 24 51  1  0
M  CHG  1  16   1
M  END
>  <UniqueID>  (9) 
8

>  <SMILES>  (9) 
CN(C)c1cccc(CNCc2ccc[nH+]c2N2CCOCC2)c1

>  <Energy>  (9) 
62.98108894758235

>  <Genealogy>  (9) 
CN(C)c1cccc(CNCc2ccc[nH+]c2N2CCOCC2)c1 (protonated)
CN(C)c1cccc(CNCc2ccc[nH+]c2N2CCOCC2)c1 (3D coordinates assigned)
CN(C)c1cccc(CNCc2ccc[nH+]c2N2CCOCC2)c1 (nonaromatic ring conformer: 62.98108894758235 kcal/mol)

>  <smiles>  (9) 
CN(C)c1cccc(CNCc2cccnc2N2CCOCC2)c1

>  <score_type>  (9) 
oracle

>  <origin>  (9) 
adg

>  <m_score__min__energy>  (9) 
-7.1500000000000004

>  <m_primary>  (9) 
energy

$$$$
9:0
     RDKit          3D

 50 53  0  0  0  0  0  0  0  0999 V2000
   -0.2370   23.6080  -28.7920 C   0  0  0  0  0  0  0  0  0  0  0  0
   -1.6440   23.6180  -29.3110 C   0  0  0  0  0  0  0  0  0  0  0  0
   -2.1000   22.6200  -30.1780 C   0  0  0  0  0  0  0  0  0  0  0  0
   -3.3880   22.6280  -30.6020 N   0  0  0  0  0  0  0  0  0  0  0  0
   -4.2620   23.5900  -30.1970 C   0  0  0  0  0  0  0  0  0  0  0  0
   -5.6240   23.5570  -30.6580 N   0  0  0  0  0  0  0  0  0  0  0  0
   -5.9290   23.8980  -32.0510 C   0  0  0  0  0  0  0  0  0  0  0  0
   -7.2410   23.2380  -32.5200 C   0  0  0  0  0  0  0  0  0  0  0  0
   -7.6150   21.9660  -31.7050 C   0  0  0  0  0  0  0  0  0  0  0  0
   -6.5160   20.8550  -31.8710 C   0  0  0  0  0  0  0  0  0  0  0  0
   -6.8360   19.8940  -33.0260 C   0  0  0  0  0  0  0  0  0  0  0  0
   -8.1230   19.1720  -32.8300 N   0  0  0  0  0  0  0  0  0  0  0  0
   -7.9220   17.8160  -32.2830 C   0  0  0  0  0  0  0  0  0  0  0  0
   -6.6460   17.2290  -32.7990 C   0  0  0  0  0  0  0  0  0  0  0  0
   -5.6530   16.7830  -32.0000 N   0  0  0  0  0  0  0  0  0  0  0  0
   -4.6040   16.3010  -32.7170 C   0  0  0  0  0  0  0  0  0  0  0  0
   -4.7540   16.3620  -34.0970 C   0  0  0  0  0  0  0  0  0  0  0  0
   -6.2570   17.0450  -34.4240 S   0  0  0  0  0  0  0  0  0  0  0  0
   -9.1130   19.9200  -32.0170 C   0  0  0  0  0  0  0  0  0  0  0  0
   -8.9870   21.4320  -32.2310 C   0  0  0  0  0  0  0  0  0  0  0  0
   -7.7550   22.3600  -30.1950 C   0  0  0  0  0  0  0  0  0  0  0  0
   -6.7370   23.4150  -29.7140 C   0  0  0  0  0  0  0  0  0  0  0  0
   -3.8450   24.5520  -29.3230 N   0  0  0  0  0  0  0  0  0  0  0  0
   -2.5610   24.5800  -28.8770 C   0  0  0  0  0  0  0  0  0  0  0  0
   -0.2519   23.6081  -27.6921 H   0  0  0  0  0  0  0  0  0  0  0  0
    0.2801   22.7062  -29.1516 H   0  0  0  0  0  0  0  0  0  0  0  0
    0.2928   24.5024  -29.1516 H   0  0  0  0  0  0  0  0  0  0  0  0
   -1.4143   21.8290  -30.5158 H   0  0  0  0  0  0  0  0  0  0  0  0
   -6.0271   24.9901  -32.1384 H   0  0  0  0  0  0  0  0  0  0  0  0
   -5.1101   23.5265  -32.6845 H   0  0  0  0  0  0  0  0  0  0  0  0
   -8.0559   23.9699  -32.4186 H   0  0  0  0  0  0  0  0  0  0  0  0
   -7.0934   22.9247  -33.5640 H   0  0  0  0  0  0  0  0  0  0  0  0
   -5.5489   21.3397  -32.0704 H   0  0  0  0  0  0  0  0  0  0  0  0
   -6.4841   20.2683  -30.9410 H   0  0  0  0  0  0  0  0  0  0  0  0
   -6.8953   20.4726  -33.9596 H   0  0  0  0  0  0  0  0  0  0  0  0
   -6.0345   19.1416  -33.0652 H   0  0  0  0  0  0  0  0  0  0  0  0
   -7.8778   17.8709  -31.1853 H   0  0  0  0  0  0  0  0  0  0  0  0
   -8.7609   17.1771  -32.5961 H   0  0  0  0  0  0  0  0  0  0  0  0
   -3.7014   15.8921  -32.2394 H   0  0  0  0  0  0  0  0  0  0  0  0
   -4.0203   16.0238  -34.8436 H   0  0  0  0  0  0  0  0  0  0  0  0
  -10.1258   19.6014  -32.3047 H   0  0  0  0  0  0  0  0  0  0  0  0
   -8.9217   19.7043  -30.9555 H   0  0  0  0  0  0  0  0  0  0  0  0
   -9.0684   21.6501  -33.3061 H   0  0  0  0  0  0  0  0  0  0  0  0
   -9.7921   21.9309  -31.6716 H   0  0  0  0  0  0  0  0  0  0  0  0
   -8.7669   22.7612  -30.0366 H   0  0  0  0  0  0  0  0  0  0  0  0
   -7.5594   21.4472  -29.6132 H   0  0  0  0  0  0  0  0  0  0  0  0
   -7.2470   24.3845  -29.6142 H   0  0  0  0  0  0  0  0  0  0  0  0
   -6.3295   23.0857  -28.7468 H   0  0  0  0  0  0  0  0  0  0  0  0
   -4.5170   25.2630  -28.9570 H   0  0  0  0  0  0  0  0  0  0  0  0
   -2.2425   25.3622  -28.1723 H   0  0  0  0  0  0  0  0  0  0  0  0
  1  2  1  0
  2  3  2  0
  3  4  1  0
  4  5  2  0
  5  6  1  0
  6  7  1  0
  7  8  1  0
  8  9  1  0
  9 10  1  0
 10 11  1  0
 11 12  1  0
 12 13  1  0
 13 14  1  0
 14 15  2  0
 15 16  1  0
 16 17  2  0
 17 18  1  0
 12 19  1  0
 19 20  1  0
  9 21  1  0
 21 22  1  0
  5 23  1  0
 23 24  2  0
 24  2  1  0
 22  6  1  0
 20  9  1  0
 18 14  1  0
  1 25  1  0
  1 26  1  0
  1 27  1  0
  3 28  1  0
  7 29  1  0
  7 30  1  0
  8 31  1  0
  8 32  1  0
 10 33  1  0
 10 34  1  0
 11 35  1  0
 11 36  1  0
 13 37  1  0
 13 38  1  0
 16 39  1  0
 17 40  1  0
 19 41  1  0
 19 42  1  0
 20 43  1  0
 20 44  1  0
 21 45  1  0
 21 46  1  0
 22 47  1  0
 22 48  1  0
 23 49  1  0
 24 50  1  0
M  CHG  1  23   1
M  END
>  <UniqueID>  (10) 
9

>  <SMILES>  (10) 
Cc1cnc(N2CCC3(CCN(Cc4nccs4)CC3)CC2)[nH+]c1

>  <Energy>  (10) 
100.05751211794575

>  <Genealogy>  (10) 
Cc1cnc(N2CCC3(CCN(Cc4nccs4)CC3)CC2)[nH+]c1 (protonated)
Cc1cnc(N2CCC3(CCN(Cc4nccs4)CC3)CC2)[nH+]c1 (3D coordinates assigned)
Cc1cnc(N2CCC3(CCN(Cc4nccs4)CC3)CC2)[nH+]c1 (nonaromatic ring conformer: 100.05751211794575 kcal/mol)

>  <smiles>  (10) 
Cc1cnc(N2CCC3(CCN(Cc4nccs4)CC3)CC2)nc1

>  <score_type>  (10) 
oracle

>  <origin>  (10) 
adg

>  <m_score__min__energy>  (10) 
-7.8499999999999996

>  <m_primary>  (10) 
energy

$$$$
10:0
     RDKit          3D

 47 50  0  0  0  0  0  0  0  0999 V2000
   -4.0120   21.0280  -33.4610 O   0  0  0  0  0  0  0  0  0  0  0  0
   -4.9090   20.3940  -32.8440 C   0  0  0  0  0  0  0  0  0  0  0  0
   -5.7720   21.1610  -31.8630 C   0  0  1  0  0  0  0  0  0  0  0  0
   -5.2040   22.5700  -31.5450 C   0  0  0  0  0  0  0  0  0  0  0  0
   -6.0530   23.2980  -30.5610 N   0  0  0  0  0  0  0  0  0  0  0  0
   -5.5140   24.6460  -30.2970 C   0  0  0  0  0  0  0  0  0  0  0  0
   -4.3030   24.5670  -29.4200 C   0  0  0  0  0  0  0  0  0  0  0  0
   -4.2430   23.9740  -28.1740 C   0  0  0  0  0  0  0  0  0  0  0  0
   -2.9490   24.1590  -27.7400 C   0  0  0  0  0  0  0  0  0  0  0  0
   -2.3010   24.8510  -28.7450 C   0  0  0  0  0  0  0  0  0  0  0  0
   -3.1360   25.0800  -29.7320 O   0  0  0  0  0  0  0  0  0  0  0  0
   -7.4630   23.3980  -31.0150 C   0  0  0  0  0  0  0  0  0  0  0  0
   -8.0160   21.9860  -31.2170 C   0  0  1  0  0  0  0  0  0  0  0  0
   -9.4580   21.8450  -31.6700 C   0  0  0  0  0  0  0  0  0  0  0  0
   -9.4950   20.4650  -32.3510 C   0  0  0  0  0  0  0  0  0  0  0  0
   -8.0330   20.0320  -32.5620 C   0  0  0  0  0  0  0  0  0  0  0  0
   -7.2340   21.3000  -32.3120 C   0  0  2  0  0  0  0  0  0  0  0  0
   -5.0960   19.0020  -33.1570 N   0  0  0  0  0  0  0  0  0  0  0  0
   -5.5710   17.9970  -32.1970 C   0  0  0  0  0  0  0  0  0  0  0  0
   -5.6450   16.7340  -32.8320 O   0  0  0  0  0  0  0  0  0  0  0  0
   -6.3830   16.8550  -34.0390 C   0  0  0  0  0  0  0  0  0  0  0  0
   -5.7860   17.9400  -34.9710 C   0  0  0  0  0  0  0  0  0  0  0  0
   -4.6670   18.5440  -34.3650 O   0  0  0  0  0  0  0  0  0  0  0  0
   -5.7516   20.5492  -30.9491 H   0  0  0  0  0  0  0  0  0  0  0  0
   -4.1913   22.4605  -31.1297 H   0  0  0  0  0  0  0  0  0  0  0  0
   -5.1869   23.1512  -32.4788 H   0  0  0  0  0  0  0  0  0  0  0  0
   -5.2389   25.1186  -31.2514 H   0  0  0  0  0  0  0  0  0  0  0  0
   -6.2841   25.2419  -29.7853 H   0  0  0  0  0  0  0  0  0  0  0  0
   -5.0573   23.4618  -27.6406 H   0  0  0  0  0  0  0  0  0  0  0  0
   -2.5181   23.8233  -26.7852 H   0  0  0  0  0  0  0  0  0  0  0  0
   -1.2463   25.1626  -28.7218 H   0  0  0  0  0  0  0  0  0  0  0  0
   -8.0598   23.9238  -30.2552 H   0  0  0  0  0  0  0  0  0  0  0  0
   -7.5129   23.9582  -31.9603 H   0  0  0  0  0  0  0  0  0  0  0  0
   -7.9359   21.5597  -30.2061 H   0  0  0  0  0  0  0  0  0  0  0  0
  -10.1437   21.8765  -30.8105 H   0  0  0  0  0  0  0  0  0  0  0  0
   -9.7755   22.6584  -32.3390 H   0  0  0  0  0  0  0  0  0  0  0  0
  -10.0155   19.7397  -31.7083 H   0  0  0  0  0  0  0  0  0  0  0  0
  -10.0340   20.5125  -33.3087 H   0  0  0  0  0  0  0  0  0  0  0  0
   -7.7513   19.2450  -31.8469 H   0  0  0  0  0  0  0  0  0  0  0  0
   -7.8565   19.6110  -33.5628 H   0  0  0  0  0  0  0  0  0  0  0  0
   -7.1310   21.8293  -33.2708 H   0  0  0  0  0  0  0  0  0  0  0  0
   -4.8720   17.9406  -31.3495 H   0  0  0  0  0  0  0  0  0  0  0  0
   -6.5687   18.2822  -31.8319 H   0  0  0  0  0  0  0  0  0  0  0  0
   -6.3694   15.8881  -34.5634 H   0  0  0  0  0  0  0  0  0  0  0  0
   -7.4111   17.1511  -33.7835 H   0  0  0  0  0  0  0  0  0  0  0  0
   -5.4781   17.4745  -35.9189 H   0  0  0  0  0  0  0  0  0  0  0  0
   -6.5494   18.7093  -35.1591 H   0  0  0  0  0  0  0  0  0  0  0  0
  1  2  2  0
  2  3  1  0
  3  4  1  0
  4  5  1  0
  5  6  1  0
  6  7  1  0
  7  8  2  0
  8  9  1  0
  9 10  2  0
 10 11  1  0
  5 12  1  0
 12 13  1  0
 13 14  1  0
 14 15  1  0
 15 16  1  0
 16 17  1  0
  2 18  1  0
 18 19  1  0
 19 20  1  0
 20 21  1  0
 21 22  1  0
 22 23  1  0
 17  3  1  0
 23 18  1  0
 11  7  1  0
 17 13  1  0
  3 24  1  1
  4 25  1  0
  4 26  1  0
  6 27  1  0
  6 28  1  0
  8 29  1  0
  9 30  1  0
 10 31  1  0
 12 32  1  0
 12 33  1  0
 13 34  1  1
 14 35  1  0
 14 36  1  0
 15 37  1  0
 15 38  1  0
 16 39  1  0
 16 40  1  0
 17 41  1  6
 19 42  1  0
 19 43  1  0
 21 44  1  0
 21 45  1  0
 22 46  1  0
 22 47  1  0
M  END
>  <UniqueID>  (11) 
10

>  <SMILES>  (11) 
O=C([C@H]1CN(Cc2ccco2)C[C@H]2CCCC21)N1COCCO1

>  <Energy>  (11) 
92.93370829065374

>  <Genealogy>  (11) 
O=C([C@H]1CN(Cc2ccco2)C[C@H]2CCCC21)N1COCCO1 (chirality)
O=C([C@H]1CN(Cc2ccco2)C[C@H]2CCCC21)N1COCCO1 (3D coordinates assigned)
O=C([C@H]1CN(Cc2ccco2)C[C@H]2CCCC21)N1COCCO1 (nonaromatic ring conformer: 92.93370829065374 kcal/mol)

>  <smiles>  (11) 
O=C(C1CN(Cc2ccco2)CC2CCCC21)N1COCCO1

>  <score_type>  (11) 
oracle

>  <origin>  (11) 
adg

>  <m_score__min__energy>  (11) 
-9.0399999999999991

>  <m_primary>  (11) 
energy

$$$$
11:0
     RDKit          3D

 52 54  0  0  0  0  0  0  0  0999 V2000
   -7.4215   23.8143  -29.9884 H   0  0  0  0  0  0  0  0  0  0  0  0
   -6.6710   23.6290  -30.7710 C   0  0  0  0  0  0  0  0  0  0  0  0
   -5.7740   24.5960  -31.0150 C   0  0  0  0  0  0  0  0  0  0  0  0
   -5.7796   25.0548  -32.0148 H   0  0  0  0  0  0  0  0  0  0  0  0
   -4.7550   25.1030  -30.0180 C   0  0  0  0  0  0  0  0  0  0  0  0
   -3.8811   25.4771  -30.5715 H   0  0  0  0  0  0  0  0  0  0  0  0
   -5.2416   25.8939  -29.4283 H   0  0  0  0  0  0  0  0  0  0  0  0
   -4.2990   24.0630  -29.0660 N   0  0  0  0  0  0  0  0  0  0  0  0
   -4.2730   24.4770  -27.6410 C   0  0  0  0  0  0  0  0  0  0  0  0
   -4.7361   25.4712  -27.5562 H   0  0  0  0  0  0  0  0  0  0  0  0
   -4.8242   23.7174  -27.0672 H   0  0  0  0  0  0  0  0  0  0  0  0
   -2.8510   24.5480  -27.0630 C   0  0  0  0  0  0  0  0  0  0  0  0
   -2.8329   25.2490  -26.2155 H   0  0  0  0  0  0  0  0  0  0  0  0
   -2.5427   23.5507  -26.7162 H   0  0  0  0  0  0  0  0  0  0  0  0
   -1.9280   25.0150  -28.1070 N   0  0  0  0  0  0  0  0  0  0  0  0
   -0.6320   25.4960  -27.5810 C   0  0  0  0  0  0  0  0  0  0  0  0
    0.1669   24.8577  -27.9864 H   0  0  0  0  0  0  0  0  0  0  0  0
   -0.5256   26.5456  -27.8926 H   0  0  0  0  0  0  0  0  0  0  0  0
   -0.5470   25.4690  -26.0740 C   0  0  0  0  0  0  0  0  0  0  0  0
   -0.2630   24.3570  -25.3650 N   0  0  0  0  0  0  0  0  0  0  0  0
   -0.2990   24.7150  -24.0910 N   0  0  0  0  0  0  0  0  0  0  0  0
   -0.1300   24.0710  -23.2870 H   0  0  0  0  0  0  0  0  0  0  0  0
   -0.6090   26.0210  -24.0250 C   0  0  0  0  0  0  0  0  0  0  0  0
   -0.7237   26.5930  -23.0924 H   0  0  0  0  0  0  0  0  0  0  0  0
   -0.7590   26.5290  -25.2600 N   0  0  0  0  0  0  0  0  0  0  0  0
   -1.2040   27.8750  -25.6070 C   0  0  0  0  0  0  0  0  0  0  0  0
   -1.3932   28.4473  -24.6868 H   0  0  0  0  0  0  0  0  0  0  0  0
   -0.4243   28.3780  -26.1979 H   0  0  0  0  0  0  0  0  0  0  0  0
   -2.1298   27.8142  -26.1979 H   0  0  0  0  0  0  0  0  0  0  0  0
   -1.7840   24.0300  -29.1980 C   0  0  0  0  0  0  0  0  0  0  0  0
   -1.4460   24.5528  -30.1049 H   0  0  0  0  0  0  0  0  0  0  0  0
   -1.0530   23.2738  -28.8758 H   0  0  0  0  0  0  0  0  0  0  0  0
   -3.1120   23.3040  -29.5080 C   0  0  0  0  0  0  0  0  0  0  0  0
   -3.1806   23.1467  -30.5945 H   0  0  0  0  0  0  0  0  0  0  0  0
   -3.1045   22.3525  -28.9561 H   0  0  0  0  0  0  0  0  0  0  0  0
   -6.7230   22.3350  -31.4770 C   0  0  0  0  0  0  0  0  0  0  0  0
   -5.5350   21.7560  -31.9410 C   0  0  0  0  0  0  0  0  0  0  0  0
   -4.5788   22.2817  -31.8016 H   0  0  0  0  0  0  0  0  0  0  0  0
   -5.5590   20.5120  -32.5810 C   0  0  0  0  0  0  0  0  0  0  0  0
   -4.6227   20.0674  -32.9493 H   0  0  0  0  0  0  0  0  0  0  0  0
   -6.7730   19.8290  -32.7550 C   0  0  0  0  0  0  0  0  0  0  0  0
   -6.7960   18.4770  -33.4160 C   0  0  0  0  0  0  0  0  0  0  0  0
   -7.8013   18.2908  -33.8219 H   0  0  0  0  0  0  0  0  0  0  0  0
   -6.5386   17.7134  -32.6673 H   0  0  0  0  0  0  0  0  0  0  0  0
   -5.7790   18.4130  -34.5500 C   0  0  0  0  0  0  0  0  0  0  0  0
   -4.7645   18.3492  -34.1295 H   0  0  0  0  0  0  0  0  0  0  0  0
   -5.9758   17.5255  -35.1693 H   0  0  0  0  0  0  0  0  0  0  0  0
   -5.8629   19.3182  -35.1693 H   0  0  0  0  0  0  0  0  0  0  0  0
   -7.9570   20.3920  -32.2510 C   0  0  0  0  0  0  0  0  0  0  0  0
   -8.9093   19.8523  -32.3600 H   0  0  0  0  0  0  0  0  0  0  0  0
   -7.9310   21.6340  -31.6120 C   0  0  0  0  0  0  0  0  0  0  0  0
   -8.8614   22.0642  -31.2130 H   0  0  0  0  0  0  0  0  0  0  0  0
  1  2  1  0
  2  3  2  0
  3  4  1  0
  3  5  1  0
  5  6  1  0
  5  7  1  0
  5  8  1  0
  8  9  1  0
  9 10  1  0
  9 11  1  0
  9 12  1  0
 12 13  1  0
 12 14  1  0
 12 15  1  0
 15 16  1  0
 16 17  1  0
 16 18  1  0
 16 19  1  0
 19 20  2  0
 20 21  1  0
 21 22  1  0
 21 23  2  0
 23 24  1  0
 23 25  1  0
 25 26  1  0
 26 27  1  0
 26 28  1  0
 26 29  1  0
 15 30  1  0
 30 31  1  0
 30 32  1  0
 30 33  1  0
 33 34  1  0
 33 35  1  0
  2 36  1  0
 36 37  2  0
 37 38  1  0
 37 39  1  0
 39 40  1  0
 39 41  2  0
 41 42  1  0
 42 43  1  0
 42 44  1  0
 42 45  1  0
 45 46  1  0
 45 47  1  0
 45 48  1  0
 41 49  1  0
 49 50  1  0
 49 51  2  0
 51 52  1  0
 33  8  1  0
 51 36  1  0
 25 19  1  0
M  CHG  1  21   1
M  END
>  <UniqueID>  (12) 
11

>  <SMILES>  (12) 
CCc1ccc(/C=C\CN2CCN(Cc3n[nH+]cn3C)CC2)cc1

>  <Energy>  (12) 
106.09449996801284

>  <Genealogy>  (12) 
CCc1ccc(C=CCN2CCN(Cc3n[nH+]cn3C)CC2)cc1 (protonated)
CCc1ccc(/C=C\CN2CCN(Cc3n[nH+]cn3C)CC2)cc1 (cis-trans isomerization)
CCc1ccc(/C=C\CN2CCN(Cc3n[nH+]cn3C)CC2)cc1 (3D coordinates assigned)
CCc1ccc(/C=C\CN2CCN(Cc3n[nH+]cn3C)CC2)cc1 (nonaromatic ring conformer: 106.09449996801284 kcal/mol)

>  <smiles>  (12) 
CCc1ccc(C=CCN2CCN(Cc3nncn3C)CC2)cc1

>  <score_type>  (12) 
oracle

>  <origin>  (12) 
adg

>  <m_score__min__energy>  (12) 
-8.5

>  <m_primary>  (12) 
energy

$$$$
12:0
     RDKit          3D

 35 37  0  0  0  0  0  0  0  0999 V2000
   -7.0920   20.4780  -32.6480 C   0  0  0  0  0  0  0  0  0  0  0  0
   -5.6440   19.9890  -32.5260 C   0  0  0  0  0  0  0  0  0  0  0  0
   -4.8440   20.7980  -31.5750 N   0  0  2  0  0  0  0  0  0  0  0  0
   -4.9500   22.2470  -31.8750 C   0  0  0  0  0  0  0  0  0  0  0  0
   -4.0730   23.0720  -30.9630 C   0  0  0  0  0  0  0  0  0  0  0  0
   -2.9270   22.4970  -30.3990 C   0  0  0  0  0  0  0  0  0  0  0  0
   -2.1200   23.2450  -29.5980 N   0  0  0  0  0  0  0  0  0  0  0  0
   -2.3940   24.5500  -29.3490 C   0  0  0  0  0  0  0  0  0  0  0  0
   -1.4040   25.4200  -28.3870 S   0  0  0  0  0  0  0  0  0  0  0  0
   -3.4860   25.1350  -29.9070 N   0  0  0  0  0  0  0  0  0  0  0  0
   -4.3250   24.4300  -30.7100 C   0  0  0  0  0  0  0  0  0  0  0  0
   -5.3210   25.0060  -31.2220 O   0  0  0  0  0  0  0  0  0  0  0  0
   -2.6210   21.1190  -30.6630 N   0  0  0  0  0  0  0  0  0  0  0  0
   -1.4240   20.5280  -30.1370 C   0  0  0  0  0  0  0  0  0  0  0  0
   -1.3590   20.1580  -28.7820 C   0  0  0  0  0  0  0  0  0  0  0  0
   -2.7280   20.4180  -27.7110 Cl  0  0  0  0  0  0  0  0  0  0  0  0
   -0.1910   19.5840  -28.2690 C   0  0  0  0  0  0  0  0  0  0  0  0
    0.9130   19.3750  -29.1000 C   0  0  0  0  0  0  0  0  0  0  0  0
    0.8550   19.7400  -30.4470 C   0  0  0  0  0  0  0  0  0  0  0  0
   -0.3080   20.3150  -30.9710 C   0  0  0  0  0  0  0  0  0  0  0  0
   -0.3510   20.7600  -32.6710 Cl  0  0  0  0  0  0  0  0  0  0  0  0
   -3.4290   20.3660  -31.6270 C   0  0  0  0  0  0  0  0  0  0  0  0
   -7.5165   20.6213  -31.6434 H   0  0  0  0  0  0  0  0  0  0  0  0
   -7.1118   21.4327  -33.1941 H   0  0  0  0  0  0  0  0  0  0  0  0
   -7.6866   19.7308  -33.1941 H   0  0  0  0  0  0  0  0  0  0  0  0
   -5.6533   18.9453  -32.1788 H   0  0  0  0  0  0  0  0  0  0  0  0
   -5.1769   20.0843  -33.5174 H   0  0  0  0  0  0  0  0  0  0  0  0
   -5.1990   20.6240  -30.6020 H   0  0  0  0  0  0  0  0  0  0  0  0
   -4.6420   22.4188  -32.9169 H   0  0  0  0  0  0  0  0  0  0  0  0
   -5.9943   22.5544  -31.7168 H   0  0  0  0  0  0  0  0  0  0  0  0
   -0.1414   19.2963  -27.2084 H   0  0  0  0  0  0  0  0  0  0  0  0
    1.8291   18.9223  -28.6927 H   0  0  0  0  0  0  0  0  0  0  0  0
    1.7263   19.5749  -31.0978 H   0  0  0  0  0  0  0  0  0  0  0  0
   -3.0360   20.5382  -32.6399 H   0  0  0  0  0  0  0  0  0  0  0  0
   -3.3763   19.2969  -31.3735 H   0  0  0  0  0  0  0  0  0  0  0  0
  1  2  1  0
  2  3  1  0
  3  4  1  0
  4  5  1  0
  5  6  2  0
  6  7  1  0
  7  8  1  0
  8  9  2  0
  8 10  1  0
 10 11  1  0
 11 12  2  0
  6 13  1  0
 13 14  1  0
 14 15  2  0
 15 16  1  0
 15 17  1  0
 17 18  2  0
 18 19  1  0
 19 20  2  0
 20 21  1  0
 13 22  1  0
 22  3  1  0
 11  5  1  0
 20 14  1  0
  1 23  1  0
  1 24  1  0
  1 25  1  0
  2 26  1  0
  2 27  1  0
  3 28  1  1
  4 29  1  0
  4 30  1  0
 17 31  1  0
 18 32  1  0
 19 33  1  0
 22 34  1  0
 22 35  1  0
M  CHG  3   3   1   7  -1  10  -1
M  END
>  <UniqueID>  (13) 
12

>  <SMILES>  (13) 
CC[N@@H+]1Cc2c([n-]c(=S)[n-]c2=O)N(c2c(Cl)cccc2Cl)C1

>  <Energy>  (13) 
48.24867349306545

>  <Genealogy>  (13) 
CC[NH+]1Cc2c([n-]c(=S)[n-]c2=O)N(c2c(Cl)cccc2Cl)C1 (protonated)
CC[N@@H+]1Cc2c([n-]c(=S)[n-]c2=O)N(c2c(Cl)cccc2Cl)C1 (chirality)
CC[N@@H+]1Cc2c([n-]c(=S)[n-]c2=O)N(c2c(Cl)cccc2Cl)C1 (3D coordinates assigned)
CC[N@@H+]1Cc2c([n-]c(=S)[n-]c2=O)N(c2c(Cl)cccc2Cl)C1 (nonaromatic ring conformer: 48.24867349306545 kcal/mol)

>  <smiles>  (13) 
CCN1Cc2c([nH]c(=S)[nH]c2=O)N(c2c(Cl)cccc2Cl)C1

>  <score_type>  (13) 
oracle

>  <origin>  (13) 
adg

>  <m_score__min__energy>  (13) 
-7.7599999999999998

>  <m_primary>  (13) 
energy

$$$$
13:0
     RDKit          3D

 19 20  0  0  0  0  0  0  0  0999 V2000
   -2.0451   24.8289  -27.3078 H   0  0  0  0  0  0  0  0  0  0  0  0
   -2.6910   24.6270  -28.1750 C   0  0  0  0  0  0  0  0  0  0  0  0
   -2.5150   25.1010  -29.3900 O   0  0  0  0  0  0  0  0  0  0  0  0
   -3.4470   24.6810  -30.1930 N   0  0  0  0  0  0  0  0  0  0  0  0
   -3.4950   24.9380  -31.2000 H   0  0  0  0  0  0  0  0  0  0  0  0
   -4.2710   23.8930  -29.4700 C   0  0  0  0  0  0  0  0  0  0  0  0
   -5.3320   23.2750  -29.9050 N   0  0  0  0  0  0  0  0  0  0  0  0
   -5.9000   23.2850  -31.2240 C   0  0  0  0  0  0  0  0  0  0  0  0
   -5.4140   23.9890  -32.1480 O   0  0  0  0  0  0  0  0  0  0  0  0
   -7.0760   22.4500  -31.4950 C   0  0  0  0  0  0  0  0  0  0  0  0
   -7.0410   21.1390  -31.5730 O   0  0  0  0  0  0  0  0  0  0  0  0
   -8.2550   20.7080  -31.8240 C   0  0  0  0  0  0  0  0  0  0  0  0
   -8.7190   18.8710  -32.0270 Br  0  0  0  0  0  0  0  0  0  0  0  0
   -9.1270   21.7720  -31.9170 C   0  0  0  0  0  0  0  0  0  0  0  0
  -10.2073   21.7284  -32.1194 H   0  0  0  0  0  0  0  0  0  0  0  0
   -8.3660   22.9020  -31.7040 C   0  0  0  0  0  0  0  0  0  0  0  0
   -8.7129   23.9458  -31.7010 H   0  0  0  0  0  0  0  0  0  0  0  0
   -3.8230   23.8330  -28.1700 C   0  0  0  0  0  0  0  0  0  0  0  0
   -4.2625   23.2825  -27.3251 H   0  0  0  0  0  0  0  0  0  0  0  0
  1  2  1  0
  2  3  1  0
  3  4  1  0
  4  5  1  0
  4  6  1  0
  6  7  2  0
  7  8  1  0
  8  9  2  0
  8 10  1  0
 10 11  1  0
 11 12  1  0
 12 13  1  0
 12 14  2  0
 14 15  1  0
 14 16  1  0
 16 17  1  0
  6 18  1  0
 18 19  1  0
 18  2  2  0
 16 10  2  0
M  END
>  <UniqueID>  (14) 
13

>  <SMILES>  (14) 
O=C(/N=c1/cco[nH]1)c1ccc(Br)o1

>  <Energy>  (14) 
80.31996346792424

>  <Genealogy>  (14) 
O=C(/N=c1/cco[nH]1)c1ccc(Br)o1 (cis-trans isomerization)
O=C(/N=c1/cco[nH]1)c1ccc(Br)o1 (3D coordinates assigned)
O=C(/N=c1/cco[nH]1)c1ccc(Br)o1 (optimized conformer: 80.31996346792424 kcal/mol)

>  <smiles>  (14) 
O=C(N=c1cco[nH]1)c1ccc(Br)o1

>  <score_type>  (14) 
oracle

>  <origin>  (14) 
adg

>  <m_score__min__energy>  (14) 
-6.5599999999999996

>  <m_primary>  (14) 
energy

$$$$
14:0
     RDKit          3D

 29 31  0  0  0  0  0  0  0  0999 V2000
   -1.6140   25.0020  -28.1650 C   0  0  0  0  0  0  0  0  0  0  0  0
   -2.3350   25.2920  -29.3580 O   0  0  0  0  0  0  0  0  0  0  0  0
   -3.4430   24.5610  -29.8100 C   0  0  0  0  0  0  0  0  0  0  0  0
   -4.6760   25.1680  -30.1140 C   0  0  0  0  0  0  0  0  0  0  0  0
   -5.7520   24.3960  -30.5620 C   0  0  0  0  0  0  0  0  0  0  0  0
   -5.6190   23.0040  -30.7160 C   0  0  0  0  0  0  0  0  0  0  0  0
   -6.7610   22.1850  -31.1910 C   0  0  0  0  0  0  0  0  0  0  0  0
   -7.9870   22.7880  -31.5760 C   0  0  0  0  0  0  0  0  0  0  0  0
   -9.0330   22.0270  -32.0110 N   0  0  0  0  0  0  0  0  0  0  0  0
   -8.8890   20.6800  -32.0710 C   0  0  0  0  0  0  0  0  0  0  0  0
   -9.8370   19.8130  -32.4780 N   0  0  0  0  0  0  0  0  0  0  0  0
   -9.2210   18.6110  -32.3580 C   0  0  0  0  0  0  0  0  0  0  0  0
   -7.9290   18.7770  -31.8850 C   0  0  0  0  0  0  0  0  0  0  0  0
   -7.7420   20.0920  -31.7140 N   0  0  0  0  0  0  0  0  0  0  0  0
   -6.6630   20.7820  -31.2740 C   0  0  0  0  0  0  0  0  0  0  0  0
   -4.3850   22.4030  -30.4100 C   0  0  0  0  0  0  0  0  0  0  0  0
   -3.3100   23.1770  -29.9620 C   0  0  0  0  0  0  0  0  0  0  0  0
   -2.2345   25.2516  -27.2917 H   0  0  0  0  0  0  0  0  0  0  0  0
   -1.3604   23.9319  -28.1408 H   0  0  0  0  0  0  0  0  0  0  0  0
   -0.6901   25.5984  -28.1408 H   0  0  0  0  0  0  0  0  0  0  0  0
   -4.7936   26.2556  -29.9985 H   0  0  0  0  0  0  0  0  0  0  0  0
   -6.7110   24.8813  -30.7961 H   0  0  0  0  0  0  0  0  0  0  0  0
   -8.0952   23.8814  -31.5231 H   0  0  0  0  0  0  0  0  0  0  0  0
   -9.9320   22.4770  -32.2960 H   0  0  0  0  0  0  0  0  0  0  0  0
   -9.6813   17.6420  -32.6014 H   0  0  0  0  0  0  0  0  0  0  0  0
   -7.1966   17.9804  -31.6876 H   0  0  0  0  0  0  0  0  0  0  0  0
   -5.7364   20.2619  -30.9895 H   0  0  0  0  0  0  0  0  0  0  0  0
   -4.2644   21.3156  -30.5239 H   0  0  0  0  0  0  0  0  0  0  0  0
   -2.3507   22.6928  -29.7269 H   0  0  0  0  0  0  0  0  0  0  0  0
  1  2  1  0
  2  3  1  0
  3  4  2  0
  4  5  1  0
  5  6  2  0
  6  7  1  0
  7  8  1  0
  8  9  2  0
  9 10  1  0
 10 11  2  0
 11 12  1  0
 12 13  2  0
 13 14  1  0
 14 15  1  0
  6 16  1  0
 16 17  2  0
 17  3  1  0
 15  7  2  0
 14 10  1  0
  1 18  1  0
  1 19  1  0
  1 20  1  0
  4 21  1  0
  5 22  1  0
  8 23  1  0
  9 24  1  0
 12 25  1  0
 13 26  1  0
 15 27  1  0
 16 28  1  0
 17 29  1  0
M  CHG  1   9   1
M  END
>  <UniqueID>  (15) 
14

>  <SMILES>  (15) 
COc1ccc(-c2c[nH+]c3nccn3c2)cc1

>  <Energy>  (15) 
70.81674935248195

>  <Genealogy>  (15) 
COc1ccc(-c2c[nH+]c3nccn3c2)cc1 (protonated)
COc1ccc(-c2c[nH+]c3nccn3c2)cc1 (3D coordinates assigned)
COc1ccc(-c2c[nH+]c3nccn3c2)cc1 (optimized conformer: 70.81674935248195 kcal/mol)

>  <smiles>  (15) 
COc1ccc(-c2cnc3nccn3c2)cc1

>  <score_type>  (15) 
oracle

>  <origin>  (15) 
adg

>  <m_score__min__energy>  (15) 
-6.3399999999999999

>  <m_primary>  (15) 
energy

$$$$
15:0
     RDKit          3D

 57 60  0  0  0  0  0  0  0  0999 V2000
    1.3620   25.4590  -26.9960 C   0  0  0  0  0  0  0  0  0  0  0  0
    0.8690   24.9100  -28.2150 O   0  0  0  0  0  0  0  0  0  0  0  0
   -0.1880   23.9870  -28.2900 C   0  0  0  0  0  0  0  0  0  0  0  0
    0.0420   22.6720  -27.8620 C   0  0  0  0  0  0  0  0  0  0  0  0
   -0.9780   21.7180  -27.9210 C   0  0  0  0  0  0  0  0  0  0  0  0
   -2.2370   22.0700  -28.4090 C   0  0  0  0  0  0  0  0  0  0  0  0
   -2.4880   23.3810  -28.8410 C   0  0  0  0  0  0  0  0  0  0  0  0
   -3.7890   23.7440  -29.3310 N   0  0  0  0  0  0  0  0  0  0  0  0
   -4.9980   23.2500  -28.6640 C   0  0  0  0  0  0  0  0  0  0  0  0
   -5.9490   22.6590  -29.7080 C   0  0  0  0  0  0  0  0  0  0  0  0
   -6.0290   23.5050  -30.9130 N   0  0  0  0  0  0  0  0  0  0  0  0
   -6.8950   23.1230  -32.0010 C   0  0  0  0  0  0  0  0  0  0  0  0
   -7.4100   24.0080  -32.7380 O   0  0  0  0  0  0  0  0  0  0  0  0
   -7.2110   21.7070  -32.2740 C   0  0  0  0  0  0  0  0  0  0  0  0
   -8.5180   21.2480  -32.0330 C   0  0  0  0  0  0  0  0  0  0  0  0
   -8.8430   19.9020  -32.2260 C   0  0  0  0  0  0  0  0  0  0  0  0
   -7.8710   19.0070  -32.6710 C   0  0  0  0  0  0  0  0  0  0  0  0
   -6.5690   19.4480  -32.9140 C   0  0  0  0  0  0  0  0  0  0  0  0
   -6.2270   20.7960  -32.7310 C   0  0  0  0  0  0  0  0  0  0  0  0
   -4.8870   21.2110  -33.0310 N   0  0  0  0  0  0  0  0  0  0  0  0
   -3.9030   21.4300  -31.9670 C   0  0  0  0  0  0  0  0  0  0  0  0
   -2.5100   21.1820  -32.4830 C   0  0  0  0  0  0  0  0  0  0  0  0
   -1.4090   21.3570  -31.6290 C   0  0  0  0  0  0  0  0  0  0  0  0
   -0.1100   21.1770  -32.1100 C   0  0  0  0  0  0  0  0  0  0  0  0
    0.1000   20.8120  -33.4440 C   0  0  0  0  0  0  0  0  0  0  0  0
   -0.9920   20.6180  -34.2950 C   0  0  0  0  0  0  0  0  0  0  0  0
   -2.2930   20.8000  -33.8180 C   0  0  0  0  0  0  0  0  0  0  0  0
   -5.3630   24.8160  -30.9270 C   0  0  0  0  0  0  0  0  0  0  0  0
   -3.9070   24.6720  -30.4660 C   0  0  0  0  0  0  0  0  0  0  0  0
   -1.4640   24.3390  -28.7770 C   0  0  0  0  0  0  0  0  0  0  0  0
    0.8961   24.9401  -26.1453 H   0  0  0  0  0  0  0  0  0  0  0  0
    2.4535   25.3302  -26.9508 H   0  0  0  0  0  0  0  0  0  0  0  0
    1.1170   26.5304  -26.9508 H   0  0  0  0  0  0  0  0  0  0  0  0
    1.0327   22.3888  -27.4768 H   0  0  0  0  0  0  0  0  0  0  0  0
   -0.7880   20.6888  -27.5824 H   0  0  0  0  0  0  0  0  0  0  0  0
   -3.0365   21.3160  -28.4552 H   0  0  0  0  0  0  0  0  0  0  0  0
   -4.7237   22.4727  -27.9356 H   0  0  0  0  0  0  0  0  0  0  0  0
   -5.4955   24.0809  -28.1423 H   0  0  0  0  0  0  0  0  0  0  0  0
   -5.5865   21.6612  -29.9962 H   0  0  0  0  0  0  0  0  0  0  0  0
   -6.9532   22.5999  -29.2629 H   0  0  0  0  0  0  0  0  0  0  0  0
   -9.2900   21.9527  -31.6903 H   0  0  0  0  0  0  0  0  0  0  0  0
   -9.8656   19.5491  -32.0268 H   0  0  0  0  0  0  0  0  0  0  0  0
   -8.1309   17.9502  -32.8311 H   0  0  0  0  0  0  0  0  0  0  0  0
   -5.8049   18.7324  -33.2518 H   0  0  0  0  0  0  0  0  0  0  0  0
   -4.7210   21.6420  -33.9690 H   0  0  0  0  0  0  0  0  0  0  0  0
   -3.9785   22.4681  -31.6112 H   0  0  0  0  0  0  0  0  0  0  0  0
   -4.1079   20.7324  -31.1415 H   0  0  0  0  0  0  0  0  0  0  0  0
   -1.5701   21.6368  -30.5775 H   0  0  0  0  0  0  0  0  0  0  0  0
    0.7492   21.3225  -31.4387 H   0  0  0  0  0  0  0  0  0  0  0  0
    1.1238   20.6777  -33.8232 H   0  0  0  0  0  0  0  0  0  0  0  0
   -0.8271   20.3217  -35.3414 H   0  0  0  0  0  0  0  0  0  0  0  0
   -3.1500   20.6437  -34.4897 H   0  0  0  0  0  0  0  0  0  0  0  0
   -5.3827   25.2233  -31.9486 H   0  0  0  0  0  0  0  0  0  0  0  0
   -5.8919   25.4960  -30.2430 H   0  0  0  0  0  0  0  0  0  0  0  0
   -3.3033   24.2912  -31.3030 H   0  0  0  0  0  0  0  0  0  0  0  0
   -3.5488   25.6602  -30.1418 H   0  0  0  0  0  0  0  0  0  0  0  0
   -1.6578   25.3698  -29.1085 H   0  0  0  0  0  0  0  0  0  0  0  0
  1  2  1  0
  2  3  1  0
  3  4  2  0
  4  5  1  0
  5  6  2  0
  6  7  1  0
  7  8  1  0
  8  9  1  0
  9 10  1  0
 10 11  1  0
 11 12  1  0
 12 13  2  0
 12 14  1  0
 14 15  2  0
 15 16  1  0
 16 17  2  0
 17 18  1  0
 18 19  2  0
 19 20  1  0
 20 21  1  0
 21 22  1  0
 22 23  2  0
 23 24  1  0
 24 25  2  0
 25 26  1  0
 26 27  2  0
 11 28  1  0
 28 29  1  0
  7 30  2  0
 30  3  1  0
 29  8  1  0
 19 14  1  0
 27 22  1  0
  1 31  1  0
  1 32  1  0
  1 33  1  0
  4 34  1  0
  5 35  1  0
  6 36  1  0
  9 37  1  0
  9 38  1  0
 10 39  1  0
 10 40  1  0
 15 41  1  0
 16 42  1  0
 17 43  1  0
 18 44  1  0
 20 45  1  0
 21 46  1  0
 21 47  1  0
 23 48  1  0
 24 49  1  0
 25 50  1  0
 26 51  1  0
 27 52  1  0
 28 53  1  0
 28 54  1  0
 29 55  1  0
 29 56  1  0
 30 57  1  0
M  END
>  <UniqueID>  (16) 
15

>  <SMILES>  (16) 
COc1cccc(N2CCN(C(=O)c3ccccc3NCc3ccccc3)CC2)c1

>  <Energy>  (16) 
72.45412645568788

>  <Genealogy>  (16) 
COc1cccc(N2CCN(C(=O)c3ccccc3NCc3ccccc3)CC2)c1 (3D coordinates assigned)
COc1cccc(N2CCN(C(=O)c3ccccc3NCc3ccccc3)CC2)c1 (nonaromatic ring conformer: 72.45412645568788 kcal/mol)

>  <smiles>  (16) 
COc1cccc(N2CCN(C(=O)c3ccccc3NCc3ccccc3)CC2)c1

>  <score_type>  (16) 
oracle

>  <origin>  (16) 
adg

>  <m_score__min__energy>  (16) 
-9.4800000000000004

>  <m_primary>  (16) 
energy

$$$$
16:0
     RDKit          3D

 37 38  0  0  0  0  0  0  0  0999 V2000
   -0.8310   26.9320  -27.9270 C   0  0  0  0  0  0  0  0  0  0  0  0
   -1.4310   26.0580  -28.8770 O   0  0  0  0  0  0  0  0  0  0  0  0
   -1.8630   24.7520  -28.5990 C   0  0  0  0  0  0  0  0  0  0  0  0
   -1.2850   23.9860  -27.5660 C   0  0  0  0  0  0  0  0  0  0  0  0
   -1.7780   22.7130  -27.2690 C   0  0  0  0  0  0  0  0  0  0  0  0
   -2.8550   22.1930  -27.9880 C   0  0  0  0  0  0  0  0  0  0  0  0
   -3.4300   22.9380  -29.0190 C   0  0  0  0  0  0  0  0  0  0  0  0
   -2.9230   24.2010  -29.3510 C   0  0  0  0  0  0  0  0  0  0  0  0
   -3.5510   24.9260  -30.4170 N   0  0  0  0  0  0  0  0  0  0  0  0
   -4.9630   25.1000  -30.5800 C   0  0  0  0  0  0  0  0  0  0  0  0
   -5.4430   26.2390  -30.8280 O   0  0  0  0  0  0  0  0  0  0  0  0
   -5.8730   23.9030  -30.5270 C   0  0  0  0  0  0  0  0  0  0  0  0
   -5.7240   23.0010  -31.6910 N   0  0  0  0  0  0  0  0  0  0  0  0
   -4.9520   21.7910  -31.3510 C   0  0  0  0  0  0  0  0  0  0  0  0
   -7.0240   22.6650  -32.3090 C   0  0  0  0  0  0  0  0  0  0  0  0
   -7.1840   21.1800  -32.4070 C   0  0  0  0  0  0  0  0  0  0  0  0
   -6.4880   20.3390  -33.2650 C   0  0  0  0  0  0  0  0  0  0  0  0
   -6.8920   19.0020  -33.1650 C   0  0  0  0  0  0  0  0  0  0  0  0
   -6.1280   17.6040  -34.2130 Br  0  0  0  0  0  0  0  0  0  0  0  0
   -7.9070   18.7880  -32.2410 C   0  0  0  0  0  0  0  0  0  0  0  0
   -8.3050   20.2680  -31.5470 S   0  0  0  0  0  0  0  0  0  0  0  0
   -1.0682   26.5865  -26.9099 H   0  0  0  0  0  0  0  0  0  0  0  0
    0.2599   26.9341  -28.0685 H   0  0  0  0  0  0  0  0  0  0  0  0
   -1.2210   27.9507  -28.0685 H   0  0  0  0  0  0  0  0  0  0  0  0
   -0.4407   24.3932  -26.9904 H   0  0  0  0  0  0  0  0  0  0  0  0
   -1.3161   22.1192  -26.4665 H   0  0  0  0  0  0  0  0  0  0  0  0
   -3.2507   21.1964  -27.7424 H   0  0  0  0  0  0  0  0  0  0  0  0
   -4.2873   22.5304  -29.5747 H   0  0  0  0  0  0  0  0  0  0  0  0
   -5.6477   23.3336  -29.6132 H   0  0  0  0  0  0  0  0  0  0  0  0
   -6.9066   24.2794  -30.5373 H   0  0  0  0  0  0  0  0  0  0  0  0
   -4.8887   21.6917  -30.2573 H   0  0  0  0  0  0  0  0  0  0  0  0
   -5.4530   20.9064  -31.7711 H   0  0  0  0  0  0  0  0  0  0  0  0
   -3.9386   21.8725  -31.7711 H   0  0  0  0  0  0  0  0  0  0  0  0
   -7.8363   23.0776  -31.6926 H   0  0  0  0  0  0  0  0  0  0  0  0
   -7.0618   23.0966  -33.3201 H   0  0  0  0  0  0  0  0  0  0  0  0
   -5.7017   20.6866  -33.9513 H   0  0  0  0  0  0  0  0  0  0  0  0
   -8.3702   17.8188  -32.0041 H   0  0  0  0  0  0  0  0  0  0  0  0
  1  2  1  0
  2  3  1  0
  3  4  2  0
  4  5  1  0
  5  6  2  0
  6  7  1  0
  7  8  2  0
  8  9  1  0
  9 10  1  0
 10 11  2  0
 10 12  1  0
 12 13  1  0
 13 14  1  0
 13 15  1  0
 15 16  1  0
 16 17  2  0
 17 18  1  0
 18 19  1  0
 18 20  2  0
 20 21  1  0
  8  3  1  0
 21 16  1  0
  1 22  1  0
  1 23  1  0
  1 24  1  0
  4 25  1  0
  5 26  1  0
  6 27  1  0
  7 28  1  0
 12 29  1  0
 12 30  1  0
 14 31  1  0
 14 32  1  0
 14 33  1  0
 15 34  1  0
 15 35  1  0
 17 36  1  0
 20 37  1  0
M  CHG  1   9  -1
M  END
>  <UniqueID>  (17) 
16

>  <SMILES>  (17) 
COc1ccccc1[N-]C(=O)CN(C)Cc1cc(Br)cs1

>  <Energy>  (17) 
68.38898385383278

>  <Genealogy>  (17) 
COc1ccccc1[N-]C(=O)CN(C)Cc1cc(Br)cs1 (protonated)
COc1ccccc1[N-]C(=O)CN(C)Cc1cc(Br)cs1 (3D coordinates assigned)
COc1ccccc1[N-]C(=O)CN(C)Cc1cc(Br)cs1 (optimized conformer: 68.38898385383278 kcal/mol)

>  <smiles>  (17) 
COc1ccccc1NC(=O)CN(C)Cc1cc(Br)cs1

>  <score_type>  (17) 
oracle

>  <origin>  (17) 
adg

>  <m_score__min__energy>  (17) 
-10.42

>  <m_primary>  (17) 
energy

$$$$
17:0
     RDKit          3D

 44 46  0  0  0  0  0  0  0  0999 V2000
   -4.2330   24.5140  -27.1080 C   0  0  0  0  0  0  0  0  0  0  0  0
   -3.9590   23.0600  -27.5260 C   0  0  0  0  0  0  0  0  0  0  0  0
   -2.7680   22.8860  -28.3920 N   0  0  0  0  0  0  0  0  0  0  0  0
   -2.9060   21.7680  -29.3480 C   0  0  0  0  0  0  0  0  0  0  0  0
   -1.8830   21.9110  -30.4790 C   0  0  0  0  0  0  0  0  0  0  0  0
   -2.7090   21.9560  -32.1070 S   0  0  0  0  0  0  0  0  0  0  0  0
   -4.0970   22.9420  -31.5370 C   0  0  0  0  0  0  0  0  0  0  0  0
   -3.9560   24.1460  -30.9340 N   0  0  0  0  0  0  0  0  0  0  0  0
   -5.2200   24.5440  -30.6580 C   0  0  0  0  0  0  0  0  0  0  0  0
   -6.0930   23.5770  -31.1010 C   0  0  0  0  0  0  0  0  0  0  0  0
   -7.4830   23.5330  -31.0360 C   0  0  0  0  0  0  0  0  0  0  0  0
   -8.1200   22.4000  -31.5700 C   0  0  0  0  0  0  0  0  0  0  0  0
   -7.3600   21.3600  -32.1440 C   0  0  0  0  0  0  0  0  0  0  0  0
   -5.9600   21.4640  -32.1780 C   0  0  0  0  0  0  0  0  0  0  0  0
   -5.3900   22.5790  -31.6520 N   0  0  0  0  0  0  0  0  0  0  0  0
   -1.4960   22.8430  -27.6360 C   0  0  0  0  0  0  0  0  0  0  0  0
   -1.0820   24.2420  -27.2360 C   0  0  0  0  0  0  0  0  0  0  0  0
   -0.4480   24.4060  -25.9910 C   0  0  0  0  0  0  0  0  0  0  0  0
   -0.0360   25.6680  -25.5610 C   0  0  0  0  0  0  0  0  0  0  0  0
   -0.2460   26.7850  -26.3690 C   0  0  0  0  0  0  0  0  0  0  0  0
   -0.8610   26.6400  -27.6120 C   0  0  0  0  0  0  0  0  0  0  0  0
   -1.2760   25.3800  -28.0640 C   0  0  0  0  0  0  0  0  0  0  0  0
   -1.8630   25.3110  -29.3300 O   0  0  0  0  0  0  0  0  0  0  0  0
   -4.2461   24.5837  -26.0103 H   0  0  0  0  0  0  0  0  0  0  0  0
   -3.4418   25.1656  -27.5073 H   0  0  0  0  0  0  0  0  0  0  0  0
   -5.2071   24.8330  -27.5073 H   0  0  0  0  0  0  0  0  0  0  0  0
   -3.8121   22.4618  -26.6146 H   0  0  0  0  0  0  0  0  0  0  0  0
   -4.8275   22.7342  -28.1172 H   0  0  0  0  0  0  0  0  0  0  0  0
   -2.7359   20.8169  -28.8221 H   0  0  0  0  0  0  0  0  0  0  0  0
   -3.9193   21.7841  -29.7759 H   0  0  0  0  0  0  0  0  0  0  0  0
   -1.3175   22.8437  -30.3367 H   0  0  0  0  0  0  0  0  0  0  0  0
   -1.2078   21.0430  -30.4525 H   0  0  0  0  0  0  0  0  0  0  0  0
   -5.5024   25.4843  -30.1620 H   0  0  0  0  0  0  0  0  0  0  0  0
   -8.0601   24.3532  -30.5842 H   0  0  0  0  0  0  0  0  0  0  0  0
   -9.2170   22.3239  -31.5401 H   0  0  0  0  0  0  0  0  0  0  0  0
   -7.8601   20.4739  -32.5620 H   0  0  0  0  0  0  0  0  0  0  0  0
   -5.3433   20.6662  -32.6176 H   0  0  0  0  0  0  0  0  0  0  0  0
   -1.6304   22.2308  -26.7320 H   0  0  0  0  0  0  0  0  0  0  0  0
   -0.7135   22.4038  -28.2722 H   0  0  0  0  0  0  0  0  0  0  0  0
   -0.2751   23.5296  -25.3492 H   0  0  0  0  0  0  0  0  0  0  0  0
    0.4551   25.7819  -24.5833 H   0  0  0  0  0  0  0  0  0  0  0  0
    0.0734   27.7801  -26.0259 H   0  0  0  0  0  0  0  0  0  0  0  0
   -1.0223   27.5249  -28.2452 H   0  0  0  0  0  0  0  0  0  0  0  0
   -2.1640   24.4540  -29.7700 H   0  0  0  0  0  0  0  0  0  0  0  0
  1  2  1  0
  2  3  1  0
  3  4  1  0
  4  5  1  0
  5  6  1  0
  6  7  1  0
  7  8  2  0
  8  9  1  0
  9 10  2  0
 10 11  1  0
 11 12  2  0
 12 13  1  0
 13 14  2  0
 14 15  1  0
  3 16  1  0
 16 17  1  0
 17 18  2  0
 18 19  1  0
 19 20  2  0
 20 21  1  0
 21 22  2  0
 22 23  1  0
 15  7  1  0
 22 17  1  0
 15 10  1  0
  1 24  1  0
  1 25  1  0
  1 26  1  0
  2 27  1  0
  2 28  1  0
  4 29  1  0
  4 30  1  0
  5 31  1  0
  5 32  1  0
  9 33  1  0
 11 34  1  0
 12 35  1  0
 13 36  1  0
 14 37  1  0
 16 38  1  0
 16 39  1  0
 18 40  1  0
 19 41  1  0
 20 42  1  0
 21 43  1  0
 23 44  1  0
M  END
>  <UniqueID>  (18) 
17

>  <SMILES>  (18) 
CCN(CCSc1ncc2ccccn12)Cc1ccccc1O

>  <Energy>  (18) 
82.12844079484063

>  <Genealogy>  (18) 
CCN(CCSc1ncc2ccccn12)Cc1ccccc1O (3D coordinates assigned)
CCN(CCSc1ncc2ccccn12)Cc1ccccc1O (optimized conformer: 82.12844079484063 kcal/mol)

>  <smiles>  (18) 
CCN(CCSc1ncc2ccccn12)Cc1ccccc1O

>  <score_type>  (18) 
oracle

>  <origin>  (18) 
adg

>  <m_score__min__energy>  (18) 
-9.0600000000000005

>  <m_primary>  (18) 
energy

$$$$
18:0
     RDKit          3D

 41 43  0  0  0  0  0  0  0  0999 V2000
   -9.1790   18.1750  -31.6480 C   0  0  0  0  0  0  0  0  0  0  0  0
   -9.1050   19.2770  -32.6990 C   0  0  0  0  0  0  0  0  0  0  0  0
   -8.3470   20.4690  -32.1720 C   0  0  0  0  0  0  0  0  0  0  0  0
   -9.0450   21.6360  -31.8400 C   0  0  0  0  0  0  0  0  0  0  0  0
   -8.3810   22.7480  -31.4290 N   0  0  0  0  0  0  0  0  0  0  0  0
   -7.0190   22.7570  -31.3420 C   0  0  0  0  0  0  0  0  0  0  0  0
   -6.3000   23.9270  -30.9140 N   0  0  0  0  0  0  0  0  0  0  0  0
   -6.7430   24.9260  -30.1220 C   0  0  0  0  0  0  0  0  0  0  0  0
   -5.7260   25.8430  -29.9660 C   0  0  0  0  0  0  0  0  0  0  0  0
   -4.6760   25.3330  -30.7010 C   0  0  0  0  0  0  0  0  0  0  0  0
   -5.0460   24.1690  -31.2660 N   0  0  0  0  0  0  0  0  0  0  0  0
   -6.3230   21.6380  -31.6720 N   0  0  0  0  0  0  0  0  0  0  0  0
   -6.9410   20.4990  -32.0840 C   0  0  0  0  0  0  0  0  0  0  0  0
   -6.1380   19.3520  -32.4100 N   0  0  0  0  0  0  0  0  0  0  0  0
   -6.0390   18.2700  -31.4130 C   0  0  0  0  0  0  0  0  0  0  0  0
   -6.1760   16.8520  -32.0180 C   0  0  0  0  0  0  0  0  0  0  0  0
   -5.4620   16.6370  -33.3640 C   0  0  0  0  0  0  0  0  0  0  0  0
   -6.0870   17.3760  -34.4730 N   0  0  0  0  0  0  0  0  0  0  0  0
   -5.4900   18.6910  -34.7600 C   0  0  0  0  0  0  0  0  0  0  0  0
   -5.1570   19.5110  -33.4990 C   0  0  0  0  0  0  0  0  0  0  0  0
   -9.1489   18.6233  -30.6439 H   0  0  0  0  0  0  0  0  0  0  0  0
  -10.1169   17.6135  -31.7709 H   0  0  0  0  0  0  0  0  0  0  0  0
   -8.3246   17.4931  -31.7709 H   0  0  0  0  0  0  0  0  0  0  0  0
   -8.5927   18.8898  -33.5921 H   0  0  0  0  0  0  0  0  0  0  0  0
  -10.1280   19.5930  -32.9514 H   0  0  0  0  0  0  0  0  0  0  0  0
  -10.1425   21.6531  -31.9126 H   0  0  0  0  0  0  0  0  0  0  0  0
   -8.9430   23.5930  -31.1910 H   0  0  0  0  0  0  0  0  0  0  0  0
   -7.7462   24.9964  -29.6763 H   0  0  0  0  0  0  0  0  0  0  0  0
   -5.7470   26.7760  -29.3837 H   0  0  0  0  0  0  0  0  0  0  0  0
   -3.6883   25.8051  -30.8087 H   0  0  0  0  0  0  0  0  0  0  0  0
   -5.0597   18.3430  -30.9174 H   0  0  0  0  0  0  0  0  0  0  0  0
   -6.8755   18.4022  -30.7110 H   0  0  0  0  0  0  0  0  0  0  0  0
   -5.7619   16.1333  -31.2955 H   0  0  0  0  0  0  0  0  0  0  0  0
   -7.2484   16.7099  -32.2176 H   0  0  0  0  0  0  0  0  0  0  0  0
   -4.4188   16.9713  -33.2644 H   0  0  0  0  0  0  0  0  0  0  0  0
   -5.5297   15.5657  -33.6041 H   0  0  0  0  0  0  0  0  0  0  0  0
   -7.0940   17.5210  -34.2280 H   0  0  0  0  0  0  0  0  0  0  0  0
   -4.5605   18.5337  -35.3269 H   0  0  0  0  0  0  0  0  0  0  0  0
   -6.2371   19.2651  -35.3276 H   0  0  0  0  0  0  0  0  0  0  0  0
   -4.1719   19.1919  -33.1278 H   0  0  0  0  0  0  0  0  0  0  0  0
   -5.1729   20.5710  -33.7925 H   0  0  0  0  0  0  0  0  0  0  0  0
  1  2  1  0
  2  3  1  0
  3  4  2  0
  4  5  1  0
  5  6  2  0
  6  7  1  0
  7  8  1  0
  8  9  2  0
  9 10  1  0
 10 11  2  0
  6 12  1  0
 12 13  2  0
 13 14  1  0
 14 15  1  0
 15 16  1  0
 16 17  1  0
 17 18  1  0
 18 19  1  0
 19 20  1  0
 13  3  1  0
 20 14  1  0
 11  7  1  0
  1 21  1  0
  1 22  1  0
  1 23  1  0
  2 24  1  0
  2 25  1  0
  4 26  1  0
  5 27  1  0
  8 28  1  0
  9 29  1  0
 10 30  1  0
 15 31  1  0
 15 32  1  0
 16 33  1  0
 16 34  1  0
 17 35  1  0
 17 36  1  0
 18 37  1  0
 19 38  1  0
 19 39  1  0
 20 40  1  0
 20 41  1  0
M  CHG  1   5   1
M  END
>  <UniqueID>  (19) 
18

>  <SMILES>  (19) 
CCc1c[nH+]c(-n2cccn2)nc1N1CCCNCC1

>  <Energy>  (19) 
84.58954822830954

>  <Genealogy>  (19) 
CCc1c[nH+]c(-n2cccn2)nc1N1CCCNCC1 (protonated)
CCc1c[nH+]c(-n2cccn2)nc1N1CCCNCC1 (3D coordinates assigned)
CCc1c[nH+]c(-n2cccn2)nc1N1CCCNCC1 (nonaromatic ring conformer: 84.58954822830954 kcal/mol)

>  <smiles>  (19) 
CCc1cnc(-n2cccn2)nc1N1CCCNCC1

>  <score_type>  (19) 
oracle

>  <origin>  (19) 
adg

>  <m_score__min__energy>  (19) 
-4.9299999999999997

>  <m_primary>  (19) 
energy

$$$$
19:0
     RDKit          3D

 24 24  0  0  0  0  0  0  0  0999 V2000
   -8.2560   23.9355  -31.2664 H   0  0  0  0  0  0  0  0  0  0  0  0
   -7.2380   23.5310  -31.3670 C   0  0  0  0  0  0  0  0  0  0  0  0
   -6.2360   23.9510  -30.4210 N   0  0  0  0  0  0  0  0  0  0  0  0
   -5.4170   22.9610  -29.7150 C   0  0  0  0  0  0  0  0  0  0  0  0
   -5.5305   23.0982  -28.6295 H   0  0  0  0  0  0  0  0  0  0  0  0
   -5.7450   21.9485  -29.9929 H   0  0  0  0  0  0  0  0  0  0  0  0
   -4.3610   23.0935  -29.9929 H   0  0  0  0  0  0  0  0  0  0  0  0
   -6.3470   25.2970  -29.8610 C   0  0  0  0  0  0  0  0  0  0  0  0
   -6.3422   25.2387  -28.7626 H   0  0  0  0  0  0  0  0  0  0  0  0
   -5.4961   25.9063  -30.1996 H   0  0  0  0  0  0  0  0  0  0  0  0
   -7.2863   25.7587  -30.1996 H   0  0  0  0  0  0  0  0  0  0  0  0
   -6.9950   22.6930  -32.3380 N   0  0  0  0  0  0  0  0  0  0  0  0
   -6.4870   23.0470  -33.1790 H   0  0  0  0  0  0  0  0  0  0  0  0
   -7.3700   21.3090  -32.3330 C   0  0  0  0  0  0  0  0  0  0  0  0
   -8.7070   20.9660  -32.0850 C   0  0  0  0  0  0  0  0  0  0  0  0
   -9.4479   21.7562  -31.8933 H   0  0  0  0  0  0  0  0  0  0  0  0
   -9.1030   19.6270  -32.0800 C   0  0  0  0  0  0  0  0  0  0  0  0
  -10.1506   19.3644  -31.8713 H   0  0  0  0  0  0  0  0  0  0  0  0
   -8.1690   18.6200  -32.3400 C   0  0  0  0  0  0  0  0  0  0  0  0
   -8.4800   17.5650  -32.3272 H   0  0  0  0  0  0  0  0  0  0  0  0
   -6.8410   18.9530  -32.6160 C   0  0  0  0  0  0  0  0  0  0  0  0
   -6.1108   18.1584  -32.8290 H   0  0  0  0  0  0  0  0  0  0  0  0
   -6.4340   20.2930  -32.6230 C   0  0  0  0  0  0  0  0  0  0  0  0
   -4.6180   20.6970  -33.0800 Br  0  0  0  0  0  0  0  0  0  0  0  0
  1  2  1  0
  2  3  1  0
  3  4  1  0
  4  5  1  0
  4  6  1  0
  4  7  1  0
  3  8  1  0
  8  9  1  0
  8 10  1  0
  8 11  1  0
  2 12  2  0
 12 13  1  0
 12 14  1  0
 14 15  2  0
 15 16  1  0
 15 17  1  0
 17 18  1  0
 17 19  2  0
 19 20  1  0
 19 21  1  0
 21 22  1  0
 21 23  2  0
 23 24  1  0
 23 14  1  0
M  CHG  1  12   1
M  END
>  <UniqueID>  (20) 
19

>  <SMILES>  (20) 
CN(C)/C=[NH+]\c1ccccc1Br

>  <Energy>  (20) 
31.165630647842313

>  <Genealogy>  (20) 
CN(C)C=[NH+]c1ccccc1Br (protonated)
CN(C)/C=[NH+]\c1ccccc1Br (cis-trans isomerization)
CN(C)/C=[NH+]\c1ccccc1Br (3D coordinates assigned)
CN(C)/C=[NH+]\c1ccccc1Br (optimized conformer: 31.165630647842313 kcal/mol)

>  <smiles>  (20) 
CN(C)C=Nc1ccccc1Br

>  <score_type>  (20) 
oracle

>  <origin>  (20) 
adg

>  <m_score__min__energy>  (20) 
-4.9699999999999998

>  <m_primary>  (20) 
energy

$$$$
20:0
     RDKit          3D

 62 65  0  0  0  0  0  0  0  0999 V2000
   -3.8570   25.2850  -30.8480 O   0  0  0  0  0  0  0  0  0  0  0  0
   -4.9760   25.3000  -30.0000 C   0  0  0  0  0  0  0  0  0  0  0  0
   -6.2560   25.1930  -30.8310 C   0  0  0  0  0  0  0  0  0  0  0  0
   -6.9660   23.8590  -30.5640 C   0  0  0  0  0  0  0  0  0  0  0  0
   -6.2030   22.6110  -31.0730 C   0  0  2  0  0  0  0  0  0  0  0  0
   -7.2700   21.6370  -31.5860 C   0  0  0  0  0  0  0  0  0  0  0  0
   -7.0280   20.2500  -31.6650 C   0  0  0  0  0  0  0  0  0  0  0  0
   -8.0350   19.3740  -32.0890 C   0  0  0  0  0  0  0  0  0  0  0  0
   -9.3030   19.8650  -32.4060 C   0  0  0  0  0  0  0  0  0  0  0  0
   -9.5660   21.2310  -32.3040 C   0  0  0  0  0  0  0  0  0  0  0  0
   -8.5600   22.1130  -31.8990 C   0  0  0  0  0  0  0  0  0  0  0  0
   -5.4950   22.0120  -29.9790 O   0  0  0  0  0  0  0  0  0  0  0  0
   -4.0970   22.2320  -30.0380 C   0  0  0  0  0  0  0  0  0  0  0  0
   -3.5060   21.6380  -31.3210 C   0  0  2  0  0  0  0  0  0  0  0  0
   -2.0930   22.1980  -31.5750 C   0  0  0  0  0  0  0  0  0  0  0  0
   -1.1920   21.1090  -32.0230 N   0  0  0  0  0  0  0  0  0  0  0  0
   -1.5460   19.7880  -31.4370 C   0  0  0  0  0  0  0  0  0  0  0  0
   -1.2480   18.6190  -32.3790 C   0  0  0  0  0  0  0  0  0  0  0  0
   -1.9930   18.7760  -33.7260 C   0  0  0  0  0  0  0  0  0  0  0  0
   -3.3890   18.1600  -33.6640 C   0  0  0  0  0  0  0  0  0  0  0  0
   -4.4830   18.8610  -34.2120 C   0  0  0  0  0  0  0  0  0  0  0  0
   -5.7660   18.3010  -34.2050 C   0  0  0  0  0  0  0  0  0  0  0  0
   -5.9730   17.0340  -33.6600 C   0  0  0  0  0  0  0  0  0  0  0  0
   -4.8980   16.3180  -33.1280 C   0  0  0  0  0  0  0  0  0  0  0  0
   -3.6140   16.8710  -33.1350 C   0  0  0  0  0  0  0  0  0  0  0  0
   -1.9990   20.2440  -34.2370 C   0  0  0  0  0  0  0  0  0  0  0  0
   -0.9800   21.1190  -33.4910 C   0  0  0  0  0  0  0  0  0  0  0  0
   -4.4620   21.9400  -32.4910 C   0  0  0  0  0  0  0  0  0  0  0  0
   -5.3460   22.9970  -32.1520 O   0  0  0  0  0  0  0  0  0  0  0  0
   -4.0620   24.6470  -31.5800 H   0  0  0  0  0  0  0  0  0  0  0  0
   -4.9193   24.4492  -29.3051 H   0  0  0  0  0  0  0  0  0  0  0  0
   -4.9890   26.2417  -29.4317 H   0  0  0  0  0  0  0  0  0  0  0  0
   -6.9299   26.0205  -30.5643 H   0  0  0  0  0  0  0  0  0  0  0  0
   -5.9909   25.2453  -31.8973 H   0  0  0  0  0  0  0  0  0  0  0  0
   -7.1066   23.7562  -29.4779 H   0  0  0  0  0  0  0  0  0  0  0  0
   -7.9147   23.8933  -31.1197 H   0  0  0  0  0  0  0  0  0  0  0  0
   -6.0395   19.8526  -31.3912 H   0  0  0  0  0  0  0  0  0  0  0  0
   -7.8266   18.2971  -32.1724 H   0  0  0  0  0  0  0  0  0  0  0  0
  -10.0938   19.1752  -32.7359 H   0  0  0  0  0  0  0  0  0  0  0  0
  -10.5685   21.6155  -32.5431 H   0  0  0  0  0  0  0  0  0  0  0  0
   -8.7767   23.1888  -31.8237 H   0  0  0  0  0  0  0  0  0  0  0  0
   -3.6202   21.7571  -29.1679 H   0  0  0  0  0  0  0  0  0  0  0  0
   -3.9103   23.3160  -30.0329 H   0  0  0  0  0  0  0  0  0  0  0  0
   -3.4033   20.5474  -31.2209 H   0  0  0  0  0  0  0  0  0  0  0  0
   -2.1425   22.9739  -32.3532 H   0  0  0  0  0  0  0  0  0  0  0  0
   -1.7020   22.6313  -30.6426 H   0  0  0  0  0  0  0  0  0  0  0  0
   -0.9685   19.6487  -30.5112 H   0  0  0  0  0  0  0  0  0  0  0  0
   -2.6295   19.7909  -31.2473 H   0  0  0  0  0  0  0  0  0  0  0  0
   -0.1655   18.5809  -32.5709 H   0  0  0  0  0  0  0  0  0  0  0  0
   -1.5920   17.6910  -31.8990 H   0  0  0  0  0  0  0  0  0  0  0  0
   -1.4283   18.2073  -34.4795 H   0  0  0  0  0  0  0  0  0  0  0  0
   -4.3266   19.8581  -34.6495 H   0  0  0  0  0  0  0  0  0  0  0  0
   -6.6120   18.8610  -34.6299 H   0  0  0  0  0  0  0  0  0  0  0  0
   -6.9830   16.5984  -33.6491 H   0  0  0  0  0  0  0  0  0  0  0  0
   -5.0621   15.3169  -32.7026 H   0  0  0  0  0  0  0  0  0  0  0  0
   -2.7710   16.2960  -32.7243 H   0  0  0  0  0  0  0  0  0  0  0  0
   -1.7523   20.2476  -35.3090 H   0  0  0  0  0  0  0  0  0  0  0  0
   -3.0006   20.6616  -34.0570 H   0  0  0  0  0  0  0  0  0  0  0  0
    0.0314   20.7428  -33.7042 H   0  0  0  0  0  0  0  0  0  0  0  0
   -1.1077   22.1540  -33.8408 H   0  0  0  0  0  0  0  0  0  0  0  0
   -5.0481   21.0381  -32.7213 H   0  0  0  0  0  0  0  0  0  0  0  0
   -3.8679   22.2408  -33.3665 H   0  0  0  0  0  0  0  0  0  0  0  0
  1  2  1  0
  2  3  1  0
  3  4  1  0
  5  4  1  1
  5  6  1  0
  6  7  2  0
  7  8  1  0
  8  9  2  0
  9 10  1  0
 10 11  2  0
  5 12  1  0
 12 13  1  0
 13 14  1  0
 14 15  1  0
 15 16  1  0
 16 17  1  0
 17 18  1  0
 18 19  1  0
 19 20  1  0
 20 21  2  0
 21 22  1  0
 22 23  2  0
 23 24  1  0
 24 25  2  0
 19 26  1  0
 26 27  1  0
 14 28  1  0
 28 29  1  0
 29  5  1  0
 11  6  1  0
 27 16  1  0
 25 20  1  0
  1 30  1  0
  2 31  1  0
  2 32  1  0
  3 33  1  0
  3 34  1  0
  4 35  1  0
  4 36  1  0
  7 37  1  0
  8 38  1  0
  9 39  1  0
 10 40  1  0
 11 41  1  0
 13 42  1  0
 13 43  1  0
 14 44  1  1
 15 45  1  0
 15 46  1  0
 17 47  1  0
 17 48  1  0
 18 49  1  0
 18 50  1  0
 19 51  1  0
 21 52  1  0
 22 53  1  0
 23 54  1  0
 24 55  1  0
 25 56  1  0
 26 57  1  0
 26 58  1  0
 27 59  1  0
 27 60  1  0
 28 61  1  0
 28 62  1  0
M  END
>  <UniqueID>  (21) 
20

>  <SMILES>  (21) 
OCCCC1(c2ccccc2)OCC(CN2CCC(c3ccccc3)CC2)CO1

>  <Energy>  (21) 
86.85379903013339

>  <Genealogy>  (21) 
OCCCC1(c2ccccc2)OCC(CN2CCC(c3ccccc3)CC2)CO1 (3D coordinates assigned)
OCCCC1(c2ccccc2)OCC(CN2CCC(c3ccccc3)CC2)CO1 (nonaromatic ring conformer: 86.85379903013339 kcal/mol)

>  <smiles>  (21) 
OCCCC1(c2ccccc2)OCC(CN2CCC(c3ccccc3)CC2)CO1

>  <score_type>  (21) 
oracle

>  <origin>  (21) 
adg

>  <m_score__min__energy>  (21) 
-10.029999999999999

>  <m_primary>  (21) 
energy

$$$$
21:0
     RDKit          3D

 46 48  0  0  0  0  0  0  0  0999 V2000
   -1.5800   26.0010  -26.6060 C   0  0  0  0  0  0  0  0  0  0  0  0
   -0.9590   26.1120  -28.0000 C   0  0  0  0  0  0  0  0  0  0  0  0
   -1.5440   25.1550  -28.9520 N   0  0  0  0  0  0  0  0  0  0  0  0
   -2.4380   24.1650  -28.3160 C   0  0  0  0  0  0  0  0  0  0  0  0
   -2.9420   23.0920  -29.3150 C   0  0  2  0  0  0  0  0  0  0  0  0
   -1.7540   22.3400  -29.9470 C   0  0  0  0  0  0  0  0  0  0  0  0
   -2.1490   21.0300  -30.6550 C   0  0  0  0  0  0  0  0  0  0  0  0
   -2.8230   21.2580  -32.0180 C   0  0  0  0  0  0  0  0  0  0  0  0
   -4.2860   21.6700  -31.9140 C   0  0  0  0  0  0  0  0  0  0  0  0
   -5.2330   20.8660  -32.5750 C   0  0  0  0  0  0  0  0  0  0  0  0
   -6.5930   21.1830  -32.5430 C   0  0  0  0  0  0  0  0  0  0  0  0
   -7.7780   20.1370  -33.3890 S   0  0  0  0  0  0  0  0  0  0  0  0
   -6.8330   18.6480  -33.0670 C   0  0  0  0  0  0  0  0  0  0  0  0
   -6.8050   18.1000  -31.7780 C   0  0  0  0  0  0  0  0  0  0  0  0
   -6.0600   16.9430  -31.5260 C   0  0  0  0  0  0  0  0  0  0  0  0
   -5.3440   16.3320  -32.5590 C   0  0  0  0  0  0  0  0  0  0  0  0
   -5.3730   16.8770  -33.8470 C   0  0  0  0  0  0  0  0  0  0  0  0
   -6.1180   18.0320  -34.1020 C   0  0  0  0  0  0  0  0  0  0  0  0
   -7.0290   22.3110  -31.8510 C   0  0  0  0  0  0  0  0  0  0  0  0
   -6.1130   23.1120  -31.1710 C   0  0  0  0  0  0  0  0  0  0  0  0
   -4.7410   22.7980  -31.1700 C   0  0  0  0  0  0  0  0  0  0  0  0
   -3.8280   23.6700  -30.3910 C   0  0  0  0  0  0  0  0  0  0  0  0
   -3.7750   24.9040  -30.6560 O   0  0  0  0  0  0  0  0  0  0  0  0
   -0.7987   26.1407  -25.8444 H   0  0  0  0  0  0  0  0  0  0  0  0
   -2.3519   26.7754  -26.4857 H   0  0  0  0  0  0  0  0  0  0  0  0
   -2.0358   25.0071  -26.4857 H   0  0  0  0  0  0  0  0  0  0  0  0
   -1.1217   27.1317  -28.3791 H   0  0  0  0  0  0  0  0  0  0  0  0
    0.1129   25.8822  -27.9091 H   0  0  0  0  0  0  0  0  0  0  0  0
   -2.0170   25.6770  -29.7270 H   0  0  0  0  0  0  0  0  0  0  0  0
   -1.8886   23.6626  -27.5062 H   0  0  0  0  0  0  0  0  0  0  0  0
   -3.3169   24.7051  -27.9341 H   0  0  0  0  0  0  0  0  0  0  0  0
   -3.5551   22.3840  -28.7380 H   0  0  0  0  0  0  0  0  0  0  0  0
   -1.2780   23.0025  -30.6850 H   0  0  0  0  0  0  0  0  0  0  0  0
   -1.0760   22.0665  -29.1251 H   0  0  0  0  0  0  0  0  0  0  0  0
   -1.2410   20.4288  -30.8101 H   0  0  0  0  0  0  0  0  0  0  0  0
   -2.8787   20.5174  -30.0110 H   0  0  0  0  0  0  0  0  0  0  0  0
   -2.2753   22.0509  -32.5484 H   0  0  0  0  0  0  0  0  0  0  0  0
   -2.7956   20.2988  -32.5557 H   0  0  0  0  0  0  0  0  0  0  0  0
   -4.8973   19.9746  -33.1251 H   0  0  0  0  0  0  0  0  0  0  0  0
   -7.3687   18.5794  -30.9641 H   0  0  0  0  0  0  0  0  0  0  0  0
   -6.0378   16.5137  -30.5135 H   0  0  0  0  0  0  0  0  0  0  0  0
   -4.7578   15.4229  -32.3593 H   0  0  0  0  0  0  0  0  0  0  0  0
   -4.8090   16.3962  -34.6599 H   0  0  0  0  0  0  0  0  0  0  0  0
   -6.1427   18.4574  -35.1161 H   0  0  0  0  0  0  0  0  0  0  0  0
   -8.0980   22.5699  -31.8413 H   0  0  0  0  0  0  0  0  0  0  0  0
   -6.4670   24.0009  -30.6282 H   0  0  0  0  0  0  0  0  0  0  0  0
  1  2  1  0
  2  3  1  0
  3  4  1  0
  4  5  1  0
  5  6  1  0
  6  7  1  0
  7  8  1  0
  8  9  1  0
  9 10  2  0
 10 11  1  0
 11 12  1  0
 12 13  1  0
 13 14  2  0
 14 15  1  0
 15 16  2  0
 16 17  1  0
 17 18  2  0
 11 19  2  0
 19 20  1  0
 20 21  2  0
 21 22  1  0
 22 23  2  0
 22  5  1  0
 21  9  1  0
 18 13  1  0
  1 24  1  0
  1 25  1  0
  1 26  1  0
  2 27  1  0
  2 28  1  0
  3 29  1  0
  4 30  1  0
  4 31  1  0
  5 32  1  1
  6 33  1  0
  6 34  1  0
  7 35  1  0
  7 36  1  0
  8 37  1  0
  8 38  1  0
 10 39  1  0
 14 40  1  0
 15 41  1  0
 16 42  1  0
 17 43  1  0
 18 44  1  0
 19 45  1  0
 20 46  1  0
M  END
>  <UniqueID>  (22) 
21

>  <SMILES>  (22) 
CCNC[C@@H]1CCCc2cc(Sc3ccccc3)ccc2C1=O

>  <Energy>  (22) 
51.08878996272411

>  <Genealogy>  (22) 
CCNC[C@@H]1CCCc2cc(Sc3ccccc3)ccc2C1=O (chirality)
CCNC[C@@H]1CCCc2cc(Sc3ccccc3)ccc2C1=O (3D coordinates assigned)
CCNC[C@@H]1CCCc2cc(Sc3ccccc3)ccc2C1=O (nonaromatic ring conformer: 51.08878996272411 kcal/mol)

>  <smiles>  (22) 
CCNCC1CCCc2cc(Sc3ccccc3)ccc2C1=O

>  <score_type>  (22) 
oracle

>  <origin>  (22) 
adg

>  <m_score__min__energy>  (22) 
-8.1600000000000001

>  <m_primary>  (22) 
energy

$$$$
22:0
     RDKit          3D

 55 57  0  0  0  0  0  0  0  0999 V2000
   -3.2790   24.5060  -27.6190 C   0  0  0  0  0  0  0  0  0  0  0  0
   -3.1480   24.8820  -28.9860 O   0  0  0  0  0  0  0  0  0  0  0  0
   -3.9450   24.3830  -30.0300 C   0  0  0  0  0  0  0  0  0  0  0  0
   -5.0550   25.0920  -30.5210 C   0  0  0  0  0  0  0  0  0  0  0  0
   -5.8370   24.5590  -31.5440 C   0  0  0  0  0  0  0  0  0  0  0  0
   -5.5220   23.3190  -32.0960 C   0  0  0  0  0  0  0  0  0  0  0  0
   -4.4090   22.5960  -31.6370 C   0  0  0  0  0  0  0  0  0  0  0  0
   -4.0840   21.2650  -32.2840 C   0  0  0  0  0  0  0  0  0  0  0  0
   -5.1330   20.8080  -33.2190 N   0  0  0  0  0  0  0  0  0  0  0  0
   -5.3410   19.3330  -33.2210 C   0  0  2  0  0  0  0  0  0  0  0  0
   -5.8010   18.8120  -34.6040 C   0  0  0  0  0  0  0  0  0  0  0  0
   -6.1590   17.3120  -34.5990 C   0  0  0  0  0  0  0  0  0  0  0  0
   -6.0490   16.6790  -33.2070 C   0  0  0  0  0  0  0  0  0  0  0  0
   -6.7900   17.4660  -32.2160 N   0  0  0  0  0  0  0  0  0  0  0  0
   -6.3300   18.8730  -32.0900 C   0  0  2  0  0  0  0  0  0  0  0  0
   -7.5150   19.8210  -31.9020 C   0  0  0  0  0  0  0  0  0  0  0  0
   -7.3690   20.9800  -31.1120 C   0  0  0  0  0  0  0  0  0  0  0  0
   -8.4330   21.8710  -30.9550 C   0  0  0  0  0  0  0  0  0  0  0  0
   -9.6570   21.6180  -31.5790 C   0  0  0  0  0  0  0  0  0  0  0  0
   -9.8190   20.4710  -32.3540 C   0  0  0  0  0  0  0  0  0  0  0  0
   -8.7580   19.5750  -32.5160 C   0  0  0  0  0  0  0  0  0  0  0  0
   -3.6200   23.1300  -30.5890 C   0  0  0  0  0  0  0  0  0  0  0  0
   -2.4890   22.4030  -30.0830 N   0  0  0  0  0  0  0  0  0  0  0  0
   -1.1640   23.0240  -30.0920 C   0  0  0  0  0  0  0  0  0  0  0  0
   -2.7250   21.2660  -29.1970 C   0  0  0  0  0  0  0  0  0  0  0  0
   -2.9851   25.3495  -26.9769 H   0  0  0  0  0  0  0  0  0  0  0  0
   -4.3247   24.2345  -27.4120 H   0  0  0  0  0  0  0  0  0  0  0  0
   -2.6284   23.6435  -27.4120 H   0  0  0  0  0  0  0  0  0  0  0  0
   -5.3081   26.0741  -30.0949 H   0  0  0  0  0  0  0  0  0  0  0  0
   -6.7067   25.1196  -31.9173 H   0  0  0  0  0  0  0  0  0  0  0  0
   -6.1501   22.9031  -32.8976 H   0  0  0  0  0  0  0  0  0  0  0  0
   -3.1394   21.3658  -32.8386 H   0  0  0  0  0  0  0  0  0  0  0  0
   -4.0097   20.5172  -31.4807 H   0  0  0  0  0  0  0  0  0  0  0  0
   -4.9450   21.1640  -34.1840 H   0  0  0  0  0  0  0  0  0  0  0  0
   -6.0090   21.2780  -32.8920 H   0  0  0  0  0  0  0  0  0  0  0  0
   -4.3603   18.8834  -33.0062 H   0  0  0  0  0  0  0  0  0  0  0  0
   -6.6887   19.3824  -34.9150 H   0  0  0  0  0  0  0  0  0  0  0  0
   -4.9598   18.9453  -35.3002 H   0  0  0  0  0  0  0  0  0  0  0  0
   -7.1927   17.1963  -34.9569 H   0  0  0  0  0  0  0  0  0  0  0  0
   -5.4401   16.7980  -35.2540 H   0  0  0  0  0  0  0  0  0  0  0  0
   -6.4626   15.6603  -33.2406 H   0  0  0  0  0  0  0  0  0  0  0  0
   -4.9889   16.6530  -32.9147 H   0  0  0  0  0  0  0  0  0  0  0  0
   -7.8080   17.4020  -32.4500 H   0  0  0  0  0  0  0  0  0  0  0  0
   -5.7197   18.9191  -31.1760 H   0  0  0  0  0  0  0  0  0  0  0  0
   -6.4090   21.1840  -30.6152 H   0  0  0  0  0  0  0  0  0  0  0  0
   -8.3070   22.7735  -30.3389 H   0  0  0  0  0  0  0  0  0  0  0  0
  -10.4923   22.3235  -31.4588 H   0  0  0  0  0  0  0  0  0  0  0  0
  -10.7851   20.2699  -32.8400 H   0  0  0  0  0  0  0  0  0  0  0  0
   -8.8953   18.6711  -33.1277 H   0  0  0  0  0  0  0  0  0  0  0  0
   -0.8262   23.1823  -29.0572 H   0  0  0  0  0  0  0  0  0  0  0  0
   -0.4537   22.3650  -30.6128 H   0  0  0  0  0  0  0  0  0  0  0  0
   -1.2160   23.9915  -30.6128 H   0  0  0  0  0  0  0  0  0  0  0  0
   -2.6564   21.5965  -28.1501 H   0  0  0  0  0  0  0  0  0  0  0  0
   -3.7276   20.8551  -29.3868 H   0  0  0  0  0  0  0  0  0  0  0  0
   -1.9688   20.4901  -29.3868 H   0  0  0  0  0  0  0  0  0  0  0  0
  1  2  1  0
  2  3  1  0
  3  4  2  0
  4  5  1  0
  5  6  2  0
  6  7  1  0
  7  8  1  0
  8  9  1  0
  9 10  1  0
 10 11  1  0
 11 12  1  0
 12 13  1  0
 13 14  1  0
 14 15  1  0
 15 16  1  0
 16 17  2  0
 17 18  1  0
 18 19  2  0
 19 20  1  0
 20 21  2  0
  7 22  2  0
 22 23  1  0
 23 24  1  0
 23 25  1  0
 22  3  1  0
 15 10  1  0
 21 16  1  0
  1 26  1  0
  1 27  1  0
  1 28  1  0
  4 29  1  0
  5 30  1  0
  6 31  1  0
  8 32  1  0
  8 33  1  0
  9 34  1  0
  9 35  1  0
 10 36  1  1
 11 37  1  0
 11 38  1  0
 12 39  1  0
 12 40  1  0
 13 41  1  0
 13 42  1  0
 14 43  1  0
 15 44  1  1
 17 45  1  0
 18 46  1  0
 19 47  1  0
 20 48  1  0
 21 49  1  0
 24 50  1  0
 24 51  1  0
 24 52  1  0
 25 53  1  0
 25 54  1  0
 25 55  1  0
M  CHG  1   9   1
M  END
>  <UniqueID>  (23) 
22

>  <SMILES>  (23) 
COc1cccc(C[NH2+][C@@H]2CCCN[C@@H]2c2ccccc2)c1N(C)C

>  <Energy>  (23) 
73.51682155710252

>  <Genealogy>  (23) 
COc1cccc(C[NH2+]C2CCCNC2c2ccccc2)c1N(C)C (protonated)
COc1cccc(C[NH2+][C@@H]2CCCN[C@@H]2c2ccccc2)c1N(C)C (chirality)
COc1cccc(C[NH2+][C@@H]2CCCN[C@@H]2c2ccccc2)c1N(C)C (3D coordinates assigned)
COc1cccc(C[NH2+][C@@H]2CCCN[C@@H]2c2ccccc2)c1N(C)C (nonaromatic ring conformer: 73.51682155710252 kcal/mol)

>  <smiles>  (23) 
COc1cccc(CNC2CCCNC2c2ccccc2)c1N(C)C

>  <score_type>  (23) 
oracle

>  <origin>  (23) 
adg

>  <m_score__min__energy>  (23) 
-8.0600000000000005

>  <m_primary>  (23) 
energy

$$$$
23:0
     RDKit          3D

 48 50  0  0  0  0  0  0  0  0999 V2000
   -3.5150   22.3710  -29.5000 C   0  0  0  0  0  0  0  0  0  0  0  0
   -3.4630   23.1790  -30.7920 C   0  0  0  0  0  0  0  0  0  0  0  0
   -4.6290   24.0860  -30.8530 N   0  0  0  0  0  0  0  0  0  0  0  0
   -5.2320   24.4500  -29.5540 C   0  0  0  0  0  0  0  0  0  0  0  0
   -6.1780   25.6310  -29.7350 C   0  0  0  0  0  0  0  0  0  0  0  0
   -5.5930   23.7950  -31.9370 C   0  0  0  0  0  0  0  0  0  0  0  0
   -5.7520   22.3230  -32.3380 C   0  0  0  0  0  0  0  0  0  0  0  0
   -4.7080   21.6160  -32.8730 N   0  0  0  0  0  0  0  0  0  0  0  0
   -4.8110   20.3270  -33.2220 N   0  0  0  0  0  0  0  0  0  0  0  0
   -3.6210   19.6440  -33.7620 C   0  0  0  0  0  0  0  0  0  0  0  0
   -2.3790   20.1320  -33.0640 C   0  0  0  0  0  0  0  0  0  0  0  0
   -1.3160   20.6780  -33.8050 C   0  0  0  0  0  0  0  0  0  0  0  0
   -0.1500   21.0980  -33.1570 C   0  0  0  0  0  0  0  0  0  0  0  0
   -0.0310   20.9680  -31.7700 C   0  0  0  0  0  0  0  0  0  0  0  0
   -1.0820   20.4190  -31.0260 C   0  0  0  0  0  0  0  0  0  0  0  0
   -2.2510   20.0020  -31.6700 C   0  0  0  0  0  0  0  0  0  0  0  0
   -5.9840   19.6450  -33.0500 C   0  0  0  0  0  0  0  0  0  0  0  0
   -6.0570   18.4200  -33.3480 O   0  0  0  0  0  0  0  0  0  0  0  0
   -7.1130   20.3140  -32.5580 C   0  0  0  0  0  0  0  0  0  0  0  0
   -8.3470   19.6450  -32.4150 C   0  0  0  0  0  0  0  0  0  0  0  0
   -9.4750   20.3310  -31.9680 C   0  0  0  0  0  0  0  0  0  0  0  0
   -9.3920   21.6880  -31.6690 C   0  0  0  0  0  0  0  0  0  0  0  0
   -8.1760   22.3630  -31.7960 C   0  0  0  0  0  0  0  0  0  0  0  0
   -7.0120   21.6830  -32.2220 C   0  0  0  0  0  0  0  0  0  0  0  0
   -3.4711   23.0537  -28.6386 H   0  0  0  0  0  0  0  0  0  0  0  0
   -4.4520   21.7959  -29.4647 H   0  0  0  0  0  0  0  0  0  0  0  0
   -2.6594   21.6805  -29.4647 H   0  0  0  0  0  0  0  0  0  0  0  0
   -2.5362   23.7710  -30.8173 H   0  0  0  0  0  0  0  0  0  0  0  0
   -3.4848   22.4952  -31.6534 H   0  0  0  0  0  0  0  0  0  0  0  0
   -5.7930   23.5904  -29.1585 H   0  0  0  0  0  0  0  0  0  0  0  0
   -4.4345   24.7290  -28.8496 H   0  0  0  0  0  0  0  0  0  0  0  0
   -6.4826   26.0113  -28.7488 H   0  0  0  0  0  0  0  0  0  0  0  0
   -5.6661   26.4286  -30.2934 H   0  0  0  0  0  0  0  0  0  0  0  0
   -7.0681   25.3056  -30.2934 H   0  0  0  0  0  0  0  0  0  0  0  0
   -6.5787   24.1613  -31.6142 H   0  0  0  0  0  0  0  0  0  0  0  0
   -5.1872   24.2961  -32.8282 H   0  0  0  0  0  0  0  0  0  0  0  0
   -3.7940   22.0880  -33.0250 H   0  0  0  0  0  0  0  0  0  0  0  0
   -3.7227   18.5598  -33.6067 H   0  0  0  0  0  0  0  0  0  0  0  0
   -3.5382   19.8636  -34.8367 H   0  0  0  0  0  0  0  0  0  0  0  0
   -1.4018   20.7750  -34.8973 H   0  0  0  0  0  0  0  0  0  0  0  0
    0.6757   21.5318  -33.7401 H   0  0  0  0  0  0  0  0  0  0  0  0
    0.8883   21.2971  -31.2635 H   0  0  0  0  0  0  0  0  0  0  0  0
   -0.9883   20.3157  -29.9349 H   0  0  0  0  0  0  0  0  0  0  0  0
   -3.0748   19.5700  -31.0829 H   0  0  0  0  0  0  0  0  0  0  0  0
   -8.4194   18.5746  -32.6580 H   0  0  0  0  0  0  0  0  0  0  0  0
  -10.4312   19.7998  -31.8515 H   0  0  0  0  0  0  0  0  0  0  0  0
  -10.2874   22.2306  -31.3315 H   0  0  0  0  0  0  0  0  0  0  0  0
   -8.1233   23.4365  -31.5618 H   0  0  0  0  0  0  0  0  0  0  0  0
  1  2  1  0
  2  3  1  0
  3  4  1  0
  4  5  1  0
  3  6  1  0
  6  7  1  0
  7  8  2  0
  8  9  1  0
  9 10  1  0
 10 11  1  0
 11 12  2  0
 12 13  1  0
 13 14  2  0
 14 15  1  0
 15 16  2  0
  9 17  1  0
 17 18  2  0
 17 19  1  0
 19 20  2  0
 20 21  1  0
 21 22  2  0
 22 23  1  0
 23 24  2  0
 24  7  1  0
 16 11  1  0
 24 19  1  0
  1 25  1  0
  1 26  1  0
  1 27  1  0
  2 28  1  0
  2 29  1  0
  4 30  1  0
  4 31  1  0
  5 32  1  0
  5 33  1  0
  5 34  1  0
  6 35  1  0
  6 36  1  0
  8 37  1  0
 10 38  1  0
 10 39  1  0
 12 40  1  0
 13 41  1  0
 14 42  1  0
 15 43  1  0
 16 44  1  0
 20 45  1  0
 21 46  1  0
 22 47  1  0
 23 48  1  0
M  CHG  1   8   1
M  END
>  <UniqueID>  (24) 
23

>  <SMILES>  (24) 
CCN(CC)Cc1[nH+]n(Cc2ccccc2)c(=O)c2ccccc12

>  <Energy>  (24) 
64.42572486876273

>  <Genealogy>  (24) 
CCN(CC)Cc1[nH+]n(Cc2ccccc2)c(=O)c2ccccc12 (protonated)
CCN(CC)Cc1[nH+]n(Cc2ccccc2)c(=O)c2ccccc12 (3D coordinates assigned)
CCN(CC)Cc1[nH+]n(Cc2ccccc2)c(=O)c2ccccc12 (optimized conformer: 64.42572486876273 kcal/mol)

>  <smiles>  (24) 
CCN(CC)Cc1nn(Cc2ccccc2)c(=O)c2ccccc12

>  <score_type>  (24) 
oracle

>  <origin>  (24) 
adg

>  <m_score__min__energy>  (24) 
-7.75

>  <m_primary>  (24) 
energy

$$$$
24:0
     RDKit          3D

 44 47  0  0  0  0  0  0  0  0999 V2000
   -3.8650   25.6660  -31.0030 O   0  0  0  0  0  0  0  0  0  0  0  0
   -4.2980   24.6370  -30.4200 C   0  0  0  0  0  0  0  0  0  0  0  0
   -5.4790   23.9990  -30.9200 N   0  0  0  0  0  0  0  0  0  0  0  0
   -5.4960   22.7770  -31.6720 C   0  0  0  0  0  0  0  0  0  0  0  0
   -4.3470   22.3090  -32.3350 C   0  0  0  0  0  0  0  0  0  0  0  0
   -4.3850   21.1490  -33.0470 N   0  0  0  0  0  0  0  0  0  0  0  0
   -5.5250   20.4160  -33.1580 C   0  0  0  0  0  0  0  0  0  0  0  0
   -6.7020   20.8520  -32.5400 C   0  0  0  0  0  0  0  0  0  0  0  0
   -7.8960   20.1270  -32.6430 C   0  0  0  0  0  0  0  0  0  0  0  0
   -9.0490   20.5990  -32.0110 C   0  0  0  0  0  0  0  0  0  0  0  0
   -8.9940   21.7900  -31.2810 C   0  0  0  0  0  0  0  0  0  0  0  0
   -7.8270   22.4810  -31.1870 N   0  0  0  0  0  0  0  0  0  0  0  0
   -6.6870   22.0490  -31.7950 C   0  0  0  0  0  0  0  0  0  0  0  0
   -3.6180   24.1350  -29.2580 N   0  0  0  0  0  0  0  0  0  0  0  0
   -2.1480   24.1290  -29.2370 C   0  0  0  0  0  0  0  0  0  0  0  0
   -1.6150   23.4690  -27.9620 C   0  0  0  0  0  0  0  0  0  0  0  0
   -2.4210   22.2820  -27.6490 N   0  0  0  0  0  0  0  0  0  0  0  0
   -1.8280   20.9690  -27.6020 C   0  0  0  0  0  0  0  0  0  0  0  0
   -0.6610   20.6910  -28.3350 C   0  0  0  0  0  0  0  0  0  0  0  0
   -0.0710   19.4250  -28.2710 C   0  0  0  0  0  0  0  0  0  0  0  0
   -0.6360   18.4280  -27.4710 C   0  0  0  0  0  0  0  0  0  0  0  0
   -1.7910   18.6970  -26.7320 C   0  0  0  0  0  0  0  0  0  0  0  0
   -2.3840   19.9610  -26.7930 C   0  0  0  0  0  0  0  0  0  0  0  0
   -3.8780   22.4240  -27.4960 C   0  0  0  0  0  0  0  0  0  0  0  0
   -4.3760   23.7660  -28.0520 C   0  0  0  0  0  0  0  0  0  0  0  0
   -3.4112   22.8843  -32.2778 H   0  0  0  0  0  0  0  0  0  0  0  0
   -3.5160   20.8160  -33.5210 H   0  0  0  0  0  0  0  0  0  0  0  0
   -5.5217   19.4791  -33.7344 H   0  0  0  0  0  0  0  0  0  0  0  0
   -7.9257   19.1903  -33.2189 H   0  0  0  0  0  0  0  0  0  0  0  0
   -9.9923   20.0382  -32.0871 H   0  0  0  0  0  0  0  0  0  0  0  0
   -9.8976   22.1691  -30.7812 H   0  0  0  0  0  0  0  0  0  0  0  0
   -1.7790   23.5718  -30.1107 H   0  0  0  0  0  0  0  0  0  0  0  0
   -1.7950   25.1705  -29.2638 H   0  0  0  0  0  0  0  0  0  0  0  0
   -0.5673   23.1705  -28.1145 H   0  0  0  0  0  0  0  0  0  0  0  0
   -1.6762   24.1831  -27.1275 H   0  0  0  0  0  0  0  0  0  0  0  0
   -0.2096   21.4738  -28.9623 H   0  0  0  0  0  0  0  0  0  0  0  0
    0.8393   19.2134  -28.8512 H   0  0  0  0  0  0  0  0  0  0  0  0
   -0.1717   17.4320  -27.4231 H   0  0  0  0  0  0  0  0  0  0  0  0
   -2.2343   17.9125  -26.1011 H   0  0  0  0  0  0  0  0  0  0  0  0
   -3.2903   20.1690  -26.2054 H   0  0  0  0  0  0  0  0  0  0  0  0
   -4.3754   21.6062  -28.0381 H   0  0  0  0  0  0  0  0  0  0  0  0
   -4.1169   22.3859  -26.4229 H   0  0  0  0  0  0  0  0  0  0  0  0
   -5.4426   23.6793  -28.3068 H   0  0  0  0  0  0  0  0  0  0  0  0
   -4.2317   24.5442  -27.2880 H   0  0  0  0  0  0  0  0  0  0  0  0
  1  2  2  0
  2  3  1  0
  3  4  1  0
  4  5  2  0
  5  6  1  0
  6  7  2  0
  7  8  1  0
  8  9  2  0
  9 10  1  0
 10 11  2  0
 11 12  1  0
 12 13  2  0
  2 14  1  0
 14 15  1  0
 15 16  1  0
 16 17  1  0
 17 18  1  0
 18 19  2  0
 19 20  1  0
 20 21  2  0
 21 22  1  0
 22 23  2  0
 17 24  1  0
 24 25  1  0
 13  4  1  0
 25 14  1  0
 13  8  1  0
 23 18  1  0
  5 26  1  0
  6 27  1  0
  7 28  1  0
  9 29  1  0
 10 30  1  0
 11 31  1  0
 15 32  1  0
 15 33  1  0
 16 34  1  0
 16 35  1  0
 19 36  1  0
 20 37  1  0
 21 38  1  0
 22 39  1  0
 23 40  1  0
 24 41  1  0
 24 42  1  0
 25 43  1  0
 25 44  1  0
M  CHG  2   3  -1   6   1
M  END
>  <UniqueID>  (25) 
24

>  <SMILES>  (25) 
O=C([N-]c1c[nH+]cc2cccnc12)N1CCN(c2ccccc2)CC1

>  <Energy>  (25) 
60.64818243059111

>  <Genealogy>  (25) 
O=C([N-]c1c[nH+]cc2cccnc12)N1CCN(c2ccccc2)CC1 (protonated)
O=C([N-]c1c[nH+]cc2cccnc12)N1CCN(c2ccccc2)CC1 (3D coordinates assigned)
O=C([N-]c1c[nH+]cc2cccnc12)N1CCN(c2ccccc2)CC1 (nonaromatic ring conformer: 60.64818243059111 kcal/mol)

>  <smiles>  (25) 
O=C(Nc1cncc2cccnc12)N1CCN(c2ccccc2)CC1

>  <score_type>  (25) 
oracle

>  <origin>  (25) 
adg

>  <m_score__min__energy>  (25) 
-9.0399999999999991

>  <m_primary>  (25) 
energy

$$$$
25:0
     RDKit          3D

 61 64  0  0  0  0  0  0  0  0999 V2000
   -3.4200   23.4280  -30.4310 C   0  0  0  0  0  0  0  0  0  0  0  0
   -4.7990   23.1230  -30.9260 C   0  0  0  0  0  0  0  0  0  0  0  0
   -5.8170   24.0810  -30.8300 C   0  0  0  0  0  0  0  0  0  0  0  0
   -7.1010   23.7640  -31.2780 C   0  0  0  0  0  0  0  0  0  0  0  0
   -7.3620   22.5000  -31.8110 C   0  0  0  0  0  0  0  0  0  0  0  0
   -6.3210   21.5520  -31.8950 C   0  0  0  0  0  0  0  0  0  0  0  0
   -6.5490   20.2270  -32.4320 N   0  0  0  0  0  0  0  0  0  0  0  0
   -6.5960   19.0520  -31.5410 C   0  0  0  0  0  0  0  0  0  0  0  0
   -7.2130   17.8240  -32.2280 C   0  0  0  0  0  0  0  0  0  0  0  0
   -6.6160   17.5250  -33.6290 C   0  0  0  0  0  0  0  0  0  0  0  0
   -5.5650   16.4210  -33.5670 C   0  0  0  0  0  0  0  0  0  0  0  0
   -5.8560   15.1240  -34.0250 C   0  0  0  0  0  0  0  0  0  0  0  0
   -4.8890   14.1190  -33.9690 C   0  0  0  0  0  0  0  0  0  0  0  0
   -3.6240   14.4180  -33.4720 C   0  0  0  0  0  0  0  0  0  0  0  0
   -3.3350   15.6770  -33.0480 N   0  0  0  0  0  0  0  0  0  0  0  0
   -4.2580   16.6790  -33.0930 C   0  0  0  0  0  0  0  0  0  0  0  0
   -3.8880   17.9610  -32.6770 O   0  0  0  0  0  0  0  0  0  0  0  0
   -2.8820   18.7150  -33.3000 C   0  0  0  0  0  0  0  0  0  0  0  0
   -2.8810   20.1030  -33.1290 C   0  0  0  0  0  0  0  0  0  0  0  0
   -1.8930   20.8910  -33.7240 C   0  0  0  0  0  0  0  0  0  0  0  0
   -0.8830   20.2950  -34.4930 C   0  0  0  0  0  0  0  0  0  0  0  0
    0.3810   21.2840  -35.2240 S   0  0  0  0  0  0  0  0  0  0  0  0
   -0.0980   22.7050  -35.3160 O   0  0  0  0  0  0  0  0  0  0  0  0
    0.6480   20.7940  -36.6210 O   0  0  0  0  0  0  0  0  0  0  0  0
    1.8620   21.2290  -34.2990 N   0  0  0  0  0  0  0  0  0  0  0  0
    2.9820   21.6970  -35.1250 C   0  0  0  0  0  0  0  0  0  0  0  0
    2.1100   19.8590  -33.8350 C   0  0  0  0  0  0  0  0  0  0  0  0
   -0.8800   18.9050  -34.6690 C   0  0  0  0  0  0  0  0  0  0  0  0
   -1.8740   18.1180  -34.0820 C   0  0  0  0  0  0  0  0  0  0  0  0
   -6.0870   18.7850  -34.3600 C   0  0  0  0  0  0  0  0  0  0  0  0
   -6.7890   20.0510  -33.8740 C   0  0  0  0  0  0  0  0  0  0  0  0
   -5.0780   21.8950  -31.4460 N   0  0  0  0  0  0  0  0  0  0  0  0
   -3.4171   23.4286  -29.3310 H   0  0  0  0  0  0  0  0  0  0  0  0
   -2.7207   22.6628  -30.7991 H   0  0  0  0  0  0  0  0  0  0  0  0
   -3.1086   24.4167  -30.7991 H   0  0  0  0  0  0  0  0  0  0  0  0
   -5.6066   25.0738  -30.4056 H   0  0  0  0  0  0  0  0  0  0  0  0
   -7.9067   24.5099  -31.2111 H   0  0  0  0  0  0  0  0  0  0  0  0
   -8.3726   22.2453  -32.1630 H   0  0  0  0  0  0  0  0  0  0  0  0
   -5.5711   18.8044  -31.2276 H   0  0  0  0  0  0  0  0  0  0  0  0
   -7.2287   19.3086  -30.6785 H   0  0  0  0  0  0  0  0  0  0  0  0
   -7.0465   16.9468  -31.5855 H   0  0  0  0  0  0  0  0  0  0  0  0
   -8.2813   18.0415  -32.3744 H   0  0  0  0  0  0  0  0  0  0  0  0
   -7.4536   17.1591  -34.2410 H   0  0  0  0  0  0  0  0  0  0  0  0
   -6.8535   14.8995  -34.4306 H   0  0  0  0  0  0  0  0  0  0  0  0
   -5.1243   13.1014  -34.3141 H   0  0  0  0  0  0  0  0  0  0  0  0
   -2.8552   13.6329  -33.4220 H   0  0  0  0  0  0  0  0  0  0  0  0
   -2.3760   15.8810  -32.6880 H   0  0  0  0  0  0  0  0  0  0  0  0
   -3.6648   20.5782  -32.5209 H   0  0  0  0  0  0  0  0  0  0  0  0
   -1.9072   21.9826  -33.5889 H   0  0  0  0  0  0  0  0  0  0  0  0
    3.8000   22.0388  -34.4739 H   0  0  0  0  0  0  0  0  0  0  0  0
    3.3388   20.8727  -35.7600 H   0  0  0  0  0  0  0  0  0  0  0  0
    2.6463   22.5301  -35.7600 H   0  0  0  0  0  0  0  0  0  0  0  0
    2.1136   19.8394  -32.7352 H   0  0  0  0  0  0  0  0  0  0  0  0
    1.3174   19.1954  -34.2110 H   0  0  0  0  0  0  0  0  0  0  0  0
    3.0849   19.5154  -34.2110 H   0  0  0  0  0  0  0  0  0  0  0  0
   -0.0915   18.4312  -35.2721 H   0  0  0  0  0  0  0  0  0  0  0  0
   -1.8694   17.0282  -34.2311 H   0  0  0  0  0  0  0  0  0  0  0  0
   -5.0074   18.8804  -34.1718 H   0  0  0  0  0  0  0  0  0  0  0  0
   -6.2888   18.6700  -35.4352 H   0  0  0  0  0  0  0  0  0  0  0  0
   -6.3942   20.9208  -34.4196 H   0  0  0  0  0  0  0  0  0  0  0  0
   -7.8702   19.9616  -34.0559 H   0  0  0  0  0  0  0  0  0  0  0  0
  1  2  1  0
  2  3  2  0
  3  4  1  0
  4  5  2  0
  5  6  1  0
  6  7  1  0
  7  8  1  0
  8  9  1  0
  9 10  1  0
 10 11  1  0
 11 12  2  0
 12 13  1  0
 13 14  2  0
 14 15  1  0
 15 16  2  0
 16 17  1  0
 17 18  1  0
 18 19  2  0
 19 20  1  0
 20 21  2  0
 21 22  1  0
 22 23  2  0
 22 24  2  0
 22 25  1  0
 25 26  1  0
 25 27  1  0
 21 28  1  0
 28 29  2  0
 10 30  1  0
 30 31  1  0
  6 32  2  0
 32  2  1  0
 31  7  1  0
 16 11  1  0
 29 18  1  0
  1 33  1  0
  1 34  1  0
  1 35  1  0
  3 36  1  0
  4 37  1  0
  5 38  1  0
  8 39  1  0
  8 40  1  0
  9 41  1  0
  9 42  1  0
 10 43  1  0
 12 44  1  0
 13 45  1  0
 14 46  1  0
 15 47  1  0
 19 48  1  0
 20 49  1  0
 26 50  1  0
 26 51  1  0
 26 52  1  0
 27 53  1  0
 27 54  1  0
 27 55  1  0
 28 56  1  0
 29 57  1  0
 30 58  1  0
 30 59  1  0
 31 60  1  0
 31 61  1  0
M  CHG  1  15   1
M  END
>  <UniqueID>  (26) 
25

>  <SMILES>  (26) 
Cc1cccc(N2CCC(c3ccc[nH+]c3Oc3ccc(S(=O)(=O)N(C)C)cc3)CC2)n1

>  <Energy>  (26) 
75.40713051665219

>  <Genealogy>  (26) 
Cc1cccc(N2CCC(c3ccc[nH+]c3Oc3ccc(S(=O)(=O)N(C)C)cc3)CC2)n1 (protonated)
Cc1cccc(N2CCC(c3ccc[nH+]c3Oc3ccc(S(=O)(=O)N(C)C)cc3)CC2)n1 (3D coordinates assigned)
Cc1cccc(N2CCC(c3ccc[nH+]c3Oc3ccc(S(=O)(=O)N(C)C)cc3)CC2)n1 (nonaromatic ring conformer: 75.40713051665219 kcal/mol)

>  <smiles>  (26) 
Cc1cccc(N2CCC(c3cccnc3Oc3ccc(S(=O)(=O)N(C)C)cc3)CC2)n1

>  <score_type>  (26) 
oracle

>  <origin>  (26) 
adg

>  <m_score__min__energy>  (26) 
-9.5899999999999999

>  <m_primary>  (26) 
energy

$$$$
26:0
     RDKit          3D

 38 39  0  0  0  0  0  0  0  0999 V2000
   -5.6840   16.6260  -32.8840 C   0  0  0  0  0  0  0  0  0  0  0  0
   -5.7960   16.8620  -34.3900 C   0  0  0  0  0  0  0  0  0  0  0  0
   -5.2880   18.2490  -34.8040 C   0  0  0  0  0  0  0  0  0  0  0  0
   -5.6790   19.3000  -33.8090 C   0  0  0  0  0  0  0  0  0  0  0  0
   -6.9640   19.4010  -33.3970 N   0  0  0  0  0  0  0  0  0  0  0  0
   -7.3620   20.3650  -32.5280 C   0  0  0  0  0  0  0  0  0  0  0  0
   -9.1070   20.3790  -32.0870 S   0  0  0  0  0  0  0  0  0  0  0  0
   -9.1150   18.6270  -31.5960 C   0  0  0  0  0  0  0  0  0  0  0  0
   -6.4080   21.2960  -32.0300 C   0  0  0  0  0  0  0  0  0  0  0  0
   -6.7030   22.3400  -31.1270 C   0  0  0  0  0  0  0  0  0  0  0  0
   -7.8770   22.4900  -30.6890 O   0  0  0  0  0  0  0  0  0  0  0  0
   -5.7180   23.2030  -30.7220 N   0  0  0  0  0  0  0  0  0  0  0  0
   -6.0480   24.3170  -29.8070 C   0  0  0  0  0  0  0  0  0  0  0  0
   -5.7440   25.6580  -30.4660 C   0  0  0  0  0  0  0  0  0  0  0  0
   -4.4420   23.0760  -31.2080 C   0  0  0  0  0  0  0  0  0  0  0  0
   -3.5600   23.9200  -30.8780 O   0  0  0  0  0  0  0  0  0  0  0  0
   -4.1130   22.0460  -32.0510 N   0  0  0  0  0  0  0  0  0  0  0  0
   -2.7350   21.9220  -32.5650 C   0  0  0  0  0  0  0  0  0  0  0  0
   -5.0760   21.1740  -32.4800 C   0  0  0  0  0  0  0  0  0  0  0  0
   -4.7560   20.1830  -33.3590 N   0  0  0  0  0  0  0  0  0  0  0  0
   -6.0952   17.4925  -32.3455 H   0  0  0  0  0  0  0  0  0  0  0  0
   -6.2495   15.7227  -32.6113 H   0  0  0  0  0  0  0  0  0  0  0  0
   -4.6267   16.4929  -32.6113 H   0  0  0  0  0  0  0  0  0  0  0  0
   -5.2019   16.0978  -34.9125 H   0  0  0  0  0  0  0  0  0  0  0  0
   -6.8603   16.8000  -34.6609 H   0  0  0  0  0  0  0  0  0  0  0  0
   -4.1910   18.2194  -34.8794 H   0  0  0  0  0  0  0  0  0  0  0  0
   -5.7418   18.5065  -35.7724 H   0  0  0  0  0  0  0  0  0  0  0  0
   -9.1153   18.5538  -30.4984 H   0  0  0  0  0  0  0  0  0  0  0  0
  -10.0154   18.1381  -31.9964 H   0  0  0  0  0  0  0  0  0  0  0  0
   -8.2191   18.1299  -31.9964 H   0  0  0  0  0  0  0  0  0  0  0  0
   -7.1175   24.2725  -29.5536 H   0  0  0  0  0  0  0  0  0  0  0  0
   -5.4380   24.2219  -28.8966 H   0  0  0  0  0  0  0  0  0  0  0  0
   -5.5718   26.4176  -29.6892 H   0  0  0  0  0  0  0  0  0  0  0  0
   -4.8445   25.5633  -31.0921 H   0  0  0  0  0  0  0  0  0  0  0  0
   -6.5964   25.9605  -31.0921 H   0  0  0  0  0  0  0  0  0  0  0  0
   -2.0330   21.8588  -31.7205 H   0  0  0  0  0  0  0  0  0  0  0  0
   -2.6530   21.0128  -33.1788 H   0  0  0  0  0  0  0  0  0  0  0  0
   -2.4920   22.8019  -33.1788 H   0  0  0  0  0  0  0  0  0  0  0  0
  1  2  1  0
  2  3  1  0
  3  4  1  0
  4  5  2  0
  5  6  1  0
  6  7  1  0
  7  8  1  0
  6  9  2  0
  9 10  1  0
 10 11  2  0
 10 12  1  0
 12 13  1  0
 13 14  1  0
 12 15  1  0
 15 16  2  0
 15 17  1  0
 17 18  1  0
 17 19  1  0
 19 20  2  0
 20  4  1  0
 19  9  1  0
  1 21  1  0
  1 22  1  0
  1 23  1  0
  2 24  1  0
  2 25  1  0
  3 26  1  0
  3 27  1  0
  8 28  1  0
  8 29  1  0
  8 30  1  0
 13 31  1  0
 13 32  1  0
 14 33  1  0
 14 34  1  0
 14 35  1  0
 18 36  1  0
 18 37  1  0
 18 38  1  0
M  END
>  <UniqueID>  (27) 
26

>  <SMILES>  (27) 
CCCc1nc(SC)c2c(=O)n(CC)c(=O)n(C)c2n1

>  <Energy>  (27) 
41.25109478812

>  <Genealogy>  (27) 
CCCc1nc(SC)c2c(=O)n(CC)c(=O)n(C)c2n1 (3D coordinates assigned)
CCCc1nc(SC)c2c(=O)n(CC)c(=O)n(C)c2n1 (optimized conformer: 41.25109478812 kcal/mol)

>  <smiles>  (27) 
CCCc1nc(SC)c2c(=O)n(CC)c(=O)n(C)c2n1

>  <score_type>  (27) 
oracle

>  <origin>  (27) 
adg

>  <m_score__min__energy>  (27) 
-7.2599999999999998

>  <m_primary>  (27) 
energy

$$$$
27:0
     RDKit          3D

 49 51  0  0  0  0  0  0  0  0999 V2000
   -5.8090   19.8630  -34.1990 O   0  0  0  0  0  0  0  0  0  0  0  0
   -5.4980   19.7820  -32.9800 C   0  0  0  0  0  0  0  0  0  0  0  0
   -6.2180   18.7850  -32.1130 C   0  0  0  0  0  0  0  0  0  0  0  0
   -7.7110   18.6620  -32.4780 C   0  0  0  0  0  0  0  0  0  0  0  0
   -8.2860   19.8840  -33.0740 N   0  0  0  0  0  0  0  0  0  0  0  0
   -9.0340   20.7310  -32.1250 C   0  0  0  0  0  0  0  0  0  0  0  0
   -8.1960   21.8670  -31.5880 C   0  0  0  0  0  0  0  0  0  0  0  0
   -7.6190   22.7980  -32.4700 C   0  0  0  0  0  0  0  0  0  0  0  0
   -6.8270   23.8380  -31.9770 C   0  0  0  0  0  0  0  0  0  0  0  0
   -6.6010   23.9560  -30.6020 C   0  0  0  0  0  0  0  0  0  0  0  0
   -7.1680   23.0330  -29.7190 C   0  0  0  0  0  0  0  0  0  0  0  0
   -7.9620   21.9910  -30.2070 C   0  0  0  0  0  0  0  0  0  0  0  0
   -4.4910   20.6560  -32.4440 N   0  0  0  0  0  0  0  0  0  0  0  0
   -3.1830   20.6710  -32.7760 C   0  0  0  0  0  0  0  0  0  0  0  0
   -2.4800   21.5970  -32.0870 N   0  0  0  0  0  0  0  0  0  0  0  0
   -3.4040   22.1760  -31.2960 C   0  0  0  0  0  0  0  0  0  0  0  0
   -3.0460   23.4450  -30.1400 S   0  0  0  0  0  0  0  0  0  0  0  0
   -3.6870   24.7240  -30.5990 O   0  0  0  0  0  0  0  0  0  0  0  0
   -1.5570   23.6510  -30.0890 O   0  0  0  0  0  0  0  0  0  0  0  0
   -3.6420   23.0290  -28.4940 C   0  0  0  0  0  0  0  0  0  0  0  0
   -3.1130   23.9960  -27.4410 C   0  0  0  0  0  0  0  0  0  0  0  0
   -1.8670   23.3500  -26.8530 C   0  0  0  0  0  0  0  0  0  0  0  0
   -1.9650   21.8550  -27.1400 C   0  0  0  0  0  0  0  0  0  0  0  0
   -3.1720   21.6460  -28.0500 C   0  0  0  0  0  0  0  0  0  0  0  0
   -4.6390   21.6100  -31.5070 C   0  0  0  0  0  0  0  0  0  0  0  0
   -5.7418   17.8010  -32.2353 H   0  0  0  0  0  0  0  0  0  0  0  0
   -6.1540   19.1360  -31.0725 H   0  0  0  0  0  0  0  0  0  0  0  0
   -7.8241   17.8392  -33.1992 H   0  0  0  0  0  0  0  0  0  0  0  0
   -8.2542   18.4799  -31.5390 H   0  0  0  0  0  0  0  0  0  0  0  0
   -7.5060   20.4470  -33.4850 H   0  0  0  0  0  0  0  0  0  0  0  0
   -8.9190   19.6270  -33.8660 H   0  0  0  0  0  0  0  0  0  0  0  0
   -9.9105   21.1507  -32.6403 H   0  0  0  0  0  0  0  0  0  0  0  0
   -9.3322   20.1010  -31.2740 H   0  0  0  0  0  0  0  0  0  0  0  0
   -7.7919   22.7070  -33.5525 H   0  0  0  0  0  0  0  0  0  0  0  0
   -6.3806   24.5650  -32.6714 H   0  0  0  0  0  0  0  0  0  0  0  0
   -5.9770   24.7753  -30.2155 H   0  0  0  0  0  0  0  0  0  0  0  0
   -6.9891   23.1266  -28.6377 H   0  0  0  0  0  0  0  0  0  0  0  0
   -8.4051   21.2659  -29.5085 H   0  0  0  0  0  0  0  0  0  0  0  0
   -2.7372   20.0017  -33.5265 H   0  0  0  0  0  0  0  0  0  0  0  0
   -4.7386   23.0739  -28.5683 H   0  0  0  0  0  0  0  0  0  0  0  0
   -2.8590   24.9610  -27.9038 H   0  0  0  0  0  0  0  0  0  0  0  0
   -3.8664   24.1907  -26.6635 H   0  0  0  0  0  0  0  0  0  0  0  0
   -0.9657   23.7675  -27.3255 H   0  0  0  0  0  0  0  0  0  0  0  0
   -1.7984   23.5395  -25.7716 H   0  0  0  0  0  0  0  0  0  0  0  0
   -1.0502   21.5073  -27.6422 H   0  0  0  0  0  0  0  0  0  0  0  0
   -2.0784   21.2856  -26.2057 H   0  0  0  0  0  0  0  0  0  0  0  0
   -2.8851   21.0455  -28.9258 H   0  0  0  0  0  0  0  0  0  0  0  0
   -3.9740   21.1103  -27.5210 H   0  0  0  0  0  0  0  0  0  0  0  0
   -5.5764   21.8865  -31.0022 H   0  0  0  0  0  0  0  0  0  0  0  0
  1  2  2  0
  2  3  1  0
  3  4  1  0
  4  5  1  0
  5  6  1  0
  6  7  1  0
  7  8  2  0
  8  9  1  0
  9 10  2  0
 10 11  1  0
 11 12  2  0
  2 13  1  0
 13 14  1  0
 14 15  2  0
 15 16  1  0
 16 17  1  0
 17 18  2  0
 17 19  2  0
 17 20  1  0
 20 21  1  0
 21 22  1  0
 22 23  1  0
 23 24  1  0
 16 25  2  0
 12  7  1  0
 25 13  1  0
 24 20  1  0
  3 26  1  0
  3 27  1  0
  4 28  1  0
  4 29  1  0
  5 30  1  0
  5 31  1  0
  6 32  1  0
  6 33  1  0
  8 34  1  0
  9 35  1  0
 10 36  1  0
 11 37  1  0
 12 38  1  0
 14 39  1  0
 20 40  1  0
 21 41  1  0
 21 42  1  0
 22 43  1  0
 22 44  1  0
 23 45  1  0
 23 46  1  0
 24 47  1  0
 24 48  1  0
 25 49  1  0
M  CHG  1   5   1
M  END
>  <UniqueID>  (28) 
27

>  <SMILES>  (28) 
O=C(CC[NH2+]Cc1ccccc1)n1cnc(S(=O)(=O)C2CCCC2)c1

>  <Energy>  (28) 
74.90441129908777

>  <Genealogy>  (28) 
O=C(CC[NH2+]Cc1ccccc1)n1cnc(S(=O)(=O)C2CCCC2)c1 (protonated)
O=C(CC[NH2+]Cc1ccccc1)n1cnc(S(=O)(=O)C2CCCC2)c1 (3D coordinates assigned)
O=C(CC[NH2+]Cc1ccccc1)n1cnc(S(=O)(=O)C2CCCC2)c1 (nonaromatic ring conformer: 74.90441129908777 kcal/mol)

>  <smiles>  (28) 
O=C(CCNCc1ccccc1)n1cnc(S(=O)(=O)C2CCCC2)c1

>  <score_type>  (28) 
oracle

>  <origin>  (28) 
adg

>  <m_score__min__energy>  (28) 
-8.3900000000000006

>  <m_primary>  (28) 
energy

$$$$
28:0
     RDKit          3D

 37 38  0  0  0  0  0  0  0  0999 V2000
   -3.0520   18.9060  -26.3150 C   0  0  0  0  0  0  0  0  0  0  0  0
   -2.4740   19.3980  -27.5190 O   0  0  0  0  0  0  0  0  0  0  0  0
   -2.5250   20.7380  -27.9300 C   0  0  0  0  0  0  0  0  0  0  0  0
   -3.5430   21.6170  -27.5110 C   0  0  0  0  0  0  0  0  0  0  0  0
   -3.5620   22.9390  -27.9660 C   0  0  0  0  0  0  0  0  0  0  0  0
   -2.5790   23.3950  -28.8550 C   0  0  0  0  0  0  0  0  0  0  0  0
   -2.6630   24.7600  -29.4000 C   0  0  0  0  0  0  0  0  0  0  0  0
   -1.9800   25.6740  -28.8700 O   0  0  0  0  0  0  0  0  0  0  0  0
   -3.5510   25.0900  -30.4780 N   0  0  0  0  0  0  0  0  0  0  0  0
   -4.9980   24.8710  -30.4880 C   0  0  0  0  0  0  0  0  0  0  0  0
   -5.3430   23.5540  -31.1370 C   0  0  0  0  0  0  0  0  0  0  0  0
   -6.6840   23.1680  -31.2870 C   0  0  0  0  0  0  0  0  0  0  0  0
   -7.0020   21.9130  -31.8120 C   0  0  0  0  0  0  0  0  0  0  0  0
   -5.9850   21.0270  -32.1970 C   0  0  0  0  0  0  0  0  0  0  0  0
   -6.3870   19.4320  -32.8320 S   0  0  0  0  0  0  0  0  0  0  0  0
   -6.4930   19.4990  -34.5560 N   0  0  0  0  0  0  0  0  0  0  0  0
   -7.7030   18.9700  -32.2740 O   0  0  0  0  0  0  0  0  0  0  0  0
   -5.3230   18.4490  -32.4290 O   0  0  0  0  0  0  0  0  0  0  0  0
   -4.6440   21.4240  -32.0810 C   0  0  0  0  0  0  0  0  0  0  0  0
   -3.6410   20.5910  -32.4570 F   0  0  0  0  0  0  0  0  0  0  0  0
   -4.3270   22.6820  -31.5610 C   0  0  0  0  0  0  0  0  0  0  0  0
   -1.5530   22.5280  -29.2540 C   0  0  0  0  0  0  0  0  0  0  0  0
   -1.5270   21.2090  -28.7910 C   0  0  0  0  0  0  0  0  0  0  0  0
   -2.5329   19.3479  -25.4517 H   0  0  0  0  0  0  0  0  0  0  0  0
   -4.1171   19.1788  -26.2814 H   0  0  0  0  0  0  0  0  0  0  0  0
   -2.9528   17.8110  -26.2814 H   0  0  0  0  0  0  0  0  0  0  0  0
   -4.3253   21.2623  -26.8238 H   0  0  0  0  0  0  0  0  0  0  0  0
   -4.3519   23.6242  -27.6247 H   0  0  0  0  0  0  0  0  0  0  0  0
   -5.3683   24.8691  -29.4522 H   0  0  0  0  0  0  0  0  0  0  0  0
   -5.4699   25.6795  -31.0656 H   0  0  0  0  0  0  0  0  0  0  0  0
   -7.4884   23.8569  -30.9898 H   0  0  0  0  0  0  0  0  0  0  0  0
   -8.0558   21.6180  -31.9241 H   0  0  0  0  0  0  0  0  0  0  0  0
   -6.7010   18.5300  -34.8860 H   0  0  0  0  0  0  0  0  0  0  0  0
   -7.3290   20.0810  -34.7900 H   0  0  0  0  0  0  0  0  0  0  0  0
   -3.2742   22.9913  -31.4833 H   0  0  0  0  0  0  0  0  0  0  0  0
   -0.7657   22.8862  -29.9335 H   0  0  0  0  0  0  0  0  0  0  0  0
   -0.7158   20.5361  -29.1059 H   0  0  0  0  0  0  0  0  0  0  0  0
  1  2  1  0
  2  3  1  0
  3  4  2  0
  4  5  1  0
  5  6  2  0
  6  7  1  0
  7  8  2  0
  7  9  1  0
  9 10  1  0
 10 11  1  0
 11 12  2  0
 12 13  1  0
 13 14  2  0
 14 15  1  0
 15 16  1  0
 15 17  2  0
 15 18  2  0
 14 19  1  0
 19 20  1  0
 19 21  2  0
  6 22  1  0
 22 23  2  0
 23  3  1  0
 21 11  1  0
  1 24  1  0
  1 25  1  0
  1 26  1  0
  4 27  1  0
  5 28  1  0
 10 29  1  0
 10 30  1  0
 12 31  1  0
 13 32  1  0
 16 33  1  0
 16 34  1  0
 21 35  1  0
 22 36  1  0
 23 37  1  0
M  CHG  1   9  -1
M  END
>  <UniqueID>  (29) 
28

>  <SMILES>  (29) 
COc1ccc(C(=O)[N-]Cc2ccc(S(N)(=O)=O)c(F)c2)cc1

>  <Energy>  (29) 
37.529566109704284

>  <Genealogy>  (29) 
COc1ccc(C(=O)[N-]Cc2ccc(S(N)(=O)=O)c(F)c2)cc1 (protonated)
COc1ccc(C(=O)[N-]Cc2ccc(S(N)(=O)=O)c(F)c2)cc1 (3D coordinates assigned)
COc1ccc(C(=O)[N-]Cc2ccc(S(N)(=O)=O)c(F)c2)cc1 (optimized conformer: 37.529566109704284 kcal/mol)

>  <smiles>  (29) 
COc1ccc(C(=O)NCc2ccc(S(N)(=O)=O)c(F)c2)cc1

>  <score_type>  (29) 
oracle

>  <origin>  (29) 
adg

>  <m_score__min__energy>  (29) 
-9.7400000000000002

>  <m_primary>  (29) 
energy

$$$$
29:0
     RDKit          3D

 74 77  0  0  0  0  0  0  0  0999 V2000
   -5.2800   25.1920  -30.8370 C   0  0  0  0  0  0  0  0  0  0  0  0
   -4.5380   24.5800  -30.1120 C   0  0  0  0  0  0  0  0  0  0  0  0
   -3.6370   23.8330  -29.2240 C   0  0  0  0  0  0  0  0  0  0  0  0
   -2.9060   22.7980  -29.9730 N   0  0  0  0  0  0  0  0  0  0  0  0
   -1.4890   22.5750  -29.6330 C   0  0  0  0  0  0  0  0  0  0  0  0
   -1.2960   21.3010  -28.8440 C   0  0  0  0  0  0  0  0  0  0  0  0
   -0.2620   20.3940  -29.1520 C   0  0  0  0  0  0  0  0  0  0  0  0
   -0.1230   19.2090  -28.4230 C   0  0  0  0  0  0  0  0  0  0  0  0
   -1.0230   18.9060  -27.3980 C   0  0  0  0  0  0  0  0  0  0  0  0
   -2.0660   19.7860  -27.1030 C   0  0  0  0  0  0  0  0  0  0  0  0
   -2.2090   20.9730  -27.8280 C   0  0  0  0  0  0  0  0  0  0  0  0
   -3.5710   21.9730  -30.9660 C   0  0  0  0  0  0  0  0  0  0  0  0
   -4.2540   20.7980  -30.5890 C   0  0  0  0  0  0  0  0  0  0  0  0
   -4.9160   20.0180  -31.5400 C   0  0  0  0  0  0  0  0  0  0  0  0
   -4.8810   20.3720  -32.8960 C   0  0  0  0  0  0  0  0  0  0  0  0
   -5.5700   19.5540  -33.9150 C   0  0  0  0  0  0  0  0  0  0  0  0
   -6.5600   20.0420  -34.5190 O   0  0  0  0  0  0  0  0  0  0  0  0
   -5.1230   18.2380  -34.2760 N   0  0  0  0  0  0  0  0  0  0  0  0
   -5.3870   17.0010  -33.5390 C   0  0  1  0  0  0  0  0  0  0  0  0
   -4.0790   16.4560  -32.9510 C   0  0  0  0  0  0  0  0  0  0  0  0
   -2.8920   16.9350  -33.7340 C   0  0  0  0  0  0  0  0  0  0  0  0
   -2.4610   16.4380  -34.9620 C   0  0  0  0  0  0  0  0  0  0  0  0
   -1.4140   17.1590  -35.4220 N   0  0  0  0  0  0  0  0  0  0  0  0
   -1.1880   18.1150  -34.5030 C   0  0  0  0  0  0  0  0  0  0  0  0
   -0.2250   19.1200  -34.5510 C   0  0  0  0  0  0  0  0  0  0  0  0
   -0.1810   20.0400  -33.4900 C   0  0  0  0  0  0  0  0  0  0  0  0
   -1.0980   19.9410  -32.4180 C   0  0  0  0  0  0  0  0  0  0  0  0
   -2.0620   18.9180  -32.3980 C   0  0  0  0  0  0  0  0  0  0  0  0
   -2.0750   18.0150  -33.4600 C   0  0  0  0  0  0  0  0  0  0  0  0
   -6.3780   17.2430  -32.4330 C   0  0  0  0  0  0  0  0  0  0  0  0
   -6.1790   16.7420  -31.2920 O   0  0  0  0  0  0  0  0  0  0  0  0
   -7.5610   18.0100  -32.6880 N   0  0  0  0  0  0  0  0  0  0  0  0
   -8.5600   18.2470  -31.6460 C   0  0  0  0  0  0  0  0  0  0  0  0
   -9.1180   19.6780  -31.7110 C   0  0  0  0  0  0  0  0  0  0  0  0
   -8.1060   20.7710  -31.3070 C   0  0  0  0  0  0  0  0  0  0  0  0
   -8.5220   22.2110  -31.6580 C   0  0  0  0  0  0  0  0  0  0  0  0
   -7.3960   23.0200  -32.3000 C   0  0  0  0  0  0  0  0  0  0  0  0
   -4.2100   21.5390  -33.2810 C   0  0  0  0  0  0  0  0  0  0  0  0
   -3.5590   22.3300  -32.3300 C   0  0  0  0  0  0  0  0  0  0  0  0
   -5.9576   25.7509  -31.4991 H   0  0  0  0  0  0  0  0  0  0  0  0
   -2.9150   24.5299  -28.7734 H   0  0  0  0  0  0  0  0  0  0  0  0
   -4.2370   23.3451  -28.4417 H   0  0  0  0  0  0  0  0  0  0  0  0
   -0.9055   22.5098  -30.5632 H   0  0  0  0  0  0  0  0  0  0  0  0
   -1.1494   23.4170  -29.0120 H   0  0  0  0  0  0  0  0  0  0  0  0
    0.4387   20.6194  -29.9695 H   0  0  0  0  0  0  0  0  0  0  0  0
    0.6967   18.5137  -28.6569 H   0  0  0  0  0  0  0  0  0  0  0  0
   -0.9098   17.9746  -26.8238 H   0  0  0  0  0  0  0  0  0  0  0  0
   -2.7766   19.5450  -26.2987 H   0  0  0  0  0  0  0  0  0  0  0  0
   -3.0421   21.6546  -27.6013 H   0  0  0  0  0  0  0  0  0  0  0  0
   -4.2655   20.4919  -29.5325 H   0  0  0  0  0  0  0  0  0  0  0  0
   -5.4680   19.1208  -31.2231 H   0  0  0  0  0  0  0  0  0  0  0  0
   -5.8113   16.2634  -34.2361 H   0  0  0  0  0  0  0  0  0  0  0  0
   -3.9837   16.7976  -31.9097 H   0  0  0  0  0  0  0  0  0  0  0  0
   -4.1070   15.3573  -32.9973 H   0  0  0  0  0  0  0  0  0  0  0  0
   -2.9094   15.5798  -35.4839 H   0  0  0  0  0  0  0  0  0  0  0  0
   -0.9020   17.0120  -36.3220 H   0  0  0  0  0  0  0  0  0  0  0  0
    0.4791   19.1913  -35.3932 H   0  0  0  0  0  0  0  0  0  0  0  0
    0.5715   20.8424  -33.4932 H   0  0  0  0  0  0  0  0  0  0  0  0
   -1.0567   20.6691  -31.5945 H   0  0  0  0  0  0  0  0  0  0  0  0
   -2.7826   18.8328  -31.5713 H   0  0  0  0  0  0  0  0  0  0  0  0
   -7.6930   18.4220  -33.6380 H   0  0  0  0  0  0  0  0  0  0  0  0
   -9.3880   17.5348  -31.7769 H   0  0  0  0  0  0  0  0  0  0  0  0
   -8.0754   18.1111  -30.6679 H   0  0  0  0  0  0  0  0  0  0  0  0
   -9.4442   19.8745  -32.7430 H   0  0  0  0  0  0  0  0  0  0  0  0
   -9.9437   19.7284  -30.9859 H   0  0  0  0  0  0  0  0  0  0  0  0
   -7.9607   20.7145  -30.2181 H   0  0  0  0  0  0  0  0  0  0  0  0
   -7.1913   20.5683  -31.8833 H   0  0  0  0  0  0  0  0  0  0  0  0
   -9.3679   22.1699  -32.3600 H   0  0  0  0  0  0  0  0  0  0  0  0
   -8.7919   22.7132  -30.7173 H   0  0  0  0  0  0  0  0  0  0  0  0
   -6.7719   23.4684  -31.5130 H   0  0  0  0  0  0  0  0  0  0  0  0
   -6.7787   22.3576  -32.9246 H   0  0  0  0  0  0  0  0  0  0  0  0
   -7.8268   23.8164  -32.9246 H   0  0  0  0  0  0  0  0  0  0  0  0
   -4.1950   21.8357  -34.3401 H   0  0  0  0  0  0  0  0  0  0  0  0
   -3.0316   23.2410  -32.6492 H   0  0  0  0  0  0  0  0  0  0  0  0
  1  2  3  0
  2  3  1  0
  3  4  1  0
  4  5  1  0
  5  6  1  0
  6  7  2  0
  7  8  1  0
  8  9  2  0
  9 10  1  0
 10 11  2  0
  4 12  1  0
 12 13  2  0
 13 14  1  0
 14 15  2  0
 15 16  1  0
 16 17  2  0
 16 18  1  0
 18 19  1  0
 19 20  1  0
 20 21  1  0
 21 22  2  0
 22 23  1  0
 23 24  1  0
 24 25  2  0
 25 26  1  0
 26 27  2  0
 27 28  1  0
 28 29  2  0
 19 30  1  0
 30 31  2  0
 30 32  1  0
 32 33  1  0
 33 34  1  0
 34 35  1  0
 35 36  1  0
 36 37  1  0
 15 38  1  0
 38 39  2  0
 11  6  1  0
 39 12  1  0
 29 21  1  0
 29 24  1  0
  1 40  1  0
  3 41  1  0
  3 42  1  0
  5 43  1  0
  5 44  1  0
  7 45  1  0
  8 46  1  0
  9 47  1  0
 10 48  1  0
 11 49  1  0
 13 50  1  0
 14 51  1  0
 19 52  1  6
 20 53  1  0
 20 54  1  0
 22 55  1  0
 23 56  1  0
 25 57  1  0
 26 58  1  0
 27 59  1  0
 28 60  1  0
 32 61  1  0
 33 62  1  0
 33 63  1  0
 34 64  1  0
 34 65  1  0
 35 66  1  0
 35 67  1  0
 36 68  1  0
 36 69  1  0
 37 70  1  0
 37 71  1  0
 37 72  1  0
 38 73  1  0
 39 74  1  0
M  CHG  1  18  -1
M  END
>  <UniqueID>  (30) 
29

>  <SMILES>  (30) 
C#CCN(Cc1ccccc1)c1ccc(C(=O)[N-][C@@H](Cc2c[nH]c3ccccc23)C(=O)NCCCCC)cc1

>  <Energy>  (30) 
99.81814091440522

>  <Genealogy>  (30) 
C#CCN(Cc1ccccc1)c1ccc(C(=O)[N-]C(Cc2c[nH]c3ccccc23)C(=O)NCCCCC)cc1 (protonated)
C#CCN(Cc1ccccc1)c1ccc(C(=O)[N-][C@@H](Cc2c[nH]c3ccccc23)C(=O)NCCCCC)cc1 (chirality)
C#CCN(Cc1ccccc1)c1ccc(C(=O)[N-][C@@H](Cc2c[nH]c3ccccc23)C(=O)NCCCCC)cc1 (3D coordinates assigned)
C#CCN(Cc1ccccc1)c1ccc(C(=O)[N-][C@@H](Cc2c[nH]c3ccccc23)C(=O)NCCCCC)cc1 (optimized conformer: 99.81814091440522 kcal/mol)

>  <smiles>  (30) 
C#CCN(Cc1ccccc1)c1ccc(C(=O)NC(Cc2c[nH]c3ccccc23)C(=O)NCCCCC)cc1

>  <score_type>  (30) 
oracle

>  <origin>  (30) 
adg

>  <m_score__min__energy>  (30) 
-12.33

>  <m_primary>  (30) 
energy

$$$$
30:0
     RDKit          3D

 50 53  0  0  0  0  0  0  0  0999 V2000
   -3.0130   25.3520  -25.9700 C   0  0  0  0  0  0  0  0  0  0  0  0
   -3.1570   24.3420  -27.0630 C   0  0  0  0  0  0  0  0  0  0  0  0
   -2.3620   23.2400  -27.0690 N   0  0  0  0  0  0  0  0  0  0  0  0
   -2.4420   22.3060  -28.0530 C   0  0  0  0  0  0  0  0  0  0  0  0
   -1.5610   21.1730  -28.0150 N   0  0  0  0  0  0  0  0  0  0  0  0
   -2.1190   19.8580  -27.6980 C   0  0  0  0  0  0  0  0  0  0  0  0
   -1.0350   18.9570  -27.0900 C   0  0  0  0  0  0  0  0  0  0  0  0
    0.2020   18.9340  -27.8970 N   0  0  0  0  0  0  0  0  0  0  0  0
    0.0560   18.1500  -29.1350 C   0  0  0  0  0  0  0  0  0  0  0  0
    0.7290   20.2920  -28.1440 C   0  0  0  0  0  0  0  0  0  0  0  0
   -0.3140   21.2240  -28.7770 C   0  0  0  0  0  0  0  0  0  0  0  0
   -3.3810   22.4720  -29.0900 C   0  0  0  0  0  0  0  0  0  0  0  0
   -3.5500   21.5220  -30.1120 C   0  0  0  0  0  0  0  0  0  0  0  0
   -4.4900   21.7370  -31.1220 C   0  0  0  0  0  0  0  0  0  0  0  0
   -5.2860   22.8910  -31.1210 C   0  0  0  0  0  0  0  0  0  0  0  0
   -6.2670   23.1350  -32.2360 C   0  0  0  0  0  0  0  0  0  0  0  0
   -7.3030   22.0410  -32.2700 C   0  0  0  0  0  0  0  0  0  0  0  0
   -8.5580   22.2440  -31.6720 C   0  0  0  0  0  0  0  0  0  0  0  0
   -9.5120   21.2240  -31.6660 C   0  0  0  0  0  0  0  0  0  0  0  0
   -9.2200   19.9890  -32.2500 C   0  0  0  0  0  0  0  0  0  0  0  0
   -7.9710   19.7720  -32.8390 C   0  0  0  0  0  0  0  0  0  0  0  0
   -7.0110   20.7900  -32.8480 C   0  0  0  0  0  0  0  0  0  0  0  0
   -5.8030   20.5540  -33.4180 F   0  0  0  0  0  0  0  0  0  0  0  0
   -5.1270   23.8380  -30.0980 C   0  0  0  0  0  0  0  0  0  0  0  0
   -4.1870   23.6310  -29.0760 C   0  0  0  0  0  0  0  0  0  0  0  0
   -4.0510   24.5410  -28.0700 N   0  0  0  0  0  0  0  0  0  0  0  0
   -3.0847   24.8491  -24.9943 H   0  0  0  0  0  0  0  0  0  0  0  0
   -2.0350   25.8482  -26.0558 H   0  0  0  0  0  0  0  0  0  0  0  0
   -3.8133   26.1017  -26.0558 H   0  0  0  0  0  0  0  0  0  0  0  0
   -2.9408   19.9759  -26.9764 H   0  0  0  0  0  0  0  0  0  0  0  0
   -2.4954   19.3947  -28.6219 H   0  0  0  0  0  0  0  0  0  0  0  0
   -0.7922   19.3280  -26.0833 H   0  0  0  0  0  0  0  0  0  0  0  0
   -1.4322   17.9317  -27.0593 H   0  0  0  0  0  0  0  0  0  0  0  0
   -0.1400   17.0977  -28.8816 H   0  0  0  0  0  0  0  0  0  0  0  0
   -0.7835   18.5478  -29.7241 H   0  0  0  0  0  0  0  0  0  0  0  0
    0.9824   18.2189  -29.7241 H   0  0  0  0  0  0  0  0  0  0  0  0
    1.0521   20.7242  -27.1855 H   0  0  0  0  0  0  0  0  0  0  0  0
    1.5669   20.2007  -28.8509 H   0  0  0  0  0  0  0  0  0  0  0  0
    0.0709   22.2545  -28.7766 H   0  0  0  0  0  0  0  0  0  0  0  0
   -0.5091   20.8980  -29.8093 H   0  0  0  0  0  0  0  0  0  0  0  0
   -2.9401   20.6066  -30.1162 H   0  0  0  0  0  0  0  0  0  0  0  0
   -4.6069   20.9946  -31.9252 H   0  0  0  0  0  0  0  0  0  0  0  0
   -6.7657   24.1022  -32.0753 H   0  0  0  0  0  0  0  0  0  0  0  0
   -5.7254   23.1447  -33.1934 H   0  0  0  0  0  0  0  0  0  0  0  0
   -8.7907   23.2126  -31.2055 H   0  0  0  0  0  0  0  0  0  0  0  0
  -10.4944   21.3933  -31.2009 H   0  0  0  0  0  0  0  0  0  0  0  0
   -9.9730   19.1872  -32.2464 H   0  0  0  0  0  0  0  0  0  0  0  0
   -7.7422   18.7983  -33.2967 H   0  0  0  0  0  0  0  0  0  0  0  0
   -5.7433   24.7492  -30.0967 H   0  0  0  0  0  0  0  0  0  0  0  0
   -4.6460   25.4020  -28.0600 H   0  0  0  0  0  0  0  0  0  0  0  0
  1  2  1  0
  2  3  2  0
  3  4  1  0
  4  5  1  0
  5  6  1  0
  6  7  1  0
  7  8  1  0
  8  9  1  0
  8 10  1  0
 10 11  1  0
  4 12  2  0
 12 13  1  0
 13 14  2  0
 14 15  1  0
 15 16  1  0
 16 17  1  0
 17 18  2  0
 18 19  1  0
 19 20  2  0
 20 21  1  0
 21 22  2  0
 22 23  1  0
 15 24  2  0
 24 25  1  0
 25 26  2  0
 26  2  1  0
 11  5  1  0
 25 12  1  0
 22 17  1  0
  1 27  1  0
  1 28  1  0
  1 29  1  0
  6 30  1  0
  6 31  1  0
  7 32  1  0
  7 33  1  0
  9 34  1  0
  9 35  1  0
  9 36  1  0
 10 37  1  0
 10 38  1  0
 11 39  1  0
 11 40  1  0
 13 41  1  0
 14 42  1  0
 16 43  1  0
 16 44  1  0
 18 45  1  0
 19 46  1  0
 20 47  1  0
 21 48  1  0
 24 49  1  0
 26 50  1  0
M  CHG  1  26   1
M  END
>  <UniqueID>  (31) 
30

>  <SMILES>  (31) 
Cc1nc(N2CCN(C)CC2)c2ccc(Cc3ccccc3F)cc2[nH+]1

>  <Energy>  (31) 
61.51266272519764

>  <Genealogy>  (31) 
Cc1nc(N2CCN(C)CC2)c2ccc(Cc3ccccc3F)cc2[nH+]1 (protonated)
Cc1nc(N2CCN(C)CC2)c2ccc(Cc3ccccc3F)cc2[nH+]1 (3D coordinates assigned)
Cc1nc(N2CCN(C)CC2)c2ccc(Cc3ccccc3F)cc2[nH+]1 (nonaromatic ring conformer: 61.51266272519764 kcal/mol)

>  <smiles>  (31) 
Cc1nc(N2CCN(C)CC2)c2ccc(Cc3ccccc3F)cc2n1

>  <score_type>  (31) 
oracle

>  <origin>  (31) 
adg

>  <m_score__min__energy>  (31) 
-8.0399999999999991

>  <m_primary>  (31) 
energy

$$$$
31:0
     RDKit          3D

 41 44  0  0  0  0  0  0  0  0999 V2000
   -8.4920   22.3440  -31.1640 C   0  0  0  0  0  0  0  0  0  0  0  0
   -7.1070   22.9310  -31.2620 C   0  0  0  0  0  0  0  0  0  0  0  0
   -6.9080   24.2320  -30.7760 C   0  0  0  0  0  0  0  0  0  0  0  0
   -5.6430   24.8100  -30.8460 C   0  0  0  0  0  0  0  0  0  0  0  0
   -5.4610   25.9780  -30.4120 O   0  0  0  0  0  0  0  0  0  0  0  0
   -4.6270   24.1410  -31.3700 O   0  0  0  0  0  0  0  0  0  0  0  0
   -4.7470   22.9070  -31.8480 C   0  0  0  0  0  0  0  0  0  0  0  0
   -3.6150   22.2830  -32.3780 C   0  0  0  0  0  0  0  0  0  0  0  0
   -3.6960   20.9920  -32.8920 C   0  0  0  0  0  0  0  0  0  0  0  0
   -4.9170   20.3120  -32.8940 C   0  0  0  0  0  0  0  0  0  0  0  0
   -6.0670   20.9140  -32.3460 C   0  0  0  0  0  0  0  0  0  0  0  0
   -5.9980   22.2340  -31.8210 C   0  0  0  0  0  0  0  0  0  0  0  0
   -7.2660   20.1900  -32.3570 O   0  0  0  0  0  0  0  0  0  0  0  0
   -7.3210   18.8170  -32.7390 C   0  0  0  0  0  0  0  0  0  0  0  0
   -6.3740   18.5650  -33.8420 N   0  0  2  0  0  0  0  0  0  0  0  0
   -6.4880   17.1910  -34.3930 C   0  0  0  0  0  0  0  0  0  0  0  0
   -5.3100   16.2880  -34.0710 C   0  0  0  0  0  0  0  0  0  0  0  0
   -5.3320   15.4940  -32.9100 C   0  0  0  0  0  0  0  0  0  0  0  0
   -4.2540   14.6590  -32.6030 C   0  0  0  0  0  0  0  0  0  0  0  0
   -3.1380   14.6190  -33.4430 C   0  0  0  0  0  0  0  0  0  0  0  0
   -3.0970   15.4160  -34.5880 C   0  0  0  0  0  0  0  0  0  0  0  0
   -4.1730   16.2540  -34.9030 C   0  0  0  0  0  0  0  0  0  0  0  0
   -4.1000   17.0330  -36.0120 F   0  0  0  0  0  0  0  0  0  0  0  0
   -4.9960   18.8980  -33.4170 C   0  0  0  0  0  0  0  0  0  0  0  0
   -8.7668   22.2275  -30.1053 H   0  0  0  0  0  0  0  0  0  0  0  0
   -9.2104   23.0150  -31.6576 H   0  0  0  0  0  0  0  0  0  0  0  0
   -8.5094   21.3611  -31.6576 H   0  0  0  0  0  0  0  0  0  0  0  0
   -7.7481   24.7934  -30.3413 H   0  0  0  0  0  0  0  0  0  0  0  0
   -2.6527   22.8158  -32.3892 H   0  0  0  0  0  0  0  0  0  0  0  0
   -2.7966   20.5057  -33.2977 H   0  0  0  0  0  0  0  0  0  0  0  0
   -7.0535   18.1876  -31.8775 H   0  0  0  0  0  0  0  0  0  0  0  0
   -8.3403   18.5745  -33.0739 H   0  0  0  0  0  0  0  0  0  0  0  0
   -6.6270   19.2160  -34.6250 H   0  0  0  0  0  0  0  0  0  0  0  0
   -7.3980   16.7296  -33.9820 H   0  0  0  0  0  0  0  0  0  0  0  0
   -6.5167   17.2924  -35.4879 H   0  0  0  0  0  0  0  0  0  0  0  0
   -6.2032   15.5305  -32.2394 H   0  0  0  0  0  0  0  0  0  0  0  0
   -4.2841   14.0327  -31.6992 H   0  0  0  0  0  0  0  0  0  0  0  0
   -2.2916   13.9592  -33.2017 H   0  0  0  0  0  0  0  0  0  0  0  0
   -2.2156   15.3855  -35.2455 H   0  0  0  0  0  0  0  0  0  0  0  0
   -4.6869   18.2029  -32.6224 H   0  0  0  0  0  0  0  0  0  0  0  0
   -4.3299   18.8091  -34.2879 H   0  0  0  0  0  0  0  0  0  0  0  0
  1  2  1  0
  2  3  2  0
  3  4  1  0
  4  5  2  0
  4  6  1  0
  6  7  1  0
  7  8  2  0
  8  9  1  0
  9 10  2  0
 10 11  1  0
 11 12  2  0
 11 13  1  0
 13 14  1  0
 14 15  1  0
 15 16  1  0
 16 17  1  0
 17 18  2  0
 18 19  1  0
 19 20  2  0
 20 21  1  0
 21 22  2  0
 22 23  1  0
 15 24  1  0
 12  2  1  0
 22 17  1  0
 12  7  1  0
 24 10  1  0
  1 25  1  0
  1 26  1  0
  1 27  1  0
  3 28  1  0
  8 29  1  0
  9 30  1  0
 14 31  1  0
 14 32  1  0
 15 33  1  6
 16 34  1  0
 16 35  1  0
 18 36  1  0
 19 37  1  0
 20 38  1  0
 21 39  1  0
 24 40  1  0
 24 41  1  0
M  CHG  1  15   1
M  END
>  <UniqueID>  (32) 
31

>  <SMILES>  (32) 
Cc1cc(=O)oc2ccc3c(c12)OC[N@H+](Cc1ccccc1F)C3

>  <Energy>  (32) 
59.94929632158727

>  <Genealogy>  (32) 
Cc1cc(=O)oc2ccc3c(c12)OC[NH+](Cc1ccccc1F)C3 (protonated)
Cc1cc(=O)oc2ccc3c(c12)OC[N@H+](Cc1ccccc1F)C3 (chirality)
Cc1cc(=O)oc2ccc3c(c12)OC[N@H+](Cc1ccccc1F)C3 (3D coordinates assigned)
Cc1cc(=O)oc2ccc3c(c12)OC[N@H+](Cc1ccccc1F)C3 (nonaromatic ring conformer: 59.94929632158727 kcal/mol)

>  <smiles>  (32) 
Cc1cc(=O)oc2ccc3c(c12)OCN(Cc1ccccc1F)C3

>  <score_type>  (32) 
oracle

>  <origin>  (32) 
adg

>  <m_score__min__energy>  (32) 
-7.71

>  <m_primary>  (32) 
energy

$$$$
32:0
     RDKit          3D

 49 51  0  0  0  0  0  0  0  0999 V2000
   -0.5030   20.7030  -34.6020 C   0  0  0  0  0  0  0  0  0  0  0  0
   -1.3220   21.5420  -33.7940 O   0  0  0  0  0  0  0  0  0  0  0  0
   -1.5660   21.3300  -32.4320 C   0  0  0  0  0  0  0  0  0  0  0  0
   -0.5260   21.0860  -31.5110 C   0  0  0  0  0  0  0  0  0  0  0  0
   -0.8170   20.8340  -30.1690 C   0  0  0  0  0  0  0  0  0  0  0  0
   -2.1420   20.8170  -29.7340 C   0  0  0  0  0  0  0  0  0  0  0  0
   -3.1770   21.0710  -30.6320 C   0  0  0  0  0  0  0  0  0  0  0  0
   -2.8940   21.3480  -31.9740 C   0  0  0  0  0  0  0  0  0  0  0  0
   -4.2420   21.7550  -33.0910 S   0  0  0  0  0  0  0  0  0  0  0  0
   -4.7060   20.0250  -33.2980 C   0  0  0  0  0  0  0  0  0  0  0  0
   -3.7170   19.1330  -33.5690 N   0  0  0  0  0  0  0  0  0  0  0  0
   -3.9530   17.7990  -33.6860 C   0  0  0  0  0  0  0  0  0  0  0  0
   -5.2400   17.3040  -33.4980 C   0  0  0  0  0  0  0  0  0  0  0  0
   -6.2770   18.1840  -33.2200 C   0  0  0  0  0  0  0  0  0  0  0  0
   -6.0320   19.5670  -33.1240 C   0  0  0  0  0  0  0  0  0  0  0  0
   -7.1710   20.4780  -32.8570 C   0  0  0  0  0  0  0  0  0  0  0  0
   -8.2890   20.2710  -33.4000 O   0  0  0  0  0  0  0  0  0  0  0  0
   -7.0200   21.5720  -31.9420 N   0  0  0  0  0  0  0  0  0  0  0  0
   -8.0390   21.8740  -30.9370 C   0  0  0  0  0  0  0  0  0  0  0  0
   -7.4260   22.6080  -29.7380 C   0  0  0  0  0  0  0  0  0  0  0  0
   -6.2590   23.4120  -30.1650 N   0  0  0  0  0  0  0  0  0  0  0  0
   -6.5960   24.8530  -30.2220 C   0  0  0  0  0  0  0  0  0  0  0  0
   -5.3600   25.6800  -30.6460 C   0  0  0  0  0  0  0  0  0  0  0  0
   -4.2200   24.8610  -30.8380 O   0  0  0  0  0  0  0  0  0  0  0  0
   -3.9430   24.1450  -29.6460 C   0  0  0  0  0  0  0  0  0  0  0  0
   -5.1180   23.2200  -29.2500 C   0  0  0  0  0  0  0  0  0  0  0  0
    0.1190   20.0658  -33.9561 H   0  0  0  0  0  0  0  0  0  0  0  0
   -1.1403   20.0701  -35.2370 H   0  0  0  0  0  0  0  0  0  0  0  0
    0.1451   21.3249  -35.2370 H   0  0  0  0  0  0  0  0  0  0  0  0
    0.5198   21.0943  -31.8519 H   0  0  0  0  0  0  0  0  0  0  0  0
   -0.0012   20.6489  -29.4547 H   0  0  0  0  0  0  0  0  0  0  0  0
   -2.3706   20.6026  -28.6796 H   0  0  0  0  0  0  0  0  0  0  0  0
   -4.2205   21.0537  -30.2844 H   0  0  0  0  0  0  0  0  0  0  0  0
   -3.1284   17.1126  -33.9287 H   0  0  0  0  0  0  0  0  0  0  0  0
   -5.4341   16.2236  -33.5692 H   0  0  0  0  0  0  0  0  0  0  0  0
   -7.2967   17.7982  -33.0738 H   0  0  0  0  0  0  0  0  0  0  0  0
   -6.0640   21.9680  -31.7940 H   0  0  0  0  0  0  0  0  0  0  0  0
   -8.8142   22.5094  -31.3901 H   0  0  0  0  0  0  0  0  0  0  0  0
   -8.4750   20.9278  -30.5839 H   0  0  0  0  0  0  0  0  0  0  0  0
   -8.1820   23.2735  -29.2956 H   0  0  0  0  0  0  0  0  0  0  0  0
   -7.0950   21.8654  -28.9970 H   0  0  0  0  0  0  0  0  0  0  0  0
   -7.4035   25.0076  -30.9528 H   0  0  0  0  0  0  0  0  0  0  0  0
   -6.9206   25.1830  -29.2241 H   0  0  0  0  0  0  0  0  0  0  0  0
   -5.5865   26.2016  -31.5876 H   0  0  0  0  0  0  0  0  0  0  0  0
   -5.1352   26.3960  -29.8418 H   0  0  0  0  0  0  0  0  0  0  0  0
   -3.0424   23.5322  -29.7990 H   0  0  0  0  0  0  0  0  0  0  0  0
   -3.7905   24.8729  -28.8355 H   0  0  0  0  0  0  0  0  0  0  0  0
   -4.7864   22.1723  -29.3000 H   0  0  0  0  0  0  0  0  0  0  0  0
   -5.4370   23.4689  -28.2271 H   0  0  0  0  0  0  0  0  0  0  0  0
  1  2  1  0
  2  3  1  0
  3  4  2  0
  4  5  1  0
  5  6  2  0
  6  7  1  0
  7  8  2  0
  8  9  1  0
  9 10  1  0
 10 11  2  0
 11 12  1  0
 12 13  2  0
 13 14  1  0
 14 15  2  0
 15 16  1  0
 16 17  2  0
 16 18  1  0
 18 19  1  0
 19 20  1  0
 20 21  1  0
 21 22  1  0
 22 23  1  0
 23 24  1  0
 24 25  1  0
 25 26  1  0
  8  3  1  0
 15 10  1  0
 26 21  1  0
  1 27  1  0
  1 28  1  0
  1 29  1  0
  4 30  1  0
  5 31  1  0
  6 32  1  0
  7 33  1  0
 12 34  1  0
 13 35  1  0
 14 36  1  0
 18 37  1  0
 19 38  1  0
 19 39  1  0
 20 40  1  0
 20 41  1  0
 22 42  1  0
 22 43  1  0
 23 44  1  0
 23 45  1  0
 25 46  1  0
 25 47  1  0
 26 48  1  0
 26 49  1  0
M  END
>  <UniqueID>  (33) 
32

>  <SMILES>  (33) 
COc1ccccc1Sc1ncccc1C(=O)NCCN1CCOCC1

>  <Energy>  (33) 
59.061119354295364

>  <Genealogy>  (33) 
COc1ccccc1Sc1ncccc1C(=O)NCCN1CCOCC1 (3D coordinates assigned)
COc1ccccc1Sc1ncccc1C(=O)NCCN1CCOCC1 (nonaromatic ring conformer: 59.061119354295364 kcal/mol)

>  <smiles>  (33) 
COc1ccccc1Sc1ncccc1C(=O)NCCN1CCOCC1

>  <score_type>  (33) 
oracle

>  <origin>  (33) 
adg

>  <m_score__min__energy>  (33) 
-7.9900000000000002

>  <m_primary>  (33) 
energy

$$$$
33:0
     RDKit          3D

 37 39  0  0  0  0  0  0  0  0999 V2000
   -2.6880   21.2780  -33.1280 C   0  0  0  0  0  0  0  0  0  0  0  0
   -4.1170   21.0810  -32.7340 C   0  0  0  0  0  0  0  0  0  0  0  0
   -4.7480   19.9210  -33.0520 N   0  0  0  0  0  0  0  0  0  0  0  0
   -6.0380   19.7010  -32.6920 C   0  0  0  0  0  0  0  0  0  0  0  0
   -6.6610   18.4980  -33.0380 C   0  0  0  0  0  0  0  0  0  0  0  0
   -7.9920   18.2690  -32.6780 C   0  0  0  0  0  0  0  0  0  0  0  0
   -8.7050   19.2440  -31.9770 C   0  0  0  0  0  0  0  0  0  0  0  0
   -8.0890   20.4470  -31.6190 C   0  0  0  0  0  0  0  0  0  0  0  0
   -6.7460   20.6840  -31.9660 C   0  0  0  0  0  0  0  0  0  0  0  0
   -6.0570   21.8630  -31.6100 C   0  0  0  0  0  0  0  0  0  0  0  0
   -6.8260   23.1450  -30.5960 S   0  0  0  0  0  0  0  0  0  0  0  0
   -6.1980   24.5420  -31.5930 C   0  0  0  0  0  0  0  0  0  0  0  0
   -5.1590   25.3150  -30.8470 C   0  0  0  0  0  0  0  0  0  0  0  0
   -5.4460   26.4440  -30.3670 O   0  0  0  0  0  0  0  0  0  0  0  0
   -3.8460   24.7590  -30.7000 N   0  0  0  0  0  0  0  0  0  0  0  0
   -3.3170   24.0130  -29.5920 C   0  0  0  0  0  0  0  0  0  0  0  0
   -3.8550   22.7760  -29.1860 C   0  0  0  0  0  0  0  0  0  0  0  0
   -3.2660   22.0610  -28.1400 C   0  0  0  0  0  0  0  0  0  0  0  0
   -2.1360   22.5650  -27.4940 C   0  0  0  0  0  0  0  0  0  0  0  0
   -1.5870   23.7830  -27.8980 C   0  0  0  0  0  0  0  0  0  0  0  0
   -2.1700   24.5020  -28.9470 C   0  0  0  0  0  0  0  0  0  0  0  0
   -1.6160   25.6750  -29.3400 F   0  0  0  0  0  0  0  0  0  0  0  0
   -4.7690   22.0370  -32.0150 N   0  0  0  0  0  0  0  0  0  0  0  0
   -2.0669   21.3636  -32.2242 H   0  0  0  0  0  0  0  0  0  0  0  0
   -2.3503   20.4179  -33.7248 H   0  0  0  0  0  0  0  0  0  0  0  0
   -2.5956   22.1974  -33.7248 H   0  0  0  0  0  0  0  0  0  0  0  0
   -6.1028   17.7306  -33.5944 H   0  0  0  0  0  0  0  0  0  0  0  0
   -8.4784   17.3198  -32.9471 H   0  0  0  0  0  0  0  0  0  0  0  0
   -9.7557   19.0647  -31.7053 H   0  0  0  0  0  0  0  0  0  0  0  0
   -8.6554   21.2099  -31.0648 H   0  0  0  0  0  0  0  0  0  0  0  0
   -5.7562   24.1503  -32.5211 H   0  0  0  0  0  0  0  0  0  0  0  0
   -7.0385   25.2152  -31.8173 H   0  0  0  0  0  0  0  0  0  0  0  0
   -4.7425   22.3713  -29.6946 H   0  0  0  0  0  0  0  0  0  0  0  0
   -3.6941   21.0980  -27.8247 H   0  0  0  0  0  0  0  0  0  0  0  0
   -1.6783   22.0025  -26.6669 H   0  0  0  0  0  0  0  0  0  0  0  0
   -0.6945   24.1782  -27.3908 H   0  0  0  0  0  0  0  0  0  0  0  0
   -4.2660   22.9150  -31.7520 H   0  0  0  0  0  0  0  0  0  0  0  0
  1  2  1  0
  2  3  2  0
  3  4  1  0
  4  5  2  0
  5  6  1  0
  6  7  2  0
  7  8  1  0
  8  9  2  0
  9 10  1  0
 10 11  1  0
 11 12  1  0
 12 13  1  0
 13 14  2  0
 13 15  1  0
 15 16  1  0
 16 17  2  0
 17 18  1  0
 18 19  2  0
 19 20  1  0
 20 21  2  0
 21 22  1  0
 10 23  2  0
 23  2  1  0
  9  4  1  0
 21 16  1  0
  1 24  1  0
  1 25  1  0
  1 26  1  0
  5 27  1  0
  6 28  1  0
  7 29  1  0
  8 30  1  0
 12 31  1  0
 12 32  1  0
 17 33  1  0
 18 34  1  0
 19 35  1  0
 20 36  1  0
 23 37  1  0
M  CHG  2  15  -1  23   1
M  END
>  <UniqueID>  (34) 
33

>  <SMILES>  (34) 
Cc1nc2ccccc2c(SCC(=O)[N-]c2ccccc2F)[nH+]1

>  <Energy>  (34) 
37.798103155310415

>  <Genealogy>  (34) 
Cc1nc2ccccc2c(SCC(=O)[N-]c2ccccc2F)[nH+]1 (protonated)
Cc1nc2ccccc2c(SCC(=O)[N-]c2ccccc2F)[nH+]1 (3D coordinates assigned)
Cc1nc2ccccc2c(SCC(=O)[N-]c2ccccc2F)[nH+]1 (optimized conformer: 37.798103155310415 kcal/mol)

>  <smiles>  (34) 
Cc1nc(SCC(=O)Nc2ccccc2F)c2ccccc2n1

>  <score_type>  (34) 
oracle

>  <origin>  (34) 
adg

>  <m_score__min__energy>  (34) 
-9.8100000000000005

>  <m_primary>  (34) 
energy

$$$$
34:0
     RDKit          3D

 30 32  0  0  0  0  0  0  0  0999 V2000
   -6.0730   17.4520  -34.1700 C   0  0  0  0  0  0  0  0  0  0  0  0
   -6.8400   18.1730  -33.2120 O   0  0  0  0  0  0  0  0  0  0  0  0
   -6.5320   19.4660  -32.7650 C   0  0  0  0  0  0  0  0  0  0  0  0
   -7.5610   20.4370  -32.7670 C   0  0  0  0  0  0  0  0  0  0  0  0
   -7.3180   21.7510  -32.3290 C   0  0  0  0  0  0  0  0  0  0  0  0
   -6.0320   22.0640  -31.9030 C   0  0  0  0  0  0  0  0  0  0  0  0
   -5.4940   23.2330  -31.4100 C   0  0  0  0  0  0  0  0  0  0  0  0
   -4.1850   22.9330  -31.1030 C   0  0  0  0  0  0  0  0  0  0  0  0
   -3.8780   21.6500  -31.3980 N   0  0  0  0  0  0  0  0  0  0  0  0
   -5.0220   21.1300  -31.8900 C   0  0  0  0  0  0  0  0  0  0  0  0
   -5.2350   19.8200  -32.3130 C   0  0  0  0  0  0  0  0  0  0  0  0
   -3.3210   23.9310  -30.4820 C   0  0  0  0  0  0  0  0  0  0  0  0
   -2.1670   23.6430  -30.0720 O   0  0  0  0  0  0  0  0  0  0  0  0
   -3.8520   25.2520  -30.3130 N   0  0  0  0  0  0  0  0  0  0  0  0
   -5.0750   25.6700  -31.0160 C   0  0  0  0  0  0  0  0  0  0  0  0
   -6.1480   24.5450  -31.0570 C   0  0  2  0  0  0  0  0  0  0  0  0
   -6.8670   24.4250  -29.7090 C   0  0  0  0  0  0  0  0  0  0  0  0
   -5.3668   16.7882  -33.6498 H   0  0  0  0  0  0  0  0  0  0  0  0
   -6.7449   16.8509  -34.8003 H   0  0  0  0  0  0  0  0  0  0  0  0
   -5.5146   18.1597  -34.8003 H   0  0  0  0  0  0  0  0  0  0  0  0
   -8.5665   20.1599  -33.1165 H   0  0  0  0  0  0  0  0  0  0  0  0
   -8.1182   22.5057  -32.3236 H   0  0  0  0  0  0  0  0  0  0  0  0
   -2.9660   21.1630  -31.2520 H   0  0  0  0  0  0  0  0  0  0  0  0
   -4.4204   19.0810  -32.2969 H   0  0  0  0  0  0  0  0  0  0  0  0
   -5.4986   26.5438  -30.4992 H   0  0  0  0  0  0  0  0  0  0  0  0
   -4.8004   25.9101  -32.0538 H   0  0  0  0  0  0  0  0  0  0  0  0
   -6.8944   24.8016  -31.8232 H   0  0  0  0  0  0  0  0  0  0  0  0
   -6.1392   24.5465  -28.8932 H   0  0  0  0  0  0  0  0  0  0  0  0
   -7.6368   25.2071  -29.6331 H   0  0  0  0  0  0  0  0  0  0  0  0
   -7.3411   23.4353  -29.6331 H   0  0  0  0  0  0  0  0  0  0  0  0
  1  2  1  0
  2  3  1  0
  3  4  2  0
  4  5  1  0
  5  6  2  0
  6  7  1  0
  7  8  2  0
  8  9  1  0
  9 10  1  0
 10 11  2  0
  8 12  1  0
 12 13  2  0
 12 14  1  0
 14 15  1  0
 15 16  1  0
 16 17  1  0
 11  3  1  0
 10  6  1  0
 16  7  1  0
  1 18  1  0
  1 19  1  0
  1 20  1  0
  4 21  1  0
  5 22  1  0
  9 23  1  0
 11 24  1  0
 15 25  1  0
 15 26  1  0
 16 27  1  6
 17 28  1  0
 17 29  1  0
 17 30  1  0
M  CHG  1  14  -1
M  END
>  <UniqueID>  (35) 
34

>  <SMILES>  (35) 
COc1ccc2c3c([nH]c2c1)C(=O)[N-]C[C@@H]3C

>  <Energy>  (35) 
65.24844495674634

>  <Genealogy>  (35) 
COc1ccc2c3c([nH]c2c1)C(=O)[N-]CC3C (protonated)
COc1ccc2c3c([nH]c2c1)C(=O)[N-]C[C@@H]3C (chirality)
COc1ccc2c3c([nH]c2c1)C(=O)[N-]C[C@@H]3C (3D coordinates assigned)
COc1ccc2c3c([nH]c2c1)C(=O)[N-]C[C@@H]3C (nonaromatic ring conformer: 65.24844495674634 kcal/mol)

>  <smiles>  (35) 
COc1ccc2c3c([nH]c2c1)C(=O)NCC3C

>  <score_type>  (35) 
oracle

>  <origin>  (35) 
adg

>  <m_score__min__energy>  (35) 
-7.9199999999999999

>  <m_primary>  (35) 
energy

$$$$
35:0
     RDKit          3D

 60 63  0  0  0  0  0  0  0  0999 V2000
   -8.5830   18.3610  -31.9830 C   0  0  0  0  0  0  0  0  0  0  0  0
   -7.2230   17.9660  -32.3820 N   0  0  0  0  0  0  0  0  0  0  0  0
   -6.3630   17.7550  -31.2070 C   0  0  0  0  0  0  0  0  0  0  0  0
   -7.2060   16.8230  -33.3240 C   0  0  0  0  0  0  0  0  0  0  0  0
   -6.2700   17.0100  -34.5360 C   0  0  0  0  0  0  0  0  0  0  0  0
   -6.0500   18.4320  -34.8050 N   0  0  0  0  0  0  0  0  0  0  0  0
   -5.1130   19.2400  -34.0660 C   0  0  0  0  0  0  0  0  0  0  0  0
   -3.7450   18.9150  -34.0010 C   0  0  0  0  0  0  0  0  0  0  0  0
   -2.8570   19.7140  -33.2770 C   0  0  0  0  0  0  0  0  0  0  0  0
   -3.3190   20.8530  -32.6030 C   0  0  0  0  0  0  0  0  0  0  0  0
   -2.4360   21.6580  -31.8710 C   0  0  0  0  0  0  0  0  0  0  0  0
   -2.9070   22.7900  -31.2010 C   0  0  0  0  0  0  0  0  0  0  0  0
   -4.2680   23.1340  -31.2550 C   0  0  0  0  0  0  0  0  0  0  0  0
   -4.7760   24.3440  -30.5050 C   0  0  0  0  0  0  0  0  0  0  0  0
   -4.0670   24.5510  -29.1510 C   0  0  1  0  0  0  0  0  0  0  0  0
   -3.9440   23.2790  -28.4270 C   0  0  0  0  0  0  0  0  0  0  0  0
   -3.8470   22.2770  -27.8550 N   0  0  0  0  0  0  0  0  0  0  0  0
   -2.7340   25.1200  -29.3360 N   0  0  0  0  0  0  0  0  0  0  0  0
   -1.5830   24.8510  -28.5250 C   0  0  0  0  0  0  0  0  0  0  0  0
   -0.4710   24.6910  -29.0960 O   0  0  0  0  0  0  0  0  0  0  0  0
   -1.6790   24.6920  -27.0240 C   0  0  2  0  0  0  0  0  0  0  0  0
   -2.6640   25.6240  -26.4450 N   0  0  0  0  0  0  0  0  0  0  0  0
   -1.9070   26.2840  -25.3690 C   0  0  2  0  0  0  0  0  0  0  0  0
   -0.9820   27.3240  -26.0180 C   0  0  0  0  0  0  0  0  0  0  0  0
    0.1110   26.4390  -26.6330 C   0  0  0  0  0  0  0  0  0  0  0  0
   -0.3670   25.0170  -26.2730 C   0  0  1  0  0  0  0  0  0  0  0  0
   -0.9240   25.2390  -24.8930 C   0  0  0  0  0  0  0  0  0  0  0  0
   -5.1560   22.3290  -31.9860 C   0  0  0  0  0  0  0  0  0  0  0  0
   -4.6910   21.1900  -32.6600 C   0  0  0  0  0  0  0  0  0  0  0  0
   -5.5760   20.3810  -33.3910 C   0  0  0  0  0  0  0  0  0  0  0  0
   -8.6518   18.3810  -30.8853 H   0  0  0  0  0  0  0  0  0  0  0  0
   -8.8065   19.3612  -32.3827 H   0  0  0  0  0  0  0  0  0  0  0  0
   -9.3075   17.6362  -32.3827 H   0  0  0  0  0  0  0  0  0  0  0  0
   -6.9531   17.8998  -30.2900 H   0  0  0  0  0  0  0  0  0  0  0  0
   -5.9605   16.7315  -31.2263 H   0  0  0  0  0  0  0  0  0  0  0  0
   -5.5325   18.4760  -31.2263 H   0  0  0  0  0  0  0  0  0  0  0  0
   -6.8810   15.9280  -32.7732 H   0  0  0  0  0  0  0  0  0  0  0  0
   -8.2259   16.7323  -33.7260 H   0  0  0  0  0  0  0  0  0  0  0  0
   -5.3038   16.5289  -34.3237 H   0  0  0  0  0  0  0  0  0  0  0  0
   -6.7388   16.5513  -35.4191 H   0  0  0  0  0  0  0  0  0  0  0  0
   -6.5960   18.8910  -35.5700 H   0  0  0  0  0  0  0  0  0  0  0  0
   -3.3716   18.0231  -34.5255 H   0  0  0  0  0  0  0  0  0  0  0  0
   -1.7904   19.4482  -33.2356 H   0  0  0  0  0  0  0  0  0  0  0  0
   -1.3683   21.3978  -31.8237 H   0  0  0  0  0  0  0  0  0  0  0  0
   -2.2075   23.4160  -30.6275 H   0  0  0  0  0  0  0  0  0  0  0  0
   -4.6129   25.2366  -31.1269 H   0  0  0  0  0  0  0  0  0  0  0  0
   -5.8437   24.1799  -30.2973 H   0  0  0  0  0  0  0  0  0  0  0  0
   -4.6813   25.2506  -28.5651 H   0  0  0  0  0  0  0  0  0  0  0  0
   -1.9514   23.6339  -26.8966 H   0  0  0  0  0  0  0  0  0  0  0  0
   -3.4410   25.0720  -26.0080 H   0  0  0  0  0  0  0  0  0  0  0  0
   -2.5786   26.7047  -24.6061 H   0  0  0  0  0  0  0  0  0  0  0  0
   -1.5102   27.9019  -26.7907 H   0  0  0  0  0  0  0  0  0  0  0  0
   -0.5988   28.0775  -25.3141 H   0  0  0  0  0  0  0  0  0  0  0  0
    0.1661   26.5755  -27.7231 H   0  0  0  0  0  0  0  0  0  0  0  0
    1.1208   26.6687  -26.2620 H   0  0  0  0  0  0  0  0  0  0  0  0
    0.4226   24.2707  -26.4451 H   0  0  0  0  0  0  0  0  0  0  0  0
   -1.4068   24.3466  -24.4680 H   0  0  0  0  0  0  0  0  0  0  0  0
   -0.2313   25.4967  -24.0782 H   0  0  0  0  0  0  0  0  0  0  0  0
   -6.2229   22.5930  -32.0305 H   0  0  0  0  0  0  0  0  0  0  0  0
   -6.6432   20.6439  -33.4353 H   0  0  0  0  0  0  0  0  0  0  0  0
  1  2  1  0
  2  3  1  0
  2  4  1  0
  4  5  1  0
  5  6  1  0
  6  7  1  0
  7  8  2  0
  8  9  1  0
  9 10  2  0
 10 11  1  0
 11 12  2  0
 12 13  1  0
 13 14  1  0
 14 15  1  0
 15 16  1  0
 16 17  3  0
 15 18  1  0
 18 19  1  0
 19 20  2  0
 19 21  1  0
 21 22  1  0
 22 23  1  0
 23 24  1  0
 24 25  1  0
 25 26  1  0
 26 27  1  0
 13 28  2  0
 28 29  1  0
 29 30  2  0
 30  7  1  0
 29 10  1  0
 26 21  1  0
 27 23  1  0
  1 31  1  0
  1 32  1  0
  1 33  1  0
  3 34  1  0
  3 35  1  0
  3 36  1  0
  4 37  1  0
  4 38  1  0
  5 39  1  0
  5 40  1  0
  6 41  1  0
  8 42  1  0
  9 43  1  0
 11 44  1  0
 12 45  1  0
 14 46  1  0
 14 47  1  0
 15 48  1  1
 21 49  1  6
 22 50  1  0
 23 51  1  1
 24 52  1  0
 24 53  1  0
 25 54  1  0
 25 55  1  0
 26 56  1  1
 27 57  1  0
 27 58  1  0
 28 59  1  0
 30 60  1  0
M  CHG  1  18  -1
M  END
>  <UniqueID>  (36) 
35

>  <SMILES>  (36) 
CN(C)CCNc1ccc2ccc(C[C@@H](C#N)[N-]C(=O)[C@@H]3NC4CCC3C4)cc2c1

>  <Energy>  (36) 
87.58209361389412

>  <Genealogy>  (36) 
CN(C)CCNc1ccc2ccc(CC(C#N)[N-]C(=O)C3NC4CCC3C4)cc2c1 (protonated)
CN(C)CCNc1ccc2ccc(C[C@@H](C#N)[N-]C(=O)[C@@H]3NC4CCC3C4)cc2c1 (chirality)
CN(C)CCNc1ccc2ccc(C[C@@H](C#N)[N-]C(=O)[C@@H]3NC4CCC3C4)cc2c1 (3D coordinates assigned)
CN(C)CCNc1ccc2ccc(C[C@@H](C#N)[N-]C(=O)[C@@H]3NC4CCC3C4)cc2c1 (nonaromatic ring conformer: 87.58209361389412 kcal/mol)

>  <smiles>  (36) 
CN(C)CCNc1ccc2ccc(CC(C#N)NC(=O)C3NC4CCC3C4)cc2c1

>  <score_type>  (36) 
oracle

>  <origin>  (36) 
adg

>  <m_score__min__energy>  (36) 
-11.27

>  <m_primary>  (36) 
energy

$$$$
36:0
     RDKit          3D

 32 35  0  0  0  0  0  0  0  0999 V2000
   -3.8950   25.6790  -31.5830 H   0  0  0  0  0  0  0  0  0  0  0  0
   -3.9530   25.1160  -30.7090 N   0  0  0  0  0  0  0  0  0  0  0  0
   -3.7580   23.8350  -30.5990 C   0  0  0  0  0  0  0  0  0  0  0  0
   -4.7130   22.9570  -31.1600 C   0  0  0  0  0  0  0  0  0  0  0  0
   -4.4910   21.5660  -31.1060 C   0  0  0  0  0  0  0  0  0  0  0  0
   -3.3750   21.0750  -30.5020 N   0  0  0  0  0  0  0  0  0  0  0  0
   -3.2240   20.0390  -30.4890 H   0  0  0  0  0  0  0  0  0  0  0  0
   -2.4510   21.8870  -29.9180 C   0  0  0  0  0  0  0  0  0  0  0  0
   -1.3300   21.3250  -29.2920 C   0  0  0  0  0  0  0  0  0  0  0  0
   -1.1982   20.2331  -29.2714 H   0  0  0  0  0  0  0  0  0  0  0  0
   -0.3850   22.1540  -28.6970 C   0  0  0  0  0  0  0  0  0  0  0  0
    0.4968   21.7178  -28.2050 H   0  0  0  0  0  0  0  0  0  0  0  0
   -0.5500   23.5000  -28.7230 N   0  0  0  0  0  0  0  0  0  0  0  0
   -1.6210   24.0850  -29.3220 C   0  0  0  0  0  0  0  0  0  0  0  0
   -1.7160   25.1809  -29.3211 H   0  0  0  0  0  0  0  0  0  0  0  0
   -2.6150   23.2940  -29.9470 C   0  0  0  0  0  0  0  0  0  0  0  0
   -5.4440   20.6100  -31.7830 C   0  0  0  0  0  0  0  0  0  0  0  0
   -5.1078   20.4470  -32.8176 H   0  0  0  0  0  0  0  0  0  0  0  0
   -5.4447   19.6703  -31.2112 H   0  0  0  0  0  0  0  0  0  0  0  0
   -6.8530   21.1390  -31.8080 C   0  0  0  0  0  0  0  0  0  0  0  0
   -7.9390   20.2490  -31.8470 C   0  0  0  0  0  0  0  0  0  0  0  0
   -7.7590   19.1642  -31.8168 H   0  0  0  0  0  0  0  0  0  0  0  0
   -9.2470   20.7350  -31.9240 C   0  0  0  0  0  0  0  0  0  0  0  0
  -10.0939   20.0332  -31.9405 H   0  0  0  0  0  0  0  0  0  0  0  0
   -9.4800   22.1110  -31.9800 C   0  0  0  0  0  0  0  0  0  0  0  0
  -10.5102   22.4919  -32.0399 H   0  0  0  0  0  0  0  0  0  0  0  0
   -8.4060   23.0040  -31.9600 C   0  0  0  0  0  0  0  0  0  0  0  0
   -8.5932   24.0863  -32.0197 H   0  0  0  0  0  0  0  0  0  0  0  0
   -7.0880   22.5270  -31.8640 C   0  0  0  0  0  0  0  0  0  0  0  0
   -5.9320   23.4940  -31.8920 C   0  0  0  0  0  0  0  0  0  0  0  0
   -5.6585   23.6881  -32.9396 H   0  0  0  0  0  0  0  0  0  0  0  0
   -6.2515   24.4153  -31.3829 H   0  0  0  0  0  0  0  0  0  0  0  0
  1  2  1  0
  2  3  2  0
  3  4  1  0
  4  5  2  0
  5  6  1  0
  6  7  1  0
  6  8  1  0
  8  9  2  0
  9 10  1  0
  9 11  1  0
 11 12  1  0
 11 13  2  0
 13 14  1  0
 14 15  1  0
 14 16  2  0
  5 17  1  0
 17 18  1  0
 17 19  1  0
 17 20  1  0
 20 21  2  0
 21 22  1  0
 21 23  1  0
 23 24  1  0
 23 25  2  0
 25 26  1  0
 25 27  1  0
 27 28  1  0
 27 29  2  0
 29 30  1  0
 30 31  1  0
 30 32  1  0
 16  3  1  0
 29 20  1  0
 30  4  1  0
 16  8  1  0
M  END
>  <UniqueID>  (37) 
36

>  <SMILES>  (37) 
[H]/N=c1/c2c([nH]c3ccncc13)Cc1ccccc1C2

>  <Energy>  (37) 
51.33846017712564

>  <Genealogy>  (37) 
[H]/N=c1/c2c([nH]c3ccncc13)Cc1ccccc1C2 (cis-trans isomerization)
[H]/N=c1/c2c([nH]c3ccncc13)Cc1ccccc1C2 (3D coordinates assigned)
[H]/N=c1/c2c([nH]c3ccncc13)Cc1ccccc1C2 (nonaromatic ring conformer: 51.33846017712564 kcal/mol)

>  <smiles>  (37) 
N=c1c2c([nH]c3ccncc13)Cc1ccccc1C2

>  <score_type>  (37) 
oracle

>  <origin>  (37) 
adg

>  <m_score__min__energy>  (37) 
-7.9699999999999998

>  <m_primary>  (37) 
energy

$$$$
37:0
     RDKit          3D

 51 54  0  0  0  0  0  0  0  0999 V2000
   -2.0140   22.6480  -30.1320 C   0  0  0  0  0  0  0  0  0  0  0  0
   -2.2290   24.0150  -29.8030 O   0  0  0  0  0  0  0  0  0  0  0  0
   -2.6130   24.4810  -28.5340 C   0  0  0  0  0  0  0  0  0  0  0  0
   -1.6630   24.8610  -27.5650 C   0  0  0  0  0  0  0  0  0  0  0  0
   -2.0740   25.2610  -26.2910 C   0  0  0  0  0  0  0  0  0  0  0  0
   -3.4310   25.2780  -25.9650 C   0  0  0  0  0  0  0  0  0  0  0  0
   -4.3830   24.9140  -26.9200 C   0  0  0  0  0  0  0  0  0  0  0  0
   -3.9860   24.5430  -28.2130 C   0  0  0  0  0  0  0  0  0  0  0  0
   -4.9920   24.1760  -29.1700 N   0  0  0  0  0  0  0  0  0  0  0  0
   -5.0560   24.7350  -30.4910 C   0  0  0  0  0  0  0  0  0  0  0  0
   -4.2450   25.6340  -30.8440 O   0  0  0  0  0  0  0  0  0  0  0  0
   -6.1170   24.2890  -31.4510 C   0  0  0  0  0  0  0  0  0  0  0  0
   -6.2490   22.8310  -31.4110 N   0  0  0  0  0  0  0  0  0  0  0  0
   -5.2340   21.9460  -31.2690 C   0  0  0  0  0  0  0  0  0  0  0  0
   -5.7100   20.6420  -31.3380 C   0  0  0  0  0  0  0  0  0  0  0  0
   -7.0690   20.7580  -31.5440 C   0  0  0  0  0  0  0  0  0  0  0  0
   -8.0450   19.7720  -31.7030 C   0  0  0  0  0  0  0  0  0  0  0  0
   -7.6760   18.4200  -31.6400 O   0  0  0  0  0  0  0  0  0  0  0  0
   -7.5960   17.5390  -32.7610 C   0  0  0  0  0  0  0  0  0  0  0  0
   -6.1930   17.4900  -33.3100 C   0  0  0  0  0  0  0  0  0  0  0  0
   -5.3570   16.3960  -33.0220 C   0  0  0  0  0  0  0  0  0  0  0  0
   -4.0540   16.3530  -33.5270 C   0  0  0  0  0  0  0  0  0  0  0  0
   -3.5700   17.4070  -34.3100 C   0  0  0  0  0  0  0  0  0  0  0  0
   -4.3880   18.5070  -34.5860 C   0  0  0  0  0  0  0  0  0  0  0  0
   -5.6940   18.5520  -34.0850 C   0  0  0  0  0  0  0  0  0  0  0  0
   -9.3730   20.2060  -31.9220 C   0  0  0  0  0  0  0  0  0  0  0  0
   -9.6800   21.5840  -31.9670 C   0  0  0  0  0  0  0  0  0  0  0  0
   -8.6710   22.5460  -31.7960 C   0  0  0  0  0  0  0  0  0  0  0  0
   -7.3670   22.0960  -31.5860 C   0  0  0  0  0  0  0  0  0  0  0  0
   -1.9213   22.0586  -29.2078 H   0  0  0  0  0  0  0  0  0  0  0  0
   -2.8644   22.2745  -30.7213 H   0  0  0  0  0  0  0  0  0  0  0  0
   -1.0900   22.5536  -30.7213 H   0  0  0  0  0  0  0  0  0  0  0  0
   -0.5915   24.8426  -27.8131 H   0  0  0  0  0  0  0  0  0  0  0  0
   -1.3262   25.5633  -25.5430 H   0  0  0  0  0  0  0  0  0  0  0  0
   -3.7507   25.5780  -24.9561 H   0  0  0  0  0  0  0  0  0  0  0  0
   -5.4509   24.9183  -26.6563 H   0  0  0  0  0  0  0  0  0  0  0  0
   -5.7940   23.5970  -28.8350 H   0  0  0  0  0  0  0  0  0  0  0  0
   -7.0766   24.7493  -31.1728 H   0  0  0  0  0  0  0  0  0  0  0  0
   -5.8357   24.5979  -32.4686 H   0  0  0  0  0  0  0  0  0  0  0  0
   -4.1794   22.2209  -31.1198 H   0  0  0  0  0  0  0  0  0  0  0  0
   -5.1265   19.7139  -31.2475 H   0  0  0  0  0  0  0  0  0  0  0  0
   -7.8947   16.5282  -32.4463 H   0  0  0  0  0  0  0  0  0  0  0  0
   -8.2678   17.9115  -33.5484 H   0  0  0  0  0  0  0  0  0  0  0  0
   -5.7299   15.5711  -32.3970 H   0  0  0  0  0  0  0  0  0  0  0  0
   -3.4084   15.4896  -33.3086 H   0  0  0  0  0  0  0  0  0  0  0  0
   -2.5454   17.3702  -34.7086 H   0  0  0  0  0  0  0  0  0  0  0  0
   -4.0048   19.3374  -35.1972 H   0  0  0  0  0  0  0  0  0  0  0  0
   -6.3328   19.4217  -34.2983 H   0  0  0  0  0  0  0  0  0  0  0  0
  -10.1737   19.4642  -32.0585 H   0  0  0  0  0  0  0  0  0  0  0  0
  -10.7178   21.9064  -32.1374 H   0  0  0  0  0  0  0  0  0  0  0  0
   -8.9017   23.6211  -31.8267 H   0  0  0  0  0  0  0  0  0  0  0  0
  1  2  1  0
  2  3  1  0
  3  4  2  0
  4  5  1  0
  5  6  2  0
  6  7  1  0
  7  8  2  0
  8  9  1  0
  9 10  1  0
 10 11  2  0
 10 12  1  0
 12 13  1  0
 13 14  1  0
 14 15  2  0
 15 16  1  0
 16 17  2  0
 17 18  1  0
 18 19  1  0
 19 20  1  0
 20 21  2  0
 21 22  1  0
 22 23  2  0
 23 24  1  0
 24 25  2  0
 17 26  1  0
 26 27  2  0
 27 28  1  0
 28 29  2  0
  8  3  1  0
 29 13  1  0
 29 16  1  0
 25 20  1  0
  1 30  1  0
  1 31  1  0
  1 32  1  0
  4 33  1  0
  5 34  1  0
  6 35  1  0
  7 36  1  0
  9 37  1  0
 12 38  1  0
 12 39  1  0
 14 40  1  0
 15 41  1  0
 19 42  1  0
 19 43  1  0
 21 44  1  0
 22 45  1  0
 23 46  1  0
 24 47  1  0
 25 48  1  0
 26 49  1  0
 27 50  1  0
 28 51  1  0
M  END
>  <UniqueID>  (38) 
37

>  <SMILES>  (38) 
COc1ccccc1NC(=O)Cn1ccc2c(OCc3ccccc3)cccc21

>  <Energy>  (38) 
90.35811499778313

>  <Genealogy>  (38) 
COc1ccccc1NC(=O)Cn1ccc2c(OCc3ccccc3)cccc21 (3D coordinates assigned)
COc1ccccc1NC(=O)Cn1ccc2c(OCc3ccccc3)cccc21 (optimized conformer: 90.35811499778313 kcal/mol)

>  <smiles>  (38) 
COc1ccccc1NC(=O)Cn1ccc2c(OCc3ccccc3)cccc21

>  <score_type>  (38) 
oracle

>  <origin>  (38) 
adg

>  <m_score__min__energy>  (38) 
-9.9700000000000006

>  <m_primary>  (38) 
energy

$$$$
38:0
     RDKit          3D

 45 47  0  0  0  0  0  0  0  0999 V2000
   -9.4550   18.9580  -32.6810 C   0  0  0  0  0  0  0  0  0  0  0  0
   -8.8180   20.1200  -32.5370 C   0  0  0  0  0  0  0  0  0  0  0  0
   -8.0350   20.4220  -31.2910 C   0  0  0  0  0  0  0  0  0  0  0  0
   -6.6770   20.8550  -31.6330 N   0  0  0  0  0  0  0  0  0  0  0  0
   -6.1330   22.0700  -31.4180 C   0  0  0  0  0  0  0  0  0  0  0  0
   -6.9860   23.4600  -30.6680 S   0  0  0  0  0  0  0  0  0  0  0  0
   -6.0380   24.7080  -31.5990 C   0  0  0  0  0  0  0  0  0  0  0  0
   -5.2090   25.5220  -30.6470 C   0  0  0  0  0  0  0  0  0  0  0  0
   -5.7310   26.5140  -30.0720 O   0  0  0  0  0  0  0  0  0  0  0  0
   -3.8090   25.2750  -30.4610 N   0  0  0  0  0  0  0  0  0  0  0  0
   -3.2370   24.3840  -29.4990 C   0  0  0  0  0  0  0  0  0  0  0  0
   -1.8460   24.2820  -29.3380 C   0  0  0  0  0  0  0  0  0  0  0  0
   -1.3080   23.3560  -28.4380 C   0  0  0  0  0  0  0  0  0  0  0  0
   -2.1540   22.5180  -27.7030 C   0  0  0  0  0  0  0  0  0  0  0  0
   -1.4610   21.3210  -26.5580 S   0  0  0  0  0  0  0  0  0  0  0  0
   -2.3620   19.9110  -27.2770 C   0  0  0  0  0  0  0  0  0  0  0  0
   -2.7200   19.0230  -26.2790 F   0  0  0  0  0  0  0  0  0  0  0  0
   -1.5430   19.2630  -28.1850 F   0  0  0  0  0  0  0  0  0  0  0  0
   -3.5410   22.6120  -27.8680 C   0  0  0  0  0  0  0  0  0  0  0  0
   -4.0790   23.5300  -28.7750 C   0  0  0  0  0  0  0  0  0  0  0  0
   -4.8640   22.1340  -31.8600 N   0  0  0  0  0  0  0  0  0  0  0  0
   -4.5800   20.9480  -32.3790 N   0  0  0  0  0  0  0  0  0  0  0  0
   -5.6790   20.1770  -32.2500 C   0  0  0  0  0  0  0  0  0  0  0  0
   -5.7530   18.7900  -32.7670 C   0  0  0  0  0  0  0  0  0  0  0  0
   -5.9680   18.5530  -34.1350 C   0  0  0  0  0  0  0  0  0  0  0  0
   -6.0640   17.2380  -34.5990 C   0  0  0  0  0  0  0  0  0  0  0  0
   -5.9520   16.1750  -33.7020 C   0  0  0  0  0  0  0  0  0  0  0  0
   -5.7440   16.4450  -32.3490 C   0  0  0  0  0  0  0  0  0  0  0  0
   -5.6550   17.7310  -31.9170 N   0  0  0  0  0  0  0  0  0  0  0  0
  -10.0239   18.7528  -33.5998 H   0  0  0  0  0  0  0  0  0  0  0  0
   -9.4118   18.2042  -31.8810 H   0  0  0  0  0  0  0  0  0  0  0  0
   -8.8663   20.8683  -33.3418 H   0  0  0  0  0  0  0  0  0  0  0  0
   -8.5402   21.2224  -30.7306 H   0  0  0  0  0  0  0  0  0  0  0  0
   -7.9751   19.5108  -30.6777 H   0  0  0  0  0  0  0  0  0  0  0  0
   -5.3783   24.2038  -32.3205 H   0  0  0  0  0  0  0  0  0  0  0  0
   -6.7331   25.3695  -32.1368 H   0  0  0  0  0  0  0  0  0  0  0  0
   -1.1773   24.9321  -29.9212 H   0  0  0  0  0  0  0  0  0  0  0  0
   -0.2179   23.2865  -28.3078 H   0  0  0  0  0  0  0  0  0  0  0  0
   -3.2680   20.2789  -27.7808 H   0  0  0  0  0  0  0  0  0  0  0  0
   -4.2088   21.9625  -27.2830 H   0  0  0  0  0  0  0  0  0  0  0  0
   -5.1681   23.5819  -28.9207 H   0  0  0  0  0  0  0  0  0  0  0  0
   -6.0601   19.3960  -34.8357 H   0  0  0  0  0  0  0  0  0  0  0  0
   -6.2275   17.0415  -35.6689 H   0  0  0  0  0  0  0  0  0  0  0  0
   -6.0268   15.1366  -34.0573 H   0  0  0  0  0  0  0  0  0  0  0  0
   -5.6519   15.6166  -31.6312 H   0  0  0  0  0  0  0  0  0  0  0  0
  1  2  2  0
  2  3  1  0
  3  4  1  0
  4  5  1  0
  5  6  1  0
  6  7  1  0
  7  8  1  0
  8  9  2  0
  8 10  1  0
 10 11  1  0
 11 12  2  0
 12 13  1  0
 13 14  2  0
 14 15  1  0
 15 16  1  0
 16 17  1  0
 16 18  1  0
 14 19  1  0
 19 20  2  0
  5 21  2  0
 21 22  1  0
 22 23  2  0
 23 24  1  0
 24 25  2  0
 25 26  1  0
 26 27  2  0
 27 28  1  0
 28 29  2  0
 23  4  1  0
 29 24  1  0
 20 11  1  0
  1 30  1  0
  1 31  1  0
  2 32  1  0
  3 33  1  0
  3 34  1  0
  7 35  1  0
  7 36  1  0
 12 37  1  0
 13 38  1  0
 16 39  1  0
 19 40  1  0
 20 41  1  0
 25 42  1  0
 26 43  1  0
 27 44  1  0
 28 45  1  0
M  CHG  1  10  -1
M  END
>  <UniqueID>  (39) 
38

>  <SMILES>  (39) 
C=CCn1c(SCC(=O)[N-]c2ccc(SC(F)F)cc2)nnc1-c1ccccn1

>  <Energy>  (39) 
78.43224865055303

>  <Genealogy>  (39) 
C=CCn1c(SCC(=O)[N-]c2ccc(SC(F)F)cc2)nnc1-c1ccccn1 (protonated)
C=CCn1c(SCC(=O)[N-]c2ccc(SC(F)F)cc2)nnc1-c1ccccn1 (3D coordinates assigned)
C=CCn1c(SCC(=O)[N-]c2ccc(SC(F)F)cc2)nnc1-c1ccccn1 (optimized conformer: 78.43224865055303 kcal/mol)

>  <smiles>  (39) 
C=CCn1c(SCC(=O)Nc2ccc(SC(F)F)cc2)nnc1-c1ccccn1

>  <score_type>  (39) 
oracle

>  <origin>  (39) 
adg

>  <m_score__min__energy>  (39) 
-10.44

>  <m_primary>  (39) 
energy

$$$$
39:0
     RDKit          3D

 41 42  0  0  0  0  0  0  0  0999 V2000
   -2.7510   23.7510  -29.7010 C   0  0  0  0  0  0  0  0  0  0  0  0
   -3.5330   23.8870  -30.8830 O   0  0  0  0  0  0  0  0  0  0  0  0
   -4.8600   23.4470  -31.0170 C   0  0  0  0  0  0  0  0  0  0  0  0
   -5.8620   23.8300  -30.1020 C   0  0  0  0  0  0  0  0  0  0  0  0
   -7.1790   23.3970  -30.2730 C   0  0  0  0  0  0  0  0  0  0  0  0
   -7.5160   22.5880  -31.3590 C   0  0  0  0  0  0  0  0  0  0  0  0
   -9.3190   22.0110  -31.6010 Br  0  0  0  0  0  0  0  0  0  0  0  0
   -6.5320   22.2030  -32.2720 C   0  0  0  0  0  0  0  0  0  0  0  0
   -5.1980   22.6070  -32.1010 C   0  0  0  0  0  0  0  0  0  0  0  0
   -4.1410   22.1480  -33.0870 C   0  0  0  0  0  0  0  0  0  0  0  0
   -3.0190   21.4400  -32.4240 N   0  0  2  0  0  0  0  0  0  0  0  0
   -1.7950   21.5170  -33.2460 C   0  0  0  0  0  0  0  0  0  0  0  0
   -3.3440   20.0480  -32.0080 C   0  0  0  0  0  0  0  0  0  0  0  0
   -4.0750   19.1730  -33.0630 C   0  0  0  0  0  0  0  0  0  0  0  0
   -5.5090   18.8750  -32.7050 C   0  0  0  0  0  0  0  0  0  0  0  0
   -6.5570   19.4660  -33.4340 C   0  0  0  0  0  0  0  0  0  0  0  0
   -7.8880   19.2080  -33.0900 C   0  0  0  0  0  0  0  0  0  0  0  0
   -8.1840   18.3690  -32.0120 C   0  0  0  0  0  0  0  0  0  0  0  0
   -7.1490   17.7930  -31.2720 C   0  0  0  0  0  0  0  0  0  0  0  0
   -5.8160   18.0480  -31.6100 C   0  0  0  0  0  0  0  0  0  0  0  0
   -3.3979   23.8635  -28.8184 H   0  0  0  0  0  0  0  0  0  0  0  0
   -2.2794   22.7574  -29.6857 H   0  0  0  0  0  0  0  0  0  0  0  0
   -1.9716   24.5271  -29.6857 H   0  0  0  0  0  0  0  0  0  0  0  0
   -5.6050   24.4739  -29.2480 H   0  0  0  0  0  0  0  0  0  0  0  0
   -7.9525   23.6945  -29.5497 H   0  0  0  0  0  0  0  0  0  0  0  0
   -6.8047   21.5767  -33.1342 H   0  0  0  0  0  0  0  0  0  0  0  0
   -4.6079   21.4673  -33.8141 H   0  0  0  0  0  0  0  0  0  0  0  0
   -3.7298   23.0421  -33.5785 H   0  0  0  0  0  0  0  0  0  0  0  0
   -2.7930   21.9560  -31.5410 H   0  0  0  0  0  0  0  0  0  0  0  0
   -0.9148   21.5724  -32.5887 H   0  0  0  0  0  0  0  0  0  0  0  0
   -1.7228   20.6216  -33.8809 H   0  0  0  0  0  0  0  0  0  0  0  0
   -1.8355   22.4144  -33.8809 H   0  0  0  0  0  0  0  0  0  0  0  0
   -2.4003   19.5452  -31.7500 H   0  0  0  0  0  0  0  0  0  0  0  0
   -4.0469   20.1470  -31.1677 H   0  0  0  0  0  0  0  0  0  0  0  0
   -4.0593   19.7031  -34.0267 H   0  0  0  0  0  0  0  0  0  0  0  0
   -3.5453   18.2100  -33.1090 H   0  0  0  0  0  0  0  0  0  0  0  0
   -6.3288   20.1337  -34.2779 H   0  0  0  0  0  0  0  0  0  0  0  0
   -8.7033   19.6663  -33.6690 H   0  0  0  0  0  0  0  0  0  0  0  0
   -9.2314   18.1625  -31.7466 H   0  0  0  0  0  0  0  0  0  0  0  0
   -7.3829   17.1368  -30.4207 H   0  0  0  0  0  0  0  0  0  0  0  0
   -5.0049   17.6000  -31.0171 H   0  0  0  0  0  0  0  0  0  0  0  0
  1  2  1  0
  2  3  1  0
  3  4  2  0
  4  5  1  0
  5  6  2  0
  6  7  1  0
  6  8  1  0
  8  9  2  0
  9 10  1  0
 10 11  1  0
 11 12  1  0
 11 13  1  0
 13 14  1  0
 14 15  1  0
 15 16  2  0
 16 17  1  0
 17 18  2  0
 18 19  1  0
 19 20  2  0
  9  3  1  0
 20 15  1  0
  1 21  1  0
  1 22  1  0
  1 23  1  0
  4 24  1  0
  5 25  1  0
  8 26  1  0
 10 27  1  0
 10 28  1  0
 11 29  1  1
 12 30  1  0
 12 31  1  0
 12 32  1  0
 13 33  1  0
 13 34  1  0
 14 35  1  0
 14 36  1  0
 16 37  1  0
 17 38  1  0
 18 39  1  0
 19 40  1  0
 20 41  1  0
M  CHG  1  11   1
M  END
>  <UniqueID>  (40) 
39

>  <SMILES>  (40) 
COc1ccc(Br)cc1C[N@H+](C)CCc1ccccc1

>  <Energy>  (40) 
44.92010973399056

>  <Genealogy>  (40) 
COc1ccc(Br)cc1C[NH+](C)CCc1ccccc1 (protonated)
COc1ccc(Br)cc1C[N@H+](C)CCc1ccccc1 (chirality)
COc1ccc(Br)cc1C[N@H+](C)CCc1ccccc1 (3D coordinates assigned)
COc1ccc(Br)cc1C[N@H+](C)CCc1ccccc1 (optimized conformer: 44.92010973399056 kcal/mol)

>  <smiles>  (40) 
COc1ccc(Br)cc1CN(C)CCc1ccccc1

>  <score_type>  (40) 
oracle

>  <origin>  (40) 
adg

>  <m_score__min__energy>  (40) 
-7.1699999999999999

>  <m_primary>  (40) 
energy

$$$$
40:0
     RDKit          3D

 22 23  0  0  0  0  0  0  0  0999 V2000
   -5.1530   25.5610  -30.7020 C   0  0  0  0  0  0  0  0  0  0  0  0
   -3.8610   25.0110  -30.4670 O   0  0  0  0  0  0  0  0  0  0  0  0
   -3.6210   23.8560  -29.7090 C   0  0  0  0  0  0  0  0  0  0  0  0
   -4.2410   23.6120  -28.4730 C   0  0  0  0  0  0  0  0  0  0  0  0
   -3.9630   22.4710  -27.7890 N   0  0  0  0  0  0  0  0  0  0  0  0
   -3.0900   21.5510  -28.2790 C   0  0  0  0  0  0  0  0  0  0  0  0
   -2.8120   20.3540  -27.5370 N   0  0  0  0  0  0  0  0  0  0  0  0
   -1.6780   19.6300  -27.5850 C   0  0  0  0  0  0  0  0  0  0  0  0
   -1.8060   18.5550  -26.7250 C   0  0  0  0  0  0  0  0  0  0  0  0
   -3.0680   18.6860  -26.1750 C   0  0  0  0  0  0  0  0  0  0  0  0
   -3.6520   19.7840  -26.6860 N   0  0  0  0  0  0  0  0  0  0  0  0
   -2.4800   21.7720  -29.4750 N   0  0  0  0  0  0  0  0  0  0  0  0
   -2.7290   22.8990  -30.1920 C   0  0  0  0  0  0  0  0  0  0  0  0
   -5.6432   25.7697  -29.7397 H   0  0  0  0  0  0  0  0  0  0  0  0
   -5.0552   26.4955  -31.2740 H   0  0  0  0  0  0  0  0  0  0  0  0
   -5.7588   24.8427  -31.2740 H   0  0  0  0  0  0  0  0  0  0  0  0
   -4.9507   24.3433  -28.0589 H   0  0  0  0  0  0  0  0  0  0  0  0
   -0.7975   19.8558  -28.2044 H   0  0  0  0  0  0  0  0  0  0  0  0
   -1.0654   17.7673  -26.5224 H   0  0  0  0  0  0  0  0  0  0  0  0
   -3.5200   18.0038  -25.4400 H   0  0  0  0  0  0  0  0  0  0  0  0
   -4.6080   20.1350  -26.4540 H   0  0  0  0  0  0  0  0  0  0  0  0
   -2.2252   23.0571  -31.1570 H   0  0  0  0  0  0  0  0  0  0  0  0
  1  2  1  0
  2  3  1  0
  3  4  2  0
  4  5  1  0
  5  6  2  0
  6  7  1  0
  7  8  1  0
  8  9  2  0
  9 10  1  0
 10 11  2  0
  6 12  1  0
 12 13  2  0
 13  3  1  0
 11  7  1  0
  1 14  1  0
  1 15  1  0
  1 16  1  0
  4 17  1  0
  8 18  1  0
  9 19  1  0
 10 20  1  0
 11 21  1  0
 13 22  1  0
M  CHG  1  11   1
M  END
>  <UniqueID>  (41) 
40

>  <SMILES>  (41) 
COc1cnc(-n2ccc[nH+]2)nc1

>  <Energy>  (41) 
52.92713920068395

>  <Genealogy>  (41) 
COc1cnc(-n2ccc[nH+]2)nc1 (protonated)
COc1cnc(-n2ccc[nH+]2)nc1 (3D coordinates assigned)
COc1cnc(-n2ccc[nH+]2)nc1 (optimized conformer: 52.92713920068395 kcal/mol)

>  <smiles>  (41) 
COc1cnc(-n2cccn2)nc1

>  <score_type>  (41) 
oracle

>  <origin>  (41) 
adg

>  <m_score__min__energy>  (41) 
-4.6399999999999997

>  <m_primary>  (41) 
energy

$$$$
41:0
     RDKit          3D

 28 30  0  0  0  0  0  0  0  0999 V2000
   -5.0554   18.2218  -35.5403 H   0  0  0  0  0  0  0  0  0  0  0  0
   -5.7260   18.2760  -34.6700 C   0  0  0  0  0  0  0  0  0  0  0  0
   -5.9300   19.4650  -34.0430 N   0  0  0  0  0  0  0  0  0  0  0  0
   -6.7520   19.5880  -32.9620 C   0  0  0  0  0  0  0  0  0  0  0  0
   -6.9200   20.9230  -32.3360 C   0  0  0  0  0  0  0  0  0  0  0  0
   -8.0140   21.2960  -31.5460 C   0  0  0  0  0  0  0  0  0  0  0  0
   -8.8716   20.6562  -31.2907 H   0  0  0  0  0  0  0  0  0  0  0  0
   -7.7930   22.8920  -31.0530 S   0  0  0  0  0  0  0  0  0  0  0  0
   -6.3380   23.0540  -31.8650 C   0  0  0  0  0  0  0  0  0  0  0  0
   -5.6240   24.1420  -31.8460 N   0  0  0  0  0  0  0  0  0  0  0  0
   -4.6690   24.4980  -30.8370 C   0  0  0  0  0  0  0  0  0  0  0  0
   -4.2110   25.6710  -30.8200 O   0  0  0  0  0  0  0  0  0  0  0  0
   -4.1490   23.5070  -29.8760 C   0  0  0  0  0  0  0  0  0  0  0  0
   -3.3220   22.1010  -30.2910 S   0  0  0  0  0  0  0  0  0  0  0  0
   -3.1100   21.5380  -28.7210 C   0  0  0  0  0  0  0  0  0  0  0  0
   -2.5956   20.6094  -28.4330 H   0  0  0  0  0  0  0  0  0  0  0  0
   -3.6960   22.4470  -27.8510 C   0  0  0  0  0  0  0  0  0  0  0  0
   -3.7002   22.3165  -26.7588 H   0  0  0  0  0  0  0  0  0  0  0  0
   -4.2810   23.5450  -28.4920 C   0  0  0  0  0  0  0  0  0  0  0  0
   -4.7938   24.3566  -27.9550 H   0  0  0  0  0  0  0  0  0  0  0  0
   -5.9920   21.9100  -32.5010 N   0  0  0  0  0  0  0  0  0  0  0  0
   -5.1030   21.7770  -33.0310 H   0  0  0  0  0  0  0  0  0  0  0  0
   -7.4090   18.4430  -32.4730 C   0  0  0  0  0  0  0  0  0  0  0  0
   -8.0735   18.5163  -31.5995 H   0  0  0  0  0  0  0  0  0  0  0  0
   -7.2110   17.2130  -33.1050 C   0  0  0  0  0  0  0  0  0  0  0  0
   -7.7217   16.3137  -32.7302 H   0  0  0  0  0  0  0  0  0  0  0  0
   -6.3660   17.1250  -34.2110 C   0  0  0  0  0  0  0  0  0  0  0  0
   -6.2064   16.1603  -34.7148 H   0  0  0  0  0  0  0  0  0  0  0  0
  1  2  1  0
  2  3  2  0
  3  4  1  0
  4  5  1  0
  5  6  2  0
  6  7  1  0
  6  8  1  0
  8  9  1  0
  9 10  2  0
 10 11  1  0
 11 12  2  0
 11 13  1  0
 13 14  1  0
 14 15  1  0
 15 16  1  0
 15 17  2  0
 17 18  1  0
 17 19  1  0
 19 20  1  0
  9 21  1  0
 21 22  1  0
  4 23  2  0
 23 24  1  0
 23 25  1  0
 25 26  1  0
 25 27  2  0
 27 28  1  0
 27  2  1  0
 21  5  1  0
 19 13  2  0
M  END
>  <UniqueID>  (42) 
41

>  <SMILES>  (42) 
O=C(/N=c1\[nH]c(-c2ccccn2)cs1)c1cccs1

>  <Energy>  (42) 
95.31823084477931

>  <Genealogy>  (42) 
O=C(/N=c1\[nH]c(-c2ccccn2)cs1)c1cccs1 (cis-trans isomerization)
O=C(/N=c1\[nH]c(-c2ccccn2)cs1)c1cccs1 (3D coordinates assigned)
O=C(/N=c1\[nH]c(-c2ccccn2)cs1)c1cccs1 (optimized conformer: 95.31823084477931 kcal/mol)

>  <smiles>  (42) 
O=C(N=c1[nH]c(-c2ccccn2)cs1)c1cccs1

>  <score_type>  (42) 
oracle

>  <origin>  (42) 
adg

>  <m_score__min__energy>  (42) 
-7.4100000000000001

>  <m_primary>  (42) 
energy

$$$$
42:0
     RDKit          3D

 42 44  0  0  0  0  0  0  0  0999 V2000
   -4.7750   25.0780  -31.1910 O   0  0  0  0  0  0  0  0  0  0  0  0
   -4.9170   24.1000  -30.4020 C   0  0  0  0  0  0  0  0  0  0  0  0
   -3.8310   23.8050  -29.4330 C   0  0  0  0  0  0  0  0  0  0  0  0
   -3.9300   24.1870  -28.0820 C   0  0  0  0  0  0  0  0  0  0  0  0
   -2.8990   23.8890  -27.1850 C   0  0  0  0  0  0  0  0  0  0  0  0
   -1.7650   23.2030  -27.6230 C   0  0  0  0  0  0  0  0  0  0  0  0
   -1.6600   22.8080  -28.9580 C   0  0  0  0  0  0  0  0  0  0  0  0
   -2.6880   23.1010  -29.8590 C   0  0  0  0  0  0  0  0  0  0  0  0
   -6.0990   23.2620  -30.4980 N   0  0  0  0  0  0  0  0  0  0  0  0
   -7.0770   23.8350  -31.4580 C   0  0  0  0  0  0  0  0  0  0  0  0
   -8.0500   22.7590  -31.9520 C   0  0  0  0  0  0  0  0  0  0  0  0
   -7.3440   21.6980  -32.7160 N   0  0  0  0  0  0  0  0  0  0  0  0
   -8.0980   20.4260  -32.6960 C   0  0  0  0  0  0  0  0  0  0  0  0
   -7.1610   19.2440  -32.7040 C   0  0  0  0  0  0  0  0  0  0  0  0
   -7.0270   18.4580  -31.5460 C   0  0  0  0  0  0  0  0  0  0  0  0
   -6.1460   17.3730  -31.5260 C   0  0  0  0  0  0  0  0  0  0  0  0
   -5.3900   17.0650  -32.6590 C   0  0  0  0  0  0  0  0  0  0  0  0
   -5.5110   17.8420  -33.8140 C   0  0  0  0  0  0  0  0  0  0  0  0
   -6.3910   18.9300  -33.8400 C   0  0  0  0  0  0  0  0  0  0  0  0
   -6.4850   19.6750  -34.9710 F   0  0  0  0  0  0  0  0  0  0  0  0
   -5.9350   21.5040  -32.2900 C   0  0  0  0  0  0  0  0  0  0  0  0
   -5.7200   21.8560  -30.8070 C   0  0  0  0  0  0  0  0  0  0  0  0
   -4.8235   24.7231  -27.7295 H   0  0  0  0  0  0  0  0  0  0  0  0
   -2.9820   24.1960  -26.1320 H   0  0  0  0  0  0  0  0  0  0  0  0
   -0.9539   22.9736  -26.9162 H   0  0  0  0  0  0  0  0  0  0  0  0
   -0.7669   22.2654  -29.3014 H   0  0  0  0  0  0  0  0  0  0  0  0
   -2.6036   22.7796  -30.9076 H   0  0  0  0  0  0  0  0  0  0  0  0
   -6.5820   23.2610  -29.5690 H   0  0  0  0  0  0  0  0  0  0  0  0
   -7.6457   24.6339  -30.9596 H   0  0  0  0  0  0  0  0  0  0  0  0
   -6.5281   24.2372  -32.3223 H   0  0  0  0  0  0  0  0  0  0  0  0
   -8.5495   22.3030  -31.0845 H   0  0  0  0  0  0  0  0  0  0  0  0
   -8.7832   23.2358  -32.6191 H   0  0  0  0  0  0  0  0  0  0  0  0
   -8.7170   20.3886  -31.7874 H   0  0  0  0  0  0  0  0  0  0  0  0
   -8.7307   20.3786  -33.5946 H   0  0  0  0  0  0  0  0  0  0  0  0
   -7.6189   18.6983  -30.6505 H   0  0  0  0  0  0  0  0  0  0  0  0
   -6.0481   16.7613  -30.6170 H   0  0  0  0  0  0  0  0  0  0  0  0
   -4.6985   16.2097  -32.6422 H   0  0  0  0  0  0  0  0  0  0  0  0
   -4.9134   17.5981  -34.7047 H   0  0  0  0  0  0  0  0  0  0  0  0
   -5.6596   20.4507  -32.4472 H   0  0  0  0  0  0  0  0  0  0  0  0
   -5.3058   22.1773  -32.8906 H   0  0  0  0  0  0  0  0  0  0  0  0
   -6.3327   21.1812  -30.1911 H   0  0  0  0  0  0  0  0  0  0  0  0
   -4.6486   21.7407  -30.5863 H   0  0  0  0  0  0  0  0  0  0  0  0
  1  2  2  0
  2  3  1  0
  3  4  2  0
  4  5  1  0
  5  6  2  0
  6  7  1  0
  7  8  2  0
  2  9  1  0
  9 10  1  0
 10 11  1  0
 11 12  1  0
 12 13  1  0
 13 14  1  0
 14 15  2  0
 15 16  1  0
 16 17  2  0
 17 18  1  0
 18 19  2  0
 19 20  1  0
 12 21  1  0
 21 22  1  0
  8  3  1  0
 22  9  1  0
 19 14  1  0
  4 23  1  0
  5 24  1  0
  6 25  1  0
  7 26  1  0
  8 27  1  0
  9 28  1  0
 10 29  1  0
 10 30  1  0
 11 31  1  0
 11 32  1  0
 13 33  1  0
 13 34  1  0
 15 35  1  0
 16 36  1  0
 17 37  1  0
 18 38  1  0
 21 39  1  0
 21 40  1  0
 22 41  1  0
 22 42  1  0
M  CHG  1   9   1
M  END
>  <UniqueID>  (43) 
42

>  <SMILES>  (43) 
O=C(c1ccccc1)[NH+]1CCN(Cc2ccccc2F)CC1

>  <Energy>  (43) 
62.19279172458569

>  <Genealogy>  (43) 
O=C(c1ccccc1)[NH+]1CCN(Cc2ccccc2F)CC1 (protonated)
O=C(c1ccccc1)[NH+]1CCN(Cc2ccccc2F)CC1 (3D coordinates assigned)
O=C(c1ccccc1)[NH+]1CCN(Cc2ccccc2F)CC1 (nonaromatic ring conformer: 62.19279172458569 kcal/mol)

>  <smiles>  (43) 
O=C(c1ccccc1)N1CCN(Cc2ccccc2F)CC1

>  <score_type>  (43) 
oracle

>  <origin>  (43) 
adg

>  <m_score__min__energy>  (43) 
-7.5599999999999996

>  <m_primary>  (43) 
energy

$$$$
43:0
     RDKit          3D

 39 41  0  0  0  0  0  0  0  0999 V2000
   -2.7800   20.5110  -27.4720 C   0  0  0  0  0  0  0  0  0  0  0  0
   -2.0540   21.7780  -27.8180 C   0  0  0  0  0  0  0  0  0  0  0  0
   -0.6600   21.8570  -27.6760 C   0  0  0  0  0  0  0  0  0  0  0  0
    0.0190   23.0210  -28.0450 C   0  0  0  0  0  0  0  0  0  0  0  0
   -0.6830   24.1020  -28.5830 C   0  0  0  0  0  0  0  0  0  0  0  0
   -2.0740   24.0190  -28.7680 C   0  0  0  0  0  0  0  0  0  0  0  0
   -2.8120   25.0840  -29.3800 N   0  0  0  0  0  0  0  0  0  0  0  0
   -3.8600   24.9300  -30.3470 C   0  0  0  0  0  0  0  0  0  0  0  0
   -4.6870   25.8660  -30.5000 O   0  0  0  0  0  0  0  0  0  0  0  0
   -3.9980   23.7460  -31.1470 N   0  0  0  0  0  0  0  0  0  0  0  0
   -5.2190   23.0440  -31.4270 C   0  0  0  0  0  0  0  0  0  0  0  0
   -6.4390   23.6930  -31.2040 C   0  0  0  0  0  0  0  0  0  0  0  0
   -7.6410   23.0660  -31.5380 C   0  0  0  0  0  0  0  0  0  0  0  0
   -7.6340   21.7820  -32.0890 C   0  0  0  0  0  0  0  0  0  0  0  0
   -6.4230   21.0970  -32.2720 C   0  0  0  0  0  0  0  0  0  0  0  0
   -6.4270   19.7640  -32.9140 C   0  0  0  0  0  0  0  0  0  0  0  0
   -5.5810   19.4490  -33.9190 N   0  0  0  0  0  0  0  0  0  0  0  0
   -5.8680   18.1650  -34.2110 C   0  0  0  0  0  0  0  0  0  0  0  0
   -6.8810   17.7210  -33.3910 C   0  0  0  0  0  0  0  0  0  0  0  0
   -7.2420   18.7320  -32.5850 N   0  0  0  0  0  0  0  0  0  0  0  0
   -8.3090   18.6850  -31.5890 C   0  0  0  0  0  0  0  0  0  0  0  0
   -5.2180   21.7280  -31.9240 C   0  0  0  0  0  0  0  0  0  0  0  0
   -2.7550   22.8640  -28.3650 C   0  0  0  0  0  0  0  0  0  0  0  0
   -2.8385   20.4089  -26.3783 H   0  0  0  0  0  0  0  0  0  0  0  0
   -3.7961   20.5442  -27.8920 H   0  0  0  0  0  0  0  0  0  0  0  0
   -2.2375   19.6512  -27.8920 H   0  0  0  0  0  0  0  0  0  0  0  0
   -0.1004   21.0000  -27.2730 H   0  0  0  0  0  0  0  0  0  0  0  0
    1.1089   23.0862  -27.9115 H   0  0  0  0  0  0  0  0  0  0  0  0
   -0.1461   25.0205  -28.8626 H   0  0  0  0  0  0  0  0  0  0  0  0
   -6.4508   24.7010  -30.7639 H   0  0  0  0  0  0  0  0  0  0  0  0
   -8.5961   23.5843  -31.3669 H   0  0  0  0  0  0  0  0  0  0  0  0
   -8.5819   21.3060  -32.3806 H   0  0  0  0  0  0  0  0  0  0  0  0
   -5.3694   17.5639  -34.9856 H   0  0  0  0  0  0  0  0  0  0  0  0
   -7.3189   16.7119  -33.3955 H   0  0  0  0  0  0  0  0  0  0  0  0
   -7.8703   18.7043  -30.5805 H   0  0  0  0  0  0  0  0  0  0  0  0
   -8.9697   19.5549  -31.7182 H   0  0  0  0  0  0  0  0  0  0  0  0
   -8.8907   17.7604  -31.7182 H   0  0  0  0  0  0  0  0  0  0  0  0
   -4.2661   21.1893  -32.0409 H   0  0  0  0  0  0  0  0  0  0  0  0
   -3.8477   22.8072  -28.4779 H   0  0  0  0  0  0  0  0  0  0  0  0
  1  2  1  0
  2  3  2  0
  3  4  1  0
  4  5  2  0
  5  6  1  0
  6  7  1  0
  7  8  1  0
  8  9  2  0
  8 10  1  0
 10 11  1  0
 11 12  2  0
 12 13  1  0
 13 14  2  0
 14 15  1  0
 15 16  1  0
 16 17  2  0
 17 18  1  0
 18 19  2  0
 19 20  1  0
 20 21  1  0
 15 22  2  0
  6 23  2  0
 23  2  1  0
 22 11  1  0
 20 16  1  0
  1 24  1  0
  1 25  1  0
  1 26  1  0
  3 27  1  0
  4 28  1  0
  5 29  1  0
 12 30  1  0
 13 31  1  0
 14 32  1  0
 18 33  1  0
 19 34  1  0
 21 35  1  0
 21 36  1  0
 21 37  1  0
 22 38  1  0
 23 39  1  0
M  CHG  2   7  -1  10  -1
M  END
>  <UniqueID>  (44) 
43

>  <SMILES>  (44) 
Cc1cccc([N-]C(=O)[N-]c2cccc(-c3nccn3C)c2)c1

>  <Energy>  (44) 
79.75782972197217

>  <Genealogy>  (44) 
Cc1cccc([N-]C(=O)[N-]c2cccc(-c3nccn3C)c2)c1 (protonated)
Cc1cccc([N-]C(=O)[N-]c2cccc(-c3nccn3C)c2)c1 (3D coordinates assigned)
Cc1cccc([N-]C(=O)[N-]c2cccc(-c3nccn3C)c2)c1 (optimized conformer: 79.75782972197217 kcal/mol)

>  <smiles>  (44) 
Cc1cccc(NC(=O)Nc2cccc(-c3nccn3C)c2)c1

>  <score_type>  (44) 
oracle

>  <origin>  (44) 
adg

>  <m_score__min__energy>  (44) 
-11.25

>  <m_primary>  (44) 
energy

$$$$
44:0
     RDKit          3D

 57 59  0  0  0  0  0  0  0  0999 V2000
   -5.7140   14.9630  -33.5020 C   0  0  0  0  0  0  0  0  0  0  0  0
   -6.7800   15.9080  -33.5630 O   0  0  0  0  0  0  0  0  0  0  0  0
   -6.6190   17.2960  -33.4250 C   0  0  0  0  0  0  0  0  0  0  0  0
   -7.3380   18.0390  -32.4680 C   0  0  0  0  0  0  0  0  0  0  0  0
   -7.1510   19.4160  -32.3590 C   0  0  0  0  0  0  0  0  0  0  0  0
   -6.2570   20.0840  -33.2110 C   0  0  0  0  0  0  0  0  0  0  0  0
   -6.0510   21.5090  -33.0790 N   0  0  0  0  0  0  0  0  0  0  0  0
   -5.8290   21.8890  -31.6670 C   0  0  2  0  0  0  0  0  0  0  0  0
   -6.9910   22.7630  -31.1550 C   0  0  0  0  0  0  0  0  0  0  0  0
   -6.8470   23.1170  -29.6580 C   0  0  0  0  0  0  0  0  0  0  0  0
   -5.3970   23.0450  -29.1620 C   0  0  0  0  0  0  0  0  0  0  0  0
   -4.4720   23.4330  -30.2320 N   0  0  0  0  0  0  0  0  0  0  0  0
   -3.8020   24.7120  -30.1720 C   0  0  0  0  0  0  0  0  0  0  0  0
   -4.2560   25.6820  -30.8390 O   0  0  0  0  0  0  0  0  0  0  0  0
   -2.6250   24.9270  -29.3820 N   0  0  0  0  0  0  0  0  0  0  0  0
   -1.7510   23.8920  -28.8400 C   0  0  0  0  0  0  0  0  0  0  0  0
   -2.2590   23.4380  -27.4710 C   0  0  0  0  0  0  0  0  0  0  0  0
   -1.7580   24.3310  -26.3670 C   0  0  0  0  0  0  0  0  0  0  0  0
   -0.6880   23.9190  -25.5500 C   0  0  0  0  0  0  0  0  0  0  0  0
   -0.2120   24.7560  -24.5380 C   0  0  0  0  0  0  0  0  0  0  0  0
   -0.7950   26.0120  -24.3390 C   0  0  0  0  0  0  0  0  0  0  0  0
   -1.8520   26.4330  -25.1550 C   0  0  0  0  0  0  0  0  0  0  0  0
   -2.3280   25.5990  -26.1710 C   0  0  0  0  0  0  0  0  0  0  0  0
   -4.4960   22.6660  -31.4890 C   0  0  0  0  0  0  0  0  0  0  0  0
   -5.5380   19.3430  -34.1660 C   0  0  0  0  0  0  0  0  0  0  0  0
   -5.7060   17.9490  -34.2680 C   0  0  0  0  0  0  0  0  0  0  0  0
   -4.9820   17.1780  -35.1920 O   0  0  0  0  0  0  0  0  0  0  0  0
   -3.5710   17.0010  -35.1660 C   0  0  0  0  0  0  0  0  0  0  0  0
   -5.4731   14.7494  -32.4502 H   0  0  0  0  0  0  0  0  0  0  0  0
   -6.0191   14.0332  -34.0044 H   0  0  0  0  0  0  0  0  0  0  0  0
   -4.8275   15.3774  -34.0044 H   0  0  0  0  0  0  0  0  0  0  0  0
   -8.0510   17.5296  -31.8031 H   0  0  0  0  0  0  0  0  0  0  0  0
   -7.7083   19.9839  -31.5994 H   0  0  0  0  0  0  0  0  0  0  0  0
   -5.2430   21.8140  -33.6730 H   0  0  0  0  0  0  0  0  0  0  0  0
   -6.9000   22.0020  -33.4450 H   0  0  0  0  0  0  0  0  0  0  0  0
   -5.7765   20.9580  -31.0834 H   0  0  0  0  0  0  0  0  0  0  0  0
   -7.0148   23.6956  -31.7378 H   0  0  0  0  0  0  0  0  0  0  0  0
   -7.9211   22.1883  -31.2756 H   0  0  0  0  0  0  0  0  0  0  0  0
   -7.2204   24.1399  -29.5021 H   0  0  0  0  0  0  0  0  0  0  0  0
   -7.4271   22.3768  -29.0875 H   0  0  0  0  0  0  0  0  0  0  0  0
   -5.2713   23.7277  -28.3087 H   0  0  0  0  0  0  0  0  0  0  0  0
   -5.1752   22.0123  -28.8550 H   0  0  0  0  0  0  0  0  0  0  0  0
   -1.7366   23.0322  -29.5260 H   0  0  0  0  0  0  0  0  0  0  0  0
   -0.7356   24.3003  -28.7296 H   0  0  0  0  0  0  0  0  0  0  0  0
   -3.3588   23.4580  -27.4743 H   0  0  0  0  0  0  0  0  0  0  0  0
   -1.8838   22.4206  -27.2861 H   0  0  0  0  0  0  0  0  0  0  0  0
   -0.2249   22.9340  -25.7092 H   0  0  0  0  0  0  0  0  0  0  0  0
    0.6204   24.4278  -23.8982 H   0  0  0  0  0  0  0  0  0  0  0  0
   -0.4224   26.6700  -23.5401 H   0  0  0  0  0  0  0  0  0  0  0  0
   -2.3084   27.4212  -24.9965 H   0  0  0  0  0  0  0  0  0  0  0  0
   -3.1508   25.9369  -26.8182 H   0  0  0  0  0  0  0  0  0  0  0  0
   -4.3742   23.3615  -32.3325 H   0  0  0  0  0  0  0  0  0  0  0  0
   -3.6757   21.9338  -31.4577 H   0  0  0  0  0  0  0  0  0  0  0  0
   -4.8374   19.8578  -34.8399 H   0  0  0  0  0  0  0  0  0  0  0  0
   -3.2261   16.9577  -34.1224 H   0  0  0  0  0  0  0  0  0  0  0  0
   -3.3096   16.0630  -35.6778 H   0  0  0  0  0  0  0  0  0  0  0  0
   -3.0860   17.8453  -35.6778 H   0  0  0  0  0  0  0  0  0  0  0  0
  1  2  1  0
  2  3  1  0
  3  4  2  0
  4  5  1  0
  5  6  2  0
  6  7  1  0
  7  8  1  0
  8  9  1  0
  9 10  1  0
 10 11  1  0
 11 12  1  0
 12 13  1  0
 13 14  2  0
 13 15  1  0
 15 16  1  0
 16 17  1  0
 17 18  1  0
 18 19  2  0
 19 20  1  0
 20 21  2  0
 21 22  1  0
 22 23  2  0
 12 24  1  0
  6 25  1  0
 25 26  2  0
 26 27  1  0
 27 28  1  0
 26  3  1  0
 24  8  1  0
 23 18  1  0
  1 29  1  0
  1 30  1  0
  1 31  1  0
  4 32  1  0
  5 33  1  0
  7 34  1  0
  7 35  1  0
  8 36  1  1
  9 37  1  0
  9 38  1  0
 10 39  1  0
 10 40  1  0
 11 41  1  0
 11 42  1  0
 16 43  1  0
 16 44  1  0
 17 45  1  0
 17 46  1  0
 19 47  1  0
 20 48  1  0
 21 49  1  0
 22 50  1  0
 23 51  1  0
 24 52  1  0
 24 53  1  0
 25 54  1  0
 28 55  1  0
 28 56  1  0
 28 57  1  0
M  CHG  2   7   1  15  -1
M  END
>  <UniqueID>  (45) 
44

>  <SMILES>  (45) 
COc1ccc([NH2+][C@@H]2CCCN(C(=O)[N-]CCc3ccccc3)C2)cc1OC

>  <Energy>  (45) 
60.02175198873293

>  <Genealogy>  (45) 
COc1ccc([NH2+]C2CCCN(C(=O)[N-]CCc3ccccc3)C2)cc1OC (protonated)
COc1ccc([NH2+][C@@H]2CCCN(C(=O)[N-]CCc3ccccc3)C2)cc1OC (chirality)
COc1ccc([NH2+][C@@H]2CCCN(C(=O)[N-]CCc3ccccc3)C2)cc1OC (3D coordinates assigned)
COc1ccc([NH2+][C@@H]2CCCN(C(=O)[N-]CCc3ccccc3)C2)cc1OC (nonaromatic ring conformer: 60.02175198873293 kcal/mol)

>  <smiles>  (45) 
COc1ccc(NC2CCCN(C(=O)NCCc3ccccc3)C2)cc1OC

>  <score_type>  (45) 
oracle

>  <origin>  (45) 
adg

>  <m_score__min__energy>  (45) 
-9.2899999999999991

>  <m_primary>  (45) 
energy

$$$$
