0:0
     RDKit          3D

 59 60  0  0  0  0  0  0  0  0999 V2000
   -9.1110   18.8060  -31.8260 C   0  0  0  0  0  0  0  0  0  0  0  0
   -8.2800   20.0600  -31.9100 C   0  0  0  0  0  0  0  0  0  0  0  0
   -8.7010   21.2110  -31.2260 C   0  0  0  0  0  0  0  0  0  0  0  0
   -7.9490   22.3850  -31.2820 C   0  0  0  0  0  0  0  0  0  0  0  0
   -6.7790   22.4450  -32.0520 C   0  0  0  0  0  0  0  0  0  0  0  0
   -5.9420   23.7040  -32.0840 C   0  0  0  0  0  0  0  0  0  0  0  0
   -6.1920   24.6350  -30.8860 C   0  0  0  0  0  0  0  0  0  0  0  0
   -4.9730   24.8330  -30.0300 C   0  0  0  0  0  0  0  0  0  0  0  0
   -3.9170   25.2950  -30.5410 O   0  0  0  0  0  0  0  0  0  0  0  0
   -4.9940   24.4300  -28.6520 N   0  0  0  0  0  0  0  0  0  0  0  0
   -3.8380   24.5460  -27.7660 C   0  0  0  0  0  0  0  0  0  0  0  0
   -2.7710   23.4670  -28.0440 C   0  0  1  0  0  0  0  0  0  0  0  0
   -3.3810   22.1930  -28.6720 C   0  0  0  0  0  0  0  0  0  0  0  0
   -3.3390   22.2920  -30.0820 O   0  0  0  0  0  0  0  0  0  0  0  0
   -3.7840   21.0930  -30.6830 C   0  0  0  0  0  0  0  0  0  0  0  0
   -2.9980   20.7830  -31.9300 C   0  0  0  0  0  0  0  0  0  0  0  0
   -3.3530   19.6930  -32.7420 C   0  0  0  0  0  0  0  0  0  0  0  0
   -2.6060   19.3940  -33.8850 C   0  0  0  0  0  0  0  0  0  0  0  0
   -1.4940   20.1730  -34.2180 C   0  0  0  0  0  0  0  0  0  0  0  0
   -1.1260   21.2490  -33.4070 C   0  0  0  0  0  0  0  0  0  0  0  0
   -1.8720   21.5520  -32.2620 C   0  0  0  0  0  0  0  0  0  0  0  0
   -1.6210   24.0560  -28.7940 N   0  0  0  0  0  0  0  0  0  0  0  0
   -0.5380   23.1160  -29.1390 C   0  0  0  0  0  0  0  0  0  0  0  0
   -1.0670   25.2410  -28.1180 C   0  0  0  0  0  0  0  0  0  0  0  0
   -6.3510   21.2970  -32.7370 C   0  0  0  0  0  0  0  0  0  0  0  0
   -7.0850   20.1000  -32.6670 C   0  0  0  0  0  0  0  0  0  0  0  0
   -6.5670   18.8730  -33.3740 C   0  0  0  0  0  0  0  0  0  0  0  0
   -9.2813   18.5490  -30.7701 H   0  0  0  0  0  0  0  0  0  0  0  0
  -10.0779   18.9729  -32.3233 H   0  0  0  0  0  0  0  0  0  0  0  0
   -8.5805   17.9806  -32.3233 H   0  0  0  0  0  0  0  0  0  0  0  0
   -9.6320   21.1874  -30.6406 H   0  0  0  0  0  0  0  0  0  0  0  0
   -8.2768   23.2704  -30.7175 H   0  0  0  0  0  0  0  0  0  0  0  0
   -4.8802   23.4167  -32.0865 H   0  0  0  0  0  0  0  0  0  0  0  0
   -6.2251   24.2588  -32.9906 H   0  0  0  0  0  0  0  0  0  0  0  0
   -6.5162   25.6151  -31.2658 H   0  0  0  0  0  0  0  0  0  0  0  0
   -6.9612   24.1623  -30.2577 H   0  0  0  0  0  0  0  0  0  0  0  0
   -5.8580   23.9820  -28.2690 H   0  0  0  0  0  0  0  0  0  0  0  0
   -3.3828   25.5373  -27.9078 H   0  0  0  0  0  0  0  0  0  0  0  0
   -4.1924   24.4080  -26.7338 H   0  0  0  0  0  0  0  0  0  0  0  0
   -2.3558   23.1134  -27.0887 H   0  0  0  0  0  0  0  0  0  0  0  0
   -2.8041   21.3137  -28.3495 H   0  0  0  0  0  0  0  0  0  0  0  0
   -4.4258   22.0886  -28.3442 H   0  0  0  0  0  0  0  0  0  0  0  0
   -3.6620   20.2665  -29.9675 H   0  0  0  0  0  0  0  0  0  0  0  0
   -4.8417   21.2143  -30.9597 H   0  0  0  0  0  0  0  0  0  0  0  0
   -4.2219   19.0726  -32.4774 H   0  0  0  0  0  0  0  0  0  0  0  0
   -2.8933   18.5452  -34.5229 H   0  0  0  0  0  0  0  0  0  0  0  0
   -0.9085   19.9384  -35.1192 H   0  0  0  0  0  0  0  0  0  0  0  0
   -0.2488   21.8591  -33.6684 H   0  0  0  0  0  0  0  0  0  0  0  0
   -1.5749   22.3950  -31.6208 H   0  0  0  0  0  0  0  0  0  0  0  0
   -0.0856   22.7233  -28.2164 H   0  0  0  0  0  0  0  0  0  0  0  0
   -0.9491   22.2835  -29.7289 H   0  0  0  0  0  0  0  0  0  0  0  0
    0.2284   23.6401  -29.7289 H   0  0  0  0  0  0  0  0  0  0  0  0
   -1.1307   25.1048  -27.0283 H   0  0  0  0  0  0  0  0  0  0  0  0
   -0.0146   25.3714  -28.4103 H   0  0  0  0  0  0  0  0  0  0  0  0
   -1.6418   26.1321  -28.4103 H   0  0  0  0  0  0  0  0  0  0  0  0
   -5.4294   21.3344  -33.3363 H   0  0  0  0  0  0  0  0  0  0  0  0
   -6.2519   18.1267  -32.6299 H   0  0  0  0  0  0  0  0  0  0  0  0
   -7.3630   18.4493  -34.0039 H   0  0  0  0  0  0  0  0  0  0  0  0
   -5.7082   19.1479  -34.0039 H   0  0  0  0  0  0  0  0  0  0  0  0
  1  2  1  0
  2  3  2  0
  3  4  1  0
  4  5  2  0
  5  6  1  0
  6  7  1  0
  7  8  1  0
  8  9  2  0
  8 10  1  0
 10 11  1  0
 11 12  1  0
 12 13  1  0
 13 14  1  0
 14 15  1  0
 15 16  1  0
 16 17  2  0
 17 18  1  0
 18 19  2  0
 19 20  1  0
 20 21  2  0
 12 22  1  0
 22 23  1  0
 22 24  1  0
  5 25  1  0
 25 26  2  0
 26 27  1  0
 26  2  1  0
 21 16  1  0
  1 28  1  0
  1 29  1  0
  1 30  1  0
  3 31  1  0
  4 32  1  0
  6 33  1  0
  6 34  1  0
  7 35  1  0
  7 36  1  0
 10 37  1  0
 11 38  1  0
 11 39  1  0
 12 40  1  1
 13 41  1  0
 13 42  1  0
 15 43  1  0
 15 44  1  0
 17 45  1  0
 18 46  1  0
 19 47  1  0
 20 48  1  0
 21 49  1  0
 23 50  1  0
 23 51  1  0
 23 52  1  0
 24 53  1  0
 24 54  1  0
 24 55  1  0
 25 56  1  0
 27 57  1  0
 27 58  1  0
 27 59  1  0
M  END
>  <UniqueID>  (1) 
1

>  <SMILES>  (1) 
Cc1ccc(CCC(=O)NC[C@@H](COCc2ccccc2)N(C)C)cc1C

>  <Energy>  (1) 
54.7983358969799

>  <Genealogy>  (1) 
Cc1ccc(CCC(=O)NC[C@@H](COCc2ccccc2)N(C)C)cc1C (chirality)
Cc1ccc(CCC(=O)NC[C@@H](COCc2ccccc2)N(C)C)cc1C (3D coordinates assigned)
Cc1ccc(CCC(=O)NC[C@@H](COCc2ccccc2)N(C)C)cc1C (optimized conformer: 54.7983358969799 kcal/mol)

>  <smiles>  (1) 
Cc1ccc(CCC(=O)NCC(COCc2ccccc2)N(C)C)cc1C

>  <score_type>  (1) 
oracle

>  <origin>  (1) 
adg

>  <m_score__min__energy>  (1) 
-9.4000000000000004

>  <m_primary>  (1) 
energy

$$$$
1:0
     RDKit          3D

 40 43  0  0  0  0  0  0  0  0999 V2000
   -9.5490   21.3060  -31.9700 C   0  0  0  0  0  0  0  0  0  0  0  0
   -8.3910   20.3680  -32.1400 C   0  0  0  0  0  0  0  0  0  0  0  0
   -8.6030   18.9810  -32.1640 C   0  0  0  0  0  0  0  0  0  0  0  0
   -7.5280   18.1090  -32.3500 C   0  0  0  0  0  0  0  0  0  0  0  0
   -6.2380   18.6140  -32.5340 C   0  0  0  0  0  0  0  0  0  0  0  0
   -6.0160   20.0010  -32.5540 C   0  0  0  0  0  0  0  0  0  0  0  0
   -4.6570   20.5520  -32.7380 C   0  0  0  0  0  0  0  0  0  0  0  0
   -3.7110   19.9250  -33.4600 N   0  0  0  0  0  0  0  0  0  0  0  0
   -2.6660   20.7820  -33.4590 C   0  0  0  0  0  0  0  0  0  0  0  0
   -1.3870   20.5010  -34.1490 C   0  0  0  0  0  0  0  0  0  0  0  0
   -1.0530   19.1870  -34.5230 C   0  0  0  0  0  0  0  0  0  0  0  0
    0.1560   18.9240  -35.1740 C   0  0  0  0  0  0  0  0  0  0  0  0
    1.0410   19.9670  -35.4580 C   0  0  0  0  0  0  0  0  0  0  0  0
    2.2120   19.7080  -36.0900 F   0  0  0  0  0  0  0  0  0  0  0  0
    0.7190   21.2750  -35.0910 C   0  0  0  0  0  0  0  0  0  0  0  0
   -0.4890   21.5440  -34.4380 C   0  0  0  0  0  0  0  0  0  0  0  0
   -2.9030   21.9180  -32.7690 N   0  0  0  0  0  0  0  0  0  0  0  0
   -4.1570   21.7720  -32.3050 C   0  0  0  0  0  0  0  0  0  0  0  0
   -4.7960   22.7590  -31.4100 C   0  0  0  0  0  0  0  0  0  0  0  0
   -4.4100   22.8790  -30.0650 C   0  0  0  0  0  0  0  0  0  0  0  0
   -5.0230   23.8370  -29.2550 C   0  0  0  0  0  0  0  0  0  0  0  0
   -5.9750   24.6590  -29.7690 N   0  0  0  0  0  0  0  0  0  0  0  0
   -6.3550   24.5800  -31.0720 C   0  0  0  0  0  0  0  0  0  0  0  0
   -5.7680   23.6350  -31.9180 C   0  0  0  0  0  0  0  0  0  0  0  0
   -7.0970   20.8730  -32.3430 C   0  0  0  0  0  0  0  0  0  0  0  0
   -9.7407   21.4613  -30.8980 H   0  0  0  0  0  0  0  0  0  0  0  0
   -9.3124   22.2702  -32.4436 H   0  0  0  0  0  0  0  0  0  0  0  0
  -10.4431   20.8744  -32.4436 H   0  0  0  0  0  0  0  0  0  0  0  0
   -9.6190   18.5793  -32.0359 H   0  0  0  0  0  0  0  0  0  0  0  0
   -7.6971   17.0221  -32.3517 H   0  0  0  0  0  0  0  0  0  0  0  0
   -5.3926   17.9223  -32.6638 H   0  0  0  0  0  0  0  0  0  0  0  0
   -1.7464   18.3621  -34.3022 H   0  0  0  0  0  0  0  0  0  0  0  0
    0.4109   17.8938  -35.4632 H   0  0  0  0  0  0  0  0  0  0  0  0
    1.4162   22.0956  -35.3156 H   0  0  0  0  0  0  0  0  0  0  0  0
   -0.7374   22.5760  -34.1494 H   0  0  0  0  0  0  0  0  0  0  0  0
   -3.6298   22.2225  -29.6523 H   0  0  0  0  0  0  0  0  0  0  0  0
   -4.7343   23.9265  -28.1973 H   0  0  0  0  0  0  0  0  0  0  0  0
   -7.1260   25.2612  -31.4612 H   0  0  0  0  0  0  0  0  0  0  0  0
   -6.0659   23.5781  -32.9754 H   0  0  0  0  0  0  0  0  0  0  0  0
   -6.9282   21.9600  -32.3368 H   0  0  0  0  0  0  0  0  0  0  0  0
  1  2  1  0
  2  3  2  0
  3  4  1  0
  4  5  2  0
  5  6  1  0
  6  7  1  0
  7  8  1  0
  8  9  1  0
  9 10  1  0
 10 11  2  0
 11 12  1  0
 12 13  2  0
 13 14  1  0
 13 15  1  0
 15 16  2  0
  9 17  2  0
 17 18  1  0
 18 19  1  0
 19 20  2  0
 20 21  1  0
 21 22  2  0
 22 23  1  0
 23 24  2  0
  6 25  2  0
 25  2  1  0
 18  7  2  0
 24 19  1  0
 16 10  1  0
  1 26  1  0
  1 27  1  0
  1 28  1  0
  3 29  1  0
  4 30  1  0
  5 31  1  0
 11 32  1  0
 12 33  1  0
 15 34  1  0
 16 35  1  0
 20 36  1  0
 21 37  1  0
 23 38  1  0
 24 39  1  0
 25 40  1  0
M  CHG  1   8  -1
M  END
>  <UniqueID>  (2) 
2

>  <SMILES>  (2) 
Cc1cccc(-c2[n-]c(-c3ccc(F)cc3)nc2-c2ccncc2)c1

>  <Energy>  (2) 
81.04203817388948

>  <Genealogy>  (2) 
Cc1cccc(-c2[n-]c(-c3ccc(F)cc3)nc2-c2ccncc2)c1 (protonated)
Cc1cccc(-c2[n-]c(-c3ccc(F)cc3)nc2-c2ccncc2)c1 (3D coordinates assigned)
Cc1cccc(-c2[n-]c(-c3ccc(F)cc3)nc2-c2ccncc2)c1 (optimized conformer: 81.04203817388948 kcal/mol)

>  <smiles>  (2) 
Cc1cccc(-c2[nH]c(-c3ccc(F)cc3)nc2-c2ccncc2)c1

>  <score_type>  (2) 
oracle

>  <origin>  (2) 
adg

>  <m_score__min__energy>  (2) 
-8.2200000000000006

>  <m_primary>  (2) 
energy

$$$$
2:0
     RDKit          3D

 52 55  0  0  0  0  0  0  0  0999 V2000
   -8.3470   23.1310  -31.5880 C   0  0  0  0  0  0  0  0  0  0  0  0
   -7.1920   23.1980  -30.5920 C   0  0  0  0  0  0  0  0  0  0  0  0
   -6.8790   24.6310  -30.1370 C   0  0  0  0  0  0  0  0  0  0  0  0
   -5.5480   25.1520  -30.7070 C   0  0  0  0  0  0  0  0  0  0  0  0
   -4.3810   24.1790  -30.4700 C   0  0  0  0  0  0  0  0  0  0  0  0
   -3.6940   24.3350  -29.1050 C   0  0  0  0  0  0  0  0  0  0  0  0
   -2.4060   24.9350  -29.2440 O   0  0  0  0  0  0  0  0  0  0  0  0
   -1.2000   24.2610  -29.0200 C   0  0  0  0  0  0  0  0  0  0  0  0
   -0.2010   24.8760  -28.5560 O   0  0  0  0  0  0  0  0  0  0  0  0
   -1.0970   22.8630  -29.3210 N   0  0  0  0  0  0  0  0  0  0  0  0
   -0.8100   22.3130  -30.5290 C   0  0  0  0  0  0  0  0  0  0  0  0
   -0.7920   20.9160  -30.4410 C   0  0  0  0  0  0  0  0  0  0  0  0
   -0.4950   19.9460  -31.5140 C   0  0  0  0  0  0  0  0  0  0  0  0
    0.5310   19.2230  -31.4230 O   0  0  0  0  0  0  0  0  0  0  0  0
   -1.3070   19.8470  -32.6910 N   0  0  0  0  0  0  0  0  0  0  0  0
   -2.6940   20.2010  -32.7880 C   0  0  0  0  0  0  0  0  0  0  0  0
   -3.0420   21.5140  -33.1880 C   0  0  0  0  0  0  0  0  0  0  0  0
   -4.3530   21.8850  -33.3050 N   0  0  0  0  0  0  0  0  0  0  0  0
   -5.3220   20.9720  -33.0450 C   0  0  0  0  0  0  0  0  0  0  0  0
   -6.6470   21.1730  -33.1190 N   0  0  0  0  0  0  0  0  0  0  0  0
   -7.2090   19.9850  -32.7890 C   0  0  0  0  0  0  0  0  0  0  0  0
   -6.2310   19.0330  -32.5080 C   0  0  0  0  0  0  0  0  0  0  0  0
   -5.0320   19.6900  -32.6790 C   0  0  0  0  0  0  0  0  0  0  0  0
   -3.7190   19.2580  -32.5480 C   0  0  0  0  0  0  0  0  0  0  0  0
   -1.0640   20.6420  -29.1170 C   0  0  0  0  0  0  0  0  0  0  0  0
   -1.1610   19.4550  -28.4700 N   0  0  0  0  0  0  0  0  0  0  0  0
   -1.4500   19.4700  -27.1330 C   0  0  0  0  0  0  0  0  0  0  0  0
   -1.6390   20.7020  -26.4630 C   0  0  0  0  0  0  0  0  0  0  0  0
   -1.5330   21.8800  -27.1500 N   0  0  0  0  0  0  0  0  0  0  0  0
   -1.2470   21.8280  -28.4750 C   0  0  0  0  0  0  0  0  0  0  0  0
   -9.2999   23.0757  -31.0413 H   0  0  0  0  0  0  0  0  0  0  0  0
   -8.3387   24.0311  -32.2202 H   0  0  0  0  0  0  0  0  0  0  0  0
   -8.2347   22.2379  -32.2202 H   0  0  0  0  0  0  0  0  0  0  0  0
   -7.4553   22.5985  -29.7081 H   0  0  0  0  0  0  0  0  0  0  0  0
   -6.2962   22.8087  -31.0980 H   0  0  0  0  0  0  0  0  0  0  0  0
   -7.6903   25.2932  -30.4735 H   0  0  0  0  0  0  0  0  0  0  0  0
   -6.7929   24.6225  -29.0404 H   0  0  0  0  0  0  0  0  0  0  0  0
   -5.6646   25.3049  -31.7901 H   0  0  0  0  0  0  0  0  0  0  0  0
   -5.3086   26.0916  -30.1876 H   0  0  0  0  0  0  0  0  0  0  0  0
   -4.7681   23.1521  -30.5453 H   0  0  0  0  0  0  0  0  0  0  0  0
   -3.6215   24.4070  -31.2323 H   0  0  0  0  0  0  0  0  0  0  0  0
   -4.3183   24.9697  -28.4589 H   0  0  0  0  0  0  0  0  0  0  0  0
   -3.5685   23.3366  -28.6606 H   0  0  0  0  0  0  0  0  0  0  0  0
   -0.6184   22.8855  -31.4485 H   0  0  0  0  0  0  0  0  0  0  0  0
   -2.2487   22.2439  -33.4071 H   0  0  0  0  0  0  0  0  0  0  0  0
   -4.6030   22.8580  -33.5930 H   0  0  0  0  0  0  0  0  0  0  0  0
   -7.1410   22.0550  -33.3780 H   0  0  0  0  0  0  0  0  0  0  0  0
   -8.2921   19.7973  -32.7484 H   0  0  0  0  0  0  0  0  0  0  0  0
   -6.3832   17.9842  -32.2135 H   0  0  0  0  0  0  0  0  0  0  0  0
   -3.4852   18.2203  -32.2678 H   0  0  0  0  0  0  0  0  0  0  0  0
   -1.5355   18.5239  -26.5784 H   0  0  0  0  0  0  0  0  0  0  0  0
   -1.8715   20.7123  -25.3879 H   0  0  0  0  0  0  0  0  0  0  0  0
  1  2  1  0
  2  3  1  0
  3  4  1  0
  4  5  1  0
  5  6  1  0
  6  7  1  0
  7  8  1  0
  8  9  2  0
  8 10  1  0
 10 11  1  0
 11 12  2  0
 12 13  1  0
 13 14  2  0
 13 15  1  0
 15 16  1  0
 16 17  2  0
 17 18  1  0
 18 19  2  0
 19 20  1  0
 20 21  1  0
 21 22  2  0
 22 23  1  0
 23 24  2  0
 12 25  1  0
 25 26  2  0
 26 27  1  0
 27 28  2  0
 28 29  1  0
 29 30  2  0
 30 10  1  0
 24 16  1  0
 30 25  1  0
 23 19  1  0
  1 31  1  0
  1 32  1  0
  1 33  1  0
  2 34  1  0
  2 35  1  0
  3 36  1  0
  3 37  1  0
  4 38  1  0
  4 39  1  0
  5 40  1  0
  5 41  1  0
  6 42  1  0
  6 43  1  0
 11 44  1  0
 17 45  1  0
 18 46  1  0
 20 47  1  0
 21 48  1  0
 22 49  1  0
 24 50  1  0
 27 51  1  0
 28 52  1  0
M  CHG  2  15  -1  18   1
M  END
>  <UniqueID>  (3) 
3

>  <SMILES>  (3) 
CCCCCCOC(=O)n1cc(C(=O)[N-]c2c[nH+]c3[nH]ccc3c2)c2nccnc21

>  <Energy>  (3) 
124.78910598132643

>  <Genealogy>  (3) 
CCCCCCOC(=O)n1cc(C(=O)[N-]c2c[nH+]c3[nH]ccc3c2)c2nccnc21 (protonated)
CCCCCCOC(=O)n1cc(C(=O)[N-]c2c[nH+]c3[nH]ccc3c2)c2nccnc21 (3D coordinates assigned)
CCCCCCOC(=O)n1cc(C(=O)[N-]c2c[nH+]c3[nH]ccc3c2)c2nccnc21 (optimized conformer: 124.78910598132643 kcal/mol)

>  <smiles>  (3) 
CCCCCCOC(=O)n1cc(C(=O)Nc2cnc3[nH]ccc3c2)c2nccnc21

>  <score_type>  (3) 
oracle

>  <origin>  (3) 
adg

>  <m_score__min__energy>  (3) 
-9.8800000000000008

>  <m_primary>  (3) 
energy

$$$$
3:0
     RDKit          3D

 56 59  0  0  0  0  0  0  0  0999 V2000
   -2.2960   25.2110  -26.7000 C   0  0  0  0  0  0  0  0  0  0  0  0
   -3.6640   24.8450  -27.1110 N   0  0  0  0  0  0  0  0  0  0  0  0
   -4.5970   24.9320  -25.9750 C   0  0  0  0  0  0  0  0  0  0  0  0
   -3.7270   23.5430  -27.8240 C   0  0  0  0  0  0  0  0  0  0  0  0
   -3.7980   23.6200  -29.3680 C   0  0  0  0  0  0  0  0  0  0  0  0
   -5.1850   23.8790  -29.8860 C   0  0  0  0  0  0  0  0  0  0  0  0
   -5.9320   25.0400  -29.7020 C   0  0  0  0  0  0  0  0  0  0  0  0
   -7.1240   24.9390  -30.3330 N   0  0  0  0  0  0  0  0  0  0  0  0
   -7.1340   23.7290  -30.9180 C   0  0  0  0  0  0  0  0  0  0  0  0
   -8.1560   23.1720  -31.6810 C   0  0  0  0  0  0  0  0  0  0  0  0
   -7.9630   21.8810  -32.2010 C   0  0  0  0  0  0  0  0  0  0  0  0
   -6.7580   21.1680  -31.9540 C   0  0  0  0  0  0  0  0  0  0  0  0
   -6.5680   19.8020  -32.5030 C   0  0  0  0  0  0  0  0  0  0  0  0
   -5.8140   19.6000  -33.6730 C   0  0  0  0  0  0  0  0  0  0  0  0
   -5.6380   18.3150  -34.1920 C   0  0  0  0  0  0  0  0  0  0  0  0
   -6.2050   17.2030  -33.5490 C   0  0  0  0  0  0  0  0  0  0  0  0
   -6.0340   15.8790  -34.0920 N   0  0  0  0  0  0  0  0  0  0  0  0
   -7.2040   15.0050  -34.2720 C   0  0  0  0  0  0  0  0  0  0  0  0
   -6.7890   13.5440  -34.4990 C   0  0  0  0  0  0  0  0  0  0  0  0
   -5.6590   13.1560  -33.5370 C   0  0  0  0  0  0  0  0  0  0  0  0
   -4.4140   14.0590  -33.6840 C   0  0  0  0  0  0  0  0  0  0  0  0
   -4.6970   15.3710  -34.4320 C   0  0  0  0  0  0  0  0  0  0  0  0
   -6.9650   17.4030  -32.3850 C   0  0  0  0  0  0  0  0  0  0  0  0
   -7.1430   18.6880  -31.8660 C   0  0  0  0  0  0  0  0  0  0  0  0
   -5.7420   21.7730  -31.1780 C   0  0  0  0  0  0  0  0  0  0  0  0
   -5.9660   23.0550  -30.6760 C   0  0  0  0  0  0  0  0  0  0  0  0
   -2.2351   25.2273  -25.6018 H   0  0  0  0  0  0  0  0  0  0  0  0
   -1.5841   24.4717  -27.0958 H   0  0  0  0  0  0  0  0  0  0  0  0
   -2.0483   26.2070  -27.0958 H   0  0  0  0  0  0  0  0  0  0  0  0
   -3.9710   25.5690  -27.8040 H   0  0  0  0  0  0  0  0  0  0  0  0
   -4.0327   24.8794  -25.0322 H   0  0  0  0  0  0  0  0  0  0  0  0
   -5.1442   25.8851  -26.0221 H   0  0  0  0  0  0  0  0  0  0  0  0
   -5.3110   24.0965  -26.0221 H   0  0  0  0  0  0  0  0  0  0  0  0
   -2.8280   22.9684  -27.5563 H   0  0  0  0  0  0  0  0  0  0  0  0
   -4.6703   23.0750  -27.5059 H   0  0  0  0  0  0  0  0  0  0  0  0
   -3.1405   24.4338  -29.7078 H   0  0  0  0  0  0  0  0  0  0  0  0
   -3.4812   22.6416  -29.7584 H   0  0  0  0  0  0  0  0  0  0  0  0
   -5.5995   25.9155  -29.1250 H   0  0  0  0  0  0  0  0  0  0  0  0
   -7.8800   25.6590  -30.3590 H   0  0  0  0  0  0  0  0  0  0  0  0
   -9.0871   23.7259  -31.8713 H   0  0  0  0  0  0  0  0  0  0  0  0
   -8.7545   21.4159  -32.8070 H   0  0  0  0  0  0  0  0  0  0  0  0
   -5.3589   20.4614  -34.1838 H   0  0  0  0  0  0  0  0  0  0  0  0
   -5.0508   18.1733  -35.1113 H   0  0  0  0  0  0  0  0  0  0  0  0
   -7.8336   15.0615  -33.3717 H   0  0  0  0  0  0  0  0  0  0  0  0
   -7.7560   15.3476  -35.1597 H   0  0  0  0  0  0  0  0  0  0  0  0
   -7.6554   12.8893  -34.3240 H   0  0  0  0  0  0  0  0  0  0  0  0
   -6.4332   13.4297  -35.5336 H   0  0  0  0  0  0  0  0  0  0  0  0
   -6.0321   13.2363  -32.5053 H   0  0  0  0  0  0  0  0  0  0  0  0
   -5.3540   12.1276  -33.7805 H   0  0  0  0  0  0  0  0  0  0  0  0
   -4.0404   14.3042  -32.6789 H   0  0  0  0  0  0  0  0  0  0  0  0
   -3.6753   13.4998  -34.2770 H   0  0  0  0  0  0  0  0  0  0  0  0
   -3.9424   16.1195  -34.1484 H   0  0  0  0  0  0  0  0  0  0  0  0
   -4.6534   15.1801  -35.5144 H   0  0  0  0  0  0  0  0  0  0  0  0
   -7.4237   16.5413  -31.8780 H   0  0  0  0  0  0  0  0  0  0  0  0
   -7.7378   18.8294  -30.9516 H   0  0  0  0  0  0  0  0  0  0  0  0
   -4.7983   21.2455  -30.9753 H   0  0  0  0  0  0  0  0  0  0  0  0
  1  2  1  0
  2  3  1  0
  2  4  1  0
  4  5  1  0
  5  6  1  0
  6  7  2  0
  7  8  1  0
  8  9  1  0
  9 10  2  0
 10 11  1  0
 11 12  2  0
 12 13  1  0
 13 14  2  0
 14 15  1  0
 15 16  2  0
 16 17  1  0
 17 18  1  0
 18 19  1  0
 19 20  1  0
 20 21  1  0
 21 22  1  0
 16 23  1  0
 23 24  2  0
 12 25  1  0
 25 26  2  0
 26  6  1  0
 26  9  1  0
 24 13  1  0
 22 17  1  0
  1 27  1  0
  1 28  1  0
  1 29  1  0
  2 30  1  0
  3 31  1  0
  3 32  1  0
  3 33  1  0
  4 34  1  0
  4 35  1  0
  5 36  1  0
  5 37  1  0
  7 38  1  0
  8 39  1  0
 10 40  1  0
 11 41  1  0
 14 42  1  0
 15 43  1  0
 18 44  1  0
 18 45  1  0
 19 46  1  0
 19 47  1  0
 20 48  1  0
 20 49  1  0
 21 50  1  0
 21 51  1  0
 22 52  1  0
 22 53  1  0
 23 54  1  0
 24 55  1  0
 25 56  1  0
M  CHG  1   2   1
M  END
>  <UniqueID>  (4) 
4

>  <SMILES>  (4) 
C[NH+](C)CCc1c[nH]c2ccc(-c3ccc(N4CCCCC4)cc3)cc12

>  <Energy>  (4) 
103.58467734037892

>  <Genealogy>  (4) 
C[NH+](C)CCc1c[nH]c2ccc(-c3ccc(N4CCCCC4)cc3)cc12 (protonated)
C[NH+](C)CCc1c[nH]c2ccc(-c3ccc(N4CCCCC4)cc3)cc12 (3D coordinates assigned)
C[NH+](C)CCc1c[nH]c2ccc(-c3ccc(N4CCCCC4)cc3)cc12 (nonaromatic ring conformer: 103.58467734037892 kcal/mol)

>  <smiles>  (4) 
CN(C)CCc1c[nH]c2ccc(-c3ccc(N4CCCCC4)cc3)cc12

>  <score_type>  (4) 
oracle

>  <origin>  (4) 
adg

>  <m_score__min__energy>  (4) 
-8.1199999999999992

>  <m_primary>  (4) 
energy

$$$$
4:0
     RDKit          3D

 36 38  0  0  0  0  0  0  0  0999 V2000
   -2.4520   21.7110  -31.7160 C   0  0  0  0  0  0  0  0  0  0  0  0
   -3.4730   22.6130  -32.1280 O   0  0  0  0  0  0  0  0  0  0  0  0
   -4.8510   22.3730  -32.0060 C   0  0  0  0  0  0  0  0  0  0  0  0
   -5.4890   21.3310  -32.7090 C   0  0  0  0  0  0  0  0  0  0  0  0
   -6.8630   21.1230  -32.5720 C   0  0  0  0  0  0  0  0  0  0  0  0
   -7.6180   21.9490  -31.7370 C   0  0  0  0  0  0  0  0  0  0  0  0
   -9.3450   21.6930  -31.5750 Cl  0  0  0  0  0  0  0  0  0  0  0  0
   -6.9960   22.9810  -31.0300 C   0  0  0  0  0  0  0  0  0  0  0  0
   -5.6150   23.1960  -31.1560 C   0  0  0  0  0  0  0  0  0  0  0  0
   -4.8500   24.5100  -30.2590 S   0  0  0  0  0  0  0  0  0  0  0  0
   -5.7220   24.9560  -29.1170 O   0  0  0  0  0  0  0  0  0  0  0  0
   -4.6360   25.6670  -31.1960 O   0  0  0  0  0  0  0  0  0  0  0  0
   -3.3150   23.9980  -29.6330 N   0  0  0  0  0  0  0  0  0  0  0  0
   -2.6530   24.5800  -28.5020 C   0  0  0  0  0  0  0  0  0  0  0  0
   -3.2930   24.5380  -27.2580 C   0  0  0  0  0  0  0  0  0  0  0  0
   -2.6940   25.1090  -26.1320 C   0  0  0  0  0  0  0  0  0  0  0  0
   -1.4330   25.7260  -26.2300 C   0  0  0  0  0  0  0  0  0  0  0  0
   -0.7950   26.3050  -25.0760 N   0  0  0  0  0  0  0  0  0  0  0  0
   -0.0870   25.6900  -24.1080 C   0  0  0  0  0  0  0  0  0  0  0  0
    0.3230   26.6100  -23.2190 N   0  0  0  0  0  0  0  0  0  0  0  0
   -0.1360   27.7760  -23.6420 N   0  0  0  0  0  0  0  0  0  0  0  0
   -0.8130   27.5920  -24.7670 N   0  0  0  0  0  0  0  0  0  0  0  0
   -0.7880   25.7560  -27.4790 C   0  0  0  0  0  0  0  0  0  0  0  0
   -1.3920   25.1900  -28.6070 C   0  0  0  0  0  0  0  0  0  0  0  0
   -2.4140   21.6774  -30.6172 H   0  0  0  0  0  0  0  0  0  0  0  0
   -2.6711   20.7062  -32.1062 H   0  0  0  0  0  0  0  0  0  0  0  0
   -1.4818   22.0523  -32.1062 H   0  0  0  0  0  0  0  0  0  0  0  0
   -4.9007   20.6774  -33.3698 H   0  0  0  0  0  0  0  0  0  0  0  0
   -7.3518   20.3063  -33.1234 H   0  0  0  0  0  0  0  0  0  0  0  0
   -7.5923   23.6289  -30.3707 H   0  0  0  0  0  0  0  0  0  0  0  0
   -4.2753   24.0516  -27.1659 H   0  0  0  0  0  0  0  0  0  0  0  0
   -3.2119   25.0760  -25.1621 H   0  0  0  0  0  0  0  0  0  0  0  0
    0.1211   24.6112  -24.0546 H   0  0  0  0  0  0  0  0  0  0  0  0
    0.8930   26.4570  -22.3570 H   0  0  0  0  0  0  0  0  0  0  0  0
    0.2009   26.2290  -27.5702 H   0  0  0  0  0  0  0  0  0  0  0  0
   -0.8779   25.2228  -29.5789 H   0  0  0  0  0  0  0  0  0  0  0  0
  1  2  1  0
  2  3  1  0
  3  4  2  0
  4  5  1  0
  5  6  2  0
  6  7  1  0
  6  8  1  0
  8  9  2  0
  9 10  1  0
 10 11  2  0
 10 12  2  0
 10 13  1  0
 13 14  1  0
 14 15  2  0
 15 16  1  0
 16 17  2  0
 17 18  1  0
 18 19  1  0
 19 20  2  0
 20 21  1  0
 21 22  2  0
 17 23  1  0
 23 24  2  0
  9  3  1  0
 24 14  1  0
 22 18  1  0
  1 25  1  0
  1 26  1  0
  1 27  1  0
  4 28  1  0
  5 29  1  0
  8 30  1  0
 15 31  1  0
 16 32  1  0
 19 33  1  0
 20 34  1  0
 23 35  1  0
 24 36  1  0
M  CHG  2  13  -1  20   1
M  END
>  <UniqueID>  (5) 
5

>  <SMILES>  (5) 
COc1ccc(Cl)cc1S(=O)(=O)[N-]c1ccc(-n2c[nH+]nn2)cc1

>  <Energy>  (5) 
84.14260170038956

>  <Genealogy>  (5) 
COc1ccc(Cl)cc1S(=O)(=O)[N-]c1ccc(-n2c[nH+]nn2)cc1 (protonated)
COc1ccc(Cl)cc1S(=O)(=O)[N-]c1ccc(-n2c[nH+]nn2)cc1 (3D coordinates assigned)
COc1ccc(Cl)cc1S(=O)(=O)[N-]c1ccc(-n2c[nH+]nn2)cc1 (optimized conformer: 84.14260170038956 kcal/mol)

>  <smiles>  (5) 
COc1ccc(Cl)cc1S(=O)(=O)Nc1ccc(-n2cnnn2)cc1

>  <score_type>  (5) 
oracle

>  <origin>  (5) 
adg

>  <m_score__min__energy>  (5) 
-10.23

>  <m_primary>  (5) 
energy

$$$$
5:0
     RDKit          3D

 47 50  0  0  0  0  0  0  0  0999 V2000
   -5.3740   25.9480  -30.4680 C   0  0  0  0  0  0  0  0  0  0  0  0
   -4.0950   25.3220  -30.4920 O   0  0  0  0  0  0  0  0  0  0  0  0
   -3.8740   23.9620  -30.2290 C   0  0  0  0  0  0  0  0  0  0  0  0
   -3.4920   23.4910  -28.9580 C   0  0  0  0  0  0  0  0  0  0  0  0
   -3.2770   22.1270  -28.7500 C   0  0  0  0  0  0  0  0  0  0  0  0
   -3.4460   21.2200  -29.8000 C   0  0  0  0  0  0  0  0  0  0  0  0
   -3.8510   21.6720  -31.0660 C   0  0  0  0  0  0  0  0  0  0  0  0
   -4.0160   20.7260  -32.1940 C   0  0  0  0  0  0  0  0  0  0  0  0
   -2.8970   20.1610  -32.7190 N   0  0  0  0  0  0  0  0  0  0  0  0
   -2.9530   19.2430  -33.7200 C   0  0  0  0  0  0  0  0  0  0  0  0
   -1.7430   18.6650  -34.2530 N   0  0  0  0  0  0  0  0  0  0  0  0
   -0.6320   19.5480  -34.6300 C   0  0  0  0  0  0  0  0  0  0  0  0
    0.5530   18.7420  -35.1710 C   0  0  0  0  0  0  0  0  0  0  0  0
    0.0840   17.7370  -36.1290 N   0  0  0  0  0  0  0  0  0  0  0  0
   -0.7970   16.7270  -35.5090 C   0  0  0  0  0  0  0  0  0  0  0  0
   -1.5320   17.2090  -34.2380 C   0  0  0  0  0  0  0  0  0  0  0  0
   -4.1640   18.8720  -34.2140 N   0  0  0  0  0  0  0  0  0  0  0  0
   -5.3140   19.4070  -33.7360 C   0  0  0  0  0  0  0  0  0  0  0  0
   -5.2810   20.3660  -32.7140 C   0  0  0  0  0  0  0  0  0  0  0  0
   -6.5400   21.0200  -32.2800 C   0  0  0  0  0  0  0  0  0  0  0  0
   -7.6180   20.2620  -31.7950 C   0  0  0  0  0  0  0  0  0  0  0  0
   -8.7880   20.9100  -31.3950 C   0  0  0  0  0  0  0  0  0  0  0  0
   -8.8790   22.3000  -31.4850 C   0  0  0  0  0  0  0  0  0  0  0  0
   -7.7910   23.0240  -31.9770 C   0  0  0  0  0  0  0  0  0  0  0  0
   -6.6600   22.3750  -32.3610 N   0  0  0  0  0  0  0  0  0  0  0  0
   -4.0430   23.0470  -31.2760 C   0  0  0  0  0  0  0  0  0  0  0  0
   -5.6876   26.1015  -29.4249 H   0  0  0  0  0  0  0  0  0  0  0  0
   -5.3163   26.9197  -30.9803 H   0  0  0  0  0  0  0  0  0  0  0  0
   -6.1060   25.3063  -30.9803 H   0  0  0  0  0  0  0  0  0  0  0  0
   -3.3626   24.1996  -28.1267 H   0  0  0  0  0  0  0  0  0  0  0  0
   -2.9736   21.7651  -27.7565 H   0  0  0  0  0  0  0  0  0  0  0  0
   -3.2611   20.1485  -29.6339 H   0  0  0  0  0  0  0  0  0  0  0  0
   -0.9760   20.2467  -35.4068 H   0  0  0  0  0  0  0  0  0  0  0  0
   -0.3024   20.0967  -33.7354 H   0  0  0  0  0  0  0  0  0  0  0  0
    1.2567   19.4223  -35.6729 H   0  0  0  0  0  0  0  0  0  0  0  0
    1.0549   18.2345  -34.3340 H   0  0  0  0  0  0  0  0  0  0  0  0
   -0.4430   18.2240  -36.8910 H   0  0  0  0  0  0  0  0  0  0  0  0
   -1.5529   16.4293  -36.2506 H   0  0  0  0  0  0  0  0  0  0  0  0
   -0.1477   15.8954  -35.1977 H   0  0  0  0  0  0  0  0  0  0  0  0
   -2.5092   16.7074  -34.1790 H   0  0  0  0  0  0  0  0  0  0  0  0
   -0.9094   16.9608  -33.3658 H   0  0  0  0  0  0  0  0  0  0  0  0
   -6.2801   19.0864  -34.1530 H   0  0  0  0  0  0  0  0  0  0  0  0
   -7.5412   19.1666  -31.7308 H   0  0  0  0  0  0  0  0  0  0  0  0
   -9.6368   20.3262  -31.0095 H   0  0  0  0  0  0  0  0  0  0  0  0
   -9.7970   22.8190  -31.1720 H   0  0  0  0  0  0  0  0  0  0  0  0
   -7.8492   24.1198  -32.0538 H   0  0  0  0  0  0  0  0  0  0  0  0
   -4.3294   23.4098  -32.2742 H   0  0  0  0  0  0  0  0  0  0  0  0
  1  2  1  0
  2  3  1  0
  3  4  2  0
  4  5  1  0
  5  6  2  0
  6  7  1  0
  7  8  1  0
  8  9  2  0
  9 10  1  0
 10 11  1  0
 11 12  1  0
 12 13  1  0
 13 14  1  0
 14 15  1  0
 15 16  1  0
 10 17  2  0
 17 18  1  0
 18 19  2  0
 19 20  1  0
 20 21  2  0
 21 22  1  0
 22 23  2  0
 23 24  1  0
 24 25  2  0
  7 26  2  0
 26  3  1  0
 19  8  1  0
 25 20  1  0
 16 11  1  0
  1 27  1  0
  1 28  1  0
  1 29  1  0
  4 30  1  0
  5 31  1  0
  6 32  1  0
 12 33  1  0
 12 34  1  0
 13 35  1  0
 13 36  1  0
 14 37  1  0
 15 38  1  0
 15 39  1  0
 16 40  1  0
 16 41  1  0
 18 42  1  0
 21 43  1  0
 22 44  1  0
 23 45  1  0
 24 46  1  0
 26 47  1  0
M  END
>  <UniqueID>  (6) 
6

>  <SMILES>  (6) 
COc1cccc(-c2nc(N3CCNCC3)ncc2-c2ccccn2)c1

>  <Energy>  (6) 
66.98593468122387

>  <Genealogy>  (6) 
COc1cccc(-c2nc(N3CCNCC3)ncc2-c2ccccn2)c1 (3D coordinates assigned)
COc1cccc(-c2nc(N3CCNCC3)ncc2-c2ccccn2)c1 (nonaromatic ring conformer: 66.98593468122387 kcal/mol)

>  <smiles>  (6) 
COc1cccc(-c2nc(N3CCNCC3)ncc2-c2ccccn2)c1

>  <score_type>  (6) 
oracle

>  <origin>  (6) 
adg

>  <m_score__min__energy>  (6) 
-8.4499999999999993

>  <m_primary>  (6) 
energy

$$$$
6:0
     RDKit          3D

 31 33  0  0  0  0  0  0  0  0999 V2000
   -2.7380   24.5500  -29.4560 C   0  0  0  0  0  0  0  0  0  0  0  0
   -3.6880   24.8780  -30.4650 O   0  0  0  0  0  0  0  0  0  0  0  0
   -4.7970   24.0870  -30.8050 C   0  0  0  0  0  0  0  0  0  0  0  0
   -6.0610   24.5480  -30.4480 C   0  0  0  0  0  0  0  0  0  0  0  0
   -7.1960   23.8080  -30.7580 C   0  0  0  0  0  0  0  0  0  0  0  0
   -7.0920   22.5760  -31.4380 C   0  0  0  0  0  0  0  0  0  0  0  0
   -8.2500   21.8390  -31.7430 C   0  0  0  0  0  0  0  0  0  0  0  0
   -9.3760   22.2990  -31.3990 O   0  0  0  0  0  0  0  0  0  0  0  0
   -8.1700   20.6370  -32.4040 N   0  0  0  0  0  0  0  0  0  0  0  0
   -9.4150   19.8960  -32.7040 C   0  0  0  0  0  0  0  0  0  0  0  0
   -6.9450   20.1250  -32.7840 C   0  0  0  0  0  0  0  0  0  0  0  0
   -6.8530   18.8830  -33.4670 C   0  0  0  0  0  0  0  0  0  0  0  0
   -5.6240   18.3610  -33.8540 C   0  0  0  0  0  0  0  0  0  0  0  0
   -4.4550   19.0500  -33.5750 C   0  0  0  0  0  0  0  0  0  0  0  0
   -4.5050   20.2710  -32.9060 C   0  0  0  0  0  0  0  0  0  0  0  0
   -5.7400   20.8370  -32.4960 C   0  0  0  0  0  0  0  0  0  0  0  0
   -5.8190   22.0820  -31.8110 C   0  0  0  0  0  0  0  0  0  0  0  0
   -4.6770   22.8600  -31.4820 C   0  0  0  0  0  0  0  0  0  0  0  0
   -3.1880   24.7054  -28.4643 H   0  0  0  0  0  0  0  0  0  0  0  0
   -2.4393   23.4967  -29.5622 H   0  0  0  0  0  0  0  0  0  0  0  0
   -1.8530   25.1946  -29.5622 H   0  0  0  0  0  0  0  0  0  0  0  0
   -6.1624   25.5056  -29.9163 H   0  0  0  0  0  0  0  0  0  0  0  0
   -8.1874   24.1874  -30.4697 H   0  0  0  0  0  0  0  0  0  0  0  0
   -9.9042   19.6048  -31.7628 H   0  0  0  0  0  0  0  0  0  0  0  0
  -10.0925   20.5379  -33.2861 H   0  0  0  0  0  0  0  0  0  0  0  0
   -9.1738   18.9943  -33.2861 H   0  0  0  0  0  0  0  0  0  0  0  0
   -7.7722   18.3232  -33.6942 H   0  0  0  0  0  0  0  0  0  0  0  0
   -5.5796   17.3978  -34.3834 H   0  0  0  0  0  0  0  0  0  0  0  0
   -3.4850   18.6321  -33.8824 H   0  0  0  0  0  0  0  0  0  0  0  0
   -3.5687   20.8069  -32.6914 H   0  0  0  0  0  0  0  0  0  0  0  0
   -3.6779   22.4952  -31.7626 H   0  0  0  0  0  0  0  0  0  0  0  0
  1  2  1  0
  2  3  1  0
  3  4  2  0
  4  5  1  0
  5  6  2  0
  6  7  1  0
  7  8  2  0
  7  9  1  0
  9 10  1  0
  9 11  1  0
 11 12  2  0
 12 13  1  0
 13 14  2  0
 14 15  1  0
 15 16  2  0
 16 17  1  0
 17 18  2  0
 18  3  1  0
 17  6  1  0
 16 11  1  0
  1 19  1  0
  1 20  1  0
  1 21  1  0
  4 22  1  0
  5 23  1  0
 10 24  1  0
 10 25  1  0
 10 26  1  0
 12 27  1  0
 13 28  1  0
 14 29  1  0
 15 30  1  0
 18 31  1  0
M  END
>  <UniqueID>  (7) 
7

>  <SMILES>  (7) 
COc1ccc2c(=O)n(C)c3ccccc3c2c1

>  <Energy>  (7) 
53.93590939468224

>  <Genealogy>  (7) 
COc1ccc2c(=O)n(C)c3ccccc3c2c1 (3D coordinates assigned)
COc1ccc2c(=O)n(C)c3ccccc3c2c1 (optimized conformer: 53.93590939468224 kcal/mol)

>  <smiles>  (7) 
COc1ccc2c(=O)n(C)c3ccccc3c2c1

>  <score_type>  (7) 
oracle

>  <origin>  (7) 
adg

>  <m_score__min__energy>  (7) 
-7.9800000000000004

>  <m_primary>  (7) 
energy

$$$$
7:0
     RDKit          3D

 53 57  0  0  0  0  0  0  0  0999 V2000
   -0.5240   18.3450  -35.5180 O   0  0  0  0  0  0  0  0  0  0  0  0
   -0.9110   19.0550  -34.5480 C   0  0  0  0  0  0  0  0  0  0  0  0
   -2.2190   18.9700  -34.1070 C   0  0  0  0  0  0  0  0  0  0  0  0
   -3.2220   18.2230  -34.5900 N   0  0  0  0  0  0  0  0  0  0  0  0
   -4.2580   18.5790  -33.7850 C   0  0  0  0  0  0  0  0  0  0  0  0
   -5.6430   18.0520  -33.9710 C   0  0  0  0  0  0  0  0  0  0  0  0
   -6.6230   18.9170  -33.2300 C   0  0  0  0  0  0  0  0  0  0  0  0
   -6.5930   20.3130  -33.3810 C   0  0  0  0  0  0  0  0  0  0  0  0
   -7.4790   21.1200  -32.6600 C   0  0  0  0  0  0  0  0  0  0  0  0
   -8.3930   20.5400  -31.7750 C   0  0  0  0  0  0  0  0  0  0  0  0
   -9.5010   21.5540  -30.8690 Cl  0  0  0  0  0  0  0  0  0  0  0  0
   -8.4200   19.1510  -31.6090 C   0  0  0  0  0  0  0  0  0  0  0  0
   -7.5360   18.3430  -32.3290 C   0  0  0  0  0  0  0  0  0  0  0  0
   -3.9520   19.5170  -32.8500 N   0  0  0  0  0  0  0  0  0  0  0  0
   -2.6460   19.7290  -33.0810 C   0  0  0  0  0  0  0  0  0  0  0  0
   -1.8330   20.6080  -32.4360 N   0  0  0  0  0  0  0  0  0  0  0  0
   -2.3420   21.4210  -31.3590 C   0  0  0  0  0  0  0  0  0  0  0  0
   -1.7780   21.3300  -30.0770 C   0  0  0  0  0  0  0  0  0  0  0  0
   -2.2530   22.1370  -29.0420 C   0  0  0  0  0  0  0  0  0  0  0  0
   -3.2970   23.0350  -29.2730 C   0  0  0  0  0  0  0  0  0  0  0  0
   -3.8930   23.1220  -30.5440 C   0  0  0  0  0  0  0  0  0  0  0  0
   -4.9860   24.1260  -30.8100 C   0  0  0  0  0  0  0  0  0  0  0  0
   -5.5650   23.9050  -32.0470 F   0  0  0  0  0  0  0  0  0  0  0  0
   -4.4780   25.4130  -30.7950 F   0  0  0  0  0  0  0  0  0  0  0  0
   -5.9550   24.0130  -29.8320 F   0  0  0  0  0  0  0  0  0  0  0  0
   -3.3920   22.3240  -31.5880 C   0  0  0  0  0  0  0  0  0  0  0  0
   -0.5220   20.7010  -32.8530 C   0  0  0  0  0  0  0  0  0  0  0  0
    0.2650   21.4900  -32.2570 O   0  0  0  0  0  0  0  0  0  0  0  0
   -0.0580   19.9280  -33.9070 N   0  0  0  0  0  0  0  0  0  0  0  0
    1.3370   20.0750  -34.3720 C   0  0  0  0  0  0  0  0  0  0  0  0
    1.5390   21.4290  -35.0030 C   0  0  0  0  0  0  0  0  0  0  0  0
    0.4430   22.1560  -35.4970 C   0  0  0  0  0  0  0  0  0  0  0  0
    0.6400   23.3960  -36.1120 C   0  0  0  0  0  0  0  0  0  0  0  0
    1.9300   23.9180  -36.2430 C   0  0  0  0  0  0  0  0  0  0  0  0
    3.0260   23.1990  -35.7580 C   0  0  0  0  0  0  0  0  0  0  0  0
    2.8340   21.9580  -35.1420 C   0  0  0  0  0  0  0  0  0  0  0  0
   -5.8928   18.0530  -35.0422 H   0  0  0  0  0  0  0  0  0  0  0  0
   -5.6960   17.0260  -33.5779 H   0  0  0  0  0  0  0  0  0  0  0  0
   -5.8693   20.7738  -34.0695 H   0  0  0  0  0  0  0  0  0  0  0  0
   -7.4568   22.2121  -32.7893 H   0  0  0  0  0  0  0  0  0  0  0  0
   -9.1376   18.6947  -30.9112 H   0  0  0  0  0  0  0  0  0  0  0  0
   -7.5549   17.2520  -32.1898 H   0  0  0  0  0  0  0  0  0  0  0  0
   -0.9591   20.6205  -29.8874 H   0  0  0  0  0  0  0  0  0  0  0  0
   -1.8033   22.0653  -28.0407 H   0  0  0  0  0  0  0  0  0  0  0  0
   -3.6555   23.6783  -28.4559 H   0  0  0  0  0  0  0  0  0  0  0  0
   -3.8275   22.4083  -32.5946 H   0  0  0  0  0  0  0  0  0  0  0  0
    2.0182   19.9690  -33.5148 H   0  0  0  0  0  0  0  0  0  0  0  0
    1.5483   19.2968  -35.1202 H   0  0  0  0  0  0  0  0  0  0  0  0
   -0.5739   21.7481  -35.3996 H   0  0  0  0  0  0  0  0  0  0  0  0
   -0.2224   23.9622  -36.4937 H   0  0  0  0  0  0  0  0  0  0  0  0
    2.0825   24.8938  -36.7274 H   0  0  0  0  0  0  0  0  0  0  0  0
    4.0412   23.6097  -35.8609 H   0  0  0  0  0  0  0  0  0  0  0  0
    3.6997   21.3938  -34.7649 H   0  0  0  0  0  0  0  0  0  0  0  0
  1  2  2  0
  2  3  1  0
  3  4  1  0
  4  5  1  0
  5  6  1  0
  6  7  1  0
  7  8  2  0
  8  9  1  0
  9 10  2  0
 10 11  1  0
 10 12  1  0
 12 13  2  0
  5 14  2  0
 14 15  1  0
 15 16  1  0
 16 17  1  0
 17 18  2  0
 18 19  1  0
 19 20  2  0
 20 21  1  0
 21 22  1  0
 22 23  1  0
 22 24  1  0
 22 25  1  0
 21 26  2  0
 16 27  1  0
 27 28  2  0
 27 29  1  0
 29 30  1  0
 30 31  1  0
 31 32  2  0
 32 33  1  0
 33 34  2  0
 34 35  1  0
 35 36  2  0
 29  2  1  0
 36 31  1  0
 15  3  2  0
 26 17  1  0
 13  7  1  0
  6 37  1  0
  6 38  1  0
  8 39  1  0
  9 40  1  0
 12 41  1  0
 13 42  1  0
 18 43  1  0
 19 44  1  0
 20 45  1  0
 26 46  1  0
 30 47  1  0
 30 48  1  0
 32 49  1  0
 33 50  1  0
 34 51  1  0
 35 52  1  0
 36 53  1  0
M  CHG  1   4  -1
M  END
>  <UniqueID>  (8) 
8

>  <SMILES>  (8) 
O=c1c2[n-]c(Cc3ccc(Cl)cc3)nc2n(-c2cccc(C(F)(F)F)c2)c(=O)n1Cc1ccccc1

>  <Energy>  (8) 
106.06094115459835

>  <Genealogy>  (8) 
O=c1c2[n-]c(Cc3ccc(Cl)cc3)nc2n(-c2cccc(C(F)(F)F)c2)c(=O)n1Cc1ccccc1 (protonated)
O=c1c2[n-]c(Cc3ccc(Cl)cc3)nc2n(-c2cccc(C(F)(F)F)c2)c(=O)n1Cc1ccccc1 (3D coordinates assigned)
O=c1c2[n-]c(Cc3ccc(Cl)cc3)nc2n(-c2cccc(C(F)(F)F)c2)c(=O)n1Cc1ccccc1 (optimized conformer: 106.06094115459835 kcal/mol)

>  <smiles>  (8) 
O=c1c2[nH]c(Cc3ccc(Cl)cc3)nc2n(-c2cccc(C(F)(F)F)c2)c(=O)n1Cc1ccccc1

>  <score_type>  (8) 
oracle

>  <origin>  (8) 
adg

>  <m_score__min__energy>  (8) 
-10.720000000000001

>  <m_primary>  (8) 
energy

$$$$
8:0
     RDKit          3D

 67 69  0  0  0  0  0  0  0  0999 V2000
   -5.9510   26.0430  -30.0230 C   0  0  0  0  0  0  0  0  0  0  0  0
   -4.8190   25.2140  -30.5490 C   0  0  0  0  0  0  0  0  0  0  0  0
   -5.0090   24.4810  -31.5550 O   0  0  0  0  0  0  0  0  0  0  0  0
   -3.5120   25.2540  -29.9600 N   0  0  0  0  0  0  0  0  0  0  0  0
   -3.0960   24.5560  -28.7460 C   0  0  2  0  0  0  0  0  0  0  0  0
   -1.5690   24.6780  -28.5800 C   0  0  0  0  0  0  0  0  0  0  0  0
   -1.2220   25.5360  -27.3910 C   0  0  0  0  0  0  0  0  0  0  0  0
   -0.4760   26.7150  -27.5600 C   0  0  0  0  0  0  0  0  0  0  0  0
   -0.1930   27.5320  -26.4610 C   0  0  0  0  0  0  0  0  0  0  0  0
   -0.6560   27.1840  -25.1910 C   0  0  0  0  0  0  0  0  0  0  0  0
   -1.4080   26.0180  -25.0150 C   0  0  0  0  0  0  0  0  0  0  0  0
   -1.6960   25.1990  -26.1110 C   0  0  0  0  0  0  0  0  0  0  0  0
   -3.6000   23.0870  -28.7350 C   0  0  1  0  0  0  0  0  0  0  0  0
   -4.9990   23.0660  -28.8660 O   0  0  0  0  0  0  0  0  0  0  0  0
   -2.9450   22.1170  -29.7580 C   0  0  0  0  0  0  0  0  0  0  0  0
   -3.6800   22.0690  -31.0540 N   0  0  0  0  0  0  0  0  0  0  0  0
   -2.7670   22.2230  -32.2220 C   0  0  0  0  0  0  0  0  0  0  0  0
   -3.2050   21.4270  -33.4600 C   0  0  0  0  0  0  0  0  0  0  0  0
   -3.3400   19.9820  -33.1720 N   0  0  0  0  0  0  0  0  0  0  0  0
   -4.1340   19.2940  -34.2130 C   0  0  0  0  0  0  0  0  0  0  0  0
   -4.5710   17.9310  -33.7470 C   0  0  0  0  0  0  0  0  0  0  0  0
   -5.9320   17.6250  -33.5920 C   0  0  0  0  0  0  0  0  0  0  0  0
   -6.3170   16.3470  -33.1870 C   0  0  0  0  0  0  0  0  0  0  0  0
   -5.3390   15.3820  -32.9420 C   0  0  0  0  0  0  0  0  0  0  0  0
   -4.0240   15.6900  -33.1010 N   0  0  0  0  0  0  0  0  0  0  0  0
   -3.6220   16.9280  -33.4950 C   0  0  0  0  0  0  0  0  0  0  0  0
   -3.8540   19.6930  -31.8100 C   0  0  0  0  0  0  0  0  0  0  0  0
   -4.5850   20.8880  -31.1550 C   0  0  2  0  0  0  0  0  0  0  0  0
   -5.8650   21.2550  -31.8730 C   0  0  0  0  0  0  0  0  0  0  0  0
   -6.2100   20.6200  -32.9080 O   0  0  0  0  0  0  0  0  0  0  0  0
   -6.6650   22.3540  -31.4160 N   0  0  0  0  0  0  0  0  0  0  0  0
   -8.0020   22.5950  -31.9570 C   0  0  0  0  0  0  0  0  0  0  0  0
   -8.9620   21.4630  -31.5960 C   0  0  0  0  0  0  0  0  0  0  0  0
  -10.0510   21.9660  -30.9060 F   0  0  0  0  0  0  0  0  0  0  0  0
   -8.3140   20.5270  -30.8090 F   0  0  0  0  0  0  0  0  0  0  0  0
   -9.4070   20.8470  -32.7510 F   0  0  0  0  0  0  0  0  0  0  0  0
   -5.9343   26.0308  -28.9232 H   0  0  0  0  0  0  0  0  0  0  0  0
   -5.8442   27.0780  -30.3798 H   0  0  0  0  0  0  0  0  0  0  0  0
   -6.9055   25.6288  -30.3798 H   0  0  0  0  0  0  0  0  0  0  0  0
   -3.5626   25.0313  -27.8706 H   0  0  0  0  0  0  0  0  0  0  0  0
   -1.1414   23.6747  -28.4366 H   0  0  0  0  0  0  0  0  0  0  0  0
   -1.1546   25.1479  -29.4841 H   0  0  0  0  0  0  0  0  0  0  0  0
   -0.1136   26.9960  -28.5599 H   0  0  0  0  0  0  0  0  0  0  0  0
    0.3958   28.4510  -26.5976 H   0  0  0  0  0  0  0  0  0  0  0  0
   -0.4293   27.8273  -24.3280 H   0  0  0  0  0  0  0  0  0  0  0  0
   -1.7730   25.7451  -24.0139 H   0  0  0  0  0  0  0  0  0  0  0  0
   -2.2957   24.2875  -25.9713 H   0  0  0  0  0  0  0  0  0  0  0  0
   -3.2789   22.6923  -27.7597 H   0  0  0  0  0  0  0  0  0  0  0  0
   -5.2000   23.1470  -29.8350 H   0  0  0  0  0  0  0  0  0  0  0  0
   -1.9144   22.4504  -29.9496 H   0  0  0  0  0  0  0  0  0  0  0  0
   -2.9704   21.1070  -29.3229 H   0  0  0  0  0  0  0  0  0  0  0  0
   -2.7255   23.2886  -32.4916 H   0  0  0  0  0  0  0  0  0  0  0  0
   -1.7869   21.8275  -31.9170 H   0  0  0  0  0  0  0  0  0  0  0  0
   -4.1759   21.8125  -33.8046 H   0  0  0  0  0  0  0  0  0  0  0  0
   -2.4313   21.5482  -34.2325 H   0  0  0  0  0  0  0  0  0  0  0  0
   -5.0242   19.8976  -34.4437 H   0  0  0  0  0  0  0  0  0  0  0  0
   -3.5069   19.1732  -35.1086 H   0  0  0  0  0  0  0  0  0  0  0  0
   -6.6946   18.3926  -33.7898 H   0  0  0  0  0  0  0  0  0  0  0  0
   -7.3820   16.1019  -33.0618 H   0  0  0  0  0  0  0  0  0  0  0  0
   -5.6320   14.3718  -32.6201 H   0  0  0  0  0  0  0  0  0  0  0  0
   -2.5503   17.1439  -33.6165 H   0  0  0  0  0  0  0  0  0  0  0  0
   -4.5571   18.8496  -31.8758 H   0  0  0  0  0  0  0  0  0  0  0  0
   -2.9823   19.4644  -31.1792 H   0  0  0  0  0  0  0  0  0  0  0  0
   -4.8699   20.5686  -30.1417 H   0  0  0  0  0  0  0  0  0  0  0  0
   -6.2900   22.9730  -30.6610 H   0  0  0  0  0  0  0  0  0  0  0  0
   -8.3900   23.5383  -31.5451 H   0  0  0  0  0  0  0  0  0  0  0  0
   -7.9272   22.6490  -33.0531 H   0  0  0  0  0  0  0  0  0  0  0  0
  1  2  1  0
  2  3  2  0
  2  4  1  0
  4  5  1  0
  5  6  1  0
  6  7  1  0
  7  8  2  0
  8  9  1  0
  9 10  2  0
 10 11  1  0
 11 12  2  0
  5 13  1  0
 13 14  1  0
 13 15  1  0
 15 16  1  0
 16 17  1  0
 17 18  1  0
 18 19  1  0
 19 20  1  0
 20 21  1  0
 21 22  2  0
 22 23  1  0
 23 24  2  0
 24 25  1  0
 25 26  2  0
 19 27  1  0
 27 28  1  0
 28 29  1  0
 29 30  2  0
 29 31  1  0
 31 32  1  0
 32 33  1  0
 33 34  1  0
 33 35  1  0
 33 36  1  0
 12  7  1  0
 28 16  1  0
 26 21  1  0
  1 37  1  0
  1 38  1  0
  1 39  1  0
  5 40  1  1
  6 41  1  0
  6 42  1  0
  8 43  1  0
  9 44  1  0
 10 45  1  0
 11 46  1  0
 12 47  1  0
 13 48  1  1
 14 49  1  0
 15 50  1  0
 15 51  1  0
 17 52  1  0
 17 53  1  0
 18 54  1  0
 18 55  1  0
 20 56  1  0
 20 57  1  0
 22 58  1  0
 23 59  1  0
 24 60  1  0
 26 61  1  0
 27 62  1  0
 27 63  1  0
 28 64  1  1
 31 65  1  0
 32 66  1  0
 32 67  1  0
M  CHG  1   4  -1
M  END
>  <UniqueID>  (9) 
9

>  <SMILES>  (9) 
CC(=O)[N-][C@H](Cc1ccccc1)[C@@H](O)CN1CCN(Cc2cccnc2)CC1C(=O)NCC(F)(F)F

>  <Energy>  (9) 
81.86905586761544

>  <Genealogy>  (9) 
CC(=O)[N-]C(Cc1ccccc1)C(O)CN1CCN(Cc2cccnc2)CC1C(=O)NCC(F)(F)F (protonated)
CC(=O)[N-][C@H](Cc1ccccc1)[C@@H](O)CN1CCN(Cc2cccnc2)CC1C(=O)NCC(F)(F)F (chirality)
CC(=O)[N-][C@H](Cc1ccccc1)[C@@H](O)CN1CCN(Cc2cccnc2)CC1C(=O)NCC(F)(F)F (3D coordinates assigned)
CC(=O)[N-][C@H](Cc1ccccc1)[C@@H](O)CN1CCN(Cc2cccnc2)CC1C(=O)NCC(F)(F)F (nonaromatic ring conformer: 81.86905586761544 kcal/mol)

>  <smiles>  (9) 
CC(=O)NC(Cc1ccccc1)C(O)CN1CCN(Cc2cccnc2)CC1C(=O)NCC(F)(F)F

>  <score_type>  (9) 
oracle

>  <origin>  (9) 
adg

>  <m_score__min__energy>  (9) 
-9.8699999999999992

>  <m_primary>  (9) 
energy

$$$$
9:0
     RDKit          3D

 70 74  0  0  0  0  0  0  0  0999 V2000
   -9.1000   18.2090  -31.5590 C   0  0  0  0  0  0  0  0  0  0  0  0
   -9.5170   19.2880  -32.5520 C   0  0  0  0  0  0  0  0  0  0  0  0
   -8.8500   20.6330  -32.2340 C   0  0  0  0  0  0  0  0  0  0  0  0
   -7.3770   20.5690  -32.5330 C   0  0  0  0  0  0  0  0  0  0  0  0
   -6.7850   19.4240  -32.9360 N   0  0  0  0  0  0  0  0  0  0  0  0
   -5.5150   19.7770  -33.2130 C   0  0  0  0  0  0  0  0  0  0  0  0
   -5.3610   21.1370  -33.0070 C   0  0  0  0  0  0  0  0  0  0  0  0
   -6.5350   21.6340  -32.5510 N   0  0  0  0  0  0  0  0  0  0  0  0
   -6.8470   23.0150  -32.1520 C   0  0  0  0  0  0  0  0  0  0  0  0
   -5.9340   23.4620  -31.0420 C   0  0  0  0  0  0  0  0  0  0  0  0
   -5.6460   22.5990  -29.9730 C   0  0  0  0  0  0  0  0  0  0  0  0
   -4.7020   22.9650  -29.0090 C   0  0  0  0  0  0  0  0  0  0  0  0
   -4.0260   24.1880  -29.1090 C   0  0  0  0  0  0  0  0  0  0  0  0
   -2.9940   24.5080  -28.1620 N   0  0  0  0  0  0  0  0  0  0  0  0
   -3.2560   24.6650  -26.7570 C   0  0  0  0  0  0  0  0  0  0  0  0
   -4.4330   24.5640  -26.3150 O   0  0  0  0  0  0  0  0  0  0  0  0
   -2.1530   24.9880  -25.8240 C   0  0  0  0  0  0  0  0  0  0  0  0
   -2.2520   26.1370  -25.0200 C   0  0  0  0  0  0  0  0  0  0  0  0
   -1.2110   26.4960  -24.1620 C   0  0  0  0  0  0  0  0  0  0  0  0
   -0.0580   25.7130  -24.0930 C   0  0  0  0  0  0  0  0  0  0  0  0
    0.0530   24.5630  -24.8750 C   0  0  0  0  0  0  0  0  0  0  0  0
   -0.9850   24.1870  -25.7450 C   0  0  0  0  0  0  0  0  0  0  0  0
   -0.8590   22.9110  -26.4910 C   0  0  0  0  0  0  0  0  0  0  0  0
   -1.3220   21.7350  -25.8740 C   0  0  0  0  0  0  0  0  0  0  0  0
   -1.1780   20.4990  -26.5040 C   0  0  0  0  0  0  0  0  0  0  0  0
   -0.5600   20.4170  -27.7490 C   0  0  0  0  0  0  0  0  0  0  0  0
   -0.0950   21.5740  -28.3790 C   0  0  0  0  0  0  0  0  0  0  0  0
   -0.2480   22.8350  -27.7730 C   0  0  0  0  0  0  0  0  0  0  0  0
    0.2000   24.0360  -28.5190 C   0  0  0  0  0  0  0  0  0  0  0  0
    1.3650   24.4900  -28.3750 O   0  0  0  0  0  0  0  0  0  0  0  0
   -0.6820   24.7050  -29.3590 O   0  0  0  0  0  0  0  0  0  0  0  0
   -4.3680   25.0820  -30.1360 C   0  0  0  0  0  0  0  0  0  0  0  0
   -5.3150   24.7210  -31.0960 C   0  0  0  0  0  0  0  0  0  0  0  0
   -4.1080   21.9180  -33.3030 C   0  0  0  0  0  0  0  0  0  0  0  0
   -2.8870   21.3410  -32.5700 C   0  0  0  0  0  0  0  0  0  0  0  0
   -2.2920   20.0620  -33.2000 C   0  0  0  0  0  0  0  0  0  0  0  0
   -3.1330   18.7990  -32.9320 C   0  0  0  0  0  0  0  0  0  0  0  0
   -4.4840   18.7800  -33.6830 C   0  0  0  0  0  0  0  0  0  0  0  0
   -9.2432   18.5796  -30.5333 H   0  0  0  0  0  0  0  0  0  0  0  0
   -9.7157   17.3107  -31.7136 H   0  0  0  0  0  0  0  0  0  0  0  0
   -8.0402   17.9582  -31.7136 H   0  0  0  0  0  0  0  0  0  0  0  0
   -9.2239   18.9743  -33.5648 H   0  0  0  0  0  0  0  0  0  0  0  0
  -10.6070   19.4183  -32.4825 H   0  0  0  0  0  0  0  0  0  0  0  0
   -9.3110   21.4208  -32.8479 H   0  0  0  0  0  0  0  0  0  0  0  0
   -8.9889   20.8576  -31.1662 H   0  0  0  0  0  0  0  0  0  0  0  0
   -6.7164   23.6803  -33.0182 H   0  0  0  0  0  0  0  0  0  0  0  0
   -7.8869   23.0561  -31.7957 H   0  0  0  0  0  0  0  0  0  0  0  0
   -6.1645   21.6321  -29.8936 H   0  0  0  0  0  0  0  0  0  0  0  0
   -4.4889   22.2892  -28.1676 H   0  0  0  0  0  0  0  0  0  0  0  0
   -2.0790   24.8470  -28.5310 H   0  0  0  0  0  0  0  0  0  0  0  0
   -3.1581   26.7589  -25.0674 H   0  0  0  0  0  0  0  0  0  0  0  0
   -1.2998   27.3981  -23.5389 H   0  0  0  0  0  0  0  0  0  0  0  0
    0.7638   26.0027  -23.4217 H   0  0  0  0  0  0  0  0  0  0  0  0
    0.9608   23.9451  -24.8102 H   0  0  0  0  0  0  0  0  0  0  0  0
   -1.8020   21.7905  -24.8858 H   0  0  0  0  0  0  0  0  0  0  0  0
   -1.5534   19.5872  -26.0164 H   0  0  0  0  0  0  0  0  0  0  0  0
   -0.4376   19.4391  -28.2376 H   0  0  0  0  0  0  0  0  0  0  0  0
    0.3965   21.4985  -29.3602 H   0  0  0  0  0  0  0  0  0  0  0  0
   -3.8880   26.0706  -30.1844 H   0  0  0  0  0  0  0  0  0  0  0  0
   -5.5774   25.4262  -31.8984 H   0  0  0  0  0  0  0  0  0  0  0  0
   -3.9187   21.8896  -34.3862 H   0  0  0  0  0  0  0  0  0  0  0  0
   -4.2590   22.9501  -32.9539 H   0  0  0  0  0  0  0  0  0  0  0  0
   -2.1020   22.1114  -32.5557 H   0  0  0  0  0  0  0  0  0  0  0  0
   -3.2369   21.0557  -31.5669 H   0  0  0  0  0  0  0  0  0  0  0  0
   -2.2215   20.2095  -34.2878 H   0  0  0  0  0  0  0  0  0  0  0  0
   -1.3072   19.9003  -32.7374 H   0  0  0  0  0  0  0  0  0  0  0  0
   -2.5495   17.9206  -33.2450 H   0  0  0  0  0  0  0  0  0  0  0  0
   -3.3634   18.7889  -31.8564 H   0  0  0  0  0  0  0  0  0  0  0  0
   -4.2815   18.9804  -34.7455 H   0  0  0  0  0  0  0  0  0  0  0  0
   -4.9187   17.7886  -33.4875 H   0  0  0  0  0  0  0  0  0  0  0  0
  1  2  1  0
  2  3  1  0
  3  4  1  0
  4  5  2  0
  5  6  1  0
  6  7  2  0
  7  8  1  0
  8  9  1  0
  9 10  1  0
 10 11  2  0
 11 12  1  0
 12 13  2  0
 13 14  1  0
 14 15  1  0
 15 16  2  0
 15 17  1  0
 17 18  2  0
 18 19  1  0
 19 20  2  0
 20 21  1  0
 21 22  2  0
 22 23  1  0
 23 24  2  0
 24 25  1  0
 25 26  2  0
 26 27  1  0
 27 28  2  0
 28 29  1  0
 29 30  2  0
 29 31  1  0
 13 32  1  0
 32 33  2  0
  7 34  1  0
 34 35  1  0
 35 36  1  0
 36 37  1  0
 37 38  1  0
  8  4  1  0
 33 10  1  0
 38  6  1  0
 22 17  1  0
 28 23  1  0
  1 39  1  0
  1 40  1  0
  1 41  1  0
  2 42  1  0
  2 43  1  0
  3 44  1  0
  3 45  1  0
  9 46  1  0
  9 47  1  0
 11 48  1  0
 12 49  1  0
 14 50  1  0
 18 51  1  0
 19 52  1  0
 20 53  1  0
 21 54  1  0
 24 55  1  0
 25 56  1  0
 26 57  1  0
 27 58  1  0
 32 59  1  0
 33 60  1  0
 34 61  1  0
 34 62  1  0
 35 63  1  0
 35 64  1  0
 36 65  1  0
 36 66  1  0
 37 67  1  0
 37 68  1  0
 38 69  1  0
 38 70  1  0
M  CHG  1  31  -1
M  END
>  <UniqueID>  (10) 
10

>  <SMILES>  (10) 
CCCc1nc2c(n1Cc1ccc(NC(=O)c3ccccc3-c3ccccc3C(=O)[O-])cc1)CCCCC2

>  <Energy>  (10) 
120.55314211225559

>  <Genealogy>  (10) 
CCCc1nc2c(n1Cc1ccc(NC(=O)c3ccccc3-c3ccccc3C(=O)[O-])cc1)CCCCC2 (protonated)
CCCc1nc2c(n1Cc1ccc(NC(=O)c3ccccc3-c3ccccc3C(=O)[O-])cc1)CCCCC2 (3D coordinates assigned)
CCCc1nc2c(n1Cc1ccc(NC(=O)c3ccccc3-c3ccccc3C(=O)[O-])cc1)CCCCC2 (nonaromatic ring conformer: 120.55314211225559 kcal/mol)

>  <smiles>  (10) 
CCCc1nc2c(n1Cc1ccc(NC(=O)c3ccccc3-c3ccccc3C(=O)O)cc1)CCCCC2

>  <score_type>  (10) 
oracle

>  <origin>  (10) 
adg

>  <m_score__min__energy>  (10) 
-10.710000000000001

>  <m_primary>  (10) 
energy

$$$$
10:0
     RDKit          3D

 43 43  0  0  0  0  0  0  0  0999 V2000
   -8.7640   18.5520  -31.5890 C   0  0  0  0  0  0  0  0  0  0  0  0
   -7.2800   18.8890  -31.6420 C   0  0  0  0  0  0  0  0  0  0  0  0
   -7.0890   20.1860  -32.3380 N   0  0  0  0  0  0  0  0  0  0  0  0
   -6.8250   20.0480  -33.7860 C   0  0  0  0  0  0  0  0  0  0  0  0
   -5.8690   18.8910  -34.0640 C   0  0  0  0  0  0  0  0  0  0  0  0
   -8.1580   21.1670  -32.0380 C   0  0  0  0  0  0  0  0  0  0  0  0
   -7.6470   22.6030  -31.7860 C   0  0  0  0  0  0  0  0  0  0  0  0
   -6.2410   22.7400  -32.1730 N   0  0  0  0  0  0  0  0  0  0  0  0
   -5.3120   23.5280  -31.4140 C   0  0  0  0  0  0  0  0  0  0  0  0
   -5.3640   24.8940  -31.2150 C   0  0  0  0  0  0  0  0  0  0  0  0
   -4.3800   25.2470  -30.3680 N   0  0  0  0  0  0  0  0  0  0  0  0
   -3.7110   24.1530  -30.0220 N   0  0  0  0  0  0  0  0  0  0  0  0
   -2.5630   24.1770  -29.1060 C   0  0  0  0  0  0  0  0  0  0  0  0
   -1.3860   23.3930  -29.6970 C   0  0  0  0  0  0  0  0  0  0  0  0
   -2.9710   23.6010  -27.7480 C   0  0  0  0  0  0  0  0  0  0  0  0
   -4.2350   23.0780  -30.6650 C   0  0  0  0  0  0  0  0  0  0  0  0
   -3.7300   21.6600  -30.5430 C   0  0  0  0  0  0  0  0  0  0  0  0
   -2.5750   21.4710  -31.2770 F   0  0  0  0  0  0  0  0  0  0  0  0
   -3.4370   21.3730  -29.2230 F   0  0  0  0  0  0  0  0  0  0  0  0
   -4.7000   20.7880  -30.9970 F   0  0  0  0  0  0  0  0  0  0  0  0
   -9.0861   18.4788  -30.5398 H   0  0  0  0  0  0  0  0  0  0  0  0
   -9.3378   19.3427  -32.0945 H   0  0  0  0  0  0  0  0  0  0  0  0
   -8.9401   17.5910  -32.0945 H   0  0  0  0  0  0  0  0  0  0  0  0
   -6.8841   18.9610  -30.6183 H   0  0  0  0  0  0  0  0  0  0  0  0
   -6.7450   18.0985  -32.1887 H   0  0  0  0  0  0  0  0  0  0  0  0
   -7.7752   19.8619  -34.3080 H   0  0  0  0  0  0  0  0  0  0  0  0
   -6.3609   20.9780  -34.1461 H   0  0  0  0  0  0  0  0  0  0  0  0
   -5.5190   18.4675  -33.1110 H   0  0  0  0  0  0  0  0  0  0  0  0
   -6.3919   18.1138  -34.6407 H   0  0  0  0  0  0  0  0  0  0  0  0
   -5.0071   19.2580  -34.6407 H   0  0  0  0  0  0  0  0  0  0  0  0
   -8.8521   21.1925  -32.8910 H   0  0  0  0  0  0  0  0  0  0  0  0
   -8.6396   20.8348  -31.1065 H   0  0  0  0  0  0  0  0  0  0  0  0
   -8.2518   23.3078  -32.3755 H   0  0  0  0  0  0  0  0  0  0  0  0
   -7.7355   22.8208  -30.7114 H   0  0  0  0  0  0  0  0  0  0  0  0
   -5.8680   22.0920  -32.9000 H   0  0  0  0  0  0  0  0  0  0  0  0
   -6.0907   25.5806  -31.6738 H   0  0  0  0  0  0  0  0  0  0  0  0
   -2.2400   25.2191  -28.9655 H   0  0  0  0  0  0  0  0  0  0  0  0
   -0.7716   22.9838  -28.8815 H   0  0  0  0  0  0  0  0  0  0  0  0
   -1.7687   22.5688  -30.3168 H   0  0  0  0  0  0  0  0  0  0  0  0
   -0.7729   24.0638  -30.3168 H   0  0  0  0  0  0  0  0  0  0  0  0
   -2.5368   24.2139  -26.9444 H   0  0  0  0  0  0  0  0  0  0  0  0
   -4.0676   23.6067  -27.6618 H   0  0  0  0  0  0  0  0  0  0  0  0
   -2.6018   22.5684  -27.6618 H   0  0  0  0  0  0  0  0  0  0  0  0
  1  2  1  0
  2  3  1  0
  3  4  1  0
  4  5  1  0
  3  6  1  0
  6  7  1  0
  7  8  1  0
  8  9  1  0
  9 10  1  0
 10 11  2  0
 11 12  1  0
 12 13  1  0
 13 14  1  0
 13 15  1  0
 12 16  1  0
 16 17  1  0
 17 18  1  0
 17 19  1  0
 17 20  1  0
 16  9  2  0
  1 21  1  0
  1 22  1  0
  1 23  1  0
  2 24  1  0
  2 25  1  0
  4 26  1  0
  4 27  1  0
  5 28  1  0
  5 29  1  0
  5 30  1  0
  6 31  1  0
  6 32  1  0
  7 33  1  0
  7 34  1  0
  8 35  1  0
 10 36  1  0
 13 37  1  0
 14 38  1  0
 14 39  1  0
 14 40  1  0
 15 41  1  0
 15 42  1  0
 15 43  1  0
M  END
>  <UniqueID>  (11) 
11

>  <SMILES>  (11) 
CCN(CC)CCNc1cnn(C(C)C)c1C(F)(F)F

>  <Energy>  (11) 
68.78182471005442

>  <Genealogy>  (11) 
CCN(CC)CCNc1cnn(C(C)C)c1C(F)(F)F (3D coordinates assigned)
CCN(CC)CCNc1cnn(C(C)C)c1C(F)(F)F (optimized conformer: 68.78182471005442 kcal/mol)

>  <smiles>  (11) 
CCN(CC)CCNc1cnn(C(C)C)c1C(F)(F)F

>  <score_type>  (11) 
oracle

>  <origin>  (11) 
adg

>  <m_score__min__energy>  (11) 
-5.7400000000000002

>  <m_primary>  (11) 
energy

$$$$
11:0
     RDKit          3D

 37 39  0  0  0  0  0  0  0  0999 V2000
   -7.7180   23.8300  -31.4580 O   0  0  0  0  0  0  0  0  0  0  0  0
   -6.6770   23.1230  -31.4000 C   0  0  0  0  0  0  0  0  0  0  0  0
   -5.4140   23.7400  -30.9630 C   0  0  0  0  0  0  0  0  0  0  0  0
   -4.4210   23.1400  -30.2130 C   0  0  0  0  0  0  0  0  0  0  0  0
   -3.4860   24.1400  -30.0600 C   0  0  0  0  0  0  0  0  0  0  0  0
   -2.1940   24.0260  -29.3120 C   0  0  0  0  0  0  0  0  0  0  0  0
   -1.6870   25.3120  -28.9550 O   0  0  0  0  0  0  0  0  0  0  0  0
   -1.4730   25.7660  -27.6440 C   0  0  0  0  0  0  0  0  0  0  0  0
   -0.4810   26.7330  -27.4320 C   0  0  0  0  0  0  0  0  0  0  0  0
   -0.2270   27.2210  -26.1470 C   0  0  0  0  0  0  0  0  0  0  0  0
   -0.9630   26.7440  -25.0590 C   0  0  0  0  0  0  0  0  0  0  0  0
   -1.9550   25.7800  -25.2570 C   0  0  0  0  0  0  0  0  0  0  0  0
   -2.2120   25.2900  -26.5410 C   0  0  0  0  0  0  0  0  0  0  0  0
   -3.9190   25.2240  -30.6620 O   0  0  0  0  0  0  0  0  0  0  0  0
   -5.0810   25.0220  -31.2120 N   0  0  0  0  0  0  0  0  0  0  0  0
   -6.7470   21.7270  -31.7400 N   0  0  0  0  0  0  0  0  0  0  0  0
   -5.8620   21.1710  -32.7700 C   0  0  0  0  0  0  0  0  0  0  0  0
   -5.5670   19.6770  -32.5040 C   0  0  0  0  0  0  0  0  0  0  0  0
   -6.3630   19.1070  -31.4770 O   0  0  0  0  0  0  0  0  0  0  0  0
   -7.7150   19.4700  -31.6500 C   0  0  0  0  0  0  0  0  0  0  0  0
   -7.8960   20.9430  -31.2810 C   0  0  0  0  0  0  0  0  0  0  0  0
   -4.3854   22.1096  -29.8295 H   0  0  0  0  0  0  0  0  0  0  0  0
   -2.3604   23.4395  -28.3964 H   0  0  0  0  0  0  0  0  0  0  0  0
   -1.4582   23.5307  -29.9626 H   0  0  0  0  0  0  0  0  0  0  0  0
    0.1028   27.1112  -28.2842 H   0  0  0  0  0  0  0  0  0  0  0  0
    0.5529   27.9811  -25.9920 H   0  0  0  0  0  0  0  0  0  0  0  0
   -0.7616   27.1270  -24.0477 H   0  0  0  0  0  0  0  0  0  0  0  0
   -2.5351   25.4057  -24.4006 H   0  0  0  0  0  0  0  0  0  0  0  0
   -2.9934   24.5305  -26.6915 H   0  0  0  0  0  0  0  0  0  0  0  0
   -6.3464   21.2720  -33.7524 H   0  0  0  0  0  0  0  0  0  0  0  0
   -4.9112   21.7237  -32.7487 H   0  0  0  0  0  0  0  0  0  0  0  0
   -5.7485   19.1175  -33.4335 H   0  0  0  0  0  0  0  0  0  0  0  0
   -4.5211   19.6131  -32.1694 H   0  0  0  0  0  0  0  0  0  0  0  0
   -8.0049   19.3163  -32.6999 H   0  0  0  0  0  0  0  0  0  0  0  0
   -8.3487   18.8478  -31.0009 H   0  0  0  0  0  0  0  0  0  0  0  0
   -8.8105   21.3266  -31.7570 H   0  0  0  0  0  0  0  0  0  0  0  0
   -7.9751   21.0308  -30.1874 H   0  0  0  0  0  0  0  0  0  0  0  0
  1  2  2  0
  2  3  1  0
  3  4  1  0
  4  5  2  0
  5  6  1  0
  6  7  1  0
  7  8  1  0
  8  9  2  0
  9 10  1  0
 10 11  2  0
 11 12  1  0
 12 13  2  0
  5 14  1  0
 14 15  1  0
  2 16  1  0
 16 17  1  0
 17 18  1  0
 18 19  1  0
 19 20  1  0
 20 21  1  0
 15  3  2  0
 21 16  1  0
 13  8  1  0
  4 22  1  0
  6 23  1  0
  6 24  1  0
  9 25  1  0
 10 26  1  0
 11 27  1  0
 12 28  1  0
 13 29  1  0
 17 30  1  0
 17 31  1  0
 18 32  1  0
 18 33  1  0
 20 34  1  0
 20 35  1  0
 21 36  1  0
 21 37  1  0
M  END
>  <UniqueID>  (12) 
12

>  <SMILES>  (12) 
O=C(c1cc(COc2ccccc2)on1)N1CCOCC1

>  <Energy>  (12) 
77.51463593896534

>  <Genealogy>  (12) 
O=C(c1cc(COc2ccccc2)on1)N1CCOCC1 (3D coordinates assigned)
O=C(c1cc(COc2ccccc2)on1)N1CCOCC1 (nonaromatic ring conformer: 77.51463593896534 kcal/mol)

>  <smiles>  (12) 
O=C(c1cc(COc2ccccc2)on1)N1CCOCC1

>  <score_type>  (12) 
oracle

>  <origin>  (12) 
adg

>  <m_score__min__energy>  (12) 
-8.4100000000000001

>  <m_primary>  (12) 
energy

$$$$
12:0
     RDKit          3D

 43 45  0  0  0  0  0  0  0  0999 V2000
   -4.5030   25.6710  -30.8530 O   0  0  0  0  0  0  0  0  0  0  0  0
   -4.0700   24.5600  -30.4440 C   0  0  0  0  0  0  0  0  0  0  0  0
   -4.3510   23.3580  -31.1750 N   0  0  0  0  0  0  0  0  0  0  0  0
   -5.6460   22.8090  -31.4570 C   0  0  0  0  0  0  0  0  0  0  0  0
   -6.7910   23.6190  -31.5790 C   0  0  0  0  0  0  0  0  0  0  0  0
   -8.0380   23.0400  -31.8330 C   0  0  0  0  0  0  0  0  0  0  0  0
   -8.1570   21.6540  -31.9510 C   0  0  0  0  0  0  0  0  0  0  0  0
   -7.0290   20.8360  -31.8030 C   0  0  0  0  0  0  0  0  0  0  0  0
   -7.1660   19.0830  -31.9220 S   0  0  0  0  0  0  0  0  0  0  0  0
   -8.5540   18.6820  -31.5040 O   0  0  0  0  0  0  0  0  0  0  0  0
   -6.1680   18.4310  -31.0030 O   0  0  0  0  0  0  0  0  0  0  0  0
   -6.8640   18.5950  -33.5750 N   0  0  0  0  0  0  0  0  0  0  0  0
   -5.6550   19.2490  -34.1380 C   0  0  0  0  0  0  0  0  0  0  0  0
   -4.5440   18.2690  -34.5460 C   0  0  0  0  0  0  0  0  0  0  0  0
   -4.3470   17.2060  -33.4680 C   0  0  0  0  0  0  0  0  0  0  0  0
   -5.6450   16.4320  -33.1810 C   0  0  0  0  0  0  0  0  0  0  0  0
   -6.9020   17.1290  -33.7320 C   0  0  0  0  0  0  0  0  0  0  0  0
   -5.7790   21.4170  -31.5530 C   0  0  0  0  0  0  0  0  0  0  0  0
   -3.2240   24.5220  -29.2370 C   0  0  0  0  0  0  0  0  0  0  0  0
   -3.5460   23.7780  -28.1690 C   0  0  0  0  0  0  0  0  0  0  0  0
   -2.7400   23.8200  -27.0240 O   0  0  0  0  0  0  0  0  0  0  0  0
   -1.7370   24.8220  -26.8510 C   0  0  0  0  0  0  0  0  0  0  0  0
   -1.0610   25.1110  -28.1900 C   0  0  0  0  0  0  0  0  0  0  0  0
   -2.0540   25.2950  -29.2010 O   0  0  0  0  0  0  0  0  0  0  0  0
   -6.7043   24.7106  -31.4742 H   0  0  0  0  0  0  0  0  0  0  0  0
   -8.9276   23.6781  -31.9401 H   0  0  0  0  0  0  0  0  0  0  0  0
   -9.1383   21.2032  -32.1606 H   0  0  0  0  0  0  0  0  0  0  0  0
   -5.9548   19.8214  -35.0282 H   0  0  0  0  0  0  0  0  0  0  0  0
   -5.2398   19.8861  -33.3432 H   0  0  0  0  0  0  0  0  0  0  0  0
   -4.8222   17.7793  -35.4909 H   0  0  0  0  0  0  0  0  0  0  0  0
   -3.6047   18.8277  -34.6709 H   0  0  0  0  0  0  0  0  0  0  0  0
   -3.5770   16.4964  -33.8049 H   0  0  0  0  0  0  0  0  0  0  0  0
   -4.0408   17.7133  -32.5412 H   0  0  0  0  0  0  0  0  0  0  0  0
   -5.5672   15.4362  -33.6418 H   0  0  0  0  0  0  0  0  0  0  0  0
   -5.7561   16.3745  -32.0881 H   0  0  0  0  0  0  0  0  0  0  0  0
   -6.9925   16.8934  -34.8027 H   0  0  0  0  0  0  0  0  0  0  0  0
   -7.7627   16.7587  -33.1557 H   0  0  0  0  0  0  0  0  0  0  0  0
   -4.8941   20.7751  -31.4310 H   0  0  0  0  0  0  0  0  0  0  0  0
   -4.4397   23.1371  -28.1918 H   0  0  0  0  0  0  0  0  0  0  0  0
   -2.2023   25.7431  -26.4701 H   0  0  0  0  0  0  0  0  0  0  0  0
   -0.9845   24.4638  -26.1330 H   0  0  0  0  0  0  0  0  0  0  0  0
   -0.4537   26.0241  -28.1035 H   0  0  0  0  0  0  0  0  0  0  0  0
   -0.4159   24.2628  -28.4630 H   0  0  0  0  0  0  0  0  0  0  0  0
  1  2  2  0
  2  3  1  0
  3  4  1  0
  4  5  2  0
  5  6  1  0
  6  7  2  0
  7  8  1  0
  8  9  1  0
  9 10  2  0
  9 11  2  0
  9 12  1  0
 12 13  1  0
 13 14  1  0
 14 15  1  0
 15 16  1  0
 16 17  1  0
  8 18  2  0
  2 19  1  0
 19 20  2  0
 20 21  1  0
 21 22  1  0
 22 23  1  0
 23 24  1  0
 18  4  1  0
 24 19  1  0
 17 12  1  0
  5 25  1  0
  6 26  1  0
  7 27  1  0
 13 28  1  0
 13 29  1  0
 14 30  1  0
 14 31  1  0
 15 32  1  0
 15 33  1  0
 16 34  1  0
 16 35  1  0
 17 36  1  0
 17 37  1  0
 18 38  1  0
 20 39  1  0
 22 40  1  0
 22 41  1  0
 23 42  1  0
 23 43  1  0
M  CHG  1   3  -1
M  END
>  <UniqueID>  (13) 
13

>  <SMILES>  (13) 
O=C([N-]c1cccc(S(=O)(=O)N2CCCCC2)c1)C1=COCCO1

>  <Energy>  (13) 
53.52107268371943

>  <Genealogy>  (13) 
O=C([N-]c1cccc(S(=O)(=O)N2CCCCC2)c1)C1=COCCO1 (protonated)
O=C([N-]c1cccc(S(=O)(=O)N2CCCCC2)c1)C1=COCCO1 (3D coordinates assigned)
O=C([N-]c1cccc(S(=O)(=O)N2CCCCC2)c1)C1=COCCO1 (nonaromatic ring conformer: 53.52107268371943 kcal/mol)

>  <smiles>  (13) 
O=C(Nc1cccc(S(=O)(=O)N2CCCCC2)c1)C1=COCCO1

>  <score_type>  (13) 
oracle

>  <origin>  (13) 
adg

>  <m_score__min__energy>  (13) 
-10.029999999999999

>  <m_primary>  (13) 
energy

$$$$
13:0
     RDKit          3D

 46 48  0  0  0  0  0  0  0  0999 V2000
   -3.8630   25.2750  -30.5470 O   0  0  0  0  0  0  0  0  0  0  0  0
   -4.8760   24.8210  -29.9490 C   0  0  0  0  0  0  0  0  0  0  0  0
   -6.1990   24.8120  -30.6590 C   0  0  0  0  0  0  0  0  0  0  0  0
   -6.1350   23.9500  -31.8560 N   0  0  0  0  0  0  0  0  0  0  0  0
   -7.4830   23.5040  -32.2990 C   0  0  0  0  0  0  0  0  0  0  0  0
   -7.7850   22.0590  -31.8810 C   0  0  0  0  0  0  0  0  0  0  0  0
   -6.8100   21.1060  -32.4680 N   0  0  0  0  0  0  0  0  0  0  0  0
   -6.7770   19.8360  -31.7100 C   0  0  0  0  0  0  0  0  0  0  0  0
   -6.3610   18.6890  -32.5960 C   0  0  0  0  0  0  0  0  0  0  0  0
   -6.1110   18.8950  -33.9630 C   0  0  0  0  0  0  0  0  0  0  0  0
   -5.7000   17.8300  -34.7720 C   0  0  0  0  0  0  0  0  0  0  0  0
   -5.5320   16.5570  -34.2210 C   0  0  0  0  0  0  0  0  0  0  0  0
   -5.7730   16.3460  -32.8600 C   0  0  0  0  0  0  0  0  0  0  0  0
   -6.1830   17.4080  -32.0490 C   0  0  0  0  0  0  0  0  0  0  0  0
   -5.4490   21.6820  -32.6210 C   0  0  0  0  0  0  0  0  0  0  0  0
   -5.1910   22.8310  -31.6370 C   0  0  0  0  0  0  0  0  0  0  0  0
   -4.7820   24.3660  -28.5890 N   0  0  0  0  0  0  0  0  0  0  0  0
   -3.5410   24.1850  -27.8850 C   0  0  0  0  0  0  0  0  0  0  0  0
   -3.2130   24.9620  -26.7590 C   0  0  0  0  0  0  0  0  0  0  0  0
   -1.9890   24.7810  -26.1090 C   0  0  0  0  0  0  0  0  0  0  0  0
   -1.0750   23.8340  -26.5830 C   0  0  0  0  0  0  0  0  0  0  0  0
    0.5970   23.5890  -25.6930 Br  0  0  0  0  0  0  0  0  0  0  0  0
   -1.3850   23.0730  -27.7140 C   0  0  0  0  0  0  0  0  0  0  0  0
   -2.6070   23.2530  -28.3670 C   0  0  0  0  0  0  0  0  0  0  0  0
   -6.9733   24.4293  -29.9778 H   0  0  0  0  0  0  0  0  0  0  0  0
   -6.4435   25.8381  -30.9709 H   0  0  0  0  0  0  0  0  0  0  0  0
   -8.2392   24.1667  -31.8528 H   0  0  0  0  0  0  0  0  0  0  0  0
   -7.5078   23.5485  -33.3978 H   0  0  0  0  0  0  0  0  0  0  0  0
   -7.7385   21.9873  -30.7843 H   0  0  0  0  0  0  0  0  0  0  0  0
   -8.7877   21.7964  -32.2493 H   0  0  0  0  0  0  0  0  0  0  0  0
   -6.0590   19.9298  -30.8819 H   0  0  0  0  0  0  0  0  0  0  0  0
   -7.7864   19.6321  -31.3233 H   0  0  0  0  0  0  0  0  0  0  0  0
   -6.2388   19.8969  -34.3988 H   0  0  0  0  0  0  0  0  0  0  0  0
   -5.5090   17.9950  -35.8426 H   0  0  0  0  0  0  0  0  0  0  0  0
   -5.2099   15.7203  -34.8584 H   0  0  0  0  0  0  0  0  0  0  0  0
   -5.6398   15.3435  -32.4272 H   0  0  0  0  0  0  0  0  0  0  0  0
   -6.3670   17.2396  -30.9777 H   0  0  0  0  0  0  0  0  0  0  0  0
   -4.7071   20.8897  -32.4426 H   0  0  0  0  0  0  0  0  0  0  0  0
   -5.3664   22.0862  -33.6407 H   0  0  0  0  0  0  0  0  0  0  0  0
   -5.3115   22.4566  -30.6097 H   0  0  0  0  0  0  0  0  0  0  0  0
   -4.1686   23.2031  -31.7987 H   0  0  0  0  0  0  0  0  0  0  0  0
   -5.6690   24.2500  -28.0490 H   0  0  0  0  0  0  0  0  0  0  0  0
   -3.9233   25.7157  -26.3883 H   0  0  0  0  0  0  0  0  0  0  0  0
   -1.7438   25.3846  -25.2227 H   0  0  0  0  0  0  0  0  0  0  0  0
   -0.6654   22.3311  -28.0905 H   0  0  0  0  0  0  0  0  0  0  0  0
   -2.8393   22.6610  -29.2645 H   0  0  0  0  0  0  0  0  0  0  0  0
  1  2  2  0
  2  3  1  0
  3  4  1  0
  4  5  1  0
  5  6  1  0
  6  7  1  0
  7  8  1  0
  8  9  1  0
  9 10  2  0
 10 11  1  0
 11 12  2  0
 12 13  1  0
 13 14  2  0
  7 15  1  0
 15 16  1  0
  2 17  1  0
 17 18  1  0
 18 19  2  0
 19 20  1  0
 20 21  2  0
 21 22  1  0
 21 23  1  0
 23 24  2  0
 16  4  1  0
 24 18  1  0
 14  9  1  0
  3 25  1  0
  3 26  1  0
  5 27  1  0
  5 28  1  0
  6 29  1  0
  6 30  1  0
  8 31  1  0
  8 32  1  0
 10 33  1  0
 11 34  1  0
 12 35  1  0
 13 36  1  0
 14 37  1  0
 15 38  1  0
 15 39  1  0
 16 40  1  0
 16 41  1  0
 17 42  1  0
 19 43  1  0
 20 44  1  0
 23 45  1  0
 24 46  1  0
M  END
>  <UniqueID>  (14) 
14

>  <SMILES>  (14) 
O=C(CN1CCN(Cc2ccccc2)CC1)Nc1ccc(Br)cc1

>  <Energy>  (14) 
62.65430321734807

>  <Genealogy>  (14) 
O=C(CN1CCN(Cc2ccccc2)CC1)Nc1ccc(Br)cc1 (3D coordinates assigned)
O=C(CN1CCN(Cc2ccccc2)CC1)Nc1ccc(Br)cc1 (nonaromatic ring conformer: 62.65430321734807 kcal/mol)

>  <smiles>  (14) 
O=C(CN1CCN(Cc2ccccc2)CC1)Nc1ccc(Br)cc1

>  <score_type>  (14) 
oracle

>  <origin>  (14) 
adg

>  <m_score__min__energy>  (14) 
-9.8599999999999994

>  <m_primary>  (14) 
energy

$$$$
14:0
     RDKit          3D

 51 53  0  0  0  0  0  0  0  0999 V2000
   -0.8690   21.6240  -30.4440 C   0  0  0  0  0  0  0  0  0  0  0  0
   -2.3020   21.5940  -29.9210 C   0  0  0  0  0  0  0  0  0  0  0  0
   -2.4840   22.5700  -28.7840 C   0  0  0  0  0  0  0  0  0  0  0  0
   -1.5230   22.6060  -27.7560 C   0  0  0  0  0  0  0  0  0  0  0  0
   -1.6200   23.5430  -26.7260 C   0  0  0  0  0  0  0  0  0  0  0  0
   -2.6710   24.4610  -26.7110 C   0  0  0  0  0  0  0  0  0  0  0  0
   -3.6260   24.4480  -27.7300 C   0  0  0  0  0  0  0  0  0  0  0  0
   -3.5440   23.5090  -28.7690 C   0  0  0  0  0  0  0  0  0  0  0  0
   -4.5140   23.5550  -29.8230 N   0  0  0  0  0  0  0  0  0  0  0  0
   -5.4730   22.6420  -30.0750 C   0  0  0  0  0  0  0  0  0  0  0  0
   -6.2210   23.0490  -31.1680 C   0  0  0  0  0  0  0  0  0  0  0  0
   -7.3920   22.3110  -31.7610 C   0  0  2  0  0  0  0  0  0  0  0  0
   -8.5990   22.9720  -31.4700 O   0  0  0  0  0  0  0  0  0  0  0  0
   -7.4220   20.9490  -31.3510 O   0  0  0  0  0  0  0  0  0  0  0  0
   -7.7810   20.0650  -32.4000 C   0  0  0  0  0  0  0  0  0  0  0  0
   -6.8890   18.8480  -32.4140 C   0  0  0  0  0  0  0  0  0  0  0  0
   -7.0830   17.9460  -31.5510 O   0  0  0  0  0  0  0  0  0  0  0  0
   -5.8630   18.6690  -33.4160 N   0  0  0  0  0  0  0  0  0  0  0  0
   -6.0540   17.7330  -34.5290 C   0  0  0  0  0  0  0  0  0  0  0  0
   -4.6870   19.5030  -33.3930 C   0  0  0  0  0  0  0  0  0  0  0  0
   -3.4240   18.9600  -33.6840 C   0  0  0  0  0  0  0  0  0  0  0  0
   -2.2870   19.7720  -33.6700 C   0  0  0  0  0  0  0  0  0  0  0  0
   -2.4020   21.1310  -33.3650 C   0  0  0  0  0  0  0  0  0  0  0  0
   -3.6520   21.6780  -33.0720 C   0  0  0  0  0  0  0  0  0  0  0  0
   -4.7920   20.8680  -33.0830 C   0  0  0  0  0  0  0  0  0  0  0  0
   -5.7120   24.2720  -31.5840 C   0  0  0  0  0  0  0  0  0  0  0  0
   -4.6670   24.5440  -30.7260 C   0  0  0  0  0  0  0  0  0  0  0  0
   -3.8670   25.6820  -30.7830 O   0  0  0  0  0  0  0  0  0  0  0  0
   -0.1692   21.6387  -29.5954 H   0  0  0  0  0  0  0  0  0  0  0  0
   -0.6835   20.7295  -31.0568 H   0  0  0  0  0  0  0  0  0  0  0  0
   -0.7211   22.5254  -31.0568 H   0  0  0  0  0  0  0  0  0  0  0  0
   -2.9886   21.8613  -30.7378 H   0  0  0  0  0  0  0  0  0  0  0  0
   -2.5187   20.5810  -29.5510 H   0  0  0  0  0  0  0  0  0  0  0  0
   -0.6884   21.8895  -27.7645 H   0  0  0  0  0  0  0  0  0  0  0  0
   -0.8666   23.5579  -25.9246 H   0  0  0  0  0  0  0  0  0  0  0  0
   -2.7473   25.1956  -25.8958 H   0  0  0  0  0  0  0  0  0  0  0  0
   -4.4479   25.1789  -27.7178 H   0  0  0  0  0  0  0  0  0  0  0  0
   -5.6364   21.7174  -29.5019 H   0  0  0  0  0  0  0  0  0  0  0  0
   -7.2671   22.3077  -32.8539 H   0  0  0  0  0  0  0  0  0  0  0  0
   -8.4580   23.9280  -31.6960 H   0  0  0  0  0  0  0  0  0  0  0  0
   -8.8238   19.7445  -32.2587 H   0  0  0  0  0  0  0  0  0  0  0  0
   -7.6654   20.5939  -33.3576 H   0  0  0  0  0  0  0  0  0  0  0  0
   -6.2591   16.7279  -34.1318 H   0  0  0  0  0  0  0  0  0  0  0  0
   -6.9031   18.0641  -35.1450 H   0  0  0  0  0  0  0  0  0  0  0  0
   -5.1431   17.7050  -35.1450 H   0  0  0  0  0  0  0  0  0  0  0  0
   -3.3300   17.8906  -33.9239 H   0  0  0  0  0  0  0  0  0  0  0  0
   -1.3010   19.3414  -33.8991 H   0  0  0  0  0  0  0  0  0  0  0  0
   -1.5066   21.7699  -33.3559 H   0  0  0  0  0  0  0  0  0  0  0  0
   -3.7407   22.7478  -32.8320 H   0  0  0  0  0  0  0  0  0  0  0  0
   -5.7749   21.3023  -32.8478 H   0  0  0  0  0  0  0  0  0  0  0  0
   -6.0669   24.8922  -32.4203 H   0  0  0  0  0  0  0  0  0  0  0  0
  1  2  1  0
  2  3  1  0
  3  4  2  0
  4  5  1  0
  5  6  2  0
  6  7  1  0
  7  8  2  0
  8  9  1  0
  9 10  1  0
 10 11  2  0
 11 12  1  0
 12 13  1  0
 12 14  1  0
 14 15  1  0
 15 16  1  0
 16 17  2  0
 16 18  1  0
 18 19  1  0
 18 20  1  0
 20 21  2  0
 21 22  1  0
 22 23  2  0
 23 24  1  0
 24 25  2  0
 11 26  1  0
 26 27  2  0
 27 28  1  0
  8  3  1  0
 27  9  1  0
 25 20  1  0
  1 29  1  0
  1 30  1  0
  1 31  1  0
  2 32  1  0
  2 33  1  0
  4 34  1  0
  5 35  1  0
  6 36  1  0
  7 37  1  0
 10 38  1  0
 12 39  1  6
 13 40  1  0
 15 41  1  0
 15 42  1  0
 19 43  1  0
 19 44  1  0
 19 45  1  0
 21 46  1  0
 22 47  1  0
 23 48  1  0
 24 49  1  0
 25 50  1  0
 26 51  1  0
M  CHG  1  28  -1
M  END
>  <UniqueID>  (15) 
15

>  <SMILES>  (15) 
CCc1ccccc1-n1cc([C@H](O)OCC(=O)N(C)c2ccccc2)cc1[O-]

>  <Energy>  (15) 
95.54935186126123

>  <Genealogy>  (15) 
CCc1ccccc1-n1cc(C(O)OCC(=O)N(C)c2ccccc2)cc1[O-] (protonated)
CCc1ccccc1-n1cc([C@H](O)OCC(=O)N(C)c2ccccc2)cc1[O-] (chirality)
CCc1ccccc1-n1cc([C@H](O)OCC(=O)N(C)c2ccccc2)cc1[O-] (3D coordinates assigned)
CCc1ccccc1-n1cc([C@H](O)OCC(=O)N(C)c2ccccc2)cc1[O-] (optimized conformer: 95.54935186126123 kcal/mol)

>  <smiles>  (15) 
CCc1ccccc1-n1cc(C(O)OCC(=O)N(C)c2ccccc2)cc1O

>  <score_type>  (15) 
oracle

>  <origin>  (15) 
adg

>  <m_score__min__energy>  (15) 
-10.970000000000001

>  <m_primary>  (15) 
energy

$$$$
15:0
     RDKit          3D

 57 59  0  0  0  0  0  0  0  0999 V2000
   -1.5470   20.4340  -30.2450 C   0  0  0  0  0  0  0  0  0  0  0  0
   -1.2950   19.5450  -31.4620 C   0  0  0  0  0  0  0  0  0  0  0  0
   -2.4850   19.4790  -32.3420 N   0  0  0  0  0  0  0  0  0  0  0  0
   -2.7070   18.1130  -32.8680 C   0  0  0  0  0  0  0  0  0  0  0  0
   -2.2670   18.0300  -34.3270 C   0  0  0  0  0  0  0  0  0  0  0  0
   -2.5030   20.5070  -33.4120 C   0  0  0  0  0  0  0  0  0  0  0  0
   -2.9010   21.9170  -32.9320 C   0  0  0  0  0  0  0  0  0  0  0  0
   -3.8240   21.8210  -31.8040 N   0  0  0  0  0  0  0  0  0  0  0  0
   -4.1490   22.9490  -30.9780 C   0  0  0  0  0  0  0  0  0  0  0  0
   -3.6310   24.0750  -31.2150 O   0  0  0  0  0  0  0  0  0  0  0  0
   -5.1400   22.7950  -29.8380 C   0  0  1  0  0  0  0  0  0  0  0  0
   -4.6600   23.5540  -28.6030 C   0  0  0  0  0  0  0  0  0  0  0  0
   -5.3590   24.9070  -28.6740 C   0  0  0  0  0  0  0  0  0  0  0  0
   -6.4120   24.7720  -29.7720 C   0  0  0  0  0  0  0  0  0  0  0  0
   -6.4680   23.3550  -30.1300 N   0  0  0  0  0  0  0  0  0  0  0  0
   -7.0690   23.0870  -31.7490 S   0  0  0  0  0  0  0  0  0  0  0  0
   -6.1650   23.7600  -32.7450 O   0  0  0  0  0  0  0  0  0  0  0  0
   -8.4590   23.6430  -31.9100 O   0  0  0  0  0  0  0  0  0  0  0  0
   -7.0950   21.3560  -32.0660 C   0  0  0  0  0  0  0  0  0  0  0  0
   -7.9210   20.5160  -31.3060 C   0  0  0  0  0  0  0  0  0  0  0  0
   -7.9680   19.1460  -31.5680 C   0  0  0  0  0  0  0  0  0  0  0  0
   -7.1920   18.5980  -32.6010 C   0  0  0  0  0  0  0  0  0  0  0  0
   -7.2360   17.2230  -32.8790 C   0  0  0  0  0  0  0  0  0  0  0  0
   -6.4640   16.6920  -33.9160 C   0  0  0  0  0  0  0  0  0  0  0  0
   -5.6420   17.5260  -34.6790 C   0  0  0  0  0  0  0  0  0  0  0  0
   -5.5860   18.8970  -34.4100 C   0  0  0  0  0  0  0  0  0  0  0  0
   -6.3590   19.4430  -33.3750 C   0  0  0  0  0  0  0  0  0  0  0  0
   -6.3200   20.8180  -33.1010 C   0  0  0  0  0  0  0  0  0  0  0  0
   -1.3822   19.8526  -29.3258 H   0  0  0  0  0  0  0  0  0  0  0  0
   -0.8560   21.2896  -30.2665 H   0  0  0  0  0  0  0  0  0  0  0  0
   -2.5842   20.7997  -30.2665 H   0  0  0  0  0  0  0  0  0  0  0  0
   -0.4494   19.9540  -32.0344 H   0  0  0  0  0  0  0  0  0  0  0  0
   -1.0719   18.5282  -31.1064 H   0  0  0  0  0  0  0  0  0  0  0  0
   -2.1244   17.3953  -32.2718 H   0  0  0  0  0  0  0  0  0  0  0  0
   -3.7788   17.8740  -32.8030 H   0  0  0  0  0  0  0  0  0  0  0  0
   -1.1870   17.8263  -34.3733 H   0  0  0  0  0  0  0  0  0  0  0  0
   -2.8149   17.2194  -34.8297 H   0  0  0  0  0  0  0  0  0  0  0  0
   -2.4819   18.9845  -34.8297 H   0  0  0  0  0  0  0  0  0  0  0  0
   -1.4962   20.5643  -33.8514 H   0  0  0  0  0  0  0  0  0  0  0  0
   -3.2690   20.1935  -34.1365 H   0  0  0  0  0  0  0  0  0  0  0  0
   -1.9989   22.4628  -32.6185 H   0  0  0  0  0  0  0  0  0  0  0  0
   -3.3945   22.4522  -33.7566 H   0  0  0  0  0  0  0  0  0  0  0  0
   -4.2990   20.9060  -31.6270 H   0  0  0  0  0  0  0  0  0  0  0  0
   -5.2110   21.7084  -29.6820 H   0  0  0  0  0  0  0  0  0  0  0  0
   -4.9458   23.0190  -27.6853 H   0  0  0  0  0  0  0  0  0  0  0  0
   -3.5649   23.6557  -28.5806 H   0  0  0  0  0  0  0  0  0  0  0  0
   -5.8367   25.1427  -27.7116 H   0  0  0  0  0  0  0  0  0  0  0  0
   -4.6495   25.7193  -28.8901 H   0  0  0  0  0  0  0  0  0  0  0  0
   -7.3915   25.1081  -29.4010 H   0  0  0  0  0  0  0  0  0  0  0  0
   -6.1546   25.3903  -30.6446 H   0  0  0  0  0  0  0  0  0  0  0  0
   -8.5359   20.9394  -30.4981 H   0  0  0  0  0  0  0  0  0  0  0  0
   -8.6151   18.4938  -30.9631 H   0  0  0  0  0  0  0  0  0  0  0  0
   -7.8793   16.5620  -32.2796 H   0  0  0  0  0  0  0  0  0  0  0  0
   -6.5035   15.6142  -34.1324 H   0  0  0  0  0  0  0  0  0  0  0  0
   -5.0369   17.1023  -35.4941 H   0  0  0  0  0  0  0  0  0  0  0  0
   -4.9346   19.5484  -35.0112 H   0  0  0  0  0  0  0  0  0  0  0  0
   -5.6771   21.4775  -33.7024 H   0  0  0  0  0  0  0  0  0  0  0  0
  1  2  1  0
  2  3  1  0
  3  4  1  0
  4  5  1  0
  3  6  1  0
  6  7  1  0
  7  8  1  0
  8  9  1  0
  9 10  2  0
  9 11  1  0
 11 12  1  0
 12 13  1  0
 13 14  1  0
 14 15  1  0
 15 16  1  0
 16 17  2  0
 16 18  2  0
 16 19  1  0
 19 20  2  0
 20 21  1  0
 21 22  2  0
 22 23  1  0
 23 24  2  0
 24 25  1  0
 25 26  2  0
 26 27  1  0
 27 28  2  0
 15 11  1  0
 28 19  1  0
 27 22  1  0
  1 29  1  0
  1 30  1  0
  1 31  1  0
  2 32  1  0
  2 33  1  0
  4 34  1  0
  4 35  1  0
  5 36  1  0
  5 37  1  0
  5 38  1  0
  6 39  1  0
  6 40  1  0
  7 41  1  0
  7 42  1  0
  8 43  1  0
 11 44  1  1
 12 45  1  0
 12 46  1  0
 13 47  1  0
 13 48  1  0
 14 49  1  0
 14 50  1  0
 20 51  1  0
 21 52  1  0
 23 53  1  0
 24 54  1  0
 25 55  1  0
 26 56  1  0
 28 57  1  0
M  END
>  <UniqueID>  (16) 
16

>  <SMILES>  (16) 
CCN(CC)CCNC(=O)[C@H]1CCCN1S(=O)(=O)c1ccc2ccccc2c1

>  <Energy>  (16) 
63.95852728027477

>  <Genealogy>  (16) 
CCN(CC)CCNC(=O)[C@H]1CCCN1S(=O)(=O)c1ccc2ccccc2c1 (chirality)
CCN(CC)CCNC(=O)[C@H]1CCCN1S(=O)(=O)c1ccc2ccccc2c1 (3D coordinates assigned)
CCN(CC)CCNC(=O)[C@H]1CCCN1S(=O)(=O)c1ccc2ccccc2c1 (nonaromatic ring conformer: 63.95852728027477 kcal/mol)

>  <smiles>  (16) 
CCN(CC)CCNC(=O)C1CCCN1S(=O)(=O)c1ccc2ccccc2c1

>  <score_type>  (16) 
oracle

>  <origin>  (16) 
adg

>  <m_score__min__energy>  (16) 
-9.4499999999999993

>  <m_primary>  (16) 
energy

$$$$
16:0
     RDKit          3D

 37 40  0  0  0  0  0  0  0  0999 V2000
   -9.5110   21.7910  -31.4740 C   0  0  0  0  0  0  0  0  0  0  0  0
   -8.1000   21.5180  -31.8940 C   0  0  0  0  0  0  0  0  0  0  0  0
   -7.6920   20.3850  -32.5990 C   0  0  0  0  0  0  0  0  0  0  0  0
   -6.3380   20.5500  -32.7910 C   0  0  0  0  0  0  0  0  0  0  0  0
   -5.4040   19.7590  -33.4480 C   0  0  0  0  0  0  0  0  0  0  0  0
   -4.0790   20.2250  -33.4940 C   0  0  0  0  0  0  0  0  0  0  0  0
   -3.7470   21.4580  -32.8890 C   0  0  0  0  0  0  0  0  0  0  0  0
   -4.7040   22.2020  -32.2550 N   0  0  0  0  0  0  0  0  0  0  0  0
   -5.9820   21.7370  -32.2110 C   0  0  0  0  0  0  0  0  0  0  0  0
   -7.0460   22.3400  -31.6440 N   0  0  0  0  0  0  0  0  0  0  0  0
   -7.0740   23.6510  -30.9920 C   0  0  0  0  0  0  0  0  0  0  0  0
   -5.6850   24.0740  -30.6340 C   0  0  0  0  0  0  0  0  0  0  0  0
   -4.9390   23.4580  -29.6960 N   0  0  0  0  0  0  0  0  0  0  0  0
   -3.8140   24.1980  -29.7190 C   0  0  0  0  0  0  0  0  0  0  0  0
   -2.6110   23.8960  -28.8850 C   0  0  0  0  0  0  0  0  0  0  0  0
   -3.0310   23.7010  -27.4230 C   0  0  0  0  0  0  0  0  0  0  0  0
   -4.2150   24.5380  -26.9610 C   0  0  0  0  0  0  0  0  0  0  0  0
   -2.8060   24.9050  -26.5230 C   0  0  0  0  0  0  0  0  0  0  0  0
   -3.8650   25.1920  -30.6250 N   0  0  0  0  0  0  0  0  0  0  0  0
   -5.0520   25.1180  -31.1980 N   0  0  0  0  0  0  0  0  0  0  0  0
   -9.5709   21.8026  -30.3757 H   0  0  0  0  0  0  0  0  0  0  0  0
   -9.8287   22.7673  -31.8689 H   0  0  0  0  0  0  0  0  0  0  0  0
  -10.1700   21.0037  -31.8689 H   0  0  0  0  0  0  0  0  0  0  0  0
   -8.3167   19.5422  -32.9299 H   0  0  0  0  0  0  0  0  0  0  0  0
   -5.6905   18.8048  -33.9142 H   0  0  0  0  0  0  0  0  0  0  0  0
   -3.3027   19.6317  -33.9994 H   0  0  0  0  0  0  0  0  0  0  0  0
   -2.7100   21.8228  -32.9282 H   0  0  0  0  0  0  0  0  0  0  0  0
   -4.4440   23.1150  -31.8180 H   0  0  0  0  0  0  0  0  0  0  0  0
   -7.5143   24.3896  -31.6779 H   0  0  0  0  0  0  0  0  0  0  0  0
   -7.6790   23.5857  -30.0757 H   0  0  0  0  0  0  0  0  0  0  0  0
   -2.1320   22.9769  -29.2535 H   0  0  0  0  0  0  0  0  0  0  0  0
   -1.9020   24.7344  -28.9515 H   0  0  0  0  0  0  0  0  0  0  0  0
   -2.7721   22.6327  -27.3811 H   0  0  0  0  0  0  0  0  0  0  0  0
   -4.7515   25.1756  -27.6790 H   0  0  0  0  0  0  0  0  0  0  0  0
   -5.1613   24.3273  -26.4413 H   0  0  0  0  0  0  0  0  0  0  0  0
   -2.3234   25.8086  -26.9239 H   0  0  0  0  0  0  0  0  0  0  0  0
   -2.3111   25.0700  -25.5546 H   0  0  0  0  0  0  0  0  0  0  0  0
  1  2  1  0
  2  3  2  0
  3  4  1  0
  4  5  2  0
  5  6  1  0
  6  7  2  0
  7  8  1  0
  8  9  2  0
  9 10  1  0
 10 11  1  0
 11 12  1  0
 12 13  2  0
 13 14  1  0
 14 15  1  0
 15 16  1  0
 16 17  1  0
 17 18  1  0
 14 19  2  0
 19 20  1  0
 10  2  1  0
 20 12  1  0
  9  4  1  0
 18 16  1  0
  1 21  1  0
  1 22  1  0
  1 23  1  0
  3 24  1  0
  5 25  1  0
  6 26  1  0
  7 27  1  0
  8 28  1  0
 11 29  1  0
 11 30  1  0
 15 31  1  0
 15 32  1  0
 16 33  1  0
 17 34  1  0
 17 35  1  0
 18 36  1  0
 18 37  1  0
M  CHG  2   8   1  20  -1
M  END
>  <UniqueID>  (17) 
17

>  <SMILES>  (17) 
Cc1cc2ccc[nH+]c2n1Cc1nc(CC2CC2)n[n-]1

>  <Energy>  (17) 
364.54009736282063

>  <Genealogy>  (17) 
Cc1cc2ccc[nH+]c2n1Cc1nc(CC2CC2)n[n-]1 (protonated)
Cc1cc2ccc[nH+]c2n1Cc1nc(CC2CC2)n[n-]1 (3D coordinates assigned)
Cc1cc2ccc[nH+]c2n1Cc1nc(CC2CC2)n[n-]1 (nonaromatic ring conformer: 364.54009736282063 kcal/mol)

>  <smiles>  (17) 
Cc1cc2cccnc2n1Cc1nc(CC2CC2)n[nH]1

>  <score_type>  (17) 
oracle

>  <origin>  (17) 
adg

>  <m_score__min__energy>  (17) 
-8.1699999999999999

>  <m_primary>  (17) 
energy

$$$$
17:0
     RDKit          3D

 47 48  0  0  0  0  0  0  0  0999 V2000
   -4.4230   21.0600  -33.0860 C   0  0  0  0  0  0  0  0  0  0  0  0
   -5.5420   21.7570  -32.3670 C   0  0  0  0  0  0  0  0  0  0  0  0
   -6.8540   21.2720  -32.4670 C   0  0  0  0  0  0  0  0  0  0  0  0
   -7.8980   21.8970  -31.7680 C   0  0  0  0  0  0  0  0  0  0  0  0
   -9.3070   21.4060  -31.9210 C   0  0  0  0  0  0  0  0  0  0  0  0
   -7.6240   23.0230  -30.9780 C   0  0  0  0  0  0  0  0  0  0  0  0
   -6.3100   23.4980  -30.8470 C   0  0  0  0  0  0  0  0  0  0  0  0
   -6.0260   24.7140  -30.0030 C   0  0  0  0  0  0  0  0  0  0  0  0
   -4.9260   25.5820  -30.6270 C   0  0  0  0  0  0  0  0  0  0  0  0
   -3.6130   24.9640  -30.4650 N   0  0  0  0  0  0  0  0  0  0  0  0
   -2.8530   24.8990  -29.2510 C   0  0  0  0  0  0  0  0  0  0  0  0
   -1.6590   25.2970  -29.2680 O   0  0  0  0  0  0  0  0  0  0  0  0
   -3.4580   24.4590  -27.9420 C   0  0  0  0  0  0  0  0  0  0  0  0
   -3.1120   23.0520  -27.6520 N   0  0  0  0  0  0  0  0  0  0  0  0
   -1.7050   22.9290  -27.2210 C   0  0  0  0  0  0  0  0  0  0  0  0
   -1.3980   21.4810  -26.7900 C   0  0  0  0  0  0  0  0  0  0  0  0
   -2.4410   20.5420  -27.2530 N   0  0  0  0  0  0  0  0  0  0  0  0
   -1.9950   19.1520  -27.0670 C   0  0  0  0  0  0  0  0  0  0  0  0
   -2.7680   20.7910  -28.6680 C   0  0  0  0  0  0  0  0  0  0  0  0
   -3.3540   22.2090  -28.8420 C   0  0  0  0  0  0  0  0  0  0  0  0
   -5.2730   22.8610  -31.5450 C   0  0  0  0  0  0  0  0  0  0  0  0
   -3.7283   20.6273  -32.3511 H   0  0  0  0  0  0  0  0  0  0  0  0
   -4.8354   20.2587  -33.7168 H   0  0  0  0  0  0  0  0  0  0  0  0
   -3.8857   21.7834  -33.7168 H   0  0  0  0  0  0  0  0  0  0  0  0
   -7.0661   20.3959  -33.0975 H   0  0  0  0  0  0  0  0  0  0  0  0
   -9.7513   21.2512  -30.9267 H   0  0  0  0  0  0  0  0  0  0  0  0
   -9.8970   22.1515  -32.4742 H   0  0  0  0  0  0  0  0  0  0  0  0
   -9.3059   20.4553  -32.4742 H   0  0  0  0  0  0  0  0  0  0  0  0
   -8.4450   23.5375  -30.4573 H   0  0  0  0  0  0  0  0  0  0  0  0
   -6.9457   25.3108  -29.9137 H   0  0  0  0  0  0  0  0  0  0  0  0
   -5.6826   24.3771  -29.0138 H   0  0  0  0  0  0  0  0  0  0  0  0
   -5.1335   25.7085  -31.6998 H   0  0  0  0  0  0  0  0  0  0  0  0
   -4.9186   26.5565  -30.1169 H   0  0  0  0  0  0  0  0  0  0  0  0
   -3.0741   25.0989  -27.1338 H   0  0  0  0  0  0  0  0  0  0  0  0
   -4.5523   24.5464  -28.0117 H   0  0  0  0  0  0  0  0  0  0  0  0
   -1.0449   23.2060  -28.0562 H   0  0  0  0  0  0  0  0  0  0  0  0
   -1.5347   23.5990  -26.3654 H   0  0  0  0  0  0  0  0  0  0  0  0
   -0.4306   21.1789  -27.2177 H   0  0  0  0  0  0  0  0  0  0  0  0
   -1.3695   21.4483  -25.6909 H   0  0  0  0  0  0  0  0  0  0  0  0
   -1.9239   18.9305  -25.9919 H   0  0  0  0  0  0  0  0  0  0  0  0
   -2.7190   18.4689  -27.5350 H   0  0  0  0  0  0  0  0  0  0  0  0
   -1.0086   19.0177  -27.5350 H   0  0  0  0  0  0  0  0  0  0  0  0
   -1.8539   20.6995  -29.2730 H   0  0  0  0  0  0  0  0  0  0  0  0
   -3.5141   20.0530  -28.9977 H   0  0  0  0  0  0  0  0  0  0  0  0
   -2.8845   22.6836  -29.7162 H   0  0  0  0  0  0  0  0  0  0  0  0
   -4.4413   22.1155  -28.9798 H   0  0  0  0  0  0  0  0  0  0  0  0
   -4.2415   23.2302  -31.4468 H   0  0  0  0  0  0  0  0  0  0  0  0
  1  2  1  0
  2  3  2  0
  3  4  1  0
  4  5  1  0
  4  6  2  0
  6  7  1  0
  7  8  1  0
  8  9  1  0
  9 10  1  0
 10 11  1  0
 11 12  2  0
 11 13  1  0
 13 14  1  0
 14 15  1  0
 15 16  1  0
 16 17  1  0
 17 18  1  0
 17 19  1  0
 19 20  1  0
  7 21  2  0
 21  2  1  0
 20 14  1  0
  1 22  1  0
  1 23  1  0
  1 24  1  0
  3 25  1  0
  5 26  1  0
  5 27  1  0
  5 28  1  0
  6 29  1  0
  8 30  1  0
  8 31  1  0
  9 32  1  0
  9 33  1  0
 13 34  1  0
 13 35  1  0
 15 36  1  0
 15 37  1  0
 16 38  1  0
 16 39  1  0
 18 40  1  0
 18 41  1  0
 18 42  1  0
 19 43  1  0
 19 44  1  0
 20 45  1  0
 20 46  1  0
 21 47  1  0
M  CHG  1  10  -1
M  END
>  <UniqueID>  (18) 
18

>  <SMILES>  (18) 
Cc1cc(C)cc(CC[N-]C(=O)CN2CCN(C)CC2)c1

>  <Energy>  (18) 
46.94164790698918

>  <Genealogy>  (18) 
Cc1cc(C)cc(CC[N-]C(=O)CN2CCN(C)CC2)c1 (protonated)
Cc1cc(C)cc(CC[N-]C(=O)CN2CCN(C)CC2)c1 (3D coordinates assigned)
Cc1cc(C)cc(CC[N-]C(=O)CN2CCN(C)CC2)c1 (nonaromatic ring conformer: 46.94164790698918 kcal/mol)

>  <smiles>  (18) 
Cc1cc(C)cc(CCNC(=O)CN2CCN(C)CC2)c1

>  <score_type>  (18) 
oracle

>  <origin>  (18) 
adg

>  <m_score__min__energy>  (18) 
-9.4000000000000004

>  <m_primary>  (18) 
energy

$$$$
18:0
     RDKit          3D

 58 62  0  0  0  0  0  0  0  0999 V2000
   -1.9810   25.6500  -28.9510 O   0  0  0  0  0  0  0  0  0  0  0  0
   -2.8980   24.8730  -29.3360 C   0  0  0  0  0  0  0  0  0  0  0  0
   -3.8240   25.3000  -30.3410 N   0  0  0  0  0  0  0  0  0  0  0  0
   -5.2710   25.1630  -30.2130 C   0  0  0  0  0  0  0  0  0  0  0  0
   -5.7110   23.8790  -30.8620 C   0  0  0  0  0  0  0  0  0  0  0  0
   -5.0620   23.4020  -32.0080 C   0  0  0  0  0  0  0  0  0  0  0  0
   -5.4050   22.1590  -32.5490 C   0  0  0  0  0  0  0  0  0  0  0  0
   -6.4030   21.3720  -31.9510 C   0  0  0  0  0  0  0  0  0  0  0  0
   -6.7340   20.0730  -32.4880 N   0  0  0  0  0  0  0  0  0  0  0  0
   -6.8570   19.8610  -33.9350 C   0  0  0  0  0  0  0  0  0  0  0  0
   -5.8920   18.7600  -34.3970 C   0  0  0  0  0  0  0  0  0  0  0  0
   -5.7790   17.5770  -33.3990 C   0  0  0  0  0  0  0  0  0  0  0  0
   -4.5050   17.6400  -32.7460 O   0  0  0  0  0  0  0  0  0  0  0  0
   -3.5430   18.6510  -32.9190 C   0  0  0  0  0  0  0  0  0  0  0  0
   -2.6400   18.5280  -33.9820 C   0  0  0  0  0  0  0  0  0  0  0  0
   -1.6680   19.5090  -34.2070 C   0  0  0  0  0  0  0  0  0  0  0  0
   -1.5890   20.6240  -33.3700 C   0  0  0  0  0  0  0  0  0  0  0  0
   -0.6560   21.5830  -33.5970 F   0  0  0  0  0  0  0  0  0  0  0  0
   -2.4780   20.7520  -32.2970 C   0  0  0  0  0  0  0  0  0  0  0  0
   -3.4510   19.7730  -32.0680 C   0  0  0  0  0  0  0  0  0  0  0  0
   -6.9120   17.5970  -32.3500 C   0  0  0  0  0  0  0  0  0  0  0  0
   -6.9180   18.9280  -31.5820 C   0  0  0  0  0  0  0  0  0  0  0  0
   -7.0710   21.8660  -30.8170 C   0  0  0  0  0  0  0  0  0  0  0  0
   -6.7170   23.1020  -30.2670 C   0  0  0  0  0  0  0  0  0  0  0  0
   -3.0330   23.5300  -28.7440 C   0  0  0  0  0  0  0  0  0  0  0  0
   -4.0560   23.1080  -27.8980 C   0  0  0  0  0  0  0  0  0  0  0  0
   -3.8890   21.8080  -27.5630 N   0  0  0  0  0  0  0  0  0  0  0  0
   -2.7700   21.4040  -28.1860 C   0  0  0  0  0  0  0  0  0  0  0  0
   -2.1830   20.1430  -28.1200 C   0  0  0  0  0  0  0  0  0  0  0  0
   -0.9890   19.9340  -28.8330 C   0  0  0  0  0  0  0  0  0  0  0  0
   -0.4110   20.9800  -29.5830 C   0  0  0  0  0  0  0  0  0  0  0  0
   -1.0260   22.2440  -29.6350 C   0  0  0  0  0  0  0  0  0  0  0  0
   -2.2150   22.4240  -28.9190 C   0  0  0  0  0  0  0  0  0  0  0  0
   -5.5454   25.1486  -29.1479 H   0  0  0  0  0  0  0  0  0  0  0  0
   -5.7655   26.0125  -30.7069 H   0  0  0  0  0  0  0  0  0  0  0  0
   -4.2781   24.0086  -32.4851 H   0  0  0  0  0  0  0  0  0  0  0  0
   -4.8893   21.7947  -33.4498 H   0  0  0  0  0  0  0  0  0  0  0  0
   -7.8888   19.5616  -34.1713 H   0  0  0  0  0  0  0  0  0  0  0  0
   -6.6071   20.7970  -34.4559 H   0  0  0  0  0  0  0  0  0  0  0  0
   -6.2465   18.3687  -35.3620 H   0  0  0  0  0  0  0  0  0  0  0  0
   -4.8937   19.2157  -34.4729 H   0  0  0  0  0  0  0  0  0  0  0  0
   -5.8736   16.6374  -33.9632 H   0  0  0  0  0  0  0  0  0  0  0  0
   -2.6952   17.6527  -34.6459 H   0  0  0  0  0  0  0  0  0  0  0  0
   -0.9642   19.4016  -35.0455 H   0  0  0  0  0  0  0  0  0  0  0  0
   -2.4117   21.6252  -31.6313 H   0  0  0  0  0  0  0  0  0  0  0  0
   -4.1463   19.8782  -31.2221 H   0  0  0  0  0  0  0  0  0  0  0  0
   -7.8784   17.4700  -32.8599 H   0  0  0  0  0  0  0  0  0  0  0  0
   -6.7467   16.7772  -31.6354 H   0  0  0  0  0  0  0  0  0  0  0  0
   -7.8805   19.0357  -31.0605 H   0  0  0  0  0  0  0  0  0  0  0  0
   -6.0839   18.9171  -30.8650 H   0  0  0  0  0  0  0  0  0  0  0  0
   -7.8783   21.2758  -30.3588 H   0  0  0  0  0  0  0  0  0  0  0  0
   -7.2291   23.4668  -29.3644 H   0  0  0  0  0  0  0  0  0  0  0  0
   -4.8842   23.7432  -27.5507 H   0  0  0  0  0  0  0  0  0  0  0  0
   -4.5060   21.2410  -26.9410 H   0  0  0  0  0  0  0  0  0  0  0  0
   -2.6391   19.3354  -27.5285 H   0  0  0  0  0  0  0  0  0  0  0  0
   -0.5022   18.9480  -28.8058 H   0  0  0  0  0  0  0  0  0  0  0  0
    0.5269   20.8059  -30.1308 H   0  0  0  0  0  0  0  0  0  0  0  0
   -0.5862   23.0652  -30.2200 H   0  0  0  0  0  0  0  0  0  0  0  0
  1  2  2  0
  2  3  1  0
  3  4  1  0
  4  5  1  0
  5  6  2  0
  6  7  1  0
  7  8  2  0
  8  9  1  0
  9 10  1  0
 10 11  1  0
 11 12  1  0
 12 13  1  0
 13 14  1  0
 14 15  2  0
 15 16  1  0
 16 17  2  0
 17 18  1  0
 17 19  1  0
 19 20  2  0
 12 21  1  0
 21 22  1  0
  8 23  1  0
 23 24  2  0
  2 25  1  0
 25 26  2  0
 26 27  1  0
 27 28  1  0
 28 29  2  0
 29 30  1  0
 30 31  2  0
 31 32  1  0
 32 33  2  0
 24  5  1  0
 33 25  1  0
 22  9  1  0
 33 28  1  0
 20 14  1  0
  4 34  1  0
  4 35  1  0
  6 36  1  0
  7 37  1  0
 10 38  1  0
 10 39  1  0
 11 40  1  0
 11 41  1  0
 12 42  1  0
 15 43  1  0
 16 44  1  0
 19 45  1  0
 20 46  1  0
 21 47  1  0
 21 48  1  0
 22 49  1  0
 22 50  1  0
 23 51  1  0
 24 52  1  0
 26 53  1  0
 27 54  1  0
 29 55  1  0
 30 56  1  0
 31 57  1  0
 32 58  1  0
M  CHG  1   3  -1
M  END
>  <UniqueID>  (19) 
19

>  <SMILES>  (19) 
O=C([N-]Cc1ccc(N2CCC(Oc3ccc(F)cc3)CC2)cc1)c1c[nH]c2ccccc12

>  <Energy>  (19) 
102.73686413038354

>  <Genealogy>  (19) 
O=C([N-]Cc1ccc(N2CCC(Oc3ccc(F)cc3)CC2)cc1)c1c[nH]c2ccccc12 (protonated)
O=C([N-]Cc1ccc(N2CCC(Oc3ccc(F)cc3)CC2)cc1)c1c[nH]c2ccccc12 (3D coordinates assigned)
O=C([N-]Cc1ccc(N2CCC(Oc3ccc(F)cc3)CC2)cc1)c1c[nH]c2ccccc12 (nonaromatic ring conformer: 102.73686413038354 kcal/mol)

>  <smiles>  (19) 
O=C(NCc1ccc(N2CCC(Oc3ccc(F)cc3)CC2)cc1)c1c[nH]c2ccccc12

>  <score_type>  (19) 
oracle

>  <origin>  (19) 
adg

>  <m_score__min__energy>  (19) 
-11.109999999999999

>  <m_primary>  (19) 
energy

$$$$
19:0
     RDKit          3D

 48 50  0  0  0  0  0  0  0  0999 V2000
   -8.7559   17.2066  -32.2443 H   0  0  0  0  0  0  0  0  0  0  0  0
   -7.9290   17.8930  -32.4790 C   0  0  0  0  0  0  0  0  0  0  0  0
   -7.9220   19.1830  -31.9430 C   0  0  0  0  0  0  0  0  0  0  0  0
   -8.7390   19.5033  -31.2798 H   0  0  0  0  0  0  0  0  0  0  0  0
   -6.8790   20.0740  -32.2450 C   0  0  0  0  0  0  0  0  0  0  0  0
   -6.8830   21.4140  -31.7080 N   0  0  0  0  0  0  0  0  0  0  0  0
   -8.0230   21.8950  -30.9160 C   0  0  0  0  0  0  0  0  0  0  0  0
   -8.3957   21.0765  -30.2826 H   0  0  0  0  0  0  0  0  0  0  0  0
   -8.8154   22.2340  -31.5995 H   0  0  0  0  0  0  0  0  0  0  0  0
   -7.5970   23.0680  -30.0270 C   0  0  0  0  0  0  0  0  0  0  0  0
   -6.8343   22.7179  -29.3159 H   0  0  0  0  0  0  0  0  0  0  0  0
   -8.4874   23.4391  -29.4983 H   0  0  0  0  0  0  0  0  0  0  0  0
   -7.0350   24.1820  -30.8240 N   0  0  0  0  0  0  0  0  0  0  0  0
   -6.3640   25.1670  -29.9500 C   0  0  0  0  0  0  0  0  0  0  0  0
   -6.7332   25.0512  -28.9203 H   0  0  0  0  0  0  0  0  0  0  0  0
   -6.5844   26.1814  -30.3140 H   0  0  0  0  0  0  0  0  0  0  0  0
   -4.8820   24.9480  -29.9730 C   0  0  0  0  0  0  0  0  0  0  0  0
   -4.1820   25.5380  -30.8440 O   0  0  0  0  0  0  0  0  0  0  0  0
   -4.2850   24.1010  -28.9760 N   0  0  0  0  0  0  0  0  0  0  0  0
   -3.0710   24.1010  -28.4920 C   0  0  0  0  0  0  0  0  0  0  0  0
   -2.6540   23.2310  -27.4580 C   0  0  0  0  0  0  0  0  0  0  0  0
   -3.3595   22.5007  -27.0350 H   0  0  0  0  0  0  0  0  0  0  0  0
   -1.3420   23.3000  -26.9730 C   0  0  0  0  0  0  0  0  0  0  0  0
   -0.8740   22.3500  -25.9050 C   0  0  0  0  0  0  0  0  0  0  0  0
   -1.0853   22.7790  -24.9144 H   0  0  0  0  0  0  0  0  0  0  0  0
   -1.4029   21.3912  -26.0098 H   0  0  0  0  0  0  0  0  0  0  0  0
    0.2085   22.1850  -26.0098 H   0  0  0  0  0  0  0  0  0  0  0  0
   -0.4550   24.2230  -27.5320 C   0  0  0  0  0  0  0  0  0  0  0  0
    0.5859   24.2737  -27.1800 H   0  0  0  0  0  0  0  0  0  0  0  0
   -0.8990   25.0820  -28.5420 C   0  0  0  0  0  0  0  0  0  0  0  0
   -0.2075   25.8167  -28.9801 H   0  0  0  0  0  0  0  0  0  0  0  0
   -2.1820   25.0120  -28.9840 N   0  0  0  0  0  0  0  0  0  0  0  0
   -2.4830   25.6750  -29.7330 H   0  0  0  0  0  0  0  0  0  0  0  0
   -6.1710   23.7550  -31.9610 C   0  0  0  0  0  0  0  0  0  0  0  0
   -5.2765   24.3950  -31.9764 H   0  0  0  0  0  0  0  0  0  0  0  0
   -6.7739   23.8524  -32.8759 H   0  0  0  0  0  0  0  0  0  0  0  0
   -5.7170   22.2900  -31.8780 C   0  0  0  0  0  0  0  0  0  0  0  0
   -5.0397   22.1662  -31.0202 H   0  0  0  0  0  0  0  0  0  0  0  0
   -5.1937   22.0200  -32.8071 H   0  0  0  0  0  0  0  0  0  0  0  0
   -5.8330   19.6390  -33.0820 C   0  0  0  0  0  0  0  0  0  0  0  0
   -5.0154   20.3308  -33.3331 H   0  0  0  0  0  0  0  0  0  0  0  0
   -5.8200   18.3320  -33.6010 C   0  0  0  0  0  0  0  0  0  0  0  0
   -4.7170   17.8950  -34.5320 C   0  0  0  0  0  0  0  0  0  0  0  0
   -5.1940   17.7810  -35.8250 F   0  0  0  0  0  0  0  0  0  0  0  0
   -3.6800   18.8090  -34.5330 F   0  0  0  0  0  0  0  0  0  0  0  0
   -4.2320   16.6690  -34.1210 F   0  0  0  0  0  0  0  0  0  0  0  0
   -6.8910   17.4720  -33.3110 C   0  0  0  0  0  0  0  0  0  0  0  0
   -6.9120   16.4603  -33.7422 H   0  0  0  0  0  0  0  0  0  0  0  0
  1  2  1  0
  2  3  2  0
  3  4  1  0
  3  5  1  0
  5  6  1  0
  6  7  1  0
  7  8  1  0
  7  9  1  0
  7 10  1  0
 10 11  1  0
 10 12  1  0
 10 13  1  0
 13 14  1  0
 14 15  1  0
 14 16  1  0
 14 17  1  0
 17 18  2  0
 17 19  1  0
 19 20  2  0
 20 21  1  0
 21 22  1  0
 21 23  2  0
 23 24  1  0
 24 25  1  0
 24 26  1  0
 24 27  1  0
 23 28  1  0
 28 29  1  0
 28 30  2  0
 30 31  1  0
 30 32  1  0
 32 33  1  0
 13 34  1  0
 34 35  1  0
 34 36  1  0
 34 37  1  0
 37 38  1  0
 37 39  1  0
  5 40  2  0
 40 41  1  0
 40 42  1  0
 42 43  1  0
 43 44  1  0
 43 45  1  0
 43 46  1  0
 42 47  2  0
 47 48  1  0
 47  2  1  0
 37  6  1  0
 32 20  1  0
M  END
>  <UniqueID>  (20) 
20

>  <SMILES>  (20) 
Cc1cc[nH]/c(=N/C(=O)CN2CCN(c3cccc(C(F)(F)F)c3)CC2)c1

>  <Energy>  (20) 
67.08905626275963

>  <Genealogy>  (20) 
Cc1cc[nH]/c(=N/C(=O)CN2CCN(c3cccc(C(F)(F)F)c3)CC2)c1 (cis-trans isomerization)
Cc1cc[nH]/c(=N/C(=O)CN2CCN(c3cccc(C(F)(F)F)c3)CC2)c1 (3D coordinates assigned)
Cc1cc[nH]/c(=N/C(=O)CN2CCN(c3cccc(C(F)(F)F)c3)CC2)c1 (nonaromatic ring conformer: 67.08905626275963 kcal/mol)

>  <smiles>  (20) 
Cc1cc[nH]c(=NC(=O)CN2CCN(c3cccc(C(F)(F)F)c3)CC2)c1

>  <score_type>  (20) 
oracle

>  <origin>  (20) 
adg

>  <m_score__min__energy>  (20) 
-9.2400000000000002

>  <m_primary>  (20) 
energy

$$$$
20:0
     RDKit          3D

 57 58  0  0  0  0  0  0  0  0999 V2000
   -1.9950   20.0030  -33.0740 C   0  0  0  0  0  0  0  0  0  0  0  0
   -3.3040   20.4510  -32.4330 C   0  0  0  0  0  0  0  0  0  0  0  0
   -4.2680   21.0300  -33.4690 C   0  0  0  0  0  0  0  0  0  0  0  0
   -5.5170   20.3450  -33.3910 O   0  0  0  0  0  0  0  0  0  0  0  0
   -5.6870   18.9650  -33.5860 C   0  0  0  0  0  0  0  0  0  0  0  0
   -4.8290   18.2230  -34.4190 C   0  0  0  0  0  0  0  0  0  0  0  0
   -5.0210   16.8480  -34.5830 C   0  0  0  0  0  0  0  0  0  0  0  0
   -6.0690   16.2020  -33.9260 C   0  0  0  0  0  0  0  0  0  0  0  0
   -6.9320   16.9290  -33.1030 C   0  0  0  0  0  0  0  0  0  0  0  0
   -6.7480   18.3120  -32.9250 C   0  0  0  0  0  0  0  0  0  0  0  0
   -7.7080   19.0950  -32.0630 C   0  0  0  0  0  0  0  0  0  0  0  0
   -8.3490   20.1660  -32.8400 N   0  0  0  0  0  0  0  0  0  0  0  0
   -9.2940   20.9720  -32.0430 C   0  0  0  0  0  0  0  0  0  0  0  0
   -8.6650   22.2750  -31.5190 C   0  0  0  0  0  0  0  0  0  0  0  0
   -7.9390   22.0420  -30.1700 C   0  0  0  0  0  0  0  0  0  0  0  0
   -6.7970   22.9710  -29.9600 N   0  0  2  0  0  0  0  0  0  0  0  0
   -7.1480   24.3100  -30.4990 C   0  0  0  0  0  0  0  0  0  0  0  0
   -6.3570   25.4590  -29.8450 C   0  0  0  0  0  0  0  0  0  0  0  0
   -4.9670   25.6690  -30.4770 C   0  0  0  0  0  0  0  0  0  0  0  0
   -4.1870   24.4460  -30.8190 N   0  0  0  0  0  0  0  0  0  0  0  0
   -3.5610   23.8610  -29.6190 C   0  0  0  0  0  0  0  0  0  0  0  0
   -4.9130   23.4070  -31.5750 C   0  0  0  0  0  0  0  0  0  0  0  0
   -5.5940   22.4130  -30.6200 C   0  0  0  0  0  0  0  0  0  0  0  0
   -1.2678   19.7541  -32.2871 H   0  0  0  0  0  0  0  0  0  0  0  0
   -2.1773   19.1161  -33.6986 H   0  0  0  0  0  0  0  0  0  0  0  0
   -1.5956   20.8156  -33.6986 H   0  0  0  0  0  0  0  0  0  0  0  0
   -3.7788   19.5853  -31.9480 H   0  0  0  0  0  0  0  0  0  0  0  0
   -3.0761   21.2367  -31.6977 H   0  0  0  0  0  0  0  0  0  0  0  0
   -4.4234   22.1002  -33.2675 H   0  0  0  0  0  0  0  0  0  0  0  0
   -3.8431   20.9046  -34.4758 H   0  0  0  0  0  0  0  0  0  0  0  0
   -4.0038   18.7271  -34.9433 H   0  0  0  0  0  0  0  0  0  0  0  0
   -4.3438   16.2735  -35.2320 H   0  0  0  0  0  0  0  0  0  0  0  0
   -6.2155   15.1196  -34.0564 H   0  0  0  0  0  0  0  0  0  0  0  0
   -7.7602   16.4171  -32.5912 H   0  0  0  0  0  0  0  0  0  0  0  0
   -8.4825   18.4161  -31.6766 H   0  0  0  0  0  0  0  0  0  0  0  0
   -7.1481   19.5478  -31.2315 H   0  0  0  0  0  0  0  0  0  0  0  0
   -7.6090   20.7810  -33.2590 H   0  0  0  0  0  0  0  0  0  0  0  0
  -10.1586   21.2269  -32.6735 H   0  0  0  0  0  0  0  0  0  0  0  0
   -9.5910   20.3712  -31.1708 H   0  0  0  0  0  0  0  0  0  0  0  0
   -7.9394   22.6460  -32.2579 H   0  0  0  0  0  0  0  0  0  0  0  0
   -9.4672   23.0109  -31.3610 H   0  0  0  0  0  0  0  0  0  0  0  0
   -8.6619   22.1840  -29.3531 H   0  0  0  0  0  0  0  0  0  0  0  0
   -7.5344   21.0192  -30.1850 H   0  0  0  0  0  0  0  0  0  0  0  0
   -6.6120   23.0330  -28.9340 H   0  0  0  0  0  0  0  0  0  0  0  0
   -6.9423   24.3158  -31.5796 H   0  0  0  0  0  0  0  0  0  0  0  0
   -8.2119   24.4807  -30.2775 H   0  0  0  0  0  0  0  0  0  0  0  0
   -6.9352   26.3885  -29.9529 H   0  0  0  0  0  0  0  0  0  0  0  0
   -6.2016   25.1924  -28.7892 H   0  0  0  0  0  0  0  0  0  0  0  0
   -5.1077   26.2430  -31.4048 H   0  0  0  0  0  0  0  0  0  0  0  0
   -4.3749   26.1777  -29.7020 H   0  0  0  0  0  0  0  0  0  0  0  0
   -4.0220   24.2918  -28.7180 H   0  0  0  0  0  0  0  0  0  0  0  0
   -3.7102   22.7712  -29.6219 H   0  0  0  0  0  0  0  0  0  0  0  0
   -2.4838   24.0836  -29.6219 H   0  0  0  0  0  0  0  0  0  0  0  0
   -5.6786   23.8864  -32.2027 H   0  0  0  0  0  0  0  0  0  0  0  0
   -4.1935   22.8585  -32.2007 H   0  0  0  0  0  0  0  0  0  0  0  0
   -5.8911   21.5233  -31.1946 H   0  0  0  0  0  0  0  0  0  0  0  0
   -4.8694   22.1700  -29.8289 H   0  0  0  0  0  0  0  0  0  0  0  0
  1  2  1  0
  2  3  1  0
  3  4  1  0
  4  5  1  0
  5  6  2  0
  6  7  1  0
  7  8  2  0
  8  9  1  0
  9 10  2  0
 10 11  1  0
 11 12  1  0
 12 13  1  0
 13 14  1  0
 14 15  1  0
 15 16  1  0
 16 17  1  0
 17 18  1  0
 18 19  1  0
 19 20  1  0
 20 21  1  0
 20 22  1  0
 22 23  1  0
 10  5  1  0
 23 16  1  0
  1 24  1  0
  1 25  1  0
  1 26  1  0
  2 27  1  0
  2 28  1  0
  3 29  1  0
  3 30  1  0
  6 31  1  0
  7 32  1  0
  8 33  1  0
  9 34  1  0
 11 35  1  0
 11 36  1  0
 12 37  1  0
 13 38  1  0
 13 39  1  0
 14 40  1  0
 14 41  1  0
 15 42  1  0
 15 43  1  0
 16 44  1  1
 17 45  1  0
 17 46  1  0
 18 47  1  0
 18 48  1  0
 19 49  1  0
 19 50  1  0
 21 51  1  0
 21 52  1  0
 21 53  1  0
 22 54  1  0
 22 55  1  0
 23 56  1  0
 23 57  1  0
M  CHG  1  16   1
M  END
>  <UniqueID>  (21) 
21

>  <SMILES>  (21) 
CCCOc1ccccc1CNCCC[N@@H+]1CCCN(C)CC1

>  <Energy>  (21) 
67.35423316106593

>  <Genealogy>  (21) 
CCCOc1ccccc1CNCCC[NH+]1CCCN(C)CC1 (protonated)
CCCOc1ccccc1CNCCC[N@@H+]1CCCN(C)CC1 (chirality)
CCCOc1ccccc1CNCCC[N@@H+]1CCCN(C)CC1 (3D coordinates assigned)
CCCOc1ccccc1CNCCC[N@@H+]1CCCN(C)CC1 (nonaromatic ring conformer: 67.35423316106593 kcal/mol)

>  <smiles>  (21) 
CCCOc1ccccc1CNCCCN1CCCN(C)CC1

>  <score_type>  (21) 
oracle

>  <origin>  (21) 
adg

>  <m_score__min__energy>  (21) 
-5.4299999999999997

>  <m_primary>  (21) 
energy

$$$$
21:0
     RDKit          3D

 36 37  0  0  0  0  0  0  0  0999 V2000
   -5.7090   24.9340  -29.8320 C   0  0  0  0  0  0  0  0  0  0  0  0
   -6.4110   23.9130  -30.5980 N   0  0  0  0  0  0  0  0  0  0  0  0
   -6.4490   23.7920  -31.9390 C   0  0  0  0  0  0  0  0  0  0  0  0
   -7.2970   22.7510  -32.2550 C   0  0  0  0  0  0  0  0  0  0  0  0
   -7.7850   22.2410  -31.1060 N   0  0  0  0  0  0  0  0  0  0  0  0
   -8.7310   21.1360  -30.9690 C   0  0  0  0  0  0  0  0  0  0  0  0
   -9.0980   20.5290  -32.3330 C   0  0  0  0  0  0  0  0  0  0  0  0
   -9.1150   18.9870  -32.3380 C   0  0  0  0  0  0  0  0  0  0  0  0
   -7.8160   18.3390  -31.8290 C   0  0  0  0  0  0  0  0  0  0  0  0
   -6.7110   18.5330  -32.7720 N   0  0  0  0  0  0  0  0  0  0  0  0
   -5.9250   19.6270  -32.8390 C   0  0  0  0  0  0  0  0  0  0  0  0
   -4.9890   19.4400  -33.8380 C   0  0  0  0  0  0  0  0  0  0  0  0
   -5.2560   18.1860  -34.3520 C   0  0  0  0  0  0  0  0  0  0  0  0
   -6.3090   17.6640  -33.6930 N   0  0  0  0  0  0  0  0  0  0  0  0
   -6.8280   16.3080  -33.8730 C   0  0  0  0  0  0  0  0  0  0  0  0
   -7.2430   22.9720  -30.1120 C   0  0  0  0  0  0  0  0  0  0  0  0
   -5.8413   24.7416  -28.7571 H   0  0  0  0  0  0  0  0  0  0  0  0
   -4.6377   24.9068  -30.0803 H   0  0  0  0  0  0  0  0  0  0  0  0
   -6.1179   25.9245  -30.0803 H   0  0  0  0  0  0  0  0  0  0  0  0
   -5.8985   24.4160  -32.6584 H   0  0  0  0  0  0  0  0  0  0  0  0
   -7.5343   22.3978  -33.2694 H   0  0  0  0  0  0  0  0  0  0  0  0
   -8.2778   20.3545  -30.3414 H   0  0  0  0  0  0  0  0  0  0  0  0
   -9.6506   21.5270  -30.5091 H   0  0  0  0  0  0  0  0  0  0  0  0
  -10.0983   20.8887  -32.6159 H   0  0  0  0  0  0  0  0  0  0  0  0
   -8.3225   20.8454  -33.0461 H   0  0  0  0  0  0  0  0  0  0  0  0
   -9.9428   18.6493  -31.6971 H   0  0  0  0  0  0  0  0  0  0  0  0
   -9.2327   18.6762  -33.3866 H   0  0  0  0  0  0  0  0  0  0  0  0
   -7.5454   18.7921  -30.8639 H   0  0  0  0  0  0  0  0  0  0  0  0
   -7.9901   17.2583  -31.7205 H   0  0  0  0  0  0  0  0  0  0  0  0
   -6.0144   20.5204  -32.2034 H   0  0  0  0  0  0  0  0  0  0  0  0
   -4.2012   20.1389  -34.1555 H   0  0  0  0  0  0  0  0  0  0  0  0
   -4.7009   17.6948  -35.1648 H   0  0  0  0  0  0  0  0  0  0  0  0
   -7.0037   15.8490  -32.8889 H   0  0  0  0  0  0  0  0  0  0  0  0
   -7.7741   16.3488  -34.4327 H   0  0  0  0  0  0  0  0  0  0  0  0
   -6.0965   15.7067  -34.4327 H   0  0  0  0  0  0  0  0  0  0  0  0
   -7.4528   22.8199  -29.0430 H   0  0  0  0  0  0  0  0  0  0  0  0
  1  2  1  0
  2  3  1  0
  3  4  2  0
  4  5  1  0
  5  6  1  0
  6  7  1  0
  7  8  1  0
  8  9  1  0
  9 10  1  0
 10 11  1  0
 11 12  2  0
 12 13  1  0
 13 14  2  0
 14 15  1  0
  5 16  1  0
 16  2  2  0
 14 10  1  0
  1 17  1  0
  1 18  1  0
  1 19  1  0
  3 20  1  0
  4 21  1  0
  6 22  1  0
  6 23  1  0
  7 24  1  0
  7 25  1  0
  8 26  1  0
  8 27  1  0
  9 28  1  0
  9 29  1  0
 11 30  1  0
 12 31  1  0
 13 32  1  0
 15 33  1  0
 15 34  1  0
 15 35  1  0
 16 36  1  0
M  CHG  2   2   1  14   1
M  END
>  <UniqueID>  (22) 
22

>  <SMILES>  (22) 
C[n+]1ccn(CCCCn2ccc[n+]2C)c1

>  <Energy>  (22) 
89.7699888489553

>  <Genealogy>  (22) 
C[n+]1ccn(CCCCn2ccc[n+]2C)c1 (3D coordinates assigned)
C[n+]1ccn(CCCCn2ccc[n+]2C)c1 (optimized conformer: 89.7699888489553 kcal/mol)

>  <smiles>  (22) 
C[n+]1ccn(CCCCn2ccc[n+]2C)c1

>  <score_type>  (22) 
oracle

>  <origin>  (22) 
adg

>  <m_score__min__energy>  (22) 
-4.3700000000000001

>  <m_primary>  (22) 
energy

$$$$
22:0
     RDKit          3D

 45 48  0  0  0  0  0  0  0  0999 V2000
   -6.0230   23.8230  -32.6690 O   0  0  0  0  0  0  0  0  0  0  0  0
   -6.7920   23.4230  -31.7550 C   0  0  0  0  0  0  0  0  0  0  0  0
   -6.8480   24.1960  -30.4730 C   0  0  0  0  0  0  0  0  0  0  0  0
   -5.6080   25.5310  -30.5180 S   0  0  0  0  0  0  0  0  0  0  0  0
   -4.2490   24.4320  -30.1430 C   0  0  0  0  0  0  0  0  0  0  0  0
   -3.5890   24.5490  -28.9630 N   0  0  0  0  0  0  0  0  0  0  0  0
   -2.5470   23.7320  -28.6460 C   0  0  0  0  0  0  0  0  0  0  0  0
   -1.8520   23.9110  -27.3460 C   0  0  0  0  0  0  0  0  0  0  0  0
   -1.1040   22.8680  -26.7620 C   0  0  0  0  0  0  0  0  0  0  0  0
   -0.4660   23.0560  -25.5320 C   0  0  0  0  0  0  0  0  0  0  0  0
   -0.5680   24.2810  -24.8690 C   0  0  0  0  0  0  0  0  0  0  0  0
   -1.3130   25.3190  -25.4310 C   0  0  0  0  0  0  0  0  0  0  0  0
   -1.9550   25.1350  -26.6590 C   0  0  0  0  0  0  0  0  0  0  0  0
   -2.1460   22.7540  -29.5720 C   0  0  0  0  0  0  0  0  0  0  0  0
   -2.8420   22.6410  -30.7810 C   0  0  0  0  0  0  0  0  0  0  0  0
   -2.4360   21.6150  -31.7990 C   0  0  0  0  0  0  0  0  0  0  0  0
   -2.8000   20.3560  -31.3580 F   0  0  0  0  0  0  0  0  0  0  0  0
   -1.0660   21.6420  -31.9950 F   0  0  0  0  0  0  0  0  0  0  0  0
   -3.0650   21.8760  -33.0020 F   0  0  0  0  0  0  0  0  0  0  0  0
   -3.8780   23.4840  -31.0400 N   0  0  0  0  0  0  0  0  0  0  0  0
   -7.6110   22.2530  -31.9500 N   0  0  0  0  0  0  0  0  0  0  0  0
   -9.0540   22.2050  -31.6890 C   0  0  0  0  0  0  0  0  0  0  0  0
   -9.4880   20.7380  -31.9100 C   0  0  0  0  0  0  0  0  0  0  0  0
   -8.2260   20.0640  -32.3160 C   0  0  0  0  0  0  0  0  0  0  0  0
   -8.0550   18.7260  -32.6740 C   0  0  0  0  0  0  0  0  0  0  0  0
   -6.7780   18.2940  -33.0630 C   0  0  0  0  0  0  0  0  0  0  0  0
   -5.7050   19.2030  -33.0980 C   0  0  0  0  0  0  0  0  0  0  0  0
   -5.9020   20.5460  -32.7360 C   0  0  0  0  0  0  0  0  0  0  0  0
   -7.1820   20.9500  -32.3310 C   0  0  0  0  0  0  0  0  0  0  0  0
   -7.8510   24.6305  -30.3497 H   0  0  0  0  0  0  0  0  0  0  0  0
   -6.6347   23.5241  -29.6286 H   0  0  0  0  0  0  0  0  0  0  0  0
   -1.0218   21.8998  -27.2776 H   0  0  0  0  0  0  0  0  0  0  0  0
    0.1175   22.2373  -25.0856 H   0  0  0  0  0  0  0  0  0  0  0  0
   -0.0612   24.4278  -23.9038 H   0  0  0  0  0  0  0  0  0  0  0  0
   -1.3950   26.2827  -24.9071 H   0  0  0  0  0  0  0  0  0  0  0  0
   -2.5465   25.9549  -27.0926 H   0  0  0  0  0  0  0  0  0  0  0  0
   -1.2990   22.0882  -29.3503 H   0  0  0  0  0  0  0  0  0  0  0  0
   -9.2640   22.5122  -30.6538 H   0  0  0  0  0  0  0  0  0  0  0  0
   -9.6028   22.8881  -32.3540 H   0  0  0  0  0  0  0  0  0  0  0  0
   -9.8869   20.3013  -30.9825 H   0  0  0  0  0  0  0  0  0  0  0  0
  -10.2899   20.6346  -32.6559 H   0  0  0  0  0  0  0  0  0  0  0  0
   -8.9028   18.0254  -32.6517 H   0  0  0  0  0  0  0  0  0  0  0  0
   -6.6156   17.2422  -33.3412 H   0  0  0  0  0  0  0  0  0  0  0  0
   -4.7073   18.8607  -33.4102 H   0  0  0  0  0  0  0  0  0  0  0  0
   -5.0701   21.2649  -32.7696 H   0  0  0  0  0  0  0  0  0  0  0  0
  1  2  2  0
  2  3  1  0
  3  4  1  0
  4  5  1  0
  5  6  2  0
  6  7  1  0
  7  8  1  0
  8  9  2  0
  9 10  1  0
 10 11  2  0
 11 12  1  0
 12 13  2  0
  7 14  2  0
 14 15  1  0
 15 16  1  0
 16 17  1  0
 16 18  1  0
 16 19  1  0
 15 20  2  0
  2 21  1  0
 21 22  1  0
 22 23  1  0
 23 24  1  0
 24 25  2  0
 25 26  1  0
 26 27  2  0
 27 28  1  0
 28 29  2  0
 20  5  1  0
 29 21  1  0
 13  8  1  0
 29 24  1  0
  3 30  1  0
  3 31  1  0
  9 32  1  0
 10 33  1  0
 11 34  1  0
 12 35  1  0
 13 36  1  0
 14 37  1  0
 22 38  1  0
 22 39  1  0
 23 40  1  0
 23 41  1  0
 25 42  1  0
 26 43  1  0
 27 44  1  0
 28 45  1  0
M  END
>  <UniqueID>  (23) 
23

>  <SMILES>  (23) 
O=C(CSc1nc(-c2ccccc2)cc(C(F)(F)F)n1)N1CCc2ccccc21

>  <Energy>  (23) 
64.33277791226377

>  <Genealogy>  (23) 
O=C(CSc1nc(-c2ccccc2)cc(C(F)(F)F)n1)N1CCc2ccccc21 (3D coordinates assigned)
O=C(CSc1nc(-c2ccccc2)cc(C(F)(F)F)n1)N1CCc2ccccc21 (nonaromatic ring conformer: 64.33277791226377 kcal/mol)

>  <smiles>  (23) 
O=C(CSc1nc(-c2ccccc2)cc(C(F)(F)F)n1)N1CCc2ccccc21

>  <score_type>  (23) 
oracle

>  <origin>  (23) 
adg

>  <m_score__min__energy>  (23) 
-9.2599999999999998

>  <m_primary>  (23) 
energy

$$$$
23:0
     RDKit          3D

 55 58  0  0  0  0  0  0  0  0999 V2000
   -9.1460   19.6050  -32.6820 C   0  0  0  0  0  0  0  0  0  0  0  0
   -7.7230   19.1190  -32.6220 C   0  0  0  0  0  0  0  0  0  0  0  0
   -7.4160   17.7930  -32.9750 C   0  0  0  0  0  0  0  0  0  0  0  0
   -6.0960   17.3360  -32.9360 C   0  0  0  0  0  0  0  0  0  0  0  0
   -5.0680   18.1960  -32.5440 C   0  0  0  0  0  0  0  0  0  0  0  0
   -5.3590   19.5140  -32.1840 C   0  0  0  0  0  0  0  0  0  0  0  0
   -6.6830   19.9820  -32.2150 C   0  0  0  0  0  0  0  0  0  0  0  0
   -6.9560   21.3390  -31.8360 N   0  0  0  0  0  0  0  0  0  0  0  0
   -7.9620   21.6230  -30.8090 C   0  0  0  0  0  0  0  0  0  0  0  0
   -7.4760   22.7810  -29.9310 C   0  0  0  0  0  0  0  0  0  0  0  0
   -7.2260   24.0140  -30.7270 N   0  0  0  0  0  0  0  0  0  0  0  0
   -6.3700   24.9840  -29.9940 C   0  0  0  0  0  0  0  0  0  0  0  0
   -4.8830   24.7930  -30.2310 C   0  0  0  0  0  0  0  0  0  0  0  0
   -4.2490   25.6720  -30.8780 O   0  0  0  0  0  0  0  0  0  0  0  0
   -4.1410   23.6230  -29.6990 C   0  0  0  0  0  0  0  0  0  0  0  0
   -3.3510   22.8490  -30.5670 C   0  0  0  0  0  0  0  0  0  0  0  0
   -2.6300   21.7520  -30.0850 C   0  0  0  0  0  0  0  0  0  0  0  0
   -2.7040   21.3910  -28.7300 C   0  0  0  0  0  0  0  0  0  0  0  0
   -1.9330   20.2330  -28.2170 C   0  0  0  0  0  0  0  0  0  0  0  0
   -0.6730   19.9180  -28.7550 C   0  0  0  0  0  0  0  0  0  0  0  0
    0.0530   18.8270  -28.2650 C   0  0  0  0  0  0  0  0  0  0  0  0
   -0.4720   18.0390  -27.2390 C   0  0  0  0  0  0  0  0  0  0  0  0
   -1.7220   18.3410  -26.6990 C   0  0  0  0  0  0  0  0  0  0  0  0
   -2.4510   19.4340  -27.1830 C   0  0  0  0  0  0  0  0  0  0  0  0
   -3.5170   22.1450  -27.8660 C   0  0  0  0  0  0  0  0  0  0  0  0
   -4.2270   23.2510  -28.3450 C   0  0  0  0  0  0  0  0  0  0  0  0
   -6.7630   23.7760  -32.1280 C   0  0  0  0  0  0  0  0  0  0  0  0
   -6.0800   22.4120  -32.3140 C   0  0  0  0  0  0  0  0  0  0  0  0
   -9.5318   19.7368  -31.6604 H   0  0  0  0  0  0  0  0  0  0  0  0
   -9.1829   20.5667  -33.2148 H   0  0  0  0  0  0  0  0  0  0  0  0
   -9.7634   18.8668  -33.2148 H   0  0  0  0  0  0  0  0  0  0  0  0
   -8.2211   17.1102  -33.2842 H   0  0  0  0  0  0  0  0  0  0  0  0
   -5.8663   16.2970  -33.2146 H   0  0  0  0  0  0  0  0  0  0  0  0
   -4.0290   17.8356  -32.5187 H   0  0  0  0  0  0  0  0  0  0  0  0
   -4.5472   20.1887  -31.8747 H   0  0  0  0  0  0  0  0  0  0  0  0
   -8.9111   21.9005  -31.2910 H   0  0  0  0  0  0  0  0  0  0  0  0
   -8.1167   20.7288  -30.1873 H   0  0  0  0  0  0  0  0  0  0  0  0
   -8.2418   22.9972  -29.1715 H   0  0  0  0  0  0  0  0  0  0  0  0
   -6.5274   22.4792  -29.4629 H   0  0  0  0  0  0  0  0  0  0  0  0
   -8.1600   24.4850  -30.8110 H   0  0  0  0  0  0  0  0  0  0  0  0
   -6.6443   25.9997  -30.3151 H   0  0  0  0  0  0  0  0  0  0  0  0
   -6.5463   24.8184  -28.9209 H   0  0  0  0  0  0  0  0  0  0  0  0
   -3.2996   23.1086  -31.6347 H   0  0  0  0  0  0  0  0  0  0  0  0
   -2.0004   21.1677  -30.7722 H   0  0  0  0  0  0  0  0  0  0  0  0
   -0.2555   20.5329  -29.5659 H   0  0  0  0  0  0  0  0  0  0  0  0
    1.0398   18.5895  -28.6891 H   0  0  0  0  0  0  0  0  0  0  0  0
    0.0998   17.1806  -26.8568 H   0  0  0  0  0  0  0  0  0  0  0  0
   -2.1359   17.7193  -25.8914 H   0  0  0  0  0  0  0  0  0  0  0  0
   -3.4352   19.6689  -26.7514 H   0  0  0  0  0  0  0  0  0  0  0  0
   -3.5954   21.8633  -26.8056 H   0  0  0  0  0  0  0  0  0  0  0  0
   -4.8574   23.8343  -27.6577 H   0  0  0  0  0  0  0  0  0  0  0  0
   -7.6342   23.8254  -32.7977 H   0  0  0  0  0  0  0  0  0  0  0  0
   -6.0181   24.5505  -32.3631 H   0  0  0  0  0  0  0  0  0  0  0  0
   -5.8636   22.2563  -33.3812 H   0  0  0  0  0  0  0  0  0  0  0  0
   -5.1446   22.3967  -31.7354 H   0  0  0  0  0  0  0  0  0  0  0  0
  1  2  1  0
  2  3  2  0
  3  4  1  0
  4  5  2  0
  5  6  1  0
  6  7  2  0
  7  8  1  0
  8  9  1  0
  9 10  1  0
 10 11  1  0
 11 12  1  0
 12 13  1  0
 13 14  2  0
 13 15  1  0
 15 16  2  0
 16 17  1  0
 17 18  2  0
 18 19  1  0
 19 20  2  0
 20 21  1  0
 21 22  2  0
 22 23  1  0
 23 24  2  0
 18 25  1  0
 25 26  2  0
 11 27  1  0
 27 28  1  0
  7  2  1  0
 28  8  1  0
 26 15  1  0
 24 19  1  0
  1 29  1  0
  1 30  1  0
  1 31  1  0
  3 32  1  0
  4 33  1  0
  5 34  1  0
  6 35  1  0
  9 36  1  0
  9 37  1  0
 10 38  1  0
 10 39  1  0
 11 40  1  0
 12 41  1  0
 12 42  1  0
 16 43  1  0
 17 44  1  0
 20 45  1  0
 21 46  1  0
 22 47  1  0
 23 48  1  0
 24 49  1  0
 25 50  1  0
 26 51  1  0
 27 52  1  0
 27 53  1  0
 28 54  1  0
 28 55  1  0
M  CHG  1  11   1
M  END
>  <UniqueID>  (24) 
24

>  <SMILES>  (24) 
Cc1ccccc1N1CC[NH+](CC(=O)c2ccc(-c3ccccc3)cc2)CC1

>  <Energy>  (24) 
82.48918870696056

>  <Genealogy>  (24) 
Cc1ccccc1N1CC[NH+](CC(=O)c2ccc(-c3ccccc3)cc2)CC1 (protonated)
Cc1ccccc1N1CC[NH+](CC(=O)c2ccc(-c3ccccc3)cc2)CC1 (3D coordinates assigned)
Cc1ccccc1N1CC[NH+](CC(=O)c2ccc(-c3ccccc3)cc2)CC1 (nonaromatic ring conformer: 82.48918870696056 kcal/mol)

>  <smiles>  (24) 
Cc1ccccc1N1CCN(CC(=O)c2ccc(-c3ccccc3)cc2)CC1

>  <score_type>  (24) 
oracle

>  <origin>  (24) 
adg

>  <m_score__min__energy>  (24) 
-9.4199999999999999

>  <m_primary>  (24) 
energy

$$$$
24:0
     RDKit          3D

 32 34  0  0  0  0  0  0  0  0999 V2000
   -4.8810   17.4500  -35.2370 C   0  0  0  0  0  0  0  0  0  0  0  0
   -5.7120   18.0620  -34.1550 C   0  0  0  0  0  0  0  0  0  0  0  0
   -6.8180   17.3780  -33.6370 C   0  0  0  0  0  0  0  0  0  0  0  0
   -7.5880   17.9800  -32.6410 C   0  0  0  0  0  0  0  0  0  0  0  0
   -7.2500   19.2480  -32.1700 C   0  0  0  0  0  0  0  0  0  0  0  0
   -6.1280   19.9070  -32.6990 C   0  0  0  0  0  0  0  0  0  0  0  0
   -5.7610   21.2250  -32.2500 N   0  0  0  0  0  0  0  0  0  0  0  0
   -4.3760   21.6980  -32.3440 C   0  0  0  0  0  0  0  0  0  0  0  0
   -3.9830   22.3750  -31.0340 C   0  0  0  0  0  0  0  0  0  0  0  0
   -5.0180   23.3840  -30.6110 C   0  0  0  0  0  0  0  0  0  0  0  0
   -4.6810   24.4070  -29.7170 C   0  0  0  0  0  0  0  0  0  0  0  0
   -5.6270   25.2860  -29.2980 N   0  0  0  0  0  0  0  0  0  0  0  0
   -6.9130   25.1830  -29.7260 C   0  0  0  0  0  0  0  0  0  0  0  0
   -7.2690   24.1900  -30.5800 N   0  0  0  0  0  0  0  0  0  0  0  0
   -6.3610   23.2810  -31.0260 C   0  0  0  0  0  0  0  0  0  0  0  0
   -6.8140   22.2170  -31.9930 C   0  0  0  0  0  0  0  0  0  0  0  0
   -5.4030   19.3000  -33.6810 N   0  0  0  0  0  0  0  0  0  0  0  0
   -4.0730   16.8549  -34.7865 H   0  0  0  0  0  0  0  0  0  0  0  0
   -5.5120   16.7992  -35.8602 H   0  0  0  0  0  0  0  0  0  0  0  0
   -4.4468   18.2456  -35.8602 H   0  0  0  0  0  0  0  0  0  0  0  0
   -7.0774   16.3766  -34.0111 H   0  0  0  0  0  0  0  0  0  0  0  0
   -8.4614   17.4543  -32.2276 H   0  0  0  0  0  0  0  0  0  0  0  0
   -7.8578   19.7290  -31.3895 H   0  0  0  0  0  0  0  0  0  0  0  0
   -3.7082   20.8441  -32.5309 H   0  0  0  0  0  0  0  0  0  0  0  0
   -4.2883   22.4179  -33.1710 H   0  0  0  0  0  0  0  0  0  0  0  0
   -3.8861   21.6099  -30.2496 H   0  0  0  0  0  0  0  0  0  0  0  0
   -3.0274   22.8984  -31.1852 H   0  0  0  0  0  0  0  0  0  0  0  0
   -3.6470   24.4989  -29.3530 H   0  0  0  0  0  0  0  0  0  0  0  0
   -5.3640   26.0500  -28.6350 H   0  0  0  0  0  0  0  0  0  0  0  0
   -7.6665   25.9057  -29.3796 H   0  0  0  0  0  0  0  0  0  0  0  0
   -7.6908   21.7036  -31.5715 H   0  0  0  0  0  0  0  0  0  0  0  0
   -7.0610   22.7064  -32.9467 H   0  0  0  0  0  0  0  0  0  0  0  0
  1  2  1  0
  2  3  2  0
  3  4  1  0
  4  5  2  0
  5  6  1  0
  6  7  1  0
  7  8  1  0
  8  9  1  0
  9 10  1  0
 10 11  2  0
 11 12  1  0
 12 13  2  0
 13 14  1  0
 14 15  2  0
 15 16  1  0
  6 17  2  0
 17  2  1  0
 16  7  1  0
 15 10  1  0
  1 18  1  0
  1 19  1  0
  1 20  1  0
  3 21  1  0
  4 22  1  0
  5 23  1  0
  8 24  1  0
  8 25  1  0
  9 26  1  0
  9 27  1  0
 11 28  1  0
 12 29  1  0
 13 30  1  0
 16 31  1  0
 16 32  1  0
M  CHG  1  12   1
M  END
>  <UniqueID>  (25) 
25

>  <SMILES>  (25) 
Cc1cccc(N2CCc3c[nH+]cnc3C2)n1

>  <Energy>  (25) 
37.931905154518454

>  <Genealogy>  (25) 
Cc1cccc(N2CCc3c[nH+]cnc3C2)n1 (protonated)
Cc1cccc(N2CCc3c[nH+]cnc3C2)n1 (3D coordinates assigned)
Cc1cccc(N2CCc3c[nH+]cnc3C2)n1 (nonaromatic ring conformer: 37.931905154518454 kcal/mol)

>  <smiles>  (25) 
Cc1cccc(N2CCc3cncnc3C2)n1

>  <score_type>  (25) 
oracle

>  <origin>  (25) 
adg

>  <m_score__min__energy>  (25) 
-6.2300000000000004

>  <m_primary>  (25) 
energy

$$$$
25:0
     RDKit          3D

 46 48  0  0  0  0  0  0  0  0999 V2000
   -3.2498   18.5414  -34.2304 H   0  0  0  0  0  0  0  0  0  0  0  0
   -3.6650   19.4270  -33.7270 C   0  0  0  0  0  0  0  0  0  0  0  0
   -4.9660   19.6870  -33.5690 C   0  0  0  0  0  0  0  0  0  0  0  0
   -6.0900   18.7880  -34.0380 C   0  0  0  0  0  0  0  0  0  0  0  0
   -6.8949   19.4231  -34.4364 H   0  0  0  0  0  0  0  0  0  0  0  0
   -5.6591   18.1160  -34.7948 H   0  0  0  0  0  0  0  0  0  0  0  0
   -6.6680   17.9150  -32.9730 N   0  0  0  0  0  0  0  0  0  0  0  0
   -5.8080   17.9040  -31.7660 C   0  0  0  0  0  0  0  0  0  0  0  0
   -6.4398   17.9121  -30.8656 H   0  0  0  0  0  0  0  0  0  0  0  0
   -5.1845   16.9978  -31.7683 H   0  0  0  0  0  0  0  0  0  0  0  0
   -5.1615   18.7939  -31.7683 H   0  0  0  0  0  0  0  0  0  0  0  0
   -7.9960   18.4620  -32.5970 C   0  0  0  0  0  0  0  0  0  0  0  0
   -8.0811   18.4971  -31.5009 H   0  0  0  0  0  0  0  0  0  0  0  0
   -8.1033   19.4776  -33.0058 H   0  0  0  0  0  0  0  0  0  0  0  0
   -8.7875   17.8167  -33.0058 H   0  0  0  0  0  0  0  0  0  0  0  0
   -6.8560   16.5270  -33.4580 C   0  0  0  0  0  0  0  0  0  0  0  0
   -6.9481   15.8474  -32.5980 H   0  0  0  0  0  0  0  0  0  0  0  0
   -7.7698   16.4723  -34.0680 H   0  0  0  0  0  0  0  0  0  0  0  0
   -5.9897   16.2312  -34.0680 H   0  0  0  0  0  0  0  0  0  0  0  0
   -5.1060   20.9630  -32.8640 C   0  0  0  0  0  0  0  0  0  0  0  0
   -6.2560   21.6650  -32.4960 C   0  0  0  0  0  0  0  0  0  0  0  0
   -7.2558   21.2718  -32.7323 H   0  0  0  0  0  0  0  0  0  0  0  0
   -6.1050   22.8850  -31.8170 C   0  0  0  0  0  0  0  0  0  0  0  0
   -6.9967   23.4525  -31.5123 H   0  0  0  0  0  0  0  0  0  0  0  0
   -4.8140   23.3930  -31.5200 C   0  0  0  0  0  0  0  0  0  0  0  0
   -4.6230   24.6080  -30.8460 O   0  0  0  0  0  0  0  0  0  0  0  0
   -5.6400   25.2930  -30.1230 C   0  0  0  0  0  0  0  0  0  0  0  0
   -5.4651   25.1752  -29.0434 H   0  0  0  0  0  0  0  0  0  0  0  0
   -5.6187   26.3615  -30.3834 H   0  0  0  0  0  0  0  0  0  0  0  0
   -6.6222   24.8717  -30.3834 H   0  0  0  0  0  0  0  0  0  0  0  0
   -3.6750   22.6650  -31.9130 C   0  0  0  0  0  0  0  0  0  0  0  0
   -2.6652   23.0437  -31.6964 H   0  0  0  0  0  0  0  0  0  0  0  0
   -3.8520   21.4530  -32.5830 C   0  0  0  0  0  0  0  0  0  0  0  0
   -2.8730   20.5130  -33.1210 C   0  0  0  0  0  0  0  0  0  0  0  0
   -1.5400   20.6000  -33.0060 C   0  0  0  0  0  0  0  0  0  0  0  0
   -1.1090   20.5925  -31.9940 H   0  0  0  0  0  0  0  0  0  0  0  0
   -0.6150   20.7050  -34.1490 C   0  0  0  0  0  0  0  0  0  0  0  0
   -0.1950   21.9410  -34.5410 N   0  0  0  0  0  0  0  0  0  0  0  0
    0.6260   22.1170  -35.6090 C   0  0  0  0  0  0  0  0  0  0  0  0
    0.9542   23.1291  -35.8881 H   0  0  0  0  0  0  0  0  0  0  0  0
    1.0540   21.0160  -36.3530 C   0  0  0  0  0  0  0  0  0  0  0  0
    1.7272   21.1522  -37.2122 H   0  0  0  0  0  0  0  0  0  0  0  0
    0.6170   19.7400  -35.9930 C   0  0  0  0  0  0  0  0  0  0  0  0
    0.9390   18.8631  -36.5738 H   0  0  0  0  0  0  0  0  0  0  0  0
   -0.2290   19.5790  -34.8950 C   0  0  0  0  0  0  0  0  0  0  0  0
   -0.5907   18.5784  -34.6159 H   0  0  0  0  0  0  0  0  0  0  0  0
  1  2  1  0
  2  3  2  0
  3  4  1  0
  4  5  1  0
  4  6  1  0
  4  7  1  0
  7  8  1  0
  8  9  1  0
  8 10  1  0
  8 11  1  0
  7 12  1  0
 12 13  1  0
 12 14  1  0
 12 15  1  0
  7 16  1  0
 16 17  1  0
 16 18  1  0
 16 19  1  0
  3 20  1  0
 20 21  2  0
 21 22  1  0
 21 23  1  0
 23 24  1  0
 23 25  2  0
 25 26  1  0
 26 27  1  0
 27 28  1  0
 27 29  1  0
 27 30  1  0
 25 31  1  0
 31 32  1  0
 31 33  2  0
 33 34  1  0
 34 35  2  0
 35 36  1  0
 35 37  1  0
 37 38  2  0
 38 39  1  0
 39 40  1  0
 39 41  2  0
 41 42  1  0
 41 43  1  0
 43 44  1  0
 43 45  2  0
 45 46  1  0
 34  2  1  0
 45 37  1  0
 33 20  1  0
M  CHG  1   7   1
M  END
>  <UniqueID>  (26) 
26

>  <SMILES>  (26) 
COc1ccc2c(c1)/C(=C/c1ccccn1)C=C2C[N+](C)(C)C

>  <Energy>  (26) 
83.83217263873684

>  <Genealogy>  (26) 
COc1ccc2c(c1)/C(=C/c1ccccn1)C=C2C[N+](C)(C)C (cis-trans isomerization)
COc1ccc2c(c1)/C(=C/c1ccccn1)C=C2C[N+](C)(C)C (3D coordinates assigned)
COc1ccc2c(c1)/C(=C/c1ccccn1)C=C2C[N+](C)(C)C (nonaromatic ring conformer: 83.83217263873684 kcal/mol)

>  <smiles>  (26) 
COc1ccc2c(c1)C(=Cc1ccccn1)C=C2C[N+](C)(C)C

>  <score_type>  (26) 
oracle

>  <origin>  (26) 
adg

>  <m_score__min__energy>  (26) 
-7.3600000000000003

>  <m_primary>  (26) 
energy

$$$$
26:0
     RDKit          3D

 61 64  0  0  0  0  0  0  0  0999 V2000
   -2.1660   24.5180  -28.6680 C   0  0  0  0  0  0  0  0  0  0  0  0
   -2.9820   23.2200  -28.4950 C   0  0  2  0  0  0  0  0  0  0  0  0
   -2.1120   22.0990  -27.8910 C   0  0  0  0  0  0  0  0  0  0  0  0
   -1.4250   21.2920  -28.9170 N   0  0  0  0  0  0  0  0  0  0  0  0
   -0.6900   20.1320  -28.4890 C   0  0  0  0  0  0  0  0  0  0  0  0
    0.6080   19.9010  -28.9660 C   0  0  0  0  0  0  0  0  0  0  0  0
    1.3290   18.7780  -28.5480 C   0  0  0  0  0  0  0  0  0  0  0  0
    0.7590   17.8550  -27.6530 C   0  0  0  0  0  0  0  0  0  0  0  0
    1.5020   16.7020  -27.2100 N   0  0  0  0  0  0  0  0  0  0  0  0
    1.0050   15.3350  -27.2440 C   0  0  0  0  0  0  0  0  0  0  0  0
    2.0270   14.4910  -26.4600 C   0  0  0  0  0  0  0  0  0  0  0  0
    3.2830   15.3550  -26.2850 C   0  0  0  0  0  0  0  0  0  0  0  0
    2.8350   16.6920  -26.7220 C   0  0  0  0  0  0  0  0  0  0  0  0
    3.5870   17.7030  -26.7320 O   0  0  0  0  0  0  0  0  0  0  0  0
   -0.5360   18.1000  -27.1640 C   0  0  0  0  0  0  0  0  0  0  0  0
   -1.2540   19.2270  -27.5770 C   0  0  0  0  0  0  0  0  0  0  0  0
   -1.2710   21.7630  -30.3040 C   0  0  0  0  0  0  0  0  0  0  0  0
   -2.5540   22.4130  -30.8730 C   0  0  0  0  0  0  0  0  0  0  0  0
   -3.6270   22.6940  -29.8030 C   0  0  2  0  0  0  0  0  0  0  0  0
   -4.7460   23.5600  -30.3440 C   0  0  0  0  0  0  0  0  0  0  0  0
   -4.4990   24.6900  -30.8450 O   0  0  0  0  0  0  0  0  0  0  0  0
   -6.1060   23.1180  -30.2280 N   0  0  0  0  0  0  0  0  0  0  0  0
   -7.2190   23.9420  -30.7030 C   0  0  0  0  0  0  0  0  0  0  0  0
   -7.8080   23.4020  -32.0140 C   0  0  0  0  0  0  0  0  0  0  0  0
   -7.8470   21.8930  -32.0320 C   0  0  0  0  0  0  0  0  0  0  0  0
   -9.0300   21.2140  -31.6990 C   0  0  0  0  0  0  0  0  0  0  0  0
   -9.0800   19.8170  -31.7410 C   0  0  0  0  0  0  0  0  0  0  0  0
   -7.9520   19.0880  -32.1170 C   0  0  0  0  0  0  0  0  0  0  0  0
   -6.7680   19.7520  -32.4490 C   0  0  0  0  0  0  0  0  0  0  0  0
   -6.7120   21.1490  -32.4100 C   0  0  0  0  0  0  0  0  0  0  0  0
   -5.5530   21.7770  -32.7370 F   0  0  0  0  0  0  0  0  0  0  0  0
   -1.9102   24.9249  -27.6786 H   0  0  0  0  0  0  0  0  0  0  0  0
   -1.2427   24.2992  -29.2244 H   0  0  0  0  0  0  0  0  0  0  0  0
   -2.7634   25.2553  -29.2244 H   0  0  0  0  0  0  0  0  0  0  0  0
   -3.8008   23.4920  -27.8127 H   0  0  0  0  0  0  0  0  0  0  0  0
   -1.3540   22.5559  -27.2378 H   0  0  0  0  0  0  0  0  0  0  0  0
   -2.7798   21.4261  -27.3332 H   0  0  0  0  0  0  0  0  0  0  0  0
    1.0629   20.6087  -29.6747 H   0  0  0  0  0  0  0  0  0  0  0  0
    2.3505   18.6153  -28.9224 H   0  0  0  0  0  0  0  0  0  0  0  0
    0.0153   15.2764  -26.7674 H   0  0  0  0  0  0  0  0  0  0  0  0
    0.8921   14.9734  -28.2767 H   0  0  0  0  0  0  0  0  0  0  0  0
    1.6164   14.2180  -25.4767 H   0  0  0  0  0  0  0  0  0  0  0  0
    2.2625   13.5607  -26.9977 H   0  0  0  0  0  0  0  0  0  0  0  0
    3.6074   15.3715  -25.2340 H   0  0  0  0  0  0  0  0  0  0  0  0
    4.1468   14.9815  -26.8545 H   0  0  0  0  0  0  0  0  0  0  0  0
   -0.9895   17.3979  -26.4489 H   0  0  0  0  0  0  0  0  0  0  0  0
   -2.2662   19.4048  -27.1848 H   0  0  0  0  0  0  0  0  0  0  0  0
   -0.4604   22.5060  -30.3329 H   0  0  0  0  0  0  0  0  0  0  0  0
   -1.0475   20.8830  -30.9250 H   0  0  0  0  0  0  0  0  0  0  0  0
   -2.2797   23.3656  -31.3497 H   0  0  0  0  0  0  0  0  0  0  0  0
   -2.9889   21.6989  -31.5878 H   0  0  0  0  0  0  0  0  0  0  0  0
   -4.1135   21.7452  -29.5325 H   0  0  0  0  0  0  0  0  0  0  0  0
   -6.2960   22.1970  -29.7750 H   0  0  0  0  0  0  0  0  0  0  0  0
   -8.0073   23.9523  -29.9359 H   0  0  0  0  0  0  0  0  0  0  0  0
   -6.8379   24.9565  -30.8912 H   0  0  0  0  0  0  0  0  0  0  0  0
   -8.8324   23.7860  -32.1288 H   0  0  0  0  0  0  0  0  0  0  0  0
   -7.1649   23.7371  -32.8411 H   0  0  0  0  0  0  0  0  0  0  0  0
   -9.9229   21.7843  -31.4033 H   0  0  0  0  0  0  0  0  0  0  0  0
  -10.0102   19.2925  -31.4771 H   0  0  0  0  0  0  0  0  0  0  0  0
   -7.9943   17.9894  -32.1523 H   0  0  0  0  0  0  0  0  0  0  0  0
   -5.8784   19.1749  -32.7415 H   0  0  0  0  0  0  0  0  0  0  0  0
  1  2  1  0
  2  3  1  0
  3  4  1  0
  4  5  1  0
  5  6  2  0
  6  7  1  0
  7  8  2  0
  8  9  1  0
  9 10  1  0
 10 11  1  0
 11 12  1  0
 12 13  1  0
 13 14  2  0
  8 15  1  0
 15 16  2  0
  4 17  1  0
 17 18  1  0
 18 19  1  0
 19 20  1  0
 20 21  2  0
 20 22  1  0
 22 23  1  0
 23 24  1  0
 24 25  1  0
 25 26  2  0
 26 27  1  0
 27 28  2  0
 28 29  1  0
 29 30  2  0
 30 31  1  0
 19  2  1  0
 30 25  1  0
 16  5  1  0
 13  9  1  0
  1 32  1  0
  1 33  1  0
  1 34  1  0
  2 35  1  1
  3 36  1  0
  3 37  1  0
  6 38  1  0
  7 39  1  0
 10 40  1  0
 10 41  1  0
 11 42  1  0
 11 43  1  0
 12 44  1  0
 12 45  1  0
 15 46  1  0
 16 47  1  0
 17 48  1  0
 17 49  1  0
 18 50  1  0
 18 51  1  0
 19 52  1  1
 22 53  1  0
 23 54  1  0
 23 55  1  0
 24 56  1  0
 24 57  1  0
 26 58  1  0
 27 59  1  0
 28 60  1  0
 29 61  1  0
M  END
>  <UniqueID>  (27) 
27

>  <SMILES>  (27) 
C[C@@H]1CN(c2ccc(N3CCCC3=O)cc2)CC[C@@H]1C(=O)NCCc1ccccc1F

>  <Energy>  (27) 
79.5373188409223

>  <Genealogy>  (27) 
C[C@@H]1CN(c2ccc(N3CCCC3=O)cc2)CC[C@@H]1C(=O)NCCc1ccccc1F (chirality)
C[C@@H]1CN(c2ccc(N3CCCC3=O)cc2)CC[C@@H]1C(=O)NCCc1ccccc1F (3D coordinates assigned)
C[C@@H]1CN(c2ccc(N3CCCC3=O)cc2)CC[C@@H]1C(=O)NCCc1ccccc1F (nonaromatic ring conformer: 79.5373188409223 kcal/mol)

>  <smiles>  (27) 
CC1CN(c2ccc(N3CCCC3=O)cc2)CCC1C(=O)NCCc1ccccc1F

>  <score_type>  (27) 
oracle

>  <origin>  (27) 
adg

>  <m_score__min__energy>  (27) 
-9.3399999999999999

>  <m_primary>  (27) 
energy

$$$$
27:0
     RDKit          3D

 30 31  0  0  0  0  0  0  0  0999 V2000
   -3.5590   25.6700  -31.5850 H   0  0  0  0  0  0  0  0  0  0  0  0
   -3.9140   25.3670  -30.7090 O   0  0  0  0  0  0  0  0  0  0  0  0
   -5.2500   25.0130  -30.9300 C   0  0  0  0  0  0  0  0  0  0  0  0
   -5.8782   25.4359  -30.1322 H   0  0  0  0  0  0  0  0  0  0  0  0
   -5.5779   25.4079  -31.9029 H   0  0  0  0  0  0  0  0  0  0  0  0
   -5.3790   23.5060  -30.9280 C   0  0  0  0  0  0  0  0  0  0  0  0
   -6.4440   22.8680  -30.3980 C   0  0  0  0  0  0  0  0  0  0  0  0
   -6.6562   23.0333  -29.3314 H   0  0  0  0  0  0  0  0  0  0  0  0
   -7.3460   21.9650  -31.1410 C   0  0  0  0  0  0  0  0  0  0  0  0
   -8.6950   22.2950  -31.3590 C   0  0  0  0  0  0  0  0  0  0  0  0
   -9.0895   23.2560  -30.9973 H   0  0  0  0  0  0  0  0  0  0  0  0
   -9.5370   21.4060  -32.0340 C   0  0  0  0  0  0  0  0  0  0  0  0
  -10.5878   21.6757  -32.2157 H   0  0  0  0  0  0  0  0  0  0  0  0
   -9.0460   20.1760  -32.4780 C   0  0  0  0  0  0  0  0  0  0  0  0
   -9.7078   19.4808  -33.0154 H   0  0  0  0  0  0  0  0  0  0  0  0
   -7.7130   19.8290  -32.2390 C   0  0  0  0  0  0  0  0  0  0  0  0
   -7.3286   18.8571  -32.5820 H   0  0  0  0  0  0  0  0  0  0  0  0
   -6.8680   20.7150  -31.5650 C   0  0  0  0  0  0  0  0  0  0  0  0
   -5.8239   20.4317  -31.3659 H   0  0  0  0  0  0  0  0  0  0  0  0
   -4.2720   22.6970  -31.4980 C   0  0  0  0  0  0  0  0  0  0  0  0
   -4.3420   22.2340  -32.8240 C   0  0  0  0  0  0  0  0  0  0  0  0
   -5.2203   22.4743  -33.4412 H   0  0  0  0  0  0  0  0  0  0  0  0
   -3.3020   21.4700  -33.3630 C   0  0  0  0  0  0  0  0  0  0  0  0
   -3.3653   21.1098  -34.4004 H   0  0  0  0  0  0  0  0  0  0  0  0
   -2.1830   21.1640  -32.5850 C   0  0  0  0  0  0  0  0  0  0  0  0
   -1.3662   20.5618  -33.0094 H   0  0  0  0  0  0  0  0  0  0  0  0
   -2.1010   21.6230  -31.2670 C   0  0  0  0  0  0  0  0  0  0  0  0
   -1.2184   21.3828  -30.6559 H   0  0  0  0  0  0  0  0  0  0  0  0
   -3.1390   22.3870  -30.7240 C   0  0  0  0  0  0  0  0  0  0  0  0
   -3.0691   22.7471  -29.6870 H   0  0  0  0  0  0  0  0  0  0  0  0
  1  2  1  0
  2  3  1  0
  3  4  1  0
  3  5  1  0
  3  6  1  0
  6  7  2  0
  7  8  1  0
  7  9  1  0
  9 10  2  0
 10 11  1  0
 10 12  1  0
 12 13  1  0
 12 14  2  0
 14 15  1  0
 14 16  1  0
 16 17  1  0
 16 18  2  0
 18 19  1  0
  6 20  1  0
 20 21  2  0
 21 22  1  0
 21 23  1  0
 23 24  1  0
 23 25  2  0
 25 26  1  0
 25 27  1  0
 27 28  1  0
 27 29  2  0
 29 30  1  0
 18  9  1  0
 29 20  1  0
M  END
>  <UniqueID>  (28) 
28

>  <SMILES>  (28) 
OC/C(=C\c1ccccc1)c1ccccc1

>  <Energy>  (28) 
42.351909017235364

>  <Genealogy>  (28) 
OC/C(=C\c1ccccc1)c1ccccc1 (cis-trans isomerization)
OC/C(=C\c1ccccc1)c1ccccc1 (3D coordinates assigned)
OC/C(=C\c1ccccc1)c1ccccc1 (optimized conformer: 42.351909017235364 kcal/mol)

>  <smiles>  (28) 
OCC(=Cc1ccccc1)c1ccccc1

>  <score_type>  (28) 
oracle

>  <origin>  (28) 
adg

>  <m_score__min__energy>  (28) 
-7.7699999999999996

>  <m_primary>  (28) 
energy

$$$$
28:0
     RDKit          3D

 41 43  0  0  0  0  0  0  0  0999 V2000
   -5.3140   25.6830  -30.4800 C   0  0  0  0  0  0  0  0  0  0  0  0
   -3.9930   25.1510  -30.4810 O   0  0  0  0  0  0  0  0  0  0  0  0
   -3.6850   23.7980  -30.2740 C   0  0  0  0  0  0  0  0  0  0  0  0
   -3.5270   23.2490  -28.9860 C   0  0  0  0  0  0  0  0  0  0  0  0
   -3.2230   21.8940  -28.8330 C   0  0  0  0  0  0  0  0  0  0  0  0
   -3.0710   21.0760  -29.9540 C   0  0  0  0  0  0  0  0  0  0  0  0
   -3.2200   21.6100  -31.2440 C   0  0  0  0  0  0  0  0  0  0  0  0
   -3.0830   20.7250  -32.4600 C   0  0  0  0  0  0  0  0  0  0  0  0
   -3.9260   19.5210  -32.3620 N   0  0  0  0  0  0  0  0  0  0  0  0
   -4.9650   19.4870  -33.4060 C   0  0  0  0  0  0  0  0  0  0  0  0
   -6.3480   19.4860  -32.7840 C   0  0  0  0  0  0  0  0  0  0  0  0
   -6.9630   18.2430  -32.5500 C   0  0  0  0  0  0  0  0  0  0  0  0
   -8.2300   18.1690  -31.9720 C   0  0  0  0  0  0  0  0  0  0  0  0
   -8.9040   19.3300  -31.6040 C   0  0  0  0  0  0  0  0  0  0  0  0
   -8.3120   20.5840  -31.8020 C   0  0  0  0  0  0  0  0  0  0  0  0
   -8.9940   21.7480  -31.4130 C   0  0  0  0  0  0  0  0  0  0  0  0
   -8.4090   23.0000  -31.5940 C   0  0  0  0  0  0  0  0  0  0  0  0
   -7.1390   23.1050  -32.1590 C   0  0  0  0  0  0  0  0  0  0  0  0
   -6.4460   21.9580  -32.5540 C   0  0  0  0  0  0  0  0  0  0  0  0
   -7.0180   20.6770  -32.3890 C   0  0  0  0  0  0  0  0  0  0  0  0
   -3.5300   22.9710  -31.3940 C   0  0  0  0  0  0  0  0  0  0  0  0
   -5.6534   25.8197  -29.4427 H   0  0  0  0  0  0  0  0  0  0  0  0
   -5.3189   26.6532  -30.9983 H   0  0  0  0  0  0  0  0  0  0  0  0
   -5.9900   24.9870  -30.9983 H   0  0  0  0  0  0  0  0  0  0  0  0
   -3.6433   23.8888  -28.0988 H   0  0  0  0  0  0  0  0  0  0  0  0
   -3.1029   21.4700  -27.8251 H   0  0  0  0  0  0  0  0  0  0  0  0
   -2.8337   20.0095  -29.8262 H   0  0  0  0  0  0  0  0  0  0  0  0
   -3.3818   21.2966  -33.3511 H   0  0  0  0  0  0  0  0  0  0  0  0
   -2.0339   20.4014  -32.5292 H   0  0  0  0  0  0  0  0  0  0  0  0
   -3.3300   18.6630  -32.4300 H   0  0  0  0  0  0  0  0  0  0  0  0
   -4.3820   19.5250  -31.4200 H   0  0  0  0  0  0  0  0  0  0  0  0
   -4.8591   20.3724  -34.0501 H   0  0  0  0  0  0  0  0  0  0  0  0
   -4.8422   18.5682  -33.9982 H   0  0  0  0  0  0  0  0  0  0  0  0
   -6.4377   17.3169  -32.8265 H   0  0  0  0  0  0  0  0  0  0  0  0
   -8.6992   17.1880  -31.8060 H   0  0  0  0  0  0  0  0  0  0  0  0
   -9.9062   19.2624  -31.1556 H   0  0  0  0  0  0  0  0  0  0  0  0
   -9.9949   21.6714  -30.9632 H   0  0  0  0  0  0  0  0  0  0  0  0
   -8.9509   23.9077  -31.2902 H   0  0  0  0  0  0  0  0  0  0  0  0
   -6.6803   24.0956  -32.2945 H   0  0  0  0  0  0  0  0  0  0  0  0
   -5.4442   22.0535  -32.9982 H   0  0  0  0  0  0  0  0  0  0  0  0
   -3.6526   23.3928  -32.4025 H   0  0  0  0  0  0  0  0  0  0  0  0
  1  2  1  0
  2  3  1  0
  3  4  2  0
  4  5  1  0
  5  6  2  0
  6  7  1  0
  7  8  1  0
  8  9  1  0
  9 10  1  0
 10 11  1  0
 11 12  2  0
 12 13  1  0
 13 14  2  0
 14 15  1  0
 15 16  2  0
 16 17  1  0
 17 18  2  0
 18 19  1  0
 19 20  2  0
  7 21  2  0
 21  3  1  0
 20 11  1  0
 20 15  1  0
  1 22  1  0
  1 23  1  0
  1 24  1  0
  4 25  1  0
  5 26  1  0
  6 27  1  0
  8 28  1  0
  8 29  1  0
  9 30  1  0
  9 31  1  0
 10 32  1  0
 10 33  1  0
 12 34  1  0
 13 35  1  0
 14 36  1  0
 16 37  1  0
 17 38  1  0
 18 39  1  0
 19 40  1  0
 21 41  1  0
M  CHG  1   9   1
M  END
>  <UniqueID>  (29) 
29

>  <SMILES>  (29) 
COc1cccc(C[NH2+]Cc2cccc3ccccc23)c1

>  <Energy>  (29) 
47.63346143583788

>  <Genealogy>  (29) 
COc1cccc(C[NH2+]Cc2cccc3ccccc23)c1 (protonated)
COc1cccc(C[NH2+]Cc2cccc3ccccc23)c1 (3D coordinates assigned)
COc1cccc(C[NH2+]Cc2cccc3ccccc23)c1 (optimized conformer: 47.63346143583788 kcal/mol)

>  <smiles>  (29) 
COc1cccc(CNCc2cccc3ccccc23)c1

>  <score_type>  (29) 
oracle

>  <origin>  (29) 
adg

>  <m_score__min__energy>  (29) 
-8.2599999999999998

>  <m_primary>  (29) 
energy

$$$$
29:0
     RDKit          3D

 54 58  0  0  0  0  0  0  0  0999 V2000
   -4.4000   21.6410  -33.3410 O   0  0  0  0  0  0  0  0  0  0  0  0
   -3.6350   21.1770  -32.4560 C   0  0  0  0  0  0  0  0  0  0  0  0
   -3.0450   22.0880  -31.4520 C   0  0  0  0  0  0  0  0  0  0  0  0
   -1.7740   21.7820  -30.9030 C   0  0  0  0  0  0  0  0  0  0  0  0
   -1.2010   22.6450  -29.9420 C   0  0  0  0  0  0  0  0  0  0  0  0
   -1.8720   23.8100  -29.5390 C   0  0  0  0  0  0  0  0  0  0  0  0
   -1.1040   24.9730  -28.2330 Br  0  0  0  0  0  0  0  0  0  0  0  0
   -3.1140   24.0880  -30.1040 C   0  0  0  0  0  0  0  0  0  0  0  0
   -3.6840   23.2680  -31.0370 C   0  0  0  0  0  0  0  0  0  0  0  0
   -5.0130   23.8160  -31.4310 C   0  0  0  0  0  0  0  0  0  0  0  0
   -5.1310   25.0940  -30.5660 C   0  0  0  0  0  0  0  0  0  0  0  0
   -3.9230   25.1650  -29.8130 O   0  0  0  0  0  0  0  0  0  0  0  0
   -1.0420   20.5120  -31.2800 C   0  0  0  0  0  0  0  0  0  0  0  0
   -1.6060   19.8370  -32.5460 C   0  0  0  0  0  0  0  0  0  0  0  0
   -3.1550   19.7300  -32.4660 C   0  0  2  0  0  0  0  0  0  0  0  0
   -3.7420   18.8640  -33.5480 N   0  0  0  0  0  0  0  0  0  0  0  0
   -5.0780   19.3580  -34.0160 C   0  0  0  0  0  0  0  0  0  0  0  0
   -6.0320   18.2360  -34.4650 C   0  0  0  0  0  0  0  0  0  0  0  0
   -6.2900   17.2660  -33.3800 N   0  0  0  0  0  0  0  0  0  0  0  0
   -7.6030   17.4160  -32.7100 C   0  0  0  0  0  0  0  0  0  0  0  0
   -7.9510   18.8450  -32.3380 C   0  0  0  0  0  0  0  0  0  0  0  0
   -9.1870   19.4010  -32.7140 C   0  0  0  0  0  0  0  0  0  0  0  0
   -9.5170   20.7080  -32.3450 C   0  0  0  0  0  0  0  0  0  0  0  0
   -8.6100   21.4810  -31.6170 C   0  0  0  0  0  0  0  0  0  0  0  0
   -7.3640   20.9530  -31.2710 C   0  0  0  0  0  0  0  0  0  0  0  0
   -7.0300   19.6460  -31.6370 C   0  0  0  0  0  0  0  0  0  0  0  0
   -5.1590   17.0960  -32.4450 C   0  0  0  0  0  0  0  0  0  0  0  0
   -3.8200   17.4310  -33.1220 C   0  0  0  0  0  0  0  0  0  0  0  0
   -0.2208   22.4017  -29.5061 H   0  0  0  0  0  0  0  0  0  0  0  0
   -5.0381   24.0603  -32.5032 H   0  0  0  0  0  0  0  0  0  0  0  0
   -5.8391   23.1070  -31.2730 H   0  0  0  0  0  0  0  0  0  0  0  0
   -5.2360   25.9820  -31.2066 H   0  0  0  0  0  0  0  0  0  0  0  0
   -6.0148   25.0605  -29.9120 H   0  0  0  0  0  0  0  0  0  0  0  0
    0.0155   20.7577  -31.4568 H   0  0  0  0  0  0  0  0  0  0  0  0
   -1.1690   19.8033  -30.4484 H   0  0  0  0  0  0  0  0  0  0  0  0
   -1.3301   20.4344  -33.4275 H   0  0  0  0  0  0  0  0  0  0  0  0
   -1.1844   18.8241  -32.6252 H   0  0  0  0  0  0  0  0  0  0  0  0
   -3.4999   19.2063  -31.5622 H   0  0  0  0  0  0  0  0  0  0  0  0
   -3.0900   18.9050  -34.3690 H   0  0  0  0  0  0  0  0  0  0  0  0
   -5.5533   19.9078  -33.1903 H   0  0  0  0  0  0  0  0  0  0  0  0
   -4.8950   19.9941  -34.8946 H   0  0  0  0  0  0  0  0  0  0  0  0
   -6.9871   18.6843  -34.7760 H   0  0  0  0  0  0  0  0  0  0  0  0
   -5.5572   17.6975  -35.2984 H   0  0  0  0  0  0  0  0  0  0  0  0
   -8.3817   17.0365  -33.3879 H   0  0  0  0  0  0  0  0  0  0  0  0
   -7.5445   16.8494  -31.7690 H   0  0  0  0  0  0  0  0  0  0  0  0
   -9.8986   18.8032  -33.3024 H   0  0  0  0  0  0  0  0  0  0  0  0
  -10.4931   21.1286  -32.6286 H   0  0  0  0  0  0  0  0  0  0  0  0
   -8.8766   22.5050  -31.3163 H   0  0  0  0  0  0  0  0  0  0  0  0
   -6.6443   21.5668  -30.7095 H   0  0  0  0  0  0  0  0  0  0  0  0
   -6.0413   19.2409  -31.3756 H   0  0  0  0  0  0  0  0  0  0  0  0
   -5.3024   17.7650  -31.5837 H   0  0  0  0  0  0  0  0  0  0  0  0
   -5.1311   16.0452  -32.1209 H   0  0  0  0  0  0  0  0  0  0  0  0
   -3.0043   17.2279  -32.4125 H   0  0  0  0  0  0  0  0  0  0  0  0
   -3.7330   16.8066  -34.0234 H   0  0  0  0  0  0  0  0  0  0  0  0
  1  2  2  0
  2  3  1  0
  3  4  2  0
  4  5  1  0
  5  6  2  0
  6  7  1  0
  6  8  1  0
  8  9  2  0
  9 10  1  0
 10 11  1  0
 11 12  1  0
  4 13  1  0
 13 14  1  0
 14 15  1  0
 15 16  1  0
 16 17  1  0
 17 18  1  0
 18 19  1  0
 19 20  1  0
 20 21  1  0
 21 22  2  0
 22 23  1  0
 23 24  2  0
 24 25  1  0
 25 26  2  0
 19 27  1  0
 27 28  1  0
 15  2  1  0
 28 16  1  0
  9  3  1  0
 26 21  1  0
 12  8  1  0
  5 29  1  0
 10 30  1  0
 10 31  1  0
 11 32  1  0
 11 33  1  0
 13 34  1  0
 13 35  1  0
 14 36  1  0
 14 37  1  0
 15 38  1  1
 16 39  1  0
 17 40  1  0
 17 41  1  0
 18 42  1  0
 18 43  1  0
 20 44  1  0
 20 45  1  0
 22 46  1  0
 23 47  1  0
 24 48  1  0
 25 49  1  0
 26 50  1  0
 27 51  1  0
 27 52  1  0
 28 53  1  0
 28 54  1  0
M  CHG  1  16   1
M  END
>  <UniqueID>  (30) 
30

>  <SMILES>  (30) 
O=C1c2c(cc(Br)c3c2CCO3)CC[C@@H]1[NH+]1CCN(Cc2ccccc2)CC1

>  <Energy>  (30) 
104.72753639047068

>  <Genealogy>  (30) 
O=C1c2c(cc(Br)c3c2CCO3)CCC1[NH+]1CCN(Cc2ccccc2)CC1 (protonated)
O=C1c2c(cc(Br)c3c2CCO3)CC[C@@H]1[NH+]1CCN(Cc2ccccc2)CC1 (chirality)
O=C1c2c(cc(Br)c3c2CCO3)CC[C@@H]1[NH+]1CCN(Cc2ccccc2)CC1 (3D coordinates assigned)
O=C1c2c(cc(Br)c3c2CCO3)CC[C@@H]1[NH+]1CCN(Cc2ccccc2)CC1 (nonaromatic ring conformer: 104.72753639047068 kcal/mol)

>  <smiles>  (30) 
O=C1c2c(cc(Br)c3c2CCO3)CCC1N1CCN(Cc2ccccc2)CC1

>  <score_type>  (30) 
oracle

>  <origin>  (30) 
adg

>  <m_score__min__energy>  (30) 
-9.4499999999999993

>  <m_primary>  (30) 
energy

$$$$
30:0
     RDKit          3D

 42 43  0  0  0  0  0  0  0  0999 V2000
   -4.0060   24.2940  -27.0950 C   0  0  0  0  0  0  0  0  0  0  0  0
   -3.7210   23.5840  -28.4170 C   0  0  0  0  0  0  0  0  0  0  0  0
   -3.2320   24.5480  -29.5140 C   0  0  0  0  0  0  0  0  0  0  0  0
   -4.0810   24.5320  -30.7200 N   0  0  0  0  0  0  0  0  0  0  0  0
   -5.0540   25.6320  -30.7220 C   0  0  0  0  0  0  0  0  0  0  0  0
   -6.2240   25.3030  -29.7900 C   0  0  0  0  0  0  0  0  0  0  0  0
   -6.8340   23.9360  -30.1300 C   0  0  0  0  0  0  0  0  0  0  0  0
   -6.9060   23.6910  -31.6420 C   0  0  0  0  0  0  0  0  0  0  0  0
   -6.4630   22.3360  -31.9880 N   0  0  0  0  0  0  0  0  0  0  0  0
   -7.1930   21.2030  -32.0290 C   0  0  0  0  0  0  0  0  0  0  0  0
   -6.3840   20.1860  -32.4740 C   0  0  0  0  0  0  0  0  0  0  0  0
   -5.1770   20.6600  -32.6830 O   0  0  0  0  0  0  0  0  0  0  0  0
   -5.2340   21.9430  -32.3950 C   0  0  0  0  0  0  0  0  0  0  0  0
   -4.2480   22.7200  -32.4970 O   0  0  0  0  0  0  0  0  0  0  0  0
   -6.8280   18.7650  -32.6390 C   0  0  0  0  0  0  0  0  0  0  0  0
   -8.3670   18.6870  -32.6970 C   0  0  0  0  0  0  0  0  0  0  0  0
   -9.0270   19.5620  -31.6080 C   0  0  0  0  0  0  0  0  0  0  0  0
   -8.6640   21.0510  -31.7750 C   0  0  0  0  0  0  0  0  0  0  0  0
   -3.7400   23.6314  -26.2582 H   0  0  0  0  0  0  0  0  0  0  0  0
   -3.4081   25.2155  -27.0374 H   0  0  0  0  0  0  0  0  0  0  0  0
   -5.0751   24.5464  -27.0374 H   0  0  0  0  0  0  0  0  0  0  0  0
   -2.9466   22.8214  -28.2475 H   0  0  0  0  0  0  0  0  0  0  0  0
   -4.6635   23.1353  -28.7639 H   0  0  0  0  0  0  0  0  0  0  0  0
   -3.2247   25.5690  -29.1048 H   0  0  0  0  0  0  0  0  0  0  0  0
   -2.2272   24.2177  -29.8163 H   0  0  0  0  0  0  0  0  0  0  0  0
   -3.4970   24.5840  -31.5880 H   0  0  0  0  0  0  0  0  0  0  0  0
   -4.5620   26.5533  -30.3767 H   0  0  0  0  0  0  0  0  0  0  0  0
   -5.4366   25.7717  -31.7438 H   0  0  0  0  0  0  0  0  0  0  0  0
   -5.8623   25.2866  -28.7513 H   0  0  0  0  0  0  0  0  0  0  0  0
   -6.9993   26.0729  -29.9174 H   0  0  0  0  0  0  0  0  0  0  0  0
   -6.2157   23.1492  -29.6731 H   0  0  0  0  0  0  0  0  0  0  0  0
   -7.8612   23.9186  -29.7369 H   0  0  0  0  0  0  0  0  0  0  0  0
   -7.9454   23.8238  -31.9767 H   0  0  0  0  0  0  0  0  0  0  0  0
   -6.2396   24.4102  -32.1406 H   0  0  0  0  0  0  0  0  0  0  0  0
   -6.4090   18.3602  -33.5720 H   0  0  0  0  0  0  0  0  0  0  0  0
   -6.4727   18.1776  -31.7795 H   0  0  0  0  0  0  0  0  0  0  0  0
   -8.7041   19.0336  -33.6850 H   0  0  0  0  0  0  0  0  0  0  0  0
   -8.6633   17.6422  -32.5224 H   0  0  0  0  0  0  0  0  0  0  0  0
  -10.1194   19.4517  -31.6757 H   0  0  0  0  0  0  0  0  0  0  0  0
   -8.6568   19.2268  -30.6279 H   0  0  0  0  0  0  0  0  0  0  0  0
   -9.2240   21.4679  -32.6250 H   0  0  0  0  0  0  0  0  0  0  0  0
   -8.9251   21.5887  -30.8516 H   0  0  0  0  0  0  0  0  0  0  0  0
  1  2  1  0
  2  3  1  0
  3  4  1  0
  4  5  1  0
  5  6  1  0
  6  7  1  0
  7  8  1  0
  8  9  1  0
  9 10  1  0
 10 11  2  0
 11 12  1  0
 12 13  1  0
 13 14  2  0
 11 15  1  0
 15 16  1  0
 16 17  1  0
 17 18  1  0
 13  9  1  0
 18 10  1  0
  1 19  1  0
  1 20  1  0
  1 21  1  0
  2 22  1  0
  2 23  1  0
  3 24  1  0
  3 25  1  0
  4 26  1  0
  5 27  1  0
  5 28  1  0
  6 29  1  0
  6 30  1  0
  7 31  1  0
  7 32  1  0
  8 33  1  0
  8 34  1  0
 15 35  1  0
 15 36  1  0
 16 37  1  0
 16 38  1  0
 17 39  1  0
 17 40  1  0
 18 41  1  0
 18 42  1  0
M  END
>  <UniqueID>  (31) 
31

>  <SMILES>  (31) 
CCCNCCCCn1c2c(oc1=O)CCCC2

>  <Energy>  (31) 
64.19494797216066

>  <Genealogy>  (31) 
CCCNCCCCn1c2c(oc1=O)CCCC2 (3D coordinates assigned)
CCCNCCCCn1c2c(oc1=O)CCCC2 (nonaromatic ring conformer: 64.19494797216066 kcal/mol)

>  <smiles>  (31) 
CCCNCCCCn1c2c(oc1=O)CCCC2

>  <score_type>  (31) 
oracle

>  <origin>  (31) 
adg

>  <m_score__min__energy>  (31) 
-7.4800000000000004

>  <m_primary>  (31) 
energy

$$$$
31:0
     RDKit          3D

 53 55  0  0  0  0  0  0  0  0999 V2000
   -7.6220   16.7065  -32.4420 H   0  0  0  0  0  0  0  0  0  0  0  0
   -7.7590   17.7930  -32.3380 C   0  0  0  0  0  0  0  0  0  0  0  0
   -8.9190   18.2970  -31.7470 C   0  0  0  0  0  0  0  0  0  0  0  0
   -9.6929   17.6065  -31.3805 H   0  0  0  0  0  0  0  0  0  0  0  0
   -9.0990   19.6770  -31.6200 C   0  0  0  0  0  0  0  0  0  0  0  0
  -10.0186   20.0684  -31.1604 H   0  0  0  0  0  0  0  0  0  0  0  0
   -8.1120   20.5680  -32.0760 C   0  0  0  0  0  0  0  0  0  0  0  0
   -8.3120   22.0510  -31.9370 C   0  0  0  0  0  0  0  0  0  0  0  0
   -8.3480   22.3178  -30.8704 H   0  0  0  0  0  0  0  0  0  0  0  0
   -7.4771   22.5804  -32.4194 H   0  0  0  0  0  0  0  0  0  0  0  0
   -9.2573   22.3403  -32.4194 H   0  0  0  0  0  0  0  0  0  0  0  0
   -6.9270   20.0580  -32.6420 C   0  0  0  0  0  0  0  0  0  0  0  0
   -5.9250   20.9540  -33.1520 N   0  0  0  0  0  0  0  0  0  0  0  0
   -4.9150   21.4890  -32.5140 C   0  0  0  0  0  0  0  0  0  0  0  0
   -4.9010   22.8350  -32.0680 C   0  0  0  0  0  0  0  0  0  0  0  0
   -5.8020   23.6340  -32.4350 O   0  0  0  0  0  0  0  0  0  0  0  0
   -3.8610   23.2900  -31.2930 N   0  0  0  0  0  0  0  0  0  0  0  0
   -3.8580   24.5730  -30.7530 O   0  0  0  0  0  0  0  0  0  0  0  0
   -4.9420   25.1430  -30.0110 C   0  0  0  0  0  0  0  0  0  0  0  0
   -5.8859   24.9365  -30.5367 H   0  0  0  0  0  0  0  0  0  0  0  0
   -4.7779   26.2274  -29.9268 H   0  0  0  0  0  0  0  0  0  0  0  0
   -5.0130   24.5470  -28.5980 C   0  0  0  0  0  0  0  0  0  0  0  0
   -5.8529   23.8385  -28.5469 H   0  0  0  0  0  0  0  0  0  0  0  0
   -5.1583   25.3647  -27.8767 H   0  0  0  0  0  0  0  0  0  0  0  0
   -3.7580   23.8370  -28.2650 N   0  0  0  0  0  0  0  0  0  0  0  0
   -3.0080   24.5370  -27.1870 C   0  0  0  0  0  0  0  0  0  0  0  0
   -2.7294   23.8135  -26.4066 H   0  0  0  0  0  0  0  0  0  0  0  0
   -3.6436   25.3230  -26.7532 H   0  0  0  0  0  0  0  0  0  0  0  0
   -1.7470   25.1700  -27.7640 C   0  0  0  0  0  0  0  0  0  0  0  0
   -1.0929   25.4984  -26.9429 H   0  0  0  0  0  0  0  0  0  0  0  0
   -1.2162   24.4315  -28.3828 H   0  0  0  0  0  0  0  0  0  0  0  0
   -2.0220   26.0369  -28.3828 H   0  0  0  0  0  0  0  0  0  0  0  0
   -4.0420   22.4290  -27.9080 C   0  0  0  0  0  0  0  0  0  0  0  0
   -4.7672   22.4086  -27.0812 H   0  0  0  0  0  0  0  0  0  0  0  0
   -4.4480   21.9217  -28.7956 H   0  0  0  0  0  0  0  0  0  0  0  0
   -2.7720   21.6970  -27.4740 C   0  0  0  0  0  0  0  0  0  0  0  0
   -2.7225   21.6685  -26.3755 H   0  0  0  0  0  0  0  0  0  0  0  0
   -2.7884   20.6698  -27.8671 H   0  0  0  0  0  0  0  0  0  0  0  0
   -1.8913   22.2261  -27.8671 H   0  0  0  0  0  0  0  0  0  0  0  0
   -2.7720   22.4920  -31.0710 C   0  0  0  0  0  0  0  0  0  0  0  0
   -1.6680   22.9500  -30.3210 C   0  0  0  0  0  0  0  0  0  0  0  0
   -1.6765   23.9668  -29.9014 H   0  0  0  0  0  0  0  0  0  0  0  0
   -0.5650   22.1210  -30.1080 C   0  0  0  0  0  0  0  0  0  0  0  0
    0.2912   22.4875  -29.5227 H   0  0  0  0  0  0  0  0  0  0  0  0
   -0.5450   20.8290  -30.6350 C   0  0  0  0  0  0  0  0  0  0  0  0
    0.3286   20.1815  -30.4687 H   0  0  0  0  0  0  0  0  0  0  0  0
   -1.6320   20.3570  -31.3730 C   0  0  0  0  0  0  0  0  0  0  0  0
   -1.6144   19.3363  -31.7827 H   0  0  0  0  0  0  0  0  0  0  0  0
   -2.7470   21.1800  -31.5940 C   0  0  0  0  0  0  0  0  0  0  0  0
   -3.8180   20.7180  -32.2930 N   0  0  0  0  0  0  0  0  0  0  0  0
   -3.8080   19.7360  -32.6560 H   0  0  0  0  0  0  0  0  0  0  0  0
   -6.7730   18.6680  -32.7970 C   0  0  0  0  0  0  0  0  0  0  0  0
   -5.8704   18.2686  -33.2827 H   0  0  0  0  0  0  0  0  0  0  0  0
  1  2  1  0
  2  3  2  0
  3  4  1  0
  3  5  1  0
  5  6  1  0
  5  7  2  0
  7  8  1  0
  8  9  1  0
  8 10  1  0
  8 11  1  0
  7 12  1  0
 12 13  1  0
 13 14  2  0
 14 15  1  0
 15 16  2  0
 15 17  1  0
 17 18  1  0
 18 19  1  0
 19 20  1  0
 19 21  1  0
 19 22  1  0
 22 23  1  0
 22 24  1  0
 22 25  1  0
 25 26  1  0
 26 27  1  0
 26 28  1  0
 26 29  1  0
 29 30  1  0
 29 31  1  0
 29 32  1  0
 25 33  1  0
 33 34  1  0
 33 35  1  0
 33 36  1  0
 36 37  1  0
 36 38  1  0
 36 39  1  0
 17 40  1  0
 40 41  2  0
 41 42  1  0
 41 43  1  0
 43 44  1  0
 43 45  2  0
 45 46  1  0
 45 47  1  0
 47 48  1  0
 47 49  2  0
 49 50  1  0
 50 51  1  0
 12 52  2  0
 52 53  1  0
 52  2  1  0
 50 14  1  0
 49 40  1  0
M  END
>  <UniqueID>  (32) 
32

>  <SMILES>  (32) 
CCN(CC)CCOn1c(=O)/c(=N\c2ccccc2C)[nH]c2ccccc21

>  <Energy>  (32) 
75.56993862745779

>  <Genealogy>  (32) 
CCN(CC)CCOn1c(=O)/c(=N\c2ccccc2C)[nH]c2ccccc21 (cis-trans isomerization)
CCN(CC)CCOn1c(=O)/c(=N\c2ccccc2C)[nH]c2ccccc21 (3D coordinates assigned)
CCN(CC)CCOn1c(=O)/c(=N\c2ccccc2C)[nH]c2ccccc21 (optimized conformer: 75.56993862745779 kcal/mol)

>  <smiles>  (32) 
CCN(CC)CCOn1c(=O)c(=Nc2ccccc2C)[nH]c2ccccc21

>  <score_type>  (32) 
oracle

>  <origin>  (32) 
adg

>  <m_score__min__energy>  (32) 
-8.5999999999999996

>  <m_primary>  (32) 
energy

$$$$
32:0
     RDKit          3D

 56 57  0  0  0  0  0  0  0  0999 V2000
   -2.1690   18.8340  -26.7160 C   0  0  0  0  0  0  0  0  0  0  0  0
   -2.6200   20.2240  -27.1600 C   0  0  0  0  0  0  0  0  0  0  0  0
   -1.6050   21.3280  -26.8210 C   0  0  0  0  0  0  0  0  0  0  0  0
   -1.1230   22.1350  -28.0450 C   0  0  0  0  0  0  0  0  0  0  0  0
   -2.1280   23.2130  -28.4830 C   0  0  0  0  0  0  0  0  0  0  0  0
   -2.8230   22.8010  -29.7200 N   0  0  0  0  0  0  0  0  0  0  0  0
   -2.1810   21.8960  -30.5190 C   0  0  0  0  0  0  0  0  0  0  0  0
   -2.7500   21.4410  -31.7010 C   0  0  0  0  0  0  0  0  0  0  0  0
   -4.0010   21.9070  -32.1090 C   0  0  0  0  0  0  0  0  0  0  0  0
   -4.5660   21.4490  -33.3540 N   0  0  0  0  0  0  0  0  0  0  0  0
   -5.3040   20.1890  -33.4680 C   0  0  0  0  0  0  0  0  0  0  0  0
   -6.8350   20.4170  -33.4470 C   0  0  0  0  0  0  0  0  0  0  0  0
   -7.6470   19.2370  -33.0380 N   0  0  0  0  0  0  0  0  0  0  0  0
   -8.3780   19.4390  -31.7580 C   0  0  0  0  0  0  0  0  0  0  0  0
   -8.7110   20.9110  -31.4920 C   0  0  0  0  0  0  0  0  0  0  0  0
   -6.8240   17.9970  -32.9930 C   0  0  0  0  0  0  0  0  0  0  0  0
   -6.4360   17.6050  -31.5620 C   0  0  0  0  0  0  0  0  0  0  0  0
   -4.6680   22.8580  -31.3040 C   0  0  0  0  0  0  0  0  0  0  0  0
   -5.9410   23.3530  -31.6610 C   0  0  0  0  0  0  0  0  0  0  0  0
   -6.5850   24.2990  -30.8670 C   0  0  0  0  0  0  0  0  0  0  0  0
   -5.9780   24.7680  -29.7080 C   0  0  0  0  0  0  0  0  0  0  0  0
   -4.7280   24.2840  -29.3230 C   0  0  0  0  0  0  0  0  0  0  0  0
   -4.0510   23.3120  -30.0990 C   0  0  0  0  0  0  0  0  0  0  0  0
   -2.1538   18.7871  -25.6171 H   0  0  0  0  0  0  0  0  0  0  0  0
   -2.8685   18.0797  -27.1056 H   0  0  0  0  0  0  0  0  0  0  0  0
   -1.1599   18.6341  -27.1056 H   0  0  0  0  0  0  0  0  0  0  0  0
   -2.7712   20.2109  -28.2495 H   0  0  0  0  0  0  0  0  0  0  0  0
   -3.5479   20.4554  -26.6164 H   0  0  0  0  0  0  0  0  0  0  0  0
   -2.0754   22.0242  -26.1111 H   0  0  0  0  0  0  0  0  0  0  0  0
   -0.7198   20.8283  -26.4007 H   0  0  0  0  0  0  0  0  0  0  0  0
   -0.1715   22.6247  -27.7903 H   0  0  0  0  0  0  0  0  0  0  0  0
   -1.0088   21.4300  -28.8816 H   0  0  0  0  0  0  0  0  0  0  0  0
   -2.8692   23.3628  -27.6841 H   0  0  0  0  0  0  0  0  0  0  0  0
   -1.5837   24.1492  -28.6759 H   0  0  0  0  0  0  0  0  0  0  0  0
   -1.1918   21.5201  -30.2187 H   0  0  0  0  0  0  0  0  0  0  0  0
   -2.2114   20.7084  -32.3200 H   0  0  0  0  0  0  0  0  0  0  0  0
   -4.2640   21.9190  -34.2370 H   0  0  0  0  0  0  0  0  0  0  0  0
   -5.0296   19.6997  -34.4142 H   0  0  0  0  0  0  0  0  0  0  0  0
   -5.0399   19.5583  -32.6064 H   0  0  0  0  0  0  0  0  0  0  0  0
   -7.0473   21.2362  -32.7442 H   0  0  0  0  0  0  0  0  0  0  0  0
   -7.1242   20.6415  -34.4843 H   0  0  0  0  0  0  0  0  0  0  0  0
   -8.3640   19.1140  -33.7940 H   0  0  0  0  0  0  0  0  0  0  0  0
   -9.3169   18.8671  -31.7951 H   0  0  0  0  0  0  0  0  0  0  0  0
   -7.7232   19.0945  -30.9440 H   0  0  0  0  0  0  0  0  0  0  0  0
   -8.7510   21.0876  -30.4070 H   0  0  0  0  0  0  0  0  0  0  0  0
   -7.9345   21.5492  -31.9390 H   0  0  0  0  0  0  0  0  0  0  0  0
   -9.6865   21.1528  -31.9390 H   0  0  0  0  0  0  0  0  0  0  0  0
   -7.4003   17.1740  -33.4409 H   0  0  0  0  0  0  0  0  0  0  0  0
   -5.8961   18.1896  -33.5515 H   0  0  0  0  0  0  0  0  0  0  0  0
   -7.0240   18.1990  -30.8469 H   0  0  0  0  0  0  0  0  0  0  0  0
   -6.6412   16.5356  -31.4064 H   0  0  0  0  0  0  0  0  0  0  0  0
   -5.3645   17.7992  -31.4064 H   0  0  0  0  0  0  0  0  0  0  0  0
   -6.4297   22.9876  -32.5763 H   0  0  0  0  0  0  0  0  0  0  0  0
   -7.5766   24.6759  -31.1580 H   0  0  0  0  0  0  0  0  0  0  0  0
   -6.4858   25.5244  -29.0916 H   0  0  0  0  0  0  0  0  0  0  0  0
   -4.2607   24.6632  -28.4022 H   0  0  0  0  0  0  0  0  0  0  0  0
  1  2  1  0
  2  3  1  0
  3  4  1  0
  4  5  1  0
  5  6  1  0
  6  7  2  0
  7  8  1  0
  8  9  2  0
  9 10  1  0
 10 11  1  0
 11 12  1  0
 12 13  1  0
 13 14  1  0
 14 15  1  0
 13 16  1  0
 16 17  1  0
  9 18  1  0
 18 19  2  0
 19 20  1  0
 20 21  2  0
 21 22  1  0
 22 23  2  0
 23  6  1  0
 23 18  1  0
  1 24  1  0
  1 25  1  0
  1 26  1  0
  2 27  1  0
  2 28  1  0
  3 29  1  0
  3 30  1  0
  4 31  1  0
  4 32  1  0
  5 33  1  0
  5 34  1  0
  7 35  1  0
  8 36  1  0
 10 37  1  0
 11 38  1  0
 11 39  1  0
 12 40  1  0
 12 41  1  0
 13 42  1  0
 14 43  1  0
 14 44  1  0
 15 45  1  0
 15 46  1  0
 15 47  1  0
 16 48  1  0
 16 49  1  0
 17 50  1  0
 17 51  1  0
 17 52  1  0
 19 53  1  0
 20 54  1  0
 21 55  1  0
 22 56  1  0
M  CHG  2   6   1  13   1
M  END
>  <UniqueID>  (33) 
33

>  <SMILES>  (33) 
CCCCC[n+]1ccc(NCC[NH+](CC)CC)c2ccccc21

>  <Energy>  (33) 
64.13396244665729

>  <Genealogy>  (33) 
CCCCC[n+]1ccc(NCC[NH+](CC)CC)c2ccccc21 (protonated)
CCCCC[n+]1ccc(NCC[NH+](CC)CC)c2ccccc21 (3D coordinates assigned)
CCCCC[n+]1ccc(NCC[NH+](CC)CC)c2ccccc21 (optimized conformer: 64.13396244665729 kcal/mol)

>  <smiles>  (33) 
CCCCC[n+]1ccc(NCCN(CC)CC)c2ccccc21

>  <score_type>  (33) 
oracle

>  <origin>  (33) 
adg

>  <m_score__min__energy>  (33) 
-6.1799999999999997

>  <m_primary>  (33) 
energy

$$$$
33:0
     RDKit          3D

 31 33  0  0  0  0  0  0  0  0999 V2000
   -5.8050   24.9560  -30.1250 C   0  0  0  0  0  0  0  0  0  0  0  0
   -4.6180   24.7720  -30.8910 O   0  0  0  0  0  0  0  0  0  0  0  0
   -3.6850   23.7440  -30.6850 C   0  0  0  0  0  0  0  0  0  0  0  0
   -2.6620   23.8560  -29.7210 C   0  0  0  0  0  0  0  0  0  0  0  0
   -1.7760   22.7990  -29.5030 C   0  0  0  0  0  0  0  0  0  0  0  0
   -1.9010   21.6180  -30.2350 C   0  0  0  0  0  0  0  0  0  0  0  0
   -2.9040   21.4970  -31.1980 C   0  0  0  0  0  0  0  0  0  0  0  0
   -3.7860   22.5590  -31.4480 C   0  0  0  0  0  0  0  0  0  0  0  0
   -4.8060   22.3960  -32.4480 N   0  0  0  0  0  0  0  0  0  0  0  0
   -5.7120   21.2800  -32.4900 C   0  0  0  0  0  0  0  0  0  0  0  0
   -5.1960   19.9550  -32.5790 C   0  0  0  0  0  0  0  0  0  0  0  0
   -6.0530   18.8420  -32.5470 C   0  0  0  0  0  0  0  0  0  0  0  0
   -7.4120   19.0860  -32.4090 C   0  0  0  0  0  0  0  0  0  0  0  0
   -8.4220   18.2060  -32.3630 N   0  0  0  0  0  0  0  0  0  0  0  0
   -9.4930   18.9510  -32.2470 O   0  0  0  0  0  0  0  0  0  0  0  0
   -9.2550   20.2380  -32.2150 N   0  0  0  0  0  0  0  0  0  0  0  0
   -7.9200   20.3370  -32.3140 C   0  0  0  0  0  0  0  0  0  0  0  0
   -7.1160   21.4840  -32.3550 C   0  0  0  0  0  0  0  0  0  0  0  0
   -7.6980   22.7990  -32.3070 N   0  0  0  0  0  0  0  0  0  0  0  0
   -7.0520   23.7910  -32.7060 O   0  0  0  0  0  0  0  0  0  0  0  0
   -8.9200   23.0020  -31.7070 O   0  0  0  0  0  0  0  0  0  0  0  0
   -5.5595   24.9179  -29.0534 H   0  0  0  0  0  0  0  0  0  0  0  0
   -6.2484   25.9336  -30.3651 H   0  0  0  0  0  0  0  0  0  0  0  0
   -6.5236   24.1585  -30.3651 H   0  0  0  0  0  0  0  0  0  0  0  0
   -2.5612   24.7825  -29.1367 H   0  0  0  0  0  0  0  0  0  0  0  0
   -0.9778   22.8977  -28.7525 H   0  0  0  0  0  0  0  0  0  0  0  0
   -1.2092   20.7823  -30.0532 H   0  0  0  0  0  0  0  0  0  0  0  0
   -3.0039   20.5604  -31.7661 H   0  0  0  0  0  0  0  0  0  0  0  0
   -4.9870   23.1940  -33.0980 H   0  0  0  0  0  0  0  0  0  0  0  0
   -4.1110   19.8011  -32.6741 H   0  0  0  0  0  0  0  0  0  0  0  0
   -5.6618   17.8171  -32.6282 H   0  0  0  0  0  0  0  0  0  0  0  0
  1  2  1  0
  2  3  1  0
  3  4  2  0
  4  5  1  0
  5  6  2  0
  6  7  1  0
  7  8  2  0
  8  9  1  0
  9 10  1  0
 10 11  1  0
 11 12  2  0
 12 13  1  0
 13 14  2  0
 14 15  1  0
 15 16  1  0
 16 17  2  0
 17 18  1  0
 18 19  1  0
 19 20  2  0
 19 21  1  0
  8  3  1  0
 18 10  2  0
 17 13  1  0
  1 22  1  0
  1 23  1  0
  1 24  1  0
  4 25  1  0
  5 26  1  0
  6 27  1  0
  7 28  1  0
  9 29  1  0
 11 30  1  0
 12 31  1  0
M  CHG  2  19   1  21  -1
M  END
>  <UniqueID>  (34) 
34

>  <SMILES>  (34) 
COc1ccccc1Nc1ccc2nonc2c1[N+](=O)[O-]

>  <Energy>  (34) 
86.82136751918401

>  <Genealogy>  (34) 
COc1ccccc1Nc1ccc2nonc2c1[N+](=O)[O-] (3D coordinates assigned)
COc1ccccc1Nc1ccc2nonc2c1[N+](=O)[O-] (optimized conformer: 86.82136751918401 kcal/mol)

>  <smiles>  (34) 
COc1ccccc1Nc1ccc2nonc2c1[N+](=O)[O-]

>  <score_type>  (34) 
oracle

>  <origin>  (34) 
adg

>  <m_score__min__energy>  (34) 
-8.0500000000000007

>  <m_primary>  (34) 
energy

$$$$
34:0
     RDKit          3D

 61 65  0  0  0  0  0  0  0  0999 V2000
   -9.7920   21.1500  -31.9780 C   0  0  0  0  0  0  0  0  0  0  0  0
   -8.3800   20.9130  -32.2590 N   0  0  0  0  0  0  0  0  0  0  0  0
   -7.8630   19.7440  -32.7030 C   0  0  0  0  0  0  0  0  0  0  0  0
   -6.5130   19.9070  -32.9120 C   0  0  0  0  0  0  0  0  0  0  0  0
   -5.5630   19.0130  -33.3940 C   0  0  0  0  0  0  0  0  0  0  0  0
   -4.2470   19.4800  -33.5560 C   0  0  0  0  0  0  0  0  0  0  0  0
   -3.9090   20.8210  -33.2360 C   0  0  0  0  0  0  0  0  0  0  0  0
   -2.5040   21.3140  -33.4490 C   0  0  0  0  0  0  0  0  0  0  0  0
   -1.6310   20.2870  -34.1990 C   0  0  0  0  0  0  0  0  0  0  0  0
   -0.5470   19.7110  -33.3610 N   0  0  0  0  0  0  0  0  0  0  0  0
   -1.0880   18.7360  -32.3630 C   0  0  0  0  0  0  0  0  0  0  0  0
   -0.4430   18.8430  -30.9770 C   0  0  0  0  0  0  0  0  0  0  0  0
   -0.5570   20.2230  -30.4900 N   0  0  0  0  0  0  0  0  0  0  0  0
   -0.7990   20.5040  -29.0930 C   0  0  0  0  0  0  0  0  0  0  0  0
   -0.1390   21.5730  -28.4550 C   0  0  0  0  0  0  0  0  0  0  0  0
   -0.3680   21.8450  -27.1040 C   0  0  0  0  0  0  0  0  0  0  0  0
   -1.2560   21.0570  -26.3690 C   0  0  0  0  0  0  0  0  0  0  0  0
   -1.9140   19.9850  -26.9840 C   0  0  0  0  0  0  0  0  0  0  0  0
   -2.8030   19.1510  -26.2200 C   0  0  0  0  0  0  0  0  0  0  0  0
   -3.5180   18.4730  -25.6160 N   0  0  0  0  0  0  0  0  0  0  0  0
   -1.6900   19.7120  -28.3410 C   0  0  0  0  0  0  0  0  0  0  0  0
   -0.3410   21.3220  -31.4390 C   0  0  0  0  0  0  0  0  0  0  0  0
    0.2650   20.8000  -32.7500 C   0  0  0  0  0  0  0  0  0  0  0  0
   -4.8990   21.6930  -32.7310 C   0  0  0  0  0  0  0  0  0  0  0  0
   -6.1950   21.2010  -32.5880 C   0  0  0  0  0  0  0  0  0  0  0  0
   -7.3650   21.8140  -32.1800 C   0  0  0  0  0  0  0  0  0  0  0  0
   -7.5120   23.2600  -31.7880 C   0  0  0  0  0  0  0  0  0  0  0  0
   -6.3440   23.7060  -30.9580 C   0  0  0  0  0  0  0  0  0  0  0  0
   -5.8840   23.0050  -29.8270 C   0  0  0  0  0  0  0  0  0  0  0  0
   -4.7940   23.5990  -29.2130 C   0  0  0  0  0  0  0  0  0  0  0  0
   -4.4070   24.9920  -30.0730 S   0  0  0  0  0  0  0  0  0  0  0  0
   -5.6120   24.8550  -31.2320 C   0  0  0  0  0  0  0  0  0  0  0  0
   -9.9499   21.1765  -30.8897 H   0  0  0  0  0  0  0  0  0  0  0  0
  -10.0967   22.1118  -32.4162 H   0  0  0  0  0  0  0  0  0  0  0  0
  -10.3940   20.3403  -32.4162 H   0  0  0  0  0  0  0  0  0  0  0  0
   -8.4292   18.8157  -32.8695 H   0  0  0  0  0  0  0  0  0  0  0  0
   -5.8323   17.9753  -33.6402 H   0  0  0  0  0  0  0  0  0  0  0  0
   -3.4708   18.7989  -33.9348 H   0  0  0  0  0  0  0  0  0  0  0  0
   -2.5404   22.2434  -34.0363 H   0  0  0  0  0  0  0  0  0  0  0  0
   -2.0524   21.4814  -32.4600 H   0  0  0  0  0  0  0  0  0  0  0  0
   -2.2771   19.4670  -34.5456 H   0  0  0  0  0  0  0  0  0  0  0  0
   -1.1495   20.8176  -35.0337 H   0  0  0  0  0  0  0  0  0  0  0  0
    0.1040   19.1900  -33.9950 H   0  0  0  0  0  0  0  0  0  0  0  0
   -2.1685   18.9129  -32.2567 H   0  0  0  0  0  0  0  0  0  0  0  0
   -0.8601   17.7296  -32.7442 H   0  0  0  0  0  0  0  0  0  0  0  0
   -0.9567   18.1645  -30.2800 H   0  0  0  0  0  0  0  0  0  0  0  0
    0.6190   18.5642  -31.0440 H   0  0  0  0  0  0  0  0  0  0  0  0
    0.5628   22.1989  -29.0258 H   0  0  0  0  0  0  0  0  0  0  0  0
    0.1530   22.6828  -26.6176 H   0  0  0  0  0  0  0  0  0  0  0  0
   -1.4386   21.2784  -25.3071 H   0  0  0  0  0  0  0  0  0  0  0  0
   -2.2138   18.8731  -28.8225 H   0  0  0  0  0  0  0  0  0  0  0  0
   -1.3047   21.8065  -31.6550 H   0  0  0  0  0  0  0  0  0  0  0  0
    0.3582   22.0429  -30.9901 H   0  0  0  0  0  0  0  0  0  0  0  0
    0.3311   21.6338  -33.4644 H   0  0  0  0  0  0  0  0  0  0  0  0
    1.2574   20.3862  -32.5176 H   0  0  0  0  0  0  0  0  0  0  0  0
   -4.6541   22.7302  -32.4586 H   0  0  0  0  0  0  0  0  0  0  0  0
   -7.5655   23.8769  -32.6971 H   0  0  0  0  0  0  0  0  0  0  0  0
   -8.4313   23.3739  -31.1949 H   0  0  0  0  0  0  0  0  0  0  0  0
   -6.3462   22.0745  -29.4656 H   0  0  0  0  0  0  0  0  0  0  0  0
   -4.2726   23.2253  -28.3194 H   0  0  0  0  0  0  0  0  0  0  0  0
   -5.7913   25.5526  -32.0634 H   0  0  0  0  0  0  0  0  0  0  0  0
  1  2  1  0
  2  3  1  0
  3  4  2  0
  4  5  1  0
  5  6  2  0
  6  7  1  0
  7  8  1  0
  8  9  1  0
  9 10  1  0
 10 11  1  0
 11 12  1  0
 12 13  1  0
 13 14  1  0
 14 15  2  0
 15 16  1  0
 16 17  2  0
 17 18  1  0
 18 19  1  0
 19 20  3  0
 18 21  2  0
 13 22  1  0
 22 23  1  0
  7 24  2  0
 24 25  1  0
 25 26  2  0
 26 27  1  0
 27 28  1  0
 28 29  1  0
 29 30  2  0
 30 31  1  0
 31 32  1  0
 26  2  1  0
 32 28  2  0
 25  4  1  0
 23 10  1  0
 21 14  1  0
  1 33  1  0
  1 34  1  0
  1 35  1  0
  3 36  1  0
  5 37  1  0
  6 38  1  0
  8 39  1  0
  8 40  1  0
  9 41  1  0
  9 42  1  0
 10 43  1  0
 11 44  1  0
 11 45  1  0
 12 46  1  0
 12 47  1  0
 15 48  1  0
 16 49  1  0
 17 50  1  0
 21 51  1  0
 22 52  1  0
 22 53  1  0
 23 54  1  0
 23 55  1  0
 24 56  1  0
 27 57  1  0
 27 58  1  0
 29 59  1  0
 30 60  1  0
 32 61  1  0
M  CHG  1  10   1
M  END
>  <UniqueID>  (35) 
35

>  <SMILES>  (35) 
Cn1cc2ccc(CC[NH+]3CCN(c4cccc(C#N)c4)CC3)cc2c1Cc1ccsc1

>  <Energy>  (35) 
132.17323517341117

>  <Genealogy>  (35) 
Cn1cc2ccc(CC[NH+]3CCN(c4cccc(C#N)c4)CC3)cc2c1Cc1ccsc1 (protonated)
Cn1cc2ccc(CC[NH+]3CCN(c4cccc(C#N)c4)CC3)cc2c1Cc1ccsc1 (3D coordinates assigned)
Cn1cc2ccc(CC[NH+]3CCN(c4cccc(C#N)c4)CC3)cc2c1Cc1ccsc1 (nonaromatic ring conformer: 132.17323517341117 kcal/mol)

>  <smiles>  (35) 
Cn1cc2ccc(CCN3CCN(c4cccc(C#N)c4)CC3)cc2c1Cc1ccsc1

>  <score_type>  (35) 
oracle

>  <origin>  (35) 
adg

>  <m_score__min__energy>  (35) 
-9.25

>  <m_primary>  (35) 
energy

$$$$
35:0
     RDKit          3D

 30 32  0  0  0  0  0  0  0  0999 V2000
   -3.0710   23.0170  -28.4880 C   0  0  0  0  0  0  0  0  0  0  0  0
   -3.3170   23.7970  -29.7720 C   0  0  0  0  0  0  0  0  0  0  0  0
   -4.7490   24.0000  -29.9720 N   0  0  0  0  0  0  0  0  0  0  0  0
   -5.4610   25.0190  -29.4980 N   0  0  0  0  0  0  0  0  0  0  0  0
   -6.7610   24.8810  -29.7600 N   0  0  0  0  0  0  0  0  0  0  0  0
   -6.8620   23.7150  -30.4260 C   0  0  0  0  0  0  0  0  0  0  0  0
   -7.9870   23.0590  -30.9010 C   0  0  0  0  0  0  0  0  0  0  0  0
   -7.7910   21.8070  -31.5210 C   0  0  0  0  0  0  0  0  0  0  0  0
   -9.3470   20.8360  -32.0830 Br  0  0  0  0  0  0  0  0  0  0  0  0
   -6.4660   21.2740  -31.6400 C   0  0  0  0  0  0  0  0  0  0  0  0
   -6.2020   19.9710  -32.2810 C   0  0  0  0  0  0  0  0  0  0  0  0
   -6.4160   18.7680  -31.5850 C   0  0  0  0  0  0  0  0  0  0  0  0
   -6.1920   17.5410  -32.2160 C   0  0  0  0  0  0  0  0  0  0  0  0
   -5.7680   17.5030  -33.5470 C   0  0  0  0  0  0  0  0  0  0  0  0
   -5.5740   18.6940  -34.2520 C   0  0  0  0  0  0  0  0  0  0  0  0
   -5.7970   19.9240  -33.6250 C   0  0  0  0  0  0  0  0  0  0  0  0
   -5.4020   21.9720  -31.1300 N   0  0  0  0  0  0  0  0  0  0  0  0
   -5.6290   23.1730  -30.5480 C   0  0  0  0  0  0  0  0  0  0  0  0
   -3.2748   23.6633  -27.6216 H   0  0  0  0  0  0  0  0  0  0  0  0
   -3.7368   22.1419  -28.4573 H   0  0  0  0  0  0  0  0  0  0  0  0
   -2.0236   22.6822  -28.4573 H   0  0  0  0  0  0  0  0  0  0  0  0
   -2.8173   24.7746  -29.7047 H   0  0  0  0  0  0  0  0  0  0  0  0
   -2.9132   23.2266  -30.6215 H   0  0  0  0  0  0  0  0  0  0  0  0
   -5.0580   25.8240  -28.9680 H   0  0  0  0  0  0  0  0  0  0  0  0
   -8.9910   23.4965  -30.7987 H   0  0  0  0  0  0  0  0  0  0  0  0
   -6.7608   18.7926  -30.5407 H   0  0  0  0  0  0  0  0  0  0  0  0
   -6.3499   16.6030  -31.6635 H   0  0  0  0  0  0  0  0  0  0  0  0
   -5.5870   16.5362  -34.0395 H   0  0  0  0  0  0  0  0  0  0  0  0
   -5.2455   18.6639  -35.3014 H   0  0  0  0  0  0  0  0  0  0  0  0
   -5.6546   20.8588  -34.1870 H   0  0  0  0  0  0  0  0  0  0  0  0
  1  2  1  0
  2  3  1  0
  3  4  1  0
  4  5  2  0
  5  6  1  0
  6  7  2  0
  7  8  1  0
  8  9  1  0
  8 10  2  0
 10 11  1  0
 11 12  2  0
 12 13  1  0
 13 14  2  0
 14 15  1  0
 15 16  2  0
 10 17  1  0
 17 18  2  0
 18  3  1  0
 18  6  1  0
 16 11  1  0
  1 19  1  0
  1 20  1  0
  1 21  1  0
  2 22  1  0
  2 23  1  0
  4 24  1  0
  7 25  1  0
 12 26  1  0
 13 27  1  0
 14 28  1  0
 15 29  1  0
 16 30  1  0
M  CHG  1   4   1
M  END
>  <UniqueID>  (36) 
36

>  <SMILES>  (36) 
CCn1[nH+]nc2cc(Br)c(-c3ccccc3)nc21

>  <Energy>  (36) 
82.89641449936944

>  <Genealogy>  (36) 
CCn1[nH+]nc2cc(Br)c(-c3ccccc3)nc21 (protonated)
CCn1[nH+]nc2cc(Br)c(-c3ccccc3)nc21 (3D coordinates assigned)
CCn1[nH+]nc2cc(Br)c(-c3ccccc3)nc21 (optimized conformer: 82.89641449936944 kcal/mol)

>  <smiles>  (36) 
CCn1nnc2cc(Br)c(-c3ccccc3)nc21

>  <score_type>  (36) 
oracle

>  <origin>  (36) 
adg

>  <m_score__min__energy>  (36) 
-7.3099999999999996

>  <m_primary>  (36) 
energy

$$$$
36:0
     RDKit          3D

 41 44  0  0  0  0  0  0  0  0999 V2000
    0.6160   23.5000  -36.0560 C   0  0  0  0  0  0  0  0  0  0  0  0
    0.4410   22.3000  -35.3110 O   0  0  0  0  0  0  0  0  0  0  0  0
    1.1730   21.1180  -35.5140 C   0  0  0  0  0  0  0  0  0  0  0  0
    2.4780   21.1430  -36.0460 C   0  0  0  0  0  0  0  0  0  0  0  0
    3.1950   19.9580  -36.2180 C   0  0  0  0  0  0  0  0  0  0  0  0
    2.6230   18.7370  -35.8660 C   0  0  0  0  0  0  0  0  0  0  0  0
    1.3310   18.6950  -35.3410 C   0  0  0  0  0  0  0  0  0  0  0  0
    0.5920   19.8780  -35.1600 C   0  0  0  0  0  0  0  0  0  0  0  0
   -0.7460   19.8160  -34.6300 N   0  0  0  0  0  0  0  0  0  0  0  0
   -1.3480   18.6860  -34.2640 N   0  0  0  0  0  0  0  0  0  0  0  0
   -2.5650   19.0510  -33.8190 C   0  0  0  0  0  0  0  0  0  0  0  0
   -2.6590   20.4020  -33.8900 C   0  0  0  0  0  0  0  0  0  0  0  0
   -1.5170   20.8770  -34.4050 N   0  0  0  0  0  0  0  0  0  0  0  0
   -3.8190   21.1200  -33.3840 C   0  0  0  0  0  0  0  0  0  0  0  0
   -3.8300   22.3800  -33.3380 O   0  0  0  0  0  0  0  0  0  0  0  0
   -4.9230   20.3310  -32.8880 N   0  0  0  0  0  0  0  0  0  0  0  0
   -6.0780   20.9670  -32.3160 C   0  0  0  0  0  0  0  0  0  0  0  0
   -7.3540   20.3990  -32.4640 C   0  0  0  0  0  0  0  0  0  0  0  0
   -8.4700   21.0170  -31.8950 C   0  0  0  0  0  0  0  0  0  0  0  0
   -8.3220   22.2040  -31.1720 C   0  0  0  0  0  0  0  0  0  0  0  0
   -7.0540   22.7740  -31.0150 C   0  0  0  0  0  0  0  0  0  0  0  0
   -6.8680   24.2630  -30.1070 Cl  0  0  0  0  0  0  0  0  0  0  0  0
   -5.9350   22.1560  -31.5840 C   0  0  0  0  0  0  0  0  0  0  0  0
   -4.9770   18.8790  -33.1870 C   0  0  0  0  0  0  0  0  0  0  0  0
   -3.5850   18.1980  -33.1350 C   0  0  0  0  0  0  0  0  0  0  0  0
    0.7394   24.3463  -35.3643 H   0  0  0  0  0  0  0  0  0  0  0  0
    1.5107   23.4110  -36.6898 H   0  0  0  0  0  0  0  0  0  0  0  0
   -0.2668   23.6702  -36.6898 H   0  0  0  0  0  0  0  0  0  0  0  0
    2.9346   22.1033  -36.3276 H   0  0  0  0  0  0  0  0  0  0  0  0
    4.2136   19.9879  -36.6322 H   0  0  0  0  0  0  0  0  0  0  0  0
    3.1910   17.8049  -36.0023 H   0  0  0  0  0  0  0  0  0  0  0  0
    0.8860   17.7273  -35.0660 H   0  0  0  0  0  0  0  0  0  0  0  0
   -1.2750   21.8740  -34.5940 H   0  0  0  0  0  0  0  0  0  0  0  0
   -7.4750   19.4637  -33.0303 H   0  0  0  0  0  0  0  0  0  0  0  0
   -9.4672   20.5687  -32.0161 H   0  0  0  0  0  0  0  0  0  0  0  0
   -9.2025   22.6900  -30.7264 H   0  0  0  0  0  0  0  0  0  0  0  0
   -4.9385   22.6041  -31.4570 H   0  0  0  0  0  0  0  0  0  0  0  0
   -5.6327   18.3933  -32.4494 H   0  0  0  0  0  0  0  0  0  0  0  0
   -5.3597   18.7680  -34.2123 H   0  0  0  0  0  0  0  0  0  0  0  0
   -3.2912   18.0522  -32.0850 H   0  0  0  0  0  0  0  0  0  0  0  0
   -3.6420   17.2268  -33.6483 H   0  0  0  0  0  0  0  0  0  0  0  0
  1  2  1  0
  2  3  1  0
  3  4  2  0
  4  5  1  0
  5  6  2  0
  6  7  1  0
  7  8  2  0
  8  9  1  0
  9 10  1  0
 10 11  2  0
 11 12  1  0
 12 13  2  0
 12 14  1  0
 14 15  2  0
 14 16  1  0
 16 17  1  0
 17 18  2  0
 18 19  1  0
 19 20  2  0
 20 21  1  0
 21 22  1  0
 21 23  2  0
 16 24  1  0
 24 25  1  0
  8  3  1  0
 13  9  1  0
 23 17  1  0
 25 11  1  0
  1 26  1  0
  1 27  1  0
  1 28  1  0
  4 29  1  0
  5 30  1  0
  6 31  1  0
  7 32  1  0
 13 33  1  0
 18 34  1  0
 19 35  1  0
 20 36  1  0
 23 37  1  0
 24 38  1  0
 24 39  1  0
 25 40  1  0
 25 41  1  0
M  CHG  1  13   1
M  END
>  <UniqueID>  (37) 
37

>  <SMILES>  (37) 
COc1ccccc1-n1nc2c([nH+]1)C(=O)N(c1cccc(Cl)c1)CC2

>  <Energy>  (37) 
94.68226829723886

>  <Genealogy>  (37) 
COc1ccccc1-n1nc2c([nH+]1)C(=O)N(c1cccc(Cl)c1)CC2 (protonated)
COc1ccccc1-n1nc2c([nH+]1)C(=O)N(c1cccc(Cl)c1)CC2 (3D coordinates assigned)
COc1ccccc1-n1nc2c([nH+]1)C(=O)N(c1cccc(Cl)c1)CC2 (nonaromatic ring conformer: 94.68226829723886 kcal/mol)

>  <smiles>  (37) 
COc1ccccc1-n1nc2c(n1)C(=O)N(c1cccc(Cl)c1)CC2

>  <score_type>  (37) 
oracle

>  <origin>  (37) 
adg

>  <m_score__min__energy>  (37) 
-7.8399999999999999

>  <m_primary>  (37) 
energy

$$$$
37:0
     RDKit          3D

 58 60  0  0  0  0  0  0  0  0999 V2000
   -5.7600   15.0430  -34.1060 C   0  0  0  0  0  0  0  0  0  0  0  0
   -6.8870   15.8960  -33.9310 O   0  0  0  0  0  0  0  0  0  0  0  0
   -6.8180   17.2090  -33.4410 C   0  0  0  0  0  0  0  0  0  0  0  0
   -5.8900   18.0850  -34.0150 C   0  0  0  0  0  0  0  0  0  0  0  0
   -5.7790   19.4020  -33.5610 C   0  0  0  0  0  0  0  0  0  0  0  0
   -6.5990   19.8710  -32.5180 C   0  0  0  0  0  0  0  0  0  0  0  0
   -6.4830   21.2330  -32.0470 N   0  0  0  0  0  0  0  0  0  0  0  0
   -5.1930   21.9320  -32.0750 C   0  0  0  0  0  0  0  0  0  0  0  0
   -5.3980   23.4340  -32.3290 C   0  0  0  0  0  0  0  0  0  0  0  0
   -6.4670   24.0640  -31.5020 N   0  0  0  0  0  0  0  0  0  0  0  0
   -5.9570   25.2370  -30.7570 C   0  0  0  0  0  0  0  0  0  0  0  0
   -4.9780   24.8200  -29.6510 C   0  0  0  0  0  0  0  0  0  0  0  0
   -3.5990   25.0720  -30.0620 N   0  0  0  0  0  0  0  0  0  0  0  0
   -2.4070   24.3840  -29.6470 C   0  0  0  0  0  0  0  0  0  0  0  0
   -2.3580   23.1440  -29.8490 O   0  0  0  0  0  0  0  0  0  0  0  0
   -1.2520   25.0700  -28.9980 C   0  0  0  0  0  0  0  0  0  0  0  0
   -1.2390   26.3250  -28.9140 O   0  0  0  0  0  0  0  0  0  0  0  0
   -0.1170   24.3640  -28.4650 N   0  0  0  0  0  0  0  0  0  0  0  0
   -0.0880   23.3930  -27.3770 C   0  0  0  0  0  0  0  0  0  0  0  0
    0.5630   22.0840  -27.8350 C   0  0  0  0  0  0  0  0  0  0  0  0
   -0.3210   20.9130  -27.4980 C   0  0  0  0  0  0  0  0  0  0  0  0
    0.1210   19.5990  -27.7300 C   0  0  0  0  0  0  0  0  0  0  0  0
   -0.7210   18.5140  -27.4620 C   0  0  0  0  0  0  0  0  0  0  0  0
   -2.0110   18.7330  -26.9720 C   0  0  0  0  0  0  0  0  0  0  0  0
   -2.4610   20.0370  -26.7470 C   0  0  0  0  0  0  0  0  0  0  0  0
   -1.6240   21.1250  -27.0130 C   0  0  0  0  0  0  0  0  0  0  0  0
   -7.1750   23.1190  -30.6110 C   0  0  0  0  0  0  0  0  0  0  0  0
   -7.6240   21.8790  -31.3860 C   0  0  0  0  0  0  0  0  0  0  0  0
   -7.5390   18.9910  -31.9490 C   0  0  0  0  0  0  0  0  0  0  0  0
   -7.6460   17.6720  -32.4030 C   0  0  0  0  0  0  0  0  0  0  0  0
   -5.3682   14.7465  -33.1218 H   0  0  0  0  0  0  0  0  0  0  0  0
   -6.0627   14.1457  -34.6657 H   0  0  0  0  0  0  0  0  0  0  0  0
   -4.9786   15.5780  -34.6657 H   0  0  0  0  0  0  0  0  0  0  0  0
   -5.2417   17.7337  -34.8313 H   0  0  0  0  0  0  0  0  0  0  0  0
   -5.0443   20.0779  -34.0229 H   0  0  0  0  0  0  0  0  0  0  0  0
   -4.6861   21.7945  -31.1085 H   0  0  0  0  0  0  0  0  0  0  0  0
   -4.5807   21.5148  -32.8880 H   0  0  0  0  0  0  0  0  0  0  0  0
   -4.4504   23.9503  -32.1158 H   0  0  0  0  0  0  0  0  0  0  0  0
   -5.7169   23.5319  -33.3772 H   0  0  0  0  0  0  0  0  0  0  0  0
   -5.4391   25.9080  -31.4582 H   0  0  0  0  0  0  0  0  0  0  0  0
   -6.8119   25.7451  -30.2870 H   0  0  0  0  0  0  0  0  0  0  0  0
   -5.1948   25.3972  -28.7400 H   0  0  0  0  0  0  0  0  0  0  0  0
   -5.0991   23.7439  -29.4579 H   0  0  0  0  0  0  0  0  0  0  0  0
    0.4889   23.8086  -26.5377 H   0  0  0  0  0  0  0  0  0  0  0  0
   -1.1213   23.1828  -27.0637 H   0  0  0  0  0  0  0  0  0  0  0  0
    0.7199   22.1185  -28.9232 H   0  0  0  0  0  0  0  0  0  0  0  0
    1.5266   21.9644  -27.3181 H   0  0  0  0  0  0  0  0  0  0  0  0
    1.1329   19.4229  -28.1238 H   0  0  0  0  0  0  0  0  0  0  0  0
   -0.3669   17.4874  -27.6373 H   0  0  0  0  0  0  0  0  0  0  0  0
   -2.6724   17.8792  -26.7633 H   0  0  0  0  0  0  0  0  0  0  0  0
   -3.4763   20.2078  -26.3596 H   0  0  0  0  0  0  0  0  0  0  0  0
   -1.9857   22.1497  -26.8424 H   0  0  0  0  0  0  0  0  0  0  0  0
   -6.4989   22.8124  -29.7993 H   0  0  0  0  0  0  0  0  0  0  0  0
   -8.0635   23.6195  -30.1987 H   0  0  0  0  0  0  0  0  0  0  0  0
   -8.0869   21.1659  -30.6879 H   0  0  0  0  0  0  0  0  0  0  0  0
   -8.3472   22.1879  -32.1552 H   0  0  0  0  0  0  0  0  0  0  0  0
   -8.1955   19.3437  -31.1399 H   0  0  0  0  0  0  0  0  0  0  0  0
   -8.3815   16.9938  -31.9457 H   0  0  0  0  0  0  0  0  0  0  0  0
  1  2  1  0
  2  3  1  0
  3  4  2  0
  4  5  1  0
  5  6  2  0
  6  7  1  0
  7  8  1  0
  8  9  1  0
  9 10  1  0
 10 11  1  0
 11 12  1  0
 12 13  1  0
 13 14  1  0
 14 15  2  0
 14 16  1  0
 16 17  2  0
 16 18  1  0
 18 19  1  0
 19 20  1  0
 20 21  1  0
 21 22  2  0
 22 23  1  0
 23 24  2  0
 24 25  1  0
 25 26  2  0
 10 27  1  0
 27 28  1  0
  6 29  1  0
 29 30  2  0
 30  3  1  0
 28  7  1  0
 26 21  1  0
  1 31  1  0
  1 32  1  0
  1 33  1  0
  4 34  1  0
  5 35  1  0
  8 36  1  0
  8 37  1  0
  9 38  1  0
  9 39  1  0
 11 40  1  0
 11 41  1  0
 12 42  1  0
 12 43  1  0
 19 44  1  0
 19 45  1  0
 20 46  1  0
 20 47  1  0
 22 48  1  0
 23 49  1  0
 24 50  1  0
 25 51  1  0
 26 52  1  0
 27 53  1  0
 27 54  1  0
 28 55  1  0
 28 56  1  0
 29 57  1  0
 30 58  1  0
M  CHG  2  13  -1  18  -1
M  END
>  <UniqueID>  (38) 
38

>  <SMILES>  (38) 
COc1ccc(N2CCN(CC[N-]C(=O)C(=O)[N-]CCc3ccccc3)CC2)cc1

>  <Energy>  (38) 
68.42180982275207

>  <Genealogy>  (38) 
COc1ccc(N2CCN(CC[N-]C(=O)C(=O)[N-]CCc3ccccc3)CC2)cc1 (protonated)
COc1ccc(N2CCN(CC[N-]C(=O)C(=O)[N-]CCc3ccccc3)CC2)cc1 (3D coordinates assigned)
COc1ccc(N2CCN(CC[N-]C(=O)C(=O)[N-]CCc3ccccc3)CC2)cc1 (nonaromatic ring conformer: 68.42180982275207 kcal/mol)

>  <smiles>  (38) 
COc1ccc(N2CCN(CCNC(=O)C(=O)NCCc3ccccc3)CC2)cc1

>  <score_type>  (38) 
oracle

>  <origin>  (38) 
adg

>  <m_score__min__energy>  (38) 
-10.94

>  <m_primary>  (38) 
energy

$$$$
38:0
     RDKit          3D

 50 52  0  0  0  0  0  0  0  0999 V2000
   -8.8620   18.1490  -31.5730 C   0  0  0  0  0  0  0  0  0  0  0  0
   -9.3750   19.0470  -32.6940 C   0  0  0  0  0  0  0  0  0  0  0  0
   -8.8770   20.4250  -32.5310 N   0  0  0  0  0  0  0  0  0  0  0  0
   -9.8540   21.5030  -32.3000 C   0  0  0  0  0  0  0  0  0  0  0  0
   -9.8580   21.9250  -30.8330 C   0  0  0  0  0  0  0  0  0  0  0  0
   -7.4460   20.6650  -32.4760 C   0  0  0  0  0  0  0  0  0  0  0  0
   -6.5970   19.7890  -33.0770 N   0  0  0  0  0  0  0  0  0  0  0  0
   -5.2550   19.9720  -33.0330 C   0  0  0  0  0  0  0  0  0  0  0  0
   -4.3840   19.0040  -33.6410 N   0  0  0  0  0  0  0  0  0  0  0  0
   -3.0670   19.1400  -33.6480 N   0  0  0  0  0  0  0  0  0  0  0  0
   -2.5510   18.0940  -34.3210 C   0  0  0  0  0  0  0  0  0  0  0  0
   -1.0960   17.9250  -34.6080 C   0  0  0  0  0  0  0  0  0  0  0  0
   -3.5630   17.2720  -34.7730 C   0  0  0  0  0  0  0  0  0  0  0  0
   -4.7170   17.8770  -34.3160 C   0  0  0  0  0  0  0  0  0  0  0  0
   -6.1050   17.3740  -34.5690 C   0  0  0  0  0  0  0  0  0  0  0  0
   -4.7540   21.0380  -32.3620 N   0  0  0  0  0  0  0  0  0  0  0  0
   -5.5770   21.9230  -31.7440 C   0  0  0  0  0  0  0  0  0  0  0  0
   -5.0080   23.0090  -30.9780 N   0  0  0  0  0  0  0  0  0  0  0  0
   -5.7140   24.3000  -30.9830 C   0  0  0  0  0  0  0  0  0  0  0  0
   -4.9660   25.3740  -30.1990 C   0  0  0  0  0  0  0  0  0  0  0  0
   -3.5880   25.2960  -30.4690 O   0  0  0  0  0  0  0  0  0  0  0  0
   -3.0680   24.1470  -29.8390 C   0  0  0  0  0  0  0  0  0  0  0  0
   -3.6430   22.8530  -30.4370 C   0  0  0  0  0  0  0  0  0  0  0  0
   -6.9270   21.7420  -31.8150 N   0  0  0  0  0  0  0  0  0  0  0  0
   -9.1168   18.5950  -30.6003 H   0  0  0  0  0  0  0  0  0  0  0  0
   -9.3295   17.1567  -31.6551 H   0  0  0  0  0  0  0  0  0  0  0  0
   -7.7698   18.0477  -31.6551 H   0  0  0  0  0  0  0  0  0  0  0  0
   -9.0294   18.6507  -33.6602 H   0  0  0  0  0  0  0  0  0  0  0  0
  -10.4743   19.0630  -32.6575 H   0  0  0  0  0  0  0  0  0  0  0  0
   -9.5894   22.3695  -32.9239 H   0  0  0  0  0  0  0  0  0  0  0  0
  -10.8560   21.1335  -32.5636 H   0  0  0  0  0  0  0  0  0  0  0  0
   -9.8495   21.0297  -30.1939 H   0  0  0  0  0  0  0  0  0  0  0  0
   -8.9656   22.5332  -30.6240 H   0  0  0  0  0  0  0  0  0  0  0  0
  -10.7618   22.5162  -30.6240 H   0  0  0  0  0  0  0  0  0  0  0  0
   -0.5405   17.8605  -33.6608 H   0  0  0  0  0  0  0  0  0  0  0  0
   -0.9412   17.0028  -35.1874 H   0  0  0  0  0  0  0  0  0  0  0  0
   -0.7340   18.7871  -35.1874 H   0  0  0  0  0  0  0  0  0  0  0  0
   -3.4715   16.3474  -35.3619 H   0  0  0  0  0  0  0  0  0  0  0  0
   -6.6095   17.1912  -33.6087 H   0  0  0  0  0  0  0  0  0  0  0  0
   -6.6684   18.1251  -35.1420 H   0  0  0  0  0  0  0  0  0  0  0  0
   -6.0564   16.4363  -35.1420 H   0  0  0  0  0  0  0  0  0  0  0  0
   -5.8273   24.6368  -32.0240 H   0  0  0  0  0  0  0  0  0  0  0  0
   -6.6907   24.1504  -30.4996 H   0  0  0  0  0  0  0  0  0  0  0  0
   -5.3391   26.3660  -30.4935 H   0  0  0  0  0  0  0  0  0  0  0  0
   -5.1322   25.2166  -29.1231 H   0  0  0  0  0  0  0  0  0  0  0  0
   -1.9748   24.1393  -29.9605 H   0  0  0  0  0  0  0  0  0  0  0  0
   -3.3498   24.1850  -28.7764 H   0  0  0  0  0  0  0  0  0  0  0  0
   -2.9816   22.5220  -31.2513 H   0  0  0  0  0  0  0  0  0  0  0  0
   -3.7009   22.1177  -29.6209 H   0  0  0  0  0  0  0  0  0  0  0  0
   -7.5530   22.4460  -31.3750 H   0  0  0  0  0  0  0  0  0  0  0  0
  1  2  1  0
  2  3  1  0
  3  4  1  0
  4  5  1  0
  3  6  1  0
  6  7  2  0
  7  8  1  0
  8  9  1  0
  9 10  1  0
 10 11  2  0
 11 12  1  0
 11 13  1  0
 13 14  2  0
 14 15  1  0
  8 16  2  0
 16 17  1  0
 17 18  1  0
 18 19  1  0
 19 20  1  0
 20 21  1  0
 21 22  1  0
 22 23  1  0
 17 24  2  0
 24  6  1  0
 14  9  1  0
 23 18  1  0
  1 25  1  0
  1 26  1  0
  1 27  1  0
  2 28  1  0
  2 29  1  0
  4 30  1  0
  4 31  1  0
  5 32  1  0
  5 33  1  0
  5 34  1  0
 12 35  1  0
 12 36  1  0
 12 37  1  0
 13 38  1  0
 15 39  1  0
 15 40  1  0
 15 41  1  0
 19 42  1  0
 19 43  1  0
 20 44  1  0
 20 45  1  0
 22 46  1  0
 22 47  1  0
 23 48  1  0
 23 49  1  0
 24 50  1  0
M  CHG  1  24   1
M  END
>  <UniqueID>  (39) 
39

>  <SMILES>  (39) 
CCN(CC)c1nc(-n2nc(C)cc2C)nc(N2CCOCC2)[nH+]1

>  <Energy>  (39) 
80.02438730020774

>  <Genealogy>  (39) 
CCN(CC)c1nc(-n2nc(C)cc2C)nc(N2CCOCC2)[nH+]1 (protonated)
CCN(CC)c1nc(-n2nc(C)cc2C)nc(N2CCOCC2)[nH+]1 (3D coordinates assigned)
CCN(CC)c1nc(-n2nc(C)cc2C)nc(N2CCOCC2)[nH+]1 (nonaromatic ring conformer: 80.02438730020774 kcal/mol)

>  <smiles>  (39) 
CCN(CC)c1nc(N2CCOCC2)nc(-n2nc(C)cc2C)n1

>  <score_type>  (39) 
oracle

>  <origin>  (39) 
adg

>  <m_score__min__energy>  (39) 
-7.1200000000000001

>  <m_primary>  (39) 
energy

$$$$
39:0
     RDKit          3D

 37 39  0  0  0  0  0  0  0  0999 V2000
   -0.1010   23.6240  -28.9390 C   0  0  0  0  0  0  0  0  0  0  0  0
   -1.5750   23.8620  -28.8660 C   0  0  0  0  0  0  0  0  0  0  0  0
   -2.1640   24.2800  -27.6500 C   0  0  0  0  0  0  0  0  0  0  0  0
   -3.5540   24.4950  -27.6040 C   0  0  0  0  0  0  0  0  0  0  0  0
   -4.2390   24.9290  -26.3420 C   0  0  0  0  0  0  0  0  0  0  0  0
   -4.2530   24.2870  -28.7500 N   0  0  0  0  0  0  0  0  0  0  0  0
   -5.5480   24.4000  -28.9680 N   0  0  0  0  0  0  0  0  0  0  0  0
   -5.7310   24.0640  -30.2660 C   0  0  0  0  0  0  0  0  0  0  0  0
   -7.0700   23.9910  -30.9240 C   0  0  0  0  0  0  0  0  0  0  0  0
   -6.9110   23.4340  -32.6550 S   0  0  0  0  0  0  0  0  0  0  0  0
   -7.3920   21.7280  -32.3270 C   0  0  0  0  0  0  0  0  0  0  0  0
   -8.7010   21.4710  -31.8960 C   0  0  0  0  0  0  0  0  0  0  0  0
   -9.1100   20.1670  -31.6150 C   0  0  0  0  0  0  0  0  0  0  0  0
   -8.2170   19.1060  -31.7720 C   0  0  0  0  0  0  0  0  0  0  0  0
   -6.9140   19.3460  -32.2180 C   0  0  0  0  0  0  0  0  0  0  0  0
   -6.4910   20.6550  -32.5110 C   0  0  0  0  0  0  0  0  0  0  0  0
   -5.0870   20.8910  -32.9980 C   0  0  0  0  0  0  0  0  0  0  0  0
   -4.5690   23.7290  -30.8910 N   0  0  0  0  0  0  0  0  0  0  0  0
   -3.6810   23.8920  -29.8910 C   0  0  0  0  0  0  0  0  0  0  0  0
   -2.3490   23.6710  -29.9760 N   0  0  0  0  0  0  0  0  0  0  0  0
    0.3105   23.5576  -27.9211 H   0  0  0  0  0  0  0  0  0  0  0  0
    0.0924   22.6830  -29.4748 H   0  0  0  0  0  0  0  0  0  0  0  0
    0.3787   24.4563  -29.4748 H   0  0  0  0  0  0  0  0  0  0  0  0
   -1.5451   24.4347  -26.7539 H   0  0  0  0  0  0  0  0  0  0  0  0
   -3.6694   24.5681  -25.4729 H   0  0  0  0  0  0  0  0  0  0  0  0
   -4.2943   26.0273  -26.3138 H   0  0  0  0  0  0  0  0  0  0  0  0
   -5.2556   24.5099  -26.3138 H   0  0  0  0  0  0  0  0  0  0  0  0
   -6.2730   24.6740  -28.2690 H   0  0  0  0  0  0  0  0  0  0  0  0
   -7.7044   23.2808  -30.3733 H   0  0  0  0  0  0  0  0  0  0  0  0
   -7.5223   24.9937  -30.9160 H   0  0  0  0  0  0  0  0  0  0  0  0
   -9.4106   22.3032  -31.7785 H   0  0  0  0  0  0  0  0  0  0  0  0
  -10.1366   19.9751  -31.2696 H   0  0  0  0  0  0  0  0  0  0  0  0
   -8.5390   18.0791  -31.5444 H   0  0  0  0  0  0  0  0  0  0  0  0
   -6.2150   18.5056  -32.3406 H   0  0  0  0  0  0  0  0  0  0  0  0
   -4.4139   21.0042  -32.1354 H   0  0  0  0  0  0  0  0  0  0  0  0
   -4.7615   20.0350  -33.6073 H   0  0  0  0  0  0  0  0  0  0  0  0
   -5.0593   21.8064  -33.6073 H   0  0  0  0  0  0  0  0  0  0  0  0
  1  2  1  0
  2  3  1  0
  3  4  2  0
  4  5  1  0
  4  6  1  0
  6  7  1  0
  7  8  2  0
  8  9  1  0
  9 10  1  0
 10 11  1  0
 11 12  2  0
 12 13  1  0
 13 14  2  0
 14 15  1  0
 15 16  2  0
 16 17  1  0
  8 18  1  0
 18 19  2  0
 19 20  1  0
 20  2  2  0
 19  6  1  0
 16 11  1  0
  1 21  1  0
  1 22  1  0
  1 23  1  0
  3 24  1  0
  5 25  1  0
  5 26  1  0
  5 27  1  0
  7 28  1  0
  9 29  1  0
  9 30  1  0
 12 31  1  0
 13 32  1  0
 14 33  1  0
 15 34  1  0
 17 35  1  0
 17 36  1  0
 17 37  1  0
M  CHG  1   7   1
M  END
>  <UniqueID>  (40) 
40

>  <SMILES>  (40) 
Cc1cc(C)n2[nH+]c(CSc3ccccc3C)nc2n1

>  <Energy>  (40) 
72.79729757901198

>  <Genealogy>  (40) 
Cc1cc(C)n2[nH+]c(CSc3ccccc3C)nc2n1 (protonated)
Cc1cc(C)n2[nH+]c(CSc3ccccc3C)nc2n1 (3D coordinates assigned)
Cc1cc(C)n2[nH+]c(CSc3ccccc3C)nc2n1 (optimized conformer: 72.79729757901198 kcal/mol)

>  <smiles>  (40) 
Cc1cc(C)n2nc(CSc3ccccc3C)nc2n1

>  <score_type>  (40) 
oracle

>  <origin>  (40) 
adg

>  <m_score__min__energy>  (40) 
-7.5199999999999996

>  <m_primary>  (40) 
energy

$$$$
40:0
     RDKit          3D

 45 47  0  0  0  0  0  0  0  0999 V2000
   -6.5024   25.9865  -30.9669 H   0  0  0  0  0  0  0  0  0  0  0  0
   -5.7540   25.1850  -30.8800 C   0  0  0  0  0  0  0  0  0  0  0  0
   -4.4890   25.4820  -30.4660 N   0  0  0  0  0  0  0  0  0  0  0  0
   -3.4900   24.5550  -30.3800 C   0  0  0  0  0  0  0  0  0  0  0  0
   -2.4320   24.8960  -29.6960 N   0  0  0  0  0  0  0  0  0  0  0  0
   -1.3190   24.0910  -29.2030 C   0  0  0  0  0  0  0  0  0  0  0  0
   -0.3845   24.6633  -29.2988 H   0  0  0  0  0  0  0  0  0  0  0  0
   -1.2511   23.1661  -29.7946 H   0  0  0  0  0  0  0  0  0  0  0  0
   -1.5480   23.7300  -27.7210 C   0  0  0  0  0  0  0  0  0  0  0  0
   -1.8947   24.6349  -27.2005 H   0  0  0  0  0  0  0  0  0  0  0  0
   -0.5857   23.3487  -27.3487 H   0  0  0  0  0  0  0  0  0  0  0  0
   -2.5400   22.6510  -27.4760 N   0  0  0  0  0  0  0  0  0  0  0  0
   -3.9700   23.0260  -27.5110 C   0  0  0  0  0  0  0  0  0  0  0  0
   -4.5363   22.3495  -26.8539 H   0  0  0  0  0  0  0  0  0  0  0  0
   -4.3303   22.9445  -28.5471 H   0  0  0  0  0  0  0  0  0  0  0  0
   -4.1660   24.4640  -27.0370 C   0  0  0  0  0  0  0  0  0  0  0  0
   -4.1696   24.4903  -25.9373 H   0  0  0  0  0  0  0  0  0  0  0  0
   -3.3449   25.0902  -27.4161 H   0  0  0  0  0  0  0  0  0  0  0  0
   -5.1247   24.8476  -27.4161 H   0  0  0  0  0  0  0  0  0  0  0  0
   -2.2320   21.3560  -28.1220 C   0  0  0  0  0  0  0  0  0  0  0  0
   -2.7174   21.3366  -29.1089 H   0  0  0  0  0  0  0  0  0  0  0  0
   -1.1364   21.2846  -28.1902 H   0  0  0  0  0  0  0  0  0  0  0  0
   -2.7090   20.1400  -27.3260 C   0  0  0  0  0  0  0  0  0  0  0  0
   -2.6263   20.3509  -26.2496 H   0  0  0  0  0  0  0  0  0  0  0  0
   -3.7580   19.9253  -27.5780 H   0  0  0  0  0  0  0  0  0  0  0  0
   -2.0858   19.2693  -27.5780 H   0  0  0  0  0  0  0  0  0  0  0  0
   -3.7740   23.2510  -30.8620 C   0  0  0  0  0  0  0  0  0  0  0  0
   -3.0200   22.1280  -31.2170 C   0  0  0  0  0  0  0  0  0  0  0  0
   -1.6510   21.9330  -31.4420 C   0  0  0  0  0  0  0  0  0  0  0  0
   -0.9303   22.7428  -31.2555 H   0  0  0  0  0  0  0  0  0  0  0  0
   -1.2180   20.6810  -31.9110 C   0  0  0  0  0  0  0  0  0  0  0  0
   -0.1426   20.4885  -32.0393 H   0  0  0  0  0  0  0  0  0  0  0  0
   -2.1500   19.6710  -32.2180 C   0  0  0  0  0  0  0  0  0  0  0  0
   -1.7982   18.6849  -32.5554 H   0  0  0  0  0  0  0  0  0  0  0  0
   -3.5260   19.9180  -32.0950 C   0  0  0  0  0  0  0  0  0  0  0  0
   -4.2651   19.1526  -32.3741 H   0  0  0  0  0  0  0  0  0  0  0  0
   -3.9300   21.1610  -31.6090 C   0  0  0  0  0  0  0  0  0  0  0  0
   -5.1890   21.6310  -31.5950 N   0  0  0  0  0  0  0  0  0  0  0  0
   -6.0450   21.1330  -31.9280 H   0  0  0  0  0  0  0  0  0  0  0  0
   -5.0840   22.9130  -31.1880 C   0  0  0  0  0  0  0  0  0  0  0  0
   -6.1080   23.8640  -31.1960 C   0  0  0  0  0  0  0  0  0  0  0  0
   -7.5040   23.5170  -31.6230 C   0  0  0  0  0  0  0  0  0  0  0  0
   -8.1315   23.3610  -30.7331 H   0  0  0  0  0  0  0  0  0  0  0  0
   -7.9186   24.3394  -32.2244 H   0  0  0  0  0  0  0  0  0  0  0  0
   -7.4853   22.5962  -32.2244 H   0  0  0  0  0  0  0  0  0  0  0  0
  1  2  1  0
  2  3  1  0
  3  4  1  0
  4  5  2  0
  5  6  1  0
  6  7  1  0
  6  8  1  0
  6  9  1  0
  9 10  1  0
  9 11  1  0
  9 12  1  0
 12 13  1  0
 13 14  1  0
 13 15  1  0
 13 16  1  0
 16 17  1  0
 16 18  1  0
 16 19  1  0
 12 20  1  0
 20 21  1  0
 20 22  1  0
 20 23  1  0
 23 24  1  0
 23 25  1  0
 23 26  1  0
  4 27  1  0
 27 28  1  0
 28 29  2  0
 29 30  1  0
 29 31  1  0
 31 32  1  0
 31 33  2  0
 33 34  1  0
 33 35  1  0
 35 36  1  0
 35 37  2  0
 37 38  1  0
 38 39  1  0
 38 40  1  0
 40 41  1  0
 41 42  1  0
 42 43  1  0
 42 44  1  0
 42 45  1  0
 41  2  2  0
 40 27  2  0
 37 28  1  0
M  CHG  1   3  -1
M  END
>  <UniqueID>  (41) 
41

>  <SMILES>  (41) 
CCN(CC)CC/N=c1/[n-]cc(C)c2[nH]c3ccccc3c12

>  <Energy>  (41) 
111.06668649892765

>  <Genealogy>  (41) 
CCN(CC)CCN=c1[n-]cc(C)c2[nH]c3ccccc3c12 (protonated)
CCN(CC)CC/N=c1/[n-]cc(C)c2[nH]c3ccccc3c12 (cis-trans isomerization)
CCN(CC)CC/N=c1/[n-]cc(C)c2[nH]c3ccccc3c12 (3D coordinates assigned)
CCN(CC)CC/N=c1/[n-]cc(C)c2[nH]c3ccccc3c12 (optimized conformer: 111.06668649892765 kcal/mol)

>  <smiles>  (41) 
CCN(CC)CCN=c1[nH]cc(C)c2[nH]c3ccccc3c12

>  <score_type>  (41) 
oracle

>  <origin>  (41) 
adg

>  <m_score__min__energy>  (41) 
-8.2799999999999994

>  <m_primary>  (41) 
energy

$$$$
41:0
     RDKit          3D

 40 42  0  0  0  0  0  0  0  0999 V2000
   -5.8000   18.5070  -34.0510 C   0  0  0  0  0  0  0  0  0  0  0  0
   -6.7690   19.2990  -33.2230 C   0  0  0  0  0  0  0  0  0  0  0  0
   -7.8680   18.6680  -32.6260 C   0  0  0  0  0  0  0  0  0  0  0  0
   -8.7540   19.3990  -31.8310 C   0  0  0  0  0  0  0  0  0  0  0  0
   -8.5500   20.7710  -31.6100 C   0  0  0  0  0  0  0  0  0  0  0  0
   -9.5220   21.5420  -30.7590 C   0  0  0  0  0  0  0  0  0  0  0  0
   -7.4250   21.4000  -32.1850 C   0  0  0  0  0  0  0  0  0  0  0  0
   -7.0900   23.1510  -31.9260 S   0  0  0  0  0  0  0  0  0  0  0  0
   -5.3240   23.0050  -32.3460 C   0  0  0  0  0  0  0  0  0  0  0  0
   -4.5050   23.2500  -31.1230 C   0  0  0  0  0  0  0  0  0  0  0  0
   -4.1720   22.2960  -30.1740 C   0  0  0  0  0  0  0  0  0  0  0  0
   -3.3760   22.9010  -29.2790 N   0  0  0  0  0  0  0  0  0  0  0  0
   -2.7700   22.4330  -28.1550 C   0  0  0  0  0  0  0  0  0  0  0  0
   -2.9420   21.0090  -27.7130 C   0  0  0  0  0  0  0  0  0  0  0  0
   -1.9810   23.3350  -27.4200 C   0  0  0  0  0  0  0  0  0  0  0  0
   -1.8460   24.6620  -27.8830 C   0  0  0  0  0  0  0  0  0  0  0  0
   -1.0240   25.6450  -27.1130 C   0  0  0  0  0  0  0  0  0  0  0  0
   -2.4880   25.0620  -29.0200 N   0  0  0  0  0  0  0  0  0  0  0  0
   -3.2440   24.1670  -29.7020 C   0  0  0  0  0  0  0  0  0  0  0  0
   -3.9130   24.4360  -30.8390 N   0  0  0  0  0  0  0  0  0  0  0  0
   -6.5460   20.6620  -32.9890 C   0  0  0  0  0  0  0  0  0  0  0  0
   -5.1202   17.9513  -33.3884 H   0  0  0  0  0  0  0  0  0  0  0  0
   -6.3532   17.7991  -34.6858 H   0  0  0  0  0  0  0  0  0  0  0  0
   -5.2164   19.1900  -34.6858 H   0  0  0  0  0  0  0  0  0  0  0  0
   -8.0340   17.5921  -32.7839 H   0  0  0  0  0  0  0  0  0  0  0  0
   -9.6189   18.8958  -31.3741 H   0  0  0  0  0  0  0  0  0  0  0  0
   -9.2993   21.3653  -29.6964 H   0  0  0  0  0  0  0  0  0  0  0  0
   -9.4305   22.6158  -30.9792 H   0  0  0  0  0  0  0  0  0  0  0  0
  -10.5468   21.2085  -30.9792 H   0  0  0  0  0  0  0  0  0  0  0  0
   -5.1196   21.9942  -32.7289 H   0  0  0  0  0  0  0  0  0  0  0  0
   -5.0659   23.7457  -33.1172 H   0  0  0  0  0  0  0  0  0  0  0  0
   -4.4976   21.2454  -30.1577 H   0  0  0  0  0  0  0  0  0  0  0  0
   -2.9474   20.9643  -26.6139 H   0  0  0  0  0  0  0  0  0  0  0  0
   -3.8940   20.6172  -28.1006 H   0  0  0  0  0  0  0  0  0  0  0  0
   -2.1107   20.4018  -28.1006 H   0  0  0  0  0  0  0  0  0  0  0  0
   -1.4762   23.0117  -26.4977 H   0  0  0  0  0  0  0  0  0  0  0  0
   -1.1651   25.4763  -26.0352 H   0  0  0  0  0  0  0  0  0  0  0  0
    0.0379   25.5148  -27.3686 H   0  0  0  0  0  0  0  0  0  0  0  0
   -1.3401   26.6671  -27.3686 H   0  0  0  0  0  0  0  0  0  0  0  0
   -5.6735   21.1572  -33.4402 H   0  0  0  0  0  0  0  0  0  0  0  0
  1  2  1  0
  2  3  2  0
  3  4  1  0
  4  5  2  0
  5  6  1  0
  5  7  1  0
  7  8  1  0
  8  9  1  0
  9 10  1  0
 10 11  2  0
 11 12  1  0
 12 13  1  0
 13 14  1  0
 13 15  2  0
 15 16  1  0
 16 17  1  0
 16 18  2  0
 18 19  1  0
 19 20  2  0
  7 21  2  0
 21  2  1  0
 20 10  1  0
 19 12  1  0
  1 22  1  0
  1 23  1  0
  1 24  1  0
  3 25  1  0
  4 26  1  0
  6 27  1  0
  6 28  1  0
  6 29  1  0
  9 30  1  0
  9 31  1  0
 11 32  1  0
 14 33  1  0
 14 34  1  0
 14 35  1  0
 15 36  1  0
 17 37  1  0
 17 38  1  0
 17 39  1  0
 21 40  1  0
M  END
>  <UniqueID>  (42) 
42

>  <SMILES>  (42) 
Cc1ccc(C)c(SCc2cn3c(C)cc(C)nc3n2)c1

>  <Energy>  (42) 
69.98128390470221

>  <Genealogy>  (42) 
Cc1ccc(C)c(SCc2cn3c(C)cc(C)nc3n2)c1 (3D coordinates assigned)
Cc1ccc(C)c(SCc2cn3c(C)cc(C)nc3n2)c1 (optimized conformer: 69.98128390470221 kcal/mol)

>  <smiles>  (42) 
Cc1ccc(C)c(SCc2cn3c(C)cc(C)nc3n2)c1

>  <score_type>  (42) 
oracle

>  <origin>  (42) 
adg

>  <m_score__min__energy>  (42) 
-8.5899999999999999

>  <m_primary>  (42) 
energy

$$$$
42:0
     RDKit          3D

 37 39  0  0  0  0  0  0  0  0999 V2000
   -2.3040   24.1420  -29.2900 C   0  0  0  0  0  0  0  0  0  0  0  0
   -3.1630   24.9320  -30.1060 O   0  0  0  0  0  0  0  0  0  0  0  0
   -4.5340   24.6900  -30.2780 C   0  0  0  0  0  0  0  0  0  0  0  0
   -5.5160   25.3280  -29.4970 C   0  0  0  0  0  0  0  0  0  0  0  0
   -6.8680   25.0540  -29.7080 C   0  0  0  0  0  0  0  0  0  0  0  0
   -7.2550   24.1430  -30.6940 C   0  0  0  0  0  0  0  0  0  0  0  0
   -6.2930   23.4940  -31.4820 C   0  0  0  0  0  0  0  0  0  0  0  0
   -6.7240   22.5540  -32.4860 N   0  0  0  0  0  0  0  0  0  0  0  0
   -7.6290   21.4340  -32.2310 C   0  0  0  0  0  0  0  0  0  0  0  0
   -7.0500   20.1520  -32.7650 C   0  0  0  0  0  0  0  0  0  0  0  0
   -5.9370   20.1240  -33.5450 N   0  0  0  0  0  0  0  0  0  0  0  0
   -5.7740   18.8130  -33.7970 C   0  0  0  0  0  0  0  0  0  0  0  0
   -4.7880   18.2180  -34.5800 C   0  0  0  0  0  0  0  0  0  0  0  0
   -4.8240   16.8190  -34.7280 C   0  0  0  0  0  0  0  0  0  0  0  0
   -5.8370   16.0590  -34.0990 C   0  0  0  0  0  0  0  0  0  0  0  0
   -6.8190   16.6910  -33.3150 C   0  0  0  0  0  0  0  0  0  0  0  0
   -6.7490   18.0810  -33.1830 C   0  0  0  0  0  0  0  0  0  0  0  0
   -7.5540   18.9150  -32.5030 N   0  0  0  0  0  0  0  0  0  0  0  0
   -8.7620   18.5810  -31.7480 C   0  0  0  0  0  0  0  0  0  0  0  0
   -4.9300   23.7790  -31.2660 C   0  0  0  0  0  0  0  0  0  0  0  0
   -2.5202   24.3409  -28.2300 H   0  0  0  0  0  0  0  0  0  0  0  0
   -2.4721   23.0764  -29.5049 H   0  0  0  0  0  0  0  0  0  0  0  0
   -1.2561   24.3985  -29.5049 H   0  0  0  0  0  0  0  0  0  0  0  0
   -5.2168   26.0447  -28.7180 H   0  0  0  0  0  0  0  0  0  0  0  0
   -7.6314   25.5569  -29.0961 H   0  0  0  0  0  0  0  0  0  0  0  0
   -8.3229   23.9329  -30.8537 H   0  0  0  0  0  0  0  0  0  0  0  0
   -6.3780   22.6750  -33.4650 H   0  0  0  0  0  0  0  0  0  0  0  0
   -7.7857   21.3357  -31.1467 H   0  0  0  0  0  0  0  0  0  0  0  0
   -8.5855   21.6289  -32.7380 H   0  0  0  0  0  0  0  0  0  0  0  0
   -4.0073   18.8212  -35.0664 H   0  0  0  0  0  0  0  0  0  0  0  0
   -4.0596   16.3137  -35.3366 H   0  0  0  0  0  0  0  0  0  0  0  0
   -5.8572   14.9663  -34.2236 H   0  0  0  0  0  0  0  0  0  0  0  0
   -7.6142   16.1118  -32.8229 H   0  0  0  0  0  0  0  0  0  0  0  0
   -8.5489   18.6399  -30.6704 H   0  0  0  0  0  0  0  0  0  0  0  0
   -9.5620   19.2917  -32.0030 H   0  0  0  0  0  0  0  0  0  0  0  0
   -9.0833   17.5603  -32.0030 H   0  0  0  0  0  0  0  0  0  0  0  0
   -4.1669   23.2797  -31.8812 H   0  0  0  0  0  0  0  0  0  0  0  0
  1  2  1  0
  2  3  1  0
  3  4  2  0
  4  5  1  0
  5  6  2  0
  6  7  1  0
  7  8  1  0
  8  9  1  0
  9 10  1  0
 10 11  2  0
 11 12  1  0
 12 13  2  0
 13 14  1  0
 14 15  2  0
 15 16  1  0
 16 17  2  0
 17 18  1  0
 18 19  1  0
  7 20  2  0
 20  3  1  0
 18 10  1  0
 17 12  1  0
  1 21  1  0
  1 22  1  0
  1 23  1  0
  4 24  1  0
  5 25  1  0
  6 26  1  0
  8 27  1  0
  9 28  1  0
  9 29  1  0
 13 30  1  0
 14 31  1  0
 15 32  1  0
 16 33  1  0
 19 34  1  0
 19 35  1  0
 19 36  1  0
 20 37  1  0
M  END
>  <UniqueID>  (43) 
43

>  <SMILES>  (43) 
COc1cccc(NCc2nc3ccccc3n2C)c1

>  <Energy>  (43) 
74.67109967581108

>  <Genealogy>  (43) 
COc1cccc(NCc2nc3ccccc3n2C)c1 (3D coordinates assigned)
COc1cccc(NCc2nc3ccccc3n2C)c1 (optimized conformer: 74.67109967581108 kcal/mol)

>  <smiles>  (43) 
COc1cccc(NCc2nc3ccccc3n2C)c1

>  <score_type>  (43) 
oracle

>  <origin>  (43) 
adg

>  <m_score__min__energy>  (43) 
-7.9500000000000002

>  <m_primary>  (43) 
energy

$$$$
43:0
     RDKit          3D

 26 27  0  0  0  0  0  0  0  0999 V2000
   -3.2167   21.4469  -30.7458 H   0  0  0  0  0  0  0  0  0  0  0  0
   -3.2970   22.4550  -30.3130 C   0  0  0  0  0  0  0  0  0  0  0  0
   -2.2360   22.9630  -29.7520 N   0  0  0  0  0  0  0  0  0  0  0  0
   -2.1210   23.4920  -28.4220 C   0  0  0  0  0  0  0  0  0  0  0  0
   -1.2920   23.0350  -27.4140 C   0  0  0  0  0  0  0  0  0  0  0  0
   -0.6591   22.1360  -27.4488 H   0  0  0  0  0  0  0  0  0  0  0  0
   -1.4020   23.8930  -26.3820 N   0  0  0  0  0  0  0  0  0  0  0  0
   -0.6330   23.8660  -25.1450 C   0  0  0  0  0  0  0  0  0  0  0  0
   -1.3195   23.8901  -24.2859 H   0  0  0  0  0  0  0  0  0  0  0  0
   -0.0309   22.9462  -25.1075 H   0  0  0  0  0  0  0  0  0  0  0  0
    0.0321   24.7413  -25.1075 H   0  0  0  0  0  0  0  0  0  0  0  0
   -2.2430   24.8660  -26.7870 C   0  0  0  0  0  0  0  0  0  0  0  0
   -2.5256   25.7329  -26.1717 H   0  0  0  0  0  0  0  0  0  0  0  0
   -2.6950   24.6470  -28.0370 N   0  0  0  0  0  0  0  0  0  0  0  0
   -3.3300   25.2580  -28.5970 H   0  0  0  0  0  0  0  0  0  0  0  0
   -4.6020   23.1450  -30.4060 C   0  0  0  0  0  0  0  0  0  0  0  0
   -5.8050   22.4170  -30.3630 C   0  0  0  0  0  0  0  0  0  0  0  0
   -5.7781   21.3200  -30.2865 H   0  0  0  0  0  0  0  0  0  0  0  0
   -7.0340   23.0800  -30.4170 C   0  0  0  0  0  0  0  0  0  0  0  0
   -7.9707   22.5035  -30.3988 H   0  0  0  0  0  0  0  0  0  0  0  0
   -7.0740   24.4740  -30.4940 C   0  0  0  0  0  0  0  0  0  0  0  0
   -8.0419   24.9943  -30.5429 H   0  0  0  0  0  0  0  0  0  0  0  0
   -5.8850   25.2080  -30.5090 C   0  0  0  0  0  0  0  0  0  0  0  0
   -5.9197   26.3062  -30.5611 H   0  0  0  0  0  0  0  0  0  0  0  0
   -4.6500   24.5510  -30.4580 C   0  0  0  0  0  0  0  0  0  0  0  0
   -3.4780   25.2980  -30.4680 O   0  0  0  0  0  0  0  0  0  0  0  0
  1  2  1  0
  2  3  2  0
  3  4  1  0
  4  5  2  0
  5  6  1  0
  5  7  1  0
  7  8  1  0
  8  9  1  0
  8 10  1  0
  8 11  1  0
  7 12  1  0
 12 13  1  0
 12 14  2  0
 14 15  1  0
  2 16  1  0
 16 17  2  0
 17 18  1  0
 17 19  1  0
 19 20  1  0
 19 21  2  0
 21 22  1  0
 21 23  1  0
 23 24  1  0
 23 25  2  0
 25 26  1  0
 14  4  1  0
 25 16  1  0
M  CHG  2  14   1  26  -1
M  END
>  <UniqueID>  (44) 
44

>  <SMILES>  (44) 
Cn1c[nH+]c(/N=C\c2ccccc2[O-])c1

>  <Energy>  (44) 
66.9889203954172

>  <Genealogy>  (44) 
Cn1c[nH+]c(N=Cc2ccccc2[O-])c1 (protonated)
Cn1c[nH+]c(/N=C\c2ccccc2[O-])c1 (cis-trans isomerization)
Cn1c[nH+]c(/N=C\c2ccccc2[O-])c1 (3D coordinates assigned)
Cn1c[nH+]c(/N=C\c2ccccc2[O-])c1 (optimized conformer: 66.9889203954172 kcal/mol)

>  <smiles>  (44) 
Cn1cnc(N=Cc2ccccc2O)c1

>  <score_type>  (44) 
oracle

>  <origin>  (44) 
adg

>  <m_score__min__energy>  (44) 
-7.7300000000000004

>  <m_primary>  (44) 
energy

$$$$
44:0
     RDKit          3D

 27 28  0  0  0  0  0  0  0  0999 V2000
   -7.9920   20.8850  -31.4980 O   0  0  0  0  0  0  0  0  0  0  0  0
   -8.0130   21.8390  -30.6920 N   0  0  0  0  0  0  0  0  0  0  0  0
   -9.0680   21.9400  -29.8130 O   0  0  0  0  0  0  0  0  0  0  0  0
   -6.9550   22.8150  -30.6800 C   0  0  0  0  0  0  0  0  0  0  0  0
   -7.2480   24.1890  -30.6740 C   0  0  0  0  0  0  0  0  0  0  0  0
   -6.2190   25.1340  -30.6580 C   0  0  0  0  0  0  0  0  0  0  0  0
   -4.8800   24.7230  -30.6510 C   0  0  0  0  0  0  0  0  0  0  0  0
   -3.8590   25.6720  -30.6130 O   0  0  0  0  0  0  0  0  0  0  0  0
   -4.5710   23.3510  -30.6730 C   0  0  0  0  0  0  0  0  0  0  0  0
   -3.1630   22.8890  -30.6620 C   0  0  0  0  0  0  0  0  0  0  0  0
   -2.7930   21.8600  -31.5450 C   0  0  0  0  0  0  0  0  0  0  0  0
   -1.4990   21.3380  -31.5230 C   0  0  0  0  0  0  0  0  0  0  0  0
   -0.5600   21.8350  -30.6210 C   0  0  0  0  0  0  0  0  0  0  0  0
   -0.9070   22.8660  -29.7460 C   0  0  0  0  0  0  0  0  0  0  0  0
   -2.2000   23.4190  -29.7630 C   0  0  0  0  0  0  0  0  0  0  0  0
   -2.5010   24.5220  -28.8870 N   0  0  0  0  0  0  0  0  0  0  0  0
   -3.5200   24.5040  -28.1650 O   0  0  0  0  0  0  0  0  0  0  0  0
   -1.7600   25.6790  -28.9540 O   0  0  0  0  0  0  0  0  0  0  0  0
   -5.6100   22.4050  -30.6770 C   0  0  0  0  0  0  0  0  0  0  0  0
   -8.2959   24.5235  -30.6820 H   0  0  0  0  0  0  0  0  0  0  0  0
   -6.4618   26.2068  -30.6509 H   0  0  0  0  0  0  0  0  0  0  0  0
   -3.5180   26.0510  -29.7380 H   0  0  0  0  0  0  0  0  0  0  0  0
   -3.5294   21.4629  -32.2592 H   0  0  0  0  0  0  0  0  0  0  0  0
   -1.2197   20.5330  -32.2187 H   0  0  0  0  0  0  0  0  0  0  0  0
    0.4561   21.4143  -30.5985 H   0  0  0  0  0  0  0  0  0  0  0  0
   -0.1606   23.2502  -29.0352 H   0  0  0  0  0  0  0  0  0  0  0  0
   -5.3685   21.3318  -30.6778 H   0  0  0  0  0  0  0  0  0  0  0  0
  1  2  2  0
  2  3  1  0
  2  4  1  0
  4  5  2  0
  5  6  1  0
  6  7  2  0
  7  8  1  0
  7  9  1  0
  9 10  1  0
 10 11  2  0
 11 12  1  0
 12 13  2  0
 13 14  1  0
 14 15  2  0
 15 16  1  0
 16 17  2  0
 16 18  1  0
  9 19  2  0
 19  4  1  0
 15 10  1  0
  5 20  1  0
  6 21  1  0
  8 22  1  0
 11 23  1  0
 12 24  1  0
 13 25  1  0
 14 26  1  0
 19 27  1  0
M  CHG  4   2   1   3  -1  16   1  18  -1
M  END
>  <UniqueID>  (45) 
45

>  <SMILES>  (45) 
O=[N+]([O-])c1ccc(O)c(-c2ccccc2[N+](=O)[O-])c1

>  <Energy>  (45) 
40.45401991768773

>  <Genealogy>  (45) 
O=[N+]([O-])c1ccc(O)c(-c2ccccc2[N+](=O)[O-])c1 (3D coordinates assigned)
O=[N+]([O-])c1ccc(O)c(-c2ccccc2[N+](=O)[O-])c1 (optimized conformer: 40.45401991768773 kcal/mol)

>  <smiles>  (45) 
O=[N+]([O-])c1ccc(O)c(-c2ccccc2[N+](=O)[O-])c1

>  <score_type>  (45) 
oracle

>  <origin>  (45) 
adg

>  <m_score__min__energy>  (45) 
-7.6399999999999997

>  <m_primary>  (45) 
energy

$$$$
45:0
     RDKit          3D

 45 48  0  0  0  0  0  0  0  0999 V2000
   -2.4950   24.5380  -29.3230 C   0  0  0  0  0  0  0  0  0  0  0  0
   -3.4880   25.1010  -30.1730 O   0  0  0  0  0  0  0  0  0  0  0  0
   -4.7210   24.4950  -30.4650 C   0  0  0  0  0  0  0  0  0  0  0  0
   -5.9430   25.0720  -30.0930 C   0  0  0  0  0  0  0  0  0  0  0  0
   -7.1390   24.4340  -30.4040 C   0  0  0  0  0  0  0  0  0  0  0  0
   -7.1370   23.2100  -31.0920 C   0  0  0  0  0  0  0  0  0  0  0  0
   -8.3510   22.5930  -31.3920 C   0  0  0  0  0  0  0  0  0  0  0  0
   -8.3980   21.4040  -32.0580 N   0  0  0  0  0  0  0  0  0  0  0  0
   -9.7250   20.8240  -32.3320 C   0  0  0  0  0  0  0  0  0  0  0  0
   -7.2360   20.7770  -32.4580 C   0  0  0  0  0  0  0  0  0  0  0  0
   -7.2690   19.5490  -33.1480 C   0  0  0  0  0  0  0  0  0  0  0  0
   -6.0940   18.9180  -33.5490 C   0  0  0  0  0  0  0  0  0  0  0  0
   -6.1440   17.6990  -34.2320 C   0  0  0  0  0  0  0  0  0  0  0  0
   -4.9700   17.0700  -34.6330 C   0  0  0  0  0  0  0  0  0  0  0  0
   -3.7140   17.6430  -34.3600 C   0  0  0  0  0  0  0  0  0  0  0  0
   -2.5330   17.0030  -34.7660 O   0  0  0  0  0  0  0  0  0  0  0  0
   -2.4690   15.7410  -35.4230 C   0  0  0  0  0  0  0  0  0  0  0  0
   -3.6520   18.8820  -33.6650 C   0  0  0  0  0  0  0  0  0  0  0  0
   -2.4370   19.5250  -33.3510 O   0  0  0  0  0  0  0  0  0  0  0  0
   -1.3290   19.7360  -34.2210 C   0  0  0  0  0  0  0  0  0  0  0  0
   -4.8550   19.5170  -33.2600 C   0  0  0  0  0  0  0  0  0  0  0  0
   -4.8270   20.7100  -32.5910 N   0  0  0  0  0  0  0  0  0  0  0  0
   -5.9670   21.3600  -32.1800 C   0  0  0  0  0  0  0  0  0  0  0  0
   -5.9200   22.6040  -31.4820 C   0  0  0  0  0  0  0  0  0  0  0  0
   -4.7140   23.2760  -31.1510 C   0  0  0  0  0  0  0  0  0  0  0  0
   -2.7780   24.6984  -28.2722 H   0  0  0  0  0  0  0  0  0  0  0  0
   -2.4127   23.4589  -29.5199 H   0  0  0  0  0  0  0  0  0  0  0  0
   -1.5268   25.0215  -29.5199 H   0  0  0  0  0  0  0  0  0  0  0  0
   -5.9561   26.0309  -29.5542 H   0  0  0  0  0  0  0  0  0  0  0  0
   -8.0944   24.8921  -30.1085 H   0  0  0  0  0  0  0  0  0  0  0  0
   -9.2906   23.0756  -31.0849 H   0  0  0  0  0  0  0  0  0  0  0  0
  -10.2318   20.6025  -31.3812 H   0  0  0  0  0  0  0  0  0  0  0  0
  -10.3265   21.5413  -32.9097 H   0  0  0  0  0  0  0  0  0  0  0  0
   -9.6071   19.8953  -32.9097 H   0  0  0  0  0  0  0  0  0  0  0  0
   -8.2386   19.0811  -33.3736 H   0  0  0  0  0  0  0  0  0  0  0  0
   -7.1165   17.2351  -34.4533 H   0  0  0  0  0  0  0  0  0  0  0  0
   -5.0240   16.1119  -35.1707 H   0  0  0  0  0  0  0  0  0  0  0  0
   -2.4283   14.9383  -34.6720 H   0  0  0  0  0  0  0  0  0  0  0  0
   -3.3616   15.6095  -36.0522 H   0  0  0  0  0  0  0  0  0  0  0  0
   -1.5676   15.7005  -36.0522 H   0  0  0  0  0  0  0  0  0  0  0  0
   -0.4216   19.9088  -33.6238 H   0  0  0  0  0  0  0  0  0  0  0  0
   -1.1869   18.8488  -34.8555 H   0  0  0  0  0  0  0  0  0  0  0  0
   -1.5229   20.6134  -34.8555 H   0  0  0  0  0  0  0  0  0  0  0  0
   -3.8930   21.1170  -32.3980 H   0  0  0  0  0  0  0  0  0  0  0  0
   -3.7521   22.8278  -31.4406 H   0  0  0  0  0  0  0  0  0  0  0  0
  1  2  1  0
  2  3  1  0
  3  4  2  0
  4  5  1  0
  5  6  2  0
  6  7  1  0
  7  8  2  0
  8  9  1  0
  8 10  1  0
 10 11  2  0
 11 12  1  0
 12 13  2  0
 13 14  1  0
 14 15  2  0
 15 16  1  0
 16 17  1  0
 15 18  1  0
 18 19  1  0
 19 20  1  0
 18 21  2  0
 21 22  1  0
 22 23  2  0
 23 24  1  0
 24 25  2  0
 25  3  1  0
 24  6  1  0
 23 10  1  0
 21 12  1  0
  1 26  1  0
  1 27  1  0
  1 28  1  0
  4 29  1  0
  5 30  1  0
  7 31  1  0
  9 32  1  0
  9 33  1  0
  9 34  1  0
 11 35  1  0
 13 36  1  0
 14 37  1  0
 17 38  1  0
 17 39  1  0
 17 40  1  0
 20 41  1  0
 20 42  1  0
 20 43  1  0
 22 44  1  0
 25 45  1  0
M  CHG  2   8   1  22   1
M  END
>  <UniqueID>  (46) 
46

>  <SMILES>  (46) 
COc1ccc2c[n+](C)c3cc4ccc(OC)c(OC)c4[nH+]c3c2c1

>  <Energy>  (46) 
70.98275616843155

>  <Genealogy>  (46) 
COc1ccc2c[n+](C)c3cc4ccc(OC)c(OC)c4[nH+]c3c2c1 (protonated)
COc1ccc2c[n+](C)c3cc4ccc(OC)c(OC)c4[nH+]c3c2c1 (3D coordinates assigned)
COc1ccc2c[n+](C)c3cc4ccc(OC)c(OC)c4[nH+]c3c2c1 (optimized conformer: 70.98275616843155 kcal/mol)

>  <smiles>  (46) 
COc1ccc2c[n+](C)c3cc4ccc(OC)c(OC)c4nc3c2c1

>  <score_type>  (46) 
oracle

>  <origin>  (46) 
adg

>  <m_score__min__energy>  (46) 
-7.5599999999999996

>  <m_primary>  (46) 
energy

$$$$
46:0
     RDKit          3D

 38 40  0  0  0  0  0  0  0  0999 V2000
    2.3650   24.5490  -27.7660 C   0  0  0  0  0  0  0  0  0  0  0  0
    0.9770   24.8520  -27.8510 O   0  0  0  0  0  0  0  0  0  0  0  0
    0.2350   25.3270  -26.7630 C   0  0  0  0  0  0  0  0  0  0  0  0
    0.8480   26.0190  -25.7610 N   0  0  0  0  0  0  0  0  0  0  0  0
    0.1610   26.4940  -24.6890 C   0  0  0  0  0  0  0  0  0  0  0  0
   -1.2150   26.2860  -24.5940 C   0  0  0  0  0  0  0  0  0  0  0  0
   -1.8720   25.5840  -25.6040 C   0  0  0  0  0  0  0  0  0  0  0  0
   -1.1490   25.0810  -26.6980 C   0  0  0  0  0  0  0  0  0  0  0  0
   -1.8390   24.3600  -27.7880 C   0  0  0  0  0  0  0  0  0  0  0  0
   -2.5110   25.0860  -28.7210 N   0  0  0  0  0  0  0  0  0  0  0  0
   -3.1780   24.5040  -29.7540 C   0  0  0  0  0  0  0  0  0  0  0  0
   -3.8900   25.2920  -30.6640 O   0  0  0  0  0  0  0  0  0  0  0  0
   -5.2910   25.5140  -30.5600 C   0  0  0  0  0  0  0  0  0  0  0  0
   -3.1650   23.1030  -29.8730 C   0  0  0  0  0  0  0  0  0  0  0  0
   -3.8480   22.4180  -30.9380 N   0  0  0  0  0  0  0  0  0  0  0  0
   -3.2600   21.9160  -32.0430 C   0  0  0  0  0  0  0  0  0  0  0  0
   -4.2160   21.3810  -32.8830 C   0  0  0  0  0  0  0  0  0  0  0  0
   -5.4360   21.5800  -32.2670 C   0  0  0  0  0  0  0  0  0  0  0  0
   -5.1770   22.2270  -31.0760 C   0  0  0  0  0  0  0  0  0  0  0  0
   -2.4950   22.3760  -28.9380 N   0  0  0  0  0  0  0  0  0  0  0  0
   -1.8210   22.9530  -27.9080 C   0  0  0  0  0  0  0  0  0  0  0  0
   -1.0810   22.0680  -26.9480 C   0  0  0  0  0  0  0  0  0  0  0  0
    2.6621   24.4841  -26.7089 H   0  0  0  0  0  0  0  0  0  0  0  0
    2.5613   23.5869  -28.2617 H   0  0  0  0  0  0  0  0  0  0  0  0
    2.9444   25.3418  -28.2617 H   0  0  0  0  0  0  0  0  0  0  0  0
    0.6902   27.0427  -23.8960 H   0  0  0  0  0  0  0  0  0  0  0  0
   -1.7766   26.6721  -23.7305 H   0  0  0  0  0  0  0  0  0  0  0  0
   -2.9586   25.4239  -25.5438 H   0  0  0  0  0  0  0  0  0  0  0  0
   -5.5773   25.5594  -29.4989 H   0  0  0  0  0  0  0  0  0  0  0  0
   -5.5491   26.4642  -31.0503 H   0  0  0  0  0  0  0  0  0  0  0  0
   -5.8302   24.6901  -31.0503 H   0  0  0  0  0  0  0  0  0  0  0  0
   -2.1788   21.9307  -32.2450 H   0  0  0  0  0  0  0  0  0  0  0  0
   -4.0405   20.8921  -33.8527 H   0  0  0  0  0  0  0  0  0  0  0  0
   -6.4224   21.2809  -32.6511 H   0  0  0  0  0  0  0  0  0  0  0  0
   -5.9397   22.5403  -30.3479 H   0  0  0  0  0  0  0  0  0  0  0  0
   -1.3257   22.3607  -25.9163 H   0  0  0  0  0  0  0  0  0  0  0  0
   -1.3765   21.0212  -27.1120 H   0  0  0  0  0  0  0  0  0  0  0  0
    0.0016   22.1735  -27.1120 H   0  0  0  0  0  0  0  0  0  0  0  0
  1  2  1  0
  2  3  1  0
  3  4  2  0
  4  5  1  0
  5  6  2  0
  6  7  1  0
  7  8  2  0
  8  9  1  0
  9 10  2  0
 10 11  1  0
 11 12  1  0
 12 13  1  0
 11 14  2  0
 14 15  1  0
 15 16  1  0
 16 17  2  0
 17 18  1  0
 18 19  2  0
 14 20  1  0
 20 21  2  0
 21 22  1  0
  8  3  1  0
 21  9  1  0
 19 15  1  0
  1 23  1  0
  1 24  1  0
  1 25  1  0
  5 26  1  0
  6 27  1  0
  7 28  1  0
 13 29  1  0
 13 30  1  0
 13 31  1  0
 16 32  1  0
 17 33  1  0
 18 34  1  0
 19 35  1  0
 22 36  1  0
 22 37  1  0
 22 38  1  0
M  END
>  <UniqueID>  (47) 
47

>  <SMILES>  (47) 
COc1ncccc1-c1nc(OC)c(-n2cccc2)nc1C

>  <Energy>  (47) 
74.02742975496935

>  <Genealogy>  (47) 
COc1ncccc1-c1nc(OC)c(-n2cccc2)nc1C (3D coordinates assigned)
COc1ncccc1-c1nc(OC)c(-n2cccc2)nc1C (optimized conformer: 74.02742975496935 kcal/mol)

>  <smiles>  (47) 
COc1ncccc1-c1nc(OC)c(-n2cccc2)nc1C

>  <score_type>  (47) 
oracle

>  <origin>  (47) 
adg

>  <m_score__min__energy>  (47) 
-6.7999999999999998

>  <m_primary>  (47) 
energy

$$$$
47:0
     RDKit          3D

 52 56  0  0  0  0  0  0  0  0999 V2000
   -3.4210   16.7700  -35.1770 C   0  0  0  0  0  0  0  0  0  0  0  0
   -4.3010   17.6240  -34.3870 N   0  0  0  0  0  0  0  0  0  0  0  0
   -5.5700   17.3160  -34.1380 N   0  0  0  0  0  0  0  0  0  0  0  0
   -6.0670   18.3120  -33.3810 C   0  0  0  0  0  0  0  0  0  0  0  0
   -7.3570   18.4310  -32.8830 C   0  0  0  0  0  0  0  0  0  0  0  0
   -7.6720   19.5750  -32.1150 C   0  0  0  0  0  0  0  0  0  0  0  0
   -6.6860   20.5870  -31.8970 C   0  0  0  0  0  0  0  0  0  0  0  0
   -5.3830   20.4160  -32.4200 C   0  0  0  0  0  0  0  0  0  0  0  0
   -5.1130   19.2620  -33.1500 C   0  0  0  0  0  0  0  0  0  0  0  0
   -3.9850   18.8130  -33.8080 C   0  0  0  0  0  0  0  0  0  0  0  0
   -2.6700   19.4860  -33.8670 C   0  0  0  0  0  0  0  0  0  0  0  0
   -2.5770   20.8820  -33.7490 C   0  0  0  0  0  0  0  0  0  0  0  0
   -1.3300   21.5120  -33.7980 C   0  0  0  0  0  0  0  0  0  0  0  0
   -0.1600   20.7600  -33.9470 C   0  0  0  0  0  0  0  0  0  0  0  0
    1.0700   21.4310  -34.0050 O   0  0  0  0  0  0  0  0  0  0  0  0
    2.2560   20.9130  -34.5440 C   0  0  0  0  0  0  0  0  0  0  0  0
    2.9080   19.8770  -33.8640 C   0  0  0  0  0  0  0  0  0  0  0  0
    4.0850   19.3230  -34.3790 C   0  0  0  0  0  0  0  0  0  0  0  0
    4.6100   19.7950  -35.5840 C   0  0  0  0  0  0  0  0  0  0  0  0
    3.9570   20.8140  -36.2810 C   0  0  0  0  0  0  0  0  0  0  0  0
    2.7800   21.3700  -35.7680 C   0  0  0  0  0  0  0  0  0  0  0  0
   -0.2530   19.3630  -34.0810 C   0  0  0  0  0  0  0  0  0  0  0  0
   -1.4990   18.7320  -34.0320 C   0  0  0  0  0  0  0  0  0  0  0  0
   -6.9950   21.8240  -31.0730 C   0  0  0  0  0  0  0  0  0  0  0  0
   -8.1030   22.7620  -31.6300 C   0  0  0  0  0  0  0  0  0  0  0  0
   -9.4780   22.2530  -31.4610 N   0  0  0  0  0  0  0  0  0  0  0  0
   -9.7360   21.0060  -32.2100 C   0  0  0  0  0  0  0  0  0  0  0  0
   -9.0720   19.7600  -31.5950 C   0  0  0  0  0  0  0  0  0  0  0  0
   -2.7967   16.1642  -34.5037 H   0  0  0  0  0  0  0  0  0  0  0  0
   -4.0268   16.1064  -35.8115 H   0  0  0  0  0  0  0  0  0  0  0  0
   -2.7758   17.3954  -35.8115 H   0  0  0  0  0  0  0  0  0  0  0  0
   -8.1130   17.6568  -33.0804 H   0  0  0  0  0  0  0  0  0  0  0  0
   -4.6039   21.1746  -32.2543 H   0  0  0  0  0  0  0  0  0  0  0  0
   -3.4892   21.4825  -33.6174 H   0  0  0  0  0  0  0  0  0  0  0  0
   -1.2684   22.6074  -33.7188 H   0  0  0  0  0  0  0  0  0  0  0  0
    2.4923   19.4965  -32.9193 H   0  0  0  0  0  0  0  0  0  0  0  0
    4.5969   18.5157  -33.8348 H   0  0  0  0  0  0  0  0  0  0  0  0
    5.5391   19.3636  -35.9847 H   0  0  0  0  0  0  0  0  0  0  0  0
    4.3681   21.1796  -37.2335 H   0  0  0  0  0  0  0  0  0  0  0  0
    2.2626   22.1666  -36.3228 H   0  0  0  0  0  0  0  0  0  0  0  0
    0.6587   18.7646  -34.2250 H   0  0  0  0  0  0  0  0  0  0  0  0
   -1.5617   17.6376  -34.1234 H   0  0  0  0  0  0  0  0  0  0  0  0
   -7.3091   21.4909  -30.0728 H   0  0  0  0  0  0  0  0  0  0  0  0
   -6.0716   22.4218  -31.0826 H   0  0  0  0  0  0  0  0  0  0  0  0
   -8.0282   23.7285  -31.1102 H   0  0  0  0  0  0  0  0  0  0  0  0
   -7.9299   22.8416  -32.7134 H   0  0  0  0  0  0  0  0  0  0  0  0
  -10.1840   22.9860  -31.7040 H   0  0  0  0  0  0  0  0  0  0  0  0
   -9.6180   22.0380  -30.4460 H   0  0  0  0  0  0  0  0  0  0  0  0
  -10.8229   20.8394  -32.2414 H   0  0  0  0  0  0  0  0  0  0  0  0
   -9.3000   21.1388  -33.2111 H   0  0  0  0  0  0  0  0  0  0  0  0
   -9.0360   19.8757  -30.5017 H   0  0  0  0  0  0  0  0  0  0  0  0
   -9.6657   18.8767  -31.8730 H   0  0  0  0  0  0  0  0  0  0  0  0
  1  2  1  0
  2  3  1  0
  3  4  2  0
  4  5  1  0
  5  6  2  0
  6  7  1  0
  7  8  2  0
  8  9  1  0
  9 10  2  0
 10 11  1  0
 11 12  2  0
 12 13  1  0
 13 14  2  0
 14 15  1  0
 15 16  1  0
 16 17  2  0
 17 18  1  0
 18 19  2  0
 19 20  1  0
 20 21  2  0
 14 22  1  0
 22 23  2  0
  7 24  1  0
 24 25  1  0
 25 26  1  0
 26 27  1  0
 27 28  1  0
 10  2  1  0
 23 11  1  0
  9  4  1  0
 21 16  1  0
 28  6  1  0
  1 29  1  0
  1 30  1  0
  1 31  1  0
  5 32  1  0
  8 33  1  0
 12 34  1  0
 13 35  1  0
 17 36  1  0
 18 37  1  0
 19 38  1  0
 20 39  1  0
 21 40  1  0
 22 41  1  0
 23 42  1  0
 24 43  1  0
 24 44  1  0
 25 45  1  0
 25 46  1  0
 26 47  1  0
 26 48  1  0
 27 49  1  0
 27 50  1  0
 28 51  1  0
 28 52  1  0
M  CHG  1  26   1
M  END
>  <UniqueID>  (48) 
48

>  <SMILES>  (48) 
Cn1nc2cc3c(cc2c1-c1ccc(Oc2ccccc2)cc1)CC[NH2+]CC3

>  <Energy>  (48) 
117.44099095632001

>  <Genealogy>  (48) 
Cn1nc2cc3c(cc2c1-c1ccc(Oc2ccccc2)cc1)CC[NH2+]CC3 (protonated)
Cn1nc2cc3c(cc2c1-c1ccc(Oc2ccccc2)cc1)CC[NH2+]CC3 (3D coordinates assigned)
Cn1nc2cc3c(cc2c1-c1ccc(Oc2ccccc2)cc1)CC[NH2+]CC3 (nonaromatic ring conformer: 117.44099095632001 kcal/mol)

>  <smiles>  (48) 
Cn1nc2cc3c(cc2c1-c1ccc(Oc2ccccc2)cc1)CCNCC3

>  <score_type>  (48) 
oracle

>  <origin>  (48) 
adg

>  <m_score__min__energy>  (48) 
-7.3399999999999999

>  <m_primary>  (48) 
energy

$$$$
48:0
     RDKit          3D

 38 40  0  0  0  0  0  0  0  0999 V2000
   -6.8100   16.3080  -33.8180 C   0  0  0  0  0  0  0  0  0  0  0  0
   -6.8020   17.7450  -33.3850 C   0  0  0  0  0  0  0  0  0  0  0  0
   -5.8590   18.6360  -33.9150 C   0  0  0  0  0  0  0  0  0  0  0  0
   -5.8250   19.9670  -33.4860 C   0  0  0  0  0  0  0  0  0  0  0  0
   -6.7270   20.4260  -32.5070 C   0  0  0  0  0  0  0  0  0  0  0  0
   -6.7070   21.7950  -32.0510 N   0  0  0  0  0  0  0  0  0  0  0  0
   -5.6380   22.5260  -31.6590 C   0  0  0  0  0  0  0  0  0  0  0  0
   -6.1190   23.7720  -31.3200 C   0  0  0  0  0  0  0  0  0  0  0  0
   -5.3390   24.9160  -30.8340 C   0  0  0  0  0  0  0  0  0  0  0  0
   -5.9320   25.9620  -30.4550 O   0  0  0  0  0  0  0  0  0  0  0  0
   -3.9420   24.8340  -30.7980 O   0  0  0  0  0  0  0  0  0  0  0  0
   -3.2350   23.8720  -30.0200 C   0  0  0  0  0  0  0  0  0  0  0  0
   -2.9140   24.4310  -28.6610 C   0  0  0  0  0  0  0  0  0  0  0  0
   -1.6670   25.0270  -28.4070 C   0  0  0  0  0  0  0  0  0  0  0  0
   -1.3860   25.5620  -27.1450 C   0  0  0  0  0  0  0  0  0  0  0  0
   -2.3470   25.5080  -26.1330 C   0  0  0  0  0  0  0  0  0  0  0  0
   -3.5920   24.9220  -26.3790 C   0  0  0  0  0  0  0  0  0  0  0  0
   -3.8760   24.3860  -27.6390 C   0  0  0  0  0  0  0  0  0  0  0  0
   -7.4500   23.7630  -31.5130 N   0  0  0  0  0  0  0  0  0  0  0  0
   -7.7850   22.5620  -31.9550 N   0  0  0  0  0  0  0  0  0  0  0  0
   -7.6550   19.5200  -31.9650 C   0  0  0  0  0  0  0  0  0  0  0  0
   -7.6890   18.1900  -32.3950 C   0  0  0  0  0  0  0  0  0  0  0  0
   -6.8136   15.6577  -32.9308 H   0  0  0  0  0  0  0  0  0  0  0  0
   -7.7093   16.1115  -34.4203 H   0  0  0  0  0  0  0  0  0  0  0  0
   -5.9130   16.1015  -34.4203 H   0  0  0  0  0  0  0  0  0  0  0  0
   -5.1417   18.2868  -34.6724 H   0  0  0  0  0  0  0  0  0  0  0  0
   -5.0878   20.6605  -33.9168 H   0  0  0  0  0  0  0  0  0  0  0  0
   -4.5909   22.1914  -31.6188 H   0  0  0  0  0  0  0  0  0  0  0  0
   -3.8566   22.9719  -29.9042 H   0  0  0  0  0  0  0  0  0  0  0  0
   -2.2954   23.6188  -30.5329 H   0  0  0  0  0  0  0  0  0  0  0  0
   -0.9092   25.0731  -29.2030 H   0  0  0  0  0  0  0  0  0  0  0  0
   -0.4076   26.0254  -26.9498 H   0  0  0  0  0  0  0  0  0  0  0  0
   -2.1238   25.9273  -25.1408 H   0  0  0  0  0  0  0  0  0  0  0  0
   -4.3484   24.8825  -25.5814 H   0  0  0  0  0  0  0  0  0  0  0  0
   -4.8572   23.9271  -27.8304 H   0  0  0  0  0  0  0  0  0  0  0  0
   -8.1200   24.5470  -31.3530 H   0  0  0  0  0  0  0  0  0  0  0  0
   -8.3620   19.8610  -31.1944 H   0  0  0  0  0  0  0  0  0  0  0  0
   -8.4146   17.4902  -31.9547 H   0  0  0  0  0  0  0  0  0  0  0  0
  1  2  1  0
  2  3  2  0
  3  4  1  0
  4  5  2  0
  5  6  1  0
  6  7  1  0
  7  8  2  0
  8  9  1  0
  9 10  2  0
  9 11  1  0
 11 12  1  0
 12 13  1  0
 13 14  2  0
 14 15  1  0
 15 16  2  0
 16 17  1  0
 17 18  2  0
  8 19  1  0
 19 20  2  0
  5 21  1  0
 21 22  2  0
 22  2  1  0
 20  6  1  0
 18 13  1  0
  1 23  1  0
  1 24  1  0
  1 25  1  0
  3 26  1  0
  4 27  1  0
  7 28  1  0
 12 29  1  0
 12 30  1  0
 14 31  1  0
 15 32  1  0
 16 33  1  0
 17 34  1  0
 18 35  1  0
 19 36  1  0
 21 37  1  0
 22 38  1  0
M  CHG  1  19   1
M  END
>  <UniqueID>  (49) 
49

>  <SMILES>  (49) 
Cc1ccc(-n2cc(C(=O)OCc3ccccc3)[nH+]n2)cc1

>  <Energy>  (49) 
74.77741522989314

>  <Genealogy>  (49) 
Cc1ccc(-n2cc(C(=O)OCc3ccccc3)[nH+]n2)cc1 (protonated)
Cc1ccc(-n2cc(C(=O)OCc3ccccc3)[nH+]n2)cc1 (3D coordinates assigned)
Cc1ccc(-n2cc(C(=O)OCc3ccccc3)[nH+]n2)cc1 (optimized conformer: 74.77741522989314 kcal/mol)

>  <smiles>  (49) 
Cc1ccc(-n2cc(C(=O)OCc3ccccc3)nn2)cc1

>  <score_type>  (49) 
oracle

>  <origin>  (49) 
adg

>  <m_score__min__energy>  (49) 
-8.0500000000000007

>  <m_primary>  (49) 
energy

$$$$
