0:0
     RDKit          3D

 36 37  0  0  0  0  0  0  0  0999 V2000
   -0.3430   24.4310  -27.8690 C   0  0  0  0  0  0  0  0  0  0  0  0
   -1.3170   25.5900  -28.0580 C   0  0  0  0  0  0  0  0  0  0  0  0
   -2.2440   25.2920  -29.0860 O   0  0  0  0  0  0  0  0  0  0  0  0
   -2.3470   23.8960  -29.2990 C   0  0  0  0  0  0  0  0  0  0  0  0
   -3.6420   23.3610  -28.6840 C   0  0  0  0  0  0  0  0  0  0  0  0
   -4.6000   24.4550  -28.5050 N   0  0  0  0  0  0  0  0  0  0  0  0
   -5.2880   24.8900  -30.0400 S   0  0  0  0  0  0  0  0  0  0  0  0
   -6.4220   25.8550  -29.8300 O   0  0  0  0  0  0  0  0  0  0  0  0
   -4.2400   25.5650  -30.8790 O   0  0  0  0  0  0  0  0  0  0  0  0
   -5.8620   23.4520  -30.8840 C   0  0  0  0  0  0  0  0  0  0  0  0
   -4.9960   22.7180  -31.7060 C   0  0  0  0  0  0  0  0  0  0  0  0
   -5.4590   21.5930  -32.3930 C   0  0  0  0  0  0  0  0  0  0  0  0
   -6.7960   21.1910  -32.2680 C   0  0  0  0  0  0  0  0  0  0  0  0
   -7.2730   20.0630  -32.9540 C   0  0  0  0  0  0  0  0  0  0  0  0
   -8.6110   19.6760  -32.8230 C   0  0  0  0  0  0  0  0  0  0  0  0
   -9.4790   20.4090  -32.0100 C   0  0  0  0  0  0  0  0  0  0  0  0
   -9.0160   21.5340  -31.3210 C   0  0  0  0  0  0  0  0  0  0  0  0
   -7.6770   21.9330  -31.4430 C   0  0  0  0  0  0  0  0  0  0  0  0
   -7.2010   23.0610  -30.7580 C   0  0  0  0  0  0  0  0  0  0  0  0
   -0.1916   24.2508  -26.7945 H   0  0  0  0  0  0  0  0  0  0  0  0
   -0.7552   23.5254  -28.3381 H   0  0  0  0  0  0  0  0  0  0  0  0
    0.6200   24.6811  -28.3381 H   0  0  0  0  0  0  0  0  0  0  0  0
   -1.8613   25.7632  -27.1179 H   0  0  0  0  0  0  0  0  0  0  0  0
   -0.7506   26.4905  -28.3378 H   0  0  0  0  0  0  0  0  0  0  0  0
   -2.3471   23.6926  -30.3800 H   0  0  0  0  0  0  0  0  0  0  0  0
   -1.4906   23.3964  -28.8226 H   0  0  0  0  0  0  0  0  0  0  0  0
   -4.0761   22.6020  -29.3515 H   0  0  0  0  0  0  0  0  0  0  0  0
   -3.4187   22.9122  -27.7048 H   0  0  0  0  0  0  0  0  0  0  0  0
   -4.0760   25.2930  -28.1610 H   0  0  0  0  0  0  0  0  0  0  0  0
   -3.9462   23.0293  -31.8108 H   0  0  0  0  0  0  0  0  0  0  0  0
   -4.7721   21.0209  -33.0340 H   0  0  0  0  0  0  0  0  0  0  0  0
   -6.5937   19.4825  -33.5955 H   0  0  0  0  0  0  0  0  0  0  0  0
   -8.9809   18.7914  -33.3621 H   0  0  0  0  0  0  0  0  0  0  0  0
  -10.5301   20.1000  -31.9116 H   0  0  0  0  0  0  0  0  0  0  0  0
   -9.7034   22.1075  -30.6818 H   0  0  0  0  0  0  0  0  0  0  0  0
   -7.8828   23.6412  -30.1188 H   0  0  0  0  0  0  0  0  0  0  0  0
  1  2  1  0
  2  3  1  0
  3  4  1  0
  4  5  1  0
  5  6  1  0
  6  7  1  0
  7  8  2  0
  7  9  2  0
  7 10  1  0
 10 11  2  0
 11 12  1  0
 12 13  2  0
 13 14  1  0
 14 15  2  0
 15 16  1  0
 16 17  2  0
 17 18  1  0
 18 19  2  0
 19 10  1  0
 18 13  1  0
  1 20  1  0
  1 21  1  0
  1 22  1  0
  2 23  1  0
  2 24  1  0
  4 25  1  0
  4 26  1  0
  5 27  1  0
  5 28  1  0
  6 29  1  0
 11 30  1  0
 12 31  1  0
 14 32  1  0
 15 33  1  0
 16 34  1  0
 17 35  1  0
 19 36  1  0
M  END
>  <UniqueID>  (1) 
1

>  <SMILES>  (1) 
CCOCCNS(=O)(=O)c1ccc2ccccc2c1

>  <Energy>  (1) 
34.75778159778897

>  <Genealogy>  (1) 
CCOCCNS(=O)(=O)c1ccc2ccccc2c1 (3D coordinates assigned)
CCOCCNS(=O)(=O)c1ccc2ccccc2c1 (optimized conformer: 34.75778159778897 kcal/mol)

>  <smiles>  (1) 
CCOCCNS(=O)(=O)c1ccc2ccccc2c1

>  <score_type>  (1) 
oracle

>  <origin>  (1) 
adg

>  <m_score__min__energy>  (1) 
-8.9199999999999999

>  <m_primary>  (1) 
energy

$$$$
1:0
     RDKit          3D

 41 44  0  0  0  0  0  0  0  0999 V2000
   -7.9780   18.2370  -32.3450 Cl  0  0  0  0  0  0  0  0  0  0  0  0
   -8.0990   19.9610  -32.0360 C   0  0  0  0  0  0  0  0  0  0  0  0
   -9.3200   20.6170  -32.2110 C   0  0  0  0  0  0  0  0  0  0  0  0
   -9.4170   21.9880  -31.9660 C   0  0  0  0  0  0  0  0  0  0  0  0
   -8.2940   22.7080  -31.5440 C   0  0  0  0  0  0  0  0  0  0  0  0
   -7.0590   22.0580  -31.3640 C   0  0  0  0  0  0  0  0  0  0  0  0
   -5.8520   22.7950  -30.9190 C   0  0  0  0  0  0  0  0  0  0  0  0
   -5.2230   22.6320  -29.7380 N   0  0  0  0  0  0  0  0  0  0  0  0
   -4.2040   23.5140  -29.8140 C   0  0  0  0  0  0  0  0  0  0  0  0
   -3.1870   23.7430  -28.7580 C   0  0  0  0  0  0  0  0  0  0  0  0
   -2.9760   22.8090  -27.7270 C   0  0  0  0  0  0  0  0  0  0  0  0
   -2.0110   23.0430  -26.7430 C   0  0  0  0  0  0  0  0  0  0  0  0
   -1.2420   24.2170  -26.7630 C   0  0  0  0  0  0  0  0  0  0  0  0
   -0.2410   24.4570  -25.7550 N   0  0  0  0  0  0  0  0  0  0  0  0
   -0.5740   25.2230  -24.5460 C   0  0  0  0  0  0  0  0  0  0  0  0
    0.6250   26.0780  -24.0730 C   0  0  0  0  0  0  0  0  0  0  0  0
    1.8250   25.8220  -24.7820 O   0  0  0  0  0  0  0  0  0  0  0  0
    2.0530   24.4320  -24.8650 C   0  0  0  0  0  0  0  0  0  0  0  0
    1.0750   23.8160  -25.8670 C   0  0  0  0  0  0  0  0  0  0  0  0
   -1.4450   25.1470  -27.7930 C   0  0  0  0  0  0  0  0  0  0  0  0
   -2.4080   24.9130  -28.7790 C   0  0  0  0  0  0  0  0  0  0  0  0
   -4.2210   24.1780  -30.9890 N   0  0  0  0  0  0  0  0  0  0  0  0
   -5.2460   23.7090  -31.6380 O   0  0  0  0  0  0  0  0  0  0  0  0
   -6.9730   20.6760  -31.6140 C   0  0  0  0  0  0  0  0  0  0  0  0
  -10.2048   20.0534  -32.5418 H   0  0  0  0  0  0  0  0  0  0  0  0
  -10.3787   22.5035  -32.1051 H   0  0  0  0  0  0  0  0  0  0  0  0
   -8.3770   23.7879  -31.3519 H   0  0  0  0  0  0  0  0  0  0  0  0
   -5.4640   21.9820  -28.9600 H   0  0  0  0  0  0  0  0  0  0  0  0
   -3.5753   21.8871  -27.6950 H   0  0  0  0  0  0  0  0  0  0  0  0
   -1.8530   22.3010  -25.9465 H   0  0  0  0  0  0  0  0  0  0  0  0
   -1.4230   25.8871  -24.7654 H   0  0  0  0  0  0  0  0  0  0  0  0
   -0.8309   24.5134  -23.7457 H   0  0  0  0  0  0  0  0  0  0  0  0
    0.3661   27.1394  -24.2012 H   0  0  0  0  0  0  0  0  0  0  0  0
    0.8116   25.8142  -23.0215 H   0  0  0  0  0  0  0  0  0  0  0  0
    3.0849   24.2486  -25.1991 H   0  0  0  0  0  0  0  0  0  0  0  0
    1.9023   23.9751  -23.8758 H   0  0  0  0  0  0  0  0  0  0  0  0
    1.4624   23.9586  -26.8866 H   0  0  0  0  0  0  0  0  0  0  0  0
    0.9696   22.7427  -25.6503 H   0  0  0  0  0  0  0  0  0  0  0  0
   -0.8424   26.0667  -27.8252 H   0  0  0  0  0  0  0  0  0  0  0  0
   -2.5578   25.6522  -29.5797 H   0  0  0  0  0  0  0  0  0  0  0  0
   -6.0143   20.1544  -31.4768 H   0  0  0  0  0  0  0  0  0  0  0  0
  1  2  1  0
  2  3  2  0
  3  4  1  0
  4  5  2  0
  5  6  1  0
  6  7  1  0
  7  8  2  0
  8  9  1  0
  9 10  1  0
 10 11  2  0
 11 12  1  0
 12 13  2  0
 13 14  1  0
 14 15  1  0
 15 16  1  0
 16 17  1  0
 17 18  1  0
 18 19  1  0
 13 20  1  0
 20 21  2  0
  9 22  2  0
 22 23  1  0
  6 24  2  0
 24  2  1  0
 23  7  1  0
 21 10  1  0
 19 14  1  0
  3 25  1  0
  4 26  1  0
  5 27  1  0
  8 28  1  0
 11 29  1  0
 12 30  1  0
 15 31  1  0
 15 32  1  0
 16 33  1  0
 16 34  1  0
 18 35  1  0
 18 36  1  0
 19 37  1  0
 19 38  1  0
 20 39  1  0
 21 40  1  0
 24 41  1  0
M  CHG  1   8   1
M  END
>  <UniqueID>  (2) 
2

>  <SMILES>  (2) 
Clc1cccc(-c2[nH+]c(-c3ccc(N4CCOCC4)cc3)no2)c1

>  <Energy>  (2) 
92.65037865313943

>  <Genealogy>  (2) 
Clc1cccc(-c2[nH+]c(-c3ccc(N4CCOCC4)cc3)no2)c1 (protonated)
Clc1cccc(-c2[nH+]c(-c3ccc(N4CCOCC4)cc3)no2)c1 (3D coordinates assigned)
Clc1cccc(-c2[nH+]c(-c3ccc(N4CCOCC4)cc3)no2)c1 (nonaromatic ring conformer: 92.65037865313943 kcal/mol)

>  <smiles>  (2) 
Clc1cccc(-c2nc(-c3ccc(N4CCOCC4)cc3)no2)c1

>  <score_type>  (2) 
oracle

>  <origin>  (2) 
adg

>  <m_score__min__energy>  (2) 
-8.0600000000000005

>  <m_primary>  (2) 
energy

$$$$
2:0
     RDKit          3D

 54 57  0  0  0  0  0  0  0  0999 V2000
   -4.7920   24.4890  -29.9820 C   0  0  0  0  0  0  0  0  0  0  0  0
   -4.7300   23.0240  -29.5480 C   0  0  0  0  0  0  0  0  0  0  0  0
   -3.5350   22.3630  -30.1110 N   0  0  0  0  0  0  0  0  0  0  0  0
   -3.1960   22.6830  -31.5110 C   0  0  0  0  0  0  0  0  0  0  0  0
   -3.3590   21.4640  -32.4330 C   0  0  0  0  0  0  0  0  0  0  0  0
   -4.4460   21.6630  -33.4080 N   0  0  0  0  0  0  0  0  0  0  0  0
   -5.6010   20.8490  -33.0550 C   0  0  0  0  0  0  0  0  0  0  0  0
   -5.5950   19.4470  -33.2880 C   0  0  0  0  0  0  0  0  0  0  0  0
   -4.4340   18.7710  -33.7460 C   0  0  0  0  0  0  0  0  0  0  0  0
   -4.4720   17.4190  -34.0770 C   0  0  0  0  0  0  0  0  0  0  0  0
   -5.6600   16.7090  -33.9690 C   0  0  0  0  0  0  0  0  0  0  0  0
   -6.8020   17.3320  -33.4670 C   0  0  0  0  0  0  0  0  0  0  0  0
   -6.7800   18.6910  -33.0570 C   0  0  0  0  0  0  0  0  0  0  0  0
   -7.8760   19.2790  -32.4550 N   0  0  0  0  0  0  0  0  0  0  0  0
   -8.9770   18.4320  -31.9310 C   0  0  0  0  0  0  0  0  0  0  0  0
   -7.9260   20.6480  -32.2800 C   0  0  0  0  0  0  0  0  0  0  0  0
   -9.1220   21.2970  -31.8730 C   0  0  0  0  0  0  0  0  0  0  0  0
   -9.1490   22.6620  -31.6020 C   0  0  0  0  0  0  0  0  0  0  0  0
   -7.9950   23.4210  -31.7370 C   0  0  0  0  0  0  0  0  0  0  0  0
   -6.8190   22.8280  -32.1890 C   0  0  0  0  0  0  0  0  0  0  0  0
   -6.7710   21.4480  -32.5130 C   0  0  0  0  0  0  0  0  0  0  0  0
   -2.7280   21.4360  -29.3170 C   0  0  0  0  0  0  0  0  0  0  0  0
   -3.1230   21.0430  -28.0090 C   0  0  0  0  0  0  0  0  0  0  0  0
   -2.3260   20.1900  -27.2420 C   0  0  0  0  0  0  0  0  0  0  0  0
   -1.1250   19.7040  -27.7520 C   0  0  0  0  0  0  0  0  0  0  0  0
   -0.7240   20.0550  -29.0420 C   0  0  0  0  0  0  0  0  0  0  0  0
   -1.5170   20.9010  -29.8220 C   0  0  0  0  0  0  0  0  0  0  0  0
   -4.8193   25.1343  -29.0916 H   0  0  0  0  0  0  0  0  0  0  0  0
   -3.9033   24.7312  -30.5833 H   0  0  0  0  0  0  0  0  0  0  0  0
   -5.6980   24.6553  -30.5833 H   0  0  0  0  0  0  0  0  0  0  0  0
   -4.6866   22.9742  -28.4500 H   0  0  0  0  0  0  0  0  0  0  0  0
   -5.6276   22.5071  -29.9183 H   0  0  0  0  0  0  0  0  0  0  0  0
   -3.8598   23.4864  -31.8630 H   0  0  0  0  0  0  0  0  0  0  0  0
   -2.1422   22.9966  -31.5435 H   0  0  0  0  0  0  0  0  0  0  0  0
   -2.4172   21.2993  -32.9770 H   0  0  0  0  0  0  0  0  0  0  0  0
   -3.6104   20.5927  -31.8104 H   0  0  0  0  0  0  0  0  0  0  0  0
   -4.7010   22.6730  -33.4700 H   0  0  0  0  0  0  0  0  0  0  0  0
   -4.1200   21.4440  -34.3760 H   0  0  0  0  0  0  0  0  0  0  0  0
   -3.4882   19.3245  -33.8411 H   0  0  0  0  0  0  0  0  0  0  0  0
   -3.5593   16.9128  -34.4246 H   0  0  0  0  0  0  0  0  0  0  0  0
   -5.7005   15.6545  -34.2796 H   0  0  0  0  0  0  0  0  0  0  0  0
   -7.7379   16.7595  -33.3871 H   0  0  0  0  0  0  0  0  0  0  0  0
   -8.9588   18.4460  -30.8312 H   0  0  0  0  0  0  0  0  0  0  0  0
   -9.9416   18.8231  -32.2868 H   0  0  0  0  0  0  0  0  0  0  0  0
   -8.8463   17.3994  -32.2868 H   0  0  0  0  0  0  0  0  0  0  0  0
  -10.0458   20.7089  -31.7698 H   0  0  0  0  0  0  0  0  0  0  0  0
  -10.0862   23.1397  -31.2804 H   0  0  0  0  0  0  0  0  0  0  0  0
   -8.0093   24.4920  -31.4867 H   0  0  0  0  0  0  0  0  0  0  0  0
   -5.9116   23.4404  -32.2966 H   0  0  0  0  0  0  0  0  0  0  0  0
   -4.0710   21.4165  -27.5946 H   0  0  0  0  0  0  0  0  0  0  0  0
   -2.6485   19.9010  -26.2308 H   0  0  0  0  0  0  0  0  0  0  0  0
   -0.4931   19.0444  -27.1391 H   0  0  0  0  0  0  0  0  0  0  0  0
    0.2210   19.6637  -29.4468 H   0  0  0  0  0  0  0  0  0  0  0  0
   -1.1964   21.1553  -30.8430 H   0  0  0  0  0  0  0  0  0  0  0  0
  1  2  1  0
  2  3  1  0
  3  4  1  0
  4  5  1  0
  5  6  1  0
  6  7  1  0
  7  8  1  0
  8  9  2  0
  9 10  1  0
 10 11  2  0
 11 12  1  0
 12 13  2  0
 13 14  1  0
 14 15  1  0
 14 16  2  0
 16 17  1  0
 17 18  2  0
 18 19  1  0
 19 20  2  0
 20 21  1  0
  3 22  1  0
 22 23  2  0
 23 24  1  0
 24 25  2  0
 25 26  1  0
 26 27  2  0
 21  7  2  0
 27 22  1  0
 13  8  1  0
 21 16  1  0
  1 28  1  0
  1 29  1  0
  1 30  1  0
  2 31  1  0
  2 32  1  0
  4 33  1  0
  4 34  1  0
  5 35  1  0
  5 36  1  0
  6 37  1  0
  6 38  1  0
  9 39  1  0
 10 40  1  0
 11 41  1  0
 12 42  1  0
 15 43  1  0
 15 44  1  0
 15 45  1  0
 17 46  1  0
 18 47  1  0
 19 48  1  0
 20 49  1  0
 23 50  1  0
 24 51  1  0
 25 52  1  0
 26 53  1  0
 27 54  1  0
M  CHG  2   6   1  14   1
M  END
>  <UniqueID>  (3) 
3

>  <SMILES>  (3) 
CCN(CC[NH2+]c1c2ccccc2[n+](C)c2ccccc12)c1ccccc1

>  <Energy>  (3) 
85.30566116193094

>  <Genealogy>  (3) 
CCN(CC[NH2+]c1c2ccccc2[n+](C)c2ccccc12)c1ccccc1 (protonated)
CCN(CC[NH2+]c1c2ccccc2[n+](C)c2ccccc12)c1ccccc1 (3D coordinates assigned)
CCN(CC[NH2+]c1c2ccccc2[n+](C)c2ccccc12)c1ccccc1 (optimized conformer: 85.30566116193094 kcal/mol)

>  <smiles>  (3) 
CCN(CCNc1c2ccccc2[n+](C)c2ccccc12)c1ccccc1

>  <score_type>  (3) 
oracle

>  <origin>  (3) 
adg

>  <m_score__min__energy>  (3) 
-8.6099999999999994

>  <m_primary>  (3) 
energy

$$$$
3:0
     RDKit          3D

 46 49  0  0  0  0  0  0  0  0999 V2000
   -2.8110   17.5540  -34.2700 C   0  0  0  0  0  0  0  0  0  0  0  0
   -1.4110   17.8140  -34.2830 O   0  0  0  0  0  0  0  0  0  0  0  0
   -0.7280   18.5310  -33.2880 C   0  0  0  0  0  0  0  0  0  0  0  0
    0.5800   18.1470  -32.9730 C   0  0  0  0  0  0  0  0  0  0  0  0
    1.3010   18.8270  -31.9910 C   0  0  0  0  0  0  0  0  0  0  0  0
    0.7220   19.9020  -31.3120 C   0  0  0  0  0  0  0  0  0  0  0  0
   -0.5910   20.3090  -31.6120 C   0  0  0  0  0  0  0  0  0  0  0  0
   -1.2090   21.4520  -30.8940 C   0  0  0  0  0  0  0  0  0  0  0  0
   -2.5470   21.8030  -31.1320 C   0  0  0  0  0  0  0  0  0  0  0  0
   -3.1190   22.8890  -30.4540 C   0  0  0  0  0  0  0  0  0  0  0  0
   -4.5180   23.3070  -30.7020 C   0  0  0  0  0  0  0  0  0  0  0  0
   -5.5070   22.3220  -30.8770 C   0  0  0  0  0  0  0  0  0  0  0  0
   -6.8370   22.6830  -31.1080 C   0  0  0  0  0  0  0  0  0  0  0  0
   -7.1950   24.0310  -31.1750 C   0  0  0  0  0  0  0  0  0  0  0  0
   -6.2210   25.0200  -31.0200 C   0  0  0  0  0  0  0  0  0  0  0  0
   -4.8850   24.6680  -30.7950 C   0  0  0  0  0  0  0  0  0  0  0  0
   -3.9310   25.6760  -30.6940 O   0  0  0  0  0  0  0  0  0  0  0  0
   -2.3570   23.6050  -29.5810 N   0  0  0  0  0  0  0  0  0  0  0  0
   -1.0610   23.2900  -29.3120 C   0  0  0  0  0  0  0  0  0  0  0  0
   -0.3000   24.1270  -28.3560 C   0  0  0  0  0  0  0  0  0  0  0  0
    0.7430   23.5420  -27.6150 C   0  0  0  0  0  0  0  0  0  0  0  0
    1.4760   24.3010  -26.7000 C   0  0  0  0  0  0  0  0  0  0  0  0
    1.1840   25.6530  -26.5190 C   0  0  0  0  0  0  0  0  0  0  0  0
    0.1660   26.2540  -27.2610 C   0  0  0  0  0  0  0  0  0  0  0  0
   -0.5740   25.5030  -28.1880 C   0  0  0  0  0  0  0  0  0  0  0  0
   -1.5550   26.1300  -28.9560 O   0  0  0  0  0  0  0  0  0  0  0  0
   -0.4630   22.2090  -29.9750 C   0  0  0  0  0  0  0  0  0  0  0  0
   -1.3110   19.6160  -32.6040 C   0  0  0  0  0  0  0  0  0  0  0  0
   -3.1622   17.4888  -33.2296 H   0  0  0  0  0  0  0  0  0  0  0  0
   -3.3401   18.3692  -34.7852 H   0  0  0  0  0  0  0  0  0  0  0  0
   -3.0122   16.6031  -34.7852 H   0  0  0  0  0  0  0  0  0  0  0  0
    1.0435   17.3023  -33.5037 H   0  0  0  0  0  0  0  0  0  0  0  0
    2.3283   18.5158  -31.7507 H   0  0  0  0  0  0  0  0  0  0  0  0
    1.2959   20.4332  -30.5384 H   0  0  0  0  0  0  0  0  0  0  0  0
   -3.1472   21.2258  -31.8508 H   0  0  0  0  0  0  0  0  0  0  0  0
   -5.2309   21.2582  -30.8316 H   0  0  0  0  0  0  0  0  0  0  0  0
   -7.6030   21.9042  -31.2372 H   0  0  0  0  0  0  0  0  0  0  0  0
   -8.2435   24.3139  -31.3498 H   0  0  0  0  0  0  0  0  0  0  0  0
   -6.5053   26.0812  -31.0750 H   0  0  0  0  0  0  0  0  0  0  0  0
    0.9832   22.4780  -27.7574 H   0  0  0  0  0  0  0  0  0  0  0  0
    2.2851   23.8318  -26.1210 H   0  0  0  0  0  0  0  0  0  0  0  0
    1.7566   26.2461  -25.7907 H   0  0  0  0  0  0  0  0  0  0  0  0
   -0.0576   27.3216  -27.1187 H   0  0  0  0  0  0  0  0  0  0  0  0
   -2.0020   25.6620  -29.7350 H   0  0  0  0  0  0  0  0  0  0  0  0
    0.5884   21.9540  -29.7760 H   0  0  0  0  0  0  0  0  0  0  0  0
   -2.3384   19.9247  -32.8472 H   0  0  0  0  0  0  0  0  0  0  0  0
  1  2  1  0
  2  3  1  0
  3  4  2  0
  4  5  1  0
  5  6  2  0
  6  7  1  0
  7  8  1  0
  8  9  2  0
  9 10  1  0
 10 11  1  0
 11 12  2  0
 12 13  1  0
 13 14  2  0
 14 15  1  0
 15 16  2  0
 16 17  1  0
 10 18  2  0
 18 19  1  0
 19 20  1  0
 20 21  2  0
 21 22  1  0
 22 23  2  0
 23 24  1  0
 24 25  2  0
 25 26  1  0
 19 27  2  0
  7 28  2  0
 28  3  1  0
 27  8  1  0
 16 11  1  0
 25 20  1  0
  1 29  1  0
  1 30  1  0
  1 31  1  0
  4 32  1  0
  5 33  1  0
  6 34  1  0
  9 35  1  0
 12 36  1  0
 13 37  1  0
 14 38  1  0
 15 39  1  0
 21 40  1  0
 22 41  1  0
 23 42  1  0
 24 43  1  0
 26 44  1  0
 27 45  1  0
 28 46  1  0
M  CHG  1  17  -1
M  END
>  <UniqueID>  (4) 
4

>  <SMILES>  (4) 
COc1cccc(-c2cc(-c3ccccc3[O-])nc(-c3ccccc3O)c2)c1

>  <Energy>  (4) 
66.99787932230673

>  <Genealogy>  (4) 
COc1cccc(-c2cc(-c3ccccc3[O-])nc(-c3ccccc3O)c2)c1 (protonated)
COc1cccc(-c2cc(-c3ccccc3[O-])nc(-c3ccccc3O)c2)c1 (3D coordinates assigned)
COc1cccc(-c2cc(-c3ccccc3[O-])nc(-c3ccccc3O)c2)c1 (optimized conformer: 66.99787932230673 kcal/mol)

>  <smiles>  (4) 
COc1cccc(-c2cc(-c3ccccc3O)nc(-c3ccccc3O)c2)c1

>  <score_type>  (4) 
oracle

>  <origin>  (4) 
adg

>  <m_score__min__energy>  (4) 
-12.470000000000001

>  <m_primary>  (4) 
energy

$$$$
4:0
     RDKit          3D

 21 22  0  0  0  0  0  0  0  0999 V2000
   -5.3550   18.3040  -34.5830 C   0  0  0  0  0  0  0  0  0  0  0  0
   -5.6640   19.4940  -33.8620 O   0  0  0  0  0  0  0  0  0  0  0  0
   -6.7760   19.6490  -33.0190 C   0  0  0  0  0  0  0  0  0  0  0  0
   -7.6370   18.5740  -32.7190 C   0  0  0  0  0  0  0  0  0  0  0  0
   -8.7370   18.7570  -31.8770 C   0  0  0  0  0  0  0  0  0  0  0  0
   -8.9990   20.0100  -31.3230 C   0  0  0  0  0  0  0  0  0  0  0  0
   -8.1580   21.0880  -31.6090 C   0  0  0  0  0  0  0  0  0  0  0  0
   -8.4080   22.3110  -31.0720 N   0  0  0  0  0  0  0  0  0  0  0  0
   -7.6040   23.3730  -31.3360 C   0  0  0  0  0  0  0  0  0  0  0  0
   -6.5000   23.2100  -32.1740 C   0  0  0  0  0  0  0  0  0  0  0  0
   -6.2380   21.9910  -32.7180 N   0  0  0  0  0  0  0  0  0  0  0  0
   -7.0410   20.9150  -32.4590 C   0  0  0  0  0  0  0  0  0  0  0  0
   -5.1437   17.4901  -33.8739 H   0  0  0  0  0  0  0  0  0  0  0  0
   -6.2107   18.0260  -35.2158 H   0  0  0  0  0  0  0  0  0  0  0  0
   -4.4721   18.4775  -35.2158 H   0  0  0  0  0  0  0  0  0  0  0  0
   -7.4411   17.5818  -33.1517 H   0  0  0  0  0  0  0  0  0  0  0  0
   -9.3996   17.9088  -31.6499 H   0  0  0  0  0  0  0  0  0  0  0  0
   -9.8669   20.1491  -30.6616 H   0  0  0  0  0  0  0  0  0  0  0  0
   -7.8215   24.3557  -30.8921 H   0  0  0  0  0  0  0  0  0  0  0  0
   -5.8435   24.0648  -32.3940 H   0  0  0  0  0  0  0  0  0  0  0  0
   -5.4060   21.8990  -33.3420 H   0  0  0  0  0  0  0  0  0  0  0  0
  1  2  1  0
  2  3  1  0
  3  4  2  0
  4  5  1  0
  5  6  2  0
  6  7  1  0
  7  8  2  0
  8  9  1  0
  9 10  2  0
 10 11  1  0
 11 12  2  0
 12  3  1  0
 12  7  1  0
  1 13  1  0
  1 14  1  0
  1 15  1  0
  4 16  1  0
  5 17  1  0
  6 18  1  0
  9 19  1  0
 10 20  1  0
 11 21  1  0
M  CHG  1  11   1
M  END
>  <UniqueID>  (5) 
5

>  <SMILES>  (5) 
COc1cccc2ncc[nH+]c12

>  <Energy>  (5) 
25.410485188993203

>  <Genealogy>  (5) 
COc1cccc2ncc[nH+]c12 (protonated)
COc1cccc2ncc[nH+]c12 (3D coordinates assigned)
COc1cccc2ncc[nH+]c12 (optimized conformer: 25.410485188993203 kcal/mol)

>  <smiles>  (5) 
COc1cccc2nccnc12

>  <score_type>  (5) 
oracle

>  <origin>  (5) 
adg

>  <m_score__min__energy>  (5) 
-4.1799999999999997

>  <m_primary>  (5) 
energy

$$$$
5:0
     RDKit          3D

 46 48  0  0  0  0  0  0  0  0999 V2000
   -1.6690   20.8700  -31.8670 C   0  0  0  0  0  0  0  0  0  0  0  0
   -2.9510   21.5820  -31.8330 N   0  0  0  0  0  0  0  0  0  0  0  0
   -3.8630   21.4360  -32.9400 C   0  0  0  0  0  0  0  0  0  0  0  0
   -3.9020   22.3310  -33.8300 O   0  0  0  0  0  0  0  0  0  0  0  0
   -4.7600   20.2600  -33.0520 C   0  0  0  0  0  0  0  0  0  0  0  0
   -4.3500   19.1230  -33.7700 C   0  0  0  0  0  0  0  0  0  0  0  0
   -5.1910   18.0120  -33.8740 C   0  0  0  0  0  0  0  0  0  0  0  0
   -6.4510   18.0250  -33.2730 C   0  0  0  0  0  0  0  0  0  0  0  0
   -6.8830   19.1560  -32.5650 C   0  0  0  0  0  0  0  0  0  0  0  0
   -8.2480   19.1840  -31.9280 C   0  0  0  0  0  0  0  0  0  0  0  0
   -9.2000   19.9320  -32.7630 N   0  0  0  0  0  0  0  0  0  0  0  0
   -9.7320   21.1320  -32.0940 C   0  0  0  0  0  0  0  0  0  0  0  0
   -8.6360   22.0220  -31.5560 C   0  0  0  0  0  0  0  0  0  0  0  0
   -8.2250   21.9170  -30.2170 C   0  0  0  0  0  0  0  0  0  0  0  0
   -7.2000   22.7340  -29.7280 C   0  0  0  0  0  0  0  0  0  0  0  0
   -6.5790   23.6590  -30.5720 C   0  0  0  0  0  0  0  0  0  0  0  0
   -6.9840   23.7710  -31.9040 C   0  0  0  0  0  0  0  0  0  0  0  0
   -8.0070   22.9560  -32.3970 C   0  0  0  0  0  0  0  0  0  0  0  0
   -6.0380   20.2710  -32.4630 C   0  0  0  0  0  0  0  0  0  0  0  0
   -3.3120   22.4040  -30.7000 C   0  0  0  0  0  0  0  0  0  0  0  0
   -3.5410   21.8430  -29.4300 C   0  0  0  0  0  0  0  0  0  0  0  0
   -3.8740   22.6760  -28.3590 C   0  0  0  0  0  0  0  0  0  0  0  0
   -3.9780   24.0530  -28.5550 C   0  0  0  0  0  0  0  0  0  0  0  0
   -3.7450   24.5800  -29.8250 C   0  0  0  0  0  0  0  0  0  0  0  0
   -3.4220   23.7550  -30.8560 N   0  0  0  0  0  0  0  0  0  0  0  0
   -1.3275   20.6804  -30.8387 H   0  0  0  0  0  0  0  0  0  0  0  0
   -1.7951   19.9127  -32.3939 H   0  0  0  0  0  0  0  0  0  0  0  0
   -0.9230   21.4830  -32.3939 H   0  0  0  0  0  0  0  0  0  0  0  0
   -3.3616   19.1079  -34.2526 H   0  0  0  0  0  0  0  0  0  0  0  0
   -4.8590   17.1238  -34.4315 H   0  0  0  0  0  0  0  0  0  0  0  0
   -7.1068   17.1457  -33.3550 H   0  0  0  0  0  0  0  0  0  0  0  0
   -8.6096   18.1524  -31.8050 H   0  0  0  0  0  0  0  0  0  0  0  0
   -8.1702   19.6822  -30.9504 H   0  0  0  0  0  0  0  0  0  0  0  0
   -8.7160   20.2160  -33.6470 H   0  0  0  0  0  0  0  0  0  0  0  0
  -10.3295   21.7051  -32.8182 H   0  0  0  0  0  0  0  0  0  0  0  0
  -10.3437   20.7992  -31.2424 H   0  0  0  0  0  0  0  0  0  0  0  0
   -8.7110   21.1895  -29.5502 H   0  0  0  0  0  0  0  0  0  0  0  0
   -6.8825   22.6483  -28.6783 H   0  0  0  0  0  0  0  0  0  0  0  0
   -5.7712   24.2988  -30.1871 H   0  0  0  0  0  0  0  0  0  0  0  0
   -6.4970   24.5019  -32.5663 H   0  0  0  0  0  0  0  0  0  0  0  0
   -8.3210   23.0460  -33.4474 H   0  0  0  0  0  0  0  0  0  0  0  0
   -6.3779   21.1633  -31.9169 H   0  0  0  0  0  0  0  0  0  0  0  0
   -3.4584   20.7562  -29.2815 H   0  0  0  0  0  0  0  0  0  0  0  0
   -4.0539   22.2464  -27.3625 H   0  0  0  0  0  0  0  0  0  0  0  0
   -4.2408   24.7158  -27.7174 H   0  0  0  0  0  0  0  0  0  0  0  0
   -3.8227   25.6644  -29.9926 H   0  0  0  0  0  0  0  0  0  0  0  0
  1  2  1  0
  2  3  1  0
  3  4  2  0
  3  5  1  0
  5  6  2  0
  6  7  1  0
  7  8  2  0
  8  9  1  0
  9 10  1  0
 10 11  1  0
 11 12  1  0
 12 13  1  0
 13 14  2  0
 14 15  1  0
 15 16  2  0
 16 17  1  0
 17 18  2  0
  9 19  2  0
  2 20  1  0
 20 21  2  0
 21 22  1  0
 22 23  2  0
 23 24  1  0
 24 25  2  0
 19  5  1  0
 25 20  1  0
 18 13  1  0
  1 26  1  0
  1 27  1  0
  1 28  1  0
  6 29  1  0
  7 30  1  0
  8 31  1  0
 10 32  1  0
 10 33  1  0
 11 34  1  0
 12 35  1  0
 12 36  1  0
 14 37  1  0
 15 38  1  0
 16 39  1  0
 17 40  1  0
 18 41  1  0
 19 42  1  0
 21 43  1  0
 22 44  1  0
 23 45  1  0
 24 46  1  0
M  END
>  <UniqueID>  (6) 
6

>  <SMILES>  (6) 
CN(C(=O)c1cccc(CNCc2ccccc2)c1)c1ccccn1

>  <Energy>  (6) 
56.06024282742025

>  <Genealogy>  (6) 
CN(C(=O)c1cccc(CNCc2ccccc2)c1)c1ccccn1 (3D coordinates assigned)
CN(C(=O)c1cccc(CNCc2ccccc2)c1)c1ccccn1 (optimized conformer: 56.06024282742025 kcal/mol)

>  <smiles>  (6) 
CN(C(=O)c1cccc(CNCc2ccccc2)c1)c1ccccn1

>  <score_type>  (6) 
oracle

>  <origin>  (6) 
adg

>  <m_score__min__energy>  (6) 
-9.0199999999999996

>  <m_primary>  (6) 
energy

$$$$
6:0
     RDKit          3D

 58 61  0  0  0  0  0  0  0  0999 V2000
   -4.0210   16.6410  -34.8890 C   0  0  0  0  0  0  0  0  0  0  0  0
   -4.8020   16.9170  -33.7300 O   0  0  0  0  0  0  0  0  0  0  0  0
   -5.4240   18.1370  -33.4130 C   0  0  0  0  0  0  0  0  0  0  0  0
   -6.7710   18.0690  -33.0310 C   0  0  0  0  0  0  0  0  0  0  0  0
   -7.4820   19.2230  -32.6780 C   0  0  0  0  0  0  0  0  0  0  0  0
   -8.7770   19.1360  -32.2620 N   0  0  0  0  0  0  0  0  0  0  0  0
   -9.4660   20.2470  -31.8900 C   0  0  0  0  0  0  0  0  0  0  0  0
   -8.8790   21.4680  -31.9560 N   0  0  0  0  0  0  0  0  0  0  0  0
   -7.5980   21.6160  -32.3810 C   0  0  0  0  0  0  0  0  0  0  0  0
   -7.0630   22.9080  -32.4650 O   0  0  0  0  0  0  0  0  0  0  0  0
   -6.3580   23.5350  -31.4220 C   0  0  0  0  0  0  0  0  0  0  0  0
   -7.0770   24.2940  -30.4870 C   0  0  0  0  0  0  0  0  0  0  0  0
   -6.4090   24.9720  -29.4600 C   0  0  0  0  0  0  0  0  0  0  0  0
   -5.0150   24.9080  -29.3690 C   0  0  0  0  0  0  0  0  0  0  0  0
   -4.2850   24.1460  -30.2950 C   0  0  0  0  0  0  0  0  0  0  0  0
   -2.8570   24.0730  -30.2310 N   0  0  0  0  0  0  0  0  0  0  0  0
   -2.0870   24.4790  -29.0850 C   0  0  0  0  0  0  0  0  0  0  0  0
   -1.7060   25.6780  -28.9690 O   0  0  0  0  0  0  0  0  0  0  0  0
   -1.7160   23.4800  -28.0560 C   0  0  0  0  0  0  0  0  0  0  0  0
   -1.1120   23.8820  -26.8500 C   0  0  0  0  0  0  0  0  0  0  0  0
   -0.8310   22.9490  -25.8510 C   0  0  0  0  0  0  0  0  0  0  0  0
   -1.1430   21.6000  -26.0440 C   0  0  0  0  0  0  0  0  0  0  0  0
   -1.7170   21.1650  -27.2530 C   0  0  0  0  0  0  0  0  0  0  0  0
   -2.0970   19.7120  -27.4670 C   0  0  0  0  0  0  0  0  0  0  0  0
   -3.0890   19.2540  -26.3950 C   0  0  0  0  0  0  0  0  0  0  0  0
   -0.8660   18.7940  -27.5010 C   0  0  0  0  0  0  0  0  0  0  0  0
   -2.0120   22.1190  -28.2490 C   0  0  0  0  0  0  0  0  0  0  0  0
   -4.9570   23.4470  -31.3060 C   0  0  0  0  0  0  0  0  0  0  0  0
   -6.8450   20.4770  -32.7330 C   0  0  0  0  0  0  0  0  0  0  0  0
   -5.4960   20.5550  -33.1100 C   0  0  0  0  0  0  0  0  0  0  0  0
   -4.7720   19.3950  -33.4570 C   0  0  0  0  0  0  0  0  0  0  0  0
   -3.4260   19.4720  -33.8450 O   0  0  0  0  0  0  0  0  0  0  0  0
   -2.4990   20.4560  -33.3970 C   0  0  0  0  0  0  0  0  0  0  0  0
   -3.0244   16.2888  -34.5843 H   0  0  0  0  0  0  0  0  0  0  0  0
   -4.5170   15.8637  -35.4888 H   0  0  0  0  0  0  0  0  0  0  0  0
   -3.9185   17.5574  -35.4888 H   0  0  0  0  0  0  0  0  0  0  0  0
   -7.2781   17.0931  -33.0081 H   0  0  0  0  0  0  0  0  0  0  0  0
   -9.2560   18.2080  -32.2010 H   0  0  0  0  0  0  0  0  0  0  0  0
  -10.5029   20.1556  -31.5343 H   0  0  0  0  0  0  0  0  0  0  0  0
   -8.1727   24.3570  -30.5610 H   0  0  0  0  0  0  0  0  0  0  0  0
   -6.9814   25.5556  -28.7240 H   0  0  0  0  0  0  0  0  0  0  0  0
   -4.4903   25.4548  -28.5717 H   0  0  0  0  0  0  0  0  0  0  0  0
   -0.8592   24.9410  -26.6935 H   0  0  0  0  0  0  0  0  0  0  0  0
   -0.3634   23.2755  -24.9104 H   0  0  0  0  0  0  0  0  0  0  0  0
   -0.9382   20.8728  -25.2445 H   0  0  0  0  0  0  0  0  0  0  0  0
   -2.5823   19.6388  -28.4514 H   0  0  0  0  0  0  0  0  0  0  0  0
   -2.6672   19.4487  -25.3979 H   0  0  0  0  0  0  0  0  0  0  0  0
   -4.0328   19.8075  -26.5084 H   0  0  0  0  0  0  0  0  0  0  0  0
   -3.2799   18.1766  -26.5084 H   0  0  0  0  0  0  0  0  0  0  0  0
   -0.5537   18.5611  -26.4723 H   0  0  0  0  0  0  0  0  0  0  0  0
   -1.1183   17.8617  -28.0275 H   0  0  0  0  0  0  0  0  0  0  0  0
   -0.0444   19.3017  -28.0275 H   0  0  0  0  0  0  0  0  0  0  0  0
   -2.4801   21.7939  -29.1898 H   0  0  0  0  0  0  0  0  0  0  0  0
   -4.3875   22.8260  -32.0131 H   0  0  0  0  0  0  0  0  0  0  0  0
   -4.9958   21.5343  -33.1354 H   0  0  0  0  0  0  0  0  0  0  0  0
   -2.4840   20.4719  -32.2972 H   0  0  0  0  0  0  0  0  0  0  0  0
   -1.4947   20.2122  -33.7739 H   0  0  0  0  0  0  0  0  0  0  0  0
   -2.8022   21.4439  -33.7739 H   0  0  0  0  0  0  0  0  0  0  0  0
  1  2  1  0
  2  3  1  0
  3  4  2  0
  4  5  1  0
  5  6  2  0
  6  7  1  0
  7  8  2  0
  8  9  1  0
  9 10  1  0
 10 11  1  0
 11 12  2  0
 12 13  1  0
 13 14  2  0
 14 15  1  0
 15 16  1  0
 16 17  1  0
 17 18  2  0
 17 19  1  0
 19 20  2  0
 20 21  1  0
 21 22  2  0
 22 23  1  0
 23 24  1  0
 24 25  1  0
 24 26  1  0
 23 27  2  0
 15 28  2  0
  9 29  2  0
 29 30  1  0
 30 31  2  0
 31 32  1  0
 32 33  1  0
 31  3  1  0
 29  5  1  0
 28 11  1  0
 27 19  1  0
  1 34  1  0
  1 35  1  0
  1 36  1  0
  4 37  1  0
  6 38  1  0
  7 39  1  0
 12 40  1  0
 13 41  1  0
 14 42  1  0
 20 43  1  0
 21 44  1  0
 22 45  1  0
 24 46  1  0
 25 47  1  0
 25 48  1  0
 25 49  1  0
 26 50  1  0
 26 51  1  0
 26 52  1  0
 27 53  1  0
 28 54  1  0
 30 55  1  0
 33 56  1  0
 33 57  1  0
 33 58  1  0
M  CHG  2   6   1  16  -1
M  END
>  <UniqueID>  (7) 
7

>  <SMILES>  (7) 
COc1cc2[nH+]cnc(Oc3cccc([N-]C(=O)c4cccc(C(C)C)c4)c3)c2cc1OC

>  <Energy>  (7) 
80.24892469543215

>  <Genealogy>  (7) 
COc1cc2[nH+]cnc(Oc3cccc([N-]C(=O)c4cccc(C(C)C)c4)c3)c2cc1OC (protonated)
COc1cc2[nH+]cnc(Oc3cccc([N-]C(=O)c4cccc(C(C)C)c4)c3)c2cc1OC (3D coordinates assigned)
COc1cc2[nH+]cnc(Oc3cccc([N-]C(=O)c4cccc(C(C)C)c4)c3)c2cc1OC (optimized conformer: 80.24892469543215 kcal/mol)

>  <smiles>  (7) 
COc1cc2ncnc(Oc3cccc(NC(=O)c4cccc(C(C)C)c4)c3)c2cc1OC

>  <score_type>  (7) 
oracle

>  <origin>  (7) 
adg

>  <m_score__min__energy>  (7) 
-11.029999999999999

>  <m_primary>  (7) 
energy

$$$$
7:0
     RDKit          3D

 49 50  0  0  0  0  0  0  0  0999 V2000
   -3.2790   21.8390  -32.3200 C   0  0  0  0  0  0  0  0  0  0  0  0
   -4.1210   22.6830  -31.3520 C   0  0  0  0  0  0  0  0  0  0  0  0
   -3.3920   23.7900  -30.6840 N   0  0  0  0  0  0  0  0  0  0  0  0
   -2.2000   23.3780  -29.9120 C   0  0  0  0  0  0  0  0  0  0  0  0
   -1.7050   24.4430  -28.9300 C   0  0  0  0  0  0  0  0  0  0  0  0
   -4.2110   24.8320  -30.0250 C   0  0  0  0  0  0  0  0  0  0  0  0
   -5.4820   25.1510  -30.8310 C   0  0  0  0  0  0  0  0  0  0  0  0
   -6.7920   24.8270  -30.0900 C   0  0  0  0  0  0  0  0  0  0  0  0
   -7.2540   23.3770  -30.2960 C   0  0  0  0  0  0  0  0  0  0  0  0
   -7.9460   23.2080  -31.6560 C   0  0  0  0  0  0  0  0  0  0  0  0
   -7.0010   22.7030  -32.6620 N   0  0  0  0  0  0  0  0  0  0  0  0
   -7.0740   21.2680  -32.7240 C   0  0  0  0  0  0  0  0  0  0  0  0
   -8.0890   20.5720  -32.0490 C   0  0  0  0  0  0  0  0  0  0  0  0
   -8.1210   19.1750  -32.0940 C   0  0  0  0  0  0  0  0  0  0  0  0
   -9.0360   18.5590  -31.4820 O   0  0  0  0  0  0  0  0  0  0  0  0
   -7.1360   18.4760  -32.8160 C   0  0  0  0  0  0  0  0  0  0  0  0
   -7.1260   17.0710  -32.8960 C   0  0  0  0  0  0  0  0  0  0  0  0
   -6.1270   16.4170  -33.6230 C   0  0  0  0  0  0  0  0  0  0  0  0
   -5.1320   17.1540  -34.2720 C   0  0  0  0  0  0  0  0  0  0  0  0
   -5.1310   18.5490  -34.2000 C   0  0  0  0  0  0  0  0  0  0  0  0
   -6.1250   19.2150  -33.4750 C   0  0  0  0  0  0  0  0  0  0  0  0
   -6.1220   20.5720  -33.4060 N   0  0  0  0  0  0  0  0  0  0  0  0
   -2.6163   21.1747  -31.7460 H   0  0  0  0  0  0  0  0  0  0  0  0
   -3.9446   21.2346  -32.9537 H   0  0  0  0  0  0  0  0  0  0  0  0
   -2.6730   22.5032  -32.9537 H   0  0  0  0  0  0  0  0  0  0  0  0
   -4.9571   23.1187  -31.9186 H   0  0  0  0  0  0  0  0  0  0  0  0
   -4.4426   22.0009  -30.5512 H   0  0  0  0  0  0  0  0  0  0  0  0
   -2.4512   22.4708  -29.3430 H   0  0  0  0  0  0  0  0  0  0  0  0
   -1.3904   23.2077  -30.6369 H   0  0  0  0  0  0  0  0  0  0  0  0
   -1.8668   24.0948  -27.8992 H   0  0  0  0  0  0  0  0  0  0  0  0
   -0.6318   24.6212  -29.0926 H   0  0  0  0  0  0  0  0  0  0  0  0
   -2.2607   25.3783  -29.0926 H   0  0  0  0  0  0  0  0  0  0  0  0
   -4.5024   24.4771  -29.0254 H   0  0  0  0  0  0  0  0  0  0  0  0
   -3.6085   25.7498  -29.9573 H   0  0  0  0  0  0  0  0  0  0  0  0
   -5.4778   26.2241  -31.0728 H   0  0  0  0  0  0  0  0  0  0  0  0
   -5.4581   24.5143  -31.7277 H   0  0  0  0  0  0  0  0  0  0  0  0
   -6.6375   24.9964  -29.0142 H   0  0  0  0  0  0  0  0  0  0  0  0
   -7.5736   25.4832  -30.5004 H   0  0  0  0  0  0  0  0  0  0  0  0
   -6.3795   22.7112  -30.2521 H   0  0  0  0  0  0  0  0  0  0  0  0
   -7.9726   23.1221  -29.5031 H   0  0  0  0  0  0  0  0  0  0  0  0
   -8.7772   22.4951  -31.5518 H   0  0  0  0  0  0  0  0  0  0  0  0
   -8.3218   24.1880  -31.9851 H   0  0  0  0  0  0  0  0  0  0  0  0
   -7.2230   23.1110  -33.6010 H   0  0  0  0  0  0  0  0  0  0  0  0
   -6.0260   22.9830  -32.4010 H   0  0  0  0  0  0  0  0  0  0  0  0
   -8.8566   21.1238  -31.4866 H   0  0  0  0  0  0  0  0  0  0  0  0
   -7.9056   16.4864  -32.3856 H   0  0  0  0  0  0  0  0  0  0  0  0
   -6.1238   15.3187  -33.6846 H   0  0  0  0  0  0  0  0  0  0  0  0
   -4.3475   16.6338  -34.8411 H   0  0  0  0  0  0  0  0  0  0  0  0
   -4.3474   19.1248  -34.7142 H   0  0  0  0  0  0  0  0  0  0  0  0
  1  2  1  0
  2  3  1  0
  3  4  1  0
  4  5  1  0
  3  6  1  0
  6  7  1  0
  7  8  1  0
  8  9  1  0
  9 10  1  0
 10 11  1  0
 11 12  1  0
 12 13  2  0
 13 14  1  0
 14 15  2  0
 14 16  1  0
 16 17  2  0
 17 18  1  0
 18 19  2  0
 19 20  1  0
 20 21  2  0
 21 22  1  0
 22 12  1  0
 21 16  1  0
  1 23  1  0
  1 24  1  0
  1 25  1  0
  2 26  1  0
  2 27  1  0
  4 28  1  0
  4 29  1  0
  5 30  1  0
  5 31  1  0
  5 32  1  0
  6 33  1  0
  6 34  1  0
  7 35  1  0
  7 36  1  0
  8 37  1  0
  8 38  1  0
  9 39  1  0
  9 40  1  0
 10 41  1  0
 10 42  1  0
 11 43  1  0
 11 44  1  0
 13 45  1  0
 17 46  1  0
 18 47  1  0
 19 48  1  0
 20 49  1  0
M  CHG  2  11   1  22  -1
M  END
>  <UniqueID>  (8) 
8

>  <SMILES>  (8) 
CCN(CC)CCCCC[NH2+]c1cc(=O)c2ccccc2[n-]1

>  <Energy>  (8) 
51.99908195193715

>  <Genealogy>  (8) 
CCN(CC)CCCCC[NH2+]c1cc(=O)c2ccccc2[n-]1 (protonated)
CCN(CC)CCCCC[NH2+]c1cc(=O)c2ccccc2[n-]1 (3D coordinates assigned)
CCN(CC)CCCCC[NH2+]c1cc(=O)c2ccccc2[n-]1 (optimized conformer: 51.99908195193715 kcal/mol)

>  <smiles>  (8) 
CCN(CC)CCCCCNc1cc(=O)c2ccccc2[nH]1

>  <score_type>  (8) 
oracle

>  <origin>  (8) 
adg

>  <m_score__min__energy>  (8) 
-7.7800000000000002

>  <m_primary>  (8) 
energy

$$$$
8:0
     RDKit          3D

 48 50  0  0  0  0  0  0  0  0999 V2000
   -6.2810   25.3730  -30.1950 C   0  0  0  0  0  0  0  0  0  0  0  0
   -6.1930   23.8940  -30.6110 C   0  0  0  0  0  0  0  0  0  0  0  0
   -6.6380   22.9940  -29.4390 C   0  0  0  0  0  0  0  0  0  0  0  0
   -7.0260   23.6480  -31.7530 O   0  0  0  0  0  0  0  0  0  0  0  0
   -7.7210   22.4540  -31.9810 C   0  0  0  0  0  0  0  0  0  0  0  0
   -9.0880   22.3630  -31.6840 C   0  0  0  0  0  0  0  0  0  0  0  0
   -9.7810   21.1730  -31.9260 C   0  0  0  0  0  0  0  0  0  0  0  0
   -9.1140   20.0730  -32.4740 C   0  0  0  0  0  0  0  0  0  0  0  0
   -7.7540   20.1650  -32.7850 C   0  0  0  0  0  0  0  0  0  0  0  0
   -7.0600   21.3550  -32.5450 C   0  0  0  0  0  0  0  0  0  0  0  0
   -4.7660   23.5890  -31.0250 C   0  0  0  0  0  0  0  0  0  0  0  0
   -3.8770   24.4670  -30.8550 O   0  0  0  0  0  0  0  0  0  0  0  0
   -4.3970   22.3340  -31.6130 N   0  0  0  0  0  0  0  0  0  0  0  0
   -4.0590   22.2990  -33.0400 C   0  0  0  0  0  0  0  0  0  0  0  0
   -3.3100   21.0140  -33.4150 C   0  0  0  0  0  0  0  0  0  0  0  0
   -3.9670   19.8340  -32.8310 N   0  0  0  0  0  0  0  0  0  0  0  0
   -3.9490   18.5720  -33.5350 C   0  0  0  0  0  0  0  0  0  0  0  0
   -2.8030   18.1650  -34.2450 C   0  0  0  0  0  0  0  0  0  0  0  0
   -2.7880   16.9470  -34.9290 C   0  0  0  0  0  0  0  0  0  0  0  0
   -3.9130   16.1210  -34.9160 C   0  0  0  0  0  0  0  0  0  0  0  0
   -5.0600   16.5130  -34.2200 C   0  0  0  0  0  0  0  0  0  0  0  0
   -6.4760   15.4780  -34.2110 Cl  0  0  0  0  0  0  0  0  0  0  0  0
   -5.0800   17.7320  -33.5340 C   0  0  0  0  0  0  0  0  0  0  0  0
   -4.5010   19.8890  -31.4600 C   0  0  0  0  0  0  0  0  0  0  0  0
   -4.1070   21.1860  -30.7500 C   0  0  0  0  0  0  0  0  0  0  0  0
   -6.2853   25.4455  -29.0974 H   0  0  0  0  0  0  0  0  0  0  0  0
   -5.4137   25.9187  -30.5951 H   0  0  0  0  0  0  0  0  0  0  0  0
   -7.2069   25.8120  -30.5951 H   0  0  0  0  0  0  0  0  0  0  0  0
   -6.3946   23.4862  -28.4858 H   0  0  0  0  0  0  0  0  0  0  0  0
   -7.7234   22.8252  -29.4979 H   0  0  0  0  0  0  0  0  0  0  0  0
   -6.1132   22.0291  -29.4979 H   0  0  0  0  0  0  0  0  0  0  0  0
   -9.6165   23.2295  -31.2598 H   0  0  0  0  0  0  0  0  0  0  0  0
  -10.8519   21.1021  -31.6851 H   0  0  0  0  0  0  0  0  0  0  0  0
   -9.6590   19.1358  -32.6603 H   0  0  0  0  0  0  0  0  0  0  0  0
   -7.2296   19.3008  -33.2187 H   0  0  0  0  0  0  0  0  0  0  0  0
   -5.9924   21.4284  -32.7997 H   0  0  0  0  0  0  0  0  0  0  0  0
   -4.9873   22.3548  -33.6276 H   0  0  0  0  0  0  0  0  0  0  0  0
   -3.4023   23.1542  -33.2576 H   0  0  0  0  0  0  0  0  0  0  0  0
   -3.2947   20.9126  -34.5102 H   0  0  0  0  0  0  0  0  0  0  0  0
   -2.2850   21.0768  -33.0207 H   0  0  0  0  0  0  0  0  0  0  0  0
   -1.9129   18.8111  -34.2611 H   0  0  0  0  0  0  0  0  0  0  0  0
   -1.8871   16.6381  -35.4794 H   0  0  0  0  0  0  0  0  0  0  0  0
   -3.8970   15.1614  -35.4535 H   0  0  0  0  0  0  0  0  0  0  0  0
   -5.9858   18.0370  -32.9896 H   0  0  0  0  0  0  0  0  0  0  0  0
   -5.5983   19.8250  -31.5021 H   0  0  0  0  0  0  0  0  0  0  0  0
   -4.0781   19.0462  -30.8935 H   0  0  0  0  0  0  0  0  0  0  0  0
   -4.6792   21.2785  -29.8151 H   0  0  0  0  0  0  0  0  0  0  0  0
   -3.0303   21.1639  -30.5258 H   0  0  0  0  0  0  0  0  0  0  0  0
  1  2  1  0
  2  3  1  0
  2  4  1  0
  4  5  1  0
  5  6  2  0
  6  7  1  0
  7  8  2  0
  8  9  1  0
  9 10  2  0
  2 11  1  0
 11 12  2  0
 11 13  1  0
 13 14  1  0
 14 15  1  0
 15 16  1  0
 16 17  1  0
 17 18  2  0
 18 19  1  0
 19 20  2  0
 20 21  1  0
 21 22  1  0
 21 23  2  0
 16 24  1  0
 24 25  1  0
 10  5  1  0
 25 13  1  0
 23 17  1  0
  1 26  1  0
  1 27  1  0
  1 28  1  0
  3 29  1  0
  3 30  1  0
  3 31  1  0
  6 32  1  0
  7 33  1  0
  8 34  1  0
  9 35  1  0
 10 36  1  0
 14 37  1  0
 14 38  1  0
 15 39  1  0
 15 40  1  0
 18 41  1  0
 19 42  1  0
 20 43  1  0
 23 44  1  0
 24 45  1  0
 24 46  1  0
 25 47  1  0
 25 48  1  0
M  END
>  <UniqueID>  (9) 
9

>  <SMILES>  (9) 
CC(C)(Oc1ccccc1)C(=O)N1CCN(c2cccc(Cl)c2)CC1

>  <Energy>  (9) 
63.016986540681586

>  <Genealogy>  (9) 
CC(C)(Oc1ccccc1)C(=O)N1CCN(c2cccc(Cl)c2)CC1 (3D coordinates assigned)
CC(C)(Oc1ccccc1)C(=O)N1CCN(c2cccc(Cl)c2)CC1 (nonaromatic ring conformer: 63.016986540681586 kcal/mol)

>  <smiles>  (9) 
CC(C)(Oc1ccccc1)C(=O)N1CCN(c2cccc(Cl)c2)CC1

>  <score_type>  (9) 
oracle

>  <origin>  (9) 
adg

>  <m_score__min__energy>  (9) 
-9.3200000000000003

>  <m_primary>  (9) 
energy

$$$$
9:0
     RDKit          3D

 93 96  0  0  0  0  0  0  0  0999 V2000
   -2.8350   19.4030  -26.9170 C   0  0  0  0  0  0  0  0  0  0  0  0
   -1.6840   20.2580  -26.3630 C   0  0  0  0  0  0  0  0  0  0  0  0
   -0.9540   21.0300  -27.4020 N   0  0  0  0  0  0  0  0  0  0  0  0
    0.2420   20.3430  -27.9400 C   0  0  0  0  0  0  0  0  0  0  0  0
   -0.1330   19.2490  -28.9420 C   0  0  0  0  0  0  0  0  0  0  0  0
   -0.6410   22.4130  -26.9720 C   0  0  0  0  0  0  0  0  0  0  0  0
   -0.6470   23.3590  -28.1820 C   0  0  0  0  0  0  0  0  0  0  0  0
   -1.6930   22.9610  -29.1520 N   0  0  0  0  0  0  0  0  0  0  0  0
   -3.0070   23.2140  -28.8570 C   0  0  0  0  0  0  0  0  0  0  0  0
   -3.3330   23.8380  -27.8070 O   0  0  0  0  0  0  0  0  0  0  0  0
   -3.9890   22.7500  -29.7130 C   0  0  0  0  0  0  0  0  0  0  0  0
   -5.3600   22.8250  -29.5500 C   0  0  0  0  0  0  0  0  0  0  0  0
   -5.8910   22.1770  -30.6440 C   0  0  0  0  0  0  0  0  0  0  0  0
   -7.2260   21.9250  -30.9310 C   0  0  0  0  0  0  0  0  0  0  0  0
   -8.1260   22.3550  -30.1560 O   0  0  0  0  0  0  0  0  0  0  0  0
   -7.5410   21.1900  -32.0490 N   0  0  0  0  0  0  0  0  0  0  0  0
   -8.9510   20.8470  -32.3390 C   0  0  0  0  0  0  0  0  0  0  0  0
   -9.1880   19.3230  -32.3450 C   0  0  0  0  0  0  0  0  0  0  0  0
   -8.3310   18.5590  -31.3130 C   0  0  0  0  0  0  0  0  0  0  0  0
   -7.0540   18.1080  -31.9130 N   0  0  0  0  0  0  0  0  0  0  0  0
   -6.1970   17.4670  -30.8970 C   0  0  0  0  0  0  0  0  0  0  0  0
   -7.2750   17.1930  -33.0590 C   0  0  0  0  0  0  0  0  0  0  0  0
   -5.9410   16.5890  -33.5140 C   0  0  0  0  0  0  0  0  0  0  0  0
   -5.2410   17.5010  -34.5450 C   0  0  0  0  0  0  0  0  0  0  0  0
   -3.7590   17.4550  -34.4950 N   0  0  0  0  0  0  0  0  0  0  0  0
   -3.2320   17.3610  -33.1260 C   0  0  0  0  0  0  0  0  0  0  0  0
   -3.1840   16.4100  -35.3570 C   0  0  0  0  0  0  0  0  0  0  0  0
   -6.5420   20.7340  -32.8900 C   0  0  0  0  0  0  0  0  0  0  0  0
   -6.8580   20.0810  -33.9240 O   0  0  0  0  0  0  0  0  0  0  0  0
   -5.1660   20.9870  -32.6110 C   0  0  0  0  0  0  0  0  0  0  0  0
   -4.1840   20.5190  -33.4900 C   0  0  0  0  0  0  0  0  0  0  0  0
   -2.8070   20.7290  -33.4720 C   0  0  0  0  0  0  0  0  0  0  0  0
   -1.9590   21.3500  -32.5380 C   0  0  0  0  0  0  0  0  0  0  0  0
   -0.6020   21.5380  -32.9810 N   0  0  0  0  0  0  0  0  0  0  0  0
    0.0420   20.6840  -33.9830 C   0  0  0  0  0  0  0  0  0  0  0  0
    0.1940   21.4280  -35.3160 C   0  0  0  0  0  0  0  0  0  0  0  0
    0.9910   22.6650  -35.1510 N   0  0  0  0  0  0  0  0  0  0  0  0
    0.5400   23.7020  -36.0950 C   0  0  0  0  0  0  0  0  0  0  0  0
    2.4290   22.4040  -35.3530 C   0  0  0  0  0  0  0  0  0  0  0  0
   -2.3380   21.8820  -31.2700 C   0  0  0  0  0  0  0  0  0  0  0  0
   -1.3470   22.2800  -30.3050 C   0  0  0  0  0  0  0  0  0  0  0  0
   -0.1370   21.9650  -30.4810 O   0  0  0  0  0  0  0  0  0  0  0  0
   -3.6740   22.0830  -30.8810 C   0  0  0  0  0  0  0  0  0  0  0  0
   -4.8780   21.7220  -31.4630 C   0  0  0  0  0  0  0  0  0  0  0  0
   -3.4096   18.9762  -26.0818 H   0  0  0  0  0  0  0  0  0  0  0  0
   -3.4951   20.0315  -27.5328 H   0  0  0  0  0  0  0  0  0  0  0  0
   -2.4240   18.5895  -27.5328 H   0  0  0  0  0  0  0  0  0  0  0  0
   -2.1000   20.9675  -25.6325 H   0  0  0  0  0  0  0  0  0  0  0  0
   -0.9591   19.5644  -25.9120 H   0  0  0  0  0  0  0  0  0  0  0  0
    0.8812   21.0831  -28.4437 H   0  0  0  0  0  0  0  0  0  0  0  0
    0.7711   19.8699  -27.0997 H   0  0  0  0  0  0  0  0  0  0  0  0
   -0.4431   18.3444  -28.3983 H   0  0  0  0  0  0  0  0  0  0  0  0
   -0.9624   19.5993  -29.5740 H   0  0  0  0  0  0  0  0  0  0  0  0
    0.7369   19.0168  -29.5740 H   0  0  0  0  0  0  0  0  0  0  0  0
   -1.3964   22.7474  -26.2456 H   0  0  0  0  0  0  0  0  0  0  0  0
    0.3571   22.4279  -26.5098 H   0  0  0  0  0  0  0  0  0  0  0  0
   -0.8453   24.3847  -27.8376 H   0  0  0  0  0  0  0  0  0  0  0  0
    0.3336   23.3059  -28.6775 H   0  0  0  0  0  0  0  0  0  0  0  0
   -5.9092   23.3002  -28.7239 H   0  0  0  0  0  0  0  0  0  0  0  0
   -9.5922   21.3026  -31.5701 H   0  0  0  0  0  0  0  0  0  0  0  0
   -9.1940   21.2315  -33.3405 H   0  0  0  0  0  0  0  0  0  0  0  0
  -10.2489   19.1354  -32.1228 H   0  0  0  0  0  0  0  0  0  0  0  0
   -8.8971   18.9557  -33.3402 H   0  0  0  0  0  0  0  0  0  0  0  0
   -8.1144   19.2230  -30.4632 H   0  0  0  0  0  0  0  0  0  0  0  0
   -8.8923   17.6744  -30.9777 H   0  0  0  0  0  0  0  0  0  0  0  0
   -6.5559   17.7354  -29.8924 H   0  0  0  0  0  0  0  0  0  0  0  0
   -6.2361   16.3747  -31.0206 H   0  0  0  0  0  0  0  0  0  0  0  0
   -5.1602   17.8131  -31.0206 H   0  0  0  0  0  0  0  0  0  0  0  0
   -7.9554   16.3845  -32.7534 H   0  0  0  0  0  0  0  0  0  0  0  0
   -7.7176   17.7588  -33.8921 H   0  0  0  0  0  0  0  0  0  0  0  0
   -5.2853   16.4661  -32.6394 H   0  0  0  0  0  0  0  0  0  0  0  0
   -6.1410   15.6162  -33.9869 H   0  0  0  0  0  0  0  0  0  0  0  0
   -5.5613   17.1926  -35.5511 H   0  0  0  0  0  0  0  0  0  0  0  0
   -5.5322   18.5333  -34.3009 H   0  0  0  0  0  0  0  0  0  0  0  0
   -4.0514   17.5072  -32.4068 H   0  0  0  0  0  0  0  0  0  0  0  0
   -2.7828   16.3686  -32.9734 H   0  0  0  0  0  0  0  0  0  0  0  0
   -2.4674   18.1369  -32.9734 H   0  0  0  0  0  0  0  0  0  0  0  0
   -2.7479   15.6174  -34.7312 H   0  0  0  0  0  0  0  0  0  0  0  0
   -3.9740   15.9828  -35.9921 H   0  0  0  0  0  0  0  0  0  0  0  0
   -2.4003   16.8487  -35.9921 H   0  0  0  0  0  0  0  0  0  0  0  0
   -4.5529   19.8937  -34.3164 H   0  0  0  0  0  0  0  0  0  0  0  0
   -2.2841   20.3343  -34.3557 H   0  0  0  0  0  0  0  0  0  0  0  0
   -0.0240   22.2710  -32.5060 H   0  0  0  0  0  0  0  0  0  0  0  0
    1.0372   20.3887  -33.6192 H   0  0  0  0  0  0  0  0  0  0  0  0
   -0.5857   19.7952  -34.1448 H   0  0  0  0  0  0  0  0  0  0  0  0
    0.6985   20.7699  -36.0387 H   0  0  0  0  0  0  0  0  0  0  0  0
   -0.8077   21.7046  -35.6767 H   0  0  0  0  0  0  0  0  0  0  0  0
    0.1627   24.5696  -35.5338 H   0  0  0  0  0  0  0  0  0  0  0  0
    1.3839   24.0136  -36.7281 H   0  0  0  0  0  0  0  0  0  0  0  0
   -0.2634   23.2972  -36.7281 H   0  0  0  0  0  0  0  0  0  0  0  0
    2.9261   22.3138  -34.3759 H   0  0  0  0  0  0  0  0  0  0  0  0
    2.5561   21.4681  -35.9169 H   0  0  0  0  0  0  0  0  0  0  0  0
    2.8769   23.2355  -35.9169 H   0  0  0  0  0  0  0  0  0  0  0  0
  1  2  1  0
  2  3  1  0
  3  4  1  0
  4  5  1  0
  3  6  1  0
  6  7  1  0
  7  8  1  0
  8  9  1  0
  9 10  2  0
  9 11  1  0
 11 12  1  0
 12 13  2  0
 13 14  1  0
 14 15  2  0
 14 16  1  0
 16 17  1  0
 17 18  1  0
 18 19  1  0
 19 20  1  0
 20 21  1  0
 20 22  1  0
 22 23  1  0
 23 24  1  0
 24 25  1  0
 25 26  1  0
 25 27  1  0
 16 28  1  0
 28 29  2  0
 28 30  1  0
 30 31  1  0
 31 32  2  0
 32 33  1  0
 33 34  1  0
 34 35  1  0
 35 36  1  0
 36 37  1  0
 37 38  1  0
 37 39  1  0
 33 40  2  0
 40 41  1  0
 41 42  2  0
 40 43  1  0
 43 44  1  0
 41  8  1  0
 43 11  2  0
 44 13  1  0
 44 30  2  0
  1 45  1  0
  1 46  1  0
  1 47  1  0
  2 48  1  0
  2 49  1  0
  4 50  1  0
  4 51  1  0
  5 52  1  0
  5 53  1  0
  5 54  1  0
  6 55  1  0
  6 56  1  0
  7 57  1  0
  7 58  1  0
 12 59  1  0
 17 60  1  0
 17 61  1  0
 18 62  1  0
 18 63  1  0
 19 64  1  0
 19 65  1  0
 21 66  1  0
 21 67  1  0
 21 68  1  0
 22 69  1  0
 22 70  1  0
 23 71  1  0
 23 72  1  0
 24 73  1  0
 24 74  1  0
 26 75  1  0
 26 76  1  0
 26 77  1  0
 27 78  1  0
 27 79  1  0
 27 80  1  0
 31 81  1  0
 32 82  1  0
 34 83  1  0
 35 84  1  0
 35 85  1  0
 36 86  1  0
 36 87  1  0
 38 88  1  0
 38 89  1  0
 38 90  1  0
 39 91  1  0
 39 92  1  0
 39 93  1  0
M  END
>  <UniqueID>  (10) 
10

>  <SMILES>  (10) 
CCN(CC)CCn1c(=O)c2cc3c(=O)n(CCCN(C)CCCN(C)C)c(=O)c4ccc(NCCN(C)C)c(c1=O)c2c43

>  <Energy>  (10) 
161.76393337399293

>  <Genealogy>  (10) 
CCN(CC)CCn1c(=O)c2cc3c(=O)n(CCCN(C)CCCN(C)C)c(=O)c4ccc(NCCN(C)C)c(c1=O)c2c43 (3D coordinates assigned)
CCN(CC)CCn1c(=O)c2cc3c(=O)n(CCCN(C)CCCN(C)C)c(=O)c4ccc(NCCN(C)C)c(c1=O)c2c43 (optimized conformer: 161.76393337399293 kcal/mol)

>  <smiles>  (10) 
CCN(CC)CCn1c(=O)c2cc3c(=O)n(CCCN(C)CCCN(C)C)c(=O)c4ccc(NCCN(C)C)c(c1=O)c2c43

>  <score_type>  (10) 
oracle

>  <origin>  (10) 
adg

>  <m_score__min__energy>  (10) 
-9.7400000000000002

>  <m_primary>  (10) 
energy

$$$$
10:0
     RDKit          3D

 51 54  0  0  0  0  0  0  0  0999 V2000
   -4.2440   15.6080  -34.3770 C   0  0  0  0  0  0  0  0  0  0  0  0
   -4.2640   17.0420  -33.9530 C   0  0  0  0  0  0  0  0  0  0  0  0
   -5.4100   17.7130  -33.7100 N   0  0  0  0  0  0  0  0  0  0  0  0
   -5.0100   18.9540  -33.3580 C   0  0  0  0  0  0  0  0  0  0  0  0
   -3.6270   19.0250  -33.4340 C   0  0  0  0  0  0  0  0  0  0  0  0
   -3.1620   17.8030  -33.7680 N   0  0  0  0  0  0  0  0  0  0  0  0
   -1.7680   17.4160  -33.9850 C   0  0  0  0  0  0  0  0  0  0  0  0
   -2.7660   20.2280  -33.1470 C   0  0  0  0  0  0  0  0  0  0  0  0
   -3.5070   21.5460  -33.4620 C   0  0  0  0  0  0  0  0  0  0  0  0
   -4.4300   21.9990  -32.3900 N   0  0  0  0  0  0  0  0  0  0  0  0
   -3.7020   22.6160  -31.2600 C   0  0  0  0  0  0  0  0  0  0  0  0
   -4.5240   23.7120  -30.6550 C   0  0  0  0  0  0  0  0  0  0  0  0
   -5.2930   23.6130  -29.5140 C   0  0  0  0  0  0  0  0  0  0  0  0
   -5.8550   24.8590  -29.3380 C   0  0  0  0  0  0  0  0  0  0  0  0
   -5.3950   25.6380  -30.3800 C   0  0  0  0  0  0  0  0  0  0  0  0
   -4.6020   24.9260  -31.1490 O   0  0  0  0  0  0  0  0  0  0  0  0
   -5.3860   20.9770  -31.9010 C   0  0  0  0  0  0  0  0  0  0  0  0
   -5.9600   20.0920  -33.0390 C   0  0  2  0  0  0  0  0  0  0  0  0
   -7.3540   19.5410  -32.6570 C   0  0  0  0  0  0  0  0  0  0  0  0
   -8.3850   20.3670  -33.1700 O   0  0  0  0  0  0  0  0  0  0  0  0
   -9.4680   20.4370  -32.2660 C   0  0  0  0  0  0  0  0  0  0  0  0
   -9.2610   21.6450  -31.3490 C   0  0  0  0  0  0  0  0  0  0  0  0
   -9.4640   23.0030  -32.0020 C   0  0  0  0  0  0  0  0  0  0  0  0
   -8.0590   22.5150  -31.6810 C   0  0  0  0  0  0  0  0  0  0  0  0
   -4.2350   14.9624  -33.4864 H   0  0  0  0  0  0  0  0  0  0  0  0
   -5.1392   15.3909  -34.9782 H   0  0  0  0  0  0  0  0  0  0  0  0
   -3.3431   15.4159  -34.9782 H   0  0  0  0  0  0  0  0  0  0  0  0
   -1.2704   17.2779  -33.0138 H   0  0  0  0  0  0  0  0  0  0  0  0
   -1.7330   16.4742  -34.5522 H   0  0  0  0  0  0  0  0  0  0  0  0
   -1.2525   18.2050  -34.5522 H   0  0  0  0  0  0  0  0  0  0  0  0
   -2.4864   20.2212  -32.0831 H   0  0  0  0  0  0  0  0  0  0  0  0
   -1.8739   20.1733  -33.7882 H   0  0  0  0  0  0  0  0  0  0  0  0
   -2.7560   22.3330  -33.6254 H   0  0  0  0  0  0  0  0  0  0  0  0
   -4.1260   21.3549  -34.3510 H   0  0  0  0  0  0  0  0  0  0  0  0
   -3.4985   21.8503  -30.4969 H   0  0  0  0  0  0  0  0  0  0  0  0
   -2.7554   23.0377  -31.6290 H   0  0  0  0  0  0  0  0  0  0  0  0
   -5.4291   22.7258  -28.8781 H   0  0  0  0  0  0  0  0  0  0  0  0
   -6.5334   25.1699  -28.5299 H   0  0  0  0  0  0  0  0  0  0  0  0
   -5.6530   26.6949  -30.5424 H   0  0  0  0  0  0  0  0  0  0  0  0
   -4.8675   20.3282  -31.1797 H   0  0  0  0  0  0  0  0  0  0  0  0
   -6.2307   21.5097  -31.4398 H   0  0  0  0  0  0  0  0  0  0  0  0
   -6.0711   20.7175  -33.9370 H   0  0  0  0  0  0  0  0  0  0  0  0
   -7.4658   18.5277  -33.0702 H   0  0  0  0  0  0  0  0  0  0  0  0
   -7.4342   19.5211  -31.5601 H   0  0  0  0  0  0  0  0  0  0  0  0
  -10.4093   20.5518  -32.8235 H   0  0  0  0  0  0  0  0  0  0  0  0
   -9.5185   19.5152  -31.6678 H   0  0  0  0  0  0  0  0  0  0  0  0
   -9.6408   21.1529  -30.4415 H   0  0  0  0  0  0  0  0  0  0  0  0
   -9.7989   23.0659  -33.0479 H   0  0  0  0  0  0  0  0  0  0  0  0
  -10.0492   23.9026  -31.7606 H   0  0  0  0  0  0  0  0  0  0  0  0
   -7.3781   22.2250  -32.4948 H   0  0  0  0  0  0  0  0  0  0  0  0
   -7.2075   22.9156  -31.1114 H   0  0  0  0  0  0  0  0  0  0  0  0
  1  2  1  0
  2  3  2  0
  3  4  1  0
  4  5  2  0
  5  6  1  0
  6  7  1  0
  5  8  1  0
  8  9  1  0
  9 10  1  0
 10 11  1  0
 11 12  1  0
 12 13  2  0
 13 14  1  0
 14 15  2  0
 15 16  1  0
 10 17  1  0
 17 18  1  0
 18 19  1  0
 19 20  1  0
 20 21  1  0
 21 22  1  0
 22 23  1  0
 23 24  1  0
  6  2  1  0
 16 12  1  0
 24 22  1  0
 18  4  1  0
  1 25  1  0
  1 26  1  0
  1 27  1  0
  7 28  1  0
  7 29  1  0
  7 30  1  0
  8 31  1  0
  8 32  1  0
  9 33  1  0
  9 34  1  0
 11 35  1  0
 11 36  1  0
 13 37  1  0
 14 38  1  0
 15 39  1  0
 17 40  1  0
 17 41  1  0
 18 42  1  6
 19 43  1  0
 19 44  1  0
 21 45  1  0
 21 46  1  0
 22 47  1  0
 23 48  1  0
 23 49  1  0
 24 50  1  0
 24 51  1  0
M  END
>  <UniqueID>  (11) 
11

>  <SMILES>  (11) 
Cc1nc2c(n1C)CCN(Cc1ccco1)C[C@@H]2COCC1CC1

>  <Energy>  (11) 
381.0974653401949

>  <Genealogy>  (11) 
Cc1nc2c(n1C)CCN(Cc1ccco1)C[C@@H]2COCC1CC1 (chirality)
Cc1nc2c(n1C)CCN(Cc1ccco1)C[C@@H]2COCC1CC1 (3D coordinates assigned)
Cc1nc2c(n1C)CCN(Cc1ccco1)C[C@@H]2COCC1CC1 (nonaromatic ring conformer: 381.0974653401949 kcal/mol)

>  <smiles>  (11) 
Cc1nc2c(n1C)CCN(Cc1ccco1)CC2COCC1CC1

>  <score_type>  (11) 
oracle

>  <origin>  (11) 
adg

>  <m_score__min__energy>  (11) 
-5.7999999999999998

>  <m_primary>  (11) 
energy

$$$$
11:0
     RDKit          3D

 38 39  0  0  0  0  0  0  0  0999 V2000
   -0.9150   21.5790  -29.6540 C   0  0  0  0  0  0  0  0  0  0  0  0
   -1.0370   22.2530  -28.2900 C   0  0  0  0  0  0  0  0  0  0  0  0
   -2.3060   21.8840  -27.6250 N   0  0  0  0  0  0  0  0  0  0  0  0
   -2.7540   20.5030  -27.9280 C   0  0  0  0  0  0  0  0  0  0  0  0
   -2.5130   19.6120  -26.7160 C   0  0  0  0  0  0  0  0  0  0  0  0
   -3.3730   22.8930  -27.8230 C   0  0  0  0  0  0  0  0  0  0  0  0
   -2.8510   24.2970  -28.1910 C   0  0  0  0  0  0  0  0  0  0  0  0
   -2.7300   24.4340  -29.6380 N   0  0  0  0  0  0  0  0  0  0  0  0
   -3.8610   24.5420  -30.5050 C   0  0  0  0  0  0  0  0  0  0  0  0
   -4.3070   25.6790  -30.8150 O   0  0  0  0  0  0  0  0  0  0  0  0
   -4.5230   23.3360  -31.0360 C   0  0  0  0  0  0  0  0  0  0  0  0
   -3.6800   22.0190  -31.6870 S   0  0  0  0  0  0  0  0  0  0  0  0
   -5.0440   21.1150  -32.0480 C   0  0  0  0  0  0  0  0  0  0  0  0
   -5.1070   19.8540  -32.6330 C   0  0  0  0  0  0  0  0  0  0  0  0
   -6.3720   19.2810  -32.8420 C   0  0  0  0  0  0  0  0  0  0  0  0
   -6.5030   17.6940  -33.5760 Cl  0  0  0  0  0  0  0  0  0  0  0  0
   -7.5360   19.9790  -32.4640 C   0  0  0  0  0  0  0  0  0  0  0  0
   -7.4460   21.2510  -31.8760 C   0  0  0  0  0  0  0  0  0  0  0  0
   -6.1800   21.8160  -31.6700 C   0  0  0  0  0  0  0  0  0  0  0  0
   -5.9010   23.0680  -31.0980 C   0  0  0  0  0  0  0  0  0  0  0  0
   -7.1630   24.1510  -30.5150 Cl  0  0  0  0  0  0  0  0  0  0  0  0
   -0.7206   20.5051  -29.5163 H   0  0  0  0  0  0  0  0  0  0  0  0
   -1.8520   21.7131  -30.2144 H   0  0  0  0  0  0  0  0  0  0  0  0
   -0.0844   22.0330  -30.2144 H   0  0  0  0  0  0  0  0  0  0  0  0
   -0.1947   21.9375  -27.6568 H   0  0  0  0  0  0  0  0  0  0  0  0
   -1.0236   23.3431  -28.4366 H   0  0  0  0  0  0  0  0  0  0  0  0
   -3.8271   20.5106  -28.1696 H   0  0  0  0  0  0  0  0  0  0  0  0
   -2.1869   20.1143  -28.7867 H   0  0  0  0  0  0  0  0  0  0  0  0
   -2.6704   20.1940  -25.7960 H   0  0  0  0  0  0  0  0  0  0  0  0
   -3.2143   18.7648  -26.7385 H   0  0  0  0  0  0  0  0  0  0  0  0
   -1.4803   19.2338  -26.7385 H   0  0  0  0  0  0  0  0  0  0  0  0
   -4.0310   22.5457  -28.6332 H   0  0  0  0  0  0  0  0  0  0  0  0
   -3.8988   22.9917  -26.8619 H   0  0  0  0  0  0  0  0  0  0  0  0
   -3.5531   25.0548  -27.8131 H   0  0  0  0  0  0  0  0  0  0  0  0
   -1.8595   24.4384  -27.7362 H   0  0  0  0  0  0  0  0  0  0  0  0
   -4.1903   19.3202  -32.9240 H   0  0  0  0  0  0  0  0  0  0  0  0
   -8.5234   19.5238  -32.6309 H   0  0  0  0  0  0  0  0  0  0  0  0
   -8.3552   21.7957  -31.5816 H   0  0  0  0  0  0  0  0  0  0  0  0
  1  2  1  0
  2  3  1  0
  3  4  1  0
  4  5  1  0
  3  6  1  0
  6  7  1  0
  7  8  1  0
  8  9  1  0
  9 10  2  0
  9 11  1  0
 11 12  1  0
 12 13  1  0
 13 14  2  0
 14 15  1  0
 15 16  1  0
 15 17  2  0
 17 18  1  0
 18 19  2  0
 19 20  1  0
 20 21  1  0
 20 11  2  0
 19 13  1  0
  1 22  1  0
  1 23  1  0
  1 24  1  0
  2 25  1  0
  2 26  1  0
  4 27  1  0
  4 28  1  0
  5 29  1  0
  5 30  1  0
  5 31  1  0
  6 32  1  0
  6 33  1  0
  7 34  1  0
  7 35  1  0
 14 36  1  0
 17 37  1  0
 18 38  1  0
M  CHG  1   8  -1
M  END
>  <UniqueID>  (12) 
12

>  <SMILES>  (12) 
CCN(CC)CC[N-]C(=O)c1sc2cc(Cl)ccc2c1Cl

>  <Energy>  (12) 
67.66609990082351

>  <Genealogy>  (12) 
CCN(CC)CC[N-]C(=O)c1sc2cc(Cl)ccc2c1Cl (protonated)
CCN(CC)CC[N-]C(=O)c1sc2cc(Cl)ccc2c1Cl (3D coordinates assigned)
CCN(CC)CC[N-]C(=O)c1sc2cc(Cl)ccc2c1Cl (optimized conformer: 67.66609990082351 kcal/mol)

>  <smiles>  (12) 
CCN(CC)CCNC(=O)c1sc2cc(Cl)ccc2c1Cl

>  <score_type>  (12) 
oracle

>  <origin>  (12) 
adg

>  <m_score__min__energy>  (12) 
-9.4800000000000004

>  <m_primary>  (12) 
energy

$$$$
12:0
     RDKit          3D

 44 47  0  0  0  0  0  0  0  0999 V2000
   -5.7430   17.8680  -34.5840 C   0  0  0  0  0  0  0  0  0  0  0  0
   -6.4400   17.7670  -33.3440 O   0  0  0  0  0  0  0  0  0  0  0  0
   -7.0780   18.8420  -32.7030 C   0  0  0  0  0  0  0  0  0  0  0  0
   -8.4240   18.7010  -32.3510 C   0  0  0  0  0  0  0  0  0  0  0  0
   -9.0980   19.7390  -31.7070 C   0  0  0  0  0  0  0  0  0  0  0  0
   -8.4340   20.9310  -31.4040 C   0  0  0  0  0  0  0  0  0  0  0  0
   -7.0790   21.0960  -31.7470 C   0  0  0  0  0  0  0  0  0  0  0  0
   -6.3540   22.3580  -31.4480 C   0  0  0  0  0  0  0  0  0  0  0  0
   -7.0110   23.5930  -31.3720 C   0  0  0  0  0  0  0  0  0  0  0  0
   -6.2830   24.7350  -31.0500 C   0  0  0  0  0  0  0  0  0  0  0  0
   -4.9150   24.6290  -30.8020 C   0  0  0  0  0  0  0  0  0  0  0  0
   -4.2580   25.6600  -30.4880 O   0  0  0  0  0  0  0  0  0  0  0  0
   -4.3040   23.4060  -30.8960 N   0  0  0  0  0  0  0  0  0  0  0  0
   -2.8790   23.2350  -30.5870 C   0  0  0  0  0  0  0  0  0  0  0  0
   -2.6350   23.5020  -29.1360 C   0  0  0  0  0  0  0  0  0  0  0  0
   -3.0800   22.7010  -28.2700 O   0  0  0  0  0  0  0  0  0  0  0  0
   -1.8570   24.6460  -28.7540 N   0  0  0  0  0  0  0  0  0  0  0  0
   -1.3080   24.9150  -27.4560 C   0  0  0  0  0  0  0  0  0  0  0  0
   -0.7330   23.8940  -26.6560 C   0  0  0  0  0  0  0  0  0  0  0  0
   -0.2060   24.1890  -25.3860 C   0  0  0  0  0  0  0  0  0  0  0  0
   -0.2750   25.5030  -24.9200 C   0  0  0  0  0  0  0  0  0  0  0  0
    0.1890   25.9260  -23.7150 N   0  0  0  0  0  0  0  0  0  0  0  0
   -0.0300   27.2490  -23.5230 C   0  0  0  0  0  0  0  0  0  0  0  0
   -0.8150   27.9420  -24.8540 S   0  0  0  0  0  0  0  0  0  0  0  0
   -0.8640   26.4880  -25.6930 C   0  0  0  0  0  0  0  0  0  0  0  0
   -1.3940   26.2250  -26.9530 C   0  0  0  0  0  0  0  0  0  0  0  0
   -5.0170   22.3170  -31.1970 N   0  0  0  0  0  0  0  0  0  0  0  0
   -6.4100   20.0460  -32.4040 C   0  0  0  0  0  0  0  0  0  0  0  0
   -4.6713   18.0233  -34.3906 H   0  0  0  0  0  0  0  0  0  0  0  0
   -5.8812   16.9404  -35.1589 H   0  0  0  0  0  0  0  0  0  0  0  0
   -6.1388   18.7182  -35.1589 H   0  0  0  0  0  0  0  0  0  0  0  0
   -8.9547   17.7659  -32.5833 H   0  0  0  0  0  0  0  0  0  0  0  0
  -10.1574   19.6187  -31.4363 H   0  0  0  0  0  0  0  0  0  0  0  0
   -8.9729   21.7438  -30.8952 H   0  0  0  0  0  0  0  0  0  0  0  0
   -8.0919   23.6597  -31.5649 H   0  0  0  0  0  0  0  0  0  0  0  0
   -6.7829   25.7131  -30.9917 H   0  0  0  0  0  0  0  0  0  0  0  0
   -2.5760   22.2044  -30.8238 H   0  0  0  0  0  0  0  0  0  0  0  0
   -2.2913   23.9441  -31.1886 H   0  0  0  0  0  0  0  0  0  0  0  0
   -0.6991   22.8612  -27.0330 H   0  0  0  0  0  0  0  0  0  0  0  0
    0.2517   23.3996  -24.7717 H   0  0  0  0  0  0  0  0  0  0  0  0
    0.6510   25.3080  -23.0120 H   0  0  0  0  0  0  0  0  0  0  0  0
    0.2642   27.8021  -22.6188 H   0  0  0  0  0  0  0  0  0  0  0  0
   -1.8691   27.0237  -27.5415 H   0  0  0  0  0  0  0  0  0  0  0  0
   -5.3539   20.1668  -32.6871 H   0  0  0  0  0  0  0  0  0  0  0  0
  1  2  1  0
  2  3  1  0
  3  4  2  0
  4  5  1  0
  5  6  2  0
  6  7  1  0
  7  8  1  0
  8  9  1  0
  9 10  2  0
 10 11  1  0
 11 12  2  0
 11 13  1  0
 13 14  1  0
 14 15  1  0
 15 16  2  0
 15 17  1  0
 17 18  1  0
 18 19  2  0
 19 20  1  0
 20 21  2  0
 21 22  1  0
 22 23  2  0
 23 24  1  0
 24 25  1  0
 25 26  2  0
 13 27  1  0
  7 28  2  0
 28  3  1  0
 27  8  2  0
 26 18  1  0
 25 21  1  0
  1 29  1  0
  1 30  1  0
  1 31  1  0
  4 32  1  0
  5 33  1  0
  6 34  1  0
  9 35  1  0
 10 36  1  0
 14 37  1  0
 14 38  1  0
 19 39  1  0
 20 40  1  0
 22 41  1  0
 23 42  1  0
 26 43  1  0
 28 44  1  0
M  CHG  2  17  -1  22   1
M  END
>  <UniqueID>  (13) 
13

>  <SMILES>  (13) 
COc1cccc(-c2ccc(=O)n(CC(=O)[N-]c3ccc4[nH+]csc4c3)n2)c1

>  <Energy>  (13) 
89.05628056308153

>  <Genealogy>  (13) 
COc1cccc(-c2ccc(=O)n(CC(=O)[N-]c3ccc4[nH+]csc4c3)n2)c1 (protonated)
COc1cccc(-c2ccc(=O)n(CC(=O)[N-]c3ccc4[nH+]csc4c3)n2)c1 (3D coordinates assigned)
COc1cccc(-c2ccc(=O)n(CC(=O)[N-]c3ccc4[nH+]csc4c3)n2)c1 (optimized conformer: 89.05628056308153 kcal/mol)

>  <smiles>  (13) 
COc1cccc(-c2ccc(=O)n(CC(=O)Nc3ccc4ncsc4c3)n2)c1

>  <score_type>  (13) 
oracle

>  <origin>  (13) 
adg

>  <m_score__min__energy>  (13) 
-11.550000000000001

>  <m_primary>  (13) 
energy

$$$$
13:0
     RDKit          3D

 48 51  0  0  0  0  0  0  0  0999 V2000
   -5.1310   25.4220  -30.5710 C   0  0  0  0  0  0  0  0  0  0  0  0
   -3.7500   25.0910  -30.4710 O   0  0  0  0  0  0  0  0  0  0  0  0
   -3.2110   24.2080  -29.5220 C   0  0  0  0  0  0  0  0  0  0  0  0
   -2.7400   24.6520  -28.2700 C   0  0  0  0  0  0  0  0  0  0  0  0
   -2.2330   23.7380  -27.3410 C   0  0  0  0  0  0  0  0  0  0  0  0
   -2.1900   22.3780  -27.6500 C   0  0  0  0  0  0  0  0  0  0  0  0
   -2.6500   21.9270  -28.8880 C   0  0  0  0  0  0  0  0  0  0  0  0
   -3.1530   22.8350  -29.8290 C   0  0  0  0  0  0  0  0  0  0  0  0
   -3.6120   22.3540  -31.1010 N   0  0  0  0  0  0  0  0  0  0  0  0
   -5.0520   22.2350  -31.3610 C   0  0  0  0  0  0  0  0  0  0  0  0
   -5.3680   20.8460  -31.9240 C   0  0  0  0  0  0  0  0  0  0  0  0
   -4.4080   20.4580  -32.9680 N   0  0  0  0  0  0  0  0  0  0  0  0
   -4.4450   19.1250  -33.4960 C   0  0  0  0  0  0  0  0  0  0  0  0
   -3.3420   18.5770  -34.0930 N   0  0  0  0  0  0  0  0  0  0  0  0
   -3.3590   17.2950  -34.5930 C   0  0  0  0  0  0  0  0  0  0  0  0
   -2.1430   16.7320  -35.2560 C   0  0  0  0  0  0  0  0  0  0  0  0
   -4.4980   16.5410  -34.5220 N   0  0  0  0  0  0  0  0  0  0  0  0
   -5.5880   17.0840  -33.9320 C   0  0  0  0  0  0  0  0  0  0  0  0
   -5.5930   18.3410  -33.4260 C   0  0  0  0  0  0  0  0  0  0  0  0
   -6.8830   18.5480  -32.9760 C   0  0  0  0  0  0  0  0  0  0  0  0
   -7.6040   17.4220  -33.2150 N   0  0  0  0  0  0  0  0  0  0  0  0
   -6.8030   16.5330  -33.7950 N   0  0  0  0  0  0  0  0  0  0  0  0
   -7.2200   15.2090  -34.2350 C   0  0  0  0  0  0  0  0  0  0  0  0
   -3.3190   21.3640  -33.3540 C   0  0  0  0  0  0  0  0  0  0  0  0
   -2.6300   21.9150  -32.1030 C   0  0  0  0  0  0  0  0  0  0  0  0
   -5.5575   25.5242  -29.5622 H   0  0  0  0  0  0  0  0  0  0  0  0
   -5.2419   26.3722  -31.1140 H   0  0  0  0  0  0  0  0  0  0  0  0
   -5.6606   24.6254  -31.1140 H   0  0  0  0  0  0  0  0  0  0  0  0
   -2.7714   25.7233  -28.0223 H   0  0  0  0  0  0  0  0  0  0  0  0
   -1.8677   24.0916  -26.3655 H   0  0  0  0  0  0  0  0  0  0  0  0
   -1.7930   21.6604  -26.9169 H   0  0  0  0  0  0  0  0  0  0  0  0
   -2.6175   20.8536  -29.1261 H   0  0  0  0  0  0  0  0  0  0  0  0
   -5.6054   22.3823  -30.4218 H   0  0  0  0  0  0  0  0  0  0  0  0
   -5.3517   22.9990  -32.0934 H   0  0  0  0  0  0  0  0  0  0  0  0
   -5.3247   20.1106  -31.1071 H   0  0  0  0  0  0  0  0  0  0  0  0
   -6.3725   20.8746  -32.3714 H   0  0  0  0  0  0  0  0  0  0  0  0
   -2.4650   19.1430  -34.1600 H   0  0  0  0  0  0  0  0  0  0  0  0
   -1.4274   16.4007  -34.4891 H   0  0  0  0  0  0  0  0  0  0  0  0
   -2.4308   15.8755  -35.8834 H   0  0  0  0  0  0  0  0  0  0  0  0
   -1.6761   17.5056  -35.8834 H   0  0  0  0  0  0  0  0  0  0  0  0
   -7.2612   19.4673  -32.5049 H   0  0  0  0  0  0  0  0  0  0  0  0
   -7.4191   14.5767  -33.3572 H   0  0  0  0  0  0  0  0  0  0  0  0
   -8.1346   15.2949  -34.8401 H   0  0  0  0  0  0  0  0  0  0  0  0
   -6.4213   14.7553  -34.8401 H   0  0  0  0  0  0  0  0  0  0  0  0
   -2.5855   20.8141  -33.9618 H   0  0  0  0  0  0  0  0  0  0  0  0
   -3.7334   22.2000  -33.9366 H   0  0  0  0  0  0  0  0  0  0  0  0
   -1.9992   21.1273  -31.6652 H   0  0  0  0  0  0  0  0  0  0  0  0
   -2.0216   22.7833  -32.3961 H   0  0  0  0  0  0  0  0  0  0  0  0
  1  2  1  0
  2  3  1  0
  3  4  2  0
  4  5  1  0
  5  6  2  0
  6  7  1  0
  7  8  2  0
  8  9  1  0
  9 10  1  0
 10 11  1  0
 11 12  1  0
 12 13  1  0
 13 14  2  0
 14 15  1  0
 15 16  1  0
 15 17  2  0
 17 18  1  0
 18 19  2  0
 19 20  1  0
 20 21  2  0
 21 22  1  0
 22 23  1  0
 12 24  1  0
 24 25  1  0
  8  3  1  0
 25  9  1  0
 19 13  1  0
 22 18  1  0
  1 26  1  0
  1 27  1  0
  1 28  1  0
  4 29  1  0
  5 30  1  0
  6 31  1  0
  7 32  1  0
 10 33  1  0
 10 34  1  0
 11 35  1  0
 11 36  1  0
 14 37  1  0
 16 38  1  0
 16 39  1  0
 16 40  1  0
 20 41  1  0
 23 42  1  0
 23 43  1  0
 23 44  1  0
 24 45  1  0
 24 46  1  0
 25 47  1  0
 25 48  1  0
M  CHG  1  14   1
M  END
>  <UniqueID>  (14) 
14

>  <SMILES>  (14) 
COc1ccccc1N1CCN(c2[nH+]c(C)nc3c2cnn3C)CC1

>  <Energy>  (14) 
100.04876101515633

>  <Genealogy>  (14) 
COc1ccccc1N1CCN(c2[nH+]c(C)nc3c2cnn3C)CC1 (protonated)
COc1ccccc1N1CCN(c2[nH+]c(C)nc3c2cnn3C)CC1 (3D coordinates assigned)
COc1ccccc1N1CCN(c2[nH+]c(C)nc3c2cnn3C)CC1 (nonaromatic ring conformer: 100.04876101515633 kcal/mol)

>  <smiles>  (14) 
COc1ccccc1N1CCN(c2nc(C)nc3c2cnn3C)CC1

>  <score_type>  (14) 
oracle

>  <origin>  (14) 
adg

>  <m_score__min__energy>  (14) 
-7.4699999999999998

>  <m_primary>  (14) 
energy

$$$$
14:0
     RDKit          3D

 57 59  0  0  0  0  0  0  0  0999 V2000
   -2.3930   24.1450  -29.2150 C   0  0  0  0  0  0  0  0  0  0  0  0
   -3.2900   24.9070  -30.0160 O   0  0  0  0  0  0  0  0  0  0  0  0
   -4.5420   24.4510  -30.4550 C   0  0  0  0  0  0  0  0  0  0  0  0
   -4.5860   23.3380  -31.3020 C   0  0  0  0  0  0  0  0  0  0  0  0
   -5.8090   22.8380  -31.7570 C   0  0  0  0  0  0  0  0  0  0  0  0
   -7.0150   23.4370  -31.3590 C   0  0  0  0  0  0  0  0  0  0  0  0
   -8.3450   22.8940  -31.8410 C   0  0  0  0  0  0  0  0  0  0  0  0
   -8.6670   21.5300  -31.3470 N   0  0  0  0  0  0  0  0  0  0  0  0
   -9.4670   21.5570  -30.1110 C   0  0  0  0  0  0  0  0  0  0  0  0
   -9.2910   20.6400  -32.3540 C   0  0  0  0  0  0  0  0  0  0  0  0
   -8.4160   19.4080  -32.6360 C   0  0  0  0  0  0  0  0  0  0  0  0
   -7.1730   19.7770  -33.4790 C   0  0  0  0  0  0  0  0  0  0  0  0
   -5.8760   19.6470  -32.7710 N   0  0  0  0  0  0  0  0  0  0  0  0
   -5.9520   19.0630  -31.4150 C   0  0  0  0  0  0  0  0  0  0  0  0
   -5.9730   17.5300  -31.4480 C   0  0  0  0  0  0  0  0  0  0  0  0
   -5.1370   17.0110  -32.5390 N   0  0  0  0  0  0  0  0  0  0  0  0
   -5.3240   15.6600  -33.0090 C   0  0  0  0  0  0  0  0  0  0  0  0
   -4.5930   14.6030  -32.4320 C   0  0  0  0  0  0  0  0  0  0  0  0
   -4.8080   13.2840  -32.8400 C   0  0  0  0  0  0  0  0  0  0  0  0
   -5.7560   13.0040  -33.8270 C   0  0  0  0  0  0  0  0  0  0  0  0
   -6.4950   14.0400  -34.4030 C   0  0  0  0  0  0  0  0  0  0  0  0
   -6.2860   15.3630  -33.9990 C   0  0  0  0  0  0  0  0  0  0  0  0
   -7.0660   16.3400  -34.5290 F   0  0  0  0  0  0  0  0  0  0  0  0
   -4.0980   17.8810  -33.0970 C   0  0  0  0  0  0  0  0  0  0  0  0
   -4.7120   19.2090  -33.5810 C   0  0  0  0  0  0  0  0  0  0  0  0
   -6.9680   24.5750  -30.5370 C   0  0  0  0  0  0  0  0  0  0  0  0
   -5.7460   25.0740  -30.0800 C   0  0  0  0  0  0  0  0  0  0  0  0
   -2.6067   24.3265  -28.1513 H   0  0  0  0  0  0  0  0  0  0  0  0
   -2.5211   23.0754  -29.4374 H   0  0  0  0  0  0  0  0  0  0  0  0
   -1.3581   24.4444  -29.4374 H   0  0  0  0  0  0  0  0  0  0  0  0
   -3.6492   22.8522  -31.6125 H   0  0  0  0  0  0  0  0  0  0  0  0
   -5.8271   21.9693  -32.4315 H   0  0  0  0  0  0  0  0  0  0  0  0
   -9.1381   23.5779  -31.5043 H   0  0  0  0  0  0  0  0  0  0  0  0
   -8.2763   22.8228  -32.9365 H   0  0  0  0  0  0  0  0  0  0  0  0
   -8.7962   21.5344  -29.2395 H   0  0  0  0  0  0  0  0  0  0  0  0
  -10.0709   22.4760  -30.0851 H   0  0  0  0  0  0  0  0  0  0  0  0
  -10.1315   20.6808  -30.0851 H   0  0  0  0  0  0  0  0  0  0  0  0
  -10.2691   20.3053  -31.9781 H   0  0  0  0  0  0  0  0  0  0  0  0
   -9.4041   21.2049  -33.2911 H   0  0  0  0  0  0  0  0  0  0  0  0
   -8.0844   18.9785  -31.6792 H   0  0  0  0  0  0  0  0  0  0  0  0
   -9.0154   18.6816  -33.2044 H   0  0  0  0  0  0  0  0  0  0  0  0
   -7.1492   19.1176  -34.3591 H   0  0  0  0  0  0  0  0  0  0  0  0
   -7.2791   20.8416  -33.7346 H   0  0  0  0  0  0  0  0  0  0  0  0
   -5.0765   19.3935  -30.8368 H   0  0  0  0  0  0  0  0  0  0  0  0
   -6.8888   19.4049  -30.9507 H   0  0  0  0  0  0  0  0  0  0  0  0
   -5.5927   17.1452  -30.4902 H   0  0  0  0  0  0  0  0  0  0  0  0
   -7.0087   17.1992  -31.6149 H   0  0  0  0  0  0  0  0  0  0  0  0
   -3.8463   14.8179  -31.6534 H   0  0  0  0  0  0  0  0  0  0  0  0
   -4.2308   12.4662  -32.3840 H   0  0  0  0  0  0  0  0  0  0  0  0
   -5.9209   11.9659  -34.1512 H   0  0  0  0  0  0  0  0  0  0  0  0
   -7.2437   13.8149  -35.1768 H   0  0  0  0  0  0  0  0  0  0  0  0
   -3.3460   18.0906  -32.3220 H   0  0  0  0  0  0  0  0  0  0  0  0
   -3.6282   17.3726  -33.9519 H   0  0  0  0  0  0  0  0  0  0  0  0
   -3.9387   19.9897  -33.5317 H   0  0  0  0  0  0  0  0  0  0  0  0
   -5.0720   19.0466  -34.6077 H   0  0  0  0  0  0  0  0  0  0  0  0
   -7.9031   25.0784  -30.2502 H   0  0  0  0  0  0  0  0  0  0  0  0
   -5.7252   25.9572  -29.4246 H   0  0  0  0  0  0  0  0  0  0  0  0
  1  2  1  0
  2  3  1  0
  3  4  2  0
  4  5  1  0
  5  6  2  0
  6  7  1  0
  7  8  1  0
  8  9  1  0
  8 10  1  0
 10 11  1  0
 11 12  1  0
 12 13  1  0
 13 14  1  0
 14 15  1  0
 15 16  1  0
 16 17  1  0
 17 18  2  0
 18 19  1  0
 19 20  2  0
 20 21  1  0
 21 22  2  0
 22 23  1  0
 16 24  1  0
 24 25  1  0
  6 26  1  0
 26 27  2  0
 27  3  1  0
 25 13  1  0
 22 17  1  0
  1 28  1  0
  1 29  1  0
  1 30  1  0
  4 31  1  0
  5 32  1  0
  7 33  1  0
  7 34  1  0
  9 35  1  0
  9 36  1  0
  9 37  1  0
 10 38  1  0
 10 39  1  0
 11 40  1  0
 11 41  1  0
 12 42  1  0
 12 43  1  0
 14 44  1  0
 14 45  1  0
 15 46  1  0
 15 47  1  0
 18 48  1  0
 19 49  1  0
 20 50  1  0
 21 51  1  0
 24 52  1  0
 24 53  1  0
 25 54  1  0
 25 55  1  0
 26 56  1  0
 27 57  1  0
M  END
>  <UniqueID>  (15) 
15

>  <SMILES>  (15) 
COc1ccc(CN(C)CCCN2CCN(c3ccccc3F)CC2)cc1

>  <Energy>  (15) 
73.94239749957303

>  <Genealogy>  (15) 
COc1ccc(CN(C)CCCN2CCN(c3ccccc3F)CC2)cc1 (3D coordinates assigned)
COc1ccc(CN(C)CCCN2CCN(c3ccccc3F)CC2)cc1 (nonaromatic ring conformer: 73.94239749957303 kcal/mol)

>  <smiles>  (15) 
COc1ccc(CN(C)CCCN2CCN(c3ccccc3F)CC2)cc1

>  <score_type>  (15) 
oracle

>  <origin>  (15) 
adg

>  <m_score__min__energy>  (15) 
-8.6999999999999993

>  <m_primary>  (15) 
energy

$$$$
15:0
     RDKit          3D

 27 28  0  0  0  0  0  0  0  0999 V2000
   -9.4670   21.4700  -31.2050 C   0  0  0  0  0  0  0  0  0  0  0  0
   -8.9440   22.6880  -31.9550 C   0  0  0  0  0  0  0  0  0  0  0  0
   -7.5010   22.8290  -31.7530 N   0  0  0  0  0  0  0  0  0  0  0  0
   -6.9000   23.7630  -30.9800 C   0  0  0  0  0  0  0  0  0  0  0  0
   -5.5200   23.5690  -30.9630 C   0  0  0  0  0  0  0  0  0  0  0  0
   -4.5280   24.3860  -30.2270 C   0  0  0  0  0  0  0  0  0  0  0  0
   -3.8910   25.2930  -30.8260 O   0  0  0  0  0  0  0  0  0  0  0  0
   -4.2600   24.1590  -28.7700 C   0  0  0  0  0  0  0  0  0  0  0  0
   -4.4030   22.8170  -28.4670 F   0  0  0  0  0  0  0  0  0  0  0  0
   -2.9780   24.5710  -28.4560 F   0  0  0  0  0  0  0  0  0  0  0  0
   -5.2930   22.4540  -31.7610 C   0  0  0  0  0  0  0  0  0  0  0  0
   -4.1160   21.7810  -32.1040 C   0  0  0  0  0  0  0  0  0  0  0  0
   -4.2170   20.6500  -32.9330 C   0  0  0  0  0  0  0  0  0  0  0  0
   -5.4750   20.2140  -33.3970 C   0  0  0  0  0  0  0  0  0  0  0  0
   -6.6450   20.9050  -33.0400 C   0  0  0  0  0  0  0  0  0  0  0  0
   -6.5190   22.0300  -32.2180 C   0  0  0  0  0  0  0  0  0  0  0  0
   -9.3914   21.6460  -30.1218 H   0  0  0  0  0  0  0  0  0  0  0  0
  -10.5189   21.2965  -31.4757 H   0  0  0  0  0  0  0  0  0  0  0  0
   -8.8684   20.5878  -31.4757 H   0  0  0  0  0  0  0  0  0  0  0  0
   -9.1500   22.5687  -33.0289 H   0  0  0  0  0  0  0  0  0  0  0  0
   -9.4482   23.5874  -31.5718 H   0  0  0  0  0  0  0  0  0  0  0  0
   -7.4271   24.5636  -30.4404 H   0  0  0  0  0  0  0  0  0  0  0  0
   -4.9826   24.7425  -28.1807 H   0  0  0  0  0  0  0  0  0  0  0  0
   -3.1389   22.1268  -31.7356 H   0  0  0  0  0  0  0  0  0  0  0  0
   -3.3083   20.1014  -33.2216 H   0  0  0  0  0  0  0  0  0  0  0  0
   -5.5409   19.3263  -34.0433 H   0  0  0  0  0  0  0  0  0  0  0  0
   -7.6308   20.5714  -33.3962 H   0  0  0  0  0  0  0  0  0  0  0  0
  1  2  1  0
  2  3  1  0
  3  4  1  0
  4  5  2  0
  5  6  1  0
  6  7  2  0
  6  8  1  0
  8  9  1  0
  8 10  1  0
  5 11  1  0
 11 12  2  0
 12 13  1  0
 13 14  2  0
 14 15  1  0
 15 16  2  0
 16  3  1  0
 16 11  1  0
  1 17  1  0
  1 18  1  0
  1 19  1  0
  2 20  1  0
  2 21  1  0
  4 22  1  0
  8 23  1  0
 12 24  1  0
 13 25  1  0
 14 26  1  0
 15 27  1  0
M  END
>  <UniqueID>  (16) 
16

>  <SMILES>  (16) 
CCn1cc(C(=O)C(F)F)c2ccccc21

>  <Energy>  (16) 
57.25078763376221

>  <Genealogy>  (16) 
CCn1cc(C(=O)C(F)F)c2ccccc21 (3D coordinates assigned)
CCn1cc(C(=O)C(F)F)c2ccccc21 (optimized conformer: 57.25078763376221 kcal/mol)

>  <smiles>  (16) 
CCn1cc(C(=O)C(F)F)c2ccccc21

>  <score_type>  (16) 
oracle

>  <origin>  (16) 
adg

>  <m_score__min__energy>  (16) 
-6.1900000000000004

>  <m_primary>  (16) 
energy

$$$$
16:0
     RDKit          3D

 42 45  0  0  0  0  0  0  0  0999 V2000
    1.7670   24.4270  -36.2270 C   0  0  0  0  0  0  0  0  0  0  0  0
    1.6610   23.1400  -36.8270 O   0  0  0  0  0  0  0  0  0  0  0  0
    1.1560   22.0020  -36.1790 C   0  0  0  0  0  0  0  0  0  0  0  0
    1.6000   20.7020  -36.4840 C   0  0  0  0  0  0  0  0  0  0  0  0
    1.0630   19.6020  -35.8120 C   0  0  0  0  0  0  0  0  0  0  0  0
    0.0820   19.7840  -34.8350 C   0  0  0  0  0  0  0  0  0  0  0  0
   -0.3740   21.0740  -34.5160 C   0  0  0  0  0  0  0  0  0  0  0  0
   -1.3860   21.2610  -33.5060 N   0  0  0  0  0  0  0  0  0  0  0  0
   -1.1750   21.4940  -32.1940 C   0  0  0  0  0  0  0  0  0  0  0  0
   -2.4010   21.6170  -31.5630 C   0  0  0  0  0  0  0  0  0  0  0  0
   -2.6380   22.0750  -30.1830 C   0  0  0  0  0  0  0  0  0  0  0  0
   -2.1360   23.1980  -29.6490 C   0  0  0  0  0  0  0  0  0  0  0  0
   -0.5660   23.1820  -28.7770 S   0  0  0  0  0  0  0  0  0  0  0  0
   -0.8480   24.9110  -28.3880 C   0  0  0  0  0  0  0  0  0  0  0  0
   -0.0790   25.5590  -27.6320 O   0  0  0  0  0  0  0  0  0  0  0  0
   -1.9930   25.5160  -28.9730 N   0  0  0  0  0  0  0  0  0  0  0  0
   -2.7120   24.5460  -29.7120 C   0  0  0  0  0  0  0  0  0  0  0  0
   -3.7140   24.8610  -30.4050 O   0  0  0  0  0  0  0  0  0  0  0  0
   -3.3420   21.4830  -32.5790 C   0  0  0  0  0  0  0  0  0  0  0  0
   -4.8150   21.5860  -32.4610 C   0  0  0  0  0  0  0  0  0  0  0  0
   -5.6400   20.4880  -32.7570 C   0  0  0  0  0  0  0  0  0  0  0  0
   -7.0310   20.5980  -32.6500 C   0  0  0  0  0  0  0  0  0  0  0  0
   -7.6080   21.8070  -32.2520 C   0  0  0  0  0  0  0  0  0  0  0  0
   -8.9560   21.9120  -32.1490 F   0  0  0  0  0  0  0  0  0  0  0  0
   -6.7970   22.9070  -31.9650 C   0  0  0  0  0  0  0  0  0  0  0  0
   -5.4070   22.8000  -32.0730 C   0  0  0  0  0  0  0  0  0  0  0  0
   -2.6910   21.2560  -33.7370 N   0  0  0  0  0  0  0  0  0  0  0  0
    0.1730   22.1780  -35.1970 C   0  0  0  0  0  0  0  0  0  0  0  0
    1.7584   24.3229  -35.1320 H   0  0  0  0  0  0  0  0  0  0  0  0
    2.7073   24.9024  -36.5428 H   0  0  0  0  0  0  0  0  0  0  0  0
    0.9171   25.0499  -36.5428 H   0  0  0  0  0  0  0  0  0  0  0  0
    2.3717   20.5520  -37.2534 H   0  0  0  0  0  0  0  0  0  0  0  0
    1.4142   18.5879  -36.0533 H   0  0  0  0  0  0  0  0  0  0  0  0
   -0.3365   18.9116  -34.3117 H   0  0  0  0  0  0  0  0  0  0  0  0
   -0.1920   21.5731  -31.7066 H   0  0  0  0  0  0  0  0  0  0  0  0
   -3.2752   21.4481  -29.5419 H   0  0  0  0  0  0  0  0  0  0  0  0
   -5.1898   19.5360  -33.0748 H   0  0  0  0  0  0  0  0  0  0  0  0
   -7.6703   19.7327  -32.8792 H   0  0  0  0  0  0  0  0  0  0  0  0
   -7.2522   23.8588  -31.6536 H   0  0  0  0  0  0  0  0  0  0  0  0
   -4.7730   23.6715  -31.8529 H   0  0  0  0  0  0  0  0  0  0  0  0
   -3.1330   21.1240  -34.6750 H   0  0  0  0  0  0  0  0  0  0  0  0
   -0.1763   23.1925  -34.9546 H   0  0  0  0  0  0  0  0  0  0  0  0
  1  2  1  0
  2  3  1  0
  3  4  2  0
  4  5  1  0
  5  6  2  0
  6  7  1  0
  7  8  1  0
  8  9  1  0
  9 10  2  0
 10 11  1  0
 11 12  2  3
 12 13  1  0
 13 14  1  0
 14 15  2  0
 14 16  1  0
 16 17  1  0
 17 18  2  0
 10 19  1  0
 19 20  1  0
 20 21  2  0
 21 22  1  0
 22 23  2  0
 23 24  1  0
 23 25  1  0
 25 26  2  0
 19 27  2  0
  7 28  2  0
 28  3  1  0
 27  8  1  0
 17 12  1  0
 26 20  1  0
  1 29  1  0
  1 30  1  0
  1 31  1  0
  4 32  1  0
  5 33  1  0
  6 34  1  0
  9 35  1  0
 11 36  1  0
 21 37  1  0
 22 38  1  0
 25 39  1  0
 26 40  1  0
 27 41  1  0
 28 42  1  0
M  CHG  2  16  -1  27   1
M  END
>  <UniqueID>  (17) 
17

>  <SMILES>  (17) 
COc1cccc(-n2cc(C=C3SC(=O)[N-]C3=O)c(-c3ccc(F)cc3)[nH+]2)c1

>  <Energy>  (17) 
109.15090788927611

>  <Genealogy>  (17) 
COc1cccc(-n2cc(C=C3SC(=O)[N-]C3=O)c(-c3ccc(F)cc3)[nH+]2)c1 (protonated)
COc1cccc(-n2cc(C=C3SC(=O)[N-]C3=O)c(-c3ccc(F)cc3)[nH+]2)c1 (3D coordinates assigned)
COc1cccc(-n2cc(C=C3SC(=O)[N-]C3=O)c(-c3ccc(F)cc3)[nH+]2)c1 (nonaromatic ring conformer: 109.15090788927611 kcal/mol)

>  <smiles>  (17) 
COc1cccc(-n2cc(C=C3SC(=O)NC3=O)c(-c3ccc(F)cc3)n2)c1

>  <score_type>  (17) 
oracle

>  <origin>  (17) 
adg

>  <m_score__min__energy>  (17) 
-10.43

>  <m_primary>  (17) 
energy

$$$$
17:0
     RDKit          3D

 50 52  0  0  0  0  0  0  0  0999 V2000
   -3.0080   25.1200  -30.5960 H   0  0  0  0  0  0  0  0  0  0  0  0
   -3.8700   25.6630  -30.8190 N   0  0  0  0  0  0  0  0  0  0  0  0
   -5.1650   25.0840  -30.6660 C   0  0  0  0  0  0  0  0  0  0  0  0
   -6.1530   25.8250  -30.4210 O   0  0  0  0  0  0  0  0  0  0  0  0
   -5.3790   23.6500  -30.9240 C   0  0  0  0  0  0  0  0  0  0  0  0
   -6.6730   23.2270  -30.9590 N   0  0  0  0  0  0  0  0  0  0  0  0
   -7.0170   21.9920  -31.4000 C   0  0  0  0  0  0  0  0  0  0  0  0
   -8.3550   21.5920  -31.4330 C   0  0  0  0  0  0  0  0  0  0  0  0
   -9.1414   22.2672  -31.0645 H   0  0  0  0  0  0  0  0  0  0  0  0
   -8.6930   20.3300  -31.9360 C   0  0  0  0  0  0  0  0  0  0  0  0
   -9.7473   20.0169  -31.9585 H   0  0  0  0  0  0  0  0  0  0  0  0
   -7.7010   19.4620  -32.4110 C   0  0  0  0  0  0  0  0  0  0  0  0
   -8.0960   18.2130  -32.9120 O   0  0  0  0  0  0  0  0  0  0  0  0
   -7.2160   17.1100  -33.1090 C   0  0  0  0  0  0  0  0  0  0  0  0
   -6.9001   16.7140  -32.1326 H   0  0  0  0  0  0  0  0  0  0  0  0
   -7.7363   16.3220  -33.6733 H   0  0  0  0  0  0  0  0  0  0  0  0
   -6.3322   17.4423  -33.6733 H   0  0  0  0  0  0  0  0  0  0  0  0
   -6.3510   19.8680  -32.3710 C   0  0  0  0  0  0  0  0  0  0  0  0
   -5.5625   19.1931  -32.7353 H   0  0  0  0  0  0  0  0  0  0  0  0
   -6.0150   21.1290  -31.8680 C   0  0  0  0  0  0  0  0  0  0  0  0
   -4.7200   21.5270  -31.8080 N   0  0  0  0  0  0  0  0  0  0  0  0
   -4.3510   22.7400  -31.3130 C   0  0  0  0  0  0  0  0  0  0  0  0
   -3.0700   22.9670  -31.1960 N   0  0  0  0  0  0  0  0  0  0  0  0
   -1.9590   22.0540  -31.2180 C   0  0  0  0  0  0  0  0  0  0  0  0
   -0.7900   22.3750  -30.4360 N   0  0  0  0  0  0  0  0  0  0  0  0
    0.0820   21.8090  -30.5040 H   0  0  0  0  0  0  0  0  0  0  0  0
   -0.7870   23.4710  -29.4700 C   0  0  0  0  0  0  0  0  0  0  0  0
    0.0453   23.3311  -28.7646 H   0  0  0  0  0  0  0  0  0  0  0  0
   -0.6678   24.4230  -30.0081 H   0  0  0  0  0  0  0  0  0  0  0  0
   -2.0770   23.4970  -28.7130 C   0  0  0  0  0  0  0  0  0  0  0  0
   -2.7860   24.5820  -28.5010 O   0  0  0  0  0  0  0  0  0  0  0  0
   -3.8400   24.2600  -27.7890 C   0  0  0  0  0  0  0  0  0  0  0  0
   -4.6194   24.9619  -27.4575 H   0  0  0  0  0  0  0  0  0  0  0  0
   -3.8220   22.9050  -27.5190 C   0  0  0  0  0  0  0  0  0  0  0  0
   -4.5680   22.3361  -26.9447 H   0  0  0  0  0  0  0  0  0  0  0  0
   -2.6810   22.4090  -28.1140 C   0  0  0  0  0  0  0  0  0  0  0  0
   -2.3270   21.3675  -28.1119 H   0  0  0  0  0  0  0  0  0  0  0  0
   -1.9730   21.0430  -32.0500 N   0  0  0  0  0  0  0  0  0  0  0  0
   -2.8540   20.4890  -32.1440 H   0  0  0  0  0  0  0  0  0  0  0  0
   -0.8800   20.6800  -32.9610 C   0  0  0  0  0  0  0  0  0  0  0  0
   -0.1444   20.0737  -32.4120 H   0  0  0  0  0  0  0  0  0  0  0  0
   -0.4234   21.6076  -33.3366 H   0  0  0  0  0  0  0  0  0  0  0  0
   -1.3880   19.8780  -34.1600 C   0  0  0  0  0  0  0  0  0  0  0  0
   -1.0529   18.8340  -34.0717 H   0  0  0  0  0  0  0  0  0  0  0  0
   -0.9894   20.3130  -35.0884 H   0  0  0  0  0  0  0  0  0  0  0  0
   -2.7990   19.9190  -34.1880 O   0  0  0  0  0  0  0  0  0  0  0  0
   -3.3100   18.6330  -33.9190 C   0  0  0  0  0  0  0  0  0  0  0  0
   -3.3698   18.4824  -32.8310 H   0  0  0  0  0  0  0  0  0  0  0  0
   -4.3141   18.5382  -34.3580 H   0  0  0  0  0  0  0  0  0  0  0  0
   -2.6448   17.8749  -34.3580 H   0  0  0  0  0  0  0  0  0  0  0  0
  1  2  1  0
  2  3  1  0
  3  4  2  0
  3  5  1  0
  5  6  2  0
  6  7  1  0
  7  8  2  0
  8  9  1  0
  8 10  1  0
 10 11  1  0
 10 12  2  0
 12 13  1  0
 13 14  1  0
 14 15  1  0
 14 16  1  0
 14 17  1  0
 12 18  1  0
 18 19  1  0
 18 20  2  0
 20 21  1  0
 21 22  1  0
 22 23  2  0
 23 24  1  0
 24 25  1  0
 25 26  1  0
 25 27  1  0
 27 28  1  0
 27 29  1  0
 27 30  1  0
 30 31  1  0
 31 32  1  0
 32 33  1  0
 32 34  2  0
 34 35  1  0
 34 36  1  0
 36 37  1  0
 24 38  2  0
 38 39  1  0
 38 40  1  0
 40 41  1  0
 40 42  1  0
 40 43  1  0
 43 44  1  0
 43 45  1  0
 43 46  1  0
 46 47  1  0
 47 48  1  0
 47 49  1  0
 47 50  1  0
 22  5  1  0
 36 30  2  0
 20  7  1  0
M  CHG  3   2  -1  21  -1  38   1
M  END
>  <UniqueID>  (18) 
18

>  <SMILES>  (18) 
COCC[NH+]=C(/N=c1/[n-]c2cc(OC)ccc2nc1C([NH-])=O)NCc1ccco1

>  <Energy>  (18) 
95.15076728152911

>  <Genealogy>  (18) 
COCC[NH+]=C(N=c1[n-]c2cc(OC)ccc2nc1C([NH-])=O)NCc1ccco1 (protonated)
COCC[NH+]=C(/N=c1/[n-]c2cc(OC)ccc2nc1C([NH-])=O)NCc1ccco1 (cis-trans isomerization)
COCC[NH+]=C(/N=c1/[n-]c2cc(OC)ccc2nc1C([NH-])=O)NCc1ccco1 (3D coordinates assigned)
COCC[NH+]=C(/N=c1/[n-]c2cc(OC)ccc2nc1C([NH-])=O)NCc1ccco1 (optimized conformer: 95.15076728152911 kcal/mol)

>  <smiles>  (18) 
COCCN=C(N=c1[nH]c2cc(OC)ccc2nc1C(N)=O)NCc1ccco1

>  <score_type>  (18) 
oracle

>  <origin>  (18) 
adg

>  <m_score__min__energy>  (18) 
-9.3499999999999996

>  <m_primary>  (18) 
energy

$$$$
18:0
     RDKit          3D

 43 47  0  0  0  0  0  0  0  0999 V2000
   -2.8750   20.8050  -30.0530 C   0  0  0  0  0  0  0  0  0  0  0  0
   -3.8900   21.6200  -30.8080 C   0  0  0  0  0  0  0  0  0  0  0  0
   -4.3620   21.2940  -32.0900 C   0  0  0  0  0  0  0  0  0  0  0  0
   -4.0180   20.0860  -32.8670 C   0  0  0  0  0  0  0  0  0  0  0  0
   -2.7400   19.9480  -33.3110 N   0  0  0  0  0  0  0  0  0  0  0  0
   -2.3280   18.8380  -33.9710 C   0  0  0  0  0  0  0  0  0  0  0  0
   -1.0070   18.7300  -34.4190 C   0  0  0  0  0  0  0  0  0  0  0  0
   -0.5910   17.5750  -35.0910 C   0  0  0  0  0  0  0  0  0  0  0  0
   -1.4930   16.5300  -35.3160 C   0  0  0  0  0  0  0  0  0  0  0  0
   -2.8150   16.6330  -34.8700 C   0  0  0  0  0  0  0  0  0  0  0  0
   -3.2390   17.7880  -34.1930 C   0  0  0  0  0  0  0  0  0  0  0  0
   -4.5230   17.9160  -33.7560 N   0  0  0  0  0  0  0  0  0  0  0  0
   -4.9460   19.0430  -33.1100 C   0  0  0  0  0  0  0  0  0  0  0  0
   -6.3740   19.1570  -32.7290 C   0  0  0  0  0  0  0  0  0  0  0  0
   -7.2400   20.0040  -33.4440 C   0  0  0  0  0  0  0  0  0  0  0  0
   -8.5870   20.1000  -33.0810 C   0  0  0  0  0  0  0  0  0  0  0  0
   -9.0810   19.3460  -32.0140 C   0  0  0  0  0  0  0  0  0  0  0  0
   -8.2300   18.4900  -31.3100 C   0  0  0  0  0  0  0  0  0  0  0  0
   -6.8810   18.3910  -31.6680 C   0  0  0  0  0  0  0  0  0  0  0  0
   -5.5060   22.4440  -32.5730 S   0  0  0  0  0  0  0  0  0  0  0  0
   -5.4070   23.3600  -31.1740 C   0  0  0  0  0  0  0  0  0  0  0  0
   -6.1140   24.5180  -30.8590 C   0  0  0  0  0  0  0  0  0  0  0  0
   -5.8900   25.1150  -29.6110 C   0  0  0  0  0  0  0  0  0  0  0  0
   -4.9740   24.5440  -28.7060 C   0  0  0  0  0  0  0  0  0  0  0  0
   -4.2730   23.3750  -29.0440 C   0  0  0  0  0  0  0  0  0  0  0  0
   -4.4960   22.7850  -30.2970 C   0  0  0  0  0  0  0  0  0  0  0  0
   -3.0334   20.9322  -28.9719 H   0  0  0  0  0  0  0  0  0  0  0  0
   -2.9871   19.7432  -30.3176 H   0  0  0  0  0  0  0  0  0  0  0  0
   -1.8625   21.1438  -30.3176 H   0  0  0  0  0  0  0  0  0  0  0  0
   -0.2967   19.5513  -34.2434 H   0  0  0  0  0  0  0  0  0  0  0  0
    0.4476   17.4889  -35.4430 H   0  0  0  0  0  0  0  0  0  0  0  0
   -1.1619   15.6243  -35.8453 H   0  0  0  0  0  0  0  0  0  0  0  0
   -3.5220   15.8097  -35.0495 H   0  0  0  0  0  0  0  0  0  0  0  0
   -5.2060   17.1450  -33.9420 H   0  0  0  0  0  0  0  0  0  0  0  0
   -6.8567   20.5923  -34.2908 H   0  0  0  0  0  0  0  0  0  0  0  0
   -9.2589   20.7706  -33.6368 H   0  0  0  0  0  0  0  0  0  0  0  0
  -10.1401   19.4261  -31.7279 H   0  0  0  0  0  0  0  0  0  0  0  0
   -8.6212   17.8930  -30.4730 H   0  0  0  0  0  0  0  0  0  0  0  0
   -6.2158   17.7106  -31.1161 H   0  0  0  0  0  0  0  0  0  0  0  0
   -6.8301   24.9530  -31.5718 H   0  0  0  0  0  0  0  0  0  0  0  0
   -6.4313   26.0326  -29.3373 H   0  0  0  0  0  0  0  0  0  0  0  0
   -4.8065   25.0173  -27.7272 H   0  0  0  0  0  0  0  0  0  0  0  0
   -3.5592   22.9283  -28.3362 H   0  0  0  0  0  0  0  0  0  0  0  0
  1  2  1  0
  2  3  2  0
  3  4  1  0
  4  5  2  0
  5  6  1  0
  6  7  2  0
  7  8  1  0
  8  9  2  0
  9 10  1  0
 10 11  2  0
 11 12  1  0
 12 13  2  0
 13 14  1  0
 14 15  2  0
 15 16  1  0
 16 17  2  0
 17 18  1  0
 18 19  2  0
  3 20  1  0
 20 21  1  0
 21 22  2  0
 22 23  1  0
 23 24  2  0
 24 25  1  0
 25 26  2  0
 26  2  1  0
 13  4  1  0
 19 14  1  0
 26 21  1  0
 11  6  1  0
  1 27  1  0
  1 28  1  0
  1 29  1  0
  7 30  1  0
  8 31  1  0
  9 32  1  0
 10 33  1  0
 12 34  1  0
 15 35  1  0
 16 36  1  0
 17 37  1  0
 18 38  1  0
 19 39  1  0
 22 40  1  0
 23 41  1  0
 24 42  1  0
 25 43  1  0
M  CHG  1  12   1
M  END
>  <UniqueID>  (19) 
19

>  <SMILES>  (19) 
Cc1c(-c2nc3ccccc3[nH+]c2-c2ccccc2)sc2ccccc12

>  <Energy>  (19) 
95.30997850799477

>  <Genealogy>  (19) 
Cc1c(-c2nc3ccccc3[nH+]c2-c2ccccc2)sc2ccccc12 (protonated)
Cc1c(-c2nc3ccccc3[nH+]c2-c2ccccc2)sc2ccccc12 (3D coordinates assigned)
Cc1c(-c2nc3ccccc3[nH+]c2-c2ccccc2)sc2ccccc12 (optimized conformer: 95.30997850799477 kcal/mol)

>  <smiles>  (19) 
Cc1c(-c2nc3ccccc3nc2-c2ccccc2)sc2ccccc12

>  <score_type>  (19) 
oracle

>  <origin>  (19) 
adg

>  <m_score__min__energy>  (19) 
-8.0099999999999998

>  <m_primary>  (19) 
energy

$$$$
19:0
     RDKit          3D

 45 49  0  0  0  0  0  0  0  0999 V2000
   -1.6630   19.8120  -26.2790 C   0  0  0  0  0  0  0  0  0  0  0  0
   -0.9880   20.8660  -26.9580 O   0  0  0  0  0  0  0  0  0  0  0  0
   -1.5700   22.0960  -27.3140 C   0  0  0  0  0  0  0  0  0  0  0  0
   -1.4210   23.2350  -26.4990 C   0  0  0  0  0  0  0  0  0  0  0  0
   -2.0110   24.4530  -26.8540 C   0  0  0  0  0  0  0  0  0  0  0  0
   -1.8120   25.6670  -25.9950 C   0  0  0  0  0  0  0  0  0  0  0  0
   -2.7310   24.5490  -28.0490 C   0  0  0  0  0  0  0  0  0  0  0  0
   -2.8940   23.4280  -28.8790 C   0  0  0  0  0  0  0  0  0  0  0  0
   -2.3160   22.1940  -28.5140 C   0  0  0  0  0  0  0  0  0  0  0  0
   -2.5090   21.0310  -29.4180 C   0  0  0  0  0  0  0  0  0  0  0  0
   -2.0090   19.9050  -29.1480 O   0  0  0  0  0  0  0  0  0  0  0  0
   -3.2920   21.1740  -30.6570 C   0  0  0  0  0  0  0  0  0  0  0  0
   -3.8610   22.3420  -31.0090 C   0  0  0  0  0  0  0  0  0  0  0  0
   -4.6320   22.5050  -32.3130 C   0  0  1  0  0  0  0  0  0  0  0  0
   -4.2470   21.1400  -33.4700 S   0  0  0  0  0  0  0  0  0  0  0  0
   -5.2410   19.8830  -32.6440 C   0  0  0  0  0  0  0  0  0  0  0  0
   -4.7330   18.5860  -32.5170 C   0  0  0  0  0  0  0  0  0  0  0  0
   -5.5220   17.5740  -31.9640 C   0  0  0  0  0  0  0  0  0  0  0  0
   -6.8190   17.8580  -31.5300 C   0  0  0  0  0  0  0  0  0  0  0  0
   -7.3240   19.1580  -31.6260 C   0  0  0  0  0  0  0  0  0  0  0  0
   -6.5360   20.1850  -32.1780 C   0  0  0  0  0  0  0  0  0  0  0  0
   -6.9590   21.5600  -32.1220 N   0  0  0  0  0  0  0  0  0  0  0  0
   -8.2040   22.0440  -31.9330 C   0  0  0  0  0  0  0  0  0  0  0  0
   -8.1600   23.4230  -31.8430 C   0  0  0  0  0  0  0  0  0  0  0  0
   -6.8350   23.7920  -31.9780 C   0  0  0  0  0  0  0  0  0  0  0  0
   -6.1260   22.6210  -32.1550 C   0  0  0  0  0  0  0  0  0  0  0  0
   -3.6670   23.5330  -30.1410 C   0  0  0  0  0  0  0  0  0  0  0  0
   -4.1560   24.6440  -30.4850 O   0  0  0  0  0  0  0  0  0  0  0  0
   -1.5701   19.9571  -25.1926 H   0  0  0  0  0  0  0  0  0  0  0  0
   -2.7265   19.8167  -26.5599 H   0  0  0  0  0  0  0  0  0  0  0  0
   -1.2138   18.8480  -26.5599 H   0  0  0  0  0  0  0  0  0  0  0  0
   -0.8334   23.1661  -25.5717 H   0  0  0  0  0  0  0  0  0  0  0  0
   -1.8594   25.3777  -24.9348 H   0  0  0  0  0  0  0  0  0  0  0  0
   -0.8290   26.1113  -26.2102 H   0  0  0  0  0  0  0  0  0  0  0  0
   -2.6017   26.4019  -26.2102 H   0  0  0  0  0  0  0  0  0  0  0  0
   -3.1741   25.5123  -28.3418 H   0  0  0  0  0  0  0  0  0  0  0  0
   -3.4155   20.3006  -31.3142 H   0  0  0  0  0  0  0  0  0  0  0  0
   -4.2905   23.4678  -32.7208 H   0  0  0  0  0  0  0  0  0  0  0  0
   -3.7099   18.3621  -32.8533 H   0  0  0  0  0  0  0  0  0  0  0  0
   -5.1218   16.5537  -31.8704 H   0  0  0  0  0  0  0  0  0  0  0  0
   -7.4450   17.0562  -31.1114 H   0  0  0  0  0  0  0  0  0  0  0  0
   -8.3407   19.3789  -31.2689 H   0  0  0  0  0  0  0  0  0  0  0  0
   -9.1164   21.4337  -31.8613 H   0  0  0  0  0  0  0  0  0  0  0  0
   -9.0159   24.0974  -31.6927 H   0  0  0  0  0  0  0  0  0  0  0  0
   -6.4274   24.8133  -31.9500 H   0  0  0  0  0  0  0  0  0  0  0  0
  1  2  1  0
  2  3  1  0
  3  4  2  0
  4  5  1  0
  5  6  1  0
  5  7  2  0
  7  8  1  0
  8  9  2  0
  9 10  1  0
 10 11  2  0
 10 12  1  0
 12 13  2  0
 13 14  1  0
 14 15  1  0
 15 16  1  0
 16 17  2  0
 17 18  1  0
 18 19  2  0
 19 20  1  0
 20 21  2  0
 21 22  1  0
 22 23  1  0
 23 24  2  0
 24 25  1  0
 25 26  2  0
 13 27  1  0
 27 28  2  0
  9  3  1  0
 26 14  1  0
 27  8  1  0
 21 16  1  0
 26 22  1  0
  1 29  1  0
  1 30  1  0
  1 31  1  0
  4 32  1  0
  6 33  1  0
  6 34  1  0
  6 35  1  0
  7 36  1  0
 12 37  1  0
 14 38  1  6
 17 39  1  0
 18 40  1  0
 19 41  1  0
 20 42  1  0
 23 43  1  0
 24 44  1  0
 25 45  1  0
M  END
>  <UniqueID>  (20) 
20

>  <SMILES>  (20) 
COc1cc(C)cc2c1C(=O)C=C([C@H]1Sc3ccccc3-n3cccc31)C2=O

>  <Energy>  (20) 
88.62002889299134

>  <Genealogy>  (20) 
COc1cc(C)cc2c1C(=O)C=C([C@H]1Sc3ccccc3-n3cccc31)C2=O (chirality)
COc1cc(C)cc2c1C(=O)C=C([C@H]1Sc3ccccc3-n3cccc31)C2=O (3D coordinates assigned)
COc1cc(C)cc2c1C(=O)C=C([C@H]1Sc3ccccc3-n3cccc31)C2=O (nonaromatic ring conformer: 88.62002889299134 kcal/mol)

>  <smiles>  (20) 
COc1cc(C)cc2c1C(=O)C=C(C1Sc3ccccc3-n3cccc31)C2=O

>  <score_type>  (20) 
oracle

>  <origin>  (20) 
adg

>  <m_score__min__energy>  (20) 
-9.3699999999999992

>  <m_primary>  (20) 
energy

$$$$
20:0
     RDKit          3D

 43 45  0  0  0  0  0  0  0  0999 V2000
   -5.3780   25.9810  -30.4520 C   0  0  0  0  0  0  0  0  0  0  0  0
   -4.1810   25.2230  -30.5950 O   0  0  0  0  0  0  0  0  0  0  0  0
   -4.1450   23.8430  -30.8430 C   0  0  0  0  0  0  0  0  0  0  0  0
   -3.0190   23.1230  -30.4310 C   0  0  0  0  0  0  0  0  0  0  0  0
   -2.9560   21.7480  -30.6560 C   0  0  0  0  0  0  0  0  0  0  0  0
   -3.9880   21.1090  -31.2670 N   0  0  0  0  0  0  0  0  0  0  0  0
   -5.1030   21.7710  -31.6810 C   0  0  0  0  0  0  0  0  0  0  0  0
   -6.2330   21.0070  -32.3380 C   0  0  0  0  0  0  0  0  0  0  0  0
   -5.8790   19.6110  -32.7010 N   0  0  0  0  0  0  0  0  0  0  0  0
   -5.9380   19.3910  -34.1690 C   0  0  0  0  0  0  0  0  0  0  0  0
   -5.6080   17.9360  -34.5240 C   0  0  0  0  0  0  0  0  0  0  0  0
   -6.4360   17.0110  -33.7410 N   0  0  0  0  0  0  0  0  0  0  0  0
   -6.2420   15.5940  -33.8690 C   0  0  0  0  0  0  0  0  0  0  0  0
   -7.1960   14.8140  -34.5410 C   0  0  0  0  0  0  0  0  0  0  0  0
   -7.0200   13.4320  -34.6630 C   0  0  0  0  0  0  0  0  0  0  0  0
   -5.8870   12.8210  -34.1170 C   0  0  0  0  0  0  0  0  0  0  0  0
   -4.9290   13.5900  -33.4530 C   0  0  0  0  0  0  0  0  0  0  0  0
   -5.1020   14.9740  -33.3270 C   0  0  0  0  0  0  0  0  0  0  0  0
   -4.1450   15.7090  -32.7070 F   0  0  0  0  0  0  0  0  0  0  0  0
   -7.3550   17.5470  -32.7330 C   0  0  0  0  0  0  0  0  0  0  0  0
   -6.6250   18.6000  -31.8870 C   0  0  0  0  0  0  0  0  0  0  0  0
   -5.1960   23.1580  -31.4810 C   0  0  0  0  0  0  0  0  0  0  0  0
   -5.5982   26.1205  -29.3833 H   0  0  0  0  0  0  0  0  0  0  0  0
   -5.2497   26.9628  -30.9311 H   0  0  0  0  0  0  0  0  0  0  0  0
   -6.2107   25.4452  -30.9311 H   0  0  0  0  0  0  0  0  0  0  0  0
   -2.1861   23.6393  -29.9313 H   0  0  0  0  0  0  0  0  0  0  0  0
   -2.0693   21.1798  -30.3383 H   0  0  0  0  0  0  0  0  0  0  0  0
   -7.0842   20.9794  -31.6418 H   0  0  0  0  0  0  0  0  0  0  0  0
   -6.4732   21.5313  -33.2747 H   0  0  0  0  0  0  0  0  0  0  0  0
   -4.8670   19.5090  -32.4420 H   0  0  0  0  0  0  0  0  0  0  0  0
   -6.9510   19.6271  -34.5270 H   0  0  0  0  0  0  0  0  0  0  0  0
   -5.1953   20.0446  -34.6499 H   0  0  0  0  0  0  0  0  0  0  0  0
   -5.7988   17.7733  -35.5950 H   0  0  0  0  0  0  0  0  0  0  0  0
   -4.5496   17.7464  -34.2921 H   0  0  0  0  0  0  0  0  0  0  0  0
   -8.0869   15.2923  -34.9740 H   0  0  0  0  0  0  0  0  0  0  0  0
   -7.7727   12.8258  -35.1883 H   0  0  0  0  0  0  0  0  0  0  0  0
   -5.7502   11.7336  -34.2106 H   0  0  0  0  0  0  0  0  0  0  0  0
   -4.0365   13.1076  -33.0280 H   0  0  0  0  0  0  0  0  0  0  0  0
   -8.2178   18.0114  -33.2328 H   0  0  0  0  0  0  0  0  0  0  0  0
   -7.7046   16.7312  -32.0833 H   0  0  0  0  0  0  0  0  0  0  0  0
   -7.3685   19.1286  -31.2723 H   0  0  0  0  0  0  0  0  0  0  0  0
   -5.8820   18.0652  -31.2772 H   0  0  0  0  0  0  0  0  0  0  0  0
   -6.0865   23.7067  -31.8216 H   0  0  0  0  0  0  0  0  0  0  0  0
  1  2  1  0
  2  3  1  0
  3  4  2  0
  4  5  1  0
  5  6  2  0
  6  7  1  0
  7  8  1  0
  8  9  1  0
  9 10  1  0
 10 11  1  0
 11 12  1  0
 12 13  1  0
 13 14  2  0
 14 15  1  0
 15 16  2  0
 16 17  1  0
 17 18  2  0
 18 19  1  0
 12 20  1  0
 20 21  1  0
  7 22  2  0
 22  3  1  0
 21  9  1  0
 18 13  1  0
  1 23  1  0
  1 24  1  0
  1 25  1  0
  4 26  1  0
  5 27  1  0
  8 28  1  0
  8 29  1  0
  9 30  1  0
 10 31  1  0
 10 32  1  0
 11 33  1  0
 11 34  1  0
 14 35  1  0
 15 36  1  0
 16 37  1  0
 17 38  1  0
 20 39  1  0
 20 40  1  0
 21 41  1  0
 21 42  1  0
 22 43  1  0
M  CHG  1   9   1
M  END
>  <UniqueID>  (21) 
21

>  <SMILES>  (21) 
COc1ccnc(C[NH+]2CCN(c3ccccc3F)CC2)c1

>  <Energy>  (21) 
59.18318973061375

>  <Genealogy>  (21) 
COc1ccnc(C[NH+]2CCN(c3ccccc3F)CC2)c1 (protonated)
COc1ccnc(C[NH+]2CCN(c3ccccc3F)CC2)c1 (3D coordinates assigned)
COc1ccnc(C[NH+]2CCN(c3ccccc3F)CC2)c1 (nonaromatic ring conformer: 59.18318973061375 kcal/mol)

>  <smiles>  (21) 
COc1ccnc(CN2CCN(c3ccccc3F)CC2)c1

>  <score_type>  (21) 
oracle

>  <origin>  (21) 
adg

>  <m_score__min__energy>  (21) 
-6.7800000000000002

>  <m_primary>  (21) 
energy

$$$$
21:0
     RDKit          3D

 48 50  0  0  0  0  0  0  0  0999 V2000
   -2.8020   18.6950  -26.5260 C   0  0  0  0  0  0  0  0  0  0  0  0
   -2.3070   20.1460  -26.6250 C   0  0  0  0  0  0  0  0  0  0  0  0
   -1.6310   20.4650  -27.9050 N   0  0  0  0  0  0  0  0  0  0  0  0
   -0.4690   21.3620  -27.7300 C   0  0  0  0  0  0  0  0  0  0  0  0
   -0.3880   22.3750  -28.8710 C   0  0  0  0  0  0  0  0  0  0  0  0
   -2.5680   20.9130  -28.9620 C   0  0  0  0  0  0  0  0  0  0  0  0
   -3.5780   21.9140  -28.3860 C   0  0  0  0  0  0  0  0  0  0  0  0
   -3.8460   23.0240  -29.3140 N   0  0  0  0  0  0  0  0  0  0  0  0
   -4.5500   23.0180  -30.4710 C   0  0  0  0  0  0  0  0  0  0  0  0
   -5.1680   21.8380  -31.0990 C   0  0  0  0  0  0  0  0  0  0  0  0
   -4.3530   20.8240  -31.6240 C   0  0  0  0  0  0  0  0  0  0  0  0
   -4.9260   19.6900  -32.2090 C   0  0  0  0  0  0  0  0  0  0  0  0
   -6.3170   19.5690  -32.2850 C   0  0  0  0  0  0  0  0  0  0  0  0
   -7.0990   18.0210  -33.0830 Br  0  0  0  0  0  0  0  0  0  0  0  0
   -7.1350   20.5860  -31.7830 C   0  0  0  0  0  0  0  0  0  0  0  0
   -6.5640   21.7200  -31.1970 C   0  0  0  0  0  0  0  0  0  0  0  0
   -4.5960   24.2440  -31.0260 N   0  0  0  0  0  0  0  0  0  0  0  0
   -3.9450   25.0630  -30.2170 N   0  0  0  0  0  0  0  0  0  0  0  0
   -3.4920   24.3230  -29.1870 C   0  0  0  0  0  0  0  0  0  0  0  0
   -2.7350   24.9010  -28.0630 C   0  0  0  0  0  0  0  0  0  0  0  0
   -3.0940   24.5920  -26.7420 C   0  0  0  0  0  0  0  0  0  0  0  0
   -2.3730   25.1290  -25.6710 C   0  0  0  0  0  0  0  0  0  0  0  0
   -1.2820   25.9670  -25.9130 C   0  0  0  0  0  0  0  0  0  0  0  0
   -0.9050   26.2640  -27.2260 C   0  0  0  0  0  0  0  0  0  0  0  0
   -1.6250   25.7310  -28.3020 C   0  0  0  0  0  0  0  0  0  0  0  0
   -1.2380   26.0390  -29.6010 O   0  0  0  0  0  0  0  0  0  0  0  0
   -2.8986   18.4119  -25.4674 H   0  0  0  0  0  0  0  0  0  0  0  0
   -3.7810   18.6071  -27.0198 H   0  0  0  0  0  0  0  0  0  0  0  0
   -2.0809   18.0271  -27.0198 H   0  0  0  0  0  0  0  0  0  0  0  0
   -3.1728   20.8154  -26.5146 H   0  0  0  0  0  0  0  0  0  0  0  0
   -1.5617   20.2837  -25.8278 H   0  0  0  0  0  0  0  0  0  0  0  0
   -0.5698   21.9006  -26.7762 H   0  0  0  0  0  0  0  0  0  0  0  0
    0.4482   20.7548  -27.7322 H   0  0  0  0  0  0  0  0  0  0  0  0
   -0.3068   23.3901  -28.4550 H   0  0  0  0  0  0  0  0  0  0  0  0
    0.4959   22.1605  -29.4897 H   0  0  0  0  0  0  0  0  0  0  0  0
   -1.2947   22.3037  -29.4897 H   0  0  0  0  0  0  0  0  0  0  0  0
   -1.9995   21.3953  -29.7708 H   0  0  0  0  0  0  0  0  0  0  0  0
   -3.1113   20.0402  -29.3532 H   0  0  0  0  0  0  0  0  0  0  0  0
   -4.5217   21.3875  -28.1804 H   0  0  0  0  0  0  0  0  0  0  0  0
   -3.1491   22.3372  -27.4657 H   0  0  0  0  0  0  0  0  0  0  0  0
   -3.2584   20.9211  -31.5754 H   0  0  0  0  0  0  0  0  0  0  0  0
   -4.2821   18.8931  -32.6094 H   0  0  0  0  0  0  0  0  0  0  0  0
   -8.2291   20.4938  -31.8492 H   0  0  0  0  0  0  0  0  0  0  0  0
   -7.2104   22.5223  -30.8115 H   0  0  0  0  0  0  0  0  0  0  0  0
   -3.9464   23.9243  -26.5482 H   0  0  0  0  0  0  0  0  0  0  0  0
   -2.6651   24.8914  -24.6375 H   0  0  0  0  0  0  0  0  0  0  0  0
   -0.7190   26.3936  -25.0697 H   0  0  0  0  0  0  0  0  0  0  0  0
   -0.0407   26.9179  -27.4142 H   0  0  0  0  0  0  0  0  0  0  0  0
  1  2  1  0
  2  3  1  0
  3  4  1  0
  4  5  1  0
  3  6  1  0
  6  7  1  0
  7  8  1  0
  8  9  1  0
  9 10  1  0
 10 11  2  0
 11 12  1  0
 12 13  2  0
 13 14  1  0
 13 15  1  0
 15 16  2  0
  9 17  2  0
 17 18  1  0
 18 19  2  0
 19 20  1  0
 20 21  2  0
 21 22  1  0
 22 23  2  0
 23 24  1  0
 24 25  2  0
 25 26  1  0
 19  8  1  0
 25 20  1  0
 16 10  1  0
  1 27  1  0
  1 28  1  0
  1 29  1  0
  2 30  1  0
  2 31  1  0
  4 32  1  0
  4 33  1  0
  5 34  1  0
  5 35  1  0
  5 36  1  0
  6 37  1  0
  6 38  1  0
  7 39  1  0
  7 40  1  0
 11 41  1  0
 12 42  1  0
 15 43  1  0
 16 44  1  0
 21 45  1  0
 22 46  1  0
 23 47  1  0
 24 48  1  0
M  CHG  1  26  -1
M  END
>  <UniqueID>  (22) 
22

>  <SMILES>  (22) 
CCN(CC)CCn1c(-c2ccc(Br)cc2)nnc1-c1ccccc1[O-]

>  <Energy>  (22) 
94.28699916784258

>  <Genealogy>  (22) 
CCN(CC)CCn1c(-c2ccc(Br)cc2)nnc1-c1ccccc1[O-] (protonated)
CCN(CC)CCn1c(-c2ccc(Br)cc2)nnc1-c1ccccc1[O-] (3D coordinates assigned)
CCN(CC)CCn1c(-c2ccc(Br)cc2)nnc1-c1ccccc1[O-] (optimized conformer: 94.28699916784258 kcal/mol)

>  <smiles>  (22) 
CCN(CC)CCn1c(-c2ccc(Br)cc2)nnc1-c1ccccc1O

>  <score_type>  (22) 
oracle

>  <origin>  (22) 
adg

>  <m_score__min__energy>  (22) 
-11.84

>  <m_primary>  (22) 
energy

$$$$
22:0
     RDKit          3D

 60 62  0  0  0  0  0  0  0  0999 V2000
   -4.3610   24.1390  -28.5010 C   0  0  0  0  0  0  0  0  0  0  0  0
   -3.7020   24.5280  -29.8290 C   0  0  0  0  0  0  0  0  0  0  0  0
   -4.6030   24.3320  -30.9800 N   0  0  0  0  0  0  0  0  0  0  0  0
   -6.0140   24.5100  -30.5990 C   0  0  0  0  0  0  0  0  0  0  0  0
   -6.9220   23.5300  -31.3750 C   0  0  0  0  0  0  0  0  0  0  0  0
   -6.3320   23.0750  -32.6520 N   0  0  0  0  0  0  0  0  0  0  0  0
   -6.1990   21.6320  -32.7100 C   0  0  0  0  0  0  0  0  0  0  0  0
   -7.3580   20.8060  -32.7240 C   0  0  0  0  0  0  0  0  0  0  0  0
   -8.5930   21.3550  -32.5950 F   0  0  0  0  0  0  0  0  0  0  0  0
   -7.2510   19.4130  -32.8830 C   0  0  0  0  0  0  0  0  0  0  0  0
   -5.9740   18.8760  -33.0420 C   0  0  0  0  0  0  0  0  0  0  0  0
   -4.8510   19.6500  -33.0150 C   0  0  0  0  0  0  0  0  0  0  0  0
   -3.7500   18.8780  -33.1140 N   0  0  0  0  0  0  0  0  0  0  0  0
   -4.2560   17.6250  -33.2150 C   0  0  0  0  0  0  0  0  0  0  0  0
   -5.6100   17.5920  -33.1870 N   0  0  0  0  0  0  0  0  0  0  0  0
   -6.4510   16.4010  -33.1400 C   0  0  0  0  0  0  0  0  0  0  0  0
   -4.9110   21.0400  -32.8440 C   0  0  0  0  0  0  0  0  0  0  0  0
   -3.7560   21.8310  -32.7350 O   0  0  0  0  0  0  0  0  0  0  0  0
   -2.4280   21.3670  -32.6550 C   0  0  0  0  0  0  0  0  0  0  0  0
   -1.6510   21.1520  -33.8120 C   0  0  0  0  0  0  0  0  0  0  0  0
   -0.3360   20.6920  -33.7070 C   0  0  0  0  0  0  0  0  0  0  0  0
    0.2260   20.4560  -32.4500 C   0  0  0  0  0  0  0  0  0  0  0  0
   -0.5190   20.7000  -31.2950 C   0  0  0  0  0  0  0  0  0  0  0  0
   -1.8430   21.1650  -31.3850 C   0  0  0  0  0  0  0  0  0  0  0  0
   -2.6170   21.4180  -30.1100 C   0  0  0  0  0  0  0  0  0  0  0  0
   -1.7490   22.0770  -29.0190 C   0  0  0  0  0  0  0  0  0  0  0  0
   -1.7710   21.2610  -27.7790 N   0  0  0  0  0  0  0  0  0  0  0  0
   -0.4330   20.7360  -27.4610 C   0  0  0  0  0  0  0  0  0  0  0  0
   -2.7280   20.1460  -27.8920 C   0  0  0  0  0  0  0  0  0  0  0  0
   -3.7448   24.5027  -27.6655 H   0  0  0  0  0  0  0  0  0  0  0  0
   -5.3621   24.5910  -28.4422 H   0  0  0  0  0  0  0  0  0  0  0  0
   -4.4490   23.0441  -28.4422 H   0  0  0  0  0  0  0  0  0  0  0  0
   -3.4126   25.5882  -29.7830 H   0  0  0  0  0  0  0  0  0  0  0  0
   -2.8262   23.8781  -29.9729 H   0  0  0  0  0  0  0  0  0  0  0  0
   -4.4660   23.3720  -31.3770 H   0  0  0  0  0  0  0  0  0  0  0  0
   -6.1221   24.3239  -29.5203 H   0  0  0  0  0  0  0  0  0  0  0  0
   -6.3171   25.5388  -30.8434 H   0  0  0  0  0  0  0  0  0  0  0  0
   -7.1071   22.6495  -30.7422 H   0  0  0  0  0  0  0  0  0  0  0  0
   -7.8505   24.0676  -31.6175 H   0  0  0  0  0  0  0  0  0  0  0  0
   -5.3840   23.5110  -32.7510 H   0  0  0  0  0  0  0  0  0  0  0  0
   -6.9060   23.4380  -33.4470 H   0  0  0  0  0  0  0  0  0  0  0  0
   -8.1432   18.7696  -32.8820 H   0  0  0  0  0  0  0  0  0  0  0  0
   -3.6303   16.7253  -33.3101 H   0  0  0  0  0  0  0  0  0  0  0  0
   -6.6431   16.1289  -32.0916 H   0  0  0  0  0  0  0  0  0  0  0  0
   -7.4057   16.6061  -33.6465 H   0  0  0  0  0  0  0  0  0  0  0  0
   -5.9384   15.5699  -33.6465 H   0  0  0  0  0  0  0  0  0  0  0  0
   -2.0834   21.3479  -34.8043 H   0  0  0  0  0  0  0  0  0  0  0  0
    0.2580   20.5153  -34.6158 H   0  0  0  0  0  0  0  0  0  0  0  0
    1.2559   20.0778  -32.3704 H   0  0  0  0  0  0  0  0  0  0  0  0
   -0.0670   20.5272  -30.3071 H   0  0  0  0  0  0  0  0  0  0  0  0
   -3.4645   22.0817  -30.3365 H   0  0  0  0  0  0  0  0  0  0  0  0
   -2.9594   20.4458  -29.7258 H   0  0  0  0  0  0  0  0  0  0  0  0
   -0.7134   22.1598  -29.3803 H   0  0  0  0  0  0  0  0  0  0  0  0
   -2.1521   23.0760  -28.7966 H   0  0  0  0  0  0  0  0  0  0  0  0
   -0.3083   20.6871  -26.3692 H   0  0  0  0  0  0  0  0  0  0  0  0
   -0.3235   19.7282  -27.8881 H   0  0  0  0  0  0  0  0  0  0  0  0
    0.3326   21.4004  -27.8881 H   0  0  0  0  0  0  0  0  0  0  0  0
   -3.0179   19.8082  -26.8861 H   0  0  0  0  0  0  0  0  0  0  0  0
   -3.6217   20.4837  -28.4371 H   0  0  0  0  0  0  0  0  0  0  0  0
   -2.2587   19.3138  -28.4371 H   0  0  0  0  0  0  0  0  0  0  0  0
  1  2  1  0
  2  3  1  0
  3  4  1  0
  4  5  1  0
  5  6  1  0
  6  7  1  0
  7  8  2  0
  8  9  1  0
  8 10  1  0
 10 11  2  0
 11 12  1  0
 12 13  1  0
 13 14  2  0
 14 15  1  0
 15 16  1  0
 12 17  2  0
 17 18  1  0
 18 19  1  0
 19 20  2  0
 20 21  1  0
 21 22  2  0
 22 23  1  0
 23 24  2  0
 24 25  1  0
 25 26  1  0
 26 27  1  0
 27 28  1  0
 27 29  1  0
 17  7  1  0
 24 19  1  0
 15 11  1  0
  1 30  1  0
  1 31  1  0
  1 32  1  0
  2 33  1  0
  2 34  1  0
  3 35  1  0
  4 36  1  0
  4 37  1  0
  5 38  1  0
  5 39  1  0
  6 40  1  0
  6 41  1  0
 10 42  1  0
 14 43  1  0
 16 44  1  0
 16 45  1  0
 16 46  1  0
 20 47  1  0
 21 48  1  0
 22 49  1  0
 23 50  1  0
 25 51  1  0
 25 52  1  0
 26 53  1  0
 26 54  1  0
 28 55  1  0
 28 56  1  0
 28 57  1  0
 29 58  1  0
 29 59  1  0
 29 60  1  0
M  CHG  1   6   1
M  END
>  <UniqueID>  (23) 
23

>  <SMILES>  (23) 
CCNCC[NH2+]c1c(F)cc2c(ncn2C)c1Oc1ccccc1CCN(C)C

>  <Energy>  (23) 
103.48917312278037

>  <Genealogy>  (23) 
CCNCC[NH2+]c1c(F)cc2c(ncn2C)c1Oc1ccccc1CCN(C)C (protonated)
CCNCC[NH2+]c1c(F)cc2c(ncn2C)c1Oc1ccccc1CCN(C)C (3D coordinates assigned)
CCNCC[NH2+]c1c(F)cc2c(ncn2C)c1Oc1ccccc1CCN(C)C (optimized conformer: 103.48917312278037 kcal/mol)

>  <smiles>  (23) 
CCNCCNc1c(F)cc2c(ncn2C)c1Oc1ccccc1CCN(C)C

>  <score_type>  (23) 
oracle

>  <origin>  (23) 
adg

>  <m_score__min__energy>  (23) 
-8.2699999999999996

>  <m_primary>  (23) 
energy

$$$$
23:0
     RDKit          3D

 49 53  0  0  0  0  0  0  0  0999 V2000
   -1.5050   20.9080  -33.4690 C   0  0  0  0  0  0  0  0  0  0  0  0
   -2.1730   19.7250  -33.8970 O   0  0  0  0  0  0  0  0  0  0  0  0
   -3.5370   19.4690  -33.6900 C   0  0  0  0  0  0  0  0  0  0  0  0
   -4.0890   18.3100  -34.2460 C   0  0  0  0  0  0  0  0  0  0  0  0
   -5.4480   18.0250  -34.0890 C   0  0  0  0  0  0  0  0  0  0  0  0
   -6.2710   18.9070  -33.3840 C   0  0  0  0  0  0  0  0  0  0  0  0
   -5.7390   20.0790  -32.8220 C   0  0  0  0  0  0  0  0  0  0  0  0
   -6.6270   21.0370  -32.1230 C   0  0  0  0  0  0  0  0  0  0  0  0
   -8.0180   21.0330  -32.3540 C   0  0  0  0  0  0  0  0  0  0  0  0
   -8.8350   22.0010  -31.7340 C   0  0  0  0  0  0  0  0  0  0  0  0
   -8.2850   22.9550  -30.9300 N   0  0  0  0  0  0  0  0  0  0  0  0
   -6.9460   22.9540  -30.7110 C   0  0  0  0  0  0  0  0  0  0  0  0
   -6.1200   22.0180  -31.2560 C   0  0  0  0  0  0  0  0  0  0  0  0
   -4.7120   22.3770  -30.9320 C   0  0  0  0  0  0  0  0  0  0  0  0
   -4.8710   23.5280  -29.8840 C   0  0  1  0  0  0  0  0  0  0  0  0
   -4.6070   23.0210  -28.4570 C   0  0  0  0  0  0  0  0  0  0  0  0
   -4.0100   24.7460  -30.1900 C   0  0  0  0  0  0  0  0  0  0  0  0
   -4.4830   25.6400  -30.9410 O   0  0  0  0  0  0  0  0  0  0  0  0
   -2.6730   24.9220  -29.6890 N   0  0  0  0  0  0  0  0  0  0  0  0
   -1.7890   23.8860  -29.2510 C   0  0  0  0  0  0  0  0  0  0  0  0
   -1.1240   24.0160  -28.0080 C   0  0  0  0  0  0  0  0  0  0  0  0
   -0.2090   23.0360  -27.5810 C   0  0  0  0  0  0  0  0  0  0  0  0
   -0.0130   21.9320  -28.4050 C   0  0  0  0  0  0  0  0  0  0  0  0
   -0.6820   21.7800  -29.5760 C   0  0  0  0  0  0  0  0  0  0  0  0
   -1.5970   22.7270  -30.0310 C   0  0  0  0  0  0  0  0  0  0  0  0
   -0.2990   20.5950  -30.1740 O   0  0  0  0  0  0  0  0  0  0  0  0
    0.6790   19.9700  -29.3320 C   0  0  0  0  0  0  0  0  0  0  0  0
    0.8270   20.8520  -28.2120 O   0  0  0  0  0  0  0  0  0  0  0  0
   -6.2570   23.8830  -29.9610 O   0  0  0  0  0  0  0  0  0  0  0  0
   -4.3630   20.3380  -32.9520 C   0  0  0  0  0  0  0  0  0  0  0  0
   -1.4863   20.9412  -32.3697 H   0  0  0  0  0  0  0  0  0  0  0  0
   -0.4744   20.9066  -33.8534 H   0  0  0  0  0  0  0  0  0  0  0  0
   -2.0385   21.7898  -33.8534 H   0  0  0  0  0  0  0  0  0  0  0  0
   -3.4481   17.6174  -34.8113 H   0  0  0  0  0  0  0  0  0  0  0  0
   -5.8702   17.1056  -34.5208 H   0  0  0  0  0  0  0  0  0  0  0  0
   -7.3416   18.6822  -33.2685 H   0  0  0  0  0  0  0  0  0  0  0  0
   -8.4648   20.2767  -33.0162 H   0  0  0  0  0  0  0  0  0  0  0  0
   -9.9223   21.9863  -31.9000 H   0  0  0  0  0  0  0  0  0  0  0  0
   -4.1757   21.5199  -30.4987 H   0  0  0  0  0  0  0  0  0  0  0  0
   -4.1275   22.6743  -31.8152 H   0  0  0  0  0  0  0  0  0  0  0  0
   -4.9887   23.7540  -27.7310 H   0  0  0  0  0  0  0  0  0  0  0  0
   -5.1183   22.0583  -28.3094 H   0  0  0  0  0  0  0  0  0  0  0  0
   -3.5251   22.8879  -28.3094 H   0  0  0  0  0  0  0  0  0  0  0  0
   -1.3242   24.8901  -27.3709 H   0  0  0  0  0  0  0  0  0  0  0  0
    0.3324   23.1390  -26.6290 H   0  0  0  0  0  0  0  0  0  0  0  0
   -2.1519   22.5755  -30.9686 H   0  0  0  0  0  0  0  0  0  0  0  0
    0.3283   18.9813  -29.0011 H   0  0  0  0  0  0  0  0  0  0  0  0
    1.6317   19.8082  -29.8575 H   0  0  0  0  0  0  0  0  0  0  0  0
   -3.9281   21.2275  -32.4728 H   0  0  0  0  0  0  0  0  0  0  0  0
  1  2  1  0
  2  3  1  0
  3  4  2  0
  4  5  1  0
  5  6  2  0
  6  7  1  0
  7  8  1  0
  8  9  2  0
  9 10  1  0
 10 11  2  0
 11 12  1  0
 12 13  2  0
 13 14  1  0
 14 15  1  0
 15 16  1  1
 15 17  1  0
 17 18  2  0
 17 19  1  0
 19 20  1  0
 20 21  2  0
 21 22  1  0
 22 23  2  0
 23 24  1  0
 24 25  2  0
 24 26  1  0
 26 27  1  0
 27 28  1  0
 15 29  1  0
  7 30  2  0
 30  3  1  0
 13  8  1  0
 25 20  1  0
 29 12  1  0
 28 23  1  0
  1 31  1  0
  1 32  1  0
  1 33  1  0
  4 34  1  0
  5 35  1  0
  6 36  1  0
  9 37  1  0
 10 38  1  0
 14 39  1  0
 14 40  1  0
 16 41  1  0
 16 42  1  0
 16 43  1  0
 21 44  1  0
 22 45  1  0
 25 46  1  0
 27 47  1  0
 27 48  1  0
 30 49  1  0
M  CHG  1  19  -1
M  END
>  <UniqueID>  (24) 
24

>  <SMILES>  (24) 
COc1cccc(-c2ccnc3c2C[C@@](C)(C(=O)[N-]c2ccc4c(c2)OCO4)O3)c1

>  <Energy>  (24) 
112.65444287612469

>  <Genealogy>  (24) 
COc1cccc(-c2ccnc3c2CC(C)(C(=O)[N-]c2ccc4c(c2)OCO4)O3)c1 (protonated)
COc1cccc(-c2ccnc3c2C[C@@](C)(C(=O)[N-]c2ccc4c(c2)OCO4)O3)c1 (chirality)
COc1cccc(-c2ccnc3c2C[C@@](C)(C(=O)[N-]c2ccc4c(c2)OCO4)O3)c1 (3D coordinates assigned)
COc1cccc(-c2ccnc3c2C[C@@](C)(C(=O)[N-]c2ccc4c(c2)OCO4)O3)c1 (nonaromatic ring conformer: 112.65444287612469 kcal/mol)

>  <smiles>  (24) 
COc1cccc(-c2ccnc3c2CC(C)(C(=O)Nc2ccc4c(c2)OCO4)O3)c1

>  <score_type>  (24) 
oracle

>  <origin>  (24) 
adg

>  <m_score__min__energy>  (24) 
-10.539999999999999

>  <m_primary>  (24) 
energy

$$$$
24:0
     RDKit          3D

 43 47  0  0  0  0  0  0  0  0999 V2000
    1.4670   17.0940  -28.4230 C   0  0  0  0  0  0  0  0  0  0  0  0
    0.3430   18.0480  -28.1500 C   0  0  0  0  0  0  0  0  0  0  0  0
   -0.5580   17.7990  -27.1050 C   0  0  0  0  0  0  0  0  0  0  0  0
   -1.6290   18.6670  -26.8750 C   0  0  0  0  0  0  0  0  0  0  0  0
   -1.8290   19.7840  -27.7070 C   0  0  0  0  0  0  0  0  0  0  0  0
   -2.8920   20.6800  -27.5160 O   0  0  0  0  0  0  0  0  0  0  0  0
   -3.0950   21.8610  -28.2460 C   0  0  0  0  0  0  0  0  0  0  0  0
   -4.0730   21.9280  -29.1970 N   0  0  0  0  0  0  0  0  0  0  0  0
   -4.2280   23.0440  -29.9010 N   0  0  0  0  0  0  0  0  0  0  0  0
   -5.1350   23.3730  -30.8370 C   0  0  0  0  0  0  0  0  0  0  0  0
   -6.2250   22.5070  -31.3470 C   0  0  0  0  0  0  0  0  0  0  0  0
   -7.5490   22.7440  -30.9370 C   0  0  0  0  0  0  0  0  0  0  0  0
   -8.5920   21.9360  -31.4000 C   0  0  0  0  0  0  0  0  0  0  0  0
   -8.3270   20.8890  -32.2840 C   0  0  0  0  0  0  0  0  0  0  0  0
   -7.0190   20.6520  -32.7120 C   0  0  0  0  0  0  0  0  0  0  0  0
   -5.9720   21.4580  -32.2530 C   0  0  0  0  0  0  0  0  0  0  0  0
   -4.9460   24.6590  -31.2220 N   0  0  0  0  0  0  0  0  0  0  0  0
   -3.9140   25.1430  -30.5320 N   0  0  0  0  0  0  0  0  0  0  0  0
   -3.4940   24.1440  -29.7330 C   0  0  0  0  0  0  0  0  0  0  0  0
   -2.4670   24.1690  -28.7920 C   0  0  0  0  0  0  0  0  0  0  0  0
   -1.6620   25.2980  -28.5820 C   0  0  0  0  0  0  0  0  0  0  0  0
   -0.6470   25.2570  -27.6230 C   0  0  0  0  0  0  0  0  0  0  0  0
   -0.4310   24.0980  -26.8710 C   0  0  0  0  0  0  0  0  0  0  0  0
   -1.2310   22.9670  -27.0700 C   0  0  0  0  0  0  0  0  0  0  0  0
   -2.2580   22.9870  -28.0290 C   0  0  0  0  0  0  0  0  0  0  0  0
   -0.9230   20.0350  -28.7440 C   0  0  0  0  0  0  0  0  0  0  0  0
    0.1480   19.1670  -28.9750 C   0  0  0  0  0  0  0  0  0  0  0  0
    1.8858   16.7385  -27.4700 H   0  0  0  0  0  0  0  0  0  0  0  0
    1.0887   16.2370  -28.9996 H   0  0  0  0  0  0  0  0  0  0  0  0
    2.2511   17.6065  -28.9996 H   0  0  0  0  0  0  0  0  0  0  0  0
   -0.4213   16.9162  -26.4631 H   0  0  0  0  0  0  0  0  0  0  0  0
   -2.3188   18.4761  -26.0397 H   0  0  0  0  0  0  0  0  0  0  0  0
   -7.7660   23.5721  -30.2462 H   0  0  0  0  0  0  0  0  0  0  0  0
   -9.6230   22.1258  -31.0670 H   0  0  0  0  0  0  0  0  0  0  0  0
   -9.1478   20.2509  -32.6433 H   0  0  0  0  0  0  0  0  0  0  0  0
   -6.8115   19.8292  -33.4120 H   0  0  0  0  0  0  0  0  0  0  0  0
   -4.9453   21.2718  -32.6013 H   0  0  0  0  0  0  0  0  0  0  0  0
   -1.8292   26.2124  -29.1702 H   0  0  0  0  0  0  0  0  0  0  0  0
   -0.0141   26.1415  -27.4585 H   0  0  0  0  0  0  0  0  0  0  0  0
    0.3717   24.0751  -26.1193 H   0  0  0  0  0  0  0  0  0  0  0  0
   -1.0553   22.0594  -26.4738 H   0  0  0  0  0  0  0  0  0  0  0  0
   -1.0548   20.9216  -29.3817 H   0  0  0  0  0  0  0  0  0  0  0  0
    0.8410   19.3616  -29.8068 H   0  0  0  0  0  0  0  0  0  0  0  0
  1  2  1  0
  2  3  2  0
  3  4  1  0
  4  5  2  0
  5  6  1  0
  6  7  1  0
  7  8  2  0
  8  9  1  0
  9 10  1  0
 10 11  1  0
 11 12  2  0
 12 13  1  0
 13 14  2  0
 14 15  1  0
 15 16  2  0
 10 17  2  0
 17 18  1  0
 18 19  2  0
 19 20  1  0
 20 21  2  0
 21 22  1  0
 22 23  2  0
 23 24  1  0
 24 25  2  0
  5 26  1  0
 26 27  2  0
 27  2  1  0
 25  7  1  0
 19  9  1  0
 25 20  1  0
 16 11  1  0
  1 28  1  0
  1 29  1  0
  1 30  1  0
  3 31  1  0
  4 32  1  0
 12 33  1  0
 13 34  1  0
 14 35  1  0
 15 36  1  0
 16 37  1  0
 21 38  1  0
 22 39  1  0
 23 40  1  0
 24 41  1  0
 26 42  1  0
 27 43  1  0
M  END
>  <UniqueID>  (25) 
25

>  <SMILES>  (25) 
Cc1ccc(Oc2nn3c(-c4ccccc4)nnc3c3ccccc23)cc1

>  <Energy>  (25) 
103.06355795815426

>  <Genealogy>  (25) 
Cc1ccc(Oc2nn3c(-c4ccccc4)nnc3c3ccccc23)cc1 (3D coordinates assigned)
Cc1ccc(Oc2nn3c(-c4ccccc4)nnc3c3ccccc23)cc1 (optimized conformer: 103.06355795815426 kcal/mol)

>  <smiles>  (25) 
Cc1ccc(Oc2nn3c(-c4ccccc4)nnc3c3ccccc23)cc1

>  <score_type>  (25) 
oracle

>  <origin>  (25) 
adg

>  <m_score__min__energy>  (25) 
-9.1899999999999995

>  <m_primary>  (25) 
energy

$$$$
25:0
     RDKit          3D

 35 37  0  0  1  0  0  0  0  0999 V2000
   -2.2730   24.5770  -28.8320 C   0  0  0  0  0  0  0  0  0  0  0  0
   -3.1500   25.2250  -29.7170 O   0  0  0  0  0  0  0  0  0  0  0  0
   -4.3480   24.6280  -30.0760 C   0  0  0  0  0  0  0  0  0  0  0  0
   -5.5570   25.1900  -29.7740 C   0  0  0  0  0  0  0  0  0  0  0  0
   -6.7400   24.5740  -30.1450 C   0  0  0  0  0  0  0  0  0  0  0  0
   -6.7710   23.3790  -30.8270 C   0  0  0  0  0  0  0  0  0  0  0  0
   -8.0250   22.6960  -31.2370 C   0  0  0  0  0  0  0  0  0  0  0  0
   -7.7970   21.7950  -32.3430 N   0  0  0  0  0  0  0  0  0  0  0  0
   -7.9260   20.5160  -32.3150 C   0  0  0  0  0  0  0  0  0  0  0  0
   -8.9420   19.9620  -31.6330 N   0  0  0  0  0  0  0  0  0  0  0  0
   -9.0390   18.6360  -31.6280 C   0  0  0  0  0  0  0  0  0  0  0  0
   -8.1720   17.8140  -32.2720 N   0  0  0  0  0  0  0  0  0  0  0  0
   -7.1480   18.3580  -32.9590 C   0  0  0  0  0  0  0  0  0  0  0  0
   -7.0100   19.7310  -32.9900 C   0  0  0  0  0  0  0  0  0  0  0  0
   -5.9010   20.0340  -33.7480 C   0  0  0  0  0  0  0  0  0  0  0  0
   -5.3970   18.8720  -34.1540 N   0  0  0  0  0  0  0  0  0  0  0  0
   -6.1250   17.8430  -33.6960 N   0  0  0  0  0  0  0  0  0  0  0  0
   -5.8720   16.4330  -33.9410 C   0  0  0  0  0  0  0  0  0  0  0  0
   -5.5260   22.8190  -31.1270 C   0  0  0  0  0  0  0  0  0  0  0  0
   -4.3440   23.4280  -30.7610 C   0  0  0  0  0  0  0  0  0  0  0  0
   -2.5697   24.7962  -27.7957 H   0  0  0  0  0  0  0  0  0  0  0  0
   -2.3149   23.4913  -29.0036 H   0  0  0  0  0  0  0  0  0  0  0  0
   -1.2475   24.9360  -29.0036 H   0  0  0  0  0  0  0  0  0  0  0  0
   -5.5903   26.1448  -29.2287 H   0  0  0  0  0  0  0  0  0  0  0  0
   -7.6925   25.0586  -29.8845 H   0  0  0  0  0  0  0  0  0  0  0  0
   -8.4160   22.1230  -30.3833 H   0  0  0  0  0  0  0  0  0  0  0  0
   -8.7474   23.4613  -31.5571 H   0  0  0  0  0  0  0  0  0  0  0  0
   -9.6140   20.5690  -31.1360 H   0  0  0  0  0  0  0  0  0  0  0  0
   -9.8695   18.1790  -31.0700 H   0  0  0  0  0  0  0  0  0  0  0  0
   -5.5099   21.0372  -33.9729 H   0  0  0  0  0  0  0  0  0  0  0  0
   -5.7773   15.9052  -32.9806 H   0  0  0  0  0  0  0  0  0  0  0  0
   -6.7076   16.0047  -34.5139 H   0  0  0  0  0  0  0  0  0  0  0  0
   -4.9396   16.3219  -34.5139 H   0  0  0  0  0  0  0  0  0  0  0  0
   -5.4878   21.8639  -31.6714 H   0  0  0  0  0  0  0  0  0  0  0  0
   -3.3859   22.9524  -31.0176 H   0  0  0  0  0  0  0  0  0  0  0  0
  1  2  1  0
  2  3  1  0
  3  4  2  0
  4  5  1  0
  5  6  2  0
  6  7  1  0
  7  8  1  0
  8  9  2  0
  9 10  1  0
 10 11  1  0
 11 12  2  0
 12 13  1  0
 13 14  2  0
 14 15  1  0
 15 16  2  0
 16 17  1  0
 17 18  1  0
  6 19  1  0
 19 20  2  0
 20  3  1  0
 14  9  1  0
 17 13  1  0
  1 21  1  0
  1 22  1  0
  1 23  1  0
  4 24  1  0
  5 25  1  0
  7 26  1  0
  7 27  1  0
 10 28  1  0
 11 29  1  0
 15 30  1  0
 18 31  1  0
 18 32  1  0
 18 33  1  0
 19 34  1  0
 20 35  1  0
M  END
>  <smiles>  (26) 
COc1ccc(CN=c2[nH]cnc3c2cnn3C)cc1

>  <score_type>  (26) 
oracle

>  <origin>  (26) 
adg

>  <m_score__min__energy>  (26) 
-7.6200000000000001

>  <m_primary>  (26) 
energy

$$$$
26:0
     RDKit          3D

 54 56  0  0  0  0  0  0  0  0999 V2000
   -7.2939   25.4659  -31.1281 H   0  0  0  0  0  0  0  0  0  0  0  0
   -6.3450   24.9120  -31.0750 C   0  0  0  0  0  0  0  0  0  0  0  0
   -6.1540   23.7800  -31.8590 C   0  0  0  0  0  0  0  0  0  0  0  0
   -6.9427   23.4578  -32.5548 H   0  0  0  0  0  0  0  0  0  0  0  0
   -4.9670   23.0490  -31.7690 C   0  0  0  0  0  0  0  0  0  0  0  0
   -4.8216   22.1740  -32.4196 H   0  0  0  0  0  0  0  0  0  0  0  0
   -3.9470   23.4130  -30.8560 C   0  0  0  0  0  0  0  0  0  0  0  0
   -2.7160   22.6940  -30.6620 C   0  0  0  0  0  0  0  0  0  0  0  0
   -2.4600   21.4800  -31.0870 N   0  0  0  0  0  0  0  0  0  0  0  0
   -1.7360   20.3170  -30.5730 C   0  0  0  0  0  0  0  0  0  0  0  0
   -2.4428   19.6758  -30.0260 H   0  0  0  0  0  0  0  0  0  0  0  0
   -0.9332   20.6875  -29.9185 H   0  0  0  0  0  0  0  0  0  0  0  0
   -1.0790   19.4850  -31.6910 C   0  0  0  0  0  0  0  0  0  0  0  0
   -1.7051   18.6001  -31.8779 H   0  0  0  0  0  0  0  0  0  0  0  0
   -0.0696   19.2216  -31.3422 H   0  0  0  0  0  0  0  0  0  0  0  0
   -0.9090   20.2480  -33.0180 C   0  0  0  0  0  0  0  0  0  0  0  0
   -0.2871   19.6450  -33.6959 H   0  0  0  0  0  0  0  0  0  0  0  0
   -0.4351   21.2148  -32.7927 H   0  0  0  0  0  0  0  0  0  0  0  0
   -2.2010   20.5200  -33.6750 N   0  0  0  0  0  0  0  0  0  0  0  0
   -2.0570   21.1790  -34.4750 H   0  0  0  0  0  0  0  0  0  0  0  0
   -2.8540   20.9500  -32.9790 H   0  0  0  0  0  0  0  0  0  0  0  0
   -2.8000   19.2780  -34.1900 C   0  0  0  0  0  0  0  0  0  0  0  0
   -2.1015   18.4466  -34.0141 H   0  0  0  0  0  0  0  0  0  0  0  0
   -2.9934   19.4124  -35.2645 H   0  0  0  0  0  0  0  0  0  0  0  0
   -4.1390   18.9580  -33.5000 C   0  0  0  0  0  0  0  0  0  0  0  0
   -4.0046   18.0726  -32.8613 H   0  0  0  0  0  0  0  0  0  0  0  0
   -4.8870   18.7779  -34.2862 H   0  0  0  0  0  0  0  0  0  0  0  0
   -4.6210   20.0710  -32.6690 N   0  0  0  0  0  0  0  0  0  0  0  0
   -3.9640   20.1540  -31.8580 H   0  0  0  0  0  0  0  0  0  0  0  0
   -5.9570   19.8100  -32.1210 C   0  0  0  0  0  0  0  0  0  0  0  0
   -6.1308   20.4635  -31.2534 H   0  0  0  0  0  0  0  0  0  0  0  0
   -6.0242   18.7574  -31.8088 H   0  0  0  0  0  0  0  0  0  0  0  0
   -7.0110   20.0900  -33.1860 C   0  0  0  0  0  0  0  0  0  0  0  0
   -7.9648   20.3434  -32.7002 H   0  0  0  0  0  0  0  0  0  0  0  0
   -6.6838   20.9324  -33.8132 H   0  0  0  0  0  0  0  0  0  0  0  0
   -7.1450   19.1963  -33.8132 H   0  0  0  0  0  0  0  0  0  0  0  0
   -1.7010   23.3020  -29.8790 C   0  0  0  0  0  0  0  0  0  0  0  0
   -1.9460   24.5190  -29.2350 C   0  0  0  0  0  0  0  0  0  0  0  0
   -3.1440   25.1290  -29.3570 N   0  0  0  0  0  0  0  0  0  0  0  0
   -4.1370   24.6240  -30.1290 C   0  0  0  0  0  0  0  0  0  0  0  0
   -5.3340   25.3420  -30.2240 C   0  0  0  0  0  0  0  0  0  0  0  0
   -5.4756   26.2516  -29.6219 H   0  0  0  0  0  0  0  0  0  0  0  0
   -0.8570   25.1590  -28.4250 C   0  0  0  0  0  0  0  0  0  0  0  0
   -0.1153   25.6053  -29.1037 H   0  0  0  0  0  0  0  0  0  0  0  0
   -1.2993   25.9358  -27.7840 H   0  0  0  0  0  0  0  0  0  0  0  0
   -0.1660   24.1160  -27.5370 C   0  0  0  0  0  0  0  0  0  0  0  0
    0.7687   24.5527  -27.1553 H   0  0  0  0  0  0  0  0  0  0  0  0
   -0.8761   23.8624  -26.7361 H   0  0  0  0  0  0  0  0  0  0  0  0
    0.1780   22.7900  -28.2640 C   0  0  0  0  0  0  0  0  0  0  0  0
    1.2718   22.6738  -28.2648 H   0  0  0  0  0  0  0  0  0  0  0  0
   -0.3423   21.9913  -27.7150 H   0  0  0  0  0  0  0  0  0  0  0  0
   -0.3140   22.7070  -29.7210 C   0  0  0  0  0  0  0  0  0  0  0  0
    0.3862   23.2584  -30.3658 H   0  0  0  0  0  0  0  0  0  0  0  0
   -0.3610   21.6460  -30.0075 H   0  0  0  0  0  0  0  0  0  0  0  0
  1  2  1  0
  2  3  2  0
  3  4  1  0
  3  5  1  0
  5  6  1  0
  5  7  2  0
  7  8  1  0
  8  9  2  0
  9 10  1  0
 10 11  1  0
 10 12  1  0
 10 13  1  0
 13 14  1  0
 13 15  1  0
 13 16  1  0
 16 17  1  0
 16 18  1  0
 16 19  1  0
 19 20  1  0
 19 21  1  0
 19 22  1  0
 22 23  1  0
 22 24  1  0
 22 25  1  0
 25 26  1  0
 25 27  1  0
 25 28  1  0
 28 29  1  0
 28 30  1  0
 30 31  1  0
 30 32  1  0
 30 33  1  0
 33 34  1  0
 33 35  1  0
 33 36  1  0
  8 37  1  0
 37 38  2  0
 38 39  1  0
 39 40  1  0
 40 41  2  0
 41 42  1  0
 38 43  1  0
 43 44  1  0
 43 45  1  0
 43 46  1  0
 46 47  1  0
 46 48  1  0
 46 49  1  0
 49 50  1  0
 49 51  1  0
 49 52  1  0
 52 53  1  0
 52 54  1  0
 41  2  1  0
 40  7  1  0
 52 37  1  0
M  CHG  2  19   1  39  -1
M  END
>  <UniqueID>  (27) 
26

>  <SMILES>  (27) 
CCNCC[NH2+]CCC/N=c1/c2c([n-]c3ccccc13)CCCC2

>  <Energy>  (27) 
69.93344908506268

>  <Genealogy>  (27) 
CCNCC[NH2+]CCCN=c1c2c([n-]c3ccccc13)CCCC2 (protonated)
CCNCC[NH2+]CCC/N=c1/c2c([n-]c3ccccc13)CCCC2 (cis-trans isomerization)
CCNCC[NH2+]CCC/N=c1/c2c([n-]c3ccccc13)CCCC2 (3D coordinates assigned)
CCNCC[NH2+]CCC/N=c1/c2c([n-]c3ccccc13)CCCC2 (nonaromatic ring conformer: 69.93344908506268 kcal/mol)

>  <smiles>  (27) 
CCNCCNCCCN=c1c2c([nH]c3ccccc13)CCCC2

>  <score_type>  (27) 
oracle

>  <origin>  (27) 
adg

>  <m_score__min__energy>  (27) 
-8.1799999999999997

>  <m_primary>  (27) 
energy

$$$$
27:0
     RDKit          3D

 38 39  0  0  1  0  0  0  0  0999 V2000
   -1.2330   25.9650  -28.1900 C   0  0  0  0  0  0  0  0  0  0  0  0
   -2.1830   24.9390  -28.5450 N   0  0  0  0  0  0  0  0  0  0  0  0
   -2.9190   24.5190  -27.3950 C   0  0  0  0  0  0  0  0  0  0  0  0
   -1.5040   23.8560  -29.1910 C   0  0  0  0  0  0  0  0  0  0  0  0
   -2.4890   22.9210  -29.9270 C   0  0  0  0  0  0  0  0  0  0  0  0
   -3.1800   23.7820  -30.8430 N   0  0  0  0  0  0  0  0  0  0  0  0
   -4.4060   24.0820  -30.6780 C   0  0  0  0  0  0  0  0  0  0  0  0
   -4.9070   24.9120  -29.7630 N   0  0  0  0  0  0  0  0  0  0  0  0
   -6.2130   25.1780  -29.6130 C   0  0  0  0  0  0  0  0  0  0  0  0
   -7.1270   24.5590  -30.4570 C   0  0  0  0  0  0  0  0  0  0  0  0
   -6.6160   23.6860  -31.4220 C   0  0  0  0  0  0  0  0  0  0  0  0
   -7.4810   23.1220  -32.1810 N   0  0  0  0  0  0  0  0  0  0  0  0
   -7.7690   21.7340  -32.1930 C   0  0  0  0  0  0  0  0  0  0  0  0
   -6.7760   20.9130  -32.7400 C   0  0  0  0  0  0  0  0  0  0  0  0
   -6.9030   19.5530  -32.8230 C   0  0  0  0  0  0  0  0  0  0  0  0
   -8.0860   19.0050  -32.3330 C   0  0  0  0  0  0  0  0  0  0  0  0
   -9.0810   19.8060  -31.7890 C   0  0  0  0  0  0  0  0  0  0  0  0
   -8.9370   21.1860  -31.7100 C   0  0  0  0  0  0  0  0  0  0  0  0
   -5.3040   23.4760  -31.5060 N   0  0  0  0  0  0  0  0  0  0  0  0
   -1.1649   26.0385  -27.0946 H   0  0  0  0  0  0  0  0  0  0  0  0
   -0.2458   25.7092  -28.6024 H   0  0  0  0  0  0  0  0  0  0  0  0
   -1.5639   26.9296  -28.6024 H   0  0  0  0  0  0  0  0  0  0  0  0
   -2.3828   24.8250  -26.4846 H   0  0  0  0  0  0  0  0  0  0  0  0
   -3.9156   24.9844  -27.4074 H   0  0  0  0  0  0  0  0  0  0  0  0
   -3.0253   23.4242  -27.4074 H   0  0  0  0  0  0  0  0  0  0  0  0
   -0.7905   24.2671  -29.9203 H   0  0  0  0  0  0  0  0  0  0  0  0
   -0.9851   23.2681  -28.4196 H   0  0  0  0  0  0  0  0  0  0  0  0
   -1.9463   22.1320  -30.4682 H   0  0  0  0  0  0  0  0  0  0  0  0
   -3.1738   22.4061  -29.2371 H   0  0  0  0  0  0  0  0  0  0  0  0
   -4.2520   25.3940  -29.1200 H   0  0  0  0  0  0  0  0  0  0  0  0
   -6.5552   25.8752  -28.8341 H   0  0  0  0  0  0  0  0  0  0  0  0
   -8.2071   24.7479  -30.3695 H   0  0  0  0  0  0  0  0  0  0  0  0
   -5.8552   21.3805  -33.1189 H   0  0  0  0  0  0  0  0  0  0  0  0
   -6.1106   18.9242  -33.2550 H   0  0  0  0  0  0  0  0  0  0  0  0
   -8.2349   17.9161  -32.3779 H   0  0  0  0  0  0  0  0  0  0  0  0
  -10.0028   19.3385  -31.4126 H   0  0  0  0  0  0  0  0  0  0  0  0
   -9.7269   21.8177  -31.2775 H   0  0  0  0  0  0  0  0  0  0  0  0
   -4.9590   22.8150  -32.2430 H   0  0  0  0  0  0  0  0  0  0  0  0
  1  2  1  0
  2  3  1  0
  2  4  1  0
  4  5  1  0
  5  6  1  0
  6  7  2  0
  7  8  1  0
  8  9  1  0
  9 10  2  0
 10 11  1  0
 11 12  2  0
 12 13  1  0
 13 14  2  0
 14 15  1  0
 15 16  2  0
 16 17  1  0
 17 18  2  0
 11 19  1  0
 19  7  1  0
 18 13  1  0
  1 20  1  0
  1 21  1  0
  1 22  1  0
  3 23  1  0
  3 24  1  0
  3 25  1  0
  4 26  1  0
  4 27  1  0
  5 28  1  0
  5 29  1  0
  8 30  1  0
  9 31  1  0
 10 32  1  0
 14 33  1  0
 15 34  1  0
 16 35  1  0
 17 36  1  0
 18 37  1  0
 19 38  1  0
M  END
>  <smiles>  (28) 
CN(C)CCN=c1[nH]ccc(=Nc2ccccc2)[nH]1

>  <score_type>  (28) 
oracle

>  <origin>  (28) 
adg

>  <m_score__min__energy>  (28) 
-6.5899999999999999

>  <m_primary>  (28) 
energy

$$$$
28:0
     RDKit          3D

 40 43  0  0  0  0  0  0  0  0999 V2000
   -1.3450   25.7210  -27.6800 C   0  0  0  0  0  0  0  0  0  0  0  0
   -1.9830   25.6720  -28.9520 O   0  0  0  0  0  0  0  0  0  0  0  0
   -2.5520   24.5160  -29.5080 C   0  0  0  0  0  0  0  0  0  0  0  0
   -3.9220   24.5210  -29.7950 C   0  0  0  0  0  0  0  0  0  0  0  0
   -4.5370   23.3950  -30.3450 C   0  0  0  0  0  0  0  0  0  0  0  0
   -3.7880   22.2380  -30.6170 C   0  0  0  0  0  0  0  0  0  0  0  0
   -4.4540   21.0130  -31.1910 C   0  0  0  0  0  0  0  0  0  0  0  0
   -5.2660   21.2960  -32.4790 C   0  0  2  0  0  0  0  0  0  0  0  0
   -4.8300   22.4910  -33.0780 O   0  0  0  0  0  0  0  0  0  0  0  0
   -6.7690   21.3360  -32.2180 C   0  0  0  0  0  0  0  0  0  0  0  0
   -7.5160   22.2890  -31.5170 C   0  0  0  0  0  0  0  0  0  0  0  0
   -8.9040   22.1030  -31.3980 C   0  0  0  0  0  0  0  0  0  0  0  0
   -9.5290   20.9870  -31.9910 C   0  0  0  0  0  0  0  0  0  0  0  0
   -8.7750   20.0570  -32.7250 C   0  0  0  0  0  0  0  0  0  0  0  0
   -7.4030   20.2720  -32.8320 C   0  0  0  0  0  0  0  0  0  0  0  0
   -6.3900   19.5450  -33.5470 C   0  0  0  0  0  0  0  0  0  0  0  0
   -6.3640   18.2830  -33.7870 N   0  0  0  0  0  0  0  0  0  0  0  0
   -4.9740   17.9090  -34.0360 C   0  0  0  0  0  0  0  0  0  0  0  0
   -4.1420   19.1390  -33.6100 C   0  0  0  0  0  0  0  0  0  0  0  0
   -5.1460   20.1780  -33.4380 N   0  0  0  0  0  0  0  0  0  0  0  0
   -2.4110   22.2330  -30.3370 C   0  0  0  0  0  0  0  0  0  0  0  0
   -1.7970   23.3610  -29.7850 C   0  0  0  0  0  0  0  0  0  0  0  0
   -2.1045   25.6627  -26.8864 H   0  0  0  0  0  0  0  0  0  0  0  0
   -0.6501   24.8736  -27.5855 H   0  0  0  0  0  0  0  0  0  0  0  0
   -0.7876   26.6646  -27.5855 H   0  0  0  0  0  0  0  0  0  0  0  0
   -4.5195   25.4205  -29.5852 H   0  0  0  0  0  0  0  0  0  0  0  0
   -5.6143   23.4137  -30.5667 H   0  0  0  0  0  0  0  0  0  0  0  0
   -3.6759   20.2718  -31.4260 H   0  0  0  0  0  0  0  0  0  0  0  0
   -5.1645   20.6475  -30.4350 H   0  0  0  0  0  0  0  0  0  0  0  0
   -4.6180   22.2920  -34.0280 H   0  0  0  0  0  0  0  0  0  0  0  0
   -7.0269   23.1661  -31.0681 H   0  0  0  0  0  0  0  0  0  0  0  0
   -9.5069   22.8332  -30.8383 H   0  0  0  0  0  0  0  0  0  0  0  0
  -10.6138   20.8439  -31.8781 H   0  0  0  0  0  0  0  0  0  0  0  0
   -9.2523   19.1872  -33.1999 H   0  0  0  0  0  0  0  0  0  0  0  0
   -4.6976   17.0295  -33.4359 H   0  0  0  0  0  0  0  0  0  0  0  0
   -4.8023   17.6407  -35.0889 H   0  0  0  0  0  0  0  0  0  0  0  0
   -3.6083   18.9467  -32.6676 H   0  0  0  0  0  0  0  0  0  0  0  0
   -3.3650   19.4076  -34.3408 H   0  0  0  0  0  0  0  0  0  0  0  0
   -1.8125   21.3358  -30.5535 H   0  0  0  0  0  0  0  0  0  0  0  0
   -0.7191   23.3458  -29.5662 H   0  0  0  0  0  0  0  0  0  0  0  0
  1  2  1  0
  2  3  1  0
  3  4  2  0
  4  5  1  0
  5  6  2  0
  6  7  1  0
  7  8  1  0
  8  9  1  6
  8 10  1  0
 10 11  2  0
 11 12  1  0
 12 13  2  0
 13 14  1  0
 14 15  2  0
 15 16  1  0
 16 17  2  0
 17 18  1  0
 18 19  1  0
 19 20  1  0
  6 21  1  0
 21 22  2  0
 22  3  1  0
 20  8  1  0
 15 10  1  0
 20 16  1  0
  1 23  1  0
  1 24  1  0
  1 25  1  0
  4 26  1  0
  5 27  1  0
  7 28  1  0
  7 29  1  0
  9 30  1  0
 11 31  1  0
 12 32  1  0
 13 33  1  0
 14 34  1  0
 18 35  1  0
 18 36  1  0
 19 37  1  0
 19 38  1  0
 21 39  1  0
 22 40  1  0
M  END
>  <UniqueID>  (29) 
27

>  <SMILES>  (29) 
COc1ccc(C[C@]2(O)c3ccccc3C3=NCCN32)cc1

>  <Energy>  (29) 
89.63996371073364

>  <Genealogy>  (29) 
COc1ccc(C[C@]2(O)c3ccccc3C3=NCCN32)cc1 (chirality)
COc1ccc(C[C@]2(O)c3ccccc3C3=NCCN32)cc1 (3D coordinates assigned)
COc1ccc(C[C@]2(O)c3ccccc3C3=NCCN32)cc1 (nonaromatic ring conformer: 89.63996371073364 kcal/mol)

>  <smiles>  (29) 
COc1ccc(CC2(O)c3ccccc3C3=NCCN32)cc1

>  <score_type>  (29) 
oracle

>  <origin>  (29) 
adg

>  <m_score__min__energy>  (29) 
-8.6600000000000001

>  <m_primary>  (29) 
energy

$$$$
29:0
     RDKit          3D

 54 56  0  0  0  0  0  0  0  0999 V2000
   -2.5900   24.8830  -27.9900 C   0  0  0  0  0  0  0  0  0  0  0  0
   -2.7380   24.9340  -29.4050 O   0  0  0  0  0  0  0  0  0  0  0  0
   -3.8560   24.4590  -30.1110 C   0  0  0  0  0  0  0  0  0  0  0  0
   -5.0510   25.2020  -30.1860 C   0  0  0  0  0  0  0  0  0  0  0  0
   -6.1290   24.7380  -30.9390 C   0  0  0  0  0  0  0  0  0  0  0  0
   -6.0450   23.5280  -31.6380 C   0  0  0  0  0  0  0  0  0  0  0  0
   -7.1700   23.0920  -32.4270 N   0  0  0  0  0  0  0  0  0  0  0  0
   -8.2160   22.1870  -31.9490 C   0  0  0  0  0  0  0  0  0  0  0  0
   -7.8770   20.7560  -32.2810 C   0  0  0  0  0  0  0  0  0  0  0  0
   -8.5950   19.7060  -31.6840 C   0  0  0  0  0  0  0  0  0  0  0  0
   -8.2930   18.3770  -31.9890 C   0  0  0  0  0  0  0  0  0  0  0  0
   -7.2630   18.0830  -32.8930 C   0  0  0  0  0  0  0  0  0  0  0  0
   -6.9340   16.7650  -33.2270 C   0  0  0  0  0  0  0  0  0  0  0  0
   -5.9000   16.5270  -34.1310 C   0  0  0  0  0  0  0  0  0  0  0  0
   -5.2150   17.6160  -34.6800 C   0  0  0  0  0  0  0  0  0  0  0  0
   -4.2770   17.4210  -35.4970 O   0  0  0  0  0  0  0  0  0  0  0  0
   -5.5480   18.8590  -34.3450 O   0  0  0  0  0  0  0  0  0  0  0  0
   -6.5290   19.1320  -33.4880 C   0  0  0  0  0  0  0  0  0  0  0  0
   -6.8330   20.4600  -33.1740 C   0  0  0  0  0  0  0  0  0  0  0  0
   -4.8620   22.7720  -31.5480 C   0  0  0  0  0  0  0  0  0  0  0  0
   -3.7740   23.2210  -30.7830 C   0  0  0  0  0  0  0  0  0  0  0  0
   -2.5490   22.3930  -30.7260 C   0  0  0  0  0  0  0  0  0  0  0  0
   -2.2630   21.6490  -31.7040 O   0  0  0  0  0  0  0  0  0  0  0  0
   -1.7060   22.4010  -29.5630 N   0  0  0  0  0  0  0  0  0  0  0  0
   -0.4390   21.6750  -29.5070 C   0  0  0  0  0  0  0  0  0  0  0  0
   -0.1350   21.2370  -28.0700 C   0  0  0  0  0  0  0  0  0  0  0  0
   -1.2650   21.5620  -27.1720 N   0  0  0  0  0  0  0  0  0  0  0  0
   -1.9590   20.3290  -26.7650 C   0  0  0  0  0  0  0  0  0  0  0  0
   -0.7980   22.2770  -25.9710 C   0  0  0  0  0  0  0  0  0  0  0  0
   -3.5264   25.2057  -27.5115 H   0  0  0  0  0  0  0  0  0  0  0  0
   -2.3572   23.8528  -27.6826 H   0  0  0  0  0  0  0  0  0  0  0  0
   -1.7720   25.5511  -27.6826 H   0  0  0  0  0  0  0  0  0  0  0  0
   -5.1342   26.1566  -29.6457 H   0  0  0  0  0  0  0  0  0  0  0  0
   -7.0555   25.3292  -30.9843 H   0  0  0  0  0  0  0  0  0  0  0  0
   -7.2270   23.4000  -33.4250 H   0  0  0  0  0  0  0  0  0  0  0  0
   -8.3126   22.2912  -30.8582 H   0  0  0  0  0  0  0  0  0  0  0  0
   -9.1629   22.4494  -32.4434 H   0  0  0  0  0  0  0  0  0  0  0  0
   -9.4013   19.9326  -30.9708 H   0  0  0  0  0  0  0  0  0  0  0  0
   -8.8631   17.5615  -31.5201 H   0  0  0  0  0  0  0  0  0  0  0  0
   -7.4859   15.9247  -32.7806 H   0  0  0  0  0  0  0  0  0  0  0  0
   -5.6268   15.4982  -34.4085 H   0  0  0  0  0  0  0  0  0  0  0  0
   -6.2525   21.2767  -33.6279 H   0  0  0  0  0  0  0  0  0  0  0  0
   -4.7885   21.8148  -32.0851 H   0  0  0  0  0  0  0  0  0  0  0  0
   -2.0030   22.9340  -28.7140 H   0  0  0  0  0  0  0  0  0  0  0  0
   -0.5026   20.7854  -30.1509 H   0  0  0  0  0  0  0  0  0  0  0  0
    0.3668   22.3379  -29.8551 H   0  0  0  0  0  0  0  0  0  0  0  0
    0.0384   20.1509  -28.0530 H   0  0  0  0  0  0  0  0  0  0  0  0
    0.7595   21.7729  -27.7196 H   0  0  0  0  0  0  0  0  0  0  0  0
   -1.9912   20.2718  -25.6670 H   0  0  0  0  0  0  0  0  0  0  0  0
   -2.9848   20.3375  -27.1620 H   0  0  0  0  0  0  0  0  0  0  0  0
   -1.4195   19.4565  -27.1620 H   0  0  0  0  0  0  0  0  0  0  0  0
   -1.1440   21.7473  -25.0712 H   0  0  0  0  0  0  0  0  0  0  0  0
    0.3013   22.3176  -25.9727 H   0  0  0  0  0  0  0  0  0  0  0  0
   -1.2027   23.2999  -25.9727 H   0  0  0  0  0  0  0  0  0  0  0  0
  1  2  1  0
  2  3  1  0
  3  4  2  0
  4  5  1  0
  5  6  2  0
  6  7  1  0
  7  8  1  0
  8  9  1  0
  9 10  2  0
 10 11  1  0
 11 12  2  0
 12 13  1  0
 13 14  2  0
 14 15  1  0
 15 16  2  0
 15 17  1  0
 17 18  1  0
 18 19  2  0
  6 20  1  0
 20 21  2  0
 21 22  1  0
 22 23  2  0
 22 24  1  0
 24 25  1  0
 25 26  1  0
 26 27  1  0
 27 28  1  0
 27 29  1  0
 21  3  1  0
 19  9  1  0
 18 12  1  0
  1 30  1  0
  1 31  1  0
  1 32  1  0
  4 33  1  0
  5 34  1  0
  7 35  1  0
  8 36  1  0
  8 37  1  0
 10 38  1  0
 11 39  1  0
 13 40  1  0
 14 41  1  0
 19 42  1  0
 20 43  1  0
 24 44  1  0
 25 45  1  0
 25 46  1  0
 26 47  1  0
 26 48  1  0
 28 49  1  0
 28 50  1  0
 28 51  1  0
 29 52  1  0
 29 53  1  0
 29 54  1  0
M  END
>  <UniqueID>  (30) 
28

>  <SMILES>  (30) 
COc1ccc(NCc2ccc3ccc(=O)oc3c2)cc1C(=O)NCCN(C)C

>  <Energy>  (30) 
59.319496527966066

>  <Genealogy>  (30) 
COc1ccc(NCc2ccc3ccc(=O)oc3c2)cc1C(=O)NCCN(C)C (3D coordinates assigned)
COc1ccc(NCc2ccc3ccc(=O)oc3c2)cc1C(=O)NCCN(C)C (optimized conformer: 59.319496527966066 kcal/mol)

>  <smiles>  (30) 
COc1ccc(NCc2ccc3ccc(=O)oc3c2)cc1C(=O)NCCN(C)C

>  <score_type>  (30) 
oracle

>  <origin>  (30) 
adg

>  <m_score__min__energy>  (30) 
-9.4299999999999997

>  <m_primary>  (30) 
energy

$$$$
30:0
     RDKit          3D

 43 45  0  0  0  0  0  0  0  0999 V2000
   -2.0770   24.5670  -28.5780 C   0  0  0  0  0  0  0  0  0  0  0  0
   -3.3280   24.5090  -29.3870 C   0  0  0  0  0  0  0  0  0  0  0  0
   -4.3930   23.7480  -29.0710 N   0  0  0  0  0  0  0  0  0  0  0  0
   -5.2440   24.0670  -30.0680 C   0  0  0  0  0  0  0  0  0  0  0  0
   -6.6070   23.4660  -30.2170 C   0  0  0  0  0  0  0  0  0  0  0  0
   -6.6750   22.6340  -31.4390 N   0  0  0  0  0  0  0  0  0  0  0  0
   -7.5510   23.1980  -32.4860 C   0  0  0  0  0  0  0  0  0  0  0  0
   -9.0440   23.1350  -32.1160 C   0  0  0  0  0  0  0  0  0  0  0  0
   -9.3980   21.9420  -31.2110 C   0  0  0  0  0  0  0  0  0  0  0  0
   -8.4230   20.7580  -31.3670 C   0  0  1  0  0  0  0  0  0  0  0  0
   -8.5720   20.0750  -32.6700 N   0  0  0  0  0  0  0  0  0  0  0  0
   -8.4900   18.6140  -32.5440 C   0  0  0  0  0  0  0  0  0  0  0  0
   -7.1290   18.1490  -32.9510 C   0  0  0  0  0  0  0  0  0  0  0  0
   -6.4530   17.0500  -32.4320 C   0  0  0  0  0  0  0  0  0  0  0  0
   -5.1970   16.8850  -32.9240 N   0  0  0  0  0  0  0  0  0  0  0  0
   -4.8510   17.8500  -33.8030 C   0  0  0  0  0  0  0  0  0  0  0  0
   -3.5550   17.8800  -34.5400 C   0  0  0  0  0  0  0  0  0  0  0  0
   -6.1100   18.9450  -34.0310 S   0  0  0  0  0  0  0  0  0  0  0  0
   -6.9470   21.1990  -31.1660 C   0  0  0  0  0  0  0  0  0  0  0  0
   -4.7250   24.9630  -30.9310 N   0  0  0  0  0  0  0  0  0  0  0  0
   -3.5380   25.2150  -30.4700 O   0  0  0  0  0  0  0  0  0  0  0  0
   -2.3315   24.5552  -27.5079 H   0  0  0  0  0  0  0  0  0  0  0  0
   -1.4467   23.6971  -28.8146 H   0  0  0  0  0  0  0  0  0  0  0  0
   -1.5299   25.4915  -28.8146 H   0  0  0  0  0  0  0  0  0  0  0  0
   -6.8243   22.8392  -29.3396 H   0  0  0  0  0  0  0  0  0  0  0  0
   -7.3467   24.2763  -30.2963 H   0  0  0  0  0  0  0  0  0  0  0  0
   -7.2733   24.2502  -32.6467 H   0  0  0  0  0  0  0  0  0  0  0  0
   -7.4104   22.5941  -33.3946 H   0  0  0  0  0  0  0  0  0  0  0  0
   -9.3128   24.0633  -31.5907 H   0  0  0  0  0  0  0  0  0  0  0  0
   -9.6065   23.0106  -33.0531 H   0  0  0  0  0  0  0  0  0  0  0  0
   -9.3769   22.2779  -30.1638 H   0  0  0  0  0  0  0  0  0  0  0  0
  -10.3961   21.5880  -31.5084 H   0  0  0  0  0  0  0  0  0  0  0  0
   -8.6867   20.0407  -30.5759 H   0  0  0  0  0  0  0  0  0  0  0  0
   -9.4890   20.3190  -33.1100 H   0  0  0  0  0  0  0  0  0  0  0  0
   -8.6775   18.3260  -31.4991 H   0  0  0  0  0  0  0  0  0  0  0  0
   -9.2440   18.1492  -33.1962 H   0  0  0  0  0  0  0  0  0  0  0  0
   -6.8967   16.3727  -31.6874 H   0  0  0  0  0  0  0  0  0  0  0  0
   -4.5700   16.0960  -32.6460 H   0  0  0  0  0  0  0  0  0  0  0  0
   -2.7239   17.8992  -33.8196 H   0  0  0  0  0  0  0  0  0  0  0  0
   -3.4718   16.9835  -35.1720 H   0  0  0  0  0  0  0  0  0  0  0  0
   -3.5133   18.7793  -35.1720 H   0  0  0  0  0  0  0  0  0  0  0  0
   -6.6687   20.9920  -30.1221 H   0  0  0  0  0  0  0  0  0  0  0  0
   -6.3550   20.6304  -31.8983 H   0  0  0  0  0  0  0  0  0  0  0  0
  1  2  1  0
  2  3  2  0
  3  4  1  0
  4  5  1  0
  5  6  1  0
  6  7  1  0
  7  8  1  0
  8  9  1  0
  9 10  1  0
 10 11  1  0
 11 12  1  0
 12 13  1  0
 13 14  2  0
 14 15  1  0
 15 16  2  0
 16 17  1  0
 16 18  1  0
 10 19  1  0
  4 20  2  0
 20 21  1  0
 21  2  1  0
 19  6  1  0
 18 13  1  0
  1 22  1  0
  1 23  1  0
  1 24  1  0
  5 25  1  0
  5 26  1  0
  7 27  1  0
  7 28  1  0
  8 29  1  0
  8 30  1  0
  9 31  1  0
  9 32  1  0
 10 33  1  1
 11 34  1  0
 12 35  1  0
 12 36  1  0
 14 37  1  0
 15 38  1  0
 17 39  1  0
 17 40  1  0
 17 41  1  0
 19 42  1  0
 19 43  1  0
M  CHG  1  15   1
M  END
>  <UniqueID>  (31) 
29

>  <SMILES>  (31) 
Cc1nc(CN2CCC[C@@H](NCc3c[nH+]c(C)s3)C2)no1

>  <Energy>  (31) 
113.3393054963952

>  <Genealogy>  (31) 
Cc1nc(CN2CCCC(NCc3c[nH+]c(C)s3)C2)no1 (protonated)
Cc1nc(CN2CCC[C@@H](NCc3c[nH+]c(C)s3)C2)no1 (chirality)
Cc1nc(CN2CCC[C@@H](NCc3c[nH+]c(C)s3)C2)no1 (3D coordinates assigned)
Cc1nc(CN2CCC[C@@H](NCc3c[nH+]c(C)s3)C2)no1 (nonaromatic ring conformer: 113.3393054963952 kcal/mol)

>  <smiles>  (31) 
Cc1nc(CN2CCCC(NCc3cnc(C)s3)C2)no1

>  <score_type>  (31) 
oracle

>  <origin>  (31) 
adg

>  <m_score__min__energy>  (31) 
-8.6999999999999993

>  <m_primary>  (31) 
energy

$$$$
31:0
     RDKit          3D

 55 58  0  0  0  0  0  0  0  0999 V2000
   -1.1560   25.4890  -29.0500 N   0  0  0  0  0  0  0  0  0  0  0  0
   -2.4850   24.3540  -29.0940 S   0  0  0  0  0  0  0  0  0  0  0  0
   -3.3260   24.5070  -27.8530 O   0  0  0  0  0  0  0  0  0  0  0  0
   -1.9460   22.9400  -29.1460 O   0  0  0  0  0  0  0  0  0  0  0  0
   -3.4660   24.6570  -30.4670 O   0  0  0  0  0  0  0  0  0  0  0  0
   -4.8310   24.3400  -30.5370 C   0  0  0  0  0  0  0  0  0  0  0  0
   -5.7500   25.2560  -30.0200 C   0  0  0  0  0  0  0  0  0  0  0  0
   -7.1160   24.9670  -30.0270 C   0  0  0  0  0  0  0  0  0  0  0  0
   -7.5810   23.7740  -30.5870 C   0  0  0  0  0  0  0  0  0  0  0  0
   -6.6790   22.8560  -31.1610 C   0  0  0  0  0  0  0  0  0  0  0  0
   -7.1520   21.6350  -31.7810 N   0  0  0  0  0  0  0  0  0  0  0  0
   -8.5530   21.2960  -32.0220 C   0  0  0  0  0  0  0  0  0  0  0  0
   -8.5520   19.9000  -32.7010 C   0  0  0  0  0  0  0  0  0  0  0  0
   -7.1620   19.4460  -32.6680 N   0  0  0  0  0  0  0  0  0  0  0  0
   -6.6330   18.2070  -33.2580 C   0  0  0  0  0  0  0  0  0  0  0  0
   -5.8090   17.4160  -32.2170 C   0  0  0  0  0  0  0  0  0  0  0  0
   -4.8310   16.4630  -32.9180 C   0  0  0  0  0  0  0  0  0  0  0  0
   -3.8490   17.1780  -33.7820 N   0  0  0  0  0  0  0  0  0  0  0  0
   -2.5320   17.3100  -33.1280 C   0  0  0  0  0  0  0  0  0  0  0  0
   -2.0880   18.7490  -33.1320 C   0  0  0  0  0  0  0  0  0  0  0  0
   -2.4330   19.5940  -32.0600 C   0  0  0  0  0  0  0  0  0  0  0  0
   -2.0250   20.9320  -32.0600 C   0  0  0  0  0  0  0  0  0  0  0  0
   -1.2760   21.4360  -33.1300 C   0  0  0  0  0  0  0  0  0  0  0  0
   -0.9380   20.6040  -34.2060 C   0  0  0  0  0  0  0  0  0  0  0  0
   -1.3410   19.2640  -34.2070 C   0  0  0  0  0  0  0  0  0  0  0  0
   -4.3180   18.4950  -34.2750 C   0  0  0  0  0  0  0  0  0  0  0  0
   -5.8280   18.4980  -34.5470 C   0  0  0  0  0  0  0  0  0  0  0  0
   -6.3770   20.5010  -32.1400 C   0  0  0  0  0  0  0  0  0  0  0  0
   -5.1300   20.4180  -31.9790 O   0  0  0  0  0  0  0  0  0  0  0  0
   -5.3010   23.1410  -31.1070 C   0  0  0  0  0  0  0  0  0  0  0  0
   -1.2520   26.0880  -29.9090 H   0  0  0  0  0  0  0  0  0  0  0  0
   -5.3954   26.2109  -29.6048 H   0  0  0  0  0  0  0  0  0  0  0  0
   -7.8292   25.6814  -29.5899 H   0  0  0  0  0  0  0  0  0  0  0  0
   -8.6580   23.5501  -30.5797 H   0  0  0  0  0  0  0  0  0  0  0  0
   -9.1046   21.2568  -31.0711 H   0  0  0  0  0  0  0  0  0  0  0  0
   -9.0435   22.0491  -32.6562 H   0  0  0  0  0  0  0  0  0  0  0  0
   -9.1967   19.2028  -32.1458 H   0  0  0  0  0  0  0  0  0  0  0  0
   -8.9396   19.9479  -33.7293 H   0  0  0  0  0  0  0  0  0  0  0  0
   -7.4816   17.5726  -33.5537 H   0  0  0  0  0  0  0  0  0  0  0  0
   -5.2418   18.1217  -31.5922 H   0  0  0  0  0  0  0  0  0  0  0  0
   -6.4962   16.8254  -31.5933 H   0  0  0  0  0  0  0  0  0  0  0  0
   -4.2796   15.8986  -32.1516 H   0  0  0  0  0  0  0  0  0  0  0  0
   -5.4218   15.7993  -33.5664 H   0  0  0  0  0  0  0  0  0  0  0  0
   -2.6057   16.9559  -32.0892 H   0  0  0  0  0  0  0  0  0  0  0  0
   -1.7963   16.7071  -33.6805 H   0  0  0  0  0  0  0  0  0  0  0  0
   -3.0249   19.2010  -31.2203 H   0  0  0  0  0  0  0  0  0  0  0  0
   -2.2928   21.5884  -31.2189 H   0  0  0  0  0  0  0  0  0  0  0  0
   -0.9521   22.4872  -33.1262 H   0  0  0  0  0  0  0  0  0  0  0  0
   -0.3562   21.0042  -35.0494 H   0  0  0  0  0  0  0  0  0  0  0  0
   -1.0729   18.6114  -35.0509 H   0  0  0  0  0  0  0  0  0  0  0  0
   -4.0913   19.2598  -33.5176 H   0  0  0  0  0  0  0  0  0  0  0  0
   -3.8001   18.7095  -35.2215 H   0  0  0  0  0  0  0  0  0  0  0  0
   -6.1198   19.4845  -34.9364 H   0  0  0  0  0  0  0  0  0  0  0  0
   -6.0499   17.7085  -35.2801 H   0  0  0  0  0  0  0  0  0  0  0  0
   -4.5813   22.4166  -31.5160 H   0  0  0  0  0  0  0  0  0  0  0  0
  1  2  1  0
  2  3  2  0
  2  4  2  0
  2  5  1  0
  5  6  1  0
  6  7  2  0
  7  8  1  0
  8  9  2  0
  9 10  1  0
 10 11  1  0
 11 12  1  0
 12 13  1  0
 13 14  1  0
 14 15  1  0
 15 16  1  0
 16 17  1  0
 17 18  1  0
 18 19  1  0
 19 20  1  0
 20 21  2  0
 21 22  1  0
 22 23  2  0
 23 24  1  0
 24 25  2  0
 18 26  1  0
 26 27  1  0
 14 28  1  0
 28 29  2  0
 10 30  2  0
 30  6  1  0
 28 11  1  0
 27 15  1  0
 25 20  1  0
  1 31  1  0
  7 32  1  0
  8 33  1  0
  9 34  1  0
 12 35  1  0
 12 36  1  0
 13 37  1  0
 13 38  1  0
 15 39  1  0
 16 40  1  0
 16 41  1  0
 17 42  1  0
 17 43  1  0
 19 44  1  0
 19 45  1  0
 21 46  1  0
 22 47  1  0
 23 48  1  0
 24 49  1  0
 25 50  1  0
 26 51  1  0
 26 52  1  0
 27 53  1  0
 27 54  1  0
 30 55  1  0
M  CHG  1   1  -1
M  END
>  <UniqueID>  (32) 
30

>  <SMILES>  (32) 
[NH-]S(=O)(=O)Oc1cccc(N2CCN(C3CCN(Cc4ccccc4)CC3)C2=O)c1

>  <Energy>  (32) 
81.45710093077015

>  <Genealogy>  (32) 
[NH-]S(=O)(=O)Oc1cccc(N2CCN(C3CCN(Cc4ccccc4)CC3)C2=O)c1 (protonated)
[NH-]S(=O)(=O)Oc1cccc(N2CCN(C3CCN(Cc4ccccc4)CC3)C2=O)c1 (3D coordinates assigned)
[NH-]S(=O)(=O)Oc1cccc(N2CCN(C3CCN(Cc4ccccc4)CC3)C2=O)c1 (nonaromatic ring conformer: 81.45710093077015 kcal/mol)

>  <smiles>  (32) 
NS(=O)(=O)Oc1cccc(N2CCN(C3CCN(Cc4ccccc4)CC3)C2=O)c1

>  <score_type>  (32) 
oracle

>  <origin>  (32) 
adg

>  <m_score__min__energy>  (32) 
-11.880000000000001

>  <m_primary>  (32) 
energy

$$$$
32:0
     RDKit          3D

 35 37  0  0  0  0  0  0  0  0999 V2000
   -7.2960   17.4000  -32.9180 C   0  0  0  0  0  0  0  0  0  0  0  0
   -7.3330   18.8690  -32.6200 C   0  0  0  0  0  0  0  0  0  0  0  0
   -6.5150   19.7570  -33.3350 C   0  0  0  0  0  0  0  0  0  0  0  0
   -6.5270   21.1220  -33.0350 C   0  0  0  0  0  0  0  0  0  0  0  0
   -7.3640   21.6150  -32.0270 C   0  0  0  0  0  0  0  0  0  0  0  0
   -7.3680   23.3720  -31.6310 S   0  0  0  0  0  0  0  0  0  0  0  0
   -5.5470   23.6440  -31.5180 C   0  0  0  0  0  0  0  0  0  0  0  0
   -4.7920   22.3970  -31.0390 C   0  0  0  0  0  0  0  0  0  0  0  0
   -4.6470   22.3610  -29.6200 O   0  0  0  0  0  0  0  0  0  0  0  0
   -3.6670   23.0890  -28.9350 C   0  0  0  0  0  0  0  0  0  0  0  0
   -3.1160   22.5360  -27.7730 C   0  0  0  0  0  0  0  0  0  0  0  0
   -2.0500   23.1670  -27.1260 C   0  0  0  0  0  0  0  0  0  0  0  0
   -1.5310   24.3600  -27.6350 C   0  0  0  0  0  0  0  0  0  0  0  0
   -2.1000   24.9410  -28.7720 C   0  0  0  0  0  0  0  0  0  0  0  0
   -3.1940   24.3370  -29.4040 C   0  0  0  0  0  0  0  0  0  0  0  0
   -3.8170   25.0180  -30.4580 O   0  0  0  0  0  0  0  0  0  0  0  0
   -5.2150   24.9100  -30.7170 C   0  0  0  0  0  0  0  0  0  0  0  0
   -8.1380   20.7240  -31.2740 C   0  0  0  0  0  0  0  0  0  0  0  0
   -8.1280   19.3580  -31.5720 C   0  0  0  0  0  0  0  0  0  0  0  0
   -7.2818   16.8347  -31.9745 H   0  0  0  0  0  0  0  0  0  0  0  0
   -8.1874   17.1212  -33.4991 H   0  0  0  0  0  0  0  0  0  0  0  0
   -6.3917   17.1664  -33.4991 H   0  0  0  0  0  0  0  0  0  0  0  0
   -5.8619   19.3774  -34.1346 H   0  0  0  0  0  0  0  0  0  0  0  0
   -5.8764   21.8114  -33.5930 H   0  0  0  0  0  0  0  0  0  0  0  0
   -5.1787   23.8225  -32.5390 H   0  0  0  0  0  0  0  0  0  0  0  0
   -5.3466   21.5030  -31.3603 H   0  0  0  0  0  0  0  0  0  0  0  0
   -3.7841   22.4254  -31.4787 H   0  0  0  0  0  0  0  0  0  0  0  0
   -3.5246   21.5990  -27.3667 H   0  0  0  0  0  0  0  0  0  0  0  0
   -1.6195   22.7242  -26.2157 H   0  0  0  0  0  0  0  0  0  0  0  0
   -0.6746   24.8422  -27.1410 H   0  0  0  0  0  0  0  0  0  0  0  0
   -1.6860   25.8781  -29.1726 H   0  0  0  0  0  0  0  0  0  0  0  0
   -5.7537   24.8771  -29.7585 H   0  0  0  0  0  0  0  0  0  0  0  0
   -5.5223   25.7828  -31.3118 H   0  0  0  0  0  0  0  0  0  0  0  0
   -8.7560   21.0998  -30.4452 H   0  0  0  0  0  0  0  0  0  0  0  0
   -8.7455   18.6641  -30.9828 H   0  0  0  0  0  0  0  0  0  0  0  0
  1  2  1  0
  2  3  2  0
  3  4  1  0
  4  5  2  0
  5  6  1  0
  6  7  1  0
  7  8  1  0
  8  9  1  0
  9 10  1  0
 10 11  2  0
 11 12  1  0
 12 13  2  0
 13 14  1  0
 14 15  2  0
 15 16  1  0
 16 17  1  0
  5 18  1  0
 18 19  2  0
 19  2  1  0
 17  7  1  0
 15 10  1  0
  1 20  1  0
  1 21  1  0
  1 22  1  0
  3 23  1  0
  4 24  1  0
  7 25  1  0
  8 26  1  0
  8 27  1  0
 11 28  1  0
 12 29  1  0
 13 30  1  0
 14 31  1  0
 17 32  1  0
 17 33  1  0
 18 34  1  0
 19 35  1  0
M  END
>  <UniqueID>  (33) 
31

>  <SMILES>  (33) 
Cc1ccc(SC2COc3ccccc3OC2)cc1

>  <Energy>  (33) 
41.40431418130526

>  <Genealogy>  (33) 
Cc1ccc(SC2COc3ccccc3OC2)cc1 (3D coordinates assigned)
Cc1ccc(SC2COc3ccccc3OC2)cc1 (nonaromatic ring conformer: 41.40431418130526 kcal/mol)

>  <smiles>  (33) 
Cc1ccc(SC2COc3ccccc3OC2)cc1

>  <score_type>  (33) 
oracle

>  <origin>  (33) 
adg

>  <m_score__min__energy>  (33) 
-6.4100000000000001

>  <m_primary>  (33) 
energy

$$$$
33:0
     RDKit          3D

 46 48  0  0  0  0  0  0  0  0999 V2000
   -1.1200   30.7930  -26.2470 C   0  0  0  0  0  0  0  0  0  0  0  0
   -0.4240   29.7380  -25.8220 C   0  0  0  0  0  0  0  0  0  0  0  0
    0.4110   29.8530  -24.5780 C   0  0  0  0  0  0  0  0  0  0  0  0
   -0.4400   28.4970  -26.6280 C   0  0  0  0  0  0  0  0  0  0  0  0
    0.4090   27.4670  -26.4880 C   0  0  0  0  0  0  0  0  0  0  0  0
    0.0190   26.0400  -26.1990 C   0  0  0  0  0  0  0  0  0  0  0  0
    0.3800   25.0800  -27.3470 C   0  0  0  0  0  0  0  0  0  0  0  0
   -0.8540   24.4240  -27.9450 C   0  0  0  0  0  0  0  0  0  0  0  0
   -1.6040   25.1440  -28.9030 C   0  0  0  0  0  0  0  0  0  0  0  0
   -1.2260   26.4290  -29.2830 O   0  0  0  0  0  0  0  0  0  0  0  0
   -2.7430   24.5830  -29.4840 C   0  0  0  0  0  0  0  0  0  0  0  0
   -3.4730   25.3020  -30.4240 O   0  0  0  0  0  0  0  0  0  0  0  0
   -3.1520   23.3020  -29.1290 C   0  0  0  0  0  0  0  0  0  0  0  0
   -2.4280   22.5630  -28.1950 C   0  0  0  0  0  0  0  0  0  0  0  0
   -1.2760   23.1080  -27.5840 C   0  0  0  0  0  0  0  0  0  0  0  0
   -0.5960   22.2490  -26.5750 C   0  0  0  0  0  0  0  0  0  0  0  0
    0.5890   22.4570  -26.2070 O   0  0  0  0  0  0  0  0  0  0  0  0
   -1.3450   21.0960  -25.9790 C   0  0  0  0  0  0  0  0  0  0  0  0
   -2.1340   20.3500  -27.0640 C   0  0  2  0  0  0  0  0  0  0  0  0
   -1.2320   19.4500  -27.8900 C   0  0  0  0  0  0  0  0  0  0  0  0
   -0.6770   18.3010  -27.2970 C   0  0  0  0  0  0  0  0  0  0  0  0
    0.1930   17.4790  -28.0180 C   0  0  0  0  0  0  0  0  0  0  0  0
    0.5250   17.7960  -29.3370 C   0  0  0  0  0  0  0  0  0  0  0  0
   -0.0070   18.9400  -29.9340 C   0  0  0  0  0  0  0  0  0  0  0  0
   -0.8750   19.7690  -29.2160 C   0  0  0  0  0  0  0  0  0  0  0  0
   -2.8650   21.2640  -27.8900 O   0  0  0  0  0  0  0  0  0  0  0  0
   -1.7336   30.7168  -27.1568 H   0  0  0  0  0  0  0  0  0  0  0  0
   -1.0805   31.7395  -25.6878 H   0  0  0  0  0  0  0  0  0  0  0  0
   -0.2358   29.7639  -23.6927 H   0  0  0  0  0  0  0  0  0  0  0  0
    1.1626   29.0499  -24.5653 H   0  0  0  0  0  0  0  0  0  0  0  0
    0.9175   30.8294  -24.5653 H   0  0  0  0  0  0  0  0  0  0  0  0
   -1.2121   28.4116  -27.4068 H   0  0  0  0  0  0  0  0  0  0  0  0
    1.4824   27.6829  -26.5933 H   0  0  0  0  0  0  0  0  0  0  0  0
    0.5402   25.7106  -25.2880 H   0  0  0  0  0  0  0  0  0  0  0  0
   -1.0737   26.0133  -26.0755 H   0  0  0  0  0  0  0  0  0  0  0  0
    0.8990   25.6462  -28.1345 H   0  0  0  0  0  0  0  0  0  0  0  0
    1.0244   24.2872  -26.9392 H   0  0  0  0  0  0  0  0  0  0  0  0
   -4.0529   22.8692  -29.5884 H   0  0  0  0  0  0  0  0  0  0  0  0
   -0.6304   20.4035  -25.5102 H   0  0  0  0  0  0  0  0  0  0  0  0
   -2.0497   21.4799  -25.2267 H   0  0  0  0  0  0  0  0  0  0  0  0
   -2.8642   19.7009  -26.5586 H   0  0  0  0  0  0  0  0  0  0  0  0
   -0.9302   18.0477  -26.2569 H   0  0  0  0  0  0  0  0  0  0  0  0
    0.6172   16.5806  -27.5459 H   0  0  0  0  0  0  0  0  0  0  0  0
    1.2053   17.1445  -29.9050 H   0  0  0  0  0  0  0  0  0  0  0  0
    0.2571   19.1903  -30.9721 H   0  0  0  0  0  0  0  0  0  0  0  0
   -1.2815   20.6752  -29.6887 H   0  0  0  0  0  0  0  0  0  0  0  0
  1  2  2  0
  2  3  1  0
  2  4  1  0
  4  5  2  3
  5  6  1  0
  6  7  1  0
  7  8  1  0
  8  9  2  0
  9 10  1  0
  9 11  1  0
 11 12  1  0
 11 13  2  0
 13 14  1  0
 14 15  2  0
 15 16  1  0
 16 17  2  0
 16 18  1  0
 18 19  1  0
 19 20  1  0
 20 21  2  0
 21 22  1  0
 22 23  2  0
 23 24  1  0
 24 25  2  0
 19 26  1  0
 15  8  1  0
 25 20  1  0
 26 14  1  0
  1 27  1  0
  1 28  1  0
  3 29  1  0
  3 30  1  0
  3 31  1  0
  4 32  1  0
  5 33  1  0
  6 34  1  0
  6 35  1  0
  7 36  1  0
  7 37  1  0
 13 38  1  0
 18 39  1  0
 18 40  1  0
 19 41  1  1
 21 42  1  0
 22 43  1  0
 23 44  1  0
 24 45  1  0
 25 46  1  0
M  CHG  2  10  -1  12  -1
M  END
>  <UniqueID>  (34) 
32

>  <SMILES>  (34) 
C=C(C)C=CCCc1c([O-])c([O-])cc2c1C(=O)C[C@H](c1ccccc1)O2

>  <Energy>  (34) 
56.81227972228006

>  <Genealogy>  (34) 
C=C(C)C=CCCc1c([O-])c([O-])cc2c1C(=O)CC(c1ccccc1)O2 (protonated)
C=C(C)C=CCCc1c([O-])c([O-])cc2c1C(=O)C[C@H](c1ccccc1)O2 (chirality)
C=C(C)C=CCCc1c([O-])c([O-])cc2c1C(=O)C[C@H](c1ccccc1)O2 (3D coordinates assigned)
C=C(C)C=CCCc1c([O-])c([O-])cc2c1C(=O)C[C@H](c1ccccc1)O2 (nonaromatic ring conformer: 56.81227972228006 kcal/mol)

>  <smiles>  (34) 
C=C(C)C=CCCc1c(O)c(O)cc2c1C(=O)CC(c1ccccc1)O2

>  <score_type>  (34) 
oracle

>  <origin>  (34) 
adg

>  <m_score__min__energy>  (34) 
-13.16

>  <m_primary>  (34) 
energy

$$$$
34:0
     RDKit          3D

 55 59  0  0  0  0  0  0  0  0999 V2000
   -3.0080   18.9340  -26.4360 C   0  0  0  0  0  0  0  0  0  0  0  0
   -2.3400   19.8050  -27.3420 O   0  0  0  0  0  0  0  0  0  0  0  0
   -1.6590   20.9750  -26.9670 C   0  0  0  0  0  0  0  0  0  0  0  0
   -1.2080   21.1850  -25.6490 C   0  0  0  0  0  0  0  0  0  0  0  0
   -0.5570   22.3720  -25.3060 C   0  0  0  0  0  0  0  0  0  0  0  0
   -0.3480   23.3610  -26.2690 C   0  0  0  0  0  0  0  0  0  0  0  0
   -0.7860   23.1630  -27.5790 C   0  0  0  0  0  0  0  0  0  0  0  0
   -1.4360   21.9700  -27.9390 C   0  0  0  0  0  0  0  0  0  0  0  0
   -1.8770   21.7700  -29.2930 N   0  0  0  0  0  0  0  0  0  0  0  0
   -0.9950   21.1100  -30.2570 C   0  0  0  0  0  0  0  0  0  0  0  0
   -1.8180   20.2090  -31.1770 C   0  0  0  0  0  0  0  0  0  0  0  0
   -2.9730   20.9430  -31.7140 N   0  0  0  0  0  0  0  0  0  0  0  0
   -3.4030   20.6930  -33.0700 C   0  0  0  0  0  0  0  0  0  0  0  0
   -2.5500   20.3770  -33.9440 O   0  0  0  0  0  0  0  0  0  0  0  0
   -4.8470   20.8350  -33.4760 C   0  0  0  0  0  0  0  0  0  0  0  0
   -5.5550   19.5550  -33.3730 N   0  0  0  0  0  0  0  0  0  0  0  0
   -6.8010   19.2800  -32.8810 C   0  0  0  0  0  0  0  0  0  0  0  0
   -7.7740   20.2760  -32.3820 C   0  0  0  0  0  0  0  0  0  0  0  0
   -9.1550   20.1130  -32.4030 C   0  0  0  0  0  0  0  0  0  0  0  0
   -9.8610   21.2340  -31.9510 C   0  0  0  0  0  0  0  0  0  0  0  0
   -9.0470   22.2970  -31.5890 C   0  0  0  0  0  0  0  0  0  0  0  0
   -7.4500   21.8370  -31.8340 S   0  0  0  0  0  0  0  0  0  0  0  0
   -7.1050   17.9520  -32.9050 N   0  0  0  0  0  0  0  0  0  0  0  0
   -6.0100   17.3960  -33.4510 C   0  0  0  0  0  0  0  0  0  0  0  0
   -5.7750   16.0550  -33.7310 C   0  0  0  0  0  0  0  0  0  0  0  0
   -4.5430   15.7280  -34.3260 C   0  0  0  0  0  0  0  0  0  0  0  0
   -3.6090   16.7510  -34.6160 C   0  0  0  0  0  0  0  0  0  0  0  0
   -3.8940   18.0560  -34.3190 N   0  0  0  0  0  0  0  0  0  0  0  0
   -5.0890   18.3500  -33.7380 C   0  0  0  0  0  0  0  0  0  0  0  0
   -3.8450   21.6430  -30.7560 C   0  0  0  0  0  0  0  0  0  0  0  0
   -3.0180   22.5240  -29.8180 C   0  0  0  0  0  0  0  0  0  0  0  0
   -2.7783   19.2335  -25.4028 H   0  0  0  0  0  0  0  0  0  0  0  0
   -4.0937   18.9943  -26.6025 H   0  0  0  0  0  0  0  0  0  0  0  0
   -2.6683   17.9011  -26.6025 H   0  0  0  0  0  0  0  0  0  0  0  0
   -1.3695   20.4096  -24.8857 H   0  0  0  0  0  0  0  0  0  0  0  0
   -0.2081   22.5281  -24.2746 H   0  0  0  0  0  0  0  0  0  0  0  0
    0.1620   24.2964  -25.9951 H   0  0  0  0  0  0  0  0  0  0  0  0
   -0.6215   23.9454  -28.3345 H   0  0  0  0  0  0  0  0  0  0  0  0
   -0.4768   21.8711  -30.8589 H   0  0  0  0  0  0  0  0  0  0  0  0
   -0.2564   20.5001  -29.7161 H   0  0  0  0  0  0  0  0  0  0  0  0
   -1.1861   19.8679  -32.0102 H   0  0  0  0  0  0  0  0  0  0  0  0
   -2.1808   19.3458  -30.5997 H   0  0  0  0  0  0  0  0  0  0  0  0
   -5.3345   21.5687  -32.8172 H   0  0  0  0  0  0  0  0  0  0  0  0
   -4.8831   21.1698  -34.5232 H   0  0  0  0  0  0  0  0  0  0  0  0
   -9.6465   19.1895  -32.7430 H   0  0  0  0  0  0  0  0  0  0  0  0
  -10.9587   21.2686  -31.8887 H   0  0  0  0  0  0  0  0  0  0  0  0
   -9.3876   23.2711  -31.2080 H   0  0  0  0  0  0  0  0  0  0  0  0
   -6.5214   15.2816  -33.4970 H   0  0  0  0  0  0  0  0  0  0  0  0
   -4.3063   14.6807  -34.5651 H   0  0  0  0  0  0  0  0  0  0  0  0
   -2.6468   16.4952  -35.0836 H   0  0  0  0  0  0  0  0  0  0  0  0
   -3.2020   18.8030  -34.5470 H   0  0  0  0  0  0  0  0  0  0  0  0
   -4.5571   22.2730  -31.3092 H   0  0  0  0  0  0  0  0  0  0  0  0
   -4.3842   20.8952  -30.1559 H   0  0  0  0  0  0  0  0  0  0  0  0
   -2.6507   23.4005  -30.3720 H   0  0  0  0  0  0  0  0  0  0  0  0
   -3.6508   22.8490  -28.9790 H   0  0  0  0  0  0  0  0  0  0  0  0
  1  2  1  0
  2  3  1  0
  3  4  2  0
  4  5  1  0
  5  6  2  0
  6  7  1  0
  7  8  2  0
  8  9  1  0
  9 10  1  0
 10 11  1  0
 11 12  1  0
 12 13  1  0
 13 14  2  0
 13 15  1  0
 15 16  1  0
 16 17  1  0
 17 18  1  0
 18 19  2  0
 19 20  1  0
 20 21  2  0
 21 22  1  0
 17 23  2  0
 23 24  1  0
 24 25  2  0
 25 26  1  0
 26 27  2  0
 27 28  1  0
 28 29  2  0
 12 30  1  0
 30 31  1  0
  8  3  1  0
 31  9  1  0
 29 16  1  0
 22 18  1  0
 29 24  1  0
  1 32  1  0
  1 33  1  0
  1 34  1  0
  4 35  1  0
  5 36  1  0
  6 37  1  0
  7 38  1  0
 10 39  1  0
 10 40  1  0
 11 41  1  0
 11 42  1  0
 15 43  1  0
 15 44  1  0
 19 45  1  0
 20 46  1  0
 21 47  1  0
 25 48  1  0
 26 49  1  0
 27 50  1  0
 28 51  1  0
 30 52  1  0
 30 53  1  0
 31 54  1  0
 31 55  1  0
M  CHG  1  28   1
M  END
>  <UniqueID>  (35) 
33

>  <SMILES>  (35) 
COc1ccccc1N1CCN(C(=O)Cn2c(-c3cccs3)nc3ccc[nH+]c32)CC1

>  <Energy>  (35) 
132.0053025926154

>  <Genealogy>  (35) 
COc1ccccc1N1CCN(C(=O)Cn2c(-c3cccs3)nc3ccc[nH+]c32)CC1 (protonated)
COc1ccccc1N1CCN(C(=O)Cn2c(-c3cccs3)nc3ccc[nH+]c32)CC1 (3D coordinates assigned)
COc1ccccc1N1CCN(C(=O)Cn2c(-c3cccs3)nc3ccc[nH+]c32)CC1 (nonaromatic ring conformer: 132.0053025926154 kcal/mol)

>  <smiles>  (35) 
COc1ccccc1N1CCN(C(=O)Cn2c(-c3cccs3)nc3cccnc32)CC1

>  <score_type>  (35) 
oracle

>  <origin>  (35) 
adg

>  <m_score__min__energy>  (35) 
-8.5399999999999991

>  <m_primary>  (35) 
energy

$$$$
35:0
     RDKit          3D

 42 44  0  0  0  0  0  0  0  0999 V2000
   -1.2370   26.1590  -28.2590 C   0  0  0  0  0  0  0  0  0  0  0  0
   -2.1040   25.2270  -28.8950 O   0  0  0  0  0  0  0  0  0  0  0  0
   -2.1860   23.8620  -28.5710 C   0  0  0  0  0  0  0  0  0  0  0  0
   -1.0850   23.1660  -28.0310 C   0  0  0  0  0  0  0  0  0  0  0  0
   -1.1960   21.8120  -27.7070 C   0  0  0  0  0  0  0  0  0  0  0  0
   -2.4020   21.1420  -27.8990 C   0  0  0  0  0  0  0  0  0  0  0  0
   -2.5090   19.8300  -27.5730 F   0  0  0  0  0  0  0  0  0  0  0  0
   -3.5020   21.8210  -28.4270 C   0  0  0  0  0  0  0  0  0  0  0  0
   -3.3980   23.1740  -28.7970 C   0  0  0  0  0  0  0  0  0  0  0  0
   -4.6010   23.8780  -29.3890 C   0  0  0  0  0  0  0  0  0  0  0  0
   -4.5300   24.0820  -30.8550 N   0  0  0  0  0  0  0  0  0  0  0  0
   -3.8620   23.0450  -31.6500 C   0  0  0  0  0  0  0  0  0  0  0  0
   -4.7820   21.8700  -32.0000 C   0  0  0  0  0  0  0  0  0  0  0  0
   -6.2170   22.1930  -31.9350 N   0  0  0  0  0  0  0  0  0  0  0  0
   -7.1590   21.0910  -31.9270 C   0  0  0  0  0  0  0  0  0  0  0  0
   -6.7370   19.7540  -31.7790 C   0  0  0  0  0  0  0  0  0  0  0  0
   -7.6820   18.7250  -31.8040 C   0  0  0  0  0  0  0  0  0  0  0  0
   -9.0330   19.0240  -31.9680 C   0  0  0  0  0  0  0  0  0  0  0  0
   -9.4250   20.3560  -32.0990 C   0  0  0  0  0  0  0  0  0  0  0  0
   -8.4920   21.3440  -32.0740 N   0  0  0  0  0  0  0  0  0  0  0  0
   -6.7120   23.5790  -32.0130 C   0  0  0  0  0  0  0  0  0  0  0  0
   -5.7170   24.6430  -31.5110 C   0  0  0  0  0  0  0  0  0  0  0  0
   -1.3293   26.0598  -27.1674 H   0  0  0  0  0  0  0  0  0  0  0  0
   -0.1981   25.9571  -28.5590 H   0  0  0  0  0  0  0  0  0  0  0  0
   -1.5133   27.1806  -28.5590 H   0  0  0  0  0  0  0  0  0  0  0  0
   -0.1336   23.6923  -27.8640 H   0  0  0  0  0  0  0  0  0  0  0  0
   -0.3283   21.2730  -27.2989 H   0  0  0  0  0  0  0  0  0  0  0  0
   -4.4585   21.2930  -28.5547 H   0  0  0  0  0  0  0  0  0  0  0  0
   -5.4950   23.2763  -29.1681 H   0  0  0  0  0  0  0  0  0  0  0  0
   -4.6349   24.8788  -28.9338 H   0  0  0  0  0  0  0  0  0  0  0  0
   -3.5020   23.4985  -32.5853 H   0  0  0  0  0  0  0  0  0  0  0  0
   -3.0370   22.6458  -31.0417 H   0  0  0  0  0  0  0  0  0  0  0  0
   -4.5477   21.5400  -33.0228 H   0  0  0  0  0  0  0  0  0  0  0  0
   -4.5977   21.0870  -31.2497 H   0  0  0  0  0  0  0  0  0  0  0  0
   -5.6701   19.5222  -31.6446 H   0  0  0  0  0  0  0  0  0  0  0  0
   -7.3594   17.6791  -31.6942 H   0  0  0  0  0  0  0  0  0  0  0  0
   -9.7818   18.2186  -31.9939 H   0  0  0  0  0  0  0  0  0  0  0  0
  -10.4889   20.6069  -32.2225 H   0  0  0  0  0  0  0  0  0  0  0  0
   -6.9499   23.8000  -33.0640 H   0  0  0  0  0  0  0  0  0  0  0  0
   -7.5894   23.6351  -31.3519 H   0  0  0  0  0  0  0  0  0  0  0  0
   -5.3865   25.2423  -32.3722 H   0  0  0  0  0  0  0  0  0  0  0  0
   -6.2453   25.2448  -30.7568 H   0  0  0  0  0  0  0  0  0  0  0  0
  1  2  1  0
  2  3  1  0
  3  4  2  0
  4  5  1  0
  5  6  2  0
  6  7  1  0
  6  8  1  0
  8  9  2  0
  9 10  1  0
 10 11  1  0
 11 12  1  0
 12 13  1  0
 13 14  1  0
 14 15  1  0
 15 16  2  0
 16 17  1  0
 17 18  2  0
 18 19  1  0
 19 20  2  0
 14 21  1  0
 21 22  1  0
  9  3  1  0
 22 11  1  0
 20 15  1  0
  1 23  1  0
  1 24  1  0
  1 25  1  0
  4 26  1  0
  5 27  1  0
  8 28  1  0
 10 29  1  0
 10 30  1  0
 12 31  1  0
 12 32  1  0
 13 33  1  0
 13 34  1  0
 16 35  1  0
 17 36  1  0
 18 37  1  0
 19 38  1  0
 21 39  1  0
 21 40  1  0
 22 41  1  0
 22 42  1  0
M  END
>  <UniqueID>  (36) 
34

>  <SMILES>  (36) 
COc1ccc(F)cc1CN1CCN(c2ccccn2)CC1

>  <Energy>  (36) 
57.59474343519233

>  <Genealogy>  (36) 
COc1ccc(F)cc1CN1CCN(c2ccccn2)CC1 (3D coordinates assigned)
COc1ccc(F)cc1CN1CCN(c2ccccn2)CC1 (nonaromatic ring conformer: 57.59474343519233 kcal/mol)

>  <smiles>  (36) 
COc1ccc(F)cc1CN1CCN(c2ccccn2)CC1

>  <score_type>  (36) 
oracle

>  <origin>  (36) 
adg

>  <m_score__min__energy>  (36) 
-7.2000000000000002

>  <m_primary>  (36) 
energy

$$$$
36:0
     RDKit          3D

102101  0  0  0  0  0  0  0  0999 V2000
   -0.6110   20.2970  -31.2990 H   0  0  0  0  0  0  0  0  0  0  0  0
   -1.2800   20.9940  -31.0570 O   0  0  0  0  0  0  0  0  0  0  0  0
   -1.2980   21.1280  -29.6950 N   0  0  2  0  0  0  0  0  0  0  0  0
   -0.2250   22.0880  -29.3290 C   0  0  0  0  0  0  0  0  0  0  0  0
   -0.1506   22.1546  -28.2335 H   0  0  0  0  0  0  0  0  0  0  0  0
    0.7339   21.7408  -29.7412 H   0  0  0  0  0  0  0  0  0  0  0  0
   -0.4638   23.0795  -29.7412 H   0  0  0  0  0  0  0  0  0  0  0  0
   -0.9730   19.7930  -29.1170 C   0  0  0  0  0  0  0  0  0  0  0  0
   -1.0667   19.8610  -28.0231 H   0  0  0  0  0  0  0  0  0  0  0  0
   -1.6780   19.0788  -29.5675 H   0  0  0  0  0  0  0  0  0  0  0  0
    0.4460   19.2750  -29.4480 C   0  0  0  0  0  0  0  0  0  0  0  0
    1.1800   19.8038  -28.8222 H   0  0  0  0  0  0  0  0  0  0  0  0
    0.4872   18.1942  -29.2474 H   0  0  0  0  0  0  0  0  0  0  0  0
    0.7470   19.5000  -30.8090 O   0  0  0  0  0  0  0  0  0  0  0  0
    1.1230   18.2780  -31.4160 C   0  0  0  0  0  0  0  0  0  0  0  0
    1.7456   18.4844  -32.2990 H   0  0  0  0  0  0  0  0  0  0  0  0
    1.6935   17.6732  -30.6957 H   0  0  0  0  0  0  0  0  0  0  0  0
   -0.1220   17.5140  -31.8420 C   0  0  0  0  0  0  0  0  0  0  0  0
    0.1350   16.8094  -32.6467 H   0  0  0  0  0  0  0  0  0  0  0  0
   -0.5248   16.9530  -30.9858 H   0  0  0  0  0  0  0  0  0  0  0  0
   -1.0890   18.4330  -32.3080 O   0  0  0  0  0  0  0  0  0  0  0  0
   -1.8820   17.8720  -33.3380 C   0  0  0  0  0  0  0  0  0  0  0  0
   -1.6113   18.3481  -34.2920 H   0  0  0  0  0  0  0  0  0  0  0  0
   -1.6883   16.7894  -33.3600 H   0  0  0  0  0  0  0  0  0  0  0  0
   -3.3810   18.0750  -33.0940 C   0  0  0  0  0  0  0  0  0  0  0  0
   -3.8419   17.1130  -32.8255 H   0  0  0  0  0  0  0  0  0  0  0  0
   -3.5237   18.7933  -32.2732 H   0  0  0  0  0  0  0  0  0  0  0  0
   -3.9880   18.5760  -34.2670 O   0  0  0  0  0  0  0  0  0  0  0  0
   -4.5310   17.5250  -35.0420 C   0  0  0  0  0  0  0  0  0  0  0  0
   -5.0726   17.9489  -35.9004 H   0  0  0  0  0  0  0  0  0  0  0  0
   -3.7130   16.8800  -35.3953 H   0  0  0  0  0  0  0  0  0  0  0  0
   -5.4960   16.6900  -34.1980 C   0  0  0  0  0  0  0  0  0  0  0  0
   -5.7067   15.7429  -34.7163 H   0  0  0  0  0  0  0  0  0  0  0  0
   -5.0356   16.4868  -33.2198 H   0  0  0  0  0  0  0  0  0  0  0  0
   -6.7100   17.3980  -34.0020 O   0  0  0  0  0  0  0  0  0  0  0  0
   -7.2380   17.1430  -32.7160 C   0  0  0  0  0  0  0  0  0  0  0  0
   -8.1750   17.7044  -32.5863 H   0  0  0  0  0  0  0  0  0  0  0  0
   -7.4377   16.0667  -32.6082 H   0  0  0  0  0  0  0  0  0  0  0  0
   -6.2340   17.5810  -31.6600 C   0  0  0  0  0  0  0  0  0  0  0  0
   -6.5587   17.2180  -30.6737 H   0  0  0  0  0  0  0  0  0  0  0  0
   -5.2457   17.1620  -31.9003 H   0  0  0  0  0  0  0  0  0  0  0  0
   -6.1520   18.9930  -31.6380 O   0  0  0  0  0  0  0  0  0  0  0  0
   -7.4330   19.5760  -31.8000 C   0  0  0  0  0  0  0  0  0  0  0  0
   -8.1803   18.7754  -31.9031 H   0  0  0  0  0  0  0  0  0  0  0  0
   -7.6456   20.1964  -30.9169 H   0  0  0  0  0  0  0  0  0  0  0  0
   -7.4860   20.4710  -33.0430 C   0  0  0  0  0  0  0  0  0  0  0  0
   -8.5010   20.4458  -33.4661 H   0  0  0  0  0  0  0  0  0  0  0  0
   -7.2248   21.5003  -32.7562 H   0  0  0  0  0  0  0  0  0  0  0  0
   -6.5350   19.9990  -34.0430 N   0  0  0  0  0  0  0  0  0  0  0  0
   -7.0570   19.4120  -34.7400 H   0  0  0  0  0  0  0  0  0  0  0  0
   -5.8580   19.3600  -33.5670 H   0  0  0  0  0  0  0  0  0  0  0  0
   -2.6420   21.6420  -29.2880 C   0  0  0  0  0  0  0  0  0  0  0  0
   -2.6222   22.7394  -29.3607 H   0  0  0  0  0  0  0  0  0  0  0  0
   -2.8128   21.2703  -28.2669 H   0  0  0  0  0  0  0  0  0  0  0  0
   -3.8330   21.1280  -30.1350 C   0  0  0  0  0  0  0  0  0  0  0  0
   -4.6875   20.9247  -29.4728 H   0  0  0  0  0  0  0  0  0  0  0  0
   -3.5296   20.2073  -30.6548 H   0  0  0  0  0  0  0  0  0  0  0  0
   -4.2260   22.1390  -31.1410 N   0  0  0  0  0  0  0  0  0  0  0  0
   -4.3330   21.6020  -32.5180 C   0  0  0  0  0  0  0  0  0  0  0  0
   -5.1962   22.0587  -33.0243 H   0  0  0  0  0  0  0  0  0  0  0  0
   -4.4684   20.5111  -32.4782 H   0  0  0  0  0  0  0  0  0  0  0  0
   -3.0790   21.9250  -33.2760 C   0  0  0  0  0  0  0  0  0  0  0  0
   -2.8517   22.9748  -33.5131 H   0  0  0  0  0  0  0  0  0  0  0  0
   -2.2280   20.9670  -33.6720 C   0  0  0  0  0  0  0  0  0  0  0  0
   -2.5365   19.9130  -33.6101 H   0  0  0  0  0  0  0  0  0  0  0  0
   -0.8630   21.3040  -34.1980 C   0  0  0  0  0  0  0  0  0  0  0  0
   -0.8071   22.3842  -34.3984 H   0  0  0  0  0  0  0  0  0  0  0  0
   -0.6864   20.7408  -35.1262 H   0  0  0  0  0  0  0  0  0  0  0  0
    0.1640   20.9390  -33.2120 N   0  0  0  0  0  0  0  0  0  0  0  0
   -0.1870   20.1070  -32.6810 H   0  0  0  0  0  0  0  0  0  0  0  0
    1.4230   20.5450  -33.8610 C   0  0  0  0  0  0  0  0  0  0  0  0
    1.4731   19.4474  -33.9129 H   0  0  0  0  0  0  0  0  0  0  0  0
    2.2616   20.9409  -33.2695 H   0  0  0  0  0  0  0  0  0  0  0  0
    1.5110   21.1160  -35.2730 C   0  0  0  0  0  0  0  0  0  0  0  0
    1.6784   22.2019  -35.2196 H   0  0  0  0  0  0  0  0  0  0  0  0
    2.3467   20.6421  -35.8087 H   0  0  0  0  0  0  0  0  0  0  0  0
    0.5714   20.9157  -35.8087 H   0  0  0  0  0  0  0  0  0  0  0  0
   -5.4000   22.9440  -30.7280 C   0  0  0  0  0  0  0  0  0  0  0  0
   -5.8827   23.3424  -31.6326 H   0  0  0  0  0  0  0  0  0  0  0  0
   -6.0612   22.2757  -30.1569 H   0  0  0  0  0  0  0  0  0  0  0  0
   -5.0500   24.1280  -29.8020 C   0  0  0  0  0  0  0  0  0  0  0  0
   -5.9198   24.7979  -29.7334 H   0  0  0  0  0  0  0  0  0  0  0  0
   -4.7868   23.7269  -28.8121 H   0  0  0  0  0  0  0  0  0  0  0  0
   -3.8520   24.9200  -30.3350 C   0  0  0  0  0  0  0  0  0  0  0  0
   -3.7684   24.7694  -31.4214 H   0  0  0  0  0  0  0  0  0  0  0  0
   -3.9975   25.9889  -30.1201 H   0  0  0  0  0  0  0  0  0  0  0  0
   -2.6290   24.4590  -29.6860 N   0  0  0  0  0  0  0  0  0  0  0  0
   -1.9810   25.1780  -28.6290 C   0  0  0  0  0  0  0  0  0  0  0  0
   -1.2340   26.1600  -28.9090 O   0  0  0  0  0  0  0  0  0  0  0  0
   -2.2490   24.8200  -27.1760 C   0  0  0  0  0  0  0  0  0  0  0  0
   -1.8350   25.9860  -26.2530 C   0  0  0  0  0  0  0  0  0  0  0  0
   -1.9441   25.6786  -25.2025 H   0  0  0  0  0  0  0  0  0  0  0  0
   -0.7865   26.2546  -26.4494 H   0  0  0  0  0  0  0  0  0  0  0  0
   -2.4793   26.8557  -26.4494 H   0  0  0  0  0  0  0  0  0  0  0  0
   -1.4560   23.5610  -26.7680 C   0  0  0  0  0  0  0  0  0  0  0  0
   -1.4137   23.4939  -25.6709 H   0  0  0  0  0  0  0  0  0  0  0  0
   -1.9544   22.6671  -27.1711 H   0  0  0  0  0  0  0  0  0  0  0  0
   -0.4345   23.6244  -27.1711 H   0  0  0  0  0  0  0  0  0  0  0  0
   -3.7550   24.5440  -27.0120 C   0  0  0  0  0  0  0  0  0  0  0  0
   -4.0050   24.4982  -25.9418 H   0  0  0  0  0  0  0  0  0  0  0  0
   -4.3298   25.3518  -27.4885 H   0  0  0  0  0  0  0  0  0  0  0  0
   -4.0060   23.5849  -27.4885 H   0  0  0  0  0  0  0  0  0  0  0  0
  1  2  1  0
  3  2  1  6
  3  4  1  0
  4  5  1  0
  4  6  1  0
  4  7  1  0
  3  8  1  0
  8  9  1  0
  8 10  1  0
  8 11  1  0
 11 12  1  0
 11 13  1  0
 11 14  1  0
 14 15  1  0
 15 16  1  0
 15 17  1  0
 15 18  1  0
 18 19  1  0
 18 20  1  0
 18 21  1  0
 21 22  1  0
 22 23  1  0
 22 24  1  0
 22 25  1  0
 25 26  1  0
 25 27  1  0
 25 28  1  0
 28 29  1  0
 29 30  1  0
 29 31  1  0
 29 32  1  0
 32 33  1  0
 32 34  1  0
 32 35  1  0
 35 36  1  0
 36 37  1  0
 36 38  1  0
 36 39  1  0
 39 40  1  0
 39 41  1  0
 39 42  1  0
 42 43  1  0
 43 44  1  0
 43 45  1  0
 43 46  1  0
 46 47  1  0
 46 48  1  0
 46 49  1  0
 49 50  1  0
 49 51  1  0
  3 52  1  0
 52 53  1  0
 52 54  1  0
 52 55  1  0
 55 56  1  0
 55 57  1  0
 55 58  1  0
 58 59  1  0
 59 60  1  0
 59 61  1  0
 59 62  1  0
 62 63  1  0
 62 64  2  0
 64 65  1  0
 64 66  1  0
 66 67  1  0
 66 68  1  0
 66 69  1  0
 69 70  1  0
 69 71  1  0
 71 72  1  0
 71 73  1  0
 71 74  1  0
 74 75  1  0
 74 76  1  0
 74 77  1  0
 58 78  1  0
 78 79  1  0
 78 80  1  0
 78 81  1  0
 81 82  1  0
 81 83  1  0
 81 84  1  0
 84 85  1  0
 84 86  1  0
 84 87  1  0
 87 88  1  0
 88 89  2  0
 88 90  1  0
 90 91  1  0
 91 92  1  0
 91 93  1  0
 91 94  1  0
 90 95  1  0
 95 96  1  0
 95 97  1  0
 95 98  1  0
 90 99  1  0
 99100  1  0
 99101  1  0
 99102  1  0
M  CHG  2   3   1  87  -1
M  END
>  <UniqueID>  (37) 
35

>  <SMILES>  (37) 
CCNC/C=C/CN(CCC[N-]C(=O)C(C)(C)C)CC[N@+](C)(O)CCOCCOCCOCCOCCOCCN

>  <Energy>  (37) 
86.80428533261336

>  <Genealogy>  (37) 
CCNCC=CCN(CCC[N-]C(=O)C(C)(C)C)CC[N+](C)(O)CCOCCOCCOCCOCCOCCN (protonated)
CCNCC=CCN(CCC[N-]C(=O)C(C)(C)C)CC[N@+](C)(O)CCOCCOCCOCCOCCOCCN (chirality)
CCNC/C=C/CN(CCC[N-]C(=O)C(C)(C)C)CC[N@+](C)(O)CCOCCOCCOCCOCCOCCN (cis-trans isomerization)
CCNC/C=C/CN(CCC[N-]C(=O)C(C)(C)C)CC[N@+](C)(O)CCOCCOCCOCCOCCOCCN (3D coordinates assigned)
CCNC/C=C/CN(CCC[N-]C(=O)C(C)(C)C)CC[N@+](C)(O)CCOCCOCCOCCOCCOCCN (optimized conformer: 86.80428533261336 kcal/mol)

>  <smiles>  (37) 
CCNCC=CCN(CCCNC(=O)C(C)(C)C)CC[N+](C)([O-])CCOCCOCCOCCOCCOCCN

>  <score_type>  (37) 
oracle

>  <origin>  (37) 
adg

>  <m_score__min__energy>  (37) 
-6.0499999999999998

>  <m_primary>  (37) 
energy

$$$$
37:0
     RDKit          3D

 37 39  0  0  0  0  0  0  0  0999 V2000
   -1.6390   25.1990  -27.7660 C   0  0  0  0  0  0  0  0  0  0  0  0
   -2.3530   25.4760  -28.9660 O   0  0  0  0  0  0  0  0  0  0  0  0
   -3.1400   24.5400  -29.6540 C   0  0  0  0  0  0  0  0  0  0  0  0
   -2.7260   23.2040  -29.6650 C   0  0  0  0  0  0  0  0  0  0  0  0
   -3.4750   22.2330  -30.3360 C   0  0  0  0  0  0  0  0  0  0  0  0
   -4.6600   22.5850  -31.0020 C   0  0  0  0  0  0  0  0  0  0  0  0
   -5.4410   21.5520  -31.7190 C   0  0  0  0  0  0  0  0  0  0  0  0
   -6.7410   21.6030  -32.0320 C   0  0  0  0  0  0  0  0  0  0  0  0
   -7.8810   22.8680  -31.5970 Cl  0  0  0  0  0  0  0  0  0  0  0  0
   -7.0990   20.3490  -32.6910 C   0  0  0  0  0  0  0  0  0  0  0  0
   -8.2600   20.0350  -33.0640 O   0  0  0  0  0  0  0  0  0  0  0  0
   -5.9640   19.4950  -32.7930 N   0  0  0  0  0  0  0  0  0  0  0  0
   -5.8880   18.1750  -33.3600 C   0  0  0  0  0  0  0  0  0  0  0  0
   -6.9660   17.2840  -33.2310 C   0  0  0  0  0  0  0  0  0  0  0  0
   -6.8960   16.0060  -33.7910 C   0  0  0  0  0  0  0  0  0  0  0  0
   -5.7500   15.6020  -34.4780 C   0  0  0  0  0  0  0  0  0  0  0  0
   -4.6570   16.4720  -34.6000 C   0  0  0  0  0  0  0  0  0  0  0  0
   -3.4390   16.0520  -35.3680 C   0  0  0  0  0  0  0  0  0  0  0  0
   -4.7370   17.7630  -34.0540 C   0  0  0  0  0  0  0  0  0  0  0  0
   -4.9280   20.2560  -32.1790 C   0  0  0  0  0  0  0  0  0  0  0  0
   -3.7250   19.8860  -32.1130 O   0  0  0  0  0  0  0  0  0  0  0  0
   -5.0710   23.9270  -31.0000 C   0  0  0  0  0  0  0  0  0  0  0  0
   -4.3210   24.8980  -30.3300 C   0  0  0  0  0  0  0  0  0  0  0  0
   -2.2701   25.4439  -26.8990 H   0  0  0  0  0  0  0  0  0  0  0  0
   -1.3724   24.1322  -27.7359 H   0  0  0  0  0  0  0  0  0  0  0  0
   -0.7227   25.8069  -27.7359 H   0  0  0  0  0  0  0  0  0  0  0  0
   -1.8030   22.9149  -29.1411 H   0  0  0  0  0  0  0  0  0  0  0  0
   -3.1341   21.1872  -30.3423 H   0  0  0  0  0  0  0  0  0  0  0  0
   -7.8700   17.5940  -32.6863 H   0  0  0  0  0  0  0  0  0  0  0  0
   -7.7467   15.3159  -33.6902 H   0  0  0  0  0  0  0  0  0  0  0  0
   -5.7042   14.5980  -34.9251 H   0  0  0  0  0  0  0  0  0  0  0  0
   -2.6392   15.7762  -34.6649 H   0  0  0  0  0  0  0  0  0  0  0  0
   -3.6850   15.1868  -36.0012 H   0  0  0  0  0  0  0  0  0  0  0  0
   -3.0995   16.8850  -36.0012 H   0  0  0  0  0  0  0  0  0  0  0  0
   -3.8921   18.4578  -34.1702 H   0  0  0  0  0  0  0  0  0  0  0  0
   -5.9904   24.2170  -31.5297 H   0  0  0  0  0  0  0  0  0  0  0  0
   -4.6554   25.9459  -30.3313 H   0  0  0  0  0  0  0  0  0  0  0  0
  1  2  1  0
  2  3  1  0
  3  4  2  0
  4  5  1  0
  5  6  2  0
  6  7  1  0
  7  8  2  0
  8  9  1  0
  8 10  1  0
 10 11  2  0
 10 12  1  0
 12 13  1  0
 13 14  2  0
 14 15  1  0
 15 16  2  0
 16 17  1  0
 17 18  1  0
 17 19  2  0
 12 20  1  0
 20 21  2  0
  6 22  1  0
 22 23  2  0
 23  3  1  0
 20  7  1  0
 19 13  1  0
  1 24  1  0
  1 25  1  0
  1 26  1  0
  4 27  1  0
  5 28  1  0
 14 29  1  0
 15 30  1  0
 16 31  1  0
 18 32  1  0
 18 33  1  0
 18 34  1  0
 19 35  1  0
 22 36  1  0
 23 37  1  0
M  END
>  <UniqueID>  (38) 
36

>  <SMILES>  (38) 
COc1ccc(C2=C(Cl)C(=O)N(c3cccc(C)c3)C2=O)cc1

>  <Energy>  (38) 
74.76821513145514

>  <Genealogy>  (38) 
COc1ccc(C2=C(Cl)C(=O)N(c3cccc(C)c3)C2=O)cc1 (3D coordinates assigned)
COc1ccc(C2=C(Cl)C(=O)N(c3cccc(C)c3)C2=O)cc1 (nonaromatic ring conformer: 74.76821513145514 kcal/mol)

>  <smiles>  (38) 
COc1ccc(C2=C(Cl)C(=O)N(c3cccc(C)c3)C2=O)cc1

>  <score_type>  (38) 
oracle

>  <origin>  (38) 
adg

>  <m_score__min__energy>  (38) 
-8.3100000000000005

>  <m_primary>  (38) 
energy

$$$$
38:0
     RDKit          3D

 32 32  0  0  0  0  0  0  0  0999 V2000
   -8.8200   23.0380  -31.9720 C   0  0  0  0  0  0  0  0  0  0  0  0
   -8.1360   21.7260  -31.5580 C   0  0  0  0  0  0  0  0  0  0  0  0
   -7.2880   21.1360  -32.6190 N   0  0  0  0  0  0  0  0  0  0  0  0
   -7.6220   19.7200  -32.9040 C   0  0  0  0  0  0  0  0  0  0  0  0
   -8.9820   19.3870  -32.3030 C   0  0  0  0  0  0  0  0  0  0  0  0
   -5.8420   21.3770  -32.4000 C   0  0  0  0  0  0  0  0  0  0  0  0
   -5.6140   22.3170  -31.2110 C   0  0  0  0  0  0  0  0  0  0  0  0
   -4.6950   23.3590  -31.5350 O   0  0  0  0  0  0  0  0  0  0  0  0
   -4.5650   24.5330  -30.7870 C   0  0  0  0  0  0  0  0  0  0  0  0
   -5.1080   25.6060  -31.1680 O   0  0  0  0  0  0  0  0  0  0  0  0
   -3.7930   24.5010  -29.5410 C   0  0  0  0  0  0  0  0  0  0  0  0
   -4.0820   23.7450  -28.4210 C   0  0  0  0  0  0  0  0  0  0  0  0
   -3.0860   24.0310  -27.5110 C   0  0  0  0  0  0  0  0  0  0  0  0
   -2.2570   24.9390  -28.1360 C   0  0  0  0  0  0  0  0  0  0  0  0
   -0.6890   25.7140  -27.3790 Br  0  0  0  0  0  0  0  0  0  0  0  0
   -2.7010   25.2020  -29.3420 O   0  0  0  0  0  0  0  0  0  0  0  0
   -9.1124   23.5989  -31.0721 H   0  0  0  0  0  0  0  0  0  0  0  0
   -8.1222   23.6424  -32.5702 H   0  0  0  0  0  0  0  0  0  0  0  0
   -9.7151   22.8120  -32.5702 H   0  0  0  0  0  0  0  0  0  0  0  0
   -7.5045   21.9257  -30.6797 H   0  0  0  0  0  0  0  0  0  0  0  0
   -8.9348   21.0005  -31.3445 H   0  0  0  0  0  0  0  0  0  0  0  0
   -7.6538   19.5628  -33.9922 H   0  0  0  0  0  0  0  0  0  0  0  0
   -6.8559   19.0667  -32.4609 H   0  0  0  0  0  0  0  0  0  0  0  0
   -8.9119   19.4042  -31.2054 H   0  0  0  0  0  0  0  0  0  0  0  0
   -9.7215   20.1306  -32.6349 H   0  0  0  0  0  0  0  0  0  0  0  0
   -9.2943   18.3858  -32.6349 H   0  0  0  0  0  0  0  0  0  0  0  0
   -5.3439   20.4169  -32.1998 H   0  0  0  0  0  0  0  0  0  0  0  0
   -5.4252   21.8475  -33.3027 H   0  0  0  0  0  0  0  0  0  0  0  0
   -6.5755   22.7661  -30.9213 H   0  0  0  0  0  0  0  0  0  0  0  0
   -5.1903   21.7291  -30.3835 H   0  0  0  0  0  0  0  0  0  0  0  0
   -4.9301   23.0580  -28.2838 H   0  0  0  0  0  0  0  0  0  0  0  0
   -2.9756   23.6200  -26.4967 H   0  0  0  0  0  0  0  0  0  0  0  0
  1  2  1  0
  2  3  1  0
  3  4  1  0
  4  5  1  0
  3  6  1  0
  6  7  1  0
  7  8  1  0
  8  9  1  0
  9 10  2  0
  9 11  1  0
 11 12  2  0
 12 13  1  0
 13 14  2  0
 14 15  1  0
 14 16  1  0
 16 11  1  0
  1 17  1  0
  1 18  1  0
  1 19  1  0
  2 20  1  0
  2 21  1  0
  4 22  1  0
  4 23  1  0
  5 24  1  0
  5 25  1  0
  5 26  1  0
  6 27  1  0
  6 28  1  0
  7 29  1  0
  7 30  1  0
 12 31  1  0
 13 32  1  0
M  END
>  <UniqueID>  (39) 
37

>  <SMILES>  (39) 
CCN(CC)CCOC(=O)c1ccc(Br)o1

>  <Energy>  (39) 
52.99649305620705

>  <Genealogy>  (39) 
CCN(CC)CCOC(=O)c1ccc(Br)o1 (3D coordinates assigned)
CCN(CC)CCOC(=O)c1ccc(Br)o1 (optimized conformer: 52.99649305620705 kcal/mol)

>  <smiles>  (39) 
CCN(CC)CCOC(=O)c1ccc(Br)o1

>  <score_type>  (39) 
oracle

>  <origin>  (39) 
adg

>  <m_score__min__energy>  (39) 
-6.1100000000000003

>  <m_primary>  (39) 
energy

$$$$
39:0
     RDKit          3D

 34 36  0  0  0  0  0  0  0  0999 V2000
   -2.6310   24.4460  -29.3410 C   0  0  0  0  0  0  0  0  0  0  0  0
   -3.4820   24.8430  -30.4110 O   0  0  0  0  0  0  0  0  0  0  0  0
   -4.8340   24.4830  -30.5410 C   0  0  0  0  0  0  0  0  0  0  0  0
   -5.8510   25.2830  -29.9830 C   0  0  0  0  0  0  0  0  0  0  0  0
   -7.1880   24.9220  -30.1140 C   0  0  0  0  0  0  0  0  0  0  0  0
   -7.5370   23.7620  -30.7990 C   0  0  0  0  0  0  0  0  0  0  0  0
   -6.5460   22.9430  -31.3660 C   0  0  0  0  0  0  0  0  0  0  0  0
   -5.1840   23.2980  -31.2410 C   0  0  0  0  0  0  0  0  0  0  0  0
   -4.1450   22.4150  -31.8490 C   0  0  0  0  0  0  0  0  0  0  0  0
   -2.9270   22.7230  -31.7430 O   0  0  0  0  0  0  0  0  0  0  0  0
   -4.5320   21.1750  -32.5810 C   0  0  0  0  0  0  0  0  0  0  0  0
   -3.5580   20.3240  -33.1660 C   0  0  0  0  0  0  0  0  0  0  0  0
   -2.1950   20.6510  -33.0580 O   0  0  0  0  0  0  0  0  0  0  0  0
   -1.2090   20.3870  -34.0500 C   0  0  0  0  0  0  0  0  0  0  0  0
   -3.9700   19.1620  -33.8480 C   0  0  0  0  0  0  0  0  0  0  0  0
   -5.3270   18.8350  -33.9570 C   0  0  0  0  0  0  0  0  0  0  0  0
   -5.7640   17.6190  -34.6690 C   0  0  0  0  0  0  0  0  0  0  0  0
   -6.5970   16.8270  -34.1560 O   0  0  0  0  0  0  0  0  0  0  0  0
   -6.2830   19.6750  -33.3790 C   0  0  0  0  0  0  0  0  0  0  0  0
   -5.9000   20.8400  -32.6940 C   0  0  0  0  0  0  0  0  0  0  0  0
   -6.9330   21.7120  -32.0910 C   0  0  0  0  0  0  0  0  0  0  0  0
   -8.1530   21.4060  -32.1970 O   0  0  0  0  0  0  0  0  0  0  0  0
   -3.1182   24.6733  -28.3813 H   0  0  0  0  0  0  0  0  0  0  0  0
   -2.4383   23.3650  -29.4075 H   0  0  0  0  0  0  0  0  0  0  0  0
   -1.6789   24.9929  -29.4075 H   0  0  0  0  0  0  0  0  0  0  0  0
   -5.5852   26.2013  -29.4389 H   0  0  0  0  0  0  0  0  0  0  0  0
   -7.9723   25.5558  -29.6745 H   0  0  0  0  0  0  0  0  0  0  0  0
   -8.5968   23.4841  -30.8973 H   0  0  0  0  0  0  0  0  0  0  0  0
   -0.2568   20.1321  -33.5618 H   0  0  0  0  0  0  0  0  0  0  0  0
   -1.5364   19.5449  -34.6774 H   0  0  0  0  0  0  0  0  0  0  0  0
   -1.0718   21.2800  -34.6774 H   0  0  0  0  0  0  0  0  0  0  0  0
   -3.2151   18.5026  -34.3011 H   0  0  0  0  0  0  0  0  0  0  0  0
   -5.3544   17.4005  -35.6663 H   0  0  0  0  0  0  0  0  0  0  0  0
   -7.3499   19.4203  -33.4617 H   0  0  0  0  0  0  0  0  0  0  0  0
  1  2  1  0
  2  3  1  0
  3  4  2  0
  4  5  1  0
  5  6  2  0
  6  7  1  0
  7  8  2  0
  8  9  1  0
  9 10  2  0
  9 11  1  0
 11 12  2  0
 12 13  1  0
 13 14  1  0
 12 15  1  0
 15 16  2  0
 16 17  1  0
 17 18  2  0
 16 19  1  0
 19 20  2  0
 20 21  1  0
 21 22  2  0
  8  3  1  0
 20 11  1  0
 21  7  1  0
  1 23  1  0
  1 24  1  0
  1 25  1  0
  4 26  1  0
  5 27  1  0
  6 28  1  0
 14 29  1  0
 14 30  1  0
 14 31  1  0
 15 32  1  0
 17 33  1  0
 19 34  1  0
M  END
>  <UniqueID>  (40) 
38

>  <SMILES>  (40) 
COc1cccc2c1C(=O)c1c(OC)cc(C=O)cc1C2=O

>  <Energy>  (40) 
44.47406535984872

>  <Genealogy>  (40) 
COc1cccc2c1C(=O)c1c(OC)cc(C=O)cc1C2=O (3D coordinates assigned)
COc1cccc2c1C(=O)c1c(OC)cc(C=O)cc1C2=O (nonaromatic ring conformer: 44.47406535984872 kcal/mol)

>  <smiles>  (40) 
COc1cccc2c1C(=O)c1c(OC)cc(C=O)cc1C2=O

>  <score_type>  (40) 
oracle

>  <origin>  (40) 
adg

>  <m_score__min__energy>  (40) 
-7.96

>  <m_primary>  (40) 
energy

$$$$
40:0
     RDKit          3D

 46 49  0  0  0  0  0  0  0  0999 V2000
   -1.5100   20.4690  -32.2480 Cl  0  0  0  0  0  0  0  0  0  0  0  0
   -2.8710   21.5470  -31.9710 C   0  0  0  0  0  0  0  0  0  0  0  0
   -3.9310   21.5480  -32.8830 C   0  0  0  0  0  0  0  0  0  0  0  0
   -5.0200   22.4020  -32.6960 C   0  0  0  0  0  0  0  0  0  0  0  0
   -5.0550   23.2840  -31.6030 C   0  0  0  0  0  0  0  0  0  0  0  0
   -6.2120   24.2480  -31.4260 C   0  0  0  0  0  0  0  0  0  0  0  0
   -7.4790   23.6010  -31.0090 N   0  0  0  0  0  0  0  0  0  0  0  0
   -7.3120   22.4420  -30.1020 C   0  0  0  0  0  0  0  0  0  0  0  0
   -7.5130   21.1120  -30.8450 C   0  0  0  0  0  0  0  0  0  0  0  0
   -8.8710   21.0000  -31.4490 N   0  0  0  0  0  0  0  0  0  0  0  0
   -8.8510   20.1470  -32.6630 C   0  0  0  0  0  0  0  0  0  0  0  0
   -7.6120   19.2840  -32.7340 C   0  0  0  0  0  0  0  0  0  0  0  0
   -7.4720   18.1570  -31.8820 C   0  0  0  0  0  0  0  0  0  0  0  0
   -6.3330   17.3370  -31.9650 C   0  0  0  0  0  0  0  0  0  0  0  0
   -5.3610   17.6680  -32.9040 C   0  0  0  0  0  0  0  0  0  0  0  0
   -5.4880   18.7420  -33.7220 C   0  0  0  0  0  0  0  0  0  0  0  0
   -6.6000   19.5790  -33.6740 C   0  0  0  0  0  0  0  0  0  0  0  0
   -4.3830   18.8260  -34.5470 O   0  0  0  0  0  0  0  0  0  0  0  0
   -3.5080   17.7360  -34.2260 C   0  0  0  0  0  0  0  0  0  0  0  0
   -4.1700   17.0230  -33.1720 O   0  0  0  0  0  0  0  0  0  0  0  0
   -9.4840   22.3240  -31.7530 C   0  0  0  0  0  0  0  0  0  0  0  0
   -8.4250   23.3730  -32.1240 C   0  0  0  0  0  0  0  0  0  0  0  0
   -4.0080   23.2460  -30.6650 C   0  0  0  0  0  0  0  0  0  0  0  0
   -2.9140   22.3930  -30.8520 C   0  0  0  0  0  0  0  0  0  0  0  0
   -1.6110   22.4100  -29.6710 Cl  0  0  0  0  0  0  0  0  0  0  0  0
   -3.9070   20.8732  -33.7514 H   0  0  0  0  0  0  0  0  0  0  0  0
   -5.8567   22.3840  -33.4099 H   0  0  0  0  0  0  0  0  0  0  0  0
   -5.9326   24.9865  -30.6601 H   0  0  0  0  0  0  0  0  0  0  0  0
   -6.3974   24.7057  -32.4089 H   0  0  0  0  0  0  0  0  0  0  0  0
   -6.2978   22.4641  -29.6767 H   0  0  0  0  0  0  0  0  0  0  0  0
   -8.0708   22.5123  -29.3087 H   0  0  0  0  0  0  0  0  0  0  0  0
   -6.7626   21.0375  -31.6459 H   0  0  0  0  0  0  0  0  0  0  0  0
   -7.4025   20.2982  -30.1132 H   0  0  0  0  0  0  0  0  0  0  0  0
   -9.4950   20.5340  -30.7470 H   0  0  0  0  0  0  0  0  0  0  0  0
   -9.7368   19.4949  -32.6524 H   0  0  0  0  0  0  0  0  0  0  0  0
   -8.8520   20.8094  -33.5412 H   0  0  0  0  0  0  0  0  0  0  0  0
   -8.2606   17.9236  -31.1515 H   0  0  0  0  0  0  0  0  0  0  0  0
   -6.2141   16.4621  -31.3089 H   0  0  0  0  0  0  0  0  0  0  0  0
   -6.6875   20.4439  -34.3480 H   0  0  0  0  0  0  0  0  0  0  0  0
   -3.3644   17.0855  -35.1013 H   0  0  0  0  0  0  0  0  0  0  0  0
   -2.5094   18.0845  -33.9238 H   0  0  0  0  0  0  0  0  0  0  0  0
  -10.1808   22.2082  -32.5963 H   0  0  0  0  0  0  0  0  0  0  0  0
  -10.0082   22.6725  -30.8509 H   0  0  0  0  0  0  0  0  0  0  0  0
   -7.8647   23.0210  -33.0028 H   0  0  0  0  0  0  0  0  0  0  0  0
   -8.9379   24.3211  -32.3430 H   0  0  0  0  0  0  0  0  0  0  0  0
   -4.0491   23.8926  -29.7761 H   0  0  0  0  0  0  0  0  0  0  0  0
  1  2  1  0
  2  3  2  0
  3  4  1  0
  4  5  2  0
  5  6  1  0
  6  7  1  0
  7  8  1  0
  8  9  1  0
  9 10  1  0
 10 11  1  0
 11 12  1  0
 12 13  2  0
 13 14  1  0
 14 15  2  0
 15 16  1  0
 16 17  2  0
 16 18  1  0
 18 19  1  0
 19 20  1  0
 10 21  1  0
 21 22  1  0
  5 23  1  0
 23 24  2  0
 24 25  1  0
 24  2  1  0
 22  7  1  0
 17 12  1  0
 20 15  1  0
  3 26  1  0
  4 27  1  0
  6 28  1  0
  6 29  1  0
  8 30  1  0
  8 31  1  0
  9 32  1  0
  9 33  1  0
 10 34  1  0
 11 35  1  0
 11 36  1  0
 13 37  1  0
 14 38  1  0
 17 39  1  0
 19 40  1  0
 19 41  1  0
 21 42  1  0
 21 43  1  0
 22 44  1  0
 22 45  1  0
 23 46  1  0
M  CHG  1  10   1
M  END
>  <UniqueID>  (41) 
39

>  <SMILES>  (41) 
Clc1ccc(CN2CC[NH+](Cc3ccc4c(c3)OCO4)CC2)cc1Cl

>  <Energy>  (41) 
92.75090511068198

>  <Genealogy>  (41) 
Clc1ccc(CN2CC[NH+](Cc3ccc4c(c3)OCO4)CC2)cc1Cl (protonated)
Clc1ccc(CN2CC[NH+](Cc3ccc4c(c3)OCO4)CC2)cc1Cl (3D coordinates assigned)
Clc1ccc(CN2CC[NH+](Cc3ccc4c(c3)OCO4)CC2)cc1Cl (nonaromatic ring conformer: 92.75090511068198 kcal/mol)

>  <smiles>  (41) 
Clc1ccc(CN2CCN(Cc3ccc4c(c3)OCO4)CC2)cc1Cl

>  <score_type>  (41) 
oracle

>  <origin>  (41) 
adg

>  <m_score__min__energy>  (41) 
-8.0399999999999991

>  <m_primary>  (41) 
energy

$$$$
41:0
     RDKit          3D

 50 52  0  0  0  0  0  0  0  0999 V2000
   -7.3750   18.9610  -31.5830 C   0  0  0  0  0  0  0  0  0  0  0  0
   -6.6360   18.1740  -32.6290 C   0  0  0  0  0  0  0  0  0  0  0  0
   -7.1900   16.9760  -33.1120 C   0  0  0  0  0  0  0  0  0  0  0  0
   -6.5160   16.2210  -34.0750 C   0  0  0  0  0  0  0  0  0  0  0  0
   -5.2880   16.6560  -34.5720 C   0  0  0  0  0  0  0  0  0  0  0  0
   -4.7330   17.8530  -34.1150 C   0  0  0  0  0  0  0  0  0  0  0  0
   -5.4030   18.6260  -33.1540 C   0  0  0  0  0  0  0  0  0  0  0  0
   -4.8180   19.8640  -32.7180 N   0  0  0  0  0  0  0  0  0  0  0  0
   -3.5530   19.8700  -31.9800 C   0  0  0  0  0  0  0  0  0  0  0  0
   -3.6510   20.8610  -30.8120 C   0  0  0  0  0  0  0  0  0  0  0  0
   -4.1470   22.2130  -31.2050 N   0  0  0  0  0  0  0  0  0  0  0  0
   -3.1910   23.3010  -30.8840 C   0  0  0  0  0  0  0  0  0  0  0  0
   -3.7890   24.3010  -29.8700 C   0  0  1  0  0  0  0  0  0  0  0  0
   -3.8810   25.5860  -30.4350 O   0  0  0  0  0  0  0  0  0  0  0  0
   -5.1440   23.8630  -29.2920 C   0  0  0  0  0  0  0  0  0  0  0  0
   -6.1580   24.7450  -29.7350 O   0  0  0  0  0  0  0  0  0  0  0  0
   -6.4780   24.4890  -31.0880 C   0  0  0  0  0  0  0  0  0  0  0  0
   -7.5410   23.4400  -31.1860 C   0  0  0  0  0  0  0  0  0  0  0  0
   -8.5430   23.3810  -32.1460 C   0  0  0  0  0  0  0  0  0  0  0  0
   -9.4260   22.3130  -31.9550 C   0  0  0  0  0  0  0  0  0  0  0  0
   -9.1290   21.5360  -30.8420 C   0  0  0  0  0  0  0  0  0  0  0  0
   -7.7670   22.1810  -30.0950 S   0  0  0  0  0  0  0  0  0  0  0  0
   -4.6190   22.3140  -32.6050 C   0  0  0  0  0  0  0  0  0  0  0  0
   -5.5100   21.1270  -32.9830 C   0  0  0  0  0  0  0  0  0  0  0  0
   -7.0613   18.6269  -30.5830 H   0  0  0  0  0  0  0  0  0  0  0  0
   -7.1475   20.0308  -31.7003 H   0  0  0  0  0  0  0  0  0  0  0  0
   -8.4570   18.8012  -31.7003 H   0  0  0  0  0  0  0  0  0  0  0  0
   -8.1615   16.6303  -32.7289 H   0  0  0  0  0  0  0  0  0  0  0  0
   -6.9549   15.2815  -34.4419 H   0  0  0  0  0  0  0  0  0  0  0  0
   -4.7560   16.0557  -35.3247 H   0  0  0  0  0  0  0  0  0  0  0  0
   -3.7644   18.1924  -34.5107 H   0  0  0  0  0  0  0  0  0  0  0  0
   -3.3504   18.8616  -31.5901 H   0  0  0  0  0  0  0  0  0  0  0  0
   -2.7362   20.1724  -32.6519 H   0  0  0  0  0  0  0  0  0  0  0  0
   -4.3389   20.4446  -30.0614 H   0  0  0  0  0  0  0  0  0  0  0  0
   -2.6314   20.9962  -30.4220 H   0  0  0  0  0  0  0  0  0  0  0  0
   -2.2789   22.8601  -30.4554 H   0  0  0  0  0  0  0  0  0  0  0  0
   -2.9645   23.8457  -31.8124 H   0  0  0  0  0  0  0  0  0  0  0  0
   -3.0912   24.3246  -29.0200 H   0  0  0  0  0  0  0  0  0  0  0  0
   -4.6080   26.0720  -29.9660 H   0  0  0  0  0  0  0  0  0  0  0  0
   -5.3735   22.8420  -29.6310 H   0  0  0  0  0  0  0  0  0  0  0  0
   -5.0960   23.8849  -28.1933 H   0  0  0  0  0  0  0  0  0  0  0  0
   -6.8403   25.4162  -31.5560 H   0  0  0  0  0  0  0  0  0  0  0  0
   -5.5758   24.1305  -31.6052 H   0  0  0  0  0  0  0  0  0  0  0  0
   -8.6331   24.1011  -32.9727 H   0  0  0  0  0  0  0  0  0  0  0  0
  -10.2755   22.1076  -32.6230 H   0  0  0  0  0  0  0  0  0  0  0  0
   -9.6889   20.6505  -30.5067 H   0  0  0  0  0  0  0  0  0  0  0  0
   -5.1940   23.2444  -32.7223 H   0  0  0  0  0  0  0  0  0  0  0  0
   -3.7404   22.3111  -33.2669 H   0  0  0  0  0  0  0  0  0  0  0  0
   -6.4352   21.1648  -32.3892 H   0  0  0  0  0  0  0  0  0  0  0  0
   -5.7464   21.1859  -34.0557 H   0  0  0  0  0  0  0  0  0  0  0  0
  1  2  1  0
  2  3  2  0
  3  4  1  0
  4  5  2  0
  5  6  1  0
  6  7  2  0
  7  8  1  0
  8  9  1  0
  9 10  1  0
 10 11  1  0
 11 12  1  0
 12 13  1  0
 13 14  1  0
 13 15  1  0
 15 16  1  0
 16 17  1  0
 17 18  1  0
 18 19  2  0
 19 20  1  0
 20 21  2  0
 21 22  1  0
 11 23  1  0
 23 24  1  0
  7  2  1  0
 24  8  1  0
 22 18  1  0
  1 25  1  0
  1 26  1  0
  1 27  1  0
  3 28  1  0
  4 29  1  0
  5 30  1  0
  6 31  1  0
  9 32  1  0
  9 33  1  0
 10 34  1  0
 10 35  1  0
 12 36  1  0
 12 37  1  0
 13 38  1  1
 14 39  1  0
 15 40  1  0
 15 41  1  0
 17 42  1  0
 17 43  1  0
 19 44  1  0
 20 45  1  0
 21 46  1  0
 23 47  1  0
 23 48  1  0
 24 49  1  0
 24 50  1  0
M  END
>  <UniqueID>  (42) 
40

>  <SMILES>  (42) 
Cc1ccccc1N1CCN(C[C@@H](O)COCc2cccs2)CC1

>  <Energy>  (42) 
89.75499763563708

>  <Genealogy>  (42) 
Cc1ccccc1N1CCN(C[C@@H](O)COCc2cccs2)CC1 (chirality)
Cc1ccccc1N1CCN(C[C@@H](O)COCc2cccs2)CC1 (3D coordinates assigned)
Cc1ccccc1N1CCN(C[C@@H](O)COCc2cccs2)CC1 (nonaromatic ring conformer: 89.75499763563708 kcal/mol)

>  <smiles>  (42) 
Cc1ccccc1N1CCN(CC(O)COCc2cccs2)CC1

>  <score_type>  (42) 
oracle

>  <origin>  (42) 
adg

>  <m_score__min__energy>  (42) 
-8.5399999999999991

>  <m_primary>  (42) 
energy

$$$$
42:0
     RDKit          3D

 46 49  0  0  1  0  0  0  0  0999 V2000
   -1.2160   26.5000  -24.4400 C   0  0  0  0  0  0  0  0  0  0  0  0
   -1.1390   26.1040  -25.5880 C   0  0  0  0  0  0  0  0  0  0  0  0
   -1.0670   25.6280  -26.9670 C   0  0  0  0  0  0  0  0  0  0  0  0
   -2.4110   25.3090  -27.4230 N   0  0  0  0  0  0  0  0  0  0  0  0
   -2.6310   24.5440  -28.6240 C   0  0  0  0  0  0  0  0  0  0  0  0
   -1.7830   23.5360  -29.0050 C   0  0  0  0  0  0  0  0  0  0  0  0
   -3.9460   24.1390  -30.5250 C   0  0  0  0  0  0  0  0  0  0  0  0
   -4.9910   24.4750  -31.2040 N   0  0  0  0  0  0  0  0  0  0  0  0
   -1.2440   21.2210  -31.7640 C   0  0  0  0  0  0  0  0  0  0  0  0
   -0.0290   20.8610  -32.3560 C   0  0  0  0  0  0  0  0  0  0  0  0
   -0.0580   20.2140  -33.5720 C   0  0  0  0  0  0  0  0  0  0  0  0
   -1.2490   19.9190  -34.2050 C   0  0  0  0  0  0  0  0  0  0  0  0
   -2.4060   20.3030  -33.5640 C   0  0  0  0  0  0  0  0  0  0  0  0
   -2.3790   20.9280  -32.3910 N   0  0  0  0  0  0  0  0  0  0  0  0
   -3.1070   23.1540  -30.8890 N   0  0  0  0  0  0  0  0  0  0  0  0
   -2.0270   22.8250  -30.1630 C   0  0  0  0  0  0  0  0  0  0  0  0
   -1.2270   21.8940  -30.5000 N   0  0  0  0  0  0  0  0  0  0  0  0
   -5.9570   23.4590  -31.4440 C   0  0  0  0  0  0  0  0  0  0  0  0
   -7.2880   23.6450  -31.0800 C   0  0  0  0  0  0  0  0  0  0  0  0
   -8.2570   22.6930  -31.2910 C   0  0  0  0  0  0  0  0  0  0  0  0
   -7.9080   21.5020  -31.8860 C   0  0  0  0  0  0  0  0  0  0  0  0
   -8.9020   20.5620  -32.0860 C   0  0  0  0  0  0  0  0  0  0  0  0
   -8.5550   19.3840  -32.6750 C   0  0  0  0  0  0  0  0  0  0  0  0
   -7.2530   19.1170  -33.0680 C   0  0  0  0  0  0  0  0  0  0  0  0
   -6.2720   20.0680  -32.8610 C   0  0  0  0  0  0  0  0  0  0  0  0
   -6.5870   21.2750  -32.2660 C   0  0  0  0  0  0  0  0  0  0  0  0
   -5.6070   22.2500  -32.0480 C   0  0  0  0  0  0  0  0  0  0  0  0
   -3.7070   24.8430  -29.3810 N   0  0  0  0  0  0  0  0  0  0  0  0
   -1.2856   26.8580  -23.4022 H   0  0  0  0  0  0  0  0  0  0  0  0
   -0.6358   26.4120  -27.6068 H   0  0  0  0  0  0  0  0  0  0  0  0
   -0.4313   24.7319  -27.0206 H   0  0  0  0  0  0  0  0  0  0  0  0
   -3.2550   25.6340  -26.8820 H   0  0  0  0  0  0  0  0  0  0  0  0
   -0.9063   23.2933  -28.3865 H   0  0  0  0  0  0  0  0  0  0  0  0
    0.9272   21.0891  -31.8623 H   0  0  0  0  0  0  0  0  0  0  0  0
    0.8900   19.9257  -34.0497 H   0  0  0  0  0  0  0  0  0  0  0  0
   -1.2727   19.4017  -35.1755 H   0  0  0  0  0  0  0  0  0  0  0  0
   -3.3766   20.0871  -34.0344 H   0  0  0  0  0  0  0  0  0  0  0  0
   -3.2900   22.6160  -31.7640 H   0  0  0  0  0  0  0  0  0  0  0  0
   -7.5763   24.5936  -30.6035 H   0  0  0  0  0  0  0  0  0  0  0  0
   -9.2977   22.8807  -30.9882 H   0  0  0  0  0  0  0  0  0  0  0  0
   -9.9398   20.7592  -31.7793 H   0  0  0  0  0  0  0  0  0  0  0  0
   -9.3306   18.6224  -32.8437 H   0  0  0  0  0  0  0  0  0  0  0  0
   -7.0026   18.1559  -33.5408 H   0  0  0  0  0  0  0  0  0  0  0  0
   -5.2366   19.8636  -33.1709 H   0  0  0  0  0  0  0  0  0  0  0  0
   -4.5660   22.0646  -32.3511 H   0  0  0  0  0  0  0  0  0  0  0  0
   -4.3720   25.6220  -29.0960 H   0  0  0  0  0  0  0  0  0  0  0  0
  1  2  3  0
  2  3  1  0
  3  4  1  0
  4  5  1  0
  5  6  2  0
  6  7  1  0
  7  8  2  0
  8  9  1  0
  9 10  2  0
 10 11  1  0
 11 12  2  0
 12 13  1  0
 13 14  2  0
  7 15  1  0
 15 16  1  0
 16 17  2  0
 17 18  1  0
 18 19  2  0
 19 20  1  0
 20 21  2  0
 21 22  1  0
 22 23  2  0
 23 24  1  0
 24 25  2  0
 25 26  1  0
 26 27  2  0
 16 28  1  0
 28  5  1  0
 14  9  1  0
 27 18  1  0
 26 21  1  0
  1 29  1  0
  3 30  1  0
  3 31  1  0
  4 32  1  0
  6 33  1  0
 10 34  1  0
 11 35  1  0
 12 36  1  0
 13 37  1  0
 15 38  1  0
 19 39  1  0
 20 40  1  0
 22 41  1  0
 23 42  1  0
 24 43  1  0
 25 44  1  0
 27 45  1  0
 28 46  1  0
M  END
>  <smiles>  (43) 
C#CCNc1cc(=Nc2ccccn2)[nH]c(=Nc2ccc3ccccc3c2)[nH]1

>  <score_type>  (43) 
oracle

>  <origin>  (43) 
adg

>  <m_score__min__energy>  (43) 
-10.17

>  <m_primary>  (43) 
energy

$$$$
43:0
     RDKit          3D

 36 38  0  0  0  0  0  0  0  0999 V2000
   -2.2410   24.1490  -29.3260 C   0  0  0  0  0  0  0  0  0  0  0  0
   -3.1400   24.9340  -30.1020 O   0  0  0  0  0  0  0  0  0  0  0  0
   -4.4810   24.5980  -30.3460 C   0  0  0  0  0  0  0  0  0  0  0  0
   -5.5470   25.2930  -29.7440 C   0  0  0  0  0  0  0  0  0  0  0  0
   -6.8680   24.9230  -30.0040 C   0  0  0  0  0  0  0  0  0  0  0  0
   -7.1380   23.8670  -30.8720 C   0  0  0  0  0  0  0  0  0  0  0  0
   -6.0900   23.1730  -31.4810 C   0  0  0  0  0  0  0  0  0  0  0  0
   -4.7510   23.5230  -31.2100 C   0  0  0  0  0  0  0  0  0  0  0  0
   -3.6590   22.8390  -31.7730 O   0  0  0  0  0  0  0  0  0  0  0  0
   -3.6270   21.4580  -32.1410 C   0  0  0  0  0  0  0  0  0  0  0  0
   -4.5370   21.1800  -33.3440 C   0  0  0  0  0  0  0  0  0  0  0  0
   -5.2330   19.8940  -33.2130 N   0  0  0  0  0  0  0  0  0  0  0  0
   -4.7440   18.6390  -33.4130 C   0  0  0  0  0  0  0  0  0  0  0  0
   -3.2170   18.3120  -33.9090 S   0  0  0  0  0  0  0  0  0  0  0  0
   -5.6420   17.6550  -33.1500 N   0  0  0  0  0  0  0  0  0  0  0  0
   -6.7350   18.3410  -32.7710 C   0  0  0  0  0  0  0  0  0  0  0  0
   -7.9610   17.8230  -32.3620 C   0  0  0  0  0  0  0  0  0  0  0  0
   -8.9650   18.7340  -31.9830 C   0  0  0  0  0  0  0  0  0  0  0  0
   -8.7200   20.1250  -32.0220 C   0  0  0  0  0  0  0  0  0  0  0  0
   -7.4690   20.6170  -32.4390 C   0  0  0  0  0  0  0  0  0  0  0  0
   -6.4980   19.6860  -32.8100 C   0  0  0  0  0  0  0  0  0  0  0  0
   -2.4353   24.3186  -28.2567 H   0  0  0  0  0  0  0  0  0  0  0  0
   -2.3873   23.0844  -29.5609 H   0  0  0  0  0  0  0  0  0  0  0  0
   -1.2058   24.4374  -29.5609 H   0  0  0  0  0  0  0  0  0  0  0  0
   -5.3380   26.1326  -29.0647 H   0  0  0  0  0  0  0  0  0  0  0  0
   -7.6957   25.4653  -29.5235 H   0  0  0  0  0  0  0  0  0  0  0  0
   -8.1794   23.5791  -31.0782 H   0  0  0  0  0  0  0  0  0  0  0  0
   -6.3102   22.3491  -32.1757 H   0  0  0  0  0  0  0  0  0  0  0  0
   -2.5948   21.1804  -32.4009 H   0  0  0  0  0  0  0  0  0  0  0  0
   -3.9874   20.8634  -31.2886 H   0  0  0  0  0  0  0  0  0  0  0  0
   -5.2843   21.9837  -33.4189 H   0  0  0  0  0  0  0  0  0  0  0  0
   -3.9094   21.1397  -34.2465 H   0  0  0  0  0  0  0  0  0  0  0  0
   -8.1391   16.7378  -32.3359 H   0  0  0  0  0  0  0  0  0  0  0  0
   -9.9462   18.3607  -31.6545 H   0  0  0  0  0  0  0  0  0  0  0  0
   -9.5121   20.8279  -31.7245 H   0  0  0  0  0  0  0  0  0  0  0  0
   -7.2640   21.6972  -32.4713 H   0  0  0  0  0  0  0  0  0  0  0  0
  1  2  1  0
  2  3  1  0
  3  4  2  0
  4  5  1  0
  5  6  2  0
  6  7  1  0
  7  8  2  0
  8  9  1  0
  9 10  1  0
 10 11  1  0
 11 12  1  0
 12 13  1  0
 13 14  2  0
 13 15  1  0
 15 16  1  0
 16 17  2  0
 17 18  1  0
 18 19  2  0
 19 20  1  0
 20 21  2  0
  8  3  1  0
 21 12  1  0
 21 16  1  0
  1 22  1  0
  1 23  1  0
  1 24  1  0
  4 25  1  0
  5 26  1  0
  6 27  1  0
  7 28  1  0
 10 29  1  0
 10 30  1  0
 11 31  1  0
 11 32  1  0
 17 33  1  0
 18 34  1  0
 19 35  1  0
 20 36  1  0
M  CHG  1  15  -1
M  END
>  <UniqueID>  (44) 
41

>  <SMILES>  (44) 
COc1ccccc1OCCn1c(=S)[n-]c2ccccc21

>  <Energy>  (44) 
73.15107121229424

>  <Genealogy>  (44) 
COc1ccccc1OCCn1c(=S)[n-]c2ccccc21 (protonated)
COc1ccccc1OCCn1c(=S)[n-]c2ccccc21 (3D coordinates assigned)
COc1ccccc1OCCn1c(=S)[n-]c2ccccc21 (optimized conformer: 73.15107121229424 kcal/mol)

>  <smiles>  (44) 
COc1ccccc1OCCn1c(=S)[nH]c2ccccc21

>  <score_type>  (44) 
oracle

>  <origin>  (44) 
adg

>  <m_score__min__energy>  (44) 
-8.0600000000000005

>  <m_primary>  (44) 
energy

$$$$
44:0
     RDKit          3D

 40 41  0  0  0  0  0  0  0  0999 V2000
   -0.7300   22.0010  -28.7240 C   0  0  0  0  0  0  0  0  0  0  0  0
   -1.7000   22.1510  -29.8630 C   0  0  0  0  0  0  0  0  0  0  0  0
   -1.7500   21.1710  -30.8670 C   0  0  0  0  0  0  0  0  0  0  0  0
   -2.6520   21.2880  -31.9240 C   0  0  0  0  0  0  0  0  0  0  0  0
   -3.5080   22.3860  -31.9980 C   0  0  0  0  0  0  0  0  0  0  0  0
   -3.4590   23.3930  -31.0190 C   0  0  0  0  0  0  0  0  0  0  0  0
   -4.3490   24.5190  -31.0630 N   0  0  0  0  0  0  0  0  0  0  0  0
   -5.5420   24.6890  -30.2910 C   0  0  0  0  0  0  0  0  0  0  0  0
   -5.7350   25.7400  -29.6220 O   0  0  0  0  0  0  0  0  0  0  0  0
   -6.5640   23.5870  -30.2570 C   0  0  0  0  0  0  0  0  0  0  0  0
   -6.5740   22.8080  -31.5200 N   0  0  0  0  0  0  0  0  0  0  0  0
   -6.3330   21.3650  -31.2540 C   0  0  0  0  0  0  0  0  0  0  0  0
   -6.6960   20.4140  -32.4170 C   0  0  0  0  0  0  0  0  0  0  0  0
   -8.2040   20.2150  -32.6870 C   0  0  0  0  0  0  0  0  0  0  0  0
   -9.1370   20.9280  -31.6930 C   0  0  0  0  0  0  0  0  0  0  0  0
   -9.0900   22.4760  -31.7330 C   0  0  0  0  0  0  0  0  0  0  0  0
   -7.8000   23.0970  -32.3130 C   0  0  0  0  0  0  0  0  0  0  0  0
   -2.5670   23.2630  -29.9370 C   0  0  0  0  0  0  0  0  0  0  0  0
   -2.5370   24.6250  -28.5760 Br  0  0  0  0  0  0  0  0  0  0  0  0
   -1.2699   22.0845  -27.7692 H   0  0  0  0  0  0  0  0  0  0  0  0
   -0.2425   21.0168  -28.7847 H   0  0  0  0  0  0  0  0  0  0  0  0
    0.0320   22.7920  -28.7847 H   0  0  0  0  0  0  0  0  0  0  0  0
   -1.0732   20.3052  -30.8196 H   0  0  0  0  0  0  0  0  0  0  0  0
   -2.6883   20.5113  -32.7021 H   0  0  0  0  0  0  0  0  0  0  0  0
   -4.2260   22.4645  -32.8276 H   0  0  0  0  0  0  0  0  0  0  0  0
   -6.3302   22.9097  -29.4224 H   0  0  0  0  0  0  0  0  0  0  0  0
   -7.5564   24.0438  -30.1282 H   0  0  0  0  0  0  0  0  0  0  0  0
   -5.7560   23.1300  -32.0930 H   0  0  0  0  0  0  0  0  0  0  0  0
   -5.2645   21.2341  -31.0277 H   0  0  0  0  0  0  0  0  0  0  0  0
   -6.9945   21.0931  -30.4183 H   0  0  0  0  0  0  0  0  0  0  0  0
   -6.2405   20.8157  -33.3342 H   0  0  0  0  0  0  0  0  0  0  0  0
   -6.3162   19.4254  -32.1197 H   0  0  0  0  0  0  0  0  0  0  0  0
   -8.4241   20.5948  -33.6956 H   0  0  0  0  0  0  0  0  0  0  0  0
   -8.3989   19.1380  -32.5766 H   0  0  0  0  0  0  0  0  0  0  0  0
  -10.1686   20.6138  -31.9102 H   0  0  0  0  0  0  0  0  0  0  0  0
   -8.7897   20.6394  -30.6899 H   0  0  0  0  0  0  0  0  0  0  0  0
   -9.9357   22.8232  -32.3447 H   0  0  0  0  0  0  0  0  0  0  0  0
   -9.1316   22.8023  -30.6833 H   0  0  0  0  0  0  0  0  0  0  0  0
   -7.6542   22.7029  -33.3296 H   0  0  0  0  0  0  0  0  0  0  0  0
   -7.9384   24.1881  -32.2948 H   0  0  0  0  0  0  0  0  0  0  0  0
  1  2  1  0
  2  3  2  0
  3  4  1  0
  4  5  2  0
  5  6  1  0
  6  7  1  0
  7  8  1  0
  8  9  2  0
  8 10  1  0
 10 11  1  0
 11 12  1  0
 12 13  1  0
 13 14  1  0
 14 15  1  0
 15 16  1  0
 16 17  1  0
  6 18  2  0
 18 19  1  0
 18  2  1  0
 17 11  1  0
  1 20  1  0
  1 21  1  0
  1 22  1  0
  3 23  1  0
  4 24  1  0
  5 25  1  0
 10 26  1  0
 10 27  1  0
 11 28  1  0
 12 29  1  0
 12 30  1  0
 13 31  1  0
 13 32  1  0
 14 33  1  0
 14 34  1  0
 15 35  1  0
 15 36  1  0
 16 37  1  0
 16 38  1  0
 17 39  1  0
 17 40  1  0
M  CHG  2   7  -1  11   1
M  END
>  <UniqueID>  (45) 
42

>  <SMILES>  (45) 
Cc1cccc([N-]C(=O)C[NH+]2CCCCCC2)c1Br

>  <Energy>  (45) 
57.977699060522916

>  <Genealogy>  (45) 
Cc1cccc([N-]C(=O)C[NH+]2CCCCCC2)c1Br (protonated)
Cc1cccc([N-]C(=O)C[NH+]2CCCCCC2)c1Br (3D coordinates assigned)
Cc1cccc([N-]C(=O)C[NH+]2CCCCCC2)c1Br (nonaromatic ring conformer: 57.977699060522916 kcal/mol)

>  <smiles>  (45) 
Cc1cccc(NC(=O)CN2CCCCCC2)c1Br

>  <score_type>  (45) 
oracle

>  <origin>  (45) 
adg

>  <m_score__min__energy>  (45) 
-5.96

>  <m_primary>  (45) 
energy

$$$$
45:0
     RDKit          3D

 50 52  0  0  0  0  0  0  0  0999 V2000
   -5.1150   17.0250  -32.3400 C   0  0  0  0  0  0  0  0  0  0  0  0
   -6.3240   17.1130  -33.1800 N   0  0  0  0  0  0  0  0  0  0  0  0
   -6.1100   17.9790  -34.3590 C   0  0  0  0  0  0  0  0  0  0  0  0
   -5.9870   19.4600  -33.9640 C   0  0  0  0  0  0  0  0  0  0  0  0
   -6.9750   19.8210  -32.9360 N   0  0  0  0  0  0  0  0  0  0  0  0
   -6.8860   21.0790  -32.2250 C   0  0  0  0  0  0  0  0  0  0  0  0
   -7.9080   22.0440  -32.3080 C   0  0  0  0  0  0  0  0  0  0  0  0
   -7.7830   23.2490  -31.6140 C   0  0  0  0  0  0  0  0  0  0  0  0
   -6.6460   23.4970  -30.8400 C   0  0  0  0  0  0  0  0  0  0  0  0
   -6.4950   24.6980  -30.1340 C   0  0  0  0  0  0  0  0  0  0  0  0
   -5.3480   24.9170  -29.3700 C   0  0  0  0  0  0  0  0  0  0  0  0
   -4.3460   23.9450  -29.3040 C   0  0  0  0  0  0  0  0  0  0  0  0
   -4.4820   22.7290  -30.0050 C   0  0  0  0  0  0  0  0  0  0  0  0
   -3.5010   21.7220  -29.9710 O   0  0  0  0  0  0  0  0  0  0  0  0
   -2.1170   21.9000  -30.2690 C   0  0  0  0  0  0  0  0  0  0  0  0
   -1.8000   21.3670  -31.6780 C   0  0  0  0  0  0  0  0  0  0  0  0
   -2.9830   20.7660  -32.3370 N   0  0  0  0  0  0  0  0  0  0  0  0
   -3.4560   21.5930  -33.4640 C   0  0  0  0  0  0  0  0  0  0  0  0
   -2.6530   19.4150  -32.8250 C   0  0  0  0  0  0  0  0  0  0  0  0
   -5.6360   22.5130  -30.7760 C   0  0  0  0  0  0  0  0  0  0  0  0
   -5.7880   21.3480  -31.4630 N   0  0  0  0  0  0  0  0  0  0  0  0
   -8.0750   18.8830  -32.6780 C   0  0  0  0  0  0  0  0  0  0  0  0
   -7.5250   17.4760  -32.3820 C   0  0  0  0  0  0  0  0  0  0  0  0
   -5.4036   17.0460  -31.2787 H   0  0  0  0  0  0  0  0  0  0  0  0
   -4.5850   16.0859  -32.5574 H   0  0  0  0  0  0  0  0  0  0  0  0
   -4.4546   17.8775  -32.5574 H   0  0  0  0  0  0  0  0  0  0  0  0
   -5.1850   17.6677  -34.8664 H   0  0  0  0  0  0  0  0  0  0  0  0
   -6.9800   17.8732  -35.0238 H   0  0  0  0  0  0  0  0  0  0  0  0
   -4.9764   19.6434  -33.5703 H   0  0  0  0  0  0  0  0  0  0  0  0
   -6.1734   20.0749  -34.8569 H   0  0  0  0  0  0  0  0  0  0  0  0
   -8.8024   21.8490  -32.9179 H   0  0  0  0  0  0  0  0  0  0  0  0
   -8.5804   24.0042  -31.6765 H   0  0  0  0  0  0  0  0  0  0  0  0
   -7.2798   25.4673  -30.1820 H   0  0  0  0  0  0  0  0  0  0  0  0
   -5.2318   25.8604  -28.8164 H   0  0  0  0  0  0  0  0  0  0  0  0
   -3.4448   24.1298  -28.7009 H   0  0  0  0  0  0  0  0  0  0  0  0
   -1.8708   22.9711  -30.2225 H   0  0  0  0  0  0  0  0  0  0  0  0
   -1.5184   21.3430  -29.5331 H   0  0  0  0  0  0  0  0  0  0  0  0
   -1.4370   22.2007  -32.2970 H   0  0  0  0  0  0  0  0  0  0  0  0
   -1.0394   20.5792  -31.5739 H   0  0  0  0  0  0  0  0  0  0  0  0
   -3.7620   20.6710  -31.6420 H   0  0  0  0  0  0  0  0  0  0  0  0
   -3.9667   22.4860  -33.0745 H   0  0  0  0  0  0  0  0  0  0  0  0
   -2.5973   21.9006  -34.0788 H   0  0  0  0  0  0  0  0  0  0  0  0
   -4.1565   21.0088  -34.0788 H   0  0  0  0  0  0  0  0  0  0  0  0
   -2.4894   18.7453  -31.9678 H   0  0  0  0  0  0  0  0  0  0  0  0
   -3.4841   19.0326  -33.4357 H   0  0  0  0  0  0  0  0  0  0  0  0
   -1.7391   19.4588  -33.4357 H   0  0  0  0  0  0  0  0  0  0  0  0
   -8.6550   19.2346  -31.8120 H   0  0  0  0  0  0  0  0  0  0  0  0
   -8.7173   18.8338  -33.5696 H   0  0  0  0  0  0  0  0  0  0  0  0
   -7.2592   17.4264  -31.3158 H   0  0  0  0  0  0  0  0  0  0  0  0
   -8.3157   16.7623  -32.6566 H   0  0  0  0  0  0  0  0  0  0  0  0
  1  2  1  0
  2  3  1  0
  3  4  1  0
  4  5  1  0
  5  6  1  0
  6  7  2  0
  7  8  1  0
  8  9  2  0
  9 10  1  0
 10 11  2  0
 11 12  1  0
 12 13  2  0
 13 14  1  0
 14 15  1  0
 15 16  1  0
 16 17  1  0
 17 18  1  0
 17 19  1  0
 13 20  1  0
 20 21  2  0
  5 22  1  0
 22 23  1  0
 23  2  1  0
 21  6  1  0
 20  9  1  0
  1 24  1  0
  1 25  1  0
  1 26  1  0
  3 27  1  0
  3 28  1  0
  4 29  1  0
  4 30  1  0
  7 31  1  0
  8 32  1  0
 10 33  1  0
 11 34  1  0
 12 35  1  0
 15 36  1  0
 15 37  1  0
 16 38  1  0
 16 39  1  0
 17 40  1  0
 18 41  1  0
 18 42  1  0
 18 43  1  0
 19 44  1  0
 19 45  1  0
 19 46  1  0
 22 47  1  0
 22 48  1  0
 23 49  1  0
 23 50  1  0
M  CHG  1  17   1
M  END
>  <UniqueID>  (46) 
43

>  <SMILES>  (46) 
CN1CCN(c2ccc3cccc(OCC[NH+](C)C)c3n2)CC1

>  <Energy>  (46) 
63.349488088627865

>  <Genealogy>  (46) 
CN1CCN(c2ccc3cccc(OCC[NH+](C)C)c3n2)CC1 (protonated)
CN1CCN(c2ccc3cccc(OCC[NH+](C)C)c3n2)CC1 (3D coordinates assigned)
CN1CCN(c2ccc3cccc(OCC[NH+](C)C)c3n2)CC1 (nonaromatic ring conformer: 63.349488088627865 kcal/mol)

>  <smiles>  (46) 
CN(C)CCOc1cccc2ccc(N3CCN(C)CC3)nc12

>  <score_type>  (46) 
oracle

>  <origin>  (46) 
adg

>  <m_score__min__energy>  (46) 
-5.96

>  <m_primary>  (46) 
energy

$$$$
46:0
     RDKit          3D

 45 48  0  0  0  0  0  0  0  0999 V2000
   -5.1470   24.8180  -31.8470 O   0  0  0  0  0  0  0  0  0  0  0  0
   -4.6580   24.4100  -30.7580 C   0  0  0  0  0  0  0  0  0  0  0  0
   -3.5430   25.0040  -30.2590 N   0  0  0  0  0  0  0  0  0  0  0  0
   -2.9880   24.5930  -29.0880 C   0  0  0  0  0  0  0  0  0  0  0  0
   -1.8410   25.2210  -28.5890 C   0  0  0  0  0  0  0  0  0  0  0  0
   -1.2830   24.7930  -27.3790 C   0  0  0  0  0  0  0  0  0  0  0  0
   -1.8660   23.7350  -26.6690 C   0  0  0  0  0  0  0  0  0  0  0  0
   -3.0110   23.1010  -27.1650 C   0  0  0  0  0  0  0  0  0  0  0  0
   -3.5800   23.5270  -28.3750 C   0  0  0  0  0  0  0  0  0  0  0  0
   -4.7010   22.9320  -28.8750 N   0  0  0  0  0  0  0  0  0  0  0  0
   -5.2540   23.3480  -30.0520 C   0  0  0  0  0  0  0  0  0  0  0  0
   -6.4640   22.6790  -30.5670 C   0  0  0  0  0  0  0  0  0  0  0  0
   -7.5830   22.5750  -29.7260 C   0  0  0  0  0  0  0  0  0  0  0  0
   -8.7360   21.9200  -30.1620 C   0  0  0  0  0  0  0  0  0  0  0  0
   -8.7810   21.3610  -31.4380 C   0  0  0  0  0  0  0  0  0  0  0  0
   -7.6720   21.4480  -32.2830 C   0  0  0  0  0  0  0  0  0  0  0  0
   -6.4960   22.1010  -31.8590 C   0  0  0  0  0  0  0  0  0  0  0  0
   -5.3370   22.1600  -32.7180 N   0  0  0  0  0  0  0  0  0  0  0  0
   -4.3790   21.0590  -32.8630 C   0  0  0  0  0  0  0  0  0  0  0  0
   -3.3220   21.1390  -31.7920 C   0  0  0  0  0  0  0  0  0  0  0  0
   -3.5250   20.5060  -30.5550 C   0  0  0  0  0  0  0  0  0  0  0  0
   -2.5410   20.5560  -29.5650 C   0  0  0  0  0  0  0  0  0  0  0  0
   -1.3290   21.2290  -29.7990 C   0  0  0  0  0  0  0  0  0  0  0  0
   -0.2870   21.3020  -28.7100 C   0  0  0  0  0  0  0  0  0  0  0  0
   -0.8420   20.9490  -27.4920 F   0  0  0  0  0  0  0  0  0  0  0  0
    0.1990   22.5940  -28.6290 F   0  0  0  0  0  0  0  0  0  0  0  0
    0.7680   20.4420  -28.9710 F   0  0  0  0  0  0  0  0  0  0  0  0
   -1.1430   21.8940  -31.0240 C   0  0  0  0  0  0  0  0  0  0  0  0
   -2.1280   21.8400  -32.0150 C   0  0  0  0  0  0  0  0  0  0  0  0
   -1.3792   26.0491  -29.1466 H   0  0  0  0  0  0  0  0  0  0  0  0
   -0.3839   25.2887  -26.9841 H   0  0  0  0  0  0  0  0  0  0  0  0
   -1.4225   23.4017  -25.7191 H   0  0  0  0  0  0  0  0  0  0  0  0
   -3.4647   22.2690  -26.6065 H   0  0  0  0  0  0  0  0  0  0  0  0
   -5.1430   22.1380  -28.3550 H   0  0  0  0  0  0  0  0  0  0  0  0
   -7.5511   23.0123  -28.7172 H   0  0  0  0  0  0  0  0  0  0  0  0
   -9.6098   21.8450  -29.4980 H   0  0  0  0  0  0  0  0  0  0  0  0
   -9.6927   20.8497  -31.7807 H   0  0  0  0  0  0  0  0  0  0  0  0
   -7.7163   21.0032  -33.2881 H   0  0  0  0  0  0  0  0  0  0  0  0
   -5.0790   23.0660  -33.1700 H   0  0  0  0  0  0  0  0  0  0  0  0
   -4.9120   20.1007  -32.7756 H   0  0  0  0  0  0  0  0  0  0  0  0
   -3.8955   21.1337  -33.8482 H   0  0  0  0  0  0  0  0  0  0  0  0
   -4.4650   19.9673  -30.3645 H   0  0  0  0  0  0  0  0  0  0  0  0
   -2.7155   20.0656  -28.5959 H   0  0  0  0  0  0  0  0  0  0  0  0
   -0.2171   22.4600  -31.2037 H   0  0  0  0  0  0  0  0  0  0  0  0
   -1.9653   22.3506  -32.9756 H   0  0  0  0  0  0  0  0  0  0  0  0
  1  2  2  0
  2  3  1  0
  3  4  1  0
  4  5  2  0
  5  6  1  0
  6  7  2  0
  7  8  1  0
  8  9  2  0
  9 10  1  0
 10 11  2  0
 11 12  1  0
 12 13  2  0
 13 14  1  0
 14 15  2  0
 15 16  1  0
 16 17  2  0
 17 18  1  0
 18 19  1  0
 19 20  1  0
 20 21  2  0
 21 22  1  0
 22 23  2  0
 23 24  1  0
 24 25  1  0
 24 26  1  0
 24 27  1  0
 23 28  1  0
 28 29  2  0
 11  2  1  0
 17 12  1  0
 29 20  1  0
  9  4  1  0
  5 30  1  0
  6 31  1  0
  7 32  1  0
  8 33  1  0
 10 34  1  0
 13 35  1  0
 14 36  1  0
 15 37  1  0
 16 38  1  0
 18 39  1  0
 19 40  1  0
 19 41  1  0
 21 42  1  0
 22 43  1  0
 28 44  1  0
 29 45  1  0
M  CHG  2   3  -1  10   1
M  END
>  <UniqueID>  (47) 
44

>  <SMILES>  (47) 
O=c1[n-]c2ccccc2[nH+]c1-c1ccccc1NCc1ccc(C(F)(F)F)cc1

>  <Energy>  (47) 
62.44583434936755

>  <Genealogy>  (47) 
O=c1[n-]c2ccccc2[nH+]c1-c1ccccc1NCc1ccc(C(F)(F)F)cc1 (protonated)
O=c1[n-]c2ccccc2[nH+]c1-c1ccccc1NCc1ccc(C(F)(F)F)cc1 (3D coordinates assigned)
O=c1[n-]c2ccccc2[nH+]c1-c1ccccc1NCc1ccc(C(F)(F)F)cc1 (optimized conformer: 62.44583434936755 kcal/mol)

>  <smiles>  (47) 
O=c1[nH]c2ccccc2nc1-c1ccccc1NCc1ccc(C(F)(F)F)cc1

>  <score_type>  (47) 
oracle

>  <origin>  (47) 
adg

>  <m_score__min__energy>  (47) 
-9.7200000000000006

>  <m_primary>  (47) 
energy

$$$$
