0:0
     RDKit          3D

 56 58  0  0  0  0  0  0  0  0999 V2000
   -7.2963   21.7257  -31.2435 H   0  0  0  0  0  0  0  0  0  0  0  0
   -6.5100   21.2710  -31.8640 C   0  0  0  0  0  0  0  0  0  0  0  0
   -6.7600   20.0700  -32.5300 C   0  0  0  0  0  0  0  0  0  0  0  0
   -7.7459   19.5909  -32.4380 H   0  0  0  0  0  0  0  0  0  0  0  0
   -5.7650   19.4680  -33.3160 C   0  0  0  0  0  0  0  0  0  0  0  0
   -6.0280   18.2300  -34.0120 N   0  0  0  0  0  0  0  0  0  0  0  0
   -6.8390   17.1810  -33.3800 C   0  0  0  0  0  0  0  0  0  0  0  0
   -7.9010   17.3604  -33.6038 H   0  0  0  0  0  0  0  0  0  0  0  0
   -6.6706   17.2075  -32.2933 H   0  0  0  0  0  0  0  0  0  0  0  0
   -6.4360   15.7920  -33.9130 C   0  0  0  0  0  0  0  0  0  0  0  0
   -6.9602   15.6087  -34.8626 H   0  0  0  0  0  0  0  0  0  0  0  0
   -6.7135   15.0414  -33.1582 H   0  0  0  0  0  0  0  0  0  0  0  0
   -4.9720   15.6960  -34.1450 N   0  0  0  0  0  0  0  0  0  0  0  0
   -4.8100   14.7370  -34.5370 H   0  0  0  0  0  0  0  0  0  0  0  0
   -4.2190   15.8080  -32.8630 C   0  0  0  0  0  0  0  0  0  0  0  0
   -4.2287   14.8310  -32.3577 H   0  0  0  0  0  0  0  0  0  0  0  0
   -4.7067   16.5768  -32.2457 H   0  0  0  0  0  0  0  0  0  0  0  0
   -2.7790   16.2290  -33.0910 C   0  0  0  0  0  0  0  0  0  0  0  0
   -2.3560   17.4270  -32.8160 N   0  0  0  0  0  0  0  0  0  0  0  0
   -2.0100   18.3400  -33.7870 O   0  0  0  0  0  0  0  0  0  0  0  0
   -1.2510   19.4910  -33.4440 C   0  0  0  0  0  0  0  0  0  0  0  0
   -0.3384   19.1813  -32.9137 H   0  0  0  0  0  0  0  0  0  0  0  0
   -1.8550   20.1428  -32.7957 H   0  0  0  0  0  0  0  0  0  0  0  0
   -0.8680   20.2540  -34.7040 C   0  0  0  0  0  0  0  0  0  0  0  0
   -0.3906   21.2051  -34.4258 H   0  0  0  0  0  0  0  0  0  0  0  0
   -0.1656   19.6512  -35.2984 H   0  0  0  0  0  0  0  0  0  0  0  0
   -1.7710   20.4571  -35.2984 H   0  0  0  0  0  0  0  0  0  0  0  0
   -1.7970   15.2420  -33.6490 C   0  0  0  0  0  0  0  0  0  0  0  0
   -1.2848   14.7272  -32.8227 H   0  0  0  0  0  0  0  0  0  0  0  0
   -2.3297   14.5040  -34.2667 H   0  0  0  0  0  0  0  0  0  0  0  0
   -1.0563   15.7709  -34.2667 H   0  0  0  0  0  0  0  0  0  0  0  0
   -4.4930   16.6810  -35.1620 C   0  0  0  0  0  0  0  0  0  0  0  0
   -4.4451   16.1763  -36.1382 H   0  0  0  0  0  0  0  0  0  0  0  0
   -3.5088   17.0378  -34.8242 H   0  0  0  0  0  0  0  0  0  0  0  0
   -5.3980   17.9220  -35.3000 C   0  0  0  0  0  0  0  0  0  0  0  0
   -6.1787   17.7219  -36.0486 H   0  0  0  0  0  0  0  0  0  0  0  0
   -4.7875   18.7802  -35.6174 H   0  0  0  0  0  0  0  0  0  0  0  0
   -4.5200   20.1080  -33.4430 C   0  0  0  0  0  0  0  0  0  0  0  0
   -3.7361   19.6564  -34.0688 H   0  0  0  0  0  0  0  0  0  0  0  0
   -4.2690   21.3150  -32.7800 C   0  0  0  0  0  0  0  0  0  0  0  0
   -3.0660   21.9220  -32.9350 F   0  0  0  0  0  0  0  0  0  0  0  0
   -5.2620   21.9020  -31.9810 C   0  0  0  0  0  0  0  0  0  0  0  0
   -5.0040   23.1320  -31.2830 N   0  0  0  0  0  0  0  0  0  0  0  0
   -5.8680   24.2840  -31.5720 C   0  0  0  0  0  0  0  0  0  0  0  0
   -5.6846   24.6153  -32.6048 H   0  0  0  0  0  0  0  0  0  0  0  0
   -6.9128   23.9681  -31.4352 H   0  0  0  0  0  0  0  0  0  0  0  0
   -5.5990   25.4560  -30.6210 C   0  0  0  0  0  0  0  0  0  0  0  0
   -6.0453   26.3701  -31.0396 H   0  0  0  0  0  0  0  0  0  0  0  0
   -6.0454   25.2261  -29.6423 H   0  0  0  0  0  0  0  0  0  0  0  0
   -4.2120   25.6540  -30.4510 O   0  0  0  0  0  0  0  0  0  0  0  0
   -3.6850   24.5610  -29.7290 C   0  0  0  0  0  0  0  0  0  0  0  0
   -2.6446   24.7819  -29.4482 H   0  0  0  0  0  0  0  0  0  0  0  0
   -4.2983   24.4031  -28.8296 H   0  0  0  0  0  0  0  0  0  0  0  0
   -3.7170   23.2810  -30.5790 C   0  0  0  0  0  0  0  0  0  0  0  0
   -2.9064   23.3245  -31.3213 H   0  0  0  0  0  0  0  0  0  0  0  0
   -3.5882   22.4183  -29.9088 H   0  0  0  0  0  0  0  0  0  0  0  0
  1  2  1  0
  2  3  2  0
  3  4  1  0
  3  5  1  0
  5  6  1  0
  6  7  1  0
  7  8  1  0
  7  9  1  0
  7 10  1  0
 10 11  1  0
 10 12  1  0
 10 13  1  0
 13 14  1  0
 13 15  1  0
 15 16  1  0
 15 17  1  0
 15 18  1  0
 18 19  2  0
 19 20  1  0
 20 21  1  0
 21 22  1  0
 21 23  1  0
 21 24  1  0
 24 25  1  0
 24 26  1  0
 24 27  1  0
 18 28  1  0
 28 29  1  0
 28 30  1  0
 28 31  1  0
 13 32  1  0
 32 33  1  0
 32 34  1  0
 32 35  1  0
 35 36  1  0
 35 37  1  0
  5 38  2  0
 38 39  1  0
 38 40  1  0
 40 41  1  0
 40 42  2  0
 42 43  1  0
 43 44  1  0
 44 45  1  0
 44 46  1  0
 44 47  1  0
 47 48  1  0
 47 49  1  0
 47 50  1  0
 50 51  1  0
 51 52  1  0
 51 53  1  0
 51 54  1  0
 54 55  1  0
 54 56  1  0
 42  2  1  0
 54 43  1  0
 35  6  1  0
M  CHG  1  13   1
M  END
>  <UniqueID>  (1) 
1

>  <SMILES>  (1) 
CCO/N=C(/C)C[NH+]1CCN(c2ccc(N3CCOCC3)c(F)c2)CC1

>  <Energy>  (1) 
66.06582862429866

>  <Genealogy>  (1) 
CCON=C(C)C[NH+]1CCN(c2ccc(N3CCOCC3)c(F)c2)CC1 (protonated)
CCO/N=C(/C)C[NH+]1CCN(c2ccc(N3CCOCC3)c(F)c2)CC1 (cis-trans isomerization)
CCO/N=C(/C)C[NH+]1CCN(c2ccc(N3CCOCC3)c(F)c2)CC1 (3D coordinates assigned)
CCO/N=C(/C)C[NH+]1CCN(c2ccc(N3CCOCC3)c(F)c2)CC1 (nonaromatic ring conformer: 66.06582862429866 kcal/mol)

>  <smiles>  (1) 
CCON=C(C)CN1CCN(c2ccc(N3CCOCC3)c(F)c2)CC1

>  <score_type>  (1) 
oracle

>  <origin>  (1) 
adg

>  <m_score__min__energy>  (1) 
-7.0499999999999998

>  <m_primary>  (1) 
energy

$$$$
1:0
     RDKit          3D

 82 85  0  0  0  0  0  0  0  0999 V2000
   -0.0910   19.3290  -29.8680 C   0  0  0  0  0  0  0  0  0  0  0  0
   -0.4400   18.9880  -31.3220 C   0  0  0  0  0  0  0  0  0  0  0  0
   -1.4180   19.9120  -31.9510 N   0  0  0  0  0  0  0  0  0  0  0  0
   -0.8490   21.2370  -32.2910 C   0  0  0  0  0  0  0  0  0  0  0  0
   -0.6410   21.3920  -33.7990 C   0  0  0  0  0  0  0  0  0  0  0  0
   -2.1120   19.2910  -33.1030 C   0  0  0  0  0  0  0  0  0  0  0  0
   -3.5980   19.6690  -33.1280 C   0  0  0  0  0  0  0  0  0  0  0  0
   -4.0000   20.3030  -31.8740 N   0  0  0  0  0  0  0  0  0  0  0  0
   -5.2230   21.0510  -31.7650 C   0  0  0  0  0  0  0  0  0  0  0  0
   -6.4530   20.4430  -32.0670 C   0  0  0  0  0  0  0  0  0  0  0  0
   -6.5170   19.0770  -32.4160 C   0  0  0  0  0  0  0  0  0  0  0  0
   -7.7410   18.4640  -32.6730 C   0  0  0  0  0  0  0  0  0  0  0  0
   -8.9190   19.1980  -32.5890 C   0  0  0  0  0  0  0  0  0  0  0  0
   -8.8780   20.5550  -32.2620 C   0  0  0  0  0  0  0  0  0  0  0  0
   -7.6460   21.2130  -32.0160 C   0  0  0  0  0  0  0  0  0  0  0  0
   -7.5880   22.5600  -31.7140 N   0  0  0  0  0  0  0  0  0  0  0  0
   -8.7710   23.4180  -31.9420 C   0  0  0  0  0  0  0  0  0  0  0  0
   -6.4220   23.1030  -31.2090 C   0  0  0  0  0  0  0  0  0  0  0  0
   -6.4020   24.3790  -30.5960 C   0  0  0  0  0  0  0  0  0  0  0  0
   -5.2210   24.9210  -30.1000 C   0  0  0  0  0  0  0  0  0  0  0  0
   -4.0170   24.2160  -30.1840 C   0  0  0  0  0  0  0  0  0  0  0  0
   -2.8230   24.8090  -29.6370 N   0  0  0  0  0  0  0  0  0  0  0  0
   -2.0770   24.3070  -28.4810 C   0  0  0  0  0  0  0  0  0  0  0  0
   -1.3640   25.4620  -27.7310 C   0  0  0  0  0  0  0  0  0  0  0  0
   -1.7080   25.5740  -26.2750 N   0  0  0  0  0  0  0  0  0  0  0  0
   -3.1580   25.3010  -26.0820 C   0  0  0  0  0  0  0  0  0  0  0  0
   -0.8950   24.5960  -25.4710 C   0  0  0  0  0  0  0  0  0  0  0  0
   -0.5170   25.1320  -24.0750 C   0  0  0  0  0  0  0  0  0  0  0  0
    0.3240   26.3700  -24.1520 N   0  0  0  0  0  0  0  0  0  0  0  0
    0.0990   27.1740  -22.9260 C   0  0  0  0  0  0  0  0  0  0  0  0
    1.7610   25.9920  -24.1930 C   0  0  0  0  0  0  0  0  0  0  0  0
    0.0020   27.1940  -25.3610 C   0  0  0  0  0  0  0  0  0  0  0  0
   -1.4500   26.9860  -25.8310 C   0  0  0  0  0  0  0  0  0  0  0  0
   -4.0170   22.9460  -30.7810 C   0  0  0  0  0  0  0  0  0  0  0  0
   -5.2100   22.3690  -31.2670 C   0  0  0  0  0  0  0  0  0  0  0  0
   -0.7108   18.7234  -29.1904 H   0  0  0  0  0  0  0  0  0  0  0  0
    0.9717   19.1117  -29.6854 H   0  0  0  0  0  0  0  0  0  0  0  0
   -0.2836   20.3965  -29.6854 H   0  0  0  0  0  0  0  0  0  0  0  0
    0.4871   19.0136  -31.9135 H   0  0  0  0  0  0  0  0  0  0  0  0
   -0.9116   17.9944  -31.3069 H   0  0  0  0  0  0  0  0  0  0  0  0
   -1.5380   22.0209  -31.9435 H   0  0  0  0  0  0  0  0  0  0  0  0
    0.1303   21.3270  -31.7981 H   0  0  0  0  0  0  0  0  0  0  0  0
    0.2284   22.0399  -33.9845 H   0  0  0  0  0  0  0  0  0  0  0  0
   -0.4643   20.4036  -34.2483 H   0  0  0  0  0  0  0  0  0  0  0  0
   -1.5376   21.8440  -34.2483 H   0  0  0  0  0  0  0  0  0  0  0  0
   -1.6389   19.6354  -34.0344 H   0  0  0  0  0  0  0  0  0  0  0  0
   -2.0333   18.1980  -33.0077 H   0  0  0  0  0  0  0  0  0  0  0  0
   -3.7770   20.3684  -33.9579 H   0  0  0  0  0  0  0  0  0  0  0  0
   -4.1900   18.7516  -33.2616 H   0  0  0  0  0  0  0  0  0  0  0  0
   -3.4410   20.1130  -31.0100 H   0  0  0  0  0  0  0  0  0  0  0  0
   -5.5895   18.4897  -32.4858 H   0  0  0  0  0  0  0  0  0  0  0  0
   -7.7758   17.3981  -32.9427 H   0  0  0  0  0  0  0  0  0  0  0  0
   -9.8853   18.7086  -32.7806 H   0  0  0  0  0  0  0  0  0  0  0  0
   -9.8174   21.1233  -32.1941 H   0  0  0  0  0  0  0  0  0  0  0  0
   -9.1937   23.7246  -30.9738 H   0  0  0  0  0  0  0  0  0  0  0  0
   -8.4723   24.3108  -32.5109 H   0  0  0  0  0  0  0  0  0  0  0  0
   -9.5269   22.8567  -32.5109 H   0  0  0  0  0  0  0  0  0  0  0  0
   -7.3371   24.9520  -30.5105 H   0  0  0  0  0  0  0  0  0  0  0  0
   -5.2347   25.9179  -29.6353 H   0  0  0  0  0  0  0  0  0  0  0  0
   -2.4530   25.6720  -30.0930 H   0  0  0  0  0  0  0  0  0  0  0  0
   -2.7749   23.8084  -27.7922 H   0  0  0  0  0  0  0  0  0  0  0  0
   -1.3142   23.5996  -28.8384 H   0  0  0  0  0  0  0  0  0  0  0  0
   -0.2784   25.3058  -27.8150 H   0  0  0  0  0  0  0  0  0  0  0  0
   -1.7062   26.3950  -28.2026 H   0  0  0  0  0  0  0  0  0  0  0  0
   -3.3831   25.2586  -25.0061 H   0  0  0  0  0  0  0  0  0  0  0  0
   -3.7476   26.1039  -26.5486 H   0  0  0  0  0  0  0  0  0  0  0  0
   -3.4152   24.3386  -26.5486 H   0  0  0  0  0  0  0  0  0  0  0  0
   -1.4802   23.6731  -25.3456 H   0  0  0  0  0  0  0  0  0  0  0  0
    0.0414   24.4166  -26.0196 H   0  0  0  0  0  0  0  0  0  0  0  0
   -1.4397   25.3644  -23.5231 H   0  0  0  0  0  0  0  0  0  0  0  0
    0.0711   24.3558  -23.5634 H   0  0  0  0  0  0  0  0  0  0  0  0
    0.2744   26.5473  -22.0392 H   0  0  0  0  0  0  0  0  0  0  0  0
    0.7928   28.0275  -22.9148 H   0  0  0  0  0  0  0  0  0  0  0  0
   -0.9370   27.5434  -22.9148 H   0  0  0  0  0  0  0  0  0  0  0  0
    2.1431   25.8915  -23.1664 H   0  0  0  0  0  0  0  0  0  0  0  0
    1.8732   25.0338  -24.7215 H   0  0  0  0  0  0  0  0  0  0  0  0
    2.3301   26.7710  -24.7215 H   0  0  0  0  0  0  0  0  0  0  0  0
    0.1471   28.2564  -25.1156 H   0  0  0  0  0  0  0  0  0  0  0  0
    0.6711   26.8787  -26.1751 H   0  0  0  0  0  0  0  0  0  0  0  0
   -2.1289   27.2251  -24.9992 H   0  0  0  0  0  0  0  0  0  0  0  0
   -1.6231   27.6471  -26.6929 H   0  0  0  0  0  0  0  0  0  0  0  0
   -3.0716   22.3910  -30.8717 H   0  0  0  0  0  0  0  0  0  0  0  0
  1  2  1  0
  2  3  1  0
  3  4  1  0
  4  5  1  0
  3  6  1  0
  6  7  1  0
  7  8  1  0
  8  9  1  0
  9 10  2  0
 10 11  1  0
 11 12  2  0
 12 13  1  0
 13 14  2  0
 14 15  1  0
 15 16  2  0
 16 17  1  0
 16 18  1  0
 18 19  2  0
 19 20  1  0
 20 21  2  0
 21 22  1  0
 22 23  1  0
 23 24  1  0
 24 25  1  0
 25 26  1  0
 25 27  1  0
 27 28  1  0
 28 29  1  0
 29 30  1  0
 29 31  1  0
 29 32  1  0
 32 33  1  0
 21 34  1  0
 34 35  2  0
 35  9  1  0
 15 10  1  0
 35 18  1  0
 33 25  1  0
  1 36  1  0
  1 37  1  0
  1 38  1  0
  2 39  1  0
  2 40  1  0
  4 41  1  0
  4 42  1  0
  5 43  1  0
  5 44  1  0
  5 45  1  0
  6 46  1  0
  6 47  1  0
  7 48  1  0
  7 49  1  0
  8 50  1  0
 11 51  1  0
 12 52  1  0
 13 53  1  0
 14 54  1  0
 17 55  1  0
 17 56  1  0
 17 57  1  0
 19 58  1  0
 20 59  1  0
 22 60  1  0
 23 61  1  0
 23 62  1  0
 24 63  1  0
 24 64  1  0
 26 65  1  0
 26 66  1  0
 26 67  1  0
 27 68  1  0
 27 69  1  0
 28 70  1  0
 28 71  1  0
 30 72  1  0
 30 73  1  0
 30 74  1  0
 31 75  1  0
 31 76  1  0
 31 77  1  0
 32 78  1  0
 32 79  1  0
 33 80  1  0
 33 81  1  0
 34 82  1  0
M  CHG  3  16   1  25   1  29   1
M  END
>  <UniqueID>  (2) 
2

>  <SMILES>  (2) 
CCN(CC)CCNc1c2ccccc2[n+](C)c2ccc(NCC[N+]3(C)CC[N+](C)(C)CC3)cc12

>  <Energy>  (2) 
134.19257714135574

>  <Genealogy>  (2) 
CCN(CC)CCNc1c2ccccc2[n+](C)c2ccc(NCC[N+]3(C)CC[N+](C)(C)CC3)cc12 (3D coordinates assigned)
CCN(CC)CCNc1c2ccccc2[n+](C)c2ccc(NCC[N+]3(C)CC[N+](C)(C)CC3)cc12 (nonaromatic ring conformer: 134.19257714135574 kcal/mol)

>  <smiles>  (2) 
CCN(CC)CCNc1c2ccccc2[n+](C)c2ccc(NCC[N+]3(C)CC[N+](C)(C)CC3)cc12

>  <score_type>  (2) 
oracle

>  <origin>  (2) 
adg

>  <m_score__min__energy>  (2) 
-8.8699999999999992

>  <m_primary>  (2) 
energy

$$$$
2:0
     RDKit          3D

 56 58  0  0  0  0  0  0  0  0999 V2000
   -2.4850   23.7340  -29.2980 C   0  0  0  0  0  0  0  0  0  0  0  0
   -3.5400   23.8630  -30.3900 C   0  0  0  0  0  0  0  0  0  0  0  0
   -3.8570   25.2240  -30.6080 O   0  0  0  0  0  0  0  0  0  0  0  0
   -5.2540   25.3960  -30.7300 C   0  0  0  0  0  0  0  0  0  0  0  0
   -5.9250   24.9900  -29.4250 C   0  0  0  0  0  0  0  0  0  0  0  0
   -7.2340   24.5320  -29.6990 O   0  0  0  0  0  0  0  0  0  0  0  0
   -7.2100   23.1800  -30.1120 C   0  0  0  0  0  0  0  0  0  0  0  0
   -8.0560   22.9990  -31.3730 C   0  0  0  0  0  0  0  0  0  0  0  0
   -7.6290   21.8080  -32.0980 N   0  0  0  0  0  0  0  0  0  0  0  0
   -6.3610   21.4450  -32.3700 C   0  0  0  0  0  0  0  0  0  0  0  0
   -6.4380   20.2260  -33.0140 C   0  0  0  0  0  0  0  0  0  0  0  0
   -5.2920   19.3930  -33.5290 C   0  0  0  0  0  0  0  0  0  0  0  0
   -3.9780   19.8090  -32.9900 N   0  0  0  0  0  0  0  0  0  0  0  0
   -3.6040   21.1880  -33.3780 C   0  0  0  0  0  0  0  0  0  0  0  0
   -2.1130   21.4600  -33.1620 C   0  0  0  0  0  0  0  0  0  0  0  0
   -1.3090   20.4920  -33.9210 N   0  0  0  0  0  0  0  0  0  0  0  0
    0.0110   20.8450  -34.3930 C   0  0  0  0  0  0  0  0  0  0  0  0
    0.1870   21.8960  -35.3140 C   0  0  0  0  0  0  0  0  0  0  0  0
    1.4650   22.2360  -35.7660 C   0  0  0  0  0  0  0  0  0  0  0  0
    2.5820   21.5340  -35.3060 C   0  0  0  0  0  0  0  0  0  0  0  0
    2.4220   20.4890  -34.3940 C   0  0  0  0  0  0  0  0  0  0  0  0
    1.1450   20.1440  -33.9390 C   0  0  0  0  0  0  0  0  0  0  0  0
   -1.8720   19.1640  -34.2030 C   0  0  0  0  0  0  0  0  0  0  0  0
   -2.9120   18.7880  -33.1400 C   0  0  0  0  0  0  0  0  0  0  0  0
   -7.7400   19.8900  -33.0910 N   0  0  0  0  0  0  0  0  0  0  0  0
   -8.4450   20.8580  -32.5270 N   0  0  0  0  0  0  0  0  0  0  0  0
   -2.9688   23.7932  -28.3119 H   0  0  0  0  0  0  0  0  0  0  0  0
   -1.9713   22.7664  -29.3969 H   0  0  0  0  0  0  0  0  0  0  0  0
   -1.7533   24.5494  -29.3969 H   0  0  0  0  0  0  0  0  0  0  0  0
   -3.1523   23.4269  -31.3225 H   0  0  0  0  0  0  0  0  0  0  0  0
   -4.4490   23.3301  -30.0741 H   0  0  0  0  0  0  0  0  0  0  0  0
   -5.4772   26.4513  -30.9455 H   0  0  0  0  0  0  0  0  0  0  0  0
   -5.6329   24.7692  -31.5507 H   0  0  0  0  0  0  0  0  0  0  0  0
   -5.3459   24.1855  -28.9481 H   0  0  0  0  0  0  0  0  0  0  0  0
   -5.9702   25.8554  -28.7475 H   0  0  0  0  0  0  0  0  0  0  0  0
   -6.1724   22.8832  -30.3247 H   0  0  0  0  0  0  0  0  0  0  0  0
   -7.6228   22.5516  -29.3091 H   0  0  0  0  0  0  0  0  0  0  0  0
   -9.1134   22.8922  -31.0892 H   0  0  0  0  0  0  0  0  0  0  0  0
   -7.9285   23.8790  -32.0206 H   0  0  0  0  0  0  0  0  0  0  0  0
   -5.4470   22.0070  -32.1277 H   0  0  0  0  0  0  0  0  0  0  0  0
   -5.4686   18.3443  -33.2479 H   0  0  0  0  0  0  0  0  0  0  0  0
   -5.2547   19.5288  -34.6199 H   0  0  0  0  0  0  0  0  0  0  0  0
   -3.8412   21.3342  -34.4421 H   0  0  0  0  0  0  0  0  0  0  0  0
   -4.1719   21.8851  -32.7444 H   0  0  0  0  0  0  0  0  0  0  0  0
   -1.8754   22.4781  -33.5040 H   0  0  0  0  0  0  0  0  0  0  0  0
   -1.8800   21.3614  -32.0915 H   0  0  0  0  0  0  0  0  0  0  0  0
   -0.6878   22.4533  -35.6802 H   0  0  0  0  0  0  0  0  0  0  0  0
    1.5918   23.0582  -36.4856 H   0  0  0  0  0  0  0  0  0  0  0  0
    3.5870   21.8045  -35.6622 H   0  0  0  0  0  0  0  0  0  0  0  0
    3.3016   19.9361  -34.0327 H   0  0  0  0  0  0  0  0  0  0  0  0
    1.0256   19.3190  -33.2212 H   0  0  0  0  0  0  0  0  0  0  0  0
   -2.3529   19.1767  -35.1922 H   0  0  0  0  0  0  0  0  0  0  0  0
   -1.0606   18.4215  -34.1870 H   0  0  0  0  0  0  0  0  0  0  0  0
   -3.3777   17.8335  -33.4265 H   0  0  0  0  0  0  0  0  0  0  0  0
   -2.3874   18.7138  -32.1760 H   0  0  0  0  0  0  0  0  0  0  0  0
   -8.1480   19.0210  -33.5000 H   0  0  0  0  0  0  0  0  0  0  0  0
  1  2  1  0
  2  3  1  0
  3  4  1  0
  4  5  1  0
  5  6  1  0
  6  7  1  0
  7  8  1  0
  8  9  1  0
  9 10  1  0
 10 11  2  0
 11 12  1  0
 12 13  1  0
 13 14  1  0
 14 15  1  0
 15 16  1  0
 16 17  1  0
 17 18  2  0
 18 19  1  0
 19 20  2  0
 20 21  1  0
 21 22  2  0
 16 23  1  0
 23 24  1  0
 11 25  1  0
 25 26  2  0
 26  9  1  0
 24 13  1  0
 22 17  1  0
  1 27  1  0
  1 28  1  0
  1 29  1  0
  2 30  1  0
  2 31  1  0
  4 32  1  0
  4 33  1  0
  5 34  1  0
  5 35  1  0
  7 36  1  0
  7 37  1  0
  8 38  1  0
  8 39  1  0
 10 40  1  0
 12 41  1  0
 12 42  1  0
 14 43  1  0
 14 44  1  0
 15 45  1  0
 15 46  1  0
 18 47  1  0
 19 48  1  0
 20 49  1  0
 21 50  1  0
 22 51  1  0
 23 52  1  0
 23 53  1  0
 24 54  1  0
 24 55  1  0
 25 56  1  0
M  CHG  1  25   1
M  END
>  <UniqueID>  (3) 
3

>  <SMILES>  (3) 
CCOCCOCCn1cc(CN2CCN(c3ccccc3)CC2)[nH+]n1

>  <Energy>  (3) 
99.1922976739977

>  <Genealogy>  (3) 
CCOCCOCCn1cc(CN2CCN(c3ccccc3)CC2)[nH+]n1 (protonated)
CCOCCOCCn1cc(CN2CCN(c3ccccc3)CC2)[nH+]n1 (3D coordinates assigned)
CCOCCOCCn1cc(CN2CCN(c3ccccc3)CC2)[nH+]n1 (nonaromatic ring conformer: 99.1922976739977 kcal/mol)

>  <smiles>  (3) 
CCOCCOCCn1cc(CN2CCN(c3ccccc3)CC2)nn1

>  <score_type>  (3) 
oracle

>  <origin>  (3) 
adg

>  <m_score__min__energy>  (3) 
-7.6500000000000004

>  <m_primary>  (3) 
energy

$$$$
3:0
     RDKit          3D

 72 75  0  0  0  0  0  0  0  0999 V2000
    0.0520   24.4200  -27.7590 C   0  0  0  0  0  0  0  0  0  0  0  0
   -0.8640   25.4990  -28.3450 C   0  0  0  0  0  0  0  0  0  0  0  0
   -2.0000   24.9350  -29.0940 N   0  0  0  0  0  0  0  0  0  0  0  0
   -3.0610   24.4370  -28.2090 C   0  0  0  0  0  0  0  0  0  0  0  0
   -4.3100   24.1170  -29.0340 C   0  0  0  0  0  0  0  0  0  0  0  0
   -4.0890   24.3840  -30.4060 O   0  0  0  0  0  0  0  0  0  0  0  0
   -5.3100   24.5340  -31.1070 C   0  0  0  0  0  0  0  0  0  0  0  0
   -5.4250   23.4930  -32.2240 C   0  0  0  0  0  0  0  0  0  0  0  0
   -5.1110   22.1640  -31.7040 N   0  0  0  0  0  0  0  0  0  0  0  0
   -5.6620   20.9910  -32.3220 C   0  0  0  0  0  0  0  0  0  0  0  0
   -7.0540   20.7950  -32.3070 C   0  0  0  0  0  0  0  0  0  0  0  0
   -7.9380   21.8460  -31.9770 C   0  0  0  0  0  0  0  0  0  0  0  0
   -9.3180   21.6530  -32.0110 C   0  0  0  0  0  0  0  0  0  0  0  0
   -9.8400   20.4200  -32.3820 C   0  0  0  0  0  0  0  0  0  0  0  0
   -8.9830   19.3620  -32.6910 C   0  0  0  0  0  0  0  0  0  0  0  0
   -7.5750   19.5160  -32.6150 C   0  0  0  0  0  0  0  0  0  0  0  0
   -6.7170   18.4550  -32.8120 N   0  0  0  0  0  0  0  0  0  0  0  0
   -7.2350   17.0680  -32.7500 C   0  0  0  0  0  0  0  0  0  0  0  0
   -5.3740   18.6860  -33.0500 C   0  0  0  0  0  0  0  0  0  0  0  0
   -4.5270   17.6480  -33.5060 C   0  0  0  0  0  0  0  0  0  0  0  0
   -3.1780   17.8670  -33.7400 C   0  0  0  0  0  0  0  0  0  0  0  0
   -2.6500   19.1400  -33.6210 C   0  0  0  0  0  0  0  0  0  0  0  0
   -3.4550   20.2320  -33.2510 C   0  0  0  0  0  0  0  0  0  0  0  0
   -2.9160   21.5650  -33.4860 N   0  0  0  0  0  0  0  0  0  0  0  0
   -2.2730   22.1340  -32.2850 C   0  0  0  0  0  0  0  0  0  0  0  0
   -1.8170   21.0520  -31.2810 C   0  0  0  0  0  0  0  0  0  0  0  0
   -1.3150   21.6590  -29.9640 C   0  0  0  0  0  0  0  0  0  0  0  0
   -1.5860   20.7670  -28.8240 N   0  0  0  0  0  0  0  0  0  0  0  0
   -0.6600   19.8270  -28.4560 C   0  0  0  0  0  0  0  0  0  0  0  0
   -0.9150   18.9530  -27.3950 C   0  0  0  0  0  0  0  0  0  0  0  0
   -2.1220   19.0500  -26.7040 C   0  0  0  0  0  0  0  0  0  0  0  0
   -3.0610   20.0080  -27.0830 C   0  0  0  0  0  0  0  0  0  0  0  0
   -2.7760   20.8640  -28.1510 C   0  0  0  0  0  0  0  0  0  0  0  0
   -4.8190   19.9880  -32.8610 C   0  0  0  0  0  0  0  0  0  0  0  0
    0.0145   24.4642  -26.6605 H   0  0  0  0  0  0  0  0  0  0  0  0
   -0.2851   23.4293  -28.0978 H   0  0  0  0  0  0  0  0  0  0  0  0
    1.0843   24.5918  -28.0978 H   0  0  0  0  0  0  0  0  0  0  0  0
   -1.2560   26.1133  -27.5210 H   0  0  0  0  0  0  0  0  0  0  0  0
   -0.2658   26.0963  -29.0488 H   0  0  0  0  0  0  0  0  0  0  0  0
   -2.3950   25.6690  -29.7310 H   0  0  0  0  0  0  0  0  0  0  0  0
   -2.7151   23.5253  -27.6999 H   0  0  0  0  0  0  0  0  0  0  0  0
   -3.3043   25.2065  -27.4616 H   0  0  0  0  0  0  0  0  0  0  0  0
   -4.5614   23.0533  -28.9097 H   0  0  0  0  0  0  0  0  0  0  0  0
   -5.1372   24.7502  -28.6807 H   0  0  0  0  0  0  0  0  0  0  0  0
   -6.1473   24.4046  -30.4054 H   0  0  0  0  0  0  0  0  0  0  0  0
   -5.3390   25.5381  -31.5554 H   0  0  0  0  0  0  0  0  0  0  0  0
   -6.4512   23.4959  -32.6202 H   0  0  0  0  0  0  0  0  0  0  0  0
   -4.7145   23.7439  -33.0254 H   0  0  0  0  0  0  0  0  0  0  0  0
   -4.2770   22.0690  -31.0810 H   0  0  0  0  0  0  0  0  0  0  0  0
   -7.5329   22.8276  -31.6900 H   0  0  0  0  0  0  0  0  0  0  0  0
   -9.9947   22.4780  -31.7437 H   0  0  0  0  0  0  0  0  0  0  0  0
  -10.9295   20.2772  -32.4323 H   0  0  0  0  0  0  0  0  0  0  0  0
   -9.4062   18.3942  -32.9981 H   0  0  0  0  0  0  0  0  0  0  0  0
   -7.3480   16.7655  -31.6985 H   0  0  0  0  0  0  0  0  0  0  0  0
   -8.2121   17.0187  -33.2528 H   0  0  0  0  0  0  0  0  0  0  0  0
   -6.5294   16.3903  -33.2528 H   0  0  0  0  0  0  0  0  0  0  0  0
   -4.9477   16.6464  -33.6784 H   0  0  0  0  0  0  0  0  0  0  0  0
   -2.5262   17.0266  -34.0209 H   0  0  0  0  0  0  0  0  0  0  0  0
   -1.5801   19.3011  -33.8196 H   0  0  0  0  0  0  0  0  0  0  0  0
   -3.6730   22.2240  -33.7810 H   0  0  0  0  0  0  0  0  0  0  0  0
   -2.2520   21.5580  -34.2890 H   0  0  0  0  0  0  0  0  0  0  0  0
   -1.3934   22.7151  -32.5991 H   0  0  0  0  0  0  0  0  0  0  0  0
   -3.0181   22.7641  -31.7773 H   0  0  0  0  0  0  0  0  0  0  0  0
   -2.6674   20.3888  -31.0641 H   0  0  0  0  0  0  0  0  0  0  0  0
   -0.9835   20.4975  -31.7370 H   0  0  0  0  0  0  0  0  0  0  0  0
   -0.2303   21.8265  -30.0375 H   0  0  0  0  0  0  0  0  0  0  0  0
   -1.8457   22.6076  -29.7953 H   0  0  0  0  0  0  0  0  0  0  0  0
    0.2934   19.7592  -29.0005 H   0  0  0  0  0  0  0  0  0  0  0  0
   -0.1703   18.1959  -27.1081 H   0  0  0  0  0  0  0  0  0  0  0  0
   -2.3325   18.3731  -25.8629 H   0  0  0  0  0  0  0  0  0  0  0  0
   -4.0178   20.0898  -26.5465 H   0  0  0  0  0  0  0  0  0  0  0  0
   -3.5133   21.6220  -28.4538 H   0  0  0  0  0  0  0  0  0  0  0  0
  1  2  1  0
  2  3  1  0
  3  4  1  0
  4  5  1  0
  5  6  1  0
  6  7  1  0
  7  8  1  0
  8  9  1  0
  9 10  1  0
 10 11  2  0
 11 12  1  0
 12 13  2  0
 13 14  1  0
 14 15  2  0
 15 16  1  0
 16 17  2  0
 17 18  1  0
 17 19  1  0
 19 20  2  0
 20 21  1  0
 21 22  2  0
 22 23  1  0
 23 24  1  0
 24 25  1  0
 25 26  1  0
 26 27  1  0
 27 28  1  0
 28 29  2  0
 29 30  1  0
 30 31  2  0
 31 32  1  0
 32 33  2  0
 23 34  2  0
 34 10  1  0
 16 11  1  0
 34 19  1  0
 33 28  1  0
  1 35  1  0
  1 36  1  0
  1 37  1  0
  2 38  1  0
  2 39  1  0
  3 40  1  0
  4 41  1  0
  4 42  1  0
  5 43  1  0
  5 44  1  0
  7 45  1  0
  7 46  1  0
  8 47  1  0
  8 48  1  0
  9 49  1  0
 12 50  1  0
 13 51  1  0
 14 52  1  0
 15 53  1  0
 18 54  1  0
 18 55  1  0
 18 56  1  0
 20 57  1  0
 21 58  1  0
 22 59  1  0
 24 60  1  0
 24 61  1  0
 25 62  1  0
 25 63  1  0
 26 64  1  0
 26 65  1  0
 27 66  1  0
 27 67  1  0
 29 68  1  0
 30 69  1  0
 31 70  1  0
 32 71  1  0
 33 72  1  0
M  CHG  3  17   1  24   1  28   1
M  END
>  <UniqueID>  (4) 
4

>  <SMILES>  (4) 
CCNCCOCCNc1c2ccccc2[n+](C)c2cccc([NH2+]CCC[n+]3ccccc3)c12

>  <Energy>  (4) 
103.74875320419486

>  <Genealogy>  (4) 
CCNCCOCCNc1c2ccccc2[n+](C)c2cccc([NH2+]CCC[n+]3ccccc3)c12 (protonated)
CCNCCOCCNc1c2ccccc2[n+](C)c2cccc([NH2+]CCC[n+]3ccccc3)c12 (3D coordinates assigned)
CCNCCOCCNc1c2ccccc2[n+](C)c2cccc([NH2+]CCC[n+]3ccccc3)c12 (optimized conformer: 103.74875320419486 kcal/mol)

>  <smiles>  (4) 
CCNCCOCCNc1c2ccccc2[n+](C)c2cccc(NCCC[n+]3ccccc3)c12

>  <score_type>  (4) 
oracle

>  <origin>  (4) 
adg

>  <m_score__min__energy>  (4) 
-8.9600000000000009

>  <m_primary>  (4) 
energy

$$$$
4:0
     RDKit          3D

 62 64  0  0  0  0  0  0  0  0999 V2000
   -6.1060   25.4590  -29.5490 C   0  0  0  0  0  0  0  0  0  0  0  0
   -5.3460   25.6220  -30.8590 C   0  0  0  0  0  0  0  0  0  0  0  0
   -3.9290   25.2970  -30.6650 N   0  0  0  0  0  0  0  0  0  0  0  0
   -3.7840   23.8970  -30.2490 C   0  0  0  0  0  0  0  0  0  0  0  0
   -3.4770   23.8030  -28.7520 C   0  0  0  0  0  0  0  0  0  0  0  0
   -3.2780   22.3490  -28.3000 C   0  0  0  0  0  0  0  0  0  0  0  0
   -2.8860   21.5400  -29.3930 O   0  0  0  0  0  0  0  0  0  0  0  0
   -1.9100   20.5940  -28.9980 C   0  0  0  0  0  0  0  0  0  0  0  0
   -0.9230   20.3310  -30.1350 C   0  0  0  0  0  0  0  0  0  0  0  0
   -1.6260   20.3210  -31.3560 O   0  0  0  0  0  0  0  0  0  0  0  0
   -1.5490   21.5830  -31.8580 N   0  0  0  0  0  0  0  0  0  0  0  0
   -1.8810   21.5230  -33.2830 C   0  0  0  0  0  0  0  0  0  0  0  0
   -3.4000   21.5420  -33.4860 C   0  0  0  0  0  0  0  0  0  0  0  0
   -4.0900   21.0700  -32.2870 N   0  0  0  0  0  0  0  0  0  0  0  0
   -5.3770   20.4360  -32.3600 C   0  0  0  0  0  0  0  0  0  0  0  0
   -5.4850   19.0790  -32.7120 C   0  0  0  0  0  0  0  0  0  0  0  0
   -4.3520   18.3460  -33.1230 C   0  0  0  0  0  0  0  0  0  0  0  0
   -4.4740   17.0190  -33.5280 C   0  0  0  0  0  0  0  0  0  0  0  0
   -5.7210   16.4040  -33.5420 C   0  0  0  0  0  0  0  0  0  0  0  0
   -6.8530   17.1090  -33.1360 C   0  0  0  0  0  0  0  0  0  0  0  0
   -6.7600   18.4520  -32.6910 C   0  0  0  0  0  0  0  0  0  0  0  0
   -7.8730   19.1560  -32.2690 N   0  0  0  0  0  0  0  0  0  0  0  0
   -9.1310   18.4400  -31.9590 C   0  0  0  0  0  0  0  0  0  0  0  0
   -7.8050   20.5300  -32.1220 C   0  0  0  0  0  0  0  0  0  0  0  0
   -8.9700   21.3230  -31.9650 C   0  0  0  0  0  0  0  0  0  0  0  0
   -8.8820   22.7010  -31.7760 C   0  0  0  0  0  0  0  0  0  0  0  0
   -7.6410   23.3280  -31.7530 C   0  0  0  0  0  0  0  0  0  0  0  0
   -6.4800   22.5810  -31.9370 C   0  0  0  0  0  0  0  0  0  0  0  0
   -6.5450   21.1860  -32.1400 C   0  0  0  0  0  0  0  0  0  0  0  0
   -5.4169   25.6068  -28.7045 H   0  0  0  0  0  0  0  0  0  0  0  0
   -6.9133   26.2044  -29.4983 H   0  0  0  0  0  0  0  0  0  0  0  0
   -6.5366   24.4481  -29.4983 H   0  0  0  0  0  0  0  0  0  0  0  0
   -5.7739   24.9462  -31.6141 H   0  0  0  0  0  0  0  0  0  0  0  0
   -5.4325   26.6651  -31.1973 H   0  0  0  0  0  0  0  0  0  0  0  0
   -3.4390   25.4060  -31.5850 H   0  0  0  0  0  0  0  0  0  0  0  0
   -4.7204   23.3595  -30.4594 H   0  0  0  0  0  0  0  0  0  0  0  0
   -2.9503   23.4477  -30.8085 H   0  0  0  0  0  0  0  0  0  0  0  0
   -2.5585   24.3702  -28.5408 H   0  0  0  0  0  0  0  0  0  0  0  0
   -4.3339   24.2177  -28.2009 H   0  0  0  0  0  0  0  0  0  0  0  0
   -2.4977   22.3142  -27.5255 H   0  0  0  0  0  0  0  0  0  0  0  0
   -4.2283   21.9680  -27.8978 H   0  0  0  0  0  0  0  0  0  0  0  0
   -1.3623   20.9823  -28.1267 H   0  0  0  0  0  0  0  0  0  0  0  0
   -2.4144   19.6507  -28.7416 H   0  0  0  0  0  0  0  0  0  0  0  0
   -0.1614   21.1245  -30.1538 H   0  0  0  0  0  0  0  0  0  0  0  0
   -0.4278   19.3608  -29.9819 H   0  0  0  0  0  0  0  0  0  0  0  0
   -2.2990   22.1380  -31.3830 H   0  0  0  0  0  0  0  0  0  0  0  0
   -1.4374   22.3902  -33.7940 H   0  0  0  0  0  0  0  0  0  0  0  0
   -1.4798   20.5879  -33.7008 H   0  0  0  0  0  0  0  0  0  0  0  0
   -3.7216   22.5707  -33.7057 H   0  0  0  0  0  0  0  0  0  0  0  0
   -3.6521   20.8748  -34.3235 H   0  0  0  0  0  0  0  0  0  0  0  0
   -3.6220   21.1590  -31.3580 H   0  0  0  0  0  0  0  0  0  0  0  0
   -3.3628   18.8270  -33.1236 H   0  0  0  0  0  0  0  0  0  0  0  0
   -3.5813   16.4558  -33.8377 H   0  0  0  0  0  0  0  0  0  0  0  0
   -5.8144   15.3595  -33.8740 H   0  0  0  0  0  0  0  0  0  0  0  0
   -7.8354   16.6148  -33.1613 H   0  0  0  0  0  0  0  0  0  0  0  0
   -9.2538   18.3701  -30.8681 H   0  0  0  0  0  0  0  0  0  0  0  0
   -9.9812   18.9895  -32.3893 H   0  0  0  0  0  0  0  0  0  0  0  0
   -9.0927   17.4284  -32.3893 H   0  0  0  0  0  0  0  0  0  0  0  0
   -9.9592   20.8428  -31.9928 H   0  0  0  0  0  0  0  0  0  0  0  0
   -9.7983   23.2953  -31.6444 H   0  0  0  0  0  0  0  0  0  0  0  0
   -7.5763   24.4139  -31.5895 H   0  0  0  0  0  0  0  0  0  0  0  0
   -5.5018   23.0839  -31.9239 H   0  0  0  0  0  0  0  0  0  0  0  0
  1  2  1  0
  2  3  1  0
  3  4  1  0
  4  5  1  0
  5  6  1  0
  6  7  1  0
  7  8  1  0
  8  9  1  0
  9 10  1  0
 10 11  1  0
 11 12  1  0
 12 13  1  0
 13 14  1  0
 14 15  1  0
 15 16  2  0
 16 17  1  0
 17 18  2  0
 18 19  1  0
 19 20  2  0
 20 21  1  0
 21 22  2  0
 22 23  1  0
 22 24  1  0
 24 25  2  0
 25 26  1  0
 26 27  2  0
 27 28  1  0
 28 29  2  0
 29 15  1  0
 21 16  1  0
 29 24  1  0
  1 30  1  0
  1 31  1  0
  1 32  1  0
  2 33  1  0
  2 34  1  0
  3 35  1  0
  4 36  1  0
  4 37  1  0
  5 38  1  0
  5 39  1  0
  6 40  1  0
  6 41  1  0
  8 42  1  0
  8 43  1  0
  9 44  1  0
  9 45  1  0
 11 46  1  0
 12 47  1  0
 12 48  1  0
 13 49  1  0
 13 50  1  0
 14 51  1  0
 17 52  1  0
 18 53  1  0
 19 54  1  0
 20 55  1  0
 23 56  1  0
 23 57  1  0
 23 58  1  0
 25 59  1  0
 26 60  1  0
 27 61  1  0
 28 62  1  0
M  CHG  1  22   1
M  END
>  <UniqueID>  (5) 
5

>  <SMILES>  (5) 
CCNCCCOCCONCCNc1c2ccccc2[n+](C)c2ccccc12

>  <Energy>  (5) 
75.93436595495993

>  <Genealogy>  (5) 
CCNCCCOCCONCCNc1c2ccccc2[n+](C)c2ccccc12 (3D coordinates assigned)
CCNCCCOCCONCCNc1c2ccccc2[n+](C)c2ccccc12 (optimized conformer: 75.93436595495993 kcal/mol)

>  <smiles>  (5) 
CCNCCCOCCONCCNc1c2ccccc2[n+](C)c2ccccc12

>  <score_type>  (5) 
oracle

>  <origin>  (5) 
adg

>  <m_score__min__energy>  (5) 
-10.68

>  <m_primary>  (5) 
energy

$$$$
5:0
     RDKit          3D

 60 62  0  0  0  0  0  0  0  0999 V2000
   -0.5330   27.1670  -23.8420 C   0  0  0  0  0  0  0  0  0  0  0  0
   -0.8270   25.7310  -24.2500 C   0  0  0  0  0  0  0  0  0  0  0  0
   -0.5490   25.5500  -25.6260 O   0  0  0  0  0  0  0  0  0  0  0  0
   -1.5130   26.2160  -26.4200 C   0  0  0  0  0  0  0  0  0  0  0  0
   -0.8600   26.6910  -27.7200 C   0  0  0  0  0  0  0  0  0  0  0  0
   -1.1270   25.7860  -28.7740 O   0  0  0  0  0  0  0  0  0  0  0  0
   -0.4650   24.5530  -28.5670 C   0  0  0  0  0  0  0  0  0  0  0  0
   -1.4970   23.4470  -28.3240 C   0  0  0  0  0  0  0  0  0  0  0  0
   -1.9990   22.8850  -29.6000 N   0  0  0  0  0  0  0  0  0  0  0  0
   -3.1290   23.3790  -30.2280 C   0  0  0  0  0  0  0  0  0  0  0  0
   -3.9650   24.5130  -29.6820 C   0  0  0  0  0  0  0  0  0  0  0  0
   -4.5610   25.2780  -30.7860 N   0  0  0  0  0  0  0  0  0  0  0  0
   -5.9470   25.6730  -30.4910 C   0  0  0  0  0  0  0  0  0  0  0  0
   -6.8630   24.4460  -30.4870 C   0  0  0  0  0  0  0  0  0  0  0  0
   -6.3640   23.3990  -31.3780 N   0  0  0  0  0  0  0  0  0  0  0  0
   -7.1190   22.2460  -31.7960 C   0  0  0  0  0  0  0  0  0  0  0  0
   -6.5160   21.1560  -32.4560 C   0  0  0  0  0  0  0  0  0  0  0  0
   -7.2830   20.0570  -32.8500 C   0  0  0  0  0  0  0  0  0  0  0  0
   -8.6570   20.0330  -32.5980 C   0  0  0  0  0  0  0  0  0  0  0  0
   -9.2640   21.1090  -31.9470 C   0  0  0  0  0  0  0  0  0  0  0  0
   -8.5020   22.2090  -31.5500 C   0  0  0  0  0  0  0  0  0  0  0  0
   -3.5150   22.8730  -31.4290 N   0  0  0  0  0  0  0  0  0  0  0  0
   -2.8350   21.8810  -32.0450 C   0  0  0  0  0  0  0  0  0  0  0  0
   -3.2730   21.3950  -33.2840 C   0  0  0  0  0  0  0  0  0  0  0  0
   -2.5660   20.3740  -33.9230 C   0  0  0  0  0  0  0  0  0  0  0  0
   -1.4200   19.8380  -33.3290 C   0  0  0  0  0  0  0  0  0  0  0  0
   -0.9780   20.3200  -32.0930 C   0  0  0  0  0  0  0  0  0  0  0  0
   -1.6880   21.3470  -31.4390 C   0  0  0  0  0  0  0  0  0  0  0  0
   -1.2870   21.8680  -30.1990 C   0  0  0  0  0  0  0  0  0  0  0  0
   -0.2580   21.3960  -29.6390 O   0  0  0  0  0  0  0  0  0  0  0  0
   -0.5179   27.2406  -22.7446 H   0  0  0  0  0  0  0  0  0  0  0  0
    0.4456   27.4691  -24.2432 H   0  0  0  0  0  0  0  0  0  0  0  0
   -1.3142   27.8294  -24.2432 H   0  0  0  0  0  0  0  0  0  0  0  0
   -0.1983   25.0488  -23.6589 H   0  0  0  0  0  0  0  0  0  0  0  0
   -1.8896   25.5146  -24.0657 H   0  0  0  0  0  0  0  0  0  0  0  0
   -2.3365   25.5252  -26.6539 H   0  0  0  0  0  0  0  0  0  0  0  0
   -1.9078   27.0824  -25.8691 H   0  0  0  0  0  0  0  0  0  0  0  0
   -1.2601   27.6810  -27.9842 H   0  0  0  0  0  0  0  0  0  0  0  0
    0.2282   26.7467  -27.5691 H   0  0  0  0  0  0  0  0  0  0  0  0
    0.1336   24.3056  -29.4561 H   0  0  0  0  0  0  0  0  0  0  0  0
    0.1934   24.6359  -27.6897 H   0  0  0  0  0  0  0  0  0  0  0  0
   -1.0280   22.6424  -27.7387 H   0  0  0  0  0  0  0  0  0  0  0  0
   -2.3479   23.8816  -27.7790 H   0  0  0  0  0  0  0  0  0  0  0  0
   -4.7661   24.1027  -29.0496 H   0  0  0  0  0  0  0  0  0  0  0  0
   -3.3231   25.1796  -29.0874 H   0  0  0  0  0  0  0  0  0  0  0  0
   -4.5730   24.6560  -31.6310 H   0  0  0  0  0  0  0  0  0  0  0  0
   -5.9838   26.1558  -29.5033 H   0  0  0  0  0  0  0  0  0  0  0  0
   -6.2913   26.3725  -31.2670 H   0  0  0  0  0  0  0  0  0  0  0  0
   -6.9203   24.0466  -29.4637 H   0  0  0  0  0  0  0  0  0  0  0  0
   -7.8562   24.7568  -30.8435 H   0  0  0  0  0  0  0  0  0  0  0  0
   -5.3780   23.4890  -31.7120 H   0  0  0  0  0  0  0  0  0  0  0  0
   -5.4355   21.1710  -32.6619 H   0  0  0  0  0  0  0  0  0  0  0  0
   -6.8039   19.2082  -33.3600 H   0  0  0  0  0  0  0  0  0  0  0  0
   -9.2596   19.1680  -32.9119 H   0  0  0  0  0  0  0  0  0  0  0  0
  -10.3454   21.0897  -31.7466 H   0  0  0  0  0  0  0  0  0  0  0  0
   -8.9881   23.0539  -31.0403 H   0  0  0  0  0  0  0  0  0  0  0  0
   -4.1736   21.8176  -33.7534 H   0  0  0  0  0  0  0  0  0  0  0  0
   -2.9114   19.9913  -34.8947 H   0  0  0  0  0  0  0  0  0  0  0  0
   -0.8643   19.0349  -33.8351 H   0  0  0  0  0  0  0  0  0  0  0  0
   -0.0743   19.8968  -31.6302 H   0  0  0  0  0  0  0  0  0  0  0  0
  1  2  1  0
  2  3  1  0
  3  4  1  0
  4  5  1  0
  5  6  1  0
  6  7  1  0
  7  8  1  0
  8  9  1  0
  9 10  1  0
 10 11  1  0
 11 12  1  0
 12 13  1  0
 13 14  1  0
 14 15  1  0
 15 16  1  0
 16 17  2  0
 17 18  1  0
 18 19  2  0
 19 20  1  0
 20 21  2  0
 10 22  2  0
 22 23  1  0
 23 24  2  0
 24 25  1  0
 25 26  2  0
 26 27  1  0
 27 28  2  0
 28 29  1  0
 29 30  2  0
 29  9  1  0
 21 16  1  0
 28 23  1  0
  1 31  1  0
  1 32  1  0
  1 33  1  0
  2 34  1  0
  2 35  1  0
  4 36  1  0
  4 37  1  0
  5 38  1  0
  5 39  1  0
  7 40  1  0
  7 41  1  0
  8 42  1  0
  8 43  1  0
 11 44  1  0
 11 45  1  0
 12 46  1  0
 13 47  1  0
 13 48  1  0
 14 49  1  0
 14 50  1  0
 15 51  1  0
 17 52  1  0
 18 53  1  0
 19 54  1  0
 20 55  1  0
 21 56  1  0
 24 57  1  0
 25 58  1  0
 26 59  1  0
 27 60  1  0
M  END
>  <UniqueID>  (6) 
6

>  <SMILES>  (6) 
CCOCCOCCn1c(CNCCNc2ccccc2)nc2ccccc2c1=O

>  <Energy>  (6) 
62.31160985205287

>  <Genealogy>  (6) 
CCOCCOCCn1c(CNCCNc2ccccc2)nc2ccccc2c1=O (3D coordinates assigned)
CCOCCOCCn1c(CNCCNc2ccccc2)nc2ccccc2c1=O (optimized conformer: 62.31160985205287 kcal/mol)

>  <smiles>  (6) 
CCOCCOCCn1c(CNCCNc2ccccc2)nc2ccccc2c1=O

>  <score_type>  (6) 
oracle

>  <origin>  (6) 
adg

>  <m_score__min__energy>  (6) 
-8.9299999999999997

>  <m_primary>  (6) 
energy

$$$$
6:0
     RDKit          3D

 56 59  0  0  0  0  0  0  0  0999 V2000
   -6.2670   25.1400  -29.9850 C   0  0  0  0  0  0  0  0  0  0  0  0
   -5.0820   25.5630  -30.8500 C   0  0  0  0  0  0  0  0  0  0  0  0
   -3.8570   24.8230  -30.5060 N   0  0  0  0  0  0  0  0  0  0  0  0
   -3.8450   24.2400  -29.1500 C   0  0  0  0  0  0  0  0  0  0  0  0
   -4.2620   22.7560  -29.0770 C   0  0  0  0  0  0  0  0  0  0  0  0
   -3.1590   21.7930  -29.5240 C   0  0  0  0  0  0  0  0  0  0  0  0
   -2.9760   21.9220  -30.9190 O   0  0  0  0  0  0  0  0  0  0  0  0
   -1.5990   21.8870  -31.2460 C   0  0  0  0  0  0  0  0  0  0  0  0
   -1.4100   21.4050  -32.6840 C   0  0  0  0  0  0  0  0  0  0  0  0
   -2.6560   21.5480  -33.4340 N   0  0  0  0  0  0  0  0  0  0  0  0
   -3.6490   20.5120  -33.4160 C   0  0  0  0  0  0  0  0  0  0  0  0
   -4.9570   20.8030  -33.0440 C   0  0  0  0  0  0  0  0  0  0  0  0
   -5.9410   19.8290  -33.0650 C   0  0  0  0  0  0  0  0  0  0  0  0
   -5.6930   18.5470  -33.4820 N   0  0  0  0  0  0  0  0  0  0  0  0
   -6.8080   17.5950  -33.6350 C   0  0  0  0  0  0  0  0  0  0  0  0
   -4.3800   18.1820  -33.7440 C   0  0  0  0  0  0  0  0  0  0  0  0
   -4.0200   16.8360  -33.9990 C   0  0  0  0  0  0  0  0  0  0  0  0
   -2.6970   16.4850  -34.2680 C   0  0  0  0  0  0  0  0  0  0  0  0
   -1.6990   17.4530  -34.2710 C   0  0  0  0  0  0  0  0  0  0  0  0
   -2.0090   18.7820  -33.9960 C   0  0  0  0  0  0  0  0  0  0  0  0
   -3.3380   19.1700  -33.7330 C   0  0  0  0  0  0  0  0  0  0  0  0
   -7.1910   20.4530  -32.5930 C   0  0  0  0  0  0  0  0  0  0  0  0
   -8.3950   19.8820  -32.3340 N   0  0  0  0  0  0  0  0  0  0  0  0
   -9.4130   20.6450  -31.8370 C   0  0  0  0  0  0  0  0  0  0  0  0
   -9.2150   22.0160  -31.5700 C   0  0  0  0  0  0  0  0  0  0  0  0
   -7.9620   22.5990  -31.8090 C   0  0  0  0  0  0  0  0  0  0  0  0
   -6.9570   21.7840  -32.3230 C   0  0  0  0  0  0  0  0  0  0  0  0
   -5.5570   22.0660  -32.6010 C   0  0  0  0  0  0  0  0  0  0  0  0
   -4.9790   23.1760  -32.4680 O   0  0  0  0  0  0  0  0  0  0  0  0
   -5.9982   25.2359  -28.9227 H   0  0  0  0  0  0  0  0  0  0  0  0
   -7.1302   25.7855  -30.2046 H   0  0  0  0  0  0  0  0  0  0  0  0
   -6.5263   24.0938  -30.2046 H   0  0  0  0  0  0  0  0  0  0  0  0
   -5.3270   25.3734  -31.9055 H   0  0  0  0  0  0  0  0  0  0  0  0
   -4.8950   26.6321  -30.6711 H   0  0  0  0  0  0  0  0  0  0  0  0
   -3.7060   24.0670  -31.2130 H   0  0  0  0  0  0  0  0  0  0  0  0
   -2.8245   24.3283  -28.7491 H   0  0  0  0  0  0  0  0  0  0  0  0
   -4.5917   24.7993  -28.5672 H   0  0  0  0  0  0  0  0  0  0  0  0
   -4.5308   22.5199  -28.0368 H   0  0  0  0  0  0  0  0  0  0  0  0
   -5.1094   22.6220  -29.7655 H   0  0  0  0  0  0  0  0  0  0  0  0
   -2.2212   22.0390  -29.0043 H   0  0  0  0  0  0  0  0  0  0  0  0
   -3.4454   20.7594  -29.2799 H   0  0  0  0  0  0  0  0  0  0  0  0
   -1.1752   22.8968  -31.1426 H   0  0  0  0  0  0  0  0  0  0  0  0
   -1.0858   21.1927  -30.5644 H   0  0  0  0  0  0  0  0  0  0  0  0
   -0.6245   22.0043  -33.1675 H   0  0  0  0  0  0  0  0  0  0  0  0
   -1.1197   20.3441  -32.6709 H   0  0  0  0  0  0  0  0  0  0  0  0
   -2.6650   22.2280  -34.2270 H   0  0  0  0  0  0  0  0  0  0  0  0
   -7.1672   17.2883  -32.6416 H   0  0  0  0  0  0  0  0  0  0  0  0
   -7.6276   18.0762  -34.1888 H   0  0  0  0  0  0  0  0  0  0  0  0
   -6.4612   16.7101  -34.1888 H   0  0  0  0  0  0  0  0  0  0  0  0
   -4.7953   16.0558  -33.9847 H   0  0  0  0  0  0  0  0  0  0  0  0
   -2.4418   15.4360  -34.4790 H   0  0  0  0  0  0  0  0  0  0  0  0
   -0.6599   17.1675  -34.4916 H   0  0  0  0  0  0  0  0  0  0  0  0
   -1.2088   19.5366  -33.9839 H   0  0  0  0  0  0  0  0  0  0  0  0
  -10.3943   20.1872  -31.6435 H   0  0  0  0  0  0  0  0  0  0  0  0
  -10.0410   22.6260  -31.1755 H   0  0  0  0  0  0  0  0  0  0  0  0
   -7.7796   23.6630  -31.5977 H   0  0  0  0  0  0  0  0  0  0  0  0
  1  2  1  0
  2  3  1  0
  3  4  1  0
  4  5  1  0
  5  6  1  0
  6  7  1  0
  7  8  1  0
  8  9  1  0
  9 10  1  0
 10 11  1  0
 11 12  2  0
 12 13  1  0
 13 14  2  0
 14 15  1  0
 14 16  1  0
 16 17  2  0
 17 18  1  0
 18 19  2  0
 19 20  1  0
 20 21  2  0
 13 22  1  0
 22 23  2  0
 23 24  1  0
 24 25  2  0
 25 26  1  0
 26 27  2  0
 27 28  1  0
 28 29  2  0
 21 11  1  0
 27 22  1  0
 28 12  1  0
 21 16  1  0
  1 30  1  0
  1 31  1  0
  1 32  1  0
  2 33  1  0
  2 34  1  0
  3 35  1  0
  4 36  1  0
  4 37  1  0
  5 38  1  0
  5 39  1  0
  6 40  1  0
  6 41  1  0
  8 42  1  0
  8 43  1  0
  9 44  1  0
  9 45  1  0
 10 46  1  0
 15 47  1  0
 15 48  1  0
 15 49  1  0
 17 50  1  0
 18 51  1  0
 19 52  1  0
 20 53  1  0
 24 54  1  0
 25 55  1  0
 26 56  1  0
M  CHG  1  14   1
M  END
>  <UniqueID>  (7) 
7

>  <SMILES>  (7) 
CCNCCCOCCNc1c2c([n+](C)c3ccccc13)-c1ncccc1C2=O

>  <Energy>  (7) 
109.64753858399789

>  <Genealogy>  (7) 
CCNCCCOCCNc1c2c([n+](C)c3ccccc13)-c1ncccc1C2=O (3D coordinates assigned)
CCNCCCOCCNc1c2c([n+](C)c3ccccc13)-c1ncccc1C2=O (nonaromatic ring conformer: 109.64753858399789 kcal/mol)

>  <smiles>  (7) 
CCNCCCOCCNc1c2c([n+](C)c3ccccc13)-c1ncccc1C2=O

>  <score_type>  (7) 
oracle

>  <origin>  (7) 
adg

>  <m_score__min__energy>  (7) 
-9.4199999999999999

>  <m_primary>  (7) 
energy

$$$$
7:0
     RDKit          3D

 34 35  0  0  0  0  0  0  0  0999 V2000
   -6.1730   20.0480  -33.3200 C   0  0  0  0  0  0  0  0  0  0  0  0
   -5.7680   21.3380  -32.6870 C   0  0  0  0  0  0  0  0  0  0  0  0
   -4.5200   21.9300  -32.7230 C   0  0  0  0  0  0  0  0  0  0  0  0
   -4.5300   23.0260  -31.9380 N   0  0  0  0  0  0  0  0  0  0  0  0
   -5.7430   23.1350  -31.4180 N   0  0  0  0  0  0  0  0  0  0  0  0
   -6.1260   24.1610  -30.4540 C   0  0  0  0  0  0  0  0  0  0  0  0
   -5.3950   25.4680  -30.7580 C   0  0  0  0  0  0  0  0  0  0  0  0
   -3.9560   25.3130  -30.4740 N   0  0  0  0  0  0  0  0  0  0  0  0
   -3.7030   24.4560  -29.3080 C   0  0  0  0  0  0  0  0  0  0  0  0
   -2.3030   23.9050  -29.3370 C   0  0  0  0  0  0  0  0  0  0  0  0
   -1.9390   22.6970  -29.9030 C   0  0  0  0  0  0  0  0  0  0  0  0
   -0.5970   22.5250  -29.6270 C   0  0  0  0  0  0  0  0  0  0  0  0
   -0.1970   23.6280  -28.9000 C   0  0  0  0  0  0  0  0  0  0  0  0
   -1.2360   24.4690  -28.7330 N   0  0  0  0  0  0  0  0  0  0  0  0
   -1.2210   25.6940  -27.9360 C   0  0  0  0  0  0  0  0  0  0  0  0
   -6.5180   22.1150  -31.8330 C   0  0  0  0  0  0  0  0  0  0  0  0
   -6.4042   19.3116  -32.5362 H   0  0  0  0  0  0  0  0  0  0  0  0
   -7.0635   20.2100  -33.9451 H   0  0  0  0  0  0  0  0  0  0  0  0
   -5.3497   19.6719  -33.9451 H   0  0  0  0  0  0  0  0  0  0  0  0
   -3.6570   21.5656  -33.2995 H   0  0  0  0  0  0  0  0  0  0  0  0
   -7.2114   24.3291  -30.5138 H   0  0  0  0  0  0  0  0  0  0  0  0
   -5.8540   23.8238  -29.4429 H   0  0  0  0  0  0  0  0  0  0  0  0
   -5.5323   25.7251  -31.8187 H   0  0  0  0  0  0  0  0  0  0  0  0
   -5.8057   26.2694  -30.1263 H   0  0  0  0  0  0  0  0  0  0  0  0
   -3.5070   24.8510  -31.3010 H   0  0  0  0  0  0  0  0  0  0  0  0
   -3.8377   25.0479  -28.3906 H   0  0  0  0  0  0  0  0  0  0  0  0
   -4.4112   23.6146  -29.3314 H   0  0  0  0  0  0  0  0  0  0  0  0
   -2.5899   22.0090  -30.4625 H   0  0  0  0  0  0  0  0  0  0  0  0
    0.0315   21.6739  -29.9281 H   0  0  0  0  0  0  0  0  0  0  0  0
    0.8194   23.7955  -28.5142 H   0  0  0  0  0  0  0  0  0  0  0  0
   -1.2242   25.4358  -26.8667 H   0  0  0  0  0  0  0  0  0  0  0  0
   -0.3157   26.2731  -28.1707 H   0  0  0  0  0  0  0  0  0  0  0  0
   -2.1119   26.2951  -28.1707 H   0  0  0  0  0  0  0  0  0  0  0  0
   -7.5633   21.9348  -31.5418 H   0  0  0  0  0  0  0  0  0  0  0  0
  1  2  1  0
  2  3  1  0
  3  4  2  0
  4  5  1  0
  5  6  1  0
  6  7  1  0
  7  8  1  0
  8  9  1  0
  9 10  1  0
 10 11  2  0
 11 12  1  0
 12 13  2  0
 13 14  1  0
 14 15  1  0
  5 16  1  0
 16  2  2  0
 14 10  1  0
  1 17  1  0
  1 18  1  0
  1 19  1  0
  3 20  1  0
  6 21  1  0
  6 22  1  0
  7 23  1  0
  7 24  1  0
  8 25  1  0
  9 26  1  0
  9 27  1  0
 11 28  1  0
 12 29  1  0
 13 30  1  0
 15 31  1  0
 15 32  1  0
 15 33  1  0
 16 34  1  0
M  END
>  <UniqueID>  (8) 
8

>  <SMILES>  (8) 
Cc1cnn(CCNCc2cccn2C)c1

>  <Energy>  (8) 
82.7839063326513

>  <Genealogy>  (8) 
Cc1cnn(CCNCc2cccn2C)c1 (3D coordinates assigned)
Cc1cnn(CCNCc2cccn2C)c1 (optimized conformer: 82.7839063326513 kcal/mol)

>  <smiles>  (8) 
Cc1cnn(CCNCc2cccn2C)c1

>  <score_type>  (8) 
oracle

>  <origin>  (8) 
adg

>  <m_score__min__energy>  (8) 
-5.79

>  <m_primary>  (8) 
energy

$$$$
8:0
     RDKit          3D

 59 61  0  0  0  0  0  0  0  0999 V2000
   -5.8420   16.1560  -33.5830 C   0  0  0  0  0  0  0  0  0  0  0  0
   -7.2200   16.6970  -33.1750 C   0  0  0  0  0  0  0  0  0  0  0  0
   -7.1720   17.7580  -32.1440 N   0  0  0  0  0  0  0  0  0  0  0  0
   -6.2670   17.4170  -31.0330 C   0  0  0  0  0  0  0  0  0  0  0  0
   -8.5180   18.1480  -31.6690 C   0  0  0  0  0  0  0  0  0  0  0  0
   -9.0380   19.4100  -32.3870 C   0  0  0  0  0  0  0  0  0  0  0  0
   -8.1070   19.9320  -33.4070 N   0  0  0  0  0  0  0  0  0  0  0  0
   -7.0720   20.7660  -32.8300 C   0  0  0  0  0  0  0  0  0  0  0  0
   -7.4340   21.8930  -32.0820 C   0  0  0  0  0  0  0  0  0  0  0  0
   -6.4660   22.7440  -31.5660 C   0  0  0  0  0  0  0  0  0  0  0  0
   -5.1010   22.5050  -31.7830 C   0  0  0  0  0  0  0  0  0  0  0  0
   -4.1600   23.3890  -31.2390 O   0  0  0  0  0  0  0  0  0  0  0  0
   -3.6660   23.3430  -29.9250 C   0  0  0  0  0  0  0  0  0  0  0  0
   -3.7050   24.5090  -29.1570 C   0  0  0  0  0  0  0  0  0  0  0  0
   -3.2370   24.5020  -27.8440 C   0  0  0  0  0  0  0  0  0  0  0  0
   -2.7330   23.3280  -27.2830 C   0  0  0  0  0  0  0  0  0  0  0  0
   -2.7020   22.1310  -28.0270 C   0  0  0  0  0  0  0  0  0  0  0  0
   -2.1950   20.9040  -27.4410 N   0  0  0  0  0  0  0  0  0  0  0  0
   -0.7610   20.7440  -27.1730 C   0  0  0  0  0  0  0  0  0  0  0  0
   -3.1100   19.8070  -27.1000 C   0  0  0  0  0  0  0  0  0  0  0  0
   -3.1820   22.1540  -29.3530 C   0  0  0  0  0  0  0  0  0  0  0  0
   -4.6940   21.3500  -32.5050 C   0  0  0  0  0  0  0  0  0  0  0  0
   -3.3270   21.0190  -32.7620 C   0  0  0  0  0  0  0  0  0  0  0  0
   -2.1660   21.8690  -32.3060 C   0  0  0  0  0  0  0  0  0  0  0  0
   -3.0270   19.8510  -33.4790 C   0  0  0  0  0  0  0  0  0  0  0  0
   -4.0480   19.0300  -33.9380 C   0  0  0  0  0  0  0  0  0  0  0  0
   -5.3380   19.3590  -33.7030 N   0  0  0  0  0  0  0  0  0  0  0  0
   -5.6990   20.4790  -33.0180 C   0  0  0  0  0  0  0  0  0  0  0  0
   -5.2565   15.9261  -32.6806 H   0  0  0  0  0  0  0  0  0  0  0  0
   -5.9694   15.2411  -34.1803 H   0  0  0  0  0  0  0  0  0  0  0  0
   -5.3130   16.9132  -34.1803 H   0  0  0  0  0  0  0  0  0  0  0  0
   -7.7089   17.1077  -34.0707 H   0  0  0  0  0  0  0  0  0  0  0  0
   -7.7745   15.8541  -32.7369 H   0  0  0  0  0  0  0  0  0  0  0  0
   -6.7737   17.6079  -30.0755 H   0  0  0  0  0  0  0  0  0  0  0  0
   -5.9924   16.3537  -31.0969 H   0  0  0  0  0  0  0  0  0  0  0  0
   -5.3590   18.0347  -31.0969 H   0  0  0  0  0  0  0  0  0  0  0  0
   -9.2157   17.3187  -31.8574 H   0  0  0  0  0  0  0  0  0  0  0  0
   -8.4487   18.3715  -30.5942 H   0  0  0  0  0  0  0  0  0  0  0  0
   -9.9907   19.1635  -32.8785 H   0  0  0  0  0  0  0  0  0  0  0  0
   -9.1536   20.1929  -31.6230 H   0  0  0  0  0  0  0  0  0  0  0  0
   -8.6500   20.4290  -34.1490 H   0  0  0  0  0  0  0  0  0  0  0  0
   -7.6460   19.1180  -33.8780 H   0  0  0  0  0  0  0  0  0  0  0  0
   -8.4978   22.1066  -31.9011 H   0  0  0  0  0  0  0  0  0  0  0  0
   -6.7747   23.6203  -30.9771 H   0  0  0  0  0  0  0  0  0  0  0  0
   -4.1068   25.4369  -29.5902 H   0  0  0  0  0  0  0  0  0  0  0  0
   -3.2651   25.4259  -27.2476 H   0  0  0  0  0  0  0  0  0  0  0  0
   -2.3560   23.3366  -26.2497 H   0  0  0  0  0  0  0  0  0  0  0  0
   -0.5909   20.7250  -26.0864 H   0  0  0  0  0  0  0  0  0  0  0  0
   -0.4082   19.8009  -27.6159 H   0  0  0  0  0  0  0  0  0  0  0  0
   -0.2090   21.5861  -27.6159 H   0  0  0  0  0  0  0  0  0  0  0  0
   -3.1842   19.7180  -26.0061 H   0  0  0  0  0  0  0  0  0  0  0  0
   -4.1053   20.0159  -27.5192 H   0  0  0  0  0  0  0  0  0  0  0  0
   -2.7258   18.8654  -27.5192 H   0  0  0  0  0  0  0  0  0  0  0  0
   -3.1775   21.2286  -29.9477 H   0  0  0  0  0  0  0  0  0  0  0  0
   -2.1368   21.8904  -31.2066 H   0  0  0  0  0  0  0  0  0  0  0  0
   -1.2270   21.4433  -32.6895 H   0  0  0  0  0  0  0  0  0  0  0  0
   -2.2881   22.8927  -32.6895 H   0  0  0  0  0  0  0  0  0  0  0  0
   -1.9785   19.5847  -33.6783 H   0  0  0  0  0  0  0  0  0  0  0  0
   -3.8073   18.1114  -34.4931 H   0  0  0  0  0  0  0  0  0  0  0  0
  1  2  1  0
  2  3  1  0
  3  4  1  0
  3  5  1  0
  5  6  1  0
  6  7  1  0
  7  8  1  0
  8  9  2  0
  9 10  1  0
 10 11  2  0
 11 12  1  0
 12 13  1  0
 13 14  2  0
 14 15  1  0
 15 16  2  0
 16 17  1  0
 17 18  1  0
 18 19  1  0
 18 20  1  0
 17 21  2  0
 11 22  1  0
 22 23  2  0
 23 24  1  0
 23 25  1  0
 25 26  2  0
 26 27  1  0
 27 28  2  0
 28  8  1  0
 21 13  1  0
 28 22  1  0
  1 29  1  0
  1 30  1  0
  1 31  1  0
  2 32  1  0
  2 33  1  0
  4 34  1  0
  4 35  1  0
  4 36  1  0
  5 37  1  0
  5 38  1  0
  6 39  1  0
  6 40  1  0
  7 41  1  0
  7 42  1  0
  9 43  1  0
 10 44  1  0
 14 45  1  0
 15 46  1  0
 16 47  1  0
 19 48  1  0
 19 49  1  0
 19 50  1  0
 20 51  1  0
 20 52  1  0
 20 53  1  0
 21 54  1  0
 24 55  1  0
 24 56  1  0
 24 57  1  0
 25 58  1  0
 26 59  1  0
M  CHG  1   7   1
M  END
>  <UniqueID>  (9) 
9

>  <SMILES>  (9) 
CCN(C)CC[NH2+]c1ccc(Oc2cccc(N(C)C)c2)c2c(C)ccnc12

>  <Energy>  (9) 
78.01383008159064

>  <Genealogy>  (9) 
CCN(C)CC[NH2+]c1ccc(Oc2cccc(N(C)C)c2)c2c(C)ccnc12 (protonated)
CCN(C)CC[NH2+]c1ccc(Oc2cccc(N(C)C)c2)c2c(C)ccnc12 (3D coordinates assigned)
CCN(C)CC[NH2+]c1ccc(Oc2cccc(N(C)C)c2)c2c(C)ccnc12 (optimized conformer: 78.01383008159064 kcal/mol)

>  <smiles>  (9) 
CCN(C)CCNc1ccc(Oc2cccc(N(C)C)c2)c2c(C)ccnc12

>  <score_type>  (9) 
oracle

>  <origin>  (9) 
adg

>  <m_score__min__energy>  (9) 
-7.9699999999999998

>  <m_primary>  (9) 
energy

$$$$
9:0
     RDKit          3D

 84 87  0  0  0  0  0  0  0  0999 V2000
   -8.3850   18.2190  -32.0700 C   0  0  0  0  0  0  0  0  0  0  0  0
   -7.1050   17.8500  -31.3280 C   0  0  0  0  0  0  0  0  0  0  0  0
   -5.9710   18.0830  -32.1440 O   0  0  0  0  0  0  0  0  0  0  0  0
   -6.2950   17.9730  -33.5220 C   0  0  0  0  0  0  0  0  0  0  0  0
   -5.0290   18.0320  -34.3930 C   0  0  0  0  0  0  0  0  0  0  0  0
   -3.8570   18.0220  -33.6000 O   0  0  0  0  0  0  0  0  0  0  0  0
   -2.8960   18.9520  -34.0670 C   0  0  0  0  0  0  0  0  0  0  0  0
   -3.1230   20.3440  -33.4700 C   0  0  0  0  0  0  0  0  0  0  0  0
   -4.0680   20.3030  -32.3510 N   0  0  0  0  0  0  0  0  0  0  0  0
   -4.4980   21.4900  -31.6600 C   0  0  0  0  0  0  0  0  0  0  0  0
   -5.8540   21.8630  -31.6810 C   0  0  0  0  0  0  0  0  0  0  0  0
   -6.8000   21.1090  -32.4110 C   0  0  0  0  0  0  0  0  0  0  0  0
   -8.1540   21.4300  -32.3690 C   0  0  0  0  0  0  0  0  0  0  0  0
   -8.5930   22.4950  -31.5910 C   0  0  0  0  0  0  0  0  0  0  0  0
   -7.6760   23.2720  -30.8830 C   0  0  0  0  0  0  0  0  0  0  0  0
   -6.2830   23.0010  -30.9440 C   0  0  0  0  0  0  0  0  0  0  0  0
   -5.3570   23.8010  -30.2990 N   0  0  0  0  0  0  0  0  0  0  0  0
   -5.7650   25.1230  -29.7730 C   0  0  0  0  0  0  0  0  0  0  0  0
   -4.0400   23.3880  -30.1860 C   0  0  0  0  0  0  0  0  0  0  0  0
   -3.1170   24.0560  -29.3400 C   0  0  0  0  0  0  0  0  0  0  0  0
   -1.7590   23.6950  -29.3060 C   0  0  0  0  0  0  0  0  0  0  0  0
   -0.8170   24.3400  -28.4880 O   0  0  0  0  0  0  0  0  0  0  0  0
   -0.1460   23.7570  -27.3670 C   0  0  0  0  0  0  0  0  0  0  0  0
    0.7310   24.8220  -26.6570 C   0  0  0  0  0  0  0  0  0  0  0  0
    0.6830   24.8240  -25.1520 N   0  0  2  0  0  0  0  0  0  0  0  0
    1.0240   23.4700  -24.6390 C   0  0  0  0  0  0  0  0  0  0  0  0
   -0.7440   25.1240  -24.7820 C   0  0  0  0  0  0  0  0  0  0  0  0
   -1.2700   26.5450  -25.0860 C   0  0  0  0  0  0  0  0  0  0  0  0
   -0.8900   27.6750  -24.1130 C   0  0  0  0  0  0  0  0  0  0  0  0
    0.5470   28.0950  -24.1200 N   0  0  0  0  0  0  0  0  0  0  0  0
    0.6470   29.5370  -24.4630 C   0  0  0  0  0  0  0  0  0  0  0  0
    1.0550   27.9300  -22.7330 C   0  0  0  0  0  0  0  0  0  0  0  0
    1.4190   27.3010  -25.0520 C   0  0  0  0  0  0  0  0  0  0  0  0
    1.6690   25.8340  -24.6160 C   0  0  0  0  0  0  0  0  0  0  0  0
   -1.3150   22.6490  -30.1090 C   0  0  0  0  0  0  0  0  0  0  0  0
   -2.2070   21.9420  -30.9100 C   0  0  0  0  0  0  0  0  0  0  0  0
   -3.5810   22.2620  -30.9180 C   0  0  0  0  0  0  0  0  0  0  0  0
   -9.1777   18.4475  -31.3424 H   0  0  0  0  0  0  0  0  0  0  0  0
   -8.2016   19.1008  -32.7014 H   0  0  0  0  0  0  0  0  0  0  0  0
   -8.6991   17.3748  -32.7014 H   0  0  0  0  0  0  0  0  0  0  0  0
   -7.0264   18.4611  -30.4168 H   0  0  0  0  0  0  0  0  0  0  0  0
   -7.1413   16.7818  -31.0678 H   0  0  0  0  0  0  0  0  0  0  0  0
   -6.8066   17.0149  -33.6957 H   0  0  0  0  0  0  0  0  0  0  0  0
   -6.9483   18.8144  -33.7963 H   0  0  0  0  0  0  0  0  0  0  0  0
   -5.0149   17.1603  -35.0638 H   0  0  0  0  0  0  0  0  0  0  0  0
   -5.0488   18.9680  -34.9705 H   0  0  0  0  0  0  0  0  0  0  0  0
   -1.8926   18.6013  -33.7838 H   0  0  0  0  0  0  0  0  0  0  0  0
   -2.9917   19.0264  -35.1603 H   0  0  0  0  0  0  0  0  0  0  0  0
   -2.1615   20.7397  -33.1110 H   0  0  0  0  0  0  0  0  0  0  0  0
   -3.5454   20.9900  -34.2538 H   0  0  0  0  0  0  0  0  0  0  0  0
   -4.3510   19.3700  -31.9700 H   0  0  0  0  0  0  0  0  0  0  0  0
   -6.4624   20.2576  -33.0202 H   0  0  0  0  0  0  0  0  0  0  0  0
   -8.8770   20.8404  -32.9519 H   0  0  0  0  0  0  0  0  0  0  0  0
   -9.6670   22.7258  -31.5335 H   0  0  0  0  0  0  0  0  0  0  0  0
   -8.0377   24.1086  -30.2671 H   0  0  0  0  0  0  0  0  0  0  0  0
   -5.7574   25.0983  -28.6733 H   0  0  0  0  0  0  0  0  0  0  0  0
   -5.0622   25.8914  -30.1274 H   0  0  0  0  0  0  0  0  0  0  0  0
   -6.7786   25.3617  -30.1274 H   0  0  0  0  0  0  0  0  0  0  0  0
   -3.4722   24.8744  -28.6966 H   0  0  0  0  0  0  0  0  0  0  0  0
   -0.8921   23.3688  -26.6580 H   0  0  0  0  0  0  0  0  0  0  0  0
    0.4977   22.9375  -27.7193 H   0  0  0  0  0  0  0  0  0  0  0  0
    1.7750   24.6535  -26.9596 H   0  0  0  0  0  0  0  0  0  0  0  0
    0.3223   25.7952  -26.9667 H   0  0  0  0  0  0  0  0  0  0  0  0
    1.0207   23.4831  -23.5391 H   0  0  0  0  0  0  0  0  0  0  0  0
    0.2808   22.7435  -24.9993 H   0  0  0  0  0  0  0  0  0  0  0  0
    2.0227   23.1822  -24.9993 H   0  0  0  0  0  0  0  0  0  0  0  0
   -1.3830   24.4118  -25.3246 H   0  0  0  0  0  0  0  0  0  0  0  0
   -0.7759   25.0390  -23.6858 H   0  0  0  0  0  0  0  0  0  0  0  0
   -0.8940   26.8281  -26.0802 H   0  0  0  0  0  0  0  0  0  0  0  0
   -2.3632   26.4601  -24.9979 H   0  0  0  0  0  0  0  0  0  0  0  0
   -1.4987   28.5555  -24.3664 H   0  0  0  0  0  0  0  0  0  0  0  0
   -1.0752   27.2726  -23.1062 H   0  0  0  0  0  0  0  0  0  0  0  0
    0.6882   30.1318  -23.5386 H   0  0  0  0  0  0  0  0  0  0  0  0
    1.5594   29.7113  -25.0522 H   0  0  0  0  0  0  0  0  0  0  0  0
   -0.2326   29.8356  -25.0522 H   0  0  0  0  0  0  0  0  0  0  0  0
    0.2598   28.1883  -22.0181 H   0  0  0  0  0  0  0  0  0  0  0  0
    1.3631   26.8856  -22.5772 H   0  0  0  0  0  0  0  0  0  0  0  0
    1.9180   28.5940  -22.5772 H   0  0  0  0  0  0  0  0  0  0  0  0
    0.9387   27.2869  -26.0415 H   0  0  0  0  0  0  0  0  0  0  0  0
    2.4016   27.7955  -25.0539 H   0  0  0  0  0  0  0  0  0  0  0  0
    2.6730   25.5439  -24.9594 H   0  0  0  0  0  0  0  0  0  0  0  0
    1.5554   25.8186  -23.5220 H   0  0  0  0  0  0  0  0  0  0  0  0
   -0.2488   22.3783  -30.1108 H   0  0  0  0  0  0  0  0  0  0  0  0
   -1.8361   21.1237  -31.5446 H   0  0  0  0  0  0  0  0  0  0  0  0
  1  2  1  0
  2  3  1  0
  3  4  1  0
  4  5  1  0
  5  6  1  0
  6  7  1  0
  7  8  1  0
  8  9  1  0
  9 10  1  0
 10 11  2  0
 11 12  1  0
 12 13  2  0
 13 14  1  0
 14 15  2  0
 15 16  1  0
 16 17  2  0
 17 18  1  0
 17 19  1  0
 19 20  2  0
 20 21  1  0
 21 22  1  0
 22 23  1  0
 23 24  1  0
 25 24  1  6
 25 26  1  0
 25 27  1  0
 27 28  1  0
 28 29  1  0
 29 30  1  0
 30 31  1  0
 30 32  1  0
 30 33  1  0
 33 34  1  0
 21 35  2  0
 35 36  1  0
 36 37  2  0
 37 10  1  0
 16 11  1  0
 37 19  1  0
 34 25  1  0
  1 38  1  0
  1 39  1  0
  1 40  1  0
  2 41  1  0
  2 42  1  0
  4 43  1  0
  4 44  1  0
  5 45  1  0
  5 46  1  0
  7 47  1  0
  7 48  1  0
  8 49  1  0
  8 50  1  0
  9 51  1  0
 12 52  1  0
 13 53  1  0
 14 54  1  0
 15 55  1  0
 18 56  1  0
 18 57  1  0
 18 58  1  0
 20 59  1  0
 23 60  1  0
 23 61  1  0
 24 62  1  0
 24 63  1  0
 26 64  1  0
 26 65  1  0
 26 66  1  0
 27 67  1  0
 27 68  1  0
 28 69  1  0
 28 70  1  0
 29 71  1  0
 29 72  1  0
 31 73  1  0
 31 74  1  0
 31 75  1  0
 32 76  1  0
 32 77  1  0
 32 78  1  0
 33 79  1  0
 33 80  1  0
 34 81  1  0
 34 82  1  0
 35 83  1  0
 36 84  1  0
M  CHG  3  17   1  25   1  30   1
M  END
>  <UniqueID>  (10) 
10

>  <SMILES>  (10) 
CCOCCOCCNc1c2ccccc2[n+](C)c2cc(OCC[N@+]3(C)CCC[N+](C)(C)CC3)ccc12

>  <Energy>  (10) 
153.69680894434694

>  <Genealogy>  (10) 
CCOCCOCCNc1c2ccccc2[n+](C)c2cc(OCC[N@+]3(C)CCC[N+](C)(C)CC3)ccc12 (chirality)
CCOCCOCCNc1c2ccccc2[n+](C)c2cc(OCC[N@+]3(C)CCC[N+](C)(C)CC3)ccc12 (3D coordinates assigned)
CCOCCOCCNc1c2ccccc2[n+](C)c2cc(OCC[N@+]3(C)CCC[N+](C)(C)CC3)ccc12 (nonaromatic ring conformer: 153.69680894434694 kcal/mol)

>  <smiles>  (10) 
CCOCCOCCNc1c2ccccc2[n+](C)c2cc(OCC[N+]3(C)CCC[N+](C)(C)CC3)ccc12

>  <score_type>  (10) 
oracle

>  <origin>  (10) 
adg

>  <m_score__min__energy>  (10) 
-6.4000000000000004

>  <m_primary>  (10) 
energy

$$$$
10:0
     RDKit          3D

 43 44  0  0  0  0  0  0  0  0999 V2000
   -3.2610   18.8970  -26.3450 C   0  0  0  0  0  0  0  0  0  0  0  0
   -2.0210   19.3370  -26.5780 C   0  0  0  0  0  0  0  0  0  0  0  0
   -1.7550   20.6990  -27.1760 C   0  0  0  0  0  0  0  0  0  0  0  0
   -1.1870   20.6190  -28.5490 N   0  0  2  0  0  0  0  0  0  0  0  0
    0.0090   19.7550  -28.5340 C   0  0  0  0  0  0  0  0  0  0  0  0
   -0.8140   21.9510  -29.0940 C   0  0  0  0  0  0  0  0  0  0  0  0
   -2.0230   22.7960  -29.4790 C   0  0  0  0  0  0  0  0  0  0  0  0
   -2.0280   24.2060  -29.3160 C   0  0  0  0  0  0  0  0  0  0  0  0
   -0.8900   24.9530  -28.6810 C   0  0  0  0  0  0  0  0  0  0  0  0
   -3.1090   24.9260  -29.7160 N   0  0  0  0  0  0  0  0  0  0  0  0
   -4.2090   24.3550  -30.2650 C   0  0  0  0  0  0  0  0  0  0  0  0
   -5.2820   25.1570  -30.6620 C   0  0  0  0  0  0  0  0  0  0  0  0
   -6.4210   24.5770  -31.2250 C   0  0  0  0  0  0  0  0  0  0  0  0
   -6.5050   23.1920  -31.3990 C   0  0  0  0  0  0  0  0  0  0  0  0
   -7.6770   22.6700  -31.9730 O   0  0  0  0  0  0  0  0  0  0  0  0
   -8.6370   21.8490  -31.3070 C   0  0  0  0  0  0  0  0  0  0  0  0
   -8.7130   20.4710  -31.9550 C   0  0  0  0  0  0  0  0  0  0  0  0
   -5.4280   22.3800  -30.9910 C   0  0  0  0  0  0  0  0  0  0  0  0
   -4.2730   22.9570  -30.4250 C   0  0  0  0  0  0  0  0  0  0  0  0
   -3.1750   22.1770  -30.0180 C   0  0  0  0  0  0  0  0  0  0  0  0
   -3.2160   20.9210  -30.1430 O   0  0  0  0  0  0  0  0  0  0  0  0
   -3.4177   17.8996  -25.9084 H   0  0  0  0  0  0  0  0  0  0  0  0
   -4.1251   19.5322  -26.5898 H   0  0  0  0  0  0  0  0  0  0  0  0
   -1.1686   18.6886  -26.3271 H   0  0  0  0  0  0  0  0  0  0  0  0
   -2.7023   21.2565  -27.2184 H   0  0  0  0  0  0  0  0  0  0  0  0
   -1.0154   21.2048  -26.5380 H   0  0  0  0  0  0  0  0  0  0  0  0
   -1.8740   20.1590  -29.1870 H   0  0  0  0  0  0  0  0  0  0  0  0
    0.2977   19.5465  -27.4932 H   0  0  0  0  0  0  0  0  0  0  0  0
   -0.2155   18.8092  -29.0488 H   0  0  0  0  0  0  0  0  0  0  0  0
    0.8364   20.2652  -29.0488 H   0  0  0  0  0  0  0  0  0  0  0  0
   -0.2361   22.4929  -28.3308 H   0  0  0  0  0  0  0  0  0  0  0  0
   -0.2269   21.7801  -30.0084 H   0  0  0  0  0  0  0  0  0  0  0  0
   -0.9787   24.8948  -27.5861 H   0  0  0  0  0  0  0  0  0  0  0  0
    0.0639   24.5048  -28.9959 H   0  0  0  0  0  0  0  0  0  0  0  0
   -0.9218   26.0065  -28.9959 H   0  0  0  0  0  0  0  0  0  0  0  0
   -5.2296   26.2479  -30.5308 H   0  0  0  0  0  0  0  0  0  0  0  0
   -7.2608   25.2164  -31.5348 H   0  0  0  0  0  0  0  0  0  0  0  0
   -8.3453   21.7361  -30.2524 H   0  0  0  0  0  0  0  0  0  0  0  0
   -9.6240   22.3289  -31.3819 H   0  0  0  0  0  0  0  0  0  0  0  0
   -8.7556   19.6995  -31.1721 H   0  0  0  0  0  0  0  0  0  0  0  0
   -9.6159   20.4091  -32.5802 H   0  0  0  0  0  0  0  0  0  0  0  0
   -7.8224   20.3102  -32.5802 H   0  0  0  0  0  0  0  0  0  0  0  0
   -5.4889   21.2887  -31.1150 H   0  0  0  0  0  0  0  0  0  0  0  0
  1  2  2  0
  2  3  1  0
  3  4  1  0
  4  5  1  0
  4  6  1  0
  6  7  1  0
  7  8  2  0
  8  9  1  0
  8 10  1  0
 10 11  1  0
 11 12  2  0
 12 13  1  0
 13 14  2  0
 14 15  1  0
 15 16  1  0
 16 17  1  0
 14 18  1  0
 18 19  2  0
 19 20  1  0
 20 21  2  0
 20  7  1  0
 19 11  1  0
  1 22  1  0
  1 23  1  0
  2 24  1  0
  3 25  1  0
  3 26  1  0
  4 27  1  6
  5 28  1  0
  5 29  1  0
  5 30  1  0
  6 31  1  0
  6 32  1  0
  9 33  1  0
  9 34  1  0
  9 35  1  0
 12 36  1  0
 13 37  1  0
 16 38  1  0
 16 39  1  0
 17 40  1  0
 17 41  1  0
 17 42  1  0
 18 43  1  0
M  CHG  2   4   1  10  -1
M  END
>  <UniqueID>  (11) 
11

>  <SMILES>  (11) 
C=CC[N@H+](C)Cc1c(C)[n-]c2ccc(OCC)cc2c1=O

>  <Energy>  (11) 
47.31257220147251

>  <Genealogy>  (11) 
C=CC[NH+](C)Cc1c(C)[n-]c2ccc(OCC)cc2c1=O (protonated)
C=CC[N@H+](C)Cc1c(C)[n-]c2ccc(OCC)cc2c1=O (chirality)
C=CC[N@H+](C)Cc1c(C)[n-]c2ccc(OCC)cc2c1=O (3D coordinates assigned)
C=CC[N@H+](C)Cc1c(C)[n-]c2ccc(OCC)cc2c1=O (optimized conformer: 47.31257220147251 kcal/mol)

>  <smiles>  (11) 
C=CCN(C)Cc1c(C)[nH]c2ccc(OCC)cc2c1=O

>  <score_type>  (11) 
oracle

>  <origin>  (11) 
adg

>  <m_score__min__energy>  (11) 
-7.1900000000000004

>  <m_primary>  (11) 
energy

$$$$
11:0
     RDKit          3D

 31 32  0  0  0  0  0  0  0  0999 V2000
   -2.8870   23.3660  -27.9480 C   0  0  0  0  0  0  0  0  0  0  0  0
   -2.3230   23.9980  -29.2110 C   0  0  0  0  0  0  0  0  0  0  0  0
   -2.8420   25.2970  -29.3530 O   0  0  0  0  0  0  0  0  0  0  0  0
   -3.5840   25.2910  -30.4910 N   0  0  0  0  0  0  0  0  0  0  0  0
   -5.0000   25.1050  -30.4520 C   0  0  0  0  0  0  0  0  0  0  0  0
   -5.7720   26.0970  -30.5530 O   0  0  0  0  0  0  0  0  0  0  0  0
   -5.5670   23.7350  -30.2430 C   0  0  0  0  0  0  0  0  0  0  0  0
   -5.6220   22.9450  -31.5550 C   0  0  0  0  0  0  0  0  0  0  0  0
   -6.9400   22.3340  -31.7460 N   0  0  0  0  0  0  0  0  0  0  0  0
   -8.1390   22.9620  -31.6800 C   0  0  0  0  0  0  0  0  0  0  0  0
   -9.1950   22.1210  -31.8300 N   0  0  0  0  0  0  0  0  0  0  0  0
   -8.6070   20.9200  -31.9880 C   0  0  0  0  0  0  0  0  0  0  0  0
   -9.2290   19.6870  -32.1660 C   0  0  0  0  0  0  0  0  0  0  0  0
   -8.4090   18.5500  -32.2890 C   0  0  0  0  0  0  0  0  0  0  0  0
   -7.0020   18.6730  -32.2290 C   0  0  0  0  0  0  0  0  0  0  0  0
   -6.4030   19.9330  -32.0480 C   0  0  0  0  0  0  0  0  0  0  0  0
   -7.2480   21.0400  -31.9330 C   0  0  0  0  0  0  0  0  0  0  0  0
   -2.4495   23.8563  -27.0658 H   0  0  0  0  0  0  0  0  0  0  0  0
   -3.9798   23.4903  -27.9323 H   0  0  0  0  0  0  0  0  0  0  0  0
   -2.6396   22.2943  -27.9323 H   0  0  0  0  0  0  0  0  0  0  0  0
   -1.2264   24.0464  -29.1394 H   0  0  0  0  0  0  0  0  0  0  0  0
   -2.6053   23.3912  -30.0840 H   0  0  0  0  0  0  0  0  0  0  0  0
   -4.9349   23.1921  -29.5248 H   0  0  0  0  0  0  0  0  0  0  0  0
   -6.5927   23.8402  -29.8597 H   0  0  0  0  0  0  0  0  0  0  0  0
   -5.4165   23.6263  -32.3938 H   0  0  0  0  0  0  0  0  0  0  0  0
   -4.8679   22.1452  -31.5140 H   0  0  0  0  0  0  0  0  0  0  0  0
   -8.2464   24.0451  -31.5208 H   0  0  0  0  0  0  0  0  0  0  0  0
  -10.3251   19.6044  -32.2090 H   0  0  0  0  0  0  0  0  0  0  0  0
   -8.8656   17.5596  -32.4327 H   0  0  0  0  0  0  0  0  0  0  0  0
   -6.3710   17.7771  -32.3245 H   0  0  0  0  0  0  0  0  0  0  0  0
   -5.3096   20.0428  -31.9988 H   0  0  0  0  0  0  0  0  0  0  0  0
  1  2  1  0
  2  3  1  0
  3  4  1  0
  4  5  1  0
  5  6  2  0
  5  7  1  0
  7  8  1  0
  8  9  1  0
  9 10  1  0
 10 11  2  0
 11 12  1  0
 12 13  2  0
 13 14  1  0
 14 15  2  0
 15 16  1  0
 16 17  2  0
 17  9  1  0
 17 12  1  0
  1 18  1  0
  1 19  1  0
  1 20  1  0
  2 21  1  0
  2 22  1  0
  7 23  1  0
  7 24  1  0
  8 25  1  0
  8 26  1  0
 10 27  1  0
 13 28  1  0
 14 29  1  0
 15 30  1  0
 16 31  1  0
M  CHG  1   4  -1
M  END
>  <UniqueID>  (12) 
12

>  <SMILES>  (12) 
CCO[N-]C(=O)CCn1cnc2ccccc21

>  <Energy>  (12) 
59.062243504709464

>  <Genealogy>  (12) 
CCO[N-]C(=O)CCn1cnc2ccccc21 (protonated)
CCO[N-]C(=O)CCn1cnc2ccccc21 (3D coordinates assigned)
CCO[N-]C(=O)CCn1cnc2ccccc21 (optimized conformer: 59.062243504709464 kcal/mol)

>  <smiles>  (12) 
CCONC(=O)CCn1cnc2ccccc21

>  <score_type>  (12) 
oracle

>  <origin>  (12) 
adg

>  <m_score__min__energy>  (12) 
-9.2400000000000002

>  <m_primary>  (12) 
energy

$$$$
12:0
     RDKit          3D

 47 49  0  0  0  0  0  0  0  0999 V2000
   -6.8380   16.4870  -33.6050 C   0  0  0  0  0  0  0  0  0  0  0  0
   -6.5340   17.3330  -32.3720 C   0  0  0  0  0  0  0  0  0  0  0  0
   -6.3520   18.7510  -32.7080 N   0  0  0  0  0  0  0  0  0  0  0  0
   -7.3000   19.7160  -32.7860 C   0  0  0  0  0  0  0  0  0  0  0  0
   -8.9870   19.5750  -32.1880 S   0  0  0  0  0  0  0  0  0  0  0  0
   -8.8180   20.8230  -30.8580 C   0  0  0  0  0  0  0  0  0  0  0  0
   -8.9820   22.2630  -31.3630 C   0  0  0  0  0  0  0  0  0  0  0  0
   -7.8260   22.7140  -32.0710 O   0  0  0  0  0  0  0  0  0  0  0  0
   -6.7310   23.3920  -31.5050 C   0  0  0  0  0  0  0  0  0  0  0  0
   -6.8720   24.5580  -30.7310 C   0  0  0  0  0  0  0  0  0  0  0  0
   -5.7530   25.1530  -30.1390 C   0  0  0  0  0  0  0  0  0  0  0  0
   -4.4720   24.6000  -30.3270 C   0  0  0  0  0  0  0  0  0  0  0  0
   -3.3230   25.1440  -29.7350 O   0  0  0  0  0  0  0  0  0  0  0  0
   -2.6070   24.5380  -28.6640 C   0  0  0  0  0  0  0  0  0  0  0  0
   -4.3320   23.4630  -31.1300 C   0  0  0  0  0  0  0  0  0  0  0  0
   -5.4500   22.8700  -31.7200 C   0  0  0  0  0  0  0  0  0  0  0  0
   -6.8560   20.8070  -33.4430 N   0  0  0  0  0  0  0  0  0  0  0  0
   -5.6070   20.5470  -33.7840 N   0  0  0  0  0  0  0  0  0  0  0  0
   -5.2960   19.3180  -33.3380 C   0  0  0  0  0  0  0  0  0  0  0  0
   -3.9850   18.6890  -33.5650 C   0  0  0  0  0  0  0  0  0  0  0  0
   -3.7700   17.4830  -34.1970 C   0  0  0  0  0  0  0  0  0  0  0  0
   -2.3990   17.3250  -34.2450 C   0  0  0  0  0  0  0  0  0  0  0  0
   -1.8100   18.3700  -33.7070 O   0  0  0  0  0  0  0  0  0  0  0  0
   -2.7310   19.2150  -33.3040 C   0  0  0  0  0  0  0  0  0  0  0  0
   -2.4190   20.5390  -32.6850 C   0  0  0  0  0  0  0  0  0  0  0  0
   -7.1944   15.4951  -33.2903 H   0  0  0  0  0  0  0  0  0  0  0  0
   -7.6146   16.9818  -34.2068 H   0  0  0  0  0  0  0  0  0  0  0  0
   -5.9241   16.3743  -34.2068 H   0  0  0  0  0  0  0  0  0  0  0  0
   -7.3701   17.2406  -31.6632 H   0  0  0  0  0  0  0  0  0  0  0  0
   -5.5956   16.9655  -31.9312 H   0  0  0  0  0  0  0  0  0  0  0  0
   -9.5868   20.6291  -30.0956 H   0  0  0  0  0  0  0  0  0  0  0  0
   -7.8013   20.7317  -30.4481 H   0  0  0  0  0  0  0  0  0  0  0  0
   -9.8509   22.3071  -32.0361 H   0  0  0  0  0  0  0  0  0  0  0  0
   -9.1235   22.9166  -30.4896 H   0  0  0  0  0  0  0  0  0  0  0  0
   -7.8675   25.0043  -30.5905 H   0  0  0  0  0  0  0  0  0  0  0  0
   -5.8744   26.0568  -29.5239 H   0  0  0  0  0  0  0  0  0  0  0  0
   -3.0181   24.8859  -27.7049 H   0  0  0  0  0  0  0  0  0  0  0  0
   -2.7051   23.4444  -28.7298 H   0  0  0  0  0  0  0  0  0  0  0  0
   -1.5446   24.8155  -28.7298 H   0  0  0  0  0  0  0  0  0  0  0  0
   -3.3336   23.0329  -31.2979 H   0  0  0  0  0  0  0  0  0  0  0  0
   -5.3230   21.9843  -32.3598 H   0  0  0  0  0  0  0  0  0  0  0  0
   -4.9860   21.2020  -34.3100 H   0  0  0  0  0  0  0  0  0  0  0  0
   -4.5323   16.7903  -34.5830 H   0  0  0  0  0  0  0  0  0  0  0  0
   -1.8775   16.4547  -34.6700 H   0  0  0  0  0  0  0  0  0  0  0  0
   -2.4410   20.4457  -31.5892 H   0  0  0  0  0  0  0  0  0  0  0  0
   -1.4190   20.8669  -33.0051 H   0  0  0  0  0  0  0  0  0  0  0  0
   -3.1674   21.2789  -33.0051 H   0  0  0  0  0  0  0  0  0  0  0  0
  1  2  1  0
  2  3  1  0
  3  4  1  0
  4  5  1  0
  5  6  1  0
  6  7  1  0
  7  8  1  0
  8  9  1  0
  9 10  2  0
 10 11  1  0
 11 12  2  0
 12 13  1  0
 13 14  1  0
 12 15  1  0
 15 16  2  0
  4 17  2  0
 17 18  1  0
 18 19  2  0
 19 20  1  0
 20 21  1  0
 21 22  2  0
 22 23  1  0
 23 24  1  0
 24 25  1  0
 19  3  1  0
 24 20  2  0
 16  9  1  0
  1 26  1  0
  1 27  1  0
  1 28  1  0
  2 29  1  0
  2 30  1  0
  6 31  1  0
  6 32  1  0
  7 33  1  0
  7 34  1  0
 10 35  1  0
 11 36  1  0
 14 37  1  0
 14 38  1  0
 14 39  1  0
 15 40  1  0
 16 41  1  0
 18 42  1  0
 21 43  1  0
 22 44  1  0
 25 45  1  0
 25 46  1  0
 25 47  1  0
M  CHG  1  18   1
M  END
>  <UniqueID>  (13) 
13

>  <SMILES>  (13) 
CCn1c(SCCOc2ccc(OC)cc2)n[nH+]c1-c1ccoc1C

>  <Energy>  (13) 
104.38005490315226

>  <Genealogy>  (13) 
CCn1c(SCCOc2ccc(OC)cc2)n[nH+]c1-c1ccoc1C (protonated)
CCn1c(SCCOc2ccc(OC)cc2)n[nH+]c1-c1ccoc1C (3D coordinates assigned)
CCn1c(SCCOc2ccc(OC)cc2)n[nH+]c1-c1ccoc1C (optimized conformer: 104.38005490315226 kcal/mol)

>  <smiles>  (13) 
CCn1c(SCCOc2ccc(OC)cc2)nnc1-c1ccoc1C

>  <score_type>  (13) 
oracle

>  <origin>  (13) 
adg

>  <m_score__min__energy>  (13) 
-7.7400000000000002

>  <m_primary>  (13) 
energy

$$$$
13:0
     RDKit          3D

 64 66  0  0  0  0  0  0  0  0999 V2000
    0.3960   20.1200  -31.4710 C   0  0  0  0  0  0  0  0  0  0  0  0
   -0.4860   18.8810  -31.3300 C   0  0  0  0  0  0  0  0  0  0  0  0
   -1.5130   18.8910  -32.3020 O   0  0  0  0  0  0  0  0  0  0  0  0
   -2.1930   20.1330  -32.3210 C   0  0  0  0  0  0  0  0  0  0  0  0
   -2.2030   20.7120  -33.7340 C   0  0  0  0  0  0  0  0  0  0  0  0
   -1.3380   19.9450  -34.5520 O   0  0  0  0  0  0  0  0  0  0  0  0
   -0.1580   20.6530  -34.8800 C   0  0  0  0  0  0  0  0  0  0  0  0
    0.8330   19.7700  -35.6530 C   0  0  0  0  0  0  0  0  0  0  0  0
    1.3740   18.6270  -34.7840 C   0  0  0  0  0  0  0  0  0  0  0  0
    0.2890   17.7110  -34.4060 N   0  0  0  0  0  0  0  0  0  0  0  0
   -0.0850   16.8160  -35.5180 C   0  0  0  0  0  0  0  0  0  0  0  0
   -1.6060   16.5930  -35.6220 C   0  0  0  0  0  0  0  0  0  0  0  0
   -2.3000   17.0540  -34.4110 N   0  0  0  0  0  0  0  0  0  0  0  0
   -2.3030   16.0260  -33.3630 C   0  0  0  0  0  0  0  0  0  0  0  0
   -3.7360   15.5260  -33.1350 C   0  0  0  0  0  0  0  0  0  0  0  0
   -4.6770   16.0430  -34.1420 N   0  0  0  0  0  0  0  0  0  0  0  0
   -5.4960   17.1050  -33.6070 C   0  0  0  0  0  0  0  0  0  0  0  0
   -6.8280   16.8550  -33.2240 C   0  0  0  0  0  0  0  0  0  0  0  0
   -7.6200   17.8790  -32.6970 C   0  0  0  0  0  0  0  0  0  0  0  0
   -7.0920   19.1640  -32.5480 C   0  0  0  0  0  0  0  0  0  0  0  0
   -7.8550   20.1700  -32.0440 N   0  0  0  0  0  0  0  0  0  0  0  0
   -7.3530   21.4250  -31.8980 C   0  0  0  0  0  0  0  0  0  0  0  0
   -8.1470   22.4540  -31.3820 C   0  0  0  0  0  0  0  0  0  0  0  0
   -7.6160   23.7410  -31.2430 C   0  0  0  0  0  0  0  0  0  0  0  0
   -6.2910   24.0000  -31.6160 C   0  0  0  0  0  0  0  0  0  0  0  0
   -5.4920   22.9760  -32.1310 C   0  0  0  0  0  0  0  0  0  0  0  0
   -6.0180   21.6860  -32.2740 C   0  0  0  0  0  0  0  0  0  0  0  0
   -5.2540   20.6790  -32.7760 N   0  0  0  0  0  0  0  0  0  0  0  0
   -5.7590   19.4250  -32.9240 C   0  0  0  0  0  0  0  0  0  0  0  0
   -4.9660   18.3990  -33.4480 C   0  0  0  0  0  0  0  0  0  0  0  0
    0.6633   20.4954  -30.4722 H   0  0  0  0  0  0  0  0  0  0  0  0
    1.3117   19.8576  -32.0212 H   0  0  0  0  0  0  0  0  0  0  0  0
   -0.1517   20.8993  -32.0212 H   0  0  0  0  0  0  0  0  0  0  0  0
    0.1309   17.9803  -31.4645 H   0  0  0  0  0  0  0  0  0  0  0  0
   -0.9431   18.8817  -30.3295 H   0  0  0  0  0  0  0  0  0  0  0  0
   -3.2291   19.9843  -31.9827 H   0  0  0  0  0  0  0  0  0  0  0  0
   -1.6741   20.8345  -31.6512 H   0  0  0  0  0  0  0  0  0  0  0  0
   -3.2244   20.6750  -34.1407 H   0  0  0  0  0  0  0  0  0  0  0  0
   -1.8621   21.7576  -33.7099 H   0  0  0  0  0  0  0  0  0  0  0  0
   -0.4232   21.5209  -35.5016 H   0  0  0  0  0  0  0  0  0  0  0  0
    0.3232   20.9734  -33.9441 H   0  0  0  0  0  0  0  0  0  0  0  0
    0.3212   19.3413  -36.5273 H   0  0  0  0  0  0  0  0  0  0  0  0
    1.6824   20.3974  -35.9610 H   0  0  0  0  0  0  0  0  0  0  0  0
    2.1363   18.0714  -35.3499 H   0  0  0  0  0  0  0  0  0  0  0  0
    1.8154   19.0523  -33.8706 H   0  0  0  0  0  0  0  0  0  0  0  0
   -0.5440   18.2660  -34.0960 H   0  0  0  0  0  0  0  0  0  0  0  0
    0.2701   17.2593  -36.4600 H   0  0  0  0  0  0  0  0  0  0  0  0
    0.3798   15.8378  -35.3253 H   0  0  0  0  0  0  0  0  0  0  0  0
   -1.9909   17.1500  -36.4890 H   0  0  0  0  0  0  0  0  0  0  0  0
   -1.7906   15.5148  -35.7374 H   0  0  0  0  0  0  0  0  0  0  0  0
   -1.7830   17.8860  -34.0380 H   0  0  0  0  0  0  0  0  0  0  0  0
   -1.6669   15.1843  -33.6743 H   0  0  0  0  0  0  0  0  0  0  0  0
   -1.9137   16.4564  -32.4286 H   0  0  0  0  0  0  0  0  0  0  0  0
   -3.7382   14.4269  -33.1806 H   0  0  0  0  0  0  0  0  0  0  0  0
   -4.0654   15.8889  -32.1502 H   0  0  0  0  0  0  0  0  0  0  0  0
   -5.2720   15.2650  -34.5120 H   0  0  0  0  0  0  0  0  0  0  0  0
   -4.1280   16.4170  -34.9520 H   0  0  0  0  0  0  0  0  0  0  0  0
   -7.2486   15.8453  -33.3406 H   0  0  0  0  0  0  0  0  0  0  0  0
   -8.6589   17.6733  -32.3996 H   0  0  0  0  0  0  0  0  0  0  0  0
   -9.1870   22.2520  -31.0860 H   0  0  0  0  0  0  0  0  0  0  0  0
   -8.2408   24.5516  -30.8397 H   0  0  0  0  0  0  0  0  0  0  0  0
   -5.8780   25.0132  -31.5031 H   0  0  0  0  0  0  0  0  0  0  0  0
   -4.4519   23.1827  -32.4235 H   0  0  0  0  0  0  0  0  0  0  0  0
   -3.9246   18.6041  -33.7368 H   0  0  0  0  0  0  0  0  0  0  0  0
  1  2  1  0
  2  3  1  0
  3  4  1  0
  4  5  1  0
  5  6  1  0
  6  7  1  0
  7  8  1  0
  8  9  1  0
  9 10  1  0
 10 11  1  0
 11 12  1  0
 12 13  1  0
 13 14  1  0
 14 15  1  0
 15 16  1  0
 16 17  1  0
 17 18  2  0
 18 19  1  0
 19 20  2  0
 20 21  1  0
 21 22  2  0
 22 23  1  0
 23 24  2  0
 24 25  1  0
 25 26  2  0
 26 27  1  0
 27 28  2  0
 28 29  1  0
 29 30  2  0
 30 17  1  0
 29 20  1  0
 27 22  1  0
  1 31  1  0
  1 32  1  0
  1 33  1  0
  2 34  1  0
  2 35  1  0
  4 36  1  0
  4 37  1  0
  5 38  1  0
  5 39  1  0
  7 40  1  0
  7 41  1  0
  8 42  1  0
  8 43  1  0
  9 44  1  0
  9 45  1  0
 10 46  1  0
 11 47  1  0
 11 48  1  0
 12 49  1  0
 12 50  1  0
 13 51  1  0
 14 52  1  0
 14 53  1  0
 15 54  1  0
 15 55  1  0
 16 56  1  0
 16 57  1  0
 18 58  1  0
 19 59  1  0
 23 60  1  0
 24 61  1  0
 25 62  1  0
 26 63  1  0
 30 64  1  0
M  CHG  1  16   1
M  END
>  <UniqueID>  (14) 
14

>  <SMILES>  (14) 
CCOCCOCCCNCCNCC[NH2+]c1ccc2nc3ccccc3nc2c1

>  <Energy>  (14) 
65.67857837680927

>  <Genealogy>  (14) 
CCOCCOCCCNCCNCC[NH2+]c1ccc2nc3ccccc3nc2c1 (protonated)
CCOCCOCCCNCCNCC[NH2+]c1ccc2nc3ccccc3nc2c1 (3D coordinates assigned)
CCOCCOCCCNCCNCC[NH2+]c1ccc2nc3ccccc3nc2c1 (optimized conformer: 65.67857837680927 kcal/mol)

>  <smiles>  (14) 
CCOCCOCCCNCCNCCNc1ccc2nc3ccccc3nc2c1

>  <score_type>  (14) 
oracle

>  <origin>  (14) 
adg

>  <m_score__min__energy>  (14) 
-6.9500000000000002

>  <m_primary>  (14) 
energy

$$$$
14:0
     RDKit          3D

 35 36  0  0  0  0  0  0  0  0999 V2000
   -9.4670   23.4260  -32.3440 C   0  0  0  0  0  0  0  0  0  0  0  0
   -9.4240   22.2860  -31.6510 C   0  0  0  0  0  0  0  0  0  0  0  0
   -8.1650   21.8490  -30.9530 C   0  0  0  0  0  0  0  0  0  0  0  0
   -7.3420   20.9940  -31.8360 N   0  0  0  0  0  0  0  0  0  0  0  0
   -6.2300   21.4850  -32.4860 C   0  0  0  0  0  0  0  0  0  0  0  0
   -5.7110   23.2090  -32.3580 S   0  0  0  0  0  0  0  0  0  0  0  0
   -5.1410   23.1100  -30.6220 C   0  0  0  0  0  0  0  0  0  0  0  0
   -3.8620   23.9070  -30.3990 C   0  0  0  0  0  0  0  0  0  0  0  0
   -4.0770   25.2470  -30.7880 O   0  0  0  0  0  0  0  0  0  0  0  0
   -5.3720   25.6440  -30.3960 C   0  0  0  0  0  0  0  0  0  0  0  0
   -5.4590   20.6610  -33.2400 N   0  0  0  0  0  0  0  0  0  0  0  0
   -5.7660   19.3550  -33.4110 C   0  0  0  0  0  0  0  0  0  0  0  0
   -4.9500   18.5410  -34.2060 C   0  0  0  0  0  0  0  0  0  0  0  0
   -5.2720   17.1950  -34.3910 C   0  0  0  0  0  0  0  0  0  0  0  0
   -6.4100   16.6560  -33.7830 C   0  0  0  0  0  0  0  0  0  0  0  0
   -7.2290   17.4630  -32.9870 C   0  0  0  0  0  0  0  0  0  0  0  0
   -6.9110   18.8220  -32.7960 C   0  0  0  0  0  0  0  0  0  0  0  0
   -7.6960   19.6740  -32.0000 C   0  0  0  0  0  0  0  0  0  0  0  0
   -8.7280   19.2170  -31.4310 O   0  0  0  0  0  0  0  0  0  0  0  0
  -10.3969   23.7288  -32.8476 H   0  0  0  0  0  0  0  0  0  0  0  0
   -8.5725   24.0627  -32.4115 H   0  0  0  0  0  0  0  0  0  0  0  0
  -10.3236   21.6559  -31.5893 H   0  0  0  0  0  0  0  0  0  0  0  0
   -7.5835   22.7384  -30.6687 H   0  0  0  0  0  0  0  0  0  0  0  0
   -8.4412   21.2692  -30.0599 H   0  0  0  0  0  0  0  0  0  0  0  0
   -5.9282   23.5094  -29.9657 H   0  0  0  0  0  0  0  0  0  0  0  0
   -4.9306   22.0552  -30.3913 H   0  0  0  0  0  0  0  0  0  0  0  0
   -3.5877   23.8723  -29.3343 H   0  0  0  0  0  0  0  0  0  0  0  0
   -3.0473   23.4741  -30.9981 H   0  0  0  0  0  0  0  0  0  0  0  0
   -5.4331   25.6627  -29.2979 H   0  0  0  0  0  0  0  0  0  0  0  0
   -5.5833   26.6482  -30.7922 H   0  0  0  0  0  0  0  0  0  0  0  0
   -6.1098   24.9308  -30.7922 H   0  0  0  0  0  0  0  0  0  0  0  0
   -4.0541   18.9624  -34.6854 H   0  0  0  0  0  0  0  0  0  0  0  0
   -4.6294   16.5576  -35.0161 H   0  0  0  0  0  0  0  0  0  0  0  0
   -6.6614   15.5954  -33.9311 H   0  0  0  0  0  0  0  0  0  0  0  0
   -8.1230   17.0359  -32.5092 H   0  0  0  0  0  0  0  0  0  0  0  0
  1  2  2  0
  2  3  1  0
  3  4  1  0
  4  5  1  0
  5  6  1  0
  6  7  1  0
  7  8  1  0
  8  9  1  0
  9 10  1  0
  5 11  2  0
 11 12  1  0
 12 13  2  0
 13 14  1  0
 14 15  2  0
 15 16  1  0
 16 17  2  0
 17 18  1  0
 18 19  2  0
 18  4  1  0
 17 12  1  0
  1 20  1  0
  1 21  1  0
  2 22  1  0
  3 23  1  0
  3 24  1  0
  7 25  1  0
  7 26  1  0
  8 27  1  0
  8 28  1  0
 10 29  1  0
 10 30  1  0
 10 31  1  0
 13 32  1  0
 14 33  1  0
 15 34  1  0
 16 35  1  0
M  END
>  <UniqueID>  (15) 
15

>  <SMILES>  (15) 
C=CCn1c(SCCOC)nc2ccccc2c1=O

>  <Energy>  (15) 
36.352898714574565

>  <Genealogy>  (15) 
C=CCn1c(SCCOC)nc2ccccc2c1=O (3D coordinates assigned)
C=CCn1c(SCCOC)nc2ccccc2c1=O (optimized conformer: 36.352898714574565 kcal/mol)

>  <smiles>  (15) 
C=CCn1c(SCCOC)nc2ccccc2c1=O

>  <score_type>  (15) 
oracle

>  <origin>  (15) 
adg

>  <m_score__min__energy>  (15) 
-7.5099999999999998

>  <m_primary>  (15) 
energy

$$$$
15:0
     RDKit          3D

 45 47  0  0  0  0  0  0  0  0999 V2000
   -6.0320   25.2600  -29.5150 C   0  0  0  0  0  0  0  0  0  0  0  0
   -5.2320   25.3960  -30.8010 C   0  0  0  0  0  0  0  0  0  0  0  0
   -3.8550   25.2980  -30.5010 O   0  0  0  0  0  0  0  0  0  0  0  0
   -3.6470   24.4420  -29.3940 C   0  0  0  0  0  0  0  0  0  0  0  0
   -3.4310   22.9970  -29.8520 C   0  0  0  0  0  0  0  0  0  0  0  0
   -4.1250   22.7540  -31.0640 O   0  0  0  0  0  0  0  0  0  0  0  0
   -3.4070   21.8700  -31.9060 C   0  0  0  0  0  0  0  0  0  0  0  0
   -4.1130   21.7080  -33.2550 C   0  0  0  0  0  0  0  0  0  0  0  0
   -5.3000   20.8550  -33.1250 N   0  0  0  0  0  0  0  0  0  0  0  0
   -6.5030   21.1860  -32.5860 C   0  0  0  0  0  0  0  0  0  0  0  0
   -7.3410   20.0880  -32.5490 C   0  0  0  0  0  0  0  0  0  0  0  0
   -6.6350   19.0400  -33.1040 C   0  0  0  0  0  0  0  0  0  0  0  0
   -6.9710   17.7020  -33.3110 C   0  0  0  0  0  0  0  0  0  0  0  0
   -6.0010   16.8620  -33.8830 C   0  0  0  0  0  0  0  0  0  0  0  0
   -4.7290   17.3670  -34.2260 C   0  0  0  0  0  0  0  0  0  0  0  0
   -4.4120   18.7180  -34.0020 C   0  0  0  0  0  0  0  0  0  0  0  0
   -5.3940   19.5400  -33.4380 C   0  0  0  0  0  0  0  0  0  0  0  0
   -8.6890   20.1460  -31.9730 C   0  0  0  0  0  0  0  0  0  0  0  0
   -9.4440   19.1380  -31.9720 O   0  0  0  0  0  0  0  0  0  0  0  0
   -9.1280   21.4280  -31.3150 C   0  0  0  0  0  0  0  0  0  0  0  0
   -8.4290   22.6540  -31.9440 C   0  0  0  0  0  0  0  0  0  0  0  0
   -6.8920   22.5080  -31.9780 C   0  0  0  0  0  0  0  0  0  0  0  0
   -5.3602   25.3742  -28.6515 H   0  0  0  0  0  0  0  0  0  0  0  0
   -6.8078   26.0392  -29.4816 H   0  0  0  0  0  0  0  0  0  0  0  0
   -6.5067   24.2683  -29.4816 H   0  0  0  0  0  0  0  0  0  0  0  0
   -5.5153   24.5933  -31.4977 H   0  0  0  0  0  0  0  0  0  0  0  0
   -5.4415   26.3703  -31.2667 H   0  0  0  0  0  0  0  0  0  0  0  0
   -2.7594   24.7802  -28.8393 H   0  0  0  0  0  0  0  0  0  0  0  0
   -4.5389   24.4767  -28.7511 H   0  0  0  0  0  0  0  0  0  0  0  0
   -2.3562   22.8232  -30.0086 H   0  0  0  0  0  0  0  0  0  0  0  0
   -3.8150   22.3161  -29.0781 H   0  0  0  0  0  0  0  0  0  0  0  0
   -2.3972   22.2727  -32.0738 H   0  0  0  0  0  0  0  0  0  0  0  0
   -3.3513   20.8860  -31.4175 H   0  0  0  0  0  0  0  0  0  0  0  0
   -4.4196   22.6985  -33.6224 H   0  0  0  0  0  0  0  0  0  0  0  0
   -3.4158   21.2351  -33.9623 H   0  0  0  0  0  0  0  0  0  0  0  0
   -7.9638   17.3169  -33.0352 H   0  0  0  0  0  0  0  0  0  0  0  0
   -6.2350   15.8027  -34.0648 H   0  0  0  0  0  0  0  0  0  0  0  0
   -3.9789   16.6977  -34.6726 H   0  0  0  0  0  0  0  0  0  0  0  0
   -3.4208   19.1175  -34.2625 H   0  0  0  0  0  0  0  0  0  0  0  0
  -10.2161   21.5367  -31.4338 H   0  0  0  0  0  0  0  0  0  0  0  0
   -8.8536   21.3819  -30.2508 H   0  0  0  0  0  0  0  0  0  0  0  0
   -8.7941   22.7777  -32.9742 H   0  0  0  0  0  0  0  0  0  0  0  0
   -8.6671   23.5292  -31.3216 H   0  0  0  0  0  0  0  0  0  0  0  0
   -6.4638   23.3234  -32.5794 H   0  0  0  0  0  0  0  0  0  0  0  0
   -6.5065   22.5544  -30.9488 H   0  0  0  0  0  0  0  0  0  0  0  0
  1  2  1  0
  2  3  1  0
  3  4  1  0
  4  5  1  0
  5  6  1  0
  6  7  1  0
  7  8  1  0
  8  9  1  0
  9 10  1  0
 10 11  2  0
 11 12  1  0
 12 13  2  0
 13 14  1  0
 14 15  2  0
 15 16  1  0
 16 17  2  0
 11 18  1  0
 18 19  2  0
 18 20  1  0
 20 21  1  0
 21 22  1  0
 17  9  1  0
 22 10  1  0
 17 12  1  0
  1 23  1  0
  1 24  1  0
  1 25  1  0
  2 26  1  0
  2 27  1  0
  4 28  1  0
  4 29  1  0
  5 30  1  0
  5 31  1  0
  7 32  1  0
  7 33  1  0
  8 34  1  0
  8 35  1  0
 13 36  1  0
 14 37  1  0
 15 38  1  0
 16 39  1  0
 20 40  1  0
 20 41  1  0
 21 42  1  0
 21 43  1  0
 22 44  1  0
 22 45  1  0
M  END
>  <UniqueID>  (16) 
16

>  <SMILES>  (16) 
CCOCCOCCn1c2c(c3ccccc31)C(=O)CCC2

>  <Energy>  (16) 
79.30026308069554

>  <Genealogy>  (16) 
CCOCCOCCn1c2c(c3ccccc31)C(=O)CCC2 (3D coordinates assigned)
CCOCCOCCn1c2c(c3ccccc31)C(=O)CCC2 (nonaromatic ring conformer: 79.30026308069554 kcal/mol)

>  <smiles>  (16) 
CCOCCOCCn1c2c(c3ccccc31)C(=O)CCC2

>  <score_type>  (16) 
oracle

>  <origin>  (16) 
adg

>  <m_score__min__energy>  (16) 
-8.9399999999999995

>  <m_primary>  (16) 
energy

$$$$
16:0
     RDKit          3D

 66 70  0  0  0  0  0  0  0  0999 V2000
   -3.8270   24.3170  -27.1020 C   0  0  0  0  0  0  0  0  0  0  0  0
   -4.4670   24.2120  -28.4880 C   0  0  0  0  0  0  0  0  0  0  0  0
   -5.5540   25.1890  -28.6780 N   0  0  0  0  0  0  0  0  0  0  0  0
   -5.7500   25.5750  -30.0970 C   0  0  0  0  0  0  0  0  0  0  0  0
   -6.4980   24.4980  -30.9040 C   0  0  0  0  0  0  0  0  0  0  0  0
   -5.6440   23.2430  -31.1300 C   0  0  0  0  0  0  0  0  0  0  0  0
   -5.8490   22.7140  -32.4770 N   0  0  0  0  0  0  0  0  0  0  0  0
   -5.7630   21.3040  -32.7160 C   0  0  0  0  0  0  0  0  0  0  0  0
   -4.5680   20.7540  -33.1570 C   0  0  0  0  0  0  0  0  0  0  0  0
   -4.4640   19.4090  -33.4290 C   0  0  0  0  0  0  0  0  0  0  0  0
   -5.5520   18.5730  -33.3920 N   0  0  0  0  0  0  0  0  0  0  0  0
   -5.4860   17.2410  -34.0160 C   0  0  0  0  0  0  0  0  0  0  0  0
   -6.7230   19.0460  -32.8200 C   0  0  0  0  0  0  0  0  0  0  0  0
   -7.8100   18.1880  -32.5290 C   0  0  0  0  0  0  0  0  0  0  0  0
   -8.9860   18.6840  -31.9650 C   0  0  0  0  0  0  0  0  0  0  0  0
   -9.1050   20.0380  -31.6630 C   0  0  0  0  0  0  0  0  0  0  0  0
   -8.0450   20.9080  -31.9110 C   0  0  0  0  0  0  0  0  0  0  0  0
   -6.8510   20.4340  -32.4860 C   0  0  0  0  0  0  0  0  0  0  0  0
   -3.0710   19.1770  -33.8310 C   0  0  0  0  0  0  0  0  0  0  0  0
   -2.3760   17.9740  -33.9860 C   0  0  0  0  0  0  0  0  0  0  0  0
   -1.0020   18.0050  -34.3270 C   0  0  0  0  0  0  0  0  0  0  0  0
   -0.3670   19.2720  -34.4520 C   0  0  0  0  0  0  0  0  0  0  0  0
   -1.0920   20.4490  -34.1760 C   0  0  0  0  0  0  0  0  0  0  0  0
   -0.5260   21.5760  -34.2030 O   0  0  0  0  0  0  0  0  0  0  0  0
   -2.4120   20.3560  -33.8690 N   0  0  0  0  0  0  0  0  0  0  0  0
   -3.2830   21.4580  -33.4590 C   0  0  0  0  0  0  0  0  0  0  0  0
    1.0960   19.3270  -34.8050 C   0  0  0  0  0  0  0  0  0  0  0  0
    1.4160   18.2790  -35.7130 O   0  0  0  0  0  0  0  0  0  0  0  0
    0.8890   16.9950  -35.5580 C   0  0  0  0  0  0  0  0  0  0  0  0
    1.3380   16.0670  -36.2830 O   0  0  0  0  0  0  0  0  0  0  0  0
   -0.1500   16.7290  -34.4700 C   0  0  1  0  0  0  0  0  0  0  0  0
    0.5310   16.5380  -33.2520 O   0  0  0  0  0  0  0  0  0  0  0  0
   -1.0030   15.4570  -34.8190 C   0  0  0  0  0  0  0  0  0  0  0  0
   -1.7640   15.5590  -36.1500 C   0  0  0  0  0  0  0  0  0  0  0  0
   -4.6006   24.1901  -26.3303 H   0  0  0  0  0  0  0  0  0  0  0  0
   -3.0648   23.5319  -26.9897 H   0  0  0  0  0  0  0  0  0  0  0  0
   -3.3556   25.3045  -26.9897 H   0  0  0  0  0  0  0  0  0  0  0  0
   -3.6934   24.3911  -29.2493 H   0  0  0  0  0  0  0  0  0  0  0  0
   -4.8993   23.2050  -28.5835 H   0  0  0  0  0  0  0  0  0  0  0  0
   -5.3810   26.0200  -28.0650 H   0  0  0  0  0  0  0  0  0  0  0  0
   -6.4370   24.7430  -28.3360 H   0  0  0  0  0  0  0  0  0  0  0  0
   -6.3310   26.5084  -30.1315 H   0  0  0  0  0  0  0  0  0  0  0  0
   -4.7552   25.7003  -30.5494 H   0  0  0  0  0  0  0  0  0  0  0  0
   -7.4079   24.2129  -30.3555 H   0  0  0  0  0  0  0  0  0  0  0  0
   -6.7401   24.9228  -31.8894 H   0  0  0  0  0  0  0  0  0  0  0  0
   -4.5824   23.5006  -31.0010 H   0  0  0  0  0  0  0  0  0  0  0  0
   -5.9422   22.4762  -30.3999 H   0  0  0  0  0  0  0  0  0  0  0  0
   -6.3060   23.3070  -33.2080 H   0  0  0  0  0  0  0  0  0  0  0  0
   -5.4478   16.4703  -33.2320 H   0  0  0  0  0  0  0  0  0  0  0  0
   -6.3775   17.0843  -34.6411 H   0  0  0  0  0  0  0  0  0  0  0  0
   -4.5834   17.1732  -34.6411 H   0  0  0  0  0  0  0  0  0  0  0  0
   -7.7267   17.1138  -32.7507 H   0  0  0  0  0  0  0  0  0  0  0  0
   -9.8235   18.0016  -31.7579 H   0  0  0  0  0  0  0  0  0  0  0  0
  -10.0390   20.4223  -31.2271 H   0  0  0  0  0  0  0  0  0  0  0  0
   -8.1422   21.9735  -31.6554 H   0  0  0  0  0  0  0  0  0  0  0  0
   -2.8915   17.0126  -33.8444 H   0  0  0  0  0  0  0  0  0  0  0  0
   -2.8885   21.9668  -32.5671 H   0  0  0  0  0  0  0  0  0  0  0  0
   -3.3815   22.2474  -34.2187 H   0  0  0  0  0  0  0  0  0  0  0  0
    1.3219   20.2965  -35.2731 H   0  0  0  0  0  0  0  0  0  0  0  0
    1.6937   19.2073  -33.8894 H   0  0  0  0  0  0  0  0  0  0  0  0
    1.4970   16.7140  -33.4110 H   0  0  0  0  0  0  0  0  0  0  0  0
   -0.3265   14.5913  -34.8731 H   0  0  0  0  0  0  0  0  0  0  0  0
   -1.7599   15.3551  -34.0274 H   0  0  0  0  0  0  0  0  0  0  0  0
   -2.8360   15.7027  -35.9494 H   0  0  0  0  0  0  0  0  0  0  0  0
   -1.3811   16.4139  -36.7267 H   0  0  0  0  0  0  0  0  0  0  0  0
   -1.6197   14.6335  -36.7267 H   0  0  0  0  0  0  0  0  0  0  0  0
  1  2  1  0
  2  3  1  0
  3  4  1  0
  4  5  1  0
  5  6  1  0
  6  7  1  0
  7  8  1  0
  8  9  2  0
  9 10  1  0
 10 11  2  0
 11 12  1  0
 11 13  1  0
 13 14  2  0
 14 15  1  0
 15 16  2  0
 16 17  1  0
 17 18  2  0
 10 19  1  0
 19 20  2  0
 20 21  1  0
 21 22  2  0
 22 23  1  0
 23 24  2  0
 23 25  1  0
 25 26  1  0
 22 27  1  0
 27 28  1  0
 28 29  1  0
 29 30  2  0
 29 31  1  0
 31 32  1  1
 31 33  1  0
 33 34  1  0
 18  8  1  0
 25 19  1  0
 26  9  1  0
 18 13  1  0
 31 21  1  0
  1 35  1  0
  1 36  1  0
  1 37  1  0
  2 38  1  0
  2 39  1  0
  3 40  1  0
  3 41  1  0
  4 42  1  0
  4 43  1  0
  5 44  1  0
  5 45  1  0
  6 46  1  0
  6 47  1  0
  7 48  1  0
 12 49  1  0
 12 50  1  0
 12 51  1  0
 14 52  1  0
 15 53  1  0
 16 54  1  0
 17 55  1  0
 20 56  1  0
 26 57  1  0
 26 58  1  0
 27 59  1  0
 27 60  1  0
 32 61  1  0
 33 62  1  0
 33 63  1  0
 34 64  1  0
 34 65  1  0
 34 66  1  0
M  CHG  2   3   1  11   1
M  END
>  <UniqueID>  (17) 
17

>  <SMILES>  (17) 
CC[NH2+]CCCNc1c2c([n+](C)c3ccccc13)-c1cc3c(c(=O)n1C2)COC(=O)[C@]3(O)CC

>  <Energy>  (17) 
124.8002663311028

>  <Genealogy>  (17) 
CC[NH2+]CCCNc1c2c([n+](C)c3ccccc13)-c1cc3c(c(=O)n1C2)COC(=O)C3(O)CC (protonated)
CC[NH2+]CCCNc1c2c([n+](C)c3ccccc13)-c1cc3c(c(=O)n1C2)COC(=O)[C@]3(O)CC (chirality)
CC[NH2+]CCCNc1c2c([n+](C)c3ccccc13)-c1cc3c(c(=O)n1C2)COC(=O)[C@]3(O)CC (3D coordinates assigned)
CC[NH2+]CCCNc1c2c([n+](C)c3ccccc13)-c1cc3c(c(=O)n1C2)COC(=O)[C@]3(O)CC (nonaromatic ring conformer: 124.8002663311028 kcal/mol)

>  <smiles>  (17) 
CCNCCCNc1c2c([n+](C)c3ccccc13)-c1cc3c(c(=O)n1C2)COC(=O)C3(O)CC

>  <score_type>  (17) 
oracle

>  <origin>  (17) 
adg

>  <m_score__min__energy>  (17) 
-8.3000000000000007

>  <m_primary>  (17) 
energy

$$$$
17:0
     RDKit          3D

 44 45  0  0  0  0  0  0  0  0999 V2000
   -6.0980   25.5980  -29.5860 C   0  0  0  0  0  0  0  0  0  0  0  0
   -5.2890   25.3640  -30.8510 C   0  0  0  0  0  0  0  0  0  0  0  0
   -3.9120   25.2920  -30.5190 O   0  0  0  0  0  0  0  0  0  0  0  0
   -3.6130   24.1620  -29.7880 N   0  0  0  0  0  0  0  0  0  0  0  0
   -2.9920   24.3450  -28.4630 C   0  0  0  0  0  0  0  0  0  0  0  0
   -3.1280   23.0360  -30.6080 C   0  0  0  0  0  0  0  0  0  0  0  0
   -4.2290   22.2910  -31.3170 C   0  0  0  0  0  0  0  0  0  0  0  0
   -3.9790   21.6410  -32.5350 C   0  0  0  0  0  0  0  0  0  0  0  0
   -5.0080   20.9780  -33.2070 C   0  0  0  0  0  0  0  0  0  0  0  0
   -6.3120   20.9610  -32.6750 C   0  0  0  0  0  0  0  0  0  0  0  0
   -7.3930   20.3320  -33.3150 O   0  0  0  0  0  0  0  0  0  0  0  0
   -8.4790   19.6560  -32.6740 C   0  0  0  0  0  0  0  0  0  0  0  0
   -8.1090   18.2080  -32.3330 C   0  0  0  0  0  0  0  0  0  0  0  0
   -6.7970   17.7930  -32.9420 C   0  0  0  0  0  0  0  0  0  0  0  0
   -5.9140   16.9650  -32.2300 C   0  0  0  0  0  0  0  0  0  0  0  0
   -4.7140   16.5720  -32.8230 C   0  0  0  0  0  0  0  0  0  0  0  0
   -4.4100   16.9880  -34.1180 C   0  0  0  0  0  0  0  0  0  0  0  0
   -5.3110   17.8080  -34.8020 C   0  0  0  0  0  0  0  0  0  0  0  0
   -6.4720   18.1950  -34.2070 N   0  0  0  0  0  0  0  0  0  0  0  0
   -6.5510   21.5900  -31.4480 C   0  0  0  0  0  0  0  0  0  0  0  0
   -5.5220   22.2490  -30.7720 C   0  0  0  0  0  0  0  0  0  0  0  0
   -5.4639   25.4146  -28.7061 H   0  0  0  0  0  0  0  0  0  0  0  0
   -6.4583   26.6372  -29.5681 H   0  0  0  0  0  0  0  0  0  0  0  0
   -6.9574   24.9116  -29.5681 H   0  0  0  0  0  0  0  0  0  0  0  0
   -5.6041   24.4199  -31.3195 H   0  0  0  0  0  0  0  0  0  0  0  0
   -5.4560   26.1931  -31.5544 H   0  0  0  0  0  0  0  0  0  0  0  0
   -3.7314   24.1271  -27.6783 H   0  0  0  0  0  0  0  0  0  0  0  0
   -2.1368   23.6607  -28.3612 H   0  0  0  0  0  0  0  0  0  0  0  0
   -2.6446   25.3837  -28.3612 H   0  0  0  0  0  0  0  0  0  0  0  0
   -2.4317   23.4297  -31.3631 H   0  0  0  0  0  0  0  0  0  0  0  0
   -2.6430   22.3234  -29.9247 H   0  0  0  0  0  0  0  0  0  0  0  0
   -2.9659   21.6537  -32.9633 H   0  0  0  0  0  0  0  0  0  0  0  0
   -4.7988   20.4658  -34.1578 H   0  0  0  0  0  0  0  0  0  0  0  0
   -8.7352   20.1885  -31.7462 H   0  0  0  0  0  0  0  0  0  0  0  0
   -9.3358   19.6426  -33.3638 H   0  0  0  0  0  0  0  0  0  0  0  0
   -8.0379   18.1096  -31.2397 H   0  0  0  0  0  0  0  0  0  0  0  0
   -8.8921   17.5553  -32.7462 H   0  0  0  0  0  0  0  0  0  0  0  0
   -6.1664   16.6292  -31.2134 H   0  0  0  0  0  0  0  0  0  0  0  0
   -4.0088   15.9347  -32.2693 H   0  0  0  0  0  0  0  0  0  0  0  0
   -3.4706   16.6740  -34.5965 H   0  0  0  0  0  0  0  0  0  0  0  0
   -5.0812   18.1418  -35.8246 H   0  0  0  0  0  0  0  0  0  0  0  0
   -7.1300   18.8050  -34.7430 H   0  0  0  0  0  0  0  0  0  0  0  0
   -7.5603   21.5651  -31.0113 H   0  0  0  0  0  0  0  0  0  0  0  0
   -5.7256   22.7376  -29.8077 H   0  0  0  0  0  0  0  0  0  0  0  0
  1  2  1  0
  2  3  1  0
  3  4  1  0
  4  5  1  0
  4  6  1  0
  6  7  1  0
  7  8  2  0
  8  9  1  0
  9 10  2  0
 10 11  1  0
 11 12  1  0
 12 13  1  0
 13 14  1  0
 14 15  2  0
 15 16  1  0
 16 17  2  0
 17 18  1  0
 18 19  2  0
 10 20  1  0
 20 21  2  0
 21  7  1  0
 19 14  1  0
  1 22  1  0
  1 23  1  0
  1 24  1  0
  2 25  1  0
  2 26  1  0
  5 27  1  0
  5 28  1  0
  5 29  1  0
  6 30  1  0
  6 31  1  0
  8 32  1  0
  9 33  1  0
 12 34  1  0
 12 35  1  0
 13 36  1  0
 13 37  1  0
 15 38  1  0
 16 39  1  0
 17 40  1  0
 18 41  1  0
 19 42  1  0
 20 43  1  0
 21 44  1  0
M  CHG  1  19   1
M  END
>  <UniqueID>  (18) 
18

>  <SMILES>  (18) 
CCON(C)Cc1ccc(OCCc2cccc[nH+]2)cc1

>  <Energy>  (18) 
51.90510101174346

>  <Genealogy>  (18) 
CCON(C)Cc1ccc(OCCc2cccc[nH+]2)cc1 (protonated)
CCON(C)Cc1ccc(OCCc2cccc[nH+]2)cc1 (3D coordinates assigned)
CCON(C)Cc1ccc(OCCc2cccc[nH+]2)cc1 (optimized conformer: 51.90510101174346 kcal/mol)

>  <smiles>  (18) 
CCON(C)Cc1ccc(OCCc2ccccn2)cc1

>  <score_type>  (18) 
oracle

>  <origin>  (18) 
adg

>  <m_score__min__energy>  (18) 
-7.0899999999999999

>  <m_primary>  (18) 
energy

$$$$
