0:0
     RDKit          3D

 57 59  0  0  0  0  0  0  0  0999 V2000
   -3.5780   17.5436  -34.6527 H   0  0  0  0  0  0  0  0  0  0  0  0
   -3.6680   17.8320  -33.5950 C   0  0  0  0  0  0  0  0  0  0  0  0
   -4.3320   17.0110  -32.7720 C   0  0  0  0  0  0  0  0  0  0  0  0
   -3.7671   16.3943  -32.0574 H   0  0  0  0  0  0  0  0  0  0  0  0
   -5.8390   16.9120  -32.8020 C   0  0  0  0  0  0  0  0  0  0  0  0
   -6.1537   16.1789  -32.0447 H   0  0  0  0  0  0  0  0  0  0  0  0
   -6.1204   16.6104  -33.8217 H   0  0  0  0  0  0  0  0  0  0  0  0
   -6.5280   18.1960  -32.5250 N   0  0  0  0  0  0  0  0  0  0  0  0
   -6.0100   18.6270  -31.7200 H   0  0  0  0  0  0  0  0  0  0  0  0
   -6.4390   19.1360  -33.6680 C   0  0  0  0  0  0  0  0  0  0  0  0
   -6.7347   18.6075  -34.5863 H   0  0  0  0  0  0  0  0  0  0  0  0
   -5.4014   19.4954  -33.7323 H   0  0  0  0  0  0  0  0  0  0  0  0
   -7.3580   20.3630  -33.4810 C   0  0  0  0  0  0  0  0  0  0  0  0
   -8.2639   20.2344  -34.0916 H   0  0  0  0  0  0  0  0  0  0  0  0
   -6.8166   21.2672  -33.7963 H   0  0  0  0  0  0  0  0  0  0  0  0
   -7.7420   20.5030  -32.0640 N   0  0  0  0  0  0  0  0  0  0  0  0
   -8.4510   21.7740  -31.8080 C   0  0  0  0  0  0  0  0  0  0  0  0
   -9.5337   21.6103  -31.9130 H   0  0  0  0  0  0  0  0  0  0  0  0
   -8.1043   22.5233  -32.5349 H   0  0  0  0  0  0  0  0  0  0  0  0
   -8.1550   22.2890  -30.3920 C   0  0  0  0  0  0  0  0  0  0  0  0
   -8.1392   21.4372  -29.6962 H   0  0  0  0  0  0  0  0  0  0  0  0
   -8.9410   23.0050  -30.1098 H   0  0  0  0  0  0  0  0  0  0  0  0
   -6.8240   22.9940  -30.3370 C   0  0  0  0  0  0  0  0  0  0  0  0
   -5.6330   22.2690  -30.5020 C   0  0  0  0  0  0  0  0  0  0  0  0
   -5.6739   21.1928  -30.7260 H   0  0  0  0  0  0  0  0  0  0  0  0
   -4.3960   22.9080  -30.3830 C   0  0  0  0  0  0  0  0  0  0  0  0
   -3.4681   22.3339  -30.5221 H   0  0  0  0  0  0  0  0  0  0  0  0
   -4.3310   24.2830  -30.0860 C   0  0  0  0  0  0  0  0  0  0  0  0
   -3.1170   24.9760  -29.9470 O   0  0  0  0  0  0  0  0  0  0  0  0
   -2.1240   24.7180  -28.9540 C   0  0  0  0  0  0  0  0  0  0  0  0
   -2.6192   24.5185  -27.9922 H   0  0  0  0  0  0  0  0  0  0  0  0
   -1.4698   25.5986  -28.8728 H   0  0  0  0  0  0  0  0  0  0  0  0
   -1.2740   23.5120  -29.3380 C   0  0  0  0  0  0  0  0  0  0  0  0
   -0.9191   23.0084  -28.4267 H   0  0  0  0  0  0  0  0  0  0  0  0
   -1.8789   22.8113  -29.9322 H   0  0  0  0  0  0  0  0  0  0  0  0
   -0.4107   23.8461  -29.9322 H   0  0  0  0  0  0  0  0  0  0  0  0
   -5.5220   25.0010  -29.9250 C   0  0  0  0  0  0  0  0  0  0  0  0
   -5.4830   26.0781  -29.7050 H   0  0  0  0  0  0  0  0  0  0  0  0
   -6.7600   24.3630  -30.0410 C   0  0  0  0  0  0  0  0  0  0  0  0
   -7.6876   24.9370  -29.8996 H   0  0  0  0  0  0  0  0  0  0  0  0
   -8.5550   19.3440  -31.6360 C   0  0  0  0  0  0  0  0  0  0  0  0
   -9.5626   19.4362  -32.0676 H   0  0  0  0  0  0  0  0  0  0  0  0
   -8.5964   19.3408  -30.5368 H   0  0  0  0  0  0  0  0  0  0  0  0
   -7.9320   18.0080  -32.0990 C   0  0  0  0  0  0  0  0  0  0  0  0
   -8.5145   17.6136  -32.9446 H   0  0  0  0  0  0  0  0  0  0  0  0
   -7.9502   17.3024  -31.2553 H   0  0  0  0  0  0  0  0  0  0  0  0
   -3.0470   19.1070  -33.1640 C   0  0  0  0  0  0  0  0  0  0  0  0
   -1.8210   19.0610  -32.4790 C   0  0  0  0  0  0  0  0  0  0  0  0
   -1.3506   18.0896  -32.2666 H   0  0  0  0  0  0  0  0  0  0  0  0
   -1.1940   20.2410  -32.0650 C   0  0  0  0  0  0  0  0  0  0  0  0
   -0.2388   20.1936  -31.5216 H   0  0  0  0  0  0  0  0  0  0  0  0
   -1.7780   21.4780  -32.3400 C   0  0  0  0  0  0  0  0  0  0  0  0
   -1.2855   22.4044  -32.0095 H   0  0  0  0  0  0  0  0  0  0  0  0
   -2.9880   21.5400  -33.0350 C   0  0  0  0  0  0  0  0  0  0  0  0
   -3.4446   22.5160  -33.2562 H   0  0  0  0  0  0  0  0  0  0  0  0
   -3.6200   20.3640  -33.4500 C   0  0  0  0  0  0  0  0  0  0  0  0
   -4.5695   20.4192  -34.0027 H   0  0  0  0  0  0  0  0  0  0  0  0
  1  2  1  0
  2  3  2  0
  3  4  1  0
  3  5  1  0
  5  6  1  0
  5  7  1  0
  5  8  1  0
  8  9  1  0
  8 10  1  0
 10 11  1  0
 10 12  1  0
 10 13  1  0
 13 14  1  0
 13 15  1  0
 13 16  1  0
 16 17  1  0
 17 18  1  0
 17 19  1  0
 17 20  1  0
 20 21  1  0
 20 22  1  0
 20 23  1  0
 23 24  2  0
 24 25  1  0
 24 26  1  0
 26 27  1  0
 26 28  2  0
 28 29  1  0
 29 30  1  0
 30 31  1  0
 30 32  1  0
 30 33  1  0
 33 34  1  0
 33 35  1  0
 33 36  1  0
 28 37  1  0
 37 38  1  0
 37 39  2  0
 39 40  1  0
 16 41  1  0
 41 42  1  0
 41 43  1  0
 41 44  1  0
 44 45  1  0
 44 46  1  0
  2 47  1  0
 47 48  2  0
 48 49  1  0
 48 50  1  0
 50 51  1  0
 50 52  2  0
 52 53  1  0
 52 54  1  0
 54 55  1  0
 54 56  2  0
 56 57  1  0
 44  8  1  0
 56 47  1  0
 39 23  1  0
M  CHG  1   8   1
M  END
>  <UniqueID>  (1) 
1

>  <SMILES>  (1) 
CCOc1ccc(CCN2CC[NH+](C/C=C/c3ccccc3)CC2)cc1

>  <Energy>  (1) 
65.45092835635884

>  <Genealogy>  (1) 
CCOc1ccc(CCN2CC[NH+](CC=Cc3ccccc3)CC2)cc1 (protonated)
CCOc1ccc(CCN2CC[NH+](C/C=C/c3ccccc3)CC2)cc1 (cis-trans isomerization)
CCOc1ccc(CCN2CC[NH+](C/C=C/c3ccccc3)CC2)cc1 (3D coordinates assigned)
CCOc1ccc(CCN2CC[NH+](C/C=C/c3ccccc3)CC2)cc1 (nonaromatic ring conformer: 65.45092835635884 kcal/mol)

>  <smiles>  (1) 
CCOc1ccc(CCN2CCN(CC=Cc3ccccc3)CC2)cc1

>  <score_type>  (1) 
oracle

>  <origin>  (1) 
adg

>  <m_score__min__energy>  (1) 
-8.4600000000000009

>  <m_primary>  (1) 
energy

$$$$
1:0
     RDKit          3D

 76 78  0  0  0  0  0  0  0  0999 V2000
   -5.7270   25.5230  -30.4040 C   0  0  0  0  0  0  0  0  0  0  0  0
   -4.8670   24.3440  -30.8350 C   0  0  0  0  0  0  0  0  0  0  0  0
   -5.4960   23.6660  -31.9200 O   0  0  0  0  0  0  0  0  0  0  0  0
   -6.6410   22.8550  -31.8160 C   0  0  0  0  0  0  0  0  0  0  0  0
   -7.8920   23.4160  -31.5020 C   0  0  0  0  0  0  0  0  0  0  0  0
   -9.0470   22.6500  -31.5650 C   0  0  0  0  0  0  0  0  0  0  0  0
   -8.9820   21.3100  -31.9270 C   0  0  0  0  0  0  0  0  0  0  0  0
   -7.7400   20.6810  -32.1820 C   0  0  0  0  0  0  0  0  0  0  0  0
   -6.5520   21.4650  -32.1010 C   0  0  0  0  0  0  0  0  0  0  0  0
   -5.3120   20.8360  -32.3340 C   0  0  0  0  0  0  0  0  0  0  0  0
   -4.0870   21.4410  -31.8830 N   0  0  0  0  0  0  0  0  0  0  0  0
   -3.0840   21.8530  -32.8670 C   0  0  0  0  0  0  0  0  0  0  0  0
   -1.6660   21.4500  -32.4420 C   0  0  0  0  0  0  0  0  0  0  0  0
   -1.6250   20.7370  -31.0890 C   0  0  0  0  0  0  0  0  0  0  0  0
   -2.1390   21.5780  -30.0760 O   0  0  0  0  0  0  0  0  0  0  0  0
   -1.7590   21.0780  -28.8090 C   0  0  0  0  0  0  0  0  0  0  0  0
   -2.6780   21.6730  -27.7370 C   0  0  0  0  0  0  0  0  0  0  0  0
   -3.8540   22.4530  -28.3470 C   0  0  0  0  0  0  0  0  0  0  0  0
   -3.6670   23.8550  -28.2610 O   0  0  0  0  0  0  0  0  0  0  0  0
   -4.2360   24.3790  -27.0790 C   0  0  0  0  0  0  0  0  0  0  0  0
   -3.2200   25.2760  -26.3430 C   0  0  0  0  0  0  0  0  0  0  0  0
   -1.7960   24.9430  -26.5890 N   0  0  0  0  0  0  0  0  0  0  0  0
   -0.9540   25.0550  -25.3800 C   0  0  0  0  0  0  0  0  0  0  0  0
   -1.2320   26.3650  -24.6430 C   0  0  0  0  0  0  0  0  0  0  0  0
   -1.2260   25.6110  -27.7840 C   0  0  0  0  0  0  0  0  0  0  0  0
   -0.8770   24.5640  -28.8350 C   0  0  0  0  0  0  0  0  0  0  0  0
   -5.2890   19.5570  -32.9190 C   0  0  0  0  0  0  0  0  0  0  0  0
   -4.0870   19.0090  -33.4110 C   0  0  0  0  0  0  0  0  0  0  0  0
   -4.0710   17.7530  -34.0120 C   0  0  0  0  0  0  0  0  0  0  0  0
   -5.2500   17.0290  -34.1440 C   0  0  0  0  0  0  0  0  0  0  0  0
   -6.4520   17.5550  -33.6680 C   0  0  0  0  0  0  0  0  0  0  0  0
   -6.4950   18.8200  -33.0260 C   0  0  0  0  0  0  0  0  0  0  0  0
   -7.6670   19.3380  -32.5130 N   0  0  0  0  0  0  0  0  0  0  0  0
   -8.8390   18.4560  -32.3150 C   0  0  0  0  0  0  0  0  0  0  0  0
   -5.7611   25.5698  -29.3055 H   0  0  0  0  0  0  0  0  0  0  0  0
   -5.2952   26.4551  -30.7975 H   0  0  0  0  0  0  0  0  0  0  0  0
   -6.7464   25.3965  -30.7975 H   0  0  0  0  0  0  0  0  0  0  0  0
   -3.8793   24.7083  -31.1539 H   0  0  0  0  0  0  0  0  0  0  0  0
   -4.7476   23.6500  -29.9899 H   0  0  0  0  0  0  0  0  0  0  0  0
   -7.9552   24.4728  -31.2034 H   0  0  0  0  0  0  0  0  0  0  0  0
  -10.0194   23.1059  -31.3271 H   0  0  0  0  0  0  0  0  0  0  0  0
   -9.9113   20.7284  -32.0169 H   0  0  0  0  0  0  0  0  0  0  0  0
   -4.1000   21.9160  -30.9570 H   0  0  0  0  0  0  0  0  0  0  0  0
   -3.3151   21.3766  -33.8312 H   0  0  0  0  0  0  0  0  0  0  0  0
   -3.1167   22.9495  -32.9484 H   0  0  0  0  0  0  0  0  0  0  0  0
   -1.2498   20.7763  -33.2055 H   0  0  0  0  0  0  0  0  0  0  0  0
   -1.0778   22.3743  -32.3437 H   0  0  0  0  0  0  0  0  0  0  0  0
   -2.2318   19.8211  -31.1429 H   0  0  0  0  0  0  0  0  0  0  0  0
   -0.5817   20.4841  -30.8491 H   0  0  0  0  0  0  0  0  0  0  0  0
   -1.8491   19.9817  -28.8038 H   0  0  0  0  0  0  0  0  0  0  0  0
   -0.7161   21.3575  -28.5987 H   0  0  0  0  0  0  0  0  0  0  0  0
   -3.0778   20.8551  -27.1196 H   0  0  0  0  0  0  0  0  0  0  0  0
   -2.0832   22.3756  -27.1349 H   0  0  0  0  0  0  0  0  0  0  0  0
   -3.9538   22.1730  -29.4061 H   0  0  0  0  0  0  0  0  0  0  0  0
   -4.7605   22.1972  -27.7788 H   0  0  0  0  0  0  0  0  0  0  0  0
   -5.1240   24.9744  -27.3377 H   0  0  0  0  0  0  0  0  0  0  0  0
   -4.5180   23.5450  -26.4195 H   0  0  0  0  0  0  0  0  0  0  0  0
   -3.3876   26.3150  -26.6630 H   0  0  0  0  0  0  0  0  0  0  0  0
   -3.3916   25.1168  -25.2682 H   0  0  0  0  0  0  0  0  0  0  0  0
   -1.1722   24.2108  -24.7094 H   0  0  0  0  0  0  0  0  0  0  0  0
    0.1029   25.0397  -25.6844 H   0  0  0  0  0  0  0  0  0  0  0  0
   -1.1949   26.1901  -23.5576 H   0  0  0  0  0  0  0  0  0  0  0  0
   -0.4720   27.1103  -24.9205 H   0  0  0  0  0  0  0  0  0  0  0  0
   -2.2292   26.7374  -24.9205 H   0  0  0  0  0  0  0  0  0  0  0  0
   -1.9641   26.3138  -28.1979 H   0  0  0  0  0  0  0  0  0  0  0  0
   -0.3166   26.1597  -27.4978 H   0  0  0  0  0  0  0  0  0  0  0  0
   -0.5669   23.6336  -28.3368 H   0  0  0  0  0  0  0  0  0  0  0  0
   -1.7582   24.3673  -29.4634 H   0  0  0  0  0  0  0  0  0  0  0  0
   -0.0541   24.9354  -29.4634 H   0  0  0  0  0  0  0  0  0  0  0  0
   -3.1513   19.5799  -33.3191 H   0  0  0  0  0  0  0  0  0  0  0  0
   -3.1242   17.3334  -34.3827 H   0  0  0  0  0  0  0  0  0  0  0  0
   -5.2358   16.0396  -34.6245 H   0  0  0  0  0  0  0  0  0  0  0  0
   -7.3812   16.9797  -33.7925 H   0  0  0  0  0  0  0  0  0  0  0  0
   -9.0185   18.3209  -31.2382 H   0  0  0  0  0  0  0  0  0  0  0  0
   -9.7248   18.9134  -32.7798 H   0  0  0  0  0  0  0  0  0  0  0  0
   -8.6447   17.4782  -32.7798 H   0  0  0  0  0  0  0  0  0  0  0  0
  1  2  1  0
  2  3  1  0
  3  4  1  0
  4  5  2  0
  5  6  1  0
  6  7  2  0
  7  8  1  0
  8  9  2  0
  9 10  1  0
 10 11  1  0
 11 12  1  0
 12 13  1  0
 13 14  1  0
 14 15  1  0
 15 16  1  0
 16 17  1  0
 17 18  1  0
 18 19  1  0
 19 20  1  0
 20 21  1  0
 21 22  1  0
 22 23  1  0
 23 24  1  0
 22 25  1  0
 25 26  1  0
 10 27  2  0
 27 28  1  0
 28 29  2  0
 29 30  1  0
 30 31  2  0
 31 32  1  0
 32 33  2  0
 33 34  1  0
  9  4  1  0
 32 27  1  0
 33  8  1  0
  1 35  1  0
  1 36  1  0
  1 37  1  0
  2 38  1  0
  2 39  1  0
  5 40  1  0
  6 41  1  0
  7 42  1  0
 11 43  1  0
 12 44  1  0
 12 45  1  0
 13 46  1  0
 13 47  1  0
 14 48  1  0
 14 49  1  0
 16 50  1  0
 16 51  1  0
 17 52  1  0
 17 53  1  0
 18 54  1  0
 18 55  1  0
 20 56  1  0
 20 57  1  0
 21 58  1  0
 21 59  1  0
 23 60  1  0
 23 61  1  0
 24 62  1  0
 24 63  1  0
 24 64  1  0
 25 65  1  0
 25 66  1  0
 26 67  1  0
 26 68  1  0
 26 69  1  0
 28 70  1  0
 29 71  1  0
 30 72  1  0
 31 73  1  0
 34 74  1  0
 34 75  1  0
 34 76  1  0
M  CHG  1  33   1
M  END
>  <UniqueID>  (2) 
2

>  <SMILES>  (2) 
CCOc1cccc2c1c(NCCCOCCCOCCN(CC)CC)c1ccccc1[n+]2C

>  <Energy>  (2) 
98.14239780180723

>  <Genealogy>  (2) 
CCOc1cccc2c1c(NCCCOCCCOCCN(CC)CC)c1ccccc1[n+]2C (3D coordinates assigned)
CCOc1cccc2c1c(NCCCOCCCOCCN(CC)CC)c1ccccc1[n+]2C (optimized conformer: 98.14239780180723 kcal/mol)

>  <smiles>  (2) 
CCOc1cccc2c1c(NCCCOCCCOCCN(CC)CC)c1ccccc1[n+]2C

>  <score_type>  (2) 
oracle

>  <origin>  (2) 
adg

>  <m_score__min__energy>  (2) 
-9.5700000000000003

>  <m_primary>  (2) 
energy

$$$$
2:0
     RDKit          3D

 69 71  0  0  0  0  0  0  0  0999 V2000
   -1.6140   22.3590  -26.8520 C   0  0  0  0  0  0  0  0  0  0  0  0
   -0.8260   21.0390  -26.8710 C   0  0  0  0  0  0  0  0  0  0  0  0
   -1.4840   19.9360  -27.6230 N   0  0  2  0  0  0  0  0  0  0  0  0
   -2.8650   19.7080  -27.1490 C   0  0  0  0  0  0  0  0  0  0  0  0
   -0.6720   18.6930  -27.5940 C   0  0  0  0  0  0  0  0  0  0  0  0
    0.1830   18.4990  -28.8570 C   0  0  0  0  0  0  0  0  0  0  0  0
    0.3430   19.7350  -29.5290 O   0  0  0  0  0  0  0  0  0  0  0  0
   -0.1470   19.6560  -30.8550 C   0  0  0  0  0  0  0  0  0  0  0  0
   -1.6530   19.9880  -30.9060 C   0  0  0  0  0  0  0  0  0  0  0  0
   -1.9830   21.3580  -30.4450 N   0  0  0  0  0  0  0  0  0  0  0  0
   -0.7720   22.1890  -30.2950 C   0  0  0  0  0  0  0  0  0  0  0  0
   -3.0190   22.0110  -31.2790 C   0  0  0  0  0  0  0  0  0  0  0  0
   -2.9810   21.4870  -32.7210 C   0  0  0  0  0  0  0  0  0  0  0  0
   -4.2650   21.6750  -33.3900 N   0  0  0  0  0  0  0  0  0  0  0  0
   -5.4190   20.9220  -32.9850 C   0  0  0  0  0  0  0  0  0  0  0  0
   -6.4530   21.5370  -32.2600 C   0  0  0  0  0  0  0  0  0  0  0  0
   -7.6140   20.8030  -31.9480 C   0  0  0  0  0  0  0  0  0  0  0  0
   -7.7970   19.5320  -32.4510 N   0  0  0  0  0  0  0  0  0  0  0  0
   -9.1290   18.8970  -32.3740 C   0  0  0  0  0  0  0  0  0  0  0  0
   -6.7370   18.8650  -33.0360 C   0  0  0  0  0  0  0  0  0  0  0  0
   -6.8050   17.4820  -33.3470 C   0  0  0  0  0  0  0  0  0  0  0  0
   -5.7400   16.8330  -33.9700 C   0  0  0  0  0  0  0  0  0  0  0  0
   -4.5810   17.5320  -34.2850 C   0  0  0  0  0  0  0  0  0  0  0  0
   -4.4710   18.8830  -33.9650 C   0  0  0  0  0  0  0  0  0  0  0  0
   -5.5340   19.5630  -33.3320 C   0  0  0  0  0  0  0  0  0  0  0  0
   -8.6540   21.4890  -31.0780 C   0  0  0  0  0  0  0  0  0  0  0  0
   -7.9680   22.3050  -29.9780 C   0  0  0  0  0  0  0  0  0  0  0  0
   -6.9680   23.3390  -30.5310 C   0  0  0  0  0  0  0  0  0  0  0  0
   -6.4350   23.0190  -31.9420 C   0  0  0  0  0  0  0  0  0  0  0  0
   -1.7954   22.6628  -25.8105 H   0  0  0  0  0  0  0  0  0  0  0  0
   -1.0340   23.1397  -27.3660 H   0  0  0  0  0  0  0  0  0  0  0  0
   -2.5764   22.2189  -27.3660 H   0  0  0  0  0  0  0  0  0  0  0  0
    0.1544   21.2311  -27.3314 H   0  0  0  0  0  0  0  0  0  0  0  0
   -0.7533   20.7040  -25.8258 H   0  0  0  0  0  0  0  0  0  0  0  0
   -1.5450   20.2670  -28.6150 H   0  0  0  0  0  0  0  0  0  0  0  0
   -2.8794   19.7056  -26.0491 H   0  0  0  0  0  0  0  0  0  0  0  0
   -3.5181   20.5105  -27.5225 H   0  0  0  0  0  0  0  0  0  0  0  0
   -3.2255   18.7382  -27.5225 H   0  0  0  0  0  0  0  0  0  0  0  0
   -0.0031   18.7325  -26.7216 H   0  0  0  0  0  0  0  0  0  0  0  0
   -1.3720   17.8462  -27.5397 H   0  0  0  0  0  0  0  0  0  0  0  0
    1.1712   18.1092  -28.5714 H   0  0  0  0  0  0  0  0  0  0  0  0
   -0.3201   17.7865  -29.5272 H   0  0  0  0  0  0  0  0  0  0  0  0
    0.4012   20.3721  -31.4848 H   0  0  0  0  0  0  0  0  0  0  0  0
   -0.0006   18.6299  -31.2233 H   0  0  0  0  0  0  0  0  0  0  0  0
   -1.9962   19.8805  -31.9456 H   0  0  0  0  0  0  0  0  0  0  0  0
   -2.1567   19.2908  -30.2203 H   0  0  0  0  0  0  0  0  0  0  0  0
   -0.5581   22.3358  -29.2260 H   0  0  0  0  0  0  0  0  0  0  0  0
    0.0804   21.6846  -30.7736 H   0  0  0  0  0  0  0  0  0  0  0  0
   -0.9360   23.1658  -30.7736 H   0  0  0  0  0  0  0  0  0  0  0  0
   -4.0097   21.8043  -30.8479 H   0  0  0  0  0  0  0  0  0  0  0  0
   -2.8220   23.0931  -31.2959 H   0  0  0  0  0  0  0  0  0  0  0  0
   -2.2039   22.0301  -33.2788 H   0  0  0  0  0  0  0  0  0  0  0  0
   -2.7600   20.4098  -32.6922 H   0  0  0  0  0  0  0  0  0  0  0  0
   -4.2550   22.0310  -34.3740 H   0  0  0  0  0  0  0  0  0  0  0  0
   -9.4107   18.7627  -31.3192 H   0  0  0  0  0  0  0  0  0  0  0  0
   -9.8704   19.5385  -32.8727 H   0  0  0  0  0  0  0  0  0  0  0  0
   -9.0974   17.9171  -32.8727 H   0  0  0  0  0  0  0  0  0  0  0  0
   -7.7117   16.9135  -33.0926 H   0  0  0  0  0  0  0  0  0  0  0  0
   -5.8174   15.7630  -34.2133 H   0  0  0  0  0  0  0  0  0  0  0  0
   -3.7490   17.0174  -34.7880 H   0  0  0  0  0  0  0  0  0  0  0  0
   -3.5458   19.4261  -34.2081 H   0  0  0  0  0  0  0  0  0  0  0  0
   -9.2639   22.1596  -31.7011 H   0  0  0  0  0  0  0  0  0  0  0  0
   -9.2933   20.7245  -30.6123 H   0  0  0  0  0  0  0  0  0  0  0  0
   -8.7401   22.8368  -29.4027 H   0  0  0  0  0  0  0  0  0  0  0  0
   -7.4010   21.6012  -29.3510 H   0  0  0  0  0  0  0  0  0  0  0  0
   -7.4693   24.3175  -30.5664 H   0  0  0  0  0  0  0  0  0  0  0  0
   -6.0988   23.3264  -29.8570 H   0  0  0  0  0  0  0  0  0  0  0  0
   -7.0598   23.5435  -32.6800 H   0  0  0  0  0  0  0  0  0  0  0  0
   -5.3871   23.3512  -31.9810 H   0  0  0  0  0  0  0  0  0  0  0  0
  1  2  1  0
  2  3  1  0
  3  4  1  0
  3  5  1  0
  5  6  1  0
  6  7  1  0
  7  8  1  0
  8  9  1  0
  9 10  1  0
 10 11  1  0
 10 12  1  0
 12 13  1  0
 13 14  1  0
 14 15  1  0
 15 16  2  0
 16 17  1  0
 17 18  2  0
 18 19  1  0
 18 20  1  0
 20 21  2  0
 21 22  1  0
 22 23  2  0
 23 24  1  0
 24 25  2  0
 17 26  1  0
 26 27  1  0
 27 28  1  0
 28 29  1  0
 25 15  1  0
 29 16  1  0
 25 20  1  0
  1 30  1  0
  1 31  1  0
  1 32  1  0
  2 33  1  0
  2 34  1  0
  3 35  1  6
  4 36  1  0
  4 37  1  0
  4 38  1  0
  5 39  1  0
  5 40  1  0
  6 41  1  0
  6 42  1  0
  8 43  1  0
  8 44  1  0
  9 45  1  0
  9 46  1  0
 11 47  1  0
 11 48  1  0
 11 49  1  0
 12 50  1  0
 12 51  1  0
 13 52  1  0
 13 53  1  0
 14 54  1  0
 19 55  1  0
 19 56  1  0
 19 57  1  0
 21 58  1  0
 22 59  1  0
 23 60  1  0
 24 61  1  0
 26 62  1  0
 26 63  1  0
 27 64  1  0
 27 65  1  0
 28 66  1  0
 28 67  1  0
 29 68  1  0
 29 69  1  0
M  CHG  2   3   1  18   1
M  END
>  <UniqueID>  (3) 
3

>  <SMILES>  (3) 
CC[N@H+](C)CCOCCN(C)CCNc1c2c([n+](C)c3ccccc13)CCCC2

>  <Energy>  (3) 
99.7447664403857

>  <Genealogy>  (3) 
CC[NH+](C)CCOCCN(C)CCNc1c2c([n+](C)c3ccccc13)CCCC2 (protonated)
CC[N@H+](C)CCOCCN(C)CCNc1c2c([n+](C)c3ccccc13)CCCC2 (chirality)
CC[N@H+](C)CCOCCN(C)CCNc1c2c([n+](C)c3ccccc13)CCCC2 (3D coordinates assigned)
CC[N@H+](C)CCOCCN(C)CCNc1c2c([n+](C)c3ccccc13)CCCC2 (nonaromatic ring conformer: 99.7447664403857 kcal/mol)

>  <smiles>  (3) 
CCN(C)CCOCCN(C)CCNc1c2c([n+](C)c3ccccc13)CCCC2

>  <score_type>  (3) 
oracle

>  <origin>  (3) 
adg

>  <m_score__min__energy>  (3) 
-8.6199999999999992

>  <m_primary>  (3) 
energy

$$$$
3:0
     RDKit          3D

 40 40  0  0  0  0  0  0  0  0999 V2000
   -8.5884   23.7046  -32.4248 H   0  0  0  0  0  0  0  0  0  0  0  0
   -7.9710   23.0250  -31.8190 C   0  0  0  0  0  0  0  0  0  0  0  0
   -8.3950   21.8140  -31.5980 N   0  0  0  0  0  0  0  0  0  0  0  0
   -8.9940   20.5100  -31.4280 C   0  0  0  0  0  0  0  0  0  0  0  0
  -10.0643   20.6274  -31.2029 H   0  0  0  0  0  0  0  0  0  0  0  0
   -8.4932   19.9881  -30.5992 H   0  0  0  0  0  0  0  0  0  0  0  0
   -8.8330   19.6890  -32.7080 C   0  0  0  0  0  0  0  0  0  0  0  0
   -9.6805   19.8935  -33.3787 H   0  0  0  0  0  0  0  0  0  0  0  0
   -8.8074   18.6210  -32.4459 H   0  0  0  0  0  0  0  0  0  0  0  0
   -7.5790   20.0430  -33.3900 N   0  0  0  0  0  0  0  0  0  0  0  0
   -7.1060   20.7820  -32.8170 H   0  0  0  0  0  0  0  0  0  0  0  0
   -6.6720   18.8840  -33.4710 C   0  0  0  0  0  0  0  0  0  0  0  0
   -5.6696   19.1850  -33.1325 H   0  0  0  0  0  0  0  0  0  0  0  0
   -6.6328   18.5364  -34.5139 H   0  0  0  0  0  0  0  0  0  0  0  0
   -7.1820   17.7340  -32.5830 C   0  0  0  0  0  0  0  0  0  0  0  0
   -7.0241   16.7800  -33.1074 H   0  0  0  0  0  0  0  0  0  0  0  0
   -8.2514   17.8985  -32.3845 H   0  0  0  0  0  0  0  0  0  0  0  0
   -6.4420   17.6930  -31.2380 C   0  0  0  0  0  0  0  0  0  0  0  0
   -7.1722   17.7335  -30.4164 H   0  0  0  0  0  0  0  0  0  0  0  0
   -5.8615   16.7613  -31.1671 H   0  0  0  0  0  0  0  0  0  0  0  0
   -5.7622   18.5549  -31.1671 H   0  0  0  0  0  0  0  0  0  0  0  0
   -6.6850   23.5130  -31.2800 C   0  0  0  0  0  0  0  0  0  0  0  0
   -6.7020   24.6560  -30.4680 C   0  0  0  0  0  0  0  0  0  0  0  0
   -7.6593   25.1485  -30.2420 H   0  0  0  0  0  0  0  0  0  0  0  0
   -5.5170   25.1760  -29.9430 C   0  0  0  0  0  0  0  0  0  0  0  0
   -5.5494   26.0724  -29.3062 H   0  0  0  0  0  0  0  0  0  0  0  0
   -4.2910   24.5670  -30.2200 C   0  0  0  0  0  0  0  0  0  0  0  0
   -3.1280   25.1630  -29.7170 O   0  0  0  0  0  0  0  0  0  0  0  0
   -2.2780   24.5720  -28.7360 C   0  0  0  0  0  0  0  0  0  0  0  0
   -2.6452   24.8273  -27.7310 H   0  0  0  0  0  0  0  0  0  0  0  0
   -2.2794   23.4790  -28.8602 H   0  0  0  0  0  0  0  0  0  0  0  0
   -1.2539   24.9539  -28.8602 H   0  0  0  0  0  0  0  0  0  0  0  0
   -4.2640   23.3980  -31.0000 C   0  0  0  0  0  0  0  0  0  0  0  0
   -3.3043   22.8998  -31.2018 H   0  0  0  0  0  0  0  0  0  0  0  0
   -5.4570   22.8570  -31.5270 C   0  0  0  0  0  0  0  0  0  0  0  0
   -5.4520   21.6830  -32.2970 O   0  0  0  0  0  0  0  0  0  0  0  0
   -4.3350   21.2040  -33.0450 C   0  0  0  0  0  0  0  0  0  0  0  0
   -3.5484   20.8667  -32.3540 H   0  0  0  0  0  0  0  0  0  0  0  0
   -4.6518   20.3626  -33.6788 H   0  0  0  0  0  0  0  0  0  0  0  0
   -3.9438   22.0135  -33.6788 H   0  0  0  0  0  0  0  0  0  0  0  0
  1  2  1  0
  2  3  2  0
  3  4  1  0
  4  5  1  0
  4  6  1  0
  4  7  1  0
  7  8  1  0
  7  9  1  0
  7 10  1  0
 10 11  1  0
 10 12  1  0
 12 13  1  0
 12 14  1  0
 12 15  1  0
 15 16  1  0
 15 17  1  0
 15 18  1  0
 18 19  1  0
 18 20  1  0
 18 21  1  0
  2 22  1  0
 22 23  2  0
 23 24  1  0
 23 25  1  0
 25 26  1  0
 25 27  2  0
 27 28  1  0
 28 29  1  0
 29 30  1  0
 29 31  1  0
 29 32  1  0
 27 33  1  0
 33 34  1  0
 33 35  2  0
 35 36  1  0
 36 37  1  0
 37 38  1  0
 37 39  1  0
 37 40  1  0
 35 22  1  0
M  END
>  <UniqueID>  (4) 
4

>  <SMILES>  (4) 
CCCNCC/N=C\c1ccc(OC)cc1OC

>  <Energy>  (4) 
74.30619761762833

>  <Genealogy>  (4) 
CCCNCC/N=C\c1ccc(OC)cc1OC (cis-trans isomerization)
CCCNCC/N=C\c1ccc(OC)cc1OC (3D coordinates assigned)
CCCNCC/N=C\c1ccc(OC)cc1OC (optimized conformer: 74.30619761762833 kcal/mol)

>  <smiles>  (4) 
CCCNCCN=Cc1ccc(OC)cc1OC

>  <score_type>  (4) 
oracle

>  <origin>  (4) 
adg

>  <m_score__min__energy>  (4) 
-5.6299999999999999

>  <m_primary>  (4) 
energy

$$$$
4:0
     RDKit          3D

 81 83  0  0  0  0  0  0  0  0999 V2000
   -0.9030   22.1390  -26.3330 C   0  0  0  0  0  0  0  0  0  0  0  0
   -1.9350   21.3530  -27.1420 C   0  0  0  0  0  0  0  0  0  0  0  0
   -1.2860   20.3180  -27.9780 N   0  0  0  0  0  0  0  0  0  0  0  0
   -1.5030   18.9530  -27.4290 C   0  0  0  0  0  0  0  0  0  0  0  0
   -2.6910   18.9660  -26.4720 C   0  0  0  0  0  0  0  0  0  0  0  0
   -1.7430   20.4230  -29.3820 C   0  0  0  0  0  0  0  0  0  0  0  0
   -2.8410   21.4850  -29.5260 C   0  0  0  0  0  0  0  0  0  0  0  0
   -2.3950   22.5210  -30.3830 O   0  0  0  0  0  0  0  0  0  0  0  0
   -1.4870   23.3720  -29.7160 C   0  0  0  0  0  0  0  0  0  0  0  0
   -2.2760   24.4360  -28.9510 C   0  0  0  0  0  0  0  0  0  0  0  0
   -3.7560   24.5080  -29.3700 C   0  0  0  0  0  0  0  0  0  0  0  0
   -3.9480   24.8470  -30.7930 N   0  0  0  0  0  0  0  0  0  0  0  0
   -5.3660   24.9170  -31.1690 C   0  0  0  0  0  0  0  0  0  0  0  0
   -5.7240   23.7370  -32.0770 C   0  0  0  0  0  0  0  0  0  0  0  0
   -4.8920   22.5760  -31.7630 N   0  0  0  0  0  0  0  0  0  0  0  0
   -5.1750   21.2830  -32.3260 C   0  0  0  0  0  0  0  0  0  0  0  0
   -6.4660   20.7360  -32.2240 C   0  0  0  0  0  0  0  0  0  0  0  0
   -7.4670   21.3840  -31.4690 C   0  0  0  0  0  0  0  0  0  0  0  0
   -8.7370   20.8240  -31.3410 C   0  0  0  0  0  0  0  0  0  0  0  0
   -9.0240   19.6050  -31.9440 C   0  0  0  0  0  0  0  0  0  0  0  0
   -8.0480   18.9410  -32.6840 C   0  0  0  0  0  0  0  0  0  0  0  0
   -6.7560   19.4990  -32.8600 C   0  0  0  0  0  0  0  0  0  0  0  0
   -5.7830   18.8580  -33.6030 N   0  0  0  0  0  0  0  0  0  0  0  0
   -6.1490   17.7320  -34.4910 C   0  0  0  0  0  0  0  0  0  0  0  0
   -4.4680   19.2810  -33.5320 C   0  0  0  0  0  0  0  0  0  0  0  0
   -3.4050   18.4940  -34.0360 C   0  0  0  0  0  0  0  0  0  0  0  0
   -2.0920   18.9590  -34.0220 C   0  0  0  0  0  0  0  0  0  0  0  0
   -1.7890   20.2200  -33.5010 C   0  0  0  0  0  0  0  0  0  0  0  0
   -0.4270   20.7030  -33.5050 N   0  0  0  0  0  0  0  0  0  0  0  0
    0.3330   20.7690  -34.7640 C   0  0  0  0  0  0  0  0  0  0  0  0
    0.2930   22.1770  -35.3500 C   0  0  0  0  0  0  0  0  0  0  0  0
    0.2040   21.1290  -32.2440 C   0  0  0  0  0  0  0  0  0  0  0  0
    0.6900   19.9190  -31.4550 C   0  0  0  0  0  0  0  0  0  0  0  0
   -2.8190   20.9930  -32.9510 C   0  0  0  0  0  0  0  0  0  0  0  0
   -4.1520   20.5260  -32.9280 C   0  0  0  0  0  0  0  0  0  0  0  0
   -1.0921   21.9950  -25.2590 H   0  0  0  0  0  0  0  0  0  0  0  0
    0.1070   21.7793  -26.5790 H   0  0  0  0  0  0  0  0  0  0  0  0
   -0.9814   23.2083  -26.5790 H   0  0  0  0  0  0  0  0  0  0  0  0
   -2.6379   20.8662  -26.4500 H   0  0  0  0  0  0  0  0  0  0  0  0
   -2.4645   22.0535  -27.8045 H   0  0  0  0  0  0  0  0  0  0  0  0
   -1.7062   18.2550  -28.2545 H   0  0  0  0  0  0  0  0  0  0  0  0
   -0.6019   18.6313  -26.8863 H   0  0  0  0  0  0  0  0  0  0  0  0
   -2.3260   18.9620  -25.4343 H   0  0  0  0  0  0  0  0  0  0  0  0
   -3.2920   19.8708  -26.6458 H   0  0  0  0  0  0  0  0  0  0  0  0
   -3.3116   18.0746  -26.6458 H   0  0  0  0  0  0  0  0  0  0  0  0
   -0.8894   20.6998  -30.0182 H   0  0  0  0  0  0  0  0  0  0  0  0
   -2.1543   19.4503  -29.6899 H   0  0  0  0  0  0  0  0  0  0  0  0
   -3.7437   21.0221  -29.9513 H   0  0  0  0  0  0  0  0  0  0  0  0
   -3.0723   21.9057  -28.5363 H   0  0  0  0  0  0  0  0  0  0  0  0
   -0.8799   22.7847  -29.0114 H   0  0  0  0  0  0  0  0  0  0  0  0
   -0.8225   23.8549  -30.4476 H   0  0  0  0  0  0  0  0  0  0  0  0
   -2.2271   24.2034  -27.8770 H   0  0  0  0  0  0  0  0  0  0  0  0
   -1.8218   25.4108  -29.1823 H   0  0  0  0  0  0  0  0  0  0  0  0
   -4.2200   23.5290  -29.1794 H   0  0  0  0  0  0  0  0  0  0  0  0
   -4.2210   25.3115  -28.7800 H   0  0  0  0  0  0  0  0  0  0  0  0
   -3.4620   24.1570  -31.4120 H   0  0  0  0  0  0  0  0  0  0  0  0
   -5.9862   24.8798  -30.2613 H   0  0  0  0  0  0  0  0  0  0  0  0
   -5.5514   25.8577  -31.7081 H   0  0  0  0  0  0  0  0  0  0  0  0
   -6.7819   23.4745  -31.9288 H   0  0  0  0  0  0  0  0  0  0  0  0
   -5.5475   24.0277  -33.1231 H   0  0  0  0  0  0  0  0  0  0  0  0
   -3.9640   22.7350  -31.2990 H   0  0  0  0  0  0  0  0  0  0  0  0
   -7.2425   22.3415  -30.9762 H   0  0  0  0  0  0  0  0  0  0  0  0
   -9.5126   21.3471  -30.7624 H   0  0  0  0  0  0  0  0  0  0  0  0
  -10.0255   19.1629  -31.8366 H   0  0  0  0  0  0  0  0  0  0  0  0
   -8.2834   17.9677  -33.1394 H   0  0  0  0  0  0  0  0  0  0  0  0
   -6.4320   16.8613  -33.8813 H   0  0  0  0  0  0  0  0  0  0  0  0
   -6.9977   18.0266  -35.1258 H   0  0  0  0  0  0  0  0  0  0  0  0
   -5.2893   17.4713  -35.1258 H   0  0  0  0  0  0  0  0  0  0  0  0
   -3.6198   17.4963  -34.4465 H   0  0  0  0  0  0  0  0  0  0  0  0
   -1.2861   18.3278  -34.4247 H   0  0  0  0  0  0  0  0  0  0  0  0
    1.3788   20.4897  -34.5686 H   0  0  0  0  0  0  0  0  0  0  0  0
   -0.1213   20.0745  -35.4860 H   0  0  0  0  0  0  0  0  0  0  0  0
    0.2721   22.9136  -34.5333 H   0  0  0  0  0  0  0  0  0  0  0  0
    1.1868   22.3418  -35.9696 H   0  0  0  0  0  0  0  0  0  0  0  0
   -0.6087   22.2908  -35.9696 H   0  0  0  0  0  0  0  0  0  0  0  0
    1.0602   21.7815  -32.4700 H   0  0  0  0  0  0  0  0  0  0  0  0
   -0.5380   21.6725  -31.6407 H   0  0  0  0  0  0  0  0  0  0  0  0
    0.6068   20.1261  -30.3779 H   0  0  0  0  0  0  0  0  0  0  0  0
    0.0735   19.0440  -31.7088 H   0  0  0  0  0  0  0  0  0  0  0  0
    1.7404   19.7135  -31.7088 H   0  0  0  0  0  0  0  0  0  0  0  0
   -2.5859   21.9818  -32.5292 H   0  0  0  0  0  0  0  0  0  0  0  0
  1  2  1  0
  2  3  1  0
  3  4  1  0
  4  5  1  0
  3  6  1  0
  6  7  1  0
  7  8  1  0
  8  9  1  0
  9 10  1  0
 10 11  1  0
 11 12  1  0
 12 13  1  0
 13 14  1  0
 14 15  1  0
 15 16  1  0
 16 17  2  0
 17 18  1  0
 18 19  2  0
 19 20  1  0
 20 21  2  0
 21 22  1  0
 22 23  2  0
 23 24  1  0
 23 25  1  0
 25 26  2  0
 26 27  1  0
 27 28  2  0
 28 29  1  0
 29 30  1  0
 30 31  1  0
 29 32  1  0
 32 33  1  0
 28 34  1  0
 34 35  2  0
 35 16  1  0
 22 17  1  0
 35 25  1  0
  1 36  1  0
  1 37  1  0
  1 38  1  0
  2 39  1  0
  2 40  1  0
  4 41  1  0
  4 42  1  0
  5 43  1  0
  5 44  1  0
  5 45  1  0
  6 46  1  0
  6 47  1  0
  7 48  1  0
  7 49  1  0
  9 50  1  0
  9 51  1  0
 10 52  1  0
 10 53  1  0
 11 54  1  0
 11 55  1  0
 12 56  1  0
 13 57  1  0
 13 58  1  0
 14 59  1  0
 14 60  1  0
 15 61  1  0
 18 62  1  0
 19 63  1  0
 20 64  1  0
 21 65  1  0
 24 66  1  0
 24 67  1  0
 24 68  1  0
 26 69  1  0
 27 70  1  0
 30 71  1  0
 30 72  1  0
 31 73  1  0
 31 74  1  0
 31 75  1  0
 32 76  1  0
 32 77  1  0
 33 78  1  0
 33 79  1  0
 33 80  1  0
 34 81  1  0
M  CHG  1  23   1
M  END
>  <UniqueID>  (5) 
5

>  <SMILES>  (5) 
CCN(CC)CCOCCCNCCNc1c2ccccc2[n+](C)c2ccc(N(CC)CC)cc12

>  <Energy>  (5) 
99.49636848954702

>  <Genealogy>  (5) 
CCN(CC)CCOCCCNCCNc1c2ccccc2[n+](C)c2ccc(N(CC)CC)cc12 (3D coordinates assigned)
CCN(CC)CCOCCCNCCNc1c2ccccc2[n+](C)c2ccc(N(CC)CC)cc12 (optimized conformer: 99.49636848954702 kcal/mol)

>  <smiles>  (5) 
CCN(CC)CCOCCCNCCNc1c2ccccc2[n+](C)c2ccc(N(CC)CC)cc12

>  <score_type>  (5) 
oracle

>  <origin>  (5) 
adg

>  <m_score__min__energy>  (5) 
-10.25

>  <m_primary>  (5) 
energy

$$$$
5:0
     RDKit          3D

 85 88  0  0  0  0  0  0  0  0999 V2000
   -1.1260   17.3150  -32.7080 C   0  0  0  0  0  0  0  0  0  0  0  0
   -0.2240   17.6160  -31.5120 C   0  0  0  0  0  0  0  0  0  0  0  0
   -0.3690   19.0230  -31.0690 N   0  0  0  0  0  0  0  0  0  0  0  0
    0.3550   19.3380  -29.8130 C   0  0  0  0  0  0  0  0  0  0  0  0
   -0.5100   19.2570  -28.5480 C   0  0  0  0  0  0  0  0  0  0  0  0
   -0.0630   19.9780  -32.1570 C   0  0  0  0  0  0  0  0  0  0  0  0
   -1.3400   20.6980  -32.5960 C   0  0  0  0  0  0  0  0  0  0  0  0
   -2.3670   20.6180  -31.5580 N   0  0  0  0  0  0  0  0  0  0  0  0
   -3.6890   21.1410  -31.7750 C   0  0  0  0  0  0  0  0  0  0  0  0
   -4.6060   20.3950  -32.5340 C   0  0  0  0  0  0  0  0  0  0  0  0
   -4.1900   19.2610  -33.2660 C   0  0  0  0  0  0  0  0  0  0  0  0
   -5.0920   18.5630  -34.0650 C   0  0  0  0  0  0  0  0  0  0  0  0
   -6.4110   18.9860  -34.1600 C   0  0  0  0  0  0  0  0  0  0  0  0
   -6.8510   20.0790  -33.4160 C   0  0  0  0  0  0  0  0  0  0  0  0
   -5.9700   20.7800  -32.5530 C   0  0  0  0  0  0  0  0  0  0  0  0
   -6.4060   21.8030  -31.7370 N   0  0  0  0  0  0  0  0  0  0  0  0
   -7.8570   21.9770  -31.4850 C   0  0  0  0  0  0  0  0  0  0  0  0
   -5.4930   22.6580  -31.1470 C   0  0  0  0  0  0  0  0  0  0  0  0
   -5.9060   23.8410  -30.5010 C   0  0  0  0  0  0  0  0  0  0  0  0
   -4.9950   24.6770  -29.8730 C   0  0  0  0  0  0  0  0  0  0  0  0
   -3.6190   24.4200  -29.9340 C   0  0  0  0  0  0  0  0  0  0  0  0
   -2.6930   25.2820  -29.3190 O   0  0  0  0  0  0  0  0  0  0  0  0
   -1.7260   24.9260  -28.3340 C   0  0  0  0  0  0  0  0  0  0  0  0
   -2.2130   25.2970  -26.9050 C   0  0  0  0  0  0  0  0  0  0  0  0
   -1.1290   25.5880  -25.9050 N   0  0  0  0  0  0  0  0  0  0  0  0
   -0.6590   24.2970  -25.3230 C   0  0  0  0  0  0  0  0  0  0  0  0
   -1.6160   26.5100  -24.8190 C   0  0  0  0  0  0  0  0  0  0  0  0
   -0.8710   27.8580  -24.7350 C   0  0  0  0  0  0  0  0  0  0  0  0
    0.6100   27.7000  -24.6840 N   0  0  0  0  0  0  0  0  0  0  0  0
    1.0140   27.2180  -23.3370 C   0  0  0  0  0  0  0  0  0  0  0  0
    1.2170   29.0410  -24.8770 C   0  0  0  0  0  0  0  0  0  0  0  0
    1.1170   26.7610  -25.7420 C   0  0  0  0  0  0  0  0  0  0  0  0
    0.0100   26.1990  -26.6610 C   0  0  0  0  0  0  0  0  0  0  0  0
   -3.1590   23.2790  -30.6340 C   0  0  0  0  0  0  0  0  0  0  0  0
   -1.7870   23.0380  -30.8550 O   0  0  0  0  0  0  0  0  0  0  0  0
   -0.8380   22.5210  -29.9260 C   0  0  0  0  0  0  0  0  0  0  0  0
   -4.1010   22.3560  -31.1790 C   0  0  0  0  0  0  0  0  0  0  0  0
   -2.1125   16.9858  -32.3496 H   0  0  0  0  0  0  0  0  0  0  0  0
   -1.2417   18.2232  -33.3177 H   0  0  0  0  0  0  0  0  0  0  0  0
   -0.6731   16.5193  -33.3177 H   0  0  0  0  0  0  0  0  0  0  0  0
   -0.4962   16.9488  -30.6809 H   0  0  0  0  0  0  0  0  0  0  0  0
    0.8208   17.4533  -31.8153 H   0  0  0  0  0  0  0  0  0  0  0  0
    1.1872   18.6265  -29.7074 H   0  0  0  0  0  0  0  0  0  0  0  0
    0.6927   20.3815  -29.8973 H   0  0  0  0  0  0  0  0  0  0  0  0
    0.1345   19.3174  -27.6586 H   0  0  0  0  0  0  0  0  0  0  0  0
   -1.2260   20.0920  -28.5393 H   0  0  0  0  0  0  0  0  0  0  0  0
   -1.0585   18.3036  -28.5393 H   0  0  0  0  0  0  0  0  0  0  0  0
    0.6672   20.7180  -31.7975 H   0  0  0  0  0  0  0  0  0  0  0  0
    0.3540   19.4280  -33.0135 H   0  0  0  0  0  0  0  0  0  0  0  0
   -1.1080   21.7552  -32.7925 H   0  0  0  0  0  0  0  0  0  0  0  0
   -1.7218   20.2129  -33.5064 H   0  0  0  0  0  0  0  0  0  0  0  0
   -2.1080   20.2580  -30.6150 H   0  0  0  0  0  0  0  0  0  0  0  0
   -3.1440   18.9261  -33.2044 H   0  0  0  0  0  0  0  0  0  0  0  0
   -4.7589   17.6748  -34.6219 H   0  0  0  0  0  0  0  0  0  0  0  0
   -7.1103   18.4571  -34.8242 H   0  0  0  0  0  0  0  0  0  0  0  0
   -7.8987   20.4036  -33.4993 H   0  0  0  0  0  0  0  0  0  0  0  0
   -8.0408   21.9990  -30.4007 H   0  0  0  0  0  0  0  0  0  0  0  0
   -8.1963   22.9223  -31.9337 H   0  0  0  0  0  0  0  0  0  0  0  0
   -8.4102   21.1388  -31.9337 H   0  0  0  0  0  0  0  0  0  0  0  0
   -6.9734   24.1066  -30.4949 H   0  0  0  0  0  0  0  0  0  0  0  0
   -5.3581   25.5550  -29.3187 H   0  0  0  0  0  0  0  0  0  0  0  0
   -1.5483   23.8415  -28.3818 H   0  0  0  0  0  0  0  0  0  0  0  0
   -0.7993   25.4815  -28.5403 H   0  0  0  0  0  0  0  0  0  0  0  0
   -2.8483   26.1914  -26.9854 H   0  0  0  0  0  0  0  0  0  0  0  0
   -2.7411   24.4092  -26.5269 H   0  0  0  0  0  0  0  0  0  0  0  0
   -0.6819   24.3599  -24.2250 H   0  0  0  0  0  0  0  0  0  0  0  0
   -1.3183   23.4824  -25.6574 H   0  0  0  0  0  0  0  0  0  0  0  0
    0.3696   24.0969  -25.6574 H   0  0  0  0  0  0  0  0  0  0  0  0
   -2.6812   26.7179  -24.9984 H   0  0  0  0  0  0  0  0  0  0  0  0
   -1.4302   25.9927  -23.8662 H   0  0  0  0  0  0  0  0  0  0  0  0
   -1.1297   28.4577  -25.6201 H   0  0  0  0  0  0  0  0  0  0  0  0
   -1.1828   28.3498  -23.8018 H   0  0  0  0  0  0  0  0  0  0  0  0
    0.5100   27.8193  -22.5660 H   0  0  0  0  0  0  0  0  0  0  0  0
    0.7271   26.1621  -23.2241 H   0  0  0  0  0  0  0  0  0  0  0  0
    2.1038   27.3160  -23.2241 H   0  0  0  0  0  0  0  0  0  0  0  0
    1.4225   29.4950  -23.8964 H   0  0  0  0  0  0  0  0  0  0  0  0
    2.1573   28.9404  -25.4388 H   0  0  0  0  0  0  0  0  0  0  0  0
    0.5209   29.6812  -25.4388 H   0  0  0  0  0  0  0  0  0  0  0  0
    1.8439   27.3018  -26.3658 H   0  0  0  0  0  0  0  0  0  0  0  0
    1.5653   25.9029  -25.2198 H   0  0  0  0  0  0  0  0  0  0  0  0
   -0.3812   27.0200  -27.2798 H   0  0  0  0  0  0  0  0  0  0  0  0
    0.4631   25.4030  -27.2702 H   0  0  0  0  0  0  0  0  0  0  0  0
   -1.1875   22.7114  -28.9005 H   0  0  0  0  0  0  0  0  0  0  0  0
   -0.7267   21.4376  -30.0802 H   0  0  0  0  0  0  0  0  0  0  0  0
    0.1327   23.0150  -30.0802 H   0  0  0  0  0  0  0  0  0  0  0  0
  1  2  1  0
  2  3  1  0
  3  4  1  0
  4  5  1  0
  3  6  1  0
  6  7  1  0
  7  8  1  0
  8  9  1  0
  9 10  2  0
 10 11  1  0
 11 12  2  0
 12 13  1  0
 13 14  2  0
 14 15  1  0
 15 16  2  0
 16 17  1  0
 16 18  1  0
 18 19  2  0
 19 20  1  0
 20 21  2  0
 21 22  1  0
 22 23  1  0
 23 24  1  0
 24 25  1  0
 25 26  1  0
 25 27  1  0
 27 28  1  0
 28 29  1  0
 29 30  1  0
 29 31  1  0
 29 32  1  0
 32 33  1  0
 21 34  1  0
 34 35  1  0
 35 36  1  0
 34 37  2  0
 37  9  1  0
 15 10  1  0
 37 18  1  0
 33 25  1  0
  1 38  1  0
  1 39  1  0
  1 40  1  0
  2 41  1  0
  2 42  1  0
  4 43  1  0
  4 44  1  0
  5 45  1  0
  5 46  1  0
  5 47  1  0
  6 48  1  0
  6 49  1  0
  7 50  1  0
  7 51  1  0
  8 52  1  0
 11 53  1  0
 12 54  1  0
 13 55  1  0
 14 56  1  0
 17 57  1  0
 17 58  1  0
 17 59  1  0
 19 60  1  0
 20 61  1  0
 23 62  1  0
 23 63  1  0
 24 64  1  0
 24 65  1  0
 26 66  1  0
 26 67  1  0
 26 68  1  0
 27 69  1  0
 27 70  1  0
 28 71  1  0
 28 72  1  0
 30 73  1  0
 30 74  1  0
 30 75  1  0
 31 76  1  0
 31 77  1  0
 31 78  1  0
 32 79  1  0
 32 80  1  0
 33 81  1  0
 33 82  1  0
 36 83  1  0
 36 84  1  0
 36 85  1  0
M  CHG  3  16   1  25   1  29   1
M  END
>  <UniqueID>  (6) 
6

>  <SMILES>  (6) 
CCN(CC)CCNc1c2ccccc2[n+](C)c2ccc(OCC[N+]3(C)CC[N+](C)(C)CC3)c(OC)c12

>  <Energy>  (6) 
151.7809381940714

>  <Genealogy>  (6) 
CCN(CC)CCNc1c2ccccc2[n+](C)c2ccc(OCC[N+]3(C)CC[N+](C)(C)CC3)c(OC)c12 (3D coordinates assigned)
CCN(CC)CCNc1c2ccccc2[n+](C)c2ccc(OCC[N+]3(C)CC[N+](C)(C)CC3)c(OC)c12 (nonaromatic ring conformer: 151.7809381940714 kcal/mol)

>  <smiles>  (6) 
CCN(CC)CCNc1c2ccccc2[n+](C)c2ccc(OCC[N+]3(C)CC[N+](C)(C)CC3)c(OC)c12

>  <score_type>  (6) 
oracle

>  <origin>  (6) 
adg

>  <m_score__min__energy>  (6) 
-8.3200000000000003

>  <m_primary>  (6) 
energy

$$$$
6:0
     RDKit          3D

 58 61  0  0  0  0  0  0  0  0999 V2000
   -5.5990   25.6690  -30.4730 C   0  0  0  0  0  0  0  0  0  0  0  0
   -6.5690   24.5030  -30.2780 C   0  0  0  0  0  0  0  0  0  0  0  0
   -6.0230   23.5210  -29.3260 N   0  0  0  0  0  0  0  0  0  0  0  0
   -4.5870   23.2430  -29.5550 C   0  0  0  0  0  0  0  0  0  0  0  0
   -4.3310   22.1080  -30.5720 C   0  0  0  0  0  0  0  0  0  0  0  0
   -3.7220   22.6030  -31.8910 C   0  0  0  0  0  0  0  0  0  0  0  0
   -4.5080   22.1440  -33.0360 N   0  0  0  0  0  0  0  0  0  0  0  0
   -5.0850   20.8320  -33.0780 C   0  0  0  0  0  0  0  0  0  0  0  0
   -6.4350   20.5980  -32.7360 C   0  0  0  0  0  0  0  0  0  0  0  0
   -7.2350   21.6350  -32.2160 C   0  0  0  0  0  0  0  0  0  0  0  0
   -8.5560   21.3980  -31.8490 C   0  0  0  0  0  0  0  0  0  0  0  0
   -9.1000   20.1240  -31.9740 C   0  0  0  0  0  0  0  0  0  0  0  0
   -8.3300   19.0730  -32.4740 C   0  0  0  0  0  0  0  0  0  0  0  0
   -6.9900   19.2800  -32.8820 C   0  0  0  0  0  0  0  0  0  0  0  0
   -6.2160   18.2470  -33.3920 N   0  0  0  0  0  0  0  0  0  0  0  0
   -6.7870   16.9100  -33.6410 C   0  0  0  0  0  0  0  0  0  0  0  0
   -4.8860   18.4850  -33.6260 C   0  0  0  0  0  0  0  0  0  0  0  0
   -3.9590   17.5810  -34.0320 N   0  0  0  0  0  0  0  0  0  0  0  0
   -2.8100   18.2770  -34.1360 C   0  0  0  0  0  0  0  0  0  0  0  0
   -1.5660   17.7860  -34.5290 C   0  0  0  0  0  0  0  0  0  0  0  0
   -0.4840   18.6830  -34.5720 C   0  0  0  0  0  0  0  0  0  0  0  0
   -0.6630   20.0370  -34.2140 C   0  0  0  0  0  0  0  0  0  0  0  0
    0.7150   21.1850  -34.2940 S   0  0  0  0  0  0  0  0  0  0  0  0
    0.2840   21.8360  -35.9480 C   0  0  0  0  0  0  0  0  0  0  0  0
    0.6510   23.3090  -36.0520 C   0  0  0  0  0  0  0  0  0  0  0  0
   -1.9230   20.5030  -33.8000 C   0  0  0  0  0  0  0  0  0  0  0  0
   -2.9870   19.6000  -33.7930 C   0  0  0  0  0  0  0  0  0  0  0  0
   -4.3240   19.7350  -33.4680 C   0  0  0  0  0  0  0  0  0  0  0  0
   -5.2818   26.0502  -29.4911 H   0  0  0  0  0  0  0  0  0  0  0  0
   -4.7182   25.3234  -31.0341 H   0  0  0  0  0  0  0  0  0  0  0  0
   -6.0992   26.4721  -31.0341 H   0  0  0  0  0  0  0  0  0  0  0  0
   -7.5233   24.8890  -29.8902 H   0  0  0  0  0  0  0  0  0  0  0  0
   -6.7220   24.0063  -31.2475 H   0  0  0  0  0  0  0  0  0  0  0  0
   -6.5860   22.6390  -29.3690 H   0  0  0  0  0  0  0  0  0  0  0  0
   -6.1240   23.9080  -28.3580 H   0  0  0  0  0  0  0  0  0  0  0  0
   -4.1108   24.1606  -29.9308 H   0  0  0  0  0  0  0  0  0  0  0  0
   -4.1645   22.9159  -28.5935 H   0  0  0  0  0  0  0  0  0  0  0  0
   -3.6400   21.3820  -30.1188 H   0  0  0  0  0  0  0  0  0  0  0  0
   -5.3057   21.6577  -30.8110 H   0  0  0  0  0  0  0  0  0  0  0  0
   -3.7006   23.7028  -31.8870 H   0  0  0  0  0  0  0  0  0  0  0  0
   -2.7031   22.1981  -31.9804 H   0  0  0  0  0  0  0  0  0  0  0  0
   -4.6390   22.7760  -33.8570 H   0  0  0  0  0  0  0  0  0  0  0  0
   -6.8104   22.6430  -32.0989 H   0  0  0  0  0  0  0  0  0  0  0  0
   -9.1724   22.2212  -31.4586 H   0  0  0  0  0  0  0  0  0  0  0  0
  -10.1437   19.9438  -31.6769 H   0  0  0  0  0  0  0  0  0  0  0  0
   -8.7709   18.0683  -32.5524 H   0  0  0  0  0  0  0  0  0  0  0  0
   -6.9977   16.4166  -32.6807 H   0  0  0  0  0  0  0  0  0  0  0  0
   -7.7205   17.0109  -34.2140 H   0  0  0  0  0  0  0  0  0  0  0  0
   -6.0686   16.3054  -34.2140 H   0  0  0  0  0  0  0  0  0  0  0  0
   -4.0660   16.5590  -34.2130 H   0  0  0  0  0  0  0  0  0  0  0  0
   -1.4346   16.7275  -34.7977 H   0  0  0  0  0  0  0  0  0  0  0  0
    0.5083   18.3275  -34.8866 H   0  0  0  0  0  0  0  0  0  0  0  0
    0.8344   21.2706  -36.7145 H   0  0  0  0  0  0  0  0  0  0  0  0
   -0.7997   21.7271  -36.1024 H   0  0  0  0  0  0  0  0  0  0  0  0
    0.7566   23.7327  -35.0424 H   0  0  0  0  0  0  0  0  0  0  0  0
    1.6024   23.4124  -36.5944 H   0  0  0  0  0  0  0  0  0  0  0  0
   -0.1406   23.8467  -36.5944 H   0  0  0  0  0  0  0  0  0  0  0  0
   -2.0661   21.5488  -33.4906 H   0  0  0  0  0  0  0  0  0  0  0  0
  1  2  1  0
  2  3  1  0
  3  4  1  0
  4  5  1  0
  5  6  1  0
  6  7  1  0
  7  8  1  0
  8  9  2  0
  9 10  1  0
 10 11  2  0
 11 12  1  0
 12 13  2  0
 13 14  1  0
 14 15  2  0
 15 16  1  0
 15 17  1  0
 17 18  1  0
 18 19  1  0
 19 20  2  0
 20 21  1  0
 21 22  2  0
 22 23  1  0
 23 24  1  0
 24 25  1  0
 22 26  1  0
 26 27  2  0
 27 28  1  0
 28  8  1  0
 14  9  1  0
 28 17  2  0
 27 19  1  0
  1 29  1  0
  1 30  1  0
  1 31  1  0
  2 32  1  0
  2 33  1  0
  3 34  1  0
  3 35  1  0
  4 36  1  0
  4 37  1  0
  5 38  1  0
  5 39  1  0
  6 40  1  0
  6 41  1  0
  7 42  1  0
 10 43  1  0
 11 44  1  0
 12 45  1  0
 13 46  1  0
 16 47  1  0
 16 48  1  0
 16 49  1  0
 18 50  1  0
 20 51  1  0
 21 52  1  0
 24 53  1  0
 24 54  1  0
 25 55  1  0
 25 56  1  0
 25 57  1  0
 26 58  1  0
M  CHG  2   3   1  15   1
M  END
>  <UniqueID>  (7) 
7

>  <SMILES>  (7) 
CC[NH2+]CCCNc1c2ccccc2[n+](C)c2[nH]c3ccc(SCC)cc3c12

>  <Energy>  (7) 
108.919489634907

>  <Genealogy>  (7) 
CC[NH2+]CCCNc1c2ccccc2[n+](C)c2[nH]c3ccc(SCC)cc3c12 (protonated)
CC[NH2+]CCCNc1c2ccccc2[n+](C)c2[nH]c3ccc(SCC)cc3c12 (3D coordinates assigned)
CC[NH2+]CCCNc1c2ccccc2[n+](C)c2[nH]c3ccc(SCC)cc3c12 (optimized conformer: 108.919489634907 kcal/mol)

>  <smiles>  (7) 
CCNCCCNc1c2ccccc2[n+](C)c2[nH]c3ccc(SCC)cc3c12

>  <score_type>  (7) 
oracle

>  <origin>  (7) 
adg

>  <m_score__min__energy>  (7) 
-8.4399999999999995

>  <m_primary>  (7) 
energy

$$$$
7:0
     RDKit          3D

 65 67  0  0  0  0  0  0  0  0999 V2000
   -0.4090   22.5610  -28.8620 C   0  0  0  0  0  0  0  0  0  0  0  0
   -1.1900   23.0830  -30.0630 C   0  0  0  0  0  0  0  0  0  0  0  0
   -2.3640   22.2350  -30.3140 N   0  0  0  0  0  0  0  0  0  0  0  0
   -2.5250   21.1720  -29.3050 C   0  0  0  0  0  0  0  0  0  0  0  0
   -3.4680   21.5870  -28.1710 C   0  0  0  0  0  0  0  0  0  0  0  0
   -4.5370   22.3370  -28.7130 O   0  0  0  0  0  0  0  0  0  0  0  0
   -4.4470   23.6760  -28.2760 C   0  0  0  0  0  0  0  0  0  0  0  0
   -4.8740   24.6110  -29.4050 C   0  0  0  0  0  0  0  0  0  0  0  0
   -4.3880   24.1330  -30.6440 O   0  0  0  0  0  0  0  0  0  0  0  0
   -5.3930   24.1780  -31.6330 C   0  0  0  0  0  0  0  0  0  0  0  0
   -5.2570   22.9610  -32.5530 C   0  0  0  0  0  0  0  0  0  0  0  0
   -4.5330   21.8610  -31.8890 N   0  0  0  0  0  0  0  0  0  0  0  0
   -5.0980   20.5710  -32.2580 C   0  0  0  0  0  0  0  0  0  0  0  0
   -6.4840   20.3250  -32.0370 C   0  0  0  0  0  0  0  0  0  0  0  0
   -7.3030   21.2370  -31.3190 C   0  0  0  0  0  0  0  0  0  0  0  0
   -8.6720   21.0290  -31.1840 C   0  0  0  0  0  0  0  0  0  0  0  0
   -9.2660   19.9210  -31.7630 C   0  0  0  0  0  0  0  0  0  0  0  0
   -8.4870   18.9870  -32.4370 C   0  0  0  0  0  0  0  0  0  0  0  0
   -7.0790   19.1390  -32.5420 C   0  0  0  0  0  0  0  0  0  0  0  0
   -6.3030   18.1720  -33.1410 N   0  0  0  0  0  0  0  0  0  0  0  0
   -6.8600   16.8180  -33.3680 C   0  0  0  0  0  0  0  0  0  0  0  0
   -4.9910   18.4370  -33.4730 C   0  0  0  0  0  0  0  0  0  0  0  0
   -4.2920   17.5810  -34.3580 C   0  0  0  0  0  0  0  0  0  0  0  0
   -2.9460   17.7580  -34.6180 C   0  0  0  0  0  0  0  0  0  0  0  0
   -2.2460   18.7710  -33.9900 C   0  0  0  0  0  0  0  0  0  0  0  0
   -2.8960   19.6770  -33.1320 C   0  0  0  0  0  0  0  0  0  0  0  0
   -2.1390   20.6400  -32.4400 O   0  0  0  0  0  0  0  0  0  0  0  0
   -0.7540   20.9380  -32.6340 C   0  0  0  0  0  0  0  0  0  0  0  0
   -0.5090   21.4710  -34.0420 C   0  0  0  0  0  0  0  0  0  0  0  0
   -4.3190   19.5830  -32.9470 C   0  0  0  0  0  0  0  0  0  0  0  0
   -0.9003   22.8894  -27.9342 H   0  0  0  0  0  0  0  0  0  0  0  0
   -0.3807   21.4618  -28.8927 H   0  0  0  0  0  0  0  0  0  0  0  0
    0.6175   22.9552  -28.8927 H   0  0  0  0  0  0  0  0  0  0  0  0
   -1.5219   24.1121  -29.8609 H   0  0  0  0  0  0  0  0  0  0  0  0
   -0.5388   23.0650  -30.9493 H   0  0  0  0  0  0  0  0  0  0  0  0
   -3.2200   22.8340  -30.3350 H   0  0  0  0  0  0  0  0  0  0  0  0
   -2.9342   20.2768  -29.7960 H   0  0  0  0  0  0  0  0  0  0  0  0
   -1.5367   20.9717  -28.8655 H   0  0  0  0  0  0  0  0  0  0  0  0
   -3.8627   20.6895  -27.6724 H   0  0  0  0  0  0  0  0  0  0  0  0
   -2.9209   22.1965  -27.4368 H   0  0  0  0  0  0  0  0  0  0  0  0
   -5.1072   23.8235  -27.4086 H   0  0  0  0  0  0  0  0  0  0  0  0
   -3.4086   23.8985  -27.9893 H   0  0  0  0  0  0  0  0  0  0  0  0
   -5.9723   24.6607  -29.4401 H   0  0  0  0  0  0  0  0  0  0  0  0
   -4.4590   25.6125  -29.2185 H   0  0  0  0  0  0  0  0  0  0  0  0
   -6.3821   24.1655  -31.1518 H   0  0  0  0  0  0  0  0  0  0  0  0
   -5.2853   25.0992  -32.2244 H   0  0  0  0  0  0  0  0  0  0  0  0
   -6.2613   22.6104  -32.8331 H   0  0  0  0  0  0  0  0  0  0  0  0
   -4.6858   23.2629  -33.4433 H   0  0  0  0  0  0  0  0  0  0  0  0
   -3.5200   21.9060  -32.1330 H   0  0  0  0  0  0  0  0  0  0  0  0
   -4.5020   21.9770  -30.8550 H   0  0  0  0  0  0  0  0  0  0  0  0
   -6.8454   22.1259  -30.8603 H   0  0  0  0  0  0  0  0  0  0  0  0
   -9.2832   21.7461  -30.6163 H   0  0  0  0  0  0  0  0  0  0  0  0
  -10.3544   19.7793  -31.6900 H   0  0  0  0  0  0  0  0  0  0  0  0
   -8.9709   18.1133  -32.8979 H   0  0  0  0  0  0  0  0  0  0  0  0
   -7.0583   16.3360  -32.3993 H   0  0  0  0  0  0  0  0  0  0  0  0
   -7.7982   16.8981  -33.9366 H   0  0  0  0  0  0  0  0  0  0  0  0
   -6.1370   16.2147  -33.9366 H   0  0  0  0  0  0  0  0  0  0  0  0
   -4.8315   16.7577  -34.8491 H   0  0  0  0  0  0  0  0  0  0  0  0
   -2.4311   17.0917  -35.3258 H   0  0  0  0  0  0  0  0  0  0  0  0
   -1.1643   18.8703  -34.1637 H   0  0  0  0  0  0  0  0  0  0  0  0
   -0.4419   21.6968  -31.9013 H   0  0  0  0  0  0  0  0  0  0  0  0
   -0.1715   20.0147  -32.4991 H   0  0  0  0  0  0  0  0  0  0  0  0
   -0.0503   22.4690  -33.9816 H   0  0  0  0  0  0  0  0  0  0  0  0
    0.1660   20.7891  -34.5799 H   0  0  0  0  0  0  0  0  0  0  0  0
   -1.4661   21.5393  -34.5799 H   0  0  0  0  0  0  0  0  0  0  0  0
  1  2  1  0
  2  3  1  0
  3  4  1  0
  4  5  1  0
  5  6  1  0
  6  7  1  0
  7  8  1  0
  8  9  1  0
  9 10  1  0
 10 11  1  0
 11 12  1  0
 12 13  1  0
 13 14  2  0
 14 15  1  0
 15 16  2  0
 16 17  1  0
 17 18  2  0
 18 19  1  0
 19 20  2  0
 20 21  1  0
 20 22  1  0
 22 23  2  0
 23 24  1  0
 24 25  2  0
 25 26  1  0
 26 27  1  0
 27 28  1  0
 28 29  1  0
 26 30  2  0
 30 13  1  0
 19 14  1  0
 30 22  1  0
  1 31  1  0
  1 32  1  0
  1 33  1  0
  2 34  1  0
  2 35  1  0
  3 36  1  0
  4 37  1  0
  4 38  1  0
  5 39  1  0
  5 40  1  0
  7 41  1  0
  7 42  1  0
  8 43  1  0
  8 44  1  0
 10 45  1  0
 10 46  1  0
 11 47  1  0
 11 48  1  0
 12 49  1  0
 12 50  1  0
 15 51  1  0
 16 52  1  0
 17 53  1  0
 18 54  1  0
 21 55  1  0
 21 56  1  0
 21 57  1  0
 23 58  1  0
 24 59  1  0
 25 60  1  0
 28 61  1  0
 28 62  1  0
 29 63  1  0
 29 64  1  0
 29 65  1  0
M  CHG  2  12   1  20   1
M  END
>  <UniqueID>  (8) 
8

>  <SMILES>  (8) 
CCNCCOCCOCC[NH2+]c1c2ccccc2[n+](C)c2cccc(OCC)c12

>  <Energy>  (8) 
94.68585973572931

>  <Genealogy>  (8) 
CCNCCOCCOCC[NH2+]c1c2ccccc2[n+](C)c2cccc(OCC)c12 (protonated)
CCNCCOCCOCC[NH2+]c1c2ccccc2[n+](C)c2cccc(OCC)c12 (3D coordinates assigned)
CCNCCOCCOCC[NH2+]c1c2ccccc2[n+](C)c2cccc(OCC)c12 (optimized conformer: 94.68585973572931 kcal/mol)

>  <smiles>  (8) 
CCNCCOCCOCCNc1c2ccccc2[n+](C)c2cccc(OCC)c12

>  <score_type>  (8) 
oracle

>  <origin>  (8) 
adg

>  <m_score__min__energy>  (8) 
-8.1099999999999994

>  <m_primary>  (8) 
energy

$$$$
8:0
     RDKit          3D

 57 59  0  0  0  0  0  0  0  0999 V2000
   -8.2570   23.1920  -31.9490 C   0  0  0  0  0  0  0  0  0  0  0  0
   -7.2660   23.4920  -30.8340 C   0  0  0  0  0  0  0  0  0  0  0  0
   -5.8750   24.4720  -31.4870 S   0  0  0  0  0  0  0  0  0  0  0  0
   -4.6950   23.8220  -30.2850 C   0  0  0  0  0  0  0  0  0  0  0  0
   -4.7340   24.4060  -29.0170 C   0  0  0  0  0  0  0  0  0  0  0  0
   -3.7440   24.1350  -28.0840 C   0  0  0  0  0  0  0  0  0  0  0  0
   -2.6910   23.2880  -28.4060 C   0  0  0  0  0  0  0  0  0  0  0  0
   -2.6310   22.6330  -29.6610 C   0  0  0  0  0  0  0  0  0  0  0  0
   -3.6760   22.8740  -30.6050 C   0  0  0  0  0  0  0  0  0  0  0  0
   -3.6330   22.1840  -31.8380 C   0  0  0  0  0  0  0  0  0  0  0  0
   -4.8140   22.0070  -32.6360 N   0  0  0  0  0  0  0  0  0  0  0  0
   -5.8130   20.9790  -32.3320 C   0  0  0  0  0  0  0  0  0  0  0  0
   -6.0800   20.0520  -33.5410 C   0  0  0  0  0  0  0  0  0  0  0  0
   -7.2570   19.1610  -33.3540 N   0  0  0  0  0  0  0  0  0  0  0  0
   -7.9760   19.5050  -32.0960 C   0  0  0  0  0  0  0  0  0  0  0  0
   -9.4030   20.0090  -32.3460 C   0  0  0  0  0  0  0  0  0  0  0  0
   -6.8370   17.7290  -33.3140 C   0  0  0  0  0  0  0  0  0  0  0  0
   -6.1760   17.3660  -31.9790 C   0  0  0  0  0  0  0  0  0  0  0  0
   -2.4430   21.5490  -32.2310 C   0  0  0  0  0  0  0  0  0  0  0  0
   -2.2930   21.0310  -33.5360 C   0  0  0  0  0  0  0  0  0  0  0  0
   -1.1010   20.4250  -33.9260 C   0  0  0  0  0  0  0  0  0  0  0  0
   -0.0420   20.3330  -33.0320 C   0  0  0  0  0  0  0  0  0  0  0  0
   -0.1780   20.8160  -31.7310 C   0  0  0  0  0  0  0  0  0  0  0  0
   -1.3920   21.4000  -31.2930 C   0  0  0  0  0  0  0  0  0  0  0  0
   -1.5800   21.7970  -29.9850 N   0  0  0  0  0  0  0  0  0  0  0  0
   -0.6610   21.3150  -28.9290 C   0  0  0  0  0  0  0  0  0  0  0  0
   -9.2232   22.8995  -31.5120 H   0  0  0  0  0  0  0  0  0  0  0  0
   -8.3924   24.0894  -32.5705 H   0  0  0  0  0  0  0  0  0  0  0  0
   -7.8719   22.3702  -32.5705 H   0  0  0  0  0  0  0  0  0  0  0  0
   -7.7718   24.0608  -30.0399 H   0  0  0  0  0  0  0  0  0  0  0  0
   -6.8820   22.5452  -30.4265 H   0  0  0  0  0  0  0  0  0  0  0  0
   -5.5573   25.0871  -28.7558 H   0  0  0  0  0  0  0  0  0  0  0  0
   -3.7929   24.5927  -27.0849 H   0  0  0  0  0  0  0  0  0  0  0  0
   -1.8882   23.1226  -27.6724 H   0  0  0  0  0  0  0  0  0  0  0  0
   -4.9600   22.6190  -33.4700 H   0  0  0  0  0  0  0  0  0  0  0  0
   -5.4504   20.3697  -31.4910 H   0  0  0  0  0  0  0  0  0  0  0  0
   -6.7556   21.4867  -32.0796 H   0  0  0  0  0  0  0  0  0  0  0  0
   -6.2541   20.6780  -34.4286 H   0  0  0  0  0  0  0  0  0  0  0  0
   -5.1978   19.4049  -33.6551 H   0  0  0  0  0  0  0  0  0  0  0  0
   -7.9140   19.2990  -34.1550 H   0  0  0  0  0  0  0  0  0  0  0  0
   -8.0263   18.6068  -31.4630 H   0  0  0  0  0  0  0  0  0  0  0  0
   -7.4185   20.3177  -31.6074 H   0  0  0  0  0  0  0  0  0  0  0  0
   -9.9035   20.1858  -31.3825 H   0  0  0  0  0  0  0  0  0  0  0  0
   -9.3653   20.9482  -32.9174 H   0  0  0  0  0  0  0  0  0  0  0  0
   -9.9635   19.2545  -32.9174 H   0  0  0  0  0  0  0  0  0  0  0  0
   -7.7237   17.0939  -33.4565 H   0  0  0  0  0  0  0  0  0  0  0  0
   -6.1010   17.5663  -34.1151 H   0  0  0  0  0  0  0  0  0  0  0  0
   -6.8094   17.7139  -31.1497 H   0  0  0  0  0  0  0  0  0  0  0  0
   -6.0545   16.2746  -31.9148 H   0  0  0  0  0  0  0  0  0  0  0  0
   -5.1899   17.8491  -31.9148 H   0  0  0  0  0  0  0  0  0  0  0  0
   -3.1252   21.1067  -34.2513 H   0  0  0  0  0  0  0  0  0  0  0  0
   -0.9982   20.0189  -34.9431 H   0  0  0  0  0  0  0  0  0  0  0  0
    0.9070   19.8776  -33.3513 H   0  0  0  0  0  0  0  0  0  0  0  0
    0.6701   20.7424  -31.0344 H   0  0  0  0  0  0  0  0  0  0  0  0
   -1.0885   21.5392  -27.9406 H   0  0  0  0  0  0  0  0  0  0  0  0
   -0.5230   20.2285  -29.0309 H   0  0  0  0  0  0  0  0  0  0  0  0
    0.3113   21.8192  -29.0309 H   0  0  0  0  0  0  0  0  0  0  0  0
  1  2  1  0
  2  3  1  0
  3  4  1  0
  4  5  2  0
  5  6  1  0
  6  7  2  0
  7  8  1  0
  8  9  2  0
  9 10  1  0
 10 11  1  0
 11 12  1  0
 12 13  1  0
 13 14  1  0
 14 15  1  0
 15 16  1  0
 14 17  1  0
 17 18  1  0
 10 19  2  0
 19 20  1  0
 20 21  2  0
 21 22  1  0
 22 23  2  0
 23 24  1  0
 24 25  2  0
 25 26  1  0
  9  4  1  0
 24 19  1  0
 25  8  1  0
  1 27  1  0
  1 28  1  0
  1 29  1  0
  2 30  1  0
  2 31  1  0
  5 32  1  0
  6 33  1  0
  7 34  1  0
 11 35  1  0
 12 36  1  0
 12 37  1  0
 13 38  1  0
 13 39  1  0
 14 40  1  0
 15 41  1  0
 15 42  1  0
 16 43  1  0
 16 44  1  0
 16 45  1  0
 17 46  1  0
 17 47  1  0
 18 48  1  0
 18 49  1  0
 18 50  1  0
 20 51  1  0
 21 52  1  0
 22 53  1  0
 23 54  1  0
 26 55  1  0
 26 56  1  0
 26 57  1  0
M  CHG  2  14   1  25   1
M  END
>  <UniqueID>  (9) 
9

>  <SMILES>  (9) 
CCSc1cccc2c1c(NCC[NH+](CC)CC)c1ccccc1[n+]2C

>  <Energy>  (9) 
82.32792007041294

>  <Genealogy>  (9) 
CCSc1cccc2c1c(NCC[NH+](CC)CC)c1ccccc1[n+]2C (protonated)
CCSc1cccc2c1c(NCC[NH+](CC)CC)c1ccccc1[n+]2C (3D coordinates assigned)
CCSc1cccc2c1c(NCC[NH+](CC)CC)c1ccccc1[n+]2C (optimized conformer: 82.32792007041294 kcal/mol)

>  <smiles>  (9) 
CCSc1cccc2c1c(NCCN(CC)CC)c1ccccc1[n+]2C

>  <score_type>  (9) 
oracle

>  <origin>  (9) 
adg

>  <m_score__min__energy>  (9) 
-7.3200000000000003

>  <m_primary>  (9) 
energy

$$$$
9:0
     RDKit          3D

 46 48  0  0  0  0  0  0  0  0999 V2000
   -4.2920   16.7910  -34.9930 C   0  0  0  0  0  0  0  0  0  0  0  0
   -5.1740   17.3050  -33.8940 C   0  0  0  0  0  0  0  0  0  0  0  0
   -5.3810   16.5410  -32.7360 C   0  0  0  0  0  0  0  0  0  0  0  0
   -6.1620   17.0420  -31.6930 C   0  0  0  0  0  0  0  0  0  0  0  0
   -6.7440   18.3080  -31.7990 C   0  0  0  0  0  0  0  0  0  0  0  0
   -6.5650   19.0770  -32.9590 C   0  0  0  0  0  0  0  0  0  0  0  0
   -7.1450   20.4700  -33.0470 C   0  0  0  0  0  0  0  0  0  0  0  0
   -6.9630   21.3170  -31.8380 N   0  0  0  0  0  0  0  0  0  0  0  0
   -5.5540   21.6130  -31.4870 C   0  0  0  0  0  0  0  0  0  0  0  0
   -5.0030   22.9140  -32.0920 C   0  0  0  0  0  0  0  0  0  0  0  0
   -5.9200   24.0530  -31.9520 N   0  0  0  0  0  0  0  0  0  0  0  0
   -5.7220   24.9320  -30.7810 C   0  0  0  0  0  0  0  0  0  0  0  0
   -4.5770   24.5230  -29.9060 C   0  0  0  0  0  0  0  0  0  0  0  0
   -4.6400   23.6180  -28.8620 C   0  0  0  0  0  0  0  0  0  0  0  0
   -3.3590   23.5410  -28.3550 C   0  0  0  0  0  0  0  0  0  0  0  0
   -2.6010   24.3990  -29.1260 C   0  0  0  0  0  0  0  0  0  0  0  0
   -1.1390   24.6460  -28.9710 C   0  0  0  0  0  0  0  0  0  0  0  0
   -3.3480   24.9630  -30.0470 O   0  0  0  0  0  0  0  0  0  0  0  0
   -7.3070   23.7810  -32.3540 C   0  0  0  0  0  0  0  0  0  0  0  0
   -7.8710   22.4840  -31.7490 C   0  0  0  0  0  0  0  0  0  0  0  0
   -5.7430   18.5850  -33.9870 C   0  0  0  0  0  0  0  0  0  0  0  0
   -3.4199   16.2828  -34.5558 H   0  0  0  0  0  0  0  0  0  0  0  0
   -4.8569   16.0807  -35.6146 H   0  0  0  0  0  0  0  0  0  0  0  0
   -3.9524   17.6326  -35.6146 H   0  0  0  0  0  0  0  0  0  0  0  0
   -4.9262   15.5432  -32.6494 H   0  0  0  0  0  0  0  0  0  0  0  0
   -6.3195   16.4393  -30.7864 H   0  0  0  0  0  0  0  0  0  0  0  0
   -7.3461   18.7042  -30.9680 H   0  0  0  0  0  0  0  0  0  0  0  0
   -6.6677   20.9829  -33.8950 H   0  0  0  0  0  0  0  0  0  0  0  0
   -8.2309   20.3382  -33.1627 H   0  0  0  0  0  0  0  0  0  0  0  0
   -7.2890   20.6840  -31.0680 H   0  0  0  0  0  0  0  0  0  0  0  0
   -5.4815   21.6864  -30.3918 H   0  0  0  0  0  0  0  0  0  0  0  0
   -4.9501   20.7945  -31.9058 H   0  0  0  0  0  0  0  0  0  0  0  0
   -4.0583   23.1619  -31.5859 H   0  0  0  0  0  0  0  0  0  0  0  0
   -4.8624   22.7390  -33.1688 H   0  0  0  0  0  0  0  0  0  0  0  0
   -5.5350   25.9541  -31.1420 H   0  0  0  0  0  0  0  0  0  0  0  0
   -6.6338   24.8622  -30.1697 H   0  0  0  0  0  0  0  0  0  0  0  0
   -5.5276   23.0725  -28.5089 H   0  0  0  0  0  0  0  0  0  0  0  0
   -3.0138   22.9243  -27.5120 H   0  0  0  0  0  0  0  0  0  0  0  0
   -0.8857   24.6888  -27.9014 H   0  0  0  0  0  0  0  0  0  0  0  0
   -0.5766   23.8301  -29.4486 H   0  0  0  0  0  0  0  0  0  0  0  0
   -0.8759   25.6013  -29.4486 H   0  0  0  0  0  0  0  0  0  0  0  0
   -7.9367   24.6217  -32.0273 H   0  0  0  0  0  0  0  0  0  0  0  0
   -7.3124   23.6605  -33.4474 H   0  0  0  0  0  0  0  0  0  0  0  0
   -8.0906   22.6678  -30.6869 H   0  0  0  0  0  0  0  0  0  0  0  0
   -8.7654   22.2289  -32.3363 H   0  0  0  0  0  0  0  0  0  0  0  0
   -5.5438   19.2077  -34.8716 H   0  0  0  0  0  0  0  0  0  0  0  0
  1  2  1  0
  2  3  2  0
  3  4  1  0
  4  5  2  0
  5  6  1  0
  6  7  1  0
  7  8  1  0
  8  9  1  0
  9 10  1  0
 10 11  1  0
 11 12  1  0
 12 13  1  0
 13 14  2  0
 14 15  1  0
 15 16  2  0
 16 17  1  0
 16 18  1  0
 11 19  1  0
 19 20  1  0
  6 21  2  0
 21  2  1  0
 20  8  1  0
 18 13  1  0
  1 22  1  0
  1 23  1  0
  1 24  1  0
  3 25  1  0
  4 26  1  0
  5 27  1  0
  7 28  1  0
  7 29  1  0
  8 30  1  0
  9 31  1  0
  9 32  1  0
 10 33  1  0
 10 34  1  0
 12 35  1  0
 12 36  1  0
 14 37  1  0
 15 38  1  0
 17 39  1  0
 17 40  1  0
 17 41  1  0
 19 42  1  0
 19 43  1  0
 20 44  1  0
 20 45  1  0
 21 46  1  0
M  CHG  1   8   1
M  END
>  <UniqueID>  (10) 
10

>  <SMILES>  (10) 
Cc1cccc(C[NH+]2CCN(Cc3ccc(C)o3)CC2)c1

>  <Energy>  (10) 
89.24456466017145

>  <Genealogy>  (10) 
Cc1cccc(C[NH+]2CCN(Cc3ccc(C)o3)CC2)c1 (protonated)
Cc1cccc(C[NH+]2CCN(Cc3ccc(C)o3)CC2)c1 (3D coordinates assigned)
Cc1cccc(C[NH+]2CCN(Cc3ccc(C)o3)CC2)c1 (nonaromatic ring conformer: 89.24456466017145 kcal/mol)

>  <smiles>  (10) 
Cc1cccc(CN2CCN(Cc3ccc(C)o3)CC2)c1

>  <score_type>  (10) 
oracle

>  <origin>  (10) 
adg

>  <m_score__min__energy>  (10) 
-7.9000000000000004

>  <m_primary>  (10) 
energy

$$$$
10:0
     RDKit          3D

 51 53  0  0  0  0  0  0  0  0999 V2000
   -2.8317   23.3078  -28.8362 H   0  0  0  0  0  0  0  0  0  0  0  0
   -3.3900   23.2110  -29.7790 C   0  0  0  0  0  0  0  0  0  0  0  0
   -3.4870   24.2460  -30.5550 N   0  0  0  0  0  0  0  0  0  0  0  0
   -4.6620   24.5840  -31.1890 O   0  0  0  0  0  0  0  0  0  0  0  0
   -5.7000   25.2300  -30.4660 C   0  0  0  0  0  0  0  0  0  0  0  0
   -5.8937   26.2166  -30.9123 H   0  0  0  0  0  0  0  0  0  0  0  0
   -5.3878   25.3460  -29.4176 H   0  0  0  0  0  0  0  0  0  0  0  0
   -6.9760   24.3960  -30.5150 C   0  0  0  0  0  0  0  0  0  0  0  0
   -7.8470   25.0667  -30.5542 H   0  0  0  0  0  0  0  0  0  0  0  0
   -7.0271   23.7656  -29.6150 H   0  0  0  0  0  0  0  0  0  0  0  0
   -6.9740   23.5330  -31.7050 N   0  0  0  0  0  0  0  0  0  0  0  0
   -6.3010   23.9210  -32.4070 H   0  0  0  0  0  0  0  0  0  0  0  0
   -8.3050   23.4320  -32.3240 C   0  0  0  0  0  0  0  0  0  0  0  0
   -8.1839   23.1041  -33.3670 H   0  0  0  0  0  0  0  0  0  0  0  0
   -8.7764   24.4239  -32.2609 H   0  0  0  0  0  0  0  0  0  0  0  0
   -9.2210   22.4380  -31.6010 C   0  0  0  0  0  0  0  0  0  0  0  0
   -9.1086   22.5599  -30.5136 H   0  0  0  0  0  0  0  0  0  0  0  0
  -10.2663   22.6290  -31.8853 H   0  0  0  0  0  0  0  0  0  0  0  0
   -8.9454   21.4117  -31.8853 H   0  0  0  0  0  0  0  0  0  0  0  0
   -4.0110   21.8840  -30.1180 C   0  0  0  0  0  0  0  0  0  0  0  0
   -3.2166   21.1802  -30.4070 H   0  0  0  0  0  0  0  0  0  0  0  0
   -4.5525   21.5183  -29.2331 H   0  0  0  0  0  0  0  0  0  0  0  0
   -4.9690   22.0090  -31.2300 N   0  0  0  0  0  0  0  0  0  0  0  0
   -5.9420   22.1050  -30.8690 H   0  0  0  0  0  0  0  0  0  0  0  0
   -4.8260   22.9060  -31.7440 H   0  0  0  0  0  0  0  0  0  0  0  0
   -4.8580   20.8700  -32.1310 C   0  0  0  0  0  0  0  0  0  0  0  0
   -5.9300   19.9460  -32.2600 C   0  0  0  0  0  0  0  0  0  0  0  0
   -7.1840   20.1690  -31.6360 C   0  0  0  0  0  0  0  0  0  0  0  0
   -7.3653   21.1177  -31.1095 H   0  0  0  0  0  0  0  0  0  0  0  0
   -8.1890   19.2070  -31.6790 C   0  0  0  0  0  0  0  0  0  0  0  0
   -9.1556   19.4006  -31.1909 H   0  0  0  0  0  0  0  0  0  0  0  0
   -7.9740   18.0050  -32.3360 C   0  0  0  0  0  0  0  0  0  0  0  0
   -8.7524   17.2278  -32.3285 H   0  0  0  0  0  0  0  0  0  0  0  0
   -6.7740   17.7810  -33.0050 C   0  0  0  0  0  0  0  0  0  0  0  0
   -6.6149   16.8224  -33.5205 H   0  0  0  0  0  0  0  0  0  0  0  0
   -5.7520   18.7650  -33.0350 C   0  0  0  0  0  0  0  0  0  0  0  0
   -4.6080   18.5890  -33.7870 N   0  0  0  0  0  0  0  0  0  0  0  0
   -4.5590   17.5240  -34.8160 C   0  0  0  0  0  0  0  0  0  0  0  0
   -4.5138   16.5410  -34.3244 H   0  0  0  0  0  0  0  0  0  0  0  0
   -5.4606   17.5789  -35.4437 H   0  0  0  0  0  0  0  0  0  0  0  0
   -3.6662   17.6615  -35.4437 H   0  0  0  0  0  0  0  0  0  0  0  0
   -3.5320   19.4400  -33.6270 C   0  0  0  0  0  0  0  0  0  0  0  0
   -2.2710   19.1530  -34.2150 C   0  0  0  0  0  0  0  0  0  0  0  0
   -2.1238   18.1945  -34.7343 H   0  0  0  0  0  0  0  0  0  0  0  0
   -1.2190   20.0600  -34.1470 C   0  0  0  0  0  0  0  0  0  0  0  0
   -0.2545   19.8194  -34.6181 H   0  0  0  0  0  0  0  0  0  0  0  0
   -1.3850   21.2670  -33.4860 C   0  0  0  0  0  0  0  0  0  0  0  0
   -0.5674   22.0028  -33.4735 H   0  0  0  0  0  0  0  0  0  0  0  0
   -2.5840   21.5500  -32.8380 C   0  0  0  0  0  0  0  0  0  0  0  0
   -2.6975   22.5048  -32.3036 H   0  0  0  0  0  0  0  0  0  0  0  0
   -3.6610   20.6290  -32.8550 C   0  0  0  0  0  0  0  0  0  0  0  0
  1  2  1  0
  2  3  2  0
  3  4  1  0
  4  5  1  0
  5  6  1  0
  5  7  1  0
  5  8  1  0
  8  9  1  0
  8 10  1  0
  8 11  1  0
 11 12  1  0
 11 13  1  0
 13 14  1  0
 13 15  1  0
 13 16  1  0
 16 17  1  0
 16 18  1  0
 16 19  1  0
  2 20  1  0
 20 21  1  0
 20 22  1  0
 20 23  1  0
 23 24  1  0
 23 25  1  0
 23 26  1  0
 26 27  2  0
 27 28  1  0
 28 29  1  0
 28 30  2  0
 30 31  1  0
 30 32  1  0
 32 33  1  0
 32 34  2  0
 34 35  1  0
 34 36  1  0
 36 37  2  0
 37 38  1  0
 38 39  1  0
 38 40  1  0
 38 41  1  0
 37 42  1  0
 42 43  2  0
 43 44  1  0
 43 45  1  0
 45 46  1  0
 45 47  2  0
 47 48  1  0
 47 49  1  0
 49 50  1  0
 49 51  2  0
 51 26  1  0
 36 27  1  0
 51 42  1  0
M  CHG  2  23   1  37   1
M  END
>  <UniqueID>  (11) 
11

>  <SMILES>  (11) 
CCNCCO/N=C\C[NH2+]c1c2ccccc2[n+](C)c2ccccc12

>  <Energy>  (11) 
70.64241931732072

>  <Genealogy>  (11) 
CCNCCON=CC[NH2+]c1c2ccccc2[n+](C)c2ccccc12 (protonated)
CCNCCO/N=C\C[NH2+]c1c2ccccc2[n+](C)c2ccccc12 (cis-trans isomerization)
CCNCCO/N=C\C[NH2+]c1c2ccccc2[n+](C)c2ccccc12 (3D coordinates assigned)
CCNCCO/N=C\C[NH2+]c1c2ccccc2[n+](C)c2ccccc12 (optimized conformer: 70.64241931732072 kcal/mol)

>  <smiles>  (11) 
CCNCCON=CCNc1c2ccccc2[n+](C)c2ccccc12

>  <score_type>  (11) 
oracle

>  <origin>  (11) 
adg

>  <m_score__min__energy>  (11) 
-8.4299999999999997

>  <m_primary>  (11) 
energy

$$$$
11:0
     RDKit          3D

 50 53  0  0  0  0  0  0  0  0999 V2000
   -4.5490   24.8150  -30.1140 C   0  0  0  0  0  0  0  0  0  0  0  0
   -3.1290   24.9130  -30.0460 O   0  0  0  0  0  0  0  0  0  0  0  0
   -2.3430   24.4180  -28.9940 C   0  0  0  0  0  0  0  0  0  0  0  0
   -1.9410   25.2420  -27.9220 C   0  0  0  0  0  0  0  0  0  0  0  0
   -1.1300   24.7340  -26.9050 C   0  0  0  0  0  0  0  0  0  0  0  0
   -0.7100   23.4060  -26.9420 C   0  0  0  0  0  0  0  0  0  0  0  0
   -1.1040   22.5770  -27.9940 C   0  0  0  0  0  0  0  0  0  0  0  0
   -1.9270   23.0680  -29.0230 C   0  0  0  0  0  0  0  0  0  0  0  0
   -2.3340   22.1910  -30.0930 N   0  0  0  0  0  0  0  0  0  0  0  0
   -3.7250   21.7350  -30.1860 C   0  0  0  0  0  0  0  0  0  0  0  0
   -3.8090   20.4600  -31.0360 C   0  0  0  0  0  0  0  0  0  0  0  0
   -3.2210   20.6240  -32.3920 N   0  0  0  0  0  0  0  0  0  0  0  0
   -4.2680   20.8470  -33.4100 C   0  0  0  0  0  0  0  0  0  0  0  0
   -5.6120   20.4140  -32.9010 C   0  0  0  0  0  0  0  0  0  0  0  0
   -6.0340   19.1280  -32.8620 N   0  0  0  0  0  0  0  0  0  0  0  0
   -7.2890   19.0960  -32.4270 N   0  0  0  0  0  0  0  0  0  0  0  0
   -8.0930   17.8850  -32.3000 C   0  0  0  0  0  0  0  0  0  0  0  0
   -7.6880   20.3630  -32.1990 C   0  0  0  0  0  0  0  0  0  0  0  0
   -8.9320   20.8270  -31.7690 C   0  0  0  0  0  0  0  0  0  0  0  0
   -9.0990   22.2180  -31.6320 C   0  0  0  0  0  0  0  0  0  0  0  0
   -8.0360   23.1010  -31.9300 C   0  0  0  0  0  0  0  0  0  0  0  0
   -6.7940   22.6040  -32.3680 C   0  0  0  0  0  0  0  0  0  0  0  0
   -6.6580   21.2220  -32.4880 C   0  0  0  0  0  0  0  0  0  0  0  0
   -2.1520   21.6550  -32.4760 C   0  0  0  0  0  0  0  0  0  0  0  0
   -1.3940   21.8210  -31.1570 C   0  0  0  0  0  0  0  0  0  0  0  0
   -4.9637   24.7864  -29.0956 H   0  0  0  0  0  0  0  0  0  0  0  0
   -4.9515   25.6875  -30.6495 H   0  0  0  0  0  0  0  0  0  0  0  0
   -4.8279   23.8955  -30.6495 H   0  0  0  0  0  0  0  0  0  0  0  0
   -2.2685   26.2915  -27.8869 H   0  0  0  0  0  0  0  0  0  0  0  0
   -0.8220   25.3839  -26.0726 H   0  0  0  0  0  0  0  0  0  0  0  0
   -0.0674   23.0104  -26.1416 H   0  0  0  0  0  0  0  0  0  0  0  0
   -0.7675   21.5300  -28.0181 H   0  0  0  0  0  0  0  0  0  0  0  0
   -4.1066   21.5242  -29.1761 H   0  0  0  0  0  0  0  0  0  0  0  0
   -4.3300   22.5224  -30.6593 H   0  0  0  0  0  0  0  0  0  0  0  0
   -3.2690   19.6556  -30.5151 H   0  0  0  0  0  0  0  0  0  0  0  0
   -4.8750   20.2223  -31.1669 H   0  0  0  0  0  0  0  0  0  0  0  0
   -4.3054   21.9177  -33.6594 H   0  0  0  0  0  0  0  0  0  0  0  0
   -4.0223   20.2526  -34.3023 H   0  0  0  0  0  0  0  0  0  0  0  0
   -5.4790   18.2890  -33.1460 H   0  0  0  0  0  0  0  0  0  0  0  0
   -8.2451   17.6559  -31.2349 H   0  0  0  0  0  0  0  0  0  0  0  0
   -9.0683   18.0399  -32.7847 H   0  0  0  0  0  0  0  0  0  0  0  0
   -7.5718   17.0463  -32.7847 H   0  0  0  0  0  0  0  0  0  0  0  0
   -9.7532   20.1302  -31.5450 H   0  0  0  0  0  0  0  0  0  0  0  0
  -10.0639   22.6209  -31.2905 H   0  0  0  0  0  0  0  0  0  0  0  0
   -8.1807   24.1857  -31.8186 H   0  0  0  0  0  0  0  0  0  0  0  0
   -5.9611   23.2816  -32.6069 H   0  0  0  0  0  0  0  0  0  0  0  0
   -1.4377   21.3598  -33.2588 H   0  0  0  0  0  0  0  0  0  0  0  0
   -2.6323   22.6167  -32.7092 H   0  0  0  0  0  0  0  0  0  0  0  0
   -0.9006   20.8730  -30.8964 H   0  0  0  0  0  0  0  0  0  0  0  0
   -0.6371   22.6116  -31.2673 H   0  0  0  0  0  0  0  0  0  0  0  0
  1  2  1  0
  2  3  1  0
  3  4  2  0
  4  5  1  0
  5  6  2  0
  6  7  1  0
  7  8  2  0
  8  9  1  0
  9 10  1  0
 10 11  1  0
 11 12  1  0
 12 13  1  0
 13 14  1  0
 14 15  2  0
 15 16  1  0
 16 17  1  0
 16 18  1  0
 18 19  2  0
 19 20  1  0
 20 21  2  0
 21 22  1  0
 22 23  2  0
 12 24  1  0
 24 25  1  0
  8  3  1  0
 25  9  1  0
 23 14  1  0
 23 18  1  0
  1 26  1  0
  1 27  1  0
  1 28  1  0
  4 29  1  0
  5 30  1  0
  6 31  1  0
  7 32  1  0
 10 33  1  0
 10 34  1  0
 11 35  1  0
 11 36  1  0
 13 37  1  0
 13 38  1  0
 15 39  1  0
 17 40  1  0
 17 41  1  0
 17 42  1  0
 19 43  1  0
 20 44  1  0
 21 45  1  0
 22 46  1  0
 24 47  1  0
 24 48  1  0
 25 49  1  0
 25 50  1  0
M  CHG  1  15   1
M  END
>  <UniqueID>  (12) 
12

>  <SMILES>  (12) 
COc1ccccc1N1CCN(Cc2[nH+]n(C)c3ccccc23)CC1

>  <Energy>  (12) 
102.49251810434309

>  <Genealogy>  (12) 
COc1ccccc1N1CCN(Cc2[nH+]n(C)c3ccccc23)CC1 (protonated)
COc1ccccc1N1CCN(Cc2[nH+]n(C)c3ccccc23)CC1 (3D coordinates assigned)
COc1ccccc1N1CCN(Cc2[nH+]n(C)c3ccccc23)CC1 (nonaromatic ring conformer: 102.49251810434309 kcal/mol)

>  <smiles>  (12) 
COc1ccccc1N1CCN(Cc2nn(C)c3ccccc23)CC1

>  <score_type>  (12) 
oracle

>  <origin>  (12) 
adg

>  <m_score__min__energy>  (12) 
-8.1300000000000008

>  <m_primary>  (12) 
energy

$$$$
12:0
     RDKit          3D

 32 33  0  0  0  0  0  0  0  0999 V2000
   -3.7210   21.2050  -30.7290 O   0  0  0  0  0  0  0  0  0  0  0  0
   -4.0040   22.1460  -31.5210 C   0  0  0  0  0  0  0  0  0  0  0  0
   -4.6500   21.8710  -32.7690 N   0  0  0  0  0  0  0  0  0  0  0  0
   -5.2070   20.5870  -33.1030 C   0  0  0  0  0  0  0  0  0  0  0  0
   -4.4070   19.6350  -33.7600 C   0  0  0  0  0  0  0  0  0  0  0  0
   -4.9020   18.3640  -34.0500 C   0  0  0  0  0  0  0  0  0  0  0  0
   -6.2020   18.0160  -33.6840 C   0  0  0  0  0  0  0  0  0  0  0  0
   -7.0220   18.9420  -33.0240 C   0  0  0  0  0  0  0  0  0  0  0  0
   -8.3310   18.5880  -32.6610 C   0  0  0  0  0  0  0  0  0  0  0  0
   -9.1560   19.5110  -32.0180 C   0  0  0  0  0  0  0  0  0  0  0  0
   -8.6850   20.7950  -31.7370 C   0  0  0  0  0  0  0  0  0  0  0  0
   -7.3850   21.1630  -32.0910 C   0  0  0  0  0  0  0  0  0  0  0  0
   -6.5290   20.2420  -32.7300 C   0  0  0  0  0  0  0  0  0  0  0  0
   -3.6630   23.4660  -31.2090 O   0  0  0  0  0  0  0  0  0  0  0  0
   -3.2570   23.9010  -29.9090 C   0  0  0  0  0  0  0  0  0  0  0  0
   -4.4440   23.8850  -28.9360 C   0  0  1  0  0  0  0  0  0  0  0  0
   -3.8420   24.2360  -27.1160 Br  0  0  0  0  0  0  0  0  0  0  0  0
   -5.4940   24.9230  -29.3470 C   0  0  0  0  0  0  0  0  0  0  0  0
   -6.8500   24.1390  -30.4930 Br  0  0  0  0  0  0  0  0  0  0  0  0
   -4.7240   22.6500  -33.4610 H   0  0  0  0  0  0  0  0  0  0  0  0
   -3.3782   19.8962  -34.0486 H   0  0  0  0  0  0  0  0  0  0  0  0
   -4.2647   17.6331  -34.5694 H   0  0  0  0  0  0  0  0  0  0  0  0
   -6.5855   17.0110  -33.9141 H   0  0  0  0  0  0  0  0  0  0  0  0
   -8.7076   17.5789  -32.8844 H   0  0  0  0  0  0  0  0  0  0  0  0
  -10.1794   19.2267  -31.7319 H   0  0  0  0  0  0  0  0  0  0  0  0
   -9.3413   21.5206  -31.2342 H   0  0  0  0  0  0  0  0  0  0  0  0
   -7.0260   22.1789  -31.8697 H   0  0  0  0  0  0  0  0  0  0  0  0
   -2.4721   23.2287  -29.5321 H   0  0  0  0  0  0  0  0  0  0  0  0
   -2.8750   24.9298  -29.9837 H   0  0  0  0  0  0  0  0  0  0  0  0
   -4.9015   22.8853  -28.9726 H   0  0  0  0  0  0  0  0  0  0  0  0
   -5.9763   25.3222  -28.4426 H   0  0  0  0  0  0  0  0  0  0  0  0
   -4.9892   25.7252  -29.9053 H   0  0  0  0  0  0  0  0  0  0  0  0
  1  2  2  0
  2  3  1  0
  3  4  1  0
  4  5  2  0
  5  6  1  0
  6  7  2  0
  7  8  1  0
  8  9  2  0
  9 10  1  0
 10 11  2  0
 11 12  1  0
 12 13  2  0
  2 14  1  0
 14 15  1  0
 15 16  1  0
 16 17  1  0
 16 18  1  0
 18 19  1  0
 13  4  1  0
 13  8  1  0
  3 20  1  0
  5 21  1  0
  6 22  1  0
  7 23  1  0
  9 24  1  0
 10 25  1  0
 11 26  1  0
 12 27  1  0
 15 28  1  0
 15 29  1  0
 16 30  1  1
 18 31  1  0
 18 32  1  0
M  END
>  <UniqueID>  (13) 
13

>  <SMILES>  (13) 
O=C(Nc1cccc2ccccc12)OC[C@@H](Br)CBr

>  <Energy>  (13) 
37.30628894089602

>  <Genealogy>  (13) 
O=C(Nc1cccc2ccccc12)OC[C@@H](Br)CBr (chirality)
O=C(Nc1cccc2ccccc12)OC[C@@H](Br)CBr (3D coordinates assigned)
O=C(Nc1cccc2ccccc12)OC[C@@H](Br)CBr (optimized conformer: 37.30628894089602 kcal/mol)

>  <smiles>  (13) 
O=C(Nc1cccc2ccccc12)OCC(Br)CBr

>  <score_type>  (13) 
oracle

>  <origin>  (13) 
adg

>  <m_score__min__energy>  (13) 
-7.75

>  <m_primary>  (13) 
energy

$$$$
13:0
     RDKit          3D

 57 58  0  0  0  0  0  0  0  0999 V2000
   -6.1230   25.7240  -28.8320 N   0  0  0  0  0  0  0  0  0  0  0  0
   -6.7990   25.2230  -30.0290 C   0  0  0  0  0  0  0  0  0  0  0  0
   -5.8040   24.9220  -31.1590 C   0  0  0  0  0  0  0  0  0  0  0  0
   -4.4320   25.2800  -30.7530 N   0  0  0  0  0  0  0  0  0  0  0  0
   -3.6420   24.1290  -30.2850 C   0  0  0  0  0  0  0  0  0  0  0  0
   -4.5280   22.8910  -30.0550 C   0  0  0  0  0  0  0  0  0  0  0  0
   -3.9710   21.6370  -30.7460 C   0  0  0  0  0  0  0  0  0  0  0  0
   -2.6030   21.8970  -31.3840 C   0  0  0  0  0  0  0  0  0  0  0  0
   -2.6230   21.5630  -32.8140 N   0  0  0  0  0  0  0  0  0  0  0  0
   -1.3140   21.0870  -33.2940 C   0  0  0  0  0  0  0  0  0  0  0  0
   -1.4270   20.0430  -34.4300 C   0  0  0  0  0  0  0  0  0  0  0  0
   -1.7600   18.6420  -33.9050 C   0  0  0  0  0  0  0  0  0  0  0  0
   -3.0730   18.6740  -33.2370 N   0  0  0  0  0  0  0  0  0  0  0  0
   -4.1890   18.6600  -34.1950 C   0  0  0  0  0  0  0  0  0  0  0  0
   -5.4710   19.0760  -33.5190 C   0  0  0  0  0  0  0  0  0  0  0  0
   -6.4580   18.1170  -33.2360 C   0  0  0  0  0  0  0  0  0  0  0  0
   -7.6760   18.4960  -32.6690 C   0  0  0  0  0  0  0  0  0  0  0  0
   -7.9250   19.8430  -32.3720 C   0  0  0  0  0  0  0  0  0  0  0  0
   -9.1550   20.2370  -31.8230 C   0  0  0  0  0  0  0  0  0  0  0  0
   -9.3940   21.5840  -31.5340 C   0  0  0  0  0  0  0  0  0  0  0  0
   -8.4110   22.5430  -31.7850 C   0  0  0  0  0  0  0  0  0  0  0  0
   -7.1830   22.1650  -32.3380 C   0  0  0  0  0  0  0  0  0  0  0  0
   -6.9310   20.8160  -32.6370 C   0  0  0  0  0  0  0  0  0  0  0  0
   -5.7090   20.4250  -33.2070 C   0  0  0  0  0  0  0  0  0  0  0  0
   -6.5910   26.5940  -28.4880 H   0  0  0  0  0  0  0  0  0  0  0  0
   -5.1300   25.9510  -29.0720 H   0  0  0  0  0  0  0  0  0  0  0  0
   -6.1300   24.9950  -28.0820 H   0  0  0  0  0  0  0  0  0  0  0  0
   -7.3384   24.2990  -29.7734 H   0  0  0  0  0  0  0  0  0  0  0  0
   -7.4933   26.0001  -30.3813 H   0  0  0  0  0  0  0  0  0  0  0  0
   -5.8418   23.8488  -31.3974 H   0  0  0  0  0  0  0  0  0  0  0  0
   -6.0792   25.5183  -32.0414 H   0  0  0  0  0  0  0  0  0  0  0  0
   -3.9430   25.6770  -31.5900 H   0  0  0  0  0  0  0  0  0  0  0  0
   -2.8802   23.8876  -31.0409 H   0  0  0  0  0  0  0  0  0  0  0  0
   -3.1727   24.3996  -29.3276 H   0  0  0  0  0  0  0  0  0  0  0  0
   -4.5935   22.6992  -28.9738 H   0  0  0  0  0  0  0  0  0  0  0  0
   -5.5175   23.1011  -30.4872 H   0  0  0  0  0  0  0  0  0  0  0  0
   -3.8689   20.8354  -29.9997 H   0  0  0  0  0  0  0  0  0  0  0  0
   -4.6704   21.3484  -31.5444 H   0  0  0  0  0  0  0  0  0  0  0  0
   -2.3458   22.9599  -31.2654 H   0  0  0  0  0  0  0  0  0  0  0  0
   -1.8547   21.2642  -30.8844 H   0  0  0  0  0  0  0  0  0  0  0  0
   -3.3410   20.8210  -32.9830 H   0  0  0  0  0  0  0  0  0  0  0  0
   -0.7431   21.9500  -33.6672 H   0  0  0  0  0  0  0  0  0  0  0  0
   -0.8125   20.5966  -32.4466 H   0  0  0  0  0  0  0  0  0  0  0  0
   -2.2213   20.3588  -35.1223 H   0  0  0  0  0  0  0  0  0  0  0  0
   -0.4509   19.9890  -34.9342 H   0  0  0  0  0  0  0  0  0  0  0  0
   -1.7918   17.9324  -34.7449 H   0  0  0  0  0  0  0  0  0  0  0  0
   -0.9887   18.3230  -33.1885 H   0  0  0  0  0  0  0  0  0  0  0  0
   -3.1400   19.5550  -32.6750 H   0  0  0  0  0  0  0  0  0  0  0  0
   -3.9698   19.3582  -35.0162 H   0  0  0  0  0  0  0  0  0  0  0  0
   -4.3086   17.6391  -34.5867 H   0  0  0  0  0  0  0  0  0  0  0  0
   -6.2692   17.0575  -33.4634 H   0  0  0  0  0  0  0  0  0  0  0  0
   -8.4419   17.7360  -32.4549 H   0  0  0  0  0  0  0  0  0  0  0  0
   -9.9319   19.4853  -31.6198 H   0  0  0  0  0  0  0  0  0  0  0  0
  -10.3607   21.8894  -31.1071 H   0  0  0  0  0  0  0  0  0  0  0  0
   -8.6028   23.5997  -31.5470 H   0  0  0  0  0  0  0  0  0  0  0  0
   -6.4138   22.9252  -32.5389 H   0  0  0  0  0  0  0  0  0  0  0  0
   -4.9340   21.1787  -33.4103 H   0  0  0  0  0  0  0  0  0  0  0  0
  1  2  1  0
  2  3  1  0
  3  4  1  0
  4  5  1  0
  5  6  1  0
  6  7  1  0
  7  8  1  0
  8  9  1  0
  9 10  1  0
 10 11  1  0
 11 12  1  0
 12 13  1  0
 13 14  1  0
 14 15  1  0
 15 16  2  0
 16 17  1  0
 17 18  2  0
 18 19  1  0
 19 20  2  0
 20 21  1  0
 21 22  2  0
 22 23  1  0
 23 24  2  0
 24 15  1  0
 23 18  1  0
  1 25  1  0
  1 26  1  0
  1 27  1  0
  2 28  1  0
  2 29  1  0
  3 30  1  0
  3 31  1  0
  4 32  1  0
  5 33  1  0
  5 34  1  0
  6 35  1  0
  6 36  1  0
  7 37  1  0
  7 38  1  0
  8 39  1  0
  8 40  1  0
  9 41  1  0
 10 42  1  0
 10 43  1  0
 11 44  1  0
 11 45  1  0
 12 46  1  0
 12 47  1  0
 13 48  1  0
 14 49  1  0
 14 50  1  0
 16 51  1  0
 17 52  1  0
 19 53  1  0
 20 54  1  0
 21 55  1  0
 22 56  1  0
 24 57  1  0
M  CHG  1   1   1
M  END
>  <UniqueID>  (14) 
14

>  <SMILES>  (14) 
[NH3+]CCNCCCCNCCCNCc1ccc2ccccc2c1

>  <Energy>  (14) 
47.76499905679123

>  <Genealogy>  (14) 
[NH3+]CCNCCCCNCCCNCc1ccc2ccccc2c1 (protonated)
[NH3+]CCNCCCCNCCCNCc1ccc2ccccc2c1 (3D coordinates assigned)
[NH3+]CCNCCCCNCCCNCc1ccc2ccccc2c1 (optimized conformer: 47.76499905679123 kcal/mol)

>  <smiles>  (14) 
NCCNCCCCNCCCNCc1ccc2ccccc2c1

>  <score_type>  (14) 
oracle

>  <origin>  (14) 
adg

>  <m_score__min__energy>  (14) 
-10.51

>  <m_primary>  (14) 
energy

$$$$
14:0
     RDKit          3D

 51 53  0  0  0  0  0  0  0  0999 V2000
   -5.7550   17.3140  -34.0510 C   0  0  0  0  0  0  0  0  0  0  0  0
   -5.6490   18.6500  -33.4230 N   0  0  0  0  0  0  0  0  0  0  0  0
   -4.4390   19.3190  -33.4190 C   0  0  0  0  0  0  0  0  0  0  0  0
   -3.2200   18.6630  -33.7310 C   0  0  0  0  0  0  0  0  0  0  0  0
   -2.0150   19.3630  -33.7710 C   0  0  0  0  0  0  0  0  0  0  0  0
   -1.9860   20.7230  -33.4860 C   0  0  0  0  0  0  0  0  0  0  0  0
   -3.1590   21.3870  -33.1360 C   0  0  0  0  0  0  0  0  0  0  0  0
   -4.3900   20.6980  -33.0830 C   0  0  0  0  0  0  0  0  0  0  0  0
   -5.5700   21.3600  -32.7050 C   0  0  0  0  0  0  0  0  0  0  0  0
   -5.5630   22.7820  -32.4880 N   0  0  0  0  0  0  0  0  0  0  0  0
   -5.8380   23.3630  -31.1720 C   0  0  0  0  0  0  0  0  0  0  0  0
   -5.3480   24.8120  -31.0900 C   0  0  0  0  0  0  0  0  0  0  0  0
   -4.0740   24.8760  -30.4760 O   0  0  0  0  0  0  0  0  0  0  0  0
   -4.1240   24.4460  -29.1280 C   0  0  0  0  0  0  0  0  0  0  0  0
   -3.0400   23.3830  -28.8700 C   0  0  0  0  0  0  0  0  0  0  0  0
   -2.8170   22.5010  -30.0410 N   0  0  0  0  0  0  0  0  0  0  0  0
   -1.3750   22.4200  -30.3370 C   0  0  0  0  0  0  0  0  0  0  0  0
   -3.3500   21.1450  -29.8110 C   0  0  0  0  0  0  0  0  0  0  0  0
   -6.7430   20.6130  -32.5010 C   0  0  0  0  0  0  0  0  0  0  0  0
   -7.8860   21.2030  -31.9200 C   0  0  0  0  0  0  0  0  0  0  0  0
   -9.0350   20.4520  -31.6890 C   0  0  0  0  0  0  0  0  0  0  0  0
   -9.0590   19.0990  -32.0100 C   0  0  0  0  0  0  0  0  0  0  0  0
   -7.9390   18.4910  -32.5730 C   0  0  0  0  0  0  0  0  0  0  0  0
   -6.7630   19.2350  -32.8510 C   0  0  0  0  0  0  0  0  0  0  0  0
   -5.8161   16.5443  -33.2675 H   0  0  0  0  0  0  0  0  0  0  0  0
   -6.6592   17.2734  -34.6761 H   0  0  0  0  0  0  0  0  0  0  0  0
   -4.8685   17.1313  -34.6761 H   0  0  0  0  0  0  0  0  0  0  0  0
   -3.2259   17.5840  -33.9449 H   0  0  0  0  0  0  0  0  0  0  0  0
   -1.0839   18.8371  -34.0290 H   0  0  0  0  0  0  0  0  0  0  0  0
   -1.0360   21.2752  -33.5369 H   0  0  0  0  0  0  0  0  0  0  0  0
   -3.1260   22.4605  -32.8982 H   0  0  0  0  0  0  0  0  0  0  0  0
   -5.4160   23.4190  -33.3020 H   0  0  0  0  0  0  0  0  0  0  0  0
   -6.9226   23.3407  -30.9900 H   0  0  0  0  0  0  0  0  0  0  0  0
   -5.3038   22.7724  -30.4132 H   0  0  0  0  0  0  0  0  0  0  0  0
   -5.2804   25.2282  -32.1060 H   0  0  0  0  0  0  0  0  0  0  0  0
   -6.0609   25.3925  -30.4861 H   0  0  0  0  0  0  0  0  0  0  0  0
   -3.9539   25.3072  -28.4651 H   0  0  0  0  0  0  0  0  0  0  0  0
   -5.1126   24.0076  -28.9268 H   0  0  0  0  0  0  0  0  0  0  0  0
   -2.0961   23.8936  -28.6285 H   0  0  0  0  0  0  0  0  0  0  0  0
   -3.3837   22.7515  -28.0375 H   0  0  0  0  0  0  0  0  0  0  0  0
   -3.2910   22.9090  -30.8810 H   0  0  0  0  0  0  0  0  0  0  0  0
   -0.8085   22.3882  -29.3946 H   0  0  0  0  0  0  0  0  0  0  0  0
   -1.1707   21.5090  -30.9186 H   0  0  0  0  0  0  0  0  0  0  0  0
   -1.0699   23.3024  -30.9186 H   0  0  0  0  0  0  0  0  0  0  0  0
   -3.4233   20.9584  -28.7294 H   0  0  0  0  0  0  0  0  0  0  0  0
   -4.3480   21.0612  -30.2660 H   0  0  0  0  0  0  0  0  0  0  0  0
   -2.6762   20.4041  -30.2660 H   0  0  0  0  0  0  0  0  0  0  0  0
   -7.8686   22.2684  -31.6466 H   0  0  0  0  0  0  0  0  0  0  0  0
   -9.9247   20.9290  -31.2522 H   0  0  0  0  0  0  0  0  0  0  0  0
   -9.9659   18.5066  -31.8186 H   0  0  0  0  0  0  0  0  0  0  0  0
   -7.9668   17.4163  -32.8059 H   0  0  0  0  0  0  0  0  0  0  0  0
  1  2  1  0
  2  3  2  0
  3  4  1  0
  4  5  2  0
  5  6  1  0
  6  7  2  0
  7  8  1  0
  8  9  2  0
  9 10  1  0
 10 11  1  0
 11 12  1  0
 12 13  1  0
 13 14  1  0
 14 15  1  0
 15 16  1  0
 16 17  1  0
 16 18  1  0
  9 19  1  0
 19 20  2  0
 20 21  1  0
 21 22  2  0
 22 23  1  0
 23 24  2  0
 24  2  1  0
  8  3  1  0
 24 19  1  0
  1 25  1  0
  1 26  1  0
  1 27  1  0
  4 28  1  0
  5 29  1  0
  6 30  1  0
  7 31  1  0
 10 32  1  0
 11 33  1  0
 11 34  1  0
 12 35  1  0
 12 36  1  0
 14 37  1  0
 14 38  1  0
 15 39  1  0
 15 40  1  0
 16 41  1  0
 17 42  1  0
 17 43  1  0
 17 44  1  0
 18 45  1  0
 18 46  1  0
 18 47  1  0
 20 48  1  0
 21 49  1  0
 22 50  1  0
 23 51  1  0
M  CHG  2   2   1  16   1
M  END
>  <UniqueID>  (15) 
15

>  <SMILES>  (15) 
C[n+]1c2ccccc2c(NCCOCC[NH+](C)C)c2ccccc21

>  <Energy>  (15) 
79.26373916537929

>  <Genealogy>  (15) 
C[n+]1c2ccccc2c(NCCOCC[NH+](C)C)c2ccccc21 (protonated)
C[n+]1c2ccccc2c(NCCOCC[NH+](C)C)c2ccccc21 (3D coordinates assigned)
C[n+]1c2ccccc2c(NCCOCC[NH+](C)C)c2ccccc21 (optimized conformer: 79.26373916537929 kcal/mol)

>  <smiles>  (15) 
CN(C)CCOCCNc1c2ccccc2[n+](C)c2ccccc12

>  <score_type>  (15) 
oracle

>  <origin>  (15) 
adg

>  <m_score__min__energy>  (15) 
-7.5700000000000003

>  <m_primary>  (15) 
energy

$$$$
15:0
     RDKit          3D

 60 63  0  0  0  0  0  0  0  0999 V2000
   -7.1090   23.8480  -31.2300 C   0  0  0  0  0  0  0  0  0  0  0  0
   -5.7500   23.7560  -31.9150 C   0  0  0  0  0  0  0  0  0  0  0  0
   -4.7770   24.6110  -31.2080 N   0  0  0  0  0  0  0  0  0  0  0  0
   -5.3510   25.2750  -30.0260 C   0  0  0  0  0  0  0  0  0  0  0  0
   -4.9520   24.5610  -28.7260 C   0  0  0  0  0  0  0  0  0  0  0  0
   -4.5710   23.2180  -28.9610 O   0  0  0  0  0  0  0  0  0  0  0  0
   -3.4230   22.8540  -28.2140 C   0  0  0  0  0  0  0  0  0  0  0  0
   -2.4260   22.1290  -29.1190 C   0  0  0  0  0  0  0  0  0  0  0  0
   -2.4690   22.6580  -30.4330 O   0  0  0  0  0  0  0  0  0  0  0  0
   -3.0280   21.7200  -31.3350 C   0  0  0  0  0  0  0  0  0  0  0  0
   -2.0770   21.5120  -32.5100 C   0  0  0  0  0  0  0  0  0  0  0  0
   -2.7980   21.0480  -33.6980 N   0  0  0  0  0  0  0  0  0  0  0  0
   -3.5270   19.8070  -33.7000 C   0  0  0  0  0  0  0  0  0  0  0  0
   -2.8890   18.5630  -33.9210 C   0  0  0  0  0  0  0  0  0  0  0  0
   -1.5150   18.4990  -34.2220 C   0  0  0  0  0  0  0  0  0  0  0  0
   -0.8780   17.2710  -34.3920 C   0  0  0  0  0  0  0  0  0  0  0  0
   -1.5950   16.0860  -34.2530 C   0  0  0  0  0  0  0  0  0  0  0  0
   -2.9650   16.1160  -33.9860 C   0  0  0  0  0  0  0  0  0  0  0  0
   -3.6540   17.3450  -33.8550 C   0  0  0  0  0  0  0  0  0  0  0  0
   -5.0280   17.3900  -33.6510 N   0  0  0  0  0  0  0  0  0  0  0  0
   -5.8850   16.2050  -33.8470 C   0  0  0  0  0  0  0  0  0  0  0  0
   -5.5880   18.5970  -33.3270 C   0  0  0  0  0  0  0  0  0  0  0  0
   -4.8800   19.7780  -33.3740 C   0  0  0  0  0  0  0  0  0  0  0  0
   -5.6400   20.8020  -33.0430 O   0  0  0  0  0  0  0  0  0  0  0  0
   -6.8300   20.3220  -32.7590 C   0  0  0  0  0  0  0  0  0  0  0  0
   -7.9390   21.0470  -32.3290 C   0  0  0  0  0  0  0  0  0  0  0  0
   -9.1060   20.3370  -32.0050 C   0  0  0  0  0  0  0  0  0  0  0  0
   -9.1350   18.9290  -32.0980 C   0  0  0  0  0  0  0  0  0  0  0  0
   -8.0060   18.2160  -32.5380 C   0  0  0  0  0  0  0  0  0  0  0  0
   -6.8670   18.9470  -32.9010 C   0  0  0  0  0  0  0  0  0  0  0  0
   -6.9709   23.8387  -30.1387 H   0  0  0  0  0  0  0  0  0  0  0  0
   -7.6076   24.7820  -31.5285 H   0  0  0  0  0  0  0  0  0  0  0  0
   -7.7289   22.9898  -31.5285 H   0  0  0  0  0  0  0  0  0  0  0  0
   -5.4012   22.7129  -31.8965 H   0  0  0  0  0  0  0  0  0  0  0  0
   -5.8438   24.0961  -32.9569 H   0  0  0  0  0  0  0  0  0  0  0  0
   -3.9910   24.0080  -30.8720 H   0  0  0  0  0  0  0  0  0  0  0  0
   -4.9887   26.3130  -29.9887 H   0  0  0  0  0  0  0  0  0  0  0  0
   -6.4471   25.2440  -30.1127 H   0  0  0  0  0  0  0  0  0  0  0  0
   -4.1063   25.0968  -28.2703 H   0  0  0  0  0  0  0  0  0  0  0  0
   -5.8241   24.5573  -28.0556 H   0  0  0  0  0  0  0  0  0  0  0  0
   -2.9522   23.7593  -27.8032 H   0  0  0  0  0  0  0  0  0  0  0  0
   -3.7205   22.1861  -27.3922 H   0  0  0  0  0  0  0  0  0  0  0  0
   -1.4116   22.2536  -28.7122 H   0  0  0  0  0  0  0  0  0  0  0  0
   -2.6923   21.0624  -29.1572 H   0  0  0  0  0  0  0  0  0  0  0  0
   -3.1851   20.7624  -30.8170 H   0  0  0  0  0  0  0  0  0  0  0  0
   -3.9913   22.0993  -31.7068 H   0  0  0  0  0  0  0  0  0  0  0  0
   -1.5789   22.4650  -32.7418 H   0  0  0  0  0  0  0  0  0  0  0  0
   -1.3381   20.7470  -32.2295 H   0  0  0  0  0  0  0  0  0  0  0  0
   -2.8580   21.6670  -34.5380 H   0  0  0  0  0  0  0  0  0  0  0  0
   -0.9373   19.4295  -34.3242 H   0  0  0  0  0  0  0  0  0  0  0  0
    0.1940   17.2382  -34.6366 H   0  0  0  0  0  0  0  0  0  0  0  0
   -1.0789   15.1199  -34.3542 H   0  0  0  0  0  0  0  0  0  0  0  0
   -3.5167   15.1708  -33.8759 H   0  0  0  0  0  0  0  0  0  0  0  0
   -6.1787   15.7989  -32.8678 H   0  0  0  0  0  0  0  0  0  0  0  0
   -6.7854   16.4927  -34.4097 H   0  0  0  0  0  0  0  0  0  0  0  0
   -5.3298   15.4400  -34.4097 H   0  0  0  0  0  0  0  0  0  0  0  0
   -7.9015   22.1432  -32.2458 H   0  0  0  0  0  0  0  0  0  0  0  0
  -10.0035   20.8816  -31.6766 H   0  0  0  0  0  0  0  0  0  0  0  0
  -10.0502   18.3840  -31.8234 H   0  0  0  0  0  0  0  0  0  0  0  0
   -8.0165   17.1176  -32.5955 H   0  0  0  0  0  0  0  0  0  0  0  0
  1  2  1  0
  2  3  1  0
  3  4  1  0
  4  5  1  0
  5  6  1  0
  6  7  1  0
  7  8  1  0
  8  9  1  0
  9 10  1  0
 10 11  1  0
 11 12  1  0
 12 13  1  0
 13 14  2  0
 14 15  1  0
 15 16  2  0
 16 17  1  0
 17 18  2  0
 18 19  1  0
 19 20  2  0
 20 21  1  0
 20 22  1  0
 22 23  2  0
 23 24  1  0
 24 25  1  0
 25 26  2  0
 26 27  1  0
 27 28  2  0
 28 29  1  0
 29 30  2  0
 23 13  1  0
 30 25  1  0
 19 14  1  0
 30 22  1  0
  1 31  1  0
  1 32  1  0
  1 33  1  0
  2 34  1  0
  2 35  1  0
  3 36  1  0
  4 37  1  0
  4 38  1  0
  5 39  1  0
  5 40  1  0
  7 41  1  0
  7 42  1  0
  8 43  1  0
  8 44  1  0
 10 45  1  0
 10 46  1  0
 11 47  1  0
 11 48  1  0
 12 49  1  0
 15 50  1  0
 16 51  1  0
 17 52  1  0
 18 53  1  0
 21 54  1  0
 21 55  1  0
 21 56  1  0
 26 57  1  0
 27 58  1  0
 28 59  1  0
 29 60  1  0
M  CHG  1  20   1
M  END
>  <UniqueID>  (16) 
16

>  <SMILES>  (16) 
CCNCCOCCOCCNc1c2ccccc2[n+](C)c2c1oc1ccccc12

>  <Energy>  (16) 
122.08708253564696

>  <Genealogy>  (16) 
CCNCCOCCOCCNc1c2ccccc2[n+](C)c2c1oc1ccccc12 (3D coordinates assigned)
CCNCCOCCOCCNc1c2ccccc2[n+](C)c2c1oc1ccccc12 (optimized conformer: 122.08708253564696 kcal/mol)

>  <smiles>  (16) 
CCNCCOCCOCCNc1c2ccccc2[n+](C)c2c1oc1ccccc12

>  <score_type>  (16) 
oracle

>  <origin>  (16) 
adg

>  <m_score__min__energy>  (16) 
-8.9199999999999999

>  <m_primary>  (16) 
energy

$$$$
16:0
     RDKit          3D

 59 61  0  0  0  0  0  0  0  0999 V2000
   -2.8100   20.0320  -27.3500 C   0  0  0  0  0  0  0  0  0  0  0  0
   -3.1190   21.0600  -28.4350 C   0  0  0  0  0  0  0  0  0  0  0  0
   -1.8900   21.4010  -29.1840 N   0  0  0  0  0  0  0  0  0  0  0  0
   -1.2160   22.5860  -28.6060 C   0  0  0  0  0  0  0  0  0  0  0  0
   -1.6320   23.8490  -29.3540 C   0  0  0  0  0  0  0  0  0  0  0  0
   -0.9670   20.2420  -29.2840 C   0  0  0  0  0  0  0  0  0  0  0  0
   -0.5270   20.0540  -30.7350 C   0  0  0  0  0  0  0  0  0  0  0  0
   -0.1650   21.3020  -31.2950 O   0  0  0  0  0  0  0  0  0  0  0  0
    0.2250   21.1470  -32.6430 C   0  0  0  0  0  0  0  0  0  0  0  0
   -0.9500   20.6170  -33.4710 C   0  0  0  0  0  0  0  0  0  0  0  0
   -2.1650   21.5570  -33.4720 C   0  0  0  0  0  0  0  0  0  0  0  0
   -2.8740   21.5270  -32.1900 N   0  0  0  0  0  0  0  0  0  0  0  0
   -4.3010   21.3490  -32.1190 C   0  0  0  0  0  0  0  0  0  0  0  0
   -5.1050   22.3320  -31.5160 C   0  0  0  0  0  0  0  0  0  0  0  0
   -4.5330   23.5100  -30.9940 C   0  0  0  0  0  0  0  0  0  0  0  0
   -5.3150   24.4530  -30.3330 C   0  0  0  0  0  0  0  0  0  0  0  0
   -6.6770   24.2340  -30.1700 C   0  0  0  0  0  0  0  0  0  0  0  0
   -7.2710   23.0860  -30.6930 C   0  0  0  0  0  0  0  0  0  0  0  0
   -6.5080   22.1270  -31.4110 C   0  0  0  0  0  0  0  0  0  0  0  0
   -7.0920   21.0110  -31.9800 N   0  0  0  0  0  0  0  0  0  0  0  0
   -8.5640   20.9380  -32.1140 C   0  0  0  0  0  0  0  0  0  0  0  0
   -6.3010   19.9850  -32.4640 C   0  0  0  0  0  0  0  0  0  0  0  0
   -6.8510   18.7300  -32.8350 C   0  0  0  0  0  0  0  0  0  0  0  0
   -6.0570   17.7350  -33.4060 C   0  0  0  0  0  0  0  0  0  0  0  0
   -6.8320   16.0630  -33.9090 Br  0  0  0  0  0  0  0  0  0  0  0  0
   -4.7010   17.9590  -33.6140 C   0  0  0  0  0  0  0  0  0  0  0  0
   -4.1230   19.1600  -33.2130 C   0  0  0  0  0  0  0  0  0  0  0  0
   -4.8970   20.1650  -32.5940 C   0  0  0  0  0  0  0  0  0  0  0  0
   -2.9480   20.4911  -26.3600 H   0  0  0  0  0  0  0  0  0  0  0  0
   -3.4898   19.1735  -27.4540 H   0  0  0  0  0  0  0  0  0  0  0  0
   -1.7695   19.6906  -27.4540 H   0  0  0  0  0  0  0  0  0  0  0  0
   -3.8630   20.6423  -29.1293 H   0  0  0  0  0  0  0  0  0  0  0  0
   -3.5144   21.9712  -27.9624 H   0  0  0  0  0  0  0  0  0  0  0  0
   -1.4967   22.6825  -27.5468 H   0  0  0  0  0  0  0  0  0  0  0  0
   -0.1272   22.4584  -28.6971 H   0  0  0  0  0  0  0  0  0  0  0  0
   -1.8910   24.6355  -28.6299 H   0  0  0  0  0  0  0  0  0  0  0  0
   -0.7994   24.1920  -29.9857 H   0  0  0  0  0  0  0  0  0  0  0  0
   -2.5055   23.6301  -29.9857 H   0  0  0  0  0  0  0  0  0  0  0  0
   -0.0831   20.4239  -28.6551 H   0  0  0  0  0  0  0  0  0  0  0  0
   -1.4855   19.3344  -28.9414 H   0  0  0  0  0  0  0  0  0  0  0  0
    0.3376   19.3748  -30.7687 H   0  0  0  0  0  0  0  0  0  0  0  0
   -1.3594   19.6260  -31.3129 H   0  0  0  0  0  0  0  0  0  0  0  0
    0.5436   22.1204  -33.0442 H   0  0  0  0  0  0  0  0  0  0  0  0
    1.0576   20.4302  -32.6978 H   0  0  0  0  0  0  0  0  0  0  0  0
   -0.6126   20.4813  -34.5091 H   0  0  0  0  0  0  0  0  0  0  0  0
   -1.2709   19.6700  -33.0126 H   0  0  0  0  0  0  0  0  0  0  0  0
   -1.8212   22.5838  -33.6654 H   0  0  0  0  0  0  0  0  0  0  0  0
   -2.8591   21.2197  -34.2559 H   0  0  0  0  0  0  0  0  0  0  0  0
   -2.3180   21.4880  -31.3080 H   0  0  0  0  0  0  0  0  0  0  0  0
   -3.4535   23.6865  -31.1107 H   0  0  0  0  0  0  0  0  0  0  0  0
   -4.8545   25.3714  -29.9398 H   0  0  0  0  0  0  0  0  0  0  0  0
   -7.2891   24.9688  -29.6264 H   0  0  0  0  0  0  0  0  0  0  0  0
   -8.3486   22.9203  -30.5471 H   0  0  0  0  0  0  0  0  0  0  0  0
   -9.0225   20.9153  -31.1144 H   0  0  0  0  0  0  0  0  0  0  0  0
   -8.9263   21.8193  -32.6636 H   0  0  0  0  0  0  0  0  0  0  0  0
   -8.8373   20.0252  -32.6636 H   0  0  0  0  0  0  0  0  0  0  0  0
   -7.9215   18.5387  -32.6695 H   0  0  0  0  0  0  0  0  0  0  0  0
   -4.0841   17.1863  -34.0960 H   0  0  0  0  0  0  0  0  0  0  0  0
   -3.0489   19.3281  -33.3807 H   0  0  0  0  0  0  0  0  0  0  0  0
  1  2  1  0
  2  3  1  0
  3  4  1  0
  4  5  1  0
  3  6  1  0
  6  7  1  0
  7  8  1  0
  8  9  1  0
  9 10  1  0
 10 11  1  0
 11 12  1  0
 12 13  1  0
 13 14  2  0
 14 15  1  0
 15 16  2  0
 16 17  1  0
 17 18  2  0
 18 19  1  0
 19 20  2  0
 20 21  1  0
 20 22  1  0
 22 23  2  0
 23 24  1  0
 24 25  1  0
 24 26  2  0
 26 27  1  0
 27 28  2  0
 28 13  1  0
 19 14  1  0
 28 22  1  0
  1 29  1  0
  1 30  1  0
  1 31  1  0
  2 32  1  0
  2 33  1  0
  4 34  1  0
  4 35  1  0
  5 36  1  0
  5 37  1  0
  5 38  1  0
  6 39  1  0
  6 40  1  0
  7 41  1  0
  7 42  1  0
  9 43  1  0
  9 44  1  0
 10 45  1  0
 10 46  1  0
 11 47  1  0
 11 48  1  0
 12 49  1  0
 15 50  1  0
 16 51  1  0
 17 52  1  0
 18 53  1  0
 21 54  1  0
 21 55  1  0
 21 56  1  0
 23 57  1  0
 26 58  1  0
 27 59  1  0
M  CHG  1  20   1
M  END
>  <UniqueID>  (17) 
17

>  <SMILES>  (17) 
CCN(CC)CCOCCCNc1c2ccccc2[n+](C)c2cc(Br)ccc12

>  <Energy>  (17) 
81.59057637440192

>  <Genealogy>  (17) 
CCN(CC)CCOCCCNc1c2ccccc2[n+](C)c2cc(Br)ccc12 (3D coordinates assigned)
CCN(CC)CCOCCCNc1c2ccccc2[n+](C)c2cc(Br)ccc12 (optimized conformer: 81.59057637440192 kcal/mol)

>  <smiles>  (17) 
CCN(CC)CCOCCCNc1c2ccccc2[n+](C)c2cc(Br)ccc12

>  <score_type>  (17) 
oracle

>  <origin>  (17) 
adg

>  <m_score__min__energy>  (17) 
-8.9100000000000001

>  <m_primary>  (17) 
energy

$$$$
17:0
     RDKit          3D

 30 32  0  0  0  0  0  0  0  0999 V2000
   -9.4650   21.8940  -31.9310 C   0  0  0  0  0  0  0  0  0  0  0  0
   -8.1090   21.3970  -31.7220 N   0  0  0  0  0  0  0  0  0  0  0  0
   -7.6120   20.2080  -32.1150 C   0  0  0  0  0  0  0  0  0  0  0  0
   -6.2870   20.1270  -31.8730 N   0  0  0  0  0  0  0  0  0  0  0  0
   -5.9370   21.2830  -31.3300 N   0  0  0  0  0  0  0  0  0  0  0  0
   -7.0340   22.0520  -31.2450 C   0  0  0  0  0  0  0  0  0  0  0  0
   -7.0400   23.7240  -30.5870 S   0  0  0  0  0  0  0  0  0  0  0  0
   -5.4570   24.2010  -31.3650 C   0  0  0  0  0  0  0  0  0  0  0  0
   -4.3140   23.9210  -30.4440 C   0  0  0  0  0  0  0  0  0  0  0  0
   -4.1950   22.6970  -29.8650 N   0  0  0  0  0  0  0  0  0  0  0  0
   -3.2080   22.4370  -28.9680 C   0  0  0  0  0  0  0  0  0  0  0  0
   -3.1150   21.1740  -28.3760 C   0  0  0  0  0  0  0  0  0  0  0  0
   -2.1030   20.9090  -27.4460 C   0  0  0  0  0  0  0  0  0  0  0  0
   -1.9900   19.3240  -26.7050 Cl  0  0  0  0  0  0  0  0  0  0  0  0
   -1.1840   21.9080  -27.1060 C   0  0  0  0  0  0  0  0  0  0  0  0
   -1.2730   23.1760  -27.6920 C   0  0  0  0  0  0  0  0  0  0  0  0
   -2.2870   23.4500  -28.6250 C   0  0  0  0  0  0  0  0  0  0  0  0
   -2.4310   24.7060  -29.2370 C   0  0  0  0  0  0  0  0  0  0  0  0
   -1.6400   25.6510  -28.9720 O   0  0  0  0  0  0  0  0  0  0  0  0
   -3.4400   24.9120  -30.1230 N   0  0  0  0  0  0  0  0  0  0  0  0
   -9.9452   22.0700  -30.9571 H   0  0  0  0  0  0  0  0  0  0  0  0
   -9.4269   22.8366  -32.4967 H   0  0  0  0  0  0  0  0  0  0  0  0
  -10.0451   21.1500  -32.4967 H   0  0  0  0  0  0  0  0  0  0  0  0
   -8.2094   19.4065  -32.5740 H   0  0  0  0  0  0  0  0  0  0  0  0
   -4.9680   21.5330  -31.0320 H   0  0  0  0  0  0  0  0  0  0  0  0
   -5.3226   23.6264  -32.2933 H   0  0  0  0  0  0  0  0  0  0  0  0
   -5.4800   25.2785  -31.5850 H   0  0  0  0  0  0  0  0  0  0  0  0
   -3.8375   20.3880  -28.6412 H   0  0  0  0  0  0  0  0  0  0  0  0
   -0.3891   21.6961  -26.3758 H   0  0  0  0  0  0  0  0  0  0  0  0
   -0.5486   23.9584  -27.4219 H   0  0  0  0  0  0  0  0  0  0  0  0
  1  2  1  0
  2  3  1  0
  3  4  2  0
  4  5  1  0
  5  6  2  0
  6  7  1  0
  7  8  1  0
  8  9  1  0
  9 10  2  0
 10 11  1  0
 11 12  2  0
 12 13  1  0
 13 14  1  0
 13 15  2  0
 15 16  1  0
 16 17  2  0
 17 18  1  0
 18 19  2  0
 18 20  1  0
  6  2  1  0
 20  9  1  0
 17 11  1  0
  1 21  1  0
  1 22  1  0
  1 23  1  0
  3 24  1  0
  5 25  1  0
  8 26  1  0
  8 27  1  0
 12 28  1  0
 15 29  1  0
 16 30  1  0
M  CHG  2   5   1  20  -1
M  END
>  <UniqueID>  (18) 
18

>  <SMILES>  (18) 
Cn1cn[nH+]c1SCc1nc2cc(Cl)ccc2c(=O)[n-]1

>  <Energy>  (18) 
64.85287858016297

>  <Genealogy>  (18) 
Cn1cn[nH+]c1SCc1nc2cc(Cl)ccc2c(=O)[n-]1 (protonated)
Cn1cn[nH+]c1SCc1nc2cc(Cl)ccc2c(=O)[n-]1 (3D coordinates assigned)
Cn1cn[nH+]c1SCc1nc2cc(Cl)ccc2c(=O)[n-]1 (optimized conformer: 64.85287858016297 kcal/mol)

>  <smiles>  (18) 
Cn1cnnc1SCc1nc2cc(Cl)ccc2c(=O)[nH]1

>  <score_type>  (18) 
oracle

>  <origin>  (18) 
adg

>  <m_score__min__energy>  (18) 
-7.54

>  <m_primary>  (18) 
energy

$$$$
18:0
     RDKit          3D

 33 32  0  0  0  0  0  0  0  0999 V2000
   -9.5640   21.0030  -31.9520 C   0  0  0  0  0  0  0  0  0  0  0  0
   -8.8680   19.6390  -31.9720 C   0  0  0  0  0  0  0  0  0  0  0  0
   -7.9810   19.4750  -33.1420 N   0  0  0  0  0  0  0  0  0  0  0  0
   -6.5840   19.8690  -32.8850 C   0  0  0  0  0  0  0  0  0  0  0  0
   -6.4790   21.2940  -32.5330 C   0  0  0  0  0  0  0  0  0  0  0  0
   -6.3830   22.4620  -32.2520 C   0  0  0  0  0  0  0  0  0  0  0  0
   -6.2780   23.8830  -31.8990 C   0  0  0  0  0  0  0  0  0  0  0  0
   -4.9850   24.1710  -31.2390 N   0  0  0  0  0  0  0  0  0  0  0  0
   -5.1080   25.2640  -30.2490 C   0  0  0  0  0  0  0  0  0  0  0  0
   -6.5280   25.3210  -29.6940 C   0  0  0  0  0  0  0  0  0  0  0  0
   -4.3240   22.9680  -30.6730 C   0  0  0  0  0  0  0  0  0  0  0  0
   -3.2360   23.2760  -29.6350 C   0  0  0  0  0  0  0  0  0  0  0  0
   -9.7245   21.3175  -30.9102 H   0  0  0  0  0  0  0  0  0  0  0  0
   -8.9337   21.7438  -32.4657 H   0  0  0  0  0  0  0  0  0  0  0  0
  -10.5337   20.9274  -32.4657 H   0  0  0  0  0  0  0  0  0  0  0  0
   -8.2672   19.5358  -31.0563 H   0  0  0  0  0  0  0  0  0  0  0  0
   -9.6482   18.8659  -32.0323 H   0  0  0  0  0  0  0  0  0  0  0  0
   -8.3570   20.0510  -33.9320 H   0  0  0  0  0  0  0  0  0  0  0  0
   -7.9970   18.4760  -33.4560 H   0  0  0  0  0  0  0  0  0  0  0  0
   -6.1902   19.2660  -32.0536 H   0  0  0  0  0  0  0  0  0  0  0  0
   -6.0037   19.6979  -33.8037 H   0  0  0  0  0  0  0  0  0  0  0  0
   -6.3574   24.4879  -32.8143 H   0  0  0  0  0  0  0  0  0  0  0  0
   -7.0910   24.1319  -31.2011 H   0  0  0  0  0  0  0  0  0  0  0  0
   -4.4030   25.0865  -29.4235 H   0  0  0  0  0  0  0  0  0  0  0  0
   -4.8789   26.2201  -30.7424 H   0  0  0  0  0  0  0  0  0  0  0  0
   -6.4923   25.3196  -28.5946 H   0  0  0  0  0  0  0  0  0  0  0  0
   -7.0217   26.2397  -30.0436 H   0  0  0  0  0  0  0  0  0  0  0  0
   -7.0938   24.4448  -30.0436 H   0  0  0  0  0  0  0  0  0  0  0  0
   -5.0933   22.3462  -30.1919 H   0  0  0  0  0  0  0  0  0  0  0  0
   -3.8256   22.4583  -31.5107 H   0  0  0  0  0  0  0  0  0  0  0  0
   -3.6509   23.1585  -28.6230 H   0  0  0  0  0  0  0  0  0  0  0  0
   -2.3941   22.5809  -29.7690 H   0  0  0  0  0  0  0  0  0  0  0  0
   -2.8833   24.3093  -29.7690 H   0  0  0  0  0  0  0  0  0  0  0  0
  1  2  1  0
  2  3  1  0
  3  4  1  0
  4  5  1  0
  5  6  3  0
  6  7  1  0
  7  8  1  0
  8  9  1  0
  9 10  1  0
  8 11  1  0
 11 12  1  0
  1 13  1  0
  1 14  1  0
  1 15  1  0
  2 16  1  0
  2 17  1  0
  3 18  1  0
  3 19  1  0
  4 20  1  0
  4 21  1  0
  7 22  1  0
  7 23  1  0
  9 24  1  0
  9 25  1  0
 10 26  1  0
 10 27  1  0
 10 28  1  0
 11 29  1  0
 11 30  1  0
 12 31  1  0
 12 32  1  0
 12 33  1  0
M  CHG  1   3   1
M  END
>  <UniqueID>  (19) 
19

>  <SMILES>  (19) 
CC[NH2+]CC#CCN(CC)CC

>  <Energy>  (19) 
23.27426646782146

>  <Genealogy>  (19) 
CC[NH2+]CC#CCN(CC)CC (protonated)
CC[NH2+]CC#CCN(CC)CC (3D coordinates assigned)
CC[NH2+]CC#CCN(CC)CC (optimized conformer: 23.27426646782146 kcal/mol)

>  <smiles>  (19) 
CCNCC#CCN(CC)CC

>  <score_type>  (19) 
oracle

>  <origin>  (19) 
adg

>  <m_score__min__energy>  (19) 
-3.8700000000000001

>  <m_primary>  (19) 
energy

$$$$
19:0
     RDKit          3D

 53 54  0  0  0  0  0  0  0  0999 V2000
   -1.2120   20.4140  -34.1660 C   0  0  0  0  0  0  0  0  0  0  0  0
   -2.6800   20.1420  -33.8200 C   0  0  0  0  0  0  0  0  0  0  0  0
   -3.1670   20.9940  -32.7160 N   0  0  0  0  0  0  0  0  0  0  0  0
   -2.0860   21.5000  -31.8480 C   0  0  0  0  0  0  0  0  0  0  0  0
   -2.6300   22.2580  -30.6210 C   0  0  0  0  0  0  0  0  0  0  0  0
   -4.0590   21.8190  -30.2810 C   0  0  0  0  0  0  0  0  0  0  0  0
   -4.9670   22.1770  -31.3780 N   0  0  0  0  0  0  0  0  0  0  0  0
   -5.6170   23.4900  -31.1800 C   0  0  0  0  0  0  0  0  0  0  0  0
   -6.3650   23.5820  -29.8320 C   0  0  0  0  0  0  0  0  0  0  0  0
   -7.6140   22.6720  -29.7700 C   0  0  0  0  0  0  0  0  0  0  0  0
   -8.0510   22.2190  -31.1110 N   0  0  0  0  0  0  0  0  0  0  0  0
   -9.3640   21.5340  -31.0660 C   0  0  0  0  0  0  0  0  0  0  0  0
   -9.4860   20.5650  -32.2450 C   0  0  0  0  0  0  0  0  0  0  0  0
   -8.2430   19.7290  -32.4070 C   0  0  0  0  0  0  0  0  0  0  0  0
   -8.0520   18.5790  -31.6230 C   0  0  0  0  0  0  0  0  0  0  0  0
   -6.8760   17.8340  -31.7400 C   0  0  0  0  0  0  0  0  0  0  0  0
   -5.8810   18.2290  -32.6370 C   0  0  0  0  0  0  0  0  0  0  0  0
   -6.0640   19.3680  -33.4240 C   0  0  0  0  0  0  0  0  0  0  0  0
   -7.2420   20.1160  -33.3150 C   0  0  0  0  0  0  0  0  0  0  0  0
   -8.0270   23.3210  -32.0870 C   0  0  0  0  0  0  0  0  0  0  0  0
   -6.5800   23.7780  -32.3540 C   0  0  0  0  0  0  0  0  0  0  0  0
   -0.6306   20.5217  -33.2385 H   0  0  0  0  0  0  0  0  0  0  0  0
   -0.8123   19.5746  -34.7539 H   0  0  0  0  0  0  0  0  0  0  0  0
   -1.1395   21.3409  -34.7539 H   0  0  0  0  0  0  0  0  0  0  0  0
   -3.2944   20.3345  -34.7119 H   0  0  0  0  0  0  0  0  0  0  0  0
   -2.7585   19.0944  -33.4940 H   0  0  0  0  0  0  0  0  0  0  0  0
   -3.6940   21.8010  -33.1230 H   0  0  0  0  0  0  0  0  0  0  0  0
   -3.8460   20.4530  -32.1310 H   0  0  0  0  0  0  0  0  0  0  0  0
   -1.4836   20.6481  -31.4995 H   0  0  0  0  0  0  0  0  0  0  0  0
   -1.4809   22.2038  -32.4383 H   0  0  0  0  0  0  0  0  0  0  0  0
   -1.9786   22.0562  -29.7579 H   0  0  0  0  0  0  0  0  0  0  0  0
   -2.6445   23.3325  -30.8561 H   0  0  0  0  0  0  0  0  0  0  0  0
   -4.0798   20.7294  -30.1314 H   0  0  0  0  0  0  0  0  0  0  0  0
   -4.3845   22.3273  -29.3614 H   0  0  0  0  0  0  0  0  0  0  0  0
   -5.6830   21.4230  -31.4720 H   0  0  0  0  0  0  0  0  0  0  0  0
   -4.8243   24.2523  -31.1554 H   0  0  0  0  0  0  0  0  0  0  0  0
   -5.6755   23.2860  -29.0277 H   0  0  0  0  0  0  0  0  0  0  0  0
   -6.7088   24.6205  -29.7170 H   0  0  0  0  0  0  0  0  0  0  0  0
   -7.3773   21.7887  -29.1587 H   0  0  0  0  0  0  0  0  0  0  0  0
   -8.4344   23.2586  -29.3308 H   0  0  0  0  0  0  0  0  0  0  0  0
   -9.4514   20.9743  -30.1231 H   0  0  0  0  0  0  0  0  0  0  0  0
  -10.1664   22.2839  -31.1286 H   0  0  0  0  0  0  0  0  0  0  0  0
  -10.3442   19.8989  -32.0722 H   0  0  0  0  0  0  0  0  0  0  0  0
   -9.6254   21.1555  -33.1625 H   0  0  0  0  0  0  0  0  0  0  0  0
   -8.8317   18.2638  -30.9140 H   0  0  0  0  0  0  0  0  0  0  0  0
   -6.7333   16.9339  -31.1240 H   0  0  0  0  0  0  0  0  0  0  0  0
   -4.9539   17.6434  -32.7235 H   0  0  0  0  0  0  0  0  0  0  0  0
   -5.2806   19.6780  -34.1312 H   0  0  0  0  0  0  0  0  0  0  0  0
   -7.3849   21.0089  -33.9414 H   0  0  0  0  0  0  0  0  0  0  0  0
   -8.4777   22.9784  -33.0301 H   0  0  0  0  0  0  0  0  0  0  0  0
   -8.5968   24.1687  -31.6786 H   0  0  0  0  0  0  0  0  0  0  0  0
   -6.2080   23.2533  -33.2464 H   0  0  0  0  0  0  0  0  0  0  0  0
   -6.6051   24.8690  -32.4922 H   0  0  0  0  0  0  0  0  0  0  0  0
  1  2  1  0
  2  3  1  0
  3  4  1  0
  4  5  1  0
  5  6  1  0
  6  7  1  0
  7  8  1  0
  8  9  1  0
  9 10  1  0
 10 11  1  0
 11 12  1  0
 12 13  1  0
 13 14  1  0
 14 15  2  0
 15 16  1  0
 16 17  2  0
 17 18  1  0
 18 19  2  0
 11 20  1  0
 20 21  1  0
 21  8  1  0
 19 14  1  0
  1 22  1  0
  1 23  1  0
  1 24  1  0
  2 25  1  0
  2 26  1  0
  3 27  1  0
  3 28  1  0
  4 29  1  0
  4 30  1  0
  5 31  1  0
  5 32  1  0
  6 33  1  0
  6 34  1  0
  7 35  1  0
  8 36  1  0
  9 37  1  0
  9 38  1  0
 10 39  1  0
 10 40  1  0
 12 41  1  0
 12 42  1  0
 13 43  1  0
 13 44  1  0
 15 45  1  0
 16 46  1  0
 17 47  1  0
 18 48  1  0
 19 49  1  0
 20 50  1  0
 20 51  1  0
 21 52  1  0
 21 53  1  0
M  CHG  1   3   1
M  END
>  <UniqueID>  (20) 
20

>  <SMILES>  (20) 
CC[NH2+]CCCNC1CCN(CCc2ccccc2)CC1

>  <Energy>  (20) 
51.454096957360186

>  <Genealogy>  (20) 
CC[NH2+]CCCNC1CCN(CCc2ccccc2)CC1 (protonated)
CC[NH2+]CCCNC1CCN(CCc2ccccc2)CC1 (3D coordinates assigned)
CC[NH2+]CCCNC1CCN(CCc2ccccc2)CC1 (nonaromatic ring conformer: 51.454096957360186 kcal/mol)

>  <smiles>  (20) 
CCNCCCNC1CCN(CCc2ccccc2)CC1

>  <score_type>  (20) 
oracle

>  <origin>  (20) 
adg

>  <m_score__min__energy>  (20) 
-7.8700000000000001

>  <m_primary>  (20) 
energy

$$$$
20:0
     RDKit          3D

 47 48  0  0  0  0  0  0  0  0999 V2000
   -1.0170   21.9800  -30.1920 C   0  0  0  0  0  0  0  0  0  0  0  0
   -0.5820   20.8890  -31.1570 C   0  0  0  0  0  0  0  0  0  0  0  0
   -0.1580   21.4770  -32.3820 O   0  0  0  0  0  0  0  0  0  0  0  0
   -0.7890   21.2150  -33.6030 C   0  0  0  0  0  0  0  0  0  0  0  0
   -0.4950   21.8910  -34.6270 O   0  0  0  0  0  0  0  0  0  0  0  0
   -1.7970   20.1380  -33.6760 C   0  0  0  0  0  0  0  0  0  0  0  0
   -3.1650   20.3540  -33.6730 C   0  0  0  0  0  0  0  0  0  0  0  0
   -3.7440   19.1040  -33.7430 C   0  0  0  0  0  0  0  0  0  0  0  0
   -5.4600   18.7510  -33.7210 S   0  0  0  0  0  0  0  0  0  0  0  0
   -6.1130   19.2790  -34.9680 O   0  0  0  0  0  0  0  0  0  0  0  0
   -5.6520   17.2610  -33.6730 O   0  0  0  0  0  0  0  0  0  0  0  0
   -6.1740   19.5040  -32.3270 N   0  0  0  0  0  0  0  0  0  0  0  0
   -7.2340   18.8030  -31.5950 C   0  0  0  0  0  0  0  0  0  0  0  0
   -8.5970   19.1250  -32.1960 C   0  0  0  0  0  0  0  0  0  0  0  0
   -5.7810   20.8330  -31.9550 C   0  0  0  0  0  0  0  0  0  0  0  0
   -4.6850   21.0320  -31.1030 C   0  0  0  0  0  0  0  0  0  0  0  0
   -4.3060   22.3250  -30.7290 C   0  0  0  0  0  0  0  0  0  0  0  0
   -5.0200   23.4400  -31.2110 C   0  0  0  0  0  0  0  0  0  0  0  0
   -4.6740   24.7570  -30.8700 O   0  0  0  0  0  0  0  0  0  0  0  0
   -5.5500   25.6780  -30.2280 C   0  0  0  0  0  0  0  0  0  0  0  0
   -6.1140   23.2360  -32.0590 C   0  0  0  0  0  0  0  0  0  0  0  0
   -6.4960   21.9430  -32.4270 C   0  0  0  0  0  0  0  0  0  0  0  0
   -2.7280   18.1740  -33.7800 C   0  0  0  0  0  0  0  0  0  0  0  0
   -1.5390   18.8080  -33.7440 N   0  0  0  0  0  0  0  0  0  0  0  0
   -0.2360   18.1460  -33.7610 C   0  0  0  0  0  0  0  0  0  0  0  0
   -0.8781   21.6316  -29.1579 H   0  0  0  0  0  0  0  0  0  0  0  0
   -0.4096   22.8816  -30.3599 H   0  0  0  0  0  0  0  0  0  0  0  0
   -2.0781   22.2163  -30.3599 H   0  0  0  0  0  0  0  0  0  0  0  0
    0.2503   20.3207  -30.7162 H   0  0  0  0  0  0  0  0  0  0  0  0
   -1.4279   20.2128  -31.3496 H   0  0  0  0  0  0  0  0  0  0  0  0
   -3.6832   21.3231  -33.6247 H   0  0  0  0  0  0  0  0  0  0  0  0
   -7.0590   17.7186  -31.6538 H   0  0  0  0  0  0  0  0  0  0  0  0
   -7.2202   19.1317  -30.5453 H   0  0  0  0  0  0  0  0  0  0  0  0
   -9.3229   19.2965  -31.3875 H   0  0  0  0  0  0  0  0  0  0  0  0
   -8.5194   20.0295  -32.8171 H   0  0  0  0  0  0  0  0  0  0  0  0
   -8.9324   18.2814  -32.8171 H   0  0  0  0  0  0  0  0  0  0  0  0
   -4.1203   20.1662  -30.7268 H   0  0  0  0  0  0  0  0  0  0  0  0
   -3.4480   22.4721  -30.0566 H   0  0  0  0  0  0  0  0  0  0  0  0
   -5.4533   25.5764  -29.1370 H   0  0  0  0  0  0  0  0  0  0  0  0
   -5.2859   26.7035  -30.5255 H   0  0  0  0  0  0  0  0  0  0  0  0
   -6.5875   25.4656  -30.5255 H   0  0  0  0  0  0  0  0  0  0  0  0
   -6.6781   24.1004  -32.4392 H   0  0  0  0  0  0  0  0  0  0  0  0
   -7.3614   21.7954  -33.0898 H   0  0  0  0  0  0  0  0  0  0  0  0
   -2.8657   17.0838  -33.8310 H   0  0  0  0  0  0  0  0  0  0  0  0
    0.1016   17.9745  -32.7282 H   0  0  0  0  0  0  0  0  0  0  0  0
   -0.3213   17.1819  -34.2838 H   0  0  0  0  0  0  0  0  0  0  0  0
    0.4923   18.7834  -34.2838 H   0  0  0  0  0  0  0  0  0  0  0  0
  1  2  1  0
  2  3  1  0
  3  4  1  0
  4  5  2  0
  4  6  1  0
  6  7  2  0
  7  8  1  0
  8  9  1  0
  9 10  2  0
  9 11  2  0
  9 12  1  0
 12 13  1  0
 13 14  1  0
 12 15  1  0
 15 16  2  0
 16 17  1  0
 17 18  2  0
 18 19  1  0
 19 20  1  0
 18 21  1  0
 21 22  2  0
  8 23  2  0
 23 24  1  0
 24 25  1  0
 24  6  1  0
 22 15  1  0
  1 26  1  0
  1 27  1  0
  1 28  1  0
  2 29  1  0
  2 30  1  0
  7 31  1  0
 13 32  1  0
 13 33  1  0
 14 34  1  0
 14 35  1  0
 14 36  1  0
 16 37  1  0
 17 38  1  0
 20 39  1  0
 20 40  1  0
 20 41  1  0
 21 42  1  0
 22 43  1  0
 23 44  1  0
 25 45  1  0
 25 46  1  0
 25 47  1  0
M  END
>  <UniqueID>  (21) 
21

>  <SMILES>  (21) 
CCOC(=O)c1cc(S(=O)(=O)N(CC)c2ccc(OC)cc2)cn1C

>  <Energy>  (21) 
69.03454790669642

>  <Genealogy>  (21) 
CCOC(=O)c1cc(S(=O)(=O)N(CC)c2ccc(OC)cc2)cn1C (3D coordinates assigned)
CCOC(=O)c1cc(S(=O)(=O)N(CC)c2ccc(OC)cc2)cn1C (optimized conformer: 69.03454790669642 kcal/mol)

>  <smiles>  (21) 
CCOC(=O)c1cc(S(=O)(=O)N(CC)c2ccc(OC)cc2)cn1C

>  <score_type>  (21) 
oracle

>  <origin>  (21) 
adg

>  <m_score__min__energy>  (21) 
-7.5899999999999999

>  <m_primary>  (21) 
energy

$$$$
