0:0
     RDKit          3D

 55 58  0  0  1  0  0  0  0  0999 V2000
   -8.6080   18.8350  -31.5990 C   0  0  0  0  0  0  0  0  0  0  0  0
   -8.9420   19.9610  -32.5320 C   0  0  0  0  0  0  0  0  0  0  0  0
   -8.3370   21.2270  -32.1690 N   0  0  0  0  0  0  0  0  0  0  0  0
   -8.9050   22.3120  -31.5930 C   0  0  0  0  0  0  0  0  0  0  0  0
   -8.0070   23.2820  -31.4010 N   0  0  0  0  0  0  0  0  0  0  0  0
   -6.8540   22.8030  -31.8630 C   0  0  0  0  0  0  0  0  0  0  0  0
   -4.7410   21.4090  -32.9220 C   0  0  0  0  0  0  0  0  0  0  0  0
   -3.7270   20.7420  -33.4050 N   0  0  0  0  0  0  0  0  0  0  0  0
   -5.3320   24.9190  -30.1270 C   0  0  0  0  0  0  0  0  0  0  0  0
   -4.2750   24.1560  -29.3580 C   0  0  0  0  0  0  0  0  0  0  0  0
   -4.5980   23.0560  -28.5840 C   0  0  0  0  0  0  0  0  0  0  0  0
   -3.6680   22.3430  -27.8570 C   0  0  0  0  0  0  0  0  0  0  0  0
   -2.3440   22.7370  -27.8990 C   0  0  0  0  0  0  0  0  0  0  0  0
   -1.9850   23.8410  -28.6710 C   0  0  0  0  0  0  0  0  0  0  0  0
   -0.6760   24.2490  -28.7250 F   0  0  0  0  0  0  0  0  0  0  0  0
   -2.9510   24.5380  -29.3890 C   0  0  0  0  0  0  0  0  0  0  0  0
   -4.6030   22.6550  -32.4430 N   0  0  0  0  0  0  0  0  0  0  0  0
   -5.6070   23.3760  -31.9140 C   0  0  0  0  0  0  0  0  0  0  0  0
   -5.3630   24.5300  -31.4880 N   0  0  0  0  0  0  0  0  0  0  0  0
   -3.3550   19.4560  -32.9380 C   0  0  0  0  0  0  0  0  0  0  0  0
   -4.3100   18.3290  -33.1160 C   0  0  0  0  0  0  0  0  0  0  0  0
   -5.1710   18.3840  -34.2660 N   0  0  0  0  0  0  0  0  0  0  0  0
   -4.5960   17.4060  -35.2250 C   0  0  0  0  0  0  0  0  0  0  0  0
   -4.3680   16.0720  -34.5500 C   0  0  0  0  0  0  0  0  0  0  0  0
   -5.4800   15.5620  -33.9550 O   0  0  0  0  0  0  0  0  0  0  0  0
   -6.3350   16.4170  -33.3250 C   0  0  0  0  0  0  0  0  0  0  0  0
   -6.4700   17.7610  -33.9640 C   0  0  0  0  0  0  0  0  0  0  0  0
   -5.9700   20.8590  -32.8660 N   0  0  0  0  0  0  0  0  0  0  0  0
   -7.0320   21.5400  -32.3400 C   0  0  0  0  0  0  0  0  0  0  0  0
   -8.7098   19.1782  -30.5589 H   0  0  0  0  0  0  0  0  0  0  0  0
   -9.2957   17.9951  -31.7770 H   0  0  0  0  0  0  0  0  0  0  0  0
   -7.5736   18.5059  -31.7770 H   0  0  0  0  0  0  0  0  0  0  0  0
   -8.5962   19.6889  -33.5402 H   0  0  0  0  0  0  0  0  0  0  0  0
  -10.0316   20.1032  -32.4817 H   0  0  0  0  0  0  0  0  0  0  0  0
   -9.9677   22.3855  -31.3187 H   0  0  0  0  0  0  0  0  0  0  0  0
   -5.1111   25.9949  -30.0673 H   0  0  0  0  0  0  0  0  0  0  0  0
   -6.3126   24.6963  -29.6811 H   0  0  0  0  0  0  0  0  0  0  0  0
   -5.6491   22.7339  -28.5465 H   0  0  0  0  0  0  0  0  0  0  0  0
   -3.9747   21.4756  -27.2541 H   0  0  0  0  0  0  0  0  0  0  0  0
   -1.5816   22.1854  -27.3294 H   0  0  0  0  0  0  0  0  0  0  0  0
   -2.6534   25.4087  -29.9917 H   0  0  0  0  0  0  0  0  0  0  0  0
   -3.6650   23.1000  -32.4840 H   0  0  0  0  0  0  0  0  0  0  0  0
   -2.4260   19.1787  -33.4577 H   0  0  0  0  0  0  0  0  0  0  0  0
   -3.2844   19.5774  -31.8470 H   0  0  0  0  0  0  0  0  0  0  0  0
   -3.7217   17.4021  -33.1849 H   0  0  0  0  0  0  0  0  0  0  0  0
   -4.9845   18.3838  -32.2488 H   0  0  0  0  0  0  0  0  0  0  0  0
   -5.2923   17.2717  -36.0659 H   0  0  0  0  0  0  0  0  0  0  0  0
   -3.6313   17.7898  -35.5884 H   0  0  0  0  0  0  0  0  0  0  0  0
   -4.0198   15.3546  -35.3077 H   0  0  0  0  0  0  0  0  0  0  0  0
   -3.6257   16.2371  -33.7552 H   0  0  0  0  0  0  0  0  0  0  0  0
   -7.3301   15.9488  -33.3019 H   0  0  0  0  0  0  0  0  0  0  0  0
   -5.9116   16.5934  -32.3252 H   0  0  0  0  0  0  0  0  0  0  0  0
   -7.0322   17.6486  -34.9028 H   0  0  0  0  0  0  0  0  0  0  0  0
   -6.9922   18.4152  -33.2504 H   0  0  0  0  0  0  0  0  0  0  0  0
   -6.1250   19.9000  -33.2270 H   0  0  0  0  0  0  0  0  0  0  0  0
  1  2  1  0
  2  3  1  0
  3  4  1  0
  4  5  2  0
  5  6  1  0
  6  7  1  0
  7  8  2  0
  8  9  1  0
  9 10  1  0
 10 11  2  0
 11 12  1  0
 12 13  2  0
 13 14  1  0
 14 15  1  0
 14 16  2  0
  7 17  1  0
 17 18  1  0
 18 19  2  0
 19 20  1  0
 20 21  1  0
 21 22  1  0
 22 23  1  0
 23 24  1  0
 24 25  1  0
 25 26  1  0
 26 27  1  0
 18 28  1  0
 28 29  1  0
 29  3  1  0
 29  6  2  0
 16 10  1  0
 27 22  1  0
  1 30  1  0
  1 31  1  0
  1 32  1  0
  2 33  1  0
  2 34  1  0
  4 35  1  0
  9 36  1  0
  9 37  1  0
 11 38  1  0
 12 39  1  0
 13 40  1  0
 16 41  1  0
 17 42  1  0
 20 43  1  0
 20 44  1  0
 21 45  1  0
 21 46  1  0
 23 47  1  0
 23 48  1  0
 24 49  1  0
 24 50  1  0
 26 51  1  0
 26 52  1  0
 27 53  1  0
 27 54  1  0
 28 55  1  0
M  END
>  <smiles>  (1) 
CCn1cnc2c(=NCc3cccc(F)c3)[nH]c(=NCCN3CCOCC3)[nH]c21

>  <score_type>  (1) 
oracle

>  <origin>  (1) 
adg

>  <m_score__min__energy>  (1) 
-7.8200000000000003

>  <m_primary>  (1) 
energy

$$$$
1:0
     RDKit          3D

 43 45  0  0  0  0  0  0  0  0999 V2000
   -9.4850   19.6950  -32.7110 C   0  0  0  0  0  0  0  0  0  0  0  0
   -8.4260   19.3020  -31.6870 C   0  0  0  0  0  0  0  0  0  0  0  0
   -7.2090   20.1020  -31.8760 N   0  0  0  0  0  0  0  0  0  0  0  0
   -6.0860   19.7060  -32.5200 C   0  0  0  0  0  0  0  0  0  0  0  0
   -5.9220   18.3990  -33.2370 C   0  0  0  0  0  0  0  0  0  0  0  0
   -5.1070   20.6750  -32.4250 C   0  0  0  0  0  0  0  0  0  0  0  0
   -5.6400   21.6930  -31.6580 C   0  0  0  0  0  0  0  0  0  0  0  0
   -4.9130   22.9160  -31.2630 C   0  0  0  0  0  0  0  0  0  0  0  0
   -5.0980   23.9710  -31.9270 O   0  0  0  0  0  0  0  0  0  0  0  0
   -3.9780   22.9520  -30.1200 C   0  0  0  0  0  0  0  0  0  0  0  0
   -3.8180   21.8240  -29.3800 N   0  0  0  0  0  0  0  0  0  0  0  0
   -2.9730   21.7510  -28.3200 C   0  0  0  0  0  0  0  0  0  0  0  0
   -2.8560   20.1820  -27.4480 S   0  0  0  0  0  0  0  0  0  0  0  0
   -1.2390   19.7680  -28.1720 C   0  0  0  0  0  0  0  0  0  0  0  0
   -2.2240   22.8850  -27.9420 C   0  0  0  0  0  0  0  0  0  0  0  0
   -1.3280   22.8620  -26.8530 C   0  0  0  0  0  0  0  0  0  0  0  0
   -0.6070   24.0060  -26.5070 C   0  0  0  0  0  0  0  0  0  0  0  0
   -0.7670   25.1850  -27.2360 C   0  0  0  0  0  0  0  0  0  0  0  0
   -1.6500   25.2280  -28.3160 C   0  0  0  0  0  0  0  0  0  0  0  0
   -2.3840   24.0850  -28.6800 C   0  0  0  0  0  0  0  0  0  0  0  0
   -3.2780   24.1190  -29.7670 C   0  0  0  0  0  0  0  0  0  0  0  0
   -3.4810   25.3030  -30.4710 O   0  0  0  0  0  0  0  0  0  0  0  0
   -6.9470   21.3240  -31.3510 C   0  0  0  0  0  0  0  0  0  0  0  0
   -7.9280   22.1350  -30.5490 C   0  0  0  0  0  0  0  0  0  0  0  0
  -10.3927   20.0319  -32.1889 H   0  0  0  0  0  0  0  0  0  0  0  0
   -9.1007   20.5104  -33.3414 H   0  0  0  0  0  0  0  0  0  0  0  0
   -9.7257   18.8263  -33.3414 H   0  0  0  0  0  0  0  0  0  0  0  0
   -8.8194   19.4745  -30.6743 H   0  0  0  0  0  0  0  0  0  0  0  0
   -8.1782   18.2386  -31.8203 H   0  0  0  0  0  0  0  0  0  0  0  0
   -5.8202   17.5875  -32.5014 H   0  0  0  0  0  0  0  0  0  0  0  0
   -6.8039   18.2136  -33.8677 H   0  0  0  0  0  0  0  0  0  0  0  0
   -5.0216   18.4373  -33.8677 H   0  0  0  0  0  0  0  0  0  0  0  0
   -4.1022   20.6428  -32.8714 H   0  0  0  0  0  0  0  0  0  0  0  0
   -0.5133   19.5822  -27.3665 H   0  0  0  0  0  0  0  0  0  0  0  0
   -1.3358   18.8657  -28.7936 H   0  0  0  0  0  0  0  0  0  0  0  0
   -0.8903   20.6058  -28.7936 H   0  0  0  0  0  0  0  0  0  0  0  0
   -1.1966   21.9368  -26.2728 H   0  0  0  0  0  0  0  0  0  0  0  0
    0.0900   23.9780  -25.6564 H   0  0  0  0  0  0  0  0  0  0  0  0
   -0.1956   26.0831  -26.9587 H   0  0  0  0  0  0  0  0  0  0  0  0
   -1.7725   26.1610  -28.8856 H   0  0  0  0  0  0  0  0  0  0  0  0
   -7.7410   21.9804  -29.4761 H   0  0  0  0  0  0  0  0  0  0  0  0
   -7.8079   23.2010  -30.7922 H   0  0  0  0  0  0  0  0  0  0  0  0
   -8.9524   21.8166  -30.7922 H   0  0  0  0  0  0  0  0  0  0  0  0
  1  2  1  0
  2  3  1  0
  3  4  1  0
  4  5  1  0
  4  6  2  0
  6  7  1  0
  7  8  1  0
  8  9  2  0
  8 10  1  0
 10 11  2  0
 11 12  1  0
 12 13  1  0
 13 14  1  0
 12 15  2  0
 15 16  1  0
 16 17  2  0
 17 18  1  0
 18 19  2  0
 19 20  1  0
 20 21  2  0
 21 22  1  0
  7 23  2  0
 23 24  1  0
 23  3  1  0
 21 10  1  0
 20 15  1  0
  1 25  1  0
  1 26  1  0
  1 27  1  0
  2 28  1  0
  2 29  1  0
  5 30  1  0
  5 31  1  0
  5 32  1  0
  6 33  1  0
 14 34  1  0
 14 35  1  0
 14 36  1  0
 16 37  1  0
 17 38  1  0
 18 39  1  0
 19 40  1  0
 24 41  1  0
 24 42  1  0
 24 43  1  0
M  CHG  1  22  -1
M  END
>  <UniqueID>  (2) 
1

>  <SMILES>  (2) 
CCn1c(C)cc(C(=O)c2nc(SC)c3ccccc3c2[O-])c1C

>  <Energy>  (2) 
75.49057711424793

>  <Genealogy>  (2) 
CCn1c(C)cc(C(=O)c2nc(SC)c3ccccc3c2[O-])c1C (protonated)
CCn1c(C)cc(C(=O)c2nc(SC)c3ccccc3c2[O-])c1C (3D coordinates assigned)
CCn1c(C)cc(C(=O)c2nc(SC)c3ccccc3c2[O-])c1C (optimized conformer: 75.49057711424793 kcal/mol)

>  <smiles>  (2) 
CCn1c(C)cc(C(=O)c2nc(SC)c3ccccc3c2O)c1C

>  <score_type>  (2) 
oracle

>  <origin>  (2) 
adg

>  <m_score__min__energy>  (2) 
-11.81

>  <m_primary>  (2) 
energy

$$$$
2:0
     RDKit          3D

 65 67  0  0  0  0  0  0  0  0999 V2000
    0.7070   24.0650  -24.8660 C   0  0  0  0  0  0  0  0  0  0  0  0
    1.4390   25.3780  -25.1250 C   0  0  0  0  0  0  0  0  0  0  0  0
    0.4690   26.4870  -25.2780 N   0  0  0  0  0  0  0  0  0  0  0  0
    0.4470   27.3490  -24.0740 C   0  0  0  0  0  0  0  0  0  0  0  0
   -0.5610   26.8130  -23.0620 C   0  0  0  0  0  0  0  0  0  0  0  0
    0.7460   27.2790  -26.4990 C   0  0  0  0  0  0  0  0  0  0  0  0
   -0.5300   27.4360  -27.3250 C   0  0  0  0  0  0  0  0  0  0  0  0
   -0.7250   26.2730  -28.1020 O   0  0  0  0  0  0  0  0  0  0  0  0
   -1.2530   25.2470  -27.2890 C   0  0  0  0  0  0  0  0  0  0  0  0
   -2.5720   24.7600  -27.8850 C   0  0  0  0  0  0  0  0  0  0  0  0
   -2.5580   24.8760  -29.3460 N   0  0  0  0  0  0  0  0  0  0  0  0
   -3.2180   23.9230  -30.2030 C   0  0  0  0  0  0  0  0  0  0  0  0
   -2.4680   22.9040  -30.8100 C   0  0  0  0  0  0  0  0  0  0  0  0
   -3.0840   21.9190  -31.5760 C   0  0  0  0  0  0  0  0  0  0  0  0
   -4.4720   21.9200  -31.7590 C   0  0  0  0  0  0  0  0  0  0  0  0
   -5.2530   22.9440  -31.1790 C   0  0  0  0  0  0  0  0  0  0  0  0
   -6.6550   22.9700  -31.3650 C   0  0  0  0  0  0  0  0  0  0  0  0
   -7.4110   24.0090  -30.8000 C   0  0  0  0  0  0  0  0  0  0  0  0
   -6.7900   25.0180  -30.0710 C   0  0  0  0  0  0  0  0  0  0  0  0
   -5.4120   25.0030  -29.8760 C   0  0  0  0  0  0  0  0  0  0  0  0
   -4.6220   23.9620  -30.4040 C   0  0  0  0  0  0  0  0  0  0  0  0
   -7.3230   21.9070  -32.1520 C   0  0  0  0  0  0  0  0  0  0  0  0
   -8.5790   21.9110  -32.2760 O   0  0  0  0  0  0  0  0  0  0  0  0
   -6.5410   20.8690  -32.7690 N   0  0  0  0  0  0  0  0  0  0  0  0
   -7.1990   19.7790  -33.5060 C   0  0  0  0  0  0  0  0  0  0  0  0
   -6.9000   18.4300  -32.8230 C   0  0  0  0  0  0  0  0  0  0  0  0
   -6.0120   17.5340  -33.5980 N   0  0  0  0  0  0  0  0  0  0  0  0
   -5.7270   18.0360  -34.9520 C   0  0  0  0  0  0  0  0  0  0  0  0
   -6.4870   16.1430  -33.6340 C   0  0  0  0  0  0  0  0  0  0  0  0
   -5.1170   20.8520  -32.5580 C   0  0  0  0  0  0  0  0  0  0  0  0
   -4.4180   19.9220  -33.0490 O   0  0  0  0  0  0  0  0  0  0  0  0
    0.6168   23.9032  -23.7817 H   0  0  0  0  0  0  0  0  0  0  0  0
   -0.2963   24.1098  -25.3148 H   0  0  0  0  0  0  0  0  0  0  0  0
    1.2726   23.2351  -25.3148 H   0  0  0  0  0  0  0  0  0  0  0  0
    2.1065   25.5943  -24.2779 H   0  0  0  0  0  0  0  0  0  0  0  0
    2.0238   25.2843  -26.0519 H   0  0  0  0  0  0  0  0  0  0  0  0
    1.4480   27.3623  -23.6180 H   0  0  0  0  0  0  0  0  0  0  0  0
    0.1548   28.3682  -24.3670 H   0  0  0  0  0  0  0  0  0  0  0  0
   -0.1959   27.0072  -22.0427 H   0  0  0  0  0  0  0  0  0  0  0  0
   -1.5286   27.3157  -23.2068 H   0  0  0  0  0  0  0  0  0  0  0  0
   -0.6853   25.7297  -23.2068 H   0  0  0  0  0  0  0  0  0  0  0  0
    1.1173   28.2735  -26.2109 H   0  0  0  0  0  0  0  0  0  0  0  0
    1.5030   26.7566  -27.1024 H   0  0  0  0  0  0  0  0  0  0  0  0
   -1.3888   27.5776  -26.6524 H   0  0  0  0  0  0  0  0  0  0  0  0
   -0.4381   28.3110  -27.9852 H   0  0  0  0  0  0  0  0  0  0  0  0
   -0.5397   24.4109  -27.2427 H   0  0  0  0  0  0  0  0  0  0  0  0
   -1.4274   25.6337  -26.2741 H   0  0  0  0  0  0  0  0  0  0  0  0
   -2.7254   23.7064  -27.6085 H   0  0  0  0  0  0  0  0  0  0  0  0
   -3.3883   25.3826  -27.4900 H   0  0  0  0  0  0  0  0  0  0  0  0
   -2.0440   25.6750  -29.7800 H   0  0  0  0  0  0  0  0  0  0  0  0
   -1.3761   22.8836  -30.6782 H   0  0  0  0  0  0  0  0  0  0  0  0
   -2.4740   21.1314  -32.0426 H   0  0  0  0  0  0  0  0  0  0  0  0
   -8.5026   24.0255  -30.9347 H   0  0  0  0  0  0  0  0  0  0  0  0
   -7.3926   25.8339  -29.6454 H   0  0  0  0  0  0  0  0  0  0  0  0
   -4.9345   25.8121  -29.3038 H   0  0  0  0  0  0  0  0  0  0  0  0
   -8.2856   19.9497  -33.5167 H   0  0  0  0  0  0  0  0  0  0  0  0
   -6.8165   19.7560  -34.5371 H   0  0  0  0  0  0  0  0  0  0  0  0
   -6.4214   18.6340  -31.8538 H   0  0  0  0  0  0  0  0  0  0  0  0
   -7.8634   17.9081  -32.7250 H   0  0  0  0  0  0  0  0  0  0  0  0
   -5.1850   18.9907  -34.8826 H   0  0  0  0  0  0  0  0  0  0  0  0
   -5.1105   17.3028  -35.4927 H   0  0  0  0  0  0  0  0  0  0  0  0
   -6.6726   18.1897  -35.4927 H   0  0  0  0  0  0  0  0  0  0  0  0
   -6.6137   15.7721  -32.6062 H   0  0  0  0  0  0  0  0  0  0  0  0
   -7.4513   16.0984  -34.1614 H   0  0  0  0  0  0  0  0  0  0  0  0
   -5.7514   15.5179  -34.1614 H   0  0  0  0  0  0  0  0  0  0  0  0
  1  2  1  0
  2  3  1  0
  3  4  1  0
  4  5  1  0
  3  6  1  0
  6  7  1  0
  7  8  1  0
  8  9  1  0
  9 10  1  0
 10 11  1  0
 11 12  1  0
 12 13  2  0
 13 14  1  0
 14 15  2  0
 15 16  1  0
 16 17  2  0
 17 18  1  0
 18 19  2  0
 19 20  1  0
 20 21  2  0
 17 22  1  0
 22 23  2  0
 22 24  1  0
 24 25  1  0
 25 26  1  0
 26 27  1  0
 27 28  1  0
 27 29  1  0
 24 30  1  0
 30 31  2  0
 21 12  1  0
 30 15  1  0
 21 16  1  0
  1 32  1  0
  1 33  1  0
  1 34  1  0
  2 35  1  0
  2 36  1  0
  4 37  1  0
  4 38  1  0
  5 39  1  0
  5 40  1  0
  5 41  1  0
  6 42  1  0
  6 43  1  0
  7 44  1  0
  7 45  1  0
  9 46  1  0
  9 47  1  0
 10 48  1  0
 10 49  1  0
 11 50  1  0
 13 51  1  0
 14 52  1  0
 18 53  1  0
 19 54  1  0
 20 55  1  0
 25 56  1  0
 25 57  1  0
 26 58  1  0
 26 59  1  0
 28 60  1  0
 28 61  1  0
 28 62  1  0
 29 63  1  0
 29 64  1  0
 29 65  1  0
M  END
>  <UniqueID>  (3) 
2

>  <SMILES>  (3) 
CCN(CC)CCOCCNc1ccc2c3c(cccc13)C(=O)N(CCN(C)C)C2=O

>  <Energy>  (3) 
72.99559265393825

>  <Genealogy>  (3) 
CCN(CC)CCOCCNc1ccc2c3c(cccc13)C(=O)N(CCN(C)C)C2=O (3D coordinates assigned)
CCN(CC)CCOCCNc1ccc2c3c(cccc13)C(=O)N(CCN(C)C)C2=O (nonaromatic ring conformer: 72.99559265393825 kcal/mol)

>  <smiles>  (3) 
CCN(CC)CCOCCNc1ccc2c3c(cccc13)C(=O)N(CCN(C)C)C2=O

>  <score_type>  (3) 
oracle

>  <origin>  (3) 
adg

>  <m_score__min__energy>  (3) 
-8.4199999999999999

>  <m_primary>  (3) 
energy

$$$$
3:0
     RDKit          3D

 52 54  0  0  0  0  0  0  0  0999 V2000
   -6.4200   17.6450  -31.2410 C   0  0  0  0  0  0  0  0  0  0  0  0
   -5.7390   18.9530  -31.6600 C   0  0  0  0  0  0  0  0  0  0  0  0
   -6.6960   19.9100  -32.2930 N   0  0  0  0  0  0  0  0  0  0  0  0
   -6.6260   19.8550  -33.7770 C   0  0  0  0  0  0  0  0  0  0  0  0
   -5.7860   18.6890  -34.3260 C   0  0  0  0  0  0  0  0  0  0  0  0
   -8.0920   19.7200  -31.8180 C   0  0  0  0  0  0  0  0  0  0  0  0
   -8.8200   21.0520  -31.5680 C   0  0  0  0  0  0  0  0  0  0  0  0
   -8.2510   22.0680  -32.3730 O   0  0  0  0  0  0  0  0  0  0  0  0
   -7.8820   23.1810  -31.5880 C   0  0  0  0  0  0  0  0  0  0  0  0
   -7.2850   22.7130  -30.2610 C   0  0  0  0  0  0  0  0  0  0  0  0
   -5.9430   22.2550  -30.4340 O   0  0  0  0  0  0  0  0  0  0  0  0
   -4.7930   22.8260  -29.8600 C   0  0  0  0  0  0  0  0  0  0  0  0
   -3.5810   22.6810  -30.5370 C   0  0  0  0  0  0  0  0  0  0  0  0
   -2.4030   23.2290  -30.0240 C   0  0  0  0  0  0  0  0  0  0  0  0
   -2.4000   23.9440  -28.8050 C   0  0  0  0  0  0  0  0  0  0  0  0
   -1.1770   24.4990  -28.3080 C   0  0  0  0  0  0  0  0  0  0  0  0
   -0.1310   24.3210  -28.9950 O   0  0  0  0  0  0  0  0  0  0  0  0
   -1.0520   25.2410  -27.0890 C   0  0  0  0  0  0  0  0  0  0  0  0
    0.2120   25.7430  -26.6980 C   0  0  0  0  0  0  0  0  0  0  0  0
    0.3630   26.4700  -25.5140 C   0  0  0  0  0  0  0  0  0  0  0  0
   -0.7370   26.7150  -24.6930 C   0  0  0  0  0  0  0  0  0  0  0  0
   -1.9940   26.2310  -25.0530 C   0  0  0  0  0  0  0  0  0  0  0  0
   -2.1510   25.5020  -26.2370 C   0  0  0  0  0  0  0  0  0  0  0  0
   -3.6680   24.9200  -26.6710 S   0  0  0  0  0  0  0  0  0  0  0  0
   -3.6330   24.0750  -28.1260 C   0  0  0  0  0  0  0  0  0  0  0  0
   -4.8110   23.5220  -28.6390 C   0  0  0  0  0  0  0  0  0  0  0  0
   -6.4520   17.5836  -30.1432 H   0  0  0  0  0  0  0  0  0  0  0  0
   -7.4450   17.6212  -31.6396 H   0  0  0  0  0  0  0  0  0  0  0  0
   -5.8517   16.7917  -31.6396 H   0  0  0  0  0  0  0  0  0  0  0  0
   -5.3023   19.4265  -30.7683 H   0  0  0  0  0  0  0  0  0  0  0  0
   -4.9654   18.7081  -32.4027 H   0  0  0  0  0  0  0  0  0  0  0  0
   -6.4190   20.8920  -32.0500 H   0  0  0  0  0  0  0  0  0  0  0  0
   -7.6497   19.7563  -34.1672 H   0  0  0  0  0  0  0  0  0  0  0  0
   -6.1324   20.7818  -34.1047 H   0  0  0  0  0  0  0  0  0  0  0  0
   -5.3695   18.1108  -33.4881 H   0  0  0  0  0  0  0  0  0  0  0  0
   -6.4227   18.0362  -34.9413 H   0  0  0  0  0  0  0  0  0  0  0  0
   -4.9652   19.0862  -34.9413 H   0  0  0  0  0  0  0  0  0  0  0  0
   -8.6483   19.1521  -32.5783 H   0  0  0  0  0  0  0  0  0  0  0  0
   -8.0468   19.1809  -30.8602 H   0  0  0  0  0  0  0  0  0  0  0  0
   -9.8846   20.9393  -31.8206 H   0  0  0  0  0  0  0  0  0  0  0  0
   -8.7177   21.3284  -30.5082 H   0  0  0  0  0  0  0  0  0  0  0  0
   -7.1357   23.7786  -32.1321 H   0  0  0  0  0  0  0  0  0  0  0  0
   -8.7748   23.7910  -31.3859 H   0  0  0  0  0  0  0  0  0  0  0  0
   -7.2894   23.5518  -29.5494 H   0  0  0  0  0  0  0  0  0  0  0  0
   -7.8924   21.8790  -29.8794 H   0  0  0  0  0  0  0  0  0  0  0  0
   -3.5531   22.1277  -31.4873 H   0  0  0  0  0  0  0  0  0  0  0  0
   -1.4615   23.1018  -30.5784 H   0  0  0  0  0  0  0  0  0  0  0  0
    1.0890   25.5582  -27.3357 H   0  0  0  0  0  0  0  0  0  0  0  0
    1.3547   26.8508  -25.2284 H   0  0  0  0  0  0  0  0  0  0  0  0
   -0.6133   27.2891  -23.7629 H   0  0  0  0  0  0  0  0  0  0  0  0
   -2.8627   26.4223  -24.4059 H   0  0  0  0  0  0  0  0  0  0  0  0
   -5.7548   23.6322  -28.0849 H   0  0  0  0  0  0  0  0  0  0  0  0
  1  2  1  0
  2  3  1  0
  3  4  1  0
  4  5  1  0
  3  6  1  0
  6  7  1  0
  7  8  1  0
  8  9  1  0
  9 10  1  0
 10 11  1  0
 11 12  1  0
 12 13  2  0
 13 14  1  0
 14 15  2  0
 15 16  1  0
 16 17  2  0
 16 18  1  0
 18 19  2  0
 19 20  1  0
 20 21  2  0
 21 22  1  0
 22 23  2  0
 23 24  1  0
 24 25  1  0
 25 26  2  0
 26 12  1  0
 25 15  1  0
 23 18  1  0
  1 27  1  0
  1 28  1  0
  1 29  1  0
  2 30  1  0
  2 31  1  0
  3 32  1  0
  4 33  1  0
  4 34  1  0
  5 35  1  0
  5 36  1  0
  5 37  1  0
  6 38  1  0
  6 39  1  0
  7 40  1  0
  7 41  1  0
  9 42  1  0
  9 43  1  0
 10 44  1  0
 10 45  1  0
 13 46  1  0
 14 47  1  0
 19 48  1  0
 20 49  1  0
 21 50  1  0
 22 51  1  0
 26 52  1  0
M  CHG  1   3   1
M  END
>  <UniqueID>  (4) 
3

>  <SMILES>  (4) 
CC[NH+](CC)CCOCCOc1ccc2c(=O)c3ccccc3sc2c1

>  <Energy>  (4) 
69.76313893659128

>  <Genealogy>  (4) 
CC[NH+](CC)CCOCCOc1ccc2c(=O)c3ccccc3sc2c1 (protonated)
CC[NH+](CC)CCOCCOc1ccc2c(=O)c3ccccc3sc2c1 (3D coordinates assigned)
CC[NH+](CC)CCOCCOc1ccc2c(=O)c3ccccc3sc2c1 (optimized conformer: 69.76313893659128 kcal/mol)

>  <smiles>  (4) 
CCN(CC)CCOCCOc1ccc2c(=O)c3ccccc3sc2c1

>  <score_type>  (4) 
oracle

>  <origin>  (4) 
adg

>  <m_score__min__energy>  (4) 
-8.9800000000000004

>  <m_primary>  (4) 
energy

$$$$
4:0
     RDKit          3D

 64 67  0  0  0  0  0  0  0  0999 V2000
   -7.2728   16.7285  -31.7433 H   0  0  0  0  0  0  0  0  0  0  0  0
   -7.2850   17.4460  -32.5770 C   0  0  0  0  0  0  0  0  0  0  0  0
   -6.8660   17.0080  -33.7730 C   0  0  0  0  0  0  0  0  0  0  0  0
   -7.5225   17.1911  -34.6364 H   0  0  0  0  0  0  0  0  0  0  0  0
   -5.5630   16.2820  -34.0320 C   0  0  0  0  0  0  0  0  0  0  0  0
   -5.7370   15.4956  -34.7812 H   0  0  0  0  0  0  0  0  0  0  0  0
   -5.2167   15.8534  -33.0800 H   0  0  0  0  0  0  0  0  0  0  0  0
   -4.5090   17.1980  -34.5340 N   0  0  0  0  0  0  0  0  0  0  0  0
   -4.5370   17.1710  -35.5810 H   0  0  0  0  0  0  0  0  0  0  0  0
   -4.7910   18.6050  -34.1290 C   0  0  0  0  0  0  0  0  0  0  0  0
   -5.8620   18.6986  -33.8961 H   0  0  0  0  0  0  0  0  0  0  0  0
   -4.5039   19.2606  -34.9643 H   0  0  0  0  0  0  0  0  0  0  0  0
   -3.9770   19.0290  -32.8950 C   0  0  0  0  0  0  0  0  0  0  0  0
   -4.2268   18.3607  -32.0577 H   0  0  0  0  0  0  0  0  0  0  0  0
   -4.2333   20.0727  -32.6604 H   0  0  0  0  0  0  0  0  0  0  0  0
   -2.5150   18.9600  -33.1440 N   0  0  0  0  0  0  0  0  0  0  0  0
   -1.9750   20.2770  -33.5490 C   0  0  0  0  0  0  0  0  0  0  0  0
   -1.6164   20.2131  -34.5869 H   0  0  0  0  0  0  0  0  0  0  0  0
   -1.1521   20.5385  -32.8675 H   0  0  0  0  0  0  0  0  0  0  0  0
   -3.0460   21.3730  -33.4570 C   0  0  0  0  0  0  0  0  0  0  0  0
   -4.0281   20.9084  -33.2845 H   0  0  0  0  0  0  0  0  0  0  0  0
   -3.0611   21.9416  -34.3985 H   0  0  0  0  0  0  0  0  0  0  0  0
   -2.7500   22.2550  -32.3870 O   0  0  0  0  0  0  0  0  0  0  0  0
   -3.4340   21.8830  -31.1990 C   0  0  0  0  0  0  0  0  0  0  0  0
   -4.0522   21.0002  -31.4192 H   0  0  0  0  0  0  0  0  0  0  0  0
   -2.4310   21.5570  -30.1150 C   0  0  0  0  0  0  0  0  0  0  0  0
   -1.1910   22.2200  -30.0520 C   0  0  0  0  0  0  0  0  0  0  0  0
   -0.9284   22.9631  -30.8193 H   0  0  0  0  0  0  0  0  0  0  0  0
   -0.2910   21.9390  -29.0190 C   0  0  0  0  0  0  0  0  0  0  0  0
    0.6787   22.4569  -28.9802 H   0  0  0  0  0  0  0  0  0  0  0  0
   -0.6200   21.0030  -28.0370 C   0  0  0  0  0  0  0  0  0  0  0  0
    0.2520   20.7350  -27.0340 F   0  0  0  0  0  0  0  0  0  0  0  0
   -1.8550   20.3490  -28.0810 C   0  0  0  0  0  0  0  0  0  0  0  0
   -2.1158   19.6144  -27.3049 H   0  0  0  0  0  0  0  0  0  0  0  0
   -2.7590   20.6280  -29.1110 C   0  0  0  0  0  0  0  0  0  0  0  0
   -3.7331   20.1175  -29.1362 H   0  0  0  0  0  0  0  0  0  0  0  0
   -4.3340   23.0030  -30.7210 C   0  0  0  0  0  0  0  0  0  0  0  0
   -4.1960   23.5420  -29.4270 C   0  0  0  0  0  0  0  0  0  0  0  0
   -3.4047   23.1684  -28.7605 H   0  0  0  0  0  0  0  0  0  0  0  0
   -5.0590   24.5490  -28.9850 C   0  0  0  0  0  0  0  0  0  0  0  0
   -4.9398   24.9706  -27.9760 H   0  0  0  0  0  0  0  0  0  0  0  0
   -6.0730   25.0210  -29.8230 C   0  0  0  0  0  0  0  0  0  0  0  0
   -6.9100   25.9950  -29.3900 F   0  0  0  0  0  0  0  0  0  0  0  0
   -6.2270   24.4850  -31.1040 C   0  0  0  0  0  0  0  0  0  0  0  0
   -7.0264   24.8557  -31.7624 H   0  0  0  0  0  0  0  0  0  0  0  0
   -5.3650   23.4770  -31.5500 C   0  0  0  0  0  0  0  0  0  0  0  0
   -5.4953   23.0527  -32.5565 H   0  0  0  0  0  0  0  0  0  0  0  0
   -2.1430   17.8960  -34.1140 C   0  0  0  0  0  0  0  0  0  0  0  0
   -1.1525   17.5004  -33.8450 H   0  0  0  0  0  0  0  0  0  0  0  0
   -2.1333   18.3408  -35.1200 H   0  0  0  0  0  0  0  0  0  0  0  0
   -3.1540   16.7420  -34.1150 C   0  0  0  0  0  0  0  0  0  0  0  0
   -3.2170   16.3221  -33.1002 H   0  0  0  0  0  0  0  0  0  0  0  0
   -2.8093   15.9842  -34.8340 H   0  0  0  0  0  0  0  0  0  0  0  0
   -7.7620   18.8150  -32.2880 C   0  0  0  0  0  0  0  0  0  0  0  0
   -9.0950   19.1940  -32.5260 C   0  0  0  0  0  0  0  0  0  0  0  0
   -9.8004   18.4723  -32.9636 H   0  0  0  0  0  0  0  0  0  0  0  0
   -9.5270   20.4860  -32.2080 C   0  0  0  0  0  0  0  0  0  0  0  0
  -10.5666   20.7827  -32.4112 H   0  0  0  0  0  0  0  0  0  0  0  0
   -8.6410   21.4000  -31.6330 C   0  0  0  0  0  0  0  0  0  0  0  0
   -8.9804   22.4179  -31.3906 H   0  0  0  0  0  0  0  0  0  0  0  0
   -7.3230   21.0200  -31.3660 C   0  0  0  0  0  0  0  0  0  0  0  0
   -6.6273   21.7374  -30.9063 H   0  0  0  0  0  0  0  0  0  0  0  0
   -6.8870   19.7300  -31.6820 C   0  0  0  0  0  0  0  0  0  0  0  0
   -5.8532   19.4305  -31.4547 H   0  0  0  0  0  0  0  0  0  0  0  0
  1  2  1  0
  2  3  2  0
  3  4  1  0
  3  5  1  0
  5  6  1  0
  5  7  1  0
  5  8  1  0
  8  9  1  0
  8 10  1  0
 10 11  1  0
 10 12  1  0
 10 13  1  0
 13 14  1  0
 13 15  1  0
 13 16  1  0
 16 17  1  0
 17 18  1  0
 17 19  1  0
 17 20  1  0
 20 21  1  0
 20 22  1  0
 20 23  1  0
 23 24  1  0
 24 25  1  0
 24 26  1  0
 26 27  2  0
 27 28  1  0
 27 29  1  0
 29 30  1  0
 29 31  2  0
 31 32  1  0
 31 33  1  0
 33 34  1  0
 33 35  2  0
 35 36  1  0
 24 37  1  0
 37 38  2  0
 38 39  1  0
 38 40  1  0
 40 41  1  0
 40 42  2  0
 42 43  1  0
 42 44  1  0
 44 45  1  0
 44 46  2  0
 46 47  1  0
 16 48  1  0
 48 49  1  0
 48 50  1  0
 48 51  1  0
 51 52  1  0
 51 53  1  0
  2 54  1  0
 54 55  2  0
 55 56  1  0
 55 57  1  0
 57 58  1  0
 57 59  2  0
 59 60  1  0
 59 61  1  0
 61 62  1  0
 61 63  2  0
 63 64  1  0
 51  8  1  0
 63 54  1  0
 35 26  1  0
 46 37  1  0
M  CHG  1   8   1
M  END
>  <UniqueID>  (5) 
4

>  <SMILES>  (5) 
Fc1ccc(C(OCCN2CC[NH+](C/C=C\c3ccccc3)CC2)c2ccc(F)cc2)cc1

>  <Energy>  (5) 
90.81561439411823

>  <Genealogy>  (5) 
Fc1ccc(C(OCCN2CC[NH+](CC=Cc3ccccc3)CC2)c2ccc(F)cc2)cc1 (protonated)
Fc1ccc(C(OCCN2CC[NH+](C/C=C\c3ccccc3)CC2)c2ccc(F)cc2)cc1 (cis-trans isomerization)
Fc1ccc(C(OCCN2CC[NH+](C/C=C\c3ccccc3)CC2)c2ccc(F)cc2)cc1 (3D coordinates assigned)
Fc1ccc(C(OCCN2CC[NH+](C/C=C\c3ccccc3)CC2)c2ccc(F)cc2)cc1 (nonaromatic ring conformer: 90.81561439411823 kcal/mol)

>  <smiles>  (5) 
Fc1ccc(C(OCCN2CCN(CC=Cc3ccccc3)CC2)c2ccc(F)cc2)cc1

>  <score_type>  (5) 
oracle

>  <origin>  (5) 
adg

>  <m_score__min__energy>  (5) 
-9.8100000000000005

>  <m_primary>  (5) 
energy

$$$$
5:0
     RDKit          3D

 76 81  0  0  0  0  0  0  0  0999 V2000
   -6.4950   23.6410  -32.6600 C   0  0  0  0  0  0  0  0  0  0  0  0
   -6.6250   23.1630  -31.2060 C   0  0  0  0  0  0  0  0  0  0  0  0
   -5.3590   23.4540  -30.3270 C   0  0  2  0  0  0  0  0  0  0  0  0
   -5.6460   23.1980  -28.9710 O   0  0  0  0  0  0  0  0  0  0  0  0
   -4.9370   24.9160  -30.4530 C   0  0  0  0  0  0  0  0  0  0  0  0
   -5.7490   25.8100  -30.8220 O   0  0  0  0  0  0  0  0  0  0  0  0
   -3.6380   25.2910  -30.1060 O   0  0  0  0  0  0  0  0  0  0  0  0
   -2.7140   24.3460  -29.5740 C   0  0  0  0  0  0  0  0  0  0  0  0
   -2.8420   23.0350  -30.3120 C   0  0  0  0  0  0  0  0  0  0  0  0
   -4.1350   22.5970  -30.7110 C   0  0  0  0  0  0  0  0  0  0  0  0
   -4.2410   21.3690  -31.4080 C   0  0  0  0  0  0  0  0  0  0  0  0
   -3.0900   20.6040  -31.6290 C   0  0  0  0  0  0  0  0  0  0  0  0
   -1.8750   21.0820  -31.2880 N   0  0  0  0  0  0  0  0  0  0  0  0
   -1.7080   22.2570  -30.6240 C   0  0  0  0  0  0  0  0  0  0  0  0
   -0.5500   22.6430  -30.3050 O   0  0  0  0  0  0  0  0  0  0  0  0
   -0.8100   20.2240  -31.8030 C   0  0  0  0  0  0  0  0  0  0  0  0
   -1.5720   19.1580  -32.5330 C   0  0  0  0  0  0  0  0  0  0  0  0
   -1.0810   18.1280  -33.3360 C   0  0  0  0  0  0  0  0  0  0  0  0
    0.3310   17.9780  -33.5580 N   0  0  0  0  0  0  0  0  0  0  0  0
    1.1810   17.1720  -32.6810 C   0  0  0  0  0  0  0  0  0  0  0  0
    1.5980   17.9640  -31.4350 C   0  0  0  0  0  0  0  0  0  0  0  0
    0.7770   17.5650  -30.1890 C   0  0  0  0  0  0  0  0  0  0  0  0
    1.6310   17.0490  -29.0890 N   0  0  1  0  0  0  0  0  0  0  0  0
    2.9380   17.7390  -29.0640 C   0  0  0  0  0  0  0  0  0  0  0  0
    0.9300   17.2180  -27.7910 C   0  0  0  0  0  0  0  0  0  0  0  0
    0.1890   18.5330  -27.7130 C   0  0  0  0  0  0  0  0  0  0  0  0
    0.8740   19.7410  -27.9270 C   0  0  0  0  0  0  0  0  0  0  0  0
    0.1840   20.9580  -27.8950 C   0  0  0  0  0  0  0  0  0  0  0  0
   -1.1920   20.9770  -27.6530 C   0  0  0  0  0  0  0  0  0  0  0  0
   -1.8810   19.7800  -27.4380 C   0  0  0  0  0  0  0  0  0  0  0  0
   -1.1950   18.5620  -27.4670 C   0  0  0  0  0  0  0  0  0  0  0  0
   -2.0230   17.3010  -33.9950 C   0  0  0  0  0  0  0  0  0  0  0  0
   -1.6030   16.2750  -34.8670 C   0  0  0  0  0  0  0  0  0  0  0  0
   -2.5360   15.4720  -35.5200 C   0  0  0  0  0  0  0  0  0  0  0  0
   -3.8970   15.6810  -35.3280 C   0  0  0  0  0  0  0  0  0  0  0  0
   -4.3410   16.6820  -34.4630 C   0  0  0  0  0  0  0  0  0  0  0  0
   -3.4230   17.4930  -33.7560 C   0  0  0  0  0  0  0  0  0  0  0  0
   -3.8520   18.4660  -32.8660 N   0  0  0  0  0  0  0  0  0  0  0  0
   -5.2410   18.4990  -32.3780 C   0  0  0  0  0  0  0  0  0  0  0  0
   -2.9270   19.3530  -32.3810 C   0  0  0  0  0  0  0  0  0  0  0  0
   -6.2063   24.7024  -32.6726 H   0  0  0  0  0  0  0  0  0  0  0  0
   -5.7261   23.0458  -33.1743 H   0  0  0  0  0  0  0  0  0  0  0  0
   -7.4594   23.5172  -33.1743 H   0  0  0  0  0  0  0  0  0  0  0  0
   -7.4877   23.6709  -30.7500 H   0  0  0  0  0  0  0  0  0  0  0  0
   -6.7476   22.0703  -31.2383 H   0  0  0  0  0  0  0  0  0  0  0  0
   -5.8060   24.0700  -28.5230 H   0  0  0  0  0  0  0  0  0  0  0  0
   -1.6902   24.7315  -29.6891 H   0  0  0  0  0  0  0  0  0  0  0  0
   -2.9317   24.1856  -28.5078 H   0  0  0  0  0  0  0  0  0  0  0  0
   -5.2184   21.0197  -31.7722 H   0  0  0  0  0  0  0  0  0  0  0  0
   -0.1492   20.7780  -32.4860 H   0  0  0  0  0  0  0  0  0  0  0  0
   -0.1487   19.8288  -31.0178 H   0  0  0  0  0  0  0  0  0  0  0  0
    0.7630   18.4550  -34.3840 H   0  0  0  0  0  0  0  0  0  0  0  0
    0.6259   16.2755  -32.3676 H   0  0  0  0  0  0  0  0  0  0  0  0
    2.0882   16.8910  -33.2359 H   0  0  0  0  0  0  0  0  0  0  0  0
    2.6625   17.7735  -31.2339 H   0  0  0  0  0  0  0  0  0  0  0  0
    1.4131   19.0298  -31.6345 H   0  0  0  0  0  0  0  0  0  0  0  0
    0.2315   18.4492  -29.8275 H   0  0  0  0  0  0  0  0  0  0  0  0
    0.0888   16.7596  -30.4850 H   0  0  0  0  0  0  0  0  0  0  0  0
    1.7940   16.0250  -29.2480 H   0  0  0  0  0  0  0  0  0  0  0  0
    3.2467   17.9020  -28.0209 H   0  0  0  0  0  0  0  0  0  0  0  0
    3.6893   17.1200  -29.5763 H   0  0  0  0  0  0  0  0  0  0  0  0
    2.8507   18.7085  -29.5763 H   0  0  0  0  0  0  0  0  0  0  0  0
    0.2090   16.3965  -27.6675 H   0  0  0  0  0  0  0  0  0  0  0  0
    1.6869   17.2074  -26.9929 H   0  0  0  0  0  0  0  0  0  0  0  0
    1.9568   19.7300  -28.1204 H   0  0  0  0  0  0  0  0  0  0  0  0
    0.7256   21.9010  -28.0606 H   0  0  0  0  0  0  0  0  0  0  0  0
   -1.7333   21.9344  -27.6317 H   0  0  0  0  0  0  0  0  0  0  0  0
   -2.9640   19.7962  -27.2458 H   0  0  0  0  0  0  0  0  0  0  0  0
   -1.7406   17.6222  -27.2966 H   0  0  0  0  0  0  0  0  0  0  0  0
   -0.5287   16.1071  -35.0332 H   0  0  0  0  0  0  0  0  0  0  0  0
   -2.1943   14.6694  -36.1902 H   0  0  0  0  0  0  0  0  0  0  0  0
   -4.6274   15.0542  -35.8606 H   0  0  0  0  0  0  0  0  0  0  0  0
   -5.4209   16.8427  -34.3291 H   0  0  0  0  0  0  0  0  0  0  0  0
   -5.2433   18.4991  -31.2780 H   0  0  0  0  0  0  0  0  0  0  0  0
   -5.7373   19.4092  -32.7457 H   0  0  0  0  0  0  0  0  0  0  0  0
   -5.7800   17.6134  -32.7457 H   0  0  0  0  0  0  0  0  0  0  0  0
  1  2  1  0
  2  3  1  0
  3  4  1  1
  3  5  1  0
  5  6  2  0
  5  7  1  0
  7  8  1  0
  8  9  1  0
  9 10  2  0
 10 11  1  0
 11 12  2  0
 12 13  1  0
 13 14  1  0
 14 15  2  0
 13 16  1  0
 16 17  1  0
 17 18  2  0
 18 19  1  0
 19 20  1  0
 20 21  1  0
 21 22  1  0
 22 23  1  0
 23 24  1  0
 23 25  1  0
 25 26  1  0
 26 27  2  0
 27 28  1  0
 28 29  2  0
 29 30  1  0
 30 31  2  0
 18 32  1  0
 32 33  2  0
 33 34  1  0
 34 35  2  0
 35 36  1  0
 36 37  2  0
 37 38  1  0
 38 39  1  0
 38 40  2  0
 10  3  1  0
 40 12  1  0
 14  9  1  0
 40 17  1  0
 31 26  1  0
 37 32  1  0
  1 41  1  0
  1 42  1  0
  1 43  1  0
  2 44  1  0
  2 45  1  0
  4 46  1  0
  8 47  1  0
  8 48  1  0
 11 49  1  0
 16 50  1  0
 16 51  1  0
 19 52  1  0
 20 53  1  0
 20 54  1  0
 21 55  1  0
 21 56  1  0
 22 57  1  0
 22 58  1  0
 23 59  1  6
 24 60  1  0
 24 61  1  0
 24 62  1  0
 25 63  1  0
 25 64  1  0
 27 65  1  0
 28 66  1  0
 29 67  1  0
 30 68  1  0
 31 69  1  0
 33 70  1  0
 34 71  1  0
 35 72  1  0
 36 73  1  0
 39 74  1  0
 39 75  1  0
 39 76  1  0
M  CHG  2  23   1  38   1
M  END
>  <UniqueID>  (6) 
5

>  <SMILES>  (6) 
CC[C@]1(O)C(=O)OCc2c1cc1n(c2=O)Cc2c(NCCC[N@@H+](C)Cc3ccccc3)c3ccccc3[n+](C)c2-1

>  <Energy>  (6) 
138.8205738183905

>  <Genealogy>  (6) 
CCC1(O)C(=O)OCc2c1cc1n(c2=O)Cc2c(NCCC[NH+](C)Cc3ccccc3)c3ccccc3[n+](C)c2-1 (protonated)
CC[C@]1(O)C(=O)OCc2c1cc1n(c2=O)Cc2c(NCCC[N@@H+](C)Cc3ccccc3)c3ccccc3[n+](C)c2-1 (chirality)
CC[C@]1(O)C(=O)OCc2c1cc1n(c2=O)Cc2c(NCCC[N@@H+](C)Cc3ccccc3)c3ccccc3[n+](C)c2-1 (3D coordinates assigned)
CC[C@]1(O)C(=O)OCc2c1cc1n(c2=O)Cc2c(NCCC[N@@H+](C)Cc3ccccc3)c3ccccc3[n+](C)c2-1 (nonaromatic ring conformer: 138.8205738183905 kcal/mol)

>  <smiles>  (6) 
CCC1(O)C(=O)OCc2c1cc1n(c2=O)Cc2c(NCCCN(C)Cc3ccccc3)c3ccccc3[n+](C)c2-1

>  <score_type>  (6) 
oracle

>  <origin>  (6) 
adg

>  <m_score__min__energy>  (6) 
-8.9100000000000001

>  <m_primary>  (6) 
energy

$$$$
6:0
     RDKit          3D

 36 38  0  0  0  0  0  0  0  0999 V2000
   -1.7170   23.9360  -27.5390 O   0  0  0  0  0  0  0  0  0  0  0  0
   -1.6020   25.0270  -28.1590 C   0  0  0  0  0  0  0  0  0  0  0  0
   -0.6330   26.0560  -27.6730 C   0  0  0  0  0  0  0  0  0  0  0  0
   -0.6020   26.0570  -26.2140 N   0  0  0  0  0  0  0  0  0  0  0  0
   -1.3540   26.8120  -25.3900 C   0  0  0  0  0  0  0  0  0  0  0  0
   -1.0740   26.4380  -24.0920 C   0  0  0  0  0  0  0  0  0  0  0  0
   -0.1610   25.4480  -24.1180 N   0  0  0  0  0  0  0  0  0  0  0  0
    0.1040   25.2290  -25.4190 C   0  0  0  0  0  0  0  0  0  0  0  0
   -2.3860   25.2960  -29.3270 N   0  0  0  0  0  0  0  0  0  0  0  0
   -3.4410   24.4770  -29.8530 C   0  0  0  0  0  0  0  0  0  0  0  0
   -4.6820   25.0670  -30.1160 C   0  0  0  0  0  0  0  0  0  0  0  0
   -5.7430   24.3010  -30.6080 C   0  0  0  0  0  0  0  0  0  0  0  0
   -5.5830   22.9230  -30.8330 C   0  0  0  0  0  0  0  0  0  0  0  0
   -6.7080   22.1060  -31.3570 C   0  0  0  0  0  0  0  0  0  0  0  0
   -6.4620   20.8870  -32.0160 C   0  0  0  0  0  0  0  0  0  0  0  0
   -7.5230   20.1200  -32.5080 C   0  0  0  0  0  0  0  0  0  0  0  0
   -8.8380   20.5600  -32.3500 C   0  0  0  0  0  0  0  0  0  0  0  0
   -9.0960   21.7680  -31.6970 C   0  0  0  0  0  0  0  0  0  0  0  0
   -8.0390   22.5390  -31.2040 C   0  0  0  0  0  0  0  0  0  0  0  0
   -4.3420   22.3270  -30.5460 C   0  0  0  0  0  0  0  0  0  0  0  0
   -3.2820   23.0950  -30.0530 C   0  0  0  0  0  0  0  0  0  0  0  0
    0.3704   25.8237  -28.0593 H   0  0  0  0  0  0  0  0  0  0  0  0
   -0.9476   27.0478  -28.0299 H   0  0  0  0  0  0  0  0  0  0  0  0
   -2.0670   27.5909  -25.6983 H   0  0  0  0  0  0  0  0  0  0  0  0
   -1.5215   26.8751  -23.1872 H   0  0  0  0  0  0  0  0  0  0  0  0
    0.2450   24.9440  -23.2990 H   0  0  0  0  0  0  0  0  0  0  0  0
    0.8088   24.4691  -25.7875 H   0  0  0  0  0  0  0  0  0  0  0  0
   -4.8241   26.1425  -29.9342 H   0  0  0  0  0  0  0  0  0  0  0  0
   -6.7100   24.7803  -30.8205 H   0  0  0  0  0  0  0  0  0  0  0  0
   -5.4279   20.5350  -32.1450 H   0  0  0  0  0  0  0  0  0  0  0  0
   -7.3206   19.1680  -33.0206 H   0  0  0  0  0  0  0  0  0  0  0  0
   -9.6709   19.9561  -32.7393 H   0  0  0  0  0  0  0  0  0  0  0  0
  -10.1328   22.1131  -31.5705 H   0  0  0  0  0  0  0  0  0  0  0  0
   -8.2487   23.4903  -30.6931 H   0  0  0  0  0  0  0  0  0  0  0  0
   -4.2038   21.2482  -30.7105 H   0  0  0  0  0  0  0  0  0  0  0  0
   -2.3198   22.6152  -29.8208 H   0  0  0  0  0  0  0  0  0  0  0  0
  1  2  2  0
  2  3  1  0
  3  4  1  0
  4  5  1  0
  5  6  2  0
  6  7  1  0
  7  8  2  0
  2  9  1  0
  9 10  1  0
 10 11  2  0
 11 12  1  0
 12 13  2  0
 13 14  1  0
 14 15  2  0
 15 16  1  0
 16 17  2  0
 17 18  1  0
 18 19  2  0
 13 20  1  0
 20 21  2  0
  8  4  1  0
 21 10  1  0
 19 14  1  0
  3 22  1  0
  3 23  1  0
  5 24  1  0
  6 25  1  0
  7 26  1  0
  8 27  1  0
 11 28  1  0
 12 29  1  0
 15 30  1  0
 16 31  1  0
 17 32  1  0
 18 33  1  0
 19 34  1  0
 20 35  1  0
 21 36  1  0
M  CHG  2   7   1   9  -1
M  END
>  <UniqueID>  (7) 
6

>  <SMILES>  (7) 
O=C(Cn1cc[nH+]c1)[N-]c1ccc(-c2ccccc2)cc1

>  <Energy>  (7) 
75.02391679662792

>  <Genealogy>  (7) 
O=C(Cn1cc[nH+]c1)[N-]c1ccc(-c2ccccc2)cc1 (protonated)
O=C(Cn1cc[nH+]c1)[N-]c1ccc(-c2ccccc2)cc1 (3D coordinates assigned)
O=C(Cn1cc[nH+]c1)[N-]c1ccc(-c2ccccc2)cc1 (optimized conformer: 75.02391679662792 kcal/mol)

>  <smiles>  (7) 
O=C(Cn1ccnc1)Nc1ccc(-c2ccccc2)cc1

>  <score_type>  (7) 
oracle

>  <origin>  (7) 
adg

>  <m_score__min__energy>  (7) 
-10.07

>  <m_primary>  (7) 
energy

$$$$
7:0
     RDKit          3D

 65 68  0  0  0  0  0  0  0  0999 V2000
   -6.8370   15.8230  -34.2050 C   0  0  0  0  0  0  0  0  0  0  0  0
   -6.1730   16.9760  -33.5720 N   0  0  0  0  0  0  0  0  0  0  0  0
   -5.3020   16.5000  -32.4830 C   0  0  0  0  0  0  0  0  0  0  0  0
   -5.3700   17.7420  -34.5550 C   0  0  0  0  0  0  0  0  0  0  0  0
   -5.6550   19.2550  -34.4860 C   0  0  0  0  0  0  0  0  0  0  0  0
   -6.5880   19.6200  -33.4050 N   0  0  0  0  0  0  0  0  0  0  0  0
   -5.9710   20.4740  -32.4150 C   0  0  0  0  0  0  0  0  0  0  0  0
   -4.6140   20.4600  -32.0840 C   0  0  0  0  0  0  0  0  0  0  0  0
   -4.4620   21.4660  -31.1990 C   0  0  0  0  0  0  0  0  0  0  0  0
   -3.2700   21.8670  -30.6580 C   0  0  0  0  0  0  0  0  0  0  0  0
   -3.2820   22.9800  -29.7900 C   0  0  0  0  0  0  0  0  0  0  0  0
   -2.0540   23.4940  -29.2460 N   0  0  0  0  0  0  0  0  0  0  0  0
   -1.9270   24.9210  -28.9410 C   0  0  0  0  0  0  0  0  0  0  0  0
   -0.8260   25.1330  -27.8940 C   0  0  0  0  0  0  0  0  0  0  0  0
    0.3770   24.4950  -28.2800 O   0  0  0  0  0  0  0  0  0  0  0  0
    0.1770   23.0920  -28.3290 C   0  0  0  0  0  0  0  0  0  0  0  0
   -0.8180   22.7310  -29.4340 C   0  0  0  0  0  0  0  0  0  0  0  0
   -4.5240   23.6370  -29.5330 C   0  0  0  0  0  0  0  0  0  0  0  0
   -5.7230   23.1950  -30.1470 C   0  0  0  0  0  0  0  0  0  0  0  0
   -5.6500   22.0820  -30.9920 C   0  0  0  0  0  0  0  0  0  0  0  0
   -6.6100   21.4850  -31.7420 N   0  0  0  0  0  0  0  0  0  0  0  0
   -7.9810   21.9710  -31.9390 C   0  0  0  0  0  0  0  0  0  0  0  0
   -8.9940   20.9200  -31.4770 C   0  0  0  0  0  0  0  0  0  0  0  0
   -8.7400   19.6310  -32.1590 N   0  0  0  0  0  0  0  0  0  0  0  0
   -9.8350   19.3010  -33.0880 C   0  0  0  0  0  0  0  0  0  0  0  0
   -8.5660   18.5420  -31.1850 C   0  0  0  0  0  0  0  0  0  0  0  0
   -2.1240   21.1440  -31.0220 O   0  0  0  0  0  0  0  0  0  0  0  0
   -2.1090   20.3200  -32.2120 C   0  0  0  0  0  0  0  0  0  0  0  0
   -3.4580   19.5770  -32.4640 C   0  0  0  0  0  0  0  0  0  0  0  0
   -7.2246   15.1500  -33.4260 H   0  0  0  0  0  0  0  0  0  0  0  0
   -7.6694   16.1773  -34.8308 H   0  0  0  0  0  0  0  0  0  0  0  0
   -6.1128   15.2809  -34.8308 H   0  0  0  0  0  0  0  0  0  0  0  0
   -5.7579   16.7491  -31.5134 H   0  0  0  0  0  0  0  0  0  0  0  0
   -5.1797   15.4096  -32.5613 H   0  0  0  0  0  0  0  0  0  0  0  0
   -4.3182   16.9859  -32.5613 H   0  0  0  0  0  0  0  0  0  0  0  0
   -4.3027   17.5727  -34.3495 H   0  0  0  0  0  0  0  0  0  0  0  0
   -5.6441   17.3921  -35.5612 H   0  0  0  0  0  0  0  0  0  0  0  0
   -4.7042   19.7829  -34.3207 H   0  0  0  0  0  0  0  0  0  0  0  0
   -6.1268   19.5431  -35.4370 H   0  0  0  0  0  0  0  0  0  0  0  0
   -6.9840   18.7540  -32.9740 H   0  0  0  0  0  0  0  0  0  0  0  0
   -7.3910   20.1440  -33.8260 H   0  0  0  0  0  0  0  0  0  0  0  0
   -1.6682   25.4690  -29.8590 H   0  0  0  0  0  0  0  0  0  0  0  0
   -2.8826   25.2937  -28.5435 H   0  0  0  0  0  0  0  0  0  0  0  0
   -0.6403   26.2114  -27.7819 H   0  0  0  0  0  0  0  0  0  0  0  0
   -1.1619   24.6963  -26.9419 H   0  0  0  0  0  0  0  0  0  0  0  0
    1.1379   22.5962  -28.5310 H   0  0  0  0  0  0  0  0  0  0  0  0
   -0.2272   22.7562  -27.3626 H   0  0  0  0  0  0  0  0  0  0  0  0
   -0.3820   22.9748  -30.4140 H   0  0  0  0  0  0  0  0  0  0  0  0
   -1.0410   21.6548  -29.3895 H   0  0  0  0  0  0  0  0  0  0  0  0
   -4.5506   24.4981  -28.8490 H   0  0  0  0  0  0  0  0  0  0  0  0
   -6.6782   23.7095  -29.9653 H   0  0  0  0  0  0  0  0  0  0  0  0
   -8.1253   22.8932  -31.3571 H   0  0  0  0  0  0  0  0  0  0  0  0
   -8.1377   22.1697  -33.0095 H   0  0  0  0  0  0  0  0  0  0  0  0
   -8.9023   20.7801  -30.3898 H   0  0  0  0  0  0  0  0  0  0  0  0
  -10.0083   21.2647  -31.7270 H   0  0  0  0  0  0  0  0  0  0  0  0
  -10.7336   19.0302  -32.5142 H   0  0  0  0  0  0  0  0  0  0  0  0
  -10.0536   20.1732  -33.7217 H   0  0  0  0  0  0  0  0  0  0  0  0
   -9.5353   18.4533  -33.7217 H   0  0  0  0  0  0  0  0  0  0  0  0
   -8.6310   18.9486  -30.1650 H   0  0  0  0  0  0  0  0  0  0  0  0
   -9.3554   17.7899  -31.3309 H   0  0  0  0  0  0  0  0  0  0  0  0
   -7.5816   18.0734  -31.3309 H   0  0  0  0  0  0  0  0  0  0  0  0
   -1.8968   20.9626  -33.0792 H   0  0  0  0  0  0  0  0  0  0  0  0
   -1.3354   19.5516  -32.0671 H   0  0  0  0  0  0  0  0  0  0  0  0
   -3.5354   19.3151  -33.5296 H   0  0  0  0  0  0  0  0  0  0  0  0
   -3.4859   18.6642  -31.8508 H   0  0  0  0  0  0  0  0  0  0  0  0
  1  2  1  0
  2  3  1  0
  2  4  1  0
  4  5  1  0
  5  6  1  0
  6  7  1  0
  7  8  2  0
  8  9  1  0
  9 10  2  0
 10 11  1  0
 11 12  1  0
 12 13  1  0
 13 14  1  0
 14 15  1  0
 15 16  1  0
 16 17  1  0
 11 18  2  0
 18 19  1  0
 19 20  2  0
 20 21  1  0
 21 22  1  0
 22 23  1  0
 23 24  1  0
 24 25  1  0
 24 26  1  0
 10 27  1  0
 27 28  1  0
 28 29  1  0
 21  7  1  0
 29  8  1  0
 20  9  1  0
 17 12  1  0
  1 30  1  0
  1 31  1  0
  1 32  1  0
  3 33  1  0
  3 34  1  0
  3 35  1  0
  4 36  1  0
  4 37  1  0
  5 38  1  0
  5 39  1  0
  6 40  1  0
  6 41  1  0
 13 42  1  0
 13 43  1  0
 14 44  1  0
 14 45  1  0
 16 46  1  0
 16 47  1  0
 17 48  1  0
 17 49  1  0
 18 50  1  0
 19 51  1  0
 22 52  1  0
 22 53  1  0
 23 54  1  0
 23 55  1  0
 25 56  1  0
 25 57  1  0
 25 58  1  0
 26 59  1  0
 26 60  1  0
 26 61  1  0
 28 62  1  0
 28 63  1  0
 29 64  1  0
 29 65  1  0
M  CHG  1   6   1
M  END
>  <UniqueID>  (8) 
7

>  <SMILES>  (8) 
CN(C)CC[NH2+]c1c2c3c(c(N4CCOCC4)ccc3n1CCN(C)C)OCC2

>  <Energy>  (8) 
114.14571206814193

>  <Genealogy>  (8) 
CN(C)CC[NH2+]c1c2c3c(c(N4CCOCC4)ccc3n1CCN(C)C)OCC2 (protonated)
CN(C)CC[NH2+]c1c2c3c(c(N4CCOCC4)ccc3n1CCN(C)C)OCC2 (3D coordinates assigned)
CN(C)CC[NH2+]c1c2c3c(c(N4CCOCC4)ccc3n1CCN(C)C)OCC2 (nonaromatic ring conformer: 114.14571206814193 kcal/mol)

>  <smiles>  (8) 
CN(C)CCNc1c2c3c(c(N4CCOCC4)ccc3n1CCN(C)C)OCC2

>  <score_type>  (8) 
oracle

>  <origin>  (8) 
adg

>  <m_score__min__energy>  (8) 
-7.6200000000000001

>  <m_primary>  (8) 
energy

$$$$
8:0
     RDKit          3D

 47 49  0  0  0  0  0  0  0  0999 V2000
   -2.2150   21.5180  -31.3180 C   0  0  0  0  0  0  0  0  0  0  0  0
   -2.6500   20.9350  -32.5970 N   0  0  0  0  0  0  0  0  0  0  0  0
   -1.4940   20.5780  -33.4320 C   0  0  0  0  0  0  0  0  0  0  0  0
   -3.6330   21.7830  -33.3110 C   0  0  0  0  0  0  0  0  0  0  0  0
   -5.0340   21.7400  -32.7220 C   0  0  0  0  0  0  0  0  0  0  0  0
   -5.8900   20.6870  -33.0600 C   0  0  0  0  0  0  0  0  0  0  0  0
   -7.1810   20.6000  -32.5260 C   0  0  0  0  0  0  0  0  0  0  0  0
   -8.0610   19.4450  -32.9490 C   0  0  0  0  0  0  0  0  0  0  0  0
   -7.2910   18.1840  -32.9700 N   0  0  0  0  0  0  0  0  0  0  0  0
   -6.4690   18.0380  -31.7420 C   0  0  0  0  0  0  0  0  0  0  0  0
   -5.4150   16.9150  -31.8580 C   0  0  0  0  0  0  0  0  0  0  0  0
   -5.7420   15.9540  -33.0020 C   0  0  0  0  0  0  0  0  0  0  0  0
   -5.8420   16.7070  -34.3370 C   0  0  0  0  0  0  0  0  0  0  0  0
   -6.4410   18.1180  -34.1750 C   0  0  0  0  0  0  0  0  0  0  0  0
   -7.6510   21.6020  -31.6510 C   0  0  0  0  0  0  0  0  0  0  0  0
   -8.9570   21.4880  -31.1600 O   0  0  0  0  0  0  0  0  0  0  0  0
   -6.8000   22.6830  -31.3060 C   0  0  0  0  0  0  0  0  0  0  0  0
   -7.1910   23.7200  -30.4380 C   0  0  0  0  0  0  0  0  0  0  0  0
   -6.3080   24.7570  -30.1480 C   0  0  0  0  0  0  0  0  0  0  0  0
   -5.0430   24.7490  -30.7290 C   0  0  0  0  0  0  0  0  0  0  0  0
   -4.2300   25.6780  -30.4820 O   0  0  0  0  0  0  0  0  0  0  0  0
   -4.6870   23.7640  -31.5440 O   0  0  0  0  0  0  0  0  0  0  0  0
   -5.4910   22.7470  -31.8520 C   0  0  0  0  0  0  0  0  0  0  0  0
   -2.6457   20.9407  -30.4866 H   0  0  0  0  0  0  0  0  0  0  0  0
   -1.1172   21.4874  -31.2556 H   0  0  0  0  0  0  0  0  0  0  0  0
   -2.5569   22.5617  -31.2556 H   0  0  0  0  0  0  0  0  0  0  0  0
   -0.6428   20.3151  -32.7867 H   0  0  0  0  0  0  0  0  0  0  0  0
   -1.7521   19.7177  -34.0670 H   0  0  0  0  0  0  0  0  0  0  0  0
   -1.2221   21.4340  -34.0670 H   0  0  0  0  0  0  0  0  0  0  0  0
   -3.2776   22.8236  -33.2812 H   0  0  0  0  0  0  0  0  0  0  0  0
   -3.7074   21.3885  -34.3351 H   0  0  0  0  0  0  0  0  0  0  0  0
   -5.5421   19.9122  -33.7590 H   0  0  0  0  0  0  0  0  0  0  0  0
   -8.8952   19.3472  -32.2387 H   0  0  0  0  0  0  0  0  0  0  0  0
   -8.4437   19.6433  -33.9610 H   0  0  0  0  0  0  0  0  0  0  0  0
   -5.9500   18.9889  -31.5512 H   0  0  0  0  0  0  0  0  0  0  0  0
   -7.1479   17.7716  -30.9185 H   0  0  0  0  0  0  0  0  0  0  0  0
   -4.4295   17.3676  -32.0423 H   0  0  0  0  0  0  0  0  0  0  0  0
   -5.4146   16.3441  -30.9177 H   0  0  0  0  0  0  0  0  0  0  0  0
   -4.9479   15.1963  -33.0743 H   0  0  0  0  0  0  0  0  0  0  0  0
   -6.7106   15.4759  -32.7941 H   0  0  0  0  0  0  0  0  0  0  0  0
   -4.8335   16.7990  -34.7666 H   0  0  0  0  0  0  0  0  0  0  0  0
   -6.5110   16.1333  -34.9952 H   0  0  0  0  0  0  0  0  0  0  0  0
   -5.6246   18.8493  -34.0825 H   0  0  0  0  0  0  0  0  0  0  0  0
   -7.0568   18.3464  -35.0574 H   0  0  0  0  0  0  0  0  0  0  0  0
   -9.3160   20.6930  -30.6520 H   0  0  0  0  0  0  0  0  0  0  0  0
   -8.1949   23.7112  -29.9884 H   0  0  0  0  0  0  0  0  0  0  0  0
   -6.6057   25.5704  -29.4699 H   0  0  0  0  0  0  0  0  0  0  0  0
  1  2  1  0
  2  3  1  0
  2  4  1  0
  4  5  1  0
  5  6  2  0
  6  7  1  0
  7  8  1  0
  8  9  1  0
  9 10  1  0
 10 11  1  0
 11 12  1  0
 12 13  1  0
 13 14  1  0
  7 15  2  0
 15 16  1  0
 15 17  1  0
 17 18  1  0
 18 19  2  0
 19 20  1  0
 20 21  2  0
 20 22  1  0
 22 23  1  0
 23  5  1  0
 14  9  1  0
 23 17  2  0
  1 24  1  0
  1 25  1  0
  1 26  1  0
  3 27  1  0
  3 28  1  0
  3 29  1  0
  4 30  1  0
  4 31  1  0
  6 32  1  0
  8 33  1  0
  8 34  1  0
 10 35  1  0
 10 36  1  0
 11 37  1  0
 11 38  1  0
 12 39  1  0
 12 40  1  0
 13 41  1  0
 13 42  1  0
 14 43  1  0
 14 44  1  0
 16 45  1  0
 18 46  1  0
 19 47  1  0
M  END
>  <UniqueID>  (9) 
8

>  <SMILES>  (9) 
CN(C)Cc1cc(CN2CCCCC2)c(O)c2ccc(=O)oc12

>  <Energy>  (9) 
62.424786539396045

>  <Genealogy>  (9) 
CN(C)Cc1cc(CN2CCCCC2)c(O)c2ccc(=O)oc12 (3D coordinates assigned)
CN(C)Cc1cc(CN2CCCCC2)c(O)c2ccc(=O)oc12 (nonaromatic ring conformer: 62.424786539396045 kcal/mol)

>  <smiles>  (9) 
CN(C)Cc1cc(CN2CCCCC2)c(O)c2ccc(=O)oc12

>  <score_type>  (9) 
oracle

>  <origin>  (9) 
adg

>  <m_score__min__energy>  (9) 
-8.2200000000000006

>  <m_primary>  (9) 
energy

$$$$
9:0
     RDKit          3D

 60 62  0  0  0  0  0  0  0  0999 V2000
   -2.2780   24.3280  -28.9480 C   0  0  0  0  0  0  0  0  0  0  0  0
   -3.1330   24.9250  -29.9180 O   0  0  0  0  0  0  0  0  0  0  0  0
   -4.3470   24.3720  -30.3520 C   0  0  0  0  0  0  0  0  0  0  0  0
   -5.5320   25.0600  -30.0670 C   0  0  0  0  0  0  0  0  0  0  0  0
   -6.7660   24.5500  -30.4770 C   0  0  0  0  0  0  0  0  0  0  0  0
   -6.8310   23.3440  -31.1920 C   0  0  0  0  0  0  0  0  0  0  0  0
   -8.1640   22.7720  -31.5980 C   0  0  0  0  0  0  0  0  0  0  0  0
   -8.7350   21.8960  -30.4770 C   0  0  0  0  0  0  0  0  0  0  0  0
   -9.0400   20.4800  -30.9850 C   0  0  0  0  0  0  0  0  0  0  0  0
   -9.0970   20.4070  -32.5260 C   0  0  0  0  0  0  0  0  0  0  0  0
   -8.0960   19.4680  -33.0800 N   0  0  0  0  0  0  0  0  0  0  0  0
   -6.8330   20.1570  -33.3890 C   0  0  0  0  0  0  0  0  0  0  0  0
   -7.8980   18.2190  -32.3000 C   0  0  0  0  0  0  0  0  0  0  0  0
   -6.7700   18.2610  -31.2540 C   0  0  0  0  0  0  0  0  0  0  0  0
   -5.4980   18.2940  -31.8920 O   0  0  0  0  0  0  0  0  0  0  0  0
   -5.0530   17.3670  -32.8470 C   0  0  0  0  0  0  0  0  0  0  0  0
   -5.7650   16.1800  -33.1160 C   0  0  0  0  0  0  0  0  0  0  0  0
   -5.2800   15.2620  -34.0500 C   0  0  0  0  0  0  0  0  0  0  0  0
   -4.0850   15.5130  -34.7230 C   0  0  0  0  0  0  0  0  0  0  0  0
   -3.3710   16.6850  -34.4690 C   0  0  0  0  0  0  0  0  0  0  0  0
   -3.8500   17.6240  -33.5400 C   0  0  0  0  0  0  0  0  0  0  0  0
   -3.0740   18.8610  -33.2840 C   0  0  0  0  0  0  0  0  0  0  0  0
   -1.7300   18.7920  -32.8760 C   0  0  0  0  0  0  0  0  0  0  0  0
   -1.0000   19.9620  -32.6470 C   0  0  0  0  0  0  0  0  0  0  0  0
   -1.6060   21.2100  -32.8190 C   0  0  0  0  0  0  0  0  0  0  0  0
   -2.9440   21.2890  -33.2130 C   0  0  0  0  0  0  0  0  0  0  0  0
   -3.6770   20.1210  -33.4420 C   0  0  0  0  0  0  0  0  0  0  0  0
   -5.6470   22.6440  -31.4690 C   0  0  0  0  0  0  0  0  0  0  0  0
   -4.4120   23.1550  -31.0570 C   0  0  0  0  0  0  0  0  0  0  0  0
   -2.6370   24.5787  -27.9389 H   0  0  0  0  0  0  0  0  0  0  0  0
   -2.2825   23.2357  -29.0779 H   0  0  0  0  0  0  0  0  0  0  0  0
   -1.2541   24.7085  -29.0779 H   0  0  0  0  0  0  0  0  0  0  0  0
   -5.4912   26.0107  -29.5153 H   0  0  0  0  0  0  0  0  0  0  0  0
   -7.6908   25.0958  -30.2385 H   0  0  0  0  0  0  0  0  0  0  0  0
   -8.8632   23.5953  -31.8061 H   0  0  0  0  0  0  0  0  0  0  0  0
   -8.0274   22.1546  -32.4981 H   0  0  0  0  0  0  0  0  0  0  0  0
   -8.0013   21.8345  -29.6597 H   0  0  0  0  0  0  0  0  0  0  0  0
   -9.6719   22.3495  -30.1213 H   0  0  0  0  0  0  0  0  0  0  0  0
   -8.2529   19.7995  -30.6280 H   0  0  0  0  0  0  0  0  0  0  0  0
  -10.0286   20.1909  -30.5988 H   0  0  0  0  0  0  0  0  0  0  0  0
  -10.1007   20.0730  -32.8277 H   0  0  0  0  0  0  0  0  0  0  0  0
   -8.8728   21.4095  -32.9195 H   0  0  0  0  0  0  0  0  0  0  0  0
   -6.3271   20.4330  -32.4520 H   0  0  0  0  0  0  0  0  0  0  0  0
   -6.1838   19.4881  -33.9730 H   0  0  0  0  0  0  0  0  0  0  0  0
   -7.0440   21.0650  -33.9730 H   0  0  0  0  0  0  0  0  0  0  0  0
   -8.8384   17.9950  -31.7751 H   0  0  0  0  0  0  0  0  0  0  0  0
   -7.6031   17.4512  -33.0304 H   0  0  0  0  0  0  0  0  0  0  0  0
   -6.8864   19.1610  -30.6324 H   0  0  0  0  0  0  0  0  0  0  0  0
   -6.8308   17.3576  -30.6294 H   0  0  0  0  0  0  0  0  0  0  0  0
   -6.7077   15.9759  -32.5872 H   0  0  0  0  0  0  0  0  0  0  0  0
   -5.8420   14.3389  -34.2552 H   0  0  0  0  0  0  0  0  0  0  0  0
   -3.7043   14.7860  -35.4555 H   0  0  0  0  0  0  0  0  0  0  0  0
   -2.4265   16.8749  -34.9999 H   0  0  0  0  0  0  0  0  0  0  0  0
   -1.2505   17.8119  -32.7363 H   0  0  0  0  0  0  0  0  0  0  0  0
    0.0519   19.9006  -32.3313 H   0  0  0  0  0  0  0  0  0  0  0  0
   -1.0291   22.1301  -32.6441 H   0  0  0  0  0  0  0  0  0  0  0  0
   -3.4213   22.2715  -33.3432 H   0  0  0  0  0  0  0  0  0  0  0  0
   -4.7316   20.1882  -33.7476 H   0  0  0  0  0  0  0  0  0  0  0  0
   -5.6903   21.6888  -32.0128 H   0  0  0  0  0  0  0  0  0  0  0  0
   -3.4877   22.6038  -31.2847 H   0  0  0  0  0  0  0  0  0  0  0  0
  1  2  1  0
  2  3  1  0
  3  4  2  0
  4  5  1  0
  5  6  2  0
  6  7  1  0
  7  8  1  0
  8  9  1  0
  9 10  1  0
 10 11  1  0
 11 12  1  0
 11 13  1  0
 13 14  1  0
 14 15  1  0
 15 16  1  0
 16 17  2  0
 17 18  1  0
 18 19  2  0
 19 20  1  0
 20 21  2  0
 21 22  1  0
 22 23  2  0
 23 24  1  0
 24 25  2  0
 25 26  1  0
 26 27  2  0
  6 28  1  0
 28 29  2  0
 29  3  1  0
 21 16  1  0
 27 22  1  0
  1 30  1  0
  1 31  1  0
  1 32  1  0
  4 33  1  0
  5 34  1  0
  7 35  1  0
  7 36  1  0
  8 37  1  0
  8 38  1  0
  9 39  1  0
  9 40  1  0
 10 41  1  0
 10 42  1  0
 12 43  1  0
 12 44  1  0
 12 45  1  0
 13 46  1  0
 13 47  1  0
 14 48  1  0
 14 49  1  0
 17 50  1  0
 18 51  1  0
 19 52  1  0
 20 53  1  0
 23 54  1  0
 24 55  1  0
 25 56  1  0
 26 57  1  0
 27 58  1  0
 28 59  1  0
 29 60  1  0
M  END
>  <UniqueID>  (10) 
9

>  <SMILES>  (10) 
COc1ccc(CCCCN(C)CCOc2ccccc2-c2ccccc2)cc1

>  <Energy>  (10) 
65.68962500877092

>  <Genealogy>  (10) 
COc1ccc(CCCCN(C)CCOc2ccccc2-c2ccccc2)cc1 (3D coordinates assigned)
COc1ccc(CCCCN(C)CCOc2ccccc2-c2ccccc2)cc1 (optimized conformer: 65.68962500877092 kcal/mol)

>  <smiles>  (10) 
COc1ccc(CCCCN(C)CCOc2ccccc2-c2ccccc2)cc1

>  <score_type>  (10) 
oracle

>  <origin>  (10) 
adg

>  <m_score__min__energy>  (10) 
-9.6699999999999999

>  <m_primary>  (10) 
energy

$$$$
10:0
     RDKit          3D

 60 61  0  0  0  0  0  0  0  0999 V2000
   -6.1170   17.0500  -31.4150 C   0  0  0  0  0  0  0  0  0  0  0  0
   -6.2650   18.5770  -31.5090 C   0  0  0  0  0  0  0  0  0  0  0  0
   -6.4450   19.0860  -32.8940 N   0  0  0  0  0  0  0  0  0  0  0  0
   -7.6360   19.9710  -32.9850 C   0  0  0  0  0  0  0  0  0  0  0  0
   -8.7270   19.6050  -31.9720 C   0  0  0  0  0  0  0  0  0  0  0  0
   -6.4770   17.9720  -33.8890 C   0  0  0  0  0  0  0  0  0  0  0  0
   -5.2140   17.9160  -34.7620 C   0  0  0  0  0  0  0  0  0  0  0  0
   -4.3390   18.9650  -34.3990 O   0  0  0  0  0  0  0  0  0  0  0  0
   -3.0440   18.4630  -34.1180 C   0  0  0  0  0  0  0  0  0  0  0  0
   -2.6100   18.8810  -32.7120 C   0  0  0  0  0  0  0  0  0  0  0  0
   -1.8670   20.1620  -32.7660 N   0  0  0  0  0  0  0  0  0  0  0  0
   -1.6660   20.7650  -31.4270 C   0  0  0  0  0  0  0  0  0  0  0  0
   -2.8340   21.6810  -30.9980 C   0  0  0  0  0  0  0  0  0  0  0  0
   -4.0370   21.3630  -31.7890 N   0  0  0  0  0  0  0  0  0  0  0  0
   -5.3130   21.9080  -31.2620 C   0  0  0  0  0  0  0  0  0  0  0  0
   -5.0700   22.6760  -29.9300 C   0  0  0  0  0  0  0  0  0  0  0  0
   -5.3820   24.1750  -30.0350 C   0  0  0  0  0  0  0  0  0  0  0  0
   -6.8220   24.4290  -30.5210 C   0  0  0  0  0  0  0  0  0  0  0  0
   -7.2960   23.4400  -31.6050 C   0  0  0  0  0  0  0  0  0  0  0  0
   -6.1230   22.7360  -32.2960 C   0  0  0  0  0  0  0  0  0  0  0  0
   -3.8260   21.6650  -33.2190 C   0  0  0  0  0  0  0  0  0  0  0  0
   -2.4630   21.1300  -33.7090 C   0  0  0  0  0  0  0  0  0  0  0  0
   -6.0878   16.7489  -30.3574 H   0  0  0  0  0  0  0  0  0  0  0  0
   -6.9726   16.5675  -31.9102 H   0  0  0  0  0  0  0  0  0  0  0  0
   -5.1847   16.7408  -31.9102 H   0  0  0  0  0  0  0  0  0  0  0  0
   -7.1409   18.8763  -30.9146 H   0  0  0  0  0  0  0  0  0  0  0  0
   -5.3269   19.0101  -31.1317 H   0  0  0  0  0  0  0  0  0  0  0  0
   -5.6030   19.6850  -33.0690 H   0  0  0  0  0  0  0  0  0  0  0  0
   -7.3184   21.0078  -32.8002 H   0  0  0  0  0  0  0  0  0  0  0  0
   -8.0636   19.8484  -33.9910 H   0  0  0  0  0  0  0  0  0  0  0  0
   -8.3383   19.7354  -30.9513 H   0  0  0  0  0  0  0  0  0  0  0  0
   -9.5984   20.2600  -32.1189 H   0  0  0  0  0  0  0  0  0  0  0  0
   -9.0271   18.5570  -32.1189 H   0  0  0  0  0  0  0  0  0  0  0  0
   -6.5720   17.0195  -33.3470 H   0  0  0  0  0  0  0  0  0  0  0  0
   -7.3331   18.1492  -34.5566 H   0  0  0  0  0  0  0  0  0  0  0  0
   -4.7089   16.9502  -34.6134 H   0  0  0  0  0  0  0  0  0  0  0  0
   -5.4961   18.0255  -35.8196 H   0  0  0  0  0  0  0  0  0  0  0  0
   -3.0578   17.3650  -34.1828 H   0  0  0  0  0  0  0  0  0  0  0  0
   -2.3330   18.8731  -34.8503 H   0  0  0  0  0  0  0  0  0  0  0  0
   -3.5006   19.0038  -32.0782 H   0  0  0  0  0  0  0  0  0  0  0  0
   -1.9550   18.1033  -32.2922 H   0  0  0  0  0  0  0  0  0  0  0  0
   -1.5657   19.9554  -30.6891 H   0  0  0  0  0  0  0  0  0  0  0  0
   -0.7604   21.3873  -31.4780 H   0  0  0  0  0  0  0  0  0  0  0  0
   -3.0474   21.5243  -29.9303 H   0  0  0  0  0  0  0  0  0  0  0  0
   -2.5537   22.7306  -31.1707 H   0  0  0  0  0  0  0  0  0  0  0  0
   -5.9597   21.0449  -31.0456 H   0  0  0  0  0  0  0  0  0  0  0  0
   -5.7118   22.2383  -29.1512 H   0  0  0  0  0  0  0  0  0  0  0  0
   -4.0020   22.5792  -29.6852 H   0  0  0  0  0  0  0  0  0  0  0  0
   -5.2547   24.6351  -29.0440 H   0  0  0  0  0  0  0  0  0  0  0  0
   -4.6915   24.6166  -30.7686 H   0  0  0  0  0  0  0  0  0  0  0  0
   -7.4989   24.3480  -29.6577 H   0  0  0  0  0  0  0  0  0  0  0  0
   -6.8355   25.4315  -30.9737 H   0  0  0  0  0  0  0  0  0  0  0  0
   -7.9387   22.6806  -31.1357 H   0  0  0  0  0  0  0  0  0  0  0  0
   -7.8450   24.0114  -32.3680 H   0  0  0  0  0  0  0  0  0  0  0  0
   -6.5105   22.0645  -33.0764 H   0  0  0  0  0  0  0  0  0  0  0  0
   -5.4640   23.4928  -32.7465 H   0  0  0  0  0  0  0  0  0  0  0  0
   -4.6281   21.1948  -33.8069 H   0  0  0  0  0  0  0  0  0  0  0  0
   -3.8380   22.7572  -33.3491 H   0  0  0  0  0  0  0  0  0  0  0  0
   -2.6064   20.6345  -34.6805 H   0  0  0  0  0  0  0  0  0  0  0  0
   -1.7763   21.9854  -33.7908 H   0  0  0  0  0  0  0  0  0  0  0  0
  1  2  1  0
  2  3  1  0
  3  4  1  0
  4  5  1  0
  3  6  1  0
  6  7  1  0
  7  8  1  0
  8  9  1  0
  9 10  1  0
 10 11  1  0
 11 12  1  0
 12 13  1  0
 13 14  1  0
 14 15  1  0
 15 16  1  0
 16 17  1  0
 17 18  1  0
 18 19  1  0
 19 20  1  0
 14 21  1  0
 21 22  1  0
 22 11  1  0
 20 15  1  0
  1 23  1  0
  1 24  1  0
  1 25  1  0
  2 26  1  0
  2 27  1  0
  3 28  1  0
  4 29  1  0
  4 30  1  0
  5 31  1  0
  5 32  1  0
  5 33  1  0
  6 34  1  0
  6 35  1  0
  7 36  1  0
  7 37  1  0
  9 38  1  0
  9 39  1  0
 10 40  1  0
 10 41  1  0
 12 42  1  0
 12 43  1  0
 13 44  1  0
 13 45  1  0
 15 46  1  0
 16 47  1  0
 16 48  1  0
 17 49  1  0
 17 50  1  0
 18 51  1  0
 18 52  1  0
 19 53  1  0
 19 54  1  0
 20 55  1  0
 20 56  1  0
 21 57  1  0
 21 58  1  0
 22 59  1  0
 22 60  1  0
M  CHG  1   3   1
M  END
>  <UniqueID>  (11) 
10

>  <SMILES>  (11) 
CC[NH+](CC)CCOCCN1CCN(C2CCCCC2)CC1

>  <Energy>  (11) 
79.27900678212919

>  <Genealogy>  (11) 
CC[NH+](CC)CCOCCN1CCN(C2CCCCC2)CC1 (protonated)
CC[NH+](CC)CCOCCN1CCN(C2CCCCC2)CC1 (3D coordinates assigned)
CC[NH+](CC)CCOCCN1CCN(C2CCCCC2)CC1 (nonaromatic ring conformer: 79.27900678212919 kcal/mol)

>  <smiles>  (11) 
CCN(CC)CCOCCN1CCN(C2CCCCC2)CC1

>  <score_type>  (11) 
oracle

>  <origin>  (11) 
adg

>  <m_score__min__energy>  (11) 
-6.2999999999999998

>  <m_primary>  (11) 
energy

$$$$
11:0
     RDKit          3D

 55 58  0  0  0  0  0  0  0  0999 V2000
   -3.8420   23.3370  -28.5170 C   0  0  0  0  0  0  0  0  0  0  0  0
   -3.7350   24.5310  -29.4610 C   0  0  0  0  0  0  0  0  0  0  0  0
   -4.1050   24.1310  -30.8380 N   0  0  0  0  0  0  0  0  0  0  0  0
   -5.4470   24.6430  -31.1990 C   0  0  0  0  0  0  0  0  0  0  0  0
   -6.0900   25.3370  -30.0000 C   0  0  0  0  0  0  0  0  0  0  0  0
   -4.0340   22.6600  -31.0040 C   0  0  0  0  0  0  0  0  0  0  0  0
   -3.5280   22.3120  -32.4070 C   0  0  0  0  0  0  0  0  0  0  0  0
   -4.5360   21.5660  -33.1600 N   0  0  0  0  0  0  0  0  0  0  0  0
   -4.7160   20.1550  -32.9570 C   0  0  0  0  0  0  0  0  0  0  0  0
   -3.6720   19.2840  -33.3220 C   0  0  0  0  0  0  0  0  0  0  0  0
   -2.3940   19.7900  -33.6460 C   0  0  0  0  0  0  0  0  0  0  0  0
   -1.3690   18.9360  -34.0450 C   0  0  0  0  0  0  0  0  0  0  0  0
   -1.6010   17.5700  -34.1440 C   0  0  0  0  0  0  0  0  0  0  0  0
   -0.6080   16.7450  -34.5630 F   0  0  0  0  0  0  0  0  0  0  0  0
   -2.8540   17.0480  -33.8270 C   0  0  0  0  0  0  0  0  0  0  0  0
   -3.9090   17.8880  -33.3840 C   0  0  0  0  0  0  0  0  0  0  0  0
   -5.1550   17.3830  -33.0690 N   0  0  0  0  0  0  0  0  0  0  0  0
   -5.3470   15.9220  -32.9330 C   0  0  0  0  0  0  0  0  0  0  0  0
   -6.2150   18.2410  -32.8460 C   0  0  0  0  0  0  0  0  0  0  0  0
   -7.5500   17.7760  -32.8910 C   0  0  0  0  0  0  0  0  0  0  0  0
   -8.6170   18.6170  -32.6060 C   0  0  0  0  0  0  0  0  0  0  0  0
   -8.3910   19.9220  -32.1780 C   0  0  0  0  0  0  0  0  0  0  0  0
   -9.4770   20.7200  -31.7820 C   0  0  0  0  0  0  0  0  0  0  0  0
   -9.2620   21.9930  -31.2590 C   0  0  0  0  0  0  0  0  0  0  0  0
   -7.9620   22.4630  -31.0930 C   0  0  0  0  0  0  0  0  0  0  0  0
   -6.8740   21.6870  -31.4960 C   0  0  0  0  0  0  0  0  0  0  0  0
   -7.0660   20.4280  -32.1170 C   0  0  0  0  0  0  0  0  0  0  0  0
   -5.9870   19.6270  -32.6150 C   0  0  0  0  0  0  0  0  0  0  0  0
   -3.8104   23.6891  -27.4754 H   0  0  0  0  0  0  0  0  0  0  0  0
   -4.7909   22.8107  -28.6975 H   0  0  0  0  0  0  0  0  0  0  0  0
   -3.0018   22.6504  -28.6975 H   0  0  0  0  0  0  0  0  0  0  0  0
   -4.4139   25.3261  -29.1191 H   0  0  0  0  0  0  0  0  0  0  0  0
   -2.6974   24.8961  -29.4606 H   0  0  0  0  0  0  0  0  0  0  0  0
   -5.3506   25.3621  -32.0258 H   0  0  0  0  0  0  0  0  0  0  0  0
   -6.0814   23.7984  -31.5060 H   0  0  0  0  0  0  0  0  0  0  0  0
   -5.6910   24.9064  -29.0697 H   0  0  0  0  0  0  0  0  0  0  0  0
   -5.8622   26.4126  -30.0334 H   0  0  0  0  0  0  0  0  0  0  0  0
   -7.1799   25.1918  -30.0334 H   0  0  0  0  0  0  0  0  0  0  0  0
   -3.3452   22.2423  -30.2549 H   0  0  0  0  0  0  0  0  0  0  0  0
   -5.0388   22.2336  -30.8679 H   0  0  0  0  0  0  0  0  0  0  0  0
   -3.2929   23.2421  -32.9452 H   0  0  0  0  0  0  0  0  0  0  0  0
   -2.6298   21.6847  -32.3090 H   0  0  0  0  0  0  0  0  0  0  0  0
   -5.3330   22.1050  -33.5710 H   0  0  0  0  0  0  0  0  0  0  0  0
   -2.2059   20.8719  -33.5824 H   0  0  0  0  0  0  0  0  0  0  0  0
   -0.3750   19.3433  -34.2819 H   0  0  0  0  0  0  0  0  0  0  0  0
   -3.0283   15.9660  -33.9218 H   0  0  0  0  0  0  0  0  0  0  0  0
   -5.3822   15.6545  -31.8666 H   0  0  0  0  0  0  0  0  0  0  0  0
   -6.2913   15.6298  -33.4157 H   0  0  0  0  0  0  0  0  0  0  0  0
   -4.5103   15.3957  -33.4157 H   0  0  0  0  0  0  0  0  0  0  0  0
   -7.7467   16.7270  -33.1572 H   0  0  0  0  0  0  0  0  0  0  0  0
   -9.6477   18.2497  -32.7191 H   0  0  0  0  0  0  0  0  0  0  0  0
  -10.5031   20.3375  -31.8855 H   0  0  0  0  0  0  0  0  0  0  0  0
  -10.1171   22.6253  -30.9779 H   0  0  0  0  0  0  0  0  0  0  0  0
   -7.7913   23.4515  -30.6417 H   0  0  0  0  0  0  0  0  0  0  0  0
   -5.8522   22.0585  -31.3290 H   0  0  0  0  0  0  0  0  0  0  0  0
  1  2  1  0
  2  3  1  0
  3  4  1  0
  4  5  1  0
  3  6  1  0
  6  7  1  0
  7  8  1  0
  8  9  1  0
  9 10  2  0
 10 11  1  0
 11 12  2  0
 12 13  1  0
 13 14  1  0
 13 15  2  0
 15 16  1  0
 16 17  2  0
 17 18  1  0
 17 19  1  0
 19 20  2  0
 20 21  1  0
 21 22  2  0
 22 23  1  0
 23 24  2  0
 24 25  1  0
 25 26  2  0
 26 27  1  0
 27 28  2  0
 28  9  1  0
 16 10  1  0
 28 19  1  0
 27 22  1  0
  1 29  1  0
  1 30  1  0
  1 31  1  0
  2 32  1  0
  2 33  1  0
  4 34  1  0
  4 35  1  0
  5 36  1  0
  5 37  1  0
  5 38  1  0
  6 39  1  0
  6 40  1  0
  7 41  1  0
  7 42  1  0
  8 43  1  0
 11 44  1  0
 12 45  1  0
 15 46  1  0
 18 47  1  0
 18 48  1  0
 18 49  1  0
 20 50  1  0
 21 51  1  0
 23 52  1  0
 24 53  1  0
 25 54  1  0
 26 55  1  0
M  CHG  1  17   1
M  END
>  <UniqueID>  (12) 
11

>  <SMILES>  (12) 
CCN(CC)CCNc1c2ccc(F)cc2[n+](C)c2ccc3ccccc3c12

>  <Energy>  (12) 
96.39121805086778

>  <Genealogy>  (12) 
CCN(CC)CCNc1c2ccc(F)cc2[n+](C)c2ccc3ccccc3c12 (3D coordinates assigned)
CCN(CC)CCNc1c2ccc(F)cc2[n+](C)c2ccc3ccccc3c12 (optimized conformer: 96.39121805086778 kcal/mol)

>  <smiles>  (12) 
CCN(CC)CCNc1c2ccc(F)cc2[n+](C)c2ccc3ccccc3c12

>  <score_type>  (12) 
oracle

>  <origin>  (12) 
adg

>  <m_score__min__energy>  (12) 
-9.2699999999999996

>  <m_primary>  (12) 
energy

$$$$
12:0
     RDKit          3D

 59 62  0  0  0  0  0  0  0  0999 V2000
   -4.5890   12.5430  -31.2610 C   0  0  0  0  0  0  0  0  0  0  0  0
   -3.7710   12.1510  -32.4880 C   0  0  0  0  0  0  0  0  0  0  0  0
   -2.9280   13.2260  -32.9020 O   0  0  0  0  0  0  0  0  0  0  0  0
   -3.3150   14.5710  -33.0360 C   0  0  0  0  0  0  0  0  0  0  0  0
   -2.3190   15.5410  -33.0120 C   0  0  0  0  0  0  0  0  0  0  0  0
   -2.6380   16.8880  -33.1410 C   0  0  0  0  0  0  0  0  0  0  0  0
   -3.9690   17.3120  -33.3140 C   0  0  0  0  0  0  0  0  0  0  0  0
   -5.0110   16.3320  -33.3120 C   0  0  0  0  0  0  0  0  0  0  0  0
   -4.6540   14.9700  -33.1790 C   0  0  0  0  0  0  0  0  0  0  0  0
   -6.4710   16.6300  -33.4470 C   0  0  0  0  0  0  0  0  0  0  0  0
   -7.2330   15.7360  -33.9060 O   0  0  0  0  0  0  0  0  0  0  0  0
   -7.1000   17.8930  -33.0090 C   0  0  0  0  0  0  0  0  0  0  0  0
   -8.2550   17.8360  -32.2120 C   0  0  0  0  0  0  0  0  0  0  0  0
   -8.8950   19.0060  -31.8030 C   0  0  0  0  0  0  0  0  0  0  0  0
   -8.4030   20.2600  -32.1990 C   0  0  0  0  0  0  0  0  0  0  0  0
   -9.0300   21.4710  -31.7310 N   0  0  0  0  0  0  0  0  0  0  0  0
   -8.0160   22.4290  -31.3680 C   0  0  0  0  0  0  0  0  0  0  0  0
   -7.4830   23.3010  -32.3340 C   0  0  0  0  0  0  0  0  0  0  0  0
   -6.4640   24.1950  -31.9940 C   0  0  0  0  0  0  0  0  0  0  0  0
   -5.9520   24.2260  -30.6870 C   0  0  0  0  0  0  0  0  0  0  0  0
   -4.8380   25.1840  -30.3230 C   0  0  0  0  0  0  0  0  0  0  0  0
   -3.4860   24.5820  -30.3810 N   0  0  0  0  0  0  0  0  0  0  0  0
   -2.8290   24.5320  -29.0650 C   0  0  0  0  0  0  0  0  0  0  0  0
   -3.4820   23.2560  -31.0200 C   0  0  0  0  0  0  0  0  0  0  0  0
   -6.4880   23.3590  -29.7220 C   0  0  0  0  0  0  0  0  0  0  0  0
   -7.5040   22.4640  -30.0600 C   0  0  0  0  0  0  0  0  0  0  0  0
   -7.2570   20.3190  -33.0080 C   0  0  0  0  0  0  0  0  0  0  0  0
   -6.6160   19.1430  -33.4310 C   0  0  0  0  0  0  0  0  0  0  0  0
   -5.3810   19.2220  -34.2740 C   0  0  0  0  0  0  0  0  0  0  0  0
   -4.1740   18.8110  -33.4350 C   0  0  0  0  0  0  0  0  0  0  0  0
   -4.0335   12.2768  -30.3496 H   0  0  0  0  0  0  0  0  0  0  0  0
   -4.7735   13.6273  -31.2744 H   0  0  0  0  0  0  0  0  0  0  0  0
   -5.5497   12.0075  -31.2744 H   0  0  0  0  0  0  0  0  0  0  0  0
   -3.1478   11.2786  -32.2419 H   0  0  0  0  0  0  0  0  0  0  0  0
   -4.4621   11.9096  -33.3091 H   0  0  0  0  0  0  0  0  0  0  0  0
   -1.2682   15.2396  -32.8897 H   0  0  0  0  0  0  0  0  0  0  0  0
   -1.8338   17.6378  -33.1072 H   0  0  0  0  0  0  0  0  0  0  0  0
   -5.4441   14.2047  -33.1878 H   0  0  0  0  0  0  0  0  0  0  0  0
   -8.6589   16.8592  -31.9073 H   0  0  0  0  0  0  0  0  0  0  0  0
   -9.7902   18.9459  -31.1666 H   0  0  0  0  0  0  0  0  0  0  0  0
   -9.6510   21.8690  -32.4750 H   0  0  0  0  0  0  0  0  0  0  0  0
   -9.6430   21.2630  -30.9070 H   0  0  0  0  0  0  0  0  0  0  0  0
   -7.8704   23.2793  -33.3633 H   0  0  0  0  0  0  0  0  0  0  0  0
   -6.0605   24.8788  -32.7553 H   0  0  0  0  0  0  0  0  0  0  0  0
   -4.8693   26.0331  -31.0216 H   0  0  0  0  0  0  0  0  0  0  0  0
   -5.0073   25.4890  -29.2798 H   0  0  0  0  0  0  0  0  0  0  0  0
   -3.5900   24.5899  -28.2728 H   0  0  0  0  0  0  0  0  0  0  0  0
   -2.2711   23.5888  -28.9693 H   0  0  0  0  0  0  0  0  0  0  0  0
   -2.1348   25.3799  -28.9693 H   0  0  0  0  0  0  0  0  0  0  0  0
   -3.4796   22.4755  -30.2449 H   0  0  0  0  0  0  0  0  0  0  0  0
   -4.3798   23.1481  -31.6463 H   0  0  0  0  0  0  0  0  0  0  0  0
   -2.5835   23.1535  -31.6463 H   0  0  0  0  0  0  0  0  0  0  0  0
   -6.1043   23.3852  -28.6914 H   0  0  0  0  0  0  0  0  0  0  0  0
   -7.9067   21.7813  -29.2973 H   0  0  0  0  0  0  0  0  0  0  0  0
   -6.8568   21.2969  -33.3139 H   0  0  0  0  0  0  0  0  0  0  0  0
   -5.4790   18.5440  -35.1347 H   0  0  0  0  0  0  0  0  0  0  0  0
   -5.2460   20.2518  -34.6364 H   0  0  0  0  0  0  0  0  0  0  0  0
   -3.2734   19.2444  -33.8944 H   0  0  0  0  0  0  0  0  0  0  0  0
   -4.3610   19.1831  -32.4169 H   0  0  0  0  0  0  0  0  0  0  0  0
  1  2  1  0
  2  3  1  0
  3  4  1  0
  4  5  2  0
  5  6  1  0
  6  7  2  0
  7  8  1  0
  8  9  2  0
  8 10  1  0
 10 11  2  0
 10 12  1  0
 12 13  2  0
 13 14  1  0
 14 15  2  0
 15 16  1  0
 16 17  1  0
 17 18  2  0
 18 19  1  0
 19 20  2  0
 20 21  1  0
 21 22  1  0
 22 23  1  0
 22 24  1  0
 20 25  1  0
 25 26  2  0
 15 27  1  0
 27 28  2  0
 28 29  1  0
 29 30  1  0
  9  4  1  0
 28 12  1  0
 30  7  1  0
 26 17  1  0
  1 31  1  0
  1 32  1  0
  1 33  1  0
  2 34  1  0
  2 35  1  0
  5 36  1  0
  6 37  1  0
  9 38  1  0
 13 39  1  0
 14 40  1  0
 16 41  1  0
 16 42  1  0
 18 43  1  0
 19 44  1  0
 21 45  1  0
 21 46  1  0
 23 47  1  0
 23 48  1  0
 23 49  1  0
 24 50  1  0
 24 51  1  0
 24 52  1  0
 25 53  1  0
 26 54  1  0
 27 55  1  0
 29 56  1  0
 29 57  1  0
 30 58  1  0
 30 59  1  0
M  CHG  1  16   1
M  END
>  <UniqueID>  (13) 
12

>  <SMILES>  (13) 
CCOc1ccc2c(c1)C(=O)c1ccc([NH2+]c3ccc(CN(C)C)cc3)cc1CC2

>  <Energy>  (13) 
80.35145567229618

>  <Genealogy>  (13) 
CCOc1ccc2c(c1)C(=O)c1ccc([NH2+]c3ccc(CN(C)C)cc3)cc1CC2 (protonated)
CCOc1ccc2c(c1)C(=O)c1ccc([NH2+]c3ccc(CN(C)C)cc3)cc1CC2 (3D coordinates assigned)
CCOc1ccc2c(c1)C(=O)c1ccc([NH2+]c3ccc(CN(C)C)cc3)cc1CC2 (nonaromatic ring conformer: 80.35145567229618 kcal/mol)

>  <smiles>  (13) 
CCOc1ccc2c(c1)C(=O)c1ccc(Nc3ccc(CN(C)C)cc3)cc1CC2

>  <score_type>  (13) 
oracle

>  <origin>  (13) 
adg

>  <m_score__min__energy>  (13) 
-7.4400000000000004

>  <m_primary>  (13) 
energy

$$$$
13:0
     RDKit          3D

 67 70  0  0  0  0  0  0  0  0999 V2000
   -0.5670   25.5940  -23.7280 C   0  0  0  0  0  0  0  0  0  0  0  0
   -1.2360   26.9270  -24.0420 C   0  0  0  0  0  0  0  0  0  0  0  0
   -0.3230   27.7590  -24.8590 N   0  0  0  0  0  0  0  0  0  0  0  0
   -0.7420   29.1820  -24.9160 C   0  0  0  0  0  0  0  0  0  0  0  0
   -0.5750   29.8370  -26.2950 C   0  0  0  0  0  0  0  0  0  0  0  0
    1.1020   27.5400  -24.5210 C   0  0  0  0  0  0  0  0  0  0  0  0
    1.9160   27.0540  -25.7310 C   0  0  0  0  0  0  0  0  0  0  0  0
    1.0620   26.8900  -26.9100 N   0  0  0  0  0  0  0  0  0  0  0  0
    0.3030   25.7050  -27.2150 C   0  0  0  0  0  0  0  0  0  0  0  0
    0.9760   24.5600  -27.6660 C   0  0  0  0  0  0  0  0  0  0  0  0
    0.2720   23.3910  -27.9620 C   0  0  0  0  0  0  0  0  0  0  0  0
   -1.1190   23.3480  -27.8030 C   0  0  0  0  0  0  0  0  0  0  0  0
   -1.8050   24.4850  -27.3720 C   0  0  0  0  0  0  0  0  0  0  0  0
   -1.0950   25.6560  -27.0580 C   0  0  0  0  0  0  0  0  0  0  0  0
   -3.2920   24.4100  -27.2010 C   0  0  0  0  0  0  0  0  0  0  0  0
   -3.9730   24.3830  -28.5690 C   0  0  0  0  0  0  0  0  0  0  0  0
   -3.7510   23.1570  -29.4450 C   0  0  0  0  0  0  0  0  0  0  0  0
   -4.6250   23.0330  -30.5410 C   0  0  0  0  0  0  0  0  0  0  0  0
   -4.5510   21.9490  -31.4240 C   0  0  0  0  0  0  0  0  0  0  0  0
   -5.4730   21.8760  -32.5290 N   0  0  0  0  0  0  0  0  0  0  0  0
   -6.8450   21.4730  -32.4040 C   0  0  0  0  0  0  0  0  0  0  0  0
   -7.7140   22.2640  -31.6380 C   0  0  0  0  0  0  0  0  0  0  0  0
   -9.0500   21.8910  -31.4720 C   0  0  0  0  0  0  0  0  0  0  0  0
   -9.5310   20.7300  -32.0790 C   0  0  0  0  0  0  0  0  0  0  0  0
   -8.6830   19.9480  -32.8660 C   0  0  0  0  0  0  0  0  0  0  0  0
   -7.3410   20.3170  -33.0500 C   0  0  0  0  0  0  0  0  0  0  0  0
   -6.5130   19.5330  -33.9190 N   0  0  0  0  0  0  0  0  0  0  0  0
   -3.6040   20.9460  -31.1900 C   0  0  0  0  0  0  0  0  0  0  0  0
   -2.7330   21.0380  -30.1070 C   0  0  0  0  0  0  0  0  0  0  0  0
   -2.7830   22.1290  -29.2180 C   0  0  0  0  0  0  0  0  0  0  0  0
   -1.8520   22.1540  -28.1110 N   0  0  0  0  0  0  0  0  0  0  0  0
   -1.7780   21.0290  -27.1740 C   0  0  0  0  0  0  0  0  0  0  0  0
   -0.5019   25.4643  -22.6376 H   0  0  0  0  0  0  0  0  0  0  0  0
   -1.1609   24.7750  -24.1599 H   0  0  0  0  0  0  0  0  0  0  0  0
    0.4446   25.5807  -24.1599 H   0  0  0  0  0  0  0  0  0  0  0  0
   -2.1664   26.7474  -24.6006 H   0  0  0  0  0  0  0  0  0  0  0  0
   -1.4666   27.4510  -23.1027 H   0  0  0  0  0  0  0  0  0  0  0  0
   -1.8036   29.2398  -24.6338 H   0  0  0  0  0  0  0  0  0  0  0  0
   -0.0847   29.7310  -24.2257 H   0  0  0  0  0  0  0  0  0  0  0  0
   -0.3051   30.8957  -26.1678 H   0  0  0  0  0  0  0  0  0  0  0  0
    0.2201   29.3203  -26.8525 H   0  0  0  0  0  0  0  0  0  0  0  0
   -1.5205   29.7641  -26.8525 H   0  0  0  0  0  0  0  0  0  0  0  0
    1.5310   28.4873  -24.1625 H   0  0  0  0  0  0  0  0  0  0  0  0
    1.1501   26.7610  -23.7459 H   0  0  0  0  0  0  0  0  0  0  0  0
    2.7007   27.7914  -25.9556 H   0  0  0  0  0  0  0  0  0  0  0  0
    2.3610   26.0789  -25.4837 H   0  0  0  0  0  0  0  0  0  0  0  0
    0.9640   27.7180  -27.5430 H   0  0  0  0  0  0  0  0  0  0  0  0
    2.0690   24.5832  -27.7877 H   0  0  0  0  0  0  0  0  0  0  0  0
    0.8110   22.5018  -28.3209 H   0  0  0  0  0  0  0  0  0  0  0  0
   -1.6348   26.5398  -26.6873 H   0  0  0  0  0  0  0  0  0  0  0  0
   -3.5496   23.4951  -26.6474 H   0  0  0  0  0  0  0  0  0  0  0  0
   -3.6370   25.2926  -26.6425 H   0  0  0  0  0  0  0  0  0  0  0  0
   -5.0560   24.4738  -28.3990 H   0  0  0  0  0  0  0  0  0  0  0  0
   -3.5110   25.2111  -29.1265 H   0  0  0  0  0  0  0  0  0  0  0  0
   -5.3868   23.8086  -30.7084 H   0  0  0  0  0  0  0  0  0  0  0  0
   -5.1690   22.2630  -33.4520 H   0  0  0  0  0  0  0  0  0  0  0  0
   -7.3409   23.1843  -31.1648 H   0  0  0  0  0  0  0  0  0  0  0  0
   -9.7229   22.5124  -30.8628 H   0  0  0  0  0  0  0  0  0  0  0  0
  -10.5799   20.4304  -31.9372 H   0  0  0  0  0  0  0  0  0  0  0  0
   -9.0693   19.0363  -33.3452 H   0  0  0  0  0  0  0  0  0  0  0  0
   -6.8600   19.2380  -34.8590 H   0  0  0  0  0  0  0  0  0  0  0  0
   -5.5320   19.2850  -33.6660 H   0  0  0  0  0  0  0  0  0  0  0  0
   -3.5470   20.0796  -31.8654 H   0  0  0  0  0  0  0  0  0  0  0  0
   -1.9912   20.2425  -29.9428 H   0  0  0  0  0  0  0  0  0  0  0  0
   -1.8030   21.4091  -26.1420 H   0  0  0  0  0  0  0  0  0  0  0  0
   -2.6339   20.3579  -27.3384 H   0  0  0  0  0  0  0  0  0  0  0  0
   -0.8415   20.4758  -27.3384 H   0  0  0  0  0  0  0  0  0  0  0  0
  1  2  1  0
  2  3  1  0
  3  4  1  0
  4  5  1  0
  3  6  1  0
  6  7  1  0
  7  8  1  0
  8  9  1  0
  9 10  2  0
 10 11  1  0
 11 12  2  0
 12 13  1  0
 13 14  2  0
 13 15  1  0
 15 16  1  0
 16 17  1  0
 17 18  2  0
 18 19  1  0
 19 20  1  0
 20 21  1  0
 21 22  2  0
 22 23  1  0
 23 24  2  0
 24 25  1  0
 25 26  2  0
 26 27  1  0
 19 28  2  0
 28 29  1  0
 29 30  2  0
 30 31  1  0
 31 32  1  0
 14  9  1  0
 30 17  1  0
 31 12  1  0
 26 21  1  0
  1 33  1  0
  1 34  1  0
  1 35  1  0
  2 36  1  0
  2 37  1  0
  4 38  1  0
  4 39  1  0
  5 40  1  0
  5 41  1  0
  5 42  1  0
  6 43  1  0
  6 44  1  0
  7 45  1  0
  7 46  1  0
  8 47  1  0
 10 48  1  0
 11 49  1  0
 14 50  1  0
 15 51  1  0
 15 52  1  0
 16 53  1  0
 16 54  1  0
 18 55  1  0
 20 56  1  0
 22 57  1  0
 23 58  1  0
 24 59  1  0
 25 60  1  0
 27 61  1  0
 27 62  1  0
 28 63  1  0
 29 64  1  0
 32 65  1  0
 32 66  1  0
 32 67  1  0
M  END
>  <UniqueID>  (14) 
13

>  <SMILES>  (14) 
CCN(CC)CCNc1ccc2c(c1)CCc1cc(Nc3ccccc3N)ccc1N2C

>  <Energy>  (14) 
93.96956749101146

>  <Genealogy>  (14) 
CCN(CC)CCNc1ccc2c(c1)CCc1cc(Nc3ccccc3N)ccc1N2C (3D coordinates assigned)
CCN(CC)CCNc1ccc2c(c1)CCc1cc(Nc3ccccc3N)ccc1N2C (nonaromatic ring conformer: 93.96956749101146 kcal/mol)

>  <smiles>  (14) 
CCN(CC)CCNc1ccc2c(c1)CCc1cc(Nc3ccccc3N)ccc1N2C

>  <score_type>  (14) 
oracle

>  <origin>  (14) 
adg

>  <m_score__min__energy>  (14) 
-7.2599999999999998

>  <m_primary>  (14) 
energy

$$$$
14:0
     RDKit          3D

 55 59  0  0  0  0  0  0  0  0999 V2000
   -3.1280   19.1790  -26.7290 C   0  0  0  0  0  0  0  0  0  0  0  0
   -2.6980   20.2720  -27.7010 C   0  0  0  0  0  0  0  0  0  0  0  0
   -1.2760   20.0830  -28.0720 N   0  0  0  0  0  0  0  0  0  0  0  0
   -0.6830   18.8750  -27.4410 C   0  0  0  0  0  0  0  0  0  0  0  0
    0.3500   18.1440  -28.3110 C   0  0  0  0  0  0  0  0  0  0  0  0
   -1.0580   20.1920  -29.5330 C   0  0  0  0  0  0  0  0  0  0  0  0
   -0.8710   21.6490  -29.9750 C   0  0  0  0  0  0  0  0  0  0  0  0
   -1.4890   21.8750  -31.2810 N   0  0  0  0  0  0  0  0  0  0  0  0
   -2.9070   21.7430  -31.4410 C   0  0  0  0  0  0  0  0  0  0  0  0
   -3.7480   22.5860  -30.7110 C   0  0  0  0  0  0  0  0  0  0  0  0
   -3.0270   23.9340  -29.5510 Br  0  0  0  0  0  0  0  0  0  0  0  0
   -5.1300   22.4540  -30.8000 C   0  0  0  0  0  0  0  0  0  0  0  0
   -5.7220   21.4560  -31.6060 C   0  0  0  0  0  0  0  0  0  0  0  0
   -4.8700   20.5810  -32.3380 C   0  0  0  0  0  0  0  0  0  0  0  0
   -5.4410   19.5460  -33.1230 C   0  0  0  0  0  0  0  0  0  0  0  0
   -6.7990   19.4770  -33.2510 N   0  0  0  0  0  0  0  0  0  0  0  0
   -7.6430   20.3040  -32.5770 C   0  0  0  0  0  0  0  0  0  0  0  0
   -9.0330   20.1500  -32.7390 C   0  0  0  0  0  0  0  0  0  0  0  0
   -9.9220   20.9700  -32.0500 C   0  0  0  0  0  0  0  0  0  0  0  0
   -9.4390   21.9510  -31.1920 C   0  0  0  0  0  0  0  0  0  0  0  0
   -8.0640   22.1260  -31.0230 C   0  0  0  0  0  0  0  0  0  0  0  0
   -7.1350   21.3080  -31.7170 C   0  0  0  0  0  0  0  0  0  0  0  0
   -4.5570   18.5450  -33.8110 C   0  0  0  0  0  0  0  0  0  0  0  0
   -5.0530   17.3530  -34.3850 C   0  0  0  0  0  0  0  0  0  0  0  0
   -4.2170   16.4920  -35.0200 N   0  0  0  0  0  0  0  0  0  0  0  0
   -2.8860   16.7270  -35.1230 C   0  0  0  0  0  0  0  0  0  0  0  0
   -2.3350   17.8660  -34.5430 C   0  0  0  0  0  0  0  0  0  0  0  0
   -3.1690   18.7730  -33.8680 C   0  0  0  0  0  0  0  0  0  0  0  0
   -2.6010   19.9490  -33.1920 C   0  0  0  0  0  0  0  0  0  0  0  0
   -1.4000   20.2710  -33.4060 O   0  0  0  0  0  0  0  0  0  0  0  0
   -3.4610   20.7610  -32.2950 C   0  0  0  0  0  0  0  0  0  0  0  0
   -2.9893   19.5314  -25.6963 H   0  0  0  0  0  0  0  0  0  0  0  0
   -4.1882   18.9373  -26.8947 H   0  0  0  0  0  0  0  0  0  0  0  0
   -2.5167   18.2797  -26.8947 H   0  0  0  0  0  0  0  0  0  0  0  0
   -3.3213   20.2217  -28.6060 H   0  0  0  0  0  0  0  0  0  0  0  0
   -2.8205   21.2539  -27.2206 H   0  0  0  0  0  0  0  0  0  0  0  0
   -0.1897   19.1823  -26.5071 H   0  0  0  0  0  0  0  0  0  0  0  0
   -1.5106   18.1689  -27.2782 H   0  0  0  0  0  0  0  0  0  0  0  0
    1.0762   17.6301  -27.6641 H   0  0  0  0  0  0  0  0  0  0  0  0
   -0.1620   17.4060  -28.9460 H   0  0  0  0  0  0  0  0  0  0  0  0
    0.8757   18.8723  -28.9460 H   0  0  0  0  0  0  0  0  0  0  0  0
   -0.1577   19.6201  -29.8021 H   0  0  0  0  0  0  0  0  0  0  0  0
   -1.9476   19.7923  -30.0417 H   0  0  0  0  0  0  0  0  0  0  0  0
   -1.3385   22.3142  -29.2341 H   0  0  0  0  0  0  0  0  0  0  0  0
    0.2058   21.8606  -30.0513 H   0  0  0  0  0  0  0  0  0  0  0  0
   -0.9450   22.3280  -32.0510 H   0  0  0  0  0  0  0  0  0  0  0  0
   -5.7747   23.1404  -30.2315 H   0  0  0  0  0  0  0  0  0  0  0  0
   -7.2280   18.7840  -33.8990 H   0  0  0  0  0  0  0  0  0  0  0  0
   -9.4201   19.3745  -33.4163 H   0  0  0  0  0  0  0  0  0  0  0  0
  -11.0062   20.8417  -32.1845 H   0  0  0  0  0  0  0  0  0  0  0  0
  -10.1437   22.5930  -30.6431 H   0  0  0  0  0  0  0  0  0  0  0  0
   -7.6960   22.9083  -30.3429 H   0  0  0  0  0  0  0  0  0  0  0  0
   -6.1260   17.1205  -34.3168 H   0  0  0  0  0  0  0  0  0  0  0  0
   -2.2420   16.0183  -35.6644 H   0  0  0  0  0  0  0  0  0  0  0  0
   -1.2536   18.0548  -34.6127 H   0  0  0  0  0  0  0  0  0  0  0  0
  1  2  1  0
  2  3  1  0
  3  4  1  0
  4  5  1  0
  3  6  1  0
  6  7  1  0
  7  8  1  0
  8  9  1  0
  9 10  2  0
 10 11  1  0
 10 12  1  0
 12 13  2  0
 13 14  1  0
 14 15  1  0
 15 16  2  0
 16 17  1  0
 17 18  2  0
 18 19  1  0
 19 20  2  0
 20 21  1  0
 21 22  2  0
 15 23  1  0
 23 24  2  0
 24 25  1  0
 25 26  2  0
 26 27  1  0
 27 28  2  0
 28 29  1  0
 29 30  2  0
 29 31  1  0
 31  9  1  0
 22 13  1  0
 28 23  1  0
 31 14  2  0
 22 17  1  0
  1 32  1  0
  1 33  1  0
  1 34  1  0
  2 35  1  0
  2 36  1  0
  4 37  1  0
  4 38  1  0
  5 39  1  0
  5 40  1  0
  5 41  1  0
  6 42  1  0
  6 43  1  0
  7 44  1  0
  7 45  1  0
  8 46  1  0
 12 47  1  0
 16 48  1  0
 18 49  1  0
 19 50  1  0
 20 51  1  0
 21 52  1  0
 24 53  1  0
 26 54  1  0
 27 55  1  0
M  CHG  1  16   1
M  END
>  <UniqueID>  (15) 
14

>  <SMILES>  (15) 
CCN(CC)CCNc1c(Br)cc2c3c([nH+]c4ccccc42)-c2cnccc2C(=O)c13

>  <Energy>  (15) 
92.02066589222896

>  <Genealogy>  (15) 
CCN(CC)CCNc1c(Br)cc2c3c([nH+]c4ccccc42)-c2cnccc2C(=O)c13 (protonated)
CCN(CC)CCNc1c(Br)cc2c3c([nH+]c4ccccc42)-c2cnccc2C(=O)c13 (3D coordinates assigned)
CCN(CC)CCNc1c(Br)cc2c3c([nH+]c4ccccc42)-c2cnccc2C(=O)c13 (nonaromatic ring conformer: 92.02066589222896 kcal/mol)

>  <smiles>  (15) 
CCN(CC)CCNc1c(Br)cc2c3c(nc4ccccc42)-c2cnccc2C(=O)c13

>  <score_type>  (15) 
oracle

>  <origin>  (15) 
adg

>  <m_score__min__energy>  (15) 
-9.5099999999999998

>  <m_primary>  (15) 
energy

$$$$
15:0
     RDKit          3D

 39 40  0  0  0  0  0  0  0  0999 V2000
   -9.8590   21.6520  -31.9410 C   0  0  0  0  0  0  0  0  0  0  0  0
   -8.4070   22.0430  -31.8650 C   0  0  0  0  0  0  0  0  0  0  0  0
   -8.0980   23.3860  -31.5920 C   0  0  0  0  0  0  0  0  0  0  0  0
   -6.7750   23.8040  -31.4680 C   0  0  0  0  0  0  0  0  0  0  0  0
   -5.7250   22.8880  -31.6070 C   0  0  0  0  0  0  0  0  0  0  0  0
   -4.3570   23.3130  -31.4560 N   0  0  0  0  0  0  0  0  0  0  0  0
   -3.4200   22.6000  -31.8710 O   0  0  0  0  0  0  0  0  0  0  0  0
   -4.0580   24.5100  -30.8470 O   0  0  0  0  0  0  0  0  0  0  0  0
   -6.0260   21.5470  -31.8950 C   0  0  0  0  0  0  0  0  0  0  0  0
   -7.3530   21.1110  -32.0700 C   0  0  0  0  0  0  0  0  0  0  0  0
   -7.6890   19.3950  -32.4540 S   0  0  0  0  0  0  0  0  0  0  0  0
   -9.0470   19.2910  -33.0900 O   0  0  0  0  0  0  0  0  0  0  0  0
   -7.7100   18.6230  -31.1640 O   0  0  0  0  0  0  0  0  0  0  0  0
   -6.5640   18.6300  -33.5610 N   0  0  2  0  0  0  0  0  0  0  0  0
   -6.8240   17.1710  -33.6880 C   0  0  0  0  0  0  0  0  0  0  0  0
   -5.5630   16.3580  -34.0330 C   0  0  0  0  0  0  0  0  0  0  0  0
   -4.6450   17.1580  -34.9690 C   0  0  2  0  0  0  0  0  0  0  0  0
   -3.4410   16.3150  -35.4050 C   0  0  0  0  0  0  0  0  0  0  0  0
   -4.1890   18.4790  -34.3040 C   0  0  0  0  0  0  0  0  0  0  0  0
   -5.1680   18.9690  -33.2190 C   0  0  0  0  0  0  0  0  0  0  0  0
  -10.2631   21.5432  -30.9237 H   0  0  0  0  0  0  0  0  0  0  0  0
  -10.4209   22.4308  -32.4774 H   0  0  0  0  0  0  0  0  0  0  0  0
   -9.9538   20.6963  -32.4774 H   0  0  0  0  0  0  0  0  0  0  0  0
   -8.9115   24.1171  -31.4746 H   0  0  0  0  0  0  0  0  0  0  0  0
   -6.5535   24.8611  -31.2594 H   0  0  0  0  0  0  0  0  0  0  0  0
   -5.2055   20.8200  -31.9860 H   0  0  0  0  0  0  0  0  0  0  0  0
   -6.7600   19.0620  -34.4950 H   0  0  0  0  0  0  0  0  0  0  0  0
   -7.2266   16.8032  -32.7327 H   0  0  0  0  0  0  0  0  0  0  0  0
   -7.5361   17.0367  -34.5156 H   0  0  0  0  0  0  0  0  0  0  0  0
   -5.0189   16.1236  -33.1062 H   0  0  0  0  0  0  0  0  0  0  0  0
   -5.8663   15.4304  -34.5405 H   0  0  0  0  0  0  0  0  0  0  0  0
   -5.2206   17.4172  -35.8698 H   0  0  0  0  0  0  0  0  0  0  0  0
   -2.9114   15.9442  -34.5150 H   0  0  0  0  0  0  0  0  0  0  0  0
   -3.7890   15.4622  -36.0064 H   0  0  0  0  0  0  0  0  0  0  0  0
   -2.7587   16.9337  -36.0064 H   0  0  0  0  0  0  0  0  0  0  0  0
   -3.2037   18.3184  -33.8420 H   0  0  0  0  0  0  0  0  0  0  0  0
   -4.1505   19.2492  -35.0884 H   0  0  0  0  0  0  0  0  0  0  0  0
   -4.9084   18.4937  -32.2615 H   0  0  0  0  0  0  0  0  0  0  0  0
   -5.0851   20.0635  -33.1463 H   0  0  0  0  0  0  0  0  0  0  0  0
  1  2  1  0
  2  3  2  0
  3  4  1  0
  4  5  2  0
  5  6  1  0
  6  7  2  0
  6  8  1  0
  5  9  1  0
  9 10  2  0
 10 11  1  0
 11 12  2  0
 11 13  2  0
 11 14  1  0
 14 15  1  0
 15 16  1  0
 16 17  1  0
 17 18  1  0
 17 19  1  0
 19 20  1  0
 10  2  1  0
 20 14  1  0
  1 21  1  0
  1 22  1  0
  1 23  1  0
  3 24  1  0
  4 25  1  0
  9 26  1  0
 14 27  1  6
 15 28  1  0
 15 29  1  0
 16 30  1  0
 16 31  1  0
 17 32  1  6
 18 33  1  0
 18 34  1  0
 18 35  1  0
 19 36  1  0
 19 37  1  0
 20 38  1  0
 20 39  1  0
M  CHG  3   6   1   8  -1  14   1
M  END
>  <UniqueID>  (16) 
15

>  <SMILES>  (16) 
Cc1ccc([N+](=O)[O-])cc1S(=O)(=O)[NH+]1CCC(C)CC1

>  <Energy>  (16) 
48.156423952311805

>  <Genealogy>  (16) 
Cc1ccc([N+](=O)[O-])cc1S(=O)(=O)[NH+]1CCC(C)CC1 (protonated)
Cc1ccc([N+](=O)[O-])cc1S(=O)(=O)[NH+]1CCC(C)CC1 (3D coordinates assigned)
Cc1ccc([N+](=O)[O-])cc1S(=O)(=O)[NH+]1CCC(C)CC1 (nonaromatic ring conformer: 48.156423952311805 kcal/mol)

>  <smiles>  (16) 
Cc1ccc([N+](=O)[O-])cc1S(=O)(=O)N1CCC(C)CC1

>  <score_type>  (16) 
oracle

>  <origin>  (16) 
adg

>  <m_score__min__energy>  (16) 
-8.1899999999999995

>  <m_primary>  (16) 
energy

$$$$
16:0
     RDKit          3D

 49 50  0  0  0  0  0  0  0  0999 V2000
   -8.6640   20.9500  -31.4230 C   0  0  0  0  0  0  0  0  0  0  0  0
   -8.1620   20.3040  -32.7150 C   0  0  0  0  0  0  0  0  0  0  0  0
   -6.8760   19.5970  -32.5160 N   0  0  0  0  0  0  0  0  0  0  0  0
   -7.0590   18.3350  -31.7640 C   0  0  0  0  0  0  0  0  0  0  0  0
   -6.8610   17.1380  -32.6880 C   0  0  0  0  0  0  0  0  0  0  0  0
   -6.0920   19.3990  -33.7600 C   0  0  0  0  0  0  0  0  0  0  0  0
   -4.5610   19.5100  -33.5640 C   0  0  0  0  0  0  0  0  0  0  0  0
   -4.2150   20.3020  -32.3680 N   0  0  0  0  0  0  0  0  0  0  0  0
   -4.1010   21.7380  -32.6690 C   0  0  0  0  0  0  0  0  0  0  0  0
   -4.9980   22.5420  -31.7540 C   0  0  0  0  0  0  0  0  0  0  0  0
   -6.0110   23.3320  -32.3270 C   0  0  0  0  0  0  0  0  0  0  0  0
   -6.8060   24.1580  -31.5290 C   0  0  0  0  0  0  0  0  0  0  0  0
   -6.5870   24.2210  -30.1540 C   0  0  0  0  0  0  0  0  0  0  0  0
   -5.5770   23.4540  -29.5710 C   0  0  0  0  0  0  0  0  0  0  0  0
   -4.7850   22.6020  -30.3560 C   0  0  0  0  0  0  0  0  0  0  0  0
   -3.5000   21.6370  -29.5400 S   0  0  0  0  0  0  0  0  0  0  0  0
   -2.7790   23.0680  -28.7290 C   0  0  0  0  0  0  0  0  0  0  0  0
   -3.2530   23.4710  -27.4740 C   0  0  0  0  0  0  0  0  0  0  0  0
   -2.6950   24.5830  -26.8350 C   0  0  0  0  0  0  0  0  0  0  0  0
   -1.6650   25.3010  -27.4530 C   0  0  0  0  0  0  0  0  0  0  0  0
   -0.9640   26.6960  -26.6520 Cl  0  0  0  0  0  0  0  0  0  0  0  0
   -1.2000   24.9100  -28.7130 C   0  0  0  0  0  0  0  0  0  0  0  0
   -1.7570   23.7980  -29.3510 C   0  0  0  0  0  0  0  0  0  0  0  0
   -8.2467   20.4130  -30.5584 H   0  0  0  0  0  0  0  0  0  0  0  0
   -8.3440   22.0019  -31.3906 H   0  0  0  0  0  0  0  0  0  0  0  0
   -9.7624   20.8997  -31.3906 H   0  0  0  0  0  0  0  0  0  0  0  0
   -8.9138   19.5822  -33.0670 H   0  0  0  0  0  0  0  0  0  0  0  0
   -8.0011   21.1020  -33.4548 H   0  0  0  0  0  0  0  0  0  0  0  0
   -6.3238   18.2889  -30.9471 H   0  0  0  0  0  0  0  0  0  0  0  0
   -8.0790   18.3066  -31.3533 H   0  0  0  0  0  0  0  0  0  0  0  0
   -6.7109   16.2303  -32.0851 H   0  0  0  0  0  0  0  0  0  0  0  0
   -7.7508   17.0136  -33.3227 H   0  0  0  0  0  0  0  0  0  0  0  0
   -5.9786   17.3067  -33.3227 H   0  0  0  0  0  0  0  0  0  0  0  0
   -6.3183   18.3979  -34.1557 H   0  0  0  0  0  0  0  0  0  0  0  0
   -6.3834   20.2037  -34.4510 H   0  0  0  0  0  0  0  0  0  0  0  0
   -4.1424   18.4987  -33.4541 H   0  0  0  0  0  0  0  0  0  0  0  0
   -4.1410   20.0199  -34.4435 H   0  0  0  0  0  0  0  0  0  0  0  0
   -3.3210   19.9500  -31.9500 H   0  0  0  0  0  0  0  0  0  0  0  0
   -4.9760   20.1700  -31.6590 H   0  0  0  0  0  0  0  0  0  0  0  0
   -3.0580   22.0566  -32.5255 H   0  0  0  0  0  0  0  0  0  0  0  0
   -4.4089   21.9094  -33.7110 H   0  0  0  0  0  0  0  0  0  0  0  0
   -6.1787   23.2990  -33.4136 H   0  0  0  0  0  0  0  0  0  0  0  0
   -7.6056   24.7593  -31.9862 H   0  0  0  0  0  0  0  0  0  0  0  0
   -7.2107   24.8758  -29.5277 H   0  0  0  0  0  0  0  0  0  0  0  0
   -5.4004   23.5179  -28.4872 H   0  0  0  0  0  0  0  0  0  0  0  0
   -4.0666   22.9112  -26.9895 H   0  0  0  0  0  0  0  0  0  0  0  0
   -3.0657   24.8931  -25.8469 H   0  0  0  0  0  0  0  0  0  0  0  0
   -0.3952   25.4782  -29.2023 H   0  0  0  0  0  0  0  0  0  0  0  0
   -1.3923   23.4951  -30.3436 H   0  0  0  0  0  0  0  0  0  0  0  0
  1  2  1  0
  2  3  1  0
  3  4  1  0
  4  5  1  0
  3  6  1  0
  6  7  1  0
  7  8  1  0
  8  9  1  0
  9 10  1  0
 10 11  2  0
 11 12  1  0
 12 13  2  0
 13 14  1  0
 14 15  2  0
 15 16  1  0
 16 17  1  0
 17 18  2  0
 18 19  1  0
 19 20  2  0
 20 21  1  0
 20 22  1  0
 22 23  2  0
 15 10  1  0
 23 17  1  0
  1 24  1  0
  1 25  1  0
  1 26  1  0
  2 27  1  0
  2 28  1  0
  4 29  1  0
  4 30  1  0
  5 31  1  0
  5 32  1  0
  5 33  1  0
  6 34  1  0
  6 35  1  0
  7 36  1  0
  7 37  1  0
  8 38  1  0
  8 39  1  0
  9 40  1  0
  9 41  1  0
 11 42  1  0
 12 43  1  0
 13 44  1  0
 14 45  1  0
 18 46  1  0
 19 47  1  0
 22 48  1  0
 23 49  1  0
M  CHG  1   8   1
M  END
>  <UniqueID>  (17) 
16

>  <SMILES>  (17) 
CCN(CC)CC[NH2+]Cc1ccccc1Sc1ccc(Cl)cc1

>  <Energy>  (17) 
45.920016516792344

>  <Genealogy>  (17) 
CCN(CC)CC[NH2+]Cc1ccccc1Sc1ccc(Cl)cc1 (protonated)
CCN(CC)CC[NH2+]Cc1ccccc1Sc1ccc(Cl)cc1 (3D coordinates assigned)
CCN(CC)CC[NH2+]Cc1ccccc1Sc1ccc(Cl)cc1 (optimized conformer: 45.920016516792344 kcal/mol)

>  <smiles>  (17) 
CCN(CC)CCNCc1ccccc1Sc1ccc(Cl)cc1

>  <score_type>  (17) 
oracle

>  <origin>  (17) 
adg

>  <m_score__min__energy>  (17) 
-6.79

>  <m_primary>  (17) 
energy

$$$$
17:0
     RDKit          3D

 51 53  0  0  0  0  0  0  0  0999 V2000
   -3.6330   23.5430  -29.7090 C   0  0  0  0  0  0  0  0  0  0  0  0
   -4.2920   24.8560  -30.1270 C   0  0  0  0  0  0  0  0  0  0  0  0
   -5.7580   24.7550  -30.0460 N   0  0  0  0  0  0  0  0  0  0  0  0
   -6.4880   25.8150  -29.3400 C   0  0  0  0  0  0  0  0  0  0  0  0
   -6.4800   23.6630  -30.6730 C   0  0  0  0  0  0  0  0  0  0  0  0
   -7.1620   22.7010  -29.9000 C   0  0  0  0  0  0  0  0  0  0  0  0
   -7.8510   21.6490  -30.5100 C   0  0  0  0  0  0  0  0  0  0  0  0
   -7.8740   21.5290  -31.9060 C   0  0  0  0  0  0  0  0  0  0  0  0
   -8.6200   20.3870  -32.5600 C   0  0  0  0  0  0  0  0  0  0  0  0
   -7.7080   19.3190  -33.0420 N   0  0  0  0  0  0  0  0  0  0  0  0
   -6.8530   19.8420  -34.1480 C   0  0  0  0  0  0  0  0  0  0  0  0
   -5.4610   19.2050  -34.1780 C   0  0  0  0  0  0  0  0  0  0  0  0
   -4.8020   19.4660  -32.8960 N   0  0  0  0  0  0  0  0  0  0  0  0
   -3.4370   19.9150  -32.8470 C   0  0  0  0  0  0  0  0  0  0  0  0
   -3.0990   21.0840  -32.1450 C   0  0  0  0  0  0  0  0  0  0  0  0
   -1.7700   21.5150  -32.0890 C   0  0  0  0  0  0  0  0  0  0  0  0
   -0.7690   20.7810  -32.7330 C   0  0  0  0  0  0  0  0  0  0  0  0
   -1.0960   19.6140  -33.4300 C   0  0  0  0  0  0  0  0  0  0  0  0
   -2.4250   19.1810  -33.4860 C   0  0  0  0  0  0  0  0  0  0  0  0
   -5.5890   19.3790  -31.6610 C   0  0  0  0  0  0  0  0  0  0  0  0
   -6.9420   18.6980  -31.9230 C   0  0  0  0  0  0  0  0  0  0  0  0
   -7.2010   22.4810  -32.6840 C   0  0  0  0  0  0  0  0  0  0  0  0
   -6.5100   23.5330  -32.0770 C   0  0  0  0  0  0  0  0  0  0  0  0
   -3.6021   23.4815  -28.6112 H   0  0  0  0  0  0  0  0  0  0  0  0
   -4.2139   22.6981  -30.1074 H   0  0  0  0  0  0  0  0  0  0  0  0
   -2.6084   23.5039  -30.1074 H   0  0  0  0  0  0  0  0  0  0  0  0
   -3.9487   25.6601  -29.4595 H   0  0  0  0  0  0  0  0  0  0  0  0
   -4.0111   25.0754  -31.1676 H   0  0  0  0  0  0  0  0  0  0  0  0
   -6.3874   25.6690  -28.2544 H   0  0  0  0  0  0  0  0  0  0  0  0
   -6.0721   26.7946  -29.6183 H   0  0  0  0  0  0  0  0  0  0  0  0
   -7.5515   25.7757  -29.6183 H   0  0  0  0  0  0  0  0  0  0  0  0
   -7.1517   22.7794  -28.8028 H   0  0  0  0  0  0  0  0  0  0  0  0
   -8.3791   20.9098  -29.8897 H   0  0  0  0  0  0  0  0  0  0  0  0
   -9.3158   19.9533  -31.8267 H   0  0  0  0  0  0  0  0  0  0  0  0
   -9.1548   20.7909  -33.4322 H   0  0  0  0  0  0  0  0  0  0  0  0
   -8.2980   18.5590  -33.4600 H   0  0  0  0  0  0  0  0  0  0  0  0
   -7.3536   19.6365  -35.1057 H   0  0  0  0  0  0  0  0  0  0  0  0
   -6.7186   20.9206  -33.9792 H   0  0  0  0  0  0  0  0  0  0  0  0
   -5.5529   18.1200  -34.3337 H   0  0  0  0  0  0  0  0  0  0  0  0
   -4.8686   19.6331  -35.0001 H   0  0  0  0  0  0  0  0  0  0  0  0
   -3.8839   21.6633  -31.6367 H   0  0  0  0  0  0  0  0  0  0  0  0
   -1.5119   22.4316  -31.5383 H   0  0  0  0  0  0  0  0  0  0  0  0
    0.2760   21.1219  -32.6912 H   0  0  0  0  0  0  0  0  0  0  0  0
   -0.3078   19.0360  -33.9346 H   0  0  0  0  0  0  0  0  0  0  0  0
   -2.6784   18.2611  -34.0333 H   0  0  0  0  0  0  0  0  0  0  0  0
   -5.0288   18.7939  -30.9168 H   0  0  0  0  0  0  0  0  0  0  0  0
   -5.7731   20.3972  -31.2877 H   0  0  0  0  0  0  0  0  0  0  0  0
   -6.7593   17.6415  -32.1690 H   0  0  0  0  0  0  0  0  0  0  0  0
   -7.5465   18.8127  -31.0112 H   0  0  0  0  0  0  0  0  0  0  0  0
   -7.2169   22.3994  -33.7809 H   0  0  0  0  0  0  0  0  0  0  0  0
   -5.9829   24.2689  -32.7020 H   0  0  0  0  0  0  0  0  0  0  0  0
  1  2  1  0
  2  3  1  0
  3  4  1  0
  3  5  1  0
  5  6  2  0
  6  7  1  0
  7  8  2  0
  8  9  1  0
  9 10  1  0
 10 11  1  0
 11 12  1  0
 12 13  1  0
 13 14  1  0
 14 15  2  0
 15 16  1  0
 16 17  2  0
 17 18  1  0
 18 19  2  0
 13 20  1  0
 20 21  1  0
  8 22  1  0
 22 23  2  0
 23  5  1  0
 21 10  1  0
 19 14  1  0
  1 24  1  0
  1 25  1  0
  1 26  1  0
  2 27  1  0
  2 28  1  0
  4 29  1  0
  4 30  1  0
  4 31  1  0
  6 32  1  0
  7 33  1  0
  9 34  1  0
  9 35  1  0
 10 36  1  0
 11 37  1  0
 11 38  1  0
 12 39  1  0
 12 40  1  0
 15 41  1  0
 16 42  1  0
 17 43  1  0
 18 44  1  0
 19 45  1  0
 20 46  1  0
 20 47  1  0
 21 48  1  0
 21 49  1  0
 22 50  1  0
 23 51  1  0
M  CHG  1  10   1
M  END
>  <UniqueID>  (18) 
17

>  <SMILES>  (18) 
CCN(C)c1ccc(C[NH+]2CCN(c3ccccc3)CC2)cc1

>  <Energy>  (18) 
65.7298346694348

>  <Genealogy>  (18) 
CCN(C)c1ccc(C[NH+]2CCN(c3ccccc3)CC2)cc1 (protonated)
CCN(C)c1ccc(C[NH+]2CCN(c3ccccc3)CC2)cc1 (3D coordinates assigned)
CCN(C)c1ccc(C[NH+]2CCN(c3ccccc3)CC2)cc1 (nonaromatic ring conformer: 65.7298346694348 kcal/mol)

>  <smiles>  (18) 
CCN(C)c1ccc(CN2CCN(c3ccccc3)CC2)cc1

>  <score_type>  (18) 
oracle

>  <origin>  (18) 
adg

>  <m_score__min__energy>  (18) 
-6.9400000000000004

>  <m_primary>  (18) 
energy

$$$$
18:0
     RDKit          3D

 54 55  0  0  0  0  0  0  0  0999 V2000
   -2.3980   22.2210  -28.1740 C   0  0  0  0  0  0  0  0  0  0  0  0
   -3.8580   22.4070  -27.7400 C   0  0  0  0  0  0  0  0  0  0  0  0
   -4.3590   23.7950  -27.9300 N   0  0  0  0  0  0  0  0  0  0  0  0
   -4.0120   24.6170  -26.7420 C   0  0  0  0  0  0  0  0  0  0  0  0
   -2.5590   25.1090  -26.7580 C   0  0  0  0  0  0  0  0  0  0  0  0
   -3.9310   24.4100  -29.2190 C   0  0  0  0  0  0  0  0  0  0  0  0
   -5.0800   24.9300  -30.1110 C   0  0  0  0  0  0  0  0  0  0  0  0
   -6.3450   24.3020  -29.7000 N   0  0  0  0  0  0  0  0  0  0  0  0
   -7.2360   24.0880  -30.8490 C   0  0  0  0  0  0  0  0  0  0  0  0
   -6.5180   23.2430  -31.9140 C   0  0  0  0  0  0  0  0  0  0  0  0
   -6.0650   21.8450  -31.4150 C   0  0  0  0  0  0  0  0  0  0  0  0
   -7.1340   20.8080  -31.7400 C   0  0  0  0  0  0  0  0  0  0  0  0
   -6.8140   19.4420  -31.8750 C   0  0  0  0  0  0  0  0  0  0  0  0
   -7.8040   18.5110  -32.2040 C   0  0  0  0  0  0  0  0  0  0  0  0
   -9.1200   18.9330  -32.4120 C   0  0  0  0  0  0  0  0  0  0  0  0
   -9.4460   20.2860  -32.2950 C   0  0  0  0  0  0  0  0  0  0  0  0
   -8.4590   21.2200  -31.9670 C   0  0  0  0  0  0  0  0  0  0  0  0
   -4.6590   21.4010  -31.8410 C   0  0  0  0  0  0  0  0  0  0  0  0
   -3.7790   20.8810  -30.8680 C   0  0  0  0  0  0  0  0  0  0  0  0
   -2.4790   20.4960  -31.2060 C   0  0  0  0  0  0  0  0  0  0  0  0
   -2.0220   20.6510  -32.5150 C   0  0  0  0  0  0  0  0  0  0  0  0
   -2.8570   21.2070  -33.4830 C   0  0  0  0  0  0  0  0  0  0  0  0
   -4.1580   21.5970  -33.1480 C   0  0  0  0  0  0  0  0  0  0  0  0
   -1.7582   22.1395  -27.2830 H   0  0  0  0  0  0  0  0  0  0  0  0
   -2.3081   21.3041  -28.7751 H   0  0  0  0  0  0  0  0  0  0  0  0
   -2.0811   23.0860  -28.7751 H   0  0  0  0  0  0  0  0  0  0  0  0
   -4.4870   21.7253  -28.3313 H   0  0  0  0  0  0  0  0  0  0  0  0
   -3.9068   22.1889  -26.6629 H   0  0  0  0  0  0  0  0  0  0  0  0
   -5.4070   23.7310  -27.9590 H   0  0  0  0  0  0  0  0  0  0  0  0
   -4.6782   25.4919  -26.7142 H   0  0  0  0  0  0  0  0  0  0  0  0
   -4.1342   23.9799  -25.8536 H   0  0  0  0  0  0  0  0  0  0  0  0
   -2.2015   25.2301  -25.7248 H   0  0  0  0  0  0  0  0  0  0  0  0
   -1.9288   24.3742  -27.2803 H   0  0  0  0  0  0  0  0  0  0  0  0
   -2.5049   26.0756  -27.2803 H   0  0  0  0  0  0  0  0  0  0  0  0
   -3.2683   25.2573  -28.9888 H   0  0  0  0  0  0  0  0  0  0  0  0
   -3.4375   23.6103  -29.7908 H   0  0  0  0  0  0  0  0  0  0  0  0
   -5.1613   26.0218  -30.0041 H   0  0  0  0  0  0  0  0  0  0  0  0
   -4.8707   24.6780  -31.1611 H   0  0  0  0  0  0  0  0  0  0  0  0
   -6.8340   24.9440  -29.0310 H   0  0  0  0  0  0  0  0  0  0  0  0
   -8.1424   23.5617  -30.5153 H   0  0  0  0  0  0  0  0  0  0  0  0
   -7.5109   25.0612  -31.2819 H   0  0  0  0  0  0  0  0  0  0  0  0
   -7.2037   23.1014  -32.7624 H   0  0  0  0  0  0  0  0  0  0  0  0
   -5.6057   23.7914  -32.1916 H   0  0  0  0  0  0  0  0  0  0  0  0
   -5.9615   21.9374  -30.3238 H   0  0  0  0  0  0  0  0  0  0  0  0
   -5.7781   19.1059  -31.7204 H   0  0  0  0  0  0  0  0  0  0  0  0
   -7.5469   17.4457  -32.2992 H   0  0  0  0  0  0  0  0  0  0  0  0
   -9.8989   18.1996  -32.6678 H   0  0  0  0  0  0  0  0  0  0  0  0
  -10.4816   20.6174  -32.4613 H   0  0  0  0  0  0  0  0  0  0  0  0
   -8.7209   22.2853  -31.8859 H   0  0  0  0  0  0  0  0  0  0  0  0
   -4.1216   20.7772  -29.8279 H   0  0  0  0  0  0  0  0  0  0  0  0
   -1.8152   20.0702  -30.4391 H   0  0  0  0  0  0  0  0  0  0  0  0
   -1.0032   20.3346  -32.7832 H   0  0  0  0  0  0  0  0  0  0  0  0
   -2.4921   21.3393  -34.5123 H   0  0  0  0  0  0  0  0  0  0  0  0
   -4.7991   22.0620  -33.9113 H   0  0  0  0  0  0  0  0  0  0  0  0
  1  2  1  0
  2  3  1  0
  3  4  1  0
  4  5  1  0
  3  6  1  0
  6  7  1  0
  7  8  1  0
  8  9  1  0
  9 10  1  0
 10 11  1  0
 11 12  1  0
 12 13  2  0
 13 14  1  0
 14 15  2  0
 15 16  1  0
 16 17  2  0
 11 18  1  0
 18 19  2  0
 19 20  1  0
 20 21  2  0
 21 22  1  0
 22 23  2  0
 17 12  1  0
 23 18  1  0
  1 24  1  0
  1 25  1  0
  1 26  1  0
  2 27  1  0
  2 28  1  0
  3 29  1  0
  4 30  1  0
  4 31  1  0
  5 32  1  0
  5 33  1  0
  5 34  1  0
  6 35  1  0
  6 36  1  0
  7 37  1  0
  7 38  1  0
  8 39  1  0
  9 40  1  0
  9 41  1  0
 10 42  1  0
 10 43  1  0
 11 44  1  0
 13 45  1  0
 14 46  1  0
 15 47  1  0
 16 48  1  0
 17 49  1  0
 19 50  1  0
 20 51  1  0
 21 52  1  0
 22 53  1  0
 23 54  1  0
M  CHG  1   3   1
M  END
>  <UniqueID>  (19) 
18

>  <SMILES>  (19) 
CC[NH+](CC)CCNCCC(c1ccccc1)c1ccccc1

>  <Energy>  (19) 
58.57091607242188

>  <Genealogy>  (19) 
CC[NH+](CC)CCNCCC(c1ccccc1)c1ccccc1 (protonated)
CC[NH+](CC)CCNCCC(c1ccccc1)c1ccccc1 (3D coordinates assigned)
CC[NH+](CC)CCNCCC(c1ccccc1)c1ccccc1 (optimized conformer: 58.57091607242188 kcal/mol)

>  <smiles>  (19) 
CCN(CC)CCNCCC(c1ccccc1)c1ccccc1

>  <score_type>  (19) 
oracle

>  <origin>  (19) 
adg

>  <m_score__min__energy>  (19) 
-7.3399999999999999

>  <m_primary>  (19) 
energy

$$$$
19:0
     RDKit          3D

 37 40  0  0  0  0  0  0  0  0999 V2000
   -3.8690   24.1840  -27.5840 C   0  0  0  0  0  0  0  0  0  0  0  0
   -2.5550   24.3690  -28.3340 C   0  0  0  0  0  0  0  0  0  0  0  0
   -2.7870   24.9330  -29.6230 O   0  0  0  0  0  0  0  0  0  0  0  0
   -3.8410   24.5430  -30.4570 C   0  0  0  0  0  0  0  0  0  0  0  0
   -4.6860   25.3930  -30.8530 O   0  0  0  0  0  0  0  0  0  0  0  0
   -3.9450   23.1410  -30.9030 C   0  0  0  0  0  0  0  0  0  0  0  0
   -5.1020   22.4270  -31.2200 C   0  0  0  0  0  0  0  0  0  0  0  0
   -4.7180   21.1460  -31.5560 C   0  0  0  0  0  0  0  0  0  0  0  0
   -3.3740   21.0300  -31.4680 N   0  0  0  0  0  0  0  0  0  0  0  0
   -2.5630   19.9600  -31.6990 C   0  0  0  0  0  0  0  0  0  0  0  0
   -1.1820   20.1100  -31.5130 C   0  0  0  0  0  0  0  0  0  0  0  0
   -0.6700   21.3470  -31.0920 C   0  0  0  0  0  0  0  0  0  0  0  0
   -1.5310   22.4280  -30.8640 C   0  0  0  0  0  0  0  0  0  0  0  0
   -2.9010   22.2340  -31.0750 C   0  0  0  0  0  0  0  0  0  0  0  0
   -5.7070   20.1230  -31.9540 C   0  0  0  0  0  0  0  0  0  0  0  0
   -5.3490   18.9540  -32.2540 O   0  0  0  0  0  0  0  0  0  0  0  0
   -7.1440   20.5100  -31.9900 C   0  0  0  0  0  0  0  0  0  0  0  0
   -8.1260   19.5670  -32.3400 C   0  0  0  0  0  0  0  0  0  0  0  0
   -9.4740   19.9310  -32.3780 C   0  0  0  0  0  0  0  0  0  0  0  0
   -9.8580   21.2350  -32.0680 C   0  0  0  0  0  0  0  0  0  0  0  0
   -8.8980   22.1870  -31.7180 C   0  0  0  0  0  0  0  0  0  0  0  0
   -7.5350   21.8390  -31.6740 C   0  0  0  0  0  0  0  0  0  0  0  0
   -6.5110   22.8540  -31.3050 C   0  0  0  0  0  0  0  0  0  0  0  0
   -6.8380   24.0530  -31.1050 O   0  0  0  0  0  0  0  0  0  0  0  0
   -3.6798   24.2106  -26.5007 H   0  0  0  0  0  0  0  0  0  0  0  0
   -4.5630   24.9933  -27.8550 H   0  0  0  0  0  0  0  0  0  0  0  0
   -4.3125   23.2146  -27.8550 H   0  0  0  0  0  0  0  0  0  0  0  0
   -1.9016   25.0407  -27.7579 H   0  0  0  0  0  0  0  0  0  0  0  0
   -2.0766   23.3863  -28.4582 H   0  0  0  0  0  0  0  0  0  0  0  0
   -2.9837   18.9974  -32.0250 H   0  0  0  0  0  0  0  0  0  0  0  0
   -0.5037   19.2635  -31.6958 H   0  0  0  0  0  0  0  0  0  0  0  0
    0.4127   21.4682  -30.9403 H   0  0  0  0  0  0  0  0  0  0  0  0
   -1.1419   23.4008  -30.5290 H   0  0  0  0  0  0  0  0  0  0  0  0
   -7.8310   18.5361  -32.5855 H   0  0  0  0  0  0  0  0  0  0  0  0
  -10.2353   19.1863  -32.6535 H   0  0  0  0  0  0  0  0  0  0  0  0
  -10.9213   21.5151  -32.0992 H   0  0  0  0  0  0  0  0  0  0  0  0
   -9.2087   23.2140  -31.4755 H   0  0  0  0  0  0  0  0  0  0  0  0
  1  2  1  0
  2  3  1  0
  3  4  1  0
  4  5  2  0
  4  6  1  0
  6  7  1  0
  7  8  2  0
  8  9  1  0
  9 10  1  0
 10 11  2  0
 11 12  1  0
 12 13  2  0
 13 14  1  0
  8 15  1  0
 15 16  2  0
 15 17  1  0
 17 18  2  0
 18 19  1  0
 19 20  2  0
 20 21  1  0
 21 22  2  0
 22 23  1  0
 23 24  2  0
 14  6  2  0
 22 17  1  0
 23  7  1  0
 14  9  1  0
  1 25  1  0
  1 26  1  0
  1 27  1  0
  2 28  1  0
  2 29  1  0
 10 30  1  0
 11 31  1  0
 12 32  1  0
 13 33  1  0
 18 34  1  0
 19 35  1  0
 20 36  1  0
 21 37  1  0
M  END
>  <UniqueID>  (20) 
19

>  <SMILES>  (20) 
CCOC(=O)c1c2c(n3ccccc13)C(=O)c1ccccc1C2=O

>  <Energy>  (20) 
81.10218966921488

>  <Genealogy>  (20) 
CCOC(=O)c1c2c(n3ccccc13)C(=O)c1ccccc1C2=O (3D coordinates assigned)
CCOC(=O)c1c2c(n3ccccc13)C(=O)c1ccccc1C2=O (nonaromatic ring conformer: 81.10218966921488 kcal/mol)

>  <smiles>  (20) 
CCOC(=O)c1c2c(n3ccccc13)C(=O)c1ccccc1C2=O

>  <score_type>  (20) 
oracle

>  <origin>  (20) 
adg

>  <m_score__min__energy>  (20) 
-8.7899999999999991

>  <m_primary>  (20) 
energy

$$$$
20:0
     RDKit          3D

 40 41  0  0  0  0  0  0  0  0999 V2000
   -0.4960   21.6380  -30.4310 C   0  0  0  0  0  0  0  0  0  0  0  0
   -1.0350   22.0350  -29.1180 N   0  0  0  0  0  0  0  0  0  0  0  0
    0.0330   21.9580  -28.1050 C   0  0  0  0  0  0  0  0  0  0  0  0
   -2.1810   21.1880  -28.7150 C   0  0  0  0  0  0  0  0  0  0  0  0
   -3.1850   21.9280  -27.8180 C   0  0  0  0  0  0  0  0  0  0  0  0
   -2.6720   23.2060  -27.4840 O   0  0  0  0  0  0  0  0  0  0  0  0
   -3.5080   24.2240  -27.9900 C   0  0  0  0  0  0  0  0  0  0  0  0
   -2.8660   24.8140  -29.2130 C   0  0  0  0  0  0  0  0  0  0  0  0
   -1.6560   25.1710  -29.1660 O   0  0  0  0  0  0  0  0  0  0  0  0
   -3.5610   24.8860  -30.4670 N   0  0  0  0  0  0  0  0  0  0  0  0
   -4.8150   24.2510  -30.7420 C   0  0  0  0  0  0  0  0  0  0  0  0
   -6.0130   24.8730  -30.3680 C   0  0  0  0  0  0  0  0  0  0  0  0
   -7.2350   24.2490  -30.6000 C   0  0  0  0  0  0  0  0  0  0  0  0
   -7.2800   22.9950  -31.2220 C   0  0  0  0  0  0  0  0  0  0  0  0
   -8.5100   22.3520  -31.4160 C   0  0  0  0  0  0  0  0  0  0  0  0
   -8.5570   21.0970  -32.0220 C   0  0  0  0  0  0  0  0  0  0  0  0
   -7.3820   20.4770  -32.4470 C   0  0  0  0  0  0  0  0  0  0  0  0
   -6.1500   21.1070  -32.2650 C   0  0  0  0  0  0  0  0  0  0  0  0
   -6.0780   22.3710  -31.6470 C   0  0  0  0  0  0  0  0  0  0  0  0
   -4.8430   23.0200  -31.4200 C   0  0  0  0  0  0  0  0  0  0  0  0
   -3.3110   22.2840  -31.9040 Cl  0  0  0  0  0  0  0  0  0  0  0  0
    0.3820   20.9913  -30.2866 H   0  0  0  0  0  0  0  0  0  0  0  0
   -1.2665   21.0900  -30.9932 H   0  0  0  0  0  0  0  0  0  0  0  0
   -0.2012   22.5364  -30.9932 H   0  0  0  0  0  0  0  0  0  0  0  0
   -1.3380   23.0340  -29.1760 H   0  0  0  0  0  0  0  0  0  0  0  0
   -0.4122   21.9901  -27.0996 H   0  0  0  0  0  0  0  0  0  0  0  0
    0.5895   21.0174  -28.2297 H   0  0  0  0  0  0  0  0  0  0  0  0
    0.7187   22.8090  -28.2297 H   0  0  0  0  0  0  0  0  0  0  0  0
   -2.7035   20.8498  -29.6220 H   0  0  0  0  0  0  0  0  0  0  0  0
   -1.7797   20.3439  -28.1349 H   0  0  0  0  0  0  0  0  0  0  0  0
   -4.1382   22.0449  -28.3544 H   0  0  0  0  0  0  0  0  0  0  0  0
   -3.3490   21.3483  -26.8977 H   0  0  0  0  0  0  0  0  0  0  0  0
   -4.4879   23.8002  -28.2548 H   0  0  0  0  0  0  0  0  0  0  0  0
   -3.6491   25.0049  -27.2283 H   0  0  0  0  0  0  0  0  0  0  0  0
   -5.9877   25.8621  -29.8873 H   0  0  0  0  0  0  0  0  0  0  0  0
   -8.1691   24.7425  -30.2937 H   0  0  0  0  0  0  0  0  0  0  0  0
   -9.4409   22.8386  -31.0894 H   0  0  0  0  0  0  0  0  0  0  0  0
   -9.5246   20.5939  -32.1655 H   0  0  0  0  0  0  0  0  0  0  0  0
   -7.4265   19.4883  -32.9272 H   0  0  0  0  0  0  0  0  0  0  0  0
   -5.2284   20.6130  -32.6066 H   0  0  0  0  0  0  0  0  0  0  0  0
  1  2  1  0
  2  3  1  0
  2  4  1  0
  4  5  1  0
  5  6  1  0
  6  7  1  0
  7  8  1  0
  8  9  2  0
  8 10  1  0
 10 11  1  0
 11 12  2  0
 12 13  1  0
 13 14  2  0
 14 15  1  0
 15 16  2  0
 16 17  1  0
 17 18  2  0
 18 19  1  0
 19 20  2  0
 20 21  1  0
 20 11  1  0
 19 14  1  0
  1 22  1  0
  1 23  1  0
  1 24  1  0
  2 25  1  0
  3 26  1  0
  3 27  1  0
  3 28  1  0
  4 29  1  0
  4 30  1  0
  5 31  1  0
  5 32  1  0
  7 33  1  0
  7 34  1  0
 12 35  1  0
 13 36  1  0
 15 37  1  0
 16 38  1  0
 17 39  1  0
 18 40  1  0
M  CHG  2   2   1  10  -1
M  END
>  <UniqueID>  (21) 
20

>  <SMILES>  (21) 
C[NH+](C)CCOCC(=O)[N-]c1ccc2ccccc2c1Cl

>  <Energy>  (21) 
47.44663874212422

>  <Genealogy>  (21) 
C[NH+](C)CCOCC(=O)[N-]c1ccc2ccccc2c1Cl (protonated)
C[NH+](C)CCOCC(=O)[N-]c1ccc2ccccc2c1Cl (3D coordinates assigned)
C[NH+](C)CCOCC(=O)[N-]c1ccc2ccccc2c1Cl (optimized conformer: 47.44663874212422 kcal/mol)

>  <smiles>  (21) 
CN(C)CCOCC(=O)Nc1ccc2ccccc2c1Cl

>  <score_type>  (21) 
oracle

>  <origin>  (21) 
adg

>  <m_score__min__energy>  (21) 
-8.1699999999999999

>  <m_primary>  (21) 
energy

$$$$
21:0
     RDKit          3D

 19 20  0  0  0  0  0  0  0  0999 V2000
   -3.1890   21.5490  -32.8480 C   0  0  0  0  0  0  0  0  0  0  0  0
   -3.8810   22.7050  -32.3910 O   0  0  0  0  0  0  0  0  0  0  0  0
   -5.2240   22.7140  -31.9910 C   0  0  0  0  0  0  0  0  0  0  0  0
   -6.1330   21.6800  -32.3340 C   0  0  0  0  0  0  0  0  0  0  0  0
   -7.4800   21.7310  -31.9070 C   0  0  0  0  0  0  0  0  0  0  0  0
   -7.9450   22.8100  -31.1330 C   0  0  0  0  0  0  0  0  0  0  0  0
   -7.0340   23.8080  -30.8120 C   0  0  0  0  0  0  0  0  0  0  0  0
   -7.2360   24.9270  -30.0910 N   0  0  0  0  0  0  0  0  0  0  0  0
   -6.0720   25.5270  -30.0790 O   0  0  0  0  0  0  0  0  0  0  0  0
   -5.1510   24.8760  -30.7340 N   0  0  0  0  0  0  0  0  0  0  0  0
   -3.8470   25.3010  -30.8680 O   0  0  0  0  0  0  0  0  0  0  0  0
   -5.7330   23.7660  -31.2200 C   0  0  0  0  0  0  0  0  0  0  0  0
   -2.8395   20.9652  -31.9837 H   0  0  0  0  0  0  0  0  0  0  0  0
   -3.8668   20.9327  -33.4568 H   0  0  0  0  0  0  0  0  0  0  0  0
   -2.3256   21.8553  -33.4568 H   0  0  0  0  0  0  0  0  0  0  0  0
   -5.7860   20.8292  -32.9388 H   0  0  0  0  0  0  0  0  0  0  0  0
   -8.1703   20.9201  -32.1823 H   0  0  0  0  0  0  0  0  0  0  0  0
   -8.9905   22.8612  -30.7949 H   0  0  0  0  0  0  0  0  0  0  0  0
   -3.2390   24.9450  -31.5920 H   0  0  0  0  0  0  0  0  0  0  0  0
  1  2  1  0
  2  3  1  0
  3  4  2  0
  4  5  1  0
  5  6  2  0
  6  7  1  0
  7  8  2  0
  8  9  1  0
  9 10  1  0
 10 11  1  0
 10 12  2  0
 12  3  1  0
 12  7  1  0
  1 13  1  0
  1 14  1  0
  1 15  1  0
  4 16  1  0
  5 17  1  0
  6 18  1  0
 11 19  1  0
M  CHG  1  10   1
M  END
>  <UniqueID>  (22) 
21

>  <SMILES>  (22) 
COc1cccc2no[n+](O)c12

>  <Energy>  (22) 
65.89914510366754

>  <Genealogy>  (22) 
COc1cccc2no[n+](O)c12 (protonated)
COc1cccc2no[n+](O)c12 (3D coordinates assigned)
COc1cccc2no[n+](O)c12 (optimized conformer: 65.89914510366754 kcal/mol)

>  <smiles>  (22) 
COc1cccc2no[n+]([O-])c12

>  <score_type>  (22) 
oracle

>  <origin>  (22) 
adg

>  <m_score__min__energy>  (22) 
-5.4400000000000004

>  <m_primary>  (22) 
energy

$$$$
22:0
     RDKit          3D

 59 60  0  0  0  0  0  0  0  0999 V2000
   -4.5950   13.2760  -30.8860 C   0  0  0  0  0  0  0  0  0  0  0  0
   -4.6090   13.6380  -32.3710 C   0  0  0  0  0  0  0  0  0  0  0  0
   -4.8410   15.1380  -32.6090 C   0  0  0  0  0  0  0  0  0  0  0  0
   -5.1830   15.4550  -34.0760 C   0  0  0  0  0  0  0  0  0  0  0  0
   -6.5430   16.1630  -34.2220 C   0  0  0  0  0  0  0  0  0  0  0  0
   -6.9910   16.9470  -32.9710 C   0  0  0  0  0  0  0  0  0  0  0  0
   -6.4750   18.3340  -32.9600 N   0  0  0  0  0  0  0  0  0  0  0  0
   -5.1410   18.4710  -33.2170 C   0  0  0  0  0  0  0  0  0  0  0  0
   -4.5310   19.7120  -33.2490 C   0  0  0  0  0  0  0  0  0  0  0  0
   -5.2700   20.8810  -33.0410 C   0  0  0  0  0  0  0  0  0  0  0  0
   -4.5850   22.1590  -33.1730 N   0  0  0  0  0  0  0  0  0  0  0  0
   -3.4040   22.2870  -32.2940 C   0  0  0  0  0  0  0  0  0  0  0  0
   -3.6020   23.2600  -31.1080 C   0  0  0  0  0  0  0  0  0  0  0  0
   -5.0030   23.7250  -30.9620 N   0  0  0  0  0  0  0  0  0  0  0  0
   -5.6560   23.0960  -29.7890 C   0  0  0  0  0  0  0  0  0  0  0  0
   -4.6290   22.8250  -28.6920 C   0  0  0  0  0  0  0  0  0  0  0  0
   -5.0360   25.2040  -30.8360 C   0  0  0  0  0  0  0  0  0  0  0  0
   -6.1540   25.6470  -29.8960 C   0  0  0  0  0  0  0  0  0  0  0  0
   -6.6420   20.7540  -32.6720 C   0  0  0  0  0  0  0  0  0  0  0  0
   -7.4290   21.8670  -32.2820 C   0  0  0  0  0  0  0  0  0  0  0  0
   -8.7750   21.7200  -31.9650 C   0  0  0  0  0  0  0  0  0  0  0  0
   -9.3720   20.4710  -32.0140 C   0  0  0  0  0  0  0  0  0  0  0  0
   -8.6230   19.3490  -32.3550 C   0  0  0  0  0  0  0  0  0  0  0  0
   -7.2440   19.4510  -32.6730 C   0  0  0  0  0  0  0  0  0  0  0  0
   -4.6306   14.1960  -30.2840 H   0  0  0  0  0  0  0  0  0  0  0  0
   -5.4696   12.6511  -30.6527 H   0  0  0  0  0  0  0  0  0  0  0  0
   -3.6747   12.7205  -30.6527 H   0  0  0  0  0  0  0  0  0  0  0  0
   -3.6413   13.3565  -32.8118 H   0  0  0  0  0  0  0  0  0  0  0  0
   -5.4412   13.0926  -32.8400 H   0  0  0  0  0  0  0  0  0  0  0  0
   -5.6737   15.4717  -31.9724 H   0  0  0  0  0  0  0  0  0  0  0  0
   -3.9074   15.6645  -32.3617 H   0  0  0  0  0  0  0  0  0  0  0  0
   -4.3991   16.1072  -34.4885 H   0  0  0  0  0  0  0  0  0  0  0  0
   -5.2414   14.5010  -34.6205 H   0  0  0  0  0  0  0  0  0  0  0  0
   -6.4753   16.8679  -35.0638 H   0  0  0  0  0  0  0  0  0  0  0  0
   -7.2921   15.3737  -34.3828 H   0  0  0  0  0  0  0  0  0  0  0  0
   -8.0903   16.9788  -32.9489 H   0  0  0  0  0  0  0  0  0  0  0  0
   -6.5850   16.4310  -32.0884 H   0  0  0  0  0  0  0  0  0  0  0  0
   -4.5360   17.5714  -33.4034 H   0  0  0  0  0  0  0  0  0  0  0  0
   -3.4500   19.7804  -33.4406 H   0  0  0  0  0  0  0  0  0  0  0  0
   -5.2640   22.9130  -32.9160 H   0  0  0  0  0  0  0  0  0  0  0  0
   -4.2660   22.3740  -34.1370 H   0  0  0  0  0  0  0  0  0  0  0  0
   -3.1655   21.2925  -31.8888 H   0  0  0  0  0  0  0  0  0  0  0  0
   -2.5925   22.7001  -32.9111 H   0  0  0  0  0  0  0  0  0  0  0  0
   -3.3055   22.7468  -30.1813 H   0  0  0  0  0  0  0  0  0  0  0  0
   -2.9819   24.1468  -31.3054 H   0  0  0  0  0  0  0  0  0  0  0  0
   -6.4322   23.7716  -29.4003 H   0  0  0  0  0  0  0  0  0  0  0  0
   -6.1073   22.1422  -30.0998 H   0  0  0  0  0  0  0  0  0  0  0  0
   -5.1028   22.9500  -27.7072 H   0  0  0  0  0  0  0  0  0  0  0  0
   -4.2513   21.7965  -28.7893 H   0  0  0  0  0  0  0  0  0  0  0  0
   -3.7930   23.5333  -28.7893 H   0  0  0  0  0  0  0  0  0  0  0  0
   -4.0717   25.5529  -30.4380 H   0  0  0  0  0  0  0  0  0  0  0  0
   -5.2213   25.6368  -31.8301 H   0  0  0  0  0  0  0  0  0  0  0  0
   -5.8288   25.5181  -28.8531 H   0  0  0  0  0  0  0  0  0  0  0  0
   -6.3886   26.7060  -30.0787 H   0  0  0  0  0  0  0  0  0  0  0  0
   -7.0503   25.0361  -30.0787 H   0  0  0  0  0  0  0  0  0  0  0  0
   -6.9670   22.8639  -32.2293 H   0  0  0  0  0  0  0  0  0  0  0  0
   -9.3682   22.5994  -31.6741 H   0  0  0  0  0  0  0  0  0  0  0  0
  -10.4422   20.3658  -31.7825 H   0  0  0  0  0  0  0  0  0  0  0  0
   -9.1099   18.3629  -32.3785 H   0  0  0  0  0  0  0  0  0  0  0  0
  1  2  1  0
  2  3  1  0
  3  4  1  0
  4  5  1  0
  5  6  1  0
  6  7  1  0
  7  8  2  0
  8  9  1  0
  9 10  2  0
 10 11  1  0
 11 12  1  0
 12 13  1  0
 13 14  1  0
 14 15  1  0
 15 16  1  0
 14 17  1  0
 17 18  1  0
 10 19  1  0
 19 20  2  0
 20 21  1  0
 21 22  2  0
 22 23  1  0
 23 24  2  0
 24  7  1  0
 24 19  1  0
  1 25  1  0
  1 26  1  0
  1 27  1  0
  2 28  1  0
  2 29  1  0
  3 30  1  0
  3 31  1  0
  4 32  1  0
  4 33  1  0
  5 34  1  0
  5 35  1  0
  6 36  1  0
  6 37  1  0
  8 38  1  0
  9 39  1  0
 11 40  1  0
 11 41  1  0
 12 42  1  0
 12 43  1  0
 13 44  1  0
 13 45  1  0
 15 46  1  0
 15 47  1  0
 16 48  1  0
 16 49  1  0
 16 50  1  0
 17 51  1  0
 17 52  1  0
 18 53  1  0
 18 54  1  0
 18 55  1  0
 20 56  1  0
 21 57  1  0
 22 58  1  0
 23 59  1  0
M  CHG  2   7   1  11   1
M  END
>  <UniqueID>  (23) 
22

>  <SMILES>  (23) 
CCCCCC[n+]1ccc([NH2+]CCN(CC)CC)c2ccccc21

>  <Energy>  (23) 
62.80513213025389

>  <Genealogy>  (23) 
CCCCCC[n+]1ccc([NH2+]CCN(CC)CC)c2ccccc21 (protonated)
CCCCCC[n+]1ccc([NH2+]CCN(CC)CC)c2ccccc21 (3D coordinates assigned)
CCCCCC[n+]1ccc([NH2+]CCN(CC)CC)c2ccccc21 (optimized conformer: 62.80513213025389 kcal/mol)

>  <smiles>  (23) 
CCCCCC[n+]1ccc(NCCN(CC)CC)c2ccccc21

>  <score_type>  (23) 
oracle

>  <origin>  (23) 
adg

>  <m_score__min__energy>  (23) 
-6.9900000000000002

>  <m_primary>  (23) 
energy

$$$$
23:0
     RDKit          3D

 50 52  0  0  0  0  0  0  0  0999 V2000
   -4.4730   13.7450  -31.5910 C   0  0  0  0  0  0  0  0  0  0  0  0
   -3.9130   13.8490  -33.0050 C   0  0  0  0  0  0  0  0  0  0  0  0
   -4.0950   15.2150  -33.5130 N   0  0  0  0  0  0  0  0  0  0  0  0
   -2.8370   15.8010  -34.0000 C   0  0  0  0  0  0  0  0  0  0  0  0
   -3.0650   16.9910  -34.9470 C   0  0  0  0  0  0  0  0  0  0  0  0
   -4.2520   16.7970  -35.6950 O   0  0  0  0  0  0  0  0  0  0  0  0
   -5.2570   17.7230  -35.3200 C   0  0  0  0  0  0  0  0  0  0  0  0
   -6.0570   17.2020  -34.1240 C   0  0  0  0  0  0  0  0  0  0  0  0
   -5.4000   17.5690  -32.8690 N   0  0  0  0  0  0  0  0  0  0  0  0
   -5.0900   18.9250  -32.5050 C   0  0  0  0  0  0  0  0  0  0  0  0
   -3.7620   19.3490  -32.3540 C   0  0  0  0  0  0  0  0  0  0  0  0
   -2.7270   18.5050  -32.5950 F   0  0  0  0  0  0  0  0  0  0  0  0
   -3.4820   20.6570  -31.9740 C   0  0  0  0  0  0  0  0  0  0  0  0
   -4.5180   21.5850  -31.7680 C   0  0  0  0  0  0  0  0  0  0  0  0
   -4.2280   22.8910  -31.3290 C   0  0  0  0  0  0  0  0  0  0  0  0
   -3.0290   23.2390  -31.1380 O   0  0  0  0  0  0  0  0  0  0  0  0
   -5.2730   23.7990  -31.0890 C   0  0  0  0  0  0  0  0  0  0  0  0
   -5.0200   25.1740  -30.5770 C   0  0  0  0  0  0  0  0  0  0  0  0
   -3.8620   25.6680  -30.6210 O   0  0  0  0  0  0  0  0  0  0  0  0
   -6.0500   25.9420  -30.0460 O   0  0  0  0  0  0  0  0  0  0  0  0
   -6.5870   23.3890  -31.3540 C   0  0  0  0  0  0  0  0  0  0  0  0
   -6.8680   22.1500  -31.8630 N   0  0  0  0  0  0  0  0  0  0  0  0
   -8.2770   21.8660  -32.1950 C   0  0  0  0  0  0  0  0  0  0  0  0
   -9.2400   21.8670  -31.0060 C   0  0  0  0  0  0  0  0  0  0  0  0
   -9.2240   23.0410  -31.9600 C   0  0  0  0  0  0  0  0  0  0  0  0
   -5.8680   21.2040  -31.9930 C   0  0  0  0  0  0  0  0  0  0  0  0
   -6.1350   19.8470  -32.3290 C   0  0  0  0  0  0  0  0  0  0  0  0
   -7.4030   19.3720  -32.4140 F   0  0  0  0  0  0  0  0  0  0  0  0
   -3.6619   13.8956  -30.8634 H   0  0  0  0  0  0  0  0  0  0  0  0
   -5.2446   14.5152  -31.4446 H   0  0  0  0  0  0  0  0  0  0  0  0
   -4.9166   12.7491  -31.4446 H   0  0  0  0  0  0  0  0  0  0  0  0
   -2.8407   13.6041  -32.9920 H   0  0  0  0  0  0  0  0  0  0  0  0
   -4.4464   13.1440  -33.6596 H   0  0  0  0  0  0  0  0  0  0  0  0
   -4.7960   15.2000  -34.2920 H   0  0  0  0  0  0  0  0  0  0  0  0
   -2.2515   16.1464  -33.1352 H   0  0  0  0  0  0  0  0  0  0  0  0
   -2.3048   15.0225  -34.5663 H   0  0  0  0  0  0  0  0  0  0  0  0
   -3.1542   17.9145  -34.3560 H   0  0  0  0  0  0  0  0  0  0  0  0
   -2.2127   17.0698  -35.6380 H   0  0  0  0  0  0  0  0  0  0  0  0
   -4.7840   18.6784  -35.0489 H   0  0  0  0  0  0  0  0  0  0  0  0
   -5.9425   17.8624  -36.1689 H   0  0  0  0  0  0  0  0  0  0  0  0
   -7.0663   17.6390  -34.1455 H   0  0  0  0  0  0  0  0  0  0  0  0
   -6.1172   16.1054  -34.1867 H   0  0  0  0  0  0  0  0  0  0  0  0
   -4.9880   16.7930  -32.3020 H   0  0  0  0  0  0  0  0  0  0  0  0
   -2.4369   20.9696  -31.8328 H   0  0  0  0  0  0  0  0  0  0  0  0
   -7.4154   24.0824  -31.1471 H   0  0  0  0  0  0  0  0  0  0  0  0
   -8.0658   21.1753  -33.0246 H   0  0  0  0  0  0  0  0  0  0  0  0
  -10.0992   21.1803  -30.9945 H   0  0  0  0  0  0  0  0  0  0  0  0
   -9.1301   21.7494  -29.9178 H   0  0  0  0  0  0  0  0  0  0  0  0
  -10.0722   23.2068  -32.6405 H   0  0  0  0  0  0  0  0  0  0  0  0
   -9.0980   24.1281  -31.8494 H   0  0  0  0  0  0  0  0  0  0  0  0
  1  2  1  0
  2  3  1  0
  3  4  1  0
  4  5  1  0
  5  6  1  0
  6  7  1  0
  7  8  1  0
  8  9  1  0
  9 10  1  0
 10 11  2  0
 11 12  1  0
 11 13  1  0
 13 14  2  0
 14 15  1  0
 15 16  2  0
 15 17  1  0
 17 18  1  0
 18 19  2  0
 18 20  1  0
 17 21  2  0
 21 22  1  0
 22 23  1  0
 23 24  1  0
 24 25  1  0
 22 26  1  0
 26 27  2  0
 27 28  1  0
 27 10  1  0
 26 14  1  0
 25 23  1  0
  1 29  1  0
  1 30  1  0
  1 31  1  0
  2 32  1  0
  2 33  1  0
  3 34  1  0
  4 35  1  0
  4 36  1  0
  5 37  1  0
  5 38  1  0
  7 39  1  0
  7 40  1  0
  8 41  1  0
  8 42  1  0
  9 43  1  0
 13 44  1  0
 21 45  1  0
 23 46  1  0
 24 47  1  0
 24 48  1  0
 25 49  1  0
 25 50  1  0
M  CHG  1  20  -1
M  END
>  <UniqueID>  (24) 
23

>  <SMILES>  (24) 
CCNCCOCCNc1c(F)cc2c(=O)c(C(=O)[O-])cn(C3CC3)c2c1F

>  <Energy>  (24) 
332.1696049262851

>  <Genealogy>  (24) 
CCNCCOCCNc1c(F)cc2c(=O)c(C(=O)[O-])cn(C3CC3)c2c1F (protonated)
CCNCCOCCNc1c(F)cc2c(=O)c(C(=O)[O-])cn(C3CC3)c2c1F (3D coordinates assigned)
CCNCCOCCNc1c(F)cc2c(=O)c(C(=O)[O-])cn(C3CC3)c2c1F (nonaromatic ring conformer: 332.1696049262851 kcal/mol)

>  <smiles>  (24) 
CCNCCOCCNc1c(F)cc2c(=O)c(C(=O)O)cn(C3CC3)c2c1F

>  <score_type>  (24) 
oracle

>  <origin>  (24) 
adg

>  <m_score__min__energy>  (24) 
-9.1999999999999993

>  <m_primary>  (24) 
energy

$$$$
24:0
     RDKit          3D

 50 52  0  0  0  0  0  0  0  0999 V2000
   -3.9520   24.1570  -28.0590 C   0  0  0  0  0  0  0  0  0  0  0  0
   -3.2090   24.6110  -29.3100 C   0  0  0  0  0  0  0  0  0  0  0  0
   -4.0830   24.4860  -30.4960 N   0  0  0  0  0  0  0  0  0  0  0  0
   -5.2460   25.4000  -30.4830 C   0  0  0  0  0  0  0  0  0  0  0  0
   -6.5630   24.6290  -30.4450 C   0  0  0  0  0  0  0  0  0  0  0  0
   -4.4380   23.0810  -30.8220 C   0  0  0  0  0  0  0  0  0  0  0  0
   -3.7270   22.4840  -32.0630 C   0  0  0  0  0  0  0  0  0  0  0  0
   -4.6530   21.9130  -33.0490 N   0  0  0  0  0  0  0  0  0  0  0  0
   -5.1770   20.5700  -33.0010 C   0  0  0  0  0  0  0  0  0  0  0  0
   -4.3870   19.4300  -33.2570 C   0  0  0  0  0  0  0  0  0  0  0  0
   -2.9250   19.3790  -33.4660 C   0  0  0  0  0  0  0  0  0  0  0  0
   -2.2430   18.4760  -32.9120 O   0  0  0  0  0  0  0  0  0  0  0  0
   -2.2780   20.3830  -34.2640 N   0  0  0  0  0  0  0  0  0  0  0  0
   -0.8850   20.3480  -34.6140 C   0  0  0  0  0  0  0  0  0  0  0  0
   -0.1480   21.5430  -34.6310 C   0  0  0  0  0  0  0  0  0  0  0  0
    1.2050   21.5340  -34.9840 C   0  0  0  0  0  0  0  0  0  0  0  0
    1.8290   20.3340  -35.3360 C   0  0  0  0  0  0  0  0  0  0  0  0
    1.0990   19.1430  -35.3430 C   0  0  0  0  0  0  0  0  0  0  0  0
   -0.2540   19.1480  -34.9890 C   0  0  0  0  0  0  0  0  0  0  0  0
   -5.3790   18.0590  -33.3000 S   0  0  0  0  0  0  0  0  0  0  0  0
   -6.7850   18.8850  -32.9340 C   0  0  0  0  0  0  0  0  0  0  0  0
   -8.0100   18.3370  -32.7400 N   0  0  0  0  0  0  0  0  0  0  0  0
   -9.0470   19.1300  -32.3490 C   0  0  0  0  0  0  0  0  0  0  0  0
   -8.8390   20.4990  -32.1040 C   0  0  0  0  0  0  0  0  0  0  0  0
   -7.5650   21.0560  -32.2920 C   0  0  0  0  0  0  0  0  0  0  0  0
   -6.5300   20.2370  -32.7620 C   0  0  0  0  0  0  0  0  0  0  0  0
   -3.4044   24.4916  -27.1656 H   0  0  0  0  0  0  0  0  0  0  0  0
   -4.9622   24.5923  -28.0543 H   0  0  0  0  0  0  0  0  0  0  0  0
   -4.0256   23.0595  -28.0543 H   0  0  0  0  0  0  0  0  0  0  0  0
   -2.9055   25.6616  -29.1913 H   0  0  0  0  0  0  0  0  0  0  0  0
   -2.3208   23.9773  -29.4500 H   0  0  0  0  0  0  0  0  0  0  0  0
   -5.1837   26.0451  -29.5942 H   0  0  0  0  0  0  0  0  0  0  0  0
   -5.2238   26.0000  -31.4047 H   0  0  0  0  0  0  0  0  0  0  0  0
   -6.8571   24.4569  -29.3991 H   0  0  0  0  0  0  0  0  0  0  0  0
   -7.3442   25.2124  -30.9543 H   0  0  0  0  0  0  0  0  0  0  0  0
   -6.4367   23.6622  -30.9543 H   0  0  0  0  0  0  0  0  0  0  0  0
   -4.1837   22.4567  -29.9527 H   0  0  0  0  0  0  0  0  0  0  0  0
   -5.5111   23.0889  -31.0634 H   0  0  0  0  0  0  0  0  0  0  0  0
   -3.1480   23.2823  -32.5503 H   0  0  0  0  0  0  0  0  0  0  0  0
   -3.0871   21.6635  -31.7063 H   0  0  0  0  0  0  0  0  0  0  0  0
   -4.9900   22.5510  -33.8020 H   0  0  0  0  0  0  0  0  0  0  0  0
   -2.8080   21.2600  -34.4710 H   0  0  0  0  0  0  0  0  0  0  0  0
   -0.6376   22.4915  -34.3652 H   0  0  0  0  0  0  0  0  0  0  0  0
    1.7789   22.4724  -34.9846 H   0  0  0  0  0  0  0  0  0  0  0  0
    2.8949   20.3274  -35.6075 H   0  0  0  0  0  0  0  0  0  0  0  0
    1.5889   18.2001  -35.6273 H   0  0  0  0  0  0  0  0  0  0  0  0
   -0.8273   18.2093  -35.0039 H   0  0  0  0  0  0  0  0  0  0  0  0
  -10.0507   18.6975  -32.2245 H   0  0  0  0  0  0  0  0  0  0  0  0
   -9.6730   21.1316  -31.7658 H   0  0  0  0  0  0  0  0  0  0  0  0
   -7.3818   22.1185  -32.0739 H   0  0  0  0  0  0  0  0  0  0  0  0
  1  2  1  0
  2  3  1  0
  3  4  1  0
  4  5  1  0
  3  6  1  0
  6  7  1  0
  7  8  1  0
  8  9  1  0
  9 10  2  0
 10 11  1  0
 11 12  2  0
 11 13  1  0
 13 14  1  0
 14 15  2  0
 15 16  1  0
 16 17  2  0
 17 18  1  0
 18 19  2  0
 10 20  1  0
 20 21  1  0
 21 22  2  0
 22 23  1  0
 23 24  2  0
 24 25  1  0
 25 26  2  0
 26  9  1  0
 19 14  1  0
 26 21  1  0
  1 27  1  0
  1 28  1  0
  1 29  1  0
  2 30  1  0
  2 31  1  0
  4 32  1  0
  4 33  1  0
  5 34  1  0
  5 35  1  0
  5 36  1  0
  6 37  1  0
  6 38  1  0
  7 39  1  0
  7 40  1  0
  8 41  1  0
 13 42  1  0
 15 43  1  0
 16 44  1  0
 17 45  1  0
 18 46  1  0
 19 47  1  0
 23 48  1  0
 24 49  1  0
 25 50  1  0
M  END
>  <UniqueID>  (25) 
24

>  <SMILES>  (25) 
CCN(CC)CCNc1c(C(=O)Nc2ccccc2)sc2ncccc12

>  <Energy>  (25) 
97.5409304438992

>  <Genealogy>  (25) 
CCN(CC)CCNc1c(C(=O)Nc2ccccc2)sc2ncccc12 (3D coordinates assigned)
CCN(CC)CCNc1c(C(=O)Nc2ccccc2)sc2ncccc12 (optimized conformer: 97.5409304438992 kcal/mol)

>  <smiles>  (25) 
CCN(CC)CCNc1c(C(=O)Nc2ccccc2)sc2ncccc12

>  <score_type>  (25) 
oracle

>  <origin>  (25) 
adg

>  <m_score__min__energy>  (25) 
-8.4199999999999999

>  <m_primary>  (25) 
energy

$$$$
25:0
     RDKit          3D

 29 30  0  0  0  0  0  0  0  0999 V2000
   -1.4660   21.1270  -31.4340 C   0  0  0  0  0  0  0  0  0  0  0  0
   -2.1850   20.6640  -32.7030 C   0  0  0  0  0  0  0  0  0  0  0  0
   -3.1420   21.6670  -33.2020 N   0  0  0  0  0  0  0  0  0  0  0  0
   -4.5150   21.2510  -32.9980 C   0  0  0  0  0  0  0  0  0  0  0  0
   -4.9370   20.0070  -33.4960 C   0  0  0  0  0  0  0  0  0  0  0  0
   -6.2590   19.5920  -33.3610 C   0  0  0  0  0  0  0  0  0  0  0  0
   -7.1950   20.4100  -32.7200 C   0  0  0  0  0  0  0  0  0  0  0  0
   -8.5250   19.9830  -32.5820 C   0  0  0  0  0  0  0  0  0  0  0  0
   -9.4590   20.7900  -31.9300 C   0  0  0  0  0  0  0  0  0  0  0  0
   -9.0730   22.0250  -31.4070 C   0  0  0  0  0  0  0  0  0  0  0  0
   -7.7530   22.4650  -31.5380 C   0  0  0  0  0  0  0  0  0  0  0  0
   -6.7960   21.6700  -32.2040 C   0  0  0  0  0  0  0  0  0  0  0  0
   -5.4520   22.0930  -32.3510 C   0  0  0  0  0  0  0  0  0  0  0  0
   -5.0370   23.3710  -31.8470 N   0  0  0  0  0  0  0  0  0  0  0  0
   -5.7810   24.3650  -31.9690 O   0  0  0  0  0  0  0  0  0  0  0  0
   -3.8610   23.4830  -31.1420 O   0  0  0  0  0  0  0  0  0  0  0  0
   -2.0168   20.7723  -30.5504 H   0  0  0  0  0  0  0  0  0  0  0  0
   -0.4459   20.7156  -31.4197 H   0  0  0  0  0  0  0  0  0  0  0  0
   -1.4184   22.2259  -31.4197 H   0  0  0  0  0  0  0  0  0  0  0  0
   -1.4349   20.4717  -33.4842 H   0  0  0  0  0  0  0  0  0  0  0  0
   -2.7506   19.7536  -32.4557 H   0  0  0  0  0  0  0  0  0  0  0  0
   -2.9690   21.8230  -34.2210 H   0  0  0  0  0  0  0  0  0  0  0  0
   -2.9640   22.5870  -32.7350 H   0  0  0  0  0  0  0  0  0  0  0  0
   -4.2120   19.3511  -34.0001 H   0  0  0  0  0  0  0  0  0  0  0  0
   -6.5691   18.6153  -33.7607 H   0  0  0  0  0  0  0  0  0  0  0  0
   -8.8325   19.0085  -32.9893 H   0  0  0  0  0  0  0  0  0  0  0  0
  -10.5008   20.4520  -31.8283 H   0  0  0  0  0  0  0  0  0  0  0  0
   -9.8112   22.6551  -30.8892 H   0  0  0  0  0  0  0  0  0  0  0  0
   -7.4578   23.4382  -31.1189 H   0  0  0  0  0  0  0  0  0  0  0  0
  1  2  1  0
  2  3  1  0
  3  4  1  0
  4  5  2  0
  5  6  1  0
  6  7  2  0
  7  8  1  0
  8  9  2  0
  9 10  1  0
 10 11  2  0
 11 12  1  0
 12 13  2  0
 13 14  1  0
 14 15  2  0
 14 16  1  0
 13  4  1  0
 12  7  1  0
  1 17  1  0
  1 18  1  0
  1 19  1  0
  2 20  1  0
  2 21  1  0
  3 22  1  0
  3 23  1  0
  5 24  1  0
  6 25  1  0
  8 26  1  0
  9 27  1  0
 10 28  1  0
 11 29  1  0
M  CHG  3   3   1  14   1  16  -1
M  END
>  <UniqueID>  (26) 
25

>  <SMILES>  (26) 
CC[NH2+]c1ccc2ccccc2c1[N+](=O)[O-]

>  <Energy>  (26) 
41.08496807369672

>  <Genealogy>  (26) 
CC[NH2+]c1ccc2ccccc2c1[N+](=O)[O-] (protonated)
CC[NH2+]c1ccc2ccccc2c1[N+](=O)[O-] (3D coordinates assigned)
CC[NH2+]c1ccc2ccccc2c1[N+](=O)[O-] (optimized conformer: 41.08496807369672 kcal/mol)

>  <smiles>  (26) 
CCNc1ccc2ccccc2c1[N+](=O)[O-]

>  <score_type>  (26) 
oracle

>  <origin>  (26) 
adg

>  <m_score__min__energy>  (26) 
-6.3600000000000003

>  <m_primary>  (26) 
energy

$$$$
26:0
     RDKit          3D

 44 45  0  0  0  0  0  0  0  0999 V2000
   -6.4850   25.6830  -29.4120 C   0  0  0  0  0  0  0  0  0  0  0  0
   -5.9950   24.6940  -30.4660 C   0  0  0  0  0  0  0  0  0  0  0  0
   -4.9030   23.7770  -29.8980 C   0  0  0  0  0  0  0  0  0  0  0  0
   -3.5230   24.1260  -30.4620 C   0  0  0  0  0  0  0  0  0  0  0  0
   -2.7580   24.9200  -29.4910 N   0  0  0  0  0  0  0  0  0  0  0  0
   -2.9810   24.4450  -28.1190 C   0  0  0  0  0  0  0  0  0  0  0  0
   -2.0120   23.3350  -27.7960 C   0  0  0  0  0  0  0  0  0  0  0  0
   -2.5230   22.0760  -27.4370 C   0  0  0  0  0  0  0  0  0  0  0  0
   -1.6610   21.0130  -27.1570 C   0  0  0  0  0  0  0  0  0  0  0  0
   -2.3710   19.3090  -26.6690 Br  0  0  0  0  0  0  0  0  0  0  0  0
   -0.2810   21.1970  -27.2370 C   0  0  0  0  0  0  0  0  0  0  0  0
    0.2420   22.4400  -27.6010 C   0  0  0  0  0  0  0  0  0  0  0  0
   -0.6160   23.5210  -27.8900 C   0  0  0  0  0  0  0  0  0  0  0  0
   -0.1150   24.7760  -28.2740 O   0  0  0  0  0  0  0  0  0  0  0  0
    0.4660   25.7220  -27.3800 C   0  0  0  0  0  0  0  0  0  0  0  0
   -0.6160   26.6450  -26.8250 C   0  0  0  0  0  0  0  0  0  0  0  0
   -0.4940   26.7700  -25.3750 N   0  0  0  0  0  0  0  0  0  0  0  0
   -0.8330   25.8500  -24.4520 C   0  0  0  0  0  0  0  0  0  0  0  0
   -0.5940   26.3890  -23.2040 C   0  0  0  0  0  0  0  0  0  0  0  0
   -0.1150   27.6370  -23.3580 N   0  0  0  0  0  0  0  0  0  0  0  0
   -0.0650   27.8460  -24.6870 C   0  0  0  0  0  0  0  0  0  0  0  0
   -6.2847   25.2788  -28.4087 H   0  0  0  0  0  0  0  0  0  0  0  0
   -5.9569   26.6402  -29.5338 H   0  0  0  0  0  0  0  0  0  0  0  0
   -7.5665   25.8428  -29.5338 H   0  0  0  0  0  0  0  0  0  0  0  0
   -6.8422   24.0782  -30.8022 H   0  0  0  0  0  0  0  0  0  0  0  0
   -5.5716   25.2617  -31.3077 H   0  0  0  0  0  0  0  0  0  0  0  0
   -4.8792   23.8860  -28.8037 H   0  0  0  0  0  0  0  0  0  0  0  0
   -5.1398   22.7419  -30.1851 H   0  0  0  0  0  0  0  0  0  0  0  0
   -2.9760   23.1973  -30.6818 H   0  0  0  0  0  0  0  0  0  0  0  0
   -3.6524   24.7156  -31.3816 H   0  0  0  0  0  0  0  0  0  0  0  0
   -1.7410   24.8010  -29.7140 H   0  0  0  0  0  0  0  0  0  0  0  0
   -2.8298   25.2773  -27.4158 H   0  0  0  0  0  0  0  0  0  0  0  0
   -4.0095   24.0651  -28.0300 H   0  0  0  0  0  0  0  0  0  0  0  0
   -3.6111   21.9263  -27.3760 H   0  0  0  0  0  0  0  0  0  0  0  0
    0.3977   20.3608  -27.0128 H   0  0  0  0  0  0  0  0  0  0  0  0
    1.3317   22.5766  -27.6627 H   0  0  0  0  0  0  0  0  0  0  0  0
    0.9515   25.1885  -26.5495 H   0  0  0  0  0  0  0  0  0  0  0  0
    1.2111   26.3226  -27.9224 H   0  0  0  0  0  0  0  0  0  0  0  0
   -0.5120   27.6396  -27.2832 H   0  0  0  0  0  0  0  0  0  0  0  0
   -1.6014   26.2170  -27.0614 H   0  0  0  0  0  0  0  0  0  0  0  0
   -1.2307   24.8450  -24.6567 H   0  0  0  0  0  0  0  0  0  0  0  0
   -0.7665   25.8824  -22.2430 H   0  0  0  0  0  0  0  0  0  0  0  0
    0.1520   28.3080  -22.6050 H   0  0  0  0  0  0  0  0  0  0  0  0
    0.2830   28.7795  -25.1533 H   0  0  0  0  0  0  0  0  0  0  0  0
  1  2  1  0
  2  3  1  0
  3  4  1  0
  4  5  1  0
  5  6  1  0
  6  7  1  0
  7  8  2  0
  8  9  1  0
  9 10  1  0
  9 11  2  0
 11 12  1  0
 12 13  2  0
 13 14  1  0
 14 15  1  0
 15 16  1  0
 16 17  1  0
 17 18  1  0
 18 19  2  0
 19 20  1  0
 20 21  2  0
 13  7  1  0
 21 17  1  0
  1 22  1  0
  1 23  1  0
  1 24  1  0
  2 25  1  0
  2 26  1  0
  3 27  1  0
  3 28  1  0
  4 29  1  0
  4 30  1  0
  5 31  1  0
  6 32  1  0
  6 33  1  0
  8 34  1  0
 11 35  1  0
 12 36  1  0
 15 37  1  0
 15 38  1  0
 16 39  1  0
 16 40  1  0
 18 41  1  0
 19 42  1  0
 20 43  1  0
 21 44  1  0
M  CHG  1  20   1
M  END
>  <UniqueID>  (27) 
26

>  <SMILES>  (27) 
CCCCNCc1cc(Br)ccc1OCCn1cc[nH+]c1

>  <Energy>  (27) 
59.40197239925385

>  <Genealogy>  (27) 
CCCCNCc1cc(Br)ccc1OCCn1cc[nH+]c1 (protonated)
CCCCNCc1cc(Br)ccc1OCCn1cc[nH+]c1 (3D coordinates assigned)
CCCCNCc1cc(Br)ccc1OCCn1cc[nH+]c1 (optimized conformer: 59.40197239925385 kcal/mol)

>  <smiles>  (27) 
CCCCNCc1cc(Br)ccc1OCCn1ccnc1

>  <score_type>  (27) 
oracle

>  <origin>  (27) 
adg

>  <m_score__min__energy>  (27) 
-6.9100000000000001

>  <m_primary>  (27) 
energy

$$$$
27:0
     RDKit          3D

 25 25  0  0  0  0  0  0  0  0999 V2000
   -4.6320   24.9520  -30.2110 C   0  0  0  0  0  0  0  0  0  0  0  0
   -3.3450   24.2880  -29.7370 C   0  0  0  0  0  0  0  0  0  0  0  0
   -2.3660   25.2930  -29.3390 N   0  0  0  0  0  0  0  0  0  0  0  0
   -1.5470   25.1840  -28.1710 C   0  0  0  0  0  0  0  0  0  0  0  0
   -0.3380   25.5420  -28.2000 O   0  0  0  0  0  0  0  0  0  0  0  0
   -2.1140   24.5910  -26.9250 C   0  0  0  0  0  0  0  0  0  0  0  0
   -0.7550   24.0050  -25.8630 S   0  0  0  0  0  0  0  0  0  0  0  0
   -0.5820   25.5790  -25.0270 C   0  0  0  0  0  0  0  0  0  0  0  0
   -0.2990   25.6850  -23.7790 N   0  0  0  0  0  0  0  0  0  0  0  0
   -0.2320   27.0880  -23.3920 C   0  0  0  0  0  0  0  0  0  0  0  0
   -0.5400   27.8630  -24.6860 C   0  0  0  0  0  0  0  0  0  0  0  0
   -0.7460   26.8220  -25.6770 N   0  0  0  0  0  0  0  0  0  0  0  0
   -5.2284   25.2597  -29.3394 H   0  0  0  0  0  0  0  0  0  0  0  0
   -4.3865   25.8360  -30.8179 H   0  0  0  0  0  0  0  0  0  0  0  0
   -5.2101   24.2396  -30.8179 H   0  0  0  0  0  0  0  0  0  0  0  0
   -3.5681   23.6399  -28.8767 H   0  0  0  0  0  0  0  0  0  0  0  0
   -2.9275   23.6934  -30.5629 H   0  0  0  0  0  0  0  0  0  0  0  0
   -2.6972   25.3534  -26.3878 H   0  0  0  0  0  0  0  0  0  0  0  0
   -2.7688   23.7461  -27.1845 H   0  0  0  0  0  0  0  0  0  0  0  0
   -0.1430   24.8780  -23.1350 H   0  0  0  0  0  0  0  0  0  0  0  0
   -0.9796   27.3132  -22.6172 H   0  0  0  0  0  0  0  0  0  0  0  0
    0.7463   27.3573  -22.9673 H   0  0  0  0  0  0  0  0  0  0  0  0
   -1.4457   28.4761  -24.5686 H   0  0  0  0  0  0  0  0  0  0  0  0
    0.2643   28.5599  -24.9643 H   0  0  0  0  0  0  0  0  0  0  0  0
   -0.9840   26.9650  -26.6840 H   0  0  0  0  0  0  0  0  0  0  0  0
  1  2  1  0
  2  3  1  0
  3  4  1  0
  4  5  2  0
  4  6  1  0
  6  7  1  0
  7  8  1  0
  8  9  2  0
  9 10  1  0
 10 11  1  0
 11 12  1  0
 12  8  1  0
  1 13  1  0
  1 14  1  0
  1 15  1  0
  2 16  1  0
  2 17  1  0
  6 18  1  0
  6 19  1  0
  9 20  1  0
 10 21  1  0
 10 22  1  0
 11 23  1  0
 11 24  1  0
 12 25  1  0
M  CHG  2   3  -1   9   1
M  END
>  <UniqueID>  (28) 
27

>  <SMILES>  (28) 
CC[N-]C(=O)CSC1=[NH+]CCN1

>  <Energy>  (28) 
22.354895014767912

>  <Genealogy>  (28) 
CC[N-]C(=O)CSC1=[NH+]CCN1 (protonated)
CC[N-]C(=O)CSC1=[NH+]CCN1 (3D coordinates assigned)
CC[N-]C(=O)CSC1=[NH+]CCN1 (nonaromatic ring conformer: 22.354895014767912 kcal/mol)

>  <smiles>  (28) 
CCNC(=O)CSC1=NCCN1

>  <score_type>  (28) 
oracle

>  <origin>  (28) 
adg

>  <m_score__min__energy>  (28) 
-6.0599999999999996

>  <m_primary>  (28) 
energy

$$$$
28:0
     RDKit          3D

 53 54  0  0  0  0  0  0  0  0999 V2000
   -4.2220   24.6970  -26.6820 C   0  0  0  0  0  0  0  0  0  0  0  0
   -3.9850   24.1430  -28.0860 C   0  0  0  0  0  0  0  0  0  0  0  0
   -2.8110   23.1500  -28.1030 C   0  0  0  0  0  0  0  0  0  0  0  0
   -1.9950   23.2490  -29.3370 N   0  0  0  0  0  0  0  0  0  0  0  0
   -0.9220   24.2560  -29.1600 C   0  0  0  0  0  0  0  0  0  0  0  0
   -0.7520   24.6780  -27.6980 C   0  0  0  0  0  0  0  0  0  0  0  0
   -1.5240   21.9420  -29.8750 C   0  0  0  0  0  0  0  0  0  0  0  0
   -2.6300   20.9420  -30.2560 C   0  0  0  0  0  0  0  0  0  0  0  0
   -2.5560   20.6150  -31.6390 O   0  0  0  0  0  0  0  0  0  0  0  0
   -3.6010   20.8670  -32.5350 C   0  0  0  0  0  0  0  0  0  0  0  0
   -3.5340   20.4240  -33.7140 O   0  0  0  0  0  0  0  0  0  0  0  0
   -4.7650   21.6790  -32.0960 C   0  0  0  0  0  0  0  0  0  0  0  0
   -4.5380   22.9740  -31.5900 C   0  0  0  0  0  0  0  0  0  0  0  0
   -5.6050   23.7970  -31.1890 C   0  0  0  0  0  0  0  0  0  0  0  0
   -5.3600   25.1210  -30.6780 N   0  0  0  0  0  0  0  0  0  0  0  0
   -4.2450   25.6650  -30.8230 O   0  0  0  0  0  0  0  0  0  0  0  0
   -6.3520   25.8100  -30.0180 O   0  0  0  0  0  0  0  0  0  0  0  0
   -6.9160   23.3120  -31.2970 C   0  0  0  0  0  0  0  0  0  0  0  0
   -7.1570   22.0290  -31.7880 C   0  0  0  0  0  0  0  0  0  0  0  0
   -6.0960   21.2040  -32.1850 C   0  0  0  0  0  0  0  0  0  0  0  0
   -6.3830   19.8710  -32.6310 N   0  0  0  0  0  0  0  0  0  0  0  0
   -7.1900   19.0000  -31.7770 C   0  0  0  0  0  0  0  0  0  0  0  0
   -6.9410   17.5350  -32.1480 C   0  0  0  0  0  0  0  0  0  0  0  0
   -7.1080   17.3310  -33.5390 O   0  0  0  0  0  0  0  0  0  0  0  0
   -6.1200   18.0530  -34.2510 C   0  0  0  0  0  0  0  0  0  0  0  0
   -6.3060   19.5630  -34.0610 C   0  0  0  0  0  0  0  0  0  0  0  0
   -3.9040   23.9537  -25.9360 H   0  0  0  0  0  0  0  0  0  0  0  0
   -3.6405   25.6213  -26.5496 H   0  0  0  0  0  0  0  0  0  0  0  0
   -5.2921   24.9148  -26.5496 H   0  0  0  0  0  0  0  0  0  0  0  0
   -4.8953   23.6278  -28.4265 H   0  0  0  0  0  0  0  0  0  0  0  0
   -3.7403   24.9820  -28.7540 H   0  0  0  0  0  0  0  0  0  0  0  0
   -2.1648   23.3543  -27.2366 H   0  0  0  0  0  0  0  0  0  0  0  0
   -3.2339   22.1352  -28.0651 H   0  0  0  0  0  0  0  0  0  0  0  0
    0.0264   23.8278  -29.5165 H   0  0  0  0  0  0  0  0  0  0  0  0
   -1.2030   25.1499  -29.7363 H   0  0  0  0  0  0  0  0  0  0  0  0
   -1.0813   23.8605  -27.0397 H   0  0  0  0  0  0  0  0  0  0  0  0
    0.3068   24.9027  -27.5020 H   0  0  0  0  0  0  0  0  0  0  0  0
   -1.3594   25.5739  -27.5020 H   0  0  0  0  0  0  0  0  0  0  0  0
   -0.9246   22.1429  -30.7752 H   0  0  0  0  0  0  0  0  0  0  0  0
   -0.9575   21.4678  -29.0600 H   0  0  0  0  0  0  0  0  0  0  0  0
   -2.5086   20.0249  -29.6609 H   0  0  0  0  0  0  0  0  0  0  0  0
   -3.6085   21.4015  -30.0525 H   0  0  0  0  0  0  0  0  0  0  0  0
   -3.5069   23.3482  -31.5071 H   0  0  0  0  0  0  0  0  0  0  0  0
   -7.7604   23.9478  -30.9924 H   0  0  0  0  0  0  0  0  0  0  0  0
   -8.1907   21.6608  -31.8644 H   0  0  0  0  0  0  0  0  0  0  0  0
   -6.9137   19.1624  -30.7247 H   0  0  0  0  0  0  0  0  0  0  0  0
   -8.2548   19.2353  -31.9209 H   0  0  0  0  0  0  0  0  0  0  0  0
   -5.9140   17.2612  -31.8645 H   0  0  0  0  0  0  0  0  0  0  0  0
   -7.6678   16.9079  -31.6109 H   0  0  0  0  0  0  0  0  0  0  0  0
   -5.1252   17.7629  -33.8818 H   0  0  0  0  0  0  0  0  0  0  0  0
   -6.2147   17.8181  -35.3215 H   0  0  0  0  0  0  0  0  0  0  0  0
   -5.4524   20.0960  -34.5051 H   0  0  0  0  0  0  0  0  0  0  0  0
   -7.2357   19.8822  -34.5547 H   0  0  0  0  0  0  0  0  0  0  0  0
  1  2  1  0
  2  3  1  0
  3  4  1  0
  4  5  1  0
  5  6  1  0
  4  7  1  0
  7  8  1  0
  8  9  1  0
  9 10  1  0
 10 11  2  0
 10 12  1  0
 12 13  2  0
 13 14  1  0
 14 15  1  0
 15 16  2  0
 15 17  1  0
 14 18  2  0
 18 19  1  0
 19 20  2  0
 20 21  1  0
 21 22  1  0
 22 23  1  0
 23 24  1  0
 24 25  1  0
 25 26  1  0
 20 12  1  0
 26 21  1  0
  1 27  1  0
  1 28  1  0
  1 29  1  0
  2 30  1  0
  2 31  1  0
  3 32  1  0
  3 33  1  0
  5 34  1  0
  5 35  1  0
  6 36  1  0
  6 37  1  0
  6 38  1  0
  7 39  1  0
  7 40  1  0
  8 41  1  0
  8 42  1  0
 13 43  1  0
 18 44  1  0
 19 45  1  0
 22 46  1  0
 22 47  1  0
 23 48  1  0
 23 49  1  0
 25 50  1  0
 25 51  1  0
 26 52  1  0
 26 53  1  0
M  CHG  2  15   1  17  -1
M  END
>  <UniqueID>  (29) 
28

>  <SMILES>  (29) 
CCCN(CC)CCOC(=O)c1cc([N+](=O)[O-])ccc1N1CCOCC1

>  <Energy>  (29) 
58.9772771798293

>  <Genealogy>  (29) 
CCCN(CC)CCOC(=O)c1cc([N+](=O)[O-])ccc1N1CCOCC1 (3D coordinates assigned)
CCCN(CC)CCOC(=O)c1cc([N+](=O)[O-])ccc1N1CCOCC1 (nonaromatic ring conformer: 58.9772771798293 kcal/mol)

>  <smiles>  (29) 
CCCN(CC)CCOC(=O)c1cc([N+](=O)[O-])ccc1N1CCOCC1

>  <score_type>  (29) 
oracle

>  <origin>  (29) 
adg

>  <m_score__min__energy>  (29) 
-7.6500000000000004

>  <m_primary>  (29) 
energy

$$$$
