0:0
     RDKit          3D

 58 60  0  0  0  0  0  0  0  0999 V2000
   -2.9460   22.1450  -29.2360 C   0  0  0  0  0  0  0  0  0  0  0  0
   -2.9930   23.4930  -29.9550 C   0  0  0  0  0  0  0  0  0  0  0  0
   -3.7220   24.5130  -29.1710 N   0  0  0  0  0  0  0  0  0  0  0  0
   -3.2620   24.5260  -27.7720 C   0  0  0  0  0  0  0  0  0  0  0  0
   -5.2020   24.4690  -29.2910 C   0  0  0  0  0  0  0  0  0  0  0  0
   -5.7780   25.0340  -30.6010 C   0  0  0  0  0  0  0  0  0  0  0  0
   -5.4640   24.1820  -31.6970 O   0  0  0  0  0  0  0  0  0  0  0  0
   -5.9210   22.8630  -31.8430 C   0  0  0  0  0  0  0  0  0  0  0  0
   -5.0400   21.7690  -31.9020 C   0  0  0  0  0  0  0  0  0  0  0  0
   -5.5290   20.4640  -32.0570 C   0  0  0  0  0  0  0  0  0  0  0  0
   -6.9180   20.2420  -32.1210 C   0  0  0  0  0  0  0  0  0  0  0  0
   -7.7960   21.3360  -32.0630 C   0  0  0  0  0  0  0  0  0  0  0  0
   -7.3040   22.6470  -31.9260 C   0  0  0  0  0  0  0  0  0  0  0  0
   -8.1550   23.7620  -31.8650 O   0  0  0  0  0  0  0  0  0  0  0  0
   -9.4970   23.7830  -32.3420 C   0  0  0  0  0  0  0  0  0  0  0  0
   -7.4320   18.8620  -32.2810 C   0  0  0  0  0  0  0  0  0  0  0  0
   -8.6740   18.6420  -32.3020 O   0  0  0  0  0  0  0  0  0  0  0  0
   -6.4860   17.6960  -32.3760 C   0  0  0  0  0  0  0  0  0  0  0  0
   -5.0850   18.1060  -32.9100 C   0  0  0  0  0  0  0  0  0  0  0  0
   -5.1700   18.5200  -34.4180 C   0  0  0  0  0  0  0  0  0  0  0  0
   -4.8830   17.3350  -35.3470 C   0  0  0  0  0  0  0  0  0  0  0  0
   -3.4990   16.8350  -35.1780 N   0  0  0  0  0  0  0  0  0  0  0  0
   -3.3800   15.4710  -35.7190 C   0  0  0  0  0  0  0  0  0  0  0  0
   -2.9890   16.9100  -33.7840 C   0  0  0  0  0  0  0  0  0  0  0  0
   -4.1170   16.8920  -32.7390 C   0  0  0  0  0  0  0  0  0  0  0  0
   -4.5660   19.3010  -32.0610 C   0  0  0  0  0  0  0  0  0  0  0  0
   -2.9517   22.3092  -28.1483 H   0  0  0  0  0  0  0  0  0  0  0  0
   -3.8238   21.5466  -29.5211 H   0  0  0  0  0  0  0  0  0  0  0  0
   -2.0286   21.6091  -29.5211 H   0  0  0  0  0  0  0  0  0  0  0  0
   -1.9635   23.8424  -30.1224 H   0  0  0  0  0  0  0  0  0  0  0  0
   -3.5248   23.3520  -30.9075 H   0  0  0  0  0  0  0  0  0  0  0  0
   -4.1322   24.5014  -27.0996 H   0  0  0  0  0  0  0  0  0  0  0  0
   -2.6297   23.6454  -27.5857 H   0  0  0  0  0  0  0  0  0  0  0  0
   -2.6805   25.4409  -27.5857 H   0  0  0  0  0  0  0  0  0  0  0  0
   -5.5176   23.4186  -29.2074 H   0  0  0  0  0  0  0  0  0  0  0  0
   -5.5891   25.1139  -28.4883 H   0  0  0  0  0  0  0  0  0  0  0  0
   -6.8711   25.1162  -30.5091 H   0  0  0  0  0  0  0  0  0  0  0  0
   -5.3350   26.0240  -30.7843 H   0  0  0  0  0  0  0  0  0  0  0  0
   -3.9558   21.9385  -31.8258 H   0  0  0  0  0  0  0  0  0  0  0  0
   -8.8810   21.1662  -32.1254 H   0  0  0  0  0  0  0  0  0  0  0  0
  -10.1897   23.7938  -31.4876 H   0  0  0  0  0  0  0  0  0  0  0  0
   -9.6548   24.6837  -32.9534 H   0  0  0  0  0  0  0  0  0  0  0  0
   -9.6829   22.8877  -32.9534 H   0  0  0  0  0  0  0  0  0  0  0  0
   -6.3668   17.2564  -31.3747 H   0  0  0  0  0  0  0  0  0  0  0  0
   -6.9159   16.9748  -33.0867 H   0  0  0  0  0  0  0  0  0  0  0  0
   -6.1807   18.9005  -34.6270 H   0  0  0  0  0  0  0  0  0  0  0  0
   -4.4115   19.2944  -34.6048 H   0  0  0  0  0  0  0  0  0  0  0  0
   -5.5873   16.5219  -35.1171 H   0  0  0  0  0  0  0  0  0  0  0  0
   -5.0025   17.6747  -36.3864 H   0  0  0  0  0  0  0  0  0  0  0  0
   -3.3172   14.7516  -34.8892 H   0  0  0  0  0  0  0  0  0  0  0  0
   -4.2617   15.2431  -36.3360 H   0  0  0  0  0  0  0  0  0  0  0  0
   -2.4722   15.3992  -36.3360 H   0  0  0  0  0  0  0  0  0  0  0  0
   -2.3284   16.0491  -33.6039 H   0  0  0  0  0  0  0  0  0  0  0  0
   -2.4515   17.8638  -33.6771 H   0  0  0  0  0  0  0  0  0  0  0  0
   -4.6910   15.9603  -32.8506 H   0  0  0  0  0  0  0  0  0  0  0  0
   -3.6596   16.9571  -31.7407 H   0  0  0  0  0  0  0  0  0  0  0  0
   -4.4181   18.9610  -31.0254 H   0  0  0  0  0  0  0  0  0  0  0  0
   -3.6231   19.6472  -32.5095 H   0  0  0  0  0  0  0  0  0  0  0  0
  1  2  1  0
  2  3  1  0
  3  4  1  0
  3  5  1  0
  5  6  1  0
  6  7  1  0
  7  8  1  0
  8  9  2  0
  9 10  1  0
 10 11  2  0
 11 12  1  0
 12 13  2  0
 13 14  1  0
 14 15  1  0
 11 16  1  0
 16 17  2  0
 16 18  1  0
 18 19  1  0
 19 20  1  0
 20 21  1  0
 21 22  1  0
 22 23  1  0
 22 24  1  0
 24 25  1  0
 19 26  1  0
 13  8  1  0
 25 19  1  0
 26 10  1  0
  1 27  1  0
  1 28  1  0
  1 29  1  0
  2 30  1  0
  2 31  1  0
  4 32  1  0
  4 33  1  0
  4 34  1  0
  5 35  1  0
  5 36  1  0
  6 37  1  0
  6 38  1  0
  9 39  1  0
 12 40  1  0
 15 41  1  0
 15 42  1  0
 15 43  1  0
 18 44  1  0
 18 45  1  0
 20 46  1  0
 20 47  1  0
 21 48  1  0
 21 49  1  0
 23 50  1  0
 23 51  1  0
 23 52  1  0
 24 53  1  0
 24 54  1  0
 25 55  1  0
 25 56  1  0
 26 57  1  0
 26 58  1  0
M  END
>  <UniqueID>  (1) 
1

>  <SMILES>  (1) 
CCN(C)CCOc1cc2c(cc1OC)C(=O)CC1(CCN(C)CC1)C2

>  <Energy>  (1) 
70.38475574025935

>  <Genealogy>  (1) 
CCN(C)CCOc1cc2c(cc1OC)C(=O)CC1(CCN(C)CC1)C2 (3D coordinates assigned)
CCN(C)CCOc1cc2c(cc1OC)C(=O)CC1(CCN(C)CC1)C2 (nonaromatic ring conformer: 70.38475574025935 kcal/mol)

>  <smiles>  (1) 
CCN(C)CCOc1cc2c(cc1OC)C(=O)CC1(CCN(C)CC1)C2

>  <score_type>  (1) 
oracle

>  <origin>  (1) 
adg

>  <m_score__min__energy>  (1) 
-7.71

>  <m_primary>  (1) 
energy

$$$$
1:0
     RDKit          3D

 22 21  0  0  0  0  0  0  0  0999 V2000
   -3.4870   26.0440  -31.2510 H   0  0  0  0  0  0  0  0  0  0  0  0
   -3.9470   25.3480  -30.6230 N   0  0  0  0  0  0  0  0  0  0  0  0
   -3.1760   24.5320  -29.7440 C   0  0  0  0  0  0  0  0  0  0  0  0
   -2.2050   25.0450  -29.1240 O   0  0  0  0  0  0  0  0  0  0  0  0
   -3.4430   23.0810  -29.6080 C   0  0  0  0  0  0  0  0  0  0  0  0
   -2.9200   22.4180  -28.4380 C   0  0  0  0  0  0  0  0  0  0  0  0
   -2.5020   21.8850  -27.5000 N   0  0  0  0  0  0  0  0  0  0  0  0
   -4.1490   22.3450  -30.4910 C   0  0  0  0  0  0  0  0  0  0  0  0
   -4.4384   21.3262  -30.1939 H   0  0  0  0  0  0  0  0  0  0  0  0
   -4.5520   22.8060  -31.8050 N   0  0  1  0  0  0  0  0  0  0  0  0
   -4.2270   23.7860  -31.9690 H   0  0  0  0  0  0  0  0  0  0  0  0
   -3.9680   21.9120  -32.8200 C   0  0  0  0  0  0  0  0  0  0  0  0
   -3.4319   21.0913  -32.3209 H   0  0  0  0  0  0  0  0  0  0  0  0
   -4.7700   21.4974  -33.4485 H   0  0  0  0  0  0  0  0  0  0  0  0
   -3.2661   22.4798  -33.4485 H   0  0  0  0  0  0  0  0  0  0  0  0
   -6.0330   22.8120  -31.8750 C   0  0  0  0  0  0  0  0  0  0  0  0
   -6.4015   21.8067  -31.6228 H   0  0  0  0  0  0  0  0  0  0  0  0
   -6.3167   23.1040  -32.8969 H   0  0  0  0  0  0  0  0  0  0  0  0
   -6.6650   23.8220  -30.9120 C   0  0  0  0  0  0  0  0  0  0  0  0
   -6.4705   23.5111  -29.8749 H   0  0  0  0  0  0  0  0  0  0  0  0
   -6.2278   24.8165  -31.0848 H   0  0  0  0  0  0  0  0  0  0  0  0
   -7.7505   23.8636  -31.0848 H   0  0  0  0  0  0  0  0  0  0  0  0
  1  2  1  0
  2  3  1  0
  3  4  2  0
  3  5  1  0
  5  6  1  0
  6  7  3  0
  5  8  2  0
  8  9  1  0
  8 10  1  0
 10 11  1  6
 10 12  1  0
 12 13  1  0
 12 14  1  0
 12 15  1  0
 10 16  1  0
 16 17  1  0
 16 18  1  0
 16 19  1  0
 19 20  1  0
 19 21  1  0
 19 22  1  0
M  CHG  2   2  -1  10   1
M  END
>  <UniqueID>  (2) 
2

>  <SMILES>  (2) 
CC[N@H+](C)/C=C(/C#N)C([NH-])=O

>  <Energy>  (2) 
21.792161405987795

>  <Genealogy>  (2) 
CC[NH+](C)C=C(C#N)C([NH-])=O (protonated)
CC[N@H+](C)C=C(C#N)C([NH-])=O (chirality)
CC[N@H+](C)/C=C(/C#N)C([NH-])=O (cis-trans isomerization)
CC[N@H+](C)/C=C(/C#N)C([NH-])=O (3D coordinates assigned)
CC[N@H+](C)/C=C(/C#N)C([NH-])=O (optimized conformer: 21.792161405987795 kcal/mol)

>  <smiles>  (2) 
CCN(C)C=C(C#N)C(N)=O

>  <score_type>  (2) 
oracle

>  <origin>  (2) 
adg

>  <m_score__min__energy>  (2) 
-5.8099999999999996

>  <m_primary>  (2) 
energy

$$$$
2:0
     RDKit          3D

 39 41  0  0  0  0  0  0  0  0999 V2000
   -3.5490   24.0120  -28.2850 F   0  0  0  0  0  0  0  0  0  0  0  0
   -2.8900   24.2650  -29.4740 C   0  0  0  0  0  0  0  0  0  0  0  0
   -1.9840   25.2880  -29.2760 F   0  0  0  0  0  0  0  0  0  0  0  0
   -3.8260   24.6590  -30.4740 O   0  0  0  0  0  0  0  0  0  0  0  0
   -4.9410   23.9040  -30.8670 C   0  0  0  0  0  0  0  0  0  0  0  0
   -6.1230   24.0300  -30.1280 C   0  0  0  0  0  0  0  0  0  0  0  0
   -7.2630   23.3020  -30.4790 C   0  0  0  0  0  0  0  0  0  0  0  0
   -7.2360   22.4300  -31.5790 C   0  0  0  0  0  0  0  0  0  0  0  0
   -8.4780   21.6710  -31.9850 C   0  0  0  0  0  0  0  0  0  0  0  0
   -8.5180   20.3240  -31.3960 N   0  0  0  0  0  0  0  0  0  0  0  0
   -8.4540   19.2770  -32.4260 C   0  0  0  0  0  0  0  0  0  0  0  0
   -7.6240   18.0750  -31.9250 C   0  0  1  0  0  0  0  0  0  0  0  0
   -7.2590   17.1030  -33.0760 C   0  0  0  0  0  0  0  0  0  0  0  0
   -6.0850   17.6010  -33.7720 N   0  0  0  0  0  0  0  0  0  0  0  0
   -5.6260   17.2070  -34.9470 N   0  0  0  0  0  0  0  0  0  0  0  0
   -4.5030   17.8610  -35.2120 N   0  0  0  0  0  0  0  0  0  0  0  0
   -4.2300   18.6850  -34.1760 C   0  0  0  0  0  0  0  0  0  0  0  0
   -5.2370   18.4930  -33.2570 C   0  0  0  0  0  0  0  0  0  0  0  0
   -5.5040   19.1800  -31.9590 C   0  0  0  0  0  0  0  0  0  0  0  0
   -6.4690   18.4710  -31.1810 O   0  0  0  0  0  0  0  0  0  0  0  0
   -6.0540   22.3040  -32.3250 C   0  0  0  0  0  0  0  0  0  0  0  0
   -4.9150   23.0320  -31.9740 C   0  0  0  0  0  0  0  0  0  0  0  0
   -2.3690   23.3539  -29.8034 H   0  0  0  0  0  0  0  0  0  0  0  0
   -6.1549   24.7085  -29.2628 H   0  0  0  0  0  0  0  0  0  0  0  0
   -8.1858   23.4127  -29.8907 H   0  0  0  0  0  0  0  0  0  0  0  0
   -9.3626   22.2319  -31.6490 H   0  0  0  0  0  0  0  0  0  0  0  0
   -8.4673   21.5629  -33.0796 H   0  0  0  0  0  0  0  0  0  0  0  0
   -7.7090   20.2170  -30.7410 H   0  0  0  0  0  0  0  0  0  0  0  0
   -9.4738   18.9392  -32.6626 H   0  0  0  0  0  0  0  0  0  0  0  0
   -7.9735   19.6911  -33.3247 H   0  0  0  0  0  0  0  0  0  0  0  0
   -8.2716   17.5266  -31.2251 H   0  0  0  0  0  0  0  0  0  0  0  0
   -7.0452   16.1068  -32.6615 H   0  0  0  0  0  0  0  0  0  0  0  0
   -8.1017   17.0325  -33.7795 H   0  0  0  0  0  0  0  0  0  0  0  0
   -3.9390   17.7460  -36.0820 H   0  0  0  0  0  0  0  0  0  0  0  0
   -3.3750   19.3712  -34.0853 H   0  0  0  0  0  0  0  0  0  0  0  0
   -4.5650   19.2465  -31.3899 H   0  0  0  0  0  0  0  0  0  0  0  0
   -5.9029   20.1822  -32.1744 H   0  0  0  0  0  0  0  0  0  0  0  0
   -6.0244   21.6274  -33.1918 H   0  0  0  0  0  0  0  0  0  0  0  0
   -3.9931   22.9243  -32.5644 H   0  0  0  0  0  0  0  0  0  0  0  0
  1  2  1  0
  2  3  1  0
  2  4  1  0
  4  5  1  0
  5  6  2  0
  6  7  1  0
  7  8  2  0
  8  9  1  0
  9 10  1  0
 10 11  1  0
 11 12  1  0
 12 13  1  0
 13 14  1  0
 14 15  1  0
 15 16  2  0
 16 17  1  0
 17 18  2  0
 18 19  1  0
 19 20  1  0
  8 21  1  0
 21 22  2  0
 22  5  1  0
 20 12  1  0
 18 14  1  0
  2 23  1  0
  6 24  1  0
  7 25  1  0
  9 26  1  0
  9 27  1  0
 10 28  1  0
 11 29  1  0
 11 30  1  0
 12 31  1  1
 13 32  1  0
 13 33  1  0
 16 34  1  0
 17 35  1  0
 19 36  1  0
 19 37  1  0
 21 38  1  0
 22 39  1  0
M  CHG  1  16   1
M  END
>  <UniqueID>  (3) 
3

>  <SMILES>  (3) 
FC(F)Oc1ccc(CNC[C@H]2Cn3n[nH+]cc3CO2)cc1

>  <Energy>  (3) 
82.93926549075721

>  <Genealogy>  (3) 
FC(F)Oc1ccc(CNCC2Cn3n[nH+]cc3CO2)cc1 (protonated)
FC(F)Oc1ccc(CNC[C@H]2Cn3n[nH+]cc3CO2)cc1 (chirality)
FC(F)Oc1ccc(CNC[C@H]2Cn3n[nH+]cc3CO2)cc1 (3D coordinates assigned)
FC(F)Oc1ccc(CNC[C@H]2Cn3n[nH+]cc3CO2)cc1 (nonaromatic ring conformer: 82.93926549075721 kcal/mol)

>  <smiles>  (3) 
FC(F)Oc1ccc(CNCC2Cn3nncc3CO2)cc1

>  <score_type>  (3) 
oracle

>  <origin>  (3) 
adg

>  <m_score__min__energy>  (3) 
-6.5999999999999996

>  <m_primary>  (3) 
energy

$$$$
3:0
     RDKit          3D

 67 69  0  0  0  0  0  0  0  0999 V2000
   -5.5220   17.9240  -34.8970 C   0  0  0  0  0  0  0  0  0  0  0  0
   -5.2760   17.0240  -33.6910 C   0  0  0  0  0  0  0  0  0  0  0  0
   -5.5560   17.7220  -32.4790 O   0  0  0  0  0  0  0  0  0  0  0  0
   -6.7140   18.4690  -32.2030 C   0  0  0  0  0  0  0  0  0  0  0  0
   -7.9960   17.8840  -32.1700 C   0  0  0  0  0  0  0  0  0  0  0  0
   -9.1260   18.6720  -31.9340 C   0  0  0  0  0  0  0  0  0  0  0  0
   -8.9930   20.0450  -31.7310 C   0  0  0  0  0  0  0  0  0  0  0  0
   -7.7290   20.6370  -31.7550 C   0  0  0  0  0  0  0  0  0  0  0  0
   -6.5840   19.8560  -31.9780 C   0  0  0  0  0  0  0  0  0  0  0  0
   -5.2860   20.4770  -31.9890 N   0  0  0  0  0  0  0  0  0  0  0  0
   -4.8220   21.2240  -33.1600 C   0  0  0  0  0  0  0  0  0  0  0  0
   -4.2840   22.6150  -32.7510 C   0  0  0  0  0  0  0  0  0  0  0  0
   -3.9000   22.7200  -31.3140 N   0  0  0  0  0  0  0  0  0  0  0  0
   -5.0280   23.2360  -30.4870 C   0  0  0  0  0  0  0  0  0  0  0  0
   -4.6960   24.5510  -29.7380 C   0  0  2  0  0  0  0  0  0  0  0  0
   -3.7450   25.2800  -30.4690 O   0  0  0  0  0  0  0  0  0  0  0  0
   -4.1180   24.2640  -28.3370 C   0  0  0  0  0  0  0  0  0  0  0  0
   -2.7270   24.5840  -28.2540 O   0  0  0  0  0  0  0  0  0  0  0  0
   -1.9440   24.5860  -27.0870 C   0  0  0  0  0  0  0  0  0  0  0  0
   -1.9240   25.6920  -26.2130 C   0  0  0  0  0  0  0  0  0  0  0  0
   -1.1570   25.6690  -25.0410 C   0  0  0  0  0  0  0  0  0  0  0  0
   -1.1230   26.8670  -24.1380 C   0  0  0  0  0  0  0  0  0  0  0  0
   -0.3700   24.5500  -24.7570 C   0  0  0  0  0  0  0  0  0  0  0  0
   -0.3650   23.4550  -25.6190 C   0  0  0  0  0  0  0  0  0  0  0  0
   -1.1470   23.4520  -26.7880 C   0  0  0  0  0  0  0  0  0  0  0  0
   -1.0670   22.2420  -27.7130 C   0  0  0  0  0  0  0  0  0  0  0  0
   -0.7250   22.6580  -29.1490 C   0  0  0  0  0  0  0  0  0  0  0  0
   -2.3360   21.3790  -27.6680 C   0  0  0  0  0  0  0  0  0  0  0  0
   -3.3350   21.4380  -30.8250 C   0  0  0  0  0  0  0  0  0  0  0  0
   -4.3750   20.3040  -30.8540 C   0  0  0  0  0  0  0  0  0  0  0  0
   -5.7974   18.9317  -34.5524 H   0  0  0  0  0  0  0  0  0  0  0  0
   -4.6067   17.9816  -35.5043 H   0  0  0  0  0  0  0  0  0  0  0  0
   -6.3394   17.5080  -35.5043 H   0  0  0  0  0  0  0  0  0  0  0  0
   -5.9290   16.1415  -33.7592 H   0  0  0  0  0  0  0  0  0  0  0  0
   -4.2200   16.7162  -33.6874 H   0  0  0  0  0  0  0  0  0  0  0  0
   -8.1077   16.8016  -32.3308 H   0  0  0  0  0  0  0  0  0  0  0  0
  -10.1229   18.2077  -31.9084 H   0  0  0  0  0  0  0  0  0  0  0  0
   -9.8854   20.6626  -31.5517 H   0  0  0  0  0  0  0  0  0  0  0  0
   -7.6297   21.7212  -31.5983 H   0  0  0  0  0  0  0  0  0  0  0  0
   -4.0179   20.6577  -33.6528 H   0  0  0  0  0  0  0  0  0  0  0  0
   -5.6704   21.3637  -33.8460 H   0  0  0  0  0  0  0  0  0  0  0  0
   -3.3969   22.8360  -33.3628 H   0  0  0  0  0  0  0  0  0  0  0  0
   -5.1018   23.3323  -32.9144 H   0  0  0  0  0  0  0  0  0  0  0  0
   -3.1320   23.4320  -31.2650 H   0  0  0  0  0  0  0  0  0  0  0  0
   -5.8882   23.4195  -31.1476 H   0  0  0  0  0  0  0  0  0  0  0  0
   -5.2429   22.4745  -29.7228 H   0  0  0  0  0  0  0  0  0  0  0  0
   -5.6285   25.1246  -29.6312 H   0  0  0  0  0  0  0  0  0  0  0  0
   -3.1160   25.6760  -29.8100 H   0  0  0  0  0  0  0  0  0  0  0  0
   -4.6654   24.8663  -27.5971 H   0  0  0  0  0  0  0  0  0  0  0  0
   -4.2309   23.1882  -28.1375 H   0  0  0  0  0  0  0  0  0  0  0  0
   -2.5188   26.5852  -26.4546 H   0  0  0  0  0  0  0  0  0  0  0  0
   -1.1324   26.5359  -23.0891 H   0  0  0  0  0  0  0  0  0  0  0  0
   -0.2081   27.4462  -24.3315 H   0  0  0  0  0  0  0  0  0  0  0  0
   -2.0036   27.4971  -24.3315 H   0  0  0  0  0  0  0  0  0  0  0  0
    0.2491   24.5332  -23.8479 H   0  0  0  0  0  0  0  0  0  0  0  0
    0.2592   22.5809  -25.3818 H   0  0  0  0  0  0  0  0  0  0  0  0
   -0.2463   21.6134  -27.3370 H   0  0  0  0  0  0  0  0  0  0  0  0
   -0.0266   23.5076  -29.1281 H   0  0  0  0  0  0  0  0  0  0  0  0
   -0.2578   21.8120  -29.6744 H   0  0  0  0  0  0  0  0  0  0  0  0
   -1.6454   22.9528  -29.6744 H   0  0  0  0  0  0  0  0  0  0  0  0
   -2.6139   21.1900  -26.6206 H   0  0  0  0  0  0  0  0  0  0  0  0
   -3.1567   21.9070  -28.1756 H   0  0  0  0  0  0  0  0  0  0  0  0
   -2.1466   20.4217  -28.1756 H   0  0  0  0  0  0  0  0  0  0  0  0
   -2.4849   21.1573  -31.4642 H   0  0  0  0  0  0  0  0  0  0  0  0
   -3.0166   21.5818  -29.7820 H   0  0  0  0  0  0  0  0  0  0  0  0
   -3.8564   19.3386  -30.9490 H   0  0  0  0  0  0  0  0  0  0  0  0
   -4.9574   20.3292  -29.9212 H   0  0  0  0  0  0  0  0  0  0  0  0
  1  2  1  0
  2  3  1  0
  3  4  1  0
  4  5  2  0
  5  6  1  0
  6  7  2  0
  7  8  1  0
  8  9  2  0
  9 10  1  0
 10 11  1  0
 11 12  1  0
 12 13  1  0
 13 14  1  0
 14 15  1  0
 15 16  1  0
 15 17  1  0
 17 18  1  0
 18 19  1  0
 19 20  2  0
 20 21  1  0
 21 22  1  0
 21 23  2  0
 23 24  1  0
 24 25  2  0
 25 26  1  0
 26 27  1  0
 26 28  1  0
 13 29  1  0
 29 30  1  0
  9  4  1  0
 30 10  1  0
 25 19  1  0
  1 31  1  0
  1 32  1  0
  1 33  1  0
  2 34  1  0
  2 35  1  0
  5 36  1  0
  6 37  1  0
  7 38  1  0
  8 39  1  0
 11 40  1  0
 11 41  1  0
 12 42  1  0
 12 43  1  0
 13 44  1  0
 14 45  1  0
 14 46  1  0
 15 47  1  1
 16 48  1  0
 17 49  1  0
 17 50  1  0
 20 51  1  0
 22 52  1  0
 22 53  1  0
 22 54  1  0
 23 55  1  0
 24 56  1  0
 26 57  1  0
 27 58  1  0
 27 59  1  0
 27 60  1  0
 28 61  1  0
 28 62  1  0
 28 63  1  0
 29 64  1  0
 29 65  1  0
 30 66  1  0
 30 67  1  0
M  CHG  1  13   1
M  END
>  <UniqueID>  (4) 
4

>  <SMILES>  (4) 
CCOc1ccccc1N1CC[NH+](C[C@H](O)COc2cc(C)ccc2C(C)C)CC1

>  <Energy>  (4) 
74.76208927868254

>  <Genealogy>  (4) 
CCOc1ccccc1N1CC[NH+](CC(O)COc2cc(C)ccc2C(C)C)CC1 (protonated)
CCOc1ccccc1N1CC[NH+](C[C@H](O)COc2cc(C)ccc2C(C)C)CC1 (chirality)
CCOc1ccccc1N1CC[NH+](C[C@H](O)COc2cc(C)ccc2C(C)C)CC1 (3D coordinates assigned)
CCOc1ccccc1N1CC[NH+](C[C@H](O)COc2cc(C)ccc2C(C)C)CC1 (nonaromatic ring conformer: 74.76208927868254 kcal/mol)

>  <smiles>  (4) 
CCOc1ccccc1N1CCN(CC(O)COc2cc(C)ccc2C(C)C)CC1

>  <score_type>  (4) 
oracle

>  <origin>  (4) 
adg

>  <m_score__min__energy>  (4) 
-8.0199999999999996

>  <m_primary>  (4) 
energy

$$$$
4:0
     RDKit          3D

 59 62  0  0  0  0  0  0  0  0999 V2000
   -6.6410   24.8900  -30.1310 C   0  0  0  0  0  0  0  0  0  0  0  0
   -5.3070   25.5370  -30.4970 C   0  0  0  0  0  0  0  0  0  0  0  0
   -4.2450   24.5170  -30.6450 N   0  0  0  0  0  0  0  0  0  0  0  0
   -3.2920   24.5350  -29.5090 C   0  0  0  0  0  0  0  0  0  0  0  0
   -3.9210   24.0240  -28.2120 C   0  0  0  0  0  0  0  0  0  0  0  0
   -4.7830   23.1750  -30.9930 C   0  0  0  0  0  0  0  0  0  0  0  0
   -3.9050   22.3230  -31.9390 C   0  0  0  0  0  0  0  0  0  0  0  0
   -4.6510   21.8220  -33.0940 N   0  0  0  0  0  0  0  0  0  0  0  0
   -5.1440   20.4720  -33.0940 C   0  0  0  0  0  0  0  0  0  0  0  0
   -6.4640   20.2000  -32.6990 C   0  0  0  0  0  0  0  0  0  0  0  0
   -7.3250   21.2340  -32.2770 C   0  0  0  0  0  0  0  0  0  0  0  0
   -8.6390   20.9580  -31.9040 C   0  0  0  0  0  0  0  0  0  0  0  0
   -9.1170   19.6520  -31.9540 C   0  0  0  0  0  0  0  0  0  0  0  0
   -8.2890   18.6180  -32.3890 C   0  0  0  0  0  0  0  0  0  0  0  0
   -6.9500   18.8710  -32.7790 C   0  0  0  0  0  0  0  0  0  0  0  0
   -6.1350   17.8620  -33.2480 N   0  0  0  0  0  0  0  0  0  0  0  0
   -6.7720   16.6680  -33.8460 C   0  0  0  0  0  0  0  0  0  0  0  0
   -4.7720   18.0740  -33.3730 C   0  0  0  0  0  0  0  0  0  0  0  0
   -4.2920   19.4090  -33.4440 C   0  0  0  0  0  0  0  0  0  0  0  0
   -2.9710   19.6570  -33.8600 C   0  0  0  0  0  0  0  0  0  0  0  0
   -2.1060   18.6080  -34.1450 C   0  0  0  0  0  0  0  0  0  0  0  0
   -2.4970   17.2900  -33.9090 C   0  0  0  0  0  0  0  0  0  0  0  0
   -1.5640   16.2530  -34.0630 C   0  0  0  0  0  0  0  0  0  0  0  0
   -1.8930   14.9500  -33.6950 C   0  0  0  0  0  0  0  0  0  0  0  0
   -3.1370   14.6800  -33.1270 C   0  0  0  0  0  0  0  0  0  0  0  0
   -3.5220   13.0210  -32.5630 S   0  0  0  0  0  0  0  0  0  0  0  0
   -4.6110   13.5980  -31.2250 C   0  0  0  0  0  0  0  0  0  0  0  0
   -4.0820   15.7020  -32.9890 C   0  0  0  0  0  0  0  0  0  0  0  0
   -3.8140   17.0100  -33.4550 C   0  0  0  0  0  0  0  0  0  0  0  0
   -6.7377   24.8431  -29.0363 H   0  0  0  0  0  0  0  0  0  0  0  0
   -7.4651   25.4885  -30.5466 H   0  0  0  0  0  0  0  0  0  0  0  0
   -6.6812   23.8723  -30.5466 H   0  0  0  0  0  0  0  0  0  0  0  0
   -5.4193   26.0797  -31.4472 H   0  0  0  0  0  0  0  0  0  0  0  0
   -5.0196   26.2272  -29.6902 H   0  0  0  0  0  0  0  0  0  0  0  0
   -2.4316   23.8971  -29.7596 H   0  0  0  0  0  0  0  0  0  0  0  0
   -2.9858   25.5787  -29.3447 H   0  0  0  0  0  0  0  0  0  0  0  0
   -3.3892   24.4561  -27.3515 H   0  0  0  0  0  0  0  0  0  0  0  0
   -4.9794   24.3213  -28.1758 H   0  0  0  0  0  0  0  0  0  0  0  0
   -3.8468   22.9271  -28.1758 H   0  0  0  0  0  0  0  0  0  0  0  0
   -4.9163   22.6118  -30.0576 H   0  0  0  0  0  0  0  0  0  0  0  0
   -5.7189   23.3608  -31.5403 H   0  0  0  0  0  0  0  0  0  0  0  0
   -3.0704   22.9424  -32.2994 H   0  0  0  0  0  0  0  0  0  0  0  0
   -3.5456   21.4532  -31.3695 H   0  0  0  0  0  0  0  0  0  0  0  0
   -4.5690   22.2990  -34.0170 H   0  0  0  0  0  0  0  0  0  0  0  0
   -6.9555   22.2695  -32.2419 H   0  0  0  0  0  0  0  0  0  0  0  0
   -9.2985   21.7726  -31.5700 H   0  0  0  0  0  0  0  0  0  0  0  0
  -10.1514   19.4348  -31.6494 H   0  0  0  0  0  0  0  0  0  0  0  0
   -8.6806   17.5909  -32.4301 H   0  0  0  0  0  0  0  0  0  0  0  0
   -7.1272   16.0023  -33.0456 H   0  0  0  0  0  0  0  0  0  0  0  0
   -7.6236   16.9798  -34.4685 H   0  0  0  0  0  0  0  0  0  0  0  0
   -6.0388   16.1343  -34.4685 H   0  0  0  0  0  0  0  0  0  0  0  0
   -2.6188   20.6942  -33.9608 H   0  0  0  0  0  0  0  0  0  0  0  0
   -1.1085   18.8176  -34.5585 H   0  0  0  0  0  0  0  0  0  0  0  0
   -0.5680   16.4700  -34.4763 H   0  0  0  0  0  0  0  0  0  0  0  0
   -1.1714   14.1348  -33.8526 H   0  0  0  0  0  0  0  0  0  0  0  0
   -4.1565   13.3572  -30.2527 H   0  0  0  0  0  0  0  0  0  0  0  0
   -4.7470   14.6865  -31.3066 H   0  0  0  0  0  0  0  0  0  0  0  0
   -5.5880   13.0992  -31.3066 H   0  0  0  0  0  0  0  0  0  0  0  0
   -5.0485   15.4849  -32.5106 H   0  0  0  0  0  0  0  0  0  0  0  0
  1  2  1  0
  2  3  1  0
  3  4  1  0
  4  5  1  0
  3  6  1  0
  6  7  1  0
  7  8  1  0
  8  9  1  0
  9 10  2  0
 10 11  1  0
 11 12  2  0
 12 13  1  0
 13 14  2  0
 14 15  1  0
 15 16  2  0
 16 17  1  0
 16 18  1  0
 18 19  2  0
 19 20  1  0
 20 21  2  0
 21 22  1  0
 22 23  2  0
 23 24  1  0
 24 25  2  0
 25 26  1  0
 26 27  1  0
 25 28  1  0
 28 29  2  0
 19  9  1  0
 29 22  1  0
 15 10  1  0
 29 18  1  0
  1 30  1  0
  1 31  1  0
  1 32  1  0
  2 33  1  0
  2 34  1  0
  4 35  1  0
  4 36  1  0
  5 37  1  0
  5 38  1  0
  5 39  1  0
  6 40  1  0
  6 41  1  0
  7 42  1  0
  7 43  1  0
  8 44  1  0
 11 45  1  0
 12 46  1  0
 13 47  1  0
 14 48  1  0
 17 49  1  0
 17 50  1  0
 17 51  1  0
 20 52  1  0
 21 53  1  0
 23 54  1  0
 24 55  1  0
 27 56  1  0
 27 57  1  0
 27 58  1  0
 28 59  1  0
M  CHG  1  16   1
M  END
>  <UniqueID>  (5) 
5

>  <SMILES>  (5) 
CCN(CC)CCNc1c2ccccc2[n+](C)c2c1ccc1ccc(SC)cc12

>  <Energy>  (5) 
101.92558532935772

>  <Genealogy>  (5) 
CCN(CC)CCNc1c2ccccc2[n+](C)c2c1ccc1ccc(SC)cc12 (3D coordinates assigned)
CCN(CC)CCNc1c2ccccc2[n+](C)c2c1ccc1ccc(SC)cc12 (optimized conformer: 101.92558532935772 kcal/mol)

>  <smiles>  (5) 
CCN(CC)CCNc1c2ccccc2[n+](C)c2c1ccc1ccc(SC)cc12

>  <score_type>  (5) 
oracle

>  <origin>  (5) 
adg

>  <m_score__min__energy>  (5) 
-9.2799999999999994

>  <m_primary>  (5) 
energy

$$$$
5:0
     RDKit          3D

 40 41  0  0  0  0  0  0  0  0999 V2000
   -9.4810   21.3120  -31.5100 C   0  0  0  0  0  0  0  0  0  0  0  0
   -8.8120   19.9800  -31.8220 C   0  0  0  0  0  0  0  0  0  0  0  0
   -8.0080   20.1010  -33.0450 N   0  0  0  0  0  0  0  0  0  0  0  0
   -6.7140   19.4090  -32.9330 C   0  0  0  0  0  0  0  0  0  0  0  0
   -5.6190   20.0610  -33.7920 C   0  0  0  0  0  0  0  0  0  0  0  0
   -4.8350   21.0030  -32.9860 N   0  0  0  0  0  0  0  0  0  0  0  0
   -3.5040   20.9460  -32.7070 C   0  0  0  0  0  0  0  0  0  0  0  0
   -2.5510   19.9210  -33.2600 C   0  0  0  0  0  0  0  0  0  0  0  0
   -2.2410   20.2390  -34.5690 F   0  0  0  0  0  0  0  0  0  0  0  0
   -3.1300   18.6660  -33.2170 F   0  0  0  0  0  0  0  0  0  0  0  0
   -1.3830   19.8930  -32.5190 F   0  0  0  0  0  0  0  0  0  0  0  0
   -3.1320   22.0100  -31.8880 C   0  0  0  0  0  0  0  0  0  0  0  0
   -4.2930   22.7140  -31.6430 C   0  0  0  0  0  0  0  0  0  0  0  0
   -4.5150   23.8760  -30.8970 C   0  0  0  0  0  0  0  0  0  0  0  0
   -3.4850   24.5030  -30.1900 O   0  0  0  0  0  0  0  0  0  0  0  0
   -3.1540   24.1350  -28.8560 C   0  0  0  0  0  0  0  0  0  0  0  0
   -5.8230   24.4170  -30.8860 C   0  0  0  0  0  0  0  0  0  0  0  0
   -6.1180   25.6580  -30.0930 C   0  0  0  0  0  0  0  0  0  0  0  0
   -6.8660   23.7520  -31.5780 C   0  0  0  0  0  0  0  0  0  0  0  0
   -6.6110   22.5780  -32.3050 C   0  0  0  0  0  0  0  0  0  0  0  0
   -5.3040   22.0840  -32.3260 C   0  0  0  0  0  0  0  0  0  0  0  0
   -9.5467   21.4428  -30.4198 H   0  0  0  0  0  0  0  0  0  0  0  0
   -8.8872   22.1308  -31.9424 H   0  0  0  0  0  0  0  0  0  0  0  0
  -10.4924   21.3245  -31.9424 H   0  0  0  0  0  0  0  0  0  0  0  0
   -8.1602   19.6935  -30.9835 H   0  0  0  0  0  0  0  0  0  0  0  0
   -9.5849   19.2115  -31.9703 H   0  0  0  0  0  0  0  0  0  0  0  0
   -8.5470   19.7030  -33.8500 H   0  0  0  0  0  0  0  0  0  0  0  0
   -6.3943   19.4279  -31.8807 H   0  0  0  0  0  0  0  0  0  0  0  0
   -6.8538   18.3801  -33.2960 H   0  0  0  0  0  0  0  0  0  0  0  0
   -4.9534   19.2792  -34.1866 H   0  0  0  0  0  0  0  0  0  0  0  0
   -6.0918   20.6065  -34.6219 H   0  0  0  0  0  0  0  0  0  0  0  0
   -2.1233   22.2406  -31.5147 H   0  0  0  0  0  0  0  0  0  0  0  0
   -3.7189   24.7631  -28.1515 H   0  0  0  0  0  0  0  0  0  0  0  0
   -3.4114   23.0781  -28.6926 H   0  0  0  0  0  0  0  0  0  0  0  0
   -2.0758   24.2793  -28.6926 H   0  0  0  0  0  0  0  0  0  0  0  0
   -6.0634   25.4282  -29.0186 H   0  0  0  0  0  0  0  0  0  0  0  0
   -5.3795   26.4350  -30.3398 H   0  0  0  0  0  0  0  0  0  0  0  0
   -7.1271   26.0196  -30.3398 H   0  0  0  0  0  0  0  0  0  0  0  0
   -7.8869   24.1602  -31.5452 H   0  0  0  0  0  0  0  0  0  0  0  0
   -7.4187   22.0609  -32.8437 H   0  0  0  0  0  0  0  0  0  0  0  0
  1  2  1  0
  2  3  1  0
  3  4  1  0
  4  5  1  0
  5  6  1  0
  6  7  1  0
  7  8  1  0
  8  9  1  0
  8 10  1  0
  8 11  1  0
  7 12  2  0
 12 13  1  0
 13 14  2  0
 14 15  1  0
 15 16  1  0
 14 17  1  0
 17 18  1  0
 17 19  2  0
 19 20  1  0
 20 21  2  0
 21  6  1  0
 21 13  1  0
  1 22  1  0
  1 23  1  0
  1 24  1  0
  2 25  1  0
  2 26  1  0
  3 27  1  0
  4 28  1  0
  4 29  1  0
  5 30  1  0
  5 31  1  0
 12 32  1  0
 16 33  1  0
 16 34  1  0
 16 35  1  0
 18 36  1  0
 18 37  1  0
 18 38  1  0
 19 39  1  0
 20 40  1  0
M  END
>  <UniqueID>  (6) 
6

>  <SMILES>  (6) 
CCNCCn1c(C(F)(F)F)cc2c(OC)c(C)ccc21

>  <Energy>  (6) 
72.86329987351523

>  <Genealogy>  (6) 
CCNCCn1c(C(F)(F)F)cc2c(OC)c(C)ccc21 (3D coordinates assigned)
CCNCCn1c(C(F)(F)F)cc2c(OC)c(C)ccc21 (optimized conformer: 72.86329987351523 kcal/mol)

>  <smiles>  (6) 
CCNCCn1c(C(F)(F)F)cc2c(OC)c(C)ccc21

>  <score_type>  (6) 
oracle

>  <origin>  (6) 
adg

>  <m_score__min__energy>  (6) 
-7.1200000000000001

>  <m_primary>  (6) 
energy

$$$$
6:0
     RDKit          3D

 49 51  0  0  0  0  0  0  0  0999 V2000
   -0.6670   24.1510  -27.7860 C   0  0  0  0  0  0  0  0  0  0  0  0
   -2.0710   24.0540  -28.3000 C   0  0  0  0  0  0  0  0  0  0  0  0
   -3.1570   24.2260  -27.4290 C   0  0  0  0  0  0  0  0  0  0  0  0
   -4.4660   24.1710  -27.9130 C   0  0  0  0  0  0  0  0  0  0  0  0
   -4.7120   23.9420  -29.2770 C   0  0  0  0  0  0  0  0  0  0  0  0
   -6.1310   23.8750  -29.8080 C   0  0  0  0  0  0  0  0  0  0  0  0
   -6.5330   22.5280  -30.2730 N   0  0  0  0  0  0  0  0  0  0  0  0
   -5.8700   22.0850  -31.5250 C   0  0  0  0  0  0  0  0  0  0  0  0
   -6.8480   22.0080  -32.7040 C   0  0  0  0  0  0  0  0  0  0  0  0
   -7.9960   20.9790  -32.4360 C   0  0  0  0  0  0  0  0  0  0  0  0
   -7.6790   19.5980  -32.9340 N   0  0  0  0  0  0  0  0  0  0  0  0
   -6.3640   19.5640  -33.6300 C   0  0  0  0  0  0  0  0  0  0  0  0
   -6.1170   18.2070  -34.3210 C   0  0  0  0  0  0  0  0  0  0  0  0
   -6.7300   17.0310  -33.5520 C   0  0  0  0  0  0  0  0  0  0  0  0
   -6.8190   17.3500  -32.0650 C   0  0  0  0  0  0  0  0  0  0  0  0
   -7.7010   18.5940  -31.8220 C   0  0  0  0  0  0  0  0  0  0  0  0
   -8.3590   20.9780  -30.9150 C   0  0  0  0  0  0  0  0  0  0  0  0
   -7.9940   22.2970  -30.2270 C   0  0  0  0  0  0  0  0  0  0  0  0
   -3.6220   23.8140  -30.1540 C   0  0  0  0  0  0  0  0  0  0  0  0
   -2.3120   23.8690  -29.6690 C   0  0  0  0  0  0  0  0  0  0  0  0
   -0.6783   24.1502  -26.6861 H   0  0  0  0  0  0  0  0  0  0  0  0
   -0.0840   23.2910  -28.1473 H   0  0  0  0  0  0  0  0  0  0  0  0
   -0.2078   25.0830  -28.1473 H   0  0  0  0  0  0  0  0  0  0  0  0
   -2.9767   24.4052  -26.3588 H   0  0  0  0  0  0  0  0  0  0  0  0
   -5.3102   24.3080  -27.2213 H   0  0  0  0  0  0  0  0  0  0  0  0
   -6.8165   24.1834  -29.0049 H   0  0  0  0  0  0  0  0  0  0  0  0
   -6.1777   24.5421  -30.6814 H   0  0  0  0  0  0  0  0  0  0  0  0
   -5.0708   22.7986  -31.7740 H   0  0  0  0  0  0  0  0  0  0  0  0
   -5.4674   21.0756  -31.3544 H   0  0  0  0  0  0  0  0  0  0  0  0
   -7.2905   23.0020  -32.8658 H   0  0  0  0  0  0  0  0  0  0  0  0
   -6.2899   21.6762  -33.5920 H   0  0  0  0  0  0  0  0  0  0  0  0
   -8.8738   21.3024  -33.0147 H   0  0  0  0  0  0  0  0  0  0  0  0
   -8.4190   19.3300  -33.6270 H   0  0  0  0  0  0  0  0  0  0  0  0
   -6.3423   20.3595  -34.3894 H   0  0  0  0  0  0  0  0  0  0  0  0
   -5.5751   19.7137  -32.8782 H   0  0  0  0  0  0  0  0  0  0  0  0
   -6.5602   18.2387  -35.3273 H   0  0  0  0  0  0  0  0  0  0  0  0
   -5.0294   18.0474  -34.3603 H   0  0  0  0  0  0  0  0  0  0  0  0
   -7.7399   16.8325  -33.9401 H   0  0  0  0  0  0  0  0  0  0  0  0
   -6.0896   16.1469  -33.6871 H   0  0  0  0  0  0  0  0  0  0  0  0
   -7.2561   16.4895  -31.5373 H   0  0  0  0  0  0  0  0  0  0  0  0
   -5.8066   17.5569  -31.6879 H   0  0  0  0  0  0  0  0  0  0  0  0
   -8.7390   18.2574  -31.6834 H   0  0  0  0  0  0  0  0  0  0  0  0
   -7.2909   19.0999  -30.9355 H   0  0  0  0  0  0  0  0  0  0  0  0
   -9.4414   20.8126  -30.8102 H   0  0  0  0  0  0  0  0  0  0  0  0
   -7.7803   20.1765  -30.4325 H   0  0  0  0  0  0  0  0  0  0  0  0
   -8.5061   23.1247  -30.7395 H   0  0  0  0  0  0  0  0  0  0  0  0
   -8.3093   22.2442  -29.1745 H   0  0  0  0  0  0  0  0  0  0  0  0
   -3.8005   23.6695  -31.2298 H   0  0  0  0  0  0  0  0  0  0  0  0
   -1.4661   23.7667  -30.3647 H   0  0  0  0  0  0  0  0  0  0  0  0
  1  2  1  0
  2  3  2  0
  3  4  1  0
  4  5  2  0
  5  6  1  0
  6  7  1  0
  7  8  1  0
  8  9  1  0
  9 10  1  0
 10 11  1  0
 11 12  1  0
 12 13  1  0
 13 14  1  0
 14 15  1  0
 15 16  1  0
 10 17  1  0
 17 18  1  0
  5 19  1  0
 19 20  2  0
 20  2  1  0
 18  7  1  0
 16 11  1  0
  1 21  1  0
  1 22  1  0
  1 23  1  0
  3 24  1  0
  4 25  1  0
  6 26  1  0
  6 27  1  0
  8 28  1  0
  8 29  1  0
  9 30  1  0
  9 31  1  0
 10 32  1  0
 11 33  1  0
 12 34  1  0
 12 35  1  0
 13 36  1  0
 13 37  1  0
 14 38  1  0
 14 39  1  0
 15 40  1  0
 15 41  1  0
 16 42  1  0
 16 43  1  0
 17 44  1  0
 17 45  1  0
 18 46  1  0
 18 47  1  0
 19 48  1  0
 20 49  1  0
M  CHG  1  11   1
M  END
>  <UniqueID>  (7) 
7

>  <SMILES>  (7) 
Cc1ccc(CN2CCC([NH+]3CCCCC3)CC2)cc1

>  <Energy>  (7) 
71.55219324183622

>  <Genealogy>  (7) 
Cc1ccc(CN2CCC([NH+]3CCCCC3)CC2)cc1 (protonated)
Cc1ccc(CN2CCC([NH+]3CCCCC3)CC2)cc1 (3D coordinates assigned)
Cc1ccc(CN2CCC([NH+]3CCCCC3)CC2)cc1 (nonaromatic ring conformer: 71.55219324183622 kcal/mol)

>  <smiles>  (7) 
Cc1ccc(CN2CCC(N3CCCCC3)CC2)cc1

>  <score_type>  (7) 
oracle

>  <origin>  (7) 
adg

>  <m_score__min__energy>  (7) 
-7.3200000000000003

>  <m_primary>  (7) 
energy

$$$$
7:0
     RDKit          3D

 40 42  0  0  0  0  0  0  0  0999 V2000
   -4.1800   18.3540  -34.5890 C   0  0  0  0  0  0  0  0  0  0  0  0
   -3.6710   18.6830  -33.1820 C   0  0  0  0  0  0  0  0  0  0  0  0
   -3.9470   20.1010  -32.8250 N   0  0  0  0  0  0  0  0  0  0  0  0
   -2.9050   21.0120  -32.6980 C   0  0  0  0  0  0  0  0  0  0  0  0
   -1.4730   20.7180  -33.1210 C   0  0  0  0  0  0  0  0  0  0  0  0
   -1.2210   21.1660  -34.5010 N   0  0  0  0  0  0  0  0  0  0  0  0
    0.0590   20.6570  -35.0190 C   0  0  0  0  0  0  0  0  0  0  0  0
    0.9880   21.7810  -35.3750 C   0  0  0  0  0  0  0  0  0  0  0  0
    2.3240   21.6570  -35.7020 C   0  0  0  0  0  0  0  0  0  0  0  0
    2.7720   22.9440  -35.9160 C   0  0  0  0  0  0  0  0  0  0  0  0
    1.6860   23.7690  -35.7060 C   0  0  0  0  0  0  0  0  0  0  0  0
    0.6370   23.0470  -35.3840 O   0  0  0  0  0  0  0  0  0  0  0  0
   -3.1410   22.2850  -32.1640 C   0  0  0  0  0  0  0  0  0  0  0  0
   -4.4230   22.6820  -31.8240 C   0  0  0  0  0  0  0  0  0  0  0  0
   -4.6000   23.8350  -31.3410 O   0  0  0  0  0  0  0  0  0  0  0  0
   -5.4970   21.8130  -32.0350 C   0  0  0  0  0  0  0  0  0  0  0  0
   -6.8130   22.2200  -31.7360 C   0  0  0  0  0  0  0  0  0  0  0  0
   -7.8890   21.3660  -31.9640 C   0  0  0  0  0  0  0  0  0  0  0  0
   -9.5210   21.8880  -31.5910 Cl  0  0  0  0  0  0  0  0  0  0  0  0
   -7.6680   20.1000  -32.4970 C   0  0  0  0  0  0  0  0  0  0  0  0
   -6.3730   19.6750  -32.7950 C   0  0  0  0  0  0  0  0  0  0  0  0
   -5.2490   20.5120  -32.5570 C   0  0  0  0  0  0  0  0  0  0  0  0
   -5.1018   17.7582  -34.5155 H   0  0  0  0  0  0  0  0  0  0  0  0
   -4.3894   19.2881  -35.1309 H   0  0  0  0  0  0  0  0  0  0  0  0
   -3.4143   17.7795  -35.1309 H   0  0  0  0  0  0  0  0  0  0  0  0
   -4.1736   18.0265  -32.4565 H   0  0  0  0  0  0  0  0  0  0  0  0
   -2.5826   18.5252  -33.1608 H   0  0  0  0  0  0  0  0  0  0  0  0
   -0.7840   21.2422  -32.4424 H   0  0  0  0  0  0  0  0  0  0  0  0
   -1.3129   19.6307  -33.0738 H   0  0  0  0  0  0  0  0  0  0  0  0
   -1.2320   22.2080  -34.5660 H   0  0  0  0  0  0  0  0  0  0  0  0
   -1.9910   20.8020  -35.1120 H   0  0  0  0  0  0  0  0  0  0  0  0
    0.5332   20.0300  -34.2496 H   0  0  0  0  0  0  0  0  0  0  0  0
   -0.1422   20.0712  -35.9281 H   0  0  0  0  0  0  0  0  0  0  0  0
    2.9079   20.7277  -35.7762 H   0  0  0  0  0  0  0  0  0  0  0  0
    3.7901   23.2509  -36.1974 H   0  0  0  0  0  0  0  0  0  0  0  0
    1.6971   24.8654  -35.7948 H   0  0  0  0  0  0  0  0  0  0  0  0
   -2.2990   22.9766  -32.0132 H   0  0  0  0  0  0  0  0  0  0  0  0
   -6.9917   23.2219  -31.3185 H   0  0  0  0  0  0  0  0  0  0  0  0
   -8.5198   19.4298  -32.6847 H   0  0  0  0  0  0  0  0  0  0  0  0
   -6.2188   18.6732  -33.2222 H   0  0  0  0  0  0  0  0  0  0  0  0
  1  2  1  0
  2  3  1  0
  3  4  1  0
  4  5  1  0
  5  6  1  0
  6  7  1  0
  7  8  1  0
  8  9  2  0
  9 10  1  0
 10 11  2  0
 11 12  1  0
  4 13  2  0
 13 14  1  0
 14 15  2  0
 14 16  1  0
 16 17  2  0
 17 18  1  0
 18 19  1  0
 18 20  2  0
 20 21  1  0
 21 22  2  0
 22  3  1  0
 12  8  1  0
 22 16  1  0
  1 23  1  0
  1 24  1  0
  1 25  1  0
  2 26  1  0
  2 27  1  0
  5 28  1  0
  5 29  1  0
  6 30  1  0
  6 31  1  0
  7 32  1  0
  7 33  1  0
  9 34  1  0
 10 35  1  0
 11 36  1  0
 13 37  1  0
 17 38  1  0
 20 39  1  0
 21 40  1  0
M  CHG  1   6   1
M  END
>  <UniqueID>  (8) 
8

>  <SMILES>  (8) 
CCn1c(C[NH2+]Cc2ccco2)cc(=O)c2cc(Cl)ccc21

>  <Energy>  (8) 
81.0353616788117

>  <Genealogy>  (8) 
CCn1c(C[NH2+]Cc2ccco2)cc(=O)c2cc(Cl)ccc21 (protonated)
CCn1c(C[NH2+]Cc2ccco2)cc(=O)c2cc(Cl)ccc21 (3D coordinates assigned)
CCn1c(C[NH2+]Cc2ccco2)cc(=O)c2cc(Cl)ccc21 (optimized conformer: 81.0353616788117 kcal/mol)

>  <smiles>  (8) 
CCn1c(CNCc2ccco2)cc(=O)c2cc(Cl)ccc21

>  <score_type>  (8) 
oracle

>  <origin>  (8) 
adg

>  <m_score__min__energy>  (8) 
-7.3200000000000003

>  <m_primary>  (8) 
energy

$$$$
8:0
     RDKit          3D

 69 72  0  0  0  0  0  0  0  0999 V2000
   -2.9950   19.0730  -26.7080 C   0  0  0  0  0  0  0  0  0  0  0  0
   -1.6620   19.7960  -26.9170 C   0  0  0  0  0  0  0  0  0  0  0  0
   -1.7500   20.8740  -27.9350 N   0  0  0  0  0  0  0  0  0  0  0  0
   -3.1250   21.4210  -27.9250 C   0  0  0  0  0  0  0  0  0  0  0  0
   -1.4270   20.3520  -29.2820 C   0  0  0  0  0  0  0  0  0  0  0  0
   -1.2370   21.4640  -30.3410 C   0  0  0  0  0  0  0  0  0  0  0  0
   -2.4040   21.5900  -31.2340 N   0  0  0  0  0  0  0  0  0  0  0  0
   -3.2870   22.6350  -31.2880 C   0  0  0  0  0  0  0  0  0  0  0  0
   -3.2510   23.8570  -30.3980 C   0  0  0  0  0  0  0  0  0  0  0  0
   -4.2930   24.8340  -30.7480 N   0  0  0  0  0  0  0  0  0  0  0  0
   -5.4190   24.8630  -29.8000 C   0  0  0  0  0  0  0  0  0  0  0  0
   -6.3590   23.6820  -30.0690 C   0  0  0  0  0  0  0  0  0  0  0  0
   -7.0520   23.7940  -31.4360 C   0  0  0  0  0  0  0  0  0  0  0  0
   -7.5210   22.4630  -31.8830 N   0  0  0  0  0  0  0  0  0  0  0  0
   -6.8620   21.3950  -31.1000 C   0  0  0  0  0  0  0  0  0  0  0  0
   -7.2810   20.0160  -31.6180 C   0  0  0  0  0  0  0  0  0  0  0  0
   -8.8010   19.8600  -31.5590 C   0  0  0  0  0  0  0  0  0  0  0  0
   -9.4890   21.0160  -32.2880 C   0  0  0  0  0  0  0  0  0  0  0  0
   -8.9910   22.3620  -31.7530 C   0  0  0  0  0  0  0  0  0  0  0  0
   -4.3220   22.4270  -32.1420 N   0  0  0  0  0  0  0  0  0  0  0  0
   -4.0710   21.1970  -32.6130 C   0  0  0  0  0  0  0  0  0  0  0  0
   -4.8660   20.5000  -33.4440 N   0  0  0  0  0  0  0  0  0  0  0  0
   -4.5320   19.2200  -33.7700 C   0  0  0  0  0  0  0  0  0  0  0  0
   -5.3820   18.5300  -34.6360 C   0  0  0  0  0  0  0  0  0  0  0  0
   -5.1040   17.2200  -34.9780 C   0  0  0  0  0  0  0  0  0  0  0  0
   -3.9740   16.6010  -34.4690 C   0  0  0  0  0  0  0  0  0  0  0  0
   -3.1130   17.2950  -33.6010 C   0  0  0  0  0  0  0  0  0  0  0  0
   -1.8960   16.5340  -33.1130 C   0  0  0  0  0  0  0  0  0  0  0  0
   -3.3910   18.6120  -33.2410 N   0  0  0  0  0  0  0  0  0  0  0  0
   -2.5900   19.3490  -32.3700 C   0  0  0  0  0  0  0  0  0  0  0  0
   -1.5630   18.8570  -31.8420 O   0  0  0  0  0  0  0  0  0  0  0  0
   -2.9490   20.6720  -32.0720 C   0  0  0  0  0  0  0  0  0  0  0  0
   -3.1898   18.9673  -25.6306 H   0  0  0  0  0  0  0  0  0  0  0  0
   -3.8047   19.6556  -27.1716 H   0  0  0  0  0  0  0  0  0  0  0  0
   -2.9483   18.0766  -27.1716 H   0  0  0  0  0  0  0  0  0  0  0  0
   -1.3481   20.2395  -25.9606 H   0  0  0  0  0  0  0  0  0  0  0  0
   -0.9343   19.0548  -27.2789 H   0  0  0  0  0  0  0  0  0  0  0  0
   -3.4592   21.5539  -26.8855 H   0  0  0  0  0  0  0  0  0  0  0  0
   -3.1370   22.3924  -28.4411 H   0  0  0  0  0  0  0  0  0  0  0  0
   -3.8009   20.7233  -28.4411 H   0  0  0  0  0  0  0  0  0  0  0  0
   -0.4961   19.7697  -29.2166 H   0  0  0  0  0  0  0  0  0  0  0  0
   -2.2795   19.7367  -29.6056 H   0  0  0  0  0  0  0  0  0  0  0  0
   -1.0818   22.4224  -29.8240 H   0  0  0  0  0  0  0  0  0  0  0  0
   -0.3672   21.1961  -30.9588 H   0  0  0  0  0  0  0  0  0  0  0  0
   -3.3997   23.5396  -29.3553 H   0  0  0  0  0  0  0  0  0  0  0  0
   -2.2741   24.3438  -30.5346 H   0  0  0  0  0  0  0  0  0  0  0  0
   -4.6490   24.6540  -31.7180 H   0  0  0  0  0  0  0  0  0  0  0  0
   -5.0324   24.7946  -28.7725 H   0  0  0  0  0  0  0  0  0  0  0  0
   -5.9746   25.8039  -29.9267 H   0  0  0  0  0  0  0  0  0  0  0  0
   -5.7745   22.7505  -30.0430 H   0  0  0  0  0  0  0  0  0  0  0  0
   -7.1385   23.6861  -29.2929 H   0  0  0  0  0  0  0  0  0  0  0  0
   -7.9132   24.4732  -31.3520 H   0  0  0  0  0  0  0  0  0  0  0  0
   -6.3338   24.1865  -32.1710 H   0  0  0  0  0  0  0  0  0  0  0  0
   -5.7708   21.4999  -31.1909 H   0  0  0  0  0  0  0  0  0  0  0  0
   -7.1646   21.4870  -30.0464 H   0  0  0  0  0  0  0  0  0  0  0  0
   -6.9459   19.9036  -32.6597 H   0  0  0  0  0  0  0  0  0  0  0  0
   -6.8196   19.2434  -30.9853 H   0  0  0  0  0  0  0  0  0  0  0  0
   -9.0859   18.9108  -32.0363 H   0  0  0  0  0  0  0  0  0  0  0  0
   -9.1178   19.8660  -30.5056 H   0  0  0  0  0  0  0  0  0  0  0  0
   -9.2662   20.9493  -33.3631 H   0  0  0  0  0  0  0  0  0  0  0  0
  -10.5738   20.9464  -32.1197 H   0  0  0  0  0  0  0  0  0  0  0  0
   -9.4612   23.1749  -32.3259 H   0  0  0  0  0  0  0  0  0  0  0  0
   -9.2589   22.4414  -30.6891 H   0  0  0  0  0  0  0  0  0  0  0  0
   -6.2726   19.0286  -35.0461 H   0  0  0  0  0  0  0  0  0  0  0  0
   -5.7778   16.6708  -35.6521 H   0  0  0  0  0  0  0  0  0  0  0  0
   -3.7491   15.5604  -34.7456 H   0  0  0  0  0  0  0  0  0  0  0  0
   -1.8847   16.5269  -32.0131 H   0  0  0  0  0  0  0  0  0  0  0  0
   -1.9363   15.4999  -33.4859 H   0  0  0  0  0  0  0  0  0  0  0  0
   -0.9839   17.0230  -33.4859 H   0  0  0  0  0  0  0  0  0  0  0  0
  1  2  1  0
  2  3  1  0
  3  4  1  0
  3  5  1  0
  5  6  1  0
  6  7  1  0
  7  8  1  0
  8  9  1  0
  9 10  1  0
 10 11  1  0
 11 12  1  0
 12 13  1  0
 13 14  1  0
 14 15  1  0
 15 16  1  0
 16 17  1  0
 17 18  1  0
 18 19  1  0
  8 20  2  0
 20 21  1  0
 21 22  1  0
 22 23  2  0
 23 24  1  0
 24 25  2  0
 25 26  1  0
 26 27  2  0
 27 28  1  0
 27 29  1  0
 29 30  1  0
 30 31  2  0
 30 32  1  0
 32  7  1  0
 19 14  1  0
 32 21  2  0
 29 23  1  0
  1 33  1  0
  1 34  1  0
  1 35  1  0
  2 36  1  0
  2 37  1  0
  4 38  1  0
  4 39  1  0
  4 40  1  0
  5 41  1  0
  5 42  1  0
  6 43  1  0
  6 44  1  0
  9 45  1  0
  9 46  1  0
 10 47  1  0
 11 48  1  0
 11 49  1  0
 12 50  1  0
 12 51  1  0
 13 52  1  0
 13 53  1  0
 15 54  1  0
 15 55  1  0
 16 56  1  0
 16 57  1  0
 17 58  1  0
 17 59  1  0
 18 60  1  0
 18 61  1  0
 19 62  1  0
 19 63  1  0
 24 64  1  0
 25 65  1  0
 26 66  1  0
 28 67  1  0
 28 68  1  0
 28 69  1  0
M  END
>  <UniqueID>  (9) 
9

>  <SMILES>  (9) 
CCN(C)CCn1c(CNCCCN2CCCCC2)nc2nc3cccc(C)n3c(=O)c21

>  <Energy>  (9) 
123.67194399838394

>  <Genealogy>  (9) 
CCN(C)CCn1c(CNCCCN2CCCCC2)nc2nc3cccc(C)n3c(=O)c21 (3D coordinates assigned)
CCN(C)CCn1c(CNCCCN2CCCCC2)nc2nc3cccc(C)n3c(=O)c21 (nonaromatic ring conformer: 123.67194399838394 kcal/mol)

>  <smiles>  (9) 
CCN(C)CCn1c(CNCCCN2CCCCC2)nc2nc3cccc(C)n3c(=O)c21

>  <score_type>  (9) 
oracle

>  <origin>  (9) 
adg

>  <m_score__min__energy>  (9) 
-9.0299999999999994

>  <m_primary>  (9) 
energy

$$$$
9:0
     RDKit          3D

 56 58  0  0  0  0  0  0  0  0999 V2000
   -6.0940   16.9830  -32.2370 C   0  0  0  0  0  0  0  0  0  0  0  0
   -6.7040   17.5690  -33.5170 C   0  0  0  0  0  0  0  0  0  0  0  0
   -7.1900   18.9720  -33.3290 N   0  0  0  0  0  0  0  0  0  0  0  0
   -7.6730   19.1900  -31.9380 C   0  0  0  0  0  0  0  0  0  0  0  0
   -9.0930   18.6600  -31.7090 C   0  0  0  0  0  0  0  0  0  0  0  0
   -6.0970   19.9260  -33.6720 C   0  0  0  0  0  0  0  0  0  0  0  0
   -4.9170   19.9790  -32.6730 C   0  0  0  0  0  0  0  0  0  0  0  0
   -3.7870   21.3350  -32.9690 S   0  0  0  0  0  0  0  0  0  0  0  0
   -2.3830   20.7910  -33.7130 O   0  0  0  0  0  0  0  0  0  0  0  0
   -3.3900   22.2640  -31.5280 C   0  0  0  0  0  0  0  0  0  0  0  0
   -2.0470   22.3610  -31.1470 C   0  0  0  0  0  0  0  0  0  0  0  0
   -1.6850   23.0500  -29.9890 C   0  0  0  0  0  0  0  0  0  0  0  0
   -2.6630   23.6660  -29.1950 C   0  0  0  0  0  0  0  0  0  0  0  0
   -2.2830   24.3910  -27.9590 C   0  0  0  0  0  0  0  0  0  0  0  0
   -3.2540   24.6710  -26.9800 C   0  0  0  0  0  0  0  0  0  0  0  0
   -2.9070   25.3560  -25.8130 C   0  0  0  0  0  0  0  0  0  0  0  0
   -1.5880   25.7670  -25.6080 C   0  0  0  0  0  0  0  0  0  0  0  0
   -1.2530   26.4320  -24.4750 F   0  0  0  0  0  0  0  0  0  0  0  0
   -0.6120   25.4900  -26.5690 C   0  0  0  0  0  0  0  0  0  0  0  0
   -0.9530   24.8060  -27.7410 C   0  0  0  0  0  0  0  0  0  0  0  0
    0.0230   24.5170  -28.6400 F   0  0  0  0  0  0  0  0  0  0  0  0
   -4.0080   23.6020  -29.5940 C   0  0  0  0  0  0  0  0  0  0  0  0
   -4.3870   22.9040  -30.7540 C   0  0  0  0  0  0  0  0  0  0  0  0
   -5.8180   22.8960  -31.1430 C   0  0  0  0  0  0  0  0  0  0  0  0
   -6.2440   23.4670  -32.3550 C   0  0  0  0  0  0  0  0  0  0  0  0
   -7.5950   23.4360  -32.7160 C   0  0  0  0  0  0  0  0  0  0  0  0
   -8.5310   22.8290  -31.8740 C   0  0  0  0  0  0  0  0  0  0  0  0
   -8.1160   22.2500  -30.6720 C   0  0  0  0  0  0  0  0  0  0  0  0
   -6.7670   22.2800  -30.3090 C   0  0  0  0  0  0  0  0  0  0  0  0
   -6.5722   17.4424  -31.3593 H   0  0  0  0  0  0  0  0  0  0  0  0
   -6.2584   15.8955  -32.2170 H   0  0  0  0  0  0  0  0  0  0  0  0
   -5.0140   17.1909  -32.2170 H   0  0  0  0  0  0  0  0  0  0  0  0
   -5.9388   17.5635  -34.3072 H   0  0  0  0  0  0  0  0  0  0  0  0
   -7.5704   16.9484  -33.7893 H   0  0  0  0  0  0  0  0  0  0  0  0
   -7.9830   19.1470  -33.9830 H   0  0  0  0  0  0  0  0  0  0  0  0
   -6.9906   18.6760  -31.2450 H   0  0  0  0  0  0  0  0  0  0  0  0
   -7.6939   20.2757  -31.7625 H   0  0  0  0  0  0  0  0  0  0  0  0
   -9.2875   18.5874  -30.6288 H   0  0  0  0  0  0  0  0  0  0  0  0
   -9.8193   19.3476  -32.1669 H   0  0  0  0  0  0  0  0  0  0  0  0
   -9.1912   17.6647  -32.1669 H   0  0  0  0  0  0  0  0  0  0  0  0
   -5.6951   19.6406  -34.6554 H   0  0  0  0  0  0  0  0  0  0  0  0
   -6.5537   20.9265  -33.6510 H   0  0  0  0  0  0  0  0  0  0  0  0
   -5.3260   20.0827  -31.6571 H   0  0  0  0  0  0  0  0  0  0  0  0
   -4.3444   19.0485  -32.8009 H   0  0  0  0  0  0  0  0  0  0  0  0
   -2.3710   21.2550  -34.5880 H   0  0  0  0  0  0  0  0  0  0  0  0
   -1.2695   21.8897  -31.7662 H   0  0  0  0  0  0  0  0  0  0  0  0
   -0.6261   23.1103  -29.6972 H   0  0  0  0  0  0  0  0  0  0  0  0
   -4.2941   24.3481  -27.1347 H   0  0  0  0  0  0  0  0  0  0  0  0
   -3.6737   25.5720  -25.0544 H   0  0  0  0  0  0  0  0  0  0  0  0
    0.4272   25.8106  -26.4036 H   0  0  0  0  0  0  0  0  0  0  0  0
   -4.7767   24.1057  -28.9896 H   0  0  0  0  0  0  0  0  0  0  0  0
   -5.5103   23.9411  -33.0236 H   0  0  0  0  0  0  0  0  0  0  0  0
   -7.9211   23.8898  -33.6635 H   0  0  0  0  0  0  0  0  0  0  0  0
   -9.5936   22.8071  -32.1574 H   0  0  0  0  0  0  0  0  0  0  0  0
   -8.8522   21.7699  -30.0106 H   0  0  0  0  0  0  0  0  0  0  0  0
   -6.4454   21.8182  -29.3638 H   0  0  0  0  0  0  0  0  0  0  0  0
  1  2  1  0
  2  3  1  0
  3  4  1  0
  4  5  1  0
  3  6  1  0
  6  7  1  0
  7  8  1  0
  8  9  1  1
  8 10  1  0
 10 11  2  0
 11 12  1  0
 12 13  2  0
 13 14  1  0
 14 15  2  0
 15 16  1  0
 16 17  2  0
 17 18  1  0
 17 19  1  0
 19 20  2  0
 20 21  1  0
 13 22  1  0
 22 23  2  0
 23 24  1  0
 24 25  2  0
 25 26  1  0
 26 27  2  0
 27 28  1  0
 28 29  2  0
 23 10  1  0
 29 24  1  0
 20 14  1  0
  1 30  1  0
  1 31  1  0
  1 32  1  0
  2 33  1  0
  2 34  1  0
  3 35  1  0
  4 36  1  0
  4 37  1  0
  5 38  1  0
  5 39  1  0
  5 40  1  0
  6 41  1  0
  6 42  1  0
  7 43  1  0
  7 44  1  0
  9 45  1  0
 11 46  1  0
 12 47  1  0
 15 48  1  0
 16 49  1  0
 19 50  1  0
 22 51  1  0
 25 52  1  0
 26 53  1  0
 27 54  1  0
 28 55  1  0
 29 56  1  0
M  CHG  2   3   1   8   1
M  END
>  <UniqueID>  (10) 
10

>  <SMILES>  (10) 
CC[NH+](CC)CC[S@+](O)c1ccc(-c2ccc(F)cc2F)cc1-c1ccccc1

>  <Energy>  (10) 
68.42432605962273

>  <Genealogy>  (10) 
CC[NH+](CC)CC[S+](O)c1ccc(-c2ccc(F)cc2F)cc1-c1ccccc1 (protonated)
CC[NH+](CC)CC[S@+](O)c1ccc(-c2ccc(F)cc2F)cc1-c1ccccc1 (chirality)
CC[NH+](CC)CC[S@+](O)c1ccc(-c2ccc(F)cc2F)cc1-c1ccccc1 (3D coordinates assigned)
CC[NH+](CC)CC[S@+](O)c1ccc(-c2ccc(F)cc2F)cc1-c1ccccc1 (optimized conformer: 68.42432605962273 kcal/mol)

>  <smiles>  (10) 
CCN(CC)CC[S+]([O-])c1ccc(-c2ccc(F)cc2F)cc1-c1ccccc1

>  <score_type>  (10) 
oracle

>  <origin>  (10) 
adg

>  <m_score__min__energy>  (10) 
-8.0299999999999994

>  <m_primary>  (10) 
energy

$$$$
10:0
     RDKit          3D

 39 40  0  0  0  0  0  0  0  0999 V2000
   -1.9580   21.0790  -31.6170 C   0  0  0  0  0  0  0  0  0  0  0  0
   -2.8140   22.2870  -31.9820 C   0  0  0  0  0  0  0  0  0  0  0  0
   -3.2540   22.9970  -30.7740 N   0  0  0  0  0  0  0  0  0  0  0  0
   -2.5290   22.8590  -29.5040 C   0  0  0  0  0  0  0  0  0  0  0  0
   -1.5580   24.0200  -29.2970 C   0  0  0  0  0  0  0  0  0  0  0  0
   -2.2510   25.2350  -29.3440 O   0  0  0  0  0  0  0  0  0  0  0  0
   -4.5110   23.6910  -30.7900 C   0  0  0  0  0  0  0  0  0  0  0  0
   -4.5630   24.9860  -30.3780 N   0  0  0  0  0  0  0  0  0  0  0  0
   -5.7310   25.6760  -30.3770 C   0  0  0  0  0  0  0  0  0  0  0  0
   -6.8760   25.0780  -30.7930 N   0  0  0  0  0  0  0  0  0  0  0  0
   -6.8860   23.7850  -31.2160 C   0  0  0  0  0  0  0  0  0  0  0  0
   -8.1820   23.1770  -31.6650 C   0  0  0  0  0  0  0  0  0  0  0  0
   -5.6840   23.0520  -31.2250 C   0  0  0  0  0  0  0  0  0  0  0  0
   -5.6450   21.6780  -31.6680 C   0  0  0  0  0  0  0  0  0  0  0  0
   -5.6170   20.5350  -32.0490 C   0  0  0  0  0  0  0  0  0  0  0  0
   -5.5840   19.1690  -32.4940 C   0  0  0  0  0  0  0  0  0  0  0  0
   -5.0500   18.8430  -33.7460 C   0  0  0  0  0  0  0  0  0  0  0  0
   -5.0270   17.5110  -34.1640 C   0  0  0  0  0  0  0  0  0  0  0  0
   -5.5390   16.5200  -33.3200 C   0  0  0  0  0  0  0  0  0  0  0  0
   -5.5210   14.6910  -33.8630 Br  0  0  0  0  0  0  0  0  0  0  0  0
   -6.0530   16.8570  -32.1080 N   0  0  0  0  0  0  0  0  0  0  0  0
   -6.0870   18.1480  -31.6790 C   0  0  0  0  0  0  0  0  0  0  0  0
   -1.8957   20.9911  -30.5223 H   0  0  0  0  0  0  0  0  0  0  0  0
   -2.4132   20.1680  -32.0327 H   0  0  0  0  0  0  0  0  0  0  0  0
   -0.9476   21.2065  -32.0327 H   0  0  0  0  0  0  0  0  0  0  0  0
   -2.2233   22.9719  -32.6081 H   0  0  0  0  0  0  0  0  0  0  0  0
   -3.7019   21.9381  -32.5297 H   0  0  0  0  0  0  0  0  0  0  0  0
   -3.2534   22.8444  -28.6764 H   0  0  0  0  0  0  0  0  0  0  0  0
   -1.9533   21.9220  -29.5300 H   0  0  0  0  0  0  0  0  0  0  0  0
   -1.0694   23.9165  -28.3169 H   0  0  0  0  0  0  0  0  0  0  0  0
   -0.8000   24.0045  -30.0940 H   0  0  0  0  0  0  0  0  0  0  0  0
   -3.0800   25.0990  -28.8150 H   0  0  0  0  0  0  0  0  0  0  0  0
   -5.7500   26.7224  -30.0383 H   0  0  0  0  0  0  0  0  0  0  0  0
   -8.7797   22.8966  -30.7852 H   0  0  0  0  0  0  0  0  0  0  0  0
   -8.7397   23.9074  -32.2695 H   0  0  0  0  0  0  0  0  0  0  0  0
   -7.9768   22.2812  -32.2695 H   0  0  0  0  0  0  0  0  0  0  0  0
   -4.6499   19.6333  -34.3982 H   0  0  0  0  0  0  0  0  0  0  0  0
   -4.6107   17.2438  -35.1465 H   0  0  0  0  0  0  0  0  0  0  0  0
   -6.5095   18.3891  -30.6924 H   0  0  0  0  0  0  0  0  0  0  0  0
  1  2  1  0
  2  3  1  0
  3  4  1  0
  4  5  1  0
  5  6  1  0
  3  7  1  0
  7  8  2  0
  8  9  1  0
  9 10  2  0
 10 11  1  0
 11 12  1  0
 11 13  2  0
 13 14  1  0
 14 15  3  0
 15 16  1  0
 16 17  2  0
 17 18  1  0
 18 19  2  0
 19 20  1  0
 19 21  1  0
 21 22  2  0
 13  7  1  0
 22 16  1  0
  1 23  1  0
  1 24  1  0
  1 25  1  0
  2 26  1  0
  2 27  1  0
  4 28  1  0
  4 29  1  0
  5 30  1  0
  5 31  1  0
  6 32  1  0
  9 33  1  0
 12 34  1  0
 12 35  1  0
 12 36  1  0
 17 37  1  0
 18 38  1  0
 22 39  1  0
M  END
>  <UniqueID>  (11) 
11

>  <SMILES>  (11) 
CCN(CCO)c1ncnc(C)c1C#Cc1ccc(Br)nc1

>  <Energy>  (11) 
35.028301893835064

>  <Genealogy>  (11) 
CCN(CCO)c1ncnc(C)c1C#Cc1ccc(Br)nc1 (3D coordinates assigned)
CCN(CCO)c1ncnc(C)c1C#Cc1ccc(Br)nc1 (optimized conformer: 35.028301893835064 kcal/mol)

>  <smiles>  (11) 
CCN(CCO)c1ncnc(C)c1C#Cc1ccc(Br)nc1

>  <score_type>  (11) 
oracle

>  <origin>  (11) 
adg

>  <m_score__min__energy>  (11) 
-7.3499999999999996

>  <m_primary>  (11) 
energy

$$$$
11:0
     RDKit          3D

 47 49  0  0  0  0  0  0  0  0999 V2000
   -3.4800   22.1420  -28.7950 C   0  0  0  0  0  0  0  0  0  0  0  0
   -3.8440   23.6280  -28.8360 C   0  0  0  0  0  0  0  0  0  0  0  0
   -5.2970   23.8590  -28.9500 N   0  0  0  0  0  0  0  0  0  0  0  0
   -5.6730   25.0650  -29.7150 C   0  0  0  0  0  0  0  0  0  0  0  0
   -6.4870   24.7680  -30.9900 C   0  0  0  0  0  0  0  0  0  0  0  0
   -6.1840   23.4380  -31.5250 N   0  0  0  0  0  0  0  0  0  0  0  0
   -4.9830   23.0280  -31.9950 C   0  0  0  0  0  0  0  0  0  0  0  0
   -5.0410   21.6910  -32.3760 C   0  0  0  0  0  0  0  0  0  0  0  0
   -3.9190   20.8920  -32.9120 C   0  0  0  0  0  0  0  0  0  0  0  0
   -4.1610   19.6260  -33.4680 C   0  0  0  0  0  0  0  0  0  0  0  0
   -3.1080   18.8680  -33.9890 C   0  0  0  0  0  0  0  0  0  0  0  0
   -1.7970   19.3650  -33.9600 C   0  0  0  0  0  0  0  0  0  0  0  0
   -0.6730   18.5700  -34.5560 C   0  0  0  0  0  0  0  0  0  0  0  0
   -1.5580   20.6440  -33.4380 C   0  0  0  0  0  0  0  0  0  0  0  0
   -2.6100   21.4020  -32.9160 C   0  0  0  0  0  0  0  0  0  0  0  0
   -6.3470   21.2900  -32.1330 C   0  0  0  0  0  0  0  0  0  0  0  0
   -7.0020   20.0800  -32.3760 C   0  0  0  0  0  0  0  0  0  0  0  0
   -8.3700   19.9830  -32.0470 C   0  0  0  0  0  0  0  0  0  0  0  0
   -9.1000   18.6880  -32.2460 C   0  0  0  0  0  0  0  0  0  0  0  0
   -9.0380   21.0930  -31.4760 C   0  0  0  0  0  0  0  0  0  0  0  0
   -8.3620   22.3070  -31.2670 C   0  0  0  0  0  0  0  0  0  0  0  0
   -7.0100   22.3750  -31.6130 C   0  0  0  0  0  0  0  0  0  0  0  0
   -3.3994   21.8130  -27.7485 H   0  0  0  0  0  0  0  0  0  0  0  0
   -4.2618   21.5588  -29.3035 H   0  0  0  0  0  0  0  0  0  0  0  0
   -2.5171   21.9862  -29.3035 H   0  0  0  0  0  0  0  0  0  0  0  0
   -3.4842   24.1034  -27.9116 H   0  0  0  0  0  0  0  0  0  0  0  0
   -3.3693   24.0602  -29.7292 H   0  0  0  0  0  0  0  0  0  0  0  0
   -5.7390   23.0180  -29.3880 H   0  0  0  0  0  0  0  0  0  0  0  0
   -5.7010   23.9420  -27.9880 H   0  0  0  0  0  0  0  0  0  0  0  0
   -6.2754   25.7147  -29.0631 H   0  0  0  0  0  0  0  0  0  0  0  0
   -4.7363   25.5426  -30.0385 H   0  0  0  0  0  0  0  0  0  0  0  0
   -7.5591   24.8204  -30.7495 H   0  0  0  0  0  0  0  0  0  0  0  0
   -6.2186   25.5149  -31.7517 H   0  0  0  0  0  0  0  0  0  0  0  0
   -4.0871   23.6623  -32.0659 H   0  0  0  0  0  0  0  0  0  0  0  0
   -5.1860   19.2276  -33.4940 H   0  0  0  0  0  0  0  0  0  0  0  0
   -3.3087   17.8776  -34.4235 H   0  0  0  0  0  0  0  0  0  0  0  0
   -0.0619   18.1378  -33.7499 H   0  0  0  0  0  0  0  0  0  0  0  0
   -1.0851   17.7614  -35.1775 H   0  0  0  0  0  0  0  0  0  0  0  0
   -0.0478   19.2279  -35.1775 H   0  0  0  0  0  0  0  0  0  0  0  0
   -0.5370   21.0533  -33.4392 H   0  0  0  0  0  0  0  0  0  0  0  0
   -2.4119   22.4034  -32.5061 H   0  0  0  0  0  0  0  0  0  0  0  0
   -6.4646   19.2252  -32.8126 H   0  0  0  0  0  0  0  0  0  0  0  0
   -9.3460   18.2515  -31.2667 H   0  0  0  0  0  0  0  0  0  0  0  0
  -10.0271   18.8724  -32.8086 H   0  0  0  0  0  0  0  0  0  0  0  0
   -8.4623   17.9903  -32.8086 H   0  0  0  0  0  0  0  0  0  0  0  0
  -10.0973   21.0042  -31.1930 H   0  0  0  0  0  0  0  0  0  0  0  0
   -8.8822   23.1787  -30.8432 H   0  0  0  0  0  0  0  0  0  0  0  0
  1  2  1  0
  2  3  1  0
  3  4  1  0
  4  5  1  0
  5  6  1  0
  6  7  1  0
  7  8  2  0
  8  9  1  0
  9 10  2  0
 10 11  1  0
 11 12  2  0
 12 13  1  0
 12 14  1  0
 14 15  2  0
  8 16  1  0
 16 17  2  0
 17 18  1  0
 18 19  1  0
 18 20  2  0
 20 21  1  0
 21 22  2  0
 22  6  1  0
 15  9  1  0
 22 16  1  0
  1 23  1  0
  1 24  1  0
  1 25  1  0
  2 26  1  0
  2 27  1  0
  3 28  1  0
  3 29  1  0
  4 30  1  0
  4 31  1  0
  5 32  1  0
  5 33  1  0
  7 34  1  0
 10 35  1  0
 11 36  1  0
 13 37  1  0
 13 38  1  0
 13 39  1  0
 14 40  1  0
 15 41  1  0
 17 42  1  0
 19 43  1  0
 19 44  1  0
 19 45  1  0
 20 46  1  0
 21 47  1  0
M  CHG  1   3   1
M  END
>  <UniqueID>  (12) 
12

>  <SMILES>  (12) 
CC[NH2+]CCn1cc(-c2ccc(C)cc2)c2cc(C)ccc21

>  <Energy>  (12) 
82.40418666433632

>  <Genealogy>  (12) 
CC[NH2+]CCn1cc(-c2ccc(C)cc2)c2cc(C)ccc21 (protonated)
CC[NH2+]CCn1cc(-c2ccc(C)cc2)c2cc(C)ccc21 (3D coordinates assigned)
CC[NH2+]CCn1cc(-c2ccc(C)cc2)c2cc(C)ccc21 (optimized conformer: 82.40418666433632 kcal/mol)

>  <smiles>  (12) 
CCNCCn1cc(-c2ccc(C)cc2)c2cc(C)ccc21

>  <score_type>  (12) 
oracle

>  <origin>  (12) 
adg

>  <m_score__min__energy>  (12) 
-7.75

>  <m_primary>  (12) 
energy

$$$$
12:0
     RDKit          3D

 57 61  0  0  0  0  0  0  0  0999 V2000
   -4.2740   24.8930  -30.1380 C   0  0  0  0  0  0  0  0  0  0  0  0
   -4.9380   23.6780  -30.8040 C   0  0  0  0  0  0  0  0  0  0  0  0
   -6.4070   23.7930  -30.9500 N   0  0  0  0  0  0  0  0  0  0  0  0
   -7.1870   23.1180  -29.8870 C   0  0  0  0  0  0  0  0  0  0  0  0
   -7.9520   21.9000  -30.4220 C   0  0  0  0  0  0  0  0  0  0  0  0
   -8.8950   22.2750  -31.5060 N   0  0  0  0  0  0  0  0  0  0  0  0
   -9.2590   21.1020  -32.3310 C   0  0  0  0  0  0  0  0  0  0  0  0
   -8.1510   20.0800  -32.3390 C   0  0  0  0  0  0  0  0  0  0  0  0
   -8.3980   18.7740  -31.8930 C   0  0  0  0  0  0  0  0  0  0  0  0
   -7.3680   17.8320  -31.8690 C   0  0  0  0  0  0  0  0  0  0  0  0
   -6.0810   18.1880  -32.2790 C   0  0  0  0  0  0  0  0  0  0  0  0
   -5.8090   19.4970  -32.7170 C   0  0  0  0  0  0  0  0  0  0  0  0
   -4.4370   19.8830  -33.1370 C   0  0  0  0  0  0  0  0  0  0  0  0
   -3.9490   21.1750  -32.8810 C   0  0  0  0  0  0  0  0  0  0  0  0
   -2.6580   21.5380  -33.2760 C   0  0  0  0  0  0  0  0  0  0  0  0
   -1.8290   20.6160  -33.9360 C   0  0  0  0  0  0  0  0  0  0  0  0
   -0.4620   21.0000  -34.3540 C   0  0  0  0  0  0  0  0  0  0  0  0
    0.6230   20.2020  -34.1580 N   0  0  0  0  0  0  0  0  0  0  0  0
    1.6220   20.9290  -34.6780 C   0  0  0  0  0  0  0  0  0  0  0  0
    2.9720   20.5950  -34.7500 C   0  0  0  0  0  0  0  0  0  0  0  0
    3.8440   21.5270  -35.3460 C   0  0  0  0  0  0  0  0  0  0  0  0
    3.3470   22.7530  -35.8470 C   0  0  0  0  0  0  0  0  0  0  0  0
    1.9740   23.0540  -35.7550 C   0  0  0  0  0  0  0  0  0  0  0  0
    1.1430   22.1070  -35.1600 C   0  0  0  0  0  0  0  0  0  0  0  0
   -0.1810   22.1820  -34.9680 N   0  0  0  0  0  0  0  0  0  0  0  0
   -2.3160   19.3240  -34.1920 C   0  0  0  0  0  0  0  0  0  0  0  0
   -3.6060   18.9610  -33.7960 C   0  0  0  0  0  0  0  0  0  0  0  0
   -6.8540   20.4380  -32.7440 C   0  0  0  0  0  0  0  0  0  0  0  0
   -8.4120   23.4000  -32.3490 C   0  0  0  0  0  0  0  0  0  0  0  0
   -6.8840   23.5350  -32.3260 C   0  0  0  0  0  0  0  0  0  0  0  0
   -4.3311   24.7885  -29.0445 H   0  0  0  0  0  0  0  0  0  0  0  0
   -3.2196   24.9495  -30.4464 H   0  0  0  0  0  0  0  0  0  0  0  0
   -4.7959   25.8109  -30.4464 H   0  0  0  0  0  0  0  0  0  0  0  0
   -4.5007   23.5518  -31.8054 H   0  0  0  0  0  0  0  0  0  0  0  0
   -4.7524   22.8163  -30.1460 H   0  0  0  0  0  0  0  0  0  0  0  0
   -6.4975   22.7856  -29.0970 H   0  0  0  0  0  0  0  0  0  0  0  0
   -7.9223   23.8367  -29.4962 H   0  0  0  0  0  0  0  0  0  0  0  0
   -7.2293   21.1699  -30.8153 H   0  0  0  0  0  0  0  0  0  0  0  0
   -8.5354   21.4712  -29.5938 H   0  0  0  0  0  0  0  0  0  0  0  0
  -10.1694   20.6418  -31.9195 H   0  0  0  0  0  0  0  0  0  0  0  0
   -9.4300   21.4403  -33.3636 H   0  0  0  0  0  0  0  0  0  0  0  0
   -9.4075   18.4904  -31.5606 H   0  0  0  0  0  0  0  0  0  0  0  0
   -7.5705   16.8066  -31.5263 H   0  0  0  0  0  0  0  0  0  0  0  0
   -5.2748   17.4399  -32.2593 H   0  0  0  0  0  0  0  0  0  0  0  0
   -4.5879   21.9072  -32.3655 H   0  0  0  0  0  0  0  0  0  0  0  0
   -2.2887   22.5531  -33.0684 H   0  0  0  0  0  0  0  0  0  0  0  0
    3.3440   19.6379  -34.3557 H   0  0  0  0  0  0  0  0  0  0  0  0
    4.9176   21.3001  -35.4223 H   0  0  0  0  0  0  0  0  0  0  0  0
    4.0358   23.4746  -36.3105 H   0  0  0  0  0  0  0  0  0  0  0  0
    1.5721   24.0031  -36.1393 H   0  0  0  0  0  0  0  0  0  0  0  0
   -1.6772   18.5922  -34.7081 H   0  0  0  0  0  0  0  0  0  0  0  0
   -3.9741   17.9451  -34.0018 H   0  0  0  0  0  0  0  0  0  0  0  0
   -6.6540   21.4643  -33.0855 H   0  0  0  0  0  0  0  0  0  0  0  0
   -8.7357   23.2284  -33.3862 H   0  0  0  0  0  0  0  0  0  0  0  0
   -8.8366   24.3297  -31.9424 H   0  0  0  0  0  0  0  0  0  0  0  0
   -6.4327   22.6028  -32.6967 H   0  0  0  0  0  0  0  0  0  0  0  0
   -6.5919   24.3793  -32.9677 H   0  0  0  0  0  0  0  0  0  0  0  0
  1  2  1  0
  2  3  1  0
  3  4  1  0
  4  5  1  0
  5  6  1  0
  6  7  1  0
  7  8  1  0
  8  9  2  0
  9 10  1  0
 10 11  2  0
 11 12  1  0
 12 13  1  0
 13 14  2  0
 14 15  1  0
 15 16  2  0
 16 17  1  0
 17 18  2  0
 18 19  1  0
 19 20  2  0
 20 21  1  0
 21 22  2  0
 22 23  1  0
 23 24  2  0
 24 25  1  0
 16 26  1  0
 26 27  2  0
 12 28  2  0
  6 29  1  0
 29 30  1  0
 30  3  1  0
 28  8  1  0
 27 13  1  0
 25 17  1  0
 24 19  1  0
  1 31  1  0
  1 32  1  0
  1 33  1  0
  2 34  1  0
  2 35  1  0
  4 36  1  0
  4 37  1  0
  5 38  1  0
  5 39  1  0
  7 40  1  0
  7 41  1  0
  9 42  1  0
 10 43  1  0
 11 44  1  0
 14 45  1  0
 15 46  1  0
 20 47  1  0
 21 48  1  0
 22 49  1  0
 23 50  1  0
 26 51  1  0
 27 52  1  0
 28 53  1  0
 29 54  1  0
 29 55  1  0
 30 56  1  0
 30 57  1  0
M  CHG  1  25  -1
M  END
>  <UniqueID>  (13) 
13

>  <SMILES>  (13) 
CCN1CCN(Cc2cccc(-c3ccc(-c4nc5ccccc5[n-]4)cc3)c2)CC1

>  <Energy>  (13) 
116.37517514239165

>  <Genealogy>  (13) 
CCN1CCN(Cc2cccc(-c3ccc(-c4nc5ccccc5[n-]4)cc3)c2)CC1 (protonated)
CCN1CCN(Cc2cccc(-c3ccc(-c4nc5ccccc5[n-]4)cc3)c2)CC1 (3D coordinates assigned)
CCN1CCN(Cc2cccc(-c3ccc(-c4nc5ccccc5[n-]4)cc3)c2)CC1 (nonaromatic ring conformer: 116.37517514239165 kcal/mol)

>  <smiles>  (13) 
CCN1CCN(Cc2cccc(-c3ccc(-c4nc5ccccc5[nH]4)cc3)c2)CC1

>  <score_type>  (13) 
oracle

>  <origin>  (13) 
adg

>  <m_score__min__energy>  (13) 
-10.51

>  <m_primary>  (13) 
energy

$$$$
13:0
     RDKit          3D

 34 35  0  0  0  0  0  0  0  0999 V2000
   -6.6315   24.9140  -31.2483 H   0  0  0  0  0  0  0  0  0  0  0  0
   -6.0830   24.1010  -30.7500 C   0  0  0  0  0  0  0  0  0  0  0  0
   -4.6150   24.2220  -30.6620 C   0  0  0  0  0  0  0  0  0  0  0  0
   -4.0890   25.3540  -30.8410 O   0  0  0  0  0  0  0  0  0  0  0  0
   -3.7890   23.0670  -30.4530 N   0  0  0  0  0  0  0  0  0  0  0  0
   -4.1990   22.1190  -30.6120 H   0  0  0  0  0  0  0  0  0  0  0  0
   -2.3660   23.1520  -30.1340 C   0  0  0  0  0  0  0  0  0  0  0  0
   -1.9933   22.1564  -29.8514 H   0  0  0  0  0  0  0  0  0  0  0  0
   -1.8137   23.5138  -31.0138 H   0  0  0  0  0  0  0  0  0  0  0  0
   -2.1670   24.1000  -28.9960 C   0  0  0  0  0  0  0  0  0  0  0  0
   -1.6820   25.3140  -29.1270 O   0  0  0  0  0  0  0  0  0  0  0  0
   -1.6080   25.8650  -27.9380 C   0  0  0  0  0  0  0  0  0  0  0  0
   -1.2392   26.8808  -27.7328 H   0  0  0  0  0  0  0  0  0  0  0  0
   -2.0630   24.9770  -26.9840 C   0  0  0  0  0  0  0  0  0  0  0  0
   -2.1256   25.1473  -25.8991 H   0  0  0  0  0  0  0  0  0  0  0  0
   -2.4230   23.8340  -27.6650 C   0  0  0  0  0  0  0  0  0  0  0  0
   -2.8289   22.9050  -27.2381 H   0  0  0  0  0  0  0  0  0  0  0  0
   -6.7990   23.0740  -30.2680 C   0  0  0  0  0  0  0  0  0  0  0  0
   -6.9012   22.9924  -29.1758 H   0  0  0  0  0  0  0  0  0  0  0  0
   -7.4620   22.0420  -31.0980 C   0  0  0  0  0  0  0  0  0  0  0  0
   -8.8640   21.9330  -31.1090 C   0  0  0  0  0  0  0  0  0  0  0  0
   -9.4696   22.6029  -30.4809 H   0  0  0  0  0  0  0  0  0  0  0  0
   -9.4910   20.9800  -31.9120 C   0  0  0  0  0  0  0  0  0  0  0  0
  -10.5880   20.8987  -31.9136 H   0  0  0  0  0  0  0  0  0  0  0  0
   -8.7280   20.1300  -32.7130 C   0  0  0  0  0  0  0  0  0  0  0  0
   -9.2240   19.3697  -33.3343 H   0  0  0  0  0  0  0  0  0  0  0  0
   -7.3360   20.2420  -32.7280 C   0  0  0  0  0  0  0  0  0  0  0  0
   -6.7408   19.5748  -33.3687 H   0  0  0  0  0  0  0  0  0  0  0  0
   -6.6890   21.2050  -31.9270 C   0  0  0  0  0  0  0  0  0  0  0  0
   -5.2910   21.3470  -31.9210 O   0  0  0  0  0  0  0  0  0  0  0  0
   -4.4600   21.1940  -33.0670 C   0  0  0  0  0  0  0  0  0  0  0  0
   -3.4251   21.0035  -32.7467 H   0  0  0  0  0  0  0  0  0  0  0  0
   -4.8191   20.3469  -33.6699 H   0  0  0  0  0  0  0  0  0  0  0  0
   -4.4938   22.1135  -33.6699 H   0  0  0  0  0  0  0  0  0  0  0  0
  1  2  1  0
  2  3  1  0
  3  4  2  0
  3  5  1  0
  5  6  1  0
  5  7  1  0
  7  8  1  0
  7  9  1  0
  7 10  1  0
 10 11  1  0
 11 12  1  0
 12 13  1  0
 12 14  2  0
 14 15  1  0
 14 16  1  0
 16 17  1  0
  2 18  2  0
 18 19  1  0
 18 20  1  0
 20 21  2  0
 21 22  1  0
 21 23  1  0
 23 24  1  0
 23 25  2  0
 25 26  1  0
 25 27  1  0
 27 28  1  0
 27 29  2  0
 29 30  1  0
 30 31  1  0
 31 32  1  0
 31 33  1  0
 31 34  1  0
 16 10  2  0
 29 20  1  0
M  END
>  <UniqueID>  (14) 
14

>  <SMILES>  (14) 
COc1ccccc1/C=C\C(=O)NCc1ccco1

>  <Energy>  (14) 
63.370671880732445

>  <Genealogy>  (14) 
COc1ccccc1/C=C\C(=O)NCc1ccco1 (cis-trans isomerization)
COc1ccccc1/C=C\C(=O)NCc1ccco1 (3D coordinates assigned)
COc1ccccc1/C=C\C(=O)NCc1ccco1 (optimized conformer: 63.370671880732445 kcal/mol)

>  <smiles>  (14) 
COc1ccccc1C=CC(=O)NCc1ccco1

>  <score_type>  (14) 
oracle

>  <origin>  (14) 
adg

>  <m_score__min__energy>  (14) 
-7.5

>  <m_primary>  (14) 
energy

$$$$
14:0
     RDKit          3D

 51 52  0  0  0  0  0  0  0  0999 V2000
   -0.1920   20.4210  -30.4330 C   0  0  0  0  0  0  0  0  0  0  0  0
   -1.2660   20.1070  -29.3840 C   0  0  0  0  0  0  0  0  0  0  0  0
   -2.0900   21.2660  -28.9410 N   0  0  0  0  0  0  0  0  0  0  0  0
   -3.0970   20.9000  -27.9020 C   0  0  0  0  0  0  0  0  0  0  0  0
   -2.7730   19.6390  -27.0730 C   0  0  0  0  0  0  0  0  0  0  0  0
   -1.2860   22.4820  -28.6150 C   0  0  0  0  0  0  0  0  0  0  0  0
   -1.4700   23.6460  -29.6170 C   0  0  0  0  0  0  0  0  0  0  0  0
   -2.7160   24.5180  -29.3910 C   0  0  0  0  0  0  0  0  0  0  0  0
   -3.7250   24.3540  -30.4500 N   0  0  0  0  0  0  0  0  0  0  0  0
   -5.0450   23.9420  -29.9380 C   0  0  0  0  0  0  0  0  0  0  0  0
   -5.6060   22.8400  -30.8020 C   0  0  0  0  0  0  0  0  0  0  0  0
   -6.9910   22.7880  -31.0130 C   0  0  0  0  0  0  0  0  0  0  0  0
   -7.5740   21.7450  -31.7320 C   0  0  0  0  0  0  0  0  0  0  0  0
   -9.4870   21.7620  -31.9130 Br  0  0  0  0  0  0  0  0  0  0  0  0
   -6.7650   20.7240  -32.2730 C   0  0  0  0  0  0  0  0  0  0  0  0
   -7.3210   19.6470  -32.9910 C   0  0  0  0  0  0  0  0  0  0  0  0
   -6.5020   18.6440  -33.5140 C   0  0  0  0  0  0  0  0  0  0  0  0
   -5.1220   18.6990  -33.3300 C   0  0  0  0  0  0  0  0  0  0  0  0
   -4.5490   19.7560  -32.6240 C   0  0  0  0  0  0  0  0  0  0  0  0
   -5.3560   20.7800  -32.0900 C   0  0  0  0  0  0  0  0  0  0  0  0
   -4.7810   21.8490  -31.3700 C   0  0  0  0  0  0  0  0  0  0  0  0
   -3.3940   21.9170  -31.2120 O   0  0  0  0  0  0  0  0  0  0  0  0
   -2.5220   21.9120  -32.3350 C   0  0  0  0  0  0  0  0  0  0  0  0
    0.7455   20.6951  -29.9272 H   0  0  0  0  0  0  0  0  0  0  0  0
   -0.0236   19.5345  -31.0621 H   0  0  0  0  0  0  0  0  0  0  0  0
   -0.5277   21.2586  -31.0621 H   0  0  0  0  0  0  0  0  0  0  0  0
   -1.9440   19.3523  -29.8090 H   0  0  0  0  0  0  0  0  0  0  0  0
   -0.7235   19.7640  -28.4907 H   0  0  0  0  0  0  0  0  0  0  0  0
   -2.6710   21.5010  -29.7820 H   0  0  0  0  0  0  0  0  0  0  0  0
   -3.1890   21.7475  -27.2068 H   0  0  0  0  0  0  0  0  0  0  0  0
   -4.0233   20.6703  -28.4490 H   0  0  0  0  0  0  0  0  0  0  0  0
   -2.8346   19.8789  -26.0013 H   0  0  0  0  0  0  0  0  0  0  0  0
   -3.4966   18.8462  -27.3135 H   0  0  0  0  0  0  0  0  0  0  0  0
   -1.7568   19.2932  -27.3135 H   0  0  0  0  0  0  0  0  0  0  0  0
   -1.5827   22.8352  -27.6164 H   0  0  0  0  0  0  0  0  0  0  0  0
   -0.2277   22.1857  -28.6627 H   0  0  0  0  0  0  0  0  0  0  0  0
   -0.5845   24.2951  -29.5499 H   0  0  0  0  0  0  0  0  0  0  0  0
   -1.6011   23.1790  -30.6043 H   0  0  0  0  0  0  0  0  0  0  0  0
   -3.1690   24.2411  -28.4276 H   0  0  0  0  0  0  0  0  0  0  0  0
   -2.3918   25.5691  -29.4015 H   0  0  0  0  0  0  0  0  0  0  0  0
   -3.3770   23.6020  -31.0920 H   0  0  0  0  0  0  0  0  0  0  0  0
   -4.9391   23.5785  -28.9052 H   0  0  0  0  0  0  0  0  0  0  0  0
   -5.7282   24.8038  -29.9588 H   0  0  0  0  0  0  0  0  0  0  0  0
   -7.6297   23.5847  -30.6038 H   0  0  0  0  0  0  0  0  0  0  0  0
   -8.4095   19.5956  -33.1410 H   0  0  0  0  0  0  0  0  0  0  0  0
   -6.9478   17.8080  -34.0729 H   0  0  0  0  0  0  0  0  0  0  0  0
   -4.4821   17.9055  -33.7433 H   0  0  0  0  0  0  0  0  0  0  0  0
   -3.4586   19.7907  -32.4829 H   0  0  0  0  0  0  0  0  0  0  0  0
   -1.4780   21.9060  -31.9885 H   0  0  0  0  0  0  0  0  0  0  0  0
   -2.7118   21.0149  -32.9426 H   0  0  0  0  0  0  0  0  0  0  0  0
   -2.7015   22.8112  -32.9426 H   0  0  0  0  0  0  0  0  0  0  0  0
  1  2  1  0
  2  3  1  0
  3  4  1  0
  4  5  1  0
  3  6  1  0
  6  7  1  0
  7  8  1  0
  8  9  1  0
  9 10  1  0
 10 11  1  0
 11 12  2  0
 12 13  1  0
 13 14  1  0
 13 15  2  0
 15 16  1  0
 16 17  2  0
 17 18  1  0
 18 19  2  0
 19 20  1  0
 20 21  2  0
 21 22  1  0
 22 23  1  0
 21 11  1  0
 20 15  1  0
  1 24  1  0
  1 25  1  0
  1 26  1  0
  2 27  1  0
  2 28  1  0
  3 29  1  0
  4 30  1  0
  4 31  1  0
  5 32  1  0
  5 33  1  0
  5 34  1  0
  6 35  1  0
  6 36  1  0
  7 37  1  0
  7 38  1  0
  8 39  1  0
  8 40  1  0
  9 41  1  0
 10 42  1  0
 10 43  1  0
 12 44  1  0
 16 45  1  0
 17 46  1  0
 18 47  1  0
 19 48  1  0
 23 49  1  0
 23 50  1  0
 23 51  1  0
M  CHG  1   3   1
M  END
>  <UniqueID>  (15) 
15

>  <SMILES>  (15) 
CC[NH+](CC)CCCNCc1cc(Br)c2ccccc2c1OC

>  <Energy>  (15) 
70.96315494643326

>  <Genealogy>  (15) 
CC[NH+](CC)CCCNCc1cc(Br)c2ccccc2c1OC (protonated)
CC[NH+](CC)CCCNCc1cc(Br)c2ccccc2c1OC (3D coordinates assigned)
CC[NH+](CC)CCCNCc1cc(Br)c2ccccc2c1OC (optimized conformer: 70.96315494643326 kcal/mol)

>  <smiles>  (15) 
CCN(CC)CCCNCc1cc(Br)c2ccccc2c1OC

>  <score_type>  (15) 
oracle

>  <origin>  (15) 
adg

>  <m_score__min__energy>  (15) 
-6.8700000000000001

>  <m_primary>  (15) 
energy

$$$$
15:0
     RDKit          3D

 37 38  0  0  0  0  0  0  0  0999 V2000
   -7.7310   20.1590  -32.2900 C   0  0  0  0  0  0  0  0  0  0  0  0
   -7.8640   21.3120  -31.3880 N   0  0  0  0  0  0  0  0  0  0  0  0
   -9.1610   21.9860  -31.5560 C   0  0  0  0  0  0  0  0  0  0  0  0
   -6.7020   22.2330  -31.4210 C   0  0  0  0  0  0  0  0  0  0  0  0
   -6.9420   23.6330  -30.8100 C   0  0  0  0  0  0  0  0  0  0  0  0
   -6.0370   23.9160  -29.6980 N   0  0  0  0  0  0  0  0  0  0  0  0
   -4.6240   24.1080  -29.8800 C   0  0  0  0  0  0  0  0  0  0  0  0
   -4.1240   24.0110  -31.0340 O   0  0  0  0  0  0  0  0  0  0  0  0
   -3.7340   24.3940  -28.7290 C   0  0  0  0  0  0  0  0  0  0  0  0
   -4.2470   24.5330  -27.4260 C   0  0  0  0  0  0  0  0  0  0  0  0
   -3.3910   24.7970  -26.3540 C   0  0  0  0  0  0  0  0  0  0  0  0
   -2.0170   24.9280  -26.5690 C   0  0  0  0  0  0  0  0  0  0  0  0
   -1.4920   24.8290  -27.8670 C   0  0  0  0  0  0  0  0  0  0  0  0
   -2.3510   24.5530  -28.9370 C   0  0  0  0  0  0  0  0  0  0  0  0
   -0.0910   25.0080  -28.1240 N   0  0  0  0  0  0  0  0  0  0  0  0
    0.8680   25.5150  -27.1830 C   0  0  0  0  0  0  0  0  0  0  0  0
    2.0870   25.5240  -27.4990 O   0  0  0  0  0  0  0  0  0  0  0  0
    0.4480   26.1100  -25.8720 C   0  0  0  0  0  0  0  0  0  0  0  0
   -0.9390   25.2130  -25.2230 S   0  0  0  0  0  0  0  0  0  0  0  0
   -0.4330   23.7480  -24.5720 O   0  0  0  0  0  0  0  0  0  0  0  0
   -7.6249   19.2392  -31.6961 H   0  0  0  0  0  0  0  0  0  0  0  0
   -8.6265   20.0846  -32.9244 H   0  0  0  0  0  0  0  0  0  0  0  0
   -6.8421   20.2904  -32.9244 H   0  0  0  0  0  0  0  0  0  0  0  0
   -9.5893   22.2086  -30.5676 H   0  0  0  0  0  0  0  0  0  0  0  0
   -9.0175   22.9236  -32.1130 H   0  0  0  0  0  0  0  0  0  0  0  0
   -9.8458   21.3297  -32.1130 H   0  0  0  0  0  0  0  0  0  0  0  0
   -5.8783   21.7587  -30.8673 H   0  0  0  0  0  0  0  0  0  0  0  0
   -6.4825   22.4027  -32.4854 H   0  0  0  0  0  0  0  0  0  0  0  0
   -6.7890   24.3912  -31.5922 H   0  0  0  0  0  0  0  0  0  0  0  0
   -7.9707   23.6584  -30.4212 H   0  0  0  0  0  0  0  0  0  0  0  0
   -6.4570   23.9930  -28.7460 H   0  0  0  0  0  0  0  0  0  0  0  0
   -5.3283   24.4332  -27.2505 H   0  0  0  0  0  0  0  0  0  0  0  0
   -3.7999   24.9020  -25.3382 H   0  0  0  0  0  0  0  0  0  0  0  0
   -1.9402   24.4592  -29.9531 H   0  0  0  0  0  0  0  0  0  0  0  0
    1.2849   26.0537  -25.1604 H   0  0  0  0  0  0  0  0  0  0  0  0
    0.1621   27.1612  -26.0247 H   0  0  0  0  0  0  0  0  0  0  0  0
   -0.0080   23.9830  -23.7090 H   0  0  0  0  0  0  0  0  0  0  0  0
  1  2  1  0
  2  3  1  0
  2  4  1  0
  4  5  1  0
  5  6  1  0
  6  7  1  0
  7  8  2  0
  7  9  1  0
  9 10  2  0
 10 11  1  0
 11 12  2  0
 12 13  1  0
 13 14  2  0
 13 15  1  0
 15 16  1  0
 16 17  2  0
 16 18  1  0
 18 19  1  0
 19 20  1  6
 14  9  1  0
 19 12  1  0
  1 21  1  0
  1 22  1  0
  1 23  1  0
  3 24  1  0
  3 25  1  0
  3 26  1  0
  4 27  1  0
  4 28  1  0
  5 29  1  0
  5 30  1  0
  6 31  1  0
 10 32  1  0
 11 33  1  0
 14 34  1  0
 18 35  1  0
 18 36  1  0
 20 37  1  0
M  CHG  2  15  -1  19   1
M  END
>  <UniqueID>  (16) 
16

>  <SMILES>  (16) 
CN(C)CCNC(=O)c1ccc2c(c1)[N-]C(=O)C[S@+]2O

>  <Energy>  (16) 
40.281482206530065

>  <Genealogy>  (16) 
CN(C)CCNC(=O)c1ccc2c(c1)[N-]C(=O)C[S+]2O (protonated)
CN(C)CCNC(=O)c1ccc2c(c1)[N-]C(=O)C[S@+]2O (chirality)
CN(C)CCNC(=O)c1ccc2c(c1)[N-]C(=O)C[S@+]2O (3D coordinates assigned)
CN(C)CCNC(=O)c1ccc2c(c1)[N-]C(=O)C[S@+]2O (nonaromatic ring conformer: 40.281482206530065 kcal/mol)

>  <smiles>  (16) 
CN(C)CCNC(=O)c1ccc2c(c1)NC(=O)C[S+]2[O-]

>  <score_type>  (16) 
oracle

>  <origin>  (16) 
adg

>  <m_score__min__energy>  (16) 
-7.71

>  <m_primary>  (16) 
energy

$$$$
16:0
     RDKit          3D

 51 52  0  0  0  0  0  0  0  0999 V2000
    2.0000   24.9400  -25.8680 C   0  0  0  0  0  0  0  0  0  0  0  0
    1.5190   25.5440  -24.5440 C   0  0  0  0  0  0  0  0  0  0  0  0
    0.1400   25.1290  -24.1690 N   0  0  0  0  0  0  0  0  0  0  0  0
   -0.1540   23.8020  -24.7710 C   0  0  0  0  0  0  0  0  0  0  0  0
   -0.2170   22.6690  -23.7420 C   0  0  0  0  0  0  0  0  0  0  0  0
   -0.8940   26.1630  -24.4630 C   0  0  0  0  0  0  0  0  0  0  0  0
   -1.7020   25.9250  -25.7520 C   0  0  0  0  0  0  0  0  0  0  0  0
   -1.2040   26.7740  -26.7660 O   0  0  0  0  0  0  0  0  0  0  0  0
   -0.8790   26.0260  -27.9230 C   0  0  0  0  0  0  0  0  0  0  0  0
   -1.9510   24.9630  -28.1780 C   0  0  0  0  0  0  0  0  0  0  0  0
   -2.7180   25.2860  -29.3390 O   0  0  0  0  0  0  0  0  0  0  0  0
   -3.7810   24.5210  -29.8500 C   0  0  0  0  0  0  0  0  0  0  0  0
   -3.5620   23.1590  -30.0840 C   0  0  0  0  0  0  0  0  0  0  0  0
   -4.5800   22.3500  -30.5980 C   0  0  0  0  0  0  0  0  0  0  0  0
   -5.8420   22.8940  -30.8910 C   0  0  0  0  0  0  0  0  0  0  0  0
   -6.9260   22.0380  -31.4410 C   0  0  0  0  0  0  0  0  0  0  0  0
   -6.6190   20.8870  -32.1910 C   0  0  0  0  0  0  0  0  0  0  0  0
   -7.6390   20.0850  -32.7100 C   0  0  0  0  0  0  0  0  0  0  0  0
   -8.9760   20.4210  -32.4850 C   0  0  0  0  0  0  0  0  0  0  0  0
   -9.2950   21.5600  -31.7430 C   0  0  0  0  0  0  0  0  0  0  0  0
   -8.2780   22.3650  -31.2210 C   0  0  0  0  0  0  0  0  0  0  0  0
   -6.0640   24.2620  -30.6550 C   0  0  0  0  0  0  0  0  0  0  0  0
   -5.0450   25.0690  -30.1430 C   0  0  0  0  0  0  0  0  0  0  0  0
    2.6732   24.0947  -25.6623 H   0  0  0  0  0  0  0  0  0  0  0  0
    1.1334   24.5864  -26.4460 H   0  0  0  0  0  0  0  0  0  0  0  0
    2.5386   25.7054  -26.4460 H   0  0  0  0  0  0  0  0  0  0  0  0
    2.2071   25.2272  -23.7464 H   0  0  0  0  0  0  0  0  0  0  0  0
    1.5046   26.6363  -24.6728 H   0  0  0  0  0  0  0  0  0  0  0  0
    0.1420   24.9940  -23.1280 H   0  0  0  0  0  0  0  0  0  0  0  0
   -1.1242   23.8598  -25.2862 H   0  0  0  0  0  0  0  0  0  0  0  0
    0.6696   23.5686  -25.4618 H   0  0  0  0  0  0  0  0  0  0  0  0
   -0.1934   23.0934  -22.7274 H   0  0  0  0  0  0  0  0  0  0  0  0
   -1.1482   22.0999  -23.8798 H   0  0  0  0  0  0  0  0  0  0  0  0
    0.6453   22.0001  -23.8798 H   0  0  0  0  0  0  0  0  0  0  0  0
   -1.5985   26.1913  -23.6186 H   0  0  0  0  0  0  0  0  0  0  0  0
   -0.3513   27.1085  -24.6097 H   0  0  0  0  0  0  0  0  0  0  0  0
   -1.5982   24.8755  -26.0647 H   0  0  0  0  0  0  0  0  0  0  0  0
   -2.7651   26.1425  -25.5717 H   0  0  0  0  0  0  0  0  0  0  0  0
   -0.8225   26.7014  -28.7894 H   0  0  0  0  0  0  0  0  0  0  0  0
    0.0915   25.5308  -27.7718 H   0  0  0  0  0  0  0  0  0  0  0  0
   -1.4641   23.9879  -28.3270 H   0  0  0  0  0  0  0  0  0  0  0  0
   -2.6245   24.9252  -27.3091 H   0  0  0  0  0  0  0  0  0  0  0  0
   -2.5783   22.7200  -29.8612 H   0  0  0  0  0  0  0  0  0  0  0  0
   -4.3917   21.2806  -30.7742 H   0  0  0  0  0  0  0  0  0  0  0  0
   -5.5679   20.6167  -32.3700 H   0  0  0  0  0  0  0  0  0  0  0  0
   -7.3888   19.1884  -33.2961 H   0  0  0  0  0  0  0  0  0  0  0  0
   -9.7780   19.7880  -32.8926 H   0  0  0  0  0  0  0  0  0  0  0  0
  -10.3484   21.8245  -31.5688 H   0  0  0  0  0  0  0  0  0  0  0  0
   -8.5355   23.2594  -30.6348 H   0  0  0  0  0  0  0  0  0  0  0  0
   -7.0484   24.7007  -30.8753 H   0  0  0  0  0  0  0  0  0  0  0  0
   -5.2310   26.1389  -29.9676 H   0  0  0  0  0  0  0  0  0  0  0  0
  1  2  1  0
  2  3  1  0
  3  4  1  0
  4  5  1  0
  3  6  1  0
  6  7  1  0
  7  8  1  0
  8  9  1  0
  9 10  1  0
 10 11  1  0
 11 12  1  0
 12 13  2  0
 13 14  1  0
 14 15  2  0
 15 16  1  0
 16 17  2  0
 17 18  1  0
 18 19  2  0
 19 20  1  0
 20 21  2  0
 15 22  1  0
 22 23  2  0
 23 12  1  0
 21 16  1  0
  1 24  1  0
  1 25  1  0
  1 26  1  0
  2 27  1  0
  2 28  1  0
  3 29  1  0
  4 30  1  0
  4 31  1  0
  5 32  1  0
  5 33  1  0
  5 34  1  0
  6 35  1  0
  6 36  1  0
  7 37  1  0
  7 38  1  0
  9 39  1  0
  9 40  1  0
 10 41  1  0
 10 42  1  0
 13 43  1  0
 14 44  1  0
 17 45  1  0
 18 46  1  0
 19 47  1  0
 20 48  1  0
 21 49  1  0
 22 50  1  0
 23 51  1  0
M  CHG  1   3   1
M  END
>  <UniqueID>  (17) 
17

>  <SMILES>  (17) 
CC[NH+](CC)CCOCCOc1ccc(-c2ccccc2)cc1

>  <Energy>  (17) 
58.7426109283264

>  <Genealogy>  (17) 
CC[NH+](CC)CCOCCOc1ccc(-c2ccccc2)cc1 (protonated)
CC[NH+](CC)CCOCCOc1ccc(-c2ccccc2)cc1 (3D coordinates assigned)
CC[NH+](CC)CCOCCOc1ccc(-c2ccccc2)cc1 (optimized conformer: 58.7426109283264 kcal/mol)

>  <smiles>  (17) 
CCN(CC)CCOCCOc1ccc(-c2ccccc2)cc1

>  <score_type>  (17) 
oracle

>  <origin>  (17) 
adg

>  <m_score__min__energy>  (17) 
-8.2300000000000004

>  <m_primary>  (17) 
energy

$$$$
17:0
     RDKit          3D

 57 59  0  0  0  0  0  0  0  0999 V2000
   -2.6330   23.3800  -29.8540 C   0  0  0  0  0  0  0  0  0  0  0  0
   -3.8750   24.1250  -29.3570 C   0  0  0  0  0  0  0  0  0  0  0  0
   -4.9070   24.2980  -30.4100 N   0  0  0  0  0  0  0  0  0  0  0  0
   -5.3810   25.7070  -30.4030 C   0  0  0  0  0  0  0  0  0  0  0  0
   -6.4930   25.9360  -29.3760 C   0  0  0  0  0  0  0  0  0  0  0  0
   -6.0390   23.3630  -30.1750 C   0  0  0  0  0  0  0  0  0  0  0  0
   -6.9960   23.2190  -31.3740 C   0  0  0  0  0  0  0  0  0  0  0  0
   -6.3570   22.5920  -32.5400 N   0  0  0  0  0  0  0  0  0  0  0  0
   -5.9760   21.1990  -32.5770 C   0  0  0  0  0  0  0  0  0  0  0  0
   -6.9230   20.1820  -32.3300 C   0  0  0  0  0  0  0  0  0  0  0  0
   -8.2150   20.4880  -31.8500 C   0  0  0  0  0  0  0  0  0  0  0  0
   -9.1750   19.4910  -31.6990 C   0  0  0  0  0  0  0  0  0  0  0  0
   -8.8650   18.1740  -32.0180 C   0  0  0  0  0  0  0  0  0  0  0  0
   -7.5740   17.8380  -32.4240 C   0  0  0  0  0  0  0  0  0  0  0  0
   -6.5560   18.8230  -32.5250 C   0  0  0  0  0  0  0  0  0  0  0  0
   -5.2420   18.4890  -32.8050 N   0  0  0  0  0  0  0  0  0  0  0  0
   -4.8120   17.0750  -32.7320 C   0  0  0  0  0  0  0  0  0  0  0  0
   -4.3160   19.4800  -33.0870 C   0  0  0  0  0  0  0  0  0  0  0  0
   -3.0230   19.1750  -33.5900 C   0  0  0  0  0  0  0  0  0  0  0  0
   -2.0520   20.1680  -33.7910 C   0  0  0  0  0  0  0  0  0  0  0  0
   -0.7060   19.7750  -34.1770 N   0  0  0  0  0  0  0  0  0  0  0  0
    0.3370   20.8110  -34.0260 C   0  0  0  0  0  0  0  0  0  0  0  0
    0.6090   21.5800  -35.2910 C   0  0  0  0  0  0  0  0  0  0  0  0
    1.0990   22.7420  -35.2470 O   0  0  0  0  0  0  0  0  0  0  0  0
    0.2670   21.0270  -36.5200 O   0  0  0  0  0  0  0  0  0  0  0  0
   -2.3750   21.4960  -33.4620 C   0  0  0  0  0  0  0  0  0  0  0  0
   -3.6670   21.8320  -33.0670 C   0  0  0  0  0  0  0  0  0  0  0  0
   -4.6560   20.8430  -32.9050 C   0  0  0  0  0  0  0  0  0  0  0  0
   -2.0469   23.0284  -28.9921 H   0  0  0  0  0  0  0  0  0  0  0  0
   -2.9419   22.5180  -30.4635 H   0  0  0  0  0  0  0  0  0  0  0  0
   -2.0179   24.0584  -30.4635 H   0  0  0  0  0  0  0  0  0  0  0  0
   -4.3153   23.5564  -28.5246 H   0  0  0  0  0  0  0  0  0  0  0  0
   -3.5532   25.1290  -29.0432 H   0  0  0  0  0  0  0  0  0  0  0  0
   -4.5335   26.3650  -30.1607 H   0  0  0  0  0  0  0  0  0  0  0  0
   -5.7890   25.9318  -31.3995 H   0  0  0  0  0  0  0  0  0  0  0  0
   -6.0779   25.8505  -28.3609 H   0  0  0  0  0  0  0  0  0  0  0  0
   -6.9189   26.9407  -29.5146 H   0  0  0  0  0  0  0  0  0  0  0  0
   -7.2812   25.1813  -29.5146 H   0  0  0  0  0  0  0  0  0  0  0  0
   -5.6248   22.3708  -29.9426 H   0  0  0  0  0  0  0  0  0  0  0  0
   -6.6294   23.7819  -29.3468 H   0  0  0  0  0  0  0  0  0  0  0  0
   -7.8527   22.6007  -31.0678 H   0  0  0  0  0  0  0  0  0  0  0  0
   -7.3090   24.2307  -31.6716 H   0  0  0  0  0  0  0  0  0  0  0  0
   -6.1670   23.1860  -33.3850 H   0  0  0  0  0  0  0  0  0  0  0  0
   -8.4664   21.5274  -31.5920 H   0  0  0  0  0  0  0  0  0  0  0  0
  -10.1786   19.7454  -31.3273 H   0  0  0  0  0  0  0  0  0  0  0  0
   -9.6393   17.3957  -31.9501 H   0  0  0  0  0  0  0  0  0  0  0  0
   -7.3400   16.7918  -32.6703 H   0  0  0  0  0  0  0  0  0  0  0  0
   -4.7203   16.7736  -31.6781 H   0  0  0  0  0  0  0  0  0  0  0  0
   -5.5573   16.4388  -33.2318 H   0  0  0  0  0  0  0  0  0  0  0  0
   -3.8387   16.9615  -33.2318 H   0  0  0  0  0  0  0  0  0  0  0  0
   -2.7757   18.1301  -33.8289 H   0  0  0  0  0  0  0  0  0  0  0  0
   -0.6990   19.4490  -35.1730 H   0  0  0  0  0  0  0  0  0  0  0  0
   -0.4350   18.9640  -33.5790 H   0  0  0  0  0  0  0  0  0  0  0  0
    0.0129   21.5205  -33.2504 H   0  0  0  0  0  0  0  0  0  0  0  0
    1.2694   20.2936  -33.7558 H   0  0  0  0  0  0  0  0  0  0  0  0
   -1.6010   22.2756  -33.5171 H   0  0  0  0  0  0  0  0  0  0  0  0
   -3.9190   22.8860  -32.8786 H   0  0  0  0  0  0  0  0  0  0  0  0
  1  2  1  0
  2  3  1  0
  3  4  1  0
  4  5  1  0
  3  6  1  0
  6  7  1  0
  7  8  1  0
  8  9  1  0
  9 10  2  0
 10 11  1  0
 11 12  2  0
 12 13  1  0
 13 14  2  0
 14 15  1  0
 15 16  2  0
 16 17  1  0
 16 18  1  0
 18 19  2  0
 19 20  1  0
 20 21  1  0
 21 22  1  0
 22 23  1  0
 23 24  2  0
 23 25  1  0
 20 26  2  0
 26 27  1  0
 27 28  2  0
 28  9  1  0
 15 10  1  0
 28 18  1  0
  1 29  1  0
  1 30  1  0
  1 31  1  0
  2 32  1  0
  2 33  1  0
  4 34  1  0
  4 35  1  0
  5 36  1  0
  5 37  1  0
  5 38  1  0
  6 39  1  0
  6 40  1  0
  7 41  1  0
  7 42  1  0
  8 43  1  0
 11 44  1  0
 12 45  1  0
 13 46  1  0
 14 47  1  0
 17 48  1  0
 17 49  1  0
 17 50  1  0
 19 51  1  0
 21 52  1  0
 21 53  1  0
 22 54  1  0
 22 55  1  0
 26 56  1  0
 27 57  1  0
M  CHG  3  16   1  21   1  25  -1
M  END
>  <UniqueID>  (18) 
18

>  <SMILES>  (18) 
CCN(CC)CCNc1c2ccccc2[n+](C)c2cc([NH2+]CC(=O)[O-])ccc12

>  <Energy>  (18) 
88.72445437317401

>  <Genealogy>  (18) 
CCN(CC)CCNc1c2ccccc2[n+](C)c2cc([NH2+]CC(=O)[O-])ccc12 (protonated)
CCN(CC)CCNc1c2ccccc2[n+](C)c2cc([NH2+]CC(=O)[O-])ccc12 (3D coordinates assigned)
CCN(CC)CCNc1c2ccccc2[n+](C)c2cc([NH2+]CC(=O)[O-])ccc12 (optimized conformer: 88.72445437317401 kcal/mol)

>  <smiles>  (18) 
CCN(CC)CCNc1c2ccccc2[n+](C)c2cc(NCC(=O)O)ccc12

>  <score_type>  (18) 
oracle

>  <origin>  (18) 
adg

>  <m_score__min__energy>  (18) 
-8.9100000000000001

>  <m_primary>  (18) 
energy

$$$$
18:0
     RDKit          3D

 50 52  0  0  0  0  0  0  0  0999 V2000
   -9.0780   19.4250  -31.8230 C   0  0  0  0  0  0  0  0  0  0  0  0
   -9.7270   20.7450  -32.2380 C   0  0  0  0  0  0  0  0  0  0  0  0
   -9.3850   21.8980  -31.2760 C   0  0  0  0  0  0  0  0  0  0  0  0
   -8.6280   23.0560  -31.9480 C   0  0  0  0  0  0  0  0  0  0  0  0
   -7.2940   23.4180  -31.2660 C   0  0  0  0  0  0  0  0  0  0  0  0
   -6.2130   22.4750  -31.6390 N   0  0  0  0  0  0  0  0  0  0  0  0
   -6.5890   21.4120  -32.4180 C   0  0  0  0  0  0  0  0  0  0  0  0
   -5.6730   20.4470  -32.8420 C   0  0  0  0  0  0  0  0  0  0  0  0
   -6.1370   19.3270  -33.7440 C   0  0  0  0  0  0  0  0  0  0  0  0
   -5.7680   17.9930  -33.1520 C   0  0  0  0  0  0  0  0  0  0  0  0
   -5.0500   17.0540  -33.9040 C   0  0  0  0  0  0  0  0  0  0  0  0
   -4.6800   15.8370  -33.3310 C   0  0  0  0  0  0  0  0  0  0  0  0
   -5.0270   15.5720  -32.0050 C   0  0  0  0  0  0  0  0  0  0  0  0
   -5.7150   16.4940  -31.2810 N   0  0  0  0  0  0  0  0  0  0  0  0
   -6.0860   17.6890  -31.8190 C   0  0  0  0  0  0  0  0  0  0  0  0
   -4.3300   20.5770  -32.4720 C   0  0  0  0  0  0  0  0  0  0  0  0
   -3.4870   19.7200  -32.8590 O   0  0  0  0  0  0  0  0  0  0  0  0
   -3.9270   21.6620  -31.6760 C   0  0  0  0  0  0  0  0  0  0  0  0
   -2.5790   21.8050  -31.2960 C   0  0  0  0  0  0  0  0  0  0  0  0
   -2.1690   22.8850  -30.5210 C   0  0  0  0  0  0  0  0  0  0  0  0
   -3.0970   23.8510  -30.1090 C   0  0  0  0  0  0  0  0  0  0  0  0
   -2.7290   24.9620  -29.3350 O   0  0  0  0  0  0  0  0  0  0  0  0
   -2.2900   24.8930  -27.9820 C   0  0  0  0  0  0  0  0  0  0  0  0
   -4.4380   23.7170  -30.4770 C   0  0  0  0  0  0  0  0  0  0  0  0
   -4.8890   22.6250  -31.2620 C   0  0  0  0  0  0  0  0  0  0  0  0
   -9.0466   19.3610  -30.7253 H   0  0  0  0  0  0  0  0  0  0  0  0
   -9.6662   18.5857  -32.2225 H   0  0  0  0  0  0  0  0  0  0  0  0
   -8.0542   19.3782  -32.2225 H   0  0  0  0  0  0  0  0  0  0  0  0
   -9.3745   21.0100  -33.2457 H   0  0  0  0  0  0  0  0  0  0  0  0
  -10.8176   20.6031  -32.2155 H   0  0  0  0  0  0  0  0  0  0  0  0
  -10.3230   22.2919  -30.8578 H   0  0  0  0  0  0  0  0  0  0  0  0
   -8.7222   21.4858  -30.5009 H   0  0  0  0  0  0  0  0  0  0  0  0
   -8.4172   22.7721  -32.9896 H   0  0  0  0  0  0  0  0  0  0  0  0
   -9.2738   23.9432  -31.8708 H   0  0  0  0  0  0  0  0  0  0  0  0
   -7.0019   24.4336  -31.5712 H   0  0  0  0  0  0  0  0  0  0  0  0
   -7.4390   23.3595  -30.1772 H   0  0  0  0  0  0  0  0  0  0  0  0
   -7.6430   21.3161  -32.7180 H   0  0  0  0  0  0  0  0  0  0  0  0
   -7.2295   19.3831  -33.8596 H   0  0  0  0  0  0  0  0  0  0  0  0
   -5.6487   19.4311  -34.7241 H   0  0  0  0  0  0  0  0  0  0  0  0
   -4.7779   17.2763  -34.9464 H   0  0  0  0  0  0  0  0  0  0  0  0
   -4.1205   15.0938  -33.9181 H   0  0  0  0  0  0  0  0  0  0  0  0
   -4.7428   14.6142  -31.5447 H   0  0  0  0  0  0  0  0  0  0  0  0
   -5.9630   16.2830  -30.2890 H   0  0  0  0  0  0  0  0  0  0  0  0
   -6.6367   18.4184  -31.2068 H   0  0  0  0  0  0  0  0  0  0  0  0
   -1.8415   21.0541  -31.6156 H   0  0  0  0  0  0  0  0  0  0  0  0
   -1.1124   22.9812  -30.2305 H   0  0  0  0  0  0  0  0  0  0  0  0
   -3.1503   25.0282  -27.3100 H   0  0  0  0  0  0  0  0  0  0  0  0
   -1.8297   23.9115  -27.7955 H   0  0  0  0  0  0  0  0  0  0  0  0
   -1.5508   25.6860  -27.7955 H   0  0  0  0  0  0  0  0  0  0  0  0
   -5.1624   24.4774  -30.1498 H   0  0  0  0  0  0  0  0  0  0  0  0
  1  2  1  0
  2  3  1  0
  3  4  1  0
  4  5  1  0
  5  6  1  0
  6  7  1  0
  7  8  2  0
  8  9  1  0
  9 10  1  0
 10 11  2  0
 11 12  1  0
 12 13  2  0
 13 14  1  0
 14 15  2  0
  8 16  1  0
 16 17  2  0
 16 18  1  0
 18 19  2  0
 19 20  1  0
 20 21  2  0
 21 22  1  0
 22 23  1  0
 21 24  1  0
 24 25  2  0
 25  6  1  0
 15 10  1  0
 25 18  1  0
  1 26  1  0
  1 27  1  0
  1 28  1  0
  2 29  1  0
  2 30  1  0
  3 31  1  0
  3 32  1  0
  4 33  1  0
  4 34  1  0
  5 35  1  0
  5 36  1  0
  7 37  1  0
  9 38  1  0
  9 39  1  0
 11 40  1  0
 12 41  1  0
 13 42  1  0
 14 43  1  0
 15 44  1  0
 19 45  1  0
 20 46  1  0
 23 47  1  0
 23 48  1  0
 23 49  1  0
 24 50  1  0
M  CHG  1  14   1
M  END
>  <UniqueID>  (19) 
19

>  <SMILES>  (19) 
CCCCCn1cc(Cc2ccc[nH+]c2)c(=O)c2ccc(OC)cc21

>  <Energy>  (19) 
55.61866545868812

>  <Genealogy>  (19) 
CCCCCn1cc(Cc2ccc[nH+]c2)c(=O)c2ccc(OC)cc21 (protonated)
CCCCCn1cc(Cc2ccc[nH+]c2)c(=O)c2ccc(OC)cc21 (3D coordinates assigned)
CCCCCn1cc(Cc2ccc[nH+]c2)c(=O)c2ccc(OC)cc21 (optimized conformer: 55.61866545868812 kcal/mol)

>  <smiles>  (19) 
CCCCCn1cc(Cc2cccnc2)c(=O)c2ccc(OC)cc21

>  <score_type>  (19) 
oracle

>  <origin>  (19) 
adg

>  <m_score__min__energy>  (19) 
-8.0899999999999999

>  <m_primary>  (19) 
energy

$$$$
19:0
     RDKit          3D

 59 62  0  0  0  0  0  0  0  0999 V2000
   -2.5960   19.1150  -26.7040 C   0  0  0  0  0  0  0  0  0  0  0  0
   -1.6840   19.7330  -27.7690 C   0  0  0  0  0  0  0  0  0  0  0  0
   -2.4320   20.6180  -28.7140 N   0  0  0  0  0  0  0  0  0  0  0  0
   -3.1100   21.7310  -27.9960 C   0  0  0  0  0  0  0  0  0  0  0  0
   -3.8800   22.6650  -28.9360 C   0  0  0  0  0  0  0  0  0  0  0  0
   -1.5180   21.1900  -29.7390 C   0  0  0  0  0  0  0  0  0  0  0  0
   -1.6480   20.5090  -31.1210 C   0  0  0  0  0  0  0  0  0  0  0  0
   -1.4420   21.4760  -32.3030 C   0  0  0  0  0  0  0  0  0  0  0  0
   -2.3140   21.1590  -33.4320 N   0  0  0  0  0  0  0  0  0  0  0  0
   -3.4560   20.3120  -33.2370 C   0  0  0  0  0  0  0  0  0  0  0  0
   -3.4040   18.9640  -33.6260 C   0  0  0  0  0  0  0  0  0  0  0  0
   -2.2420   18.4220  -34.2140 C   0  0  0  0  0  0  0  0  0  0  0  0
   -2.1970   17.0820  -34.5930 C   0  0  0  0  0  0  0  0  0  0  0  0
   -3.3050   16.2640  -34.3940 C   0  0  0  0  0  0  0  0  0  0  0  0
   -4.4590   16.7770  -33.8030 C   0  0  0  0  0  0  0  0  0  0  0  0
   -4.5290   18.1330  -33.3980 C   0  0  0  0  0  0  0  0  0  0  0  0
   -5.6530   18.6430  -32.7810 N   0  0  0  0  0  0  0  0  0  0  0  0
   -6.5430   17.7020  -32.0660 C   0  0  0  0  0  0  0  0  0  0  0  0
   -5.8040   20.0130  -32.6320 C   0  0  0  0  0  0  0  0  0  0  0  0
   -4.6520   20.8410  -32.7210 C   0  0  0  0  0  0  0  0  0  0  0  0
   -4.7090   22.1730  -32.2720 C   0  0  0  0  0  0  0  0  0  0  0  0
   -5.8980   22.7170  -31.8050 C   0  0  0  0  0  0  0  0  0  0  0  0
   -7.0840   21.9850  -31.8840 C   0  0  0  0  0  0  0  0  0  0  0  0
   -8.3000   22.5960  -31.5400 C   0  0  0  0  0  0  0  0  0  0  0  0
   -9.5060   21.9280  -31.7450 C   0  0  0  0  0  0  0  0  0  0  0  0
   -9.5090   20.6630  -32.3280 C   0  0  0  0  0  0  0  0  0  0  0  0
   -8.3060   20.0370  -32.6570 C   0  0  0  0  0  0  0  0  0  0  0  0
   -7.0620   20.6450  -32.3620 C   0  0  0  0  0  0  0  0  0  0  0  0
   -2.2175   19.3715  -25.7035 H   0  0  0  0  0  0  0  0  0  0  0  0
   -3.6164   19.5085  -26.8220 H   0  0  0  0  0  0  0  0  0  0  0  0
   -2.6088   18.0214  -26.8220 H   0  0  0  0  0  0  0  0  0  0  0  0
   -0.9072   20.3284  -27.2669 H   0  0  0  0  0  0  0  0  0  0  0  0
   -1.2456   18.9111  -28.3540 H   0  0  0  0  0  0  0  0  0  0  0  0
   -3.1770   20.0800  -29.2130 H   0  0  0  0  0  0  0  0  0  0  0  0
   -3.8171   21.3018  -27.2708 H   0  0  0  0  0  0  0  0  0  0  0  0
   -2.3300   22.3291  -27.5021 H   0  0  0  0  0  0  0  0  0  0  0  0
   -4.4688   23.3793  -28.3418 H   0  0  0  0  0  0  0  0  0  0  0  0
   -3.1689   23.2144  -29.5705 H   0  0  0  0  0  0  0  0  0  0  0  0
   -4.5549   22.0717  -29.5705 H   0  0  0  0  0  0  0  0  0  0  0  0
   -1.7474   22.2597  -29.8537 H   0  0  0  0  0  0  0  0  0  0  0  0
   -0.4889   21.0227  -29.3883 H   0  0  0  0  0  0  0  0  0  0  0  0
   -0.8942   19.7108  -31.1884 H   0  0  0  0  0  0  0  0  0  0  0  0
   -2.6742   20.1200  -31.1955 H   0  0  0  0  0  0  0  0  0  0  0  0
   -1.6579   22.5002  -31.9649 H   0  0  0  0  0  0  0  0  0  0  0  0
   -0.4002   21.3785  -32.6423 H   0  0  0  0  0  0  0  0  0  0  0  0
   -2.2550   21.7030  -34.3200 H   0  0  0  0  0  0  0  0  0  0  0  0
   -1.3630   19.0634  -34.3749 H   0  0  0  0  0  0  0  0  0  0  0  0
   -1.2849   16.6704  -35.0499 H   0  0  0  0  0  0  0  0  0  0  0  0
   -3.2703   15.2091  -34.7040 H   0  0  0  0  0  0  0  0  0  0  0  0
   -5.3274   16.1196  -33.6490 H   0  0  0  0  0  0  0  0  0  0  0  0
   -6.4192   17.8329  -30.9809 H   0  0  0  0  0  0  0  0  0  0  0  0
   -7.5883   17.9039  -32.3428 H   0  0  0  0  0  0  0  0  0  0  0  0
   -6.2833   16.6696  -32.3428 H   0  0  0  0  0  0  0  0  0  0  0  0
   -3.7996   22.7916  -32.2912 H   0  0  0  0  0  0  0  0  0  0  0  0
   -5.9055   23.7279  -31.3714 H   0  0  0  0  0  0  0  0  0  0  0  0
   -8.3011   23.6070  -31.1065 H   0  0  0  0  0  0  0  0  0  0  0  0
  -10.4542   22.3992  -31.4468 H   0  0  0  0  0  0  0  0  0  0  0  0
  -10.4637   20.1553  -32.5299 H   0  0  0  0  0  0  0  0  0  0  0  0
   -8.3246   19.0556  -33.1534 H   0  0  0  0  0  0  0  0  0  0  0  0
  1  2  1  0
  2  3  1  0
  3  4  1  0
  4  5  1  0
  3  6  1  0
  6  7  1  0
  7  8  1  0
  8  9  1  0
  9 10  1  0
 10 11  2  0
 11 12  1  0
 12 13  2  0
 13 14  1  0
 14 15  2  0
 15 16  1  0
 16 17  2  0
 17 18  1  0
 17 19  1  0
 19 20  2  0
 20 21  1  0
 21 22  2  0
 22 23  1  0
 23 24  2  0
 24 25  1  0
 25 26  2  0
 26 27  1  0
 27 28  2  0
 20 10  1  0
 28 23  1  0
 16 11  1  0
 28 19  1  0
  1 29  1  0
  1 30  1  0
  1 31  1  0
  2 32  1  0
  2 33  1  0
  3 34  1  0
  4 35  1  0
  4 36  1  0
  5 37  1  0
  5 38  1  0
  5 39  1  0
  6 40  1  0
  6 41  1  0
  7 42  1  0
  7 43  1  0
  8 44  1  0
  8 45  1  0
  9 46  1  0
 12 47  1  0
 13 48  1  0
 14 49  1  0
 15 50  1  0
 18 51  1  0
 18 52  1  0
 18 53  1  0
 21 54  1  0
 22 55  1  0
 24 56  1  0
 25 57  1  0
 26 58  1  0
 27 59  1  0
M  CHG  2   3   1  17   1
M  END
>  <UniqueID>  (20) 
20

>  <SMILES>  (20) 
CC[NH+](CC)CCCNc1c2ccccc2[n+](C)c2c1ccc1ccccc12

>  <Energy>  (20) 
105.23308886562725

>  <Genealogy>  (20) 
CC[NH+](CC)CCCNc1c2ccccc2[n+](C)c2c1ccc1ccccc12 (protonated)
CC[NH+](CC)CCCNc1c2ccccc2[n+](C)c2c1ccc1ccccc12 (3D coordinates assigned)
CC[NH+](CC)CCCNc1c2ccccc2[n+](C)c2c1ccc1ccccc12 (optimized conformer: 105.23308886562725 kcal/mol)

>  <smiles>  (20) 
CCN(CC)CCCNc1c2ccccc2[n+](C)c2c1ccc1ccccc12

>  <score_type>  (20) 
oracle

>  <origin>  (20) 
adg

>  <m_score__min__energy>  (20) 
-7.6799999999999997

>  <m_primary>  (20) 
energy

$$$$
20:0
     RDKit          3D

 55 57  0  0  0  0  0  0  0  0999 V2000
   -5.7559   24.1447  -32.4103 H   0  0  0  0  0  0  0  0  0  0  0  0
   -6.1410   24.2110  -31.3820 C   0  0  0  0  0  0  0  0  0  0  0  0
   -5.4760   25.1660  -30.4670 C   0  0  0  0  0  0  0  0  0  0  0  0
   -6.1480   25.7840  -29.5980 O   0  0  0  0  0  0  0  0  0  0  0  0
   -4.0520   25.3090  -30.4630 N   0  0  0  0  0  0  0  0  0  0  0  0
   -3.1020   24.2680  -30.2050 C   0  0  0  0  0  0  0  0  0  0  0  0
   -2.0210   24.5320  -29.3360 C   0  0  0  0  0  0  0  0  0  0  0  0
   -1.9287   25.5236  -28.8689 H   0  0  0  0  0  0  0  0  0  0  0  0
   -1.0620   23.5430  -29.0610 C   0  0  0  0  0  0  0  0  0  0  0  0
   -0.2299   23.7469  -28.3710 H   0  0  0  0  0  0  0  0  0  0  0  0
   -1.1830   22.3000  -29.6770 C   0  0  0  0  0  0  0  0  0  0  0  0
   -0.3250   21.2650  -29.4930 N   0  0  0  0  0  0  0  0  0  0  0  0
   -0.7000   20.1940  -30.2320 C   0  0  0  0  0  0  0  0  0  0  0  0
    0.1930   18.6410  -30.2230 S   0  0  0  0  0  0  0  0  0  0  0  0
   -0.2940   18.1900  -28.5200 C   0  0  0  0  0  0  0  0  0  0  0  0
    0.4006   17.4272  -28.1384 H   0  0  0  0  0  0  0  0  0  0  0  0
   -1.3227   17.8011  -28.5435 H   0  0  0  0  0  0  0  0  0  0  0  0
   -0.2580   19.3870  -27.6080 C   0  0  0  0  0  0  0  0  0  0  0  0
    0.8500   19.9650  -27.4290 O   0  0  0  0  0  0  0  0  0  0  0  0
   -1.4280   19.8440  -26.8920 N   0  0  0  0  0  0  0  0  0  0  0  0
   -2.7850   19.5560  -27.3830 C   0  0  0  0  0  0  0  0  0  0  0  0
   -2.7163   18.9572  -28.3032 H   0  0  0  0  0  0  0  0  0  0  0  0
   -3.2973   20.5085  -27.5840 H   0  0  0  0  0  0  0  0  0  0  0  0
   -3.5850   18.7800  -26.3390 C   0  0  0  0  0  0  0  0  0  0  0  0
   -3.2682   19.0873  -25.3314 H   0  0  0  0  0  0  0  0  0  0  0  0
   -4.6569   18.9915  -26.4668 H   0  0  0  0  0  0  0  0  0  0  0  0
   -3.4062   17.7022  -26.4668 H   0  0  0  0  0  0  0  0  0  0  0  0
   -1.2540   20.5960  -25.6410 C   0  0  0  0  0  0  0  0  0  0  0  0
   -2.2036   20.5968  -25.0858 H   0  0  0  0  0  0  0  0  0  0  0  0
   -0.4633   20.1140  -25.0472 H   0  0  0  0  0  0  0  0  0  0  0  0
   -0.8410   22.0360  -25.9270 C   0  0  0  0  0  0  0  0  0  0  0  0
   -0.6881   22.5691  -24.9771 H   0  0  0  0  0  0  0  0  0  0  0  0
    0.0948   22.0411  -26.5051 H   0  0  0  0  0  0  0  0  0  0  0  0
   -1.6319   22.5363  -26.5051 H   0  0  0  0  0  0  0  0  0  0  0  0
   -2.0930   20.4870  -31.1450 S   0  0  0  0  0  0  0  0  0  0  0  0
   -2.2270   22.0520  -30.5550 C   0  0  0  0  0  0  0  0  0  0  0  0
   -3.1940   23.0120  -30.8440 C   0  0  0  0  0  0  0  0  0  0  0  0
   -4.0083   22.7973  -31.5517 H   0  0  0  0  0  0  0  0  0  0  0  0
   -7.1750   23.4200  -31.0590 C   0  0  0  0  0  0  0  0  0  0  0  0
   -7.8666   23.7817  -30.2839 H   0  0  0  0  0  0  0  0  0  0  0  0
   -7.4590   22.0990  -31.6630 C   0  0  0  0  0  0  0  0  0  0  0  0
   -8.7090   21.5020  -31.4490 C   0  0  0  0  0  0  0  0  0  0  0  0
   -9.4795   22.0355  -30.8730 H   0  0  0  0  0  0  0  0  0  0  0  0
   -8.9800   20.2330  -31.9640 C   0  0  0  0  0  0  0  0  0  0  0  0
   -9.9690   19.7774  -31.8082 H   0  0  0  0  0  0  0  0  0  0  0  0
   -7.9980   19.5400  -32.6770 C   0  0  0  0  0  0  0  0  0  0  0  0
   -8.2192   18.5413  -33.0815 H   0  0  0  0  0  0  0  0  0  0  0  0
   -6.7350   20.1080  -32.8800 C   0  0  0  0  0  0  0  0  0  0  0  0
   -5.7780   19.3680  -33.5900 O   0  0  0  0  0  0  0  0  0  0  0  0
   -5.9960   18.0600  -34.1110 C   0  0  0  0  0  0  0  0  0  0  0  0
   -6.1145   17.3493  -33.2798 H   0  0  0  0  0  0  0  0  0  0  0  0
   -6.9069   18.0581  -34.7277 H   0  0  0  0  0  0  0  0  0  0  0  0
   -5.1350   17.7628  -34.7277 H   0  0  0  0  0  0  0  0  0  0  0  0
   -6.4650   21.3890  -32.3610 C   0  0  0  0  0  0  0  0  0  0  0  0
   -5.4705   21.8374  -32.5023 H   0  0  0  0  0  0  0  0  0  0  0  0
  1  2  1  0
  2  3  1  0
  3  4  2  0
  3  5  1  0
  5  6  1  0
  6  7  2  0
  7  8  1  0
  7  9  1  0
  9 10  1  0
  9 11  2  0
 11 12  1  0
 12 13  2  0
 13 14  1  0
 14 15  1  0
 15 16  1  0
 15 17  1  0
 15 18  1  0
 18 19  2  0
 18 20  1  0
 20 21  1  0
 21 22  1  0
 21 23  1  0
 21 24  1  0
 24 25  1  0
 24 26  1  0
 24 27  1  0
 20 28  1  0
 28 29  1  0
 28 30  1  0
 28 31  1  0
 31 32  1  0
 31 33  1  0
 31 34  1  0
 13 35  1  0
 35 36  1  0
 36 37  2  0
 37 38  1  0
  2 39  2  0
 39 40  1  0
 39 41  1  0
 41 42  2  0
 42 43  1  0
 42 44  1  0
 44 45  1  0
 44 46  2  0
 46 47  1  0
 46 48  1  0
 48 49  1  0
 49 50  1  0
 50 51  1  0
 50 52  1  0
 50 53  1  0
 48 54  2  0
 54 55  1  0
 37  6  1  0
 54 41  1  0
 36 11  1  0
M  CHG  1   5  -1
M  END
>  <UniqueID>  (21) 
21

>  <SMILES>  (21) 
CCN(CC)C(=O)CSc1nc2ccc([N-]C(=O)/C=C\c3cccc(OC)c3)cc2s1

>  <Energy>  (21) 
91.4580348576089

>  <Genealogy>  (21) 
CCN(CC)C(=O)CSc1nc2ccc([N-]C(=O)C=Cc3cccc(OC)c3)cc2s1 (protonated)
CCN(CC)C(=O)CSc1nc2ccc([N-]C(=O)/C=C\c3cccc(OC)c3)cc2s1 (cis-trans isomerization)
CCN(CC)C(=O)CSc1nc2ccc([N-]C(=O)/C=C\c3cccc(OC)c3)cc2s1 (3D coordinates assigned)
CCN(CC)C(=O)CSc1nc2ccc([N-]C(=O)/C=C\c3cccc(OC)c3)cc2s1 (optimized conformer: 91.4580348576089 kcal/mol)

>  <smiles>  (21) 
CCN(CC)C(=O)CSc1nc2ccc(NC(=O)C=Cc3cccc(OC)c3)cc2s1

>  <score_type>  (21) 
oracle

>  <origin>  (21) 
adg

>  <m_score__min__energy>  (21) 
-11.220000000000001

>  <m_primary>  (21) 
energy

$$$$
21:0
     RDKit          3D

 55 58  0  0  0  0  0  0  0  0999 V2000
   -3.2030   23.9680  -28.2450 C   0  0  0  0  0  0  0  0  0  0  0  0
   -2.6320   24.0670  -29.6640 C   0  0  0  0  0  0  0  0  0  0  0  0
   -3.6290   23.6800  -30.6990 N   0  0  0  0  0  0  0  0  0  0  0  0
   -5.0030   24.0460  -30.2610 C   0  0  0  0  0  0  0  0  0  0  0  0
   -5.3460   25.5040  -30.5920 C   0  0  0  0  0  0  0  0  0  0  0  0
   -3.5430   22.2170  -30.9550 C   0  0  0  0  0  0  0  0  0  0  0  0
   -3.1490   21.8970  -32.4180 C   0  0  0  0  0  0  0  0  0  0  0  0
   -4.3180   21.8480  -33.3010 N   0  0  0  0  0  0  0  0  0  0  0  0
   -5.4380   20.9640  -33.1070 C   0  0  0  0  0  0  0  0  0  0  0  0
   -5.3470   19.6060  -33.3980 C   0  0  0  0  0  0  0  0  0  0  0  0
   -6.3960   18.7490  -33.1090 C   0  0  0  0  0  0  0  0  0  0  0  0
   -7.5260   19.1750  -32.4600 N   0  0  0  0  0  0  0  0  0  0  0  0
   -8.4580   18.1960  -31.8760 C   0  0  0  0  0  0  0  0  0  0  0  0
   -7.7240   20.5340  -32.3100 C   0  0  0  0  0  0  0  0  0  0  0  0
   -8.9690   21.0610  -31.8870 C   0  0  0  0  0  0  0  0  0  0  0  0
   -9.1440   22.4350  -31.7060 C   0  0  0  0  0  0  0  0  0  0  0  0
   -8.0980   23.3160  -31.9590 C   0  0  0  0  0  0  0  0  0  0  0  0
   -6.8720   22.8350  -32.4140 C   0  0  0  0  0  0  0  0  0  0  0  0
   -6.6640   21.4510  -32.6020 C   0  0  0  0  0  0  0  0  0  0  0  0
   -6.0020   17.3970  -33.5290 C   0  0  0  0  0  0  0  0  0  0  0  0
   -6.7400   16.2080  -33.6570 C   0  0  0  0  0  0  0  0  0  0  0  0
   -6.0990   15.0690  -34.1650 C   0  0  0  0  0  0  0  0  0  0  0  0
   -4.7600   15.1330  -34.5850 C   0  0  0  0  0  0  0  0  0  0  0  0
   -4.0560   16.3440  -34.5190 C   0  0  0  0  0  0  0  0  0  0  0  0
   -4.7000   17.4660  -33.9920 C   0  0  0  0  0  0  0  0  0  0  0  0
   -4.1710   18.8640  -33.9620 C   0  0  0  0  0  0  0  0  0  0  0  0
   -2.3936   24.1083  -27.5134 H   0  0  0  0  0  0  0  0  0  0  0  0
   -3.9660   24.7473  -28.1016 H   0  0  0  0  0  0  0  0  0  0  0  0
   -3.6592   22.9774  -28.1016 H   0  0  0  0  0  0  0  0  0  0  0  0
   -2.3157   25.1045  -29.8471 H   0  0  0  0  0  0  0  0  0  0  0  0
   -1.7830   23.3713  -29.7359 H   0  0  0  0  0  0  0  0  0  0  0  0
   -3.4130   24.1880  -31.5910 H   0  0  0  0  0  0  0  0  0  0  0  0
   -5.7239   23.3882  -30.7685 H   0  0  0  0  0  0  0  0  0  0  0  0
   -5.0530   23.9263  -29.1687 H   0  0  0  0  0  0  0  0  0  0  0  0
   -5.4792   26.0704  -29.6585 H   0  0  0  0  0  0  0  0  0  0  0  0
   -4.5281   25.9493  -31.1774 H   0  0  0  0  0  0  0  0  0  0  0  0
   -6.2766   25.5379  -31.1774 H   0  0  0  0  0  0  0  0  0  0  0  0
   -2.7874   21.7843  -30.2828 H   0  0  0  0  0  0  0  0  0  0  0  0
   -4.5382   21.7851  -30.7730 H   0  0  0  0  0  0  0  0  0  0  0  0
   -2.4624   22.6765  -32.7800 H   0  0  0  0  0  0  0  0  0  0  0  0
   -2.6689   20.9074  -32.4329 H   0  0  0  0  0  0  0  0  0  0  0  0
   -4.2430   22.3470  -34.2180 H   0  0  0  0  0  0  0  0  0  0  0  0
   -8.4065   18.2501  -30.7785 H   0  0  0  0  0  0  0  0  0  0  0  0
   -9.4824   18.4225  -32.2066 H   0  0  0  0  0  0  0  0  0  0  0  0
   -8.1814   17.1840  -32.2066 H   0  0  0  0  0  0  0  0  0  0  0  0
   -9.8104   20.3781  -31.6983 H   0  0  0  0  0  0  0  0  0  0  0  0
  -10.1143   22.8222  -31.3615 H   0  0  0  0  0  0  0  0  0  0  0  0
   -8.2389   24.3952  -31.7995 H   0  0  0  0  0  0  0  0  0  0  0  0
   -6.0568   23.5415  -32.6292 H   0  0  0  0  0  0  0  0  0  0  0  0
   -7.7997   16.1715  -33.3644 H   0  0  0  0  0  0  0  0  0  0  0  0
   -6.6485   14.1187  -34.2351 H   0  0  0  0  0  0  0  0  0  0  0  0
   -4.2618   14.2298  -34.9671 H   0  0  0  0  0  0  0  0  0  0  0  0
   -3.0173   16.4091  -34.8751 H   0  0  0  0  0  0  0  0  0  0  0  0
   -3.2899   18.9481  -33.3089 H   0  0  0  0  0  0  0  0  0  0  0  0
   -3.8254   19.2380  -34.9371 H   0  0  0  0  0  0  0  0  0  0  0  0
  1  2  1  0
  2  3  1  0
  3  4  1  0
  4  5  1  0
  3  6  1  0
  6  7  1  0
  7  8  1  0
  8  9  1  0
  9 10  2  0
 10 11  1  0
 11 12  2  0
 12 13  1  0
 12 14  1  0
 14 15  2  0
 15 16  1  0
 16 17  2  0
 17 18  1  0
 18 19  2  0
 11 20  1  0
 20 21  2  0
 21 22  1  0
 22 23  2  0
 23 24  1  0
 24 25  2  0
 25 26  1  0
 19  9  1  0
 25 20  1  0
 26 10  1  0
 19 14  1  0
  1 27  1  0
  1 28  1  0
  1 29  1  0
  2 30  1  0
  2 31  1  0
  3 32  1  0
  4 33  1  0
  4 34  1  0
  5 35  1  0
  5 36  1  0
  5 37  1  0
  6 38  1  0
  6 39  1  0
  7 40  1  0
  7 41  1  0
  8 42  1  0
 13 43  1  0
 13 44  1  0
 13 45  1  0
 15 46  1  0
 16 47  1  0
 17 48  1  0
 18 49  1  0
 21 50  1  0
 22 51  1  0
 23 52  1  0
 24 53  1  0
 26 54  1  0
 26 55  1  0
M  CHG  2   3   1  12   1
M  END
>  <UniqueID>  (22) 
22

>  <SMILES>  (22) 
CC[NH+](CC)CCNc1c2c([n+](C)c3ccccc13)-c1ccccc1C2

>  <Energy>  (22) 
103.82224437037965

>  <Genealogy>  (22) 
CC[NH+](CC)CCNc1c2c([n+](C)c3ccccc13)-c1ccccc1C2 (protonated)
CC[NH+](CC)CCNc1c2c([n+](C)c3ccccc13)-c1ccccc1C2 (3D coordinates assigned)
CC[NH+](CC)CCNc1c2c([n+](C)c3ccccc13)-c1ccccc1C2 (nonaromatic ring conformer: 103.82224437037965 kcal/mol)

>  <smiles>  (22) 
CCN(CC)CCNc1c2c([n+](C)c3ccccc13)-c1ccccc1C2

>  <score_type>  (22) 
oracle

>  <origin>  (22) 
adg

>  <m_score__min__energy>  (22) 
-7.7999999999999998

>  <m_primary>  (22) 
energy

$$$$
22:0
     RDKit          3D

 66 69  0  0  0  0  0  0  0  0999 V2000
   -2.7040   23.8140  -29.6560 C   0  0  0  0  0  0  0  0  0  0  0  0
   -4.1300   23.4800  -30.0790 C   0  0  0  0  0  0  0  0  0  0  0  0
   -4.6070   24.4370  -31.0090 O   0  0  0  0  0  0  0  0  0  0  0  0
   -6.0200   24.4940  -31.0080 C   0  0  0  0  0  0  0  0  0  0  0  0
   -6.5840   23.8490  -32.2780 C   0  0  0  0  0  0  0  0  0  0  0  0
   -7.2510   22.5800  -31.9570 N   0  0  0  0  0  0  0  0  0  0  0  0
   -6.4710   21.4330  -31.4770 C   0  0  0  0  0  0  0  0  0  0  0  0
   -6.9770   20.1060  -32.0960 C   0  0  1  0  0  0  0  0  0  0  0  0
   -8.4920   19.9710  -31.7490 C   0  0  0  0  0  0  0  0  0  0  0  0
   -9.3520   21.1540  -32.2220 C   0  0  0  0  0  0  0  0  0  0  0  0
   -8.6870   22.4800  -32.0080 C   0  0  0  0  0  0  0  0  0  0  0  0
   -9.3970   23.5220  -31.9630 O   0  0  0  0  0  0  0  0  0  0  0  0
   -6.7160   20.1040  -33.6440 C   0  0  0  0  0  0  0  0  0  0  0  0
   -6.1010   18.7930  -34.1660 C   0  0  0  0  0  0  0  0  0  0  0  0
   -6.7480   17.6250  -33.5370 N   0  0  1  0  0  0  0  0  0  0  0  0
   -6.4330   16.3500  -34.2330 C   0  0  0  0  0  0  0  0  0  0  0  0
   -4.9860   15.9050  -34.1150 C   0  0  0  0  0  0  0  0  0  0  0  0
   -4.6630   14.5380  -34.1490 C   0  0  0  0  0  0  0  0  0  0  0  0
   -3.3340   14.1220  -34.0580 C   0  0  0  0  0  0  0  0  0  0  0  0
   -2.3100   15.0650  -33.9470 C   0  0  0  0  0  0  0  0  0  0  0  0
   -2.6120   16.4380  -33.9450 C   0  0  0  0  0  0  0  0  0  0  0  0
   -1.6090   17.4120  -33.8160 O   0  0  0  0  0  0  0  0  0  0  0  0
   -1.8000   18.6980  -33.2960 C   0  0  0  0  0  0  0  0  0  0  0  0
   -1.1990   19.0330  -32.0750 C   0  0  0  0  0  0  0  0  0  0  0  0
   -1.3640   20.3130  -31.5340 C   0  0  0  0  0  0  0  0  0  0  0  0
   -2.1510   21.2580  -32.1990 C   0  0  0  0  0  0  0  0  0  0  0  0
   -2.7720   20.9240  -33.4070 C   0  0  0  0  0  0  0  0  0  0  0  0
   -2.6060   19.6460  -33.9520 C   0  0  0  0  0  0  0  0  0  0  0  0
   -3.9480   16.8500  -34.0260 C   0  0  0  0  0  0  0  0  0  0  0  0
   -6.4960   17.5610  -32.0700 C   0  0  0  0  0  0  0  0  0  0  0  0
   -6.2010   18.9370  -31.4300 C   0  0  0  0  0  0  0  0  0  0  0  0
   -2.6412   23.8287  -28.5579 H   0  0  0  0  0  0  0  0  0  0  0  0
   -2.0161   23.0527  -30.0524 H   0  0  0  0  0  0  0  0  0  0  0  0
   -2.4257   24.8016  -30.0524 H   0  0  0  0  0  0  0  0  0  0  0  0
   -4.1459   22.4834  -30.5443 H   0  0  0  0  0  0  0  0  0  0  0  0
   -4.7779   23.4929  -29.1901 H   0  0  0  0  0  0  0  0  0  0  0  0
   -6.4033   23.9565  -30.1281 H   0  0  0  0  0  0  0  0  0  0  0  0
   -6.3335   25.5479  -30.9749 H   0  0  0  0  0  0  0  0  0  0  0  0
   -7.3108   24.5335  -32.7397 H   0  0  0  0  0  0  0  0  0  0  0  0
   -5.7559   23.6499  -32.9742 H   0  0  0  0  0  0  0  0  0  0  0  0
   -5.4160   21.5771  -31.7529 H   0  0  0  0  0  0  0  0  0  0  0  0
   -6.5840   21.3705  -30.3846 H   0  0  0  0  0  0  0  0  0  0  0  0
   -8.8745   19.0548  -32.2225 H   0  0  0  0  0  0  0  0  0  0  0  0
   -8.5650   19.9445  -30.6517 H   0  0  0  0  0  0  0  0  0  0  0  0
   -9.5557   21.0327  -33.2961 H   0  0  0  0  0  0  0  0  0  0  0  0
  -10.2772   21.1486  -31.6271 H   0  0  0  0  0  0  0  0  0  0  0  0
   -7.6748   20.2667  -34.1581 H   0  0  0  0  0  0  0  0  0  0  0  0
   -5.9892   20.9039  -33.8485 H   0  0  0  0  0  0  0  0  0  0  0  0
   -6.2391   18.7385  -35.2559 H   0  0  0  0  0  0  0  0  0  0  0  0
   -5.0300   18.7810  -33.9152 H   0  0  0  0  0  0  0  0  0  0  0  0
   -7.7800   17.7500  -33.6670 H   0  0  0  0  0  0  0  0  0  0  0  0
   -7.0703   15.5607  -33.8077 H   0  0  0  0  0  0  0  0  0  0  0  0
   -6.6185   16.5254  -35.3030 H   0  0  0  0  0  0  0  0  0  0  0  0
   -5.4636   13.7902  -34.2481 H   0  0  0  0  0  0  0  0  0  0  0  0
   -3.0925   13.0489  -34.0737 H   0  0  0  0  0  0  0  0  0  0  0  0
   -1.2649   14.7328  -33.8609 H   0  0  0  0  0  0  0  0  0  0  0  0
   -0.5946   18.2861  -31.5393 H   0  0  0  0  0  0  0  0  0  0  0  0
   -0.8741   20.5758  -30.5848 H   0  0  0  0  0  0  0  0  0  0  0  0
   -2.2817   22.2635  -31.7725 H   0  0  0  0  0  0  0  0  0  0  0  0
   -3.3920   21.6674  -33.9295 H   0  0  0  0  0  0  0  0  0  0  0  0
   -3.1067   19.3821  -34.8952 H   0  0  0  0  0  0  0  0  0  0  0  0
   -4.1880   17.9235  -34.0200 H   0  0  0  0  0  0  0  0  0  0  0  0
   -7.3855   17.1349  -31.5830 H   0  0  0  0  0  0  0  0  0  0  0  0
   -5.6000   16.9397  -31.9243 H   0  0  0  0  0  0  0  0  0  0  0  0
   -6.4801   18.8941  -30.3669 H   0  0  0  0  0  0  0  0  0  0  0  0
   -5.1286   19.1373  -31.5705 H   0  0  0  0  0  0  0  0  0  0  0  0
  1  2  1  0
  2  3  1  0
  3  4  1  0
  4  5  1  0
  5  6  1  0
  6  7  1  0
  8  7  1  1
  8  9  1  0
  9 10  1  0
 10 11  1  0
 11 12  2  0
  8 13  1  0
 13 14  1  0
 14 15  1  0
 15 16  1  0
 16 17  1  0
 17 18  2  0
 18 19  1  0
 19 20  2  0
 20 21  1  0
 21 22  1  0
 22 23  1  0
 23 24  2  0
 24 25  1  0
 25 26  2  0
 26 27  1  0
 27 28  2  0
 21 29  2  0
 15 30  1  0
 30 31  1  0
 11  6  1  0
 29 17  1  0
 31  8  1  0
 28 23  1  0
  1 32  1  0
  1 33  1  0
  1 34  1  0
  2 35  1  0
  2 36  1  0
  4 37  1  0
  4 38  1  0
  5 39  1  0
  5 40  1  0
  7 41  1  0
  7 42  1  0
  9 43  1  0
  9 44  1  0
 10 45  1  0
 10 46  1  0
 13 47  1  0
 13 48  1  0
 14 49  1  0
 14 50  1  0
 15 51  1  1
 16 52  1  0
 16 53  1  0
 18 54  1  0
 19 55  1  0
 20 56  1  0
 24 57  1  0
 25 58  1  0
 26 59  1  0
 27 60  1  0
 28 61  1  0
 29 62  1  0
 30 63  1  0
 30 64  1  0
 31 65  1  0
 31 66  1  0
M  CHG  1  15   1
M  END
>  <UniqueID>  (23) 
23

>  <SMILES>  (23) 
CCOCCN1CC2(CCC1=O)CC[NH+](Cc1cccc(Oc3ccccc3)c1)CC2

>  <Energy>  (23) 
85.84926756421284

>  <Genealogy>  (23) 
CCOCCN1CC2(CCC1=O)CC[NH+](Cc1cccc(Oc3ccccc3)c1)CC2 (protonated)
CCOCCN1CC2(CCC1=O)CC[NH+](Cc1cccc(Oc3ccccc3)c1)CC2 (3D coordinates assigned)
CCOCCN1CC2(CCC1=O)CC[NH+](Cc1cccc(Oc3ccccc3)c1)CC2 (nonaromatic ring conformer: 85.84926756421284 kcal/mol)

>  <smiles>  (23) 
CCOCCN1CC2(CCC1=O)CCN(Cc1cccc(Oc3ccccc3)c1)CC2

>  <score_type>  (23) 
oracle

>  <origin>  (23) 
adg

>  <m_score__min__energy>  (23) 
-9.1999999999999993

>  <m_primary>  (23) 
energy

$$$$
23:0
     RDKit          3D

 46 49  0  0  0  0  0  0  0  0999 V2000
   -5.3991   23.9131  -33.2679 H   0  0  0  0  0  0  0  0  0  0  0  0
   -5.7420   23.4320  -32.3400 C   0  0  0  0  0  0  0  0  0  0  0  0
   -7.0110   23.0070  -32.2570 C   0  0  0  0  0  0  0  0  0  0  0  0
   -7.8041   23.7606  -32.1424 H   0  0  0  0  0  0  0  0  0  0  0  0
   -7.4060   21.5780  -32.3110 C   0  0  0  0  0  0  0  0  0  0  0  0
   -8.7010   21.2220  -31.8940 C   0  0  0  0  0  0  0  0  0  0  0  0
   -9.3947   22.0011  -31.5450 H   0  0  0  0  0  0  0  0  0  0  0  0
   -9.1150   19.8860  -31.9190 C   0  0  0  0  0  0  0  0  0  0  0  0
  -10.1329   19.6202  -31.5978 H   0  0  0  0  0  0  0  0  0  0  0  0
   -8.2380   18.8900  -32.3510 C   0  0  0  0  0  0  0  0  0  0  0  0
   -8.5666   17.8405  -32.3757 H   0  0  0  0  0  0  0  0  0  0  0  0
   -6.9430   19.2260  -32.7520 C   0  0  0  0  0  0  0  0  0  0  0  0
   -6.2511   18.4389  -33.0862 H   0  0  0  0  0  0  0  0  0  0  0  0
   -6.5230   20.5600  -32.7300 C   0  0  0  0  0  0  0  0  0  0  0  0
   -5.4995   20.8168  -33.0408 H   0  0  0  0  0  0  0  0  0  0  0  0
   -4.7950   23.2730  -31.2250 C   0  0  0  0  0  0  0  0  0  0  0  0
   -4.4330   24.2940  -30.4180 N   0  0  0  0  0  0  0  0  0  0  0  0
   -3.5700   23.6990  -29.5690 C   0  0  0  0  0  0  0  0  0  0  0  0
   -2.8280   24.4520  -28.5350 C   0  0  0  0  0  0  0  0  0  0  0  0
   -3.3290   24.5740  -27.2270 C   0  0  0  0  0  0  0  0  0  0  0  0
   -4.2943   24.1158  -26.9655 H   0  0  0  0  0  0  0  0  0  0  0  0
   -2.6060   25.2750  -26.2570 C   0  0  0  0  0  0  0  0  0  0  0  0
   -3.0089   25.3772  -25.2386 H   0  0  0  0  0  0  0  0  0  0  0  0
   -1.3720   25.8460  -26.5800 C   0  0  0  0  0  0  0  0  0  0  0  0
   -0.8072   26.4031  -25.8180 H   0  0  0  0  0  0  0  0  0  0  0  0
   -0.8560   25.7090  -27.8710 C   0  0  0  0  0  0  0  0  0  0  0  0
    0.1185   26.1531  -28.1224 H   0  0  0  0  0  0  0  0  0  0  0  0
   -1.5750   25.0090  -28.8440 C   0  0  0  0  0  0  0  0  0  0  0  0
   -1.1586   24.8936  -29.8556 H   0  0  0  0  0  0  0  0  0  0  0  0
   -3.4300   22.3830  -29.8520 N   0  0  0  0  0  0  0  0  0  0  0  0
   -2.6950   21.3760  -29.1390 C   0  0  0  0  0  0  0  0  0  0  0  0
   -3.1130   20.9400  -27.8700 C   0  0  0  0  0  0  0  0  0  0  0  0
   -4.0085   21.3809  -27.4077 H   0  0  0  0  0  0  0  0  0  0  0  0
   -2.3970   19.9490  -27.1920 C   0  0  0  0  0  0  0  0  0  0  0  0
   -2.7232   19.6244  -26.1929 H   0  0  0  0  0  0  0  0  0  0  0  0
   -1.2610   19.3650  -27.7820 C   0  0  0  0  0  0  0  0  0  0  0  0
   -0.5080   18.3690  -27.1410 O   0  0  0  0  0  0  0  0  0  0  0  0
    0.4000   17.4970  -27.8030 C   0  0  0  0  0  0  0  0  0  0  0  0
    0.9822   16.9379  -27.0557 H   0  0  0  0  0  0  0  0  0  0  0  0
   -0.1621   16.7916  -28.4326 H   0  0  0  0  0  0  0  0  0  0  0  0
    1.0821   18.0872  -28.4326 H   0  0  0  0  0  0  0  0  0  0  0  0
   -0.8610   19.7850  -29.0550 C   0  0  0  0  0  0  0  0  0  0  0  0
    0.0233   19.3311  -29.5262 H   0  0  0  0  0  0  0  0  0  0  0  0
   -1.5750   20.7760  -29.7330 C   0  0  0  0  0  0  0  0  0  0  0  0
   -1.2569   21.0877  -30.7388 H   0  0  0  0  0  0  0  0  0  0  0  0
   -4.1950   22.1120  -30.8950 N   0  0  0  0  0  0  0  0  0  0  0  0
  1  2  1  0
  2  3  2  0
  3  4  1  0
  3  5  1  0
  5  6  2  0
  6  7  1  0
  6  8  1  0
  8  9  1  0
  8 10  2  0
 10 11  1  0
 10 12  1  0
 12 13  1  0
 12 14  2  0
 14 15  1  0
  2 16  1  0
 16 17  1  0
 17 18  2  0
 18 19  1  0
 19 20  2  0
 20 21  1  0
 20 22  1  0
 22 23  1  0
 22 24  2  0
 24 25  1  0
 24 26  1  0
 26 27  1  0
 26 28  2  0
 28 29  1  0
 18 30  1  0
 30 31  1  0
 31 32  2  0
 32 33  1  0
 32 34  1  0
 34 35  1  0
 34 36  2  0
 36 37  1  0
 37 38  1  0
 38 39  1  0
 38 40  1  0
 38 41  1  0
 36 42  1  0
 42 43  1  0
 42 44  2  0
 44 45  1  0
 30 46  1  0
 14  5  1  0
 46 16  2  0
 28 19  1  0
 44 31  1  0
M  END
>  <UniqueID>  (24) 
24

>  <SMILES>  (24) 
COc1ccc(-n2nc(/C=C/c3ccccc3)nc2-c2ccccc2)cc1

>  <Energy>  (24) 
93.07204363765176

>  <Genealogy>  (24) 
COc1ccc(-n2nc(/C=C/c3ccccc3)nc2-c2ccccc2)cc1 (cis-trans isomerization)
COc1ccc(-n2nc(/C=C/c3ccccc3)nc2-c2ccccc2)cc1 (3D coordinates assigned)
COc1ccc(-n2nc(/C=C/c3ccccc3)nc2-c2ccccc2)cc1 (optimized conformer: 93.07204363765176 kcal/mol)

>  <smiles>  (24) 
COc1ccc(-n2nc(C=Cc3ccccc3)nc2-c2ccccc2)cc1

>  <score_type>  (24) 
oracle

>  <origin>  (24) 
adg

>  <m_score__min__energy>  (24) 
-8.6600000000000001

>  <m_primary>  (24) 
energy

$$$$
24:0
     RDKit          3D

 41 42  0  0  0  0  0  0  0  0999 V2000
   -3.6640   25.6630  -31.5950 H   0  0  0  0  0  0  0  0  0  0  0  0
   -4.2150   25.5240  -30.7200 N   0  0  0  0  0  0  0  0  0  0  0  0
   -5.1670   24.6490  -30.6420 C   0  0  0  0  0  0  0  0  0  0  0  0
   -5.3590   23.7070  -31.7030 N   0  0  0  0  0  0  0  0  0  0  0  0
   -4.7370   23.7980  -32.5370 H   0  0  0  0  0  0  0  0  0  0  0  0
   -6.5150   22.7950  -31.7210 C   0  0  2  0  0  0  0  0  0  0  0  0
   -6.1190   21.4490  -32.3780 C   0  0  0  0  0  0  0  0  0  0  0  0
   -4.8020   21.1930  -32.8300 C   0  0  0  0  0  0  0  0  0  0  0  0
   -4.0356   21.9734  -32.7133 H   0  0  0  0  0  0  0  0  0  0  0  0
   -4.4460   19.9690  -33.4240 C   0  0  0  0  0  0  0  0  0  0  0  0
   -3.0930   19.7740  -33.8980 N   0  0  0  0  0  0  0  0  0  0  0  0
   -3.0250   18.8290  -34.3440 H   0  0  0  0  0  0  0  0  0  0  0  0
   -2.8420   20.4670  -34.6410 H   0  0  0  0  0  0  0  0  0  0  0  0
   -2.1160   19.8390  -32.7970 C   0  0  0  0  0  0  0  0  0  0  0  0
   -2.6593   19.8205  -31.8407 H   0  0  0  0  0  0  0  0  0  0  0  0
   -1.4426   18.9747  -32.8941 H   0  0  0  0  0  0  0  0  0  0  0  0
   -1.2600   21.1070  -32.8520 C   0  0  0  0  0  0  0  0  0  0  0  0
   -1.0341   21.4416  -31.8288 H   0  0  0  0  0  0  0  0  0  0  0  0
   -0.3210   20.8927  -33.3834 H   0  0  0  0  0  0  0  0  0  0  0  0
   -1.8098   21.8978  -33.3834 H   0  0  0  0  0  0  0  0  0  0  0  0
   -5.4150   18.9580  -33.5670 C   0  0  0  0  0  0  0  0  0  0  0  0
   -5.0530   17.7450  -34.1770 O   0  0  0  0  0  0  0  0  0  0  0  0
   -5.8580   16.5710  -34.1870 C   0  0  0  0  0  0  0  0  0  0  0  0
   -6.0695   16.2626  -33.1525 H   0  0  0  0  0  0  0  0  0  0  0  0
   -6.8040   16.7795  -34.7081 H   0  0  0  0  0  0  0  0  0  0  0  0
   -5.3226   15.7637  -34.7081 H   0  0  0  0  0  0  0  0  0  0  0  0
   -6.7160   19.1860  -33.0940 C   0  0  0  0  0  0  0  0  0  0  0  0
   -7.4736   18.3944  -33.1909 H   0  0  0  0  0  0  0  0  0  0  0  0
   -7.0640   20.4000  -32.5030 C   0  0  0  0  0  0  0  0  0  0  0  0
   -8.3320   20.5260  -32.0370 F   0  0  0  0  0  0  0  0  0  0  0  0
   -7.6510   23.4430  -32.5420 C   0  0  0  0  0  0  0  0  0  0  0  0
   -8.3997   23.8701  -31.8586 H   0  0  0  0  0  0  0  0  0  0  0  0
   -7.2363   24.2404  -33.1761 H   0  0  0  0  0  0  0  0  0  0  0  0
   -8.1263   22.6801  -33.1761 H   0  0  0  0  0  0  0  0  0  0  0  0
   -7.0150   22.6320  -30.2530 C   0  0  0  0  0  0  0  0  0  0  0  0
   -6.2557   22.0894  -29.6707 H   0  0  0  0  0  0  0  0  0  0  0  0
   -7.9612   22.0711  -30.2611 H   0  0  0  0  0  0  0  0  0  0  0  0
   -7.2400   23.8980  -29.6590 O   0  0  0  0  0  0  0  0  0  0  0  0
   -6.0050   24.5370  -29.3970 C   0  0  0  0  0  0  0  0  0  0  0  0
   -5.4528   23.9533  -28.6458 H   0  0  0  0  0  0  0  0  0  0  0  0
   -6.2131   25.5523  -29.0285 H   0  0  0  0  0  0  0  0  0  0  0  0
  1  2  1  0
  2  3  2  0
  3  4  1  0
  4  5  1  0
  4  6  1  0
  6  7  1  0
  7  8  2  0
  8  9  1  0
  8 10  1  0
 10 11  1  0
 11 12  1  0
 11 13  1  0
 11 14  1  0
 14 15  1  0
 14 16  1  0
 14 17  1  0
 17 18  1  0
 17 19  1  0
 17 20  1  0
 10 21  2  0
 21 22  1  0
 22 23  1  0
 23 24  1  0
 23 25  1  0
 23 26  1  0
 21 27  1  0
 27 28  1  0
 27 29  2  0
 29 30  1  0
  6 31  1  6
 31 32  1  0
 31 33  1  0
 31 34  1  0
  6 35  1  0
 35 36  1  0
 35 37  1  0
 35 38  1  0
 38 39  1  0
 39 40  1  0
 39 41  1  0
 39  3  1  0
 29  7  1  0
M  CHG  1  11   1
M  END
>  <UniqueID>  (25) 
25

>  <SMILES>  (25) 
[H]/N=C1\COC[C@](C)(c2cc([NH2+]CC)c(OC)cc2F)N1

>  <Energy>  (25) 
48.69858908107716

>  <Genealogy>  (25) 
CC[NH2+]c1cc(C2(C)COCC(=N)N2)c(F)cc1OC (protonated)
CC[NH2+]c1cc([C@@]2(C)COCC(=N)N2)c(F)cc1OC (chirality)
[H]/N=C1\COC[C@](C)(c2cc([NH2+]CC)c(OC)cc2F)N1 (cis-trans isomerization)
[H]/N=C1\COC[C@](C)(c2cc([NH2+]CC)c(OC)cc2F)N1 (3D coordinates assigned)
[H]/N=C1\COC[C@](C)(c2cc([NH2+]CC)c(OC)cc2F)N1 (nonaromatic ring conformer: 48.69858908107716 kcal/mol)

>  <smiles>  (25) 
CCNc1cc(C2(C)COCC(=N)N2)c(F)cc1OC

>  <score_type>  (25) 
oracle

>  <origin>  (25) 
adg

>  <m_score__min__energy>  (25) 
-6.9800000000000004

>  <m_primary>  (25) 
energy

$$$$
25:0
     RDKit          3D

 54 57  0  0  0  0  0  0  0  0999 V2000
   -6.6450   25.1810  -29.8380 C   0  0  0  0  0  0  0  0  0  0  0  0
   -5.3300   25.6540  -30.4750 C   0  0  0  0  0  0  0  0  0  0  0  0
   -4.3150   24.5820  -30.6450 N   0  0  0  0  0  0  0  0  0  0  0  0
   -3.3010   24.5400  -29.5650 C   0  0  0  0  0  0  0  0  0  0  0  0
   -3.9020   24.0620  -28.2440 C   0  0  0  0  0  0  0  0  0  0  0  0
   -4.9330   23.2560  -30.8670 C   0  0  0  0  0  0  0  0  0  0  0  0
   -4.0960   22.4430  -31.8650 C   0  0  0  0  0  0  0  0  0  0  0  0
   -4.8500   22.0980  -33.0850 N   0  0  0  0  0  0  0  0  0  0  0  0
   -5.2220   20.6870  -33.1170 C   0  0  0  0  0  0  0  0  0  0  0  0
   -6.5370   20.2850  -32.7440 C   0  0  0  0  0  0  0  0  0  0  0  0
   -7.5150   21.2230  -32.3210 C   0  0  0  0  0  0  0  0  0  0  0  0
   -8.7860   20.8130  -31.9270 C   0  0  0  0  0  0  0  0  0  0  0  0
   -9.1200   19.4680  -31.9400 C   0  0  0  0  0  0  0  0  0  0  0  0
   -8.1930   18.5260  -32.3730 C   0  0  0  0  0  0  0  0  0  0  0  0
   -6.8990   18.9110  -32.8100 C   0  0  0  0  0  0  0  0  0  0  0  0
   -6.0090   17.9770  -33.2890 N   0  0  0  0  0  0  0  0  0  0  0  0
   -6.5230   16.6810  -33.7780 C   0  0  0  0  0  0  0  0  0  0  0  0
   -4.6770   18.3040  -33.4370 C   0  0  0  0  0  0  0  0  0  0  0  0
   -4.2750   19.6780  -33.4670 C   0  0  0  0  0  0  0  0  0  0  0  0
   -2.9310   19.9930  -33.8420 C   0  0  0  0  0  0  0  0  0  0  0  0
   -1.9810   18.9950  -34.0690 C   0  0  0  0  0  0  0  0  0  0  0  0
   -2.3630   17.6770  -33.9000 C   0  0  0  0  0  0  0  0  0  0  0  0
   -1.5530   16.6080  -33.9400 N   0  0  0  0  0  0  0  0  0  0  0  0
   -2.3190   15.5510  -33.6090 C   0  0  0  0  0  0  0  0  0  0  0  0
   -3.6230   15.9560  -33.3650 C   0  0  0  0  0  0  0  0  0  0  0  0
   -3.6520   17.3290  -33.5840 C   0  0  0  0  0  0  0  0  0  0  0  0
   -6.5542   25.2137  -28.7422 H   0  0  0  0  0  0  0  0  0  0  0  0
   -7.4653   25.8404  -30.1578 H   0  0  0  0  0  0  0  0  0  0  0  0
   -6.8573   24.1501  -30.1578 H   0  0  0  0  0  0  0  0  0  0  0  0
   -5.5581   26.0733  -31.4660 H   0  0  0  0  0  0  0  0  0  0  0  0
   -4.8949   26.3951  -29.7883 H   0  0  0  0  0  0  0  0  0  0  0  0
   -2.4948   23.8521  -29.8595 H   0  0  0  0  0  0  0  0  0  0  0  0
   -2.9149   25.5594  -29.4172 H   0  0  0  0  0  0  0  0  0  0  0  0
   -3.3445   24.5054  -27.4058 H   0  0  0  0  0  0  0  0  0  0  0  0
   -4.9562   24.3712  -28.1876 H   0  0  0  0  0  0  0  0  0  0  0  0
   -3.8380   22.9653  -28.1876 H   0  0  0  0  0  0  0  0  0  0  0  0
   -4.9857   22.7147  -29.9108 H   0  0  0  0  0  0  0  0  0  0  0  0
   -5.9449   23.3947  -31.2755 H   0  0  0  0  0  0  0  0  0  0  0  0
   -3.2143   23.0353  -32.1509 H   0  0  0  0  0  0  0  0  0  0  0  0
   -3.8088   21.5024  -31.3723 H   0  0  0  0  0  0  0  0  0  0  0  0
   -4.2740   22.3290  -33.9240 H   0  0  0  0  0  0  0  0  0  0  0  0
   -5.6570   22.7440  -33.2040 H   0  0  0  0  0  0  0  0  0  0  0  0
   -7.2640   22.2939  -32.3042 H   0  0  0  0  0  0  0  0  0  0  0  0
   -9.5273   21.5589  -31.6044 H   0  0  0  0  0  0  0  0  0  0  0  0
  -10.1179   19.1457  -31.6080 H   0  0  0  0  0  0  0  0  0  0  0  0
   -8.4684   17.4610  -32.3768 H   0  0  0  0  0  0  0  0  0  0  0  0
   -6.7771   16.0403  -32.9207 H   0  0  0  0  0  0  0  0  0  0  0  0
   -7.4222   16.8500  -34.3887 H   0  0  0  0  0  0  0  0  0  0  0  0
   -5.7524   16.1878  -34.3887 H   0  0  0  0  0  0  0  0  0  0  0  0
   -2.6386   21.0475  -33.9543 H   0  0  0  0  0  0  0  0  0  0  0  0
   -0.9556   19.2508  -34.3743 H   0  0  0  0  0  0  0  0  0  0  0  0
   -0.5270   16.5970  -34.1370 H   0  0  0  0  0  0  0  0  0  0  0  0
   -1.9611   14.5130  -33.5416 H   0  0  0  0  0  0  0  0  0  0  0  0
   -4.4658   15.3185  -33.0594 H   0  0  0  0  0  0  0  0  0  0  0  0
  1  2  1  0
  2  3  1  0
  3  4  1  0
  4  5  1  0
  3  6  1  0
  6  7  1  0
  7  8  1  0
  8  9  1  0
  9 10  2  0
 10 11  1  0
 11 12  2  0
 12 13  1  0
 13 14  2  0
 14 15  1  0
 15 16  2  0
 16 17  1  0
 16 18  1  0
 18 19  2  0
 19 20  1  0
 20 21  2  0
 21 22  1  0
 22 23  1  0
 23 24  1  0
 24 25  2  0
 25 26  1  0
 19  9  1  0
 26 22  2  0
 15 10  1  0
 26 18  1  0
  1 27  1  0
  1 28  1  0
  1 29  1  0
  2 30  1  0
  2 31  1  0
  4 32  1  0
  4 33  1  0
  5 34  1  0
  5 35  1  0
  5 36  1  0
  6 37  1  0
  6 38  1  0
  7 39  1  0
  7 40  1  0
  8 41  1  0
  8 42  1  0
 11 43  1  0
 12 44  1  0
 13 45  1  0
 14 46  1  0
 17 47  1  0
 17 48  1  0
 17 49  1  0
 20 50  1  0
 21 51  1  0
 23 52  1  0
 24 53  1  0
 25 54  1  0
M  CHG  2   8   1  16   1
M  END
>  <UniqueID>  (26) 
26

>  <SMILES>  (26) 
CCN(CC)CC[NH2+]c1c2ccccc2[n+](C)c2c1ccc1[nH]ccc12

>  <Energy>  (26) 
124.4427999611022

>  <Genealogy>  (26) 
CCN(CC)CC[NH2+]c1c2ccccc2[n+](C)c2c1ccc1[nH]ccc12 (protonated)
CCN(CC)CC[NH2+]c1c2ccccc2[n+](C)c2c1ccc1[nH]ccc12 (3D coordinates assigned)
CCN(CC)CC[NH2+]c1c2ccccc2[n+](C)c2c1ccc1[nH]ccc12 (optimized conformer: 124.4427999611022 kcal/mol)

>  <smiles>  (26) 
CCN(CC)CCNc1c2ccccc2[n+](C)c2c1ccc1[nH]ccc12

>  <score_type>  (26) 
oracle

>  <origin>  (26) 
adg

>  <m_score__min__energy>  (26) 
-8.2699999999999996

>  <m_primary>  (26) 
energy

$$$$
26:0
     RDKit          3D

 32 34  0  0  0  0  0  0  0  0999 V2000
   -1.9150   25.6710  -28.9510 O   0  0  0  0  0  0  0  0  0  0  0  0
   -2.6210   24.7010  -29.3340 C   0  0  0  0  0  0  0  0  0  0  0  0
   -3.4860   24.8880  -30.4630 N   0  0  0  0  0  0  0  0  0  0  0  0
   -4.8330   24.4030  -30.5900 C   0  0  0  0  0  0  0  0  0  0  0  0
   -5.9090   25.1130  -30.0270 C   0  0  0  0  0  0  0  0  0  0  0  0
   -7.2110   24.6180  -30.1210 C   0  0  0  0  0  0  0  0  0  0  0  0
   -7.4540   23.4160  -30.7840 C   0  0  0  0  0  0  0  0  0  0  0  0
   -6.3990   22.7130  -31.3680 C   0  0  0  0  0  0  0  0  0  0  0  0
   -5.0840   23.2030  -31.2940 C   0  0  0  0  0  0  0  0  0  0  0  0
   -4.0150   22.4620  -31.9110 N   0  0  0  0  0  0  0  0  0  0  0  0
   -2.8010   22.2020  -31.3830 C   0  0  0  0  0  0  0  0  0  0  0  0
   -2.0350   21.5020  -32.2910 C   0  0  0  0  0  0  0  0  0  0  0  0
   -2.8130   21.3370  -33.4200 C   0  0  0  0  0  0  0  0  0  0  0  0
   -4.0240   21.9450  -33.1570 C   0  0  0  0  0  0  0  0  0  0  0  0
   -2.4960   23.3940  -28.6490 C   0  0  0  0  0  0  0  0  0  0  0  0
   -1.2410   22.7760  -28.5310 C   0  0  0  0  0  0  0  0  0  0  0  0
   -1.1360   21.5410  -27.8870 C   0  0  0  0  0  0  0  0  0  0  0  0
   -2.2450   20.9360  -27.3860 N   0  0  0  0  0  0  0  0  0  0  0  0
   -3.4750   21.5030  -27.4960 C   0  0  0  0  0  0  0  0  0  0  0  0
   -3.6240   22.7370  -28.1320 C   0  0  0  0  0  0  0  0  0  0  0  0
   -5.7231   26.0653  -29.5088 H   0  0  0  0  0  0  0  0  0  0  0  0
   -8.0454   25.1766  -29.6718 H   0  0  0  0  0  0  0  0  0  0  0  0
   -8.4787   23.0210  -30.8470 H   0  0  0  0  0  0  0  0  0  0  0  0
   -6.5989   21.7663  -31.8912 H   0  0  0  0  0  0  0  0  0  0  0  0
   -2.4714   22.5035  -30.3778 H   0  0  0  0  0  0  0  0  0  0  0  0
   -1.0050   21.1447  -32.1446 H   0  0  0  0  0  0  0  0  0  0  0  0
   -2.5240   20.8216  -34.3478 H   0  0  0  0  0  0  0  0  0  0  0  0
   -4.8697   21.9998  -33.8583 H   0  0  0  0  0  0  0  0  0  0  0  0
   -0.3447   23.2620  -28.9437 H   0  0  0  0  0  0  0  0  0  0  0  0
   -0.1535   21.0570  -27.7851 H   0  0  0  0  0  0  0  0  0  0  0  0
   -4.3553   20.9886  -27.0831 H   0  0  0  0  0  0  0  0  0  0  0  0
   -4.6207   23.1924  -28.2276 H   0  0  0  0  0  0  0  0  0  0  0  0
  1  2  2  0
  2  3  1  0
  3  4  1  0
  4  5  2  0
  5  6  1  0
  6  7  2  0
  7  8  1  0
  8  9  2  0
  9 10  1  0
 10 11  1  0
 11 12  2  0
 12 13  1  0
 13 14  2  0
  2 15  1  0
 15 16  2  0
 16 17  1  0
 17 18  2  0
 18 19  1  0
 19 20  2  0
  9  4  1  0
 14 10  1  0
 20 15  1  0
  5 21  1  0
  6 22  1  0
  7 23  1  0
  8 24  1  0
 11 25  1  0
 12 26  1  0
 13 27  1  0
 14 28  1  0
 16 29  1  0
 17 30  1  0
 19 31  1  0
 20 32  1  0
M  CHG  1   3  -1
M  END
>  <UniqueID>  (27) 
27

>  <SMILES>  (27) 
O=C([N-]c1ccccc1-n1cccc1)c1ccncc1

>  <Energy>  (27) 
73.54229219189467

>  <Genealogy>  (27) 
O=C([N-]c1ccccc1-n1cccc1)c1ccncc1 (protonated)
O=C([N-]c1ccccc1-n1cccc1)c1ccncc1 (3D coordinates assigned)
O=C([N-]c1ccccc1-n1cccc1)c1ccncc1 (optimized conformer: 73.54229219189467 kcal/mol)

>  <smiles>  (27) 
O=C(Nc1ccccc1-n1cccc1)c1ccncc1

>  <score_type>  (27) 
oracle

>  <origin>  (27) 
adg

>  <m_score__min__energy>  (27) 
-8.1999999999999993

>  <m_primary>  (27) 
energy

$$$$
27:0
     RDKit          3D

 40 41  0  0  0  0  0  0  0  0999 V2000
   -6.2820   25.6540  -29.5360 C   0  0  0  0  0  0  0  0  0  0  0  0
   -5.3620   25.6600  -30.7510 C   0  0  0  0  0  0  0  0  0  0  0  0
   -4.2390   24.8090  -30.5340 O   0  0  0  0  0  0  0  0  0  0  0  0
   -4.3220   23.5790  -29.8720 C   0  0  0  0  0  0  0  0  0  0  0  0
   -4.4530   23.5320  -28.6180 O   0  0  0  0  0  0  0  0  0  0  0  0
   -4.2240   22.3010  -30.6720 C   0  0  2  0  0  0  0  0  0  0  0  0
   -3.0660   21.4170  -30.1280 C   0  0  0  0  0  0  0  0  0  0  0  0
   -1.8040   21.5580  -30.9780 C   0  0  0  0  0  0  0  0  0  0  0  0
   -2.0770   21.1660  -32.4370 C   0  0  0  0  0  0  0  0  0  0  0  0
   -3.5320   21.4490  -32.8660 C   0  0  0  0  0  0  0  0  0  0  0  0
   -4.0980   22.6060  -32.1310 N   0  0  1  0  0  0  0  0  0  0  0  0
   -5.4220   22.9810  -32.6940 C   0  0  0  0  0  0  0  0  0  0  0  0
   -6.5100   22.0110  -32.2870 C   0  0  0  0  0  0  0  0  0  0  0  0
   -6.4000   20.6480  -32.6110 C   0  0  0  0  0  0  0  0  0  0  0  0
   -7.4120   19.7520  -32.2480 C   0  0  0  0  0  0  0  0  0  0  0  0
   -7.2560   17.9030  -32.6970 Br  0  0  0  0  0  0  0  0  0  0  0  0
   -8.5380   20.2110  -31.5590 C   0  0  0  0  0  0  0  0  0  0  0  0
   -8.6550   21.5650  -31.2320 C   0  0  0  0  0  0  0  0  0  0  0  0
   -7.6470   22.4650  -31.5930 C   0  0  0  0  0  0  0  0  0  0  0  0
   -7.7780   23.7750  -31.2630 F   0  0  0  0  0  0  0  0  0  0  0  0
   -5.6766   25.6579  -28.6176 H   0  0  0  0  0  0  0  0  0  0  0  0
   -6.9226   26.5480  -29.5567 H   0  0  0  0  0  0  0  0  0  0  0  0
   -6.9109   24.7517  -29.5567 H   0  0  0  0  0  0  0  0  0  0  0  0
   -5.9207   25.3044  -31.6293 H   0  0  0  0  0  0  0  0  0  0  0  0
   -5.0024   26.6860  -30.9186 H   0  0  0  0  0  0  0  0  0  0  0  0
   -5.1495   21.7180  -30.5556 H   0  0  0  0  0  0  0  0  0  0  0  0
   -2.8376   21.7229  -29.0964 H   0  0  0  0  0  0  0  0  0  0  0  0
   -3.3893   20.3662  -30.1636 H   0  0  0  0  0  0  0  0  0  0  0  0
   -1.4624   22.6031  -30.9442 H   0  0  0  0  0  0  0  0  0  0  0  0
   -1.0320   20.8870  -30.5733 H   0  0  0  0  0  0  0  0  0  0  0  0
   -1.4002   21.7387  -33.0881 H   0  0  0  0  0  0  0  0  0  0  0  0
   -1.9079   20.0829  -32.5278 H   0  0  0  0  0  0  0  0  0  0  0  0
   -3.5514   21.6659  -33.9442 H   0  0  0  0  0  0  0  0  0  0  0  0
   -4.1396   20.5616  -32.6351 H   0  0  0  0  0  0  0  0  0  0  0  0
   -3.4420   23.4140  -32.2580 H   0  0  0  0  0  0  0  0  0  0  0  0
   -5.6892   23.9852  -32.3332 H   0  0  0  0  0  0  0  0  0  0  0  0
   -5.3419   22.9588  -33.7909 H   0  0  0  0  0  0  0  0  0  0  0  0
   -5.5145   20.2837  -33.1524 H   0  0  0  0  0  0  0  0  0  0  0  0
   -9.3329   19.5061  -31.2738 H   0  0  0  0  0  0  0  0  0  0  0  0
   -9.5421   21.9236  -30.6894 H   0  0  0  0  0  0  0  0  0  0  0  0
  1  2  1  0
  2  3  1  0
  3  4  1  0
  4  5  2  0
  4  6  1  0
  6  7  1  0
  7  8  1  0
  8  9  1  0
  9 10  1  0
 10 11  1  0
 11 12  1  0
 12 13  1  0
 13 14  2  0
 14 15  1  0
 15 16  1  0
 15 17  2  0
 17 18  1  0
 18 19  2  0
 19 20  1  0
 11  6  1  0
 19 13  1  0
  1 21  1  0
  1 22  1  0
  1 23  1  0
  2 24  1  0
  2 25  1  0
  6 26  1  6
  7 27  1  0
  7 28  1  0
  8 29  1  0
  8 30  1  0
  9 31  1  0
  9 32  1  0
 10 33  1  0
 10 34  1  0
 11 35  1  1
 12 36  1  0
 12 37  1  0
 14 38  1  0
 17 39  1  0
 18 40  1  0
M  CHG  1  11   1
M  END
>  <UniqueID>  (28) 
28

>  <SMILES>  (28) 
CCOC(=O)[C@@H]1CCCC[N@H+]1Cc1cc(Br)ccc1F

>  <Energy>  (28) 
42.040998580189054

>  <Genealogy>  (28) 
CCOC(=O)C1CCCC[NH+]1Cc1cc(Br)ccc1F (protonated)
CCOC(=O)[C@@H]1CCCC[N@H+]1Cc1cc(Br)ccc1F (chirality)
CCOC(=O)[C@@H]1CCCC[N@H+]1Cc1cc(Br)ccc1F (3D coordinates assigned)
CCOC(=O)[C@@H]1CCCC[N@H+]1Cc1cc(Br)ccc1F (nonaromatic ring conformer: 42.040998580189054 kcal/mol)

>  <smiles>  (28) 
CCOC(=O)C1CCCCN1Cc1cc(Br)ccc1F

>  <score_type>  (28) 
oracle

>  <origin>  (28) 
adg

>  <m_score__min__energy>  (28) 
-6.8200000000000003

>  <m_primary>  (28) 
energy

$$$$
28:0
     RDKit          3D

 63 66  0  0  0  0  0  0  0  0999 V2000
   -6.5080   25.7920  -29.1480 C   0  0  0  0  0  0  0  0  0  0  0  0
   -6.0770   25.3850  -30.4430 O   0  0  0  0  0  0  0  0  0  0  0  0
   -6.1660   24.0740  -30.9350 C   0  0  0  0  0  0  0  0  0  0  0  0
   -7.4030   23.4540  -31.1890 C   0  0  0  0  0  0  0  0  0  0  0  0
   -7.4590   22.1440  -31.6850 C   0  0  0  0  0  0  0  0  0  0  0  0
   -6.2620   21.4310  -31.9020 C   0  0  0  0  0  0  0  0  0  0  0  0
   -5.0290   22.0540  -31.6640 C   0  0  0  0  0  0  0  0  0  0  0  0
   -4.9740   23.3710  -31.1730 C   0  0  0  0  0  0  0  0  0  0  0  0
   -3.7560   24.0180  -30.9090 O   0  0  0  0  0  0  0  0  0  0  0  0
   -2.8940   23.7050  -29.8210 C   0  0  0  0  0  0  0  0  0  0  0  0
   -6.2930   20.0390  -32.4880 C   0  0  0  0  0  0  0  0  0  0  0  0
   -7.5910   19.3890  -32.2310 N   0  0  0  0  0  0  0  0  0  0  0  0
   -7.6400   17.9870  -32.7050 C   0  0  0  0  0  0  0  0  0  0  0  0
   -6.4930   17.0960  -32.1880 C   0  0  0  0  0  0  0  0  0  0  0  0
   -5.3250   17.2450  -33.0490 N   0  0  0  0  0  0  0  0  0  0  0  0
   -4.0540   16.9180  -32.7500 C   0  0  0  0  0  0  0  0  0  0  0  0
   -3.3100   17.1880  -33.8790 C   0  0  0  0  0  0  0  0  0  0  0  0
   -1.8500   16.9490  -34.0760 C   0  0  0  0  0  0  0  0  0  0  0  0
   -1.1330   18.1210  -33.7040 O   0  0  0  0  0  0  0  0  0  0  0  0
   -0.9760   18.6320  -32.4030 C   0  0  0  0  0  0  0  0  0  0  0  0
   -1.5770   19.8710  -32.1270 C   0  0  0  0  0  0  0  0  0  0  0  0
   -2.5480   20.8060  -33.4890 Br  0  0  0  0  0  0  0  0  0  0  0  0
   -1.4690   20.4540  -30.8630 C   0  0  0  0  0  0  0  0  0  0  0  0
   -0.7680   19.8020  -29.8430 C   0  0  0  0  0  0  0  0  0  0  0  0
   -0.6250   20.4450  -28.4950 C   0  0  0  0  0  0  0  0  0  0  0  0
   -1.9870   19.7690  -27.2970 Br  0  0  0  0  0  0  0  0  0  0  0  0
   -0.1510   18.5720  -30.1070 C   0  0  0  0  0  0  0  0  0  0  0  0
   -0.2500   17.9690  -31.3770 C   0  0  0  0  0  0  0  0  0  0  0  0
    0.3570   16.7300  -31.6350 O   0  0  0  0  0  0  0  0  0  0  0  0
    0.6560   15.7450  -30.6490 C   0  0  0  0  0  0  0  0  0  0  0  0
   -4.1520   17.6470  -34.8220 N   0  0  0  0  0  0  0  0  0  0  0  0
   -5.3690   17.6750  -34.3020 N   0  0  0  0  0  0  0  0  0  0  0  0
   -8.7030   20.2160  -32.7250 C   0  0  0  0  0  0  0  0  0  0  0  0
   -8.8040   21.4870  -31.8790 C   0  0  0  0  0  0  0  0  0  0  0  0
   -5.9333   25.2493  -28.3829 H   0  0  0  0  0  0  0  0  0  0  0  0
   -6.3451   26.8735  -29.0304 H   0  0  0  0  0  0  0  0  0  0  0  0
   -7.5784   25.5675  -29.0304 H   0  0  0  0  0  0  0  0  0  0  0  0
   -8.3365   24.0031  -30.9963 H   0  0  0  0  0  0  0  0  0  0  0  0
   -4.0953   21.5076  -31.8632 H   0  0  0  0  0  0  0  0  0  0  0  0
   -3.4172   23.8950  -28.8723 H   0  0  0  0  0  0  0  0  0  0  0  0
   -2.6057   22.6448  -29.8748 H   0  0  0  0  0  0  0  0  0  0  0  0
   -1.9927   24.3332  -29.8748 H   0  0  0  0  0  0  0  0  0  0  0  0
   -6.1304   20.1017  -33.5741 H   0  0  0  0  0  0  0  0  0  0  0  0
   -5.5004   19.4407  -32.0148 H   0  0  0  0  0  0  0  0  0  0  0  0
   -8.5925   17.5462  -32.3756 H   0  0  0  0  0  0  0  0  0  0  0  0
   -7.5382   18.0235  -33.7997 H   0  0  0  0  0  0  0  0  0  0  0  0
   -6.2314   17.3960  -31.1625 H   0  0  0  0  0  0  0  0  0  0  0  0
   -6.8179   16.0451  -32.1953 H   0  0  0  0  0  0  0  0  0  0  0  0
   -3.6830   16.5158  -31.7957 H   0  0  0  0  0  0  0  0  0  0  0  0
   -1.5269   16.1048  -33.4492 H   0  0  0  0  0  0  0  0  0  0  0  0
   -1.6519   16.7122  -35.1318 H   0  0  0  0  0  0  0  0  0  0  0  0
   -1.9371   21.4302  -30.6684 H   0  0  0  0  0  0  0  0  0  0  0  0
    0.3692   20.2148  -28.0844 H   0  0  0  0  0  0  0  0  0  0  0  0
   -0.7407   21.5340  -28.5984 H   0  0  0  0  0  0  0  0  0  0  0  0
    0.4189   18.0697  -29.3115 H   0  0  0  0  0  0  0  0  0  0  0  0
    0.5245   16.1781  -29.6464 H   0  0  0  0  0  0  0  0  0  0  0  0
   -0.0223   14.8875  -30.7698 H   0  0  0  0  0  0  0  0  0  0  0  0
    1.6965   15.4093  -30.7698 H   0  0  0  0  0  0  0  0  0  0  0  0
   -3.9170   17.9230  -35.8020 H   0  0  0  0  0  0  0  0  0  0  0  0
   -8.5205   20.4874  -33.7752 H   0  0  0  0  0  0  0  0  0  0  0  0
   -9.6433   19.6498  -32.6524 H   0  0  0  0  0  0  0  0  0  0  0  0
   -9.4768   22.1967  -32.3827 H   0  0  0  0  0  0  0  0  0  0  0  0
   -9.1918   21.2066  -30.8885 H   0  0  0  0  0  0  0  0  0  0  0  0
  1  2  1  0
  2  3  1  0
  3  4  2  0
  4  5  1  0
  5  6  2  0
  6  7  1  0
  7  8  2  0
  8  9  1  0
  9 10  1  0
  6 11  1  0
 11 12  1  0
 12 13  1  0
 13 14  1  0
 14 15  1  0
 15 16  1  0
 16 17  2  0
 17 18  1  0
 18 19  1  0
 19 20  1  0
 20 21  2  0
 21 22  1  0
 21 23  1  0
 23 24  2  0
 24 25  1  0
 25 26  1  0
 24 27  1  0
 27 28  2  0
 28 29  1  0
 29 30  1  0
 17 31  1  0
 31 32  2  0
 12 33  1  0
 33 34  1  0
  8  3  1  0
 32 15  1  0
 34  5  1  0
 28 20  1  0
  1 35  1  0
  1 36  1  0
  1 37  1  0
  4 38  1  0
  7 39  1  0
 10 40  1  0
 10 41  1  0
 10 42  1  0
 11 43  1  0
 11 44  1  0
 13 45  1  0
 13 46  1  0
 14 47  1  0
 14 48  1  0
 16 49  1  0
 18 50  1  0
 18 51  1  0
 23 52  1  0
 25 53  1  0
 25 54  1  0
 27 55  1  0
 30 56  1  0
 30 57  1  0
 30 58  1  0
 31 59  1  0
 33 60  1  0
 33 61  1  0
 34 62  1  0
 34 63  1  0
M  CHG  1  31   1
M  END
>  <UniqueID>  (29) 
29

>  <SMILES>  (29) 
COc1cc2c(cc1OC)CN(CCn1cc(COc3c(Br)cc(CBr)cc3OC)[nH+]n1)CC2

>  <Energy>  (29) 
104.59482177828376

>  <Genealogy>  (29) 
COc1cc2c(cc1OC)CN(CCn1cc(COc3c(Br)cc(CBr)cc3OC)[nH+]n1)CC2 (protonated)
COc1cc2c(cc1OC)CN(CCn1cc(COc3c(Br)cc(CBr)cc3OC)[nH+]n1)CC2 (3D coordinates assigned)
COc1cc2c(cc1OC)CN(CCn1cc(COc3c(Br)cc(CBr)cc3OC)[nH+]n1)CC2 (nonaromatic ring conformer: 104.59482177828376 kcal/mol)

>  <smiles>  (29) 
COc1cc2c(cc1OC)CN(CCn1cc(COc3c(Br)cc(CBr)cc3OC)nn1)CC2

>  <score_type>  (29) 
oracle

>  <origin>  (29) 
adg

>  <m_score__min__energy>  (29) 
-10.43

>  <m_primary>  (29) 
energy

$$$$
29:0
     RDKit          3D

 61 64  0  0  0  0  0  0  0  0999 V2000
    0.1700   18.2480  -28.0700 C   0  0  0  0  0  0  0  0  0  0  0  0
   -1.1120   18.8140  -27.8190 O   0  0  0  0  0  0  0  0  0  0  0  0
   -1.4680   20.1360  -28.1210 C   0  0  0  0  0  0  0  0  0  0  0  0
   -1.6130   21.1220  -27.1310 C   0  0  0  0  0  0  0  0  0  0  0  0
   -1.9720   22.4240  -27.4800 C   0  0  0  0  0  0  0  0  0  0  0  0
   -2.2100   22.7670  -28.8210 C   0  0  0  0  0  0  0  0  0  0  0  0
   -2.6200   24.1870  -29.1750 C   0  0  0  0  0  0  0  0  0  0  0  0
   -4.0860   24.3990  -29.2150 N   0  0  0  0  0  0  0  0  0  0  0  0
   -4.5510   25.1420  -30.4080 C   0  0  0  0  0  0  0  0  0  0  0  0
   -6.0760   25.0670  -30.5260 C   0  0  0  0  0  0  0  0  0  0  0  0
   -6.5570   23.6650  -30.6880 N   0  0  0  0  0  0  0  0  0  0  0  0
   -7.0050   23.3400  -32.0740 C   0  0  0  0  0  0  0  0  0  0  0  0
   -7.6970   21.9840  -32.2400 C   0  0  0  0  0  0  0  0  0  0  0  0
   -9.0790   21.9290  -31.9700 C   0  0  0  0  0  0  0  0  0  0  0  0
   -9.7720   20.7220  -31.9880 C   0  0  0  0  0  0  0  0  0  0  0  0
   -9.1100   19.5390  -32.2920 C   0  0  0  0  0  0  0  0  0  0  0  0
   -7.7480   19.5570  -32.6190 C   0  0  0  0  0  0  0  0  0  0  0  0
   -7.1010   18.3550  -32.9450 C   0  0  0  0  0  0  0  0  0  0  0  0
   -5.7590   18.3470  -33.3270 C   0  0  0  0  0  0  0  0  0  0  0  0
   -5.1590   17.1140  -33.6210 O   0  0  0  0  0  0  0  0  0  0  0  0
   -5.2700   15.9500  -32.8080 C   0  0  0  0  0  0  0  0  0  0  0  0
   -5.0640   19.5630  -33.4110 C   0  0  0  0  0  0  0  0  0  0  0  0
   -5.6960   20.7660  -33.0890 C   0  0  0  0  0  0  0  0  0  0  0  0
   -7.0320   20.7860  -32.6400 C   0  0  0  0  0  0  0  0  0  0  0  0
   -5.6330   22.6510  -30.1080 C   0  0  0  0  0  0  0  0  0  0  0  0
   -4.8940   23.2000  -28.8780 C   0  0  0  0  0  0  0  0  0  0  0  0
   -2.0510   21.7850  -29.8250 C   0  0  0  0  0  0  0  0  0  0  0  0
   -2.2690   22.1410  -31.1670 O   0  0  0  0  0  0  0  0  0  0  0  0
   -2.2450   21.2310  -32.2620 C   0  0  0  0  0  0  0  0  0  0  0  0
   -1.6850   20.4760  -29.4600 C   0  0  0  0  0  0  0  0  0  0  0  0
    0.6674   18.0284  -27.1138 H   0  0  0  0  0  0  0  0  0  0  0  0
    0.0538   17.3175  -28.6451 H   0  0  0  0  0  0  0  0  0  0  0  0
    0.7793   18.9608  -28.6451 H   0  0  0  0  0  0  0  0  0  0  0  0
   -1.4425   20.8660  -26.0749 H   0  0  0  0  0  0  0  0  0  0  0  0
   -2.0697   23.1901  -26.6967 H   0  0  0  0  0  0  0  0  0  0  0  0
   -2.1925   24.8678  -28.4242 H   0  0  0  0  0  0  0  0  0  0  0  0
   -2.2423   24.3837  -30.1892 H   0  0  0  0  0  0  0  0  0  0  0  0
   -4.2461   26.1952  -30.3200 H   0  0  0  0  0  0  0  0  0  0  0  0
   -4.1022   24.6909  -31.3053 H   0  0  0  0  0  0  0  0  0  0  0  0
   -6.5237   25.4928  -29.6159 H   0  0  0  0  0  0  0  0  0  0  0  0
   -6.3752   25.6336  -31.4202 H   0  0  0  0  0  0  0  0  0  0  0  0
   -7.4300   23.6070  -30.1080 H   0  0  0  0  0  0  0  0  0  0  0  0
   -7.7091   24.1218  -32.3951 H   0  0  0  0  0  0  0  0  0  0  0  0
   -6.0910   23.2903  -32.6840 H   0  0  0  0  0  0  0  0  0  0  0  0
   -9.6208   22.8584  -31.7405 H   0  0  0  0  0  0  0  0  0  0  0  0
  -10.8481   20.7047  -31.7606 H   0  0  0  0  0  0  0  0  0  0  0  0
   -9.6572   18.5849  -32.2759 H   0  0  0  0  0  0  0  0  0  0  0  0
   -7.6585   17.4079  -32.8988 H   0  0  0  0  0  0  0  0  0  0  0  0
   -5.2424   16.2397  -31.7472 H   0  0  0  0  0  0  0  0  0  0  0  0
   -6.2208   15.4409  -33.0244 H   0  0  0  0  0  0  0  0  0  0  0  0
   -4.4326   15.2704  -33.0244 H   0  0  0  0  0  0  0  0  0  0  0  0
   -4.0123   19.5688  -33.7333 H   0  0  0  0  0  0  0  0  0  0  0  0
   -5.1431   21.7119  -33.1872 H   0  0  0  0  0  0  0  0  0  0  0  0
   -6.2149   21.7664  -29.8099 H   0  0  0  0  0  0  0  0  0  0  0  0
   -4.8853   22.3893  -30.8712 H   0  0  0  0  0  0  0  0  0  0  0  0
   -5.6328   23.4720  -28.1098 H   0  0  0  0  0  0  0  0  0  0  0  0
   -4.2128   22.4190  -28.5094 H   0  0  0  0  0  0  0  0  0  0  0  0
   -2.2178   20.1995  -31.8810 H   0  0  0  0  0  0  0  0  0  0  0  0
   -3.1472   21.3716  -32.8755 H   0  0  0  0  0  0  0  0  0  0  0  0
   -1.3515   21.4190  -32.8755 H   0  0  0  0  0  0  0  0  0  0  0  0
   -1.5679   19.7089  -30.2396 H   0  0  0  0  0  0  0  0  0  0  0  0
  1  2  1  0
  2  3  1  0
  3  4  2  0
  4  5  1  0
  5  6  2  0
  6  7  1  0
  7  8  1  0
  8  9  1  0
  9 10  1  0
 10 11  1  0
 11 12  1  0
 12 13  1  0
 13 14  2  0
 14 15  1  0
 15 16  2  0
 16 17  1  0
 17 18  2  0
 18 19  1  0
 19 20  1  0
 20 21  1  0
 19 22  2  0
 22 23  1  0
 23 24  2  0
 11 25  1  0
 25 26  1  0
  6 27  1  0
 27 28  1  0
 28 29  1  0
 27 30  2  0
 30  3  1  0
 26  8  1  0
 24 13  1  0
 24 17  1  0
  1 31  1  0
  1 32  1  0
  1 33  1  0
  4 34  1  0
  5 35  1  0
  7 36  1  0
  7 37  1  0
  9 38  1  0
  9 39  1  0
 10 40  1  0
 10 41  1  0
 11 42  1  0
 12 43  1  0
 12 44  1  0
 14 45  1  0
 15 46  1  0
 16 47  1  0
 18 48  1  0
 21 49  1  0
 21 50  1  0
 21 51  1  0
 22 52  1  0
 23 53  1  0
 25 54  1  0
 25 55  1  0
 26 56  1  0
 26 57  1  0
 29 58  1  0
 29 59  1  0
 29 60  1  0
 30 61  1  0
M  CHG  1  11   1
M  END
>  <UniqueID>  (30) 
30

>  <SMILES>  (30) 
COc1ccc(CN2CC[NH+](Cc3cccc4cc(OC)ccc34)CC2)c(OC)c1

>  <Energy>  (30) 
85.15142167778755

>  <Genealogy>  (30) 
COc1ccc(CN2CC[NH+](Cc3cccc4cc(OC)ccc34)CC2)c(OC)c1 (protonated)
COc1ccc(CN2CC[NH+](Cc3cccc4cc(OC)ccc34)CC2)c(OC)c1 (3D coordinates assigned)
COc1ccc(CN2CC[NH+](Cc3cccc4cc(OC)ccc34)CC2)c(OC)c1 (nonaromatic ring conformer: 85.15142167778755 kcal/mol)

>  <smiles>  (30) 
COc1ccc(CN2CCN(Cc3cccc4cc(OC)ccc34)CC2)c(OC)c1

>  <score_type>  (30) 
oracle

>  <origin>  (30) 
adg

>  <m_score__min__energy>  (30) 
-8.3900000000000006

>  <m_primary>  (30) 
energy

$$$$
30:0
     RDKit          3D

 43 45  0  0  0  0  0  0  0  0999 V2000
   -0.4790   25.4950  -24.2530 C   0  0  0  0  0  0  0  0  0  0  0  0
   -0.8560   26.5050  -25.3310 C   0  0  0  0  0  0  0  0  0  0  0  0
   -1.3380   25.8120  -26.5370 N   0  0  0  0  0  0  0  0  0  0  0  0
   -0.4890   25.6770  -27.6160 C   0  0  0  0  0  0  0  0  0  0  0  0
   -0.8860   25.0170  -28.7440 N   0  0  0  0  0  0  0  0  0  0  0  0
   -2.1320   24.4940  -28.7790 C   0  0  0  0  0  0  0  0  0  0  0  0
   -2.7510   23.7880  -29.7820 C   0  0  0  0  0  0  0  0  0  0  0  0
   -4.0190   23.4880  -29.2670 C   0  0  0  0  0  0  0  0  0  0  0  0
   -5.0780   22.7290  -29.9790 C   0  0  0  0  0  0  0  0  0  0  0  0
   -4.7450   21.6870  -30.8570 C   0  0  0  0  0  0  0  0  0  0  0  0
   -5.7410   20.9720  -31.5250 C   0  0  0  0  0  0  0  0  0  0  0  0
   -7.1080   21.2740  -31.3400 C   0  0  0  0  0  0  0  0  0  0  0  0
   -8.1780   20.4600  -32.0970 C   0  0  0  0  0  0  0  0  0  0  0  0
   -7.6270   20.0460  -33.4790 C   0  0  0  0  0  0  0  0  0  0  0  0
   -8.5980   19.1690  -31.3540 C   0  0  0  0  0  0  0  0  0  0  0  0
   -9.4430   21.3250  -32.2870 C   0  0  0  0  0  0  0  0  0  0  0  0
   -7.4320   22.3280  -30.4550 C   0  0  0  0  0  0  0  0  0  0  0  0
   -6.4320   23.0400  -29.7860 C   0  0  0  0  0  0  0  0  0  0  0  0
   -4.1550   23.9900  -28.0100 N   0  0  0  0  0  0  0  0  0  0  0  0
   -2.9900   24.5980  -27.7350 C   0  0  0  0  0  0  0  0  0  0  0  0
   -2.6010   25.2610  -26.5780 C   0  0  0  0  0  0  0  0  0  0  0  0
   -3.3890   25.3490  -25.5980 O   0  0  0  0  0  0  0  0  0  0  0  0
   -0.6448   25.9391  -23.2604 H   0  0  0  0  0  0  0  0  0  0  0  0
   -1.1015   24.5945  -24.3604 H   0  0  0  0  0  0  0  0  0  0  0  0
    0.5813   25.2227  -24.3604 H   0  0  0  0  0  0  0  0  0  0  0  0
   -1.6504   27.1632  -24.9492 H   0  0  0  0  0  0  0  0  0  0  0  0
    0.0332   27.0979  -25.5914 H   0  0  0  0  0  0  0  0  0  0  0  0
    0.5223   26.1071  -27.5672 H   0  0  0  0  0  0  0  0  0  0  0  0
   -2.3430   23.5189  -30.7674 H   0  0  0  0  0  0  0  0  0  0  0  0
   -3.6880   21.4304  -31.0210 H   0  0  0  0  0  0  0  0  0  0  0  0
   -5.4556   20.1584  -32.2080 H   0  0  0  0  0  0  0  0  0  0  0  0
   -6.7542   19.3902  -33.3443 H   0  0  0  0  0  0  0  0  0  0  0  0
   -8.4067   19.5084  -34.0385 H   0  0  0  0  0  0  0  0  0  0  0  0
   -7.3277   20.9445  -34.0385 H   0  0  0  0  0  0  0  0  0  0  0  0
   -8.5435   19.3366  -30.2682 H   0  0  0  0  0  0  0  0  0  0  0  0
   -9.6286   18.9043  -31.6328 H   0  0  0  0  0  0  0  0  0  0  0  0
   -7.9204   18.3485  -31.6328 H   0  0  0  0  0  0  0  0  0  0  0  0
   -9.8487   21.6024  -31.3029 H   0  0  0  0  0  0  0  0  0  0  0  0
   -9.1837   22.2358  -32.8467 H   0  0  0  0  0  0  0  0  0  0  0  0
  -10.1977   20.7530  -32.8467 H   0  0  0  0  0  0  0  0  0  0  0  0
   -8.4871   22.5918  -30.2903 H   0  0  0  0  0  0  0  0  0  0  0  0
   -6.7104   23.8537  -29.1002 H   0  0  0  0  0  0  0  0  0  0  0  0
   -4.9760   23.9040  -27.3710 H   0  0  0  0  0  0  0  0  0  0  0  0
  1  2  1  0
  2  3  1  0
  3  4  1  0
  4  5  2  0
  5  6  1  0
  6  7  1  0
  7  8  2  0
  8  9  1  0
  9 10  2  0
 10 11  1  0
 11 12  2  0
 12 13  1  0
 13 14  1  0
 13 15  1  0
 13 16  1  0
 12 17  1  0
 17 18  2  0
  8 19  1  0
 19 20  1  0
 20 21  1  0
 21 22  2  0
 21  3  1  0
 20  6  2  0
 18  9  1  0
  1 23  1  0
  1 24  1  0
  1 25  1  0
  2 26  1  0
  2 27  1  0
  4 28  1  0
  7 29  1  0
 10 30  1  0
 11 31  1  0
 14 32  1  0
 14 33  1  0
 14 34  1  0
 15 35  1  0
 15 36  1  0
 15 37  1  0
 16 38  1  0
 16 39  1  0
 16 40  1  0
 17 41  1  0
 18 42  1  0
 19 43  1  0
M  END
>  <UniqueID>  (31) 
31

>  <SMILES>  (31) 
CCn1cnc2cc(-c3ccc(C(C)(C)C)cc3)[nH]c2c1=O

>  <Energy>  (31) 
83.61333401773442

>  <Genealogy>  (31) 
CCn1cnc2cc(-c3ccc(C(C)(C)C)cc3)[nH]c2c1=O (3D coordinates assigned)
CCn1cnc2cc(-c3ccc(C(C)(C)C)cc3)[nH]c2c1=O (optimized conformer: 83.61333401773442 kcal/mol)

>  <smiles>  (31) 
CCn1cnc2cc(-c3ccc(C(C)(C)C)cc3)[nH]c2c1=O

>  <score_type>  (31) 
oracle

>  <origin>  (31) 
adg

>  <m_score__min__energy>  (31) 
-7.4199999999999999

>  <m_primary>  (31) 
energy

$$$$
31:0
     RDKit          3D

 34 35  0  0  0  0  0  0  0  0999 V2000
   -6.5380   25.3330  -29.6640 C   0  0  0  0  0  0  0  0  0  0  0  0
   -5.3850   25.9210  -30.4690 C   0  0  0  0  0  0  0  0  0  0  0  0
   -4.4800   24.8970  -30.8730 O   0  0  0  0  0  0  0  0  0  0  0  0
   -4.8770   23.5850  -31.1570 C   0  0  0  0  0  0  0  0  0  0  0  0
   -4.4520   22.6180  -30.4670 O   0  0  0  0  0  0  0  0  0  0  0  0
   -5.8200   23.3330  -32.2900 C   0  0  0  0  0  0  0  0  0  0  0  0
   -6.7090   22.2180  -31.9670 N   0  0  0  0  0  0  0  0  0  0  0  0
   -7.8740   22.2960  -31.2750 C   0  0  0  0  0  0  0  0  0  0  0  0
   -8.5140   21.1040  -31.2060 N   0  0  0  0  0  0  0  0  0  0  0  0
   -7.7160   20.2610  -31.8880 C   0  0  0  0  0  0  0  0  0  0  0  0
   -6.6330   20.9270  -32.3550 C   0  0  0  0  0  0  0  0  0  0  0  0
   -5.6910   20.2690  -33.1370 C   0  0  0  0  0  0  0  0  0  0  0  0
   -4.6940   20.8880  -33.5990 O   0  0  0  0  0  0  0  0  0  0  0  0
   -5.8820   18.9320  -33.4010 N   0  0  0  0  0  0  0  0  0  0  0  0
   -4.9220   18.2100  -34.2530 C   0  0  0  0  0  0  0  0  0  0  0  0
   -7.0140   18.2810  -32.9350 C   0  0  0  0  0  0  0  0  0  0  0  0
   -7.2080   17.0700  -33.2390 O   0  0  0  0  0  0  0  0  0  0  0  0
   -7.9360   18.9440  -32.1500 N   0  0  0  0  0  0  0  0  0  0  0  0
   -9.1510   18.2850  -31.6480 C   0  0  0  0  0  0  0  0  0  0  0  0
   -6.3274   25.4404  -28.5897 H   0  0  0  0  0  0  0  0  0  0  0  0
   -7.4674   25.8672  -29.9107 H   0  0  0  0  0  0  0  0  0  0  0  0
   -6.6513   24.2670  -29.9107 H   0  0  0  0  0  0  0  0  0  0  0  0
   -5.7865   26.4214  -31.3625 H   0  0  0  0  0  0  0  0  0  0  0  0
   -4.8447   26.6424  -29.8384 H   0  0  0  0  0  0  0  0  0  0  0  0
   -6.4209   24.2365  -32.4707 H   0  0  0  0  0  0  0  0  0  0  0  0
   -5.2407   23.0816  -33.1907 H   0  0  0  0  0  0  0  0  0  0  0  0
   -8.2555   23.2226  -30.8213 H   0  0  0  0  0  0  0  0  0  0  0  0
   -9.4320   20.9070  -30.7480 H   0  0  0  0  0  0  0  0  0  0  0  0
   -4.2035   17.6696  -33.6192 H   0  0  0  0  0  0  0  0  0  0  0  0
   -5.4626   17.4928  -34.8881 H   0  0  0  0  0  0  0  0  0  0  0  0
   -4.3829   18.9284  -34.8881 H   0  0  0  0  0  0  0  0  0  0  0  0
   -9.1427   18.2895  -30.5480 H   0  0  0  0  0  0  0  0  0  0  0  0
  -10.0378   18.8258  -32.0102 H   0  0  0  0  0  0  0  0  0  0  0  0
   -9.1813   17.2468  -32.0102 H   0  0  0  0  0  0  0  0  0  0  0  0
  1  2  1  0
  2  3  1  0
  3  4  1  0
  4  5  2  0
  4  6  1  0
  6  7  1  0
  7  8  1  0
  8  9  2  0
  9 10  1  0
 10 11  2  0
 11 12  1  0
 12 13  2  0
 12 14  1  0
 14 15  1  0
 14 16  1  0
 16 17  2  0
 16 18  1  0
 18 19  1  0
 11  7  1  0
 18 10  1  0
  1 20  1  0
  1 21  1  0
  1 22  1  0
  2 23  1  0
  2 24  1  0
  6 25  1  0
  6 26  1  0
  8 27  1  0
  9 28  1  0
 15 29  1  0
 15 30  1  0
 15 31  1  0
 19 32  1  0
 19 33  1  0
 19 34  1  0
M  CHG  1   9   1
M  END
>  <UniqueID>  (32) 
32

>  <SMILES>  (32) 
CCOC(=O)Cn1c[nH+]c2c1c(=O)n(C)c(=O)n2C

>  <Energy>  (32) 
75.48821477218597

>  <Genealogy>  (32) 
CCOC(=O)Cn1c[nH+]c2c1c(=O)n(C)c(=O)n2C (protonated)
CCOC(=O)Cn1c[nH+]c2c1c(=O)n(C)c(=O)n2C (3D coordinates assigned)
CCOC(=O)Cn1c[nH+]c2c1c(=O)n(C)c(=O)n2C (optimized conformer: 75.48821477218597 kcal/mol)

>  <smiles>  (32) 
CCOC(=O)Cn1cnc2c1c(=O)n(C)c(=O)n2C

>  <score_type>  (32) 
oracle

>  <origin>  (32) 
adg

>  <m_score__min__energy>  (32) 
-5.7400000000000002

>  <m_primary>  (32) 
energy

$$$$
32:0
     RDKit          3D

 40 43  0  0  0  0  0  0  0  0999 V2000
   -4.0090   24.9170  -29.9250 C   0  0  0  0  0  0  0  0  0  0  0  0
   -3.5040   23.6290  -29.7310 C   0  0  0  0  0  0  0  0  0  0  0  0
   -4.0810   22.5420  -30.3960 C   0  0  0  0  0  0  0  0  0  0  0  0
   -5.1590   22.7420  -31.2750 C   0  0  0  0  0  0  0  0  0  0  0  0
   -5.7980   21.6010  -31.9610 C   0  0  0  0  0  0  0  0  0  0  0  0
   -4.9950   20.7340  -32.6290 N   0  0  0  0  0  0  0  0  0  0  0  0
   -5.4840   19.6670  -33.3140 C   0  0  0  0  0  0  0  0  0  0  0  0
   -4.5710   18.7840  -34.0010 N   0  0  0  0  0  0  0  0  0  0  0  0
   -5.0650   17.7920  -34.9620 C   0  0  0  0  0  0  0  0  0  0  0  0
   -4.0920   16.6120  -35.0540 C   0  0  0  0  0  0  0  0  0  0  0  0
   -2.7730   17.0660  -35.2870 O   0  0  0  0  0  0  0  0  0  0  0  0
   -2.3210   17.7980  -34.1660 C   0  0  0  0  0  0  0  0  0  0  0  0
   -3.1330   19.0850  -33.9910 C   0  0  0  0  0  0  0  0  0  0  0  0
   -6.8320   19.4540  -33.3520 N   0  0  0  0  0  0  0  0  0  0  0  0
   -7.6910   20.2760  -32.6870 C   0  0  0  0  0  0  0  0  0  0  0  0
   -9.0730   20.0270  -32.7180 C   0  0  0  0  0  0  0  0  0  0  0  0
   -9.9530   20.8480  -32.0120 C   0  0  0  0  0  0  0  0  0  0  0  0
   -9.4650   21.9170  -31.2620 C   0  0  0  0  0  0  0  0  0  0  0  0
   -8.0930   22.1830  -31.2240 C   0  0  0  0  0  0  0  0  0  0  0  0
   -7.1930   21.3790  -31.9530 C   0  0  0  0  0  0  0  0  0  0  0  0
   -5.6750   24.0370  -31.4470 C   0  0  0  0  0  0  0  0  0  0  0  0
   -5.0960   25.1210  -30.7800 C   0  0  0  0  0  0  0  0  0  0  0  0
   -3.5510   25.7711  -29.4047 H   0  0  0  0  0  0  0  0  0  0  0  0
   -2.6515   23.4694  -29.0544 H   0  0  0  0  0  0  0  0  0  0  0  0
   -3.6896   21.5274  -30.2303 H   0  0  0  0  0  0  0  0  0  0  0  0
   -6.0490   17.4265  -34.6331 H   0  0  0  0  0  0  0  0  0  0  0  0
   -5.1506   18.2638  -35.9520 H   0  0  0  0  0  0  0  0  0  0  0  0
   -4.1180   16.0486  -34.1096 H   0  0  0  0  0  0  0  0  0  0  0  0
   -4.3966   15.9682  -35.8923 H   0  0  0  0  0  0  0  0  0  0  0  0
   -2.4291   17.1783  -33.2636 H   0  0  0  0  0  0  0  0  0  0  0  0
   -1.2659   18.0664  -34.3232 H   0  0  0  0  0  0  0  0  0  0  0  0
   -2.8669   19.5548  -33.0326 H   0  0  0  0  0  0  0  0  0  0  0  0
   -2.9041   19.7691  -34.8214 H   0  0  0  0  0  0  0  0  0  0  0  0
   -7.2180   18.6560  -33.9040 H   0  0  0  0  0  0  0  0  0  0  0  0
   -9.4635   19.1805  -33.3018 H   0  0  0  0  0  0  0  0  0  0  0  0
  -11.0347   20.6512  -32.0473 H   0  0  0  0  0  0  0  0  0  0  0  0
  -10.1623   22.5538  -30.6978 H   0  0  0  0  0  0  0  0  0  0  0  0
   -7.7142   23.0228  -30.6230 H   0  0  0  0  0  0  0  0  0  0  0  0
   -6.5382   24.1991  -32.1092 H   0  0  0  0  0  0  0  0  0  0  0  0
   -5.4961   26.1349  -30.9282 H   0  0  0  0  0  0  0  0  0  0  0  0
  1  2  2  0
  2  3  1  0
  3  4  2  0
  4  5  1  0
  5  6  2  0
  6  7  1  0
  7  8  1  0
  8  9  1  0
  9 10  1  0
 10 11  1  0
 11 12  1  0
 12 13  1  0
  7 14  2  0
 14 15  1  0
 15 16  2  0
 16 17  1  0
 17 18  2  0
 18 19  1  0
 19 20  2  0
  4 21  1  0
 21 22  2  0
 22  1  1  0
 20  5  1  0
 13  8  1  0
 20 15  1  0
  1 23  1  0
  2 24  1  0
  3 25  1  0
  9 26  1  0
  9 27  1  0
 10 28  1  0
 10 29  1  0
 12 30  1  0
 12 31  1  0
 13 32  1  0
 13 33  1  0
 14 34  1  0
 16 35  1  0
 17 36  1  0
 18 37  1  0
 19 38  1  0
 21 39  1  0
 22 40  1  0
M  CHG  1  14   1
M  END
>  <UniqueID>  (33) 
33

>  <SMILES>  (33) 
c1ccc(-c2nc(N3CCOCC3)[nH+]c3ccccc23)cc1

>  <Energy>  (33) 
58.717456714691004

>  <Genealogy>  (33) 
c1ccc(-c2nc(N3CCOCC3)[nH+]c3ccccc23)cc1 (protonated)
c1ccc(-c2nc(N3CCOCC3)[nH+]c3ccccc23)cc1 (3D coordinates assigned)
c1ccc(-c2nc(N3CCOCC3)[nH+]c3ccccc23)cc1 (nonaromatic ring conformer: 58.717456714691004 kcal/mol)

>  <smiles>  (33) 
c1ccc(-c2nc(N3CCOCC3)nc3ccccc23)cc1

>  <score_type>  (33) 
oracle

>  <origin>  (33) 
adg

>  <m_score__min__energy>  (33) 
-7.4199999999999999

>  <m_primary>  (33) 
energy

$$$$
33:0
     RDKit          3D

 32 33  0  0  0  0  0  0  0  0999 V2000
   -9.0860   18.8370  -31.9690 C   0  0  0  0  0  0  0  0  0  0  0  0
   -7.6710   18.7880  -32.5360 C   0  0  0  0  0  0  0  0  0  0  0  0
   -7.3390   20.0200  -33.1760 O   0  0  0  0  0  0  0  0  0  0  0  0
   -6.7980   21.1510  -32.5430 C   0  0  0  0  0  0  0  0  0  0  0  0
   -5.4500   21.5370  -32.6910 C   0  0  0  0  0  0  0  0  0  0  0  0
   -4.9670   22.6740  -32.0350 C   0  0  0  0  0  0  0  0  0  0  0  0
   -5.8180   23.4380  -31.2260 C   0  0  0  0  0  0  0  0  0  0  0  0
   -5.2190   24.8760  -30.4080 S   0  0  0  0  0  0  0  0  0  0  0  0
   -5.7390   26.1100  -31.0900 O   0  0  0  0  0  0  0  0  0  0  0  0
   -5.6950   24.8450  -28.9820 O   0  0  0  0  0  0  0  0  0  0  0  0
   -3.4850   24.8790  -30.4650 N   0  0  0  0  0  0  0  0  0  0  0  0
   -2.6200   24.6670  -29.3430 C   0  0  0  0  0  0  0  0  0  0  0  0
   -1.8870   25.6150  -28.9600 O   0  0  0  0  0  0  0  0  0  0  0  0
   -2.5590   23.3870  -28.6170 C   0  0  0  0  0  0  0  0  0  0  0  0
   -1.6700   23.0450  -27.6020 C   0  0  0  0  0  0  0  0  0  0  0  0
   -1.8180   21.7260  -27.1580 C   0  0  0  0  0  0  0  0  0  0  0  0
   -2.8060   21.0170  -27.8280 C   0  0  0  0  0  0  0  0  0  0  0  0
   -3.4910   22.0340  -28.9790 S   0  0  0  0  0  0  0  0  0  0  0  0
   -7.1600   23.0630  -31.0870 C   0  0  0  0  0  0  0  0  0  0  0  0
   -7.6440   21.9270  -31.7410 C   0  0  0  0  0  0  0  0  0  0  0  0
   -9.0409   18.8354  -30.8699 H   0  0  0  0  0  0  0  0  0  0  0  0
   -9.5878   19.7531  -32.3141 H   0  0  0  0  0  0  0  0  0  0  0  0
   -9.6499   17.9578  -32.3141 H   0  0  0  0  0  0  0  0  0  0  0  0
   -6.9603   18.6041  -31.7168 H   0  0  0  0  0  0  0  0  0  0  0  0
   -7.6164   17.9786  -33.2789 H   0  0  0  0  0  0  0  0  0  0  0  0
   -4.7759   20.9419  -33.3246 H   0  0  0  0  0  0  0  0  0  0  0  0
   -3.9143   22.9696  -32.1549 H   0  0  0  0  0  0  0  0  0  0  0  0
   -0.9254   23.7419  -27.1899 H   0  0  0  0  0  0  0  0  0  0  0  0
   -1.2079   21.2912  -26.3526 H   0  0  0  0  0  0  0  0  0  0  0  0
   -3.0912   19.9716  -27.6388 H   0  0  0  0  0  0  0  0  0  0  0  0
   -7.8353   23.6647  -30.4610 H   0  0  0  0  0  0  0  0  0  0  0  0
   -8.6994   21.6396  -31.6248 H   0  0  0  0  0  0  0  0  0  0  0  0
  1  2  1  0
  2  3  1  0
  3  4  1  0
  4  5  2  0
  5  6  1  0
  6  7  2  0
  7  8  1  0
  8  9  2  0
  8 10  2  0
  8 11  1  0
 11 12  1  0
 12 13  2  0
 12 14  1  0
 14 15  2  0
 15 16  1  0
 16 17  2  0
 17 18  1  0
  7 19  1  0
 19 20  2  0
 20  4  1  0
 18 14  1  0
  1 21  1  0
  1 22  1  0
  1 23  1  0
  2 24  1  0
  2 25  1  0
  5 26  1  0
  6 27  1  0
 15 28  1  0
 16 29  1  0
 17 30  1  0
 19 31  1  0
 20 32  1  0
M  CHG  1  11  -1
M  END
>  <UniqueID>  (34) 
34

>  <SMILES>  (34) 
CCOc1ccc(S(=O)(=O)[N-]C(=O)c2cccs2)cc1

>  <Energy>  (34) 
63.29117748345421

>  <Genealogy>  (34) 
CCOc1ccc(S(=O)(=O)[N-]C(=O)c2cccs2)cc1 (protonated)
CCOc1ccc(S(=O)(=O)[N-]C(=O)c2cccs2)cc1 (3D coordinates assigned)
CCOc1ccc(S(=O)(=O)[N-]C(=O)c2cccs2)cc1 (optimized conformer: 63.29117748345421 kcal/mol)

>  <smiles>  (34) 
CCOc1ccc(S(=O)(=O)NC(=O)c2cccs2)cc1

>  <score_type>  (34) 
oracle

>  <origin>  (34) 
adg

>  <m_score__min__energy>  (34) 
-8.7100000000000009

>  <m_primary>  (34) 
energy

$$$$
34:0
     RDKit          3D

 50 51  0  0  0  0  0  0  0  0999 V2000
   -6.3570   25.2770  -29.6800 C   0  0  0  0  0  0  0  0  0  0  0  0
   -5.3750   25.5840  -30.8030 C   0  0  0  0  0  0  0  0  0  0  0  0
   -4.0100   25.2430  -30.3880 N   0  0  0  0  0  0  0  0  0  0  0  0
   -4.0350   24.1710  -29.3860 C   0  0  0  0  0  0  0  0  0  0  0  0
   -3.0070   24.4570  -28.2900 C   0  0  0  0  0  0  0  0  0  0  0  0
   -1.6780   24.9340  -28.8930 C   0  0  0  0  0  0  0  0  0  0  0  0
   -0.7590   23.7860  -29.3800 C   0  0  0  0  0  0  0  0  0  0  0  0
   -0.7570   22.5600  -28.5430 N   0  0  0  0  0  0  0  0  0  0  0  0
    0.5110   22.3250  -27.8130 C   0  0  0  0  0  0  0  0  0  0  0  0
    0.4660   23.0540  -26.4970 C   0  0  0  0  0  0  0  0  0  0  0  0
   -0.3090   22.5630  -25.4350 C   0  0  0  0  0  0  0  0  0  0  0  0
   -0.3730   23.2840  -24.2380 C   0  0  0  0  0  0  0  0  0  0  0  0
    0.3110   24.4530  -24.1030 N   0  0  0  0  0  0  0  0  0  0  0  0
    1.0690   24.9490  -25.1180 C   0  0  0  0  0  0  0  0  0  0  0  0
    1.1550   24.2660  -26.3360 C   0  0  0  0  0  0  0  0  0  0  0  0
   -1.3030   21.3620  -29.2150 C   0  0  0  0  0  0  0  0  0  0  0  0
   -1.5600   20.2660  -28.2140 C   0  0  0  0  0  0  0  0  0  0  0  0
   -2.7250   20.2740  -27.4280 C   0  0  0  0  0  0  0  0  0  0  0  0
   -2.9620   19.2430  -26.5130 C   0  0  0  0  0  0  0  0  0  0  0  0
   -2.0430   18.1990  -26.3790 C   0  0  0  0  0  0  0  0  0  0  0  0
   -0.8820   18.1840  -27.1570 C   0  0  0  0  0  0  0  0  0  0  0  0
    0.0090   17.1680  -27.0280 F   0  0  0  0  0  0  0  0  0  0  0  0
   -0.6380   19.2130  -28.0710 C   0  0  0  0  0  0  0  0  0  0  0  0
   -5.8636   25.4313  -28.7091 H   0  0  0  0  0  0  0  0  0  0  0  0
   -7.2263   25.9462  -29.7599 H   0  0  0  0  0  0  0  0  0  0  0  0
   -6.6903   24.2318  -29.7599 H   0  0  0  0  0  0  0  0  0  0  0  0
   -5.6429   24.9938  -31.6917 H   0  0  0  0  0  0  0  0  0  0  0  0
   -5.4217   26.6576  -31.0378 H   0  0  0  0  0  0  0  0  0  0  0  0
   -3.5000   24.8820  -31.2280 H   0  0  0  0  0  0  0  0  0  0  0  0
   -5.0383   24.1135  -28.9387 H   0  0  0  0  0  0  0  0  0  0  0  0
   -3.7887   23.2156  -29.8724 H   0  0  0  0  0  0  0  0  0  0  0  0
   -3.4003   25.2382  -27.6229 H   0  0  0  0  0  0  0  0  0  0  0  0
   -2.8243   23.5281  -27.7299 H   0  0  0  0  0  0  0  0  0  0  0  0
   -1.9014   25.5857  -29.7506 H   0  0  0  0  0  0  0  0  0  0  0  0
   -1.1353   25.4583  -28.0926 H   0  0  0  0  0  0  0  0  0  0  0  0
   -1.0812   23.5025  -30.3928 H   0  0  0  0  0  0  0  0  0  0  0  0
    0.2658   24.1827  -29.3307 H   0  0  0  0  0  0  0  0  0  0  0  0
    0.6375   21.2473  -27.6326 H   0  0  0  0  0  0  0  0  0  0  0  0
    1.3565   22.6946  -28.4118 H   0  0  0  0  0  0  0  0  0  0  0  0
   -0.8620   21.6183  -25.5431 H   0  0  0  0  0  0  0  0  0  0  0  0
   -0.9789   22.9045  -23.4020 H   0  0  0  0  0  0  0  0  0  0  0  0
    0.2530   24.9840  -23.2050 H   0  0  0  0  0  0  0  0  0  0  0  0
    1.6175   25.8925  -24.9803 H   0  0  0  0  0  0  0  0  0  0  0  0
    1.7574   24.6754  -27.1603 H   0  0  0  0  0  0  0  0  0  0  0  0
   -2.2475   21.6256  -29.7135 H   0  0  0  0  0  0  0  0  0  0  0  0
   -0.5709   21.0041  -29.9539 H   0  0  0  0  0  0  0  0  0  0  0  0
   -3.4520   21.0928  -27.5326 H   0  0  0  0  0  0  0  0  0  0  0  0
   -3.8737   19.2541  -25.8976 H   0  0  0  0  0  0  0  0  0  0  0  0
   -2.2335   17.3881  -25.6605 H   0  0  0  0  0  0  0  0  0  0  0  0
    0.2777   19.1994  -28.6803 H   0  0  0  0  0  0  0  0  0  0  0  0
  1  2  1  0
  2  3  1  0
  3  4  1  0
  4  5  1  0
  5  6  1  0
  6  7  1  0
  7  8  1  0
  8  9  1  0
  9 10  1  0
 10 11  2  0
 11 12  1  0
 12 13  2  0
 13 14  1  0
 14 15  2  0
  8 16  1  0
 16 17  1  0
 17 18  2  0
 18 19  1  0
 19 20  2  0
 20 21  1  0
 21 22  1  0
 21 23  2  0
 15 10  1  0
 23 17  1  0
  1 24  1  0
  1 25  1  0
  1 26  1  0
  2 27  1  0
  2 28  1  0
  3 29  1  0
  4 30  1  0
  4 31  1  0
  5 32  1  0
  5 33  1  0
  6 34  1  0
  6 35  1  0
  7 36  1  0
  7 37  1  0
  9 38  1  0
  9 39  1  0
 11 40  1  0
 12 41  1  0
 13 42  1  0
 14 43  1  0
 15 44  1  0
 16 45  1  0
 16 46  1  0
 18 47  1  0
 19 48  1  0
 20 49  1  0
 23 50  1  0
M  CHG  1  13   1
M  END
>  <UniqueID>  (35) 
35

>  <SMILES>  (35) 
CCNCCCCN(Cc1cc[nH+]cc1)Cc1cccc(F)c1

>  <Energy>  (35) 
45.993910551411666

>  <Genealogy>  (35) 
CCNCCCCN(Cc1cc[nH+]cc1)Cc1cccc(F)c1 (protonated)
CCNCCCCN(Cc1cc[nH+]cc1)Cc1cccc(F)c1 (3D coordinates assigned)
CCNCCCCN(Cc1cc[nH+]cc1)Cc1cccc(F)c1 (optimized conformer: 45.993910551411666 kcal/mol)

>  <smiles>  (35) 
CCNCCCCN(Cc1ccncc1)Cc1cccc(F)c1

>  <score_type>  (35) 
oracle

>  <origin>  (35) 
adg

>  <m_score__min__energy>  (35) 
-7.1699999999999999

>  <m_primary>  (35) 
energy

$$$$
35:0
     RDKit          3D

 42 43  0  0  0  0  0  0  0  0999 V2000
   -4.7914   20.9711  -33.3364 H   0  0  0  0  0  0  0  0  0  0  0  0
   -5.0940   20.5600  -32.3620 C   0  0  0  0  0  0  0  0  0  0  0  0
   -4.1760   20.5440  -31.3810 C   0  0  0  0  0  0  0  0  0  0  0  0
   -3.8227   19.5638  -31.0282 H   0  0  0  0  0  0  0  0  0  0  0  0
   -3.6060   21.7510  -30.7410 C   0  0  0  0  0  0  0  0  0  0  0  0
   -4.2110   22.9880  -30.9990 C   0  0  0  0  0  0  0  0  0  0  0  0
   -5.1130   23.0317  -31.6270 H   0  0  0  0  0  0  0  0  0  0  0  0
   -3.6780   24.1750  -30.4640 C   0  0  0  0  0  0  0  0  0  0  0  0
   -4.2390   25.4330  -30.7360 O   0  0  0  0  0  0  0  0  0  0  0  0
   -5.5880   25.7920  -30.4550 C   0  0  0  0  0  0  0  0  0  0  0  0
   -5.7376   25.8318  -29.3659 H   0  0  0  0  0  0  0  0  0  0  0  0
   -5.8033   26.7787  -30.8910 H   0  0  0  0  0  0  0  0  0  0  0  0
   -6.2652   25.0428  -30.8910 H   0  0  0  0  0  0  0  0  0  0  0  0
   -2.5460   24.1150  -29.6390 C   0  0  0  0  0  0  0  0  0  0  0  0
   -2.0340   25.3190  -29.1270 O   0  0  0  0  0  0  0  0  0  0  0  0
   -1.4730   25.4710  -27.8270 C   0  0  0  0  0  0  0  0  0  0  0  0
   -2.2424   25.2625  -27.0690 H   0  0  0  0  0  0  0  0  0  0  0  0
   -0.6368   24.7670  -27.7039 H   0  0  0  0  0  0  0  0  0  0  0  0
   -1.1065   26.5008  -27.7039 H   0  0  0  0  0  0  0  0  0  0  0  0
   -1.9630   22.8700  -29.3450 C   0  0  0  0  0  0  0  0  0  0  0  0
   -1.0813   22.8241  -28.6889 H   0  0  0  0  0  0  0  0  0  0  0  0
   -2.4940   21.6820  -29.8800 C   0  0  0  0  0  0  0  0  0  0  0  0
   -1.9530   20.4230  -29.5660 O   0  0  0  0  0  0  0  0  0  0  0  0
   -1.5730   20.0080  -28.2580 C   0  0  0  0  0  0  0  0  0  0  0  0
   -2.1185   20.6038  -27.5113 H   0  0  0  0  0  0  0  0  0  0  0  0
   -1.8159   18.9433  -28.1261 H   0  0  0  0  0  0  0  0  0  0  0  0
   -0.4911   20.1564  -28.1261 H   0  0  0  0  0  0  0  0  0  0  0  0
   -6.4830   20.0650  -32.2280 C   0  0  0  0  0  0  0  0  0  0  0  0
   -6.7020   18.6800  -32.2420 C   0  0  0  0  0  0  0  0  0  0  0  0
   -5.8463   17.9931  -32.3190 H   0  0  0  0  0  0  0  0  0  0  0  0
   -7.9970   18.1660  -32.1590 C   0  0  0  0  0  0  0  0  0  0  0  0
   -8.1592   17.0783  -32.1843 H   0  0  0  0  0  0  0  0  0  0  0  0
   -9.0850   19.0300  -32.0440 C   0  0  0  0  0  0  0  0  0  0  0  0
  -10.1059   18.6236  -31.9941 H   0  0  0  0  0  0  0  0  0  0  0  0
   -8.8810   20.4110  -31.9920 C   0  0  0  0  0  0  0  0  0  0  0  0
   -9.7432   21.0871  -31.8941 H   0  0  0  0  0  0  0  0  0  0  0  0
   -7.5790   20.9440  -32.0640 C   0  0  0  0  0  0  0  0  0  0  0  0
   -7.3400   22.3240  -31.9590 O   0  0  0  0  0  0  0  0  0  0  0  0
   -8.3530   23.3240  -31.9650 C   0  0  0  0  0  0  0  0  0  0  0  0
   -8.6170   23.5847  -30.9295 H   0  0  0  0  0  0  0  0  0  0  0  0
   -7.9814   24.2192  -32.4851 H   0  0  0  0  0  0  0  0  0  0  0  0
   -9.2434   22.9409  -32.4851 H   0  0  0  0  0  0  0  0  0  0  0  0
  1  2  1  0
  2  3  2  0
  3  4  1  0
  3  5  1  0
  5  6  2  0
  6  7  1  0
  6  8  1  0
  8  9  1  0
  9 10  1  0
 10 11  1  0
 10 12  1  0
 10 13  1  0
  8 14  2  0
 14 15  1  0
 15 16  1  0
 16 17  1  0
 16 18  1  0
 16 19  1  0
 14 20  1  0
 20 21  1  0
 20 22  2  0
 22 23  1  0
 23 24  1  0
 24 25  1  0
 24 26  1  0
 24 27  1  0
  2 28  1  0
 28 29  2  0
 29 30  1  0
 29 31  1  0
 31 32  1  0
 31 33  2  0
 33 34  1  0
 33 35  1  0
 35 36  1  0
 35 37  2  0
 37 38  1  0
 38 39  1  0
 39 40  1  0
 39 41  1  0
 39 42  1  0
 22  5  1  0
 37 28  1  0
M  END
>  <UniqueID>  (36) 
36

>  <SMILES>  (36) 
COc1ccccc1/C=C\c1cc(OC)c(OC)cc1OC

>  <Energy>  (36) 
49.871114522082614

>  <Genealogy>  (36) 
COc1ccccc1/C=C\c1cc(OC)c(OC)cc1OC (cis-trans isomerization)
COc1ccccc1/C=C\c1cc(OC)c(OC)cc1OC (3D coordinates assigned)
COc1ccccc1/C=C\c1cc(OC)c(OC)cc1OC (optimized conformer: 49.871114522082614 kcal/mol)

>  <smiles>  (36) 
COc1ccccc1C=Cc1cc(OC)c(OC)cc1OC

>  <score_type>  (36) 
oracle

>  <origin>  (36) 
adg

>  <m_score__min__energy>  (36) 
-7.6399999999999997

>  <m_primary>  (36) 
energy

$$$$
36:0
     RDKit          3D

 50 52  0  0  0  0  0  0  0  0999 V2000
   -6.2810   17.2050  -33.3620 C   0  0  0  0  0  0  0  0  0  0  0  0
   -6.4750   18.6980  -33.6170 C   0  0  0  0  0  0  0  0  0  0  0  0
   -7.2780   19.3130  -32.5360 N   0  0  0  0  0  0  0  0  0  0  0  0
   -7.7410   18.2710  -31.6010 C   0  0  0  0  0  0  0  0  0  0  0  0
   -8.4330   20.0630  -33.0880 C   0  0  0  0  0  0  0  0  0  0  0  0
   -9.4480   20.4280  -31.9920 C   0  0  0  0  0  0  0  0  0  0  0  0
   -8.9670   21.5780  -31.0950 C   0  0  0  0  0  0  0  0  0  0  0  0
   -8.1380   22.5170  -31.8520 N   0  0  0  0  0  0  0  0  0  0  0  0
   -6.9520   23.1280  -31.3110 C   0  0  0  0  0  0  0  0  0  0  0  0
   -7.0630   24.2490  -30.4680 C   0  0  0  0  0  0  0  0  0  0  0  0
   -5.9270   24.8510  -29.9270 C   0  0  0  0  0  0  0  0  0  0  0  0
   -4.6600   24.3450  -30.2130 C   0  0  0  0  0  0  0  0  0  0  0  0
   -4.5210   23.2270  -31.0450 C   0  0  0  0  0  0  0  0  0  0  0  0
   -3.2500   22.7250  -31.3490 C   0  0  0  0  0  0  0  0  0  0  0  0
   -3.1100   21.6230  -32.2030 C   0  0  0  0  0  0  0  0  0  0  0  0
   -1.7660   21.0880  -32.5390 C   0  0  0  0  0  0  0  0  0  0  0  0
   -0.9690   20.4840  -31.5480 C   0  0  0  0  0  0  0  0  0  0  0  0
    0.2960   19.9800  -31.8680 C   0  0  0  0  0  0  0  0  0  0  0  0
    0.7790   20.0740  -33.1740 C   0  0  0  0  0  0  0  0  0  0  0  0
   -0.0010   20.6730  -34.1670 C   0  0  0  0  0  0  0  0  0  0  0  0
    0.6630   20.8060  -35.9530 Br  0  0  0  0  0  0  0  0  0  0  0  0
   -1.2670   21.1780  -33.8530 C   0  0  0  0  0  0  0  0  0  0  0  0
   -4.2680   21.0400  -32.7370 C   0  0  0  0  0  0  0  0  0  0  0  0
   -5.4990   21.5300  -32.4310 N   0  0  0  0  0  0  0  0  0  0  0  0
   -5.6650   22.6030  -31.5990 C   0  0  0  0  0  0  0  0  0  0  0  0
   -6.2567   17.0182  -32.2782 H   0  0  0  0  0  0  0  0  0  0  0  0
   -7.1139   16.6449  -33.8120 H   0  0  0  0  0  0  0  0  0  0  0  0
   -5.3326   16.8764  -33.8120 H   0  0  0  0  0  0  0  0  0  0  0  0
   -5.4911   19.1880  -33.6595 H   0  0  0  0  0  0  0  0  0  0  0  0
   -7.0073   18.8278  -34.5708 H   0  0  0  0  0  0  0  0  0  0  0  0
   -7.5891   18.6128  -30.5666 H   0  0  0  0  0  0  0  0  0  0  0  0
   -8.8104   18.0761  -31.7695 H   0  0  0  0  0  0  0  0  0  0  0  0
   -7.1689   17.3467  -31.7695 H   0  0  0  0  0  0  0  0  0  0  0  0
   -8.0665   20.9879  -33.5572 H   0  0  0  0  0  0  0  0  0  0  0  0
   -8.9387   19.4218  -33.8250 H   0  0  0  0  0  0  0  0  0  0  0  0
  -10.3912   20.7276  -32.4721 H   0  0  0  0  0  0  0  0  0  0  0  0
   -9.5788   19.5421  -31.3533 H   0  0  0  0  0  0  0  0  0  0  0  0
   -9.8410   22.1116  -30.6933 H   0  0  0  0  0  0  0  0  0  0  0  0
   -8.3648   21.1576  -30.2761 H   0  0  0  0  0  0  0  0  0  0  0  0
   -8.3370   22.6230  -32.8720 H   0  0  0  0  0  0  0  0  0  0  0  0
   -8.0577   24.6556  -30.2327 H   0  0  0  0  0  0  0  0  0  0  0  0
   -6.0314   25.7286  -29.2720 H   0  0  0  0  0  0  0  0  0  0  0  0
   -3.7677   24.8247  -29.7844 H   0  0  0  0  0  0  0  0  0  0  0  0
   -2.3567   23.1981  -30.9152 H   0  0  0  0  0  0  0  0  0  0  0  0
   -1.3431   20.4080  -30.5164 H   0  0  0  0  0  0  0  0  0  0  0  0
    0.9118   19.5083  -31.0881 H   0  0  0  0  0  0  0  0  0  0  0  0
    1.7742   19.6764  -33.4219 H   0  0  0  0  0  0  0  0  0  0  0  0
   -1.8772   21.6488  -34.6379 H   0  0  0  0  0  0  0  0  0  0  0  0
   -4.1796   20.1757  -33.4117 H   0  0  0  0  0  0  0  0  0  0  0  0
   -6.3170   21.0540  -32.8690 H   0  0  0  0  0  0  0  0  0  0  0  0
  1  2  1  0
  2  3  1  0
  3  4  1  0
  3  5  1  0
  5  6  1  0
  6  7  1  0
  7  8  1  0
  8  9  1  0
  9 10  2  0
 10 11  1  0
 11 12  2  0
 12 13  1  0
 13 14  2  0
 14 15  1  0
 15 16  1  0
 16 17  2  0
 17 18  1  0
 18 19  2  0
 19 20  1  0
 20 21  1  0
 20 22  2  0
 15 23  2  0
 23 24  1  0
 24 25  2  0
 25  9  1  0
 25 13  1  0
 22 16  1  0
  1 26  1  0
  1 27  1  0
  1 28  1  0
  2 29  1  0
  2 30  1  0
  4 31  1  0
  4 32  1  0
  4 33  1  0
  5 34  1  0
  5 35  1  0
  6 36  1  0
  6 37  1  0
  7 38  1  0
  7 39  1  0
  8 40  1  0
 10 41  1  0
 11 42  1  0
 12 43  1  0
 14 44  1  0
 17 45  1  0
 18 46  1  0
 19 47  1  0
 22 48  1  0
 23 49  1  0
 24 50  1  0
M  CHG  1  24   1
M  END
>  <UniqueID>  (37) 
37

>  <SMILES>  (37) 
CCN(C)CCCNc1cccc2cc(-c3cccc(Br)c3)c[nH+]c12

>  <Energy>  (37) 
57.56088897084435

>  <Genealogy>  (37) 
CCN(C)CCCNc1cccc2cc(-c3cccc(Br)c3)c[nH+]c12 (protonated)
CCN(C)CCCNc1cccc2cc(-c3cccc(Br)c3)c[nH+]c12 (3D coordinates assigned)
CCN(C)CCCNc1cccc2cc(-c3cccc(Br)c3)c[nH+]c12 (optimized conformer: 57.56088897084435 kcal/mol)

>  <smiles>  (37) 
CCN(C)CCCNc1cccc2cc(-c3cccc(Br)c3)cnc12

>  <score_type>  (37) 
oracle

>  <origin>  (37) 
adg

>  <m_score__min__energy>  (37) 
-8.1699999999999999

>  <m_primary>  (37) 
energy

$$$$
37:0
     RDKit          3D

 49 50  0  0  0  0  0  0  0  0999 V2000
   -1.5920   26.0180  -26.6050 C   0  0  0  0  0  0  0  0  0  0  0  0
   -0.9420   26.1020  -27.9750 C   0  0  0  0  0  0  0  0  0  0  0  0
   -1.8690   25.6740  -28.9680 O   0  0  0  0  0  0  0  0  0  0  0  0
   -2.2740   24.3430  -29.1570 C   0  0  0  0  0  0  0  0  0  0  0  0
   -1.6570   23.2730  -28.4800 C   0  0  0  0  0  0  0  0  0  0  0  0
   -2.1010   21.9650  -28.6780 C   0  0  0  0  0  0  0  0  0  0  0  0
   -3.1540   21.7100  -29.5540 C   0  0  0  0  0  0  0  0  0  0  0  0
   -3.7730   22.7610  -30.2340 C   0  0  0  0  0  0  0  0  0  0  0  0
   -3.3420   24.0890  -30.0350 C   0  0  0  0  0  0  0  0  0  0  0  0
   -3.9340   25.1830  -30.6940 O   0  0  0  0  0  0  0  0  0  0  0  0
   -5.2580   25.6820  -30.4820 C   0  0  0  0  0  0  0  0  0  0  0  0
   -6.2910   24.5410  -30.4560 C   0  0  0  0  0  0  0  0  0  0  0  0
   -6.4070   23.8380  -31.7460 N   0  0  0  0  0  0  0  0  0  0  0  0
   -7.7950   23.4300  -32.0140 C   0  0  0  0  0  0  0  0  0  0  0  0
   -8.1350   22.1170  -31.3010 C   0  0  0  0  0  0  0  0  0  0  0  0
   -6.9860   21.2730  -31.2360 O   0  0  0  0  0  0  0  0  0  0  0  0
   -6.7210   20.1780  -32.0770 C   0  0  0  0  0  0  0  0  0  0  0  0
   -7.5030   19.0070  -32.0570 C   0  0  0  0  0  0  0  0  0  0  0  0
   -7.2010   17.9430  -32.9100 C   0  0  0  0  0  0  0  0  0  0  0  0
   -6.1210   18.0360  -33.7880 C   0  0  0  0  0  0  0  0  0  0  0  0
   -5.3410   19.1930  -33.8190 C   0  0  0  0  0  0  0  0  0  0  0  0
   -5.6370   20.2730  -32.9650 C   0  0  0  0  0  0  0  0  0  0  0  0
   -4.8790   21.4540  -32.9690 O   0  0  0  0  0  0  0  0  0  0  0  0
   -3.4900   21.5220  -33.2660 C   0  0  0  0  0  0  0  0  0  0  0  0
   -0.8211   26.1176  -25.8267 H   0  0  0  0  0  0  0  0  0  0  0  0
   -2.3280   26.8285  -26.4980 H   0  0  0  0  0  0  0  0  0  0  0  0
   -2.0977   25.0470  -26.4980 H   0  0  0  0  0  0  0  0  0  0  0  0
   -0.6435   27.1415  -28.1760 H   0  0  0  0  0  0  0  0  0  0  0  0
   -0.0536   25.4538  -27.9994 H   0  0  0  0  0  0  0  0  0  0  0  0
   -0.8214   23.4693  -27.7921 H   0  0  0  0  0  0  0  0  0  0  0  0
   -1.6191   21.1342  -28.1418 H   0  0  0  0  0  0  0  0  0  0  0  0
   -3.4989   20.6773  -29.7105 H   0  0  0  0  0  0  0  0  0  0  0  0
   -4.6005   22.5521  -30.9280 H   0  0  0  0  0  0  0  0  0  0  0  0
   -5.2897   26.2154  -29.5205 H   0  0  0  0  0  0  0  0  0  0  0  0
   -5.5101   26.3582  -31.3122 H   0  0  0  0  0  0  0  0  0  0  0  0
   -5.9908   23.8142  -29.6868 H   0  0  0  0  0  0  0  0  0  0  0  0
   -7.2710   24.9902  -30.2374 H   0  0  0  0  0  0  0  0  0  0  0  0
   -5.7670   23.0090  -31.7660 H   0  0  0  0  0  0  0  0  0  0  0  0
   -8.4754   24.2178  -31.6585 H   0  0  0  0  0  0  0  0  0  0  0  0
   -7.9099   23.2775  -33.0973 H   0  0  0  0  0  0  0  0  0  0  0  0
   -8.4804   22.3380  -30.2803 H   0  0  0  0  0  0  0  0  0  0  0  0
   -8.9256   21.5999  -31.8645 H   0  0  0  0  0  0  0  0  0  0  0  0
   -8.3557   18.9299  -31.3664 H   0  0  0  0  0  0  0  0  0  0  0  0
   -7.8154   17.0308  -32.8894 H   0  0  0  0  0  0  0  0  0  0  0  0
   -5.8837   17.1959  -34.4572 H   0  0  0  0  0  0  0  0  0  0  0  0
   -4.4910   19.2616  -34.5138 H   0  0  0  0  0  0  0  0  0  0  0  0
   -2.9155   21.5501  -32.3284 H   0  0  0  0  0  0  0  0  0  0  0  0
   -3.1961   20.6372  -33.8497 H   0  0  0  0  0  0  0  0  0  0  0  0
   -3.2839   22.4313  -33.8497 H   0  0  0  0  0  0  0  0  0  0  0  0
  1  2  1  0
  2  3  1  0
  3  4  1  0
  4  5  2  0
  5  6  1  0
  6  7  2  0
  7  8  1  0
  8  9  2  0
  9 10  1  0
 10 11  1  0
 11 12  1  0
 12 13  1  0
 13 14  1  0
 14 15  1  0
 15 16  1  0
 16 17  1  0
 17 18  2  0
 18 19  1  0
 19 20  2  0
 20 21  1  0
 21 22  2  0
 22 23  1  0
 23 24  1  0
  9  4  1  0
 22 17  1  0
  1 25  1  0
  1 26  1  0
  1 27  1  0
  2 28  1  0
  2 29  1  0
  5 30  1  0
  6 31  1  0
  7 32  1  0
  8 33  1  0
 11 34  1  0
 11 35  1  0
 12 36  1  0
 12 37  1  0
 13 38  1  0
 14 39  1  0
 14 40  1  0
 15 41  1  0
 15 42  1  0
 18 43  1  0
 19 44  1  0
 20 45  1  0
 21 46  1  0
 24 47  1  0
 24 48  1  0
 24 49  1  0
M  END
>  <UniqueID>  (38) 
38

>  <SMILES>  (38) 
CCOc1ccccc1OCCNCCOc1ccccc1OC

>  <Energy>  (38) 
44.049459968424095

>  <Genealogy>  (38) 
CCOc1ccccc1OCCNCCOc1ccccc1OC (3D coordinates assigned)
CCOc1ccccc1OCCNCCOc1ccccc1OC (optimized conformer: 44.049459968424095 kcal/mol)

>  <smiles>  (38) 
CCOc1ccccc1OCCNCCOc1ccccc1OC

>  <score_type>  (38) 
oracle

>  <origin>  (38) 
adg

>  <m_score__min__energy>  (38) 
-7.4299999999999997

>  <m_primary>  (38) 
energy

$$$$
38:0
     RDKit          3D

 50 54  0  0  0  0  0  0  0  0999 V2000
   -0.3200   18.2655  -34.7328 H   0  0  0  0  0  0  0  0  0  0  0  0
   -0.5020   18.9510  -33.8920 C   0  0  0  0  0  0  0  0  0  0  0  0
   -0.0690   18.6190  -32.6400 N   0  0  0  0  0  0  0  0  0  0  0  0
   -0.3170   19.4650  -31.6070 C   0  0  0  0  0  0  0  0  0  0  0  0
   -0.9960   20.6430  -31.7740 C   0  0  0  0  0  0  0  0  0  0  0  0
   -1.4290   21.0400  -33.0400 C   0  0  0  0  0  0  0  0  0  0  0  0
   -1.9448   21.9998  -33.1912 H   0  0  0  0  0  0  0  0  0  0  0  0
   -1.1820   20.1690  -34.1140 C   0  0  0  0  0  0  0  0  0  0  0  0
   -1.5178   20.4352  -35.1271 H   0  0  0  0  0  0  0  0  0  0  0  0
   -1.0490   21.2480  -30.5250 C   0  0  0  0  0  0  0  0  0  0  0  0
   -1.6640   22.5320  -30.1390 C   0  0  0  0  0  0  0  0  0  0  0  0
   -2.8580   22.8820  -30.6880 N   0  0  0  0  0  0  0  0  0  0  0  0
   -3.4690   24.0570  -30.3790 C   0  0  0  0  0  0  0  0  0  0  0  0
   -4.6040   24.3920  -30.9210 N   0  0  0  0  0  0  0  0  0  0  0  0
   -5.6520   23.5030  -31.3460 C   0  0  0  0  0  0  0  0  0  0  0  0
   -7.0110   23.7950  -31.1270 C   0  0  0  0  0  0  0  0  0  0  0  0
   -7.2961   24.7171  -30.5993 H   0  0  0  0  0  0  0  0  0  0  0  0
   -7.9980   22.9170  -31.5780 C   0  0  0  0  0  0  0  0  0  0  0  0
   -9.0584   23.1426  -31.3916 H   0  0  0  0  0  0  0  0  0  0  0  0
   -7.6450   21.7530  -32.2650 C   0  0  0  0  0  0  0  0  0  0  0  0
   -8.4289   21.0615  -32.6077 H   0  0  0  0  0  0  0  0  0  0  0  0
   -6.2950   21.4600  -32.5210 C   0  0  0  0  0  0  0  0  0  0  0  0
   -5.9290   20.2680  -33.2450 N   0  0  0  0  0  0  0  0  0  0  0  0
   -4.8050   19.5390  -33.0970 C   0  0  0  0  0  0  0  0  0  0  0  0
   -3.9799   19.7345  -32.3963 H   0  0  0  0  0  0  0  0  0  0  0  0
   -4.8950   18.5000  -33.9980 C   0  0  0  0  0  0  0  0  0  0  0  0
   -3.8540   17.4670  -34.2690 C   0  0  0  0  0  0  0  0  0  0  0  0
   -3.4643   17.0803  -33.3158 H   0  0  0  0  0  0  0  0  0  0  0  0
   -4.2976   16.6419  -34.8455 H   0  0  0  0  0  0  0  0  0  0  0  0
   -3.0323   17.9169  -34.8455 H   0  0  0  0  0  0  0  0  0  0  0  0
   -6.0490   18.6210  -34.6830 N   0  0  0  0  0  0  0  0  0  0  0  0
   -6.6520   19.6950  -34.1980 N   0  0  0  0  0  0  0  0  0  0  0  0
   -7.5870   20.0250  -34.5240 H   0  0  0  0  0  0  0  0  0  0  0  0
   -5.3050   22.3520  -32.0660 C   0  0  0  0  0  0  0  0  0  0  0  0
   -4.2462   22.1427  -32.2784 H   0  0  0  0  0  0  0  0  0  0  0  0
   -2.8630   24.9220  -29.5240 N   0  0  0  0  0  0  0  0  0  0  0  0
   -1.6620   24.6270  -28.9640 C   0  0  0  0  0  0  0  0  0  0  0  0
   -1.1880   25.3396  -28.2729 H   0  0  0  0  0  0  0  0  0  0  0  0
   -1.0290   23.4220  -29.2640 C   0  0  0  0  0  0  0  0  0  0  0  0
   -0.0519   23.1755  -28.8230 H   0  0  0  0  0  0  0  0  0  0  0  0
   -0.3650   20.3910  -29.6610 C   0  0  0  0  0  0  0  0  0  0  0  0
   -0.2103   20.5734  -28.5873 H   0  0  0  0  0  0  0  0  0  0  0  0
    0.0810   19.3030  -30.3330 N   0  0  0  0  0  0  0  0  0  0  0  0
    0.7840   18.1570  -29.7620 C   0  0  0  0  0  0  0  0  0  0  0  0
    1.8689   18.3193  -29.8430 H   0  0  0  0  0  0  0  0  0  0  0  0
    0.4974   17.2494  -30.3135 H   0  0  0  0  0  0  0  0  0  0  0  0
    0.4090   17.9860  -28.2950 C   0  0  0  0  0  0  0  0  0  0  0  0
    1.2272   18.3591  -27.6615 H   0  0  0  0  0  0  0  0  0  0  0  0
   -0.5081   18.5549  -28.0823 H   0  0  0  0  0  0  0  0  0  0  0  0
    0.2372   16.9205  -28.0823 H   0  0  0  0  0  0  0  0  0  0  0  0
  1  2  1  0
  2  3  2  0
  3  4  1  0
  4  5  2  0
  5  6  1  0
  6  7  1  0
  6  8  2  0
  8  9  1  0
  5 10  1  0
 10 11  1  0
 11 12  2  0
 12 13  1  0
 13 14  2  0
 14 15  1  0
 15 16  2  0
 16 17  1  0
 16 18  1  0
 18 19  1  0
 18 20  2  0
 20 21  1  0
 20 22  1  0
 22 23  1  0
 23 24  1  0
 24 25  1  0
 24 26  2  0
 26 27  1  0
 27 28  1  0
 27 29  1  0
 27 30  1  0
 26 31  1  0
 31 32  2  0
 32 33  1  0
 22 34  2  0
 34 35  1  0
 13 36  1  0
 36 37  1  0
 37 38  1  0
 37 39  2  0
 39 40  1  0
 10 41  2  0
 41 42  1  0
 41 43  1  0
 43 44  1  0
 44 45  1  0
 44 46  1  0
 44 47  1  0
 47 48  1  0
 47 49  1  0
 47 50  1  0
  8  2  1  0
 39 11  1  0
 43  4  1  0
 34 15  1  0
 32 23  1  0
M  CHG  2  32   1  36  -1
M  END
>  <UniqueID>  (39) 
39

>  <SMILES>  (39) 
CCn1cc(-c2cc[n-]/c(=N/c3cccc(-n4cc(C)n[nH+]4)c3)n2)c2cccnc21

>  <Energy>  (39) 
136.12840072535718

>  <Genealogy>  (39) 
CCn1cc(-c2cc[n-]c(=Nc3cccc(-n4cc(C)n[nH+]4)c3)n2)c2cccnc21 (protonated)
CCn1cc(-c2cc[n-]/c(=N/c3cccc(-n4cc(C)n[nH+]4)c3)n2)c2cccnc21 (cis-trans isomerization)
CCn1cc(-c2cc[n-]/c(=N/c3cccc(-n4cc(C)n[nH+]4)c3)n2)c2cccnc21 (3D coordinates assigned)
CCn1cc(-c2cc[n-]/c(=N/c3cccc(-n4cc(C)n[nH+]4)c3)n2)c2cccnc21 (optimized conformer: 136.12840072535718 kcal/mol)

>  <smiles>  (39) 
CCn1cc(-c2cc[nH]c(=Nc3cccc(-n4cc(C)nn4)c3)n2)c2cccnc21

>  <score_type>  (39) 
oracle

>  <origin>  (39) 
adg

>  <m_score__min__energy>  (39) 
-11.91

>  <m_primary>  (39) 
energy

$$$$
39:0
     RDKit          3D

 43 45  0  0  0  0  0  0  0  0999 V2000
   -0.4990   20.7980  -30.3890 C   0  0  0  0  0  0  0  0  0  0  0  0
   -0.8750   22.2720  -30.5100 C   0  0  0  0  0  0  0  0  0  0  0  0
   -2.3180   22.4610  -30.2970 N   0  0  0  0  0  0  0  0  0  0  0  0
   -2.7660   23.4110  -29.2680 C   0  0  0  0  0  0  0  0  0  0  0  0
   -3.9590   24.1760  -29.7510 C   0  0  0  0  0  0  0  0  0  0  0  0
   -5.2760   23.8920  -29.4460 C   0  0  0  0  0  0  0  0  0  0  0  0
   -6.0190   24.8680  -30.0750 C   0  0  0  0  0  0  0  0  0  0  0  0
   -5.1130   25.6830  -30.7220 C   0  0  0  0  0  0  0  0  0  0  0  0
   -3.8920   25.2460  -30.5080 O   0  0  0  0  0  0  0  0  0  0  0  0
   -3.2610   21.6800  -31.0670 C   0  0  0  0  0  0  0  0  0  0  0  0
   -4.2430   21.1400  -30.4850 O   0  0  0  0  0  0  0  0  0  0  0  0
   -3.1370   21.5340  -32.5600 C   0  0  0  0  0  0  0  0  0  0  0  0
   -4.4350   21.7170  -33.2120 N   0  0  0  0  0  0  0  0  0  0  0  0
   -5.5170   20.7780  -33.0670 C   0  0  0  0  0  0  0  0  0  0  0  0
   -5.3140   19.4210  -33.3780 C   0  0  0  0  0  0  0  0  0  0  0  0
   -6.3320   18.4860  -33.1970 C   0  0  0  0  0  0  0  0  0  0  0  0
   -7.5710   18.8830  -32.7000 C   0  0  0  0  0  0  0  0  0  0  0  0
   -7.8090   20.2290  -32.3870 C   0  0  0  0  0  0  0  0  0  0  0  0
   -9.0630   20.6240  -31.8970 C   0  0  0  0  0  0  0  0  0  0  0  0
   -9.3120   21.9650  -31.6020 C   0  0  0  0  0  0  0  0  0  0  0  0
   -8.3170   22.9220  -31.8000 C   0  0  0  0  0  0  0  0  0  0  0  0
   -7.0620   22.5450  -32.2860 C   0  0  0  0  0  0  0  0  0  0  0  0
   -6.7820   21.1920  -32.5730 C   0  0  0  0  0  0  0  0  0  0  0  0
   -0.4290   20.5235  -29.3261 H   0  0  0  0  0  0  0  0  0  0  0  0
   -1.2688   20.1820  -30.8768 H   0  0  0  0  0  0  0  0  0  0  0  0
    0.4718   20.6260  -30.8768 H   0  0  0  0  0  0  0  0  0  0  0  0
   -0.3203   22.8490  -29.7555 H   0  0  0  0  0  0  0  0  0  0  0  0
   -0.6189   22.6198  -31.5217 H   0  0  0  0  0  0  0  0  0  0  0  0
   -3.0345   22.8580  -28.3558 H   0  0  0  0  0  0  0  0  0  0  0  0
   -1.9505   24.1176  -29.0540 H   0  0  0  0  0  0  0  0  0  0  0  0
   -5.6526   23.0617  -28.8306 H   0  0  0  0  0  0  0  0  0  0  0  0
   -7.1137   24.9754  -30.0634 H   0  0  0  0  0  0  0  0  0  0  0  0
   -5.3732   26.5650  -31.3256 H   0  0  0  0  0  0  0  0  0  0  0  0
   -2.4338   22.2904  -32.9387 H   0  0  0  0  0  0  0  0  0  0  0  0
   -2.7701   20.5217  -32.7850 H   0  0  0  0  0  0  0  0  0  0  0  0
   -4.6370   22.6480  -33.6410 H   0  0  0  0  0  0  0  0  0  0  0  0
   -4.3394   19.0936  -33.7690 H   0  0  0  0  0  0  0  0  0  0  0  0
   -6.1559   17.4296  -33.4479 H   0  0  0  0  0  0  0  0  0  0  0  0
   -8.3663   18.1375  -32.5524 H   0  0  0  0  0  0  0  0  0  0  0  0
   -9.8529   19.8737  -31.7448 H   0  0  0  0  0  0  0  0  0  0  0  0
  -10.2951   22.2679  -31.2125 H   0  0  0  0  0  0  0  0  0  0  0  0
   -8.5210   23.9787  -31.5725 H   0  0  0  0  0  0  0  0  0  0  0  0
   -6.2867   23.3087  -32.4460 H   0  0  0  0  0  0  0  0  0  0  0  0
  1  2  1  0
  2  3  1  0
  3  4  1  0
  4  5  1  0
  5  6  2  0
  6  7  1  0
  7  8  2  0
  8  9  1  0
  3 10  1  0
 10 11  2  0
 10 12  1  0
 12 13  1  0
 13 14  1  0
 14 15  2  0
 15 16  1  0
 16 17  2  0
 17 18  1  0
 18 19  2  0
 19 20  1  0
 20 21  2  0
 21 22  1  0
 22 23  2  0
  9  5  1  0
 23 14  1  0
 23 18  1  0
  1 24  1  0
  1 25  1  0
  1 26  1  0
  2 27  1  0
  2 28  1  0
  4 29  1  0
  4 30  1  0
  6 31  1  0
  7 32  1  0
  8 33  1  0
 12 34  1  0
 12 35  1  0
 13 36  1  0
 15 37  1  0
 16 38  1  0
 17 39  1  0
 19 40  1  0
 20 41  1  0
 21 42  1  0
 22 43  1  0
M  END
>  <UniqueID>  (40) 
40

>  <SMILES>  (40) 
CCN(Cc1ccco1)C(=O)CNc1cccc2ccccc12

>  <Energy>  (40) 
73.3003240501327

>  <Genealogy>  (40) 
CCN(Cc1ccco1)C(=O)CNc1cccc2ccccc12 (3D coordinates assigned)
CCN(Cc1ccco1)C(=O)CNc1cccc2ccccc12 (optimized conformer: 73.3003240501327 kcal/mol)

>  <smiles>  (40) 
CCN(Cc1ccco1)C(=O)CNc1cccc2ccccc12

>  <score_type>  (40) 
oracle

>  <origin>  (40) 
adg

>  <m_score__min__energy>  (40) 
-9.3699999999999992

>  <m_primary>  (40) 
energy

$$$$
40:0
     RDKit          3D

 42 45  0  0  0  0  0  0  0  0999 V2000
   -2.4560   24.4920  -28.4270 C   0  0  0  0  0  0  0  0  0  0  0  0
   -2.8960   24.8580  -29.7310 O   0  0  0  0  0  0  0  0  0  0  0  0
   -4.0970   24.4240  -30.3130 C   0  0  0  0  0  0  0  0  0  0  0  0
   -5.1930   25.2950  -30.3060 C   0  0  0  0  0  0  0  0  0  0  0  0
   -6.4080   24.9090  -30.8780 C   0  0  0  0  0  0  0  0  0  0  0  0
   -6.5380   23.6470  -31.4620 C   0  0  0  0  0  0  0  0  0  0  0  0
   -5.4530   22.7610  -31.4700 C   0  0  0  0  0  0  0  0  0  0  0  0
   -5.5820   21.4670  -32.0790 N   0  0  0  0  0  0  0  0  0  0  0  0
   -6.6610   20.6400  -32.0270 C   0  0  0  0  0  0  0  0  0  0  0  0
   -6.3760   19.4450  -32.6990 C   0  0  0  0  0  0  0  0  0  0  0  0
   -5.0770   19.5730  -33.1610 C   0  0  0  0  0  0  0  0  0  0  0  0
   -4.2640   18.6910  -33.8780 C   0  0  0  0  0  0  0  0  0  0  0  0
   -2.9600   19.1090  -34.1990 C   0  0  0  0  0  0  0  0  0  0  0  0
   -2.5000   20.3820  -33.8020 C   0  0  0  0  0  0  0  0  0  0  0  0
   -3.3370   21.2480  -33.0780 C   0  0  0  0  0  0  0  0  0  0  0  0
   -4.6270   20.8080  -32.7670 C   0  0  0  0  0  0  0  0  0  0  0  0
   -7.2520   18.2270  -32.7760 C   0  0  0  0  0  0  0  0  0  0  0  0
   -8.6910   18.5130  -32.3150 C   0  0  0  0  0  0  0  0  0  0  0  0
   -9.3170   19.7020  -32.9230 N   0  0  0  0  0  0  0  0  0  0  0  0
   -9.2240   20.9150  -32.0940 C   0  0  0  0  0  0  0  0  0  0  0  0
   -7.9270   20.9640  -31.2630 C   0  0  0  0  0  0  0  0  0  0  0  0
   -4.2330   23.1510  -30.9010 C   0  0  0  0  0  0  0  0  0  0  0  0
   -3.0728   25.0051  -27.6745 H   0  0  0  0  0  0  0  0  0  0  0  0
   -2.5520   23.4036  -28.2996 H   0  0  0  0  0  0  0  0  0  0  0  0
   -1.4033   24.7846  -28.2996 H   0  0  0  0  0  0  0  0  0  0  0  0
   -5.0970   26.2901  -29.8471 H   0  0  0  0  0  0  0  0  0  0  0  0
   -7.2636   25.6003  -30.8683 H   0  0  0  0  0  0  0  0  0  0  0  0
   -7.4941   23.3482  -31.9165 H   0  0  0  0  0  0  0  0  0  0  0  0
   -4.6326   17.7002  -34.1820 H   0  0  0  0  0  0  0  0  0  0  0  0
   -2.2946   18.4390  -34.7632 H   0  0  0  0  0  0  0  0  0  0  0  0
   -1.4790   20.6990  -34.0609 H   0  0  0  0  0  0  0  0  0  0  0  0
   -2.9874   22.2429  -32.7651 H   0  0  0  0  0  0  0  0  0  0  0  0
   -7.2777   17.8750  -33.8178 H   0  0  0  0  0  0  0  0  0  0  0  0
   -6.8288   17.4651  -32.1049 H   0  0  0  0  0  0  0  0  0  0  0  0
   -9.3090   17.6376  -32.5635 H   0  0  0  0  0  0  0  0  0  0  0  0
   -8.6328   18.7152  -31.2353 H   0  0  0  0  0  0  0  0  0  0  0  0
   -8.9180   19.8690  -33.8780 H   0  0  0  0  0  0  0  0  0  0  0  0
   -9.2545   21.7955  -32.7526 H   0  0  0  0  0  0  0  0  0  0  0  0
  -10.0707   20.9056  -31.3918 H   0  0  0  0  0  0  0  0  0  0  0  0
   -7.8253   21.9784  -30.8499 H   0  0  0  0  0  0  0  0  0  0  0  0
   -8.0275   20.1849  -30.4930 H   0  0  0  0  0  0  0  0  0  0  0  0
   -3.3774   22.4597  -30.9136 H   0  0  0  0  0  0  0  0  0  0  0  0
  1  2  1  0
  2  3  1  0
  3  4  2  0
  4  5  1  0
  5  6  2  0
  6  7  1  0
  7  8  1  0
  8  9  1  0
  9 10  2  0
 10 11  1  0
 11 12  2  0
 12 13  1  0
 13 14  2  0
 14 15  1  0
 15 16  2  0
 10 17  1  0
 17 18  1  0
 18 19  1  0
 19 20  1  0
 20 21  1  0
  7 22  2  0
 22  3  1  0
 16  8  1  0
 21  9  1  0
 16 11  1  0
  1 23  1  0
  1 24  1  0
  1 25  1  0
  4 26  1  0
  5 27  1  0
  6 28  1  0
 12 29  1  0
 13 30  1  0
 14 31  1  0
 15 32  1  0
 17 33  1  0
 17 34  1  0
 18 35  1  0
 18 36  1  0
 19 37  1  0
 20 38  1  0
 20 39  1  0
 21 40  1  0
 21 41  1  0
 22 42  1  0
M  END
>  <UniqueID>  (41) 
41

>  <SMILES>  (41) 
COc1cccc(-n2c3c(c4ccccc42)CCNCC3)c1

>  <Energy>  (41) 
93.6843204464332

>  <Genealogy>  (41) 
COc1cccc(-n2c3c(c4ccccc42)CCNCC3)c1 (3D coordinates assigned)
COc1cccc(-n2c3c(c4ccccc42)CCNCC3)c1 (nonaromatic ring conformer: 93.6843204464332 kcal/mol)

>  <smiles>  (41) 
COc1cccc(-n2c3c(c4ccccc42)CCNCC3)c1

>  <score_type>  (41) 
oracle

>  <origin>  (41) 
adg

>  <m_score__min__energy>  (41) 
-8.0700000000000003

>  <m_primary>  (41) 
energy

$$$$
42:0
     RDKit          3D

 60 62  0  0  0  0  0  0  0  0999 V2000
   -2.6710   20.7340  -27.5950 C   0  0  0  0  0  0  0  0  0  0  0  0
   -1.6990   21.8680  -27.8950 C   0  0  0  0  0  0  0  0  0  0  0  0
   -1.2290   21.7830  -29.2960 N   0  0  0  0  0  0  0  0  0  0  0  0
   -1.9850   20.7600  -30.0400 C   0  0  0  0  0  0  0  0  0  0  0  0
   -1.3030   23.0970  -29.9730 C   0  0  0  0  0  0  0  0  0  0  0  0
   -1.4430   24.2050  -28.9260 C   0  0  0  0  0  0  0  0  0  0  0  0
   -2.4310   25.1960  -29.3390 N   0  0  0  0  0  0  0  0  0  0  0  0
   -3.6950   24.8690  -29.9270 C   0  0  0  0  0  0  0  0  0  0  0  0
   -4.1790   25.5830  -30.8460 O   0  0  0  0  0  0  0  0  0  0  0  0
   -4.4550   23.6790  -29.4290 C   0  0  0  0  0  0  0  0  0  0  0  0
   -4.7280   22.7030  -30.5760 C   0  0  0  0  0  0  0  0  0  0  0  0
   -6.1550   22.7910  -31.0230 C   0  0  0  0  0  0  0  0  0  0  0  0
   -6.8440   23.9470  -31.1650 N   0  0  0  0  0  0  0  0  0  0  0  0
   -8.0770   23.6410  -31.5680 N   0  0  0  0  0  0  0  0  0  0  0  0
   -8.1120   22.3040  -31.6630 C   0  0  0  0  0  0  0  0  0  0  0  0
   -9.1860   21.5060  -32.0300 C   0  0  0  0  0  0  0  0  0  0  0  0
   -8.9730   20.1200  -32.0320 C   0  0  0  0  0  0  0  0  0  0  0  0
   -7.7130   19.5990  -31.6630 C   0  0  0  0  0  0  0  0  0  0  0  0
   -7.4450   17.8290  -31.6240 S   0  0  0  0  0  0  0  0  0  0  0  0
   -7.2300   17.6530  -33.4280 C   0  0  0  0  0  0  0  0  0  0  0  0
   -5.9040   18.1920  -33.8720 C   0  0  0  0  0  0  0  0  0  0  0  0
   -5.4720   17.8970  -35.0180 O   0  0  0  0  0  0  0  0  0  0  0  0
   -5.0850   18.9220  -32.9440 N   0  0  0  0  0  0  0  0  0  0  0  0
   -3.8470   19.5720  -33.2790 C   0  0  0  0  0  0  0  0  0  0  0  0
   -3.6620   20.9540  -33.0890 C   0  0  0  0  0  0  0  0  0  0  0  0
   -2.4350   21.5490  -33.3930 C   0  0  0  0  0  0  0  0  0  0  0  0
   -1.3680   20.7760  -33.8670 C   0  0  0  0  0  0  0  0  0  0  0  0
   -0.0670   21.4300  -34.2290 C   0  0  0  0  0  0  0  0  0  0  0  0
   -1.5460   19.3980  -34.0500 C   0  0  0  0  0  0  0  0  0  0  0  0
   -2.7710   18.7980  -33.7450 C   0  0  0  0  0  0  0  0  0  0  0  0
   -6.7010   20.4490  -31.3220 N   0  0  0  0  0  0  0  0  0  0  0  0
   -6.9400   21.7570  -31.3400 N   0  0  0  0  0  0  0  0  0  0  0  0
   -2.7720   20.6161  -26.5060 H   0  0  0  0  0  0  0  0  0  0  0  0
   -3.6533   20.9680  -28.0312 H   0  0  0  0  0  0  0  0  0  0  0  0
   -2.2895   19.7990  -28.0312 H   0  0  0  0  0  0  0  0  0  0  0  0
   -2.2063   22.8316  -27.7400 H   0  0  0  0  0  0  0  0  0  0  0  0
   -0.8335   21.7858  -27.2211 H   0  0  0  0  0  0  0  0  0  0  0  0
   -2.4843   20.0844  -29.3299 H   0  0  0  0  0  0  0  0  0  0  0  0
   -2.7398   21.2498  -30.6727 H   0  0  0  0  0  0  0  0  0  0  0  0
   -1.2952   20.1822  -30.6727 H   0  0  0  0  0  0  0  0  0  0  0  0
   -0.3860   23.2598  -30.5583 H   0  0  0  0  0  0  0  0  0  0  0  0
   -2.1748   23.1147  -30.6435 H   0  0  0  0  0  0  0  0  0  0  0  0
   -1.7587   23.7593  -27.9712 H   0  0  0  0  0  0  0  0  0  0  0  0
   -0.4702   24.7064  -28.8157 H   0  0  0  0  0  0  0  0  0  0  0  0
   -3.8643   23.1703  -28.6529 H   0  0  0  0  0  0  0  0  0  0  0  0
   -5.4149   24.0173  -29.0118 H   0  0  0  0  0  0  0  0  0  0  0  0
   -4.0695   22.9483  -31.4223 H   0  0  0  0  0  0  0  0  0  0  0  0
   -4.5326   21.6801  -30.2218 H   0  0  0  0  0  0  0  0  0  0  0  0
  -10.1583   21.9399  -32.3063 H   0  0  0  0  0  0  0  0  0  0  0  0
   -9.7869   19.4387  -32.3208 H   0  0  0  0  0  0  0  0  0  0  0  0
   -7.2913   16.5875  -33.6942 H   0  0  0  0  0  0  0  0  0  0  0  0
   -8.0239   18.2251  -33.9304 H   0  0  0  0  0  0  0  0  0  0  0  0
   -5.3520   18.8820  -31.9330 H   0  0  0  0  0  0  0  0  0  0  0  0
   -4.4870   21.5685  -32.6994 H   0  0  0  0  0  0  0  0  0  0  0  0
   -2.3062   22.6332  -33.2589 H   0  0  0  0  0  0  0  0  0  0  0  0
    0.4745   21.7022  -33.3110 H   0  0  0  0  0  0  0  0  0  0  0  0
    0.5425   20.7312  -34.8207 H   0  0  0  0  0  0  0  0  0  0  0  0
   -0.2642   22.3361  -34.8207 H   0  0  0  0  0  0  0  0  0  0  0  0
   -0.7176   18.7856  -34.4356 H   0  0  0  0  0  0  0  0  0  0  0  0
   -2.8935   17.7121  -33.8707 H   0  0  0  0  0  0  0  0  0  0  0  0
  1  2  1  0
  2  3  1  0
  3  4  1  0
  3  5  1  0
  5  6  1  0
  6  7  1  0
  7  8  1  0
  8  9  2  0
  8 10  1  0
 10 11  1  0
 11 12  1  0
 12 13  2  0
 13 14  1  0
 14 15  2  0
 15 16  1  0
 16 17  2  0
 17 18  1  0
 18 19  1  0
 19 20  1  0
 20 21  1  0
 21 22  2  0
 21 23  1  0
 23 24  1  0
 24 25  2  0
 25 26  1  0
 26 27  2  0
 27 28  1  0
 27 29  1  0
 29 30  2  0
 18 31  2  0
 31 32  1  0
 32 12  1  0
 32 15  1  0
 30 24  1  0
  1 33  1  0
  1 34  1  0
  1 35  1  0
  2 36  1  0
  2 37  1  0
  4 38  1  0
  4 39  1  0
  4 40  1  0
  5 41  1  0
  5 42  1  0
  6 43  1  0
  6 44  1  0
 10 45  1  0
 10 46  1  0
 11 47  1  0
 11 48  1  0
 16 49  1  0
 17 50  1  0
 20 51  1  0
 20 52  1  0
 23 53  1  0
 25 54  1  0
 26 55  1  0
 28 56  1  0
 28 57  1  0
 28 58  1  0
 29 59  1  0
 30 60  1  0
M  CHG  1   7  -1
M  END
>  <UniqueID>  (42) 
42

>  <SMILES>  (42) 
CCN(C)CC[N-]C(=O)CCc1nnc2ccc(SCC(=O)Nc3ccc(C)cc3)nn12

>  <Energy>  (42) 
94.20833153312697

>  <Genealogy>  (42) 
CCN(C)CC[N-]C(=O)CCc1nnc2ccc(SCC(=O)Nc3ccc(C)cc3)nn12 (protonated)
CCN(C)CC[N-]C(=O)CCc1nnc2ccc(SCC(=O)Nc3ccc(C)cc3)nn12 (3D coordinates assigned)
CCN(C)CC[N-]C(=O)CCc1nnc2ccc(SCC(=O)Nc3ccc(C)cc3)nn12 (optimized conformer: 94.20833153312697 kcal/mol)

>  <smiles>  (42) 
CCN(C)CCNC(=O)CCc1nnc2ccc(SCC(=O)Nc3ccc(C)cc3)nn12

>  <score_type>  (42) 
oracle

>  <origin>  (42) 
adg

>  <m_score__min__energy>  (42) 
-11.31

>  <m_primary>  (42) 
energy

$$$$
43:0
     RDKit          3D

 44 46  0  0  0  0  0  0  0  0999 V2000
   -8.9689   19.1993  -32.4335 H   0  0  0  0  0  0  0  0  0  0  0  0
   -8.4390   20.1490  -32.2680 C   0  0  0  0  0  0  0  0  0  0  0  0
   -9.0150   21.1410  -31.4700 C   0  0  0  0  0  0  0  0  0  0  0  0
   -9.9988   20.9711  -31.0082 H   0  0  0  0  0  0  0  0  0  0  0  0
   -8.3440   22.3490  -31.2570 C   0  0  0  0  0  0  0  0  0  0  0  0
   -8.8031   23.1285  -30.6312 H   0  0  0  0  0  0  0  0  0  0  0  0
   -7.0850   22.5700  -31.8400 C   0  0  0  0  0  0  0  0  0  0  0  0
   -6.3730   23.8830  -31.6570 C   0  0  0  0  0  0  0  0  0  0  0  0
   -6.6258   24.3002  -30.6711 H   0  0  0  0  0  0  0  0  0  0  0  0
   -6.6889   24.5785  -32.4485 H   0  0  0  0  0  0  0  0  0  0  0  0
   -4.9290   23.6840  -31.7420 N   0  0  0  0  0  0  0  0  0  0  0  0
   -4.1170   23.7660  -30.7290 C   0  0  0  0  0  0  0  0  0  0  0  0
   -3.4930   24.9190  -30.3620 N   0  0  0  0  0  0  0  0  0  0  0  0
   -2.7340   24.5240  -29.3230 C   0  0  0  0  0  0  0  0  0  0  0  0
   -1.8580   25.3030  -28.5710 C   0  0  0  0  0  0  0  0  0  0  0  0
   -1.7360   26.3775  -28.7725 H   0  0  0  0  0  0  0  0  0  0  0  0
   -1.1340   24.6680  -27.5440 C   0  0  0  0  0  0  0  0  0  0  0  0
   -0.4371   25.2521  -26.9251 H   0  0  0  0  0  0  0  0  0  0  0  0
   -1.2970   23.2840  -27.3030 C   0  0  0  0  0  0  0  0  0  0  0  0
   -0.7240   22.7983  -26.4994 H   0  0  0  0  0  0  0  0  0  0  0  0
   -2.1870   22.5240  -28.0840 C   0  0  0  0  0  0  0  0  0  0  0  0
   -2.3193   21.4459  -27.9104 H   0  0  0  0  0  0  0  0  0  0  0  0
   -2.8960   23.1870  -29.0870 C   0  0  0  0  0  0  0  0  0  0  0  0
   -3.7810   22.6930  -29.9690 N   0  0  0  0  0  0  0  0  0  0  0  0
   -4.1690   21.2940  -30.1720 C   0  0  0  0  0  0  0  0  0  0  0  0
   -5.2636   21.2348  -30.2638 H   0  0  0  0  0  0  0  0  0  0  0  0
   -3.8201   20.7068  -29.3098 H   0  0  0  0  0  0  0  0  0  0  0  0
   -3.5270   20.7190  -31.4450 C   0  0  0  0  0  0  0  0  0  0  0  0
   -4.1882   19.9435  -31.8591 H   0  0  0  0  0  0  0  0  0  0  0  0
   -2.5472   20.2977  -31.1756 H   0  0  0  0  0  0  0  0  0  0  0  0
   -3.3150   21.7620  -32.4660 N   0  0  0  0  0  0  0  0  0  0  0  0
   -4.2180   21.9900  -32.9440 H   0  0  0  0  0  0  0  0  0  0  0  0
   -2.9660   22.6270  -31.9920 H   0  0  0  0  0  0  0  0  0  0  0  0
   -2.3010   21.3670  -33.4600 C   0  0  0  0  0  0  0  0  0  0  0  0
   -1.3052   21.6256  -33.0709 H   0  0  0  0  0  0  0  0  0  0  0  0
   -2.5201   21.9040  -34.3947 H   0  0  0  0  0  0  0  0  0  0  0  0
   -2.3360   19.8660  -33.7640 C   0  0  0  0  0  0  0  0  0  0  0  0
   -2.3492   19.3010  -32.8203 H   0  0  0  0  0  0  0  0  0  0  0  0
   -3.2399   19.6305  -34.3450 H   0  0  0  0  0  0  0  0  0  0  0  0
   -1.4441   19.5887  -34.3450 H   0  0  0  0  0  0  0  0  0  0  0  0
   -6.5130   21.5700  -32.6450 C   0  0  0  0  0  0  0  0  0  0  0  0
   -5.5304   21.7364  -33.1106 H   0  0  0  0  0  0  0  0  0  0  0  0
   -7.1890   20.3640  -32.8560 C   0  0  0  0  0  0  0  0  0  0  0  0
   -6.7366   19.5836  -33.4855 H   0  0  0  0  0  0  0  0  0  0  0  0
  1  2  1  0
  2  3  2  0
  3  4  1  0
  3  5  1  0
  5  6  1  0
  5  7  2  0
  7  8  1  0
  8  9  1  0
  8 10  1  0
  8 11  1  0
 11 12  2  0
 12 13  1  0
 13 14  1  0
 14 15  2  0
 15 16  1  0
 15 17  1  0
 17 18  1  0
 17 19  2  0
 19 20  1  0
 19 21  1  0
 21 22  1  0
 21 23  2  0
 23 24  1  0
 24 25  1  0
 25 26  1  0
 25 27  1  0
 25 28  1  0
 28 29  1  0
 28 30  1  0
 28 31  1  0
 31 32  1  0
 31 33  1  0
 31 34  1  0
 34 35  1  0
 34 36  1  0
 34 37  1  0
 37 38  1  0
 37 39  1  0
 37 40  1  0
  7 41  1  0
 41 42  1  0
 41 43  2  0
 43 44  1  0
 43  2  1  0
 24 12  1  0
 23 14  1  0
M  CHG  2  13  -1  31   1
M  END
>  <UniqueID>  (43) 
43

>  <SMILES>  (43) 
CC[NH2+]CCn1/c(=N/Cc2ccccc2)[n-]c2ccccc21

>  <Energy>  (43) 
76.65247943328595

>  <Genealogy>  (43) 
CC[NH2+]CCn1c(=NCc2ccccc2)[n-]c2ccccc21 (protonated)
CC[NH2+]CCn1/c(=N/Cc2ccccc2)[n-]c2ccccc21 (cis-trans isomerization)
CC[NH2+]CCn1/c(=N/Cc2ccccc2)[n-]c2ccccc21 (3D coordinates assigned)
CC[NH2+]CCn1/c(=N/Cc2ccccc2)[n-]c2ccccc21 (optimized conformer: 76.65247943328595 kcal/mol)

>  <smiles>  (43) 
CCNCCn1c(=NCc2ccccc2)[nH]c2ccccc21

>  <score_type>  (43) 
oracle

>  <origin>  (43) 
adg

>  <m_score__min__energy>  (43) 
-8.1500000000000004

>  <m_primary>  (43) 
energy

$$$$
44:0
     RDKit          3D

 58 60  0  0  0  0  0  0  0  0999 V2000
   -5.7600   18.4910  -34.9030 C   0  0  0  0  0  0  0  0  0  0  0  0
   -4.8240   17.7760  -33.9170 C   0  0  0  0  0  0  0  0  0  0  0  0
   -3.4170   18.2450  -33.9500 N   0  0  0  0  0  0  0  0  0  0  0  0
   -2.4990   17.4010  -34.7560 C   0  0  0  0  0  0  0  0  0  0  0  0
   -3.1510   16.1560  -35.3630 C   0  0  0  0  0  0  0  0  0  0  0  0
   -2.9020   18.7480  -32.6540 C   0  0  0  0  0  0  0  0  0  0  0  0
   -2.6360   20.2560  -32.6840 C   0  0  0  0  0  0  0  0  0  0  0  0
   -3.3310   20.8690  -33.8240 N   0  0  0  0  0  0  0  0  0  0  0  0
   -3.8590   22.1950  -33.4740 C   0  0  0  0  0  0  0  0  0  0  0  0
   -3.9930   22.3260  -31.9810 C   0  0  0  0  0  0  0  0  0  0  0  0
   -3.1800   23.0970  -31.1710 C   0  0  0  0  0  0  0  0  0  0  0  0
   -3.7180   23.1420  -29.9340 N   0  0  0  0  0  0  0  0  0  0  0  0
   -3.1990   23.8610  -28.7990 C   0  0  0  0  0  0  0  0  0  0  0  0
   -1.8510   24.2640  -28.7660 C   0  0  0  0  0  0  0  0  0  0  0  0
   -1.3450   24.9580  -27.6630 C   0  0  0  0  0  0  0  0  0  0  0  0
   -2.1770   25.2580  -26.5810 C   0  0  0  0  0  0  0  0  0  0  0  0
   -1.4820   26.2060  -25.0750 Br  0  0  0  0  0  0  0  0  0  0  0  0
   -3.5170   24.8640  -26.6020 C   0  0  0  0  0  0  0  0  0  0  0  0
   -4.0270   24.1700  -27.7030 C   0  0  0  0  0  0  0  0  0  0  0  0
   -4.8450   22.4430  -29.9310 N   0  0  0  0  0  0  0  0  0  0  0  0
   -5.0440   21.9300  -31.1590 C   0  0  0  0  0  0  0  0  0  0  0  0
   -6.2540   21.1760  -31.5420 C   0  0  0  0  0  0  0  0  0  0  0  0
   -7.4690   21.8370  -31.7760 C   0  0  0  0  0  0  0  0  0  0  0  0
   -8.6150   21.1080  -32.1100 C   0  0  0  0  0  0  0  0  0  0  0  0
   -8.5600   19.7100  -32.2080 C   0  0  0  0  0  0  0  0  0  0  0  0
   -9.7810   18.9280  -32.5950 C   0  0  0  0  0  0  0  0  0  0  0  0
   -7.3370   19.0520  -32.0090 C   0  0  0  0  0  0  0  0  0  0  0  0
   -6.1910   19.7810  -31.6810 C   0  0  0  0  0  0  0  0  0  0  0  0
   -6.5124   19.0658  -34.3431 H   0  0  0  0  0  0  0  0  0  0  0  0
   -5.1737   19.1733  -35.5360 H   0  0  0  0  0  0  0  0  0  0  0  0
   -6.2641   17.7459  -35.5360 H   0  0  0  0  0  0  0  0  0  0  0  0
   -5.2136   17.9313  -32.9001 H   0  0  0  0  0  0  0  0  0  0  0  0
   -4.8067   16.7174  -34.2156 H   0  0  0  0  0  0  0  0  0  0  0  0
   -2.0996   18.0147  -35.5769 H   0  0  0  0  0  0  0  0  0  0  0  0
   -1.7187   17.0423  -34.0686 H   0  0  0  0  0  0  0  0  0  0  0  0
   -3.4979   15.4935  -34.5563 H   0  0  0  0  0  0  0  0  0  0  0  0
   -4.0074   16.4566  -35.9844 H   0  0  0  0  0  0  0  0  0  0  0  0
   -2.4161   15.6233  -35.9844 H   0  0  0  0  0  0  0  0  0  0  0  0
   -3.6443   18.5346  -31.8708 H   0  0  0  0  0  0  0  0  0  0  0  0
   -1.9477   18.2405  -32.4496 H   0  0  0  0  0  0  0  0  0  0  0  0
   -3.0004   20.7083  -31.7498 H   0  0  0  0  0  0  0  0  0  0  0  0
   -1.5545   20.4287  -32.7867 H   0  0  0  0  0  0  0  0  0  0  0  0
   -2.6280   20.9990  -34.5890 H   0  0  0  0  0  0  0  0  0  0  0  0
   -3.1717   22.9691  -33.8460 H   0  0  0  0  0  0  0  0  0  0  0  0
   -4.8503   22.3185  -33.9346 H   0  0  0  0  0  0  0  0  0  0  0  0
   -2.2486   23.5920  -31.4831 H   0  0  0  0  0  0  0  0  0  0  0  0
   -1.1907   24.0312  -29.6144 H   0  0  0  0  0  0  0  0  0  0  0  0
   -0.2899   25.2686  -27.6467 H   0  0  0  0  0  0  0  0  0  0  0  0
   -4.1721   25.1003  -25.7505 H   0  0  0  0  0  0  0  0  0  0  0  0
   -5.0832   23.8630  -27.7132 H   0  0  0  0  0  0  0  0  0  0  0  0
   -5.4920   22.3460  -29.1150 H   0  0  0  0  0  0  0  0  0  0  0  0
   -7.5206   22.9329  -31.6965 H   0  0  0  0  0  0  0  0  0  0  0  0
   -9.5633   21.6333  -32.2966 H   0  0  0  0  0  0  0  0  0  0  0  0
  -10.3045   18.5927  -31.6875 H   0  0  0  0  0  0  0  0  0  0  0  0
  -10.4511   19.5654  -33.1906 H   0  0  0  0  0  0  0  0  0  0  0  0
   -9.4823   18.0527  -33.1906 H   0  0  0  0  0  0  0  0  0  0  0  0
   -7.2801   17.9583  -32.1116 H   0  0  0  0  0  0  0  0  0  0  0  0
   -5.2346   19.2588  -31.5310 H   0  0  0  0  0  0  0  0  0  0  0  0
  1  2  1  0
  2  3  1  0
  3  4  1  0
  4  5  1  0
  3  6  1  0
  6  7  1  0
  7  8  1  0
  8  9  1  0
  9 10  1  0
 10 11  2  0
 11 12  1  0
 12 13  1  0
 13 14  2  0
 14 15  1  0
 15 16  2  0
 16 17  1  0
 16 18  1  0
 18 19  2  0
 12 20  1  0
 20 21  2  0
 21 22  1  0
 22 23  2  0
 23 24  1  0
 24 25  2  0
 25 26  1  0
 25 27  1  0
 27 28  2  0
 21 10  1  0
 28 22  1  0
 19 13  1  0
  1 29  1  0
  1 30  1  0
  1 31  1  0
  2 32  1  0
  2 33  1  0
  4 34  1  0
  4 35  1  0
  5 36  1  0
  5 37  1  0
  5 38  1  0
  6 39  1  0
  6 40  1  0
  7 41  1  0
  7 42  1  0
  8 43  1  0
  9 44  1  0
  9 45  1  0
 11 46  1  0
 14 47  1  0
 15 48  1  0
 18 49  1  0
 19 50  1  0
 20 51  1  0
 23 52  1  0
 24 53  1  0
 26 54  1  0
 26 55  1  0
 26 56  1  0
 27 57  1  0
 28 58  1  0
M  CHG  1  20   1
M  END
>  <UniqueID>  (44) 
44

>  <SMILES>  (44) 
CCN(CC)CCNCc1cn(-c2ccc(Br)cc2)[nH+]c1-c1ccc(C)cc1

>  <Energy>  (44) 
99.48202283249076

>  <Genealogy>  (44) 
CCN(CC)CCNCc1cn(-c2ccc(Br)cc2)[nH+]c1-c1ccc(C)cc1 (protonated)
CCN(CC)CCNCc1cn(-c2ccc(Br)cc2)[nH+]c1-c1ccc(C)cc1 (3D coordinates assigned)
CCN(CC)CCNCc1cn(-c2ccc(Br)cc2)[nH+]c1-c1ccc(C)cc1 (optimized conformer: 99.48202283249076 kcal/mol)

>  <smiles>  (44) 
CCN(CC)CCNCc1cn(-c2ccc(Br)cc2)nc1-c1ccc(C)cc1

>  <score_type>  (44) 
oracle

>  <origin>  (44) 
adg

>  <m_score__min__energy>  (44) 
-7.7400000000000002

>  <m_primary>  (44) 
energy

$$$$
45:0
     RDKit          3D

 64 67  0  0  0  0  0  0  0  0999 V2000
   -4.6640   15.2000  -32.6400 C   0  0  0  0  0  0  0  0  0  0  0  0
   -5.3780   16.3060  -31.8640 C   0  0  0  0  0  0  0  0  0  0  0  0
   -5.9030   17.3590  -32.7650 N   0  0  0  0  0  0  0  0  0  0  0  0
   -5.0290   17.5690  -33.9400 C   0  0  0  0  0  0  0  0  0  0  0  0
   -5.7260   18.4550  -34.9670 C   0  0  0  0  0  0  0  0  0  0  0  0
   -7.3400   17.2170  -33.1230 C   0  0  0  0  0  0  0  0  0  0  0  0
   -8.2950   18.2390  -32.4650 C   0  0  0  0  0  0  0  0  0  0  0  0
   -8.0950   19.5960  -32.9750 N   0  0  0  0  0  0  0  0  0  0  0  0
   -7.2610   20.5950  -32.3560 C   0  0  0  0  0  0  0  0  0  0  0  0
   -7.7740   21.8260  -31.9100 C   0  0  0  0  0  0  0  0  0  0  0  0
   -6.9360   22.7660  -31.3010 C   0  0  0  0  0  0  0  0  0  0  0  0
   -5.5660   22.4970  -31.1270 C   0  0  0  0  0  0  0  0  0  0  0  0
   -4.6620   23.4800  -30.4810 C   0  0  0  0  0  0  0  0  0  0  0  0
   -3.9970   23.3390  -29.2760 C   0  0  0  0  0  0  0  0  0  0  0  0
   -3.2970   24.5240  -29.1410 C   0  0  0  0  0  0  0  0  0  0  0  0
   -2.4050   24.9270  -28.0310 C   0  0  0  0  0  0  0  0  0  0  0  0
   -2.8910   24.9290  -26.7140 C   0  0  0  0  0  0  0  0  0  0  0  0
   -2.0660   25.3080  -25.6510 C   0  0  0  0  0  0  0  0  0  0  0  0
   -0.7340   25.6860  -25.8830 C   0  0  0  0  0  0  0  0  0  0  0  0
    0.1130   26.0920  -24.7900 N   0  0  0  0  0  0  0  0  0  0  0  0
    1.3360   25.3510  -24.4610 C   0  0  0  0  0  0  0  0  0  0  0  0
    2.5400   26.3100  -24.3640 C   0  0  0  0  0  0  0  0  0  0  0  0
    2.1760   27.6910  -23.9810 N   0  0  0  0  0  0  0  0  0  0  0  0
    0.9580   27.7450  -23.1600 C   0  0  0  0  0  0  0  0  0  0  0  0
   -0.2530   27.2480  -23.9620 C   0  0  0  0  0  0  0  0  0  0  0  0
   -0.2490   25.6940  -27.2020 C   0  0  0  0  0  0  0  0  0  0  0  0
   -1.0730   25.3160  -28.2650 C   0  0  0  0  0  0  0  0  0  0  0  0
   -3.5500   25.2760  -30.1880 O   0  0  0  0  0  0  0  0  0  0  0  0
   -4.3630   24.6820  -31.0130 N   0  0  0  0  0  0  0  0  0  0  0  0
   -5.0550   21.2690  -31.5820 C   0  0  0  0  0  0  0  0  0  0  0  0
   -5.8940   20.3310  -32.1900 C   0  0  0  0  0  0  0  0  0  0  0  0
   -4.2070   14.4922  -31.9328 H   0  0  0  0  0  0  0  0  0  0  0  0
   -5.3901   14.6687  -33.2729 H   0  0  0  0  0  0  0  0  0  0  0  0
   -3.8809   15.6430  -33.2729 H   0  0  0  0  0  0  0  0  0  0  0  0
   -6.2165   15.8647  -31.3053 H   0  0  0  0  0  0  0  0  0  0  0  0
   -4.6501   16.7705  -31.1826 H   0  0  0  0  0  0  0  0  0  0  0  0
   -4.0961   18.0537  -33.6163 H   0  0  0  0  0  0  0  0  0  0  0  0
   -4.8077   16.5945  -34.3998 H   0  0  0  0  0  0  0  0  0  0  0  0
   -6.3254   19.2170  -34.4473 H   0  0  0  0  0  0  0  0  0  0  0  0
   -4.9718   18.9489  -35.5973 H   0  0  0  0  0  0  0  0  0  0  0  0
   -6.3836   17.8382  -35.5973 H   0  0  0  0  0  0  0  0  0  0  0  0
   -7.4293   17.3238  -34.2142 H   0  0  0  0  0  0  0  0  0  0  0  0
   -7.6484   16.2305  -32.7467 H   0  0  0  0  0  0  0  0  0  0  0  0
   -9.3325   17.9346  -32.6674 H   0  0  0  0  0  0  0  0  0  0  0  0
   -8.0825   18.2509  -31.3858 H   0  0  0  0  0  0  0  0  0  0  0  0
   -8.6140   19.8540  -33.8450 H   0  0  0  0  0  0  0  0  0  0  0  0
   -8.8426   22.0515  -32.0410 H   0  0  0  0  0  0  0  0  0  0  0  0
   -7.3518   23.7239  -30.9551 H   0  0  0  0  0  0  0  0  0  0  0  0
   -4.0198   22.4830  -28.5856 H   0  0  0  0  0  0  0  0  0  0  0  0
   -3.9309   24.6295  -26.5166 H   0  0  0  0  0  0  0  0  0  0  0  0
   -2.4634   25.3101  -24.6253 H   0  0  0  0  0  0  0  0  0  0  0  0
    1.2013   24.8406  -23.4959 H   0  0  0  0  0  0  0  0  0  0  0  0
    1.5305   24.6155  -25.2555 H   0  0  0  0  0  0  0  0  0  0  0  0
    3.2382   25.9145  -23.6117 H   0  0  0  0  0  0  0  0  0  0  0  0
    2.9871   26.3641  -25.3676 H   0  0  0  0  0  0  0  0  0  0  0  0
    2.0120   28.2500  -24.8520 H   0  0  0  0  0  0  0  0  0  0  0  0
    1.0908   27.1083  -22.2729 H   0  0  0  0  0  0  0  0  0  0  0  0
    0.7799   28.7869  -22.8555 H   0  0  0  0  0  0  0  0  0  0  0  0
   -1.0521   26.9548  -23.2652 H   0  0  0  0  0  0  0  0  0  0  0  0
   -0.5992   28.0590  -24.6195 H   0  0  0  0  0  0  0  0  0  0  0  0
    0.7888   26.0007  -27.3992 H   0  0  0  0  0  0  0  0  0  0  0  0
   -0.6780   25.3225  -29.2916 H   0  0  0  0  0  0  0  0  0  0  0  0
   -3.9853   21.0443  -31.4584 H   0  0  0  0  0  0  0  0  0  0  0  0
   -5.4775   19.3757  -32.5420 H   0  0  0  0  0  0  0  0  0  0  0  0
  1  2  1  0
  2  3  1  0
  3  4  1  0
  4  5  1  0
  3  6  1  0
  6  7  1  0
  7  8  1  0
  8  9  1  0
  9 10  2  0
 10 11  1  0
 11 12  2  0
 12 13  1  0
 13 14  1  0
 14 15  2  0
 15 16  1  0
 16 17  2  0
 17 18  1  0
 18 19  2  0
 19 20  1  0
 20 21  1  0
 21 22  1  0
 22 23  1  0
 23 24  1  0
 24 25  1  0
 19 26  1  0
 26 27  2  0
 15 28  1  0
 28 29  1  0
 12 30  1  0
 30 31  2  0
 31  9  1  0
 29 13  2  0
 27 16  1  0
 25 20  1  0
  1 32  1  0
  1 33  1  0
  1 34  1  0
  2 35  1  0
  2 36  1  0
  4 37  1  0
  4 38  1  0
  5 39  1  0
  5 40  1  0
  5 41  1  0
  6 42  1  0
  6 43  1  0
  7 44  1  0
  7 45  1  0
  8 46  1  0
 10 47  1  0
 11 48  1  0
 14 49  1  0
 17 50  1  0
 18 51  1  0
 21 52  1  0
 21 53  1  0
 22 54  1  0
 22 55  1  0
 23 56  1  0
 24 57  1  0
 24 58  1  0
 25 59  1  0
 25 60  1  0
 26 61  1  0
 27 62  1  0
 30 63  1  0
 31 64  1  0
M  END
>  <UniqueID>  (45) 
45

>  <SMILES>  (45) 
CCN(CC)CCNc1ccc(-c2cc(-c3ccc(N4CCNCC4)cc3)on2)cc1

>  <Energy>  (45) 
108.29552138185569

>  <Genealogy>  (45) 
CCN(CC)CCNc1ccc(-c2cc(-c3ccc(N4CCNCC4)cc3)on2)cc1 (3D coordinates assigned)
CCN(CC)CCNc1ccc(-c2cc(-c3ccc(N4CCNCC4)cc3)on2)cc1 (nonaromatic ring conformer: 108.29552138185569 kcal/mol)

>  <smiles>  (45) 
CCN(CC)CCNc1ccc(-c2cc(-c3ccc(N4CCNCC4)cc3)on2)cc1

>  <score_type>  (45) 
oracle

>  <origin>  (45) 
adg

>  <m_score__min__energy>  (45) 
-10.380000000000001

>  <m_primary>  (45) 
energy

$$$$
46:0
     RDKit          3D

 78 79  0  0  0  0  0  0  0  0999 V2000
   -2.9710   20.0280  -28.4120 H   0  0  0  0  0  0  0  0  0  0  0  0
   -3.4340   20.7720  -28.9170 O   0  0  0  0  0  0  0  0  0  0  0  0
   -2.9500   22.0820  -28.9330 C   0  0  0  0  0  0  0  0  0  0  0  0
   -3.7540   23.0850  -29.4840 C   0  0  0  0  0  0  0  0  0  0  0  0
   -4.7435   22.8257  -29.8886 H   0  0  0  0  0  0  0  0  0  0  0  0
   -3.3150   24.4210  -29.5280 C   0  0  0  0  0  0  0  0  0  0  0  0
   -4.1300   25.4670  -30.0980 N   0  0  0  0  0  0  0  0  0  0  0  0
   -3.8620   26.4620  -29.9230 H   0  0  0  0  0  0  0  0  0  0  0  0
   -5.3140   25.2480  -30.9320 C   0  0  0  0  0  0  0  0  0  0  0  0
   -5.0451   24.6024  -31.7810 H   0  0  0  0  0  0  0  0  0  0  0  0
   -5.6785   26.2195  -31.2972 H   0  0  0  0  0  0  0  0  0  0  0  0
   -6.4310   24.5700  -30.1110 C   0  0  0  0  0  0  0  0  0  0  0  0
   -7.1114   25.3545  -29.7482 H   0  0  0  0  0  0  0  0  0  0  0  0
   -5.9266   24.0198  -29.3030 H   0  0  0  0  0  0  0  0  0  0  0  0
   -7.2380   23.5680  -30.8530 N   0  0  0  0  0  0  0  0  0  0  0  0
   -6.7810   23.2790  -32.2300 C   0  0  0  0  0  0  0  0  0  0  0  0
   -6.6451   24.2349  -32.7571 H   0  0  0  0  0  0  0  0  0  0  0  0
   -7.5507   22.6449  -32.6941 H   0  0  0  0  0  0  0  0  0  0  0  0
   -5.4650   22.5000  -32.2990 C   0  0  0  0  0  0  0  0  0  0  0  0
   -5.1096   22.2896  -31.2795 H   0  0  0  0  0  0  0  0  0  0  0  0
   -5.6274   21.5524  -32.8335 H   0  0  0  0  0  0  0  0  0  0  0  0
   -4.7124   23.0982  -32.8335 H   0  0  0  0  0  0  0  0  0  0  0  0
   -7.7050   22.3820  -30.1040 C   0  0  0  0  0  0  0  0  0  0  0  0
   -6.8526   21.7087  -29.9307 H   0  0  0  0  0  0  0  0  0  0  0  0
   -8.1332   22.7201  -29.1488 H   0  0  0  0  0  0  0  0  0  0  0  0
   -8.7850   21.6290  -30.8780 C   0  0  0  0  0  0  0  0  0  0  0  0
   -9.4754   21.1476  -30.1698 H   0  0  0  0  0  0  0  0  0  0  0  0
   -9.3424   22.3353  -31.5108 H   0  0  0  0  0  0  0  0  0  0  0  0
   -8.3150   20.8618  -31.5108 H   0  0  0  0  0  0  0  0  0  0  0  0
   -2.0570   24.7370  -28.9860 C   0  0  0  0  0  0  0  0  0  0  0  0
   -1.5930   26.0480  -28.9970 O   0  0  0  0  0  0  0  0  0  0  0  0
   -1.2520   23.7380  -28.4300 C   0  0  0  0  0  0  0  0  0  0  0  0
   -0.2739   24.0023  -28.0017 H   0  0  0  0  0  0  0  0  0  0  0  0
   -1.6810   22.3970  -28.4130 C   0  0  0  0  0  0  0  0  0  0  0  0
   -0.8790   21.3460  -27.8430 N   0  0  0  0  0  0  0  0  0  0  0  0
   -0.6100   20.2010  -28.3890 C   0  0  0  0  0  0  0  0  0  0  0  0
   -1.3458   19.3841  -28.3544 H   0  0  0  0  0  0  0  0  0  0  0  0
    0.7120   19.9990  -29.0680 C   0  0  0  0  0  0  0  0  0  0  0  0
    1.2782   20.9412  -29.0268 H   0  0  0  0  0  0  0  0  0  0  0  0
    1.2394   19.1893  -28.5424 H   0  0  0  0  0  0  0  0  0  0  0  0
    0.5560   19.5810  -30.5370 C   0  0  0  0  0  0  0  0  0  0  0  0
    1.5213   19.7105  -31.0482 H   0  0  0  0  0  0  0  0  0  0  0  0
    0.2335   18.5296  -30.5603 H   0  0  0  0  0  0  0  0  0  0  0  0
   -0.5080   20.4230  -31.2620 C   0  0  0  0  0  0  0  0  0  0  0  0
   -0.6876   21.3395  -30.6808 H   0  0  0  0  0  0  0  0  0  0  0  0
   -0.1248   20.6481  -32.2682 H   0  0  0  0  0  0  0  0  0  0  0  0
   -1.8420   19.6770  -31.4290 C   0  0  0  0  0  0  0  0  0  0  0  0
   -1.6535   18.7288  -31.9537 H   0  0  0  0  0  0  0  0  0  0  0  0
   -2.2590   19.5057  -30.4256 H   0  0  0  0  0  0  0  0  0  0  0  0
   -2.8750   20.4940  -32.2360 C   0  0  0  0  0  0  0  0  0  0  0  0
   -3.8763   20.2859  -31.8309 H   0  0  0  0  0  0  0  0  0  0  0  0
   -2.5965   21.5536  -32.1379 H   0  0  0  0  0  0  0  0  0  0  0  0
   -2.8800   20.1780  -33.6820 N   0  0  0  0  0  0  0  0  0  0  0  0
   -3.4400   18.8420  -33.9790 C   0  0  0  0  0  0  0  0  0  0  0  0
   -3.4135   18.6709  -35.0653 H   0  0  0  0  0  0  0  0  0  0  0  0
   -2.8388   18.0795  -33.4622 H   0  0  0  0  0  0  0  0  0  0  0  0
   -4.8660   18.7520  -33.4960 C   0  0  0  0  0  0  0  0  0  0  0  0
   -5.7740   19.7800  -33.7990 C   0  0  0  0  0  0  0  0  0  0  0  0
   -5.4467   20.6374  -34.4054 H   0  0  0  0  0  0  0  0  0  0  0  0
   -7.0900   19.7200  -33.3350 C   0  0  0  0  0  0  0  0  0  0  0  0
   -7.7970   20.5261  -33.5807 H   0  0  0  0  0  0  0  0  0  0  0  0
   -7.5080   18.6380  -32.5600 C   0  0  0  0  0  0  0  0  0  0  0  0
   -8.5444   18.5940  -32.1940 H   0  0  0  0  0  0  0  0  0  0  0  0
   -6.6150   17.6100  -32.2470 C   0  0  0  0  0  0  0  0  0  0  0  0
   -6.9520   16.7596  -31.6360 H   0  0  0  0  0  0  0  0  0  0  0  0
   -5.2850   17.6570  -32.7100 C   0  0  0  0  0  0  0  0  0  0  0  0
   -4.3590   16.6450  -32.4070 O   0  0  0  0  0  0  0  0  0  0  0  0
   -4.6380   15.2510  -32.4610 C   0  0  0  0  0  0  0  0  0  0  0  0
   -4.7176   14.8531  -31.4386 H   0  0  0  0  0  0  0  0  0  0  0  0
   -5.5867   15.0873  -32.9931 H   0  0  0  0  0  0  0  0  0  0  0  0
   -3.8254   14.7348  -32.9931 H   0  0  0  0  0  0  0  0  0  0  0  0
   -1.5770   20.4300  -34.3410 C   0  0  0  0  0  0  0  0  0  0  0  0
   -1.7448   20.9414  -35.3004 H   0  0  0  0  0  0  0  0  0  0  0  0
   -0.9549   21.0624  -33.6905 H   0  0  0  0  0  0  0  0  0  0  0  0
   -0.8650   19.1050  -34.5900 C   0  0  0  0  0  0  0  0  0  0  0  0
   -0.6136   18.6372  -33.6267 H   0  0  0  0  0  0  0  0  0  0  0  0
   -1.5250   18.4358  -35.1615 H   0  0  0  0  0  0  0  0  0  0  0  0
    0.0573   19.2861  -35.1615 H   0  0  0  0  0  0  0  0  0  0  0  0
  1  2  1  0
  2  3  1  0
  3  4  2  0
  4  5  1  0
  4  6  1  0
  6  7  1  0
  7  8  1  0
  7  9  1  0
  9 10  1  0
  9 11  1  0
  9 12  1  0
 12 13  1  0
 12 14  1  0
 12 15  1  0
 15 16  1  0
 16 17  1  0
 16 18  1  0
 16 19  1  0
 19 20  1  0
 19 21  1  0
 19 22  1  0
 15 23  1  0
 23 24  1  0
 23 25  1  0
 23 26  1  0
 26 27  1  0
 26 28  1  0
 26 29  1  0
  6 30  2  0
 30 31  1  0
 30 32  1  0
 32 33  1  0
 32 34  2  0
 34 35  1  0
 35 36  2  0
 36 37  1  0
 36 38  1  0
 38 39  1  0
 38 40  1  0
 38 41  1  0
 41 42  1  0
 41 43  1  0
 41 44  1  0
 44 45  1  0
 44 46  1  0
 44 47  1  0
 47 48  1  0
 47 49  1  0
 47 50  1  0
 50 51  1  0
 50 52  1  0
 50 53  1  0
 53 54  1  0
 54 55  1  0
 54 56  1  0
 54 57  1  0
 57 58  2  0
 58 59  1  0
 58 60  1  0
 60 61  1  0
 60 62  2  0
 62 63  1  0
 62 64  1  0
 64 65  1  0
 64 66  2  0
 66 67  1  0
 67 68  1  0
 68 69  1  0
 68 70  1  0
 68 71  1  0
 53 72  1  0
 72 73  1  0
 72 74  1  0
 72 75  1  0
 75 76  1  0
 75 77  1  0
 75 78  1  0
 34  3  1  0
 66 57  1  0
M  CHG  1  31  -1
M  END
>  <UniqueID>  (46) 
46

>  <SMILES>  (46) 
CCN(CC)CCNc1cc(O)c(/N=C/CCCCCN(CC)Cc2ccccc2OC)cc1[O-]

>  <Energy>  (46) 
79.18410819355226

>  <Genealogy>  (46) 
CCN(CC)CCNc1cc(O)c(N=CCCCCCN(CC)Cc2ccccc2OC)cc1[O-] (protonated)
CCN(CC)CCNc1cc(O)c(/N=C/CCCCCN(CC)Cc2ccccc2OC)cc1[O-] (cis-trans isomerization)
CCN(CC)CCNc1cc(O)c(/N=C/CCCCCN(CC)Cc2ccccc2OC)cc1[O-] (3D coordinates assigned)
CCN(CC)CCNc1cc(O)c(/N=C/CCCCCN(CC)Cc2ccccc2OC)cc1[O-] (optimized conformer: 79.18410819355226 kcal/mol)

>  <smiles>  (46) 
CCN(CC)CCNc1cc(O)c(N=CCCCCCN(CC)Cc2ccccc2OC)cc1O

>  <score_type>  (46) 
oracle

>  <origin>  (46) 
adg

>  <m_score__min__energy>  (46) 
-10.119999999999999

>  <m_primary>  (46) 
energy

$$$$
47:0
     RDKit          3D

 51 53  0  0  0  0  0  0  0  0999 V2000
   -2.5810   20.3290  -27.1980 C   0  0  0  0  0  0  0  0  0  0  0  0
   -3.4240   21.3970  -27.8890 C   0  0  0  0  0  0  0  0  0  0  0  0
   -2.5980   22.5760  -28.2290 N   0  0  0  0  0  0  0  0  0  0  0  0
   -1.5620   22.2760  -29.2500 C   0  0  0  0  0  0  0  0  0  0  0  0
   -2.0410   21.3540  -30.3850 C   0  0  0  0  0  0  0  0  0  0  0  0
   -3.4020   23.7780  -28.5570 C   0  0  0  0  0  0  0  0  0  0  0  0
   -2.8410   24.4750  -29.8010 C   0  0  0  0  0  0  0  0  0  0  0  0
   -3.8620   25.2950  -30.4510 N   0  0  0  0  0  0  0  0  0  0  0  0
   -5.2770   25.0520  -30.4310 C   0  0  0  0  0  0  0  0  0  0  0  0
   -6.0280   25.9030  -29.8890 O   0  0  0  0  0  0  0  0  0  0  0  0
   -5.8790   23.8340  -31.0060 C   0  0  0  0  0  0  0  0  0  0  0  0
   -5.0720   22.8840  -31.6670 C   0  0  0  0  0  0  0  0  0  0  0  0
   -5.7060   21.7620  -32.1890 C   0  0  0  0  0  0  0  0  0  0  0  0
   -5.2140   20.6540  -32.8390 C   0  0  0  0  0  0  0  0  0  0  0  0
   -3.9150   20.2890  -33.1870 C   0  0  0  0  0  0  0  0  0  0  0  0
   -3.7330   19.0510  -33.8280 C   0  0  0  0  0  0  0  0  0  0  0  0
   -4.8390   18.2140  -34.0980 C   0  0  0  0  0  0  0  0  0  0  0  0
   -6.1400   18.6060  -33.7340 C   0  0  0  0  0  0  0  0  0  0  0  0
   -6.3020   19.8460  -33.1060 C   0  0  0  0  0  0  0  0  0  0  0  0
   -7.4530   20.4150  -32.6630 N   0  0  0  0  0  0  0  0  0  0  0  0
   -8.8030   19.8440  -32.6960 C   0  0  0  0  0  0  0  0  0  0  0  0
   -8.9010   18.6660  -31.7340 C   0  0  0  0  0  0  0  0  0  0  0  0
   -7.0660   21.5840  -32.0930 C   0  0  0  0  0  0  0  0  0  0  0  0
   -7.8530   22.5430  -31.4570 C   0  0  0  0  0  0  0  0  0  0  0  0
   -7.2420   23.6510  -30.9410 N   0  0  0  0  0  0  0  0  0  0  0  0
   -2.6694   20.4410  -26.1073 H   0  0  0  0  0  0  0  0  0  0  0  0
   -2.9380   19.3316  -27.4943 H   0  0  0  0  0  0  0  0  0  0  0  0
   -1.5280   20.4445  -27.4943 H   0  0  0  0  0  0  0  0  0  0  0  0
   -3.8523   20.9780  -28.8115 H   0  0  0  0  0  0  0  0  0  0  0  0
   -4.2256   21.7122  -27.2049 H   0  0  0  0  0  0  0  0  0  0  0  0
   -1.2307   23.2261  -29.6944 H   0  0  0  0  0  0  0  0  0  0  0  0
   -0.7525   21.7423  -28.7305 H   0  0  0  0  0  0  0  0  0  0  0  0
   -2.5078   20.4555  -29.9552 H   0  0  0  0  0  0  0  0  0  0  0  0
   -2.7758   21.8878  -31.0056 H   0  0  0  0  0  0  0  0  0  0  0  0
   -1.1818   21.0596  -31.0056 H   0  0  0  0  0  0  0  0  0  0  0  0
   -4.4423   23.4765  -28.7490 H   0  0  0  0  0  0  0  0  0  0  0  0
   -3.3605   24.4766  -27.7083 H   0  0  0  0  0  0  0  0  0  0  0  0
   -1.9996   25.1181  -29.5036 H   0  0  0  0  0  0  0  0  0  0  0  0
   -2.5070   23.7049  -30.5119 H   0  0  0  0  0  0  0  0  0  0  0  0
   -3.9855   23.0252  -31.7654 H   0  0  0  0  0  0  0  0  0  0  0  0
   -3.0612   20.9470  -32.9677 H   0  0  0  0  0  0  0  0  0  0  0  0
   -2.7221   18.7316  -34.1215 H   0  0  0  0  0  0  0  0  0  0  0  0
   -4.6811   17.2468  -34.5975 H   0  0  0  0  0  0  0  0  0  0  0  0
   -7.0046   17.9569  -33.9370 H   0  0  0  0  0  0  0  0  0  0  0  0
   -9.5306   20.6147  -32.4017 H   0  0  0  0  0  0  0  0  0  0  0  0
   -9.0189   19.4929  -33.7159 H   0  0  0  0  0  0  0  0  0  0  0  0
   -8.8703   19.0350  -30.6982 H   0  0  0  0  0  0  0  0  0  0  0  0
   -9.8468   18.1309  -31.9047 H   0  0  0  0  0  0  0  0  0  0  0  0
   -8.0567   17.9819  -31.9047 H   0  0  0  0  0  0  0  0  0  0  0  0
   -8.9417   22.4107  -31.3724 H   0  0  0  0  0  0  0  0  0  0  0  0
   -7.8380   24.3680  -30.4710 H   0  0  0  0  0  0  0  0  0  0  0  0
  1  2  1  0
  2  3  1  0
  3  4  1  0
  4  5  1  0
  3  6  1  0
  6  7  1  0
  7  8  1  0
  8  9  1  0
  9 10  2  0
  9 11  1  0
 11 12  2  0
 12 13  1  0
 13 14  1  0
 14 15  2  0
 15 16  1  0
 16 17  2  0
 17 18  1  0
 18 19  2  0
 19 20  1  0
 20 21  1  0
 21 22  1  0
 20 23  1  0
 23 24  1  0
 24 25  2  0
 25 11  1  0
 23 13  2  0
 19 14  1  0
  1 26  1  0
  1 27  1  0
  1 28  1  0
  2 29  1  0
  2 30  1  0
  4 31  1  0
  4 32  1  0
  5 33  1  0
  5 34  1  0
  5 35  1  0
  6 36  1  0
  6 37  1  0
  7 38  1  0
  7 39  1  0
 12 40  1  0
 15 41  1  0
 16 42  1  0
 17 43  1  0
 18 44  1  0
 21 45  1  0
 21 46  1  0
 22 47  1  0
 22 48  1  0
 22 49  1  0
 24 50  1  0
 25 51  1  0
M  CHG  2   8  -1  25   1
M  END
>  <UniqueID>  (47) 
47

>  <SMILES>  (47) 
CCN(CC)CC[N-]C(=O)c1cc2c3ccccc3n(CC)c2c[nH+]1

>  <Energy>  (47) 
94.69895246403969

>  <Genealogy>  (47) 
CCN(CC)CC[N-]C(=O)c1cc2c3ccccc3n(CC)c2c[nH+]1 (protonated)
CCN(CC)CC[N-]C(=O)c1cc2c3ccccc3n(CC)c2c[nH+]1 (3D coordinates assigned)
CCN(CC)CC[N-]C(=O)c1cc2c3ccccc3n(CC)c2c[nH+]1 (optimized conformer: 94.69895246403969 kcal/mol)

>  <smiles>  (47) 
CCN(CC)CCNC(=O)c1cc2c3ccccc3n(CC)c2cn1

>  <score_type>  (47) 
oracle

>  <origin>  (47) 
adg

>  <m_score__min__energy>  (47) 
-9.5299999999999994

>  <m_primary>  (47) 
energy

$$$$
