0:0
     RDKit          3D

 52 54  0  0  0  0  0  0  0  0999 V2000
   -9.0970   21.7860  -31.4600 C   0  0  0  0  0  0  0  0  0  0  0  0
   -8.1040   22.8630  -31.9230 C   0  0  0  0  0  0  0  0  0  0  0  0
   -7.0040   23.1250  -30.9690 N   0  0  0  0  0  0  0  0  0  0  0  0
   -5.8650   22.1810  -31.0580 C   0  0  0  0  0  0  0  0  0  0  0  0
   -4.6100   22.8400  -31.6580 C   0  0  0  0  0  0  0  0  0  0  0  0
   -4.1870   24.0570  -30.9160 N   0  0  0  0  0  0  0  0  0  0  0  0
   -3.0200   23.8080  -30.0420 C   0  0  0  0  0  0  0  0  0  0  0  0
   -2.9390   24.8570  -28.9320 C   0  0  0  0  0  0  0  0  0  0  0  0
   -1.6270   25.4940  -28.9440 N   0  0  0  0  0  0  0  0  0  0  0  0
   -0.5430   25.1360  -28.0780 C   0  0  0  0  0  0  0  0  0  0  0  0
    0.4570   24.5500  -28.5670 O   0  0  0  0  0  0  0  0  0  0  0  0
   -0.5570   25.4540  -26.6370 C   0  0  0  0  0  0  0  0  0  0  0  0
   -1.1920   26.6160  -26.1740 C   0  0  0  0  0  0  0  0  0  0  0  0
   -1.2140   26.9030  -24.8110 C   0  0  0  0  0  0  0  0  0  0  0  0
   -0.6180   26.0180  -23.9150 C   0  0  0  0  0  0  0  0  0  0  0  0
   -0.0170   24.8850  -24.3690 N   0  0  0  0  0  0  0  0  0  0  0  0
    0.0400   24.5890  -25.7020 C   0  0  0  0  0  0  0  0  0  0  0  0
    0.6640   23.4150  -26.1530 O   0  0  0  0  0  0  0  0  0  0  0  0
   -0.0010   22.3060  -26.6970 C   0  0  0  0  0  0  0  0  0  0  0  0
    0.5710   21.6500  -27.7940 C   0  0  0  0  0  0  0  0  0  0  0  0
   -0.0540   20.5310  -28.3530 C   0  0  0  0  0  0  0  0  0  0  0  0
   -1.2500   20.0540  -27.8120 C   0  0  0  0  0  0  0  0  0  0  0  0
   -1.8180   20.6910  -26.7060 C   0  0  0  0  0  0  0  0  0  0  0  0
   -1.1960   21.8100  -26.1440 C   0  0  0  0  0  0  0  0  0  0  0  0
   -5.2820   24.7080  -30.1610 C   0  0  0  0  0  0  0  0  0  0  0  0
   -6.6230   24.5510  -30.8840 C   0  0  0  0  0  0  0  0  0  0  0  0
   -9.1221   21.7587  -30.3606 H   0  0  0  0  0  0  0  0  0  0  0  0
  -10.1002   22.0229  -31.8439 H   0  0  0  0  0  0  0  0  0  0  0  0
   -8.7796   20.8053  -31.8439 H   0  0  0  0  0  0  0  0  0  0  0  0
   -7.6631   22.5382  -32.8770 H   0  0  0  0  0  0  0  0  0  0  0  0
   -8.6735   23.7997  -32.0133 H   0  0  0  0  0  0  0  0  0  0  0  0
   -5.6259   21.8179  -30.0476 H   0  0  0  0  0  0  0  0  0  0  0  0
   -6.1621   21.3544  -31.7202 H   0  0  0  0  0  0  0  0  0  0  0  0
   -3.7862   22.1114  -31.6366 H   0  0  0  0  0  0  0  0  0  0  0  0
   -4.8565   23.1475  -32.6850 H   0  0  0  0  0  0  0  0  0  0  0  0
   -3.1152   22.8102  -29.5889 H   0  0  0  0  0  0  0  0  0  0  0  0
   -2.1052   23.8668  -30.6501 H   0  0  0  0  0  0  0  0  0  0  0  0
   -3.7157   25.6191  -29.0933 H   0  0  0  0  0  0  0  0  0  0  0  0
   -3.0942   24.3670  -27.9594 H   0  0  0  0  0  0  0  0  0  0  0  0
   -1.6729   27.3011  -26.8877 H   0  0  0  0  0  0  0  0  0  0  0  0
   -1.6979   27.8206  -24.4452 H   0  0  0  0  0  0  0  0  0  0  0  0
   -0.6334   26.2361  -22.8369 H   0  0  0  0  0  0  0  0  0  0  0  0
    0.3860   24.2240  -23.6680 H   0  0  0  0  0  0  0  0  0  0  0  0
    1.5172   22.0170  -28.2183 H   0  0  0  0  0  0  0  0  0  0  0  0
    0.3969   20.0258  -29.2199 H   0  0  0  0  0  0  0  0  0  0  0  0
   -1.7443   19.1775  -28.2564 H   0  0  0  0  0  0  0  0  0  0  0  0
   -2.7567   20.3113  -26.2763 H   0  0  0  0  0  0  0  0  0  0  0  0
   -1.6417   22.3036  -25.2678 H   0  0  0  0  0  0  0  0  0  0  0  0
   -5.3551   24.2464  -29.1652 H   0  0  0  0  0  0  0  0  0  0  0  0
   -5.0560   25.7811  -30.0755 H   0  0  0  0  0  0  0  0  0  0  0  0
   -7.3988   25.1002  -30.3303 H   0  0  0  0  0  0  0  0  0  0  0  0
   -6.5260   24.9537  -31.9030 H   0  0  0  0  0  0  0  0  0  0  0  0
  1  2  1  0
  2  3  1  0
  3  4  1  0
  4  5  1  0
  5  6  1  0
  6  7  1  0
  7  8  1  0
  8  9  1  0
  9 10  1  0
 10 11  2  0
 10 12  1  0
 12 13  2  0
 13 14  1  0
 14 15  2  0
 15 16  1  0
 16 17  2  0
 17 18  1  0
 18 19  1  0
 19 20  2  0
 20 21  1  0
 21 22  2  0
 22 23  1  0
 23 24  2  0
  6 25  1  0
 25 26  1  0
 26  3  1  0
 17 12  1  0
 24 19  1  0
  1 27  1  0
  1 28  1  0
  1 29  1  0
  2 30  1  0
  2 31  1  0
  4 32  1  0
  4 33  1  0
  5 34  1  0
  5 35  1  0
  7 36  1  0
  7 37  1  0
  8 38  1  0
  8 39  1  0
 13 40  1  0
 14 41  1  0
 15 42  1  0
 16 43  1  0
 20 44  1  0
 21 45  1  0
 22 46  1  0
 23 47  1  0
 24 48  1  0
 25 49  1  0
 25 50  1  0
 26 51  1  0
 26 52  1  0
M  CHG  2   9  -1  16   1
M  END
>  <UniqueID>  (1) 
1

>  <SMILES>  (1) 
CCN1CCN(CC[N-]C(=O)c2ccc[nH+]c2Oc2ccccc2)CC1

>  <Energy>  (1) 
75.60222783699561

>  <Genealogy>  (1) 
CCN1CCN(CC[N-]C(=O)c2ccc[nH+]c2Oc2ccccc2)CC1 (protonated)
CCN1CCN(CC[N-]C(=O)c2ccc[nH+]c2Oc2ccccc2)CC1 (3D coordinates assigned)
CCN1CCN(CC[N-]C(=O)c2ccc[nH+]c2Oc2ccccc2)CC1 (nonaromatic ring conformer: 75.60222783699561 kcal/mol)

>  <smiles>  (1) 
CCN1CCN(CCNC(=O)c2cccnc2Oc2ccccc2)CC1

>  <score_type>  (1) 
oracle

>  <origin>  (1) 
adg

>  <m_score__min__energy>  (1) 
-10.18

>  <m_primary>  (1) 
energy

$$$$
1:0
     RDKit          3D

 53 56  0  0  0  0  0  0  0  0999 V2000
   -0.3700   24.3900  -28.3270 C   0  0  0  0  0  0  0  0  0  0  0  0
   -1.2210   25.6300  -28.5800 C   0  0  0  0  0  0  0  0  0  0  0  0
   -2.4220   25.2870  -29.3390 N   0  0  0  0  0  0  0  0  0  0  0  0
   -3.4120   24.3250  -28.9500 C   0  0  0  0  0  0  0  0  0  0  0  0
   -3.2320   23.6620  -27.8950 O   0  0  0  0  0  0  0  0  0  0  0  0
   -4.6240   24.0740  -29.7530 C   0  0  0  0  0  0  0  0  0  0  0  0
   -5.6970   24.9770  -29.7290 C   0  0  0  0  0  0  0  0  0  0  0  0
   -6.8470   24.7230  -30.4790 C   0  0  0  0  0  0  0  0  0  0  0  0
   -6.9420   23.5620  -31.2490 C   0  0  0  0  0  0  0  0  0  0  0  0
   -5.8850   22.6340  -31.2710 C   0  0  0  0  0  0  0  0  0  0  0  0
   -5.9850   21.3960  -32.0870 C   0  0  0  0  0  0  0  0  0  0  0  0
   -7.2320   20.7520  -32.2610 C   0  0  0  0  0  0  0  0  0  0  0  0
   -7.3280   19.5830  -33.0300 C   0  0  0  0  0  0  0  0  0  0  0  0
   -6.1720   19.0610  -33.6170 C   0  0  0  0  0  0  0  0  0  0  0  0
   -4.9620   19.6850  -33.4610 C   0  0  0  0  0  0  0  0  0  0  0  0
   -4.8390   20.8480  -32.6990 C   0  0  0  0  0  0  0  0  0  0  0  0
   -3.8760   18.9900  -34.1830 C   0  0  0  0  0  0  0  0  0  0  0  0
   -4.5870   17.8320  -34.9060 C   0  0  0  0  0  0  0  0  0  0  0  0
   -6.0750   17.8420  -34.4740 C   0  0  1  0  0  0  0  0  0  0  0  0
   -6.3930   16.6080  -33.7160 N   0  0  0  0  0  0  0  0  0  0  0  0
   -5.2490   15.7030  -33.4650 C   0  0  0  0  0  0  0  0  0  0  0  0
   -4.9820   15.4580  -31.9720 C   0  0  0  0  0  0  0  0  0  0  0  0
   -4.6500   13.9790  -31.8490 C   0  0  0  0  0  0  0  0  0  0  0  0
   -5.3600   13.3010  -33.0080 C   0  0  0  0  0  0  0  0  0  0  0  0
   -5.3890   14.3260  -34.1320 C   0  0  0  0  0  0  0  0  0  0  0  0
   -4.7300   22.8960  -30.5100 C   0  0  0  0  0  0  0  0  0  0  0  0
   -0.2628   24.2337  -27.2435 H   0  0  0  0  0  0  0  0  0  0  0  0
   -0.8572   23.5127  -28.7775 H   0  0  0  0  0  0  0  0  0  0  0  0
    0.6238   24.5292  -28.7775 H   0  0  0  0  0  0  0  0  0  0  0  0
   -1.5165   26.0680  -27.6152 H   0  0  0  0  0  0  0  0  0  0  0  0
   -0.6293   26.3519  -29.1620 H   0  0  0  0  0  0  0  0  0  0  0  0
   -5.6323   25.8887  -29.1170 H   0  0  0  0  0  0  0  0  0  0  0  0
   -7.6811   25.4400  -30.4632 H   0  0  0  0  0  0  0  0  0  0  0  0
   -7.8488   23.3719  -31.8419 H   0  0  0  0  0  0  0  0  0  0  0  0
   -8.1333   21.1710  -31.7897 H   0  0  0  0  0  0  0  0  0  0  0  0
   -8.2986   19.0844  -33.1690 H   0  0  0  0  0  0  0  0  0  0  0  0
   -3.8586   21.3318  -32.5773 H   0  0  0  0  0  0  0  0  0  0  0  0
   -3.3937   19.6643  -34.9060 H   0  0  0  0  0  0  0  0  0  0  0  0
   -3.0778   18.6416  -33.5111 H   0  0  0  0  0  0  0  0  0  0  0  0
   -4.5131   17.9698  -35.9948 H   0  0  0  0  0  0  0  0  0  0  0  0
   -4.1186   16.8718  -34.6439 H   0  0  0  0  0  0  0  0  0  0  0  0
   -6.7845   17.8653  -35.3142 H   0  0  0  0  0  0  0  0  0  0  0  0
   -7.1420   16.0490  -34.1910 H   0  0  0  0  0  0  0  0  0  0  0  0
   -4.4050   16.2462  -33.9151 H   0  0  0  0  0  0  0  0  0  0  0  0
   -4.1355   16.0707  -31.6285 H   0  0  0  0  0  0  0  0  0  0  0  0
   -5.8505   15.7312  -31.3547 H   0  0  0  0  0  0  0  0  0  0  0  0
   -3.5635   13.8225  -31.9203 H   0  0  0  0  0  0  0  0  0  0  0  0
   -4.9719   13.5697  -30.8801 H   0  0  0  0  0  0  0  0  0  0  0  0
   -4.8084   12.4028  -33.3226 H   0  0  0  0  0  0  0  0  0  0  0  0
   -6.3735   12.9771  -32.7287 H   0  0  0  0  0  0  0  0  0  0  0  0
   -4.5539   14.1529  -34.8268 H   0  0  0  0  0  0  0  0  0  0  0  0
   -6.3209   14.2562  -34.7122 H   0  0  0  0  0  0  0  0  0  0  0  0
   -3.9027   22.1711  -30.5083 H   0  0  0  0  0  0  0  0  0  0  0  0
  1  2  1  0
  2  3  1  0
  3  4  1  0
  4  5  2  0
  4  6  1  0
  6  7  2  0
  7  8  1  0
  8  9  2  0
  9 10  1  0
 10 11  1  0
 11 12  2  0
 12 13  1  0
 13 14  2  0
 14 15  1  0
 15 16  2  0
 15 17  1  0
 17 18  1  0
 18 19  1  0
 19 20  1  0
 20 21  1  0
 21 22  1  0
 22 23  1  0
 23 24  1  0
 24 25  1  0
 10 26  2  0
 26  6  1  0
 16 11  1  0
 25 21  1  0
 19 14  1  0
  1 27  1  0
  1 28  1  0
  1 29  1  0
  2 30  1  0
  2 31  1  0
  7 32  1  0
  8 33  1  0
  9 34  1  0
 12 35  1  0
 13 36  1  0
 16 37  1  0
 17 38  1  0
 17 39  1  0
 18 40  1  0
 18 41  1  0
 19 42  1  6
 20 43  1  0
 21 44  1  0
 22 45  1  0
 22 46  1  0
 23 47  1  0
 23 48  1  0
 24 49  1  0
 24 50  1  0
 25 51  1  0
 25 52  1  0
 26 53  1  0
M  CHG  1   3  -1
M  END
>  <UniqueID>  (2) 
2

>  <SMILES>  (2) 
CC[N-]C(=O)c1cccc(-c2ccc3c(c2)CC[C@H]3NC2CCCC2)c1

>  <Energy>  (2) 
75.78689921088453

>  <Genealogy>  (2) 
CC[N-]C(=O)c1cccc(-c2ccc3c(c2)CCC3NC2CCCC2)c1 (protonated)
CC[N-]C(=O)c1cccc(-c2ccc3c(c2)CC[C@H]3NC2CCCC2)c1 (chirality)
CC[N-]C(=O)c1cccc(-c2ccc3c(c2)CC[C@H]3NC2CCCC2)c1 (3D coordinates assigned)
CC[N-]C(=O)c1cccc(-c2ccc3c(c2)CC[C@H]3NC2CCCC2)c1 (nonaromatic ring conformer: 75.78689921088453 kcal/mol)

>  <smiles>  (2) 
CCNC(=O)c1cccc(-c2ccc3c(c2)CCC3NC2CCCC2)c1

>  <score_type>  (2) 
oracle

>  <origin>  (2) 
adg

>  <m_score__min__energy>  (2) 
-10.619999999999999

>  <m_primary>  (2) 
energy

$$$$
2:0
     RDKit          3D

 55 58  0  0  0  0  0  0  0  0999 V2000
   -8.7800   17.8080  -31.6200 O   0  0  0  0  0  0  0  0  0  0  0  0
   -8.1040   18.5570  -32.3770 C   0  0  0  0  0  0  0  0  0  0  0  0
   -7.2970   17.9140  -33.4740 C   0  0  0  0  0  0  0  0  0  0  0  0
   -6.1470   17.1670  -32.9160 N   0  0  0  0  0  0  0  0  0  0  0  0
   -5.1770   16.7150  -33.9300 C   0  0  0  0  0  0  0  0  0  0  0  0
   -4.3560   17.8720  -34.5310 C   0  0  0  0  0  0  0  0  0  0  0  0
   -3.7560   18.7760  -33.5180 N   0  0  0  0  0  0  0  0  0  0  0  0
   -2.3410   18.4740  -33.1610 C   0  0  0  0  0  0  0  0  0  0  0  0
   -1.3110   19.5640  -33.4890 C   0  0  0  0  0  0  0  0  0  0  0  0
   -1.9230   20.8510  -33.4580 O   0  0  0  0  0  0  0  0  0  0  0  0
   -2.3140   21.5190  -32.2890 C   0  0  0  0  0  0  0  0  0  0  0  0
   -1.5050   21.3900  -31.1540 C   0  0  0  0  0  0  0  0  0  0  0  0
   -1.8480   22.0260  -29.9580 C   0  0  0  0  0  0  0  0  0  0  0  0
   -3.0100   22.8040  -29.8810 C   0  0  0  0  0  0  0  0  0  0  0  0
   -3.3650   23.4460  -28.6840 C   0  0  0  0  0  0  0  0  0  0  0  0
   -4.5280   24.2180  -28.6200 C   0  0  0  0  0  0  0  0  0  0  0  0
   -5.3430   24.3570  -29.7470 C   0  0  0  0  0  0  0  0  0  0  0  0
   -5.0000   23.7240  -30.9460 C   0  0  0  0  0  0  0  0  0  0  0  0
   -3.8350   22.9440  -31.0230 C   0  0  0  0  0  0  0  0  0  0  0  0
   -3.4820   22.3030  -32.2210 C   0  0  0  0  0  0  0  0  0  0  0  0
   -4.6380   19.0900  -32.3610 C   0  0  0  0  0  0  0  0  0  0  0  0
   -5.4650   17.9010  -31.8390 C   0  0  0  0  0  0  0  0  0  0  0  0
   -8.1160   20.0290  -32.1540 C   0  0  0  0  0  0  0  0  0  0  0  0
   -9.1020   20.6070  -31.3290 C   0  0  0  0  0  0  0  0  0  0  0  0
   -9.1230   21.9860  -31.1030 C   0  0  0  0  0  0  0  0  0  0  0  0
   -8.1640   22.8080  -31.6970 C   0  0  0  0  0  0  0  0  0  0  0  0
   -7.1810   22.2520  -32.5170 C   0  0  0  0  0  0  0  0  0  0  0  0
   -7.1550   20.8730  -32.7480 C   0  0  0  0  0  0  0  0  0  0  0  0
   -7.9401   17.2192  -34.0341 H   0  0  0  0  0  0  0  0  0  0  0  0
   -6.9144   18.7035  -34.1376 H   0  0  0  0  0  0  0  0  0  0  0  0
   -4.4851   16.0005  -33.4601 H   0  0  0  0  0  0  0  0  0  0  0  0
   -5.7469   16.2535  -34.7499 H   0  0  0  0  0  0  0  0  0  0  0  0
   -3.5437   17.4423  -35.1356 H   0  0  0  0  0  0  0  0  0  0  0  0
   -5.0520   18.4799  -35.1278 H   0  0  0  0  0  0  0  0  0  0  0  0
   -3.6680   19.6950  -34.0190 H   0  0  0  0  0  0  0  0  0  0  0  0
   -2.3005   18.2894  -32.0774 H   0  0  0  0  0  0  0  0  0  0  0  0
   -2.0601   17.6085  -33.7791 H   0  0  0  0  0  0  0  0  0  0  0  0
   -0.4993   19.5306  -32.7474 H   0  0  0  0  0  0  0  0  0  0  0  0
   -0.9094   19.3839  -34.4971 H   0  0  0  0  0  0  0  0  0  0  0  0
   -0.5899   20.7817  -31.2041 H   0  0  0  0  0  0  0  0  0  0  0  0
   -1.2031   21.9152  -29.0738 H   0  0  0  0  0  0  0  0  0  0  0  0
   -2.7263   23.3411  -27.7946 H   0  0  0  0  0  0  0  0  0  0  0  0
   -4.8030   24.7180  -27.6796 H   0  0  0  0  0  0  0  0  0  0  0  0
   -6.2571   24.9662  -29.6907 H   0  0  0  0  0  0  0  0  0  0  0  0
   -5.6441   23.8374  -31.8304 H   0  0  0  0  0  0  0  0  0  0  0  0
   -4.1202   22.4135  -33.1101 H   0  0  0  0  0  0  0  0  0  0  0  0
   -4.0060   19.4550  -31.5380 H   0  0  0  0  0  0  0  0  0  0  0  0
   -5.3615   19.8382  -32.7169 H   0  0  0  0  0  0  0  0  0  0  0  0
   -4.7918   17.2083  -31.3126 H   0  0  0  0  0  0  0  0  0  0  0  0
   -6.2394   18.3036  -31.1694 H   0  0  0  0  0  0  0  0  0  0  0  0
   -9.8624   19.9664  -30.8585 H   0  0  0  0  0  0  0  0  0  0  0  0
   -9.8968   22.4244  -30.4557 H   0  0  0  0  0  0  0  0  0  0  0  0
   -8.1830   23.8933  -31.5189 H   0  0  0  0  0  0  0  0  0  0  0  0
   -6.4244   22.9004  -32.9830 H   0  0  0  0  0  0  0  0  0  0  0  0
   -6.3788   20.4432  -33.3982 H   0  0  0  0  0  0  0  0  0  0  0  0
  1  2  2  0
  2  3  1  0
  3  4  1  0
  4  5  1  0
  5  6  1  0
  6  7  1  0
  7  8  1  0
  8  9  1  0
  9 10  1  0
 10 11  1  0
 11 12  2  0
 12 13  1  0
 13 14  2  0
 14 15  1  0
 15 16  2  0
 16 17  1  0
 17 18  2  0
 18 19  1  0
 19 20  2  0
  7 21  1  0
 21 22  1  0
  2 23  1  0
 23 24  2  0
 24 25  1  0
 25 26  2  0
 26 27  1  0
 27 28  2  0
 22  4  1  0
 28 23  1  0
 20 11  1  0
 19 14  1  0
  3 29  1  0
  3 30  1  0
  5 31  1  0
  5 32  1  0
  6 33  1  0
  6 34  1  0
  7 35  1  0
  8 36  1  0
  8 37  1  0
  9 38  1  0
  9 39  1  0
 12 40  1  0
 13 41  1  0
 15 42  1  0
 16 43  1  0
 17 44  1  0
 18 45  1  0
 20 46  1  0
 21 47  1  0
 21 48  1  0
 22 49  1  0
 22 50  1  0
 24 51  1  0
 25 52  1  0
 26 53  1  0
 27 54  1  0
 28 55  1  0
M  CHG  1   7   1
M  END
>  <UniqueID>  (3) 
3

>  <SMILES>  (3) 
O=C(CN1CC[NH+](CCOc2ccc3ccccc3c2)CC1)c1ccccc1

>  <Energy>  (3) 
77.92878182633712

>  <Genealogy>  (3) 
O=C(CN1CC[NH+](CCOc2ccc3ccccc3c2)CC1)c1ccccc1 (protonated)
O=C(CN1CC[NH+](CCOc2ccc3ccccc3c2)CC1)c1ccccc1 (3D coordinates assigned)
O=C(CN1CC[NH+](CCOc2ccc3ccccc3c2)CC1)c1ccccc1 (nonaromatic ring conformer: 77.92878182633712 kcal/mol)

>  <smiles>  (3) 
O=C(CN1CCN(CCOc2ccc3ccccc3c2)CC1)c1ccccc1

>  <score_type>  (3) 
oracle

>  <origin>  (3) 
adg

>  <m_score__min__energy>  (3) 
-9.3200000000000003

>  <m_primary>  (3) 
energy

$$$$
3:0
     RDKit          3D

 52 55  0  0  0  0  0  0  0  0999 V2000
   -0.5570   18.8590  -27.5260 C   0  0  0  0  0  0  0  0  0  0  0  0
    0.8520   19.3140  -27.8940 C   0  0  0  0  0  0  0  0  0  0  0  0
    0.8170   20.5540  -28.6010 O   0  0  0  0  0  0  0  0  0  0  0  0
   -0.0410   20.8580  -29.6700 C   0  0  0  0  0  0  0  0  0  0  0  0
    0.0390   20.0730  -30.8260 C   0  0  0  0  0  0  0  0  0  0  0  0
   -0.8090   20.3150  -31.9120 C   0  0  0  0  0  0  0  0  0  0  0  0
   -1.7530   21.3500  -31.8540 C   0  0  0  0  0  0  0  0  0  0  0  0
   -2.7090   21.5750  -32.9980 C   0  0  0  0  0  0  0  0  0  0  0  0
   -4.0330   20.8830  -32.7600 C   0  0  0  0  0  0  0  0  0  0  0  0
   -4.2740   19.6190  -33.3200 C   0  0  0  0  0  0  0  0  0  0  0  0
   -5.5050   18.9840  -33.1190 C   0  0  0  0  0  0  0  0  0  0  0  0
   -5.7700   17.7180  -33.6660 C   0  0  0  0  0  0  0  0  0  0  0  0
   -7.0100   17.1080  -33.4480 C   0  0  0  0  0  0  0  0  0  0  0  0
   -7.9880   17.7570  -32.6870 C   0  0  0  0  0  0  0  0  0  0  0  0
   -7.7320   19.0180  -32.1400 C   0  0  0  0  0  0  0  0  0  0  0  0
   -6.4930   19.6350  -32.3530 C   0  0  0  0  0  0  0  0  0  0  0  0
   -6.2410   20.8570  -31.8200 N   0  0  0  0  0  0  0  0  0  0  0  0
   -5.0500   21.4950  -32.0000 C   0  0  0  0  0  0  0  0  0  0  0  0
   -4.8260   22.7500  -31.4200 O   0  0  0  0  0  0  0  0  0  0  0  0
   -5.5160   23.2300  -30.2650 C   0  0  0  0  0  0  0  0  0  0  0  0
   -4.5140   23.3920  -29.1160 C   0  0  0  0  0  0  0  0  0  0  0  0
   -3.5630   24.5890  -29.3460 C   0  0  0  0  0  0  0  0  0  0  0  0
   -3.8570   25.3000  -30.5370 O   0  0  0  0  0  0  0  0  0  0  0  0
   -5.1980   25.7520  -30.5060 C   0  0  0  0  0  0  0  0  0  0  0  0
   -6.1950   24.5770  -30.5700 C   0  0  0  0  0  0  0  0  0  0  0  0
   -1.8150   22.1600  -30.7090 C   0  0  0  0  0  0  0  0  0  0  0  0
   -0.9670   21.9180  -29.6250 C   0  0  0  0  0  0  0  0  0  0  0  0
   -0.6576   18.8265  -26.4311 H   0  0  0  0  0  0  0  0  0  0  0  0
   -1.2906   19.5659  -27.9408 H   0  0  0  0  0  0  0  0  0  0  0  0
   -0.7386   17.8565  -27.9408 H   0  0  0  0  0  0  0  0  0  0  0  0
    1.4418   19.4401  -26.9741 H   0  0  0  0  0  0  0  0  0  0  0  0
    1.3101   18.5521  -28.5418 H   0  0  0  0  0  0  0  0  0  0  0  0
    0.7757   19.2580  -30.8811 H   0  0  0  0  0  0  0  0  0  0  0  0
   -0.7349   19.6909  -32.8148 H   0  0  0  0  0  0  0  0  0  0  0  0
   -2.8853   22.6551  -33.1090 H   0  0  0  0  0  0  0  0  0  0  0  0
   -2.2598   21.1552  -33.9101 H   0  0  0  0  0  0  0  0  0  0  0  0
   -3.4936   19.1261  -33.9183 H   0  0  0  0  0  0  0  0  0  0  0  0
   -5.0029   17.2062  -34.2656 H   0  0  0  0  0  0  0  0  0  0  0  0
   -7.2164   16.1159  -33.8759 H   0  0  0  0  0  0  0  0  0  0  0  0
   -8.9616   17.2737  -32.5184 H   0  0  0  0  0  0  0  0  0  0  0  0
   -8.5037   19.5254  -31.5424 H   0  0  0  0  0  0  0  0  0  0  0  0
   -6.2944   22.5081  -29.9770 H   0  0  0  0  0  0  0  0  0  0  0  0
   -5.0690   23.5533  -28.1800 H   0  0  0  0  0  0  0  0  0  0  0  0
   -3.9049   22.4776  -29.0629 H   0  0  0  0  0  0  0  0  0  0  0  0
   -3.6522   25.2783  -28.4934 H   0  0  0  0  0  0  0  0  0  0  0  0
   -2.5425   24.1894  -29.4407 H   0  0  0  0  0  0  0  0  0  0  0  0
   -5.3647   26.3112  -29.5735 H   0  0  0  0  0  0  0  0  0  0  0  0
   -5.3652   26.3932  -31.3840 H   0  0  0  0  0  0  0  0  0  0  0  0
   -6.9934   24.7476  -29.8328 H   0  0  0  0  0  0  0  0  0  0  0  0
   -6.6011   24.5302  -31.5912 H   0  0  0  0  0  0  0  0  0  0  0  0
   -2.5354   22.9901  -30.6649 H   0  0  0  0  0  0  0  0  0  0  0  0
   -1.0231   22.5584  -28.7324 H   0  0  0  0  0  0  0  0  0  0  0  0
  1  2  1  0
  2  3  1  0
  3  4  1  0
  4  5  2  0
  5  6  1  0
  6  7  2  0
  7  8  1  0
  8  9  1  0
  9 10  2  0
 10 11  1  0
 11 12  2  0
 12 13  1  0
 13 14  2  0
 14 15  1  0
 15 16  2  0
 16 17  1  0
 17 18  2  0
 18 19  1  0
 19 20  1  0
 20 21  1  0
 21 22  1  0
 22 23  1  0
 23 24  1  0
 24 25  1  0
  7 26  1  0
 26 27  2  0
 27  4  1  0
 18  9  1  0
 25 20  1  0
 16 11  1  0
  1 28  1  0
  1 29  1  0
  1 30  1  0
  2 31  1  0
  2 32  1  0
  5 33  1  0
  6 34  1  0
  8 35  1  0
  8 36  1  0
 10 37  1  0
 12 38  1  0
 13 39  1  0
 14 40  1  0
 15 41  1  0
 20 42  1  0
 21 43  1  0
 21 44  1  0
 22 45  1  0
 22 46  1  0
 24 47  1  0
 24 48  1  0
 25 49  1  0
 25 50  1  0
 26 51  1  0
 27 52  1  0
M  END
>  <UniqueID>  (4) 
4

>  <SMILES>  (4) 
CCOc1ccc(Cc2cc3ccccc3nc2OC2CCOCC2)cc1

>  <Energy>  (4) 
58.419293994985644

>  <Genealogy>  (4) 
CCOc1ccc(Cc2cc3ccccc3nc2OC2CCOCC2)cc1 (3D coordinates assigned)
CCOc1ccc(Cc2cc3ccccc3nc2OC2CCOCC2)cc1 (nonaromatic ring conformer: 58.419293994985644 kcal/mol)

>  <smiles>  (4) 
CCOc1ccc(Cc2cc3ccccc3nc2OC2CCOCC2)cc1

>  <score_type>  (4) 
oracle

>  <origin>  (4) 
adg

>  <m_score__min__energy>  (4) 
-8.6799999999999997

>  <m_primary>  (4) 
energy

$$$$
4:0
     RDKit          3D

 31 32  0  0  0  0  0  0  0  0999 V2000
   -2.0810   24.8170  -28.1560 C   0  0  0  0  0  0  0  0  0  0  0  0
   -2.7100   25.2790  -29.3470 O   0  0  0  0  0  0  0  0  0  0  0  0
   -3.8100   24.6560  -29.9540 C   0  0  0  0  0  0  0  0  0  0  0  0
   -4.9960   25.3880  -30.0950 C   0  0  0  0  0  0  0  0  0  0  0  0
   -6.1200   24.8110  -30.6940 C   0  0  0  0  0  0  0  0  0  0  0  0
   -6.0760   23.4860  -31.1500 C   0  0  0  0  0  0  0  0  0  0  0  0
   -7.2730   22.8780  -31.8300 C   0  0  0  0  0  0  0  0  0  0  0  0
   -6.8520   21.9320  -32.8630 N   0  0  0  0  0  0  0  0  0  0  0  0
   -7.0080   20.5190  -32.6990 C   0  0  0  0  0  0  0  0  0  0  0  0
   -7.5300   20.0040  -31.6250 N   0  0  0  0  0  0  0  0  0  0  0  0
   -7.5450   18.2970  -31.8000 S   0  0  0  0  0  0  0  0  0  0  0  0
   -6.6710   17.6200  -30.7840 O   0  0  0  0  0  0  0  0  0  0  0  0
   -8.9440   17.7490  -31.8260 O   0  0  0  0  0  0  0  0  0  0  0  0
   -6.8230   18.3790  -33.3660 C   0  0  0  0  0  0  0  0  0  0  0  0
   -6.5000   17.1980  -34.2170 C   0  0  0  0  0  0  0  0  0  0  0  0
   -6.5910   19.6000  -33.7220 N   0  0  0  0  0  0  0  0  0  0  0  0
   -4.8860   22.7530  -31.0250 C   0  0  0  0  0  0  0  0  0  0  0  0
   -3.7620   23.3300  -30.4260 C   0  0  0  0  0  0  0  0  0  0  0  0
   -2.6182   25.2115  -27.2809 H   0  0  0  0  0  0  0  0  0  0  0  0
   -2.1011   23.7174  -28.1335 H   0  0  0  0  0  0  0  0  0  0  0  0
   -1.0378   25.1651  -28.1335 H   0  0  0  0  0  0  0  0  0  0  0  0
   -5.0434   26.4251  -29.7315 H   0  0  0  0  0  0  0  0  0  0  0  0
   -7.0426   25.3991  -30.8079 H   0  0  0  0  0  0  0  0  0  0  0  0
   -7.8837   22.3497  -31.0830 H   0  0  0  0  0  0  0  0  0  0  0  0
   -7.8592   23.6806  -32.3014 H   0  0  0  0  0  0  0  0  0  0  0  0
   -6.4250   22.2800  -33.7510 H   0  0  0  0  0  0  0  0  0  0  0  0
   -6.2644   16.3367  -33.5747 H   0  0  0  0  0  0  0  0  0  0  0  0
   -7.3650   16.9561  -34.8521 H   0  0  0  0  0  0  0  0  0  0  0  0
   -5.6323   17.4300  -34.8521 H   0  0  0  0  0  0  0  0  0  0  0  0
   -4.8372   21.7200  -31.3999 H   0  0  0  0  0  0  0  0  0  0  0  0
   -2.8359   22.7455  -30.3229 H   0  0  0  0  0  0  0  0  0  0  0  0
  1  2  1  0
  2  3  1  0
  3  4  2  0
  4  5  1  0
  5  6  2  0
  6  7  1  0
  7  8  1  0
  8  9  1  0
  9 10  2  0
 10 11  1  0
 11 12  2  0
 11 13  2  0
 11 14  1  0
 14 15  1  0
 14 16  2  0
  6 17  1  0
 17 18  2  0
 18  3  1  0
 16  9  1  0
  1 19  1  0
  1 20  1  0
  1 21  1  0
  4 22  1  0
  5 23  1  0
  7 24  1  0
  7 25  1  0
  8 26  1  0
 15 27  1  0
 15 28  1  0
 15 29  1  0
 17 30  1  0
 18 31  1  0
M  END
>  <UniqueID>  (5) 
5

>  <SMILES>  (5) 
COc1ccc(CNC2=NS(=O)(=O)C(C)=N2)cc1

>  <Energy>  (5) 
48.91421728737781

>  <Genealogy>  (5) 
COc1ccc(CNC2=NS(=O)(=O)C(C)=N2)cc1 (3D coordinates assigned)
COc1ccc(CNC2=NS(=O)(=O)C(C)=N2)cc1 (nonaromatic ring conformer: 48.91421728737781 kcal/mol)

>  <smiles>  (5) 
COc1ccc(CNC2=NS(=O)(=O)C(C)=N2)cc1

>  <score_type>  (5) 
oracle

>  <origin>  (5) 
adg

>  <m_score__min__energy>  (5) 
-7.46

>  <m_primary>  (5) 
energy

$$$$
5:0
     RDKit          3D

 64 65  0  0  0  0  0  0  0  0999 V2000
   -0.4850   27.9350  -26.9550 C   0  0  0  0  0  0  0  0  0  0  0  0
   -0.8950   28.1680  -25.4940 C   0  0  0  0  0  0  0  0  0  0  0  0
   -1.5060   26.9590  -24.8820 N   0  0  0  0  0  0  0  0  0  0  0  0
   -0.6780   26.2730  -23.8490 C   0  0  0  0  0  0  0  0  0  0  0  0
    0.2210   27.1820  -22.9890 C   0  0  0  0  0  0  0  0  0  0  0  0
   -2.0650   26.0310  -25.9010 C   0  0  0  0  0  0  0  0  0  0  0  0
   -1.3490   24.6680  -26.0000 C   0  0  0  0  0  0  0  0  0  0  0  0
   -1.8780   23.8450  -27.1780 C   0  0  0  0  0  0  0  0  0  0  0  0
   -2.7880   24.6270  -27.9250 O   0  0  0  0  0  0  0  0  0  0  0  0
   -4.0620   24.0160  -27.9230 C   0  0  0  0  0  0  0  0  0  0  0  0
   -4.1900   23.0910  -29.1410 C   0  0  0  0  0  0  0  0  0  0  0  0
   -4.1750   23.8390  -30.5100 C   0  0  2  0  0  0  0  0  0  0  0  0
   -4.6110   25.3180  -30.4480 C   0  0  0  0  0  0  0  0  0  0  0  0
   -6.1030   25.4990  -30.1270 C   0  0  0  0  0  0  0  0  0  0  0  0
   -6.9630   24.2680  -30.4470 C   0  0  0  0  0  0  0  0  0  0  0  0
   -6.4210   23.4280  -31.6160 C   0  0  0  0  0  0  0  0  0  0  0  0
   -4.9600   23.1500  -31.5680 N   0  0  0  0  0  0  0  0  0  0  0  0
   -4.5900   21.7350  -31.8050 C   0  0  0  0  0  0  0  0  0  0  0  0
   -5.3870   21.1330  -32.9710 C   0  0  0  0  0  0  0  0  0  0  0  0
   -6.5000   20.2260  -32.5240 C   0  0  0  0  0  0  0  0  0  0  0  0
   -7.8300   20.6810  -32.5120 C   0  0  0  0  0  0  0  0  0  0  0  0
   -8.8580   19.8360  -32.0770 C   0  0  0  0  0  0  0  0  0  0  0  0
   -8.5670   18.5360  -31.6500 C   0  0  0  0  0  0  0  0  0  0  0  0
   -7.2450   18.0760  -31.6660 C   0  0  0  0  0  0  0  0  0  0  0  0
   -6.2160   18.9170  -32.0970 C   0  0  0  0  0  0  0  0  0  0  0  0
    0.4710   27.3917  -26.9854 H   0  0  0  0  0  0  0  0  0  0  0  0
   -1.2599   27.3423  -27.4632 H   0  0  0  0  0  0  0  0  0  0  0  0
   -0.3724   28.9040  -27.4632 H   0  0  0  0  0  0  0  0  0  0  0  0
   -0.0014   28.4448  -24.9153 H   0  0  0  0  0  0  0  0  0  0  0  0
   -1.6469   28.9707  -25.4785 H   0  0  0  0  0  0  0  0  0  0  0  0
   -2.3600   27.2950  -24.3700 H   0  0  0  0  0  0  0  0  0  0  0  0
   -1.3602   25.7375  -23.1724 H   0  0  0  0  0  0  0  0  0  0  0  0
    0.0090   25.6194  -24.4065 H   0  0  0  0  0  0  0  0  0  0  0  0
    0.0279   26.9867  -21.9238 H   0  0  0  0  0  0  0  0  0  0  0  0
    1.2770   26.9725  -23.2146 H   0  0  0  0  0  0  0  0  0  0  0  0
   -0.0001   28.2357  -23.2146 H   0  0  0  0  0  0  0  0  0  0  0  0
   -3.1202   25.8454  -25.6520 H   0  0  0  0  0  0  0  0  0  0  0  0
   -1.9278   26.5232  -26.8751 H   0  0  0  0  0  0  0  0  0  0  0  0
   -0.2711   24.8388  -26.1378 H   0  0  0  0  0  0  0  0  0  0  0  0
   -1.5393   24.1081  -25.0725 H   0  0  0  0  0  0  0  0  0  0  0  0
   -1.0385   23.5436  -27.8217 H   0  0  0  0  0  0  0  0  0  0  0  0
   -2.3889   22.9474  -26.7995 H   0  0  0  0  0  0  0  0  0  0  0  0
   -4.1846   23.4276  -27.0017 H   0  0  0  0  0  0  0  0  0  0  0  0
   -4.8400   24.7922  -27.9698 H   0  0  0  0  0  0  0  0  0  0  0  0
   -3.3502   22.3807  -29.1257 H   0  0  0  0  0  0  0  0  0  0  0  0
   -5.1675   22.5929  -29.0611 H   0  0  0  0  0  0  0  0  0  0  0  0
   -3.1083   23.8188  -30.7780 H   0  0  0  0  0  0  0  0  0  0  0  0
   -4.0223   25.8231  -29.6681 H   0  0  0  0  0  0  0  0  0  0  0  0
   -4.4372   25.7509  -31.4442 H   0  0  0  0  0  0  0  0  0  0  0  0
   -6.2018   25.7209  -29.0542 H   0  0  0  0  0  0  0  0  0  0  0  0
   -6.4691   26.3179  -30.7636 H   0  0  0  0  0  0  0  0  0  0  0  0
   -7.0062   23.6311  -29.5512 H   0  0  0  0  0  0  0  0  0  0  0  0
   -7.9558   24.6357  -30.7457 H   0  0  0  0  0  0  0  0  0  0  0  0
   -6.9516   22.4644  -31.6182 H   0  0  0  0  0  0  0  0  0  0  0  0
   -6.5904   24.0228  -32.5257 H   0  0  0  0  0  0  0  0  0  0  0  0
   -3.5167   21.6807  -32.0398 H   0  0  0  0  0  0  0  0  0  0  0  0
   -4.8213   21.1607  -30.8958 H   0  0  0  0  0  0  0  0  0  0  0  0
   -5.8212   21.9553  -33.5587 H   0  0  0  0  0  0  0  0  0  0  0  0
   -4.6884   20.5243  -33.5638 H   0  0  0  0  0  0  0  0  0  0  0  0
   -8.0635   21.7030  -32.8451 H   0  0  0  0  0  0  0  0  0  0  0  0
   -9.8976   20.1954  -32.0710 H   0  0  0  0  0  0  0  0  0  0  0  0
   -9.3757   17.8764  -31.3023 H   0  0  0  0  0  0  0  0  0  0  0  0
   -7.0160   17.0510  -31.3388 H   0  0  0  0  0  0  0  0  0  0  0  0
   -5.1780   18.5530  -32.1023 H   0  0  0  0  0  0  0  0  0  0  0  0
  1  2  1  0
  2  3  1  0
  3  4  1  0
  4  5  1  0
  3  6  1  0
  6  7  1  0
  7  8  1  0
  8  9  1  0
  9 10  1  0
 10 11  1  0
 11 12  1  0
 12 13  1  0
 13 14  1  0
 14 15  1  0
 15 16  1  0
 16 17  1  0
 17 18  1  0
 18 19  1  0
 19 20  1  0
 20 21  2  0
 21 22  1  0
 22 23  2  0
 23 24  1  0
 24 25  2  0
 17 12  1  0
 25 20  1  0
  1 26  1  0
  1 27  1  0
  1 28  1  0
  2 29  1  0
  2 30  1  0
  3 31  1  0
  4 32  1  0
  4 33  1  0
  5 34  1  0
  5 35  1  0
  5 36  1  0
  6 37  1  0
  6 38  1  0
  7 39  1  0
  7 40  1  0
  8 41  1  0
  8 42  1  0
 10 43  1  0
 10 44  1  0
 11 45  1  0
 11 46  1  0
 12 47  1  6
 13 48  1  0
 13 49  1  0
 14 50  1  0
 14 51  1  0
 15 52  1  0
 15 53  1  0
 16 54  1  0
 16 55  1  0
 18 56  1  0
 18 57  1  0
 19 58  1  0
 19 59  1  0
 21 60  1  0
 22 61  1  0
 23 62  1  0
 24 63  1  0
 25 64  1  0
M  CHG  1   3   1
M  END
>  <UniqueID>  (6) 
6

>  <SMILES>  (6) 
CC[NH+](CC)CCCOCC[C@@H]1CCCCN1CCc1ccccc1

>  <Energy>  (6) 
79.95639446704122

>  <Genealogy>  (6) 
CC[NH+](CC)CCCOCCC1CCCCN1CCc1ccccc1 (protonated)
CC[NH+](CC)CCCOCC[C@@H]1CCCCN1CCc1ccccc1 (chirality)
CC[NH+](CC)CCCOCC[C@@H]1CCCCN1CCc1ccccc1 (3D coordinates assigned)
CC[NH+](CC)CCCOCC[C@@H]1CCCCN1CCc1ccccc1 (nonaromatic ring conformer: 79.95639446704122 kcal/mol)

>  <smiles>  (6) 
CCN(CC)CCCOCCC1CCCCN1CCc1ccccc1

>  <score_type>  (6) 
oracle

>  <origin>  (6) 
adg

>  <m_score__min__energy>  (6) 
-8.0999999999999996

>  <m_primary>  (6) 
energy

$$$$
6:0
     RDKit          3D

 64 67  0  0  0  0  0  0  0  0999 V2000
   -0.5510   23.3570  -28.0120 C   0  0  0  0  0  0  0  0  0  0  0  0
   -1.9270   23.3960  -28.6050 C   0  0  0  0  0  0  0  0  0  0  0  0
   -2.8170   22.3110  -28.4030 C   0  0  0  0  0  0  0  0  0  0  0  0
   -4.1260   22.3530  -28.9130 C   0  0  0  0  0  0  0  0  0  0  0  0
   -4.5160   23.4940  -29.6110 C   0  0  0  0  0  0  0  0  0  0  0  0
   -5.7170   23.8380  -30.1970 C   0  0  0  0  0  0  0  0  0  0  0  0
   -6.9850   23.0360  -30.2240 C   0  0  0  0  0  0  0  0  0  0  0  0
   -7.7040   23.2290  -31.4900 N   0  0  0  0  0  0  0  0  0  0  0  0
   -8.0330   21.9440  -32.1210 C   0  0  0  0  0  0  0  0  0  0  0  0
   -9.1530   21.2470  -31.3390 C   0  0  0  0  0  0  0  0  0  0  0  0
   -8.9640   19.7240  -31.2440 C   0  0  0  0  0  0  0  0  0  0  0  0
   -8.9410   19.0430  -32.6230 C   0  0  0  0  0  0  0  0  0  0  0  0
   -7.8910   17.9180  -32.7010 C   0  0  0  0  0  0  0  0  0  0  0  0
   -6.8420   17.9750  -31.5670 C   0  0  0  0  0  0  0  0  0  0  0  0
   -5.4840   18.2690  -32.0650 N   0  0  0  0  0  0  0  0  0  0  0  0
   -5.0180   19.6270  -31.6940 C   0  0  0  0  0  0  0  0  0  0  0  0
   -3.7110   19.9730  -32.3660 C   0  0  0  0  0  0  0  0  0  0  0  0
   -3.1290   21.2370  -32.1670 C   0  0  0  0  0  0  0  0  0  0  0  0
   -1.9310   21.5730  -32.8040 C   0  0  0  0  0  0  0  0  0  0  0  0
   -1.2980   20.6540  -33.6470 C   0  0  0  0  0  0  0  0  0  0  0  0
    0.3540   21.1250  -34.4870 Br  0  0  0  0  0  0  0  0  0  0  0  0
   -1.8740   19.3950  -33.8590 C   0  0  0  0  0  0  0  0  0  0  0  0
   -3.0930   19.0660  -33.2450 C   0  0  0  0  0  0  0  0  0  0  0  0
   -3.6740   17.8240  -33.5270 O   0  0  0  0  0  0  0  0  0  0  0  0
   -3.2120   17.0170  -34.6100 C   0  0  0  0  0  0  0  0  0  0  0  0
   -1.6850   17.0870  -34.7050 C   0  0  0  0  0  0  0  0  0  0  0  0
   -1.2520   18.4490  -34.6820 O   0  0  0  0  0  0  0  0  0  0  0  0
   -5.5300   25.1130  -30.7220 C   0  0  0  0  0  0  0  0  0  0  0  0
   -4.2710   25.5430  -30.4780 N   0  0  0  0  0  0  0  0  0  0  0  0
   -3.6640   24.5510  -29.8020 C   0  0  0  0  0  0  0  0  0  0  0  0
   -2.3620   24.5410  -29.3080 C   0  0  0  0  0  0  0  0  0  0  0  0
   -0.6245   23.3591  -26.9145 H   0  0  0  0  0  0  0  0  0  0  0  0
   -0.0348   22.4439  -28.3432 H   0  0  0  0  0  0  0  0  0  0  0  0
    0.0161   24.2394  -28.3432 H   0  0  0  0  0  0  0  0  0  0  0  0
   -2.4796   21.4274  -27.8414 H   0  0  0  0  0  0  0  0  0  0  0  0
   -4.8200   21.5124  -28.7659 H   0  0  0  0  0  0  0  0  0  0  0  0
   -6.7388   21.9701  -30.1092 H   0  0  0  0  0  0  0  0  0  0  0  0
   -7.6305   23.3738  -29.3998 H   0  0  0  0  0  0  0  0  0  0  0  0
   -8.6050   23.7130  -31.2610 H   0  0  0  0  0  0  0  0  0  0  0  0
   -8.3657   22.1203  -33.1546 H   0  0  0  0  0  0  0  0  0  0  0  0
   -7.1394   21.3025  -32.1209 H   0  0  0  0  0  0  0  0  0  0  0  0
   -9.1787   21.6609  -30.3202 H   0  0  0  0  0  0  0  0  0  0  0  0
  -10.0932   21.4279  -31.8806 H   0  0  0  0  0  0  0  0  0  0  0  0
   -8.0114   19.5185  -30.7338 H   0  0  0  0  0  0  0  0  0  0  0  0
   -9.8198   19.3165  -30.6858 H   0  0  0  0  0  0  0  0  0  0  0  0
   -9.9343   18.6146  -32.8228 H   0  0  0  0  0  0  0  0  0  0  0  0
   -8.6749   19.8047  -33.3706 H   0  0  0  0  0  0  0  0  0  0  0  0
   -8.4120   16.9508  -32.6453 H   0  0  0  0  0  0  0  0  0  0  0  0
   -7.3494   18.0456  -33.6499 H   0  0  0  0  0  0  0  0  0  0  0  0
   -7.1344   18.7614  -30.8556 H   0  0  0  0  0  0  0  0  0  0  0  0
   -6.8145   16.9851  -31.0882 H   0  0  0  0  0  0  0  0  0  0  0  0
   -5.4870   18.1510  -33.1070 H   0  0  0  0  0  0  0  0  0  0  0  0
   -4.8060   17.5630  -31.6970 H   0  0  0  0  0  0  0  0  0  0  0  0
   -5.7797   20.3603  -31.9974 H   0  0  0  0  0  0  0  0  0  0  0  0
   -4.8599   19.6494  -30.6056 H   0  0  0  0  0  0  0  0  0  0  0  0
   -3.6195   21.9664  -31.5057 H   0  0  0  0  0  0  0  0  0  0  0  0
   -1.4840   22.5649  -32.6415 H   0  0  0  0  0  0  0  0  0  0  0  0
   -3.5186   15.9739  -34.4430 H   0  0  0  0  0  0  0  0  0  0  0  0
   -3.6484   17.3899  -35.5483 H   0  0  0  0  0  0  0  0  0  0  0  0
   -1.2427   16.5505  -33.8526 H   0  0  0  0  0  0  0  0  0  0  0  0
   -1.3620   16.6230  -35.6486 H   0  0  0  0  0  0  0  0  0  0  0  0
   -6.2974   25.6896  -31.2593 H   0  0  0  0  0  0  0  0  0  0  0  0
   -3.8610   26.4640  -30.7510 H   0  0  0  0  0  0  0  0  0  0  0  0
   -1.6919   25.3999  -29.4609 H   0  0  0  0  0  0  0  0  0  0  0  0
  1  2  1  0
  2  3  2  0
  3  4  1  0
  4  5  2  0
  5  6  1  0
  6  7  1  0
  7  8  1  0
  8  9  1  0
  9 10  1  0
 10 11  1  0
 11 12  1  0
 12 13  1  0
 13 14  1  0
 14 15  1  0
 15 16  1  0
 16 17  1  0
 17 18  2  0
 18 19  1  0
 19 20  2  0
 20 21  1  0
 20 22  1  0
 22 23  2  0
 23 24  1  0
 24 25  1  0
 25 26  1  0
 26 27  1  0
  6 28  2  0
 28 29  1  0
 29 30  1  0
 30 31  2  0
 31  2  1  0
 30  5  1  0
 23 17  1  0
 27 22  1  0
  1 32  1  0
  1 33  1  0
  1 34  1  0
  3 35  1  0
  4 36  1  0
  7 37  1  0
  7 38  1  0
  8 39  1  0
  9 40  1  0
  9 41  1  0
 10 42  1  0
 10 43  1  0
 11 44  1  0
 11 45  1  0
 12 46  1  0
 12 47  1  0
 13 48  1  0
 13 49  1  0
 14 50  1  0
 14 51  1  0
 15 52  1  0
 15 53  1  0
 16 54  1  0
 16 55  1  0
 18 56  1  0
 19 57  1  0
 25 58  1  0
 25 59  1  0
 26 60  1  0
 26 61  1  0
 28 62  1  0
 29 63  1  0
 31 64  1  0
M  CHG  1  15   1
M  END
>  <UniqueID>  (7) 
7

>  <SMILES>  (7) 
Cc1ccc2c(CNCCCCCC[NH2+]Cc3ccc(Br)c4c3OCCO4)c[nH]c2c1

>  <Energy>  (7) 
95.04054406918462

>  <Genealogy>  (7) 
Cc1ccc2c(CNCCCCCC[NH2+]Cc3ccc(Br)c4c3OCCO4)c[nH]c2c1 (protonated)
Cc1ccc2c(CNCCCCCC[NH2+]Cc3ccc(Br)c4c3OCCO4)c[nH]c2c1 (3D coordinates assigned)
Cc1ccc2c(CNCCCCCC[NH2+]Cc3ccc(Br)c4c3OCCO4)c[nH]c2c1 (nonaromatic ring conformer: 95.04054406918462 kcal/mol)

>  <smiles>  (7) 
Cc1ccc2c(CNCCCCCCNCc3ccc(Br)c4c3OCCO4)c[nH]c2c1

>  <score_type>  (7) 
oracle

>  <origin>  (7) 
adg

>  <m_score__min__energy>  (7) 
-8.7899999999999991

>  <m_primary>  (7) 
energy

$$$$
7:0
     RDKit          3D

 52 54  0  0  0  0  0  0  0  0999 V2000
   -7.7670   22.6470  -31.6610 C   0  0  0  0  0  0  0  0  0  0  0  0
   -6.8400   22.2200  -32.6320 O   0  0  0  0  0  0  0  0  0  0  0  0
   -6.7060   20.8170  -32.5710 C   0  0  0  0  0  0  0  0  0  0  0  0
   -5.3150   20.3790  -33.0680 C   0  0  0  0  0  0  0  0  0  0  0  0
   -4.1590   20.8550  -32.2710 N   0  0  0  0  0  0  0  0  0  0  0  0
   -3.7030   22.2160  -32.5760 C   0  0  0  0  0  0  0  0  0  0  0  0
   -3.0920   22.7920  -31.2880 C   0  0  1  0  0  0  0  0  0  0  0  0
   -3.8240   24.0260  -30.8260 C   0  0  0  0  0  0  0  0  0  0  0  0
   -4.9830   24.2730  -31.2580 O   0  0  0  0  0  0  0  0  0  0  0  0
   -3.1730   24.9320  -29.9270 N   0  0  0  0  0  0  0  0  0  0  0  0
   -2.3740   24.5740  -28.7910 C   0  0  0  0  0  0  0  0  0  0  0  0
   -1.0460   24.1800  -29.0000 C   0  0  0  0  0  0  0  0  0  0  0  0
   -0.2410   23.8020  -27.9210 C   0  0  0  0  0  0  0  0  0  0  0  0
   -0.7630   23.8010  -26.6250 C   0  0  0  0  0  0  0  0  0  0  0  0
    0.3360   23.2810  -25.1510 Br  0  0  0  0  0  0  0  0  0  0  0  0
   -2.0950   24.1690  -26.4090 C   0  0  0  0  0  0  0  0  0  0  0  0
   -2.9010   24.5480  -27.4860 C   0  0  0  0  0  0  0  0  0  0  0  0
   -3.1890   21.6640  -30.2470 C   0  0  2  0  0  0  0  0  0  0  0  0
   -1.8490   20.9680  -30.0810 C   0  0  0  0  0  0  0  0  0  0  0  0
   -0.9370   21.1840  -30.9270 O   0  0  0  0  0  0  0  0  0  0  0  0
   -1.5720   20.1190  -28.9420 N   0  0  0  0  0  0  0  0  0  0  0  0
   -2.5010   20.0450  -27.8050 C   0  0  0  0  0  0  0  0  0  0  0  0
   -1.7600   19.6220  -26.5350 C   0  0  0  0  0  0  0  0  0  0  0  0
   -0.9960   18.4560  -26.7600 O   0  0  0  0  0  0  0  0  0  0  0  0
    0.0360   18.7410  -27.6830 C   0  0  0  0  0  0  0  0  0  0  0  0
   -0.5440   19.0770  -29.0600 C   0  0  0  0  0  0  0  0  0  0  0  0
   -4.2560   20.7330  -30.8140 C   0  0  0  0  0  0  0  0  0  0  0  0
   -7.3590   22.4591  -30.6569 H   0  0  0  0  0  0  0  0  0  0  0  0
   -7.9572   23.7234  -31.7839 H   0  0  0  0  0  0  0  0  0  0  0  0
   -8.7087   22.0919  -31.7839 H   0  0  0  0  0  0  0  0  0  0  0  0
   -6.8376   20.4869  -31.5300 H   0  0  0  0  0  0  0  0  0  0  0  0
   -7.4711   20.3610  -33.2164 H   0  0  0  0  0  0  0  0  0  0  0  0
   -5.2904   19.2793  -33.0724 H   0  0  0  0  0  0  0  0  0  0  0  0
   -5.1981   20.8367  -34.0614 H   0  0  0  0  0  0  0  0  0  0  0  0
   -2.9454   22.1896  -33.3731 H   0  0  0  0  0  0  0  0  0  0  0  0
   -4.5405   22.8392  -32.9227 H   0  0  0  0  0  0  0  0  0  0  0  0
   -2.0513   23.1103  -31.4482 H   0  0  0  0  0  0  0  0  0  0  0  0
   -0.6338   24.1679  -30.0198 H   0  0  0  0  0  0  0  0  0  0  0  0
    0.8042   23.5052  -28.0927 H   0  0  0  0  0  0  0  0  0  0  0  0
   -2.5088   24.1601  -25.3898 H   0  0  0  0  0  0  0  0  0  0  0  0
   -3.9509   24.8270  -27.3133 H   0  0  0  0  0  0  0  0  0  0  0  0
   -3.4521   22.0229  -29.2410 H   0  0  0  0  0  0  0  0  0  0  0  0
   -2.9577   21.0329  -27.6457 H   0  0  0  0  0  0  0  0  0  0  0  0
   -3.2785   19.2997  -28.0285 H   0  0  0  0  0  0  0  0  0  0  0  0
   -1.0901   20.4361  -26.2212 H   0  0  0  0  0  0  0  0  0  0  0  0
   -2.5015   19.4095  -25.7507 H   0  0  0  0  0  0  0  0  0  0  0  0
    0.6194   19.5992  -27.3181 H   0  0  0  0  0  0  0  0  0  0  0  0
    0.6792   17.8537  -27.7781 H   0  0  0  0  0  0  0  0  0  0  0  0
    0.2630   19.4366  -29.7153 H   0  0  0  0  0  0  0  0  0  0  0  0
   -1.0010   18.1714  -29.4854 H   0  0  0  0  0  0  0  0  0  0  0  0
   -4.0637   19.6956  -30.5028 H   0  0  0  0  0  0  0  0  0  0  0  0
   -5.2598   20.9993  -30.4514 H   0  0  0  0  0  0  0  0  0  0  0  0
  1  2  1  0
  2  3  1  0
  3  4  1  0
  4  5  1  0
  5  6  1  0
  6  7  1  0
  7  8  1  0
  8  9  2  0
  8 10  1  0
 10 11  1  0
 11 12  2  0
 12 13  1  0
 13 14  2  0
 14 15  1  0
 14 16  1  0
 16 17  2  0
  7 18  1  0
 18 19  1  0
 19 20  2  0
 19 21  1  0
 21 22  1  0
 22 23  1  0
 23 24  1  0
 24 25  1  0
 25 26  1  0
 18 27  1  0
 27  5  1  0
 17 11  1  0
 26 21  1  0
  1 28  1  0
  1 29  1  0
  1 30  1  0
  3 31  1  0
  3 32  1  0
  4 33  1  0
  4 34  1  0
  6 35  1  0
  6 36  1  0
  7 37  1  6
 12 38  1  0
 13 39  1  0
 16 40  1  0
 17 41  1  0
 18 42  1  1
 22 43  1  0
 22 44  1  0
 23 45  1  0
 23 46  1  0
 25 47  1  0
 25 48  1  0
 26 49  1  0
 26 50  1  0
 27 51  1  0
 27 52  1  0
M  CHG  1  10  -1
M  END
>  <UniqueID>  (8) 
8

>  <SMILES>  (8) 
COCCN1C[C@@H](C(=O)[N-]c2ccc(Br)cc2)[C@H](C(=O)N2CCOCC2)C1

>  <Energy>  (8) 
67.57062388864288

>  <Genealogy>  (8) 
COCCN1CC(C(=O)[N-]c2ccc(Br)cc2)C(C(=O)N2CCOCC2)C1 (protonated)
COCCN1C[C@@H](C(=O)[N-]c2ccc(Br)cc2)[C@H](C(=O)N2CCOCC2)C1 (chirality)
COCCN1C[C@@H](C(=O)[N-]c2ccc(Br)cc2)[C@H](C(=O)N2CCOCC2)C1 (3D coordinates assigned)
COCCN1C[C@@H](C(=O)[N-]c2ccc(Br)cc2)[C@H](C(=O)N2CCOCC2)C1 (nonaromatic ring conformer: 67.57062388864288 kcal/mol)

>  <smiles>  (8) 
COCCN1CC(C(=O)Nc2ccc(Br)cc2)C(C(=O)N2CCOCC2)C1

>  <score_type>  (8) 
oracle

>  <origin>  (8) 
adg

>  <m_score__min__energy>  (8) 
-10.08

>  <m_primary>  (8) 
energy

$$$$
8:0
     RDKit          3D

 54 57  0  0  0  0  0  0  0  0999 V2000
   -0.5540   28.8250  -25.8640 C   0  0  0  0  0  0  0  0  0  0  0  0
   -0.8450   27.4120  -26.2710 C   0  0  0  0  0  0  0  0  0  0  0  0
   -1.5370   26.5530  -25.4040 C   0  0  0  0  0  0  0  0  0  0  0  0
   -1.8380   25.2460  -25.7990 C   0  0  0  0  0  0  0  0  0  0  0  0
   -1.4690   24.7850  -27.0730 C   0  0  0  0  0  0  0  0  0  0  0  0
   -1.7680   23.4350  -27.4720 N   0  0  0  0  0  0  0  0  0  0  0  0
   -3.1650   22.9760  -27.4880 C   0  0  0  0  0  0  0  0  0  0  0  0
   -3.2900   21.5650  -28.0790 C   0  0  0  0  0  0  0  0  0  0  0  0
   -2.4660   21.4360  -29.2950 N   0  0  0  0  0  0  0  0  0  0  0  0
   -2.9880   20.7420  -30.4540 C   0  0  0  0  0  0  0  0  0  0  0  0
   -4.1810   20.3280  -30.4570 O   0  0  0  0  0  0  0  0  0  0  0  0
   -2.1430   20.4650  -31.6690 C   0  0  0  0  0  0  0  0  0  0  0  0
   -2.6620   21.4880  -33.0950 S   0  0  0  0  0  0  0  0  0  0  0  0
   -4.3450   20.8440  -33.1690 C   0  0  0  0  0  0  0  0  0  0  0  0
   -4.5550   19.6350  -33.8360 C   0  0  0  0  0  0  0  0  0  0  0  0
   -5.8440   19.1000  -33.9290 C   0  0  0  0  0  0  0  0  0  0  0  0
   -6.0590   17.7820  -34.6120 C   0  0  0  0  0  0  0  0  0  0  0  0
   -6.8930   19.7480  -33.3470 N   0  0  0  0  0  0  0  0  0  0  0  0
   -6.7280   20.9360  -32.6950 C   0  0  0  0  0  0  0  0  0  0  0  0
   -7.8370   21.5850  -32.1260 C   0  0  0  0  0  0  0  0  0  0  0  0
   -7.6760   22.8010  -31.4590 C   0  0  0  0  0  0  0  0  0  0  0  0
   -6.4100   23.3840  -31.3590 C   0  0  0  0  0  0  0  0  0  0  0  0
   -6.2190   24.9140  -30.5230 Cl  0  0  0  0  0  0  0  0  0  0  0  0
   -5.2980   22.7520  -31.9230 C   0  0  0  0  0  0  0  0  0  0  0  0
   -5.4410   21.5210  -32.5940 C   0  0  0  0  0  0  0  0  0  0  0  0
   -1.0800   21.9400  -29.2860 C   0  0  0  0  0  0  0  0  0  0  0  0
   -0.7030   22.5350  -27.9270 C   0  0  0  0  0  0  0  0  0  0  0  0
   -0.7880   25.6510  -27.9430 C   0  0  0  0  0  0  0  0  0  0  0  0
   -0.4860   26.9580  -27.5480 C   0  0  0  0  0  0  0  0  0  0  0  0
   -0.5396   28.8948  -24.7663 H   0  0  0  0  0  0  0  0  0  0  0  0
    0.4253   29.1274  -26.2635 H   0  0  0  0  0  0  0  0  0  0  0  0
   -1.3341   29.4897  -26.2635 H   0  0  0  0  0  0  0  0  0  0  0  0
   -1.8439   26.9092  -24.4096 H   0  0  0  0  0  0  0  0  0  0  0  0
   -2.3674   24.5744  -25.1071 H   0  0  0  0  0  0  0  0  0  0  0  0
   -3.5494   22.9666  -26.4574 H   0  0  0  0  0  0  0  0  0  0  0  0
   -3.7462   23.6654  -28.1181 H   0  0  0  0  0  0  0  0  0  0  0  0
   -2.9521   20.8298  -27.3338 H   0  0  0  0  0  0  0  0  0  0  0  0
   -4.3423   21.3834  -28.3431 H   0  0  0  0  0  0  0  0  0  0  0  0
   -1.0924   20.6888  -31.4322 H   0  0  0  0  0  0  0  0  0  0  0  0
   -2.2664   19.4063  -31.9409 H   0  0  0  0  0  0  0  0  0  0  0  0
   -3.7055   19.1028  -34.2888 H   0  0  0  0  0  0  0  0  0  0  0  0
   -6.1876   16.9937  -33.8556 H   0  0  0  0  0  0  0  0  0  0  0  0
   -6.9600   17.8374  -35.2406 H   0  0  0  0  0  0  0  0  0  0  0  0
   -5.1871   17.5482  -35.2406 H   0  0  0  0  0  0  0  0  0  0  0  0
   -7.8460   19.3230  -33.4080 H   0  0  0  0  0  0  0  0  0  0  0  0
   -8.8366   21.1329  -32.2065 H   0  0  0  0  0  0  0  0  0  0  0  0
   -8.5475   23.3011  -31.0113 H   0  0  0  0  0  0  0  0  0  0  0  0
   -4.3051   23.2185  -31.8426 H   0  0  0  0  0  0  0  0  0  0  0  0
   -0.3967   21.1084  -29.5130 H   0  0  0  0  0  0  0  0  0  0  0  0
   -0.9990   22.7343  -30.0426 H   0  0  0  0  0  0  0  0  0  0  0  0
   -0.5718   21.7238  -27.1958 H   0  0  0  0  0  0  0  0  0  0  0  0
    0.2363   23.0993  -28.0229 H   0  0  0  0  0  0  0  0  0  0  0  0
   -0.4901   25.2993  -28.9418 H   0  0  0  0  0  0  0  0  0  0  0  0
    0.0356   27.6331  -28.2424 H   0  0  0  0  0  0  0  0  0  0  0  0
  1  2  1  0
  2  3  2  0
  3  4  1  0
  4  5  2  0
  5  6  1  0
  6  7  1  0
  7  8  1  0
  8  9  1  0
  9 10  1  0
 10 11  2  0
 10 12  1  0
 12 13  1  0
 13 14  1  0
 14 15  2  0
 15 16  1  0
 16 17  1  0
 16 18  2  0
 18 19  1  0
 19 20  2  0
 20 21  1  0
 21 22  2  0
 22 23  1  0
 22 24  1  0
 24 25  2  0
  9 26  1  0
 26 27  1  0
  5 28  1  0
 28 29  2  0
 29  2  1  0
 27  6  1  0
 25 14  1  0
 25 19  1  0
  1 30  1  0
  1 31  1  0
  1 32  1  0
  3 33  1  0
  4 34  1  0
  7 35  1  0
  7 36  1  0
  8 37  1  0
  8 38  1  0
 12 39  1  0
 12 40  1  0
 15 41  1  0
 17 42  1  0
 17 43  1  0
 17 44  1  0
 18 45  1  0
 20 46  1  0
 21 47  1  0
 24 48  1  0
 26 49  1  0
 26 50  1  0
 27 51  1  0
 27 52  1  0
 28 53  1  0
 29 54  1  0
M  CHG  1  18   1
M  END
>  <UniqueID>  (9) 
9

>  <SMILES>  (9) 
Cc1ccc(N2CCN(C(=O)CSc3cc(C)[nH+]c4ccc(Cl)cc34)CC2)cc1

>  <Energy>  (9) 
60.36658335099071

>  <Genealogy>  (9) 
Cc1ccc(N2CCN(C(=O)CSc3cc(C)[nH+]c4ccc(Cl)cc34)CC2)cc1 (protonated)
Cc1ccc(N2CCN(C(=O)CSc3cc(C)[nH+]c4ccc(Cl)cc34)CC2)cc1 (3D coordinates assigned)
Cc1ccc(N2CCN(C(=O)CSc3cc(C)[nH+]c4ccc(Cl)cc34)CC2)cc1 (nonaromatic ring conformer: 60.36658335099071 kcal/mol)

>  <smiles>  (9) 
Cc1ccc(N2CCN(C(=O)CSc3cc(C)nc4ccc(Cl)cc34)CC2)cc1

>  <score_type>  (9) 
oracle

>  <origin>  (9) 
adg

>  <m_score__min__energy>  (9) 
-9.8499999999999996

>  <m_primary>  (9) 
energy

$$$$
9:0
     RDKit          3D

 51 53  0  0  0  0  0  0  0  0999 V2000
   -1.9340   24.9600  -28.5580 C   0  0  0  0  0  0  0  0  0  0  0  0
   -2.7740   25.1210  -29.6960 O   0  0  0  0  0  0  0  0  0  0  0  0
   -4.0460   24.5420  -29.8330 C   0  0  0  0  0  0  0  0  0  0  0  0
   -5.1800   25.3020  -30.1760 C   0  0  0  0  0  0  0  0  0  0  0  0
   -6.4300   24.6930  -30.2940 C   0  0  0  0  0  0  0  0  0  0  0  0
   -6.5770   23.3180  -30.0600 C   0  0  0  0  0  0  0  0  0  0  0  0
   -7.9430   22.6670  -30.1750 C   0  0  0  0  0  0  0  0  0  0  0  0
   -8.2000   22.0380  -31.4920 N   0  0  0  0  0  0  0  0  0  0  0  0
   -6.9940   21.8480  -32.3310 C   0  0  0  0  0  0  0  0  0  0  0  0
   -6.6190   20.3640  -32.4590 C   0  0  0  0  0  0  0  0  0  0  0  0
   -7.7120   19.5750  -33.0880 N   0  0  0  0  0  0  0  0  0  0  0  0
   -7.5550   18.1410  -32.7360 C   0  0  0  0  0  0  0  0  0  0  0  0
   -6.2880   17.5460  -33.3080 C   0  0  0  0  0  0  0  0  0  0  0  0
   -5.5840   16.5510  -32.6080 C   0  0  0  0  0  0  0  0  0  0  0  0
   -4.4150   16.0040  -33.1460 C   0  0  0  0  0  0  0  0  0  0  0  0
   -3.9380   16.4460  -34.3820 C   0  0  0  0  0  0  0  0  0  0  0  0
   -4.6290   17.4380  -35.0830 C   0  0  0  0  0  0  0  0  0  0  0  0
   -5.7990   17.9880  -34.5500 C   0  0  0  0  0  0  0  0  0  0  0  0
   -9.0730   20.0860  -32.7470 C   0  0  0  0  0  0  0  0  0  0  0  0
   -9.0900   20.8580  -31.4210 C   0  0  0  0  0  0  0  0  0  0  0  0
   -5.4420   22.5530  -29.7480 C   0  0  0  0  0  0  0  0  0  0  0  0
   -4.1770   23.1610  -29.6220 C   0  0  0  0  0  0  0  0  0  0  0  0
   -3.0280   22.4270  -29.2880 O   0  0  0  0  0  0  0  0  0  0  0  0
   -2.9350   21.5290  -28.1860 C   0  0  0  0  0  0  0  0  0  0  0  0
   -2.5319   25.0746  -27.6418 H   0  0  0  0  0  0  0  0  0  0  0  0
   -1.4796   23.9584  -28.5764 H   0  0  0  0  0  0  0  0  0  0  0  0
   -1.1415   25.7226  -28.5764 H   0  0  0  0  0  0  0  0  0  0  0  0
   -5.0802   26.3832  -30.3522 H   0  0  0  0  0  0  0  0  0  0  0  0
   -7.3068   25.2960  -30.5727 H   0  0  0  0  0  0  0  0  0  0  0  0
   -8.0233   21.8913  -29.3992 H   0  0  0  0  0  0  0  0  0  0  0  0
   -8.6887   23.4663  -30.0522 H   0  0  0  0  0  0  0  0  0  0  0  0
   -7.1902   22.2539  -33.3344 H   0  0  0  0  0  0  0  0  0  0  0  0
   -6.1556   22.3733  -31.8502 H   0  0  0  0  0  0  0  0  0  0  0  0
   -5.7139   20.2767  -33.0781 H   0  0  0  0  0  0  0  0  0  0  0  0
   -6.4442   19.9651  -31.4489 H   0  0  0  0  0  0  0  0  0  0  0  0
   -7.5910   19.6700  -34.1250 H   0  0  0  0  0  0  0  0  0  0  0  0
   -7.5271   18.0465  -31.6404 H   0  0  0  0  0  0  0  0  0  0  0  0
   -8.4076   17.5936  -33.1644 H   0  0  0  0  0  0  0  0  0  0  0  0
   -5.9542   16.2012  -31.6330 H   0  0  0  0  0  0  0  0  0  0  0  0
   -3.8698   15.2238  -32.5945 H   0  0  0  0  0  0  0  0  0  0  0  0
   -3.0187   16.0134  -34.8036 H   0  0  0  0  0  0  0  0  0  0  0  0
   -4.2519   17.7868  -36.0557 H   0  0  0  0  0  0  0  0  0  0  0  0
   -6.3390   18.7696  -35.1046 H   0  0  0  0  0  0  0  0  0  0  0  0
   -9.4108   20.7565  -33.5510 H   0  0  0  0  0  0  0  0  0  0  0  0
   -9.7410   19.2186  -32.6399 H   0  0  0  0  0  0  0  0  0  0  0  0
  -10.1167   21.1921  -31.2107 H   0  0  0  0  0  0  0  0  0  0  0  0
   -8.7336   20.1936  -30.6201 H   0  0  0  0  0  0  0  0  0  0  0  0
   -5.5412   21.4675  -29.6003 H   0  0  0  0  0  0  0  0  0  0  0  0
   -2.9937   22.0959  -27.2451 H   0  0  0  0  0  0  0  0  0  0  0  0
   -3.7631   20.8064  -28.2310 H   0  0  0  0  0  0  0  0  0  0  0  0
   -1.9764   20.9914  -28.2310 H   0  0  0  0  0  0  0  0  0  0  0  0
  1  2  1  0
  2  3  1  0
  3  4  2  0
  4  5  1  0
  5  6  2  0
  6  7  1  0
  7  8  1  0
  8  9  1  0
  9 10  1  0
 10 11  1  0
 11 12  1  0
 12 13  1  0
 13 14  2  0
 14 15  1  0
 15 16  2  0
 16 17  1  0
 17 18  2  0
 11 19  1  0
 19 20  1  0
  6 21  1  0
 21 22  2  0
 22 23  1  0
 23 24  1  0
 22  3  1  0
 20  8  1  0
 18 13  1  0
  1 25  1  0
  1 26  1  0
  1 27  1  0
  4 28  1  0
  5 29  1  0
  7 30  1  0
  7 31  1  0
  9 32  1  0
  9 33  1  0
 10 34  1  0
 10 35  1  0
 11 36  1  0
 12 37  1  0
 12 38  1  0
 14 39  1  0
 15 40  1  0
 16 41  1  0
 17 42  1  0
 18 43  1  0
 19 44  1  0
 19 45  1  0
 20 46  1  0
 20 47  1  0
 21 48  1  0
 24 49  1  0
 24 50  1  0
 24 51  1  0
M  CHG  1  11   1
M  END
>  <UniqueID>  (10) 
10

>  <SMILES>  (10) 
COc1ccc(CN2CC[NH+](Cc3ccccc3)CC2)cc1OC

>  <Energy>  (10) 
67.06313505186175

>  <Genealogy>  (10) 
COc1ccc(CN2CC[NH+](Cc3ccccc3)CC2)cc1OC (protonated)
COc1ccc(CN2CC[NH+](Cc3ccccc3)CC2)cc1OC (3D coordinates assigned)
COc1ccc(CN2CC[NH+](Cc3ccccc3)CC2)cc1OC (nonaromatic ring conformer: 67.06313505186175 kcal/mol)

>  <smiles>  (10) 
COc1ccc(CN2CCN(Cc3ccccc3)CC2)cc1OC

>  <score_type>  (10) 
oracle

>  <origin>  (10) 
adg

>  <m_score__min__energy>  (10) 
-7.79

>  <m_primary>  (10) 
energy

$$$$
10:0
     RDKit          3D

 42 43  0  0  0  0  0  0  0  0999 V2000
   -3.4720   17.8460  -33.6660 C   0  0  0  0  0  0  0  0  0  0  0  0
   -4.6170   16.9510  -33.9000 N   0  0  0  0  0  0  0  0  0  0  0  0
   -4.2350   15.7990  -34.7300 C   0  0  0  0  0  0  0  0  0  0  0  0
   -5.1990   16.5020  -32.6490 C   0  0  0  0  0  0  0  0  0  0  0  0
   -4.6340   15.6300  -32.0040 O   0  0  0  0  0  0  0  0  0  0  0  0
   -6.4920   17.0770  -32.1120 C   0  0  0  0  0  0  0  0  0  0  0  0
   -7.1760   17.8210  -33.1170 O   0  0  0  0  0  0  0  0  0  0  0  0
   -6.8100   19.1170  -33.5040 C   0  0  0  0  0  0  0  0  0  0  0  0
   -6.0780   19.2910  -34.5180 O   0  0  0  0  0  0  0  0  0  0  0  0
   -7.2760   20.2760  -32.7120 C   0  0  0  0  0  0  0  0  0  0  0  0
   -8.6290   20.3800  -32.3470 C   0  0  0  0  0  0  0  0  0  0  0  0
   -9.0750   21.4590  -31.5830 C   0  0  0  0  0  0  0  0  0  0  0  0
   -8.1780   22.4400  -31.1610 C   0  0  0  0  0  0  0  0  0  0  0  0
   -6.8180   22.3570  -31.5100 C   0  0  0  0  0  0  0  0  0  0  0  0
   -5.8770   23.3340  -31.0190 N   0  0  0  0  0  0  0  0  0  0  0  0
   -6.3080   24.7410  -30.9620 C   0  0  0  0  0  0  0  0  0  0  0  0
   -5.2730   25.6390  -30.2820 C   0  0  0  0  0  0  0  0  0  0  0  0
   -3.9630   25.2960  -30.6930 O   0  0  0  0  0  0  0  0  0  0  0  0
   -3.6390   24.0350  -30.1530 C   0  0  0  0  0  0  0  0  0  0  0  0
   -4.4740   22.9290  -30.8090 C   0  0  0  0  0  0  0  0  0  0  0  0
   -6.3790   21.2770  -32.2970 C   0  0  0  0  0  0  0  0  0  0  0  0
   -3.3167   17.9674  -32.5838 H   0  0  0  0  0  0  0  0  0  0  0  0
   -2.5687   17.4121  -34.1197 H   0  0  0  0  0  0  0  0  0  0  0  0
   -3.6750   18.8273  -34.1197 H   0  0  0  0  0  0  0  0  0  0  0  0
   -5.3400   17.4970  -34.4290 H   0  0  0  0  0  0  0  0  0  0  0  0
   -3.9555   14.9560  -34.0809 H   0  0  0  0  0  0  0  0  0  0  0  0
   -5.0844   15.5069  -35.3650 H   0  0  0  0  0  0  0  0  0  0  0  0
   -3.3794   16.0722  -35.3650 H   0  0  0  0  0  0  0  0  0  0  0  0
   -7.1377   16.2541  -31.7715 H   0  0  0  0  0  0  0  0  0  0  0  0
   -6.2552   17.7519  -31.2763 H   0  0  0  0  0  0  0  0  0  0  0  0
   -9.3417   19.6051  -32.6659 H   0  0  0  0  0  0  0  0  0  0  0  0
  -10.1384   21.5362  -31.3124 H   0  0  0  0  0  0  0  0  0  0  0  0
   -8.5360   23.2831  -30.5520 H   0  0  0  0  0  0  0  0  0  0  0  0
   -6.4705   25.1029  -31.9880 H   0  0  0  0  0  0  0  0  0  0  0  0
   -7.2332   24.7854  -30.3686 H   0  0  0  0  0  0  0  0  0  0  0  0
   -5.4726   26.6869  -30.5507 H   0  0  0  0  0  0  0  0  0  0  0  0
   -5.3483   25.5020  -29.1932 H   0  0  0  0  0  0  0  0  0  0  0  0
   -2.5720   23.8320  -30.3268 H   0  0  0  0  0  0  0  0  0  0  0  0
   -3.8566   24.0475  -29.0748 H   0  0  0  0  0  0  0  0  0  0  0  0
   -4.0283   22.6806  -31.7835 H   0  0  0  0  0  0  0  0  0  0  0  0
   -4.4727   22.0615  -30.1326 H   0  0  0  0  0  0  0  0  0  0  0  0
   -5.3210   21.2144  -32.5916 H   0  0  0  0  0  0  0  0  0  0  0  0
  1  2  1  0
  2  3  1  0
  2  4  1  0
  4  5  2  0
  4  6  1  0
  6  7  1  0
  7  8  1  0
  8  9  2  0
  8 10  1  0
 10 11  2  0
 11 12  1  0
 12 13  2  0
 13 14  1  0
 14 15  1  0
 15 16  1  0
 16 17  1  0
 17 18  1  0
 18 19  1  0
 19 20  1  0
 14 21  2  0
 21 10  1  0
 20 15  1  0
  1 22  1  0
  1 23  1  0
  1 24  1  0
  2 25  1  0
  3 26  1  0
  3 27  1  0
  3 28  1  0
  6 29  1  0
  6 30  1  0
 11 31  1  0
 12 32  1  0
 13 33  1  0
 16 34  1  0
 16 35  1  0
 17 36  1  0
 17 37  1  0
 19 38  1  0
 19 39  1  0
 20 40  1  0
 20 41  1  0
 21 42  1  0
M  CHG  1   2   1
M  END
>  <UniqueID>  (11) 
11

>  <SMILES>  (11) 
C[NH+](C)C(=O)COC(=O)c1cccc(N2CCOCC2)c1

>  <Energy>  (11) 
48.48703440109062

>  <Genealogy>  (11) 
C[NH+](C)C(=O)COC(=O)c1cccc(N2CCOCC2)c1 (protonated)
C[NH+](C)C(=O)COC(=O)c1cccc(N2CCOCC2)c1 (3D coordinates assigned)
C[NH+](C)C(=O)COC(=O)c1cccc(N2CCOCC2)c1 (nonaromatic ring conformer: 48.48703440109062 kcal/mol)

>  <smiles>  (11) 
CN(C)C(=O)COC(=O)c1cccc(N2CCOCC2)c1

>  <score_type>  (11) 
oracle

>  <origin>  (11) 
adg

>  <m_score__min__energy>  (11) 
-6.5099999999999998

>  <m_primary>  (11) 
energy

$$$$
11:0
     RDKit          3D

 63 67  0  0  0  0  0  0  0  0999 V2000
   -9.8240   21.2520  -32.0110 C   0  0  0  0  0  0  0  0  0  0  0  0
   -8.4990   20.6640  -32.3870 C   0  0  0  0  0  0  0  0  0  0  0  0
   -8.4070   19.4710  -33.0250 N   0  0  0  0  0  0  0  0  0  0  0  0
   -7.0920   19.2740  -33.1860 C   0  0  0  0  0  0  0  0  0  0  0  0
   -6.4590   18.1990  -33.8040 C   0  0  0  0  0  0  0  0  0  0  0  0
   -5.0570   18.2180  -33.8720 C   0  0  0  0  0  0  0  0  0  0  0  0
   -4.3310   19.3020  -33.3290 C   0  0  0  0  0  0  0  0  0  0  0  0
   -5.0010   20.3740  -32.7100 C   0  0  0  0  0  0  0  0  0  0  0  0
   -6.4010   20.3240  -32.6500 C   0  0  0  0  0  0  0  0  0  0  0  0
   -7.2730   21.2140  -32.1180 N   0  0  0  0  0  0  0  0  0  0  0  0
   -6.9350   22.5030  -31.4770 C   0  0  0  0  0  0  0  0  0  0  0  0
   -6.7440   22.3340  -29.9620 C   0  0  0  0  0  0  0  0  0  0  0  0
   -6.0760   23.5700  -29.3720 C   0  0  0  0  0  0  0  0  0  0  0  0
   -4.7310   23.7230  -29.9440 N   0  0  0  0  0  0  0  0  0  0  0  0
   -3.6170   24.1570  -29.1370 C   0  0  0  0  0  0  0  0  0  0  0  0
   -2.7670   24.9420  -29.6410 O   0  0  0  0  0  0  0  0  0  0  0  0
   -3.4040   23.6130  -27.7310 C   0  0  0  0  0  0  0  0  0  0  0  0
   -2.3900   24.4460  -26.9070 C   0  0  0  0  0  0  0  0  0  0  0  0
   -0.9570   23.9670  -27.1610 C   0  0  0  0  0  0  0  0  0  0  0  0
   -0.7640   22.5590  -26.7420 N   0  0  0  0  0  0  0  0  0  0  0  0
    0.4090   21.9120  -27.3720 C   0  0  0  0  0  0  0  0  0  0  0  0
    0.0730   21.1610  -28.6400 C   0  0  0  0  0  0  0  0  0  0  0  0
    0.2880   19.7770  -28.7360 C   0  0  0  0  0  0  0  0  0  0  0  0
   -0.0490   19.1100  -29.9150 C   0  0  0  0  0  0  0  0  0  0  0  0
   -0.5900   19.8220  -30.9860 C   0  0  0  0  0  0  0  0  0  0  0  0
   -0.7820   21.1980  -30.8610 C   0  0  0  0  0  0  0  0  0  0  0  0
   -0.4460   21.8310  -29.7060 N   0  0  0  0  0  0  0  0  0  0  0  0
   -1.9890   21.7220  -26.7150 C   0  0  0  0  0  0  0  0  0  0  0  0
   -2.9910   22.1170  -27.8100 C   0  0  0  0  0  0  0  0  0  0  0  0
   -4.4810   23.4120  -31.3620 C   0  0  0  0  0  0  0  0  0  0  0  0
   -5.7730   23.2500  -32.1900 C   0  0  0  0  0  0  0  0  0  0  0  0
   -9.9104   21.2903  -30.9151 H   0  0  0  0  0  0  0  0  0  0  0  0
   -9.9031   22.2697  -32.4209 H   0  0  0  0  0  0  0  0  0  0  0  0
  -10.6317   20.6278  -32.4209 H   0  0  0  0  0  0  0  0  0  0  0  0
   -9.1870   18.8460  -33.3310 H   0  0  0  0  0  0  0  0  0  0  0  0
   -7.0376   17.3634  -34.2246 H   0  0  0  0  0  0  0  0  0  0  0  0
   -4.5209   17.3850  -34.3503 H   0  0  0  0  0  0  0  0  0  0  0  0
   -3.2327   19.3081  -33.3906 H   0  0  0  0  0  0  0  0  0  0  0  0
   -4.4444   21.2233  -32.2871 H   0  0  0  0  0  0  0  0  0  0  0  0
   -7.7970   23.1746  -31.6030 H   0  0  0  0  0  0  0  0  0  0  0  0
   -7.7253   22.1900  -29.4864 H   0  0  0  0  0  0  0  0  0  0  0  0
   -6.1037   21.4588  -29.7775 H   0  0  0  0  0  0  0  0  0  0  0  0
   -6.6780   24.4598  -29.6086 H   0  0  0  0  0  0  0  0  0  0  0  0
   -5.9985   23.4579  -28.2805 H   0  0  0  0  0  0  0  0  0  0  0  0
   -4.3581   23.6959  -27.1899 H   0  0  0  0  0  0  0  0  0  0  0  0
   -2.4730   25.5040  -27.1965 H   0  0  0  0  0  0  0  0  0  0  0  0
   -2.6185   24.3219  -25.8382 H   0  0  0  0  0  0  0  0  0  0  0  0
   -0.7388   24.0515  -28.2358 H   0  0  0  0  0  0  0  0  0  0  0  0
   -0.2766   24.5960  -26.5682 H   0  0  0  0  0  0  0  0  0  0  0  0
    1.1482   22.6900  -27.6133 H   0  0  0  0  0  0  0  0  0  0  0  0
    0.7984   21.1762  -26.6530 H   0  0  0  0  0  0  0  0  0  0  0  0
    0.7185   19.2227  -27.8890 H   0  0  0  0  0  0  0  0  0  0  0  0
    0.1117   18.0251  -29.9996 H   0  0  0  0  0  0  0  0  0  0  0  0
   -0.8619   19.3045  -31.9178 H   0  0  0  0  0  0  0  0  0  0  0  0
   -1.2059   21.7717  -31.6984 H   0  0  0  0  0  0  0  0  0  0  0  0
   -1.7018   20.6703  -26.8614 H   0  0  0  0  0  0  0  0  0  0  0  0
   -2.4782   21.8739  -25.7415 H   0  0  0  0  0  0  0  0  0  0  0  0
   -2.5318   21.9297  -28.7919 H   0  0  0  0  0  0  0  0  0  0  0  0
   -3.8986   21.5128  -27.6646 H   0  0  0  0  0  0  0  0  0  0  0  0
   -3.8869   24.2283  -31.7987 H   0  0  0  0  0  0  0  0  0  0  0  0
   -3.9508   22.4488  -31.3950 H   0  0  0  0  0  0  0  0  0  0  0  0
   -6.1309   24.2545  -32.4599 H   0  0  0  0  0  0  0  0  0  0  0  0
   -5.5009   22.6289  -33.0562 H   0  0  0  0  0  0  0  0  0  0  0  0
  1  2  1  0
  2  3  2  0
  3  4  1  0
  4  5  2  0
  5  6  1  0
  6  7  2  0
  7  8  1  0
  8  9  2  0
  9 10  1  0
 10 11  1  0
 11 12  1  0
 12 13  1  0
 13 14  1  0
 14 15  1  0
 15 16  2  0
 15 17  1  0
 17 18  1  0
 18 19  1  0
 19 20  1  0
 20 21  1  0
 21 22  1  0
 22 23  2  0
 23 24  1  0
 24 25  2  0
 25 26  1  0
 26 27  2  0
 20 28  1  0
 28 29  1  0
 14 30  1  0
 30 31  1  0
 10  2  1  0
 31 11  1  0
  9  4  1  0
 29 17  1  0
 27 22  1  0
  1 32  1  0
  1 33  1  0
  1 34  1  0
  3 35  1  0
  5 36  1  0
  6 37  1  0
  7 38  1  0
  8 39  1  0
 11 40  1  0
 12 41  1  0
 12 42  1  0
 13 43  1  0
 13 44  1  0
 17 45  1  0
 18 46  1  0
 18 47  1  0
 19 48  1  0
 19 49  1  0
 21 50  1  0
 21 51  1  0
 23 52  1  0
 24 53  1  0
 25 54  1  0
 26 55  1  0
 28 56  1  0
 28 57  1  0
 29 58  1  0
 29 59  1  0
 30 60  1  0
 30 61  1  0
 31 62  1  0
 31 63  1  0
M  CHG  1   3   1
M  END
>  <UniqueID>  (12) 
12

>  <SMILES>  (12) 
Cc1[nH+]c2ccccc2n1C1CCN(C(=O)C2CCN(Cc3ccccn3)CC2)CC1

>  <Energy>  (12) 
123.8544289447337

>  <Genealogy>  (12) 
Cc1[nH+]c2ccccc2n1C1CCN(C(=O)C2CCN(Cc3ccccn3)CC2)CC1 (protonated)
Cc1[nH+]c2ccccc2n1C1CCN(C(=O)C2CCN(Cc3ccccn3)CC2)CC1 (3D coordinates assigned)
Cc1[nH+]c2ccccc2n1C1CCN(C(=O)C2CCN(Cc3ccccn3)CC2)CC1 (nonaromatic ring conformer: 123.8544289447337 kcal/mol)

>  <smiles>  (12) 
Cc1nc2ccccc2n1C1CCN(C(=O)C2CCN(Cc3ccccn3)CC2)CC1

>  <score_type>  (12) 
oracle

>  <origin>  (12) 
adg

>  <m_score__min__energy>  (12) 
-9.4499999999999993

>  <m_primary>  (12) 
energy

$$$$
12:0
     RDKit          3D

 40 42  0  0  0  0  0  0  0  0999 V2000
   -1.2260   24.1510  -25.6580 C   0  0  0  0  0  0  0  0  0  0  0  0
   -1.7930   25.2390  -26.4770 N   0  0  0  0  0  0  0  0  0  0  0  0
   -1.6180   26.5190  -25.7670 C   0  0  0  0  0  0  0  0  0  0  0  0
   -1.1550   25.3070  -27.8190 C   0  0  0  0  0  0  0  0  0  0  0  0
   -1.8150   24.3750  -28.8510 C   0  0  0  0  0  0  0  0  0  0  0  0
   -3.0090   24.9860  -29.4360 N   0  0  0  0  0  0  0  0  0  0  0  0
   -4.1520   24.2430  -29.8980 C   0  0  0  0  0  0  0  0  0  0  0  0
   -5.4490   24.7490  -29.6450 C   0  0  0  0  0  0  0  0  0  0  0  0
   -6.5880   24.0670  -30.0980 C   0  0  0  0  0  0  0  0  0  0  0  0
   -6.4070   22.8860  -30.8140 C   0  0  0  0  0  0  0  0  0  0  0  0
   -5.1490   22.3870  -31.0860 C   0  0  0  0  0  0  0  0  0  0  0  0
   -4.0050   23.0510  -30.6440 C   0  0  0  0  0  0  0  0  0  0  0  0
   -5.2190   21.1210  -31.8920 C   0  0  0  0  0  0  0  0  0  0  0  0
   -6.7060   20.9700  -32.0350 C   0  0  0  0  0  0  0  0  0  0  0  0
   -7.4020   19.9590  -32.7000 C   0  0  0  0  0  0  0  0  0  0  0  0
   -8.8060   20.0070  -32.7170 C   0  0  0  0  0  0  0  0  0  0  0  0
   -9.4910   21.0570  -32.0750 C   0  0  0  0  0  0  0  0  0  0  0  0
   -8.7780   22.0690  -31.4110 C   0  0  0  0  0  0  0  0  0  0  0  0
   -7.3840   21.9990  -31.4070 C   0  0  0  0  0  0  0  0  0  0  0  0
   -1.3512   24.3912  -24.5919 H   0  0  0  0  0  0  0  0  0  0  0  0
   -1.7485   23.2102  -25.8857 H   0  0  0  0  0  0  0  0  0  0  0  0
   -0.1555   24.0403  -25.8857 H   0  0  0  0  0  0  0  0  0  0  0  0
   -2.8230   25.0770  -26.5770 H   0  0  0  0  0  0  0  0  0  0  0  0
   -1.6421   26.3425  -24.6815 H   0  0  0  0  0  0  0  0  0  0  0  0
   -0.6508   26.9632  -26.0448 H   0  0  0  0  0  0  0  0  0  0  0  0
   -2.4305   27.2065  -26.0448 H   0  0  0  0  0  0  0  0  0  0  0  0
   -1.2241   26.3413  -28.1871 H   0  0  0  0  0  0  0  0  0  0  0  0
   -0.1114   24.9793  -27.7023 H   0  0  0  0  0  0  0  0  0  0  0  0
   -1.0932   24.1608  -29.6529 H   0  0  0  0  0  0  0  0  0  0  0  0
   -2.1157   23.4492  -28.3387 H   0  0  0  0  0  0  0  0  0  0  0  0
   -3.0960   26.0260  -29.3570 H   0  0  0  0  0  0  0  0  0  0  0  0
   -5.5656   25.6892  -29.0860 H   0  0  0  0  0  0  0  0  0  0  0  0
   -7.5970   24.4544  -29.8933 H   0  0  0  0  0  0  0  0  0  0  0  0
   -3.0048   22.6539  -30.8720 H   0  0  0  0  0  0  0  0  0  0  0  0
   -4.7264   21.2338  -32.8690 H   0  0  0  0  0  0  0  0  0  0  0  0
   -4.7123   20.2581  -31.4353 H   0  0  0  0  0  0  0  0  0  0  0  0
   -6.8622   19.1415  -33.2004 H   0  0  0  0  0  0  0  0  0  0  0  0
   -9.3737   19.2199  -33.2348 H   0  0  0  0  0  0  0  0  0  0  0  0
  -10.5905   21.0847  -32.0937 H   0  0  0  0  0  0  0  0  0  0  0  0
   -9.3039   22.8939  -30.9080 H   0  0  0  0  0  0  0  0  0  0  0  0
  1  2  1  0
  2  3  1  0
  2  4  1  0
  4  5  1  0
  5  6  1  0
  6  7  1  0
  7  8  2  0
  8  9  1  0
  9 10  2  0
 10 11  1  0
 11 12  2  0
 11 13  1  0
 13 14  1  0
 14 15  2  0
 15 16  1  0
 16 17  2  0
 17 18  1  0
 18 19  2  0
 12  7  1  0
 19 14  1  0
 19 10  1  0
  1 20  1  0
  1 21  1  0
  1 22  1  0
  2 23  1  0
  3 24  1  0
  3 25  1  0
  3 26  1  0
  4 27  1  0
  4 28  1  0
  5 29  1  0
  5 30  1  0
  6 31  1  0
  8 32  1  0
  9 33  1  0
 12 34  1  0
 13 35  1  0
 13 36  1  0
 15 37  1  0
 16 38  1  0
 17 39  1  0
 18 40  1  0
M  CHG  1   2   1
M  END
>  <UniqueID>  (13) 
13

>  <SMILES>  (13) 
C[NH+](C)CCNc1ccc2c(c1)Cc1ccccc1-2

>  <Energy>  (13) 
66.13436916413055

>  <Genealogy>  (13) 
C[NH+](C)CCNc1ccc2c(c1)Cc1ccccc1-2 (protonated)
C[NH+](C)CCNc1ccc2c(c1)Cc1ccccc1-2 (3D coordinates assigned)
C[NH+](C)CCNc1ccc2c(c1)Cc1ccccc1-2 (nonaromatic ring conformer: 66.13436916413055 kcal/mol)

>  <smiles>  (13) 
CN(C)CCNc1ccc2c(c1)Cc1ccccc1-2

>  <score_type>  (13) 
oracle

>  <origin>  (13) 
adg

>  <m_score__min__energy>  (13) 
-7.29

>  <m_primary>  (13) 
energy

$$$$
13:0
     RDKit          3D

 50 52  0  0  0  0  0  0  0  0999 V2000
   -1.1950   25.0520  -28.7000 C   0  0  0  0  0  0  0  0  0  0  0  0
   -2.6650   24.6580  -28.7670 C   0  0  0  0  0  0  0  0  0  0  0  0
   -3.2000   24.9250  -30.1040 N   0  0  0  0  0  0  0  0  0  0  0  0
   -4.1370   23.5830  -30.6910 S   0  0  0  0  0  0  0  0  0  0  0  0
   -5.0440   23.0840  -29.6000 O   0  0  0  0  0  0  0  0  0  0  0  0
   -4.9890   24.0430  -31.8410 O   0  0  0  0  0  0  0  0  0  0  0  0
   -3.0820   22.2850  -31.2420 C   0  0  0  0  0  0  0  0  0  0  0  0
   -1.8850   22.0050  -30.5670 C   0  0  0  0  0  0  0  0  0  0  0  0
   -1.0360   20.9990  -31.0350 C   0  0  0  0  0  0  0  0  0  0  0  0
   -1.3780   20.2650  -32.1740 C   0  0  0  0  0  0  0  0  0  0  0  0
   -2.5870   20.5220  -32.8440 C   0  0  0  0  0  0  0  0  0  0  0  0
   -2.9510   19.8110  -34.0360 N   0  0  0  0  0  0  0  0  0  0  0  0
   -3.1350   18.3950  -34.1600 C   0  0  0  0  0  0  0  0  0  0  0  0
   -2.5290   17.7830  -35.0780 O   0  0  0  0  0  0  0  0  0  0  0  0
   -4.0660   17.6310  -33.2590 C   0  0  0  0  0  0  0  0  0  0  0  0
   -5.3440   18.3300  -33.1340 N   0  0  0  0  0  0  0  0  0  0  0  0
   -6.0890   18.9050  -34.1940 C   0  0  0  0  0  0  0  0  0  0  0  0
   -5.9070   18.6240  -35.4090 O   0  0  0  0  0  0  0  0  0  0  0  0
   -7.0430   19.8590  -33.7530 N   0  0  0  0  0  0  0  0  0  0  0  0
   -6.9300   19.9880  -32.2960 C   0  0  0  0  0  0  0  0  0  0  0  0
   -6.5160   21.4250  -31.9220 C   0  0  0  0  0  0  0  0  0  0  0  0
   -7.6080   22.4590  -32.2680 C   0  0  0  0  0  0  0  0  0  0  0  0
   -9.0440   21.9160  -32.1270 C   0  0  0  0  0  0  0  0  0  0  0  0
   -9.1240   20.7440  -31.1460 C   0  0  0  0  0  0  0  0  0  0  0  0
   -8.2570   19.5570  -31.6060 C   0  0  0  0  0  0  0  0  0  0  0  0
   -5.8160   19.0180  -31.9790 C   0  0  0  0  0  0  0  0  0  0  0  0
   -5.3320   18.8420  -30.8290 O   0  0  0  0  0  0  0  0  0  0  0  0
   -3.4200   21.5500  -32.3870 C   0  0  0  0  0  0  0  0  0  0  0  0
   -0.8852   25.1350  -27.6478 H   0  0  0  0  0  0  0  0  0  0  0  0
   -0.5866   24.2852  -29.2019 H   0  0  0  0  0  0  0  0  0  0  0  0
   -1.0517   26.0203  -29.2019 H   0  0  0  0  0  0  0  0  0  0  0  0
   -2.7642   23.5855  -28.5435 H   0  0  0  0  0  0  0  0  0  0  0  0
   -3.2288   25.2490  -28.0303 H   0  0  0  0  0  0  0  0  0  0  0  0
   -1.6143   22.5781  -29.6680 H   0  0  0  0  0  0  0  0  0  0  0  0
   -0.0960   20.7841  -30.5056 H   0  0  0  0  0  0  0  0  0  0  0  0
   -0.6993   19.4840  -32.5474 H   0  0  0  0  0  0  0  0  0  0  0  0
   -4.2401   16.6308  -33.6824 H   0  0  0  0  0  0  0  0  0  0  0  0
   -3.6075   17.5459  -32.2627 H   0  0  0  0  0  0  0  0  0  0  0  0
   -7.6970   20.3860  -34.3740 H   0  0  0  0  0  0  0  0  0  0  0  0
   -6.3200   21.4663  -30.8404 H   0  0  0  0  0  0  0  0  0  0  0  0
   -5.6173   21.6780  -32.5036 H   0  0  0  0  0  0  0  0  0  0  0  0
   -7.4953   23.3214  -31.5945 H   0  0  0  0  0  0  0  0  0  0  0  0
   -7.4698   22.7304  -33.3250 H   0  0  0  0  0  0  0  0  0  0  0  0
   -9.6952   22.7256  -31.7658 H   0  0  0  0  0  0  0  0  0  0  0  0
   -9.3669   21.5534  -33.1141 H   0  0  0  0  0  0  0  0  0  0  0  0
   -8.7734   21.0804  -30.1591 H   0  0  0  0  0  0  0  0  0  0  0  0
  -10.1700   20.4070  -31.0984 H   0  0  0  0  0  0  0  0  0  0  0  0
   -8.0091   18.9452  -30.7260 H   0  0  0  0  0  0  0  0  0  0  0  0
   -8.8424   18.9983  -32.3510 H   0  0  0  0  0  0  0  0  0  0  0  0
   -4.3474   21.7830  -32.9307 H   0  0  0  0  0  0  0  0  0  0  0  0
  1  2  1  0
  2  3  1  0
  3  4  1  0
  4  5  2  0
  4  6  2  0
  4  7  1  0
  7  8  2  0
  8  9  1  0
  9 10  2  0
 10 11  1  0
 11 12  1  0
 12 13  1  0
 13 14  2  0
 13 15  1  0
 15 16  1  0
 16 17  1  0
 17 18  2  0
 17 19  1  0
 19 20  1  0
 20 21  1  0
 21 22  1  0
 22 23  1  0
 23 24  1  0
 24 25  1  0
 20 26  1  0
 26 27  2  0
 11 28  2  0
 28  7  1  0
 26 16  1  0
 25 20  1  0
  1 29  1  0
  1 30  1  0
  1 31  1  0
  2 32  1  0
  2 33  1  0
  8 34  1  0
  9 35  1  0
 10 36  1  0
 15 37  1  0
 15 38  1  0
 19 39  1  0
 21 40  1  0
 21 41  1  0
 22 42  1  0
 22 43  1  0
 23 44  1  0
 23 45  1  0
 24 46  1  0
 24 47  1  0
 25 48  1  0
 25 49  1  0
 28 50  1  0
M  CHG  2   3  -1  12  -1
M  END
>  <UniqueID>  (14) 
14

>  <SMILES>  (14) 
CC[N-]S(=O)(=O)c1cccc([N-]C(=O)CN2C(=O)NC3(CCCCC3)C2=O)c1

>  <Energy>  (14) 
72.67534002385386

>  <Genealogy>  (14) 
CC[N-]S(=O)(=O)c1cccc([N-]C(=O)CN2C(=O)NC3(CCCCC3)C2=O)c1 (protonated)
CC[N-]S(=O)(=O)c1cccc([N-]C(=O)CN2C(=O)NC3(CCCCC3)C2=O)c1 (3D coordinates assigned)
CC[N-]S(=O)(=O)c1cccc([N-]C(=O)CN2C(=O)NC3(CCCCC3)C2=O)c1 (nonaromatic ring conformer: 72.67534002385386 kcal/mol)

>  <smiles>  (14) 
CCNS(=O)(=O)c1cccc(NC(=O)CN2C(=O)NC3(CCCCC3)C2=O)c1

>  <score_type>  (14) 
oracle

>  <origin>  (14) 
adg

>  <m_score__min__energy>  (14) 
-10.99

>  <m_primary>  (14) 
energy

$$$$
14:0
     RDKit          3D

 51 55  0  0  0  0  0  0  0  0999 V2000
    0.2530   23.9190  -25.3550 C   0  0  0  0  0  0  0  0  0  0  0  0
   -0.6350   24.2980  -26.5020 C   0  0  0  0  0  0  0  0  0  0  0  0
   -2.0280   24.3160  -26.3410 C   0  0  0  0  0  0  0  0  0  0  0  0
   -2.8580   24.6350  -27.4190 C   0  0  0  0  0  0  0  0  0  0  0  0
   -2.3150   24.9320  -28.6730 C   0  0  0  0  0  0  0  0  0  0  0  0
   -3.1980   25.2580  -29.7150 O   0  0  0  0  0  0  0  0  0  0  0  0
   -4.4090   24.5680  -30.0250 C   0  0  0  0  0  0  0  0  0  0  0  0
   -4.2990   23.0710  -29.7020 C   0  0  0  0  0  0  0  0  0  0  0  0
   -3.7420   22.3170  -30.8490 N   0  0  0  0  0  0  0  0  0  0  0  0
   -4.5430   21.9430  -31.9080 C   0  0  0  0  0  0  0  0  0  0  0  0
   -6.0060   22.1640  -31.8970 C   0  0  0  0  0  0  0  0  0  0  0  0
   -6.5740   23.4380  -31.9460 C   0  0  0  0  0  0  0  0  0  0  0  0
   -8.2570   23.2880  -31.9760 S   0  0  0  0  0  0  0  0  0  0  0  0
   -8.2680   21.6100  -31.9510 C   0  0  0  0  0  0  0  0  0  0  0  0
   -9.3670   20.7570  -31.9760 C   0  0  0  0  0  0  0  0  0  0  0  0
   -9.1330   19.3730  -31.9720 C   0  0  0  0  0  0  0  0  0  0  0  0
   -7.8160   18.8760  -31.9480 C   0  0  0  0  0  0  0  0  0  0  0  0
   -6.7220   19.7570  -31.9240 C   0  0  0  0  0  0  0  0  0  0  0  0
   -6.9650   21.1370  -31.9200 C   0  0  0  0  0  0  0  0  0  0  0  0
   -4.0020   21.3420  -33.0040 N   0  0  0  0  0  0  0  0  0  0  0  0
   -2.6720   21.0760  -33.0840 C   0  0  0  0  0  0  0  0  0  0  0  0
   -2.1390   20.4520  -34.2230 C   0  0  0  0  0  0  0  0  0  0  0  0
   -0.7710   20.1780  -34.2990 C   0  0  0  0  0  0  0  0  0  0  0  0
    0.0720   20.5230  -33.2390 C   0  0  0  0  0  0  0  0  0  0  0  0
   -0.4500   21.1440  -32.1010 C   0  0  0  0  0  0  0  0  0  0  0  0
   -1.8280   21.4240  -32.0150 C   0  0  0  0  0  0  0  0  0  0  0  0
   -2.3930   22.0520  -30.8940 C   0  0  0  0  0  0  0  0  0  0  0  0
   -1.6480   22.3720  -29.9250 O   0  0  0  0  0  0  0  0  0  0  0  0
   -0.9170   24.8930  -28.8420 C   0  0  0  0  0  0  0  0  0  0  0  0
   -0.0860   24.5720  -27.7640 C   0  0  0  0  0  0  0  0  0  0  0  0
   -0.2596   24.1378  -24.4066 H   0  0  0  0  0  0  0  0  0  0  0  0
    0.4825   22.8445  -25.4084 H   0  0  0  0  0  0  0  0  0  0  0  0
    1.1876   24.4966  -25.4084 H   0  0  0  0  0  0  0  0  0  0  0  0
   -2.4692   24.0780  -25.3619 H   0  0  0  0  0  0  0  0  0  0  0  0
   -3.9490   24.6527  -27.2798 H   0  0  0  0  0  0  0  0  0  0  0  0
   -5.2295   25.0022  -29.4348 H   0  0  0  0  0  0  0  0  0  0  0  0
   -4.6033   24.6765  -31.1023 H   0  0  0  0  0  0  0  0  0  0  0  0
   -3.6399   22.9389  -28.8313 H   0  0  0  0  0  0  0  0  0  0  0  0
   -5.3064   22.6853  -29.4867 H   0  0  0  0  0  0  0  0  0  0  0  0
   -6.0165   24.3861  -31.9624 H   0  0  0  0  0  0  0  0  0  0  0  0
  -10.3916   21.1565  -31.9983 H   0  0  0  0  0  0  0  0  0  0  0  0
   -9.9821   18.6739  -31.9877 H   0  0  0  0  0  0  0  0  0  0  0  0
   -7.6423   17.7898  -31.9480 H   0  0  0  0  0  0  0  0  0  0  0  0
   -5.6924   19.3702  -31.9086 H   0  0  0  0  0  0  0  0  0  0  0  0
   -4.6290   21.0730  -33.7970 H   0  0  0  0  0  0  0  0  0  0  0  0
   -2.8003   20.1779  -35.0582 H   0  0  0  0  0  0  0  0  0  0  0  0
   -0.3571   19.6903  -35.1939 H   0  0  0  0  0  0  0  0  0  0  0  0
    1.1485   20.3053  -33.3005 H   0  0  0  0  0  0  0  0  0  0  0  0
    0.2174   21.4151  -31.2696 H   0  0  0  0  0  0  0  0  0  0  0  0
   -0.4774   25.1158  -29.8254 H   0  0  0  0  0  0  0  0  0  0  0  0
    1.0041   24.5341  -27.9061 H   0  0  0  0  0  0  0  0  0  0  0  0
  1  2  1  0
  2  3  2  0
  3  4  1  0
  4  5  2  0
  5  6  1  0
  6  7  1  0
  7  8  1  0
  8  9  1  0
  9 10  1  0
 10 11  1  0
 11 12  2  0
 12 13  1  0
 13 14  1  0
 14 15  2  0
 15 16  1  0
 16 17  2  0
 17 18  1  0
 18 19  2  0
 10 20  2  0
 20 21  1  0
 21 22  2  0
 22 23  1  0
 23 24  2  0
 24 25  1  0
 25 26  2  0
 26 27  1  0
 27 28  2  0
  5 29  1  0
 29 30  2  0
 30  2  1  0
 27  9  1  0
 19 11  1  0
 26 21  1  0
 19 14  1  0
  1 31  1  0
  1 32  1  0
  1 33  1  0
  3 34  1  0
  4 35  1  0
  7 36  1  0
  7 37  1  0
  8 38  1  0
  8 39  1  0
 12 40  1  0
 15 41  1  0
 16 42  1  0
 17 43  1  0
 18 44  1  0
 20 45  1  0
 22 46  1  0
 23 47  1  0
 24 48  1  0
 25 49  1  0
 29 50  1  0
 30 51  1  0
M  CHG  1  20   1
M  END
>  <UniqueID>  (15) 
15

>  <SMILES>  (15) 
Cc1ccc(OCCn2c(-c3csc4ccccc34)[nH+]c3ccccc3c2=O)cc1

>  <Energy>  (15) 
101.11473829726765

>  <Genealogy>  (15) 
Cc1ccc(OCCn2c(-c3csc4ccccc34)[nH+]c3ccccc3c2=O)cc1 (protonated)
Cc1ccc(OCCn2c(-c3csc4ccccc34)[nH+]c3ccccc3c2=O)cc1 (3D coordinates assigned)
Cc1ccc(OCCn2c(-c3csc4ccccc34)[nH+]c3ccccc3c2=O)cc1 (optimized conformer: 101.11473829726765 kcal/mol)

>  <smiles>  (15) 
Cc1ccc(OCCn2c(-c3csc4ccccc34)nc3ccccc3c2=O)cc1

>  <score_type>  (15) 
oracle

>  <origin>  (15) 
adg

>  <m_score__min__energy>  (15) 
-9.5899999999999999

>  <m_primary>  (15) 
energy

$$$$
15:0
     RDKit          3D

 57 60  0  0  0  0  0  0  0  0999 V2000
   -5.1400   24.1270  -30.5180 C   0  0  0  0  0  0  0  0  0  0  0  0
   -3.9970   23.6240  -31.2020 O   0  0  0  0  0  0  0  0  0  0  0  0
   -2.8230   23.1870  -30.5690 C   0  0  0  0  0  0  0  0  0  0  0  0
   -2.2560   21.9220  -30.8230 C   0  0  0  0  0  0  0  0  0  0  0  0
   -1.0760   21.5260  -30.1730 C   0  0  0  0  0  0  0  0  0  0  0  0
   -0.4490   20.1880  -30.4680 C   0  0  0  0  0  0  0  0  0  0  0  0
   -0.9610   19.6530  -31.7460 N   0  0  0  0  0  0  0  0  0  0  0  0
   -0.1890   20.1950  -32.8840 C   0  0  0  0  0  0  0  0  0  0  0  0
   -0.4080   19.3810  -34.1800 C   0  0  0  0  0  0  0  0  0  0  0  0
   -1.6600   18.6010  -34.1470 N   0  0  0  0  0  0  0  0  0  0  0  0
   -2.8580   19.4690  -34.2160 C   0  0  0  0  0  0  0  0  0  0  0  0
   -4.1140   18.6580  -34.0170 C   0  0  0  0  0  0  0  0  0  0  0  0
   -4.3450   17.5040  -34.7810 C   0  0  0  0  0  0  0  0  0  0  0  0
   -5.5030   16.7480  -34.5810 C   0  0  0  0  0  0  0  0  0  0  0  0
   -6.4430   17.1430  -33.6250 C   0  0  0  0  0  0  0  0  0  0  0  0
   -6.2350   18.2990  -32.8650 C   0  0  0  0  0  0  0  0  0  0  0  0
   -7.2020   18.6700  -31.9200 O   0  0  0  0  0  0  0  0  0  0  0  0
   -7.8160   19.9290  -31.8440 C   0  0  0  0  0  0  0  0  0  0  0  0
   -9.2000   20.0160  -32.0420 C   0  0  0  0  0  0  0  0  0  0  0  0
   -9.8470   21.2550  -31.9900 C   0  0  0  0  0  0  0  0  0  0  0  0
   -9.1100   22.4190  -31.7550 C   0  0  0  0  0  0  0  0  0  0  0  0
   -7.7260   22.3460  -31.5730 C   0  0  0  0  0  0  0  0  0  0  0  0
   -7.0770   21.1080  -31.6250 C   0  0  0  0  0  0  0  0  0  0  0  0
   -5.0500   19.0360  -33.0400 C   0  0  0  0  0  0  0  0  0  0  0  0
   -1.6940   17.6590  -33.0010 C   0  0  0  0  0  0  0  0  0  0  0  0
   -0.9380   18.1800  -31.7630 C   0  0  0  0  0  0  0  0  0  0  0  0
   -0.4600   22.4030  -29.2680 C   0  0  0  0  0  0  0  0  0  0  0  0
   -1.0200   23.6540  -29.0090 C   0  0  0  0  0  0  0  0  0  0  0  0
   -2.1960   24.0470  -29.6550 C   0  0  0  0  0  0  0  0  0  0  0  0
   -2.7400   25.2980  -29.3900 O   0  0  0  0  0  0  0  0  0  0  0  0
   -4.9783   24.0559  -29.4323 H   0  0  0  0  0  0  0  0  0  0  0  0
   -5.3006   25.1789  -30.7966 H   0  0  0  0  0  0  0  0  0  0  0  0
   -6.0241   23.5348  -30.7966 H   0  0  0  0  0  0  0  0  0  0  0  0
   -2.7416   21.2395  -31.5360 H   0  0  0  0  0  0  0  0  0  0  0  0
    0.6426   20.3056  -30.5351 H   0  0  0  0  0  0  0  0  0  0  0  0
   -0.7033   19.4873  -29.6591 H   0  0  0  0  0  0  0  0  0  0  0  0
   -0.5024   21.2344  -33.0615 H   0  0  0  0  0  0  0  0  0  0  0  0
    0.8786   20.1369  -32.6255 H   0  0  0  0  0  0  0  0  0  0  0  0
   -0.4466   20.0759  -35.0318 H   0  0  0  0  0  0  0  0  0  0  0  0
    0.4275   18.6721  -34.2771 H   0  0  0  0  0  0  0  0  0  0  0  0
   -2.7945   20.2357  -33.4298 H   0  0  0  0  0  0  0  0  0  0  0  0
   -2.8956   19.9429  -35.2080 H   0  0  0  0  0  0  0  0  0  0  0  0
   -3.6119   17.1934  -35.5400 H   0  0  0  0  0  0  0  0  0  0  0  0
   -5.6752   15.8399  -35.1773 H   0  0  0  0  0  0  0  0  0  0  0  0
   -7.3510   16.5419  -33.4694 H   0  0  0  0  0  0  0  0  0  0  0  0
   -9.7819   19.1037  -32.2397 H   0  0  0  0  0  0  0  0  0  0  0  0
  -10.9360   21.3132  -32.1341 H   0  0  0  0  0  0  0  0  0  0  0  0
   -9.6193   23.3931  -31.7132 H   0  0  0  0  0  0  0  0  0  0  0  0
   -7.1468   23.2628  -31.3887 H   0  0  0  0  0  0  0  0  0  0  0  0
   -5.9861   21.0550  -31.4945 H   0  0  0  0  0  0  0  0  0  0  0  0
   -4.8547   19.9145  -32.4075 H   0  0  0  0  0  0  0  0  0  0  0  0
   -2.7439   17.4858  -32.7221 H   0  0  0  0  0  0  0  0  0  0  0  0
   -1.1937   16.7340  -33.3237 H   0  0  0  0  0  0  0  0  0  0  0  0
   -1.4214   17.7969  -30.8522 H   0  0  0  0  0  0  0  0  0  0  0  0
    0.1054   17.8340  -31.8031 H   0  0  0  0  0  0  0  0  0  0  0  0
    0.4686   22.1029  -28.7604 H   0  0  0  0  0  0  0  0  0  0  0  0
   -0.5344   24.3341  -28.2936 H   0  0  0  0  0  0  0  0  0  0  0  0
  1  2  1  0
  2  3  1  0
  3  4  2  0
  4  5  1  0
  5  6  1  0
  6  7  1  0
  7  8  1  0
  8  9  1  0
  9 10  1  0
 10 11  1  0
 11 12  1  0
 12 13  2  0
 13 14  1  0
 14 15  2  0
 15 16  1  0
 16 17  1  0
 17 18  1  0
 18 19  2  0
 19 20  1  0
 20 21  2  0
 21 22  1  0
 22 23  2  0
 16 24  2  0
 10 25  1  0
 25 26  1  0
  5 27  2  0
 27 28  1  0
 28 29  2  0
 29 30  1  0
 29  3  1  0
 26  7  1  0
 24 12  1  0
 23 18  1  0
  1 31  1  0
  1 32  1  0
  1 33  1  0
  4 34  1  0
  6 35  1  0
  6 36  1  0
  8 37  1  0
  8 38  1  0
  9 39  1  0
  9 40  1  0
 11 41  1  0
 11 42  1  0
 13 43  1  0
 14 44  1  0
 15 45  1  0
 19 46  1  0
 20 47  1  0
 21 48  1  0
 22 49  1  0
 23 50  1  0
 24 51  1  0
 25 52  1  0
 25 53  1  0
 26 54  1  0
 26 55  1  0
 27 56  1  0
 28 57  1  0
M  CHG  1  30  -1
M  END
>  <UniqueID>  (16) 
16

>  <SMILES>  (16) 
COc1cc(CN2CCN(Cc3cccc(Oc4ccccc4)c3)CC2)ccc1[O-]

>  <Energy>  (16) 
76.57335383946871

>  <Genealogy>  (16) 
COc1cc(CN2CCN(Cc3cccc(Oc4ccccc4)c3)CC2)ccc1[O-] (protonated)
COc1cc(CN2CCN(Cc3cccc(Oc4ccccc4)c3)CC2)ccc1[O-] (3D coordinates assigned)
COc1cc(CN2CCN(Cc3cccc(Oc4ccccc4)c3)CC2)ccc1[O-] (nonaromatic ring conformer: 76.57335383946871 kcal/mol)

>  <smiles>  (16) 
COc1cc(CN2CCN(Cc3cccc(Oc4ccccc4)c3)CC2)ccc1O

>  <score_type>  (16) 
oracle

>  <origin>  (16) 
adg

>  <m_score__min__energy>  (16) 
-12.48

>  <m_primary>  (16) 
energy

$$$$
16:0
     RDKit          3D

 27 28  0  0  0  0  0  0  0  0999 V2000
   -1.2410   26.4470  -30.1970 H   0  0  0  0  0  0  0  0  0  0  0  0
   -1.1680   26.0720  -29.2590 O   0  0  0  0  0  0  0  0  0  0  0  0
   -1.8150   24.8900  -28.9160 C   0  0  0  0  0  0  0  0  0  0  0  0
   -1.2650   23.7740  -27.7880 S   0  0  0  0  0  0  0  0  0  0  0  0
   -2.5470   22.6970  -27.9800 C   0  0  0  0  0  0  0  0  0  0  0  0
   -2.6735   21.7479  -27.4384 H   0  0  0  0  0  0  0  0  0  0  0  0
   -3.4190   23.2070  -28.9370 C   0  0  0  0  0  0  0  0  0  0  0  0
   -4.3338   22.6883  -29.2597 H   0  0  0  0  0  0  0  0  0  0  0  0
   -3.0140   24.4510  -29.4500 C   0  0  0  0  0  0  0  0  0  0  0  0
   -3.7000   25.1710  -30.4830 N   0  0  0  0  0  0  0  0  0  0  0  0
   -5.1190   25.2280  -30.6690 C   0  0  0  0  0  0  0  0  0  0  0  0
   -5.7600   26.1740  -30.1400 O   0  0  0  0  0  0  0  0  0  0  0  0
   -5.8430   24.1350  -31.3560 C   0  0  0  0  0  0  0  0  0  0  0  0
   -5.3441   23.6570  -32.2119 H   0  0  0  0  0  0  0  0  0  0  0  0
   -7.0590   23.6810  -31.0180 C   0  0  0  0  0  0  0  0  0  0  0  0
   -7.6489   24.2884  -30.3158 H   0  0  0  0  0  0  0  0  0  0  0  0
   -7.6700   22.4290  -31.5140 C   0  0  0  0  0  0  0  0  0  0  0  0
   -9.0690   22.3190  -31.5580 C   0  0  0  0  0  0  0  0  0  0  0  0
   -9.6952   23.1724  -31.2588 H   0  0  0  0  0  0  0  0  0  0  0  0
   -9.6700   21.1280  -31.9810 C   0  0  0  0  0  0  0  0  0  0  0  0
  -10.7664   21.0532  -32.0293 H   0  0  0  0  0  0  0  0  0  0  0  0
   -8.8800   20.0340  -32.3420 C   0  0  0  0  0  0  0  0  0  0  0  0
   -9.3539   19.1014  -32.6820 H   0  0  0  0  0  0  0  0  0  0  0  0
   -7.4870   20.1250  -32.2710 C   0  0  0  0  0  0  0  0  0  0  0  0
   -6.8657   19.2603  -32.5472 H   0  0  0  0  0  0  0  0  0  0  0  0
   -6.8820   21.3120  -31.8500 C   0  0  0  0  0  0  0  0  0  0  0  0
   -5.7859   21.3739  -31.7809 H   0  0  0  0  0  0  0  0  0  0  0  0
  1  2  1  0
  2  3  1  0
  3  4  1  0
  4  5  1  0
  5  6  1  0
  5  7  2  0
  7  8  1  0
  7  9  1  0
  9 10  1  0
 10 11  1  0
 11 12  2  0
 11 13  1  0
 13 14  1  0
 13 15  2  0
 15 16  1  0
 15 17  1  0
 17 18  2  0
 18 19  1  0
 18 20  1  0
 20 21  1  0
 20 22  2  0
 22 23  1  0
 22 24  1  0
 24 25  1  0
 24 26  2  0
 26 27  1  0
  9  3  2  0
 26 17  1  0
M  CHG  1  10  -1
M  END
>  <UniqueID>  (17) 
17

>  <SMILES>  (17) 
O=C(/C=C\c1ccccc1)[N-]c1ccsc1O

>  <Energy>  (17) 
64.80190309518193

>  <Genealogy>  (17) 
O=C(C=Cc1ccccc1)[N-]c1ccsc1O (protonated)
O=C(/C=C\c1ccccc1)[N-]c1ccsc1O (cis-trans isomerization)
O=C(/C=C\c1ccccc1)[N-]c1ccsc1O (3D coordinates assigned)
O=C(/C=C\c1ccccc1)[N-]c1ccsc1O (optimized conformer: 64.80190309518193 kcal/mol)

>  <smiles>  (17) 
O=C(C=Cc1ccccc1)Nc1ccsc1O

>  <score_type>  (17) 
oracle

>  <origin>  (17) 
adg

>  <m_score__min__energy>  (17) 
-10.140000000000001

>  <m_primary>  (17) 
energy

$$$$
17:0
     RDKit          3D

 40 42  0  0  0  0  0  0  0  0999 V2000
   -5.8960   16.4010  -33.1400 C   0  0  0  0  0  0  0  0  0  0  0  0
   -6.4020   17.5110  -34.0540 C   0  0  0  0  0  0  0  0  0  0  0  0
   -6.0780   18.8240  -33.4950 N   0  0  0  0  0  0  0  0  0  0  0  0
   -4.9220   19.4290  -33.7300 N   0  0  0  0  0  0  0  0  0  0  0  0
   -4.9830   20.6690  -33.2030 C   0  0  0  0  0  0  0  0  0  0  0  0
   -3.8730   21.6640  -33.3160 C   0  0  0  0  0  0  0  0  0  0  0  0
   -6.2240   20.8600  -32.6120 C   0  0  0  0  0  0  0  0  0  0  0  0
   -6.8910   19.6710  -32.8220 C   0  0  0  0  0  0  0  0  0  0  0  0
   -8.2340   19.3860  -32.3780 N   0  0  0  0  0  0  0  0  0  0  0  0
   -8.5050   18.1750  -31.6000 C   0  0  0  0  0  0  0  0  0  0  0  0
   -9.3480   20.3330  -32.5600 C   0  0  0  0  0  0  0  0  0  0  0  0
   -9.1950   21.6450  -31.7760 C   0  0  0  0  0  0  0  0  0  0  0  0
   -8.0370   22.4080  -32.2430 N   0  0  0  0  0  0  0  0  0  0  0  0
   -6.7950   22.0880  -32.0160 C   0  0  0  0  0  0  0  0  0  0  0  0
   -5.9760   22.9610  -31.1410 C   0  0  0  0  0  0  0  0  0  0  0  0
   -6.0990   24.3620  -31.2060 C   0  0  0  0  0  0  0  0  0  0  0  0
   -5.3180   25.1800  -30.3830 C   0  0  0  0  0  0  0  0  0  0  0  0
   -4.4010   24.6100  -29.4970 C   0  0  0  0  0  0  0  0  0  0  0  0
   -4.2610   23.2220  -29.4340 C   0  0  0  0  0  0  0  0  0  0  0  0
   -5.0390   22.4000  -30.2540 C   0  0  0  0  0  0  0  0  0  0  0  0
   -6.0322   16.6998  -32.0902 H   0  0  0  0  0  0  0  0  0  0  0  0
   -6.4626   15.4785  -33.3351 H   0  0  0  0  0  0  0  0  0  0  0  0
   -4.8281   16.2236  -33.3351 H   0  0  0  0  0  0  0  0  0  0  0  0
   -5.9276   17.4111  -35.0414 H   0  0  0  0  0  0  0  0  0  0  0  0
   -7.4946   17.4242  -34.1472 H   0  0  0  0  0  0  0  0  0  0  0  0
   -3.5424   21.9604  -32.3096 H   0  0  0  0  0  0  0  0  0  0  0  0
   -3.0304   21.2131  -33.8608 H   0  0  0  0  0  0  0  0  0  0  0  0
   -4.2294   22.5507  -33.8608 H   0  0  0  0  0  0  0  0  0  0  0  0
   -8.4525   18.4094  -30.5266 H   0  0  0  0  0  0  0  0  0  0  0  0
   -9.5095   17.7992  -31.8446 H   0  0  0  0  0  0  0  0  0  0  0  0
   -7.7565   17.4069  -31.8446 H   0  0  0  0  0  0  0  0  0  0  0  0
   -9.4215   20.5773  -33.6300 H   0  0  0  0  0  0  0  0  0  0  0  0
  -10.2502   19.8372  -32.1725 H   0  0  0  0  0  0  0  0  0  0  0  0
  -10.1026   22.2516  -31.9109 H   0  0  0  0  0  0  0  0  0  0  0  0
   -9.0462   21.4010  -30.7138 H   0  0  0  0  0  0  0  0  0  0  0  0
   -6.8136   24.8161  -31.9083 H   0  0  0  0  0  0  0  0  0  0  0  0
   -5.4261   26.2735  -30.4336 H   0  0  0  0  0  0  0  0  0  0  0  0
   -3.7890   25.2545  -28.8488 H   0  0  0  0  0  0  0  0  0  0  0  0
   -3.5367   22.7746  -28.7374 H   0  0  0  0  0  0  0  0  0  0  0  0
   -4.9180   21.3077  -30.2056 H   0  0  0  0  0  0  0  0  0  0  0  0
  1  2  1  0
  2  3  1  0
  3  4  1  0
  4  5  2  0
  5  6  1  0
  5  7  1  0
  7  8  2  0
  8  9  1  0
  9 10  1  0
  9 11  1  0
 11 12  1  0
 12 13  1  0
 13 14  2  0
 14 15  1  0
 15 16  2  0
 16 17  1  0
 17 18  2  0
 18 19  1  0
 19 20  2  0
  8  3  1  0
 20 15  1  0
 14  7  1  0
  1 21  1  0
  1 22  1  0
  1 23  1  0
  2 24  1  0
  2 25  1  0
  6 26  1  0
  6 27  1  0
  6 28  1  0
 10 29  1  0
 10 30  1  0
 10 31  1  0
 11 32  1  0
 11 33  1  0
 12 34  1  0
 12 35  1  0
 16 36  1  0
 17 37  1  0
 18 38  1  0
 19 39  1  0
 20 40  1  0
M  END
>  <UniqueID>  (18) 
18

>  <SMILES>  (18) 
CCn1nc(C)c2c1N(C)CCN=C2c1ccccc1

>  <Energy>  (18) 
82.29285937056542

>  <Genealogy>  (18) 
CCn1nc(C)c2c1N(C)CCN=C2c1ccccc1 (3D coordinates assigned)
CCn1nc(C)c2c1N(C)CCN=C2c1ccccc1 (nonaromatic ring conformer: 82.29285937056542 kcal/mol)

>  <smiles>  (18) 
CCn1nc(C)c2c1N(C)CCN=C2c1ccccc1

>  <score_type>  (18) 
oracle

>  <origin>  (18) 
adg

>  <m_score__min__energy>  (18) 
-6.0999999999999996

>  <m_primary>  (18) 
energy

$$$$
18:0
     RDKit          3D

 48 50  0  0  0  0  0  0  0  0999 V2000
   -6.8050   17.5280  -32.6800 C   0  0  0  0  0  0  0  0  0  0  0  0
   -6.2390   18.4920  -31.6260 C   0  0  0  0  0  0  0  0  0  0  0  0
   -5.8980   19.8320  -32.1760 N   0  0  0  0  0  0  0  0  0  0  0  0
   -7.1190   20.5230  -32.6700 C   0  0  0  0  0  0  0  0  0  0  0  0
   -8.2700   20.4500  -31.6580 C   0  0  0  0  0  0  0  0  0  0  0  0
   -4.8880   19.6890  -33.2710 C   0  0  0  0  0  0  0  0  0  0  0  0
   -3.6520   20.5960  -33.0860 C   0  0  0  0  0  0  0  0  0  0  0  0
   -2.8800   20.3270  -31.7870 C   0  0  0  0  0  0  0  0  0  0  0  0
   -3.5430   20.9970  -30.6730 N   0  0  0  0  0  0  0  0  0  0  0  0
   -3.5060   22.2280  -30.2230 C   0  0  0  0  0  0  0  0  0  0  0  0
   -4.5530   23.1970  -30.3930 C   0  0  0  0  0  0  0  0  0  0  0  0
   -5.8930   22.8850  -30.7310 C   0  0  0  0  0  0  0  0  0  0  0  0
   -6.8380   23.8930  -30.9370 C   0  0  0  0  0  0  0  0  0  0  0  0
   -6.4900   25.2300  -30.7730 C   0  0  0  0  0  0  0  0  0  0  0  0
   -5.2030   25.5640  -30.3580 C   0  0  0  0  0  0  0  0  0  0  0  0
   -4.2490   24.5640  -30.1400 C   0  0  0  0  0  0  0  0  0  0  0  0
   -3.0390   24.9230  -29.6480 N   0  0  0  0  0  0  0  0  0  0  0  0
   -2.0760   24.0180  -29.3630 C   0  0  0  0  0  0  0  0  0  0  0  0
   -0.8610   24.4560  -28.8230 C   0  0  0  0  0  0  0  0  0  0  0  0
    0.1510   23.5400  -28.5330 C   0  0  0  0  0  0  0  0  0  0  0  0
   -0.0460   22.1820  -28.7810 C   0  0  0  0  0  0  0  0  0  0  0  0
   -1.2510   21.7340  -29.3250 C   0  0  0  0  0  0  0  0  0  0  0  0
   -2.2890   22.6470  -29.6260 C   0  0  0  0  0  0  0  0  0  0  0  0
   -7.3003   16.6844  -32.1770 H   0  0  0  0  0  0  0  0  0  0  0  0
   -7.5345   18.0594  -33.3088 H   0  0  0  0  0  0  0  0  0  0  0  0
   -5.9855   17.1500  -33.3088 H   0  0  0  0  0  0  0  0  0  0  0  0
   -6.9895   18.6212  -30.8323 H   0  0  0  0  0  0  0  0  0  0  0  0
   -5.3064   18.0488  -31.2468 H   0  0  0  0  0  0  0  0  0  0  0  0
   -5.4990   20.4070  -31.3970 H   0  0  0  0  0  0  0  0  0  0  0  0
   -6.8777   21.5797  -32.8577 H   0  0  0  0  0  0  0  0  0  0  0  0
   -7.4448   20.0194  -33.5920 H   0  0  0  0  0  0  0  0  0  0  0  0
   -7.8624   20.4759  -30.6366 H   0  0  0  0  0  0  0  0  0  0  0  0
   -8.9432   21.3073  -31.8059 H   0  0  0  0  0  0  0  0  0  0  0  0
   -8.8295   19.5146  -31.8059 H   0  0  0  0  0  0  0  0  0  0  0  0
   -4.5513   18.6422  -33.3006 H   0  0  0  0  0  0  0  0  0  0  0  0
   -5.3781   19.9941  -34.2073 H   0  0  0  0  0  0  0  0  0  0  0  0
   -2.9714   20.4334  -33.9348 H   0  0  0  0  0  0  0  0  0  0  0  0
   -4.0176   21.6322  -33.0347 H   0  0  0  0  0  0  0  0  0  0  0  0
   -2.8503   19.2440  -31.5969 H   0  0  0  0  0  0  0  0  0  0  0  0
   -1.8547   20.7129  -31.8860 H   0  0  0  0  0  0  0  0  0  0  0  0
   -6.1942   21.8320  -30.8329 H   0  0  0  0  0  0  0  0  0  0  0  0
   -7.8643   23.6278  -31.2309 H   0  0  0  0  0  0  0  0  0  0  0  0
   -7.2288   26.0207  -30.9704 H   0  0  0  0  0  0  0  0  0  0  0  0
   -4.9353   26.6193  -30.2009 H   0  0  0  0  0  0  0  0  0  0  0  0
   -0.7033   25.5268  -28.6264 H   0  0  0  0  0  0  0  0  0  0  0  0
    1.1040   23.8891  -28.1088 H   0  0  0  0  0  0  0  0  0  0  0  0
    0.7512   21.4610  -28.5471 H   0  0  0  0  0  0  0  0  0  0  0  0
   -1.3948   20.6613  -29.5214 H   0  0  0  0  0  0  0  0  0  0  0  0
  1  2  1  0
  2  3  1  0
  3  4  1  0
  4  5  1  0
  3  6  1  0
  6  7  1  0
  7  8  1  0
  8  9  1  0
  9 10  2  3
 10 11  1  0
 11 12  2  0
 12 13  1  0
 13 14  2  0
 14 15  1  0
 15 16  2  0
 16 17  1  0
 17 18  1  0
 18 19  2  0
 19 20  1  0
 20 21  2  0
 21 22  1  0
 22 23  2  0
 23 10  1  0
 16 11  1  0
 23 18  1  0
  1 24  1  0
  1 25  1  0
  1 26  1  0
  2 27  1  0
  2 28  1  0
  3 29  1  0
  4 30  1  0
  4 31  1  0
  5 32  1  0
  5 33  1  0
  5 34  1  0
  6 35  1  0
  6 36  1  0
  7 37  1  0
  7 38  1  0
  8 39  1  0
  8 40  1  0
 12 41  1  0
 13 42  1  0
 14 43  1  0
 15 44  1  0
 19 45  1  0
 20 46  1  0
 21 47  1  0
 22 48  1  0
M  CHG  2   3   1  17  -1
M  END
>  <UniqueID>  (19) 
19

>  <SMILES>  (19) 
CC[NH+](CC)CCCN=c1c2ccccc2[n-]c2ccccc12

>  <Energy>  (19) 
72.26009358556591

>  <Genealogy>  (19) 
CC[NH+](CC)CCCN=c1c2ccccc2[n-]c2ccccc12 (protonated)
CC[NH+](CC)CCCN=c1c2ccccc2[n-]c2ccccc12 (3D coordinates assigned)
CC[NH+](CC)CCCN=c1c2ccccc2[n-]c2ccccc12 (optimized conformer: 72.26009358556591 kcal/mol)

>  <smiles>  (19) 
CCN(CC)CCCN=c1c2ccccc2[nH]c2ccccc12

>  <score_type>  (19) 
oracle

>  <origin>  (19) 
adg

>  <m_score__min__energy>  (19) 
-8.3100000000000005

>  <m_primary>  (19) 
energy

$$$$
19:0
     RDKit          3D

 44 46  0  0  0  0  0  0  0  0999 V2000
   -8.3560   21.9490  -30.4770 C   0  0  0  0  0  0  0  0  0  0  0  0
   -7.2060   22.8570  -30.0550 C   0  0  0  0  0  0  0  0  0  0  0  0
   -6.2570   23.0450  -31.1780 N   0  0  0  0  0  0  0  0  0  0  0  0
   -6.6800   22.2730  -32.3690 C   0  0  0  0  0  0  0  0  0  0  0  0
   -5.8890   20.9720  -32.4750 C   0  0  0  0  0  0  0  0  0  0  0  0
   -6.1290   24.4850  -31.4960 C   0  0  0  0  0  0  0  0  0  0  0  0
   -5.2540   25.2160  -30.5120 C   0  0  0  0  0  0  0  0  0  0  0  0
   -5.7910   25.9850  -29.6860 O   0  0  0  0  0  0  0  0  0  0  0  0
   -3.8290   25.0750  -30.4940 N   0  0  0  0  0  0  0  0  0  0  0  0
   -3.1160   23.8390  -30.4350 C   0  0  0  0  0  0  0  0  0  0  0  0
   -3.3620   22.8510  -31.4030 C   0  0  0  0  0  0  0  0  0  0  0  0
   -2.6760   21.6380  -31.3680 C   0  0  0  0  0  0  0  0  0  0  0  0
   -1.7500   21.3890  -30.3590 C   0  0  0  0  0  0  0  0  0  0  0  0
   -1.5120   22.3480  -29.3760 C   0  0  0  0  0  0  0  0  0  0  0  0
   -2.1950   23.5810  -29.3850 C   0  0  0  0  0  0  0  0  0  0  0  0
   -1.8830   24.5670  -28.3100 C   0  0  0  0  0  0  0  0  0  0  0  0
   -1.0800   25.6450  -28.5200 N   0  0  0  0  0  0  0  0  0  0  0  0
   -0.9560   26.4120  -27.4080 C   0  0  0  0  0  0  0  0  0  0  0  0
   -0.1970   27.5800  -27.3370 C   0  0  0  0  0  0  0  0  0  0  0  0
   -0.1550   28.2870  -26.1220 C   0  0  0  0  0  0  0  0  0  0  0  0
   -0.8700   27.8180  -24.9990 C   0  0  0  0  0  0  0  0  0  0  0  0
   -1.6310   26.6400  -25.0840 C   0  0  0  0  0  0  0  0  0  0  0  0
   -1.6530   25.9610  -26.3010 C   0  0  0  0  0  0  0  0  0  0  0  0
   -2.4560   24.5510  -26.7080 S   0  0  0  0  0  0  0  0  0  0  0  0
   -8.8578   21.5528  -29.5819 H   0  0  0  0  0  0  0  0  0  0  0  0
   -9.0765   22.5245  -31.0768 H   0  0  0  0  0  0  0  0  0  0  0  0
   -7.9633   21.1147  -31.0768 H   0  0  0  0  0  0  0  0  0  0  0  0
   -7.6086   23.8352  -29.7531 H   0  0  0  0  0  0  0  0  0  0  0  0
   -6.6740   22.3908  -29.2126 H   0  0  0  0  0  0  0  0  0  0  0  0
   -7.7516   22.0388  -32.2861 H   0  0  0  0  0  0  0  0  0  0  0  0
   -6.4909   22.8771  -33.2686 H   0  0  0  0  0  0  0  0  0  0  0  0
   -5.6616   20.5979  -31.4659 H   0  0  0  0  0  0  0  0  0  0  0  0
   -6.4851   20.2236  -33.0178 H   0  0  0  0  0  0  0  0  0  0  0  0
   -4.9502   21.1568  -33.0178 H   0  0  0  0  0  0  0  0  0  0  0  0
   -5.6924   24.5873  -32.5005 H   0  0  0  0  0  0  0  0  0  0  0  0
   -7.1338   24.9297  -31.4453 H   0  0  0  0  0  0  0  0  0  0  0  0
   -4.1022   23.0362  -32.1953 H   0  0  0  0  0  0  0  0  0  0  0  0
   -2.8667   20.8766  -32.1387 H   0  0  0  0  0  0  0  0  0  0  0  0
   -1.2051   20.4337  -30.3374 H   0  0  0  0  0  0  0  0  0  0  0  0
   -0.7804   22.1396  -28.5815 H   0  0  0  0  0  0  0  0  0  0  0  0
    0.3584   27.9414  -28.2150 H   0  0  0  0  0  0  0  0  0  0  0  0
    0.4381   29.2103  -26.0465 H   0  0  0  0  0  0  0  0  0  0  0  0
   -0.8312   28.3775  -24.0527 H   0  0  0  0  0  0  0  0  0  0  0  0
   -2.1927   26.2648  -24.2159 H   0  0  0  0  0  0  0  0  0  0  0  0
  1  2  1  0
  2  3  1  0
  3  4  1  0
  4  5  1  0
  3  6  1  0
  6  7  1  0
  7  8  2  0
  7  9  1  0
  9 10  1  0
 10 11  2  0
 11 12  1  0
 12 13  2  0
 13 14  1  0
 14 15  2  0
 15 16  1  0
 16 17  2  0
 17 18  1  0
 18 19  2  0
 19 20  1  0
 20 21  2  0
 21 22  1  0
 22 23  2  0
 23 24  1  0
 15 10  1  0
 24 16  1  0
 23 18  1  0
  1 25  1  0
  1 26  1  0
  1 27  1  0
  2 28  1  0
  2 29  1  0
  4 30  1  0
  4 31  1  0
  5 32  1  0
  5 33  1  0
  5 34  1  0
  6 35  1  0
  6 36  1  0
 11 37  1  0
 12 38  1  0
 13 39  1  0
 14 40  1  0
 19 41  1  0
 20 42  1  0
 21 43  1  0
 22 44  1  0
M  CHG  1   9  -1
M  END
>  <UniqueID>  (20) 
20

>  <SMILES>  (20) 
CCN(CC)CC(=O)[N-]c1ccccc1-c1nc2ccccc2s1

>  <Energy>  (20) 
85.64420914585551

>  <Genealogy>  (20) 
CCN(CC)CC(=O)[N-]c1ccccc1-c1nc2ccccc2s1 (protonated)
CCN(CC)CC(=O)[N-]c1ccccc1-c1nc2ccccc2s1 (3D coordinates assigned)
CCN(CC)CC(=O)[N-]c1ccccc1-c1nc2ccccc2s1 (optimized conformer: 85.64420914585551 kcal/mol)

>  <smiles>  (20) 
CCN(CC)CC(=O)Nc1ccccc1-c1nc2ccccc2s1

>  <score_type>  (20) 
oracle

>  <origin>  (20) 
adg

>  <m_score__min__energy>  (20) 
-9.1899999999999995

>  <m_primary>  (20) 
energy

$$$$
20:0
     RDKit          3D

 57 60  0  0  0  0  0  0  0  0999 V2000
   -0.8660   25.0460  -28.9590 O   0  0  0  0  0  0  0  0  0  0  0  0
   -1.9740   24.4480  -29.0010 C   0  0  0  0  0  0  0  0  0  0  0  0
   -3.0600   24.9420  -29.7720 N   0  0  0  0  0  0  0  0  0  0  0  0
   -4.1940   24.0670  -29.5200 C   0  0  0  0  0  0  0  0  0  0  0  0
   -4.6900   23.4380  -30.8170 C   0  0  0  0  0  0  0  0  0  0  0  0
   -5.7440   24.3990  -31.3570 C   0  0  0  0  0  0  0  0  0  0  0  0
   -6.1530   25.3170  -30.2010 C   0  0  0  0  0  0  0  0  0  0  0  0
   -5.3740   24.8620  -28.9730 C   0  0  0  0  0  0  0  0  0  0  0  0
   -3.6330   23.0700  -28.5460 C   0  0  0  0  0  0  0  0  0  0  0  0
   -4.3040   22.1850  -28.0360 O   0  0  0  0  0  0  0  0  0  0  0  0
   -2.2380   23.2610  -28.2400 N   0  0  1  0  0  0  0  0  0  0  0  0
   -1.4080   22.1220  -28.7130 C   0  0  0  0  0  0  0  0  0  0  0  0
   -2.0120   21.4220  -29.9460 C   0  0  0  0  0  0  0  0  0  0  0  0
   -1.1180   21.5280  -31.1880 C   0  0  0  0  0  0  0  0  0  0  0  0
   -1.2430   20.2670  -32.0700 C   0  0  0  0  0  0  0  0  0  0  0  0
   -2.4450   20.2570  -32.9330 N   0  0  0  0  0  0  0  0  0  0  0  0
   -3.1780   21.5450  -32.9330 C   0  0  0  0  0  0  0  0  0  0  0  0
   -4.6190   21.3940  -33.4320 C   0  0  0  0  0  0  0  0  0  0  0  0
   -5.3310   20.4000  -32.6190 N   0  0  0  0  0  0  0  0  0  0  0  0
   -6.7550   20.5090  -32.4050 C   0  0  0  0  0  0  0  0  0  0  0  0
   -7.3230   21.7210  -31.9650 C   0  0  0  0  0  0  0  0  0  0  0  0
   -8.7030   21.8250  -31.7580 C   0  0  0  0  0  0  0  0  0  0  0  0
   -9.5300   20.7230  -31.9890 C   0  0  0  0  0  0  0  0  0  0  0  0
   -8.9800   19.5160  -32.4290 C   0  0  0  0  0  0  0  0  0  0  0  0
   -7.6020   19.4080  -32.6370 C   0  0  0  0  0  0  0  0  0  0  0  0
   -4.5790   19.2760  -32.0420 C   0  0  0  0  0  0  0  0  0  0  0  0
   -3.2780   19.0360  -32.8210 C   0  0  0  0  0  0  0  0  0  0  0  0
   -3.8627   23.3319  -31.5341 H   0  0  0  0  0  0  0  0  0  0  0  0
   -5.1011   22.4312  -30.6519 H   0  0  0  0  0  0  0  0  0  0  0  0
   -5.3244   24.9946  -32.1811 H   0  0  0  0  0  0  0  0  0  0  0  0
   -6.6134   23.8479  -31.7450 H   0  0  0  0  0  0  0  0  0  0  0  0
   -5.9032   26.3610  -30.4412 H   0  0  0  0  0  0  0  0  0  0  0  0
   -7.2367   25.2618  -30.0208 H   0  0  0  0  0  0  0  0  0  0  0  0
   -5.0205   25.7299  -28.3970 H   0  0  0  0  0  0  0  0  0  0  0  0
   -5.9944   24.2608  -28.2921 H   0  0  0  0  0  0  0  0  0  0  0  0
   -2.1170   23.4730  -27.2210 H   0  0  0  0  0  0  0  0  0  0  0  0
   -0.4088   22.4993  -28.9760 H   0  0  0  0  0  0  0  0  0  0  0  0
   -1.3608   21.3831  -27.8995 H   0  0  0  0  0  0  0  0  0  0  0  0
   -2.1593   20.3580  -29.7089 H   0  0  0  0  0  0  0  0  0  0  0  0
   -2.9627   21.9240  -30.1788 H   0  0  0  0  0  0  0  0  0  0  0  0
   -1.4200   22.4083  -31.7744 H   0  0  0  0  0  0  0  0  0  0  0  0
   -0.0725   21.6234  -30.8597 H   0  0  0  0  0  0  0  0  0  0  0  0
   -0.3534   20.2050  -32.7141 H   0  0  0  0  0  0  0  0  0  0  0  0
   -1.3312   19.4078  -31.3889 H   0  0  0  0  0  0  0  0  0  0  0  0
   -3.1986   21.9403  -31.9067 H   0  0  0  0  0  0  0  0  0  0  0  0
   -2.6551   22.2298  -33.6168 H   0  0  0  0  0  0  0  0  0  0  0  0
   -5.1341   22.3630  -33.3561 H   0  0  0  0  0  0  0  0  0  0  0  0
   -4.6048   21.0598  -34.4799 H   0  0  0  0  0  0  0  0  0  0  0  0
   -6.6766   22.5922  -31.7828 H   0  0  0  0  0  0  0  0  0  0  0  0
   -9.1370   22.7751  -31.4131 H   0  0  0  0  0  0  0  0  0  0  0  0
  -10.6145   20.8054  -31.8245 H   0  0  0  0  0  0  0  0  0  0  0  0
   -9.6325   18.6496  -32.6119 H   0  0  0  0  0  0  0  0  0  0  0  0
   -7.1757   18.4554  -32.9847 H   0  0  0  0  0  0  0  0  0  0  0  0
   -4.3353   19.5048  -30.9940 H   0  0  0  0  0  0  0  0  0  0  0  0
   -5.1986   18.3690  -32.1008 H   0  0  0  0  0  0  0  0  0  0  0  0
   -2.6961   18.2592  -32.3034 H   0  0  0  0  0  0  0  0  0  0  0  0
   -3.5531   18.7267  -33.8402 H   0  0  0  0  0  0  0  0  0  0  0  0
  1  2  2  0
  2  3  1  0
  3  4  1  0
  4  5  1  0
  5  6  1  0
  6  7  1  0
  7  8  1  0
  4  9  1  0
  9 10  2  0
  9 11  1  0
 11 12  1  0
 12 13  1  0
 13 14  1  0
 14 15  1  0
 15 16  1  0
 16 17  1  0
 17 18  1  0
 18 19  1  0
 19 20  1  0
 20 21  2  0
 21 22  1  0
 22 23  2  0
 23 24  1  0
 24 25  2  0
 19 26  1  0
 26 27  1  0
 11  2  1  0
 27 16  1  0
  8  4  1  0
 25 20  1  0
  5 28  1  0
  5 29  1  0
  6 30  1  0
  6 31  1  0
  7 32  1  0
  7 33  1  0
  8 34  1  0
  8 35  1  0
 11 36  1  1
 12 37  1  0
 12 38  1  0
 13 39  1  0
 13 40  1  0
 14 41  1  0
 14 42  1  0
 15 43  1  0
 15 44  1  0
 17 45  1  0
 17 46  1  0
 18 47  1  0
 18 48  1  0
 21 49  1  0
 22 50  1  0
 23 51  1  0
 24 52  1  0
 25 53  1  0
 26 54  1  0
 26 55  1  0
 27 56  1  0
 27 57  1  0
M  CHG  2   3  -1  11   1
M  END
>  <UniqueID>  (21) 
21

>  <SMILES>  (21) 
O=C1[N-]C2(CCCC2)C(=O)[N@H+]1CCCCN1CCN(c2ccccc2)CC1

>  <Energy>  (21) 
82.09459285903709

>  <Genealogy>  (21) 
O=C1[N-]C2(CCCC2)C(=O)[NH+]1CCCCN1CCN(c2ccccc2)CC1 (protonated)
O=C1[N-]C2(CCCC2)C(=O)[N@H+]1CCCCN1CCN(c2ccccc2)CC1 (chirality)
O=C1[N-]C2(CCCC2)C(=O)[N@H+]1CCCCN1CCN(c2ccccc2)CC1 (3D coordinates assigned)
O=C1[N-]C2(CCCC2)C(=O)[N@H+]1CCCCN1CCN(c2ccccc2)CC1 (nonaromatic ring conformer: 82.09459285903709 kcal/mol)

>  <smiles>  (21) 
O=C1NC2(CCCC2)C(=O)N1CCCCN1CCN(c2ccccc2)CC1

>  <score_type>  (21) 
oracle

>  <origin>  (21) 
adg

>  <m_score__min__energy>  (21) 
-9.5899999999999999

>  <m_primary>  (21) 
energy

$$$$
21:0
     RDKit          3D

 46 48  0  0  0  0  0  0  0  0999 V2000
   -4.5686   25.0294  -29.0824 H   0  0  0  0  0  0  0  0  0  0  0  0
   -3.7630   24.5260  -29.6370 C   0  0  0  0  0  0  0  0  0  0  0  0
   -3.9990   24.0410  -30.8200 N   0  0  0  0  0  0  0  0  0  0  0  0
   -4.9430   23.0030  -31.1230 C   0  0  0  0  0  0  0  0  0  0  0  0
   -6.3190   23.0940  -30.9740 C   0  0  0  0  0  0  0  0  0  0  0  0
   -7.0710   24.2850  -30.4600 C   0  0  0  0  0  0  0  0  0  0  0  0
   -7.0651   24.2756  -29.3601 H   0  0  0  0  0  0  0  0  0  0  0  0
   -6.5904   25.2061  -30.8214 H   0  0  0  0  0  0  0  0  0  0  0  0
   -8.1092   24.2471  -30.8214 H   0  0  0  0  0  0  0  0  0  0  0  0
   -6.8850   21.9490  -31.4350 N   0  0  0  0  0  0  0  0  0  0  0  0
   -8.3230   21.6810  -31.5790 C   0  0  0  0  0  0  0  0  0  0  0  0
   -8.7816   21.5955  -30.5828 H   0  0  0  0  0  0  0  0  0  0  0  0
   -8.7963   22.5064  -32.1310 H   0  0  0  0  0  0  0  0  0  0  0  0
   -8.4672   20.7405  -32.1310 H   0  0  0  0  0  0  0  0  0  0  0  0
   -5.9200   21.1470  -31.8820 N   0  0  0  0  0  0  0  0  0  0  0  0
   -6.1190   19.8780  -32.5250 C   0  0  0  0  0  0  0  0  0  0  0  0
   -6.7030   18.8110  -31.8240 C   0  0  0  0  0  0  0  0  0  0  0  0
   -7.0160   18.9478  -30.7784 H   0  0  0  0  0  0  0  0  0  0  0  0
   -6.8880   17.5750  -32.4510 C   0  0  0  0  0  0  0  0  0  0  0  0
   -7.3499   16.7425  -31.9000 H   0  0  0  0  0  0  0  0  0  0  0  0
   -6.4860   17.3970  -33.7780 C   0  0  0  0  0  0  0  0  0  0  0  0
   -6.6344   16.4252  -34.2715 H   0  0  0  0  0  0  0  0  0  0  0  0
   -5.8950   18.4540  -34.4790 C   0  0  0  0  0  0  0  0  0  0  0  0
   -5.5766   18.3116  -35.5222 H   0  0  0  0  0  0  0  0  0  0  0  0
   -5.7090   19.6900  -33.8550 C   0  0  0  0  0  0  0  0  0  0  0  0
   -5.2402   20.5181  -34.4068 H   0  0  0  0  0  0  0  0  0  0  0  0
   -4.7330   21.7680  -31.7130 C   0  0  0  0  0  0  0  0  0  0  0  0
   -3.6270   21.2860  -32.0740 O   0  0  0  0  0  0  0  0  0  0  0  0
   -2.4570   24.4090  -29.0490 N   0  0  0  0  0  0  0  0  0  0  0  0
   -2.2030   25.0000  -27.7340 C   0  0  0  0  0  0  0  0  0  0  0  0
   -2.9013   25.8331  -27.5656 H   0  0  0  0  0  0  0  0  0  0  0  0
   -2.3475   24.2365  -26.9554 H   0  0  0  0  0  0  0  0  0  0  0  0
   -0.7610   25.5220  -27.6760 C   0  0  0  0  0  0  0  0  0  0  0  0
   -0.6649   26.3592  -28.3831 H   0  0  0  0  0  0  0  0  0  0  0  0
   -0.5693   25.8297  -26.6374 H   0  0  0  0  0  0  0  0  0  0  0  0
    0.2560   24.4930  -28.0230 N   0  0  0  0  0  0  0  0  0  0  0  0
    1.0180   24.0770  -26.8320 C   0  0  0  0  0  0  0  0  0  0  0  0
    0.4720   24.3751  -25.9248 H   0  0  0  0  0  0  0  0  0  0  0  0
    1.1450   22.9844  -26.8411 H   0  0  0  0  0  0  0  0  0  0  0  0
    2.0057   24.5610  -26.8411 H   0  0  0  0  0  0  0  0  0  0  0  0
   -0.2800   23.2990  -28.7220 C   0  0  0  0  0  0  0  0  0  0  0  0
    0.5411   22.8076  -29.2645 H   0  0  0  0  0  0  0  0  0  0  0  0
   -0.7151   22.6306  -27.9644 H   0  0  0  0  0  0  0  0  0  0  0  0
   -1.3860   23.6620  -29.7220 C   0  0  0  0  0  0  0  0  0  0  0  0
   -0.9602   24.2821  -30.5246 H   0  0  0  0  0  0  0  0  0  0  0  0
   -1.8055   22.7364  -30.1430 H   0  0  0  0  0  0  0  0  0  0  0  0
  1  2  1  0
  2  3  2  0
  3  4  1  0
  4  5  2  0
  5  6  1  0
  6  7  1  0
  6  8  1  0
  6  9  1  0
  5 10  1  0
 10 11  1  0
 11 12  1  0
 11 13  1  0
 11 14  1  0
 10 15  1  0
 15 16  1  0
 16 17  2  0
 17 18  1  0
 17 19  1  0
 19 20  1  0
 19 21  2  0
 21 22  1  0
 21 23  1  0
 23 24  1  0
 23 25  2  0
 25 26  1  0
 15 27  1  0
 27 28  2  0
  2 29  1  0
 29 30  1  0
 30 31  1  0
 30 32  1  0
 30 33  1  0
 33 34  1  0
 33 35  1  0
 33 36  1  0
 36 37  1  0
 37 38  1  0
 37 39  1  0
 37 40  1  0
 36 41  1  0
 41 42  1  0
 41 43  1  0
 41 44  1  0
 44 45  1  0
 44 46  1  0
 27  4  1  0
 44 29  1  0
 25 16  1  0
M  END
>  <UniqueID>  (22) 
22

>  <SMILES>  (22) 
Cc1c(/N=C/N2CCN(C)CC2)c(=O)n(-c2ccccc2)n1C

>  <Energy>  (22) 
95.42551991983188

>  <Genealogy>  (22) 
Cc1c(/N=C/N2CCN(C)CC2)c(=O)n(-c2ccccc2)n1C (cis-trans isomerization)
Cc1c(/N=C/N2CCN(C)CC2)c(=O)n(-c2ccccc2)n1C (3D coordinates assigned)
Cc1c(/N=C/N2CCN(C)CC2)c(=O)n(-c2ccccc2)n1C (nonaromatic ring conformer: 95.42551991983188 kcal/mol)

>  <smiles>  (22) 
Cc1c(N=CN2CCN(C)CC2)c(=O)n(-c2ccccc2)n1C

>  <score_type>  (22) 
oracle

>  <origin>  (22) 
adg

>  <m_score__min__energy>  (22) 
-8.1500000000000004

>  <m_primary>  (22) 
energy

$$$$
22:0
     RDKit          3D

 40 43  0  0  0  0  0  0  0  0999 V2000
    1.8780   27.9350  -23.0820 C   0  0  0  0  0  0  0  0  0  0  0  0
    0.4680   27.7480  -23.1250 O   0  0  0  0  0  0  0  0  0  0  0  0
   -0.2120   27.0570  -24.1410 C   0  0  0  0  0  0  0  0  0  0  0  0
   -0.5590   25.7010  -24.0190 C   0  0  0  0  0  0  0  0  0  0  0  0
   -1.2350   25.0460  -25.0490 C   0  0  0  0  0  0  0  0  0  0  0  0
   -1.5820   25.7280  -26.2270 C   0  0  0  0  0  0  0  0  0  0  0  0
   -2.3050   25.0170  -27.3180 C   0  0  0  0  0  0  0  0  0  0  0  0
   -3.5210   24.3080  -27.1960 C   0  0  0  0  0  0  0  0  0  0  0  0
   -3.9080   23.7790  -28.3770 N   0  0  0  0  0  0  0  0  0  0  0  0
   -4.9230   23.0460  -28.8370 C   0  0  0  0  0  0  0  0  0  0  0  0
   -4.6660   22.8640  -30.2040 C   0  0  0  0  0  0  0  0  0  0  0  0
   -5.5100   22.1120  -31.1660 C   0  0  0  0  0  0  0  0  0  0  0  0
   -4.9370   21.3410  -32.1960 C   0  0  0  0  0  0  0  0  0  0  0  0
   -5.7500   20.6390  -33.0910 C   0  0  0  0  0  0  0  0  0  0  0  0
   -7.1390   20.6970  -32.9730 C   0  0  0  0  0  0  0  0  0  0  0  0
   -7.7220   21.4590  -31.9570 C   0  0  0  0  0  0  0  0  0  0  0  0
   -9.4680   21.5310  -31.8080 Cl  0  0  0  0  0  0  0  0  0  0  0  0
   -6.9130   22.1620  -31.0580 C   0  0  0  0  0  0  0  0  0  0  0  0
   -3.5030   23.4850  -30.5590 N   0  0  0  0  0  0  0  0  0  0  0  0
   -3.1070   24.0160  -29.3890 C   0  0  0  0  0  0  0  0  0  0  0  0
   -1.7780   24.9320  -28.9570 S   0  0  0  0  0  0  0  0  0  0  0  0
   -1.2350   27.0880  -26.3470 C   0  0  0  0  0  0  0  0  0  0  0  0
   -0.5520   27.7530  -25.3090 C   0  0  0  0  0  0  0  0  0  0  0  0
   -0.1910   29.1080  -25.4020 O   0  0  0  0  0  0  0  0  0  0  0  0
   -0.9890   30.1910  -24.9370 C   0  0  0  0  0  0  0  0  0  0  0  0
    2.2102   27.9791  -22.0343 H   0  0  0  0  0  0  0  0  0  0  0  0
    2.3749   27.0949  -23.5892 H   0  0  0  0  0  0  0  0  0  0  0  0
    2.1388   28.8756  -23.5892 H   0  0  0  0  0  0  0  0  0  0  0  0
   -0.2955   25.1510  -23.1036 H   0  0  0  0  0  0  0  0  0  0  0  0
   -1.4991   23.9840  -24.9373 H   0  0  0  0  0  0  0  0  0  0  0  0
   -4.0826   24.2002  -26.2563 H   0  0  0  0  0  0  0  0  0  0  0  0
   -5.7813   22.6644  -28.2646 H   0  0  0  0  0  0  0  0  0  0  0  0
   -3.8428   21.2908  -32.2969 H   0  0  0  0  0  0  0  0  0  0  0  0
   -5.2928   20.0386  -33.8913 H   0  0  0  0  0  0  0  0  0  0  0  0
   -7.7749   20.1432  -33.6794 H   0  0  0  0  0  0  0  0  0  0  0  0
   -7.3772   22.7593  -30.2594 H   0  0  0  0  0  0  0  0  0  0  0  0
   -1.5004   27.6377  -27.2621 H   0  0  0  0  0  0  0  0  0  0  0  0
   -0.9936   30.1972  -23.8370 H   0  0  0  0  0  0  0  0  0  0  0  0
   -0.5720   31.1392  -25.3073 H   0  0  0  0  0  0  0  0  0  0  0  0
   -2.0181   30.0736  -25.3073 H   0  0  0  0  0  0  0  0  0  0  0  0
  1  2  1  0
  2  3  1  0
  3  4  2  0
  4  5  1  0
  5  6  2  0
  6  7  1  0
  7  8  2  0
  8  9  1  0
  9 10  1  0
 10 11  2  0
 11 12  1  0
 12 13  2  0
 13 14  1  0
 14 15  2  0
 15 16  1  0
 16 17  1  0
 16 18  2  0
 11 19  1  0
 19 20  2  0
 20 21  1  0
  6 22  1  0
 22 23  2  0
 23 24  1  0
 24 25  1  0
 23  3  1  0
 21  7  1  0
 20  9  1  0
 18 12  1  0
  1 26  1  0
  1 27  1  0
  1 28  1  0
  4 29  1  0
  5 30  1  0
  8 31  1  0
 10 32  1  0
 13 33  1  0
 14 34  1  0
 15 35  1  0
 18 36  1  0
 22 37  1  0
 25 38  1  0
 25 39  1  0
 25 40  1  0
M  END
>  <UniqueID>  (23) 
23

>  <SMILES>  (23) 
COc1ccc(-c2cn3cc(-c4cccc(Cl)c4)nc3s2)cc1OC

>  <Energy>  (23) 
125.4127628427678

>  <Genealogy>  (23) 
COc1ccc(-c2cn3cc(-c4cccc(Cl)c4)nc3s2)cc1OC (3D coordinates assigned)
COc1ccc(-c2cn3cc(-c4cccc(Cl)c4)nc3s2)cc1OC (optimized conformer: 125.4127628427678 kcal/mol)

>  <smiles>  (23) 
COc1ccc(-c2cn3cc(-c4cccc(Cl)c4)nc3s2)cc1OC

>  <score_type>  (23) 
oracle

>  <origin>  (23) 
adg

>  <m_score__min__energy>  (23) 
-7.8499999999999996

>  <m_primary>  (23) 
energy

$$$$
23:0
     RDKit          3D

 57 61  0  0  0  0  0  0  0  0999 V2000
   -1.2930   26.5830  -25.9830 C   0  0  0  0  0  0  0  0  0  0  0  0
   -0.9290   26.7020  -27.4580 C   0  0  0  0  0  0  0  0  0  0  0  0
   -0.6640   25.3820  -28.0240 N   0  0  0  0  0  0  0  0  0  0  0  0
    0.4680   24.7200  -27.8440 N   0  0  0  0  0  0  0  0  0  0  0  0
    0.3980   23.5800  -28.5600 C   0  0  0  0  0  0  0  0  0  0  0  0
   -0.8160   23.5240  -29.2180 C   0  0  0  0  0  0  0  0  0  0  0  0
   -1.2740   22.4300  -30.0830 C   0  0  0  0  0  0  0  0  0  0  0  0
   -0.6400   21.1840  -30.0290 C   0  0  0  0  0  0  0  0  0  0  0  0
   -1.0500   20.1510  -30.8760 C   0  0  0  0  0  0  0  0  0  0  0  0
   -2.1080   20.3520  -31.7800 C   0  0  0  0  0  0  0  0  0  0  0  0
   -2.5020   19.2800  -32.7240 C   0  0  0  0  0  0  0  0  0  0  0  0
   -1.5410   18.3790  -33.2080 C   0  0  0  0  0  0  0  0  0  0  0  0
   -1.8900   17.4030  -34.0920 N   0  0  0  0  0  0  0  0  0  0  0  0
   -3.1700   17.2600  -34.5310 C   0  0  0  0  0  0  0  0  0  0  0  0
   -4.1710   18.1190  -34.0670 C   0  0  0  0  0  0  0  0  0  0  0  0
   -5.5000   17.9940  -34.4860 C   0  0  0  0  0  0  0  0  0  0  0  0
   -6.4750   18.8610  -33.9860 C   0  0  0  0  0  0  0  0  0  0  0  0
   -6.1160   19.8500  -33.0500 C   0  0  0  0  0  0  0  0  0  0  0  0
   -7.0890   20.7660  -32.4930 N   0  0  0  0  0  0  0  0  0  0  0  0
   -6.7120   22.1770  -32.3060 C   0  0  0  0  0  0  0  0  0  0  0  0
   -7.5810   22.8340  -31.2290 C   0  0  0  0  0  0  0  0  0  0  0  0
   -8.9540   22.6010  -31.4770 O   0  0  0  0  0  0  0  0  0  0  0  0
   -9.2260   21.2220  -31.3350 C   0  0  0  0  0  0  0  0  0  0  0  0
   -8.5130   20.4080  -32.4220 C   0  0  0  0  0  0  0  0  0  0  0  0
   -4.8120   19.9510  -32.6710 N   0  0  0  0  0  0  0  0  0  0  0  0
   -3.8350   19.1340  -33.1510 C   0  0  0  0  0  0  0  0  0  0  0  0
   -2.7710   21.5900  -31.7970 C   0  0  0  0  0  0  0  0  0  0  0  0
   -2.3560   22.6240  -30.9540 C   0  0  0  0  0  0  0  0  0  0  0  0
   -1.4630   24.7000  -28.8670 C   0  0  0  0  0  0  0  0  0  0  0  0
   -2.7050   25.1870  -29.3040 O   0  0  0  0  0  0  0  0  0  0  0  0
   -3.9500   24.5390  -29.0830 C   0  0  0  0  0  0  0  0  0  0  0  0
   -0.4265   26.8663  -25.3675 H   0  0  0  0  0  0  0  0  0  0  0  0
   -2.1367   27.2521  -25.7584 H   0  0  0  0  0  0  0  0  0  0  0  0
   -1.5786   25.5447  -25.7584 H   0  0  0  0  0  0  0  0  0  0  0  0
   -1.7641   27.1685  -28.0011 H   0  0  0  0  0  0  0  0  0  0  0  0
   -0.0242   27.3201  -27.5540 H   0  0  0  0  0  0  0  0  0  0  0  0
    1.1850   22.8133  -28.6124 H   0  0  0  0  0  0  0  0  0  0  0  0
    0.1829   21.0172  -29.3183 H   0  0  0  0  0  0  0  0  0  0  0  0
   -0.5426   19.1759  -30.8353 H   0  0  0  0  0  0  0  0  0  0  0  0
   -0.4972   18.4616  -32.8707 H   0  0  0  0  0  0  0  0  0  0  0  0
   -1.1550   16.7500  -34.4450 H   0  0  0  0  0  0  0  0  0  0  0  0
   -3.4177   16.4672  -35.2522 H   0  0  0  0  0  0  0  0  0  0  0  0
   -5.7774   17.2130  -35.2092 H   0  0  0  0  0  0  0  0  0  0  0  0
   -7.5186   18.7714  -34.3221 H   0  0  0  0  0  0  0  0  0  0  0  0
   -5.6567   22.2309  -32.0004 H   0  0  0  0  0  0  0  0  0  0  0  0
   -6.8633   22.7113  -33.2556 H   0  0  0  0  0  0  0  0  0  0  0  0
   -7.3161   22.4147  -30.2472 H   0  0  0  0  0  0  0  0  0  0  0  0
   -7.4001   23.9189  -31.2448 H   0  0  0  0  0  0  0  0  0  0  0  0
   -8.8777   20.8862  -30.3471 H   0  0  0  0  0  0  0  0  0  0  0  0
  -10.3104   21.0660  -31.4339 H   0  0  0  0  0  0  0  0  0  0  0  0
   -8.6043   19.3369  -32.1886 H   0  0  0  0  0  0  0  0  0  0  0  0
   -8.9810   20.6298  -33.3924 H   0  0  0  0  0  0  0  0  0  0  0  0
   -3.6211   21.7463  -32.4773 H   0  0  0  0  0  0  0  0  0  0  0  0
   -2.8787   23.5917  -30.9735 H   0  0  0  0  0  0  0  0  0  0  0  0
   -4.1282   24.4463  -28.0015 H   0  0  0  0  0  0  0  0  0  0  0  0
   -4.7575   25.1312  -29.5382 H   0  0  0  0  0  0  0  0  0  0  0  0
   -3.9282   23.5378  -29.5382 H   0  0  0  0  0  0  0  0  0  0  0  0
  1  2  1  0
  2  3  1  0
  3  4  1  0
  4  5  2  0
  5  6  1  0
  6  7  1  0
  7  8  2  0
  8  9  1  0
  9 10  2  0
 10 11  1  0
 11 12  2  0
 12 13  1  0
 13 14  2  0
 14 15  1  0
 15 16  2  0
 16 17  1  0
 17 18  2  0
 18 19  1  0
 19 20  1  0
 20 21  1  0
 21 22  1  0
 22 23  1  0
 23 24  1  0
 18 25  1  0
 25 26  2  0
 10 27  1  0
 27 28  2  0
  6 29  2  0
 29 30  1  0
 30 31  1  0
 29  3  1  0
 28  7  1  0
 26 11  1  0
 26 15  1  0
 24 19  1  0
  1 32  1  0
  1 33  1  0
  1 34  1  0
  2 35  1  0
  2 36  1  0
  5 37  1  0
  8 38  1  0
  9 39  1  0
 12 40  1  0
 13 41  1  0
 14 42  1  0
 16 43  1  0
 17 44  1  0
 20 45  1  0
 20 46  1  0
 21 47  1  0
 21 48  1  0
 23 49  1  0
 23 50  1  0
 24 51  1  0
 24 52  1  0
 27 53  1  0
 28 54  1  0
 31 55  1  0
 31 56  1  0
 31 57  1  0
M  CHG  1  13   1
M  END
>  <UniqueID>  (24) 
24

>  <SMILES>  (24) 
CCn1ncc(-c2ccc(-c3c[nH+]cc4ccc(N5CCOCC5)nc34)cc2)c1OC

>  <Energy>  (24) 
109.21493246991724

>  <Genealogy>  (24) 
CCn1ncc(-c2ccc(-c3c[nH+]cc4ccc(N5CCOCC5)nc34)cc2)c1OC (protonated)
CCn1ncc(-c2ccc(-c3c[nH+]cc4ccc(N5CCOCC5)nc34)cc2)c1OC (3D coordinates assigned)
CCn1ncc(-c2ccc(-c3c[nH+]cc4ccc(N5CCOCC5)nc34)cc2)c1OC (nonaromatic ring conformer: 109.21493246991724 kcal/mol)

>  <smiles>  (24) 
CCn1ncc(-c2ccc(-c3cncc4ccc(N5CCOCC5)nc34)cc2)c1OC

>  <score_type>  (24) 
oracle

>  <origin>  (24) 
adg

>  <m_score__min__energy>  (24) 
-8.8300000000000001

>  <m_primary>  (24) 
energy

$$$$
24:0
     RDKit          3D

 49 51  0  0  0  0  0  0  0  0999 V2000
   -2.2960   22.0610  -31.6440 C   0  0  0  0  0  0  0  0  0  0  0  0
   -3.7880   21.9770  -31.5580 C   0  0  0  0  0  0  0  0  0  0  0  0
   -4.5960   21.3330  -32.4910 C   0  0  0  0  0  0  0  0  0  0  0  0
   -5.8850   21.5370  -32.0510 C   0  0  0  0  0  0  0  0  0  0  0  0
   -7.0980   21.1560  -32.6210 C   0  0  0  0  0  0  0  0  0  0  0  0
   -8.2820   21.5480  -31.9700 C   0  0  0  0  0  0  0  0  0  0  0  0
   -8.2250   22.2960  -30.7760 C   0  0  0  0  0  0  0  0  0  0  0  0
   -6.9850   22.6630  -30.2210 C   0  0  0  0  0  0  0  0  0  0  0  0
   -5.8230   22.2680  -30.8920 C   0  0  0  0  0  0  0  0  0  0  0  0
   -4.5370   22.5350  -30.5700 N   0  0  0  0  0  0  0  0  0  0  0  0
   -4.0540   23.3450  -29.4460 C   0  0  0  0  0  0  0  0  0  0  0  0
   -3.5620   24.6660  -29.9410 C   0  0  0  0  0  0  0  0  0  0  0  0
   -4.1800   25.2700  -30.8600 O   0  0  0  0  0  0  0  0  0  0  0  0
   -2.4180   25.2580  -29.3270 N   0  0  0  0  0  0  0  0  0  0  0  0
   -1.8280   24.7910  -28.0810 C   0  0  0  0  0  0  0  0  0  0  0  0
   -0.3550   24.4560  -28.3160 C   0  0  0  0  0  0  0  0  0  0  0  0
   -0.0920   23.0430  -27.9630 N   0  0  0  0  0  0  0  0  0  0  0  0
   -0.4930   22.7710  -26.5730 C   0  0  0  0  0  0  0  0  0  0  0  0
   -0.7530   22.1050  -28.8970 C   0  0  0  0  0  0  0  0  0  0  0  0
   -1.2910   20.9260  -28.1340 C   0  0  0  0  0  0  0  0  0  0  0  0
   -2.6400   20.8790  -27.7470 C   0  0  0  0  0  0  0  0  0  0  0  0
   -3.1310   19.7770  -27.0390 C   0  0  0  0  0  0  0  0  0  0  0  0
   -2.2800   18.7170  -26.7140 C   0  0  0  0  0  0  0  0  0  0  0  0
   -0.9340   18.7640  -27.0840 C   0  0  0  0  0  0  0  0  0  0  0  0
   -0.4360   19.8690  -27.7790 C   0  0  0  0  0  0  0  0  0  0  0  0
   -1.8710   22.0849  -30.6297 H   0  0  0  0  0  0  0  0  0  0  0  0
   -1.9098   21.1832  -32.1828 H   0  0  0  0  0  0  0  0  0  0  0  0
   -2.0107   22.9766  -32.1828 H   0  0  0  0  0  0  0  0  0  0  0  0
   -4.2744   20.7806  -33.3862 H   0  0  0  0  0  0  0  0  0  0  0  0
   -7.1289   20.5677  -33.5500 H   0  0  0  0  0  0  0  0  0  0  0  0
   -9.2577   21.2694  -32.3948 H   0  0  0  0  0  0  0  0  0  0  0  0
   -9.1572   22.5950  -30.2744 H   0  0  0  0  0  0  0  0  0  0  0  0
   -6.9312   23.2429  -29.2878 H   0  0  0  0  0  0  0  0  0  0  0  0
   -4.8765   23.5065  -28.7337 H   0  0  0  0  0  0  0  0  0  0  0  0
   -3.2277   22.8157  -28.9489 H   0  0  0  0  0  0  0  0  0  0  0  0
   -1.9087   25.5790  -27.3178 H   0  0  0  0  0  0  0  0  0  0  0  0
   -2.3602   23.8929  -27.7342 H   0  0  0  0  0  0  0  0  0  0  0  0
   -0.1097   24.6179  -29.3760 H   0  0  0  0  0  0  0  0  0  0  0  0
    0.2674   25.1067  -27.6841 H   0  0  0  0  0  0  0  0  0  0  0  0
    0.2176   23.2530  -25.8854 H   0  0  0  0  0  0  0  0  0  0  0  0
   -1.5023   23.1717  -26.3975 H   0  0  0  0  0  0  0  0  0  0  0  0
   -0.4939   21.6851  -26.3975 H   0  0  0  0  0  0  0  0  0  0  0  0
   -1.5809   22.6193  -29.4070 H   0  0  0  0  0  0  0  0  0  0  0  0
   -0.0218   21.7552  -29.6407 H   0  0  0  0  0  0  0  0  0  0  0  0
   -3.3127   21.7113  -28.0014 H   0  0  0  0  0  0  0  0  0  0  0  0
   -4.1884   19.7446  -26.7376 H   0  0  0  0  0  0  0  0  0  0  0  0
   -2.6702   17.8460  -26.1670 H   0  0  0  0  0  0  0  0  0  0  0  0
   -0.2648   17.9295  -26.8277 H   0  0  0  0  0  0  0  0  0  0  0  0
    0.6294   19.9117  -28.0493 H   0  0  0  0  0  0  0  0  0  0  0  0
  1  2  1  0
  2  3  2  0
  3  4  1  0
  4  5  2  0
  5  6  1  0
  6  7  2  0
  7  8  1  0
  8  9  2  0
  9 10  1  0
 10 11  1  0
 11 12  1  0
 12 13  2  0
 12 14  1  0
 14 15  1  0
 15 16  1  0
 16 17  1  0
 17 18  1  0
 17 19  1  0
 19 20  1  0
 20 21  2  0
 21 22  1  0
 22 23  2  0
 23 24  1  0
 24 25  2  0
 10  2  1  0
 25 20  1  0
  9  4  1  0
  1 26  1  0
  1 27  1  0
  1 28  1  0
  3 29  1  0
  5 30  1  0
  6 31  1  0
  7 32  1  0
  8 33  1  0
 11 34  1  0
 11 35  1  0
 15 36  1  0
 15 37  1  0
 16 38  1  0
 16 39  1  0
 18 40  1  0
 18 41  1  0
 18 42  1  0
 19 43  1  0
 19 44  1  0
 21 45  1  0
 22 46  1  0
 23 47  1  0
 24 48  1  0
 25 49  1  0
M  CHG  1  14  -1
M  END
>  <UniqueID>  (25) 
25

>  <SMILES>  (25) 
Cc1cc2ccccc2n1CC(=O)[N-]CCN(C)Cc1ccccc1

>  <Energy>  (25) 
71.9047236313219

>  <Genealogy>  (25) 
Cc1cc2ccccc2n1CC(=O)[N-]CCN(C)Cc1ccccc1 (protonated)
Cc1cc2ccccc2n1CC(=O)[N-]CCN(C)Cc1ccccc1 (3D coordinates assigned)
Cc1cc2ccccc2n1CC(=O)[N-]CCN(C)Cc1ccccc1 (optimized conformer: 71.9047236313219 kcal/mol)

>  <smiles>  (25) 
Cc1cc2ccccc2n1CC(=O)NCCN(C)Cc1ccccc1

>  <score_type>  (25) 
oracle

>  <origin>  (25) 
adg

>  <m_score__min__energy>  (25) 
-10.59

>  <m_primary>  (25) 
energy

$$$$
25:0
     RDKit          3D

 61 62  0  0  0  0  0  0  0  0999 V2000
   -2.6390   21.0060  -27.7540 C   0  0  0  0  0  0  0  0  0  0  0  0
   -1.5360   21.8660  -27.9220 O   0  0  0  0  0  0  0  0  0  0  0  0
   -0.6690   21.7950  -26.8030 C   0  0  0  0  0  0  0  0  0  0  0  0
    0.7870   21.9360  -27.2600 C   0  0  0  0  0  0  0  0  0  0  0  0
    1.2050   23.4050  -27.3370 C   0  0  0  0  0  0  0  0  0  0  0  0
    0.3600   24.1180  -28.3030 N   0  0  0  0  0  0  0  0  0  0  0  0
   -0.5100   25.1000  -27.6370 C   0  0  0  0  0  0  0  0  0  0  0  0
   -1.7600   25.3930  -28.4790 C   0  0  0  0  0  0  0  0  0  0  0  0
   -2.2420   24.1770  -29.1300 N   0  0  0  0  0  0  0  0  0  0  0  0
   -3.1950   24.1860  -30.2010 C   0  0  0  0  0  0  0  0  0  0  0  0
   -3.8510   25.2340  -30.4540 O   0  0  0  0  0  0  0  0  0  0  0  0
   -3.4510   22.9620  -30.9880 C   0  0  0  0  0  0  0  0  0  0  0  0
   -2.4870   21.9420  -30.9740 C   0  0  0  0  0  0  0  0  0  0  0  0
   -2.6410   20.8050  -31.7650 C   0  0  0  0  0  0  0  0  0  0  0  0
   -3.7640   20.6670  -32.5860 C   0  0  0  0  0  0  0  0  0  0  0  0
   -3.8710   19.4930  -33.5260 C   0  0  0  0  0  0  0  0  0  0  0  0
   -5.2800   19.0670  -33.6960 N   0  0  0  0  0  0  0  0  0  0  0  0
   -5.3400   17.9640  -34.6690 C   0  0  0  0  0  0  0  0  0  0  0  0
   -5.8960   18.6420  -32.4120 C   0  0  0  0  0  0  0  0  0  0  0  0
   -7.1490   19.4340  -32.1280 C   0  0  0  0  0  0  0  0  0  0  0  0
   -8.3690   19.0600  -32.7200 C   0  0  0  0  0  0  0  0  0  0  0  0
   -9.5280   19.8010  -32.4770 C   0  0  0  0  0  0  0  0  0  0  0  0
   -9.4830   20.9130  -31.6310 C   0  0  0  0  0  0  0  0  0  0  0  0
   -8.2790   21.2810  -31.0190 C   0  0  0  0  0  0  0  0  0  0  0  0
   -7.1170   20.5400  -31.2610 C   0  0  0  0  0  0  0  0  0  0  0  0
   -4.7600   21.6520  -32.5610 C   0  0  0  0  0  0  0  0  0  0  0  0
   -4.6270   22.7930  -31.7550 C   0  0  0  0  0  0  0  0  0  0  0  0
   -5.7450   23.8030  -31.7530 C   0  0  0  0  0  0  0  0  0  0  0  0
   -2.8286   20.8582  -26.6806 H   0  0  0  0  0  0  0  0  0  0  0  0
   -3.5271   21.4524  -28.2251 H   0  0  0  0  0  0  0  0  0  0  0  0
   -2.4226   20.0358  -28.2251 H   0  0  0  0  0  0  0  0  0  0  0  0
   -0.9113   22.6073  -26.1020 H   0  0  0  0  0  0  0  0  0  0  0  0
   -0.7994   20.8226  -26.3056 H   0  0  0  0  0  0  0  0  0  0  0  0
    1.4394   21.4148  -26.5440 H   0  0  0  0  0  0  0  0  0  0  0  0
    0.8803   21.4952  -28.2635 H   0  0  0  0  0  0  0  0  0  0  0  0
    1.0943   23.8676  -26.3452 H   0  0  0  0  0  0  0  0  0  0  0  0
    2.2542   23.4651  -27.6619 H   0  0  0  0  0  0  0  0  0  0  0  0
   -0.2580   23.4070  -28.7640 H   0  0  0  0  0  0  0  0  0  0  0  0
   -0.8205   24.7005  -26.6603 H   0  0  0  0  0  0  0  0  0  0  0  0
    0.0532   26.0364  -27.5109 H   0  0  0  0  0  0  0  0  0  0  0  0
   -2.5506   25.7900  -27.8253 H   0  0  0  0  0  0  0  0  0  0  0  0
   -1.4994   26.1290  -29.2539 H   0  0  0  0  0  0  0  0  0  0  0  0
   -1.9210   23.2570  -28.7530 H   0  0  0  0  0  0  0  0  0  0  0  0
   -1.5998   22.0412  -30.3313 H   0  0  0  0  0  0  0  0  0  0  0  0
   -1.8769   20.0140  -31.7433 H   0  0  0  0  0  0  0  0  0  0  0  0
   -3.4626   19.7802  -34.5062 H   0  0  0  0  0  0  0  0  0  0  0  0
   -3.3031   18.6532  -33.0991 H   0  0  0  0  0  0  0  0  0  0  0  0
   -5.3922   17.0048  -34.1331 H   0  0  0  0  0  0  0  0  0  0  0  0
   -6.2331   18.0803  -35.3005 H   0  0  0  0  0  0  0  0  0  0  0  0
   -4.4395   17.9827  -35.3005 H   0  0  0  0  0  0  0  0  0  0  0  0
   -6.1508   17.5736  -32.4710 H   0  0  0  0  0  0  0  0  0  0  0  0
   -5.1755   18.8207  -31.6002 H   0  0  0  0  0  0  0  0  0  0  0  0
   -8.4106   18.1793  -33.3778 H   0  0  0  0  0  0  0  0  0  0  0  0
  -10.4765   19.5094  -32.9516 H   0  0  0  0  0  0  0  0  0  0  0  0
  -10.3949   21.4996  -31.4460 H   0  0  0  0  0  0  0  0  0  0  0  0
   -8.2464   22.1522  -30.3482 H   0  0  0  0  0  0  0  0  0  0  0  0
   -6.1743   20.8242  -30.7706 H   0  0  0  0  0  0  0  0  0  0  0  0
   -5.6594   21.5292  -33.1823 H   0  0  0  0  0  0  0  0  0  0  0  0
   -6.0161   24.0479  -30.7154 H   0  0  0  0  0  0  0  0  0  0  0  0
   -5.4155   24.7157  -32.2711 H   0  0  0  0  0  0  0  0  0  0  0  0
   -6.6197   23.3828  -32.2711 H   0  0  0  0  0  0  0  0  0  0  0  0
  1  2  1  0
  2  3  1  0
  3  4  1  0
  4  5  1  0
  5  6  1  0
  6  7  1  0
  7  8  1  0
  8  9  1  0
  9 10  1  0
 10 11  2  0
 10 12  1  0
 12 13  2  0
 13 14  1  0
 14 15  2  0
 15 16  1  0
 16 17  1  0
 17 18  1  0
 17 19  1  0
 19 20  1  0
 20 21  2  0
 21 22  1  0
 22 23  2  0
 23 24  1  0
 24 25  2  0
 15 26  1  0
 26 27  2  0
 27 28  1  0
 27 12  1  0
 25 20  1  0
  1 29  1  0
  1 30  1  0
  1 31  1  0
  3 32  1  0
  3 33  1  0
  4 34  1  0
  4 35  1  0
  5 36  1  0
  5 37  1  0
  6 38  1  0
  7 39  1  0
  7 40  1  0
  8 41  1  0
  8 42  1  0
  9 43  1  0
 13 44  1  0
 14 45  1  0
 16 46  1  0
 16 47  1  0
 18 48  1  0
 18 49  1  0
 18 50  1  0
 19 51  1  0
 19 52  1  0
 21 53  1  0
 22 54  1  0
 23 55  1  0
 24 56  1  0
 25 57  1  0
 26 58  1  0
 28 59  1  0
 28 60  1  0
 28 61  1  0
M  END
>  <UniqueID>  (26) 
26

>  <SMILES>  (26) 
COCCCNCCNC(=O)c1ccc(CN(C)Cc2ccccc2)cc1C

>  <Energy>  (26) 
56.15753493993879

>  <Genealogy>  (26) 
COCCCNCCNC(=O)c1ccc(CN(C)Cc2ccccc2)cc1C (3D coordinates assigned)
COCCCNCCNC(=O)c1ccc(CN(C)Cc2ccccc2)cc1C (optimized conformer: 56.15753493993879 kcal/mol)

>  <smiles>  (26) 
COCCCNCCNC(=O)c1ccc(CN(C)Cc2ccccc2)cc1C

>  <score_type>  (26) 
oracle

>  <origin>  (26) 
adg

>  <m_score__min__energy>  (26) 
-8.5700000000000003

>  <m_primary>  (26) 
energy

$$$$
26:0
     RDKit          3D

 43 43  0  0  0  0  0  0  0  0999 V2000
   -9.4850   21.6170  -31.1780 C   0  0  0  0  0  0  0  0  0  0  0  0
   -9.0920   20.1960  -31.5720 C   0  0  0  0  0  0  0  0  0  0  0  0
   -8.2480   20.1180  -32.8640 C   0  0  0  0  0  0  0  0  0  0  0  0
   -6.8380   19.6780  -32.6940 N   0  0  0  0  0  0  0  0  0  0  0  0
   -6.6920   18.4210  -31.9270 C   0  0  0  0  0  0  0  0  0  0  0  0
   -6.2920   17.2850  -32.8730 C   0  0  0  0  0  0  0  0  0  0  0  0
   -5.9730   17.8100  -34.2700 C   0  0  0  0  0  0  0  0  0  0  0  0
   -5.8850   20.7220  -32.2450 C   0  0  0  0  0  0  0  0  0  0  0  0
   -6.4710   22.1390  -32.4110 C   0  0  0  0  0  0  0  0  0  0  0  0
   -5.5810   23.2810  -31.8620 C   0  0  0  0  0  0  0  0  0  0  0  0
   -6.4060   24.4410  -31.2530 C   0  0  0  0  0  0  0  0  0  0  0  0
   -5.5800   25.2830  -30.2580 C   0  0  0  0  0  0  0  0  0  0  0  0
   -4.1540   25.2980  -30.6110 N   0  0  0  0  0  0  0  0  0  0  0  0
   -3.5400   23.9580  -30.5110 C   0  0  0  0  0  0  0  0  0  0  0  0
   -4.5020   22.8040  -30.8770 C   0  0  0  0  0  0  0  0  0  0  0  0
   -9.5081   21.7003  -30.0814 H   0  0  0  0  0  0  0  0  0  0  0  0
   -8.7495   22.3269  -31.5843 H   0  0  0  0  0  0  0  0  0  0  0  0
  -10.4808   21.8480  -31.5843 H   0  0  0  0  0  0  0  0  0  0  0  0
   -8.5084   19.7569  -30.7495 H   0  0  0  0  0  0  0  0  0  0  0  0
  -10.0256   19.6474  -31.7655 H   0  0  0  0  0  0  0  0  0  0  0  0
   -8.7416   19.4107  -33.5466 H   0  0  0  0  0  0  0  0  0  0  0  0
   -8.1940   21.1480  -33.2464 H   0  0  0  0  0  0  0  0  0  0  0  0
   -5.9146   18.5489  -31.1593 H   0  0  0  0  0  0  0  0  0  0  0  0
   -7.6493   18.1744  -31.4445 H   0  0  0  0  0  0  0  0  0  0  0  0
   -5.4026   16.7793  -32.4690 H   0  0  0  0  0  0  0  0  0  0  0  0
   -7.1373   16.5854  -32.9507 H   0  0  0  0  0  0  0  0  0  0  0  0
   -5.4034   18.7475  -34.1882 H   0  0  0  0  0  0  0  0  0  0  0  0
   -5.3753   17.0641  -34.8144 H   0  0  0  0  0  0  0  0  0  0  0  0
   -6.9104   17.9969  -34.8144 H   0  0  0  0  0  0  0  0  0  0  0  0
   -5.6486   20.5561  -31.1836 H   0  0  0  0  0  0  0  0  0  0  0  0
   -4.9801   20.6503  -32.8663 H   0  0  0  0  0  0  0  0  0  0  0  0
   -6.6333   22.3181  -33.4841 H   0  0  0  0  0  0  0  0  0  0  0  0
   -7.3990   22.1602  -31.8208 H   0  0  0  0  0  0  0  0  0  0  0  0
   -5.0537   23.6693  -32.7458 H   0  0  0  0  0  0  0  0  0  0  0  0
   -6.7535   25.0942  -32.0670 H   0  0  0  0  0  0  0  0  0  0  0  0
   -7.2519   24.0021  -30.7036 H   0  0  0  0  0  0  0  0  0  0  0  0
   -5.9595   26.3154  -30.2639 H   0  0  0  0  0  0  0  0  0  0  0  0
   -5.6813   24.8312  -29.2602 H   0  0  0  0  0  0  0  0  0  0  0  0
   -4.0550   25.6490  -31.5930 H   0  0  0  0  0  0  0  0  0  0  0  0
   -2.6770   23.9198  -31.1921 H   0  0  0  0  0  0  0  0  0  0  0  0
   -3.2516   23.8145  -29.4592 H   0  0  0  0  0  0  0  0  0  0  0  0
   -3.9267   21.9887  -31.3400 H   0  0  0  0  0  0  0  0  0  0  0  0
   -4.9951   22.4528  -29.9586 H   0  0  0  0  0  0  0  0  0  0  0  0
  1  2  1  0
  2  3  1  0
  3  4  1  0
  4  5  1  0
  5  6  1  0
  6  7  1  0
  4  8  1  0
  8  9  1  0
  9 10  1  0
 10 11  1  0
 11 12  1  0
 12 13  1  0
 13 14  1  0
 14 15  1  0
 15 10  1  0
  1 16  1  0
  1 17  1  0
  1 18  1  0
  2 19  1  0
  2 20  1  0
  3 21  1  0
  3 22  1  0
  5 23  1  0
  5 24  1  0
  6 25  1  0
  6 26  1  0
  7 27  1  0
  7 28  1  0
  7 29  1  0
  8 30  1  0
  8 31  1  0
  9 32  1  0
  9 33  1  0
 10 34  1  0
 11 35  1  0
 11 36  1  0
 12 37  1  0
 12 38  1  0
 13 39  1  0
 14 40  1  0
 14 41  1  0
 15 42  1  0
 15 43  1  0
M  END
>  <UniqueID>  (27) 
27

>  <SMILES>  (27) 
CCCN(CCC)CCC1CCNCC1

>  <Energy>  (27) 
43.13582988716327

>  <Genealogy>  (27) 
CCCN(CCC)CCC1CCNCC1 (3D coordinates assigned)
CCCN(CCC)CCC1CCNCC1 (nonaromatic ring conformer: 43.13582988716327 kcal/mol)

>  <smiles>  (27) 
CCCN(CCC)CCC1CCNCC1

>  <score_type>  (27) 
oracle

>  <origin>  (27) 
adg

>  <m_score__min__energy>  (27) 
-7.0899999999999999

>  <m_primary>  (27) 
energy

$$$$
27:0
     RDKit          3D

 42 45  0  0  0  0  0  0  0  0999 V2000
   -5.7340   25.8600  -30.0990 C   0  0  0  0  0  0  0  0  0  0  0  0
   -5.0620   24.8530  -30.8500 O   0  0  0  0  0  0  0  0  0  0  0  0
   -5.6590   23.6670  -31.3050 C   0  0  0  0  0  0  0  0  0  0  0  0
   -7.0490   23.4590  -31.2430 C   0  0  0  0  0  0  0  0  0  0  0  0
   -7.6130   22.2610  -31.7040 C   0  0  0  0  0  0  0  0  0  0  0  0
   -9.0040   22.0800  -31.6560 C   0  0  0  0  0  0  0  0  0  0  0  0
   -9.5750   20.8990  -32.1240 C   0  0  0  0  0  0  0  0  0  0  0  0
   -8.7700   19.8820  -32.6330 C   0  0  0  0  0  0  0  0  0  0  0  0
   -7.3740   20.0280  -32.6790 C   0  0  0  0  0  0  0  0  0  0  0  0
   -6.5710   18.8910  -33.1850 C   0  0  0  0  0  0  0  0  0  0  0  0
   -6.1160   18.8820  -34.5130 C   0  0  0  0  0  0  0  0  0  0  0  0
   -5.3470   17.8180  -34.9910 C   0  0  0  0  0  0  0  0  0  0  0  0
   -5.0130   16.7530  -34.1430 C   0  0  0  0  0  0  0  0  0  0  0  0
   -4.2410   15.6790  -34.6120 C   0  0  0  0  0  0  0  0  0  0  0  0
   -3.9120   14.6240  -33.7550 C   0  0  0  0  0  0  0  0  0  0  0  0
   -4.3490   14.6320  -32.4280 C   0  0  0  0  0  0  0  0  0  0  0  0
   -5.1190   15.6960  -31.9480 C   0  0  0  0  0  0  0  0  0  0  0  0
   -5.4570   16.7620  -32.7980 C   0  0  0  0  0  0  0  0  0  0  0  0
   -6.2300   17.8340  -32.3270 C   0  0  0  0  0  0  0  0  0  0  0  0
   -6.7820   21.2380  -32.2260 C   0  0  0  0  0  0  0  0  0  0  0  0
   -5.3940   21.4660  -32.3020 C   0  0  0  0  0  0  0  0  0  0  0  0
   -4.8320   22.6700  -31.8400 C   0  0  0  0  0  0  0  0  0  0  0  0
   -3.4490   22.9160  -31.8950 O   0  0  0  0  0  0  0  0  0  0  0  0
   -2.4450   21.9090  -31.8290 C   0  0  0  0  0  0  0  0  0  0  0  0
   -5.6035   25.6644  -29.0244 H   0  0  0  0  0  0  0  0  0  0  0  0
   -5.3116   26.8451  -30.3464 H   0  0  0  0  0  0  0  0  0  0  0  0
   -6.8058   25.8480  -30.3464 H   0  0  0  0  0  0  0  0  0  0  0  0
   -7.6994   24.2436  -30.8290 H   0  0  0  0  0  0  0  0  0  0  0  0
   -9.6459   22.8742  -31.2471 H   0  0  0  0  0  0  0  0  0  0  0  0
  -10.6668   20.7685  -32.0916 H   0  0  0  0  0  0  0  0  0  0  0  0
   -9.2328   18.9551  -33.0027 H   0  0  0  0  0  0  0  0  0  0  0  0
   -6.3667   19.7185  -35.1819 H   0  0  0  0  0  0  0  0  0  0  0  0
   -5.0027   17.8160  -36.0357 H   0  0  0  0  0  0  0  0  0  0  0  0
   -3.8940   15.6670  -35.6558 H   0  0  0  0  0  0  0  0  0  0  0  0
   -3.3066   13.7844  -34.1272 H   0  0  0  0  0  0  0  0  0  0  0  0
   -4.0867   13.7991  -31.7590 H   0  0  0  0  0  0  0  0  0  0  0  0
   -5.4608   15.6982  -30.9024 H   0  0  0  0  0  0  0  0  0  0  0  0
   -6.5702   17.8460  -31.2810 H   0  0  0  0  0  0  0  0  0  0  0  0
   -4.7401   20.6913  -32.7288 H   0  0  0  0  0  0  0  0  0  0  0  0
   -2.2203   21.6837  -30.7760 H   0  0  0  0  0  0  0  0  0  0  0  0
   -2.8054   20.9985  -32.3300 H   0  0  0  0  0  0  0  0  0  0  0  0
   -1.5334   22.2667  -32.3300 H   0  0  0  0  0  0  0  0  0  0  0  0
  1  2  1  0
  2  3  1  0
  3  4  2  0
  4  5  1  0
  5  6  2  0
  6  7  1  0
  7  8  2  0
  8  9  1  0
  9 10  1  0
 10 11  2  0
 11 12  1  0
 12 13  2  0
 13 14  1  0
 14 15  2  0
 15 16  1  0
 16 17  2  0
 17 18  1  0
 18 19  2  0
  9 20  2  0
 20 21  1  0
 21 22  2  0
 22 23  1  0
 23 24  1  0
 22  3  1  0
 20  5  1  0
 19 10  1  0
 18 13  1  0
  1 25  1  0
  1 26  1  0
  1 27  1  0
  4 28  1  0
  6 29  1  0
  7 30  1  0
  8 31  1  0
 11 32  1  0
 12 33  1  0
 14 34  1  0
 15 35  1  0
 16 36  1  0
 17 37  1  0
 19 38  1  0
 21 39  1  0
 24 40  1  0
 24 41  1  0
 24 42  1  0
M  END
>  <UniqueID>  (28) 
28

>  <SMILES>  (28) 
COc1cc2cccc(-c3ccc4ccccc4c3)c2cc1OC

>  <Energy>  (28) 
60.35793515134345

>  <Genealogy>  (28) 
COc1cc2cccc(-c3ccc4ccccc4c3)c2cc1OC (3D coordinates assigned)
COc1cc2cccc(-c3ccc4ccccc4c3)c2cc1OC (optimized conformer: 60.35793515134345 kcal/mol)

>  <smiles>  (28) 
COc1cc2cccc(-c3ccc4ccccc4c3)c2cc1OC

>  <score_type>  (28) 
oracle

>  <origin>  (28) 
adg

>  <m_score__min__energy>  (28) 
-9.4700000000000006

>  <m_primary>  (28) 
energy

$$$$
28:0
     RDKit          3D

 57 59  0  0  0  0  0  0  0  0999 V2000
   -3.2190   23.4840  -28.5690 C   0  0  0  0  0  0  0  0  0  0  0  0
   -4.6060   24.1190  -28.6260 C   0  0  0  0  0  0  0  0  0  0  0  0
   -5.0270   24.7170  -30.2730 S   0  0  0  0  0  0  0  0  0  0  0  0
   -6.1920   25.6560  -30.1260 O   0  0  0  0  0  0  0  0  0  0  0  0
   -3.8690   25.5010  -30.8290 O   0  0  0  0  0  0  0  0  0  0  0  0
   -5.4610   23.4610  -31.4170 N   0  0  0  0  0  0  0  0  0  0  0  0
   -6.6150   23.7980  -32.2730 C   0  0  0  0  0  0  0  0  0  0  0  0
   -7.9810   23.3120  -31.7250 C   0  0  0  0  0  0  0  0  0  0  0  0
   -7.9010   22.1080  -30.8520 N   0  0  0  0  0  0  0  0  0  0  0  0
   -9.1210   21.2590  -30.9480 C   0  0  0  0  0  0  0  0  0  0  0  0
   -9.2800   20.5600  -32.3200 C   0  0  0  0  0  0  0  0  0  0  0  0
   -8.7500   19.1460  -32.2970 C   0  0  0  0  0  0  0  0  0  0  0  0
   -9.5290   18.2180  -31.9440 O   0  0  0  0  0  0  0  0  0  0  0  0
   -7.3680   18.8120  -32.7220 C   0  0  0  0  0  0  0  0  0  0  0  0
   -6.7810   19.5240  -33.7840 C   0  0  0  0  0  0  0  0  0  0  0  0
   -5.4750   19.2350  -34.2030 C   0  0  0  0  0  0  0  0  0  0  0  0
   -4.7380   18.2160  -33.5770 C   0  0  0  0  0  0  0  0  0  0  0  0
   -3.3010   17.9660  -33.9640 C   0  0  0  0  0  0  0  0  0  0  0  0
   -2.4530   19.1540  -33.5750 C   0  0  0  0  0  0  0  0  0  0  0  0
   -2.8790   20.0290  -32.5600 C   0  0  0  0  0  0  0  0  0  0  0  0
   -2.1200   21.1600  -32.2390 C   0  0  0  0  0  0  0  0  0  0  0  0
   -0.9280   21.4270  -32.9250 C   0  0  0  0  0  0  0  0  0  0  0  0
   -0.5050   20.5730  -33.9470 C   0  0  0  0  0  0  0  0  0  0  0  0
   -1.2690   19.4450  -34.2790 C   0  0  0  0  0  0  0  0  0  0  0  0
   -5.3250   17.4890  -32.5290 C   0  0  0  0  0  0  0  0  0  0  0  0
   -6.6310   17.7780  -32.1090 C   0  0  0  0  0  0  0  0  0  0  0  0
   -6.7080   21.2960  -31.1660 C   0  0  0  0  0  0  0  0  0  0  0  0
   -5.4300   22.0910  -30.8600 C   0  0  0  0  0  0  0  0  0  0  0  0
   -2.9211   23.3476  -27.5189 H   0  0  0  0  0  0  0  0  0  0  0  0
   -3.2421   22.5068  -29.0735 H   0  0  0  0  0  0  0  0  0  0  0  0
   -2.4944   24.1400  -29.0735 H   0  0  0  0  0  0  0  0  0  0  0  0
   -5.3502   23.3677  -28.3230 H   0  0  0  0  0  0  0  0  0  0  0  0
   -4.6043   24.9848  -27.9475 H   0  0  0  0  0  0  0  0  0  0  0  0
   -6.6565   24.8920  -32.3798 H   0  0  0  0  0  0  0  0  0  0  0  0
   -6.4581   23.2798  -33.2305 H   0  0  0  0  0  0  0  0  0  0  0  0
   -8.4286   24.1304  -31.1420 H   0  0  0  0  0  0  0  0  0  0  0  0
   -8.5858   23.0266  -32.5984 H   0  0  0  0  0  0  0  0  0  0  0  0
   -7.8090   22.4300  -29.8570 H   0  0  0  0  0  0  0  0  0  0  0  0
   -9.0696   20.4859  -30.1672 H   0  0  0  0  0  0  0  0  0  0  0  0
   -9.9885   21.9233  -30.8207 H   0  0  0  0  0  0  0  0  0  0  0  0
  -10.3473   20.5353  -32.5849 H   0  0  0  0  0  0  0  0  0  0  0  0
   -8.7002   21.1291  -33.0615 H   0  0  0  0  0  0  0  0  0  0  0  0
   -7.3527   20.3155  -34.2906 H   0  0  0  0  0  0  0  0  0  0  0  0
   -5.0249   19.8091  -35.0263 H   0  0  0  0  0  0  0  0  0  0  0  0
   -2.9334   17.0689  -33.4442 H   0  0  0  0  0  0  0  0  0  0  0  0
   -3.2384   17.8153  -35.0518 H   0  0  0  0  0  0  0  0  0  0  0  0
   -3.8128   19.8236  -32.0161 H   0  0  0  0  0  0  0  0  0  0  0  0
   -2.4604   21.8416  -31.4455 H   0  0  0  0  0  0  0  0  0  0  0  0
   -0.3255   22.3082  -32.6593 H   0  0  0  0  0  0  0  0  0  0  0  0
    0.4272   20.7856  -34.4910 H   0  0  0  0  0  0  0  0  0  0  0  0
   -0.9413   18.7835  -35.0944 H   0  0  0  0  0  0  0  0  0  0  0  0
   -4.7566   16.6876  -32.0344 H   0  0  0  0  0  0  0  0  0  0  0  0
   -7.0843   17.1935  -31.2948 H   0  0  0  0  0  0  0  0  0  0  0  0
   -6.7210   20.3803  -30.5566 H   0  0  0  0  0  0  0  0  0  0  0  0
   -6.7218   21.0360  -32.2347 H   0  0  0  0  0  0  0  0  0  0  0  0
   -5.3103   22.1578  -29.7686 H   0  0  0  0  0  0  0  0  0  0  0  0
   -4.5890   21.5607  -31.3306 H   0  0  0  0  0  0  0  0  0  0  0  0
  1  2  1  0
  2  3  1  0
  3  4  2  0
  3  5  2  0
  3  6  1  0
  6  7  1  0
  7  8  1  0
  8  9  1  0
  9 10  1  0
 10 11  1  0
 11 12  1  0
 12 13  2  0
 12 14  1  0
 14 15  2  0
 15 16  1  0
 16 17  2  0
 17 18  1  0
 18 19  1  0
 19 20  2  0
 20 21  1  0
 21 22  2  0
 22 23  1  0
 23 24  2  0
 17 25  1  0
 25 26  2  0
  9 27  1  0
 27 28  1  0
 28  6  1  0
 26 14  1  0
 24 19  1  0
  1 29  1  0
  1 30  1  0
  1 31  1  0
  2 32  1  0
  2 33  1  0
  7 34  1  0
  7 35  1  0
  8 36  1  0
  8 37  1  0
  9 38  1  0
 10 39  1  0
 10 40  1  0
 11 41  1  0
 11 42  1  0
 15 43  1  0
 16 44  1  0
 18 45  1  0
 18 46  1  0
 20 47  1  0
 21 48  1  0
 22 49  1  0
 23 50  1  0
 24 51  1  0
 25 52  1  0
 26 53  1  0
 27 54  1  0
 27 55  1  0
 28 56  1  0
 28 57  1  0
M  CHG  1   9   1
M  END
>  <UniqueID>  (29) 
29

>  <SMILES>  (29) 
CCS(=O)(=O)N1CC[NH+](CCC(=O)c2ccc(Cc3ccccc3)cc2)CC1

>  <Energy>  (29) 
63.60203469795819

>  <Genealogy>  (29) 
CCS(=O)(=O)N1CC[NH+](CCC(=O)c2ccc(Cc3ccccc3)cc2)CC1 (protonated)
CCS(=O)(=O)N1CC[NH+](CCC(=O)c2ccc(Cc3ccccc3)cc2)CC1 (3D coordinates assigned)
CCS(=O)(=O)N1CC[NH+](CCC(=O)c2ccc(Cc3ccccc3)cc2)CC1 (nonaromatic ring conformer: 63.60203469795819 kcal/mol)

>  <smiles>  (29) 
CCS(=O)(=O)N1CCN(CCC(=O)c2ccc(Cc3ccccc3)cc2)CC1

>  <score_type>  (29) 
oracle

>  <origin>  (29) 
adg

>  <m_score__min__energy>  (29) 
-9.4399999999999995

>  <m_primary>  (29) 
energy

$$$$
29:0
     RDKit          3D

 46 47  0  0  0  0  0  0  0  0999 V2000
   -4.0140   21.4000  -33.0700 C   0  0  0  0  0  0  0  0  0  0  0  0
   -4.8980   20.4510  -32.4840 O   0  0  0  0  0  0  0  0  0  0  0  0
   -5.2640   19.2300  -33.0750 C   0  0  0  0  0  0  0  0  0  0  0  0
   -4.4320   18.5800  -34.0100 C   0  0  0  0  0  0  0  0  0  0  0  0
   -4.8300   17.3740  -34.5930 C   0  0  0  0  0  0  0  0  0  0  0  0
   -6.0580   16.8050  -34.2560 C   0  0  0  0  0  0  0  0  0  0  0  0
   -6.8920   17.4370  -33.3310 C   0  0  0  0  0  0  0  0  0  0  0  0
   -6.4990   18.6420  -32.7250 C   0  0  0  0  0  0  0  0  0  0  0  0
   -7.4310   19.3200  -31.7520 C   0  0  0  0  0  0  0  0  0  0  0  0
   -8.5710   20.0250  -32.4980 C   0  0  0  0  0  0  0  0  0  0  0  0
   -8.6070   21.4620  -32.1520 N   0  0  0  0  0  0  0  0  0  0  0  0
   -9.2580   21.6580  -30.8450 C   0  0  0  0  0  0  0  0  0  0  0  0
   -7.2580   22.0810  -32.1690 C   0  0  0  0  0  0  0  0  0  0  0  0
   -7.3390   23.5140  -31.6370 C   0  0  0  0  0  0  0  0  0  0  0  0
   -6.8430   23.5790  -30.2430 N   0  0  0  0  0  0  0  0  0  0  0  0
   -5.5870   22.8150  -30.0500 C   0  0  0  0  0  0  0  0  0  0  0  0
   -4.3300   23.6910  -30.2370 C   0  0  0  0  0  0  0  0  0  0  0  0
   -4.6060   24.7810  -31.0900 O   0  0  0  0  0  0  0  0  0  0  0  0
   -5.5010   25.6790  -30.4580 C   0  0  0  0  0  0  0  0  0  0  0  0
   -6.6920   24.9690  -29.7710 C   0  0  0  0  0  0  0  0  0  0  0  0
   -3.4952   21.9570  -32.2759 H   0  0  0  0  0  0  0  0  0  0  0  0
   -3.2746   20.8761  -33.6935 H   0  0  0  0  0  0  0  0  0  0  0  0
   -4.5890   22.1004  -33.6935 H   0  0  0  0  0  0  0  0  0  0  0  0
   -3.4636   19.0252  -34.2821 H   0  0  0  0  0  0  0  0  0  0  0  0
   -4.1735   16.8724  -35.3192 H   0  0  0  0  0  0  0  0  0  0  0  0
   -6.3700   15.8574  -34.7193 H   0  0  0  0  0  0  0  0  0  0  0  0
   -7.8632   16.9882  -33.0752 H   0  0  0  0  0  0  0  0  0  0  0  0
   -7.8554   18.5660  -31.0727 H   0  0  0  0  0  0  0  0  0  0  0  0
   -6.8635   20.0699  -31.1814 H   0  0  0  0  0  0  0  0  0  0  0  0
   -8.4152   19.9176  -33.5816 H   0  0  0  0  0  0  0  0  0  0  0  0
   -9.5259   19.5648  -32.2042 H   0  0  0  0  0  0  0  0  0  0  0  0
   -8.5390   21.4415  -30.0411 H   0  0  0  0  0  0  0  0  0  0  0  0
   -9.6016   22.6994  -30.7590 H   0  0  0  0  0  0  0  0  0  0  0  0
  -10.1195   20.9794  -30.7590 H   0  0  0  0  0  0  0  0  0  0  0  0
   -6.5785   21.4935  -31.5341 H   0  0  0  0  0  0  0  0  0  0  0  0
   -6.8787   22.0975  -33.2014 H   0  0  0  0  0  0  0  0  0  0  0  0
   -6.7247   24.1706  -32.2707 H   0  0  0  0  0  0  0  0  0  0  0  0
   -8.3889   23.8417  -31.6565 H   0  0  0  0  0  0  0  0  0  0  0  0
   -5.5794   22.3994  -29.0316 H   0  0  0  0  0  0  0  0  0  0  0  0
   -5.5579   22.0205  -30.8102 H   0  0  0  0  0  0  0  0  0  0  0  0
   -4.0058   24.0718  -29.2573 H   0  0  0  0  0  0  0  0  0  0  0  0
   -3.5357   23.0791  -30.6895 H   0  0  0  0  0  0  0  0  0  0  0  0
   -4.9466   26.2477  -29.6969 H   0  0  0  0  0  0  0  0  0  0  0  0
   -5.9161   26.3318  -31.2400 H   0  0  0  0  0  0  0  0  0  0  0  0
   -6.5233   24.9603  -28.6840 H   0  0  0  0  0  0  0  0  0  0  0  0
   -7.6110   25.5188  -30.0222 H   0  0  0  0  0  0  0  0  0  0  0  0
  1  2  1  0
  2  3  1  0
  3  4  2  0
  4  5  1  0
  5  6  2  0
  6  7  1  0
  7  8  2  0
  8  9  1  0
  9 10  1  0
 10 11  1  0
 11 12  1  0
 11 13  1  0
 13 14  1  0
 14 15  1  0
 15 16  1  0
 16 17  1  0
 17 18  1  0
 18 19  1  0
 19 20  1  0
  8  3  1  0
 20 15  1  0
  1 21  1  0
  1 22  1  0
  1 23  1  0
  4 24  1  0
  5 25  1  0
  6 26  1  0
  7 27  1  0
  9 28  1  0
  9 29  1  0
 10 30  1  0
 10 31  1  0
 12 32  1  0
 12 33  1  0
 12 34  1  0
 13 35  1  0
 13 36  1  0
 14 37  1  0
 14 38  1  0
 16 39  1  0
 16 40  1  0
 17 41  1  0
 17 42  1  0
 19 43  1  0
 19 44  1  0
 20 45  1  0
 20 46  1  0
M  END
>  <UniqueID>  (30) 
30

>  <SMILES>  (30) 
COc1ccccc1CCN(C)CCN1CCOCC1

>  <Energy>  (30) 
55.45073730948083

>  <Genealogy>  (30) 
COc1ccccc1CCN(C)CCN1CCOCC1 (3D coordinates assigned)
COc1ccccc1CCN(C)CCN1CCOCC1 (nonaromatic ring conformer: 55.45073730948083 kcal/mol)

>  <smiles>  (30) 
COc1ccccc1CCN(C)CCN1CCOCC1

>  <score_type>  (30) 
oracle

>  <origin>  (30) 
adg

>  <m_score__min__energy>  (30) 
-7.2999999999999998

>  <m_primary>  (30) 
energy

$$$$
30:0
     RDKit          3D

 16 16  0  0  0  0  0  0  0  0999 V2000
   -0.1240   23.7040  -28.4290 C   0  0  0  0  0  0  0  0  0  0  0  0
    0.2970   24.9420  -27.8640 O   0  0  0  0  0  0  0  0  0  0  0  0
    0.0180   25.3470  -26.5510 C   0  0  0  0  0  0  0  0  0  0  0  0
   -0.8390   26.4350  -26.3510 C   0  0  0  0  0  0  0  0  0  0  0  0
   -1.1370   26.8650  -25.0590 C   0  0  0  0  0  0  0  0  0  0  0  0
   -0.5720   26.2010  -23.9690 C   0  0  0  0  0  0  0  0  0  0  0  0
    0.2610   25.1430  -24.1710 N   0  0  0  0  0  0  0  0  0  0  0  0
    0.5660   24.7060  -25.4240 C   0  0  0  0  0  0  0  0  0  0  0  0
   -0.3648   22.9959  -27.6224 H   0  0  0  0  0  0  0  0  0  0  0  0
   -1.0165   23.8692  -29.0504 H   0  0  0  0  0  0  0  0  0  0  0  0
    0.6842   23.2909  -29.0504 H   0  0  0  0  0  0  0  0  0  0  0  0
   -1.2789   26.9526  -27.2162 H   0  0  0  0  0  0  0  0  0  0  0  0
   -1.8111   27.7196  -24.8999 H   0  0  0  0  0  0  0  0  0  0  0  0
   -0.8000   26.5329  -22.9453 H   0  0  0  0  0  0  0  0  0  0  0  0
    0.6750   24.6570  -23.3450 H   0  0  0  0  0  0  0  0  0  0  0  0
    1.2430   23.8491  -25.5560 H   0  0  0  0  0  0  0  0  0  0  0  0
  1  2  1  0
  2  3  1  0
  3  4  2  0
  4  5  1  0
  5  6  2  0
  6  7  1  0
  7  8  2  0
  8  3  1  0
  1  9  1  0
  1 10  1  0
  1 11  1  0
  4 12  1  0
  5 13  1  0
  6 14  1  0
  7 15  1  0
  8 16  1  0
M  CHG  1   7   1
M  END
>  <UniqueID>  (31) 
31

>  <SMILES>  (31) 
COc1ccc[nH+]c1

>  <Energy>  (31) 
13.655871232412856

>  <Genealogy>  (31) 
COc1ccc[nH+]c1 (protonated)
COc1ccc[nH+]c1 (3D coordinates assigned)
COc1ccc[nH+]c1 (optimized conformer: 13.655871232412856 kcal/mol)

>  <smiles>  (31) 
COc1cccnc1

>  <score_type>  (31) 
oracle

>  <origin>  (31) 
adg

>  <m_score__min__energy>  (31) 
-3.4500000000000002

>  <m_primary>  (31) 
energy

$$$$
31:0
     RDKit          3D

 45 46  0  0  0  0  0  0  0  0999 V2000
   -6.4940   17.4900  -31.1900 C   0  0  0  0  0  0  0  0  0  0  0  0
   -5.5060   16.8390  -32.1580 C   0  0  0  0  0  0  0  0  0  0  0  0
   -5.0400   17.7950  -33.2710 C   0  0  0  0  0  0  0  0  0  0  0  0
   -6.1200   18.1410  -34.3180 C   0  0  0  0  0  0  0  0  0  0  0  0
   -6.4130   19.5840  -34.4150 N   0  0  0  0  0  0  0  0  0  0  0  0
   -7.1600   20.0730  -33.2730 C   0  0  0  0  0  0  0  0  0  0  0  0
   -8.4790   19.6180  -33.0730 C   0  0  0  0  0  0  0  0  0  0  0  0
   -9.2220   20.0350  -31.9680 C   0  0  0  0  0  0  0  0  0  0  0  0
   -8.6670   20.9210  -31.0470 C   0  0  0  0  0  0  0  0  0  0  0  0
   -7.3700   21.3990  -31.2310 C   0  0  0  0  0  0  0  0  0  0  0  0
   -6.6030   20.9870  -32.3340 C   0  0  0  0  0  0  0  0  0  0  0  0
   -5.2550   21.5700  -32.5030 C   0  0  0  0  0  0  0  0  0  0  0  0
   -4.5500   21.1720  -33.4700 O   0  0  0  0  0  0  0  0  0  0  0  0
   -4.7240   22.6190  -31.5890 C   0  0  0  0  0  0  0  0  0  0  0  0
   -3.4840   22.4310  -30.9500 C   0  0  0  0  0  0  0  0  0  0  0  0
   -2.9750   23.3980  -30.0710 C   0  0  0  0  0  0  0  0  0  0  0  0
   -1.6660   23.1690  -29.3750 C   0  0  0  0  0  0  0  0  0  0  0  0
   -3.7280   24.5470  -29.7950 C   0  0  0  0  0  0  0  0  0  0  0  0
   -4.9730   24.7420  -30.4040 C   0  0  0  0  0  0  0  0  0  0  0  0
   -5.7600   25.9900  -30.1340 C   0  0  0  0  0  0  0  0  0  0  0  0
   -5.4570   23.7890  -31.3120 C   0  0  0  0  0  0  0  0  0  0  0  0
   -6.1826   17.2848  -30.1551 H   0  0  0  0  0  0  0  0  0  0  0  0
   -6.5110   18.5768  -31.3592 H   0  0  0  0  0  0  0  0  0  0  0  0
   -7.4993   17.0768  -31.3592 H   0  0  0  0  0  0  0  0  0  0  0  0
   -4.6251   16.5063  -31.5895 H   0  0  0  0  0  0  0  0  0  0  0  0
   -6.0233   15.9970  -32.6411 H   0  0  0  0  0  0  0  0  0  0  0  0
   -4.7062   18.7317  -32.8006 H   0  0  0  0  0  0  0  0  0  0  0  0
   -4.2377   17.2731  -33.8131 H   0  0  0  0  0  0  0  0  0  0  0  0
   -5.7748   17.7901  -35.3017 H   0  0  0  0  0  0  0  0  0  0  0  0
   -7.0484   17.6458  -33.9971 H   0  0  0  0  0  0  0  0  0  0  0  0
   -6.9980   19.7350  -35.2710 H   0  0  0  0  0  0  0  0  0  0  0  0
   -5.5320   20.1160  -34.5790 H   0  0  0  0  0  0  0  0  0  0  0  0
   -8.9290   18.9243  -33.7984 H   0  0  0  0  0  0  0  0  0  0  0  0
  -10.2474   19.6637  -31.8238 H   0  0  0  0  0  0  0  0  0  0  0  0
   -9.2527   21.2438  -30.1736 H   0  0  0  0  0  0  0  0  0  0  0  0
   -6.9427   22.1062  -30.5049 H   0  0  0  0  0  0  0  0  0  0  0  0
   -2.9071   21.5144  -31.1424 H   0  0  0  0  0  0  0  0  0  0  0  0
   -1.8200   23.1959  -28.2862 H   0  0  0  0  0  0  0  0  0  0  0  0
   -1.2638   22.1869  -29.6642 H   0  0  0  0  0  0  0  0  0  0  0  0
   -0.9543   23.9563  -29.6642 H   0  0  0  0  0  0  0  0  0  0  0  0
   -3.3381   25.3007  -29.0951 H   0  0  0  0  0  0  0  0  0  0  0  0
   -5.8528   26.1372  -29.0478 H   0  0  0  0  0  0  0  0  0  0  0  0
   -5.2425   26.8531  -30.5781 H   0  0  0  0  0  0  0  0  0  0  0  0
   -6.7619   25.8950  -30.5781 H   0  0  0  0  0  0  0  0  0  0  0  0
   -6.4211   23.9576  -31.8140 H   0  0  0  0  0  0  0  0  0  0  0  0
  1  2  1  0
  2  3  1  0
  3  4  1  0
  4  5  1  0
  5  6  1  0
  6  7  2  0
  7  8  1  0
  8  9  2  0
  9 10  1  0
 10 11  2  0
 11 12  1  0
 12 13  2  0
 12 14  1  0
 14 15  2  0
 15 16  1  0
 16 17  1  0
 16 18  2  0
 18 19  1  0
 19 20  1  0
 19 21  2  0
 11  6  1  0
 21 14  1  0
  1 22  1  0
  1 23  1  0
  1 24  1  0
  2 25  1  0
  2 26  1  0
  3 27  1  0
  3 28  1  0
  4 29  1  0
  4 30  1  0
  5 31  1  0
  5 32  1  0
  7 33  1  0
  8 34  1  0
  9 35  1  0
 10 36  1  0
 15 37  1  0
 17 38  1  0
 17 39  1  0
 17 40  1  0
 18 41  1  0
 20 42  1  0
 20 43  1  0
 20 44  1  0
 21 45  1  0
M  CHG  1   5   1
M  END
>  <UniqueID>  (32) 
32

>  <SMILES>  (32) 
CCCC[NH2+]c1ccccc1C(=O)c1cc(C)cc(C)c1

>  <Energy>  (32) 
48.30343751285419

>  <Genealogy>  (32) 
CCCC[NH2+]c1ccccc1C(=O)c1cc(C)cc(C)c1 (protonated)
CCCC[NH2+]c1ccccc1C(=O)c1cc(C)cc(C)c1 (3D coordinates assigned)
CCCC[NH2+]c1ccccc1C(=O)c1cc(C)cc(C)c1 (optimized conformer: 48.30343751285419 kcal/mol)

>  <smiles>  (32) 
CCCCNc1ccccc1C(=O)c1cc(C)cc(C)c1

>  <score_type>  (32) 
oracle

>  <origin>  (32) 
adg

>  <m_score__min__energy>  (32) 
-7.1100000000000003

>  <m_primary>  (32) 
energy

$$$$
32:0
     RDKit          3D

 31 32  0  0  0  0  0  0  0  0999 V2000
   -9.2330   21.1010  -31.8800 S   0  0  0  0  0  0  0  0  0  0  0  0
   -7.7130   20.6280  -32.2580 C   0  0  0  0  0  0  0  0  0  0  0  0
   -6.6100   21.1410  -31.4910 N   0  0  0  0  0  0  0  0  0  0  0  0
   -5.2340   21.2250  -31.9840 C   0  0  0  0  0  0  0  0  0  0  0  0
   -4.8580   22.6700  -32.3260 C   0  0  0  0  0  0  0  0  0  0  0  0
   -5.3770   23.6030  -31.2790 C   0  0  0  0  0  0  0  0  0  0  0  0
   -6.6980   24.0090  -31.1350 C   0  0  0  0  0  0  0  0  0  0  0  0
   -6.8760   24.9510  -30.1160 C   0  0  0  0  0  0  0  0  0  0  0  0
   -5.6980   25.2980  -29.4660 C   0  0  0  0  0  0  0  0  0  0  0  0
   -4.4340   24.4350  -30.1630 S   0  0  0  0  0  0  0  0  0  0  0  0
   -7.5070   19.8320  -33.4340 N   0  0  0  0  0  0  0  0  0  0  0  0
   -6.6400   18.6890  -33.4810 C   0  0  0  0  0  0  0  0  0  0  0  0
   -6.6190   17.7950  -32.4010 C   0  0  0  0  0  0  0  0  0  0  0  0
   -5.7840   16.6730  -32.4270 C   0  0  0  0  0  0  0  0  0  0  0  0
   -4.9530   16.4430  -33.5280 C   0  0  0  0  0  0  0  0  0  0  0  0
   -3.9070   15.0350  -33.5610 Cl  0  0  0  0  0  0  0  0  0  0  0  0
   -4.9530   17.3410  -34.6010 C   0  0  0  0  0  0  0  0  0  0  0  0
   -5.7880   18.4610  -34.5780 C   0  0  0  0  0  0  0  0  0  0  0  0
   -6.8120   21.5620  -30.5550 H   0  0  0  0  0  0  0  0  0  0  0  0
   -4.5507   20.8501  -31.2077 H   0  0  0  0  0  0  0  0  0  0  0  0
   -5.1524   20.6173  -32.8972 H   0  0  0  0  0  0  0  0  0  0  0  0
   -3.7627   22.7571  -32.3790 H   0  0  0  0  0  0  0  0  0  0  0  0
   -5.3045   22.9360  -33.2955 H   0  0  0  0  0  0  0  0  0  0  0  0
   -7.5203   23.6285  -31.7588 H   0  0  0  0  0  0  0  0  0  0  0  0
   -7.8559   25.3767  -29.8542 H   0  0  0  0  0  0  0  0  0  0  0  0
   -5.6076   26.0151  -28.6368 H   0  0  0  0  0  0  0  0  0  0  0  0
   -8.0690   20.0630  -34.2840 H   0  0  0  0  0  0  0  0  0  0  0  0
   -7.2630   17.9771  -31.5280 H   0  0  0  0  0  0  0  0  0  0  0  0
   -5.7810   15.9707  -31.5803 H   0  0  0  0  0  0  0  0  0  0  0  0
   -4.2944   17.1649  -35.4643 H   0  0  0  0  0  0  0  0  0  0  0  0
   -5.7795   19.1677  -35.4209 H   0  0  0  0  0  0  0  0  0  0  0  0
  1  2  2  0
  2  3  1  0
  3  4  1  0
  4  5  1  0
  5  6  1  0
  6  7  2  0
  7  8  1  0
  8  9  2  0
  9 10  1  0
  2 11  1  0
 11 12  1  0
 12 13  2  0
 13 14  1  0
 14 15  2  0
 15 16  1  0
 15 17  1  0
 17 18  2  0
 10  6  1  0
 18 12  1  0
  3 19  1  0
  4 20  1  0
  4 21  1  0
  5 22  1  0
  5 23  1  0
  7 24  1  0
  8 25  1  0
  9 26  1  0
 11 27  1  0
 13 28  1  0
 14 29  1  0
 17 30  1  0
 18 31  1  0
M  END
>  <UniqueID>  (33) 
33

>  <SMILES>  (33) 
S=C(NCCc1cccs1)Nc1ccc(Cl)cc1

>  <Energy>  (33) 
56.22175555497527

>  <Genealogy>  (33) 
S=C(NCCc1cccs1)Nc1ccc(Cl)cc1 (3D coordinates assigned)
S=C(NCCc1cccs1)Nc1ccc(Cl)cc1 (optimized conformer: 56.22175555497527 kcal/mol)

>  <smiles>  (33) 
S=C(NCCc1cccs1)Nc1ccc(Cl)cc1

>  <score_type>  (33) 
oracle

>  <origin>  (33) 
adg

>  <m_score__min__energy>  (33) 
-7.2300000000000004

>  <m_primary>  (33) 
energy

$$$$
33:0
     RDKit          3D

 45 47  0  0  0  0  0  0  0  0999 V2000
   -3.1490   15.8540  -35.4870 C   0  0  0  0  0  0  0  0  0  0  0  0
   -4.4230   16.4550  -35.0550 N   0  0  0  0  0  0  0  0  0  0  0  0
   -5.1480   15.5200  -34.1650 C   0  0  0  0  0  0  0  0  0  0  0  0
   -6.5490   16.0230  -33.7780 C   0  0  0  0  0  0  0  0  0  0  0  0
   -6.5820   17.0970  -32.6690 C   0  0  0  0  0  0  0  0  0  0  0  0
   -6.2650   18.4460  -33.1680 N   0  0  0  0  0  0  0  0  0  0  0  0
   -6.7890   19.5930  -32.4800 C   0  0  0  0  0  0  0  0  0  0  0  0
   -5.9640   20.6990  -32.2280 C   0  0  0  0  0  0  0  0  0  0  0  0
   -6.4620   21.8240  -31.5500 C   0  0  0  0  0  0  0  0  0  0  0  0
   -5.6100   22.9530  -31.2910 N   0  0  0  0  0  0  0  0  0  0  0  0
   -6.1560   24.3120  -31.3320 C   0  0  0  0  0  0  0  0  0  0  0  0
   -5.3210   25.2280  -30.4330 C   0  0  0  0  0  0  0  0  0  0  0  0
   -3.9460   25.1370  -30.7600 O   0  0  0  0  0  0  0  0  0  0  0  0
   -3.4710   23.8310  -30.4860 C   0  0  0  0  0  0  0  0  0  0  0  0
   -4.1560   22.8020  -31.3900 C   0  0  0  0  0  0  0  0  0  0  0  0
   -7.8040   21.8400  -31.1360 C   0  0  0  0  0  0  0  0  0  0  0  0
   -8.3210   22.9310  -30.5190 F   0  0  0  0  0  0  0  0  0  0  0  0
   -8.6300   20.7410  -31.3890 C   0  0  0  0  0  0  0  0  0  0  0  0
   -8.1280   19.6200  -32.0560 C   0  0  0  0  0  0  0  0  0  0  0  0
   -8.9510   18.5720  -32.3130 F   0  0  0  0  0  0  0  0  0  0  0  0
   -5.4990   18.6690  -34.4090 C   0  0  0  0  0  0  0  0  0  0  0  0
   -4.2150   17.8170  -34.5020 C   0  0  0  0  0  0  0  0  0  0  0  0
   -2.5569   15.5747  -34.6030 H   0  0  0  0  0  0  0  0  0  0  0  0
   -3.3527   14.9570  -36.0903 H   0  0  0  0  0  0  0  0  0  0  0  0
   -2.5863   16.5816  -36.0903 H   0  0  0  0  0  0  0  0  0  0  0  0
   -5.2525   14.5544  -34.6815 H   0  0  0  0  0  0  0  0  0  0  0  0
   -4.5635   15.4285  -33.2376 H   0  0  0  0  0  0  0  0  0  0  0  0
   -7.0175   16.4489  -34.6775 H   0  0  0  0  0  0  0  0  0  0  0  0
   -7.0838   15.1513  -33.3729 H   0  0  0  0  0  0  0  0  0  0  0  0
   -7.5890   17.1140  -32.2267 H   0  0  0  0  0  0  0  0  0  0  0  0
   -5.8140   16.8302  -31.9281 H   0  0  0  0  0  0  0  0  0  0  0  0
   -4.9168   20.6853  -32.5646 H   0  0  0  0  0  0  0  0  0  0  0  0
   -6.1265   24.6874  -32.3655 H   0  0  0  0  0  0  0  0  0  0  0  0
   -7.1963   24.2988  -30.9748 H   0  0  0  0  0  0  0  0  0  0  0  0
   -5.6555   26.2673  -30.5672 H   0  0  0  0  0  0  0  0  0  0  0  0
   -5.4561   24.9140  -29.3875 H   0  0  0  0  0  0  0  0  0  0  0  0
   -2.3854   23.7982  -30.6604 H   0  0  0  0  0  0  0  0  0  0  0  0
   -3.6982   23.5860  -29.4380 H   0  0  0  0  0  0  0  0  0  0  0  0
   -3.8412   22.9625  -32.4317 H   0  0  0  0  0  0  0  0  0  0  0  0
   -3.8710   21.7883  -31.0717 H   0  0  0  0  0  0  0  0  0  0  0  0
   -9.6800   20.7585  -31.0616 H   0  0  0  0  0  0  0  0  0  0  0  0
   -6.1437   18.4216  -35.2652 H   0  0  0  0  0  0  0  0  0  0  0  0
   -5.1879   19.7241  -34.4119 H   0  0  0  0  0  0  0  0  0  0  0  0
   -3.4976   18.3448  -35.1475 H   0  0  0  0  0  0  0  0  0  0  0  0
   -3.8492   17.6861  -33.4729 H   0  0  0  0  0  0  0  0  0  0  0  0
  1  2  1  0
  2  3  1  0
  3  4  1  0
  4  5  1  0
  5  6  1  0
  6  7  1  0
  7  8  2  0
  8  9  1  0
  9 10  1  0
 10 11  1  0
 11 12  1  0
 12 13  1  0
 13 14  1  0
 14 15  1  0
  9 16  2  0
 16 17  1  0
 16 18  1  0
 18 19  2  0
 19 20  1  0
  6 21  1  0
 21 22  1  0
 22  2  1  0
 19  7  1  0
 15 10  1  0
  1 23  1  0
  1 24  1  0
  1 25  1  0
  3 26  1  0
  3 27  1  0
  4 28  1  0
  4 29  1  0
  5 30  1  0
  5 31  1  0
  8 32  1  0
 11 33  1  0
 11 34  1  0
 12 35  1  0
 12 36  1  0
 14 37  1  0
 14 38  1  0
 15 39  1  0
 15 40  1  0
 18 41  1  0
 21 42  1  0
 21 43  1  0
 22 44  1  0
 22 45  1  0
M  END
>  <UniqueID>  (34) 
34

>  <SMILES>  (34) 
CN1CCCN(c2cc(N3CCOCC3)c(F)cc2F)CC1

>  <Energy>  (34) 
66.94385354654281

>  <Genealogy>  (34) 
CN1CCCN(c2cc(N3CCOCC3)c(F)cc2F)CC1 (3D coordinates assigned)
CN1CCCN(c2cc(N3CCOCC3)c(F)cc2F)CC1 (nonaromatic ring conformer: 66.94385354654281 kcal/mol)

>  <smiles>  (34) 
CN1CCCN(c2cc(N3CCOCC3)c(F)cc2F)CC1

>  <score_type>  (34) 
oracle

>  <origin>  (34) 
adg

>  <m_score__min__energy>  (34) 
-5.8200000000000003

>  <m_primary>  (34) 
energy

$$$$
34:0
     RDKit          3D

 47 49  0  0  0  0  0  0  0  0999 V2000
   -7.9160   23.4130  -31.9960 C   0  0  0  0  0  0  0  0  0  0  0  0
   -9.0010   22.3430  -31.9150 C   0  0  0  0  0  0  0  0  0  0  0  0
   -8.5630   21.1330  -31.0770 C   0  0  0  0  0  0  0  0  0  0  0  0
   -7.5890   20.3060  -31.8000 N   0  0  0  0  0  0  0  0  0  0  0  0
   -6.3620   20.7980  -31.9790 N   0  0  0  0  0  0  0  0  0  0  0  0
   -5.3730   20.1150  -32.6120 C   0  0  0  0  0  0  0  0  0  0  0  0
   -4.0230   20.7820  -32.7260 C   0  0  0  0  0  0  0  0  0  0  0  0
   -3.7490   21.6770  -31.5430 C   0  0  0  0  0  0  0  0  0  0  0  0
   -3.1470   21.1600  -30.3850 C   0  0  0  0  0  0  0  0  0  0  0  0
   -2.8730   21.9860  -29.2910 C   0  0  0  0  0  0  0  0  0  0  0  0
   -2.2790   21.4110  -28.1570 O   0  0  0  0  0  0  0  0  0  0  0  0
   -2.7510   20.2320  -27.5130 C   0  0  0  0  0  0  0  0  0  0  0  0
   -3.1950   23.3540  -29.3620 C   0  0  0  0  0  0  0  0  0  0  0  0
   -3.7810   23.8910  -30.5130 C   0  0  0  0  0  0  0  0  0  0  0  0
   -4.0710   25.2630  -30.5310 O   0  0  0  0  0  0  0  0  0  0  0  0
   -5.3820   25.8120  -30.4530 C   0  0  0  0  0  0  0  0  0  0  0  0
   -4.0550   23.0470  -31.6050 C   0  0  0  0  0  0  0  0  0  0  0  0
   -5.6420   18.8150  -33.0960 C   0  0  0  0  0  0  0  0  0  0  0  0
   -4.6690   18.0370  -33.7590 C   0  0  0  0  0  0  0  0  0  0  0  0
   -4.9790   16.7540  -34.2170 C   0  0  0  0  0  0  0  0  0  0  0  0
   -6.2560   16.2300  -34.0260 C   0  0  0  0  0  0  0  0  0  0  0  0
   -7.2340   16.9850  -33.3760 C   0  0  0  0  0  0  0  0  0  0  0  0
   -6.9390   18.2800  -32.9070 C   0  0  0  0  0  0  0  0  0  0  0  0
   -7.9100   19.0530  -32.2480 C   0  0  0  0  0  0  0  0  0  0  0  0
   -9.0740   18.5950  -32.0720 O   0  0  0  0  0  0  0  0  0  0  0  0
   -7.6161   23.7087  -30.9798 H   0  0  0  0  0  0  0  0  0  0  0  0
   -7.0442   23.0113  -32.5333 H   0  0  0  0  0  0  0  0  0  0  0  0
   -8.3055   24.2903  -32.5333 H   0  0  0  0  0  0  0  0  0  0  0  0
   -9.8993   22.7836  -31.4579 H   0  0  0  0  0  0  0  0  0  0  0  0
   -9.2031   21.9899  -32.9370 H   0  0  0  0  0  0  0  0  0  0  0  0
   -8.1053   21.4911  -30.1430 H   0  0  0  0  0  0  0  0  0  0  0  0
   -9.4504   20.5183  -30.8657 H   0  0  0  0  0  0  0  0  0  0  0  0
   -3.2441   20.0069  -32.7763 H   0  0  0  0  0  0  0  0  0  0  0  0
   -4.0183   21.4001  -33.6359 H   0  0  0  0  0  0  0  0  0  0  0  0
   -2.8878   20.0920  -30.3379 H   0  0  0  0  0  0  0  0  0  0  0  0
   -2.6982   20.3639  -26.4222 H   0  0  0  0  0  0  0  0  0  0  0  0
   -3.7935   20.0445  -27.8096 H   0  0  0  0  0  0  0  0  0  0  0  0
   -2.1259   19.3769  -27.8096 H   0  0  0  0  0  0  0  0  0  0  0  0
   -2.9836   24.0080  -28.5032 H   0  0  0  0  0  0  0  0  0  0  0  0
   -5.6673   25.9315  -29.3974 H   0  0  0  0  0  0  0  0  0  0  0  0
   -5.3990   26.7928  -30.9507 H   0  0  0  0  0  0  0  0  0  0  0  0
   -6.0928   25.1360  -30.9507 H   0  0  0  0  0  0  0  0  0  0  0  0
   -4.5125   23.4631  -32.5147 H   0  0  0  0  0  0  0  0  0  0  0  0
   -3.6591   18.4437  -33.9163 H   0  0  0  0  0  0  0  0  0  0  0  0
   -4.2122   16.1553  -34.7303 H   0  0  0  0  0  0  0  0  0  0  0  0
   -6.4940   15.2190  -34.3883 H   0  0  0  0  0  0  0  0  0  0  0  0
   -8.2405   16.5662  -33.2293 H   0  0  0  0  0  0  0  0  0  0  0  0
  1  2  1  0
  2  3  1  0
  3  4  1  0
  4  5  1  0
  5  6  2  0
  6  7  1  0
  7  8  1  0
  8  9  2  0
  9 10  1  0
 10 11  1  0
 11 12  1  0
 10 13  2  0
 13 14  1  0
 14 15  1  0
 15 16  1  0
 14 17  2  0
  6 18  1  0
 18 19  2  0
 19 20  1  0
 20 21  2  0
 21 22  1  0
 22 23  2  0
 23 24  1  0
 24 25  2  0
 24  4  1  0
 17  8  1  0
 23 18  1  0
  1 26  1  0
  1 27  1  0
  1 28  1  0
  2 29  1  0
  2 30  1  0
  3 31  1  0
  3 32  1  0
  7 33  1  0
  7 34  1  0
  9 35  1  0
 12 36  1  0
 12 37  1  0
 12 38  1  0
 13 39  1  0
 16 40  1  0
 16 41  1  0
 16 42  1  0
 17 43  1  0
 19 44  1  0
 20 45  1  0
 21 46  1  0
 22 47  1  0
M  END
>  <UniqueID>  (35) 
35

>  <SMILES>  (35) 
CCCn1nc(Cc2cc(OC)cc(OC)c2)c2ccccc2c1=O

>  <Energy>  (35) 
48.44778874551505

>  <Genealogy>  (35) 
CCCn1nc(Cc2cc(OC)cc(OC)c2)c2ccccc2c1=O (3D coordinates assigned)
CCCn1nc(Cc2cc(OC)cc(OC)c2)c2ccccc2c1=O (optimized conformer: 48.44778874551505 kcal/mol)

>  <smiles>  (35) 
CCCn1nc(Cc2cc(OC)cc(OC)c2)c2ccccc2c1=O

>  <score_type>  (35) 
oracle

>  <origin>  (35) 
adg

>  <m_score__min__energy>  (35) 
-8.6199999999999992

>  <m_primary>  (35) 
energy

$$$$
35:0
     RDKit          3D

 35 37  0  0  0  0  0  0  0  0999 V2000
   -9.3460   22.4700  -31.9450 C   0  0  0  0  0  0  0  0  0  0  0  0
   -8.3110   23.3810  -32.2980 O   0  0  0  0  0  0  0  0  0  0  0  0
   -7.1570   23.6070  -31.5320 C   0  0  0  0  0  0  0  0  0  0  0  0
   -7.0960   24.6030  -30.5420 C   0  0  0  0  0  0  0  0  0  0  0  0
   -5.9270   24.7900  -29.8040 C   0  0  0  0  0  0  0  0  0  0  0  0
   -4.8050   23.9920  -30.0440 C   0  0  0  0  0  0  0  0  0  0  0  0
   -3.6790   24.1950  -29.3150 N   0  0  0  0  0  0  0  0  0  0  0  0
   -2.5500   23.4630  -29.4990 C   0  0  0  0  0  0  0  0  0  0  0  0
   -1.3670   23.7350  -28.6500 C   0  0  0  0  0  0  0  0  0  0  0  0
   -0.6970   22.6570  -28.0450 C   0  0  0  0  0  0  0  0  0  0  0  0
    0.4250   22.8780  -27.2440 C   0  0  0  0  0  0  0  0  0  0  0  0
    0.8880   24.1760  -27.0290 C   0  0  0  0  0  0  0  0  0  0  0  0
    0.2220   25.2590  -27.6090 C   0  0  0  0  0  0  0  0  0  0  0  0
   -0.9100   25.0500  -28.4100 C   0  0  0  0  0  0  0  0  0  0  0  0
   -1.5910   26.1450  -28.9420 O   0  0  0  0  0  0  0  0  0  0  0  0
   -2.5430   22.4380  -30.4550 C   0  0  0  0  0  0  0  0  0  0  0  0
   -3.6830   22.1860  -31.2430 C   0  0  0  0  0  0  0  0  0  0  0  0
   -3.6480   21.0750  -32.2780 C   0  0  0  0  0  0  0  0  0  0  0  0
   -4.4590   20.0310  -31.8680 F   0  0  0  0  0  0  0  0  0  0  0  0
   -2.3520   20.6190  -32.4300 F   0  0  0  0  0  0  0  0  0  0  0  0
   -4.0990   21.5040  -33.5150 F   0  0  0  0  0  0  0  0  0  0  0  0
   -4.8420   22.9820  -31.0360 C   0  0  0  0  0  0  0  0  0  0  0  0
   -6.0340   22.8050  -31.7720 C   0  0  0  0  0  0  0  0  0  0  0  0
   -9.4196   22.4053  -30.8494 H   0  0  0  0  0  0  0  0  0  0  0  0
  -10.3026   22.8245  -32.3564 H   0  0  0  0  0  0  0  0  0  0  0  0
   -9.1158   21.4761  -32.3564 H   0  0  0  0  0  0  0  0  0  0  0  0
   -7.9735   25.2375  -30.3484 H   0  0  0  0  0  0  0  0  0  0  0  0
   -5.8881   25.5697  -29.0290 H   0  0  0  0  0  0  0  0  0  0  0  0
   -1.0599   21.6308  -28.2041 H   0  0  0  0  0  0  0  0  0  0  0  0
    0.9451   22.0263  -26.7813 H   0  0  0  0  0  0  0  0  0  0  0  0
    1.7765   24.3470  -26.4035 H   0  0  0  0  0  0  0  0  0  0  0  0
    0.5880   26.2818  -27.4362 H   0  0  0  0  0  0  0  0  0  0  0  0
   -2.5190   26.0520  -29.3400 H   0  0  0  0  0  0  0  0  0  0  0  0
   -1.6397   21.8252  -30.5910 H   0  0  0  0  0  0  0  0  0  0  0  0
   -6.0814   22.0249  -32.5461 H   0  0  0  0  0  0  0  0  0  0  0  0
  1  2  1  0
  2  3  1  0
  3  4  2  0
  4  5  1  0
  5  6  2  0
  6  7  1  0
  7  8  2  0
  8  9  1  0
  9 10  2  0
 10 11  1  0
 11 12  2  0
 12 13  1  0
 13 14  2  0
 14 15  1  0
  8 16  1  0
 16 17  2  0
 17 18  1  0
 18 19  1  0
 18 20  1  0
 18 21  1  0
 17 22  1  0
 22 23  2  0
 23  3  1  0
 22  6  1  0
 14  9  1  0
  1 24  1  0
  1 25  1  0
  1 26  1  0
  4 27  1  0
  5 28  1  0
 10 29  1  0
 11 30  1  0
 12 31  1  0
 13 32  1  0
 15 33  1  0
 16 34  1  0
 23 35  1  0
M  END
>  <UniqueID>  (36) 
36

>  <SMILES>  (36) 
COc1ccc2nc(-c3ccccc3O)cc(C(F)(F)F)c2c1

>  <Energy>  (36) 
49.52385299157365

>  <Genealogy>  (36) 
COc1ccc2nc(-c3ccccc3O)cc(C(F)(F)F)c2c1 (3D coordinates assigned)
COc1ccc2nc(-c3ccccc3O)cc(C(F)(F)F)c2c1 (optimized conformer: 49.52385299157365 kcal/mol)

>  <smiles>  (36) 
COc1ccc2nc(-c3ccccc3O)cc(C(F)(F)F)c2c1

>  <score_type>  (36) 
oracle

>  <origin>  (36) 
adg

>  <m_score__min__energy>  (36) 
-7.1500000000000004

>  <m_primary>  (36) 
energy

$$$$
36:0
     RDKit          3D

 63 65  0  0  0  0  0  0  0  0999 V2000
    2.0540   17.9840  -32.2980 C   0  0  0  0  0  0  0  0  0  0  0  0
    1.3850   16.8810  -31.4740 C   0  0  0  0  0  0  0  0  0  0  0  0
   -0.1130   17.1450  -31.2410 C   0  0  0  0  0  0  0  0  0  0  0  0
   -0.3790   18.5660  -30.9220 N   0  0  0  0  0  0  0  0  0  0  0  0
   -1.0870   19.3610  -31.7950 C   0  0  0  0  0  0  0  0  0  0  0  0
   -1.7230   18.7640  -33.3750 S   0  0  0  0  0  0  0  0  0  0  0  0
   -2.5470   20.3280  -33.8680 C   0  0  0  0  0  0  0  0  0  0  0  0
   -3.8810   20.4790  -33.2020 C   0  0  0  0  0  0  0  0  0  0  0  0
   -4.0750   21.4360  -32.4000 O   0  0  0  0  0  0  0  0  0  0  0  0
   -4.9070   19.4980  -33.4250 N   0  0  0  0  0  0  0  0  0  0  0  0
   -6.2460   19.6140  -32.9060 C   0  0  0  0  0  0  0  0  0  0  0  0
   -6.7630   20.8970  -32.6570 C   0  0  0  0  0  0  0  0  0  0  0  0
   -8.0550   21.0630  -32.1250 C   0  0  0  0  0  0  0  0  0  0  0  0
   -8.6190   22.4370  -31.8800 C   0  0  0  0  0  0  0  0  0  0  0  0
   -8.8250   19.9320  -31.8260 C   0  0  0  0  0  0  0  0  0  0  0  0
   -8.3160   18.6510  -32.0500 C   0  0  0  0  0  0  0  0  0  0  0  0
   -7.0150   18.4740  -32.5590 C   0  0  0  0  0  0  0  0  0  0  0  0
   -6.4890   17.0690  -32.7290 C   0  0  0  0  0  0  0  0  0  0  0  0
   -1.3290   20.6600  -31.4910 N   0  0  0  0  0  0  0  0  0  0  0  0
   -0.8940   21.2210  -30.3420 C   0  0  0  0  0  0  0  0  0  0  0  0
   -1.1740   22.5640  -30.0760 C   0  0  0  0  0  0  0  0  0  0  0  0
   -0.6680   23.1800  -28.9160 C   0  0  0  0  0  0  0  0  0  0  0  0
   -0.8570   24.6310  -28.6970 C   0  0  0  0  0  0  0  0  0  0  0  0
    0.0750   25.3250  -28.2040 O   0  0  0  0  0  0  0  0  0  0  0  0
   -2.1110   25.2480  -29.0040 N   0  0  0  0  0  0  0  0  0  0  0  0
   -3.3850   24.5530  -28.8710 C   0  0  0  0  0  0  0  0  0  0  0  0
   -3.9280   24.2030  -30.2560 C   0  0  0  0  0  0  0  0  0  0  0  0
   -4.4160   25.3770  -30.8650 O   0  0  0  0  0  0  0  0  0  0  0  0
   -5.7510   25.6000  -30.4540 C   0  0  0  0  0  0  0  0  0  0  0  0
    0.0770   22.4100  -28.0050 C   0  0  0  0  0  0  0  0  0  0  0  0
    0.3240   21.0580  -28.2550 C   0  0  0  0  0  0  0  0  0  0  0  0
   -0.1580   20.4530  -29.4310 C   0  0  0  0  0  0  0  0  0  0  0  0
    0.0820   19.1020  -29.7400 C   0  0  0  0  0  0  0  0  0  0  0  0
    0.7270   18.3820  -28.9230 O   0  0  0  0  0  0  0  0  0  0  0  0
    2.5038   18.7255  -31.6214 H   0  0  0  0  0  0  0  0  0  0  0  0
    2.8374   17.5438  -32.9324 H   0  0  0  0  0  0  0  0  0  0  0  0
    1.3016   18.4753  -32.9324 H   0  0  0  0  0  0  0  0  0  0  0  0
    1.4959   15.9256  -32.0078 H   0  0  0  0  0  0  0  0  0  0  0  0
    1.8764   16.8544  -30.4902 H   0  0  0  0  0  0  0  0  0  0  0  0
   -0.6678   16.8749  -32.1516 H   0  0  0  0  0  0  0  0  0  0  0  0
   -0.4377   16.5363  -30.3843 H   0  0  0  0  0  0  0  0  0  0  0  0
   -1.9065   21.1752  -33.5817 H   0  0  0  0  0  0  0  0  0  0  0  0
   -2.7048   20.3070  -34.9564 H   0  0  0  0  0  0  0  0  0  0  0  0
   -4.6270   18.5830  -33.8460 H   0  0  0  0  0  0  0  0  0  0  0  0
   -6.1499   21.7825  -32.8808 H   0  0  0  0  0  0  0  0  0  0  0  0
   -8.6923   22.6155  -30.7971 H   0  0  0  0  0  0  0  0  0  0  0  0
   -7.9576   23.1908  -32.3320 H   0  0  0  0  0  0  0  0  0  0  0  0
   -9.6193   22.5087  -32.3320 H   0  0  0  0  0  0  0  0  0  0  0  0
   -9.8369   20.0535  -31.4122 H   0  0  0  0  0  0  0  0  0  0  0  0
   -8.9376   17.7714  -31.8266 H   0  0  0  0  0  0  0  0  0  0  0  0
   -6.3203   16.6184  -31.7398 H   0  0  0  0  0  0  0  0  0  0  0  0
   -7.2229   16.4676  -33.2855 H   0  0  0  0  0  0  0  0  0  0  0  0
   -5.5406   17.0974  -33.2855 H   0  0  0  0  0  0  0  0  0  0  0  0
   -1.7932   23.1429  -30.7770 H   0  0  0  0  0  0  0  0  0  0  0  0
   -3.2390   23.6295  -28.2914 H   0  0  0  0  0  0  0  0  0  0  0  0
   -4.1032   25.2050  -28.3523 H   0  0  0  0  0  0  0  0  0  0  0  0
   -3.1226   23.7752  -30.8711 H   0  0  0  0  0  0  0  0  0  0  0  0
   -4.7395   23.4663  -30.1630 H   0  0  0  0  0  0  0  0  0  0  0  0
   -5.7998   25.6082  -29.3551 H   0  0  0  0  0  0  0  0  0  0  0  0
   -6.0977   26.5685  -30.8436 H   0  0  0  0  0  0  0  0  0  0  0  0
   -6.3936   24.7968  -30.8436 H   0  0  0  0  0  0  0  0  0  0  0  0
    0.4682   22.8759  -27.0886 H   0  0  0  0  0  0  0  0  0  0  0  0
    0.8980   20.4632  -27.5292 H   0  0  0  0  0  0  0  0  0  0  0  0
  1  2  1  0
  2  3  1  0
  3  4  1  0
  4  5  1  0
  5  6  1  0
  6  7  1  0
  7  8  1  0
  8  9  2  0
  8 10  1  0
 10 11  1  0
 11 12  2  0
 12 13  1  0
 13 14  1  0
 13 15  2  0
 15 16  1  0
 16 17  2  0
 17 18  1  0
  5 19  2  0
 19 20  1  0
 20 21  2  0
 21 22  1  0
 22 23  1  0
 23 24  2  0
 23 25  1  0
 25 26  1  0
 26 27  1  0
 27 28  1  0
 28 29  1  0
 22 30  2  0
 30 31  1  0
 31 32  2  0
 32 33  1  0
 33 34  2  0
 33  4  1  0
 17 11  1  0
 32 20  1  0
  1 35  1  0
  1 36  1  0
  1 37  1  0
  2 38  1  0
  2 39  1  0
  3 40  1  0
  3 41  1  0
  7 42  1  0
  7 43  1  0
 10 44  1  0
 12 45  1  0
 14 46  1  0
 14 47  1  0
 14 48  1  0
 15 49  1  0
 16 50  1  0
 18 51  1  0
 18 52  1  0
 18 53  1  0
 21 54  1  0
 26 55  1  0
 26 56  1  0
 27 57  1  0
 27 58  1  0
 29 59  1  0
 29 60  1  0
 29 61  1  0
 30 62  1  0
 31 63  1  0
M  CHG  1  25  -1
M  END
>  <UniqueID>  (37) 
37

>  <SMILES>  (37) 
CCCn1c(SCC(=O)Nc2cc(C)ccc2C)nc2cc(C(=O)[N-]CCOC)ccc2c1=O

>  <Energy>  (37) 
64.5765064891417

>  <Genealogy>  (37) 
CCCn1c(SCC(=O)Nc2cc(C)ccc2C)nc2cc(C(=O)[N-]CCOC)ccc2c1=O (protonated)
CCCn1c(SCC(=O)Nc2cc(C)ccc2C)nc2cc(C(=O)[N-]CCOC)ccc2c1=O (3D coordinates assigned)
CCCn1c(SCC(=O)Nc2cc(C)ccc2C)nc2cc(C(=O)[N-]CCOC)ccc2c1=O (optimized conformer: 64.5765064891417 kcal/mol)

>  <smiles>  (37) 
CCCn1c(SCC(=O)Nc2cc(C)ccc2C)nc2cc(C(=O)NCCOC)ccc2c1=O

>  <score_type>  (37) 
oracle

>  <origin>  (37) 
adg

>  <m_score__min__energy>  (37) 
-11.73

>  <m_primary>  (37) 
energy

$$$$
37:0
     RDKit          3D

 55 59  0  0  0  0  0  0  0  0999 V2000
   -1.9760   24.8990  -28.1920 C   0  0  0  0  0  0  0  0  0  0  0  0
   -2.7360   25.2950  -29.3300 O   0  0  0  0  0  0  0  0  0  0  0  0
   -3.8280   24.5790  -29.8420 C   0  0  0  0  0  0  0  0  0  0  0  0
   -4.0760   23.2930  -29.3460 C   0  0  0  0  0  0  0  0  0  0  0  0
   -5.1430   22.5350  -29.8360 C   0  0  0  0  0  0  0  0  0  0  0  0
   -5.9640   23.0440  -30.8540 C   0  0  0  0  0  0  0  0  0  0  0  0
   -7.0820   22.2410  -31.3850 C   0  0  0  0  0  0  0  0  0  0  0  0
   -8.4090   22.6620  -31.2320 C   0  0  0  0  0  0  0  0  0  0  0  0
   -9.4520   21.4590  -31.7960 S   0  0  0  0  0  0  0  0  0  0  0  0
   -8.2260   20.4120  -32.2540 C   0  0  0  0  0  0  0  0  0  0  0  0
   -8.3800   19.1780  -32.7940 N   0  0  0  0  0  0  0  0  0  0  0  0
   -7.2710   18.4530  -33.1080 C   0  0  0  0  0  0  0  0  0  0  0  0
   -6.0270   18.9790  -32.9100 N   0  0  0  0  0  0  0  0  0  0  0  0
   -5.8410   20.2230  -32.3750 C   0  0  0  0  0  0  0  0  0  0  0  0
   -4.5070   20.7500  -32.2940 N   0  0  0  0  0  0  0  0  0  0  0  0
   -3.9070   21.4180  -33.4550 C   0  0  0  0  0  0  0  0  0  0  0  0
   -2.6150   20.6870  -33.8380 C   0  0  0  0  0  0  0  0  0  0  0  0
   -1.6410   20.5900  -32.7080 N   0  0  0  0  0  0  0  0  0  0  0  0
   -0.9130   19.2970  -32.7220 C   0  0  0  0  0  0  0  0  0  0  0  0
   -1.7170   18.2390  -33.4350 C   0  0  0  0  0  0  0  0  0  0  0  0
   -1.2470   17.6950  -34.6460 C   0  0  0  0  0  0  0  0  0  0  0  0
   -1.9940   16.7190  -35.3210 C   0  0  0  0  0  0  0  0  0  0  0  0
   -3.2170   16.2890  -34.7950 C   0  0  0  0  0  0  0  0  0  0  0  0
   -3.6940   16.8300  -33.5940 C   0  0  0  0  0  0  0  0  0  0  0  0
   -2.9490   17.8030  -32.9160 C   0  0  0  0  0  0  0  0  0  0  0  0
   -2.2210   20.8750  -31.3710 C   0  0  0  0  0  0  0  0  0  0  0  0
   -3.6300   20.2900  -31.2110 C   0  0  0  0  0  0  0  0  0  0  0  0
   -6.9810   20.9680  -31.9980 C   0  0  0  0  0  0  0  0  0  0  0  0
   -5.7420   24.3450  -31.3280 C   0  0  0  0  0  0  0  0  0  0  0  0
   -4.6770   25.1070  -30.8340 C   0  0  0  0  0  0  0  0  0  0  0  0
   -2.5151   25.1799  -27.2752 H   0  0  0  0  0  0  0  0  0  0  0  0
   -1.8281   23.8092  -28.2110 H   0  0  0  0  0  0  0  0  0  0  0  0
   -0.9980   25.4022  -28.2110 H   0  0  0  0  0  0  0  0  0  0  0  0
   -3.4250   22.8757  -28.5636 H   0  0  0  0  0  0  0  0  0  0  0  0
   -5.3401   21.5351  -29.4220 H   0  0  0  0  0  0  0  0  0  0  0  0
   -8.7236   23.6277  -30.8095 H   0  0  0  0  0  0  0  0  0  0  0  0
   -9.3340   18.7840  -32.9620 H   0  0  0  0  0  0  0  0  0  0  0  0
   -7.3779   17.4398  -33.5227 H   0  0  0  0  0  0  0  0  0  0  0  0
   -4.6104   21.3913  -34.3003 H   0  0  0  0  0  0  0  0  0  0  0  0
   -3.6818   22.4655  -33.2061 H   0  0  0  0  0  0  0  0  0  0  0  0
   -2.8725   19.6694  -34.1670 H   0  0  0  0  0  0  0  0  0  0  0  0
   -2.1333   21.2681  -34.6382 H   0  0  0  0  0  0  0  0  0  0  0  0
    0.0484   19.4297  -33.2398 H   0  0  0  0  0  0  0  0  0  0  0  0
   -0.7466   18.9742  -31.6837 H   0  0  0  0  0  0  0  0  0  0  0  0
   -0.2891   18.0375  -35.0645 H   0  0  0  0  0  0  0  0  0  0  0  0
   -1.6189   16.2920  -36.2628 H   0  0  0  0  0  0  0  0  0  0  0  0
   -3.8048   15.5251  -35.3251 H   0  0  0  0  0  0  0  0  0  0  0  0
   -4.6558   16.4898  -33.1826 H   0  0  0  0  0  0  0  0  0  0  0  0
   -3.3287   18.2273  -31.9748 H   0  0  0  0  0  0  0  0  0  0  0  0
   -1.5673   20.4386  -30.6015 H   0  0  0  0  0  0  0  0  0  0  0  0
   -2.2957   21.9671  -31.2624 H   0  0  0  0  0  0  0  0  0  0  0  0
   -3.5704   19.1919  -31.2360 H   0  0  0  0  0  0  0  0  0  0  0  0
   -4.0466   20.6270  -30.2503 H   0  0  0  0  0  0  0  0  0  0  0  0
   -6.4091   24.7693  -32.0929 H   0  0  0  0  0  0  0  0  0  0  0  0
   -4.5025   26.1215  -31.2218 H   0  0  0  0  0  0  0  0  0  0  0  0
  1  2  1  0
  2  3  1  0
  3  4  2  0
  4  5  1  0
  5  6  2  0
  6  7  1  0
  7  8  2  0
  8  9  1  0
  9 10  1  0
 10 11  2  0
 11 12  1  0
 12 13  2  0
 13 14  1  0
 14 15  1  0
 15 16  1  0
 16 17  1  0
 17 18  1  0
 18 19  1  0
 19 20  1  0
 20 21  2  0
 21 22  1  0
 22 23  2  0
 23 24  1  0
 24 25  2  0
 18 26  1  0
 26 27  1  0
 14 28  2  0
  6 29  1  0
 29 30  2  0
 30  3  1  0
 28  7  1  0
 28 10  1  0
 27 15  1  0
 25 20  1  0
  1 31  1  0
  1 32  1  0
  1 33  1  0
  4 34  1  0
  5 35  1  0
  8 36  1  0
 11 37  1  0
 12 38  1  0
 16 39  1  0
 16 40  1  0
 17 41  1  0
 17 42  1  0
 19 43  1  0
 19 44  1  0
 21 45  1  0
 22 46  1  0
 23 47  1  0
 24 48  1  0
 25 49  1  0
 26 50  1  0
 26 51  1  0
 27 52  1  0
 27 53  1  0
 29 54  1  0
 30 55  1  0
M  CHG  1  11   1
M  END
>  <UniqueID>  (38) 
38

>  <SMILES>  (38) 
COc1ccc(-c2csc3[nH+]cnc(N4CCN(Cc5ccccc5)CC4)c23)cc1

>  <Energy>  (38) 
111.18054414016186

>  <Genealogy>  (38) 
COc1ccc(-c2csc3[nH+]cnc(N4CCN(Cc5ccccc5)CC4)c23)cc1 (protonated)
COc1ccc(-c2csc3[nH+]cnc(N4CCN(Cc5ccccc5)CC4)c23)cc1 (3D coordinates assigned)
COc1ccc(-c2csc3[nH+]cnc(N4CCN(Cc5ccccc5)CC4)c23)cc1 (nonaromatic ring conformer: 111.18054414016186 kcal/mol)

>  <smiles>  (38) 
COc1ccc(-c2csc3ncnc(N4CCN(Cc5ccccc5)CC4)c23)cc1

>  <score_type>  (38) 
oracle

>  <origin>  (38) 
adg

>  <m_score__min__energy>  (38) 
-8.6400000000000006

>  <m_primary>  (38) 
energy

$$$$
38:0
     RDKit          3D

 38 41  0  0  0  0  0  0  0  0999 V2000
   -6.1100   18.1550  -34.5750 C   0  0  0  0  0  0  0  0  0  0  0  0
   -5.9290   19.3500  -33.6860 C   0  0  0  0  0  0  0  0  0  0  0  0
   -7.0260   19.9010  -33.0090 C   0  0  0  0  0  0  0  0  0  0  0  0
   -6.8510   20.9900  -32.1520 C   0  0  0  0  0  0  0  0  0  0  0  0
   -5.5730   21.5350  -31.9430 C   0  0  0  0  0  0  0  0  0  0  0  0
   -5.3930   22.6950  -31.0390 C   0  0  0  0  0  0  0  0  0  0  0  0
   -6.4070   23.6670  -30.8890 C   0  0  0  0  0  0  0  0  0  0  0  0
   -6.2250   24.7550  -30.0070 C   0  0  0  0  0  0  0  0  0  0  0  0
   -5.0670   24.8850  -29.2920 N   0  0  0  0  0  0  0  0  0  0  0  0
   -4.0820   23.9640  -29.4610 C   0  0  0  0  0  0  0  0  0  0  0  0
   -4.2300   22.8850  -30.2840 C   0  0  0  0  0  0  0  0  0  0  0  0
   -3.0980   22.1190  -30.0780 C   0  0  0  0  0  0  0  0  0  0  0  0
   -2.3140   22.7450  -29.1660 N   0  0  0  0  0  0  0  0  0  0  0  0
   -2.9120   23.8740  -28.7980 N   0  0  0  0  0  0  0  0  0  0  0  0
   -2.3550   24.7900  -27.8440 C   0  0  0  0  0  0  0  0  0  0  0  0
   -2.8980   24.8710  -26.5520 C   0  0  0  0  0  0  0  0  0  0  0  0
   -2.3470   25.7420  -25.6080 C   0  0  0  0  0  0  0  0  0  0  0  0
   -1.2410   26.5280  -25.9420 C   0  0  0  0  0  0  0  0  0  0  0  0
   -0.6790   26.4380  -27.2170 C   0  0  0  0  0  0  0  0  0  0  0  0
   -1.2290   25.5680  -28.1650 C   0  0  0  0  0  0  0  0  0  0  0  0
   -4.4750   20.9750  -32.6160 C   0  0  0  0  0  0  0  0  0  0  0  0
   -4.6490   19.8850  -33.4740 C   0  0  0  0  0  0  0  0  0  0  0  0
   -6.2463   17.2554  -33.9568 H   0  0  0  0  0  0  0  0  0  0  0  0
   -6.9962   18.3012  -35.2100 H   0  0  0  0  0  0  0  0  0  0  0  0
   -5.2202   18.0322  -35.2100 H   0  0  0  0  0  0  0  0  0  0  0  0
   -8.0293   19.4737  -33.1534 H   0  0  0  0  0  0  0  0  0  0  0  0
   -7.7204   21.4243  -31.6368 H   0  0  0  0  0  0  0  0  0  0  0  0
   -7.3420   23.5762  -31.4613 H   0  0  0  0  0  0  0  0  0  0  0  0
   -7.0222   25.5045  -29.8943 H   0  0  0  0  0  0  0  0  0  0  0  0
   -4.9700   25.6700  -28.6100 H   0  0  0  0  0  0  0  0  0  0  0  0
   -2.8713   21.1622  -30.5711 H   0  0  0  0  0  0  0  0  0  0  0  0
   -3.7616   24.2458  -26.2812 H   0  0  0  0  0  0  0  0  0  0  0  0
   -2.7845   25.8089  -24.6010 H   0  0  0  0  0  0  0  0  0  0  0  0
   -0.8129   27.2180  -25.2000 H   0  0  0  0  0  0  0  0  0  0  0  0
    0.1965   27.0513  -27.4764 H   0  0  0  0  0  0  0  0  0  0  0  0
   -0.7784   25.4926  -29.1656 H   0  0  0  0  0  0  0  0  0  0  0  0
   -3.4703   21.3972  -32.4669 H   0  0  0  0  0  0  0  0  0  0  0  0
   -3.7796   19.4452  -33.9847 H   0  0  0  0  0  0  0  0  0  0  0  0
  1  2  1  0
  2  3  2  0
  3  4  1  0
  4  5  2  0
  5  6  1  0
  6  7  2  0
  7  8  1  0
  8  9  2  0
  9 10  1  0
 10 11  2  0
 11 12  1  0
 12 13  2  0
 13 14  1  0
 14 15  1  0
 15 16  2  0
 16 17  1  0
 17 18  2  0
 18 19  1  0
 19 20  2  0
  5 21  1  0
 21 22  2  0
 22  2  1  0
 11  6  1  0
 20 15  1  0
 14 10  1  0
  1 23  1  0
  1 24  1  0
  1 25  1  0
  3 26  1  0
  4 27  1  0
  7 28  1  0
  8 29  1  0
  9 30  1  0
 12 31  1  0
 16 32  1  0
 17 33  1  0
 18 34  1  0
 19 35  1  0
 20 36  1  0
 21 37  1  0
 22 38  1  0
M  CHG  1   9   1
M  END
>  <UniqueID>  (39) 
39

>  <SMILES>  (39) 
Cc1ccc(-c2cc[nH+]c3c2cnn3-c2ccccc2)cc1

>  <Energy>  (39) 
93.13267229186249

>  <Genealogy>  (39) 
Cc1ccc(-c2cc[nH+]c3c2cnn3-c2ccccc2)cc1 (protonated)
Cc1ccc(-c2cc[nH+]c3c2cnn3-c2ccccc2)cc1 (3D coordinates assigned)
Cc1ccc(-c2cc[nH+]c3c2cnn3-c2ccccc2)cc1 (optimized conformer: 93.13267229186249 kcal/mol)

>  <smiles>  (39) 
Cc1ccc(-c2ccnc3c2cnn3-c2ccccc2)cc1

>  <score_type>  (39) 
oracle

>  <origin>  (39) 
adg

>  <m_score__min__energy>  (39) 
-7.5

>  <m_primary>  (39) 
energy

$$$$
39:0
     RDKit          3D

 40 42  0  0  0  0  0  0  0  0999 V2000
   -4.2090   24.1470  -27.7500 C   0  0  0  0  0  0  0  0  0  0  0  0
   -3.4290   23.1230  -28.5590 C   0  0  0  0  0  0  0  0  0  0  0  0
   -3.3680   23.5360  -29.9200 O   0  0  0  0  0  0  0  0  0  0  0  0
   -4.3990   24.2490  -30.5380 C   0  0  0  0  0  0  0  0  0  0  0  0
   -4.2450   25.4610  -30.8500 O   0  0  0  0  0  0  0  0  0  0  0  0
   -5.6690   23.5730  -30.8260 C   0  0  0  0  0  0  0  0  0  0  0  0
   -6.7490   24.1200  -31.4920 C   0  0  0  0  0  0  0  0  0  0  0  0
   -7.6990   23.1740  -31.5510 N   0  0  0  0  0  0  0  0  0  0  0  0
   -7.1790   22.0920  -30.9560 C   0  0  0  0  0  0  0  0  0  0  0  0
   -5.9320   22.2940  -30.4790 N   0  0  0  0  0  0  0  0  0  0  0  0
   -7.9430   20.8170  -30.8230 C   0  0  0  0  0  0  0  0  0  0  0  0
   -9.0140   20.7360  -31.8380 N   0  0  0  0  0  0  0  0  0  0  0  0
   -8.6520   20.0470  -33.0980 C   0  0  0  0  0  0  0  0  0  0  0  0
   -7.3740   19.2420  -33.0180 C   0  0  0  0  0  0  0  0  0  0  0  0
   -7.3540   17.9920  -32.3760 C   0  0  0  0  0  0  0  0  0  0  0  0
   -6.1670   17.2580  -32.2980 C   0  0  0  0  0  0  0  0  0  0  0  0
   -4.9960   17.7530  -32.8770 C   0  0  0  0  0  0  0  0  0  0  0  0
   -5.0130   18.9810  -33.5440 C   0  0  0  0  0  0  0  0  0  0  0  0
   -6.1990   19.7200  -33.6230 C   0  0  0  0  0  0  0  0  0  0  0  0
   -9.8260   21.9680  -31.9790 C   0  0  0  0  0  0  0  0  0  0  0  0
   -8.9890   23.2450  -32.2260 C   0  0  0  0  0  0  0  0  0  0  0  0
   -4.0627   23.9550  -26.6768 H   0  0  0  0  0  0  0  0  0  0  0  0
   -3.8498   25.1577  -27.9939 H   0  0  0  0  0  0  0  0  0  0  0  0
   -5.2788   24.0692  -27.9939 H   0  0  0  0  0  0  0  0  0  0  0  0
   -2.4090   23.0381  -28.1561 H   0  0  0  0  0  0  0  0  0  0  0  0
   -3.9323   22.1470  -28.4955 H   0  0  0  0  0  0  0  0  0  0  0  0
   -6.8173   25.1401  -31.8979 H   0  0  0  0  0  0  0  0  0  0  0  0
   -7.2550   19.9692  -30.9569 H   0  0  0  0  0  0  0  0  0  0  0  0
   -8.4023   20.7849  -29.8240 H   0  0  0  0  0  0  0  0  0  0  0  0
   -9.4727   19.3658  -33.3671 H   0  0  0  0  0  0  0  0  0  0  0  0
   -8.4856   20.8312  -33.8512 H   0  0  0  0  0  0  0  0  0  0  0  0
   -8.2768   17.5894  -31.9328 H   0  0  0  0  0  0  0  0  0  0  0  0
   -6.1549   16.2880  -31.7793 H   0  0  0  0  0  0  0  0  0  0  0  0
   -4.0615   17.1768  -32.8080 H   0  0  0  0  0  0  0  0  0  0  0  0
   -4.0932   19.3672  -34.0074 H   0  0  0  0  0  0  0  0  0  0  0  0
   -6.2115   20.6793  -34.1611 H   0  0  0  0  0  0  0  0  0  0  0  0
  -10.5132   21.8347  -32.8275 H   0  0  0  0  0  0  0  0  0  0  0  0
  -10.3554   22.1125  -31.0257 H   0  0  0  0  0  0  0  0  0  0  0  0
   -8.8214   23.3596  -33.3071 H   0  0  0  0  0  0  0  0  0  0  0  0
   -9.5434   24.1056  -31.8236 H   0  0  0  0  0  0  0  0  0  0  0  0
  1  2  1  0
  2  3  1  0
  3  4  1  0
  4  5  2  0
  4  6  1  0
  6  7  2  0
  7  8  1  0
  8  9  1  0
  9 10  2  0
  9 11  1  0
 11 12  1  0
 12 13  1  0
 13 14  1  0
 14 15  2  0
 15 16  1  0
 16 17  2  0
 17 18  1  0
 18 19  2  0
 12 20  1  0
 20 21  1  0
 10  6  1  0
 19 14  1  0
 21  8  1  0
  1 22  1  0
  1 23  1  0
  1 24  1  0
  2 25  1  0
  2 26  1  0
  7 27  1  0
 11 28  1  0
 11 29  1  0
 13 30  1  0
 13 31  1  0
 15 32  1  0
 16 33  1  0
 17 34  1  0
 18 35  1  0
 19 36  1  0
 20 37  1  0
 20 38  1  0
 21 39  1  0
 21 40  1  0
M  END
>  <UniqueID>  (40) 
40

>  <SMILES>  (40) 
CCOC(=O)c1cn2c(n1)CN(Cc1ccccc1)CC2

>  <Energy>  (40) 
73.48341007295112

>  <Genealogy>  (40) 
CCOC(=O)c1cn2c(n1)CN(Cc1ccccc1)CC2 (3D coordinates assigned)
CCOC(=O)c1cn2c(n1)CN(Cc1ccccc1)CC2 (nonaromatic ring conformer: 73.48341007295112 kcal/mol)

>  <smiles>  (40) 
CCOC(=O)c1cn2c(n1)CN(Cc1ccccc1)CC2

>  <score_type>  (40) 
oracle

>  <origin>  (40) 
adg

>  <m_score__min__energy>  (40) 
-7.6399999999999997

>  <m_primary>  (40) 
energy

$$$$
40:0
     RDKit          3D

 45 47  0  0  0  0  0  0  0  0999 V2000
   -6.5790   15.6210  -33.8480 N   0  0  0  0  0  0  0  0  0  0  0  0
   -6.8520   16.6840  -33.4760 C   0  0  0  0  0  0  0  0  0  0  0  0
   -7.1830   18.0100  -33.0130 C   0  0  0  0  0  0  0  0  0  0  0  0
   -8.2060   18.1690  -32.0660 C   0  0  0  0  0  0  0  0  0  0  0  0
   -8.5620   19.4510  -31.6340 C   0  0  0  0  0  0  0  0  0  0  0  0
   -7.8940   20.5790  -32.1410 C   0  0  0  0  0  0  0  0  0  0  0  0
   -6.8790   20.4280  -33.0890 C   0  0  0  0  0  0  0  0  0  0  0  0
   -6.5230   19.1400  -33.5430 C   0  0  0  0  0  0  0  0  0  0  0  0
   -5.5090   18.9530  -34.4920 O   0  0  0  0  0  0  0  0  0  0  0  0
   -4.2810   18.2720  -34.2230 C   0  0  0  0  0  0  0  0  0  0  0  0
   -3.7410   18.6970  -32.8480 C   0  0  0  0  0  0  0  0  0  0  0  0
   -2.5470   19.5780  -32.9500 N   0  0  0  0  0  0  0  0  0  0  0  0
   -2.7420   20.7610  -33.8130 C   0  0  0  0  0  0  0  0  0  0  0  0
   -3.7750   21.7540  -33.2590 C   0  0  0  0  0  0  0  0  0  0  0  0
   -3.7790   21.8940  -31.7840 N   0  0  0  0  0  0  0  0  0  0  0  0
   -4.6570   22.8960  -31.1670 C   0  0  0  0  0  0  0  0  0  0  0  0
   -4.2700   23.6050  -30.0000 C   0  0  0  0  0  0  0  0  0  0  0  0
   -5.1200   24.5540  -29.4110 C   0  0  0  0  0  0  0  0  0  0  0  0
   -6.3650   24.8310  -29.9730 C   0  0  0  0  0  0  0  0  0  0  0  0
   -7.1820   25.7560  -29.4010 F   0  0  0  0  0  0  0  0  0  0  0  0
   -6.7640   24.1600  -31.1290 C   0  0  0  0  0  0  0  0  0  0  0  0
   -5.9260   23.2030  -31.7210 C   0  0  0  0  0  0  0  0  0  0  0  0
   -3.0700   20.9280  -30.9100 C   0  0  0  0  0  0  0  0  0  0  0  0
   -2.0660   20.0220  -31.6330 C   0  0  0  0  0  0  0  0  0  0  0  0
   -8.7270   17.2875  -31.6641 H   0  0  0  0  0  0  0  0  0  0  0  0
   -9.3672   19.5767  -30.8952 H   0  0  0  0  0  0  0  0  0  0  0  0
   -8.1713   21.5840  -31.7902 H   0  0  0  0  0  0  0  0  0  0  0  0
   -6.3572   21.3132  -33.4817 H   0  0  0  0  0  0  0  0  0  0  0  0
   -4.4571   17.1862  -34.2266 H   0  0  0  0  0  0  0  0  0  0  0  0
   -3.5447   18.5304  -34.9983 H   0  0  0  0  0  0  0  0  0  0  0  0
   -4.5334   19.2383  -32.3102 H   0  0  0  0  0  0  0  0  0  0  0  0
   -3.4376   17.7851  -32.3128 H   0  0  0  0  0  0  0  0  0  0  0  0
   -1.7690   19.0130  -33.3680 H   0  0  0  0  0  0  0  0  0  0  0  0
   -1.7781   21.2809  -33.9156 H   0  0  0  0  0  0  0  0  0  0  0  0
   -3.1232   20.3998  -34.7795 H   0  0  0  0  0  0  0  0  0  0  0  0
   -3.5669   22.7421  -33.6952 H   0  0  0  0  0  0  0  0  0  0  0  0
   -4.7630   21.3556  -33.5332 H   0  0  0  0  0  0  0  0  0  0  0  0
   -3.2864   23.4072  -29.5491 H   0  0  0  0  0  0  0  0  0  0  0  0
   -4.8016   25.0824  -28.5003 H   0  0  0  0  0  0  0  0  0  0  0  0
   -7.7424   24.3827  -31.5796 H   0  0  0  0  0  0  0  0  0  0  0  0
   -6.2590   22.6818  -32.6306 H   0  0  0  0  0  0  0  0  0  0  0  0
   -2.5257   21.4972  -30.1420 H   0  0  0  0  0  0  0  0  0  0  0  0
   -3.8416   20.2639  -30.4933 H   0  0  0  0  0  0  0  0  0  0  0  0
   -1.1266   20.5774  -31.7705 H   0  0  0  0  0  0  0  0  0  0  0  0
   -1.9217   19.1251  -31.0127 H   0  0  0  0  0  0  0  0  0  0  0  0
  1  2  3  0
  2  3  1  0
  3  4  2  0
  4  5  1  0
  5  6  2  0
  6  7  1  0
  7  8  2  0
  8  9  1  0
  9 10  1  0
 10 11  1  0
 11 12  1  0
 12 13  1  0
 13 14  1  0
 14 15  1  0
 15 16  1  0
 16 17  2  0
 17 18  1  0
 18 19  2  0
 19 20  1  0
 19 21  1  0
 21 22  2  0
 15 23  1  0
 23 24  1  0
  8  3  1  0
 24 12  1  0
 22 16  1  0
  4 25  1  0
  5 26  1  0
  6 27  1  0
  7 28  1  0
 10 29  1  0
 10 30  1  0
 11 31  1  0
 11 32  1  0
 12 33  1  0
 13 34  1  0
 13 35  1  0
 14 36  1  0
 14 37  1  0
 17 38  1  0
 18 39  1  0
 21 40  1  0
 22 41  1  0
 23 42  1  0
 23 43  1  0
 24 44  1  0
 24 45  1  0
M  CHG  1  12   1
M  END
>  <UniqueID>  (41) 
41

>  <SMILES>  (41) 
N#Cc1ccccc1OCC[NH+]1CCN(c2ccc(F)cc2)CC1

>  <Energy>  (41) 
61.13312028449241

>  <Genealogy>  (41) 
N#Cc1ccccc1OCC[NH+]1CCN(c2ccc(F)cc2)CC1 (protonated)
N#Cc1ccccc1OCC[NH+]1CCN(c2ccc(F)cc2)CC1 (3D coordinates assigned)
N#Cc1ccccc1OCC[NH+]1CCN(c2ccc(F)cc2)CC1 (nonaromatic ring conformer: 61.13312028449241 kcal/mol)

>  <smiles>  (41) 
N#Cc1ccccc1OCCN1CCN(c2ccc(F)cc2)CC1

>  <score_type>  (41) 
oracle

>  <origin>  (41) 
adg

>  <m_score__min__energy>  (41) 
-6.4500000000000002

>  <m_primary>  (41) 
energy

$$$$
41:0
     RDKit          3D

 21 21  0  0  0  0  0  0  0  0999 V2000
   -3.4530   25.7140  -31.5940 H   0  0  0  0  0  0  0  0  0  0  0  0
   -3.8640   25.2900  -30.7350 N   0  0  0  0  0  0  0  0  0  0  0  0
   -3.2040   24.6360  -29.8280 C   0  0  0  0  0  0  0  0  0  0  0  0
   -2.1660   25.2690  -29.2210 N   0  0  0  0  0  0  0  0  0  0  0  0
   -1.4250   24.6880  -28.2470 C   0  0  0  0  0  0  0  0  0  0  0  0
   -0.5870   25.2372  -27.7930 H   0  0  0  0  0  0  0  0  0  0  0  0
   -1.7220   23.4000  -27.8210 C   0  0  0  0  0  0  0  0  0  0  0  0
   -1.1220   22.9312  -27.0271 H   0  0  0  0  0  0  0  0  0  0  0  0
   -2.7870   22.6970  -28.4030 C   0  0  0  0  0  0  0  0  0  0  0  0
   -3.0760   21.3010  -27.9120 C   0  0  0  0  0  0  0  0  0  0  0  0
   -3.0778   21.2922  -26.8120 H   0  0  0  0  0  0  0  0  0  0  0  0
   -4.0600   20.9782  -28.2829 H   0  0  0  0  0  0  0  0  0  0  0  0
   -2.3010   20.6141  -28.2829 H   0  0  0  0  0  0  0  0  0  0  0  0
   -3.5350   23.3020  -29.4510 C   0  0  0  0  0  0  0  0  0  0  0  0
   -4.6790   22.5510  -30.1170 C   0  0  0  0  0  0  0  0  0  0  0  0
   -4.5356   22.5713  -31.2074 H   0  0  0  0  0  0  0  0  0  0  0  0
   -4.6798   21.5152  -29.7467 H   0  0  0  0  0  0  0  0  0  0  0  0
   -6.0240   23.1880  -29.7790 C   0  0  0  0  0  0  0  0  0  0  0  0
   -6.1396   23.2427  -28.6865 H   0  0  0  0  0  0  0  0  0  0  0  0
   -6.0665   24.2019  -30.2035 H   0  0  0  0  0  0  0  0  0  0  0  0
   -6.8354   22.5785  -30.2035 H   0  0  0  0  0  0  0  0  0  0  0  0
  1  2  1  0
  2  3  2  0
  3  4  1  0
  4  5  1  0
  5  6  1  0
  5  7  2  0
  7  8  1  0
  7  9  1  0
  9 10  1  0
 10 11  1  0
 10 12  1  0
 10 13  1  0
  9 14  2  0
 14 15  1  0
 15 16  1  0
 15 17  1  0
 15 18  1  0
 18 19  1  0
 18 20  1  0
 18 21  1  0
 14  3  1  0
M  CHG  1   4  -1
M  END
>  <UniqueID>  (42) 
42

>  <SMILES>  (42) 
[H]/N=c1/[n-]ccc(C)c1CC

>  <Energy>  (42) 
21.9197254659568

>  <Genealogy>  (42) 
CCc1c(C)cc[n-]c1=N (protonated)
[H]/N=c1/[n-]ccc(C)c1CC (cis-trans isomerization)
[H]/N=c1/[n-]ccc(C)c1CC (3D coordinates assigned)
[H]/N=c1/[n-]ccc(C)c1CC (optimized conformer: 21.9197254659568 kcal/mol)

>  <smiles>  (42) 
CCc1c(C)cc[nH]c1=N

>  <score_type>  (42) 
oracle

>  <origin>  (42) 
adg

>  <m_score__min__energy>  (42) 
-6.4699999999999998

>  <m_primary>  (42) 
energy

$$$$
42:0
     RDKit          3D

 59 61  0  0  1  0  0  0  0  0999 V2000
   -9.1200   20.0830  -32.3030 C   0  0  0  0  0  0  0  0  0  0  0  0
   -7.7480   20.7170  -32.2940 C   0  0  0  0  0  0  0  0  0  0  0  0
   -6.7990   19.7490  -31.8540 N   0  0  0  0  0  0  0  0  0  0  0  0
   -7.2690   18.4050  -31.7420 C   0  0  0  0  0  0  0  0  0  0  0  0
   -6.2500   17.4250  -31.2100 C   0  0  0  0  0  0  0  0  0  0  0  0
   -5.4960   19.8810  -32.4410 C   0  0  0  0  0  0  0  0  0  0  0  0
   -5.3640   19.3880  -33.8390 C   0  0  0  0  0  0  0  0  0  0  0  0
   -4.2070   18.7250  -34.1450 O   0  0  0  0  0  0  0  0  0  0  0  0
   -3.1240   19.1460  -33.3420 C   0  0  0  0  0  0  0  0  0  0  0  0
   -2.6080   20.4640  -33.8280 C   0  0  0  0  0  0  0  0  0  0  0  0
   -1.3540   20.8720  -33.2370 N   0  0  0  0  0  0  0  0  0  0  0  0
   -1.0150   20.4530  -32.0690 C   0  0  0  0  0  0  0  0  0  0  0  0
   -0.0090   19.6190  -31.8600 N   0  0  0  0  0  0  0  0  0  0  0  0
    0.2960   19.2200  -30.6160 C   0  0  0  0  0  0  0  0  0  0  0  0
   -0.3650   19.6150  -29.5170 N   0  0  0  0  0  0  0  0  0  0  0  0
   -1.3910   20.4610  -29.6880 C   0  0  0  0  0  0  0  0  0  0  0  0
   -2.0700   20.8660  -28.5660 C   0  0  0  0  0  0  0  0  0  0  0  0
   -3.1390   21.7400  -28.7030 C   0  0  0  0  0  0  0  0  0  0  0  0
   -3.5120   22.1950  -29.9670 C   0  0  0  0  0  0  0  0  0  0  0  0
   -4.6440   23.1090  -30.0530 C   0  0  0  0  0  0  0  0  0  0  0  0
   -5.9440   22.6990  -30.2140 C   0  0  0  0  0  0  0  0  0  0  0  0
   -6.9690   23.6220  -30.2900 C   0  0  0  0  0  0  0  0  0  0  0  0
   -6.7320   24.9830  -30.2100 C   0  0  0  0  0  0  0  0  0  0  0  0
   -5.4260   25.3950  -30.0500 C   0  0  0  0  0  0  0  0  0  0  0  0
   -4.3950   24.4830  -29.9710 C   0  0  0  0  0  0  0  0  0  0  0  0
   -3.0910   24.9230  -29.8080 O   0  0  0  0  0  0  0  0  0  0  0  0
   -2.4850   24.8660  -28.5310 C   0  0  0  0  0  0  0  0  0  0  0  0
   -2.8100   21.7730  -31.1000 C   0  0  0  0  0  0  0  0  0  0  0  0
   -1.7340   20.8950  -30.9710 C   0  0  0  0  0  0  0  0  0  0  0  0
   -9.4584   19.9266  -31.2681 H   0  0  0  0  0  0  0  0  0  0  0  0
   -9.8268   20.7458  -32.8237 H   0  0  0  0  0  0  0  0  0  0  0  0
   -9.0733   19.1152  -32.8237 H   0  0  0  0  0  0  0  0  0  0  0  0
   -7.4895   21.0539  -33.3087 H   0  0  0  0  0  0  0  0  0  0  0  0
   -7.7405   21.5835  -31.6164 H   0  0  0  0  0  0  0  0  0  0  0  0
   -8.1360   18.4000  -31.0650 H   0  0  0  0  0  0  0  0  0  0  0  0
   -7.5162   18.0751  -32.7618 H   0  0  0  0  0  0  0  0  0  0  0  0
   -6.2659   17.4403  -30.1102 H   0  0  0  0  0  0  0  0  0  0  0  0
   -6.4936   16.4132  -31.5662 H   0  0  0  0  0  0  0  0  0  0  0  0
   -5.2484   17.7079  -31.5662 H   0  0  0  0  0  0  0  0  0  0  0  0
   -5.2281   20.9479  -32.4324 H   0  0  0  0  0  0  0  0  0  0  0  0
   -4.8297   19.2483  -31.8362 H   0  0  0  0  0  0  0  0  0  0  0  0
   -6.2029   18.7034  -34.0327 H   0  0  0  0  0  0  0  0  0  0  0  0
   -5.3574   20.2910  -34.4671 H   0  0  0  0  0  0  0  0  0  0  0  0
   -3.4615   19.2488  -32.3001 H   0  0  0  0  0  0  0  0  0  0  0  0
   -2.3188   18.3990  -33.4015 H   0  0  0  0  0  0  0  0  0  0  0  0
   -2.4690   20.3979  -34.9172 H   0  0  0  0  0  0  0  0  0  0  0  0
   -3.3523   21.2187  -33.5341 H   0  0  0  0  0  0  0  0  0  0  0  0
    1.1401   18.5262  -30.4890 H   0  0  0  0  0  0  0  0  0  0  0  0
   -0.0540   19.2520  -28.6050 H   0  0  0  0  0  0  0  0  0  0  0  0
   -1.7708   20.5027  -27.5718 H   0  0  0  0  0  0  0  0  0  0  0  0
   -3.6928   22.0743  -27.8133 H   0  0  0  0  0  0  0  0  0  0  0  0
   -6.1718   21.6251  -30.2832 H   0  0  0  0  0  0  0  0  0  0  0  0
   -8.0017   23.2654  -30.4176 H   0  0  0  0  0  0  0  0  0  0  0  0
   -7.5555   25.7097  -30.2718 H   0  0  0  0  0  0  0  0  0  0  0  0
   -5.2027   26.4701  -29.9842 H   0  0  0  0  0  0  0  0  0  0  0  0
   -3.2600   24.9389  -27.7538 H   0  0  0  0  0  0  0  0  0  0  0  0
   -1.9460   23.9132  -28.4231 H   0  0  0  0  0  0  0  0  0  0  0  0
   -1.7778   25.7016  -28.4231 H   0  0  0  0  0  0  0  0  0  0  0  0
   -3.1070   22.1343  -32.0956 H   0  0  0  0  0  0  0  0  0  0  0  0
  1  2  1  0
  2  3  1  0
  3  4  1  0
  4  5  1  0
  3  6  1  0
  6  7  1  0
  7  8  1  0
  8  9  1  0
  9 10  1  0
 10 11  1  0
 11 12  2  0
 12 13  1  0
 13 14  2  0
 14 15  1  0
 15 16  1  0
 16 17  2  0
 17 18  1  0
 18 19  2  0
 19 20  1  0
 20 21  2  0
 21 22  1  0
 22 23  2  0
 23 24  1  0
 24 25  2  0
 25 26  1  0
 26 27  1  0
 19 28  1  0
 28 29  2  0
 29 12  1  0
 29 16  1  0
 25 20  1  0
  1 30  1  0
  1 31  1  0
  1 32  1  0
  2 33  1  0
  2 34  1  0
  4 35  1  0
  4 36  1  0
  5 37  1  0
  5 38  1  0
  5 39  1  0
  6 40  1  0
  6 41  1  0
  7 42  1  0
  7 43  1  0
  9 44  1  0
  9 45  1  0
 10 46  1  0
 10 47  1  0
 14 48  1  0
 15 49  1  0
 17 50  1  0
 18 51  1  0
 21 52  1  0
 22 53  1  0
 23 54  1  0
 24 55  1  0
 27 56  1  0
 27 57  1  0
 27 58  1  0
 28 59  1  0
M  END
>  <smiles>  (43) 
CCN(CC)CCOCCN=c1nc[nH]c2ccc(-c3ccccc3OC)cc12

>  <score_type>  (43) 
oracle

>  <origin>  (43) 
adg

>  <m_score__min__energy>  (43) 
-8.4800000000000004

>  <m_primary>  (43) 
energy

$$$$
43:0
     RDKit          3D

 31 32  0  0  0  0  0  0  0  0999 V2000
   -1.6190   25.2780  -28.5570 C   0  0  0  0  0  0  0  0  0  0  0  0
   -1.8340   24.1260  -28.2730 C   0  0  0  0  0  0  0  0  0  0  0  0
   -2.0970   22.7260  -27.9280 C   0  0  0  0  0  0  0  0  0  0  0  0
   -3.2170   22.1610  -28.8040 C   0  0  0  0  0  0  0  0  0  0  0  0
   -4.4990   22.9890  -28.6630 C   0  0  0  0  0  0  0  0  0  0  0  0
   -4.9020   23.5300  -29.9690 N   0  0  0  0  0  0  0  0  0  0  0  0
   -5.1010   24.9460  -30.1820 C   0  0  0  0  0  0  0  0  0  0  0  0
   -6.3330   25.6550  -29.7050 C   0  0  0  0  0  0  0  0  0  0  0  0
   -4.2380   25.6080  -30.8210 O   0  0  0  0  0  0  0  0  0  0  0  0
   -5.0780   22.6110  -31.0600 C   0  0  0  0  0  0  0  0  0  0  0  0
   -4.0520   22.3650  -31.9250 N   0  0  0  0  0  0  0  0  0  0  0  0
   -4.1990   21.5120  -32.9830 C   0  0  0  0  0  0  0  0  0  0  0  0
   -5.3920   20.8900  -33.2100 N   0  0  0  0  0  0  0  0  0  0  0  0
   -6.4350   21.1240  -32.3740 C   0  0  0  0  0  0  0  0  0  0  0  0
   -7.7140   20.5810  -32.5110 C   0  0  0  0  0  0  0  0  0  0  0  0
   -8.5900   21.0320  -31.5250 C   0  0  0  0  0  0  0  0  0  0  0  0
   -7.7700   22.1000  -30.4980 S   0  0  0  0  0  0  0  0  0  0  0  0
   -6.2980   21.9780  -31.3000 C   0  0  0  0  0  0  0  0  0  0  0  0
   -1.4229   26.3289  -28.8161 H   0  0  0  0  0  0  0  0  0  0  0  0
   -1.1819   22.1362  -28.0849 H   0  0  0  0  0  0  0  0  0  0  0  0
   -2.4068   22.6709  -26.8740 H   0  0  0  0  0  0  0  0  0  0  0  0
   -2.8933   22.1763  -29.8552 H   0  0  0  0  0  0  0  0  0  0  0  0
   -3.4286   21.1315  -28.4795 H   0  0  0  0  0  0  0  0  0  0  0  0
   -5.3033   22.3490  -28.2713 H   0  0  0  0  0  0  0  0  0  0  0  0
   -4.3120   23.8239  -27.9717 H   0  0  0  0  0  0  0  0  0  0  0  0
   -6.3483   25.6638  -28.6051 H   0  0  0  0  0  0  0  0  0  0  0  0
   -6.3293   26.6891  -30.0800 H   0  0  0  0  0  0  0  0  0  0  0  0
   -7.2253   25.1322  -30.0800 H   0  0  0  0  0  0  0  0  0  0  0  0
   -3.3493   21.3257  -33.6563 H   0  0  0  0  0  0  0  0  0  0  0  0
   -7.9982   19.8770  -33.3070 H   0  0  0  0  0  0  0  0  0  0  0  0
   -9.6463   20.7404  -31.4292 H   0  0  0  0  0  0  0  0  0  0  0  0
  1  2  3  0
  2  3  1  0
  3  4  1  0
  4  5  1  0
  5  6  1  0
  6  7  1  0
  7  8  1  0
  7  9  2  0
  6 10  1  0
 10 11  2  0
 11 12  1  0
 12 13  2  0
 13 14  1  0
 14 15  1  0
 15 16  2  0
 16 17  1  0
 17 18  1  0
 18 10  1  0
 18 14  2  0
  1 19  1  0
  3 20  1  0
  3 21  1  0
  4 22  1  0
  4 23  1  0
  5 24  1  0
  5 25  1  0
  8 26  1  0
  8 27  1  0
  8 28  1  0
 12 29  1  0
 15 30  1  0
 16 31  1  0
M  END
>  <UniqueID>  (44) 
43

>  <SMILES>  (44) 
C#CCCCN(C(C)=O)c1ncnc2ccsc12

>  <Energy>  (44) 
61.8603797245501

>  <Genealogy>  (44) 
C#CCCCN(C(C)=O)c1ncnc2ccsc12 (3D coordinates assigned)
C#CCCCN(C(C)=O)c1ncnc2ccsc12 (optimized conformer: 61.8603797245501 kcal/mol)

>  <smiles>  (44) 
C#CCCCN(C(C)=O)c1ncnc2ccsc12

>  <score_type>  (44) 
oracle

>  <origin>  (44) 
adg

>  <m_score__min__energy>  (44) 
-6.5

>  <m_primary>  (44) 
energy

$$$$
44:0
     RDKit          3D

 60 63  0  0  0  0  0  0  0  0999 V2000
   -1.8340   25.1850  -28.0230 C   0  0  0  0  0  0  0  0  0  0  0  0
   -2.3550   25.2990  -29.3420 O   0  0  0  0  0  0  0  0  0  0  0  0
   -3.4430   24.5630  -29.8380 C   0  0  0  0  0  0  0  0  0  0  0  0
   -4.7020   25.1590  -30.0430 C   0  0  0  0  0  0  0  0  0  0  0  0
   -5.7860   24.3960  -30.4800 C   0  0  0  0  0  0  0  0  0  0  0  0
   -5.6420   23.0200  -30.7160 C   0  0  0  0  0  0  0  0  0  0  0  0
   -6.7980   22.2070  -31.1710 C   0  0  0  0  0  0  0  0  0  0  0  0
   -8.0360   22.2900  -30.5060 C   0  0  0  0  0  0  0  0  0  0  0  0
   -9.1240   21.5240  -30.9370 C   0  0  0  0  0  0  0  0  0  0  0  0
   -8.9890   20.6670  -32.0310 C   0  0  0  0  0  0  0  0  0  0  0  0
   -7.7650   20.5750  -32.6990 C   0  0  0  0  0  0  0  0  0  0  0  0
   -7.6340   19.7390  -33.7590 F   0  0  0  0  0  0  0  0  0  0  0  0
   -6.6750   21.3400  -32.2730 C   0  0  0  0  0  0  0  0  0  0  0  0
   -4.3850   22.4250  -30.5200 C   0  0  0  0  0  0  0  0  0  0  0  0
   -3.2790   23.1900  -30.1110 C   0  0  0  0  0  0  0  0  0  0  0  0
   -1.9630   22.5240  -29.9600 C   0  0  0  0  0  0  0  0  0  0  0  0
   -1.5360   22.2610  -28.8050 O   0  0  0  0  0  0  0  0  0  0  0  0
   -1.1490   22.1780  -31.0890 N   0  0  0  0  0  0  0  0  0  0  0  0
   -1.3320   21.0310  -31.9300 C   0  0  0  0  0  0  0  0  0  0  0  0
   -1.6850   21.2340  -33.2700 C   0  0  0  0  0  0  0  0  0  0  0  0
   -1.9120   20.1500  -34.1180 C   0  0  0  0  0  0  0  0  0  0  0  0
   -1.7640   18.8390  -33.6430 C   0  0  0  0  0  0  0  0  0  0  0  0
   -1.9800   17.6590  -34.5640 C   0  0  0  0  0  0  0  0  0  0  0  0
   -3.4210   17.3530  -34.7480 N   0  0  0  0  0  0  0  0  0  0  0  0
   -4.2710   18.4530  -34.2180 C   0  0  0  0  0  0  0  0  0  0  0  0
   -5.6880   17.9650  -33.8770 C   0  0  0  0  0  0  0  0  0  0  0  0
   -5.6800   16.9000  -32.8430 N   0  0  0  0  0  0  0  0  0  0  0  0
   -6.0360   17.4330  -31.5180 C   0  0  0  0  0  0  0  0  0  0  0  0
   -4.4030   16.1550  -32.7720 C   0  0  0  0  0  0  0  0  0  0  0  0
   -3.7590   16.0260  -34.1590 C   0  0  0  0  0  0  0  0  0  0  0  0
   -1.3610   18.6300  -32.3150 C   0  0  0  0  0  0  0  0  0  0  0  0
   -1.1370   19.7150  -31.4590 C   0  0  0  0  0  0  0  0  0  0  0  0
   -0.5110   19.3840  -29.8480 Cl  0  0  0  0  0  0  0  0  0  0  0  0
   -2.6390   25.3611  -27.2943 H   0  0  0  0  0  0  0  0  0  0  0  0
   -1.4221   24.1755  -27.8774 H   0  0  0  0  0  0  0  0  0  0  0  0
   -1.0381   25.9302  -27.8774 H   0  0  0  0  0  0  0  0  0  0  0  0
   -4.8325   26.2353  -29.8572 H   0  0  0  0  0  0  0  0  0  0  0  0
   -6.7619   24.8774  -30.6409 H   0  0  0  0  0  0  0  0  0  0  0  0
   -8.1484   22.9615  -29.6420 H   0  0  0  0  0  0  0  0  0  0  0  0
  -10.0883   21.5969  -30.4128 H   0  0  0  0  0  0  0  0  0  0  0  0
   -9.8458   20.0645  -32.3669 H   0  0  0  0  0  0  0  0  0  0  0  0
   -5.7141   21.2637  -32.8030 H   0  0  0  0  0  0  0  0  0  0  0  0
   -4.2643   21.3448  -30.6890 H   0  0  0  0  0  0  0  0  0  0  0  0
   -1.7842   22.2586  -33.6577 H   0  0  0  0  0  0  0  0  0  0  0  0
   -2.2081   20.3242  -35.1630 H   0  0  0  0  0  0  0  0  0  0  0  0
   -1.5377   17.8884  -35.5447 H   0  0  0  0  0  0  0  0  0  0  0  0
   -1.5018   16.7799  -34.1074 H   0  0  0  0  0  0  0  0  0  0  0  0
   -3.6000   17.2820  -35.7780 H   0  0  0  0  0  0  0  0  0  0  0  0
   -3.8044   18.8564  -33.3072 H   0  0  0  0  0  0  0  0  0  0  0  0
   -4.3535   19.2267  -34.9956 H   0  0  0  0  0  0  0  0  0  0  0  0
   -6.2759   18.8166  -33.5040 H   0  0  0  0  0  0  0  0  0  0  0  0
   -6.1298   17.5441  -34.7922 H   0  0  0  0  0  0  0  0  0  0  0  0
   -5.6061   16.7894  -30.7363 H   0  0  0  0  0  0  0  0  0  0  0  0
   -5.6371   18.4528  -31.4137 H   0  0  0  0  0  0  0  0  0  0  0  0
   -7.1308   17.4551  -31.4137 H   0  0  0  0  0  0  0  0  0  0  0  0
   -3.7121   16.6898  -32.1037 H   0  0  0  0  0  0  0  0  0  0  0  0
   -4.6094   15.1451  -32.3880 H   0  0  0  0  0  0  0  0  0  0  0  0
   -2.8367   15.4336  -34.0677 H   0  0  0  0  0  0  0  0  0  0  0  0
   -4.4850   15.5360  -34.8244 H   0  0  0  0  0  0  0  0  0  0  0  0
   -1.2198   17.6044  -31.9433 H   0  0  0  0  0  0  0  0  0  0  0  0
  1  2  1  0
  2  3  1  0
  3  4  2  0
  4  5  1  0
  5  6  2  0
  6  7  1  0
  7  8  2  0
  8  9  1  0
  9 10  2  0
 10 11  1  0
 11 12  1  0
 11 13  2  0
  6 14  1  0
 14 15  2  0
 15 16  1  0
 16 17  2  0
 16 18  1  0
 18 19  1  0
 19 20  2  0
 20 21  1  0
 21 22  2  0
 22 23  1  0
 23 24  1  0
 24 25  1  0
 25 26  1  0
 26 27  1  0
 27 28  1  0
 27 29  1  0
 29 30  1  0
 22 31  1  0
 31 32  2  0
 32 33  1  0
 15  3  1  0
 32 19  1  0
 13  7  1  0
 30 24  1  0
  1 34  1  0
  1 35  1  0
  1 36  1  0
  4 37  1  0
  5 38  1  0
  8 39  1  0
  9 40  1  0
 10 41  1  0
 13 42  1  0
 14 43  1  0
 20 44  1  0
 21 45  1  0
 23 46  1  0
 23 47  1  0
 24 48  1  0
 25 49  1  0
 25 50  1  0
 26 51  1  0
 26 52  1  0
 28 53  1  0
 28 54  1  0
 28 55  1  0
 29 56  1  0
 29 57  1  0
 30 58  1  0
 30 59  1  0
 31 60  1  0
M  CHG  2  18  -1  24   1
M  END
>  <UniqueID>  (45) 
44

>  <SMILES>  (45) 
COc1ccc(-c2cccc(F)c2)cc1C(=O)[N-]c1ccc(C[NH+]2CCN(C)CC2)cc1Cl

>  <Energy>  (45) 
91.27661505151029

>  <Genealogy>  (45) 
COc1ccc(-c2cccc(F)c2)cc1C(=O)[N-]c1ccc(C[NH+]2CCN(C)CC2)cc1Cl (protonated)
COc1ccc(-c2cccc(F)c2)cc1C(=O)[N-]c1ccc(C[NH+]2CCN(C)CC2)cc1Cl (3D coordinates assigned)
COc1ccc(-c2cccc(F)c2)cc1C(=O)[N-]c1ccc(C[NH+]2CCN(C)CC2)cc1Cl (nonaromatic ring conformer: 91.27661505151029 kcal/mol)

>  <smiles>  (45) 
COc1ccc(-c2cccc(F)c2)cc1C(=O)Nc1ccc(CN2CCN(C)CC2)cc1Cl

>  <score_type>  (45) 
oracle

>  <origin>  (45) 
adg

>  <m_score__min__energy>  (45) 
-11.51

>  <m_primary>  (45) 
energy

$$$$
