0:0
     RDKit          3D

 49 53  0  0  0  0  0  0  0  0999 V2000
   -4.9870   25.4760  -30.1790 C   0  0  0  0  0  0  0  0  0  0  0  0
   -3.5880   25.2510  -30.0570 O   0  0  0  0  0  0  0  0  0  0  0  0
   -2.9630   24.0000  -30.2030 C   0  0  0  0  0  0  0  0  0  0  0  0
   -3.5990   22.9250  -30.8540 C   0  0  0  0  0  0  0  0  0  0  0  0
   -2.9330   21.7020  -31.0390 C   0  0  0  0  0  0  0  0  0  0  0  0
   -3.5800   20.6040  -31.7090 N   0  0  0  0  0  0  0  0  0  0  0  0
   -2.9430   19.5990  -32.3060 N   0  0  0  0  0  0  0  0  0  0  0  0
   -3.8530   18.7510  -32.8440 C   0  0  0  0  0  0  0  0  0  0  0  0
   -3.5120   17.5140  -33.6100 C   0  0  0  0  0  0  0  0  0  0  0  0
   -5.1170   19.2510  -32.5840 C   0  0  0  0  0  0  0  0  0  0  0  0
   -6.4050   18.8360  -32.9160 C   0  0  0  0  0  0  0  0  0  0  0  0
   -6.5940   17.7740  -33.5700 O   0  0  0  0  0  0  0  0  0  0  0  0
   -7.4810   19.6520  -32.4940 C   0  0  0  0  0  0  0  0  0  0  0  0
   -8.8180   19.3180  -32.7760 C   0  0  0  0  0  0  0  0  0  0  0  0
   -9.8560   20.1500  -32.3490 C   0  0  0  0  0  0  0  0  0  0  0  0
   -9.5780   21.3220  -31.6400 C   0  0  0  0  0  0  0  0  0  0  0  0
   -8.2570   21.6740  -31.3500 C   0  0  0  0  0  0  0  0  0  0  0  0
   -7.2030   20.8540  -31.7670 C   0  0  0  0  0  0  0  0  0  0  0  0
   -5.9150   21.2080  -31.4780 N   0  0  0  0  0  0  0  0  0  0  0  0
   -4.9020   20.4000  -31.8760 C   0  0  0  0  0  0  0  0  0  0  0  0
   -1.6250   21.5570  -30.5560 C   0  0  0  0  0  0  0  0  0  0  0  0
   -0.9920   22.6140  -29.9000 C   0  0  0  0  0  0  0  0  0  0  0  0
   -1.6570   23.8270  -29.7010 C   0  0  0  0  0  0  0  0  0  0  0  0
   -0.9800   24.8570  -29.0330 O   0  0  0  0  0  0  0  0  0  0  0  0
   -1.3350   25.3740  -27.7780 C   0  0  0  0  0  0  0  0  0  0  0  0
   -2.4170   24.8590  -27.0380 C   0  0  0  0  0  0  0  0  0  0  0  0
   -2.7310   25.3970  -25.7860 C   0  0  0  0  0  0  0  0  0  0  0  0
   -1.9660   26.4430  -25.2600 C   0  0  0  0  0  0  0  0  0  0  0  0
   -0.8810   26.9450  -25.9820 C   0  0  0  0  0  0  0  0  0  0  0  0
   -0.5630   26.4090  -27.2340 C   0  0  0  0  0  0  0  0  0  0  0  0
   -5.4355   25.5481  -29.1772 H   0  0  0  0  0  0  0  0  0  0  0  0
   -5.1611   26.4137  -30.7271 H   0  0  0  0  0  0  0  0  0  0  0  0
   -5.4464   24.6402  -30.7271 H   0  0  0  0  0  0  0  0  0  0  0  0
   -4.6288   23.0444  -31.2217 H   0  0  0  0  0  0  0  0  0  0  0  0
   -1.9060   19.4830  -32.3350 H   0  0  0  0  0  0  0  0  0  0  0  0
   -3.2871   16.6980  -32.9075 H   0  0  0  0  0  0  0  0  0  0  0  0
   -4.3648   17.2280  -34.2432 H   0  0  0  0  0  0  0  0  0  0  0  0
   -2.6331   17.7054  -34.2432 H   0  0  0  0  0  0  0  0  0  0  0  0
   -9.0471   18.3985  -33.3347 H   0  0  0  0  0  0  0  0  0  0  0  0
  -10.8989   19.8809  -32.5723 H   0  0  0  0  0  0  0  0  0  0  0  0
  -10.4027   21.9702  -31.3088 H   0  0  0  0  0  0  0  0  0  0  0  0
   -8.0454   22.5983  -30.7924 H   0  0  0  0  0  0  0  0  0  0  0  0
   -1.0939   20.6038  -30.6949 H   0  0  0  0  0  0  0  0  0  0  0  0
    0.0390   22.4912  -29.5366 H   0  0  0  0  0  0  0  0  0  0  0  0
   -3.0164   24.0317  -27.4458 H   0  0  0  0  0  0  0  0  0  0  0  0
   -3.5811   24.9968  -25.2139 H   0  0  0  0  0  0  0  0  0  0  0  0
   -2.2187   26.8700  -24.2783 H   0  0  0  0  0  0  0  0  0  0  0  0
   -0.2755   27.7633  -25.5652 H   0  0  0  0  0  0  0  0  0  0  0  0
    0.2979   26.8021  -27.7947 H   0  0  0  0  0  0  0  0  0  0  0  0
  1  2  1  0
  2  3  1  0
  3  4  2  0
  4  5  1  0
  5  6  1  0
  6  7  1  0
  7  8  2  0
  8  9  1  0
  8 10  1  0
 10 11  1  0
 11 12  2  0
 11 13  1  0
 13 14  2  0
 14 15  1  0
 15 16  2  0
 16 17  1  0
 17 18  2  0
 18 19  1  0
 19 20  1  0
  5 21  2  0
 21 22  1  0
 22 23  2  0
 23 24  1  0
 24 25  1  0
 25 26  2  0
 26 27  1  0
 27 28  2  0
 28 29  1  0
 29 30  2  0
 23  3  1  0
 30 25  1  0
 20  6  1  0
 20 10  2  0
 18 13  1  0
  1 31  1  0
  1 32  1  0
  1 33  1  0
  4 34  1  0
  7 35  1  0
  9 36  1  0
  9 37  1  0
  9 38  1  0
 14 39  1  0
 15 40  1  0
 16 41  1  0
 17 42  1  0
 21 43  1  0
 22 44  1  0
 26 45  1  0
 27 46  1  0
 28 47  1  0
 29 48  1  0
 30 49  1  0
M  CHG  2   7   1  19  -1
M  END
>  <UniqueID>  (1) 
1

>  <SMILES>  (1) 
COc1cc(-n2[nH+]c(C)c3c(=O)c4ccccc4[n-]c32)ccc1Oc1ccccc1

>  <Energy>  (1) 
111.02394652163734

>  <Genealogy>  (1) 
COc1cc(-n2[nH+]c(C)c3c(=O)c4ccccc4[n-]c32)ccc1Oc1ccccc1 (protonated)
COc1cc(-n2[nH+]c(C)c3c(=O)c4ccccc4[n-]c32)ccc1Oc1ccccc1 (3D coordinates assigned)
COc1cc(-n2[nH+]c(C)c3c(=O)c4ccccc4[n-]c32)ccc1Oc1ccccc1 (optimized conformer: 111.02394652163734 kcal/mol)

>  <smiles>  (1) 
COc1cc(-n2nc(C)c3c(=O)c4ccccc4[nH]c32)ccc1Oc1ccccc1

>  <score_type>  (1) 
oracle

>  <origin>  (1) 
adg

>  <m_score__min__energy>  (1) 
-9.6799999999999997

>  <m_primary>  (1) 
energy

$$$$
1:0
     RDKit          3D

 59 61  0  0  0  0  0  0  0  0999 V2000
    0.0420   23.0910  -28.2550 C   0  0  0  0  0  0  0  0  0  0  0  0
   -0.7470   21.9870  -27.5480 C   0  0  0  0  0  0  0  0  0  0  0  0
   -2.1840   21.9330  -27.9090 N   0  0  0  0  0  0  0  0  0  0  0  0
   -2.7500   20.5640  -28.0000 C   0  0  0  0  0  0  0  0  0  0  0  0
   -2.3860   19.6410  -26.8250 C   0  0  0  0  0  0  0  0  0  0  0  0
   -3.0530   22.9330  -27.2500 C   0  0  0  0  0  0  0  0  0  0  0  0
   -3.0990   24.2440  -28.0450 C   0  0  0  0  0  0  0  0  0  0  0  0
   -2.8100   24.0030  -29.4220 O   0  0  0  0  0  0  0  0  0  0  0  0
   -3.7300   24.2170  -30.4580 C   0  0  0  0  0  0  0  0  0  0  0  0
   -3.9840   25.3930  -30.8330 O   0  0  0  0  0  0  0  0  0  0  0  0
   -4.3820   23.0500  -31.1090 C   0  0  0  0  0  0  0  0  0  0  0  0
   -3.5630   22.0520  -31.6670 C   0  0  0  0  0  0  0  0  0  0  0  0
   -4.1170   20.9400  -32.3040 C   0  0  0  0  0  0  0  0  0  0  0  0
   -5.5070   20.7940  -32.3940 C   0  0  0  0  0  0  0  0  0  0  0  0
   -6.0780   19.6570  -33.0700 N   0  0  0  0  0  0  0  0  0  0  0  0
   -5.3710   19.0670  -34.2190 C   0  0  0  0  0  0  0  0  0  0  0  0
   -5.9940   17.7280  -34.6300 C   0  0  0  0  0  0  0  0  0  0  0  0
   -6.2990   16.9350  -33.4310 N   0  0  0  0  0  0  0  0  0  0  0  0
   -5.7730   15.6030  -33.2760 C   0  0  0  0  0  0  0  0  0  0  0  0
   -6.1660   14.5760  -34.1530 C   0  0  0  0  0  0  0  0  0  0  0  0
   -5.6400   13.2880  -34.0130 C   0  0  0  0  0  0  0  0  0  0  0  0
   -4.7180   13.0130  -33.0020 C   0  0  0  0  0  0  0  0  0  0  0  0
   -4.3140   14.0290  -32.1310 C   0  0  0  0  0  0  0  0  0  0  0  0
   -4.8360   15.3190  -32.2670 C   0  0  0  0  0  0  0  0  0  0  0  0
   -7.0810   17.5380  -32.3390 C   0  0  0  0  0  0  0  0  0  0  0  0
   -7.3140   19.0350  -32.5770 C   0  0  0  0  0  0  0  0  0  0  0  0
   -6.3340   21.7790  -31.8410 C   0  0  0  0  0  0  0  0  0  0  0  0
   -5.7900   22.8980  -31.1970 C   0  0  0  0  0  0  0  0  0  0  0  0
   -6.9280   24.0480  -30.4970 Cl  0  0  0  0  0  0  0  0  0  0  0  0
    0.5097   23.7454  -27.5047 H   0  0  0  0  0  0  0  0  0  0  0  0
    0.8225   22.6384  -28.8843 H   0  0  0  0  0  0  0  0  0  0  0  0
   -0.6390   23.6828  -28.8843 H   0  0  0  0  0  0  0  0  0  0  0  0
   -0.2911   21.0196  -27.8056 H   0  0  0  0  0  0  0  0  0  0  0  0
   -0.7022   22.2096  -26.4717 H   0  0  0  0  0  0  0  0  0  0  0  0
   -3.8459   20.6481  -28.0434 H   0  0  0  0  0  0  0  0  0  0  0  0
   -2.3161   20.1067  -28.9015 H   0  0  0  0  0  0  0  0  0  0  0  0
   -2.5899   20.1581  -25.8758 H   0  0  0  0  0  0  0  0  0  0  0  0
   -2.9894   18.7229  -26.8794 H   0  0  0  0  0  0  0  0  0  0  0  0
   -1.3183   19.3819  -26.8794 H   0  0  0  0  0  0  0  0  0  0  0  0
   -4.0719   22.5258  -27.1718 H   0  0  0  0  0  0  0  0  0  0  0  0
   -2.6408   23.1468  -26.2528 H   0  0  0  0  0  0  0  0  0  0  0  0
   -4.1027   24.6856  -27.9575 H   0  0  0  0  0  0  0  0  0  0  0  0
   -2.3449   24.9339  -27.6382 H   0  0  0  0  0  0  0  0  0  0  0  0
   -2.4693   22.1491  -31.6005 H   0  0  0  0  0  0  0  0  0  0  0  0
   -3.4577   20.1738  -32.7379 H   0  0  0  0  0  0  0  0  0  0  0  0
   -5.4254   19.7632  -35.0689 H   0  0  0  0  0  0  0  0  0  0  0  0
   -4.3254   18.8881  -33.9281 H   0  0  0  0  0  0  0  0  0  0  0  0
   -6.9215   17.9133  -35.1916 H   0  0  0  0  0  0  0  0  0  0  0  0
   -5.2839   17.1745  -35.2620 H   0  0  0  0  0  0  0  0  0  0  0  0
   -6.8908   14.7871  -34.9531 H   0  0  0  0  0  0  0  0  0  0  0  0
   -5.9537   12.4895  -34.7015 H   0  0  0  0  0  0  0  0  0  0  0  0
   -4.3096   11.9977  -32.8907 H   0  0  0  0  0  0  0  0  0  0  0  0
   -3.5839   13.8132  -31.3370 H   0  0  0  0  0  0  0  0  0  0  0  0
   -4.5119   16.1156  -31.5811 H   0  0  0  0  0  0  0  0  0  0  0  0
   -8.0547   17.0304  -32.2736 H   0  0  0  0  0  0  0  0  0  0  0  0
   -6.5155   17.4206  -31.4029 H   0  0  0  0  0  0  0  0  0  0  0  0
   -8.1120   19.1667  -33.3225 H   0  0  0  0  0  0  0  0  0  0  0  0
   -7.6093   19.5123  -31.6310 H   0  0  0  0  0  0  0  0  0  0  0  0
   -7.4265   21.6728  -31.9132 H   0  0  0  0  0  0  0  0  0  0  0  0
  1  2  1  0
  2  3  1  0
  3  4  1  0
  4  5  1  0
  3  6  1  0
  6  7  1  0
  7  8  1  0
  8  9  1  0
  9 10  2  0
  9 11  1  0
 11 12  2  0
 12 13  1  0
 13 14  2  0
 14 15  1  0
 15 16  1  0
 16 17  1  0
 17 18  1  0
 18 19  1  0
 19 20  2  0
 20 21  1  0
 21 22  2  0
 22 23  1  0
 23 24  2  0
 18 25  1  0
 25 26  1  0
 14 27  1  0
 27 28  2  0
 28 29  1  0
 28 11  1  0
 26 15  1  0
 24 19  1  0
  1 30  1  0
  1 31  1  0
  1 32  1  0
  2 33  1  0
  2 34  1  0
  4 35  1  0
  4 36  1  0
  5 37  1  0
  5 38  1  0
  5 39  1  0
  6 40  1  0
  6 41  1  0
  7 42  1  0
  7 43  1  0
 12 44  1  0
 13 45  1  0
 16 46  1  0
 16 47  1  0
 17 48  1  0
 17 49  1  0
 20 50  1  0
 21 51  1  0
 22 52  1  0
 23 53  1  0
 24 54  1  0
 25 55  1  0
 25 56  1  0
 26 57  1  0
 26 58  1  0
 27 59  1  0
M  END
>  <UniqueID>  (2) 
2

>  <SMILES>  (2) 
CCN(CC)CCOC(=O)c1ccc(N2CCN(c3ccccc3)CC2)cc1Cl

>  <Energy>  (2) 
77.0587530629213

>  <Genealogy>  (2) 
CCN(CC)CCOC(=O)c1ccc(N2CCN(c3ccccc3)CC2)cc1Cl (3D coordinates assigned)
CCN(CC)CCOC(=O)c1ccc(N2CCN(c3ccccc3)CC2)cc1Cl (nonaromatic ring conformer: 77.0587530629213 kcal/mol)

>  <smiles>  (2) 
CCN(CC)CCOC(=O)c1ccc(N2CCN(c3ccccc3)CC2)cc1Cl

>  <score_type>  (2) 
oracle

>  <origin>  (2) 
adg

>  <m_score__min__energy>  (2) 
-8.0500000000000007

>  <m_primary>  (2) 
energy

$$$$
2:0
     RDKit          3D

 52 53  0  0  0  0  0  0  0  0999 V2000
   -0.1420   22.4750  -27.3050 C   0  0  0  0  0  0  0  0  0  0  0  0
   -1.4090   21.8550  -26.7220 C   0  0  0  0  0  0  0  0  0  0  0  0
   -2.3750   21.4950  -27.7840 N   0  0  0  0  0  0  0  0  0  0  0  0
   -2.7320   20.0590  -27.7680 C   0  0  0  0  0  0  0  0  0  0  0  0
   -2.3280   19.4400  -26.4360 C   0  0  0  0  0  0  0  0  0  0  0  0
   -3.5410   22.4060  -27.9290 C   0  0  0  0  0  0  0  0  0  0  0  0
   -3.2260   23.8530  -28.3780 C   0  0  0  0  0  0  0  0  0  0  0  0
   -2.8100   23.9720  -29.8440 C   0  0  0  0  0  0  0  0  0  0  0  0
   -3.4870   25.1110  -30.4550 N   0  0  0  0  0  0  0  0  0  0  0  0
   -4.9110   25.2330  -30.5670 C   0  0  0  0  0  0  0  0  0  0  0  0
   -5.4320   26.3780  -30.5000 O   0  0  0  0  0  0  0  0  0  0  0  0
   -5.7790   24.0560  -30.7570 C   0  0  0  0  0  0  0  0  0  0  0  0
   -6.7900   23.7710  -29.8330 C   0  0  0  0  0  0  0  0  0  0  0  0
   -7.6050   22.6560  -30.0310 C   0  0  0  0  0  0  0  0  0  0  0  0
   -7.4110   21.8460  -31.1060 N   0  0  0  0  0  0  0  0  0  0  0  0
   -6.4220   22.0780  -32.0130 C   0  0  0  0  0  0  0  0  0  0  0  0
   -6.2800   21.1890  -33.0930 O   0  0  0  0  0  0  0  0  0  0  0  0
   -5.4900   19.9950  -33.0910 C   0  0  1  0  0  0  0  0  0  0  0  0
   -5.4840   19.4000  -31.6930 C   0  0  0  0  0  0  0  0  0  0  0  0
   -6.7060   18.4940  -31.6160 C   0  0  0  0  0  0  0  0  0  0  0  0
   -7.1090   18.1760  -33.0560 C   0  0  2  0  0  0  0  0  0  0  0  0
   -7.0480   16.8120  -33.2930 F   0  0  0  0  0  0  0  0  0  0  0  0
   -6.1310   18.9180  -33.9580 C   0  0  0  0  0  0  0  0  0  0  0  0
   -5.5760   23.1900  -31.8390 C   0  0  0  0  0  0  0  0  0  0  0  0
    0.5182   22.7981  -26.4866 H   0  0  0  0  0  0  0  0  0  0  0  0
    0.3792   21.7302  -27.9243 H   0  0  0  0  0  0  0  0  0  0  0  0
   -0.4103   23.3436  -27.9243 H   0  0  0  0  0  0  0  0  0  0  0  0
   -1.1381   20.9474  -26.1627 H   0  0  0  0  0  0  0  0  0  0  0  0
   -1.8829   22.5955  -26.0610 H   0  0  0  0  0  0  0  0  0  0  0  0
   -3.8180   19.9514  -27.9059 H   0  0  0  0  0  0  0  0  0  0  0  0
   -2.2014   19.5444  -28.5827 H   0  0  0  0  0  0  0  0  0  0  0  0
   -2.7264   20.0504  -25.6122 H   0  0  0  0  0  0  0  0  0  0  0  0
   -2.7351   18.4204  -26.3670 H   0  0  0  0  0  0  0  0  0  0  0  0
   -1.2308   19.4022  -26.3670 H   0  0  0  0  0  0  0  0  0  0  0  0
   -4.2213   21.9646  -28.6722 H   0  0  0  0  0  0  0  0  0  0  0  0
   -3.9701   22.4977  -26.9203 H   0  0  0  0  0  0  0  0  0  0  0  0
   -4.1254   24.4670  -28.2227 H   0  0  0  0  0  0  0  0  0  0  0  0
   -2.3712   24.1943  -27.7757 H   0  0  0  0  0  0  0  0  0  0  0  0
   -1.7214   24.1177  -29.9048 H   0  0  0  0  0  0  0  0  0  0  0  0
   -3.0892   23.0520  -30.3784 H   0  0  0  0  0  0  0  0  0  0  0  0
   -6.9411   24.4203  -28.9580 H   0  0  0  0  0  0  0  0  0  0  0  0
   -8.4084   22.4310  -29.3141 H   0  0  0  0  0  0  0  0  0  0  0  0
   -8.0380   21.0200  -31.2350 H   0  0  0  0  0  0  0  0  0  0  0  0
   -4.4879   20.2685  -33.4530 H   0  0  0  0  0  0  0  0  0  0  0  0
   -4.5655   18.8172  -31.5298 H   0  0  0  0  0  0  0  0  0  0  0  0
   -5.5148   20.1838  -30.9218 H   0  0  0  0  0  0  0  0  0  0  0  0
   -6.4573   17.5670  -31.0785 H   0  0  0  0  0  0  0  0  0  0  0  0
   -7.5283   18.9842  -31.0742 H   0  0  0  0  0  0  0  0  0  0  0  0
   -8.1446   18.4914  -33.2510 H   0  0  0  0  0  0  0  0  0  0  0  0
   -5.3638   18.2277  -34.3387 H   0  0  0  0  0  0  0  0  0  0  0  0
   -6.6403   19.3544  -34.8299 H   0  0  0  0  0  0  0  0  0  0  0  0
   -4.7584   23.3780  -32.5504 H   0  0  0  0  0  0  0  0  0  0  0  0
  1  2  1  0
  2  3  1  0
  3  4  1  0
  4  5  1  0
  3  6  1  0
  6  7  1  0
  7  8  1  0
  8  9  1  0
  9 10  1  0
 10 11  2  0
 10 12  1  0
 12 13  2  0
 13 14  1  0
 14 15  2  0
 15 16  1  0
 16 17  1  0
 17 18  1  0
 18 19  1  0
 19 20  1  0
 20 21  1  0
 21 22  1  0
 21 23  1  0
 16 24  2  0
 24 12  1  0
 23 18  1  0
  1 25  1  0
  1 26  1  0
  1 27  1  0
  2 28  1  0
  2 29  1  0
  4 30  1  0
  4 31  1  0
  5 32  1  0
  5 33  1  0
  5 34  1  0
  6 35  1  0
  6 36  1  0
  7 37  1  0
  7 38  1  0
  8 39  1  0
  8 40  1  0
 13 41  1  0
 14 42  1  0
 15 43  1  0
 18 44  1  6
 19 45  1  0
 19 46  1  0
 20 47  1  0
 20 48  1  0
 21 49  1  6
 23 50  1  0
 23 51  1  0
 24 52  1  0
M  CHG  2   9  -1  15   1
M  END
>  <UniqueID>  (3) 
3

>  <SMILES>  (3) 
CCN(CC)CCC[N-]C(=O)c1cc[nH+]c(O[C@H]2CC[C@H](F)C2)c1

>  <Energy>  (3) 
52.802033092661524

>  <Genealogy>  (3) 
CCN(CC)CCC[N-]C(=O)c1cc[nH+]c(OC2CCC(F)C2)c1 (protonated)
CCN(CC)CCC[N-]C(=O)c1cc[nH+]c(O[C@H]2CC[C@H](F)C2)c1 (chirality)
CCN(CC)CCC[N-]C(=O)c1cc[nH+]c(O[C@H]2CC[C@H](F)C2)c1 (3D coordinates assigned)
CCN(CC)CCC[N-]C(=O)c1cc[nH+]c(O[C@H]2CC[C@H](F)C2)c1 (nonaromatic ring conformer: 52.802033092661524 kcal/mol)

>  <smiles>  (3) 
CCN(CC)CCCNC(=O)c1ccnc(OC2CCC(F)C2)c1

>  <score_type>  (3) 
oracle

>  <origin>  (3) 
adg

>  <m_score__min__energy>  (3) 
-7.7400000000000002

>  <m_primary>  (3) 
energy

$$$$
3:0
     RDKit          3D

 36 37  0  0  0  0  0  0  0  0999 V2000
   -6.3068   26.0755  -31.3485 H   0  0  0  0  0  0  0  0  0  0  0  0
   -5.6000   25.3010  -31.0160 C   0  0  0  0  0  0  0  0  0  0  0  0
   -4.3960   25.6650  -30.4900 N   0  0  0  0  0  0  0  0  0  0  0  0
   -3.5310   24.7050  -30.0850 C   0  0  0  0  0  0  0  0  0  0  0  0
   -3.8170   23.3620  -30.1810 C   0  0  0  0  0  0  0  0  0  0  0  0
   -2.7050   22.7070  -29.6640 C   0  0  0  0  0  0  0  0  0  0  0  0
   -2.5606   21.6206  -29.5701 H   0  0  0  0  0  0  0  0  0  0  0  0
   -1.8130   23.7050  -29.2900 C   0  0  0  0  0  0  0  0  0  0  0  0
   -0.8247   23.5233  -28.8425 H   0  0  0  0  0  0  0  0  0  0  0  0
   -2.3230   24.9270  -29.5500 N   0  0  0  0  0  0  0  0  0  0  0  0
   -1.8700   25.8500  -29.3680 H   0  0  0  0  0  0  0  0  0  0  0  0
   -5.0530   22.9350  -30.7190 C   0  0  0  0  0  0  0  0  0  0  0  0
   -5.4200   21.6920  -30.8610 N   0  0  0  0  0  0  0  0  0  0  0  0
   -5.5750   20.9190  -32.0870 C   0  0  0  0  0  0  0  0  0  0  0  0
   -4.6545   20.3451  -32.2693 H   0  0  0  0  0  0  0  0  0  0  0  0
   -5.7665   21.6140  -32.9179 H   0  0  0  0  0  0  0  0  0  0  0  0
   -6.7650   19.9430  -31.9780 C   0  0  0  0  0  0  0  0  0  0  0  0
   -6.9240   19.7155  -30.9136 H   0  0  0  0  0  0  0  0  0  0  0  0
   -6.4958   19.0601  -32.5763 H   0  0  0  0  0  0  0  0  0  0  0  0
   -8.0430   20.4510  -32.5370 N   0  0  0  0  0  0  0  0  0  0  0  0
   -9.1250   19.4380  -32.5550 C   0  0  0  0  0  0  0  0  0  0  0  0
   -9.2606   19.0657  -33.5811 H   0  0  0  0  0  0  0  0  0  0  0  0
  -10.0605   19.8970  -32.2027 H   0  0  0  0  0  0  0  0  0  0  0  0
   -8.7550   18.2770  -31.6390 C   0  0  0  0  0  0  0  0  0  0  0  0
   -8.8552   18.5915  -30.5897 H   0  0  0  0  0  0  0  0  0  0  0  0
   -9.4271   17.4282  -31.8332 H   0  0  0  0  0  0  0  0  0  0  0  0
   -7.7157   17.9736  -31.8332 H   0  0  0  0  0  0  0  0  0  0  0  0
   -8.4520   21.7520  -31.9670 C   0  0  0  0  0  0  0  0  0  0  0  0
   -7.5634   22.2655  -31.5712 H   0  0  0  0  0  0  0  0  0  0  0  0
   -8.9224   22.3484  -32.7626 H   0  0  0  0  0  0  0  0  0  0  0  0
   -9.4640   21.5670  -30.8390 C   0  0  0  0  0  0  0  0  0  0  0  0
   -8.9533   21.6604  -29.8692 H   0  0  0  0  0  0  0  0  0  0  0  0
  -10.2455   22.3372  -30.9175 H   0  0  0  0  0  0  0  0  0  0  0  0
   -9.9224   20.5702  -30.9175 H   0  0  0  0  0  0  0  0  0  0  0  0
   -5.9460   23.9410  -31.1370 C   0  0  0  0  0  0  0  0  0  0  0  0
   -6.9217   23.6622  -31.5615 H   0  0  0  0  0  0  0  0  0  0  0  0
  1  2  1  0
  2  3  1  0
  3  4  1  0
  4  5  2  0
  5  6  1  0
  6  7  1  0
  6  8  2  0
  8  9  1  0
  8 10  1  0
 10 11  1  0
  5 12  1  0
 12 13  2  0
 13 14  1  0
 14 15  1  0
 14 16  1  0
 14 17  1  0
 17 18  1  0
 17 19  1  0
 17 20  1  0
 20 21  1  0
 21 22  1  0
 21 23  1  0
 21 24  1  0
 24 25  1  0
 24 26  1  0
 24 27  1  0
 20 28  1  0
 28 29  1  0
 28 30  1  0
 28 31  1  0
 31 32  1  0
 31 33  1  0
 31 34  1  0
 12 35  1  0
 35 36  1  0
 35  2  2  0
 10  4  1  0
M  CHG  1   3  -1
M  END
>  <UniqueID>  (4) 
4

>  <SMILES>  (4) 
CCN(CC)CC/N=c1/cc[n-]c2[nH]ccc12

>  <Energy>  (4) 
75.79136323200855

>  <Genealogy>  (4) 
CCN(CC)CCN=c1cc[n-]c2[nH]ccc12 (protonated)
CCN(CC)CC/N=c1/cc[n-]c2[nH]ccc12 (cis-trans isomerization)
CCN(CC)CC/N=c1/cc[n-]c2[nH]ccc12 (3D coordinates assigned)
CCN(CC)CC/N=c1/cc[n-]c2[nH]ccc12 (optimized conformer: 75.79136323200855 kcal/mol)

>  <smiles>  (4) 
CCN(CC)CCN=c1cc[nH]c2[nH]ccc12

>  <score_type>  (4) 
oracle

>  <origin>  (4) 
adg

>  <m_score__min__energy>  (4) 
-7.9299999999999997

>  <m_primary>  (4) 
energy

$$$$
4:0
     RDKit          3D

 27 27  0  0  0  0  0  0  0  0999 V2000
   -4.0460   21.0210  -32.5040 C   0  0  0  0  0  0  0  0  0  0  0  0
   -3.6990   22.3300  -31.7960 C   0  0  0  0  0  0  0  0  0  0  0  0
   -2.8520   22.1060  -30.5380 C   0  0  0  0  0  0  0  0  0  0  0  0
   -3.5090   23.0120  -29.0880 S   0  0  0  0  0  0  0  0  0  0  0  0
   -3.0540   24.6350  -29.6940 C   0  0  0  0  0  0  0  0  0  0  0  0
   -2.0140   25.1940  -29.2560 O   0  0  0  0  0  0  0  0  0  0  0  0
   -3.8670   25.2750  -30.6820 N   0  0  0  0  0  0  0  0  0  0  0  0
   -5.2640   25.6330  -30.4670 C   0  0  0  0  0  0  0  0  0  0  0  0
   -6.1560   24.4710  -30.7870 C   0  0  0  0  0  0  0  0  0  0  0  0
   -6.7390   23.7160  -29.7590 C   0  0  0  0  0  0  0  0  0  0  0  0
   -7.5480   22.6250  -30.0850 C   0  0  0  0  0  0  0  0  0  0  0  0
   -7.7630   22.2960  -31.4240 C   0  0  0  0  0  0  0  0  0  0  0  0
   -7.1610   23.0660  -32.4220 C   0  0  0  0  0  0  0  0  0  0  0  0
   -6.3770   24.1240  -32.0850 N   0  0  0  0  0  0  0  0  0  0  0  0
   -4.2524   20.2425  -31.7548 H   0  0  0  0  0  0  0  0  0  0  0  0
   -4.9359   21.1693  -33.1334 H   0  0  0  0  0  0  0  0  0  0  0  0
   -3.1995   20.7090  -33.1334 H   0  0  0  0  0  0  0  0  0  0  0  0
   -3.1362   22.9697  -32.4917 H   0  0  0  0  0  0  0  0  0  0  0  0
   -4.6418   22.8044  -31.4860 H   0  0  0  0  0  0  0  0  0  0  0  0
   -2.8389   21.0306  -30.3071 H   0  0  0  0  0  0  0  0  0  0  0  0
   -1.8397   22.4852  -30.7417 H   0  0  0  0  0  0  0  0  0  0  0  0
   -5.4068   25.9207  -29.4149 H   0  0  0  0  0  0  0  0  0  0  0  0
   -5.5227   26.4741  -31.1270 H   0  0  0  0  0  0  0  0  0  0  0  0
   -6.5609   23.9804  -28.7062 H   0  0  0  0  0  0  0  0  0  0  0  0
   -8.0144   22.0268  -29.2884 H   0  0  0  0  0  0  0  0  0  0  0  0
   -8.3997   21.4395  -31.6907 H   0  0  0  0  0  0  0  0  0  0  0  0
   -7.3215   22.8160  -33.4811 H   0  0  0  0  0  0  0  0  0  0  0  0
  1  2  1  0
  2  3  1  0
  3  4  1  0
  4  5  1  0
  5  6  2  0
  5  7  1  0
  7  8  1  0
  8  9  1  0
  9 10  2  0
 10 11  1  0
 11 12  2  0
 12 13  1  0
 13 14  2  0
 14  9  1  0
  1 15  1  0
  1 16  1  0
  1 17  1  0
  2 18  1  0
  2 19  1  0
  3 20  1  0
  3 21  1  0
  8 22  1  0
  8 23  1  0
 10 24  1  0
 11 25  1  0
 12 26  1  0
 13 27  1  0
M  CHG  1   7  -1
M  END
>  <UniqueID>  (5) 
5

>  <SMILES>  (5) 
CCCSC(=O)[N-]Cc1ccccn1

>  <Energy>  (5) 
15.430041612088273

>  <Genealogy>  (5) 
CCCSC(=O)[N-]Cc1ccccn1 (protonated)
CCCSC(=O)[N-]Cc1ccccn1 (3D coordinates assigned)
CCCSC(=O)[N-]Cc1ccccn1 (optimized conformer: 15.430041612088273 kcal/mol)

>  <smiles>  (5) 
CCCSC(=O)NCc1ccccn1

>  <score_type>  (5) 
oracle

>  <origin>  (5) 
adg

>  <m_score__min__energy>  (5) 
-7.5199999999999996

>  <m_primary>  (5) 
energy

$$$$
5:0
     RDKit          3D

 49 50  0  0  0  0  0  0  0  0999 V2000
   -5.6180   16.6990  -32.0910 C   0  0  0  0  0  0  0  0  0  0  0  0
   -5.5060   16.9130  -33.5920 C   0  0  0  0  0  0  0  0  0  0  0  0
   -6.4530   17.8940  -34.0050 O   0  0  0  0  0  0  0  0  0  0  0  0
   -6.9000   18.9570  -33.2040 C   0  0  0  0  0  0  0  0  0  0  0  0
   -8.1920   18.9770  -32.6450 C   0  0  0  0  0  0  0  0  0  0  0  0
   -8.6030   20.0510  -31.8540 C   0  0  0  0  0  0  0  0  0  0  0  0
   -7.7270   21.1140  -31.5950 C   0  0  0  0  0  0  0  0  0  0  0  0
   -8.1840   22.2860  -30.7690 C   0  0  0  0  0  0  0  0  0  0  0  0
   -7.5490   23.5830  -31.2750 C   0  0  0  0  0  0  0  0  0  0  0  0
   -6.6110   24.1030  -30.2810 N   0  0  0  0  0  0  0  0  0  0  0  0
   -4.9730   24.0360  -30.8650 S   0  0  0  0  0  0  0  0  0  0  0  0
   -4.3490   25.4040  -30.8340 O   0  0  0  0  0  0  0  0  0  0  0  0
   -4.9880   23.5400  -32.2850 O   0  0  0  0  0  0  0  0  0  0  0  0
   -4.0450   22.9210  -29.8850 N   0  0  0  0  0  0  0  0  0  0  0  0
   -4.0590   23.3110  -28.4640 C   0  0  0  0  0  0  0  0  0  0  0  0
   -3.1650   24.5420  -28.1840 C   0  0  0  0  0  0  0  0  0  0  0  0
   -2.2090   24.7960  -29.2010 O   0  0  0  0  0  0  0  0  0  0  0  0
   -1.6320   23.5880  -29.6420 C   0  0  0  0  0  0  0  0  0  0  0  0
   -2.6710   22.7450  -30.4050 C   0  0  0  0  0  0  0  0  0  0  0  0
   -6.4430   21.1030  -32.1590 C   0  0  0  0  0  0  0  0  0  0  0  0
   -6.0230   20.0260  -32.9650 C   0  0  0  0  0  0  0  0  0  0  0  0
   -4.7440   19.9730  -33.5460 O   0  0  0  0  0  0  0  0  0  0  0  0
   -3.7180   20.9550  -33.3960 C   0  0  0  0  0  0  0  0  0  0  0  0
   -2.4260   20.3160  -32.8980 C   0  0  0  0  0  0  0  0  0  0  0  0
   -5.1702   17.5546  -31.5642 H   0  0  0  0  0  0  0  0  0  0  0  0
   -6.6782   16.6103  -31.8114 H   0  0  0  0  0  0  0  0  0  0  0  0
   -5.0867   15.7773  -31.8114 H   0  0  0  0  0  0  0  0  0  0  0  0
   -4.4907   17.2572  -33.8383 H   0  0  0  0  0  0  0  0  0  0  0  0
   -5.7092   15.9658  -34.1131 H   0  0  0  0  0  0  0  0  0  0  0  0
   -8.8818   18.1410  -32.8328 H   0  0  0  0  0  0  0  0  0  0  0  0
   -9.6188   20.0632  -31.4321 H   0  0  0  0  0  0  0  0  0  0  0  0
   -9.2788   22.3698  -30.8353 H   0  0  0  0  0  0  0  0  0  0  0  0
   -7.8768   22.1249  -29.7251 H   0  0  0  0  0  0  0  0  0  0  0  0
   -7.0112   23.3830  -32.2135 H   0  0  0  0  0  0  0  0  0  0  0  0
   -8.3397   24.3277  -31.4488 H   0  0  0  0  0  0  0  0  0  0  0  0
   -5.0924   23.5509  -28.1732 H   0  0  0  0  0  0  0  0  0  0  0  0
   -3.6626   22.4675  -27.8797 H   0  0  0  0  0  0  0  0  0  0  0  0
   -3.8121   25.4262  -28.0871 H   0  0  0  0  0  0  0  0  0  0  0  0
   -2.6043   24.3289  -27.2619 H   0  0  0  0  0  0  0  0  0  0  0  0
   -0.7865   23.8122  -30.3090 H   0  0  0  0  0  0  0  0  0  0  0  0
   -1.2826   23.0189  -28.7679 H   0  0  0  0  0  0  0  0  0  0  0  0
   -2.6552   23.0418  -31.4641 H   0  0  0  0  0  0  0  0  0  0  0  0
   -2.4001   21.6870  -30.2739 H   0  0  0  0  0  0  0  0  0  0  0  0
   -5.7576   21.9425  -31.9706 H   0  0  0  0  0  0  0  0  0  0  0  0
   -3.5320   21.4338  -34.3687 H   0  0  0  0  0  0  0  0  0  0  0  0
   -4.0492   21.7015  -32.6591 H   0  0  0  0  0  0  0  0  0  0  0  0
   -2.4189   20.3125  -31.7980 H   0  0  0  0  0  0  0  0  0  0  0  0
   -2.3617   19.2822  -33.2684 H   0  0  0  0  0  0  0  0  0  0  0  0
   -1.5654   20.8924  -33.2684 H   0  0  0  0  0  0  0  0  0  0  0  0
  1  2  1  0
  2  3  1  0
  3  4  1  0
  4  5  2  0
  5  6  1  0
  6  7  2  0
  7  8  1  0
  8  9  1  0
  9 10  1  0
 10 11  1  0
 11 12  2  0
 11 13  2  0
 11 14  1  0
 14 15  1  0
 15 16  1  0
 16 17  1  0
 17 18  1  0
 18 19  1  0
  7 20  1  0
 20 21  2  0
 21 22  1  0
 22 23  1  0
 23 24  1  0
 21  4  1  0
 19 14  1  0
  1 25  1  0
  1 26  1  0
  1 27  1  0
  2 28  1  0
  2 29  1  0
  5 30  1  0
  6 31  1  0
  8 32  1  0
  8 33  1  0
  9 34  1  0
  9 35  1  0
 15 36  1  0
 15 37  1  0
 16 38  1  0
 16 39  1  0
 18 40  1  0
 18 41  1  0
 19 42  1  0
 19 43  1  0
 20 44  1  0
 23 45  1  0
 23 46  1  0
 24 47  1  0
 24 48  1  0
 24 49  1  0
M  CHG  1  10  -1
M  END
>  <UniqueID>  (6) 
6

>  <SMILES>  (6) 
CCOc1ccc(CC[N-]S(=O)(=O)N2CCOCC2)cc1OCC

>  <Energy>  (6) 
47.91268119872241

>  <Genealogy>  (6) 
CCOc1ccc(CC[N-]S(=O)(=O)N2CCOCC2)cc1OCC (protonated)
CCOc1ccc(CC[N-]S(=O)(=O)N2CCOCC2)cc1OCC (3D coordinates assigned)
CCOc1ccc(CC[N-]S(=O)(=O)N2CCOCC2)cc1OCC (nonaromatic ring conformer: 47.91268119872241 kcal/mol)

>  <smiles>  (6) 
CCOc1ccc(CCNS(=O)(=O)N2CCOCC2)cc1OCC

>  <score_type>  (6) 
oracle

>  <origin>  (6) 
adg

>  <m_score__min__energy>  (6) 
-8.7400000000000002

>  <m_primary>  (6) 
energy

$$$$
6:0
     RDKit          3D

 44 47  0  0  0  0  0  0  0  0999 V2000
   -3.8850   22.7670  -29.8410 H   0  0  0  0  0  0  0  0  0  0  0  0
   -4.7150   22.6270  -29.3200 O   0  0  0  0  0  0  0  0  0  0  0  0
   -5.5750   23.7340  -29.4880 C   0  0  1  0  0  0  0  0  0  0  0  0
   -6.0459   23.6818  -28.4952 H   0  0  0  0  0  0  0  0  0  0  0  0
   -4.9110   25.0410  -29.9570 C   0  0  1  0  0  0  0  0  0  0  0  0
   -4.8756   25.9137  -29.2884 H   0  0  0  0  0  0  0  0  0  0  0  0
   -3.4920   24.8910  -30.2780 N   0  0  0  0  0  0  0  0  0  0  0  0
   -2.4150   24.6670  -29.3540 C   0  0  0  0  0  0  0  0  0  0  0  0
   -1.7920   25.6740  -28.9240 O   0  0  0  0  0  0  0  0  0  0  0  0
   -2.0160   23.3160  -28.8830 C   0  0  0  0  0  0  0  0  0  0  0  0
   -1.7790   22.3130  -29.7720 N   0  0  0  0  0  0  0  0  0  0  0  0
   -1.4190   21.0600  -29.3850 C   0  0  0  0  0  0  0  0  0  0  0  0
   -1.1520   20.0140  -30.4190 C   0  0  0  0  0  0  0  0  0  0  0  0
   -0.9091   19.0624  -29.9237 H   0  0  0  0  0  0  0  0  0  0  0  0
   -2.0455   19.8828  -31.0471 H   0  0  0  0  0  0  0  0  0  0  0  0
   -0.3050   20.3271  -31.0471 H   0  0  0  0  0  0  0  0  0  0  0  0
   -1.2540   20.7750  -28.0240 C   0  0  0  0  0  0  0  0  0  0  0  0
   -0.9499   19.7693  -27.6984 H   0  0  0  0  0  0  0  0  0  0  0  0
   -1.4800   21.7820  -27.0870 C   0  0  0  0  0  0  0  0  0  0  0  0
   -1.3588   21.5716  -26.0141 H   0  0  0  0  0  0  0  0  0  0  0  0
   -1.8600   23.0570  -27.5090 C   0  0  0  0  0  0  0  0  0  0  0  0
   -2.0364   23.8543  -26.7720 H   0  0  0  0  0  0  0  0  0  0  0  0
   -5.7960   25.0370  -31.2080 C   0  0  0  0  0  0  0  0  0  0  0  0
   -5.2364   24.9673  -32.1525 H   0  0  0  0  0  0  0  0  0  0  0  0
   -6.4278   25.9063  -31.4429 H   0  0  0  0  0  0  0  0  0  0  0  0
   -6.4340   23.7160  -30.7610 C   0  0  1  0  0  0  0  0  0  0  0  0
   -7.5283   23.6247  -30.6962 H   0  0  0  0  0  0  0  0  0  0  0  0
   -6.1820   22.5690  -31.6540 N   0  0  0  0  0  0  0  0  0  0  0  0
   -5.0470   22.2290  -32.3270 C   0  0  0  0  0  0  0  0  0  0  0  0
   -4.1332   22.8413  -32.3165 H   0  0  0  0  0  0  0  0  0  0  0  0
   -5.1530   21.0610  -33.0120 N   0  0  0  0  0  0  0  0  0  0  0  0
   -6.4090   20.6660  -32.7400 C   0  0  0  0  0  0  0  0  0  0  0  0
   -7.0630   19.5140  -33.1710 C   0  0  0  0  0  0  0  0  0  0  0  0
   -6.4610   18.6590  -33.9420 N   0  0  0  0  0  0  0  0  0  0  0  0
   -6.4610   17.2180  -33.7160 C   0  0  0  0  0  0  0  0  0  0  0  0
   -5.4239   16.8558  -33.6592 H   0  0  0  0  0  0  0  0  0  0  0  0
   -6.9795   16.9949  -32.7719 H   0  0  0  0  0  0  0  0  0  0  0  0
   -6.9795   16.7166  -34.5465 H   0  0  0  0  0  0  0  0  0  0  0  0
   -8.3500   19.3120  -32.7460 N   0  0  0  0  0  0  0  0  0  0  0  0
   -8.9910   20.1970  -31.9200 C   0  0  0  0  0  0  0  0  0  0  0  0
  -10.0251   19.9973  -31.6027 H   0  0  0  0  0  0  0  0  0  0  0  0
   -8.3360   21.3590  -31.4750 C   0  0  0  0  0  0  0  0  0  0  0  0
   -8.8313   22.0773  -30.8051 H   0  0  0  0  0  0  0  0  0  0  0  0
   -7.0280   21.5600  -31.9220 C   0  0  0  0  0  0  0  0  0  0  0  0
  1  2  1  0
  2  3  1  0
  3  4  1  1
  3  5  1  0
  5  6  1  1
  5  7  1  0
  7  8  1  0
  8  9  2  0
  8 10  1  0
 10 11  2  0
 11 12  1  0
 12 13  1  0
 13 14  1  0
 13 15  1  0
 13 16  1  0
 12 17  2  0
 17 18  1  0
 17 19  1  0
 19 20  1  0
 19 21  2  0
 21 22  1  0
  5 23  1  0
 23 24  1  0
 23 25  1  0
 23 26  1  0
 26 27  1  1
 26 28  1  0
 28 29  1  0
 29 30  1  0
 29 31  2  0
 31 32  1  0
 32 33  1  0
 33 34  2  0
 34 35  1  0
 35 36  1  0
 35 37  1  0
 35 38  1  0
 33 39  1  0
 39 40  1  0
 40 41  1  0
 40 42  2  0
 42 43  1  0
 42 44  1  0
 26  3  1  0
 44 28  1  0
 21 10  1  0
 44 32  2  0
M  CHG  2   7  -1  39  -1
M  END
>  <UniqueID>  (7) 
7

>  <SMILES>  (7) 
C/N=c1\[n-]ccc2c1ncn2[C@@H]1C[C@H]([N-]C(=O)c2cccc(C)n2)C1O

>  <Energy>  (7) 
154.72920570100337

>  <Genealogy>  (7) 
CN=c1[n-]ccc2c1ncn2C1CC([N-]C(=O)c2cccc(C)n2)C1O (protonated)
CN=c1[n-]ccc2c1ncn2[C@@H]1C[C@H]([N-]C(=O)c2cccc(C)n2)C1O (chirality)
C/N=c1\[n-]ccc2c1ncn2[C@@H]1C[C@H]([N-]C(=O)c2cccc(C)n2)C1O (cis-trans isomerization)
C/N=c1\[n-]ccc2c1ncn2[C@@H]1C[C@H]([N-]C(=O)c2cccc(C)n2)C1O (3D coordinates assigned)
C/N=c1\[n-]ccc2c1ncn2[C@@H]1C[C@H]([N-]C(=O)c2cccc(C)n2)C1O (nonaromatic ring conformer: 154.72920570100337 kcal/mol)

>  <smiles>  (7) 
CN=c1[nH]ccc2c1ncn2C1CC(NC(=O)c2cccc(C)n2)C1O

>  <score_type>  (7) 
oracle

>  <origin>  (7) 
adg

>  <m_score__min__energy>  (7) 
-10.09

>  <m_primary>  (7) 
energy

$$$$
7:0
     RDKit          3D

 54 56  0  0  0  0  0  0  0  0999 V2000
   -8.5460   18.5140  -31.9010 C   0  0  0  0  0  0  0  0  0  0  0  0
   -7.3700   19.0130  -32.2870 C   0  0  0  0  0  0  0  0  0  0  0  0
   -7.0410   20.3110  -32.1360 N   0  0  0  0  0  0  0  0  0  0  0  0
   -5.8120   20.4750  -32.6730 C   0  0  0  0  0  0  0  0  0  0  0  0
   -5.1610   21.6510  -32.7220 C   0  0  0  0  0  0  0  0  0  0  0  0
   -5.1180   22.5880  -31.5870 C   0  0  0  0  0  0  0  0  0  0  0  0
   -6.1790   23.3460  -31.1330 C   0  0  0  0  0  0  0  0  0  0  0  0
   -7.7920   23.4150  -31.8160 Cl  0  0  0  0  0  0  0  0  0  0  0  0
   -5.7290   24.0560  -30.0420 C   0  0  0  0  0  0  0  0  0  0  0  0
   -4.4420   23.7400  -29.7900 N   0  0  0  0  0  0  0  0  0  0  0  0
   -3.6600   24.2790  -28.7100 C   0  0  0  0  0  0  0  0  0  0  0  0
   -4.2220   24.4090  -27.4330 C   0  0  0  0  0  0  0  0  0  0  0  0
   -3.4680   24.9230  -26.3750 C   0  0  0  0  0  0  0  0  0  0  0  0
   -2.1280   25.3070  -26.5700 C   0  0  0  0  0  0  0  0  0  0  0  0
   -1.3490   25.8380  -25.4710 N   0  0  0  0  0  0  0  0  0  0  0  0
   -1.2110   27.2920  -25.3210 C   0  0  0  0  0  0  0  0  0  0  0  0
   -0.7080   24.9470  -24.4890 C   0  0  0  0  0  0  0  0  0  0  0  0
   -0.4500   23.5690  -25.0950 C   0  0  0  0  0  0  0  0  0  0  0  0
   -1.5640   25.1590  -27.8510 C   0  0  0  0  0  0  0  0  0  0  0  0
   -2.3200   24.6450  -28.9070 C   0  0  0  0  0  0  0  0  0  0  0  0
   -4.0530   22.8480  -30.7340 C   0  0  0  0  0  0  0  0  0  0  0  0
   -2.7070   22.1800  -30.7780 C   0  0  0  0  0  0  0  0  0  0  0  0
   -5.3320   19.2560  -33.1450 C   0  0  0  0  0  0  0  0  0  0  0  0
   -3.9940   19.0020  -33.7830 C   0  0  0  0  0  0  0  0  0  0  0  0
   -6.3410   18.3220  -32.9210 C   0  0  0  0  0  0  0  0  0  0  0  0
   -6.3310   16.8870  -33.2890 C   0  0  0  0  0  0  0  0  0  0  0  0
   -5.3370   15.9340  -32.7040 C   0  0  0  0  0  0  0  0  0  0  0  0
   -7.1800   16.4510  -34.1100 O   0  0  0  0  0  0  0  0  0  0  0  0
   -8.7649   17.4460  -32.0472 H   0  0  0  0  0  0  0  0  0  0  0  0
   -9.2964   19.1707  -31.4367 H   0  0  0  0  0  0  0  0  0  0  0  0
   -7.6370   21.0440  -31.6900 H   0  0  0  0  0  0  0  0  0  0  0  0
   -4.6380   21.9246  -33.6503 H   0  0  0  0  0  0  0  0  0  0  0  0
   -6.3291   24.7733  -29.4629 H   0  0  0  0  0  0  0  0  0  0  0  0
   -5.2650   24.1040  -27.2622 H   0  0  0  0  0  0  0  0  0  0  0  0
   -3.9259   25.0286  -25.3804 H   0  0  0  0  0  0  0  0  0  0  0  0
   -1.1865   27.5496  -24.2519 H   0  0  0  0  0  0  0  0  0  0  0  0
   -0.2774   27.6230  -25.7994 H   0  0  0  0  0  0  0  0  0  0  0  0
   -2.0657   27.7927  -25.7994 H   0  0  0  0  0  0  0  0  0  0  0  0
    0.2494   25.3873  -24.1735 H   0  0  0  0  0  0  0  0  0  0  0  0
   -1.3796   24.8325  -23.6254 H   0  0  0  0  0  0  0  0  0  0  0  0
   -0.3123   22.8337  -24.2885 H   0  0  0  0  0  0  0  0  0  0  0  0
   -1.3087   23.2751  -25.7165 H   0  0  0  0  0  0  0  0  0  0  0  0
    0.4569   23.6057  -25.7165 H   0  0  0  0  0  0  0  0  0  0  0  0
   -0.5174   25.4510  -28.0222 H   0  0  0  0  0  0  0  0  0  0  0  0
   -1.8616   24.5263  -29.8999 H   0  0  0  0  0  0  0  0  0  0  0  0
   -2.3515   22.0036  -29.7521 H   0  0  0  0  0  0  0  0  0  0  0  0
   -2.7916   21.2193  -31.3071 H   0  0  0  0  0  0  0  0  0  0  0  0
   -1.9930   22.8283  -31.3071 H   0  0  0  0  0  0  0  0  0  0  0  0
   -3.2356   18.8580  -32.9994 H   0  0  0  0  0  0  0  0  0  0  0  0
   -4.0514   18.0987  -34.4081 H   0  0  0  0  0  0  0  0  0  0  0  0
   -3.7164   19.8635  -34.4081 H   0  0  0  0  0  0  0  0  0  0  0  0
   -5.3861   15.9811  -31.6061 H   0  0  0  0  0  0  0  0  0  0  0  0
   -5.5686   14.9118  -33.0379 H   0  0  0  0  0  0  0  0  0  0  0  0
   -4.3255   16.2084  -33.0379 H   0  0  0  0  0  0  0  0  0  0  0  0
  1  2  2  0
  2  3  1  0
  3  4  1  0
  4  5  2  3
  5  6  1  0
  6  7  1  0
  7  8  1  0
  7  9  2  0
  9 10  1  0
 10 11  1  0
 11 12  2  0
 12 13  1  0
 13 14  2  0
 14 15  1  0
 15 16  1  0
 15 17  1  0
 17 18  1  0
 14 19  1  0
 19 20  2  0
 10 21  1  0
 21 22  1  0
  4 23  1  0
 23 24  1  0
 23 25  2  0
 25 26  1  0
 26 27  1  0
 26 28  2  0
 25  2  1  0
 21  6  2  0
 20 11  1  0
  1 29  1  0
  1 30  1  0
  3 31  1  0
  5 32  1  0
  9 33  1  0
 12 34  1  0
 13 35  1  0
 16 36  1  0
 16 37  1  0
 16 38  1  0
 17 39  1  0
 17 40  1  0
 18 41  1  0
 18 42  1  0
 18 43  1  0
 19 44  1  0
 20 45  1  0
 22 46  1  0
 22 47  1  0
 22 48  1  0
 24 49  1  0
 24 50  1  0
 24 51  1  0
 27 52  1  0
 27 53  1  0
 27 54  1  0
M  END
>  <UniqueID>  (8) 
8

>  <SMILES>  (8) 
C=c1[nH]c(=Cc2c(Cl)cn(-c3ccc(N(C)CC)cc3)c2C)c(C)c1C(C)=O

>  <Energy>  (8) 
123.94704963705219

>  <Genealogy>  (8) 
C=c1[nH]c(=Cc2c(Cl)cn(-c3ccc(N(C)CC)cc3)c2C)c(C)c1C(C)=O (3D coordinates assigned)
C=c1[nH]c(=Cc2c(Cl)cn(-c3ccc(N(C)CC)cc3)c2C)c(C)c1C(C)=O (optimized conformer: 123.94704963705219 kcal/mol)

>  <smiles>  (8) 
C=c1[nH]c(=Cc2c(Cl)cn(-c3ccc(N(C)CC)cc3)c2C)c(C)c1C(C)=O

>  <score_type>  (8) 
oracle

>  <origin>  (8) 
adg

>  <m_score__min__energy>  (8) 
-9.4199999999999999

>  <m_primary>  (8) 
energy

$$$$
8:0
     RDKit          3D

 39 41  0  0  0  0  0  0  0  0999 V2000
   -1.1990   26.7480  -29.6790 H   0  0  0  0  0  0  0  0  0  0  0  0
   -1.4820   26.0580  -28.9480 N   0  0  0  0  0  0  0  0  0  0  0  0
   -1.8650   24.8580  -29.2600 C   0  0  0  0  0  0  0  0  0  0  0  0
   -3.1190   24.6610  -29.7480 N   0  0  0  0  0  0  0  0  0  0  0  0
   -3.5890   23.4310  -30.0920 C   0  0  0  0  0  0  0  0  0  0  0  0
   -4.9750   23.3040  -30.6120 C   0  0  0  0  0  0  0  0  0  0  0  0
   -5.3330   22.1840  -31.3820 C   0  0  0  0  0  0  0  0  0  0  0  0
   -4.5819   21.4102  -31.5989 H   0  0  0  0  0  0  0  0  0  0  0  0
   -6.6330   22.0430  -31.8750 C   0  0  0  0  0  0  0  0  0  0  0  0
   -6.8939   21.1634  -32.4819 H   0  0  0  0  0  0  0  0  0  0  0  0
   -7.6090   23.0150  -31.6020 C   0  0  0  0  0  0  0  0  0  0  0  0
   -8.9480   22.8670  -32.1100 N   0  0  0  0  0  0  0  0  0  0  0  0
   -9.5030   23.8000  -32.7280 O   0  0  0  0  0  0  0  0  0  0  0  0
   -9.6380   21.6910  -31.9270 O   0  0  0  0  0  0  0  0  0  0  0  0
   -7.2570   24.1300  -30.8210 C   0  0  0  0  0  0  0  0  0  0  0  0
   -8.0116   24.8978  -30.5952 H   0  0  0  0  0  0  0  0  0  0  0  0
   -5.9560   24.2710  -30.3290 C   0  0  0  0  0  0  0  0  0  0  0  0
   -5.6974   25.1463  -29.7150 H   0  0  0  0  0  0  0  0  0  0  0  0
   -2.7570   22.3130  -29.9270 C   0  0  0  0  0  0  0  0  0  0  0  0
   -3.1289   21.3095  -30.1811 H   0  0  0  0  0  0  0  0  0  0  0  0
   -1.4530   22.4730  -29.4390 C   0  0  0  0  0  0  0  0  0  0  0  0
   -0.5960   21.2740  -29.2840 C   0  0  0  0  0  0  0  0  0  0  0  0
   -0.4460   20.6940  -28.0140 C   0  0  0  0  0  0  0  0  0  0  0  0
   -0.9654   21.1314  -27.1486 H   0  0  0  0  0  0  0  0  0  0  0  0
    0.3580   19.5660  -27.8430 C   0  0  0  0  0  0  0  0  0  0  0  0
    0.4731   19.1195  -26.8443 H   0  0  0  0  0  0  0  0  0  0  0  0
    1.0160   19.0040  -28.9380 C   0  0  0  0  0  0  0  0  0  0  0  0
    1.6542   18.1188  -28.7996 H   0  0  0  0  0  0  0  0  0  0  0  0
    0.8660   19.5630  -30.2090 C   0  0  0  0  0  0  0  0  0  0  0  0
    1.3848   19.1132  -31.0684 H   0  0  0  0  0  0  0  0  0  0  0  0
    0.0540   20.7000  -30.3980 C   0  0  0  0  0  0  0  0  0  0  0  0
   -0.1390   21.2710  -31.6670 O   0  0  0  0  0  0  0  0  0  0  0  0
   -1.1450   20.8690  -32.5890 C   0  0  0  0  0  0  0  0  0  0  0  0
   -2.0285   20.5160  -32.0369 H   0  0  0  0  0  0  0  0  0  0  0  0
   -1.4255   21.7241  -33.2215 H   0  0  0  0  0  0  0  0  0  0  0  0
   -0.7589   20.0561  -33.2215 H   0  0  0  0  0  0  0  0  0  0  0  0
   -0.9980   23.7630  -29.0920 C   0  0  0  0  0  0  0  0  0  0  0  0
    0.3240   23.9590  -28.5340 C   0  0  0  0  0  0  0  0  0  0  0  0
    1.3810   24.1170  -28.0880 N   0  0  0  0  0  0  0  0  0  0  0  0
  1  2  1  0
  2  3  2  0
  3  4  1  0
  4  5  1  0
  5  6  1  0
  6  7  2  0
  7  8  1  0
  7  9  1  0
  9 10  1  0
  9 11  2  0
 11 12  1  0
 12 13  2  0
 12 14  1  0
 11 15  1  0
 15 16  1  0
 15 17  2  0
 17 18  1  0
  5 19  2  0
 19 20  1  0
 19 21  1  0
 21 22  1  0
 22 23  2  0
 23 24  1  0
 23 25  1  0
 25 26  1  0
 25 27  2  0
 27 28  1  0
 27 29  1  0
 29 30  1  0
 29 31  2  0
 31 32  1  0
 32 33  1  0
 33 34  1  0
 33 35  1  0
 33 36  1  0
 21 37  2  0
 37 38  1  0
 38 39  3  0
 37  3  1  0
 17  6  1  0
 31 22  1  0
M  CHG  3   4  -1  12   1  14  -1
M  END
>  <UniqueID>  (9) 
9

>  <SMILES>  (9) 
[H]/N=c1\[n-]c(-c2ccc([N+](=O)[O-])cc2)cc(-c2ccccc2OC)c1C#N

>  <Energy>  (9) 
55.598240170264944

>  <Genealogy>  (9) 
COc1ccccc1-c1cc(-c2ccc([N+](=O)[O-])cc2)[n-]c(=N)c1C#N (protonated)
[H]/N=c1\[n-]c(-c2ccc([N+](=O)[O-])cc2)cc(-c2ccccc2OC)c1C#N (cis-trans isomerization)
[H]/N=c1\[n-]c(-c2ccc([N+](=O)[O-])cc2)cc(-c2ccccc2OC)c1C#N (3D coordinates assigned)
[H]/N=c1\[n-]c(-c2ccc([N+](=O)[O-])cc2)cc(-c2ccccc2OC)c1C#N (optimized conformer: 55.598240170264944 kcal/mol)

>  <smiles>  (9) 
COc1ccccc1-c1cc(-c2ccc([N+](=O)[O-])cc2)[nH]c(=N)c1C#N

>  <score_type>  (9) 
oracle

>  <origin>  (9) 
adg

>  <m_score__min__energy>  (9) 
-9.3499999999999996

>  <m_primary>  (9) 
energy

$$$$
9:0
     RDKit          3D

 65 68  0  0  0  0  0  0  0  0999 V2000
   -1.8700   19.3800  -27.0330 C   0  0  0  0  0  0  0  0  0  0  0  0
   -0.8290   18.8400  -28.0120 C   0  0  0  0  0  0  0  0  0  0  0  0
   -0.3880   19.9180  -29.0110 C   0  0  0  0  0  0  0  0  0  0  0  0
   -1.2360   19.9190  -30.1580 O   0  0  0  0  0  0  0  0  0  0  0  0
   -2.2220   20.8810  -30.4560 C   0  0  0  0  0  0  0  0  0  0  0  0
   -3.0010   21.5000  -29.4570 C   0  0  0  0  0  0  0  0  0  0  0  0
   -3.9690   22.4470  -29.8000 C   0  0  0  0  0  0  0  0  0  0  0  0
   -4.1650   22.8090  -31.1420 C   0  0  0  0  0  0  0  0  0  0  0  0
   -5.2210   23.8170  -31.5110 C   0  0  0  0  0  0  0  0  0  0  0  0
   -4.9980   25.0990  -30.7760 C   0  0  0  0  0  0  0  0  0  0  0  0
   -3.8760   25.6760  -30.8350 O   0  0  0  0  0  0  0  0  0  0  0  0
   -6.0150   25.6390  -29.9980 O   0  0  0  0  0  0  0  0  0  0  0  0
   -3.3920   22.1920  -32.1430 C   0  0  0  0  0  0  0  0  0  0  0  0
   -2.4200   21.2430  -31.8030 C   0  0  0  0  0  0  0  0  0  0  0  0
   -1.5990   20.6210  -32.8580 C   0  0  0  0  0  0  0  0  0  0  0  0
   -0.5670   21.3770  -33.4390 C   0  0  0  0  0  0  0  0  0  0  0  0
    0.1760   20.8610  -34.5020 C   0  0  0  0  0  0  0  0  0  0  0  0
   -0.1000   19.5870  -34.9990 C   0  0  0  0  0  0  0  0  0  0  0  0
    0.6370   19.1050  -36.0360 F   0  0  0  0  0  0  0  0  0  0  0  0
   -1.1330   18.8160  -34.4310 C   0  0  0  0  0  0  0  0  0  0  0  0
   -1.8810   19.3240  -33.3510 C   0  0  0  0  0  0  0  0  0  0  0  0
   -2.9190   18.4160  -32.7200 C   0  0  0  0  0  0  0  0  0  0  0  0
   -3.6410   17.6500  -33.7520 N   0  0  0  0  0  0  0  0  0  0  0  0
   -5.0150   17.2730  -33.5140 C   0  0  0  0  0  0  0  0  0  0  0  0
   -5.3490   16.7650  -32.4080 O   0  0  0  0  0  0  0  0  0  0  0  0
   -6.0770   17.5320  -34.5420 C   0  0  0  0  0  0  0  0  0  0  0  0
   -6.1030   18.9170  -34.8200 O   0  0  0  0  0  0  0  0  0  0  0  0
   -5.7150   19.6450  -33.6760 C   0  0  0  0  0  0  0  0  0  0  0  0
   -6.9530   20.1260  -32.9770 C   0  0  0  0  0  0  0  0  0  0  0  0
   -7.0570   21.4720  -32.5840 C   0  0  0  0  0  0  0  0  0  0  0  0
   -8.1910   21.9190  -31.8970 C   0  0  0  0  0  0  0  0  0  0  0  0
   -9.2200   21.0260  -31.5860 C   0  0  0  0  0  0  0  0  0  0  0  0
   -9.1180   19.6840  -31.9600 C   0  0  0  0  0  0  0  0  0  0  0  0
   -7.9880   19.2300  -32.6500 C   0  0  0  0  0  0  0  0  0  0  0  0
   -2.9600   17.2050  -34.9830 C   0  0  0  0  0  0  0  0  0  0  0  0
   -1.4390   17.4300  -34.9290 C   0  0  0  0  0  0  0  0  0  0  0  0
   -1.5299   19.2036  -26.0019 H   0  0  0  0  0  0  0  0  0  0  0  0
   -2.0013   20.4599  -27.1961 H   0  0  0  0  0  0  0  0  0  0  0  0
   -2.8284   18.8654  -27.1961 H   0  0  0  0  0  0  0  0  0  0  0  0
    0.0493   18.4953  -27.4465 H   0  0  0  0  0  0  0  0  0  0  0  0
   -1.2809   18.0101  -28.5751 H   0  0  0  0  0  0  0  0  0  0  0  0
   -0.4375   20.9033  -28.5244 H   0  0  0  0  0  0  0  0  0  0  0  0
    0.6417   19.7026  -29.3324 H   0  0  0  0  0  0  0  0  0  0  0  0
   -2.8455   21.2355  -28.4007 H   0  0  0  0  0  0  0  0  0  0  0  0
   -4.5815   22.9120  -29.0135 H   0  0  0  0  0  0  0  0  0  0  0  0
   -5.1774   24.0077  -32.5935 H   0  0  0  0  0  0  0  0  0  0  0  0
   -6.2079   23.4159  -31.2369 H   0  0  0  0  0  0  0  0  0  0  0  0
   -3.5522   22.4567  -33.1986 H   0  0  0  0  0  0  0  0  0  0  0  0
   -0.3430   22.3826  -33.0534 H   0  0  0  0  0  0  0  0  0  0  0  0
    0.9821   21.4610  -34.9495 H   0  0  0  0  0  0  0  0  0  0  0  0
   -2.4174   17.7157  -32.0359 H   0  0  0  0  0  0  0  0  0  0  0  0
   -3.6425   19.0361  -32.1704 H   0  0  0  0  0  0  0  0  0  0  0  0
   -5.8478   16.9732  -35.4613 H   0  0  0  0  0  0  0  0  0  0  0  0
   -7.0565   17.2050  -34.1629 H   0  0  0  0  0  0  0  0  0  0  0  0
   -5.1361   18.9966  -33.0019 H   0  0  0  0  0  0  0  0  0  0  0  0
   -5.0893   20.5014  -33.9677 H   0  0  0  0  0  0  0  0  0  0  0  0
   -6.2444   22.1757  -32.8173 H   0  0  0  0  0  0  0  0  0  0  0  0
   -8.2727   22.9753  -31.6011 H   0  0  0  0  0  0  0  0  0  0  0  0
  -10.1108   21.3801  -31.0464 H   0  0  0  0  0  0  0  0  0  0  0  0
   -9.9278   18.9822  -31.7116 H   0  0  0  0  0  0  0  0  0  0  0  0
   -7.9087   18.1711  -32.9372 H   0  0  0  0  0  0  0  0  0  0  0  0
   -3.1530   16.1313  -35.1245 H   0  0  0  0  0  0  0  0  0  0  0  0
   -3.3566   17.8007  -35.8184 H   0  0  0  0  0  0  0  0  0  0  0  0
   -0.9871   16.6924  -34.2495 H   0  0  0  0  0  0  0  0  0  0  0  0
   -1.0243   17.3141  -35.9412 H   0  0  0  0  0  0  0  0  0  0  0  0
  1  2  1  0
  2  3  1  0
  3  4  1  0
  4  5  1  0
  5  6  2  0
  6  7  1  0
  7  8  2  0
  8  9  1  0
  9 10  1  0
 10 11  2  0
 10 12  1  0
  8 13  1  0
 13 14  2  0
 14 15  1  0
 15 16  2  0
 16 17  1  0
 17 18  2  0
 18 19  1  0
 18 20  1  0
 20 21  2  0
 21 22  1  0
 22 23  1  0
 23 24  1  0
 24 25  2  0
 24 26  1  0
 26 27  1  0
 27 28  1  0
 28 29  1  0
 29 30  2  0
 30 31  1  0
 31 32  2  0
 32 33  1  0
 33 34  2  0
 23 35  1  0
 35 36  1  0
 14  5  1  0
 21 15  1  0
 34 29  1  0
 36 20  1  0
  1 37  1  0
  1 38  1  0
  1 39  1  0
  2 40  1  0
  2 41  1  0
  3 42  1  0
  3 43  1  0
  6 44  1  0
  7 45  1  0
  9 46  1  0
  9 47  1  0
 13 48  1  0
 16 49  1  0
 17 50  1  0
 22 51  1  0
 22 52  1  0
 26 53  1  0
 26 54  1  0
 28 55  1  0
 28 56  1  0
 30 57  1  0
 31 58  1  0
 32 59  1  0
 33 60  1  0
 34 61  1  0
 35 62  1  0
 35 63  1  0
 36 64  1  0
 36 65  1  0
M  CHG  1  12  -1
M  END
>  <UniqueID>  (10) 
10

>  <SMILES>  (10) 
CCCOc1ccc(CC(=O)[O-])cc1-c1ccc(F)c2c1CN(C(=O)COCc1ccccc1)CC2

>  <Energy>  (10) 
72.14521276262224

>  <Genealogy>  (10) 
CCCOc1ccc(CC(=O)[O-])cc1-c1ccc(F)c2c1CN(C(=O)COCc1ccccc1)CC2 (protonated)
CCCOc1ccc(CC(=O)[O-])cc1-c1ccc(F)c2c1CN(C(=O)COCc1ccccc1)CC2 (3D coordinates assigned)
CCCOc1ccc(CC(=O)[O-])cc1-c1ccc(F)c2c1CN(C(=O)COCc1ccccc1)CC2 (nonaromatic ring conformer: 72.14521276262224 kcal/mol)

>  <smiles>  (10) 
CCCOc1ccc(CC(=O)O)cc1-c1ccc(F)c2c1CN(C(=O)COCc1ccccc1)CC2

>  <score_type>  (10) 
oracle

>  <origin>  (10) 
adg

>  <m_score__min__energy>  (10) 
-12.550000000000001

>  <m_primary>  (10) 
energy

$$$$
10:0
     RDKit          3D

 30 31  0  0  0  0  0  0  0  0999 V2000
   -7.6939   23.8495  -30.9423 H   0  0  0  0  0  0  0  0  0  0  0  0
   -7.4760   22.8910  -31.4360 C   0  0  0  0  0  0  0  0  0  0  0  0
   -8.4980   21.9570  -31.6230 C   0  0  0  0  0  0  0  0  0  0  0  0
   -9.5197   22.1906  -31.2890 H   0  0  0  0  0  0  0  0  0  0  0  0
   -8.2290   20.7210  -32.2350 C   0  0  0  0  0  0  0  0  0  0  0  0
   -9.3380   19.7240  -32.4280 C   0  0  0  0  0  0  0  0  0  0  0  0
   -9.7074   19.3919  -31.4465 H   0  0  0  0  0  0  0  0  0  0  0  0
  -10.1594   20.1933  -32.9893 H   0  0  0  0  0  0  0  0  0  0  0  0
   -8.9585   18.8575  -32.9893 H   0  0  0  0  0  0  0  0  0  0  0  0
   -6.9120   20.4260  -32.6430 C   0  0  0  0  0  0  0  0  0  0  0  0
   -6.4600   18.7500  -33.4590 Br  0  0  0  0  0  0  0  0  0  0  0  0
   -5.8940   21.3680  -32.4510 C   0  0  0  0  0  0  0  0  0  0  0  0
   -4.8649   21.1276  -32.7560 H   0  0  0  0  0  0  0  0  0  0  0  0
   -6.1730   22.6120  -31.8750 C   0  0  0  0  0  0  0  0  0  0  0  0
   -5.0950   23.5360  -31.6580 N   0  0  0  0  0  0  0  0  0  0  0  0
   -4.1330   23.4320  -30.7830 C   0  0  0  0  0  0  0  0  0  0  0  0
   -3.8580   24.5130  -29.7520 C   0  0  0  0  0  0  0  0  0  0  0  0
   -4.4748   24.3193  -28.8620 H   0  0  0  0  0  0  0  0  0  0  0  0
   -4.1052   25.4841  -30.2056 H   0  0  0  0  0  0  0  0  0  0  0  0
   -2.4080   24.5490  -29.3400 C   0  0  0  0  0  0  0  0  0  0  0  0
   -1.9240   25.6020  -28.9510 O   0  0  0  0  0  0  0  0  0  0  0  0
   -1.5450   23.3150  -29.3630 C   0  0  0  0  0  0  0  0  0  0  0  0
   -1.0354   23.2172  -28.3931 H   0  0  0  0  0  0  0  0  0  0  0  0
   -0.8159   23.4193  -30.1800 H   0  0  0  0  0  0  0  0  0  0  0  0
   -2.3740   22.0550  -29.6180 C   0  0  0  0  0  0  0  0  0  0  0  0
   -3.0170   21.8665  -28.7456 H   0  0  0  0  0  0  0  0  0  0  0  0
   -1.6850   21.2135  -29.7827 H   0  0  0  0  0  0  0  0  0  0  0  0
   -3.2530   22.2100  -30.8610 C   0  0  0  0  0  0  0  0  0  0  0  0
   -3.8907   21.3190  -30.9581 H   0  0  0  0  0  0  0  0  0  0  0  0
   -2.5914   22.3234  -31.7325 H   0  0  0  0  0  0  0  0  0  0  0  0
  1  2  1  0
  2  3  2  0
  3  4  1  0
  3  5  1  0
  5  6  1  0
  6  7  1  0
  6  8  1  0
  6  9  1  0
  5 10  2  0
 10 11  1  0
 10 12  1  0
 12 13  1  0
 12 14  2  0
 14 15  1  0
 15 16  2  0
 16 17  1  0
 17 18  1  0
 17 19  1  0
 17 20  1  0
 20 21  2  0
 20 22  1  0
 22 23  1  0
 22 24  1  0
 22 25  1  0
 25 26  1  0
 25 27  1  0
 25 28  1  0
 28 29  1  0
 28 30  1  0
 14  2  1  0
 28 16  1  0
M  END
>  <UniqueID>  (11) 
11

>  <SMILES>  (11) 
Cc1ccc(/N=C2/CCCC(=O)C2)cc1Br

>  <Energy>  (11) 
34.305597874498915

>  <Genealogy>  (11) 
Cc1ccc(/N=C2/CCCC(=O)C2)cc1Br (cis-trans isomerization)
Cc1ccc(/N=C2/CCCC(=O)C2)cc1Br (3D coordinates assigned)
Cc1ccc(/N=C2/CCCC(=O)C2)cc1Br (nonaromatic ring conformer: 34.305597874498915 kcal/mol)

>  <smiles>  (11) 
Cc1ccc(N=C2CCCC(=O)C2)cc1Br

>  <score_type>  (11) 
oracle

>  <origin>  (11) 
adg

>  <m_score__min__energy>  (11) 
-7.5599999999999996

>  <m_primary>  (11) 
energy

$$$$
11:0
     RDKit          3D

 37 39  0  0  0  0  0  0  0  0999 V2000
   -3.8520   24.1730  -27.4440 C   0  0  0  0  0  0  0  0  0  0  0  0
   -2.5730   24.8870  -27.8690 C   0  0  0  0  0  0  0  0  0  0  0  0
   -2.4360   24.8680  -29.3210 N   0  0  0  0  0  0  0  0  0  0  0  0
   -3.5030   24.5290  -30.2150 C   0  0  0  0  0  0  0  0  0  0  0  0
   -4.1410   25.4450  -30.8030 O   0  0  0  0  0  0  0  0  0  0  0  0
   -3.8310   23.1450  -30.4620 N   0  0  0  0  0  0  0  0  0  0  0  0
   -5.1810   22.7860  -30.7750 C   0  0  0  0  0  0  0  0  0  0  0  0
   -6.1920   22.8950  -29.8090 C   0  0  0  0  0  0  0  0  0  0  0  0
   -7.5040   22.5340  -30.1260 C   0  0  0  0  0  0  0  0  0  0  0  0
   -7.8100   22.0630  -31.4070 C   0  0  0  0  0  0  0  0  0  0  0  0
   -6.8070   21.9620  -32.3750 C   0  0  0  0  0  0  0  0  0  0  0  0
   -5.4900   22.3360  -32.0640 C   0  0  0  0  0  0  0  0  0  0  0  0
   -4.3840   22.2160  -33.0700 C   0  0  0  0  0  0  0  0  0  0  0  0
   -3.4800   21.0350  -32.7200 C   0  0  0  0  0  0  0  0  0  0  0  0
   -2.6390   21.1520  -31.4540 C   0  0  0  0  0  0  0  0  0  0  0  0
   -1.6370   20.1750  -31.2990 C   0  0  0  0  0  0  0  0  0  0  0  0
   -0.8230   20.1460  -30.1680 C   0  0  0  0  0  0  0  0  0  0  0  0
   -0.9980   21.0850  -29.1570 C   0  0  0  0  0  0  0  0  0  0  0  0
   -0.2160   21.0450  -28.0510 F   0  0  0  0  0  0  0  0  0  0  0  0
   -1.9890   22.0580  -29.2770 C   0  0  0  0  0  0  0  0  0  0  0  0
   -2.8150   22.1200  -30.4150 C   0  0  0  0  0  0  0  0  0  0  0  0
   -3.9071   24.1422  -26.3458 H   0  0  0  0  0  0  0  0  0  0  0  0
   -4.7234   24.7151  -27.8398 H   0  0  0  0  0  0  0  0  0  0  0  0
   -3.8479   23.1467  -27.8398 H   0  0  0  0  0  0  0  0  0  0  0  0
   -2.6085   25.9303  -27.5223 H   0  0  0  0  0  0  0  0  0  0  0  0
   -1.7112   24.3686  -27.4234 H   0  0  0  0  0  0  0  0  0  0  0  0
   -5.9519   23.2649  -28.8013 H   0  0  0  0  0  0  0  0  0  0  0  0
   -8.2965   22.6202  -29.3680 H   0  0  0  0  0  0  0  0  0  0  0  0
   -8.8418   21.7716  -31.6529 H   0  0  0  0  0  0  0  0  0  0  0  0
   -7.0496   21.5893  -33.3811 H   0  0  0  0  0  0  0  0  0  0  0  0
   -4.8167   22.0591  -34.0691 H   0  0  0  0  0  0  0  0  0  0  0  0
   -3.7877   23.1403  -33.0606 H   0  0  0  0  0  0  0  0  0  0  0  0
   -4.1217   20.1484  -32.6101 H   0  0  0  0  0  0  0  0  0  0  0  0
   -2.7500   20.9838  -33.5413 H   0  0  0  0  0  0  0  0  0  0  0  0
   -1.4938   19.4198  -32.0859 H   0  0  0  0  0  0  0  0  0  0  0  0
   -0.0403   19.3787  -30.0748 H   0  0  0  0  0  0  0  0  0  0  0  0
   -2.1279   22.7903  -28.4680 H   0  0  0  0  0  0  0  0  0  0  0  0
  1  2  1  0
  2  3  1  0
  3  4  1  0
  4  5  2  0
  4  6  1  0
  6  7  1  0
  7  8  2  0
  8  9  1  0
  9 10  2  0
 10 11  1  0
 11 12  2  0
 12 13  1  0
 13 14  1  0
 14 15  1  0
 15 16  2  0
 16 17  1  0
 17 18  2  0
 18 19  1  0
 18 20  1  0
 20 21  2  0
 21  6  1  0
 12  7  1  0
 21 15  1  0
  1 22  1  0
  1 23  1  0
  1 24  1  0
  2 25  1  0
  2 26  1  0
  8 27  1  0
  9 28  1  0
 10 29  1  0
 11 30  1  0
 13 31  1  0
 13 32  1  0
 14 33  1  0
 14 34  1  0
 16 35  1  0
 17 36  1  0
 20 37  1  0
M  CHG  1   3  -1
M  END
>  <UniqueID>  (12) 
12

>  <SMILES>  (12) 
CC[N-]C(=O)N1c2ccccc2CCc2ccc(F)cc21

>  <Energy>  (12) 
53.799210571040874

>  <Genealogy>  (12) 
CC[N-]C(=O)N1c2ccccc2CCc2ccc(F)cc21 (protonated)
CC[N-]C(=O)N1c2ccccc2CCc2ccc(F)cc21 (3D coordinates assigned)
CC[N-]C(=O)N1c2ccccc2CCc2ccc(F)cc21 (nonaromatic ring conformer: 53.799210571040874 kcal/mol)

>  <smiles>  (12) 
CCNC(=O)N1c2ccccc2CCc2ccc(F)cc21

>  <score_type>  (12) 
oracle

>  <origin>  (12) 
adg

>  <m_score__min__energy>  (12) 
-6.6399999999999997

>  <m_primary>  (12) 
energy

$$$$
12:0
     RDKit          3D

 59 63  0  0  0  0  0  0  0  0999 V2000
   -4.2350   24.3550  -30.8460 O   0  0  0  0  0  0  0  0  0  0  0  0
   -4.4160   23.1260  -30.6140 C   0  0  0  0  0  0  0  0  0  0  0  0
   -5.7060   22.5160  -31.0040 C   0  0  0  0  0  0  0  0  0  0  0  0
   -6.9780   23.0410  -30.7930 C   0  0  0  0  0  0  0  0  0  0  0  0
   -7.8460   22.1330  -31.3600 C   0  0  0  0  0  0  0  0  0  0  0  0
   -9.2350   22.2120  -31.4450 C   0  0  0  0  0  0  0  0  0  0  0  0
   -9.9090   21.1720  -32.1020 C   0  0  0  0  0  0  0  0  0  0  0  0
   -9.1910   20.0940  -32.6480 C   0  0  0  0  0  0  0  0  0  0  0  0
   -7.7910   20.0610  -32.5280 C   0  0  0  0  0  0  0  0  0  0  0  0
   -7.0450   18.9540  -33.0510 N   0  0  0  0  0  0  0  0  0  0  0  0
   -7.1500   17.6360  -32.4170 C   0  0  0  0  0  0  0  0  0  0  0  0
   -5.7640   17.1330  -31.9860 C   0  0  0  0  0  0  0  0  0  0  0  0
   -4.6370   17.4780  -32.9870 C   0  0  0  0  0  0  0  0  0  0  0  0
   -5.1680   17.9740  -34.3390 C   0  0  0  0  0  0  0  0  0  0  0  0
   -6.0830   19.1870  -34.1360 C   0  0  0  0  0  0  0  0  0  0  0  0
   -7.1730   21.0950  -31.8890 N   0  0  0  0  0  0  0  0  0  0  0  0
   -5.8600   21.3170  -31.6890 C   0  0  0  0  0  0  0  0  0  0  0  0
   -3.4090   22.3570  -29.9100 N   0  0  0  0  0  0  0  0  0  0  0  0
   -2.0620   22.6020  -30.4590 C   0  0  0  0  0  0  0  0  0  0  0  0
   -1.0260   21.6670  -29.7950 C   0  0  0  0  0  0  0  0  0  0  0  0
   -1.2860   21.4100  -28.3500 N   0  0  0  0  0  0  0  0  0  0  0  0
   -1.8060   20.0400  -28.0790 C   0  0  2  0  0  0  0  0  0  0  0  0
   -2.7220   19.9810  -26.8830 C   0  0  0  0  0  0  0  0  0  0  0  0
   -2.5040   18.5820  -26.3530 C   0  0  0  0  0  0  0  0  0  0  0  0
   -1.2200   18.1430  -26.7270 O   0  0  0  0  0  0  0  0  0  0  0  0
   -0.7000   19.0760  -27.6470 C   0  0  0  0  0  0  0  0  0  0  0  0
   -2.1080   22.4860  -27.7490 C   0  0  0  0  0  0  0  0  0  0  0  0
   -3.4710   22.6500  -28.4560 C   0  0  0  0  0  0  0  0  0  0  0  0
   -7.2355   23.9807  -30.2824 H   0  0  0  0  0  0  0  0  0  0  0  0
   -9.7839   23.0610  -31.0116 H   0  0  0  0  0  0  0  0  0  0  0  0
  -11.0051   21.2002  -32.1904 H   0  0  0  0  0  0  0  0  0  0  0  0
   -9.7214   19.2813  -33.1659 H   0  0  0  0  0  0  0  0  0  0  0  0
   -7.7990   17.7109  -31.5320 H   0  0  0  0  0  0  0  0  0  0  0  0
   -7.5760   16.9263  -33.1414 H   0  0  0  0  0  0  0  0  0  0  0  0
   -5.5166   17.5869  -31.0150 H   0  0  0  0  0  0  0  0  0  0  0  0
   -5.8226   16.0358  -31.9345 H   0  0  0  0  0  0  0  0  0  0  0  0
   -4.0066   18.2651  -32.5477 H   0  0  0  0  0  0  0  0  0  0  0  0
   -4.0692   16.5548  -33.1747 H   0  0  0  0  0  0  0  0  0  0  0  0
   -4.3206   18.2612  -34.9789 H   0  0  0  0  0  0  0  0  0  0  0  0
   -5.7429   17.1669  -34.8166 H   0  0  0  0  0  0  0  0  0  0  0  0
   -5.4665   20.0631  -33.8863 H   0  0  0  0  0  0  0  0  0  0  0  0
   -6.6440   19.3584  -35.0666 H   0  0  0  0  0  0  0  0  0  0  0  0
   -5.0427   20.6568  -32.0148 H   0  0  0  0  0  0  0  0  0  0  0  0
   -3.6190   21.3450  -30.0670 H   0  0  0  0  0  0  0  0  0  0  0  0
   -2.0741   22.4163  -31.5431 H   0  0  0  0  0  0  0  0  0  0  0  0
   -1.7802   23.6455  -30.2550 H   0  0  0  0  0  0  0  0  0  0  0  0
   -1.0377   20.7038  -30.3261 H   0  0  0  0  0  0  0  0  0  0  0  0
   -0.0510   22.1720  -29.8600 H   0  0  0  0  0  0  0  0  0  0  0  0
   -2.2983   19.7752  -29.0264 H   0  0  0  0  0  0  0  0  0  0  0  0
   -2.4416   20.7355  -26.1332 H   0  0  0  0  0  0  0  0  0  0  0  0
   -3.7728   20.1901  -27.1323 H   0  0  0  0  0  0  0  0  0  0  0  0
   -2.5868   18.5865  -25.2561 H   0  0  0  0  0  0  0  0  0  0  0  0
   -3.2636   17.9048  -26.7706 H   0  0  0  0  0  0  0  0  0  0  0  0
    0.1151   19.6425  -27.1730 H   0  0  0  0  0  0  0  0  0  0  0  0
   -0.3136   18.5438  -28.5288 H   0  0  0  0  0  0  0  0  0  0  0  0
   -2.2858   22.2453  -26.6905 H   0  0  0  0  0  0  0  0  0  0  0  0
   -1.5565   23.4313  -27.8603 H   0  0  0  0  0  0  0  0  0  0  0  0
   -4.1924   21.9625  -27.9903 H   0  0  0  0  0  0  0  0  0  0  0  0
   -3.7751   23.7013  -28.3448 H   0  0  0  0  0  0  0  0  0  0  0  0
  1  2  2  0
  2  3  1  0
  3  4  1  0
  4  5  2  0
  5  6  1  0
  6  7  2  0
  7  8  1  0
  8  9  2  0
  9 10  1  0
 10 11  1  0
 11 12  1  0
 12 13  1  0
 13 14  1  0
 14 15  1  0
  9 16  1  0
 16 17  1  0
  2 18  1  0
 18 19  1  0
 19 20  1  0
 20 21  1  0
 21 22  1  0
 22 23  1  0
 23 24  1  0
 24 25  1  0
 25 26  1  0
 21 27  1  0
 27 28  1  0
 17  3  2  0
 28 18  1  0
 16  5  1  0
 26 22  1  0
 15 10  1  0
  4 29  1  0
  6 30  1  0
  7 31  1  0
  8 32  1  0
 11 33  1  0
 11 34  1  0
 12 35  1  0
 12 36  1  0
 13 37  1  0
 13 38  1  0
 14 39  1  0
 14 40  1  0
 15 41  1  0
 15 42  1  0
 17 43  1  0
 18 44  1  0
 19 45  1  0
 19 46  1  0
 20 47  1  0
 20 48  1  0
 22 49  1  6
 23 50  1  0
 23 51  1  0
 24 52  1  0
 24 53  1  0
 26 54  1  0
 26 55  1  0
 27 56  1  0
 27 57  1  0
 28 58  1  0
 28 59  1  0
M  CHG  1  18   1
M  END
>  <UniqueID>  (13) 
13

>  <SMILES>  (13) 
O=C(c1cc2cccc(N3CCCCC3)n2c1)[NH+]1CCN([C@@H]2CCOC2)CC1

>  <Energy>  (13) 
116.69432752261076

>  <Genealogy>  (13) 
O=C(c1cc2cccc(N3CCCCC3)n2c1)[NH+]1CCN(C2CCOC2)CC1 (protonated)
O=C(c1cc2cccc(N3CCCCC3)n2c1)[NH+]1CCN([C@@H]2CCOC2)CC1 (chirality)
O=C(c1cc2cccc(N3CCCCC3)n2c1)[NH+]1CCN([C@@H]2CCOC2)CC1 (3D coordinates assigned)
O=C(c1cc2cccc(N3CCCCC3)n2c1)[NH+]1CCN([C@@H]2CCOC2)CC1 (nonaromatic ring conformer: 116.69432752261076 kcal/mol)

>  <smiles>  (13) 
O=C(c1cc2cccc(N3CCCCC3)n2c1)N1CCN(C2CCOC2)CC1

>  <score_type>  (13) 
oracle

>  <origin>  (13) 
adg

>  <m_score__min__energy>  (13) 
-9.1899999999999995

>  <m_primary>  (13) 
energy

$$$$
13:0
     RDKit          3D

 92 94  0  0  0  0  0  0  0  0999 V2000
   -9.0330   18.4240  -31.9370 C   0  0  0  0  0  0  0  0  0  0  0  0
   -8.6700   19.7920  -31.3680 C   0  0  0  0  0  0  0  0  0  0  0  0
   -9.1900   20.9230  -32.2680 C   0  0  0  0  0  0  0  0  0  0  0  0
   -9.1200   22.3050  -31.5920 C   0  0  0  0  0  0  0  0  0  0  0  0
   -7.9340   23.1840  -32.0300 C   0  0  0  0  0  0  0  0  0  0  0  0
   -7.0970   23.7580  -30.8730 C   0  0  0  0  0  0  0  0  0  0  0  0
   -5.7000   23.1090  -30.7400 C   0  0  0  0  0  0  0  0  0  0  0  0
   -5.6470   21.6490  -31.2230 C   0  0  0  0  0  0  0  0  0  0  0  0
   -4.3810   21.3500  -32.0450 C   0  0  0  0  0  0  0  0  0  0  0  0
   -4.7100   20.7670  -33.4300 C   0  0  0  0  0  0  0  0  0  0  0  0
   -6.0680   20.0430  -33.4530 C   0  0  0  0  0  0  0  0  0  0  0  0
   -6.1110   18.7160  -34.2660 C   0  0  0  0  0  0  0  0  0  0  0  0
   -5.7630   17.4230  -33.5690 N   0  0  0  0  0  0  0  0  0  0  0  0
   -5.7630   17.6450  -32.1000 C   0  0  0  0  0  0  0  0  0  0  0  0
   -6.7760   16.3810  -33.9170 C   0  0  0  0  0  0  0  0  0  0  0  0
   -4.4100   16.9710  -34.0980 C   0  0  0  0  0  0  0  0  0  0  0  0
   -3.2230   16.6840  -33.0900 C   0  0  0  0  0  0  0  0  0  0  0  0
   -1.9100   17.4010  -33.2860 N   0  0  0  0  0  0  0  0  0  0  0  0
   -1.5430   17.3970  -34.7240 C   0  0  0  0  0  0  0  0  0  0  0  0
   -1.9420   18.8100  -32.8140 C   0  0  0  0  0  0  0  0  0  0  0  0
   -0.8230   16.6440  -32.5740 C   0  0  0  0  0  0  0  0  0  0  0  0
    0.1720   17.5040  -31.7490 C   0  0  0  0  0  0  0  0  0  0  0  0
    0.3080   16.9490  -30.3190 C   0  0  0  0  0  0  0  0  0  0  0  0
    0.9950   17.8960  -29.4100 N   0  0  0  0  0  0  0  0  0  0  0  0
    0.9530   19.2200  -29.9950 C   0  0  0  0  0  0  0  0  0  0  0  0
    1.8890   19.5960  -30.7540 O   0  0  0  0  0  0  0  0  0  0  0  0
   -0.2200   20.1030  -29.7740 C   0  0  0  0  0  0  0  0  0  0  0  0
   -0.4690   21.2090  -30.6020 C   0  0  0  0  0  0  0  0  0  0  0  0
   -1.5930   22.0120  -30.3840 C   0  0  0  0  0  0  0  0  0  0  0  0
   -2.4720   21.7270  -29.3350 C   0  0  0  0  0  0  0  0  0  0  0  0
   -2.2290   20.6360  -28.4890 C   0  0  0  0  0  0  0  0  0  0  0  0
   -3.0860   20.3570  -27.4140 C   0  0  0  0  0  0  0  0  0  0  0  0
   -2.8150   19.2830  -26.5600 C   0  0  0  0  0  0  0  0  0  0  0  0
   -1.6910   18.4800  -26.7700 C   0  0  0  0  0  0  0  0  0  0  0  0
   -0.8300   18.7360  -27.8510 C   0  0  0  0  0  0  0  0  0  0  0  0
   -1.0970   19.8150  -28.7120 C   0  0  0  0  0  0  0  0  0  0  0  0
    0.3660   17.8990  -28.1040 C   0  0  0  0  0  0  0  0  0  0  0  0
    0.8190   17.1570  -27.1890 O   0  0  0  0  0  0  0  0  0  0  0  0
   -9.2195   17.7213  -31.1115 H   0  0  0  0  0  0  0  0  0  0  0  0
   -9.9387   18.5125  -32.5549 H   0  0  0  0  0  0  0  0  0  0  0  0
   -8.2025   18.0518  -32.5549 H   0  0  0  0  0  0  0  0  0  0  0  0
   -9.1167   19.8949  -30.3681 H   0  0  0  0  0  0  0  0  0  0  0  0
   -7.5740   19.8667  -31.3124 H   0  0  0  0  0  0  0  0  0  0  0  0
   -8.5831   20.9494  -33.1850 H   0  0  0  0  0  0  0  0  0  0  0  0
  -10.2481   20.7137  -32.4842 H   0  0  0  0  0  0  0  0  0  0  0  0
  -10.0495   22.8457  -31.8237 H   0  0  0  0  0  0  0  0  0  0  0  0
   -8.9817   22.1151  -30.5174 H   0  0  0  0  0  0  0  0  0  0  0  0
   -7.2716   22.5751  -32.6629 H   0  0  0  0  0  0  0  0  0  0  0  0
   -8.3654   24.0466  -32.5591 H   0  0  0  0  0  0  0  0  0  0  0  0
   -6.9649   24.8370  -31.0410 H   0  0  0  0  0  0  0  0  0  0  0  0
   -7.6427   23.5439  -29.9422 H   0  0  0  0  0  0  0  0  0  0  0  0
   -4.9858   23.6975  -31.3346 H   0  0  0  0  0  0  0  0  0  0  0  0
   -5.4496   23.1022  -29.6689 H   0  0  0  0  0  0  0  0  0  0  0  0
   -5.6637   20.9856  -30.3457 H   0  0  0  0  0  0  0  0  0  0  0  0
   -6.5177   21.4784  -31.8732 H   0  0  0  0  0  0  0  0  0  0  0  0
   -3.8171   22.2849  -32.1793 H   0  0  0  0  0  0  0  0  0  0  0  0
   -3.7913   20.6014  -31.4956 H   0  0  0  0  0  0  0  0  0  0  0  0
   -4.7344   21.5875  -34.1622 H   0  0  0  0  0  0  0  0  0  0  0  0
   -3.9321   20.0298  -33.6775 H   0  0  0  0  0  0  0  0  0  0  0  0
   -6.3457   19.8121  -32.4140 H   0  0  0  0  0  0  0  0  0  0  0  0
   -6.7647   20.7277  -33.9589 H   0  0  0  0  0  0  0  0  0  0  0  0
   -7.1344   18.6082  -34.6545 H   0  0  0  0  0  0  0  0  0  0  0  0
   -5.3137   18.8371  -35.0141 H   0  0  0  0  0  0  0  0  0  0  0  0
   -4.7259   17.6998  -31.7375 H   0  0  0  0  0  0  0  0  0  0  0  0
   -6.2815   18.5879  -31.8717 H   0  0  0  0  0  0  0  0  0  0  0  0
   -6.2815   16.8117  -31.6032 H   0  0  0  0  0  0  0  0  0  0  0  0
   -7.1929   15.9522  -32.9938 H   0  0  0  0  0  0  0  0  0  0  0  0
   -7.5844   16.8380  -34.5067 H   0  0  0  0  0  0  0  0  0  0  0  0
   -6.2964   15.5858  -34.5067 H   0  0  0  0  0  0  0  0  0  0  0  0
   -4.5827   16.0406  -34.6588 H   0  0  0  0  0  0  0  0  0  0  0  0
   -4.0552   17.8440  -34.6654 H   0  0  0  0  0  0  0  0  0  0  0  0
   -3.5846   16.9421  -32.0837 H   0  0  0  0  0  0  0  0  0  0  0  0
   -2.9761   15.6266  -33.2660 H   0  0  0  0  0  0  0  0  0  0  0  0
   -0.4475   17.3851  -34.8228 H   0  0  0  0  0  0  0  0  0  0  0  0
   -1.9645   16.5034  -35.2075 H   0  0  0  0  0  0  0  0  0  0  0  0
   -1.9449   18.2996  -35.2075 H   0  0  0  0  0  0  0  0  0  0  0  0
   -1.9424   18.8283  -31.7142 H   0  0  0  0  0  0  0  0  0  0  0  0
   -1.0557   19.3426  -33.1893 H   0  0  0  0  0  0  0  0  0  0  0  0
   -2.8515   19.3018  -33.1893 H   0  0  0  0  0  0  0  0  0  0  0  0
   -1.3027   15.9312  -31.8871 H   0  0  0  0  0  0  0  0  0  0  0  0
   -0.2229   16.1698  -33.3646 H   0  0  0  0  0  0  0  0  0  0  0  0
    1.1568   17.4878  -32.2387 H   0  0  0  0  0  0  0  0  0  0  0  0
   -0.2082   18.5348  -31.6957 H   0  0  0  0  0  0  0  0  0  0  0  0
   -0.6973   16.7443  -29.9222 H   0  0  0  0  0  0  0  0  0  0  0  0
    0.9145   16.0328  -30.3705 H   0  0  0  0  0  0  0  0  0  0  0  0
    2.0000   17.6160  -29.3040 H   0  0  0  0  0  0  0  0  0  0  0  0
    0.2221   21.4447  -31.4247 H   0  0  0  0  0  0  0  0  0  0  0  0
   -1.7865   22.8724  -31.0414 H   0  0  0  0  0  0  0  0  0  0  0  0
   -3.3566   22.3605  -29.1730 H   0  0  0  0  0  0  0  0  0  0  0  0
   -3.9731   20.9843  -27.2423 H   0  0  0  0  0  0  0  0  0  0  0  0
   -3.4904   19.0693  -25.7185 H   0  0  0  0  0  0  0  0  0  0  0  0
   -1.4792   17.6444  -26.0867 H   0  0  0  0  0  0  0  0  0  0  0  0
  1  2  1  0
  2  3  1  0
  3  4  1  0
  4  5  1  0
  5  6  1  0
  6  7  1  0
  7  8  1  0
  8  9  1  0
  9 10  1  0
 10 11  1  0
 11 12  1  0
 12 13  1  0
 13 14  1  0
 13 15  1  0
 13 16  1  0
 16 17  1  0
 17 18  1  0
 18 19  1  0
 18 20  1  0
 18 21  1  0
 21 22  1  0
 22 23  1  0
 23 24  1  0
 24 25  1  0
 25 26  2  0
 25 27  1  0
 27 28  1  0
 28 29  2  0
 29 30  1  0
 30 31  2  0
 31 32  1  0
 32 33  2  0
 33 34  1  0
 34 35  2  0
 35 36  1  0
 35 37  1  0
 37 38  2  0
 37 24  1  0
 36 27  2  0
 36 31  1  0
  1 39  1  0
  1 40  1  0
  1 41  1  0
  2 42  1  0
  2 43  1  0
  3 44  1  0
  3 45  1  0
  4 46  1  0
  4 47  1  0
  5 48  1  0
  5 49  1  0
  6 50  1  0
  6 51  1  0
  7 52  1  0
  7 53  1  0
  8 54  1  0
  8 55  1  0
  9 56  1  0
  9 57  1  0
 10 58  1  0
 10 59  1  0
 11 60  1  0
 11 61  1  0
 12 62  1  0
 12 63  1  0
 14 64  1  0
 14 65  1  0
 14 66  1  0
 15 67  1  0
 15 68  1  0
 15 69  1  0
 16 70  1  0
 16 71  1  0
 17 72  1  0
 17 73  1  0
 19 74  1  0
 19 75  1  0
 19 76  1  0
 20 77  1  0
 20 78  1  0
 20 79  1  0
 21 80  1  0
 21 81  1  0
 22 82  1  0
 22 83  1  0
 23 84  1  0
 23 85  1  0
 24 86  1  0
 28 87  1  0
 29 88  1  0
 30 89  1  0
 32 90  1  0
 33 91  1  0
 34 92  1  0
M  CHG  3  13   1  18   1  24   1
M  END
>  <UniqueID>  (14) 
14

>  <SMILES>  (14) 
CCCCCCCCCCCC[N+](C)(C)CC[N+](C)(C)CCC[NH+]1C(=O)c2cccc3cccc(c23)C1=O

>  <Energy>  (14) 
136.74166064387498

>  <Genealogy>  (14) 
CCCCCCCCCCCC[N+](C)(C)CC[N+](C)(C)CCC[NH+]1C(=O)c2cccc3cccc(c23)C1=O (protonated)
CCCCCCCCCCCC[N+](C)(C)CC[N+](C)(C)CCC[NH+]1C(=O)c2cccc3cccc(c23)C1=O (3D coordinates assigned)
CCCCCCCCCCCC[N+](C)(C)CC[N+](C)(C)CCC[NH+]1C(=O)c2cccc3cccc(c23)C1=O (nonaromatic ring conformer: 136.74166064387498 kcal/mol)

>  <smiles>  (14) 
CCCCCCCCCCCC[N+](C)(C)CC[N+](C)(C)CCCN1C(=O)c2cccc3cccc(c23)C1=O

>  <score_type>  (14) 
oracle

>  <origin>  (14) 
adg

>  <m_score__min__energy>  (14) 
-7.6699999999999999

>  <m_primary>  (14) 
energy

$$$$
14:0
     RDKit          3D

 54 57  0  0  1  0  0  0  0  0999 V2000
   -6.3800   25.6770  -29.3760 C   0  0  0  0  0  0  0  0  0  0  0  0
   -5.1390   25.6770  -30.0740 O   0  0  0  0  0  0  0  0  0  0  0  0
   -4.5580   24.4510  -30.3650 C   0  0  0  0  0  0  0  0  0  0  0  0
   -5.3490   23.5190  -30.9950 C   0  0  0  0  0  0  0  0  0  0  0  0
   -4.7540   22.3080  -31.2770 C   0  0  0  0  0  0  0  0  0  0  0  0
   -5.5160   21.3860  -31.8850 N   0  0  0  0  0  0  0  0  0  0  0  0
   -4.9440   20.2050  -32.1570 C   0  0  0  0  0  0  0  0  0  0  0  0
   -5.7620   19.2230  -32.8060 N   0  0  0  0  0  0  0  0  0  0  0  0
   -6.2820   18.1070  -32.0590 C   0  0  0  0  0  0  0  0  0  0  0  0
   -6.8210   17.1080  -33.0750 C   0  0  0  0  0  0  0  0  0  0  0  0
   -5.7020   16.8480  -34.0730 C   0  0  0  0  0  0  0  0  0  0  0  0
   -5.5390   18.0900  -34.9100 C   0  0  0  0  0  0  0  0  0  0  0  0
   -6.0980   19.3060  -34.2190 C   0  0  0  0  0  0  0  0  0  0  0  0
   -3.6760   19.9360  -31.8480 N   0  0  0  0  0  0  0  0  0  0  0  0
   -2.9190   20.8720  -31.2370 C   0  0  0  0  0  0  0  0  0  0  0  0
   -1.7370   20.6010  -31.0010 N   0  0  0  0  0  0  0  0  0  0  0  0
   -0.9700   20.6860  -29.8670 C   0  0  0  0  0  0  0  0  0  0  0  0
   -1.4620   19.9760  -28.6520 C   0  0  0  0  0  0  0  0  0  0  0  0
   -0.7590   18.9330  -28.0650 C   0  0  0  0  0  0  0  0  0  0  0  0
   -1.2300   18.2790  -26.9230 C   0  0  0  0  0  0  0  0  0  0  0  0
   -2.4110   18.6360  -26.3250 C   0  0  0  0  0  0  0  0  0  0  0  0
   -3.1210   19.6670  -26.8930 C   0  0  0  0  0  0  0  0  0  0  0  0
   -2.6540   20.3000  -28.0060 C   0  0  0  0  0  0  0  0  0  0  0  0
   -3.4330   22.1030  -30.9230 C   0  0  0  0  0  0  0  0  0  0  0  0
   -2.6600   23.0290  -30.2990 C   0  0  0  0  0  0  0  0  0  0  0  0
   -3.2610   24.2750  -30.0050 C   0  0  0  0  0  0  0  0  0  0  0  0
   -2.5710   25.2930  -29.3750 O   0  0  0  0  0  0  0  0  0  0  0  0
   -1.9360   25.0200  -28.1420 C   0  0  0  0  0  0  0  0  0  0  0  0
   -6.6996   24.6399  -29.1963 H   0  0  0  0  0  0  0  0  0  0  0  0
   -6.2593   26.1955  -28.4134 H   0  0  0  0  0  0  0  0  0  0  0  0
   -7.1399   26.1955  -29.9791 H   0  0  0  0  0  0  0  0  0  0  0  0
   -6.3963   23.7279  -31.2587 H   0  0  0  0  0  0  0  0  0  0  0  0
   -6.5030   21.5670  -32.1380 H   0  0  0  0  0  0  0  0  0  0  0  0
   -5.4816   17.6452  -31.4622 H   0  0  0  0  0  0  0  0  0  0  0  0
   -7.0732   18.4306  -31.3667 H   0  0  0  0  0  0  0  0  0  0  0  0
   -7.1046   16.1719  -32.5718 H   0  0  0  0  0  0  0  0  0  0  0  0
   -7.7157   17.5020  -33.5793 H   0  0  0  0  0  0  0  0  0  0  0  0
   -4.7656   16.6308  -33.5382 H   0  0  0  0  0  0  0  0  0  0  0  0
   -5.9448   15.9836  -34.7084 H   0  0  0  0  0  0  0  0  0  0  0  0
   -4.4683   18.2510  -35.1038 H   0  0  0  0  0  0  0  0  0  0  0  0
   -6.0927   17.9450  -35.8493 H   0  0  0  0  0  0  0  0  0  0  0  0
   -5.6579   20.2158  -34.6532 H   0  0  0  0  0  0  0  0  0  0  0  0
   -7.1897   19.3466  -34.3473 H   0  0  0  0  0  0  0  0  0  0  0  0
    0.0226   20.2780  -30.1085 H   0  0  0  0  0  0  0  0  0  0  0  0
   -0.9854   21.7519  -29.5959 H   0  0  0  0  0  0  0  0  0  0  0  0
    0.1943   18.6125  -28.5105 H   0  0  0  0  0  0  0  0  0  0  0  0
   -0.6383   17.4573  -26.4933 H   0  0  0  0  0  0  0  0  0  0  0  0
   -2.7760   18.1178  -25.4260 H   0  0  0  0  0  0  0  0  0  0  0  0
   -4.0745   19.9839  -26.4453 H   0  0  0  0  0  0  0  0  0  0  0  0
   -3.2573   21.1204  -28.4218 H   0  0  0  0  0  0  0  0  0  0  0  0
   -1.6132   22.8193  -30.0341 H   0  0  0  0  0  0  0  0  0  0  0  0
   -2.6024   25.3065  -27.3150 H   0  0  0  0  0  0  0  0  0  0  0  0
   -1.7105   23.9454  -28.0757 H   0  0  0  0  0  0  0  0  0  0  0  0
   -1.0010   25.5957  -28.0757 H   0  0  0  0  0  0  0  0  0  0  0  0
  1  2  1  0
  2  3  1  0
  3  4  2  0
  4  5  1  0
  5  6  1  0
  6  7  1  0
  7  8  1  0
  8  9  1  0
  9 10  1  0
 10 11  1  0
 11 12  1  0
 12 13  1  0
  7 14  2  0
 14 15  1  0
 15 16  2  0
 16 17  1  0
 17 18  1  0
 18 19  2  0
 19 20  1  0
 20 21  2  0
 21 22  1  0
 22 23  2  0
 15 24  1  0
 24 25  1  0
 25 26  2  0
 26 27  1  0
 27 28  1  0
 26  3  1  0
 24  5  2  0
 13  8  1  0
 23 18  1  0
  1 29  1  0
  1 30  1  0
  1 31  1  0
  4 32  1  0
  6 33  1  0
  9 34  1  0
  9 35  1  0
 10 36  1  0
 10 37  1  0
 11 38  1  0
 11 39  1  0
 12 40  1  0
 12 41  1  0
 13 42  1  0
 13 43  1  0
 17 44  1  0
 17 45  1  0
 19 46  1  0
 20 47  1  0
 21 48  1  0
 22 49  1  0
 23 50  1  0
 25 51  1  0
 28 52  1  0
 28 53  1  0
 28 54  1  0
M  END
>  <smiles>  (15) 
COc1cc2[nH]c(N3CCCCC3)nc(=NCc3ccccc3)c2cc1OC

>  <score_type>  (15) 
oracle

>  <origin>  (15) 
adg

>  <m_score__min__energy>  (15) 
-8.6099999999999994

>  <m_primary>  (15) 
energy

$$$$
15:0
     RDKit          3D

 34 36  0  0  0  0  0  0  0  0999 V2000
   -2.6410   21.4580  -30.9600 C   0  0  0  0  0  0  0  0  0  0  0  0
   -3.1870   22.6080  -31.5980 O   0  0  0  0  0  0  0  0  0  0  0  0
   -4.4340   23.1970  -31.3240 C   0  0  0  0  0  0  0  0  0  0  0  0
   -4.5880   24.4950  -30.7780 C   0  0  0  0  0  0  0  0  0  0  0  0
   -3.4950   25.2940  -30.4690 O   0  0  0  0  0  0  0  0  0  0  0  0
   -5.8680   25.0060  -30.5360 C   0  0  0  0  0  0  0  0  0  0  0  0
   -7.0040   24.2490  -30.8260 C   0  0  0  0  0  0  0  0  0  0  0  0
   -6.8700   22.9610  -31.3680 C   0  0  0  0  0  0  0  0  0  0  0  0
   -7.9830   22.1610  -31.6710 C   0  0  0  0  0  0  0  0  0  0  0  0
   -9.1560   22.5710  -31.4610 O   0  0  0  0  0  0  0  0  0  0  0  0
   -7.7850   20.8890  -32.2080 C   0  0  0  0  0  0  0  0  0  0  0  0
   -6.4750   20.4340  -32.4400 C   0  0  0  0  0  0  0  0  0  0  0  0
   -6.2010   19.0900  -33.0090 C   0  0  0  0  0  0  0  0  0  0  0  0
   -7.1380   18.0420  -32.9180 C   0  0  0  0  0  0  0  0  0  0  0  0
   -6.8600   16.7940  -33.4810 C   0  0  0  0  0  0  0  0  0  0  0  0
   -5.6510   16.5740  -34.1410 C   0  0  0  0  0  0  0  0  0  0  0  0
   -4.7030   17.6010  -34.2380 C   0  0  0  0  0  0  0  0  0  0  0  0
   -3.4220   17.3790  -34.9860 C   0  0  0  0  0  0  0  0  0  0  0  0
   -4.9910   18.8610  -33.6890 C   0  0  0  0  0  0  0  0  0  0  0  0
   -5.4460   21.2200  -32.1300 O   0  0  0  0  0  0  0  0  0  0  0  0
   -5.5810   22.4390  -31.6150 C   0  0  0  0  0  0  0  0  0  0  0  0
   -2.6997   21.5816  -29.8685 H   0  0  0  0  0  0  0  0  0  0  0  0
   -3.2121   20.5668  -31.2593 H   0  0  0  0  0  0  0  0  0  0  0  0
   -1.5894   21.3372  -31.2593 H   0  0  0  0  0  0  0  0  0  0  0  0
   -5.9800   26.0151  -30.1127 H   0  0  0  0  0  0  0  0  0  0  0  0
   -8.0046   24.6617  -30.6298 H   0  0  0  0  0  0  0  0  0  0  0  0
   -8.6459   20.2477  -32.4478 H   0  0  0  0  0  0  0  0  0  0  0  0
   -8.0945   18.2073  -32.4005 H   0  0  0  0  0  0  0  0  0  0  0  0
   -7.5975   15.9816  -33.4035 H   0  0  0  0  0  0  0  0  0  0  0  0
   -5.4411   15.5906  -34.5869 H   0  0  0  0  0  0  0  0  0  0  0  0
   -2.5993   17.2364  -34.2699 H   0  0  0  0  0  0  0  0  0  0  0  0
   -3.5170   16.4839  -35.6183 H   0  0  0  0  0  0  0  0  0  0  0  0
   -3.2103   18.2538  -35.6183 H   0  0  0  0  0  0  0  0  0  0  0  0
   -4.2621   19.6783  -33.7919 H   0  0  0  0  0  0  0  0  0  0  0  0
  1  2  1  0
  2  3  1  0
  3  4  2  0
  4  5  1  0
  4  6  1  0
  6  7  2  0
  7  8  1  0
  8  9  1  0
  9 10  2  0
  9 11  1  0
 11 12  2  0
 12 13  1  0
 13 14  2  0
 14 15  1  0
 15 16  2  0
 16 17  1  0
 17 18  1  0
 17 19  2  0
 12 20  1  0
 20 21  1  0
 21  3  1  0
 21  8  2  0
 19 13  1  0
  1 22  1  0
  1 23  1  0
  1 24  1  0
  6 25  1  0
  7 26  1  0
 11 27  1  0
 14 28  1  0
 15 29  1  0
 16 30  1  0
 18 31  1  0
 18 32  1  0
 18 33  1  0
 19 34  1  0
M  CHG  1   5  -1
M  END
>  <UniqueID>  (16) 
15

>  <SMILES>  (16) 
COc1c([O-])ccc2c(=O)cc(-c3cccc(C)c3)oc12

>  <Energy>  (16) 
46.87539835448238

>  <Genealogy>  (16) 
COc1c([O-])ccc2c(=O)cc(-c3cccc(C)c3)oc12 (protonated)
COc1c([O-])ccc2c(=O)cc(-c3cccc(C)c3)oc12 (3D coordinates assigned)
COc1c([O-])ccc2c(=O)cc(-c3cccc(C)c3)oc12 (optimized conformer: 46.87539835448238 kcal/mol)

>  <smiles>  (16) 
COc1c(O)ccc2c(=O)cc(-c3cccc(C)c3)oc12

>  <score_type>  (16) 
oracle

>  <origin>  (16) 
adg

>  <m_score__min__energy>  (16) 
-11

>  <m_primary>  (16) 
energy

$$$$
16:0
     RDKit          3D

 57 60  0  0  0  0  0  0  0  0999 V2000
   -2.0750   21.5430  -32.2580 C   0  0  0  0  0  0  0  0  0  0  0  0
   -2.5690   22.3050  -31.0320 C   0  0  0  0  0  0  0  0  0  0  0  0
   -4.0610   22.5390  -31.1150 C   0  0  0  0  0  0  0  0  0  0  0  0
   -4.8320   21.5280  -31.6220 N   0  0  0  0  0  0  0  0  0  0  0  0
   -6.1760   21.6650  -31.6650 C   0  0  0  0  0  0  0  0  0  0  0  0
   -7.1180   20.7600  -32.1150 C   0  0  0  0  0  0  0  0  0  0  0  0
   -6.8920   19.4530  -32.7640 C   0  0  0  0  0  0  0  0  0  0  0  0
   -6.1240   19.3680  -33.9350 C   0  0  0  0  0  0  0  0  0  0  0  0
   -5.9090   18.1300  -34.5490 C   0  0  0  0  0  0  0  0  0  0  0  0
   -6.4600   16.9700  -33.9990 C   0  0  0  0  0  0  0  0  0  0  0  0
   -6.2510   15.7700  -34.5940 F   0  0  0  0  0  0  0  0  0  0  0  0
   -7.2240   17.0470  -32.8330 C   0  0  0  0  0  0  0  0  0  0  0  0
   -7.4390   18.2830  -32.2150 C   0  0  0  0  0  0  0  0  0  0  0  0
   -8.3280   21.4050  -31.8560 C   0  0  0  0  0  0  0  0  0  0  0  0
   -9.6960   20.9090  -32.2040 C   0  0  0  0  0  0  0  0  0  0  0  0
   -8.0990   22.6110  -31.2860 N   0  0  0  0  0  0  0  0  0  0  0  0
   -6.7870   22.7470  -31.1770 N   0  0  0  0  0  0  0  0  0  0  0  0
   -6.1100   23.8010  -30.6480 C   0  0  0  0  0  0  0  0  0  0  0  0
   -6.8730   24.9670  -30.0620 C   0  0  0  0  0  0  0  0  0  0  0  0
   -4.6870   23.7290  -30.6100 C   0  0  0  0  0  0  0  0  0  0  0  0
   -3.8690   24.9030  -30.0940 C   0  0  0  0  0  0  0  0  0  0  0  0
   -3.0920   24.5570  -28.8130 C   0  0  0  0  0  0  0  0  0  0  0  0
   -1.6530   24.8220  -28.9790 N   0  0  0  0  0  0  0  0  0  0  0  0
   -1.1970   26.0110  -28.2370 C   0  0  0  0  0  0  0  0  0  0  0  0
   -1.0440   25.7330  -26.7610 C   0  0  0  0  0  0  0  0  0  0  0  0
   -0.6250   24.4710  -26.3180 C   0  0  0  0  0  0  0  0  0  0  0  0
   -0.4830   24.2340  -24.9480 C   0  0  0  0  0  0  0  0  0  0  0  0
   -0.7510   25.2200  -24.0530 N   0  0  0  0  0  0  0  0  0  0  0  0
   -1.1630   26.4530  -24.4530 C   0  0  0  0  0  0  0  0  0  0  0  0
   -1.3190   26.7320  -25.8130 C   0  0  0  0  0  0  0  0  0  0  0  0
   -1.5029   20.6606  -31.9353 H   0  0  0  0  0  0  0  0  0  0  0  0
   -2.9366   21.2209  -32.8613 H   0  0  0  0  0  0  0  0  0  0  0  0
   -1.4293   22.1981  -32.8613 H   0  0  0  0  0  0  0  0  0  0  0  0
   -2.3448   21.7196  -30.1281 H   0  0  0  0  0  0  0  0  0  0  0  0
   -2.0594   23.2790  -30.9912 H   0  0  0  0  0  0  0  0  0  0  0  0
   -4.3870   20.6440  -31.9560 H   0  0  0  0  0  0  0  0  0  0  0  0
   -5.6891   20.2790  -34.3721 H   0  0  0  0  0  0  0  0  0  0  0  0
   -5.3051   18.0695  -35.4664 H   0  0  0  0  0  0  0  0  0  0  0  0
   -7.6577   16.1337  -32.3996 H   0  0  0  0  0  0  0  0  0  0  0  0
   -8.0393   18.3383  -31.2949 H   0  0  0  0  0  0  0  0  0  0  0  0
  -10.2580   20.7052  -31.2806 H   0  0  0  0  0  0  0  0  0  0  0  0
  -10.2240   21.6729  -32.7936 H   0  0  0  0  0  0  0  0  0  0  0  0
   -9.6117   19.9842  -32.7936 H   0  0  0  0  0  0  0  0  0  0  0  0
   -6.8379   24.9134  -28.9639 H   0  0  0  0  0  0  0  0  0  0  0  0
   -6.4166   25.9098  -30.3979 H   0  0  0  0  0  0  0  0  0  0  0  0
   -7.9197   24.9262  -30.3979 H   0  0  0  0  0  0  0  0  0  0  0  0
   -3.1518   25.2032  -30.8722 H   0  0  0  0  0  0  0  0  0  0  0  0
   -4.5669   25.7185  -29.8534 H   0  0  0  0  0  0  0  0  0  0  0  0
   -3.4766   25.1681  -27.9832 H   0  0  0  0  0  0  0  0  0  0  0  0
   -3.2282   23.4865  -28.5997 H   0  0  0  0  0  0  0  0  0  0  0  0
   -1.1050   23.9850  -28.6690 H   0  0  0  0  0  0  0  0  0  0  0  0
   -0.2249   26.3302  -28.6408 H   0  0  0  0  0  0  0  0  0  0  0  0
   -1.9560   26.7980  -28.3573 H   0  0  0  0  0  0  0  0  0  0  0  0
   -0.4094   23.6727  -27.0435 H   0  0  0  0  0  0  0  0  0  0  0  0
   -0.1533   23.2463  -24.5935 H   0  0  0  0  0  0  0  0  0  0  0  0
   -1.3736   27.2314  -23.7048 H   0  0  0  0  0  0  0  0  0  0  0  0
   -1.6549   27.7274  -26.1391 H   0  0  0  0  0  0  0  0  0  0  0  0
  1  2  1  0
  2  3  1  0
  3  4  2  0
  4  5  1  0
  5  6  2  0
  6  7  1  0
  7  8  2  0
  8  9  1  0
  9 10  2  0
 10 11  1  0
 10 12  1  0
 12 13  2  0
  6 14  1  0
 14 15  1  0
 14 16  2  0
 16 17  1  0
 17 18  1  0
 18 19  1  0
 18 20  2  0
 20 21  1  0
 21 22  1  0
 22 23  1  0
 23 24  1  0
 24 25  1  0
 25 26  2  0
 26 27  1  0
 27 28  2  0
 28 29  1  0
 29 30  2  0
 20  3  1  0
 30 25  1  0
 17  5  1  0
 13  7  1  0
  1 31  1  0
  1 32  1  0
  1 33  1  0
  2 34  1  0
  2 35  1  0
  4 36  1  0
  8 37  1  0
  9 38  1  0
 12 39  1  0
 13 40  1  0
 15 41  1  0
 15 42  1  0
 15 43  1  0
 19 44  1  0
 19 45  1  0
 19 46  1  0
 21 47  1  0
 21 48  1  0
 22 49  1  0
 22 50  1  0
 23 51  1  0
 24 52  1  0
 24 53  1  0
 26 54  1  0
 27 55  1  0
 29 56  1  0
 30 57  1  0
M  CHG  1   4   1
M  END
>  <UniqueID>  (17) 
16

>  <SMILES>  (17) 
CCc1[nH+]c2c(-c3ccc(F)cc3)c(C)nn2c(C)c1CCNCc1ccncc1

>  <Energy>  (17) 
101.81247724219962

>  <Genealogy>  (17) 
CCc1[nH+]c2c(-c3ccc(F)cc3)c(C)nn2c(C)c1CCNCc1ccncc1 (protonated)
CCc1[nH+]c2c(-c3ccc(F)cc3)c(C)nn2c(C)c1CCNCc1ccncc1 (3D coordinates assigned)
CCc1[nH+]c2c(-c3ccc(F)cc3)c(C)nn2c(C)c1CCNCc1ccncc1 (optimized conformer: 101.81247724219962 kcal/mol)

>  <smiles>  (17) 
CCc1nc2c(-c3ccc(F)cc3)c(C)nn2c(C)c1CCNCc1ccncc1

>  <score_type>  (17) 
oracle

>  <origin>  (17) 
adg

>  <m_score__min__energy>  (17) 
-9.2799999999999994

>  <m_primary>  (17) 
energy

$$$$
17:0
     RDKit          3D

 61 65  0  0  0  0  0  0  0  0999 V2000
   -1.1610   25.1290  -27.5550 C   0  0  0  0  0  0  0  0  0  0  0  0
   -0.6920   24.6690  -28.8170 O   0  0  0  0  0  0  0  0  0  0  0  0
   -1.2700   23.6300  -29.5620 C   0  0  0  0  0  0  0  0  0  0  0  0
   -0.5560   22.4410  -29.8160 C   0  0  0  0  0  0  0  0  0  0  0  0
   -1.1130   21.4270  -30.5940 C   0  0  0  0  0  0  0  0  0  0  0  0
   -2.3960   21.5710  -31.1330 C   0  0  0  0  0  0  0  0  0  0  0  0
   -2.9660   20.4990  -31.9890 C   0  0  0  0  0  0  0  0  0  0  0  0
   -2.1410   19.7890  -32.8010 N   0  0  0  0  0  0  0  0  0  0  0  0
   -2.6060   18.7550  -33.5460 C   0  0  0  0  0  0  0  0  0  0  0  0
   -1.7160   17.9840  -34.3100 C   0  0  0  0  0  0  0  0  0  0  0  0
   -2.1610   16.9010  -34.9930 N   0  0  0  0  0  0  0  0  0  0  0  0
   -3.4620   16.5250  -34.9570 C   0  0  0  0  0  0  0  0  0  0  0  0
   -4.3920   17.2640  -34.2220 C   0  0  0  0  0  0  0  0  0  0  0  0
   -3.9860   18.4340  -33.5310 C   0  0  0  0  0  0  0  0  0  0  0  0
   -4.8630   19.2410  -32.8200 N   0  0  0  0  0  0  0  0  0  0  0  0
   -6.3430   19.0780  -32.9230 C   0  0  0  0  0  0  0  0  0  0  0  0
   -7.0810   20.4100  -33.2780 C   0  0  0  0  0  0  0  0  0  0  0  0
   -8.2570   20.7120  -32.3390 C   0  0  0  0  0  0  0  0  0  0  0  0
   -9.1680   19.4860  -32.2000 C   0  0  0  0  0  0  0  0  0  0  0  0
   -8.4220   18.2210  -31.7220 C   0  0  0  0  0  0  0  0  0  0  0  0
   -6.8940   18.3860  -31.6590 C   0  0  0  0  0  0  0  0  0  0  0  0
   -4.3400   20.1960  -31.9700 C   0  0  0  0  0  0  0  0  0  0  0  0
   -5.0850   20.7990  -31.1470 O   0  0  0  0  0  0  0  0  0  0  0  0
   -3.1150   22.7490  -30.8810 C   0  0  0  0  0  0  0  0  0  0  0  0
   -2.5770   23.7750  -30.0910 C   0  0  0  0  0  0  0  0  0  0  0  0
   -3.3920   24.9050  -29.8930 O   0  0  0  0  0  0  0  0  0  0  0  0
   -4.8160   24.9410  -29.7750 C   0  0  0  0  0  0  0  0  0  0  0  0
   -5.4470   24.8930  -31.1570 C   0  0  0  0  0  0  0  0  0  0  0  0
   -6.8080   24.2570  -30.9510 C   0  0  0  0  0  0  0  0  0  0  0  0
   -6.6490   23.3090  -29.7690 C   0  0  0  0  0  0  0  0  0  0  0  0
   -5.3600   23.7070  -29.0510 C   0  0  0  0  0  0  0  0  0  0  0  0
   -0.6251   24.6034  -26.7509 H   0  0  0  0  0  0  0  0  0  0  0  0
   -0.9813   26.2108  -27.4692 H   0  0  0  0  0  0  0  0  0  0  0  0
   -2.2391   24.9284  -27.4692 H   0  0  0  0  0  0  0  0  0  0  0  0
    0.4522   22.3119  -29.3954 H   0  0  0  0  0  0  0  0  0  0  0  0
   -0.5400   20.5077  -30.7853 H   0  0  0  0  0  0  0  0  0  0  0  0
   -1.1220   20.0260  -32.8300 H   0  0  0  0  0  0  0  0  0  0  0  0
   -0.6521   18.2600  -34.3547 H   0  0  0  0  0  0  0  0  0  0  0  0
   -3.7882   15.6319  -35.5102 H   0  0  0  0  0  0  0  0  0  0  0  0
   -5.4416   16.9377  -34.1791 H   0  0  0  0  0  0  0  0  0  0  0  0
   -6.5527   18.4165  -33.7765 H   0  0  0  0  0  0  0  0  0  0  0  0
   -6.3598   21.2382  -33.2143 H   0  0  0  0  0  0  0  0  0  0  0  0
   -7.4901   20.2993  -34.2931 H   0  0  0  0  0  0  0  0  0  0  0  0
   -7.8666   20.9860  -31.3478 H   0  0  0  0  0  0  0  0  0  0  0  0
   -8.8427   21.5419  -32.7611 H   0  0  0  0  0  0  0  0  0  0  0  0
   -9.9596   19.7200  -31.4730 H   0  0  0  0  0  0  0  0  0  0  0  0
   -9.5736   19.2669  -33.1987 H   0  0  0  0  0  0  0  0  0  0  0  0
   -8.7846   17.9644  -30.7157 H   0  0  0  0  0  0  0  0  0  0  0  0
   -8.6281   17.4308  -32.4589 H   0  0  0  0  0  0  0  0  0  0  0  0
   -6.6369   18.9938  -30.7789 H   0  0  0  0  0  0  0  0  0  0  0  0
   -6.4431   17.3849  -31.5916 H   0  0  0  0  0  0  0  0  0  0  0  0
   -4.1200   22.8701  -31.3114 H   0  0  0  0  0  0  0  0  0  0  0  0
   -5.0566   25.8609  -29.2220 H   0  0  0  0  0  0  0  0  0  0  0  0
   -5.5537   25.9078  -31.5677 H   0  0  0  0  0  0  0  0  0  0  0  0
   -4.8316   24.3251  -31.8703 H   0  0  0  0  0  0  0  0  0  0  0  0
   -7.5605   25.0271  -30.7258 H   0  0  0  0  0  0  0  0  0  0  0  0
   -7.1473   23.7262  -31.8527 H   0  0  0  0  0  0  0  0  0  0  0  0
   -7.5071   23.4066  -29.0877 H   0  0  0  0  0  0  0  0  0  0  0  0
   -6.6049   22.2630  -30.1064 H   0  0  0  0  0  0  0  0  0  0  0  0
   -5.5710   23.9473  -27.9985 H   0  0  0  0  0  0  0  0  0  0  0  0
   -4.6289   22.8852  -29.0660 H   0  0  0  0  0  0  0  0  0  0  0  0
  1  2  1  0
  2  3  1  0
  3  4  2  0
  4  5  1  0
  5  6  2  0
  6  7  1  0
  7  8  2  0
  8  9  1  0
  9 10  2  0
 10 11  1  0
 11 12  2  0
 12 13  1  0
 13 14  2  0
 14 15  1  0
 15 16  1  0
 16 17  1  0
 17 18  1  0
 18 19  1  0
 19 20  1  0
 20 21  1  0
 15 22  1  0
 22 23  2  0
  6 24  1  0
 24 25  2  0
 25 26  1  0
 26 27  1  0
 27 28  1  0
 28 29  1  0
 29 30  1  0
 30 31  1  0
 25  3  1  0
 31 27  1  0
 22  7  1  0
 14  9  1  0
 21 16  1  0
  1 32  1  0
  1 33  1  0
  1 34  1  0
  4 35  1  0
  5 36  1  0
  8 37  1  0
 10 38  1  0
 12 39  1  0
 13 40  1  0
 16 41  1  0
 17 42  1  0
 17 43  1  0
 18 44  1  0
 18 45  1  0
 19 46  1  0
 19 47  1  0
 20 48  1  0
 20 49  1  0
 21 50  1  0
 21 51  1  0
 24 52  1  0
 27 53  1  0
 28 54  1  0
 28 55  1  0
 29 56  1  0
 29 57  1  0
 30 58  1  0
 30 59  1  0
 31 60  1  0
 31 61  1  0
M  CHG  1   8   1
M  END
>  <UniqueID>  (18) 
17

>  <SMILES>  (18) 
COc1ccc(-c2[nH+]c3cnccc3n(C3CCCCC3)c2=O)cc1OC1CCCC1

>  <Energy>  (18) 
95.60192938301067

>  <Genealogy>  (18) 
COc1ccc(-c2[nH+]c3cnccc3n(C3CCCCC3)c2=O)cc1OC1CCCC1 (protonated)
COc1ccc(-c2[nH+]c3cnccc3n(C3CCCCC3)c2=O)cc1OC1CCCC1 (3D coordinates assigned)
COc1ccc(-c2[nH+]c3cnccc3n(C3CCCCC3)c2=O)cc1OC1CCCC1 (nonaromatic ring conformer: 95.60192938301067 kcal/mol)

>  <smiles>  (18) 
COc1ccc(-c2nc3cnccc3n(C3CCCCC3)c2=O)cc1OC1CCCC1

>  <score_type>  (18) 
oracle

>  <origin>  (18) 
adg

>  <m_score__min__energy>  (18) 
-9.6899999999999995

>  <m_primary>  (18) 
energy

$$$$
18:0
     RDKit          3D

 42 45  0  0  0  0  0  0  0  0999 V2000
   -1.5770   24.9190  -28.1930 C   0  0  0  0  0  0  0  0  0  0  0  0
   -2.3160   25.2700  -29.3590 O   0  0  0  0  0  0  0  0  0  0  0  0
   -3.4150   24.5480  -29.8510 C   0  0  0  0  0  0  0  0  0  0  0  0
   -4.7310   25.0340  -29.7590 C   0  0  0  0  0  0  0  0  0  0  0  0
   -5.7980   24.2890  -30.2610 C   0  0  0  0  0  0  0  0  0  0  0  0
   -5.5750   23.0440  -30.8730 C   0  0  0  0  0  0  0  0  0  0  0  0
   -6.7250   22.2620  -31.3960 C   0  0  0  0  0  0  0  0  0  0  0  0
   -6.5390   21.0050  -31.6910 N   0  0  0  0  0  0  0  0  0  0  0  0
   -7.5690   20.2070  -32.2110 N   0  0  0  0  0  0  0  0  0  0  0  0
   -7.5090   18.9930  -32.7950 C   0  0  0  0  0  0  0  0  0  0  0  0
   -6.2780   18.2140  -33.0620 C   0  0  0  0  0  0  0  0  0  0  0  0
   -6.0210   17.0460  -32.3210 C   0  0  0  0  0  0  0  0  0  0  0  0
   -4.8670   16.2940  -32.5600 C   0  0  0  0  0  0  0  0  0  0  0  0
   -3.9620   16.6940  -33.5480 C   0  0  0  0  0  0  0  0  0  0  0  0
   -2.3860   15.6650  -33.8740 Br  0  0  0  0  0  0  0  0  0  0  0  0
   -4.2160   17.8430  -34.3010 C   0  0  0  0  0  0  0  0  0  0  0  0
   -5.3690   18.5980  -34.0640 C   0  0  0  0  0  0  0  0  0  0  0  0
   -8.7560   18.5530  -33.0910 N   0  0  0  0  0  0  0  0  0  0  0  0
   -9.5960   19.5010  -32.6960 N   0  0  0  0  0  0  0  0  0  0  0  0
   -8.8690   20.4920  -32.1580 C   0  0  0  0  0  0  0  0  0  0  0  0
   -9.5000   21.9140  -31.2870 S   0  0  0  0  0  0  0  0  0  0  0  0
   -8.0470   22.9420  -31.7250 C   0  0  0  0  0  0  0  0  0  0  0  0
   -4.2600   22.5520  -30.9540 C   0  0  0  0  0  0  0  0  0  0  0  0
   -3.1780   23.3000  -30.4490 C   0  0  0  0  0  0  0  0  0  0  0  0
   -1.8550   22.8360  -30.5180 O   0  0  0  0  0  0  0  0  0  0  0  0
   -1.4790   21.5200  -30.9090 C   0  0  0  0  0  0  0  0  0  0  0  0
   -2.1536   25.1929  -27.2972 H   0  0  0  0  0  0  0  0  0  0  0  0
   -1.3887   23.8352  -28.1907 H   0  0  0  0  0  0  0  0  0  0  0  0
   -0.6180   25.4578  -28.1907 H   0  0  0  0  0  0  0  0  0  0  0  0
   -4.9207   26.0095  -29.2874 H   0  0  0  0  0  0  0  0  0  0  0  0
   -6.8229   24.6795  -30.1771 H   0  0  0  0  0  0  0  0  0  0  0  0
   -6.7333   16.7221  -31.5479 H   0  0  0  0  0  0  0  0  0  0  0  0
   -4.6707   15.3865  -31.9701 H   0  0  0  0  0  0  0  0  0  0  0  0
   -3.5072   18.1546  -35.0823 H   0  0  0  0  0  0  0  0  0  0  0  0
   -5.5662   19.4979  -34.6651 H   0  0  0  0  0  0  0  0  0  0  0  0
  -10.6370   19.4410  -32.7560 H   0  0  0  0  0  0  0  0  0  0  0  0
   -8.0762   23.1507  -32.8046 H   0  0  0  0  0  0  0  0  0  0  0  0
   -8.1023   23.8657  -31.1303 H   0  0  0  0  0  0  0  0  0  0  0  0
   -4.0740   21.5717  -31.4170 H   0  0  0  0  0  0  0  0  0  0  0  0
   -1.3039   20.9071  -30.0125 H   0  0  0  0  0  0  0  0  0  0  0  0
   -2.2849   21.0712  -31.5083 H   0  0  0  0  0  0  0  0  0  0  0  0
   -0.5577   21.5647  -31.5083 H   0  0  0  0  0  0  0  0  0  0  0  0
  1  2  1  0
  2  3  1  0
  3  4  2  0
  4  5  1  0
  5  6  2  0
  6  7  1  0
  7  8  2  0
  8  9  1  0
  9 10  1  0
 10 11  1  0
 11 12  2  0
 12 13  1  0
 13 14  2  0
 14 15  1  0
 14 16  1  0
 16 17  2  0
 10 18  2  0
 18 19  1  0
 19 20  2  0
 20 21  1  0
 21 22  1  0
  6 23  1  0
 23 24  2  0
 24 25  1  0
 25 26  1  0
 24  3  1  0
 22  7  1  0
 20  9  1  0
 17 11  1  0
  1 27  1  0
  1 28  1  0
  1 29  1  0
  4 30  1  0
  5 31  1  0
 12 32  1  0
 13 33  1  0
 16 34  1  0
 17 35  1  0
 19 36  1  0
 22 37  1  0
 22 38  1  0
 23 39  1  0
 26 40  1  0
 26 41  1  0
 26 42  1  0
M  CHG  1  19   1
M  END
>  <UniqueID>  (19) 
18

>  <SMILES>  (19) 
COc1ccc(C2=Nn3c(-c4ccc(Br)cc4)n[nH+]c3SC2)cc1OC

>  <Energy>  (19) 
95.86249015196988

>  <Genealogy>  (19) 
COc1ccc(C2=Nn3c(-c4ccc(Br)cc4)n[nH+]c3SC2)cc1OC (protonated)
COc1ccc(C2=Nn3c(-c4ccc(Br)cc4)n[nH+]c3SC2)cc1OC (3D coordinates assigned)
COc1ccc(C2=Nn3c(-c4ccc(Br)cc4)n[nH+]c3SC2)cc1OC (nonaromatic ring conformer: 95.86249015196988 kcal/mol)

>  <smiles>  (19) 
COc1ccc(C2=Nn3c(nnc3-c3ccc(Br)cc3)SC2)cc1OC

>  <score_type>  (19) 
oracle

>  <origin>  (19) 
adg

>  <m_score__min__energy>  (19) 
-9.1099999999999994

>  <m_primary>  (19) 
energy

$$$$
19:0
     RDKit          3D

 39 40  0  0  0  0  0  0  0  0999 V2000
   -1.2210   26.0430  -27.8250 C   0  0  0  0  0  0  0  0  0  0  0  0
   -1.9750   25.6570  -28.9680 O   0  0  0  0  0  0  0  0  0  0  0  0
   -2.1700   24.3300  -29.3890 C   0  0  0  0  0  0  0  0  0  0  0  0
   -1.1050   23.4080  -29.4400 C   0  0  0  0  0  0  0  0  0  0  0  0
   -1.3230   22.0960  -29.8650 C   0  0  0  0  0  0  0  0  0  0  0  0
   -2.6020   21.6860  -30.2420 C   0  0  0  0  0  0  0  0  0  0  0  0
   -2.8110   20.4110  -30.6550 F   0  0  0  0  0  0  0  0  0  0  0  0
   -3.6680   22.5860  -30.1950 C   0  0  0  0  0  0  0  0  0  0  0  0
   -3.4650   23.9100  -29.7670 C   0  0  0  0  0  0  0  0  0  0  0  0
   -4.6460   24.8570  -29.7150 C   0  0  0  0  0  0  0  0  0  0  0  0
   -5.0710   25.2980  -31.0540 N   0  0  0  0  0  0  0  0  0  0  0  0
   -5.7430   24.2410  -31.8310 C   0  0  0  0  0  0  0  0  0  0  0  0
   -7.0420   23.8060  -31.1450 C   0  0  0  0  0  0  0  0  0  0  0  0
   -7.5160   22.4670  -31.6440 C   0  0  0  0  0  0  0  0  0  0  0  0
   -8.8570   22.0900  -31.4870 C   0  0  0  0  0  0  0  0  0  0  0  0
   -9.2920   20.8670  -32.0000 C   0  0  0  0  0  0  0  0  0  0  0  0
   -8.4200   20.0500  -32.6490 N   0  0  0  0  0  0  0  0  0  0  0  0
   -7.1120   20.3860  -32.8170 C   0  0  0  0  0  0  0  0  0  0  0  0
   -6.1980   19.4670  -33.5620 C   0  0  0  0  0  0  0  0  0  0  0  0
   -6.6380   21.6070  -32.3210 C   0  0  0  0  0  0  0  0  0  0  0  0
   -1.7684   25.7628  -26.9129 H   0  0  0  0  0  0  0  0  0  0  0  0
   -0.2465   25.5329  -27.8392 H   0  0  0  0  0  0  0  0  0  0  0  0
   -1.0651   27.1318  -27.8392 H   0  0  0  0  0  0  0  0  0  0  0  0
   -0.0944   23.7246  -29.1427 H   0  0  0  0  0  0  0  0  0  0  0  0
   -0.4849   21.3845  -29.9026 H   0  0  0  0  0  0  0  0  0  0  0  0
   -4.6740   22.2572  -30.4949 H   0  0  0  0  0  0  0  0  0  0  0  0
   -5.4886   24.3445  -29.2279 H   0  0  0  0  0  0  0  0  0  0  0  0
   -4.3362   25.7489  -29.1507 H   0  0  0  0  0  0  0  0  0  0  0  0
   -4.2350   25.6410  -31.5850 H   0  0  0  0  0  0  0  0  0  0  0  0
   -5.9761   24.6242  -32.8354 H   0  0  0  0  0  0  0  0  0  0  0  0
   -5.0718   23.3722  -31.8997 H   0  0  0  0  0  0  0  0  0  0  0  0
   -6.8676   23.7407  -30.0609 H   0  0  0  0  0  0  0  0  0  0  0  0
   -7.8172   24.5513  -31.3763 H   0  0  0  0  0  0  0  0  0  0  0  0
   -9.5613   22.7532  -30.9633 H   0  0  0  0  0  0  0  0  0  0  0  0
  -10.3423   20.5634  -31.8791 H   0  0  0  0  0  0  0  0  0  0  0  0
   -5.6094   18.8752  -32.8456 H   0  0  0  0  0  0  0  0  0  0  0  0
   -6.7929   18.7915  -34.1943 H   0  0  0  0  0  0  0  0  0  0  0  0
   -5.5192   20.0582  -34.1943 H   0  0  0  0  0  0  0  0  0  0  0  0
   -5.5843   21.8899  -32.4613 H   0  0  0  0  0  0  0  0  0  0  0  0
  1  2  1  0
  2  3  1  0
  3  4  2  0
  4  5  1  0
  5  6  2  0
  6  7  1  0
  6  8  1  0
  8  9  2  0
  9 10  1  0
 10 11  1  0
 11 12  1  0
 12 13  1  0
 13 14  1  0
 14 15  2  0
 15 16  1  0
 16 17  2  0
 17 18  1  0
 18 19  1  0
 18 20  2  0
  9  3  1  0
 20 14  1  0
  1 21  1  0
  1 22  1  0
  1 23  1  0
  4 24  1  0
  5 25  1  0
  8 26  1  0
 10 27  1  0
 10 28  1  0
 11 29  1  0
 12 30  1  0
 12 31  1  0
 13 32  1  0
 13 33  1  0
 15 34  1  0
 16 35  1  0
 19 36  1  0
 19 37  1  0
 19 38  1  0
 20 39  1  0
M  END
>  <UniqueID>  (20) 
19

>  <SMILES>  (20) 
COc1ccc(F)cc1CNCCc1ccnc(C)c1

>  <Energy>  (20) 
35.99488810962205

>  <Genealogy>  (20) 
COc1ccc(F)cc1CNCCc1ccnc(C)c1 (3D coordinates assigned)
COc1ccc(F)cc1CNCCc1ccnc(C)c1 (optimized conformer: 35.99488810962205 kcal/mol)

>  <smiles>  (20) 
COc1ccc(F)cc1CNCCc1ccnc(C)c1

>  <score_type>  (20) 
oracle

>  <origin>  (20) 
adg

>  <m_score__min__energy>  (20) 
-7.7300000000000004

>  <m_primary>  (20) 
energy

$$$$
20:0
     RDKit          3D

 34 35  0  0  0  0  0  0  0  0999 V2000
   -0.0840   23.6660  -24.8990 C   0  0  0  0  0  0  0  0  0  0  0  0
    0.5410   23.4630  -26.1610 O   0  0  0  0  0  0  0  0  0  0  0  0
   -0.0430   23.8690  -27.3660 C   0  0  0  0  0  0  0  0  0  0  0  0
    0.6400   24.4930  -28.2220 O   0  0  0  0  0  0  0  0  0  0  0  0
   -1.4630   23.5560  -27.6200 C   0  0  0  0  0  0  0  0  0  0  0  0
   -2.4060   24.4950  -28.0050 C   0  0  0  0  0  0  0  0  0  0  0  0
   -3.5910   23.8030  -28.1400 C   0  0  0  0  0  0  0  0  0  0  0  0
   -4.8410   24.3780  -28.5380 N   0  0  0  0  0  0  0  0  0  0  0  0
   -5.1580   24.8720  -30.1680 S   0  0  0  0  0  0  0  0  0  0  0  0
   -6.0780   26.0610  -30.1470 O   0  0  0  0  0  0  0  0  0  0  0  0
   -3.8670   25.2630  -30.8300 O   0  0  0  0  0  0  0  0  0  0  0  0
   -5.8850   23.5450  -31.0680 C   0  0  0  0  0  0  0  0  0  0  0  0
   -7.2780   23.4160  -31.1440 C   0  0  0  0  0  0  0  0  0  0  0  0
   -7.8480   22.3530  -31.8520 C   0  0  0  0  0  0  0  0  0  0  0  0
   -7.0280   21.4160  -32.4880 C   0  0  0  0  0  0  0  0  0  0  0  0
   -7.5810   20.3850  -33.1730 F   0  0  0  0  0  0  0  0  0  0  0  0
   -5.6370   21.5440  -32.4180 C   0  0  0  0  0  0  0  0  0  0  0  0
   -5.0650   22.6060  -31.7120 C   0  0  0  0  0  0  0  0  0  0  0  0
   -3.3440   22.4790  -27.8380 C   0  0  0  0  0  0  0  0  0  0  0  0
   -2.0410   22.3330  -27.5210 N   0  0  0  0  0  0  0  0  0  0  0  0
   -1.4070   21.0700  -27.1480 C   0  0  0  0  0  0  0  0  0  0  0  0
    0.6298   23.4342  -24.0948 H   0  0  0  0  0  0  0  0  0  0  0  0
   -0.4050   24.7146  -24.8133 H   0  0  0  0  0  0  0  0  0  0  0  0
   -0.9599   23.0062  -24.8133 H   0  0  0  0  0  0  0  0  0  0  0  0
   -2.2431   25.5704  -28.1691 H   0  0  0  0  0  0  0  0  0  0  0  0
   -5.5810   24.5350  -27.8190 H   0  0  0  0  0  0  0  0  0  0  0  0
   -7.9251   24.1527  -30.6455 H   0  0  0  0  0  0  0  0  0  0  0  0
   -8.9421   22.2541  -31.9085 H   0  0  0  0  0  0  0  0  0  0  0  0
   -4.9920   20.8075  -32.9195 H   0  0  0  0  0  0  0  0  0  0  0  0
   -3.9707   22.7058  -31.6612 H   0  0  0  0  0  0  0  0  0  0  0  0
   -4.0908   21.6715  -27.8534 H   0  0  0  0  0  0  0  0  0  0  0  0
   -1.3667   20.9897  -26.0517 H   0  0  0  0  0  0  0  0  0  0  0  0
   -1.9913   20.2320  -27.5558 H   0  0  0  0  0  0  0  0  0  0  0  0
   -0.3859   21.0378  -27.5558 H   0  0  0  0  0  0  0  0  0  0  0  0
  1  2  1  0
  2  3  1  0
  3  4  2  0
  3  5  1  0
  5  6  2  0
  6  7  1  0
  7  8  1  0
  8  9  1  0
  9 10  2  0
  9 11  2  0
  9 12  1  0
 12 13  2  0
 13 14  1  0
 14 15  2  0
 15 16  1  0
 15 17  1  0
 17 18  2  0
  7 19  2  0
 19 20  1  0
 20 21  1  0
 20  5  1  0
 18 12  1  0
  1 22  1  0
  1 23  1  0
  1 24  1  0
  6 25  1  0
  8 26  1  0
 13 27  1  0
 14 28  1  0
 17 29  1  0
 18 30  1  0
 19 31  1  0
 21 32  1  0
 21 33  1  0
 21 34  1  0
M  END
>  <UniqueID>  (21) 
20

>  <SMILES>  (21) 
COC(=O)c1cc(NS(=O)(=O)c2ccc(F)cc2)cn1C

>  <Energy>  (21) 
59.56526829851687

>  <Genealogy>  (21) 
COC(=O)c1cc(NS(=O)(=O)c2ccc(F)cc2)cn1C (3D coordinates assigned)
COC(=O)c1cc(NS(=O)(=O)c2ccc(F)cc2)cn1C (optimized conformer: 59.56526829851687 kcal/mol)

>  <smiles>  (21) 
COC(=O)c1cc(NS(=O)(=O)c2ccc(F)cc2)cn1C

>  <score_type>  (21) 
oracle

>  <origin>  (21) 
adg

>  <m_score__min__energy>  (21) 
-7.4299999999999997

>  <m_primary>  (21) 
energy

$$$$
21:0
     RDKit          3D

 47 49  0  0  0  0  0  0  0  0999 V2000
   -4.0090   18.0740  -34.5810 C   0  0  0  0  0  0  0  0  0  0  0  0
   -4.8700   19.1430  -34.2020 O   0  0  0  0  0  0  0  0  0  0  0  0
   -5.9790   19.0030  -33.3540 C   0  0  0  0  0  0  0  0  0  0  0  0
   -5.9580   17.9820  -32.3970 C   0  0  0  0  0  0  0  0  0  0  0  0
   -7.0280   17.8160  -31.5160 C   0  0  0  0  0  0  0  0  0  0  0  0
   -8.1350   18.6640  -31.5890 C   0  0  0  0  0  0  0  0  0  0  0  0
   -8.1800   19.6920  -32.5450 C   0  0  0  0  0  0  0  0  0  0  0  0
   -9.4200   20.5460  -32.6970 C   0  0  0  0  0  0  0  0  0  0  0  0
   -9.5270   21.6790  -31.7380 N   0  0  0  0  0  0  0  0  0  0  0  0
   -8.8450   21.4410  -30.4370 C   0  0  0  0  0  0  0  0  0  0  0  0
   -7.6060   22.3190  -30.2150 C   0  0  0  0  0  0  0  0  0  0  0  0
   -6.9210   22.5720  -31.4910 N   0  0  0  0  0  0  0  0  0  0  0  0
   -5.6080   23.2190  -31.2670 C   0  0  0  0  0  0  0  0  0  0  0  0
   -4.4930   22.3070  -31.7020 C   0  0  0  0  0  0  0  0  0  0  0  0
   -3.7260   21.6300  -30.7410 C   0  0  0  0  0  0  0  0  0  0  0  0
   -2.6670   20.8050  -31.1340 C   0  0  0  0  0  0  0  0  0  0  0  0
   -2.3670   20.6490  -32.4900 C   0  0  0  0  0  0  0  0  0  0  0  0
   -0.9130   19.5320  -33.0230 Br  0  0  0  0  0  0  0  0  0  0  0  0
   -3.1310   21.3120  -33.4540 C   0  0  0  0  0  0  0  0  0  0  0  0
   -4.1930   22.1360  -33.0650 C   0  0  0  0  0  0  0  0  0  0  0  0
   -7.7690   23.4280  -32.3440 C   0  0  0  0  0  0  0  0  0  0  0  0
   -9.2590   23.0090  -32.3400 C   0  0  0  0  0  0  0  0  0  0  0  0
   -7.1020   19.8480  -33.4350 C   0  0  0  0  0  0  0  0  0  0  0  0
   -3.6142   17.5838  -33.6789 H   0  0  0  0  0  0  0  0  0  0  0  0
   -4.5733   17.3428  -35.1784 H   0  0  0  0  0  0  0  0  0  0  0  0
   -3.1744   18.4696  -35.1784 H   0  0  0  0  0  0  0  0  0  0  0  0
   -5.0924   17.3057  -32.3387 H   0  0  0  0  0  0  0  0  0  0  0  0
   -6.9991   17.0152  -30.7624 H   0  0  0  0  0  0  0  0  0  0  0  0
   -8.9764   18.5262  -30.8940 H   0  0  0  0  0  0  0  0  0  0  0  0
   -9.4258   20.9602  -33.7160 H   0  0  0  0  0  0  0  0  0  0  0  0
  -10.2746   19.8857  -32.4880 H   0  0  0  0  0  0  0  0  0  0  0  0
  -10.5510   21.7010  -31.5090 H   0  0  0  0  0  0  0  0  0  0  0  0
   -9.5622   21.6430  -29.6278 H   0  0  0  0  0  0  0  0  0  0  0  0
   -8.4994   20.3967  -30.4438 H   0  0  0  0  0  0  0  0  0  0  0  0
   -7.9157   23.2778  -29.7737 H   0  0  0  0  0  0  0  0  0  0  0  0
   -6.9153   21.7961  -29.5371 H   0  0  0  0  0  0  0  0  0  0  0  0
   -5.5601   24.1523  -31.8472 H   0  0  0  0  0  0  0  0  0  0  0  0
   -5.4948   23.4346  -30.1943 H   0  0  0  0  0  0  0  0  0  0  0  0
   -3.9591   21.7489  -29.6726 H   0  0  0  0  0  0  0  0  0  0  0  0
   -2.0697   20.2785  -30.3750 H   0  0  0  0  0  0  0  0  0  0  0  0
   -2.8970   21.1859  -34.5214 H   0  0  0  0  0  0  0  0  0  0  0  0
   -4.7949   22.6515  -33.8278 H   0  0  0  0  0  0  0  0  0  0  0  0
   -7.6964   24.4640  -31.9814 H   0  0  0  0  0  0  0  0  0  0  0  0
   -7.4035   23.3245  -33.3763 H   0  0  0  0  0  0  0  0  0  0  0  0
   -9.8254   23.7624  -31.7729 H   0  0  0  0  0  0  0  0  0  0  0  0
   -9.5656   22.9407  -33.3942 H   0  0  0  0  0  0  0  0  0  0  0  0
   -7.1368   20.6369  -34.2008 H   0  0  0  0  0  0  0  0  0  0  0  0
  1  2  1  0
  2  3  1  0
  3  4  2  0
  4  5  1  0
  5  6  2  0
  6  7  1  0
  7  8  1  0
  8  9  1  0
  9 10  1  0
 10 11  1  0
 11 12  1  0
 12 13  1  0
 13 14  1  0
 14 15  2  0
 15 16  1  0
 16 17  2  0
 17 18  1  0
 17 19  1  0
 19 20  2  0
 12 21  1  0
 21 22  1  0
  7 23  2  0
 23  3  1  0
 22  9  1  0
 20 14  1  0
  1 24  1  0
  1 25  1  0
  1 26  1  0
  4 27  1  0
  5 28  1  0
  6 29  1  0
  8 30  1  0
  8 31  1  0
  9 32  1  0
 10 33  1  0
 10 34  1  0
 11 35  1  0
 11 36  1  0
 13 37  1  0
 13 38  1  0
 15 39  1  0
 16 40  1  0
 19 41  1  0
 20 42  1  0
 21 43  1  0
 21 44  1  0
 22 45  1  0
 22 46  1  0
 23 47  1  0
M  CHG  1   9   1
M  END
>  <UniqueID>  (22) 
21

>  <SMILES>  (22) 
COc1cccc(C[NH+]2CCN(Cc3ccc(Br)cc3)CC2)c1

>  <Energy>  (22) 
60.92978885416766

>  <Genealogy>  (22) 
COc1cccc(C[NH+]2CCN(Cc3ccc(Br)cc3)CC2)c1 (protonated)
COc1cccc(C[NH+]2CCN(Cc3ccc(Br)cc3)CC2)c1 (3D coordinates assigned)
COc1cccc(C[NH+]2CCN(Cc3ccc(Br)cc3)CC2)c1 (nonaromatic ring conformer: 60.92978885416766 kcal/mol)

>  <smiles>  (22) 
COc1cccc(CN2CCN(Cc3ccc(Br)cc3)CC2)c1

>  <score_type>  (22) 
oracle

>  <origin>  (22) 
adg

>  <m_score__min__energy>  (22) 
-7.1799999999999997

>  <m_primary>  (22) 
energy

$$$$
22:0
     RDKit          3D

 35 37  0  0  0  0  0  0  0  0999 V2000
    1.2020   24.5990  -27.4860 C   0  0  0  0  0  0  0  0  0  0  0  0
    0.1340   25.5370  -27.5520 O   0  0  0  0  0  0  0  0  0  0  0  0
   -1.2360   25.2460  -27.4180 C   0  0  0  0  0  0  0  0  0  0  0  0
   -1.8430   25.4760  -26.1670 C   0  0  0  0  0  0  0  0  0  0  0  0
   -1.0590   25.9680  -25.0160 C   0  0  0  0  0  0  0  0  0  0  0  0
   -1.1900   27.2180  -24.5180 N   0  0  0  0  0  0  0  0  0  0  0  0
   -0.3180   27.2170  -23.4850 C   0  0  0  0  0  0  0  0  0  0  0  0
    0.2980   26.0300  -23.3530 N   0  0  0  0  0  0  0  0  0  0  0  0
   -0.1740   25.2420  -24.3000 N   0  0  0  0  0  0  0  0  0  0  0  0
    0.2100   23.8430  -24.4700 C   0  0  0  0  0  0  0  0  0  0  0  0
   -3.2180   25.2710  -26.0070 C   0  0  0  0  0  0  0  0  0  0  0  0
   -3.9910   24.8010  -27.0640 C   0  0  0  0  0  0  0  0  0  0  0  0
   -3.4080   24.5380  -28.3120 C   0  0  0  0  0  0  0  0  0  0  0  0
   -4.2510   24.0390  -29.4260 C   0  0  0  0  0  0  0  0  0  0  0  0
   -4.5990   24.8730  -30.4980 C   0  0  0  0  0  0  0  0  0  0  0  0
   -5.3650   24.3960  -31.5130 N   0  0  0  0  0  0  0  0  0  0  0  0
   -5.8030   23.1110  -31.5150 C   0  0  0  0  0  0  0  0  0  0  0  0
   -6.5300   22.6820  -32.4950 N   0  0  0  0  0  0  0  0  0  0  0  0
   -5.4720   22.2790  -30.4920 N   0  0  0  0  0  0  0  0  0  0  0  0
   -4.7100   22.7150  -29.4550 C   0  0  0  0  0  0  0  0  0  0  0  0
   -2.0260   24.7560  -28.4870 C   0  0  0  0  0  0  0  0  0  0  0  0
   -1.4650   24.4610  -29.6870 F   0  0  0  0  0  0  0  0  0  0  0  0
    1.4411   24.3890  -26.4330 H   0  0  0  0  0  0  0  0  0  0  0  0
    0.9026   23.6666  -27.9870 H   0  0  0  0  0  0  0  0  0  0  0  0
    2.0880   25.0163  -27.9870 H   0  0  0  0  0  0  0  0  0  0  0  0
   -0.1349   28.0828  -22.8317 H   0  0  0  0  0  0  0  0  0  0  0  0
    1.0030   25.7610  -22.6310 H   0  0  0  0  0  0  0  0  0  0  0  0
    0.3383   23.3754  -23.4826 H   0  0  0  0  0  0  0  0  0  0  0  0
   -0.5757   23.3123  -25.0277 H   0  0  0  0  0  0  0  0  0  0  0  0
    1.1565   23.7877  -25.0277 H   0  0  0  0  0  0  0  0  0  0  0  0
   -3.6917   25.4833  -25.0372 H   0  0  0  0  0  0  0  0  0  0  0  0
   -5.0687   24.6343  -26.9195 H   0  0  0  0  0  0  0  0  0  0  0  0
   -4.2507   25.9162  -30.5170 H   0  0  0  0  0  0  0  0  0  0  0  0
   -6.5130   23.1460  -33.4310 H   0  0  0  0  0  0  0  0  0  0  0  0
   -4.4527   22.0271  -28.6361 H   0  0  0  0  0  0  0  0  0  0  0  0
  1  2  1  0
  2  3  1  0
  3  4  2  0
  4  5  1  0
  5  6  2  0
  6  7  1  0
  7  8  2  0
  8  9  1  0
  9 10  1  0
  4 11  1  0
 11 12  2  0
 12 13  1  0
 13 14  1  0
 14 15  1  0
 15 16  2  0
 16 17  1  0
 17 18  2  3
 17 19  1  0
 19 20  1  0
 13 21  2  0
 21 22  1  0
 21  3  1  0
  9  5  1  0
 20 14  2  0
  1 23  1  0
  1 24  1  0
  1 25  1  0
  7 26  1  0
  8 27  1  0
 10 28  1  0
 10 29  1  0
 10 30  1  0
 11 31  1  0
 12 32  1  0
 15 33  1  0
 18 34  1  0
 20 35  1  0
M  CHG  2   8   1  19  -1
M  END
>  <UniqueID>  (23) 
22

>  <SMILES>  (23) 
COc1c(-c2nc[nH+]n2C)ccc(-c2cnc(=N)[n-]c2)c1F

>  <Energy>  (23) 
85.61180711377112

>  <Genealogy>  (23) 
COc1c(-c2nc[nH+]n2C)ccc(-c2cnc(=N)[n-]c2)c1F (protonated)
COc1c(-c2nc[nH+]n2C)ccc(-c2cnc(=N)[n-]c2)c1F (3D coordinates assigned)
COc1c(-c2nc[nH+]n2C)ccc(-c2cnc(=N)[n-]c2)c1F (optimized conformer: 85.61180711377112 kcal/mol)

>  <smiles>  (23) 
COc1c(-c2ncnn2C)ccc(-c2cnc(=N)[nH]c2)c1F

>  <score_type>  (23) 
oracle

>  <origin>  (23) 
adg

>  <m_score__min__energy>  (23) 
-7.3899999999999997

>  <m_primary>  (23) 
energy

$$$$
23:0
     RDKit          3D

 36 38  0  0  0  0  0  0  0  0999 V2000
    0.3890   22.9480  -35.4530 F   0  0  0  0  0  0  0  0  0  0  0  0
    0.6230   21.5910  -35.5920 C   0  0  0  0  0  0  0  0  0  0  0  0
   -0.1100   21.1460  -36.6770 F   0  0  0  0  0  0  0  0  0  0  0  0
    1.9600   21.3780  -35.8620 F   0  0  0  0  0  0  0  0  0  0  0  0
    0.1590   20.8230  -34.3350 C   0  0  0  0  0  0  0  0  0  0  0  0
   -1.3100   20.7350  -34.1090 N   0  0  2  0  0  0  0  0  0  0  0  0
   -1.7860   21.5430  -32.9690 C   0  0  0  0  0  0  0  0  0  0  0  0
   -3.2850   21.4750  -32.8390 C   0  0  0  0  0  0  0  0  0  0  0  0
   -3.9940   20.4250  -33.2920 C   0  0  0  0  0  0  0  0  0  0  0  0
   -5.4610   20.3780  -33.0960 C   0  0  0  0  0  0  0  0  0  0  0  0
   -6.3270   19.4190  -33.6150 C   0  0  0  0  0  0  0  0  0  0  0  0
   -7.6010   19.6760  -33.2430 N   0  0  0  0  0  0  0  0  0  0  0  0
   -7.5520   20.7960  -32.5020 C   0  0  0  0  0  0  0  0  0  0  0  0
   -8.6280   21.4650  -31.9210 C   0  0  0  0  0  0  0  0  0  0  0  0
   -8.3620   22.6520  -31.2160 C   0  0  0  0  0  0  0  0  0  0  0  0
   -7.0410   23.1460  -31.1170 C   0  0  0  0  0  0  0  0  0  0  0  0
   -6.7310   24.6400  -30.2540 Cl  0  0  0  0  0  0  0  0  0  0  0  0
   -5.9750   22.4500  -31.7170 C   0  0  0  0  0  0  0  0  0  0  0  0
   -6.2650   21.2600  -32.3910 C   0  0  0  0  0  0  0  0  0  0  0  0
   -3.3320   19.3120  -34.0790 C   0  0  0  0  0  0  0  0  0  0  0  0
   -1.7980   19.3460  -33.9820 C   0  0  0  0  0  0  0  0  0  0  0  0
    0.5468   19.7963  -34.4097 H   0  0  0  0  0  0  0  0  0  0  0  0
    0.5482   21.4005  -33.4835 H   0  0  0  0  0  0  0  0  0  0  0  0
   -1.7430   21.1370  -34.9760 H   0  0  0  0  0  0  0  0  0  0  0  0
   -1.3283   21.1624  -32.0440 H   0  0  0  0  0  0  0  0  0  0  0  0
   -1.4994   22.5908  -33.1420 H   0  0  0  0  0  0  0  0  0  0  0  0
   -3.8167   22.3097  -32.3588 H   0  0  0  0  0  0  0  0  0  0  0  0
   -6.0172   18.5695  -34.2413 H   0  0  0  0  0  0  0  0  0  0  0  0
   -8.4490   19.1200  -33.4900 H   0  0  0  0  0  0  0  0  0  0  0  0
   -9.6531   21.0764  -32.0112 H   0  0  0  0  0  0  0  0  0  0  0  0
   -9.1874   23.2001  -30.7382 H   0  0  0  0  0  0  0  0  0  0  0  0
   -4.9448   22.8308  -31.6574 H   0  0  0  0  0  0  0  0  0  0  0  0
   -3.6876   18.3465  -33.6899 H   0  0  0  0  0  0  0  0  0  0  0  0
   -3.6005   19.4488  -35.1369 H   0  0  0  0  0  0  0  0  0  0  0  0
   -1.4862   18.9387  -33.0089 H   0  0  0  0  0  0  0  0  0  0  0  0
   -1.3731   18.7401  -34.7958 H   0  0  0  0  0  0  0  0  0  0  0  0
  1  2  1  0
  2  3  1  0
  2  4  1  0
  2  5  1  0
  5  6  1  0
  6  7  1  0
  7  8  1  0
  8  9  2  0
  9 10  1  0
 10 11  2  0
 11 12  1  0
 12 13  1  0
 13 14  2  0
 14 15  1  0
 15 16  2  0
 16 17  1  0
 16 18  1  0
 18 19  2  0
  9 20  1  0
 20 21  1  0
 21  6  1  0
 19 10  1  0
 19 13  1  0
  5 22  1  0
  5 23  1  0
  6 24  1  6
  7 25  1  0
  7 26  1  0
  8 27  1  0
 11 28  1  0
 12 29  1  0
 14 30  1  0
 15 31  1  0
 18 32  1  0
 20 33  1  0
 20 34  1  0
 21 35  1  0
 21 36  1  0
M  CHG  1   6   1
M  END
>  <UniqueID>  (24) 
23

>  <SMILES>  (24) 
FC(F)(F)C[N@@H+]1CC=C(c2c[nH]c3ccc(Cl)cc23)CC1

>  <Energy>  (24) 
82.33211243376707

>  <Genealogy>  (24) 
FC(F)(F)C[NH+]1CC=C(c2c[nH]c3ccc(Cl)cc23)CC1 (protonated)
FC(F)(F)C[N@@H+]1CC=C(c2c[nH]c3ccc(Cl)cc23)CC1 (chirality)
FC(F)(F)C[N@@H+]1CC=C(c2c[nH]c3ccc(Cl)cc23)CC1 (3D coordinates assigned)
FC(F)(F)C[N@@H+]1CC=C(c2c[nH]c3ccc(Cl)cc23)CC1 (nonaromatic ring conformer: 82.33211243376707 kcal/mol)

>  <smiles>  (24) 
FC(F)(F)CN1CC=C(c2c[nH]c3ccc(Cl)cc23)CC1

>  <score_type>  (24) 
oracle

>  <origin>  (24) 
adg

>  <m_score__min__energy>  (24) 
-6.8799999999999999

>  <m_primary>  (24) 
energy

$$$$
24:0
     RDKit          3D

 35 36  0  0  0  0  0  0  0  0999 V2000
   -6.1400   25.3710  -29.4290 C   0  0  0  0  0  0  0  0  0  0  0  0
   -5.3720   25.5190  -30.7450 C   0  0  0  0  0  0  0  0  0  0  0  0
   -4.7120   24.2630  -31.1540 N   0  0  0  0  0  0  0  0  0  0  0  0
   -5.5110   23.3890  -32.0400 C   0  0  2  0  0  0  0  0  0  0  0  0
   -6.9670   23.2300  -31.5330 C   0  0  0  0  0  0  0  0  0  0  0  0
   -7.7940   22.2260  -32.3550 C   0  0  0  0  0  0  0  0  0  0  0  0
   -7.7460   20.7920  -31.8130 C   0  0  0  0  0  0  0  0  0  0  0  0
   -6.4320   20.1760  -32.0490 N   0  0  0  0  0  0  0  0  0  0  0  0
   -6.3440   18.8710  -32.6620 C   0  0  0  0  0  0  0  0  0  0  0  0
   -6.5760   18.6230  -33.9730 N   0  0  0  0  0  0  0  0  0  0  0  0
   -6.4470   17.3060  -34.2840 C   0  0  0  0  0  0  0  0  0  0  0  0
   -6.1130   16.4820  -33.2160 C   0  0  0  0  0  0  0  0  0  0  0  0
   -5.9810   17.4440  -31.8410 S   0  0  0  0  0  0  0  0  0  0  0  0
   -5.1850   20.8060  -31.5720 C   0  0  0  0  0  0  0  0  0  0  0  0
   -4.7500   22.0630  -32.3590 C   0  0  0  0  0  0  0  0  0  0  0  0
   -5.4485   25.5043  -28.5840 H   0  0  0  0  0  0  0  0  0  0  0  0
   -6.9316   26.1331  -29.3787 H   0  0  0  0  0  0  0  0  0  0  0  0
   -6.5917   24.3693  -29.3787 H   0  0  0  0  0  0  0  0  0  0  0  0
   -6.0768   25.8211  -31.5336 H   0  0  0  0  0  0  0  0  0  0  0  0
   -4.5888   26.2765  -30.5938 H   0  0  0  0  0  0  0  0  0  0  0  0
   -3.7780   24.4460  -31.5910 H   0  0  0  0  0  0  0  0  0  0  0  0
   -5.6304   23.8777  -33.0182 H   0  0  0  0  0  0  0  0  0  0  0  0
   -6.9370   22.8849  -30.4890 H   0  0  0  0  0  0  0  0  0  0  0  0
   -7.4546   24.2110  -31.6327 H   0  0  0  0  0  0  0  0  0  0  0  0
   -8.8419   22.5605  -32.3580 H   0  0  0  0  0  0  0  0  0  0  0  0
   -7.3563   22.2014  -33.3639 H   0  0  0  0  0  0  0  0  0  0  0  0
   -7.9439   20.8109  -30.7311 H   0  0  0  0  0  0  0  0  0  0  0  0
   -8.5080   20.1967  -32.3373 H   0  0  0  0  0  0  0  0  0  0  0  0
   -6.8490   19.3410  -34.6780 H   0  0  0  0  0  0  0  0  0  0  0  0
   -6.5957   16.9216  -35.3039 H   0  0  0  0  0  0  0  0  0  0  0  0
   -5.9616   15.3934  -33.2612 H   0  0  0  0  0  0  0  0  0  0  0  0
   -5.3280   21.0938  -30.5200 H   0  0  0  0  0  0  0  0  0  0  0  0
   -4.3883   20.0611  -31.7146 H   0  0  0  0  0  0  0  0  0  0  0  0
   -3.6831   22.2330  -32.1521 H   0  0  0  0  0  0  0  0  0  0  0  0
   -4.9847   21.8410  -33.4105 H   0  0  0  0  0  0  0  0  0  0  0  0
  1  2  1  0
  2  3  1  0
  3  4  1  0
  4  5  1  0
  5  6  1  0
  6  7  1  0
  7  8  1  0
  8  9  1  0
  9 10  2  0
 10 11  1  0
 11 12  2  0
 12 13  1  0
  8 14  1  0
 14 15  1  0
 15  4  1  0
 13  9  1  0
  1 16  1  0
  1 17  1  0
  1 18  1  0
  2 19  1  0
  2 20  1  0
  3 21  1  0
  4 22  1  6
  5 23  1  0
  5 24  1  0
  6 25  1  0
  6 26  1  0
  7 27  1  0
  7 28  1  0
 10 29  1  0
 11 30  1  0
 12 31  1  0
 14 32  1  0
 14 33  1  0
 15 34  1  0
 15 35  1  0
M  CHG  1  10   1
M  END
>  <UniqueID>  (25) 
24

>  <SMILES>  (25) 
CCN[C@@H]1CCCN(c2[nH+]ccs2)CC1

>  <Energy>  (25) 
73.42599351060571

>  <Genealogy>  (25) 
CCNC1CCCN(c2[nH+]ccs2)CC1 (protonated)
CCN[C@@H]1CCCN(c2[nH+]ccs2)CC1 (chirality)
CCN[C@@H]1CCCN(c2[nH+]ccs2)CC1 (3D coordinates assigned)
CCN[C@@H]1CCCN(c2[nH+]ccs2)CC1 (nonaromatic ring conformer: 73.42599351060571 kcal/mol)

>  <smiles>  (25) 
CCNC1CCCN(c2nccs2)CC1

>  <score_type>  (25) 
oracle

>  <origin>  (25) 
adg

>  <m_score__min__energy>  (25) 
-4.2199999999999998

>  <m_primary>  (25) 
energy

$$$$
25:0
     RDKit          3D

 49 52  0  0  0  0  0  0  0  0999 V2000
   -1.2040   26.7170  -23.9970 C   0  0  0  0  0  0  0  0  0  0  0  0
   -1.4260   26.2610  -25.4100 C   0  0  0  0  0  0  0  0  0  0  0  0
   -2.4570   25.3560  -25.7090 C   0  0  0  0  0  0  0  0  0  0  0  0
   -2.6830   24.9550  -27.0290 C   0  0  0  0  0  0  0  0  0  0  0  0
   -1.8860   25.4500  -28.0670 C   0  0  0  0  0  0  0  0  0  0  0  0
   -2.1600   25.0300  -29.4130 N   0  0  0  0  0  0  0  0  0  0  0  0
   -3.4160   24.5340  -29.8940 C   0  0  0  0  0  0  0  0  0  0  0  0
   -4.2560   25.3170  -30.4150 O   0  0  0  0  0  0  0  0  0  0  0  0
   -3.7300   23.0720  -29.7710 C   0  0  1  0  0  0  0  0  0  0  0  0
   -4.6800   22.6190  -30.8820 C   0  0  0  0  0  0  0  0  0  0  0  0
   -4.1510   21.2730  -31.3090 C   0  0  0  0  0  0  0  0  0  0  0  0
   -2.6700   21.3340  -30.9890 C   0  0  0  0  0  0  0  0  0  0  0  0
   -2.4880   22.2820  -29.8790 N   0  0  0  0  0  0  0  0  0  0  0  0
   -2.1510   21.4360  -28.3870 S   0  0  0  0  0  0  0  0  0  0  0  0
   -1.7020   20.0300  -28.6880 O   0  0  0  0  0  0  0  0  0  0  0  0
   -3.3960   21.3740  -27.5470 O   0  0  0  0  0  0  0  0  0  0  0  0
   -0.9040   22.2920  -27.4830 C   0  0  0  0  0  0  0  0  0  0  0  0
   -0.8360   22.1440  -26.0890 C   0  0  0  0  0  0  0  0  0  0  0  0
    0.1580   22.8030  -25.3590 C   0  0  0  0  0  0  0  0  0  0  0  0
    1.0870   23.6100  -26.0180 C   0  0  0  0  0  0  0  0  0  0  0  0
    1.0370   23.7430  -27.4110 C   0  0  0  0  0  0  0  0  0  0  0  0
    0.0340   23.1020  -28.1430 C   0  0  0  0  0  0  0  0  0  0  0  0
    2.0090   24.5140  -28.0540 O   0  0  0  0  0  0  0  0  0  0  0  0
    3.1930   24.9340  -27.3690 C   0  0  0  0  0  0  0  0  0  0  0  0
    2.8600   25.3150  -25.9200 C   0  0  0  0  0  0  0  0  0  0  0  0
    2.0780   24.2890  -25.3040 O   0  0  0  0  0  0  0  0  0  0  0  0
   -0.8800   26.3910  -27.7740 C   0  0  0  0  0  0  0  0  0  0  0  0
   -0.6490   26.7880  -26.4530 C   0  0  0  0  0  0  0  0  0  0  0  0
   -1.5771   25.9507  -23.3015 H   0  0  0  0  0  0  0  0  0  0  0  0
   -0.1286   26.8741  -23.8271 H   0  0  0  0  0  0  0  0  0  0  0  0
   -1.7437   27.6603  -23.8271 H   0  0  0  0  0  0  0  0  0  0  0  0
   -3.0899   24.9607  -24.9008 H   0  0  0  0  0  0  0  0  0  0  0  0
   -3.4930   24.2454  -27.2532 H   0  0  0  0  0  0  0  0  0  0  0  0
   -4.2074   22.9131  -28.7928 H   0  0  0  0  0  0  0  0  0  0  0  0
   -5.7081   22.5293  -30.5013 H   0  0  0  0  0  0  0  0  0  0  0  0
   -4.7190   23.3356  -31.7156 H   0  0  0  0  0  0  0  0  0  0  0  0
   -4.6389   20.4653  -30.7437 H   0  0  0  0  0  0  0  0  0  0  0  0
   -4.3432   21.0637  -32.3717 H   0  0  0  0  0  0  0  0  0  0  0  0
   -2.3099   20.3377  -30.6929 H   0  0  0  0  0  0  0  0  0  0  0  0
   -2.0997   21.6612  -31.8709 H   0  0  0  0  0  0  0  0  0  0  0  0
   -1.5671   21.5075  -25.5690 H   0  0  0  0  0  0  0  0  0  0  0  0
    0.2078   22.6856  -24.2664 H   0  0  0  0  0  0  0  0  0  0  0  0
   -0.0206   23.2317  -29.2340 H   0  0  0  0  0  0  0  0  0  0  0  0
    3.9241   24.1121  -27.3698 H   0  0  0  0  0  0  0  0  0  0  0  0
    3.6132   25.8109  -27.8832 H   0  0  0  0  0  0  0  0  0  0  0  0
    3.7949   25.4469  -25.3555 H   0  0  0  0  0  0  0  0  0  0  0  0
    2.2842   26.2522  -25.9200 H   0  0  0  0  0  0  0  0  0  0  0  0
   -0.2734   26.8155  -28.5875 H   0  0  0  0  0  0  0  0  0  0  0  0
    0.1449   27.5162  -26.2307 H   0  0  0  0  0  0  0  0  0  0  0  0
  1  2  1  0
  2  3  2  0
  3  4  1  0
  4  5  2  0
  5  6  1  0
  6  7  1  0
  7  8  2  0
  7  9  1  0
  9 10  1  0
 10 11  1  0
 11 12  1  0
 12 13  1  0
 13 14  1  0
 14 15  2  0
 14 16  2  0
 14 17  1  0
 17 18  2  0
 18 19  1  0
 19 20  2  0
 20 21  1  0
 21 22  2  0
 21 23  1  0
 23 24  1  0
 24 25  1  0
 25 26  1  0
  5 27  1  0
 27 28  2  0
 28  2  1  0
 13  9  1  0
 22 17  1  0
 26 20  1  0
  1 29  1  0
  1 30  1  0
  1 31  1  0
  3 32  1  0
  4 33  1  0
  9 34  1  1
 10 35  1  0
 10 36  1  0
 11 37  1  0
 11 38  1  0
 12 39  1  0
 12 40  1  0
 18 41  1  0
 19 42  1  0
 22 43  1  0
 24 44  1  0
 24 45  1  0
 25 46  1  0
 25 47  1  0
 27 48  1  0
 28 49  1  0
M  CHG  1   6  -1
M  END
>  <UniqueID>  (26) 
25

>  <SMILES>  (26) 
Cc1ccc([N-]C(=O)[C@H]2CCCN2S(=O)(=O)c2ccc3c(c2)OCCO3)cc1

>  <Energy>  (26) 
56.19454364089553

>  <Genealogy>  (26) 
Cc1ccc([N-]C(=O)C2CCCN2S(=O)(=O)c2ccc3c(c2)OCCO3)cc1 (protonated)
Cc1ccc([N-]C(=O)[C@H]2CCCN2S(=O)(=O)c2ccc3c(c2)OCCO3)cc1 (chirality)
Cc1ccc([N-]C(=O)[C@H]2CCCN2S(=O)(=O)c2ccc3c(c2)OCCO3)cc1 (3D coordinates assigned)
Cc1ccc([N-]C(=O)[C@H]2CCCN2S(=O)(=O)c2ccc3c(c2)OCCO3)cc1 (nonaromatic ring conformer: 56.19454364089553 kcal/mol)

>  <smiles>  (26) 
Cc1ccc(NC(=O)C2CCCN2S(=O)(=O)c2ccc3c(c2)OCCO3)cc1

>  <score_type>  (26) 
oracle

>  <origin>  (26) 
adg

>  <m_score__min__energy>  (26) 
-10.82

>  <m_primary>  (26) 
energy

$$$$
26:0
     RDKit          3D

 65 68  0  0  0  0  0  0  0  0999 V2000
   -0.4600   27.6650  -27.0510 C   0  0  0  0  0  0  0  0  0  0  0  0
   -0.9720   27.6560  -25.6020 C   0  0  0  0  0  0  0  0  0  0  0  0
   -0.2250   26.7360  -24.7120 N   0  0  0  0  0  0  0  0  0  0  0  0
   -0.2600   27.1560  -23.2890 C   0  0  0  0  0  0  0  0  0  0  0  0
    1.0140   27.9190  -22.9540 C   0  0  0  0  0  0  0  0  0  0  0  0
    1.1380   26.4430  -25.2080 C   0  0  0  0  0  0  0  0  0  0  0  0
    1.4910   24.9670  -24.9810 C   0  0  0  0  0  0  0  0  0  0  0  0
    0.3250   24.2190  -24.4780 N   0  0  0  0  0  0  0  0  0  0  0  0
   -0.0450   23.1090  -25.3740 C   0  0  0  0  0  0  0  0  0  0  0  0
   -0.9040   23.5770  -26.5240 C   0  0  0  0  0  0  0  0  0  0  0  0
   -1.8980   24.5470  -26.3200 C   0  0  0  0  0  0  0  0  0  0  0  0
   -2.7400   24.9260  -27.3710 C   0  0  0  0  0  0  0  0  0  0  0  0
   -2.6060   24.3380  -28.6340 C   0  0  0  0  0  0  0  0  0  0  0  0
   -3.5010   24.7230  -29.6420 O   0  0  0  0  0  0  0  0  0  0  0  0
   -4.8300   24.2240  -29.7790 C   0  0  0  0  0  0  0  0  0  0  0  0
   -5.2980   24.3980  -31.2210 C   0  0  0  0  0  0  0  0  0  0  0  0
   -5.6020   23.0920  -31.8170 N   0  0  0  0  0  0  0  0  0  0  0  0
   -6.8180   22.4950  -31.9280 C   0  0  0  0  0  0  0  0  0  0  0  0
   -8.0690   23.0110  -31.5720 C   0  0  0  0  0  0  0  0  0  0  0  0
   -9.2000   22.1940  -31.7550 C   0  0  0  0  0  0  0  0  0  0  0  0
   -9.0660   20.8890  -32.2760 C   0  0  0  0  0  0  0  0  0  0  0  0
   -7.8010   20.3810  -32.6170 C   0  0  0  0  0  0  0  0  0  0  0  0
   -6.6980   21.2130  -32.4320 C   0  0  0  0  0  0  0  0  0  0  0  0
   -5.3540   20.9980  -32.6300 C   0  0  0  0  0  0  0  0  0  0  0  0
   -4.6560   19.8780  -33.0780 C   0  0  0  0  0  0  0  0  0  0  0  0
   -3.2530   19.9580  -33.1270 C   0  0  0  0  0  0  0  0  0  0  0  0
   -2.5880   21.1380  -32.7270 C   0  0  0  0  0  0  0  0  0  0  0  0
   -3.3180   22.2530  -32.2750 C   0  0  0  0  0  0  0  0  0  0  0  0
   -4.7120   22.1580  -32.2410 C   0  0  0  0  0  0  0  0  0  0  0  0
   -1.5980   23.3800  -28.8450 C   0  0  0  0  0  0  0  0  0  0  0  0
   -0.7570   23.0010  -27.7950 C   0  0  0  0  0  0  0  0  0  0  0  0
    0.6398   27.6843  -27.0511 H   0  0  0  0  0  0  0  0  0  0  0  0
   -0.8109   26.7605  -27.5695 H   0  0  0  0  0  0  0  0  0  0  0  0
   -0.8425   28.5566  -27.5695 H   0  0  0  0  0  0  0  0  0  0  0  0
   -0.8875   28.6754  -25.1975 H   0  0  0  0  0  0  0  0  0  0  0  0
   -2.0127   27.3009  -25.6309 H   0  0  0  0  0  0  0  0  0  0  0  0
   -1.1316   27.8053  -23.1196 H   0  0  0  0  0  0  0  0  0  0  0  0
   -0.3349   26.2668  -22.6458 H   0  0  0  0  0  0  0  0  0  0  0  0
    1.1251   27.9855  -21.8616 H   0  0  0  0  0  0  0  0  0  0  0  0
    1.8802   27.3909  -23.3791 H   0  0  0  0  0  0  0  0  0  0  0  0
    0.9573   28.9319  -23.3791 H   0  0  0  0  0  0  0  0  0  0  0  0
    1.1862   26.6646  -26.2844 H   0  0  0  0  0  0  0  0  0  0  0  0
    1.8570   27.0677  -24.6577 H   0  0  0  0  0  0  0  0  0  0  0  0
    1.8193   24.5246  -25.9331 H   0  0  0  0  0  0  0  0  0  0  0  0
    2.2953   24.9089  -24.2329 H   0  0  0  0  0  0  0  0  0  0  0  0
    0.5570   23.8130  -23.5400 H   0  0  0  0  0  0  0  0  0  0  0  0
   -0.4900   24.8670  -24.3620 H   0  0  0  0  0  0  0  0  0  0  0  0
    0.8728   22.6560  -25.7769 H   0  0  0  0  0  0  0  0  0  0  0  0
   -0.6244   22.3783  -24.7906 H   0  0  0  0  0  0  0  0  0  0  0  0
   -2.0154   25.0111  -25.3296 H   0  0  0  0  0  0  0  0  0  0  0  0
   -3.5124   25.6911  -27.2036 H   0  0  0  0  0  0  0  0  0  0  0  0
   -4.8489   23.1564  -29.5146 H   0  0  0  0  0  0  0  0  0  0  0  0
   -5.4999   24.7822  -29.1085 H   0  0  0  0  0  0  0  0  0  0  0  0
   -6.2026   25.0236  -31.2363 H   0  0  0  0  0  0  0  0  0  0  0  0
   -4.4978   24.8798  -31.8020 H   0  0  0  0  0  0  0  0  0  0  0  0
   -8.1656   24.0266  -31.1607 H   0  0  0  0  0  0  0  0  0  0  0  0
  -10.1970   22.5756  -31.4898 H   0  0  0  0  0  0  0  0  0  0  0  0
   -9.9602   20.2639  -32.4164 H   0  0  0  0  0  0  0  0  0  0  0  0
   -7.6852   19.3625  -33.0160 H   0  0  0  0  0  0  0  0  0  0  0  0
   -5.1845   18.9627  -33.3828 H   0  0  0  0  0  0  0  0  0  0  0  0
   -2.6690   19.0950  -33.4795 H   0  0  0  0  0  0  0  0  0  0  0  0
   -1.4899   21.1859  -32.7691 H   0  0  0  0  0  0  0  0  0  0  0  0
   -2.8059   23.1733  -31.9574 H   0  0  0  0  0  0  0  0  0  0  0  0
   -1.4712   22.9276  -29.8396 H   0  0  0  0  0  0  0  0  0  0  0  0
    0.0250   22.2465  -27.9661 H   0  0  0  0  0  0  0  0  0  0  0  0
  1  2  1  0
  2  3  1  0
  3  4  1  0
  4  5  1  0
  3  6  1  0
  6  7  1  0
  7  8  1  0
  8  9  1  0
  9 10  1  0
 10 11  2  0
 11 12  1  0
 12 13  2  0
 13 14  1  0
 14 15  1  0
 15 16  1  0
 16 17  1  0
 17 18  1  0
 18 19  2  0
 19 20  1  0
 20 21  2  0
 21 22  1  0
 22 23  2  0
 23 24  1  0
 24 25  2  0
 25 26  1  0
 26 27  2  0
 27 28  1  0
 28 29  2  0
 13 30  1  0
 30 31  2  0
 31 10  1  0
 29 17  1  0
 23 18  1  0
 29 24  1  0
  1 32  1  0
  1 33  1  0
  1 34  1  0
  2 35  1  0
  2 36  1  0
  4 37  1  0
  4 38  1  0
  5 39  1  0
  5 40  1  0
  5 41  1  0
  6 42  1  0
  6 43  1  0
  7 44  1  0
  7 45  1  0
  8 46  1  0
  8 47  1  0
  9 48  1  0
  9 49  1  0
 11 50  1  0
 12 51  1  0
 15 52  1  0
 15 53  1  0
 16 54  1  0
 16 55  1  0
 19 56  1  0
 20 57  1  0
 21 58  1  0
 22 59  1  0
 25 60  1  0
 26 61  1  0
 27 62  1  0
 28 63  1  0
 30 64  1  0
 31 65  1  0
M  CHG  1   8   1
M  END
>  <UniqueID>  (27) 
26

>  <SMILES>  (27) 
CCN(CC)CC[NH2+]Cc1ccc(OCCn2c3ccccc3c3ccccc32)cc1

>  <Energy>  (27) 
105.20508684780573

>  <Genealogy>  (27) 
CCN(CC)CC[NH2+]Cc1ccc(OCCn2c3ccccc3c3ccccc32)cc1 (protonated)
CCN(CC)CC[NH2+]Cc1ccc(OCCn2c3ccccc3c3ccccc32)cc1 (3D coordinates assigned)
CCN(CC)CC[NH2+]Cc1ccc(OCCn2c3ccccc3c3ccccc32)cc1 (optimized conformer: 105.20508684780573 kcal/mol)

>  <smiles>  (27) 
CCN(CC)CCNCc1ccc(OCCn2c3ccccc3c3ccccc32)cc1

>  <score_type>  (27) 
oracle

>  <origin>  (27) 
adg

>  <m_score__min__energy>  (27) 
-9.0700000000000003

>  <m_primary>  (27) 
energy

$$$$
27:0
     RDKit          3D

 39 41  0  0  0  0  0  0  0  0999 V2000
   -9.4800   19.6680  -32.3380 C   0  0  0  0  0  0  0  0  0  0  0  0
   -8.8470   20.5110  -31.2420 C   0  0  0  0  0  0  0  0  0  0  0  0
   -8.0250   21.9640  -31.9720 S   0  0  0  0  0  0  0  0  0  0  0  0
   -6.7070   20.9890  -32.7050 C   0  0  0  0  0  0  0  0  0  0  0  0
   -6.9120   20.0440  -33.6360 N   0  0  0  0  0  0  0  0  0  0  0  0
   -5.7320   19.5920  -34.0300 N   0  0  0  0  0  0  0  0  0  0  0  0
   -4.8080   20.2740  -33.3200 C   0  0  0  0  0  0  0  0  0  0  0  0
   -3.3540   20.0360  -33.4620 C   0  0  0  0  0  0  0  0  0  0  0  0
   -2.4750   21.0800  -33.7940 C   0  0  0  0  0  0  0  0  0  0  0  0
   -1.1070   20.8190  -33.9100 C   0  0  0  0  0  0  0  0  0  0  0  0
   -0.6300   19.5660  -33.6860 N   0  0  0  0  0  0  0  0  0  0  0  0
   -1.4540   18.5410  -33.3450 C   0  0  0  0  0  0  0  0  0  0  0  0
   -2.8290   18.7580  -33.2200 C   0  0  0  0  0  0  0  0  0  0  0  0
   -5.3900   21.1610  -32.4740 N   0  0  0  0  0  0  0  0  0  0  0  0
   -4.7760   22.1880  -31.6780 C   0  0  0  0  0  0  0  0  0  0  0  0
   -5.3530   23.4630  -31.6030 C   0  0  0  0  0  0  0  0  0  0  0  0
   -4.7530   24.4660  -30.8340 C   0  0  0  0  0  0  0  0  0  0  0  0
   -3.5630   24.2030  -30.1290 C   0  0  0  0  0  0  0  0  0  0  0  0
   -2.9240   25.1730  -29.3430 O   0  0  0  0  0  0  0  0  0  0  0  0
   -2.2220   24.8940  -28.1360 C   0  0  0  0  0  0  0  0  0  0  0  0
   -2.9900   22.9280  -30.2090 C   0  0  0  0  0  0  0  0  0  0  0  0
   -3.5890   21.9280  -30.9780 C   0  0  0  0  0  0  0  0  0  0  0  0
  -10.0814   18.8670  -31.8833 H   0  0  0  0  0  0  0  0  0  0  0  0
  -10.1264   20.3029  -32.9617 H   0  0  0  0  0  0  0  0  0  0  0  0
   -8.6900   19.2243  -32.9617 H   0  0  0  0  0  0  0  0  0  0  0  0
   -9.6276   20.8465  -30.5434 H   0  0  0  0  0  0  0  0  0  0  0  0
   -8.1018   19.9057  -30.7050 H   0  0  0  0  0  0  0  0  0  0  0  0
   -7.8300   19.7260  -34.0180 H   0  0  0  0  0  0  0  0  0  0  0  0
   -2.8608   22.0964  -33.9616 H   0  0  0  0  0  0  0  0  0  0  0  0
   -0.4148   21.6291  -34.1831 H   0  0  0  0  0  0  0  0  0  0  0  0
   -1.0381   17.5383  -33.1669 H   0  0  0  0  0  0  0  0  0  0  0  0
   -3.4957   17.9313  -32.9335 H   0  0  0  0  0  0  0  0  0  0  0  0
   -6.2823   23.6762  -32.1515 H   0  0  0  0  0  0  0  0  0  0  0  0
   -5.2127   25.4639  -30.7800 H   0  0  0  0  0  0  0  0  0  0  0  0
   -2.8582   25.1468  -27.2750 H   0  0  0  0  0  0  0  0  0  0  0  0
   -1.9645   23.8252  -28.1003 H   0  0  0  0  0  0  0  0  0  0  0  0
   -1.3010   25.4945  -28.1003 H   0  0  0  0  0  0  0  0  0  0  0  0
   -2.0605   22.7123  -29.6617 H   0  0  0  0  0  0  0  0  0  0  0  0
   -3.1273   20.9312  -31.0350 H   0  0  0  0  0  0  0  0  0  0  0  0
  1  2  1  0
  2  3  1  0
  3  4  1  0
  4  5  2  0
  5  6  1  0
  6  7  2  0
  7  8  1  0
  8  9  2  0
  9 10  1  0
 10 11  2  0
 11 12  1  0
 12 13  2  0
  7 14  1  0
 14 15  1  0
 15 16  2  0
 16 17  1  0
 17 18  2  0
 18 19  1  0
 19 20  1  0
 18 21  1  0
 21 22  2  0
 14  4  1  0
 22 15  1  0
 13  8  1  0
  1 23  1  0
  1 24  1  0
  1 25  1  0
  2 26  1  0
  2 27  1  0
  5 28  1  0
  9 29  1  0
 10 30  1  0
 12 31  1  0
 13 32  1  0
 16 33  1  0
 17 34  1  0
 20 35  1  0
 20 36  1  0
 20 37  1  0
 21 38  1  0
 22 39  1  0
M  CHG  1   5   1
M  END
>  <UniqueID>  (28) 
27

>  <SMILES>  (28) 
CCSc1[nH+]nc(-c2ccncc2)n1-c1ccc(OC)cc1

>  <Energy>  (28) 
78.67495635652615

>  <Genealogy>  (28) 
CCSc1[nH+]nc(-c2ccncc2)n1-c1ccc(OC)cc1 (protonated)
CCSc1[nH+]nc(-c2ccncc2)n1-c1ccc(OC)cc1 (3D coordinates assigned)
CCSc1[nH+]nc(-c2ccncc2)n1-c1ccc(OC)cc1 (optimized conformer: 78.67495635652615 kcal/mol)

>  <smiles>  (28) 
CCSc1nnc(-c2ccncc2)n1-c1ccc(OC)cc1

>  <score_type>  (28) 
oracle

>  <origin>  (28) 
adg

>  <m_score__min__energy>  (28) 
-7.3099999999999996

>  <m_primary>  (28) 
energy

$$$$
28:0
     RDKit          3D

 57 62  0  0  0  0  0  0  0  0999 V2000
   -5.2320   23.7140  -31.5220 F   0  0  0  0  0  0  0  0  0  0  0  0
   -6.4140   23.0650  -31.6530 C   0  0  0  0  0  0  0  0  0  0  0  0
   -7.6130   23.7810  -31.6100 C   0  0  0  0  0  0  0  0  0  0  0  0
   -8.8320   23.1130  -31.7470 C   0  0  0  0  0  0  0  0  0  0  0  0
   -8.8560   21.7260  -31.9260 C   0  0  0  0  0  0  0  0  0  0  0  0
   -7.6550   20.9950  -31.9700 C   0  0  0  0  0  0  0  0  0  0  0  0
   -7.6760   19.5290  -32.1600 C   0  0  0  0  0  0  0  0  0  0  0  0
   -8.7430   18.7490  -31.8910 N   0  0  0  0  0  0  0  0  0  0  0  0
   -8.3640   17.5460  -32.1960 O   0  0  0  0  0  0  0  0  0  0  0  0
   -7.1280   17.5680  -32.6290 C   0  0  0  0  0  0  0  0  0  0  0  0
   -6.3830   16.3460  -33.1030 C   0  0  0  0  0  0  0  0  0  0  0  0
   -5.1060   16.0740  -32.2680 C   0  0  0  0  0  0  0  0  0  0  0  0
   -3.8370   16.6930  -32.8840 C   0  0  0  0  0  0  0  0  0  0  0  0
   -4.1860   17.8710  -33.6940 N   0  0  0  0  0  0  0  0  0  0  0  0
   -3.0390   18.7600  -33.9790 C   0  0  0  0  0  0  0  0  0  0  0  0
   -2.7860   19.8010  -32.9070 C   0  0  0  0  0  0  0  0  0  0  0  0
   -3.7130   19.9960  -31.8720 C   0  0  0  0  0  0  0  0  0  0  0  0
   -3.4790   20.9550  -30.8830 C   0  0  0  0  0  0  0  0  0  0  0  0
   -2.3150   21.7450  -30.9130 C   0  0  0  0  0  0  0  0  0  0  0  0
   -2.0470   22.7670  -29.8700 C   0  0  0  0  0  0  0  0  0  0  0  0
   -0.8630   23.4820  -29.6910 C   0  0  0  0  0  0  0  0  0  0  0  0
   -1.0660   24.2860  -28.6430 N   0  0  0  0  0  0  0  0  0  0  0  0
   -0.2280   25.1590  -28.0880 N   0  0  0  0  0  0  0  0  0  0  0  0
   -0.6480   25.8840  -27.0130 C   0  0  0  0  0  0  0  0  0  0  0  0
   -1.9510   25.6980  -26.5090 C   0  0  0  0  0  0  0  0  0  0  0  0
   -2.8080   24.7690  -27.1180 C   0  0  0  0  0  0  0  0  0  0  0  0
   -2.3110   24.0660  -28.2100 C   0  0  0  0  0  0  0  0  0  0  0  0
   -2.9620   23.1350  -28.9340 N   0  0  0  0  0  0  0  0  0  0  0  0
   -1.3960   21.5540  -31.9590 C   0  0  0  0  0  0  0  0  0  0  0  0
   -1.6310   20.5960  -32.9480 C   0  0  0  0  0  0  0  0  0  0  0  0
   -4.9580   17.5040  -34.9020 C   0  0  0  0  0  0  0  0  0  0  0  0
   -6.0550   16.4570  -34.6020 C   0  0  0  0  0  0  0  0  0  0  0  0
   -6.6300   18.8200  -32.6330 N   0  0  0  0  0  0  0  0  0  0  0  0
   -6.4330   21.6770  -31.8320 C   0  0  0  0  0  0  0  0  0  0  0  0
   -7.5970   24.8717  -31.4681 H   0  0  0  0  0  0  0  0  0  0  0  0
   -9.7748   23.6787  -31.7141 H   0  0  0  0  0  0  0  0  0  0  0  0
   -9.8186   21.2044  -32.0329 H   0  0  0  0  0  0  0  0  0  0  0  0
   -7.0468   15.4815  -32.9549 H   0  0  0  0  0  0  0  0  0  0  0  0
   -5.2488   16.4965  -31.2625 H   0  0  0  0  0  0  0  0  0  0  0  0
   -4.9587   14.9843  -32.2402 H   0  0  0  0  0  0  0  0  0  0  0  0
   -3.1530   16.9965  -32.0778 H   0  0  0  0  0  0  0  0  0  0  0  0
   -3.3508   15.9461  -33.5288 H   0  0  0  0  0  0  0  0  0  0  0  0
   -2.1364   18.1392  -34.0785 H   0  0  0  0  0  0  0  0  0  0  0  0
   -3.2808   19.3061  -34.9028 H   0  0  0  0  0  0  0  0  0  0  0  0
   -4.6303   19.3898  -31.8389 H   0  0  0  0  0  0  0  0  0  0  0  0
   -4.2112   21.0936  -30.0739 H   0  0  0  0  0  0  0  0  0  0  0  0
    0.0545   23.4004  -30.2923 H   0  0  0  0  0  0  0  0  0  0  0  0
    0.0278   26.6119  -26.5403 H   0  0  0  0  0  0  0  0  0  0  0  0
   -2.2950   26.2794  -25.6409 H   0  0  0  0  0  0  0  0  0  0  0  0
   -3.8303   24.6036  -26.7472 H   0  0  0  0  0  0  0  0  0  0  0  0
   -0.4823   22.1652  -31.9993 H   0  0  0  0  0  0  0  0  0  0  0  0
   -0.9056   20.4641  -33.7643 H   0  0  0  0  0  0  0  0  0  0  0  0
   -5.4343   18.4095  -35.3060 H   0  0  0  0  0  0  0  0  0  0  0  0
   -4.2588   17.0605  -35.6262 H   0  0  0  0  0  0  0  0  0  0  0  0
   -6.9701   16.7431  -35.1412 H   0  0  0  0  0  0  0  0  0  0  0  0
   -5.6755   15.4781  -34.9302 H   0  0  0  0  0  0  0  0  0  0  0  0
   -5.4870   21.1166  -31.8649 H   0  0  0  0  0  0  0  0  0  0  0  0
  1  2  1  0
  2  3  2  0
  3  4  1  0
  4  5  2  0
  5  6  1  0
  6  7  1  0
  7  8  2  0
  8  9  1  0
  9 10  1  0
 10 11  1  0
 11 12  1  0
 12 13  1  0
 13 14  1  0
 14 15  1  0
 15 16  1  0
 16 17  2  0
 17 18  1  0
 18 19  2  0
 19 20  1  0
 20 21  2  0
 21 22  1  0
 22 23  1  0
 23 24  2  0
 24 25  1  0
 25 26  2  0
 26 27  1  0
 27 28  2  0
 19 29  1  0
 29 30  2  0
 14 31  1  0
 31 32  1  0
 10 33  2  0
  6 34  2  0
 34  2  1  0
 33  7  1  0
 32 11  1  0
 30 16  1  0
 28 20  1  0
 27 22  1  0
  3 35  1  0
  4 36  1  0
  5 37  1  0
 11 38  1  0
 12 39  1  0
 12 40  1  0
 13 41  1  0
 13 42  1  0
 15 43  1  0
 15 44  1  0
 17 45  1  0
 18 46  1  0
 21 47  1  0
 24 48  1  0
 25 49  1  0
 26 50  1  0
 29 51  1  0
 30 52  1  0
 31 53  1  0
 31 54  1  0
 32 55  1  0
 32 56  1  0
 34 57  1  0
M  END
>  <UniqueID>  (29) 
28

>  <SMILES>  (29) 
Fc1cccc(-c2noc(C3CCN(Cc4ccc(-c5cn6ncccc6n5)cc4)CC3)n2)c1

>  <Energy>  (29) 
144.37795314262988

>  <Genealogy>  (29) 
Fc1cccc(-c2noc(C3CCN(Cc4ccc(-c5cn6ncccc6n5)cc4)CC3)n2)c1 (3D coordinates assigned)
Fc1cccc(-c2noc(C3CCN(Cc4ccc(-c5cn6ncccc6n5)cc4)CC3)n2)c1 (nonaromatic ring conformer: 144.37795314262988 kcal/mol)

>  <smiles>  (29) 
Fc1cccc(-c2noc(C3CCN(Cc4ccc(-c5cn6ncccc6n5)cc4)CC3)n2)c1

>  <score_type>  (29) 
oracle

>  <origin>  (29) 
adg

>  <m_score__min__energy>  (29) 
-10.109999999999999

>  <m_primary>  (29) 
energy

$$$$
29:0
     RDKit          3D

 38 39  0  0  0  0  0  0  0  0999 V2000
   -6.6580   23.2760  -31.4740 C   0  0  0  0  0  0  0  0  0  0  0  0
   -6.8080   24.2110  -30.2750 C   0  0  0  0  0  0  0  0  0  0  0  0
   -5.5300   24.2860  -29.4300 C   0  0  0  0  0  0  0  0  0  0  0  0
   -4.4220   24.9780  -30.1640 C   0  0  0  0  0  0  0  0  0  0  0  0
   -4.6780   25.6250  -31.2150 O   0  0  0  0  0  0  0  0  0  0  0  0
   -3.0870   24.9140  -29.6470 N   0  0  0  0  0  0  0  0  0  0  0  0
   -2.2050   23.7820  -29.7060 C   0  0  0  0  0  0  0  0  0  0  0  0
   -2.5410   22.6230  -30.4290 C   0  0  0  0  0  0  0  0  0  0  0  0
   -1.6730   21.5280  -30.4480 C   0  0  0  0  0  0  0  0  0  0  0  0
   -0.4690   21.5770  -29.7440 C   0  0  0  0  0  0  0  0  0  0  0  0
   -0.1370   22.7130  -29.0040 C   0  0  0  0  0  0  0  0  0  0  0  0
   -1.0140   23.8140  -28.9610 C   0  0  0  0  0  0  0  0  0  0  0  0
   -0.7000   24.9710  -28.2290 O   0  0  0  0  0  0  0  0  0  0  0  0
   -0.4890   25.0260  -26.8440 C   0  0  0  0  0  0  0  0  0  0  0  0
   -0.0780   23.8680  -26.1810 C   0  0  0  0  0  0  0  0  0  0  0  0
    0.1600   23.9070  -24.8060 C   0  0  0  0  0  0  0  0  0  0  0  0
   -0.0020   25.0670  -24.1140 N   0  0  0  0  0  0  0  0  0  0  0  0
   -0.4000   26.2170  -24.7330 C   0  0  0  0  0  0  0  0  0  0  0  0
   -0.5190   27.4920  -23.9520 C   0  0  0  0  0  0  0  0  0  0  0  0
   -0.6300   26.2170  -26.1150 C   0  0  0  0  0  0  0  0  0  0  0  0
   -6.4931   22.2480  -31.1190 H   0  0  0  0  0  0  0  0  0  0  0  0
   -7.5733   23.3111  -32.0831 H   0  0  0  0  0  0  0  0  0  0  0  0
   -5.7997   23.5957  -32.0831 H   0  0  0  0  0  0  0  0  0  0  0  0
   -7.0492   25.2198  -30.6414 H   0  0  0  0  0  0  0  0  0  0  0  0
   -7.6100   23.8123  -29.6364 H   0  0  0  0  0  0  0  0  0  0  0  0
   -5.7460   24.8405  -28.5049 H   0  0  0  0  0  0  0  0  0  0  0  0
   -5.2052   23.2591  -29.2064 H   0  0  0  0  0  0  0  0  0  0  0  0
   -3.4910   22.5785  -30.9817 H   0  0  0  0  0  0  0  0  0  0  0  0
   -1.9391   20.6261  -31.0187 H   0  0  0  0  0  0  0  0  0  0  0  0
    0.2192   20.7193  -29.7723 H   0  0  0  0  0  0  0  0  0  0  0  0
    0.8138   22.7484  -28.4520 H   0  0  0  0  0  0  0  0  0  0  0  0
    0.0576   22.9299  -26.7392 H   0  0  0  0  0  0  0  0  0  0  0  0
    0.4800   22.9956  -24.2797 H   0  0  0  0  0  0  0  0  0  0  0  0
    0.1930   25.0670  -23.0870 H   0  0  0  0  0  0  0  0  0  0  0  0
   -0.4979   27.2660  -22.8757 H   0  0  0  0  0  0  0  0  0  0  0  0
    0.3211   28.1560  -24.2038 H   0  0  0  0  0  0  0  0  0  0  0  0
   -1.4674   27.9891  -24.2038 H   0  0  0  0  0  0  0  0  0  0  0  0
   -0.9199   27.1466  -26.6266 H   0  0  0  0  0  0  0  0  0  0  0  0
  1  2  1  0
  2  3  1  0
  3  4  1  0
  4  5  2  0
  4  6  1  0
  6  7  1  0
  7  8  2  0
  8  9  1  0
  9 10  2  0
 10 11  1  0
 11 12  2  0
 12 13  1  0
 13 14  1  0
 14 15  2  0
 15 16  1  0
 16 17  2  0
 17 18  1  0
 18 19  1  0
 18 20  2  0
 12  7  1  0
 20 14  1  0
  1 21  1  0
  1 22  1  0
  1 23  1  0
  2 24  1  0
  2 25  1  0
  3 26  1  0
  3 27  1  0
  8 28  1  0
  9 29  1  0
 10 30  1  0
 11 31  1  0
 15 32  1  0
 16 33  1  0
 17 34  1  0
 19 35  1  0
 19 36  1  0
 19 37  1  0
 20 38  1  0
M  CHG  2   6  -1  17   1
M  END
>  <UniqueID>  (30) 
29

>  <SMILES>  (30) 
CCCC(=O)[N-]c1ccccc1Oc1cc[nH+]c(C)c1

>  <Energy>  (30) 
41.4245361277181

>  <Genealogy>  (30) 
CCCC(=O)[N-]c1ccccc1Oc1cc[nH+]c(C)c1 (protonated)
CCCC(=O)[N-]c1ccccc1Oc1cc[nH+]c(C)c1 (3D coordinates assigned)
CCCC(=O)[N-]c1ccccc1Oc1cc[nH+]c(C)c1 (optimized conformer: 41.4245361277181 kcal/mol)

>  <smiles>  (30) 
CCCC(=O)Nc1ccccc1Oc1ccnc(C)c1

>  <score_type>  (30) 
oracle

>  <origin>  (30) 
adg

>  <m_score__min__energy>  (30) 
-8.9399999999999995

>  <m_primary>  (30) 
energy

$$$$
30:0
     RDKit          3D

 41 43  0  0  0  0  0  0  0  0999 V2000
   -2.5670   15.4330  -35.7400 C   0  0  0  0  0  0  0  0  0  0  0  0
   -2.5150   16.7670  -35.2470 O   0  0  0  0  0  0  0  0  0  0  0  0
   -3.5890   17.4270  -34.6310 C   0  0  0  0  0  0  0  0  0  0  0  0
   -3.4550   18.6960  -34.0380 C   0  0  0  0  0  0  0  0  0  0  0  0
   -4.5570   19.3130  -33.4360 C   0  0  0  0  0  0  0  0  0  0  0  0
   -5.8100   18.6760  -33.4160 C   0  0  0  0  0  0  0  0  0  0  0  0
   -6.9800   19.3320  -32.7780 C   0  0  0  0  0  0  0  0  0  0  0  0
   -8.0100   18.5610  -32.2110 C   0  0  0  0  0  0  0  0  0  0  0  0
   -9.1110   19.1790  -31.6140 C   0  0  0  0  0  0  0  0  0  0  0  0
   -9.1960   20.5710  -31.5700 C   0  0  0  0  0  0  0  0  0  0  0  0
   -8.1730   21.3610  -32.1180 C   0  0  0  0  0  0  0  0  0  0  0  0
   -8.2600   22.8640  -32.0730 C   0  0  0  0  0  0  0  0  0  0  0  0
   -6.9860   23.4680  -32.4660 N   0  0  0  0  0  0  0  0  0  0  0  0
   -5.8720   23.6750  -31.5750 C   0  0  0  0  0  0  0  0  0  0  0  0
   -4.7100   22.8800  -31.6380 C   0  0  0  0  0  0  0  0  0  0  0  0
   -3.6460   23.1130  -30.7620 C   0  0  0  0  0  0  0  0  0  0  0  0
   -3.7290   24.1350  -29.8120 C   0  0  0  0  0  0  0  0  0  0  0  0
   -2.2730   24.4500  -28.6170 Br  0  0  0  0  0  0  0  0  0  0  0  0
   -4.8800   24.9230  -29.7370 C   0  0  0  0  0  0  0  0  0  0  0  0
   -5.9460   24.6940  -30.6120 C   0  0  0  0  0  0  0  0  0  0  0  0
   -7.0750   20.7350  -32.7310 C   0  0  0  0  0  0  0  0  0  0  0  0
   -5.9370   17.4080  -34.0090 C   0  0  0  0  0  0  0  0  0  0  0  0
   -4.8360   16.7930  -34.6100 C   0  0  0  0  0  0  0  0  0  0  0  0
   -2.5944   14.7303  -34.8941 H   0  0  0  0  0  0  0  0  0  0  0  0
   -3.4709   15.3038  -36.3535 H   0  0  0  0  0  0  0  0  0  0  0  0
   -1.6759   15.2338  -36.3535 H   0  0  0  0  0  0  0  0  0  0  0  0
   -2.4799   19.2050  -34.0478 H   0  0  0  0  0  0  0  0  0  0  0  0
   -4.4420   20.3049  -32.9745 H   0  0  0  0  0  0  0  0  0  0  0  0
   -7.9482   17.4631  -32.2378 H   0  0  0  0  0  0  0  0  0  0  0  0
   -9.9135   18.5665  -31.1772 H   0  0  0  0  0  0  0  0  0  0  0  0
  -10.0687   21.0517  -31.1037 H   0  0  0  0  0  0  0  0  0  0  0  0
   -9.0475   23.2009  -32.7632 H   0  0  0  0  0  0  0  0  0  0  0  0
   -8.4959   23.1739  -31.0443 H   0  0  0  0  0  0  0  0  0  0  0  0
   -6.8680   23.7180  -33.4750 H   0  0  0  0  0  0  0  0  0  0  0  0
   -4.6400   22.0716  -32.3807 H   0  0  0  0  0  0  0  0  0  0  0  0
   -2.7410   22.4905  -30.8204 H   0  0  0  0  0  0  0  0  0  0  0  0
   -4.9477   25.7255  -28.9878 H   0  0  0  0  0  0  0  0  0  0  0  0
   -6.8500   25.3172  -30.5455 H   0  0  0  0  0  0  0  0  0  0  0  0
   -6.2801   21.3489  -33.1796 H   0  0  0  0  0  0  0  0  0  0  0  0
   -6.9106   16.8961  -33.9998 H   0  0  0  0  0  0  0  0  0  0  0  0
   -4.9506   15.8009  -35.0711 H   0  0  0  0  0  0  0  0  0  0  0  0
  1  2  1  0
  2  3  1  0
  3  4  2  0
  4  5  1  0
  5  6  2  0
  6  7  1  0
  7  8  2  0
  8  9  1  0
  9 10  2  0
 10 11  1  0
 11 12  1  0
 12 13  1  0
 13 14  1  0
 14 15  2  0
 15 16  1  0
 16 17  2  0
 17 18  1  0
 17 19  1  0
 19 20  2  0
 11 21  2  0
  6 22  1  0
 22 23  2  0
 23  3  1  0
 21  7  1  0
 20 14  1  0
  1 24  1  0
  1 25  1  0
  1 26  1  0
  4 27  1  0
  5 28  1  0
  8 29  1  0
  9 30  1  0
 10 31  1  0
 12 32  1  0
 12 33  1  0
 13 34  1  0
 15 35  1  0
 16 36  1  0
 19 37  1  0
 20 38  1  0
 21 39  1  0
 22 40  1  0
 23 41  1  0
M  END
>  <UniqueID>  (31) 
30

>  <SMILES>  (31) 
COc1ccc(-c2cccc(CNc3ccc(Br)cc3)c2)cc1

>  <Energy>  (31) 
47.08135775185287

>  <Genealogy>  (31) 
COc1ccc(-c2cccc(CNc3ccc(Br)cc3)c2)cc1 (3D coordinates assigned)
COc1ccc(-c2cccc(CNc3ccc(Br)cc3)c2)cc1 (optimized conformer: 47.08135775185287 kcal/mol)

>  <smiles>  (31) 
COc1ccc(-c2cccc(CNc3ccc(Br)cc3)c2)cc1

>  <score_type>  (31) 
oracle

>  <origin>  (31) 
adg

>  <m_score__min__energy>  (31) 
-9.4100000000000001

>  <m_primary>  (31) 
energy

$$$$
31:0
     RDKit          3D

 62 64  0  0  0  0  0  0  0  0999 V2000
    1.9320   22.9730  -35.5730 C   0  0  0  0  0  0  0  0  0  0  0  0
    0.4730   22.7850  -35.9790 C   0  0  0  0  0  0  0  0  0  0  0  0
   -0.0520   21.4080  -35.5490 C   0  0  0  0  0  0  0  0  0  0  0  0
    0.3760   21.0570  -34.1000 C   0  0  0  0  0  0  0  0  0  0  0  0
   -0.6280   20.2220  -33.2040 C   0  0  2  0  0  0  0  0  0  0  0  0
    0.1800   19.5640  -32.0130 C   0  0  0  0  0  0  0  0  0  0  0  0
    0.2220   20.3080  -30.6730 C   0  0  0  0  0  0  0  0  0  0  0  0
   -1.1140   19.0630  -34.1380 C   0  0  0  0  0  0  0  0  0  0  0  0
   -2.4830   18.0360  -33.5730 S   0  0  0  0  0  0  0  0  0  0  0  0
   -2.7320   16.9560  -34.5880 O   0  0  0  0  0  0  0  0  0  0  0  0
   -2.0410   17.3880  -32.2890 O   0  0  0  0  0  0  0  0  0  0  0  0
   -3.9960   18.8960  -33.2750 C   0  0  0  0  0  0  0  0  0  0  0  0
   -5.1480   18.4670  -33.9480 C   0  0  0  0  0  0  0  0  0  0  0  0
   -6.3880   19.0390  -33.6800 C   0  0  0  0  0  0  0  0  0  0  0  0
   -6.5170   20.0580  -32.7200 C   0  0  0  0  0  0  0  0  0  0  0  0
   -7.8120   20.6500  -32.4320 N   0  0  0  0  0  0  0  0  0  0  0  0
   -9.0460   19.8880  -32.6520 C   0  0  0  0  0  0  0  0  0  0  0  0
   -7.9080   22.0270  -31.9310 C   0  0  0  0  0  0  0  0  0  0  0  0
   -5.3570   20.4960  -32.0530 C   0  0  0  0  0  0  0  0  0  0  0  0
   -4.0910   19.9430  -32.3340 C   0  0  0  0  0  0  0  0  0  0  0  0
   -2.8650   20.5280  -31.6490 C   0  0  2  0  0  0  0  0  0  0  0  0
   -3.2290   21.3180  -30.3770 C   0  0  0  0  0  0  0  0  0  0  0  0
   -3.7180   22.6460  -30.3860 C   0  0  0  0  0  0  0  0  0  0  0  0
   -3.9620   23.3310  -29.1920 C   0  0  0  0  0  0  0  0  0  0  0  0
   -3.6870   22.7280  -27.9650 C   0  0  0  0  0  0  0  0  0  0  0  0
   -3.9220   23.3980  -26.8090 F   0  0  0  0  0  0  0  0  0  0  0  0
   -3.1570   21.4420  -27.9300 C   0  0  0  0  0  0  0  0  0  0  0  0
   -2.9150   20.7500  -29.1200 C   0  0  0  0  0  0  0  0  0  0  0  0
   -1.8470   21.1180  -32.6900 C   0  0  2  0  0  0  0  0  0  0  0  0
   -2.5720   21.6630  -33.7650 O   0  0  0  0  0  0  0  0  0  0  0  0
    2.0089   22.9829  -34.4757 H   0  0  0  0  0  0  0  0  0  0  0  0
    2.5342   22.1450  -35.9753 H   0  0  0  0  0  0  0  0  0  0  0  0
    2.3046   23.9266  -35.9753 H   0  0  0  0  0  0  0  0  0  0  0  0
   -0.1358   23.5662  -35.5003 H   0  0  0  0  0  0  0  0  0  0  0  0
    0.4053   22.8560  -37.0746 H   0  0  0  0  0  0  0  0  0  0  0  0
   -1.1506   21.4121  -35.6050 H   0  0  0  0  0  0  0  0  0  0  0  0
    0.3747   20.6523  -36.2249 H   0  0  0  0  0  0  0  0  0  0  0  0
    1.3104   20.4804  -34.1667 H   0  0  0  0  0  0  0  0  0  0  0  0
    0.4474   22.0309  -33.5937 H   0  0  0  0  0  0  0  0  0  0  0  0
   -0.2633   18.5751  -31.8242 H   0  0  0  0  0  0  0  0  0  0  0  0
    1.2244   19.5615  -32.3583 H   0  0  0  0  0  0  0  0  0  0  0  0
    0.1810   19.5810  -29.8485 H   0  0  0  0  0  0  0  0  0  0  0  0
    1.1543   20.8878  -30.6046 H   0  0  0  0  0  0  0  0  0  0  0  0
   -0.6391   20.9890  -30.6046 H   0  0  0  0  0  0  0  0  0  0  0  0
   -1.4189   19.5181  -35.0919 H   0  0  0  0  0  0  0  0  0  0  0  0
   -0.2576   18.3745  -34.1885 H   0  0  0  0  0  0  0  0  0  0  0  0
   -5.0710   17.6667  -34.6988 H   0  0  0  0  0  0  0  0  0  0  0  0
   -7.2772   18.6899  -34.2254 H   0  0  0  0  0  0  0  0  0  0  0  0
   -9.4868   19.6158  -31.6816 H   0  0  0  0  0  0  0  0  0  0  0  0
   -9.7602   20.5026  -33.2197 H   0  0  0  0  0  0  0  0  0  0  0  0
   -8.8164   18.9742  -33.2197 H   0  0  0  0  0  0  0  0  0  0  0  0
   -7.9074   22.0179  -30.8310 H   0  0  0  0  0  0  0  0  0  0  0  0
   -7.0483   22.6098  -32.2933 H   0  0  0  0  0  0  0  0  0  0  0  0
   -8.8402   22.4849  -32.2933 H   0  0  0  0  0  0  0  0  0  0  0  0
   -5.4405   21.2884  -31.2947 H   0  0  0  0  0  0  0  0  0  0  0  0
   -2.2467   19.7378  -31.1981 H   0  0  0  0  0  0  0  0  0  0  0  0
   -3.9089   23.1466  -31.3467 H   0  0  0  0  0  0  0  0  0  0  0  0
   -4.3730   24.3509  -29.2205 H   0  0  0  0  0  0  0  0  0  0  0  0
   -2.9280   20.9689  -26.9637 H   0  0  0  0  0  0  0  0  0  0  0  0
   -2.4717   19.7441  -29.0783 H   0  0  0  0  0  0  0  0  0  0  0  0
   -1.2967   21.8721  -32.1083 H   0  0  0  0  0  0  0  0  0  0  0  0
   -1.9510   22.2290  -34.2950 H   0  0  0  0  0  0  0  0  0  0  0  0
  1  2  1  0
  2  3  1  0
  3  4  1  0
  5  4  1  6
  5  6  1  0
  6  7  1  0
  5  8  1  0
  8  9  1  0
  9 10  2  0
  9 11  2  0
  9 12  1  0
 12 13  2  0
 13 14  1  0
 14 15  2  0
 15 16  1  0
 16 17  1  0
 16 18  1  0
 15 19  1  0
 19 20  2  0
 20 21  1  0
 21 22  1  0
 22 23  2  0
 23 24  1  0
 24 25  2  0
 25 26  1  0
 25 27  1  0
 27 28  2  0
 21 29  1  0
 29 30  1  0
 29  5  1  0
 20 12  1  0
 28 22  1  0
  1 31  1  0
  1 32  1  0
  1 33  1  0
  2 34  1  0
  2 35  1  0
  3 36  1  0
  3 37  1  0
  4 38  1  0
  4 39  1  0
  6 40  1  0
  6 41  1  0
  7 42  1  0
  7 43  1  0
  7 44  1  0
  8 45  1  0
  8 46  1  0
 13 47  1  0
 14 48  1  0
 17 49  1  0
 17 50  1  0
 17 51  1  0
 18 52  1  0
 18 53  1  0
 18 54  1  0
 19 55  1  0
 21 56  1  1
 23 57  1  0
 24 58  1  0
 27 59  1  0
 28 60  1  0
 29 61  1  1
 30 62  1  0
M  END
>  <UniqueID>  (32) 
31

>  <SMILES>  (32) 
CCCC[C@]1(CC)CS(=O)(=O)c2ccc(N(C)C)cc2[C@H](c2ccc(F)cc2)C1O

>  <Energy>  (32) 
96.66191009407726

>  <Genealogy>  (32) 
CCCC[C@]1(CC)CS(=O)(=O)c2ccc(N(C)C)cc2[C@H](c2ccc(F)cc2)C1O (chirality)
CCCC[C@]1(CC)CS(=O)(=O)c2ccc(N(C)C)cc2[C@H](c2ccc(F)cc2)C1O (3D coordinates assigned)
CCCC[C@]1(CC)CS(=O)(=O)c2ccc(N(C)C)cc2[C@H](c2ccc(F)cc2)C1O (nonaromatic ring conformer: 96.66191009407726 kcal/mol)

>  <smiles>  (32) 
CCCCC1(CC)CS(=O)(=O)c2ccc(N(C)C)cc2C(c2ccc(F)cc2)C1O

>  <score_type>  (32) 
oracle

>  <origin>  (32) 
adg

>  <m_score__min__energy>  (32) 
-7.0999999999999996

>  <m_primary>  (32) 
energy

$$$$
32:0
     RDKit          3D

 47 50  0  0  0  0  0  0  0  0999 V2000
   -1.9320   25.1040  -27.6200 C   0  0  0  0  0  0  0  0  0  0  0  0
   -2.3740   25.2730  -28.9640 O   0  0  0  0  0  0  0  0  0  0  0  0
   -2.8120   24.2270  -29.7890 C   0  0  0  0  0  0  0  0  0  0  0  0
   -4.0930   24.2100  -30.3720 C   0  0  0  0  0  0  0  0  0  0  0  0
   -4.4840   23.1430  -31.1850 C   0  0  0  0  0  0  0  0  0  0  0  0
   -3.6090   22.0680  -31.4180 C   0  0  0  0  0  0  0  0  0  0  0  0
   -4.0090   20.9320  -32.2750 C   0  0  0  0  0  0  0  0  0  0  0  0
   -3.1580   19.9360  -32.6270 N   0  0  0  0  0  0  0  0  0  0  0  0
   -3.8960   19.1550  -33.4450 C   0  0  0  0  0  0  0  0  0  0  0  0
   -3.4610   17.9820  -34.0580 C   0  0  0  0  0  0  0  0  0  0  0  0
   -4.3820   17.2850  -34.8590 C   0  0  0  0  0  0  0  0  0  0  0  0
   -5.6950   17.7670  -35.0170 C   0  0  0  0  0  0  0  0  0  0  0  0
   -6.0790   18.9530  -34.3740 C   0  0  0  0  0  0  0  0  0  0  0  0
   -5.1510   19.6010  -33.6210 N   0  0  0  0  0  0  0  0  0  0  0  0
   -5.2430   20.7190  -32.8860 C   0  0  0  0  0  0  0  0  0  0  0  0
   -6.4540   21.4610  -32.6940 N   0  0  0  0  0  0  0  0  0  0  0  0
   -7.2770   21.2840  -31.4910 C   0  0  0  0  0  0  0  0  0  0  0  0
   -8.6140   22.0560  -31.6280 C   0  0  0  0  0  0  0  0  0  0  0  0
   -9.8340   21.1520  -31.8810 C   0  0  0  0  0  0  0  0  0  0  0  0
   -9.4890   20.0100  -32.8410 C   0  0  0  0  0  0  0  0  0  0  0  0
   -8.3650   19.1060  -32.2940 C   0  0  0  0  0  0  0  0  0  0  0  0
   -7.4920   19.7830  -31.2190 C   0  0  0  0  0  0  0  0  0  0  0  0
   -2.3250   22.0980  -30.8540 C   0  0  0  0  0  0  0  0  0  0  0  0
   -1.9350   23.1670  -30.0410 C   0  0  0  0  0  0  0  0  0  0  0  0
   -2.7320   25.4099  -26.9297 H   0  0  0  0  0  0  0  0  0  0  0  0
   -1.6822   24.0469  -27.4464 H   0  0  0  0  0  0  0  0  0  0  0  0
   -1.0406   25.7247  -27.4464 H   0  0  0  0  0  0  0  0  0  0  0  0
   -4.7897   25.0408  -30.1867 H   0  0  0  0  0  0  0  0  0  0  0  0
   -5.4829   23.1443  -31.6456 H   0  0  0  0  0  0  0  0  0  0  0  0
   -2.4334   17.6144  -33.9201 H   0  0  0  0  0  0  0  0  0  0  0  0
   -4.0750   16.3579  -35.3651 H   0  0  0  0  0  0  0  0  0  0  0  0
   -6.4153   17.2172  -35.6406 H   0  0  0  0  0  0  0  0  0  0  0  0
   -7.1009   19.3471  -34.4760 H   0  0  0  0  0  0  0  0  0  0  0  0
   -6.9100   21.8590  -33.5440 H   0  0  0  0  0  0  0  0  0  0  0  0
   -6.7520   21.7069  -30.6218 H   0  0  0  0  0  0  0  0  0  0  0  0
   -8.7863   22.6178  -30.6981 H   0  0  0  0  0  0  0  0  0  0  0  0
   -8.5153   22.7116  -32.5058 H   0  0  0  0  0  0  0  0  0  0  0  0
  -10.1698   20.7267  -30.9237 H   0  0  0  0  0  0  0  0  0  0  0  0
  -10.6294   21.7605  -32.3360 H   0  0  0  0  0  0  0  0  0  0  0  0
  -10.3890   19.3981  -33.0011 H   0  0  0  0  0  0  0  0  0  0  0  0
   -9.1346   20.4562  -33.7819 H   0  0  0  0  0  0  0  0  0  0  0  0
   -8.8245   18.2088  -31.8536 H   0  0  0  0  0  0  0  0  0  0  0  0
   -7.7044   18.8673  -33.1405 H   0  0  0  0  0  0  0  0  0  0  0  0
   -7.9842   19.6688  -30.2419 H   0  0  0  0  0  0  0  0  0  0  0  0
   -6.5056   19.2964  -31.2351 H   0  0  0  0  0  0  0  0  0  0  0  0
   -1.6211   21.2763  -31.0522 H   0  0  0  0  0  0  0  0  0  0  0  0
   -0.9292   23.1742  -29.5956 H   0  0  0  0  0  0  0  0  0  0  0  0
  1  2  1  0
  2  3  1  0
  3  4  2  0
  4  5  1  0
  5  6  2  0
  6  7  1  0
  7  8  1  0
  8  9  2  0
  9 10  1  0
 10 11  2  0
 11 12  1  0
 12 13  2  0
 13 14  1  0
 14 15  1  0
 15 16  1  0
 16 17  1  0
 17 18  1  0
 18 19  1  0
 19 20  1  0
 20 21  1  0
 21 22  1  0
  6 23  1  0
 23 24  2  0
 24  3  1  0
 15  7  2  0
 22 17  1  0
 14  9  1  0
  1 25  1  0
  1 26  1  0
  1 27  1  0
  4 28  1  0
  5 29  1  0
 10 30  1  0
 11 31  1  0
 12 32  1  0
 13 33  1  0
 16 34  1  0
 17 35  1  0
 18 36  1  0
 18 37  1  0
 19 38  1  0
 19 39  1  0
 20 40  1  0
 20 41  1  0
 21 42  1  0
 21 43  1  0
 22 44  1  0
 22 45  1  0
 23 46  1  0
 24 47  1  0
M  END
>  <UniqueID>  (33) 
32

>  <SMILES>  (33) 
COc1ccc(-c2nc3ccccn3c2NC2CCCCC2)cc1

>  <Energy>  (33) 
92.56481575592923

>  <Genealogy>  (33) 
COc1ccc(-c2nc3ccccn3c2NC2CCCCC2)cc1 (3D coordinates assigned)
COc1ccc(-c2nc3ccccn3c2NC2CCCCC2)cc1 (nonaromatic ring conformer: 92.56481575592923 kcal/mol)

>  <smiles>  (33) 
COc1ccc(-c2nc3ccccn3c2NC2CCCCC2)cc1

>  <score_type>  (33) 
oracle

>  <origin>  (33) 
adg

>  <m_score__min__energy>  (33) 
-8.5

>  <m_primary>  (33) 
energy

$$$$
33:0
     RDKit          3D

 35 37  0  0  0  0  0  0  0  0999 V2000
   -9.1560   20.4050  -32.4700 C   0  0  0  0  0  0  0  0  0  0  0  0
   -8.6080   19.0840  -32.0250 C   0  0  0  0  0  0  0  0  0  0  0  0
   -9.3350   18.3230  -31.3320 O   0  0  0  0  0  0  0  0  0  0  0  0
   -7.2940   18.6490  -32.4210 N   0  0  0  0  0  0  0  0  0  0  0  0
   -7.1840   17.2700  -32.9280 C   0  0  0  0  0  0  0  0  0  0  0  0
   -5.7300   16.8540  -33.1700 C   0  0  0  0  0  0  0  0  0  0  0  0
   -5.0090   17.9060  -34.0090 C   0  0  0  0  0  0  0  0  0  0  0  0
   -5.0640   19.2390  -33.3170 C   0  0  0  0  0  0  0  0  0  0  0  0
   -4.0120   20.1510  -33.4690 C   0  0  0  0  0  0  0  0  0  0  0  0
   -4.0390   21.3820  -32.8110 C   0  0  0  0  0  0  0  0  0  0  0  0
   -2.9870   22.2250  -32.9640 F   0  0  0  0  0  0  0  0  0  0  0  0
   -5.1220   21.7190  -31.9770 C   0  0  0  0  0  0  0  0  0  0  0  0
   -5.1430   22.9810  -31.2780 N   0  0  0  0  0  0  0  0  0  0  0  0
   -6.1700   23.5260  -30.5950 C   0  0  0  0  0  0  0  0  0  0  0  0
   -5.7120   24.7290  -30.1070 C   0  0  0  0  0  0  0  0  0  0  0  0
   -6.4980   25.7360  -29.3390 C   0  0  0  0  0  0  0  0  0  0  0  0
   -4.4390   24.8990  -30.5130 N   0  0  0  0  0  0  0  0  0  0  0  0
   -4.1200   23.8210  -31.2150 N   0  0  0  0  0  0  0  0  0  0  0  0
   -6.1860   20.8080  -31.8450 C   0  0  0  0  0  0  0  0  0  0  0  0
   -6.1880   19.5820  -32.5410 C   0  0  0  0  0  0  0  0  0  0  0  0
   -9.4082   21.0130  -31.5887 H   0  0  0  0  0  0  0  0  0  0  0  0
   -8.4015   20.9302  -33.0741 H   0  0  0  0  0  0  0  0  0  0  0  0
  -10.0607   20.2419  -33.0741 H   0  0  0  0  0  0  0  0  0  0  0  0
   -7.6298   16.5856  -32.1912 H   0  0  0  0  0  0  0  0  0  0  0  0
   -7.7125   17.2225  -33.8916 H   0  0  0  0  0  0  0  0  0  0  0  0
   -5.2173   16.7480  -32.2025 H   0  0  0  0  0  0  0  0  0  0  0  0
   -5.7178   15.8961  -33.7107 H   0  0  0  0  0  0  0  0  0  0  0  0
   -3.9587   17.6080  -34.1434 H   0  0  0  0  0  0  0  0  0  0  0  0
   -5.5014   17.9867  -34.9893 H   0  0  0  0  0  0  0  0  0  0  0  0
   -3.1572   19.8952  -34.1123 H   0  0  0  0  0  0  0  0  0  0  0  0
   -7.1727   23.0956  -30.4557 H   0  0  0  0  0  0  0  0  0  0  0  0
   -6.3626   25.5625  -28.2613 H   0  0  0  0  0  0  0  0  0  0  0  0
   -6.1477   26.7470  -29.5945 H   0  0  0  0  0  0  0  0  0  0  0  0
   -7.5638   25.6417  -29.5945 H   0  0  0  0  0  0  0  0  0  0  0  0
   -7.0316   21.0568  -31.1869 H   0  0  0  0  0  0  0  0  0  0  0  0
  1  2  1  0
  2  3  2  0
  2  4  1  0
  4  5  1  0
  5  6  1  0
  6  7  1  0
  7  8  1  0
  8  9  2  0
  9 10  1  0
 10 11  1  0
 10 12  2  0
 12 13  1  0
 13 14  1  0
 14 15  2  0
 15 16  1  0
 15 17  1  0
 17 18  2  0
 12 19  1  0
 19 20  2  0
 20  4  1  0
 20  8  1  0
 18 13  1  0
  1 21  1  0
  1 22  1  0
  1 23  1  0
  5 24  1  0
  5 25  1  0
  6 26  1  0
  6 27  1  0
  7 28  1  0
  7 29  1  0
  9 30  1  0
 14 31  1  0
 16 32  1  0
 16 33  1  0
 16 34  1  0
 19 35  1  0
M  END
>  <UniqueID>  (34) 
33

>  <SMILES>  (34) 
CC(=O)N1CCCc2cc(F)c(-n3cc(C)nn3)cc21

>  <Energy>  (34) 
79.0333042716418

>  <Genealogy>  (34) 
CC(=O)N1CCCc2cc(F)c(-n3cc(C)nn3)cc21 (3D coordinates assigned)
CC(=O)N1CCCc2cc(F)c(-n3cc(C)nn3)cc21 (nonaromatic ring conformer: 79.0333042716418 kcal/mol)

>  <smiles>  (34) 
CC(=O)N1CCCc2cc(F)c(-n3cc(C)nn3)cc21

>  <score_type>  (34) 
oracle

>  <origin>  (34) 
adg

>  <m_score__min__energy>  (34) 
-8.6199999999999992

>  <m_primary>  (34) 
energy

$$$$
34:0
     RDKit          3D

 29 31  0  0  0  0  0  0  0  0999 V2000
   -2.2650   24.1370  -29.3430 C   0  0  0  0  0  0  0  0  0  0  0  0
   -3.1200   24.8000  -30.2690 O   0  0  0  0  0  0  0  0  0  0  0  0
   -4.4930   24.5460  -30.4050 C   0  0  0  0  0  0  0  0  0  0  0  0
   -5.3950   25.4900  -29.9050 C   0  0  0  0  0  0  0  0  0  0  0  0
   -6.7700   25.2830  -30.0150 C   0  0  0  0  0  0  0  0  0  0  0  0
   -7.2610   24.1280  -30.6280 C   0  0  0  0  0  0  0  0  0  0  0  0
   -6.3740   23.1640  -31.1400 C   0  0  0  0  0  0  0  0  0  0  0  0
   -6.8660   21.9290  -31.7940 C   0  0  0  0  0  0  0  0  0  0  0  0
   -8.1580   21.5910  -31.9730 N   0  0  0  0  0  0  0  0  0  0  0  0
   -8.1850   20.4230  -32.5930 N   0  0  0  0  0  0  0  0  0  0  0  0
   -6.8930   20.0840  -32.7740 C   0  0  0  0  0  0  0  0  0  0  0  0
   -6.4490   18.8500  -33.4280 C   0  0  0  0  0  0  0  0  0  0  0  0
   -5.6310   18.7760  -34.5480 C   0  0  0  0  0  0  0  0  0  0  0  0
   -5.3740   17.4610  -34.9530 C   0  0  0  0  0  0  0  0  0  0  0  0
   -5.9850   16.5010  -34.1560 C   0  0  0  0  0  0  0  0  0  0  0  0
   -6.8470   17.2900  -32.9460 S   0  0  0  0  0  0  0  0  0  0  0  0
   -6.0830   20.9980  -32.2890 O   0  0  0  0  0  0  0  0  0  0  0  0
   -4.9880   23.3810  -31.0230 C   0  0  0  0  0  0  0  0  0  0  0  0
   -2.5778   24.3795  -28.3167 H   0  0  0  0  0  0  0  0  0  0  0  0
   -2.3288   23.0499  -29.4985 H   0  0  0  0  0  0  0  0  0  0  0  0
   -1.2280   24.4694  -29.4985 H   0  0  0  0  0  0  0  0  0  0  0  0
   -5.0174   26.4029  -29.4212 H   0  0  0  0  0  0  0  0  0  0  0  0
   -7.4704   26.0323  -29.6174 H   0  0  0  0  0  0  0  0  0  0  0  0
   -8.3467   23.9716  -30.7107 H   0  0  0  0  0  0  0  0  0  0  0  0
   -9.0120   22.1210  -31.6920 H   0  0  0  0  0  0  0  0  0  0  0  0
   -5.2268   19.6596  -35.0636 H   0  0  0  0  0  0  0  0  0  0  0  0
   -4.7467   17.2110  -35.8214 H   0  0  0  0  0  0  0  0  0  0  0  0
   -5.9168   15.4117  -34.2928 H   0  0  0  0  0  0  0  0  0  0  0  0
   -4.2845   22.6333  -31.4181 H   0  0  0  0  0  0  0  0  0  0  0  0
  1  2  1  0
  2  3  1  0
  3  4  2  0
  4  5  1  0
  5  6  2  0
  6  7  1  0
  7  8  1  0
  8  9  2  0
  9 10  1  0
 10 11  2  0
 11 12  1  0
 12 13  2  0
 13 14  1  0
 14 15  2  0
 15 16  1  0
 11 17  1  0
  7 18  2  0
 18  3  1  0
 17  8  1  0
 16 12  1  0
  1 19  1  0
  1 20  1  0
  1 21  1  0
  4 22  1  0
  5 23  1  0
  6 24  1  0
  9 25  1  0
 13 26  1  0
 14 27  1  0
 15 28  1  0
 18 29  1  0
M  CHG  1   9   1
M  END
>  <UniqueID>  (35) 
34

>  <SMILES>  (35) 
COc1cccc(-c2[nH+]nc(-c3cccs3)o2)c1

>  <Energy>  (35) 
92.10741243413766

>  <Genealogy>  (35) 
COc1cccc(-c2[nH+]nc(-c3cccs3)o2)c1 (protonated)
COc1cccc(-c2[nH+]nc(-c3cccs3)o2)c1 (3D coordinates assigned)
COc1cccc(-c2[nH+]nc(-c3cccs3)o2)c1 (optimized conformer: 92.10741243413766 kcal/mol)

>  <smiles>  (35) 
COc1cccc(-c2nnc(-c3cccs3)o2)c1

>  <score_type>  (35) 
oracle

>  <origin>  (35) 
adg

>  <m_score__min__energy>  (35) 
-6.7000000000000002

>  <m_primary>  (35) 
energy

$$$$
35:0
     RDKit          3D

 38 40  0  0  0  0  0  0  0  0999 V2000
   -5.7450   25.3980  -30.1560 C   0  0  0  0  0  0  0  0  0  0  0  0
   -4.9790   24.7880  -31.1910 O   0  0  0  0  0  0  0  0  0  0  0  0
   -5.1070   23.4480  -31.5840 C   0  0  0  0  0  0  0  0  0  0  0  0
   -6.3930   22.9230  -31.7470 C   0  0  0  0  0  0  0  0  0  0  0  0
   -6.5760   21.5930  -32.1390 C   0  0  0  0  0  0  0  0  0  0  0  0
   -5.4660   20.7610  -32.3820 C   0  0  0  0  0  0  0  0  0  0  0  0
   -5.6370   19.3430  -32.7910 C   0  0  0  0  0  0  0  0  0  0  0  0
   -5.6650   18.9560  -34.1330 C   0  0  0  0  0  0  0  0  0  0  0  0
   -5.8230   17.6120  -34.4570 C   0  0  0  0  0  0  0  0  0  0  0  0
   -5.9440   16.6490  -33.4350 C   0  0  0  0  0  0  0  0  0  0  0  0
   -6.1090   15.2310  -33.7440 N   0  0  0  0  0  0  0  0  0  0  0  0
   -5.0590   14.2720  -33.3370 C   0  0  0  0  0  0  0  0  0  0  0  0
   -5.3970   12.8150  -33.6680 C   0  0  0  0  0  0  0  0  0  0  0  0
   -6.0620   12.7180  -34.9040 O   0  0  0  0  0  0  0  0  0  0  0  0
   -7.3400   13.2900  -34.7660 C   0  0  0  0  0  0  0  0  0  0  0  0
   -7.2450   14.8060  -34.5880 C   0  0  0  0  0  0  0  0  0  0  0  0
   -5.9040   17.0890  -32.1370 N   0  0  0  0  0  0  0  0  0  0  0  0
   -5.7540   18.3820  -31.8380 N   0  0  0  0  0  0  0  0  0  0  0  0
   -4.1750   21.2880  -32.2040 C   0  0  0  0  0  0  0  0  0  0  0  0
   -3.9950   22.6180  -31.8130 C   0  0  0  0  0  0  0  0  0  0  0  0
   -5.3528   25.0857  -29.1769 H   0  0  0  0  0  0  0  0  0  0  0  0
   -5.6773   26.4922  -30.2460 H   0  0  0  0  0  0  0  0  0  0  0  0
   -6.7963   25.0870  -30.2460 H   0  0  0  0  0  0  0  0  0  0  0  0
   -7.2693   23.5625  -31.5651 H   0  0  0  0  0  0  0  0  0  0  0  0
   -7.5941   21.1940  -32.2584 H   0  0  0  0  0  0  0  0  0  0  0  0
   -5.5628   19.7089  -34.9285 H   0  0  0  0  0  0  0  0  0  0  0  0
   -5.8535   17.3009  -35.5116 H   0  0  0  0  0  0  0  0  0  0  0  0
   -4.1254   14.5385  -33.8541 H   0  0  0  0  0  0  0  0  0  0  0  0
   -4.9659   14.3409  -32.2431 H   0  0  0  0  0  0  0  0  0  0  0  0
   -4.4656   12.2316  -33.7143 H   0  0  0  0  0  0  0  0  0  0  0  0
   -6.0599   12.4228  -32.8827 H   0  0  0  0  0  0  0  0  0  0  0  0
   -7.9319   13.0698  -35.6666 H   0  0  0  0  0  0  0  0  0  0  0  0
   -7.8215   12.8617  -33.8745 H   0  0  0  0  0  0  0  0  0  0  0  0
   -7.1326   15.2666  -35.5806 H   0  0  0  0  0  0  0  0  0  0  0  0
   -8.1648   15.1300  -34.0791 H   0  0  0  0  0  0  0  0  0  0  0  0
   -5.9960   16.4310  -31.3360 H   0  0  0  0  0  0  0  0  0  0  0  0
   -3.2973   20.6472  -32.3742 H   0  0  0  0  0  0  0  0  0  0  0  0
   -2.9783   23.0175  -31.6838 H   0  0  0  0  0  0  0  0  0  0  0  0
  1  2  1  0
  2  3  1  0
  3  4  2  0
  4  5  1  0
  5  6  2  0
  6  7  1  0
  7  8  2  0
  8  9  1  0
  9 10  2  0
 10 11  1  0
 11 12  1  0
 12 13  1  0
 13 14  1  0
 14 15  1  0
 15 16  1  0
 10 17  1  0
 17 18  2  0
  6 19  1  0
 19 20  2  0
 20  3  1  0
 18  7  1  0
 16 11  1  0
  1 21  1  0
  1 22  1  0
  1 23  1  0
  4 24  1  0
  5 25  1  0
  8 26  1  0
  9 27  1  0
 12 28  1  0
 12 29  1  0
 13 30  1  0
 13 31  1  0
 15 32  1  0
 15 33  1  0
 16 34  1  0
 16 35  1  0
 17 36  1  0
 19 37  1  0
 20 38  1  0
M  CHG  1  17   1
M  END
>  <UniqueID>  (36) 
35

>  <SMILES>  (36) 
COc1ccc(-c2ccc(N3CCOCC3)[nH+]n2)cc1

>  <Energy>  (36) 
50.47435467384741

>  <Genealogy>  (36) 
COc1ccc(-c2ccc(N3CCOCC3)[nH+]n2)cc1 (protonated)
COc1ccc(-c2ccc(N3CCOCC3)[nH+]n2)cc1 (3D coordinates assigned)
COc1ccc(-c2ccc(N3CCOCC3)[nH+]n2)cc1 (nonaromatic ring conformer: 50.47435467384741 kcal/mol)

>  <smiles>  (36) 
COc1ccc(-c2ccc(N3CCOCC3)nn2)cc1

>  <score_type>  (36) 
oracle

>  <origin>  (36) 
adg

>  <m_score__min__energy>  (36) 
-5.9299999999999997

>  <m_primary>  (36) 
energy

$$$$
36:0
     RDKit          3D

 45 47  0  0  0  0  0  0  0  0999 V2000
   -4.9860   19.6340  -33.4200 C   0  0  0  0  0  0  0  0  0  0  0  0
   -5.4090   20.7770  -32.6850 O   0  0  0  0  0  0  0  0  0  0  0  0
   -6.7330   21.0260  -32.2860 C   0  0  0  0  0  0  0  0  0  0  0  0
   -7.8070   20.2500  -32.7640 C   0  0  0  0  0  0  0  0  0  0  0  0
   -9.1090   20.4960  -32.3260 C   0  0  0  0  0  0  0  0  0  0  0  0
   -9.3580   21.5150  -31.4080 C   0  0  0  0  0  0  0  0  0  0  0  0
   -8.3060   22.2980  -30.9290 C   0  0  0  0  0  0  0  0  0  0  0  0
   -6.9890   22.0700  -31.3670 C   0  0  0  0  0  0  0  0  0  0  0  0
   -5.8920   22.9250  -30.8520 C   0  0  0  0  0  0  0  0  0  0  0  0
   -4.7280   22.3430  -30.3250 C   0  0  0  0  0  0  0  0  0  0  0  0
   -3.6950   23.1460  -29.8350 C   0  0  0  0  0  0  0  0  0  0  0  0
   -3.8060   24.5410  -29.8570 C   0  0  0  0  0  0  0  0  0  0  0  0
   -2.7340   25.2960  -29.3540 O   0  0  0  0  0  0  0  0  0  0  0  0
   -2.1570   25.1620  -28.0550 C   0  0  0  0  0  0  0  0  0  0  0  0
   -0.6520   25.5200  -28.0540 C   0  0  0  0  0  0  0  0  0  0  0  0
    0.2580   24.4330  -28.4920 N   0  0  0  0  0  0  0  0  0  0  0  0
    1.0580   23.8490  -27.4060 C   0  0  0  0  0  0  0  0  0  0  0  0
    0.5940   22.4110  -27.1890 C   0  0  0  0  0  0  0  0  0  0  0  0
   -0.4950   22.1600  -28.2150 C   0  0  0  0  0  0  0  0  0  0  0  0
   -0.4130   23.3270  -29.1830 C   0  0  0  0  0  0  0  0  0  0  0  0
   -4.9780   25.1270  -30.3700 C   0  0  0  0  0  0  0  0  0  0  0  0
   -6.0110   24.3240  -30.8630 C   0  0  0  0  0  0  0  0  0  0  0  0
   -4.6911   18.8372  -32.7213 H   0  0  0  0  0  0  0  0  0  0  0  0
   -5.8123   19.2790  -34.0534 H   0  0  0  0  0  0  0  0  0  0  0  0
   -4.1277   19.9024  -34.0534 H   0  0  0  0  0  0  0  0  0  0  0  0
   -7.6180   19.4438  -33.4881 H   0  0  0  0  0  0  0  0  0  0  0  0
   -9.9406   19.8844  -32.7060 H   0  0  0  0  0  0  0  0  0  0  0  0
  -10.3847   21.7025  -31.0605 H   0  0  0  0  0  0  0  0  0  0  0  0
   -8.5087   23.0995  -30.2034 H   0  0  0  0  0  0  0  0  0  0  0  0
   -4.6287   21.2478  -30.2977 H   0  0  0  0  0  0  0  0  0  0  0  0
   -2.7865   22.6777  -29.4284 H   0  0  0  0  0  0  0  0  0  0  0  0
   -2.6831   25.8339  -27.3609 H   0  0  0  0  0  0  0  0  0  0  0  0
   -2.2584   24.1121  -27.7430 H   0  0  0  0  0  0  0  0  0  0  0  0
   -0.5061   26.3775  -28.7273 H   0  0  0  0  0  0  0  0  0  0  0  0
   -0.3903   25.7327  -27.0070 H   0  0  0  0  0  0  0  0  0  0  0  0
    2.1228   23.8587  -27.6817 H   0  0  0  0  0  0  0  0  0  0  0  0
    0.9275   24.4328  -26.4829 H   0  0  0  0  0  0  0  0  0  0  0  0
    1.4304   21.7130  -27.3417 H   0  0  0  0  0  0  0  0  0  0  0  0
    0.2232   22.2590  -26.1646 H   0  0  0  0  0  0  0  0  0  0  0  0
   -0.3169   21.2104  -28.7409 H   0  0  0  0  0  0  0  0  0  0  0  0
   -1.4880   22.0848  -27.7478 H   0  0  0  0  0  0  0  0  0  0  0  0
    0.1644   23.0358  -30.0728 H   0  0  0  0  0  0  0  0  0  0  0  0
   -1.4194   23.6296  -29.5079 H   0  0  0  0  0  0  0  0  0  0  0  0
   -5.0820   26.2220  -30.3832 H   0  0  0  0  0  0  0  0  0  0  0  0
   -6.9232   24.7915  -31.2622 H   0  0  0  0  0  0  0  0  0  0  0  0
  1  2  1  0
  2  3  1  0
  3  4  2  0
  4  5  1  0
  5  6  2  0
  6  7  1  0
  7  8  2  0
  8  9  1  0
  9 10  2  0
 10 11  1  0
 11 12  2  0
 12 13  1  0
 13 14  1  0
 14 15  1  0
 15 16  1  0
 16 17  1  0
 17 18  1  0
 18 19  1  0
 19 20  1  0
 12 21  1  0
 21 22  2  0
  8  3  1  0
 22  9  1  0
 20 16  1  0
  1 23  1  0
  1 24  1  0
  1 25  1  0
  4 26  1  0
  5 27  1  0
  6 28  1  0
  7 29  1  0
 10 30  1  0
 11 31  1  0
 14 32  1  0
 14 33  1  0
 15 34  1  0
 15 35  1  0
 17 36  1  0
 17 37  1  0
 18 38  1  0
 18 39  1  0
 19 40  1  0
 19 41  1  0
 20 42  1  0
 20 43  1  0
 21 44  1  0
 22 45  1  0
M  END
>  <UniqueID>  (37) 
36

>  <SMILES>  (37) 
COc1ccccc1-c1ccc(OCCN2CCCC2)cc1

>  <Energy>  (37) 
57.73072674225097

>  <Genealogy>  (37) 
COc1ccccc1-c1ccc(OCCN2CCCC2)cc1 (3D coordinates assigned)
COc1ccccc1-c1ccc(OCCN2CCCC2)cc1 (nonaromatic ring conformer: 57.73072674225097 kcal/mol)

>  <smiles>  (37) 
COc1ccccc1-c1ccc(OCCN2CCCC2)cc1

>  <score_type>  (37) 
oracle

>  <origin>  (37) 
adg

>  <m_score__min__energy>  (37) 
-8

>  <m_primary>  (37) 
energy

$$$$
37:0
     RDKit          3D

 49 52  0  0  1  0  0  0  0  0999 V2000
   -3.4590   21.6870  -27.8380 C   0  0  0  0  0  0  0  0  0  0  0  0
   -4.1610   23.0290  -27.9450 C   0  0  0  0  0  0  0  0  0  0  0  0
   -3.3420   23.9470  -28.7010 N   0  0  0  0  0  0  0  0  0  0  0  0
   -2.3470   24.7110  -27.9570 C   0  0  0  0  0  0  0  0  0  0  0  0
   -3.4660   24.1310  -30.1080 C   0  0  0  0  0  0  0  0  0  0  0  0
   -3.8590   25.2270  -30.6180 O   0  0  0  0  0  0  0  0  0  0  0  0
   -3.1210   22.9980  -30.9700 C   0  0  0  0  0  0  0  0  0  0  0  0
   -1.8850   22.3800  -30.7630 C   0  0  0  0  0  0  0  0  0  0  0  0
   -1.4950   21.2940  -31.5510 C   0  0  0  0  0  0  0  0  0  0  0  0
   -2.3490   20.8360  -32.5420 C   0  0  0  0  0  0  0  0  0  0  0  0
   -3.5780   21.4740  -32.7260 C   0  0  0  0  0  0  0  0  0  0  0  0
   -3.9720   22.5370  -31.9630 C   0  0  0  0  0  0  0  0  0  0  0  0
   -5.2170   23.2130  -32.1190 N   0  0  0  0  0  0  0  0  0  0  0  0
   -6.2820   22.5470  -31.9340 C   0  0  0  0  0  0  0  0  0  0  0  0
   -6.6160   21.4180  -32.5820 N   0  0  0  0  0  0  0  0  0  0  0  0
   -7.7620   20.7520  -32.3430 C   0  0  0  0  0  0  0  0  0  0  0  0
   -8.0090   19.6710  -33.0110 N   0  0  0  0  0  0  0  0  0  0  0  0
   -6.9390   18.8220  -33.3330 C   0  0  0  0  0  0  0  0  0  0  0  0
   -6.0970   18.9890  -34.4130 C   0  0  0  0  0  0  0  0  0  0  0  0
   -5.0530   18.1500  -34.7140 C   0  0  0  0  0  0  0  0  0  0  0  0
   -4.7770   17.0480  -33.9220 C   0  0  0  0  0  0  0  0  0  0  0  0
   -3.8480   16.1340  -34.0260 N   0  0  0  0  0  0  0  0  0  0  0  0
   -3.6050   15.2070  -33.3730 C   0  0  0  0  0  0  0  0  0  0  0  0
   -4.9910   15.3910  -32.0500 S   0  0  0  0  0  0  0  0  0  0  0  0
   -5.6170   16.8560  -32.8220 C   0  0  0  0  0  0  0  0  0  0  0  0
   -6.6710   17.7160  -32.5270 C   0  0  0  0  0  0  0  0  0  0  0  0
   -8.6220   21.2280  -31.4160 N   0  0  0  0  0  0  0  0  0  0  0  0
   -8.3630   22.3540  -30.7220 C   0  0  0  0  0  0  0  0  0  0  0  0
   -7.1810   23.0100  -30.9920 C   0  0  0  0  0  0  0  0  0  0  0  0
   -6.8360   24.4650  -30.1020 Cl  0  0  0  0  0  0  0  0  0  0  0  0
   -3.3233   21.4277  -26.7776 H   0  0  0  0  0  0  0  0  0  0  0  0
   -4.0684   20.9142  -28.3294 H   0  0  0  0  0  0  0  0  0  0  0  0
   -2.4767   21.7468  -28.3294 H   0  0  0  0  0  0  0  0  0  0  0  0
   -5.1273   22.8968  -28.4537 H   0  0  0  0  0  0  0  0  0  0  0  0
   -4.3275   23.4348  -26.9362 H   0  0  0  0  0  0  0  0  0  0  0  0
   -2.5165   24.5809  -26.8780 H   0  0  0  0  0  0  0  0  0  0  0  0
   -1.3401   24.3518  -28.2160 H   0  0  0  0  0  0  0  0  0  0  0  0
   -2.4340   25.7765  -28.2160 H   0  0  0  0  0  0  0  0  0  0  0  0
   -1.2142   22.7511  -29.9741 H   0  0  0  0  0  0  0  0  0  0  0  0
   -0.5218   20.8083  -31.3868 H   0  0  0  0  0  0  0  0  0  0  0  0
   -2.0631   19.9825  -33.1744 H   0  0  0  0  0  0  0  0  0  0  0  0
   -4.2530   21.1075  -33.5135 H   0  0  0  0  0  0  0  0  0  0  0  0
   -5.9700   21.0500  -33.2860 H   0  0  0  0  0  0  0  0  0  0  0  0
   -6.2735   19.8494  -35.0752 H   0  0  0  0  0  0  0  0  0  0  0  0
   -4.4278   18.3556  -35.5954 H   0  0  0  0  0  0  0  0  0  0  0  0
   -2.8162   14.4476  -33.4784 H   0  0  0  0  0  0  0  0  0  0  0  0
   -7.3008   17.5206  -31.6466 H   0  0  0  0  0  0  0  0  0  0  0  0
   -9.5170   20.7360  -31.2100 H   0  0  0  0  0  0  0  0  0  0  0  0
   -9.0681   22.7351  -29.9686 H   0  0  0  0  0  0  0  0  0  0  0  0
  1  2  1  0
  2  3  1  0
  3  4  1  0
  3  5  1  0
  5  6  2  0
  5  7  1  0
  7  8  2  0
  8  9  1  0
  9 10  2  0
 10 11  1  0
 11 12  2  0
 12 13  1  0
 13 14  2  0
 14 15  1  0
 15 16  1  0
 16 17  2  0
 17 18  1  0
 18 19  2  0
 19 20  1  0
 20 21  2  0
 21 22  1  0
 22 23  2  0
 23 24  1  0
 24 25  1  0
 25 26  2  0
 16 27  1  0
 27 28  1  0
 28 29  2  0
 29 30  1  0
 12  7  1  0
 29 14  1  0
 26 18  1  0
 25 21  1  0
  1 31  1  0
  1 32  1  0
  1 33  1  0
  2 34  1  0
  2 35  1  0
  4 36  1  0
  4 37  1  0
  4 38  1  0
  8 39  1  0
  9 40  1  0
 10 41  1  0
 11 42  1  0
 15 43  1  0
 19 44  1  0
 20 45  1  0
 23 46  1  0
 26 47  1  0
 27 48  1  0
 28 49  1  0
M  END
>  <smiles>  (38) 
CCN(C)C(=O)c1ccccc1N=c1[nH]c(=Nc2ccc3ncsc3c2)[nH]cc1Cl

>  <score_type>  (38) 
oracle

>  <origin>  (38) 
adg

>  <m_score__min__energy>  (38) 
-9.3399999999999999

>  <m_primary>  (38) 
energy

$$$$
38:0
     RDKit          3D

 47 47  0  0  0  0  0  0  0  0999 V2000
   -6.8420   15.3710  -34.2030 C   0  0  0  0  0  0  0  0  0  0  0  0
   -6.4190   16.6740  -33.6680 N   0  0  0  0  0  0  0  0  0  0  0  0
   -5.7240   16.5230  -32.3800 C   0  0  0  0  0  0  0  0  0  0  0  0
   -5.6660   17.4960  -34.6460 C   0  0  0  0  0  0  0  0  0  0  0  0
   -5.7630   19.0250  -34.4290 C   0  0  0  0  0  0  0  0  0  0  0  0
   -6.5790   19.3690  -33.2600 N   0  0  0  0  0  0  0  0  0  0  0  0
   -6.6110   20.6960  -32.6850 C   0  0  0  0  0  0  0  0  0  0  0  0
   -5.4580   21.5050  -32.7150 C   0  0  0  0  0  0  0  0  0  0  0  0
   -5.4570   22.7750  -32.1440 C   0  0  0  0  0  0  0  0  0  0  0  0
   -6.6060   23.2720  -31.5220 C   0  0  0  0  0  0  0  0  0  0  0  0
   -6.5790   24.6150  -30.8380 C   0  0  0  0  0  0  0  0  0  0  0  0
   -5.7720   24.5730  -29.5330 C   0  0  0  0  0  0  0  0  0  0  0  0
   -4.2880   24.5570  -29.8020 C   0  0  0  0  0  0  0  0  0  0  0  0
   -3.8440   25.3000  -30.7210 O   0  0  0  0  0  0  0  0  0  0  0  0
   -3.3810   23.6840  -29.0920 N   0  0  0  0  0  0  0  0  0  0  0  0
   -3.7780   23.0280  -27.8420 C   0  0  0  0  0  0  0  0  0  0  0  0
   -2.0310   23.4830  -29.6260 C   0  0  0  0  0  0  0  0  0  0  0  0
   -7.7620   22.4820  -31.4800 C   0  0  0  0  0  0  0  0  0  0  0  0
   -7.7890   21.2000  -32.0650 C   0  0  0  0  0  0  0  0  0  0  0  0
   -9.0650   20.3810  -32.0040 C   0  0  0  0  0  0  0  0  0  0  0  0
   -9.0170   19.4220  -31.0070 F   0  0  0  0  0  0  0  0  0  0  0  0
  -10.1440   21.2060  -31.7410 F   0  0  0  0  0  0  0  0  0  0  0  0
   -9.2610   19.7360  -33.2120 F   0  0  0  0  0  0  0  0  0  0  0  0
   -7.0639   14.6873  -33.3703 H   0  0  0  0  0  0  0  0  0  0  0  0
   -7.7435   15.5029  -34.8194 H   0  0  0  0  0  0  0  0  0  0  0  0
   -6.0350   14.9482  -34.8194 H   0  0  0  0  0  0  0  0  0  0  0  0
   -6.4380   16.6781  -31.5577 H   0  0  0  0  0  0  0  0  0  0  0  0
   -5.2979   15.5113  -32.3097 H   0  0  0  0  0  0  0  0  0  0  0  0
   -4.9165   17.2667  -32.3097 H   0  0  0  0  0  0  0  0  0  0  0  0
   -4.6055   17.2098  -34.5871 H   0  0  0  0  0  0  0  0  0  0  0  0
   -6.1191   17.2961  -35.6282 H   0  0  0  0  0  0  0  0  0  0  0  0
   -4.7494   19.4270  -34.2839 H   0  0  0  0  0  0  0  0  0  0  0  0
   -6.2443   19.4617  -35.3165 H   0  0  0  0  0  0  0  0  0  0  0  0
   -7.1400   18.6100  -32.8190 H   0  0  0  0  0  0  0  0  0  0  0  0
   -4.5442   21.1275  -33.1971 H   0  0  0  0  0  0  0  0  0  0  0  0
   -4.5465   23.3910  -32.1826 H   0  0  0  0  0  0  0  0  0  0  0  0
   -6.1220   25.3509  -31.5159 H   0  0  0  0  0  0  0  0  0  0  0  0
   -7.6140   24.8945  -30.5916 H   0  0  0  0  0  0  0  0  0  0  0  0
   -6.0170   25.4614  -28.9323 H   0  0  0  0  0  0  0  0  0  0  0  0
   -6.0353   23.6512  -28.9935 H   0  0  0  0  0  0  0  0  0  0  0  0
   -3.4196   23.6203  -26.9872 H   0  0  0  0  0  0  0  0  0  0  0  0
   -4.8745   22.9508  -27.8006 H   0  0  0  0  0  0  0  0  0  0  0  0
   -3.3377   22.0208  -27.8006 H   0  0  0  0  0  0  0  0  0  0  0  0
   -1.3195   23.3771  -28.7938 H   0  0  0  0  0  0  0  0  0  0  0  0
   -2.0124   22.5722  -30.2425 H   0  0  0  0  0  0  0  0  0  0  0  0
   -1.7479   24.3489  -30.2425 H   0  0  0  0  0  0  0  0  0  0  0  0
   -8.6636   22.8686  -30.9822 H   0  0  0  0  0  0  0  0  0  0  0  0
  1  2  1  0
  2  3  1  0
  2  4  1  0
  4  5  1  0
  5  6  1  0
  6  7  1  0
  7  8  2  0
  8  9  1  0
  9 10  2  0
 10 11  1  0
 11 12  1  0
 12 13  1  0
 13 14  2  0
 13 15  1  0
 15 16  1  0
 15 17  1  0
 10 18  1  0
 18 19  2  0
 19 20  1  0
 20 21  1  0
 20 22  1  0
 20 23  1  0
 19  7  1  0
  1 24  1  0
  1 25  1  0
  1 26  1  0
  3 27  1  0
  3 28  1  0
  3 29  1  0
  4 30  1  0
  4 31  1  0
  5 32  1  0
  5 33  1  0
  6 34  1  0
  8 35  1  0
  9 36  1  0
 11 37  1  0
 11 38  1  0
 12 39  1  0
 12 40  1  0
 16 41  1  0
 16 42  1  0
 16 43  1  0
 17 44  1  0
 17 45  1  0
 17 46  1  0
 18 47  1  0
M  END
>  <UniqueID>  (39) 
37

>  <SMILES>  (39) 
CN(C)CCNc1ccc(CCC(=O)N(C)C)cc1C(F)(F)F

>  <Energy>  (39) 
43.865993603985835

>  <Genealogy>  (39) 
CN(C)CCNc1ccc(CCC(=O)N(C)C)cc1C(F)(F)F (3D coordinates assigned)
CN(C)CCNc1ccc(CCC(=O)N(C)C)cc1C(F)(F)F (optimized conformer: 43.865993603985835 kcal/mol)

>  <smiles>  (39) 
CN(C)CCNc1ccc(CCC(=O)N(C)C)cc1C(F)(F)F

>  <score_type>  (39) 
oracle

>  <origin>  (39) 
adg

>  <m_score__min__energy>  (39) 
-7.5099999999999998

>  <m_primary>  (39) 
energy

$$$$
39:0
     RDKit          3D

 41 44  0  0  0  0  0  0  0  0999 V2000
   -1.2390   25.9920  -29.9540 H   0  0  0  0  0  0  0  0  0  0  0  0
   -1.5410   25.8250  -28.9680 N   0  0  0  0  0  0  0  0  0  0  0  0
   -2.3750   24.7160  -28.6330 C   0  0  0  0  0  0  0  0  0  0  0  0
   -2.1630   24.1030  -27.5520 O   0  0  0  0  0  0  0  0  0  0  0  0
   -3.4600   24.2810  -29.5590 C   0  0  0  0  0  0  0  0  0  0  0  0
   -4.1790   25.2610  -30.2580 C   0  0  0  0  0  0  0  0  0  0  0  0
   -3.9303   26.3229  -30.1152 H   0  0  0  0  0  0  0  0  0  0  0  0
   -5.1750   24.9160  -31.1060 N   0  0  0  0  0  0  0  0  0  0  0  0
   -5.4920   23.6240  -31.3610 C   0  0  0  0  0  0  0  0  0  0  0  0
   -6.4780   23.3450  -32.3130 C   0  0  0  0  0  0  0  0  0  0  0  0
   -7.0500   24.1681  -32.7662 H   0  0  0  0  0  0  0  0  0  0  0  0
   -6.7390   22.0290  -32.6900 C   0  0  0  0  0  0  0  0  0  0  0  0
   -7.5347   21.8130  -33.4182 H   0  0  0  0  0  0  0  0  0  0  0  0
   -5.9900   20.9840  -32.1430 C   0  0  0  0  0  0  0  0  0  0  0  0
   -6.2150   19.6020  -32.5960 C   0  0  0  0  0  0  0  0  0  0  0  0
   -5.2020   18.9380  -33.3060 C   0  0  0  0  0  0  0  0  0  0  0  0
   -4.2583   19.4572  -33.5293 H   0  0  0  0  0  0  0  0  0  0  0  0
   -5.3890   17.6190  -33.7300 C   0  0  0  0  0  0  0  0  0  0  0  0
   -4.5917   17.1018  -34.2840 H   0  0  0  0  0  0  0  0  0  0  0  0
   -6.5870   16.9570  -33.4510 C   0  0  0  0  0  0  0  0  0  0  0  0
   -6.7314   15.9187  -33.7844 H   0  0  0  0  0  0  0  0  0  0  0  0
   -7.6020   17.6120  -32.7490 C   0  0  0  0  0  0  0  0  0  0  0  0
   -8.5445   17.0882  -32.5317 H   0  0  0  0  0  0  0  0  0  0  0  0
   -7.4230   18.9340  -32.3210 C   0  0  0  0  0  0  0  0  0  0  0  0
   -8.7370   19.7320  -31.4620 Cl  0  0  0  0  0  0  0  0  0  0  0  0
   -5.0050   21.2570  -31.1840 C   0  0  0  0  0  0  0  0  0  0  0  0
   -4.3888   20.4347  -30.7914 H   0  0  0  0  0  0  0  0  0  0  0  0
   -4.7910   22.5740  -30.7130 C   0  0  0  0  0  0  0  0  0  0  0  0
   -3.8320   22.9170  -29.7060 C   0  0  0  0  0  0  0  0  0  0  0  0
   -3.3140   22.0570  -28.8620 N   0  0  0  0  0  0  0  0  0  0  0  0
   -2.2480   21.1140  -29.0300 C   0  0  0  0  0  0  0  0  0  0  0  0
   -1.4850   21.1420  -30.2050 C   0  0  0  0  0  0  0  0  0  0  0  0
   -1.7349   21.8551  -31.0044 H   0  0  0  0  0  0  0  0  0  0  0  0
   -0.4070   20.2660  -30.3640 C   0  0  0  0  0  0  0  0  0  0  0  0
    0.1746   20.2750  -31.2976 H   0  0  0  0  0  0  0  0  0  0  0  0
   -0.0670   19.3790  -29.3390 C   0  0  0  0  0  0  0  0  0  0  0  0
    0.7764   18.6849  -29.4693 H   0  0  0  0  0  0  0  0  0  0  0  0
   -0.7990   19.3740  -28.1480 C   0  0  0  0  0  0  0  0  0  0  0  0
   -0.5235   18.6842  -27.3367 H   0  0  0  0  0  0  0  0  0  0  0  0
   -1.8810   20.2450  -27.9870 C   0  0  0  0  0  0  0  0  0  0  0  0
   -2.4459   20.2505  -27.0432 H   0  0  0  0  0  0  0  0  0  0  0  0
  1  2  1  0
  2  3  1  0
  3  4  2  0
  3  5  1  0
  5  6  2  0
  6  7  1  0
  6  8  1  0
  8  9  1  0
  9 10  2  0
 10 11  1  0
 10 12  1  0
 12 13  1  0
 12 14  2  0
 14 15  1  0
 15 16  2  0
 16 17  1  0
 16 18  1  0
 18 19  1  0
 18 20  2  0
 20 21  1  0
 20 22  1  0
 22 23  1  0
 22 24  2  0
 24 25  1  0
 14 26  1  0
 26 27  1  0
 26 28  2  0
 28 29  1  0
 29 30  2  0
 30 31  1  0
 31 32  2  0
 32 33  1  0
 32 34  1  0
 34 35  1  0
 34 36  2  0
 36 37  1  0
 36 38  1  0
 38 39  1  0
 38 40  2  0
 40 41  1  0
 29  5  1  0
 40 31  1  0
 28  9  1  0
 24 15  1  0
M  CHG  2   2  -1   8  -1
M  END
>  <UniqueID>  (40) 
38

>  <SMILES>  (40) 
[NH-]C(=O)c1c[n-]c2ccc(-c3ccccc3Cl)cc2/c1=N\c1ccccc1

>  <Energy>  (40) 
80.35388272121791

>  <Genealogy>  (40) 
[NH-]C(=O)c1c[n-]c2ccc(-c3ccccc3Cl)cc2c1=Nc1ccccc1 (protonated)
[NH-]C(=O)c1c[n-]c2ccc(-c3ccccc3Cl)cc2/c1=N\c1ccccc1 (cis-trans isomerization)
[NH-]C(=O)c1c[n-]c2ccc(-c3ccccc3Cl)cc2/c1=N\c1ccccc1 (3D coordinates assigned)
[NH-]C(=O)c1c[n-]c2ccc(-c3ccccc3Cl)cc2/c1=N\c1ccccc1 (optimized conformer: 80.35388272121791 kcal/mol)

>  <smiles>  (40) 
NC(=O)c1c[nH]c2ccc(-c3ccccc3Cl)cc2c1=Nc1ccccc1

>  <score_type>  (40) 
oracle

>  <origin>  (40) 
adg

>  <m_score__min__energy>  (40) 
-12.619999999999999

>  <m_primary>  (40) 
energy

$$$$
40:0
     RDKit          3D

 52 54  0  0  0  0  0  0  0  0999 V2000
   -2.7860   16.4790  -33.3540 C   0  0  0  0  0  0  0  0  0  0  0  0
   -3.6930   15.4540  -32.8230 N   0  0  0  0  0  0  0  0  0  0  0  0
   -3.2030   14.0700  -32.7260 C   0  0  0  0  0  0  0  0  0  0  0  0
   -4.2540   13.1520  -32.0880 C   0  0  0  0  0  0  0  0  0  0  0  0
   -4.6470   13.6180  -30.7570 N   0  0  0  0  0  0  0  0  0  0  0  0
   -5.0560   15.8350  -32.5100 C   0  0  0  0  0  0  0  0  0  0  0  0
   -5.3870   15.9990  -31.3030 O   0  0  0  0  0  0  0  0  0  0  0  0
   -6.1360   15.9880  -33.5570 C   0  0  0  0  0  0  0  0  0  0  0  0
   -6.8190   17.3940  -33.6200 C   0  0  2  0  0  0  0  0  0  0  0  0
   -5.8630   18.5420  -34.0410 C   0  0  0  0  0  0  0  0  0  0  0  0
   -6.5540   19.9100  -33.9360 C   0  0  0  0  0  0  0  0  0  0  0  0
   -7.1270   20.2320  -32.5100 C   0  0  2  0  0  0  0  0  0  0  0  0
   -7.0920   18.9640  -31.6020 C   0  0  0  0  0  0  0  0  0  0  0  0
   -7.6380   17.7380  -32.3410 C   0  0  0  0  0  0  0  0  0  0  0  0
   -8.4900   20.6170  -32.7240 O   0  0  0  0  0  0  0  0  0  0  0  0
   -9.0470   21.3870  -31.6750 C   0  0  0  0  0  0  0  0  0  0  0  0
   -8.3620   22.7410  -31.5930 C   0  0  0  0  0  0  0  0  0  0  0  0
   -6.8920   22.5420  -31.4130 C   0  0  0  0  0  0  0  0  0  0  0  0
   -6.1150   23.5630  -30.8460 C   0  0  0  0  0  0  0  0  0  0  0  0
   -4.7380   23.3980  -30.6960 C   0  0  0  0  0  0  0  0  0  0  0  0
   -4.1250   22.2190  -31.1200 C   0  0  0  0  0  0  0  0  0  0  0  0
   -4.8880   21.2000  -31.6990 C   0  0  0  0  0  0  0  0  0  0  0  0
   -6.2820   21.3520  -31.8670 C   0  0  0  0  0  0  0  0  0  0  0  0
   -2.3109   17.0159  -32.5197 H   0  0  0  0  0  0  0  0  0  0  0  0
   -2.0111   15.9994  -33.9701 H   0  0  0  0  0  0  0  0  0  0  0  0
   -3.3564   17.1897  -33.9701 H   0  0  0  0  0  0  0  0  0  0  0  0
   -2.9695   13.7006  -33.7355 H   0  0  0  0  0  0  0  0  0  0  0  0
   -2.3039   14.0627  -32.0923 H   0  0  0  0  0  0  0  0  0  0  0  0
   -5.1442   13.1273  -32.7338 H   0  0  0  0  0  0  0  0  0  0  0  0
   -3.8136   12.1495  -31.9830 H   0  0  0  0  0  0  0  0  0  0  0  0
   -4.0720   14.4530  -30.5050 H   0  0  0  0  0  0  0  0  0  0  0  0
   -5.6590   13.8960  -30.7590 H   0  0  0  0  0  0  0  0  0  0  0  0
   -4.4810   12.8700  -30.0450 H   0  0  0  0  0  0  0  0  0  0  0  0
   -5.6860   15.7856  -34.5401 H   0  0  0  0  0  0  0  0  0  0  0  0
   -6.9295   15.2792  -33.2780 H   0  0  0  0  0  0  0  0  0  0  0  0
   -7.5490   17.3084  -34.4384 H   0  0  0  0  0  0  0  0  0  0  0  0
   -5.5449   18.3801  -35.0815 H   0  0  0  0  0  0  0  0  0  0  0  0
   -4.9960   18.5379  -33.3641 H   0  0  0  0  0  0  0  0  0  0  0  0
   -7.3857   19.9329  -34.6556 H   0  0  0  0  0  0  0  0  0  0  0  0
   -5.7871   20.6695  -34.1482 H   0  0  0  0  0  0  0  0  0  0  0  0
   -7.7055   19.1463  -30.7074 H   0  0  0  0  0  0  0  0  0  0  0  0
   -6.0471   18.7650  -31.3218 H   0  0  0  0  0  0  0  0  0  0  0  0
   -8.6795   17.9380  -32.6331 H   0  0  0  0  0  0  0  0  0  0  0  0
   -7.5652   16.8785  -31.6583 H   0  0  0  0  0  0  0  0  0  0  0  0
  -10.1206   21.5344  -31.8637 H   0  0  0  0  0  0  0  0  0  0  0  0
   -8.9011   20.8542  -30.7238 H   0  0  0  0  0  0  0  0  0  0  0  0
   -8.5457   23.3023  -32.5210 H   0  0  0  0  0  0  0  0  0  0  0  0
   -8.7642   23.3057  -30.7390 H   0  0  0  0  0  0  0  0  0  0  0  0
   -6.5935   24.4977  -30.5183 H   0  0  0  0  0  0  0  0  0  0  0  0
   -4.1349   24.1986  -30.2428 H   0  0  0  0  0  0  0  0  0  0  0  0
   -3.0393   22.0905  -30.9987 H   0  0  0  0  0  0  0  0  0  0  0  0
   -4.3978   20.2714  -32.0266 H   0  0  0  0  0  0  0  0  0  0  0  0
  1  2  1  0
  2  3  1  0
  3  4  1  0
  4  5  1  0
  2  6  1  0
  6  7  2  0
  6  8  1  0
  8  9  1  0
  9 10  1  0
 10 11  1  0
 11 12  1  0
 12 13  1  0
 13 14  1  0
 12 15  1  6
 15 16  1  0
 16 17  1  0
 17 18  1  0
 18 19  2  0
 19 20  1  0
 20 21  2  0
 21 22  1  0
 22 23  2  0
 14  9  1  0
 23 18  1  0
 23 12  1  0
  1 24  1  0
  1 25  1  0
  1 26  1  0
  3 27  1  0
  3 28  1  0
  4 29  1  0
  4 30  1  0
  5 31  1  0
  5 32  1  0
  5 33  1  0
  8 34  1  0
  8 35  1  0
  9 36  1  6
 10 37  1  0
 10 38  1  0
 11 39  1  0
 11 40  1  0
 13 41  1  0
 13 42  1  0
 14 43  1  0
 14 44  1  0
 16 45  1  0
 16 46  1  0
 17 47  1  0
 17 48  1  0
 19 49  1  0
 20 50  1  0
 21 51  1  0
 22 52  1  0
M  CHG  1   5   1
M  END
>  <UniqueID>  (41) 
39

>  <SMILES>  (41) 
CN(CC[NH3+])C(=O)CC1CCC2(CC1)OCCc1ccccc12

>  <Energy>  (41) 
68.72519402640748

>  <Genealogy>  (41) 
CN(CC[NH3+])C(=O)CC1CCC2(CC1)OCCc1ccccc12 (protonated)
CN(CC[NH3+])C(=O)CC1CCC2(CC1)OCCc1ccccc12 (3D coordinates assigned)
CN(CC[NH3+])C(=O)CC1CCC2(CC1)OCCc1ccccc12 (nonaromatic ring conformer: 68.72519402640748 kcal/mol)

>  <smiles>  (41) 
CN(CCN)C(=O)CC1CCC2(CC1)OCCc1ccccc12

>  <score_type>  (41) 
oracle

>  <origin>  (41) 
adg

>  <m_score__min__energy>  (41) 
-8.7400000000000002

>  <m_primary>  (41) 
energy

$$$$
41:0
     RDKit          3D

 47 49  0  0  0  0  0  0  0  0999 V2000
   -3.7670   22.4630  -31.9500 C   0  0  0  0  0  0  0  0  0  0  0  0
   -4.9650   23.1790  -31.3900 C   0  0  0  0  0  0  0  0  0  0  0  0
   -6.2530   22.6600  -31.6100 C   0  0  0  0  0  0  0  0  0  0  0  0
   -7.3750   23.3180  -31.1050 C   0  0  0  0  0  0  0  0  0  0  0  0
   -7.2250   24.4970  -30.3740 C   0  0  0  0  0  0  0  0  0  0  0  0
   -5.9520   25.0330  -30.1620 C   0  0  0  0  0  0  0  0  0  0  0  0
   -4.8140   24.3950  -30.6900 C   0  0  0  0  0  0  0  0  0  0  0  0
   -3.4930   24.9160  -30.4690 N   0  0  0  0  0  0  0  0  0  0  0  0
   -2.6710   24.7170  -29.3110 C   0  0  0  0  0  0  0  0  0  0  0  0
   -1.9070   25.6320  -28.9000 O   0  0  0  0  0  0  0  0  0  0  0  0
   -2.6480   23.3800  -28.6340 C   0  0  0  0  0  0  0  0  0  0  0  0
   -1.6970   22.4480  -29.3280 C   0  0  0  0  0  0  0  0  0  0  0  0
   -0.8320   22.8520  -30.2790 N   0  0  0  0  0  0  0  0  0  0  0  0
   -0.2800   21.7610  -30.7890 N   0  0  0  0  0  0  0  0  0  0  0  0
   -0.8230   20.7100  -30.1460 C   0  0  0  0  0  0  0  0  0  0  0  0
   -0.5000   19.0050  -30.5980 S   0  0  0  0  0  0  0  0  0  0  0  0
   -0.3510   19.3480  -32.3870 C   0  0  0  0  0  0  0  0  0  0  0  0
   -1.7170   19.5580  -32.9730 C   0  0  0  0  0  0  0  0  0  0  0  0
   -1.9760   20.6440  -33.5540 O   0  0  0  0  0  0  0  0  0  0  0  0
   -2.7650   18.5950  -32.8040 N   0  0  0  0  0  0  0  0  0  0  0  0
   -4.1630   18.8530  -32.9770 C   0  0  0  0  0  0  0  0  0  0  0  0
   -4.7510   18.6240  -34.2280 C   0  0  0  0  0  0  0  0  0  0  0  0
   -6.1170   18.8560  -34.4160 C   0  0  0  0  0  0  0  0  0  0  0  0
   -6.9060   19.2970  -33.3490 C   0  0  0  0  0  0  0  0  0  0  0  0
   -6.3310   19.4960  -32.0910 C   0  0  0  0  0  0  0  0  0  0  0  0
   -4.9650   19.2670  -31.9010 C   0  0  0  0  0  0  0  0  0  0  0  0
   -1.7040   21.1040  -29.2080 N   0  0  0  0  0  0  0  0  0  0  0  0
   -2.6150   20.2660  -28.4320 C   0  0  0  0  0  0  0  0  0  0  0  0
   -3.1434   22.0903  -31.1240 H   0  0  0  0  0  0  0  0  0  0  0  0
   -4.1014   21.6165  -32.5678 H   0  0  0  0  0  0  0  0  0  0  0  0
   -3.1799   23.1584  -32.5678 H   0  0  0  0  0  0  0  0  0  0  0  0
   -6.3769   21.7297  -32.1837 H   0  0  0  0  0  0  0  0  0  0  0  0
   -8.3794   22.9066  -31.2835 H   0  0  0  0  0  0  0  0  0  0  0  0
   -8.1102   25.0053  -29.9640 H   0  0  0  0  0  0  0  0  0  0  0  0
   -5.8387   25.9589  -29.5791 H   0  0  0  0  0  0  0  0  0  0  0  0
   -2.3281   23.5099  -27.5896 H   0  0  0  0  0  0  0  0  0  0  0  0
   -3.6584   22.9470  -28.6736 H   0  0  0  0  0  0  0  0  0  0  0  0
    0.2553   20.2534  -32.5373 H   0  0  0  0  0  0  0  0  0  0  0  0
    0.1335   18.4948  -32.8843 H   0  0  0  0  0  0  0  0  0  0  0  0
   -4.1362   18.2606  -35.0647 H   0  0  0  0  0  0  0  0  0  0  0  0
   -6.5714   18.6915  -35.4042 H   0  0  0  0  0  0  0  0  0  0  0  0
   -7.9789   19.4872  -33.4999 H   0  0  0  0  0  0  0  0  0  0  0  0
   -6.9538   19.8332  -31.2493 H   0  0  0  0  0  0  0  0  0  0  0  0
   -4.5174   19.4114  -30.9066 H   0  0  0  0  0  0  0  0  0  0  0  0
   -2.4382   20.4286  -27.3585 H   0  0  0  0  0  0  0  0  0  0  0  0
   -3.6544   20.5302  -28.6766 H   0  0  0  0  0  0  0  0  0  0  0  0
   -2.4383   19.2082  -28.6766 H   0  0  0  0  0  0  0  0  0  0  0  0
  1  2  1  0
  2  3  2  0
  3  4  1  0
  4  5  2  0
  5  6  1  0
  6  7  2  0
  7  8  1  0
  8  9  1  0
  9 10  2  0
  9 11  1  0
 11 12  1  0
 12 13  2  0
 13 14  1  0
 14 15  2  0
 15 16  1  0
 16 17  1  0
 17 18  1  0
 18 19  2  0
 18 20  1  0
 20 21  1  0
 21 22  2  0
 22 23  1  0
 23 24  2  0
 24 25  1  0
 25 26  2  0
 15 27  1  0
 27 28  1  0
  7  2  1  0
 27 12  1  0
 26 21  1  0
  1 29  1  0
  1 30  1  0
  1 31  1  0
  3 32  1  0
  4 33  1  0
  5 34  1  0
  6 35  1  0
 11 36  1  0
 11 37  1  0
 17 38  1  0
 17 39  1  0
 22 40  1  0
 23 41  1  0
 24 42  1  0
 25 43  1  0
 26 44  1  0
 28 45  1  0
 28 46  1  0
 28 47  1  0
M  CHG  2   8  -1  20  -1
M  END
>  <UniqueID>  (42) 
40

>  <SMILES>  (42) 
Cc1ccccc1[N-]C(=O)Cc1nnc(SCC(=O)[N-]c2ccccc2)n1C

>  <Energy>  (42) 
83.47298869772722

>  <Genealogy>  (42) 
Cc1ccccc1[N-]C(=O)Cc1nnc(SCC(=O)[N-]c2ccccc2)n1C (protonated)
Cc1ccccc1[N-]C(=O)Cc1nnc(SCC(=O)[N-]c2ccccc2)n1C (3D coordinates assigned)
Cc1ccccc1[N-]C(=O)Cc1nnc(SCC(=O)[N-]c2ccccc2)n1C (optimized conformer: 83.47298869772722 kcal/mol)

>  <smiles>  (42) 
Cc1ccccc1NC(=O)Cc1nnc(SCC(=O)Nc2ccccc2)n1C

>  <score_type>  (42) 
oracle

>  <origin>  (42) 
adg

>  <m_score__min__energy>  (42) 
-10.470000000000001

>  <m_primary>  (42) 
energy

$$$$
42:0
     RDKit          3D

 60 63  0  0  0  0  0  0  0  0999 V2000
   -1.1850   30.2470  -25.2120 C   0  0  0  0  0  0  0  0  0  0  0  0
   -0.9230   28.8390  -25.5590 N   0  0  0  0  0  0  0  0  0  0  0  0
   -0.2210   28.7790  -26.8530 C   0  0  0  0  0  0  0  0  0  0  0  0
   -0.1280   28.1960  -24.4900 C   0  0  0  0  0  0  0  0  0  0  0  0
   -0.9170   27.0500  -23.8270 C   0  0  0  0  0  0  0  0  0  0  0  0
   -1.8890   26.4340  -24.7510 N   0  0  0  0  0  0  0  0  0  0  0  0
   -1.4070   25.1880  -25.3650 C   0  0  0  0  0  0  0  0  0  0  0  0
   -1.7650   25.1030  -26.8280 C   0  0  0  0  0  0  0  0  0  0  0  0
   -0.8720   25.2540  -27.8660 C   0  0  0  0  0  0  0  0  0  0  0  0
   -1.4980   25.0170  -29.0340 N   0  0  0  0  0  0  0  0  0  0  0  0
   -2.7680   24.7150  -28.6850 C   0  0  0  0  0  0  0  0  0  0  0  0
   -3.7860   24.3430  -29.6920 C   0  0  0  0  0  0  0  0  0  0  0  0
   -3.8180   23.0320  -30.1930 C   0  0  0  0  0  0  0  0  0  0  0  0
   -4.7940   22.6510  -31.1170 C   0  0  0  0  0  0  0  0  0  0  0  0
   -5.7750   23.5690  -31.5300 C   0  0  0  0  0  0  0  0  0  0  0  0
   -6.7820   23.2150  -32.4880 N   0  0  0  0  0  0  0  0  0  0  0  0
   -8.0040   22.5290  -32.1950 C   0  0  0  0  0  0  0  0  0  0  0  0
   -9.0630   23.2000  -32.0740 O   0  0  0  0  0  0  0  0  0  0  0  0
   -8.0230   21.1110  -31.9680 N   0  0  0  0  0  0  0  0  0  0  0  0
   -9.1060   20.4150  -31.2680 C   0  0  0  0  0  0  0  0  0  0  0  0
   -8.9340   18.9110  -31.5890 C   0  0  0  0  0  0  0  0  0  0  0  0
   -7.7420   18.8840  -32.4790 C   0  0  0  0  0  0  0  0  0  0  0  0
   -7.1290   17.7720  -33.0610 C   0  0  0  0  0  0  0  0  0  0  0  0
   -5.9870   17.9740  -33.8530 C   0  0  0  0  0  0  0  0  0  0  0  0
   -5.4760   19.2720  -34.0410 C   0  0  0  0  0  0  0  0  0  0  0  0
   -6.1090   20.3750  -33.4420 C   0  0  0  0  0  0  0  0  0  0  0  0
   -7.2560   20.1480  -32.6740 C   0  0  0  0  0  0  0  0  0  0  0  0
   -5.7430   24.8760  -31.0330 C   0  0  0  0  0  0  0  0  0  0  0  0
   -4.7660   25.2590  -30.1100 C   0  0  0  0  0  0  0  0  0  0  0  0
   -2.9700   24.7770  -27.3440 N   0  0  0  0  0  0  0  0  0  0  0  0
   -4.2190   24.5510  -26.6120 C   0  0  0  0  0  0  0  0  0  0  0  0
   -1.2055   30.3572  -24.1177 H   0  0  0  0  0  0  0  0  0  0  0  0
   -0.3895   30.8817  -25.6296 H   0  0  0  0  0  0  0  0  0  0  0  0
   -2.1555   30.5531  -25.6296 H   0  0  0  0  0  0  0  0  0  0  0  0
    0.8612   28.6865  -26.6791 H   0  0  0  0  0  0  0  0  0  0  0  0
   -0.5765   27.9080  -27.4230 H   0  0  0  0  0  0  0  0  0  0  0  0
   -0.4236   29.6977  -27.4230 H   0  0  0  0  0  0  0  0  0  0  0  0
    0.7977   27.7908  -24.9246 H   0  0  0  0  0  0  0  0  0  0  0  0
    0.1035   28.9506  -23.7239 H   0  0  0  0  0  0  0  0  0  0  0  0
   -0.2076   26.2784  -23.4933 H   0  0  0  0  0  0  0  0  0  0  0  0
   -1.4775   27.4722  -22.9799 H   0  0  0  0  0  0  0  0  0  0  0  0
   -2.2010   27.1100  -25.4880 H   0  0  0  0  0  0  0  0  0  0  0  0
   -0.3126   25.1427  -25.2641 H   0  0  0  0  0  0  0  0  0  0  0  0
   -1.8898   24.3457  -24.8478 H   0  0  0  0  0  0  0  0  0  0  0  0
    0.1883   25.5261  -27.7573 H   0  0  0  0  0  0  0  0  0  0  0  0
   -3.0695   22.2998  -29.8557 H   0  0  0  0  0  0  0  0  0  0  0  0
   -4.7948   21.6286  -31.5229 H   0  0  0  0  0  0  0  0  0  0  0  0
   -9.0295   20.5843  -30.1838 H   0  0  0  0  0  0  0  0  0  0  0  0
  -10.0915   20.7826  -31.5900 H   0  0  0  0  0  0  0  0  0  0  0  0
   -8.7541   18.3306  -30.6720 H   0  0  0  0  0  0  0  0  0  0  0  0
   -9.8267   18.4653  -32.0522 H   0  0  0  0  0  0  0  0  0  0  0  0
   -7.5317   16.7607  -32.9025 H   0  0  0  0  0  0  0  0  0  0  0  0
   -5.4903   17.1151  -34.3279 H   0  0  0  0  0  0  0  0  0  0  0  0
   -4.5785   19.4237  -34.6586 H   0  0  0  0  0  0  0  0  0  0  0  0
   -5.7119   21.3923  -33.5740 H   0  0  0  0  0  0  0  0  0  0  0  0
   -6.4919   25.6074  -31.3709 H   0  0  0  0  0  0  0  0  0  0  0  0
   -4.7642   26.2831  -29.7086 H   0  0  0  0  0  0  0  0  0  0  0  0
   -4.0217   24.5867  -25.5304 H   0  0  0  0  0  0  0  0  0  0  0  0
   -4.9464   25.3321  -26.8780 H   0  0  0  0  0  0  0  0  0  0  0  0
   -4.6266   23.5645  -26.8780 H   0  0  0  0  0  0  0  0  0  0  0  0
  1  2  1  0
  2  3  1  0
  2  4  1  0
  4  5  1  0
  5  6  1  0
  6  7  1  0
  7  8  1  0
  8  9  2  0
  9 10  1  0
 10 11  2  0
 11 12  1  0
 12 13  2  0
 13 14  1  0
 14 15  2  0
 15 16  1  0
 16 17  1  0
 17 18  2  0
 17 19  1  0
 19 20  1  0
 20 21  1  0
 21 22  1  0
 22 23  2  0
 23 24  1  0
 24 25  2  0
 25 26  1  0
 26 27  2  0
 15 28  1  0
 28 29  2  0
 11 30  1  0
 30 31  1  0
 30  8  1  0
 29 12  1  0
 27 19  1  0
 27 22  1  0
  1 32  1  0
  1 33  1  0
  1 34  1  0
  3 35  1  0
  3 36  1  0
  3 37  1  0
  4 38  1  0
  4 39  1  0
  5 40  1  0
  5 41  1  0
  6 42  1  0
  7 43  1  0
  7 44  1  0
  9 45  1  0
 13 46  1  0
 14 47  1  0
 20 48  1  0
 20 49  1  0
 21 50  1  0
 21 51  1  0
 23 52  1  0
 24 53  1  0
 25 54  1  0
 26 55  1  0
 28 56  1  0
 29 57  1  0
 31 58  1  0
 31 59  1  0
 31 60  1  0
M  CHG  1  16  -1
M  END
>  <UniqueID>  (43) 
41

>  <SMILES>  (43) 
CN(C)CCNCc1cnc(-c2ccc([N-]C(=O)N3CCc4ccccc43)cc2)n1C

>  <Energy>  (43) 
118.18799894661973

>  <Genealogy>  (43) 
CN(C)CCNCc1cnc(-c2ccc([N-]C(=O)N3CCc4ccccc43)cc2)n1C (protonated)
CN(C)CCNCc1cnc(-c2ccc([N-]C(=O)N3CCc4ccccc43)cc2)n1C (3D coordinates assigned)
CN(C)CCNCc1cnc(-c2ccc([N-]C(=O)N3CCc4ccccc43)cc2)n1C (nonaromatic ring conformer: 118.18799894661973 kcal/mol)

>  <smiles>  (43) 
CN(C)CCNCc1cnc(-c2ccc(NC(=O)N3CCc4ccccc43)cc2)n1C

>  <score_type>  (43) 
oracle

>  <origin>  (43) 
adg

>  <m_score__min__energy>  (43) 
-10.24

>  <m_primary>  (43) 
energy

$$$$
43:0
     RDKit          3D

 60 63  0  0  0  0  0  0  0  0999 V2000
   -0.7479   18.7152  -34.1042 H   0  0  0  0  0  0  0  0  0  0  0  0
   -1.0740   19.2500  -33.2000 C   0  0  0  0  0  0  0  0  0  0  0  0
   -2.3310   20.0200  -33.2430 C   0  0  0  0  0  0  0  0  0  0  0  0
   -2.5720   20.7910  -34.2120 O   0  0  0  0  0  0  0  0  0  0  0  0
   -3.2620   19.9150  -32.1530 N   0  0  0  0  0  0  0  0  0  0  0  0
   -2.9170   19.5060  -31.2550 H   0  0  0  0  0  0  0  0  0  0  0  0
   -4.5910   20.4630  -32.1760 C   0  0  0  0  0  0  0  0  0  0  0  0
   -5.6850   19.6030  -32.3290 C   0  0  0  0  0  0  0  0  0  0  0  0
   -5.5184   18.5195  -32.4201 H   0  0  0  0  0  0  0  0  0  0  0  0
   -6.9860   20.1090  -32.3670 C   0  0  0  0  0  0  0  0  0  0  0  0
   -7.8369   19.4204  -32.4758 H   0  0  0  0  0  0  0  0  0  0  0  0
   -7.2160   21.4940  -32.2670 C   0  0  0  0  0  0  0  0  0  0  0  0
   -8.5140   22.0320  -32.2940 O   0  0  0  0  0  0  0  0  0  0  0  0
   -9.5220   21.7610  -31.3260 C   0  0  0  0  0  0  0  0  0  0  0  0
   -9.1006   21.8743  -30.3163 H   0  0  0  0  0  0  0  0  0  0  0  0
  -10.3553   22.4670  -31.4569 H   0  0  0  0  0  0  0  0  0  0  0  0
   -9.8890   20.7323  -31.4569 H   0  0  0  0  0  0  0  0  0  0  0  0
   -6.1180   22.3670  -32.1410 C   0  0  0  0  0  0  0  0  0  0  0  0
   -6.3370   23.8560  -32.0310 C   0  0  0  0  0  0  0  0  0  0  0  0
   -5.5107   24.3825  -32.5311 H   0  0  0  0  0  0  0  0  0  0  0  0
   -7.2926   24.1141  -32.5107 H   0  0  0  0  0  0  0  0  0  0  0  0
   -6.3860   24.2630  -30.6090 N   0  0  0  0  0  0  0  0  0  0  0  0
   -5.7740   25.5900  -30.3920 C   0  0  0  0  0  0  0  0  0  0  0  0
   -5.9802   25.9099  -29.3599 H   0  0  0  0  0  0  0  0  0  0  0  0
   -6.2112   26.2855  -31.1236 H   0  0  0  0  0  0  0  0  0  0  0  0
   -4.3140   25.5750  -30.6010 N   0  0  0  0  0  0  0  0  0  0  0  0
   -4.1220   25.6600  -31.6270 H   0  0  0  0  0  0  0  0  0  0  0  0
   -3.6400   24.3650  -30.0940 C   0  0  0  0  0  0  0  0  0  0  0  0
   -2.6980   24.6636  -29.6108 H   0  0  0  0  0  0  0  0  0  0  0  0
   -3.4650   23.6990  -30.9518 H   0  0  0  0  0  0  0  0  0  0  0  0
   -4.4870   23.5970  -29.0800 C   0  0  0  0  0  0  0  0  0  0  0  0
   -4.6487   24.2259  -28.1921 H   0  0  0  0  0  0  0  0  0  0  0  0
   -3.9578   22.6748  -28.7980 H   0  0  0  0  0  0  0  0  0  0  0  0
   -5.8470   23.2250  -29.6920 C   0  0  0  0  0  0  0  0  0  0  0  0
   -6.5674   23.0739  -28.8746 H   0  0  0  0  0  0  0  0  0  0  0  0
   -5.6961   22.3126  -30.2876 H   0  0  0  0  0  0  0  0  0  0  0  0
   -4.8130   21.8480  -32.1020 C   0  0  0  0  0  0  0  0  0  0  0  0
   -3.9569   22.5329  -32.0127 H   0  0  0  0  0  0  0  0  0  0  0  0
   -0.3140   19.1790  -32.0960 C   0  0  0  0  0  0  0  0  0  0  0  0
    0.4232   18.3658  -32.0235 H   0  0  0  0  0  0  0  0  0  0  0  0
   -0.4140   20.1370  -30.9690 C   0  0  0  0  0  0  0  0  0  0  0  0
   -0.5770   21.5210  -31.1670 C   0  0  0  0  0  0  0  0  0  0  0  0
   -0.6253   21.9243  -32.1893 H   0  0  0  0  0  0  0  0  0  0  0  0
   -0.6780   22.3870  -30.0740 C   0  0  0  0  0  0  0  0  0  0  0  0
   -0.8048   23.4663  -30.2441 H   0  0  0  0  0  0  0  0  0  0  0  0
   -0.6190   21.8910  -28.7580 C   0  0  0  0  0  0  0  0  0  0  0  0
   -0.7340   22.7920  -27.5820 C   0  0  0  0  0  0  0  0  0  0  0  0
   -0.3160   22.3520  -26.3610 N   0  0  0  0  0  0  0  0  0  0  0  0
   -0.3880   23.1270  -25.2460 C   0  0  0  0  0  0  0  0  0  0  0  0
   -0.0431   22.7319  -24.2791 H   0  0  0  0  0  0  0  0  0  0  0  0
   -0.8990   24.4230  -25.3270 C   0  0  0  0  0  0  0  0  0  0  0  0
   -0.9650   25.0531  -24.4278 H   0  0  0  0  0  0  0  0  0  0  0  0
   -1.3250   24.9090  -26.5630 C   0  0  0  0  0  0  0  0  0  0  0  0
   -1.7258   25.9302  -26.6436 H   0  0  0  0  0  0  0  0  0  0  0  0
   -1.2430   24.1000  -27.6980 C   0  0  0  0  0  0  0  0  0  0  0  0
   -1.5735   24.4814  -28.6754 H   0  0  0  0  0  0  0  0  0  0  0  0
   -0.4830   20.5050  -28.5660 C   0  0  0  0  0  0  0  0  0  0  0  0
   -0.4543   20.0974  -27.5447 H   0  0  0  0  0  0  0  0  0  0  0  0
   -0.3840   19.6400  -29.6580 C   0  0  0  0  0  0  0  0  0  0  0  0
   -0.2815   18.5581  -29.4881 H   0  0  0  0  0  0  0  0  0  0  0  0
  1  2  1  0
  2  3  1  0
  3  4  2  0
  3  5  1  0
  5  6  1  0
  5  7  1  0
  7  8  2  0
  8  9  1  0
  8 10  1  0
 10 11  1  0
 10 12  2  0
 12 13  1  0
 13 14  1  0
 14 15  1  0
 14 16  1  0
 14 17  1  0
 12 18  1  0
 18 19  1  0
 19 20  1  0
 19 21  1  0
 19 22  1  0
 22 23  1  0
 23 24  1  0
 23 25  1  0
 23 26  1  0
 26 27  1  0
 26 28  1  0
 28 29  1  0
 28 30  1  0
 28 31  1  0
 31 32  1  0
 31 33  1  0
 31 34  1  0
 34 35  1  0
 34 36  1  0
 18 37  2  0
 37 38  1  0
  2 39  2  0
 39 40  1  0
 39 41  1  0
 41 42  2  0
 42 43  1  0
 42 44  1  0
 44 45  1  0
 44 46  2  0
 46 47  1  0
 47 48  2  0
 48 49  1  0
 49 50  1  0
 49 51  2  0
 51 52  1  0
 51 53  1  0
 53 54  1  0
 53 55  2  0
 55 56  1  0
 46 57  1  0
 57 58  1  0
 57 59  2  0
 59 60  1  0
 37  7  1  0
 59 41  1  0
 34 22  1  0
 55 47  1  0
M  END
>  <UniqueID>  (44) 
42

>  <SMILES>  (44) 
COc1ccc(NC(=O)/C=C/c2ccc(-c3ccccn3)cc2)cc1CN1CCCNC1

>  <Energy>  (44) 
83.14629249025386

>  <Genealogy>  (44) 
COc1ccc(NC(=O)/C=C/c2ccc(-c3ccccn3)cc2)cc1CN1CCCNC1 (cis-trans isomerization)
COc1ccc(NC(=O)/C=C/c2ccc(-c3ccccn3)cc2)cc1CN1CCCNC1 (3D coordinates assigned)
COc1ccc(NC(=O)/C=C/c2ccc(-c3ccccn3)cc2)cc1CN1CCCNC1 (nonaromatic ring conformer: 83.14629249025386 kcal/mol)

>  <smiles>  (44) 
COc1ccc(NC(=O)C=Cc2ccc(-c3ccccn3)cc2)cc1CN1CCCNC1

>  <score_type>  (44) 
oracle

>  <origin>  (44) 
adg

>  <m_score__min__energy>  (44) 
-10.48

>  <m_primary>  (44) 
energy

$$$$
44:0
     RDKit          3D

 38 39  0  0  0  0  0  0  0  0999 V2000
   -1.5070   22.4480  -30.3840 C   0  0  0  0  0  0  0  0  0  0  0  0
   -2.0880   21.0580  -30.6440 C   0  0  0  0  0  0  0  0  0  0  0  0
   -1.9170   20.6070  -32.1010 C   0  0  0  0  0  0  0  0  0  0  0  0
   -2.6730   21.5050  -33.0900 C   0  0  0  0  0  0  0  0  0  0  0  0
   -4.1680   21.3700  -32.8910 C   0  0  0  0  0  0  0  0  0  0  0  0
   -4.8590   20.2630  -33.4300 C   0  0  0  0  0  0  0  0  0  0  0  0
   -4.1430   19.3050  -34.1690 O   0  0  0  0  0  0  0  0  0  0  0  0
   -4.6620   18.0460  -34.5810 C   0  0  0  0  0  0  0  0  0  0  0  0
   -6.2440   20.1410  -33.2140 C   0  0  0  0  0  0  0  0  0  0  0  0
   -6.9330   21.0910  -32.4610 C   0  0  0  0  0  0  0  0  0  0  0  0
   -6.2510   22.1810  -31.8980 C   0  0  0  0  0  0  0  0  0  0  0  0
   -6.9090   23.1480  -31.1190 C   0  0  0  0  0  0  0  0  0  0  0  0
   -8.1520   23.0550  -30.9130 O   0  0  0  0  0  0  0  0  0  0  0  0
   -6.1770   24.2160  -30.5680 C   0  0  0  0  0  0  0  0  0  0  0  0
   -6.8500   25.2710  -29.7240 C   0  0  0  0  0  0  0  0  0  0  0  0
   -4.7890   24.2730  -30.8250 C   0  0  0  0  0  0  0  0  0  0  0  0
   -3.9690   25.3240  -30.2980 N   0  0  0  0  0  0  0  0  0  0  0  0
   -4.2080   23.3390  -31.5700 O   0  0  0  0  0  0  0  0  0  0  0  0
   -4.8630   22.3170  -32.1100 C   0  0  0  0  0  0  0  0  0  0  0  0
   -1.4357   22.6186  -29.2997 H   0  0  0  0  0  0  0  0  0  0  0  0
   -0.5050   22.5164  -30.8326 H   0  0  0  0  0  0  0  0  0  0  0  0
   -2.1623   23.2091  -30.8326 H   0  0  0  0  0  0  0  0  0  0  0  0
   -1.5779   20.3355  -29.9899 H   0  0  0  0  0  0  0  0  0  0  0  0
   -3.1670   21.1048  -30.4354 H   0  0  0  0  0  0  0  0  0  0  0  0
   -0.8465   20.6286  -32.3531 H   0  0  0  0  0  0  0  0  0  0  0  0
   -2.3338   19.5926  -32.1867 H   0  0  0  0  0  0  0  0  0  0  0  0
   -2.3789   22.5522  -32.9261 H   0  0  0  0  0  0  0  0  0  0  0  0
   -2.4208   21.1969  -34.1154 H   0  0  0  0  0  0  0  0  0  0  0  0
   -4.9102   17.4439  -33.6945 H   0  0  0  0  0  0  0  0  0  0  0  0
   -5.5689   18.2027  -35.1835 H   0  0  0  0  0  0  0  0  0  0  0  0
   -3.9082   17.5181  -35.1835 H   0  0  0  0  0  0  0  0  0  0  0  0
   -6.7888   19.2874  -33.6436 H   0  0  0  0  0  0  0  0  0  0  0  0
   -8.0171   20.9856  -32.3073 H   0  0  0  0  0  0  0  0  0  0  0  0
   -6.7016   25.0384  -28.6592 H   0  0  0  0  0  0  0  0  0  0  0  0
   -6.4122   26.2548  -29.9489 H   0  0  0  0  0  0  0  0  0  0  0  0
   -7.9266   25.2887  -29.9489 H   0  0  0  0  0  0  0  0  0  0  0  0
   -3.1180   25.6730  -30.7890 H   0  0  0  0  0  0  0  0  0  0  0  0
   -4.2240   25.7680  -29.3890 H   0  0  0  0  0  0  0  0  0  0  0  0
  1  2  1  0
  2  3  1  0
  3  4  1  0
  4  5  1  0
  5  6  2  0
  6  7  1  0
  7  8  1  0
  6  9  1  0
  9 10  2  0
 10 11  1  0
 11 12  1  0
 12 13  2  0
 12 14  1  0
 14 15  1  0
 14 16  2  0
 16 17  1  0
 16 18  1  0
 18 19  1  0
 19  5  1  0
 19 11  2  0
  1 20  1  0
  1 21  1  0
  1 22  1  0
  2 23  1  0
  2 24  1  0
  3 25  1  0
  3 26  1  0
  4 27  1  0
  4 28  1  0
  8 29  1  0
  8 30  1  0
  8 31  1  0
  9 32  1  0
 10 33  1  0
 15 34  1  0
 15 35  1  0
 15 36  1  0
 17 37  1  0
 17 38  1  0
M  END
>  <UniqueID>  (45) 
43

>  <SMILES>  (45) 
CCCCc1c(OC)ccc2c(=O)c(C)c(N)oc12

>  <Energy>  (45) 
37.87107534018647

>  <Genealogy>  (45) 
CCCCc1c(OC)ccc2c(=O)c(C)c(N)oc12 (3D coordinates assigned)
CCCCc1c(OC)ccc2c(=O)c(C)c(N)oc12 (optimized conformer: 37.87107534018647 kcal/mol)

>  <smiles>  (45) 
CCCCc1c(OC)ccc2c(=O)c(C)c(N)oc12

>  <score_type>  (45) 
oracle

>  <origin>  (45) 
adg

>  <m_score__min__energy>  (45) 
-7.0599999999999996

>  <m_primary>  (45) 
energy

$$$$
45:0
     RDKit          3D

 49 52  0  0  0  0  0  0  0  0999 V2000
    1.5969   21.2122  -26.8841 H   0  0  0  0  0  0  0  0  0  0  0  0
    0.9580   20.9660  -27.7450 C   0  0  0  0  0  0  0  0  0  0  0  0
    1.0940   19.7190  -28.3770 C   0  0  0  0  0  0  0  0  0  0  0  0
    2.0270   18.7630  -27.9460 O   0  0  0  0  0  0  0  0  0  0  0  0
    1.6970   17.4370  -27.5420 C   0  0  0  0  0  0  0  0  0  0  0  0
    1.6831   17.3811  -26.4435 H   0  0  0  0  0  0  0  0  0  0  0  0
    0.7050   17.1700  -27.9353 H   0  0  0  0  0  0  0  0  0  0  0  0
    2.4481   16.7362  -27.9353 H   0  0  0  0  0  0  0  0  0  0  0  0
    0.2800   19.4060  -29.4740 C   0  0  0  0  0  0  0  0  0  0  0  0
    0.4440   18.1500  -30.0800 O   0  0  0  0  0  0  0  0  0  0  0  0
   -0.0610   17.7950  -31.3630 C   0  0  0  0  0  0  0  0  0  0  0  0
   -0.9556   17.1661  -31.2438 H   0  0  0  0  0  0  0  0  0  0  0  0
   -0.3253   18.7071  -31.9182 H   0  0  0  0  0  0  0  0  0  0  0  0
    0.7077   17.2375  -31.9182 H   0  0  0  0  0  0  0  0  0  0  0  0
   -0.6670   20.3420  -29.9340 C   0  0  0  0  0  0  0  0  0  0  0  0
   -1.3026   20.0904  -30.7958 H   0  0  0  0  0  0  0  0  0  0  0  0
   -0.8130   21.5980  -29.3060 C   0  0  0  0  0  0  0  0  0  0  0  0
    0.0200   21.8970  -28.1980 C   0  0  0  0  0  0  0  0  0  0  0  0
   -0.0830   23.0920  -27.5610 N   0  0  0  0  0  0  0  0  0  0  0  0
   -0.9690   24.0420  -27.9460 C   0  0  0  0  0  0  0  0  0  0  0  0
   -1.0184   24.9977  -27.4037 H   0  0  0  0  0  0  0  0  0  0  0  0
   -1.8180   23.8120  -29.0270 C   0  0  0  0  0  0  0  0  0  0  0  0
   -2.7020   24.7720  -29.4020 N   0  0  0  0  0  0  0  0  0  0  0  0
   -3.5420   24.5840  -30.4490 C   0  0  0  0  0  0  0  0  0  0  0  0
   -4.3740   25.5280  -30.7760 N   0  0  0  0  0  0  0  0  0  0  0  0
   -5.7390   25.6280  -30.2670 C   0  0  0  0  0  0  0  0  0  0  0  0
   -5.7426   26.2190  -29.3392 H   0  0  0  0  0  0  0  0  0  0  0  0
   -6.3759   26.1207  -31.0164 H   0  0  0  0  0  0  0  0  0  0  0  0
   -6.2790   24.2210  -29.9800 C   0  0  0  0  0  0  0  0  0  0  0  0
   -5.4255   23.5546  -29.7865 H   0  0  0  0  0  0  0  0  0  0  0  0
   -6.9511   24.3060  -29.1134 H   0  0  0  0  0  0  0  0  0  0  0  0
   -7.0750   23.6500  -31.0890 N   0  0  0  0  0  0  0  0  0  0  0  0
   -8.0110   22.5720  -30.6960 C   0  0  0  0  0  0  0  0  0  0  0  0
   -8.0069   22.4838  -29.5995 H   0  0  0  0  0  0  0  0  0  0  0  0
   -9.0076   22.8398  -31.0769 H   0  0  0  0  0  0  0  0  0  0  0  0
   -7.6310   21.2140  -31.3000 C   0  0  0  0  0  0  0  0  0  0  0  0
   -8.0127   20.4089  -30.6549 H   0  0  0  0  0  0  0  0  0  0  0  0
   -8.0727   21.1293  -32.3038 H   0  0  0  0  0  0  0  0  0  0  0  0
   -6.2300   21.1060  -31.4010 O   0  0  0  0  0  0  0  0  0  0  0  0
   -5.7620   21.9570  -32.4270 C   0  0  0  0  0  0  0  0  0  0  0  0
   -4.6646   22.0035  -32.3677 H   0  0  0  0  0  0  0  0  0  0  0  0
   -6.1099   21.5356  -33.3817 H   0  0  0  0  0  0  0  0  0  0  0  0
   -6.3200   23.3990  -32.3340 C   0  0  0  0  0  0  0  0  0  0  0  0
   -5.4770   24.1041  -32.3802 H   0  0  0  0  0  0  0  0  0  0  0  0
   -7.0178   23.5351  -33.1734 H   0  0  0  0  0  0  0  0  0  0  0  0
   -3.5050   23.4160  -31.1410 N   0  0  0  0  0  0  0  0  0  0  0  0
   -2.6400   22.4220  -30.8100 C   0  0  0  0  0  0  0  0  0  0  0  0
   -2.6316   21.4873  -31.3899 H   0  0  0  0  0  0  0  0  0  0  0  0
   -1.7530   22.5840  -29.7260 C   0  0  0  0  0  0  0  0  0  0  0  0
  1  2  1  0
  2  3  2  0
  3  4  1  0
  4  5  1  0
  5  6  1  0
  5  7  1  0
  5  8  1  0
  3  9  1  0
  9 10  1  0
 10 11  1  0
 11 12  1  0
 11 13  1  0
 11 14  1  0
  9 15  2  0
 15 16  1  0
 15 17  1  0
 17 18  2  0
 18 19  1  0
 19 20  2  0
 20 21  1  0
 20 22  1  0
 22 23  1  0
 23 24  1  0
 24 25  2  0
 25 26  1  0
 26 27  1  0
 26 28  1  0
 26 29  1  0
 29 30  1  0
 29 31  1  0
 29 32  1  0
 32 33  1  0
 33 34  1  0
 33 35  1  0
 33 36  1  0
 36 37  1  0
 36 38  1  0
 36 39  1  0
 39 40  1  0
 40 41  1  0
 40 42  1  0
 40 43  1  0
 43 44  1  0
 43 45  1  0
 24 46  1  0
 46 47  2  0
 47 48  1  0
 47 49  1  0
 18  2  1  0
 49 22  2  0
 49 17  1  0
 43 32  1  0
M  CHG  1  23  -1
M  END
>  <UniqueID>  (46) 
44

>  <SMILES>  (46) 
COc1cc2ncc3[n-]/c(=N/CCN4CCOCC4)ncc3c2cc1OC

>  <Energy>  (46) 
75.37355339924355

>  <Genealogy>  (46) 
COc1cc2ncc3[n-]c(=NCCN4CCOCC4)ncc3c2cc1OC (protonated)
COc1cc2ncc3[n-]/c(=N/CCN4CCOCC4)ncc3c2cc1OC (cis-trans isomerization)
COc1cc2ncc3[n-]/c(=N/CCN4CCOCC4)ncc3c2cc1OC (3D coordinates assigned)
COc1cc2ncc3[n-]/c(=N/CCN4CCOCC4)ncc3c2cc1OC (nonaromatic ring conformer: 75.37355339924355 kcal/mol)

>  <smiles>  (46) 
COc1cc2ncc3[nH]c(=NCCN4CCOCC4)ncc3c2cc1OC

>  <score_type>  (46) 
oracle

>  <origin>  (46) 
adg

>  <m_score__min__energy>  (46) 
-8.6199999999999992

>  <m_primary>  (46) 
energy

$$$$
46:0
     RDKit          3D

 31 32  0  0  0  0  0  0  0  0999 V2000
   -7.6090   17.9550  -32.4420 C   0  0  0  0  0  0  0  0  0  0  0  0
   -7.8390   19.4360  -32.2780 C   0  0  0  0  0  0  0  0  0  0  0  0
   -9.0840   19.8620  -31.7860 C   0  0  0  0  0  0  0  0  0  0  0  0
   -9.3600   21.2140  -31.6270 C   0  0  0  0  0  0  0  0  0  0  0  0
   -8.3990   22.1660  -31.9440 C   0  0  0  0  0  0  0  0  0  0  0  0
   -7.1300   21.7870  -32.4190 C   0  0  0  0  0  0  0  0  0  0  0  0
   -6.1670   22.8300  -32.7160 N   0  0  0  0  0  0  0  0  0  0  0  0
   -5.6690   23.4160  -31.4930 C   0  0  0  0  0  0  0  0  0  0  0  0
   -4.5610   22.8550  -30.8310 C   0  0  0  0  0  0  0  0  0  0  0  0
   -4.0910   23.4150  -29.6390 C   0  0  0  0  0  0  0  0  0  0  0  0
   -4.7200   24.5360  -29.0950 C   0  0  0  0  0  0  0  0  0  0  0  0
   -5.8220   25.1010  -29.7420 C   0  0  0  0  0  0  0  0  0  0  0  0
   -6.2960   24.5450  -30.9330 C   0  0  0  0  0  0  0  0  0  0  0  0
   -6.8440   20.4010  -32.6080 C   0  0  0  0  0  0  0  0  0  0  0  0
   -5.5130   19.9720  -33.1960 C   0  0  0  0  0  0  0  0  0  0  0  0
   -7.5358   17.4834  -31.4509 H   0  0  0  0  0  0  0  0  0  0  0  0
   -8.4492   17.5127  -32.9974 H   0  0  0  0  0  0  0  0  0  0  0  0
   -6.6742   17.7884  -32.9974 H   0  0  0  0  0  0  0  0  0  0  0  0
   -9.8490   19.1164  -31.5237 H   0  0  0  0  0  0  0  0  0  0  0  0
  -10.3428   21.5320  -31.2488 H   0  0  0  0  0  0  0  0  0  0  0  0
   -8.6341   23.2336  -31.8216 H   0  0  0  0  0  0  0  0  0  0  0  0
   -5.3550   22.4940  -33.2780 H   0  0  0  0  0  0  0  0  0  0  0  0
   -6.6380   23.5580  -33.3020 H   0  0  0  0  0  0  0  0  0  0  0  0
   -4.0617   21.9707  -31.2538 H   0  0  0  0  0  0  0  0  0  0  0  0
   -3.2235   22.9710  -29.1288 H   0  0  0  0  0  0  0  0  0  0  0  0
   -4.3482   24.9745  -28.1572 H   0  0  0  0  0  0  0  0  0  0  0  0
   -6.3171   25.9847  -29.3132 H   0  0  0  0  0  0  0  0  0  0  0  0
   -7.1654   24.9928  -31.4366 H   0  0  0  0  0  0  0  0  0  0  0  0
   -4.8087   19.7450  -32.3821 H   0  0  0  0  0  0  0  0  0  0  0  0
   -5.6581   19.0751  -33.8161 H   0  0  0  0  0  0  0  0  0  0  0  0
   -5.1071   20.7848  -33.8161 H   0  0  0  0  0  0  0  0  0  0  0  0
  1  2  1  0
  2  3  2  0
  3  4  1  0
  4  5  2  0
  5  6  1  0
  6  7  1  0
  7  8  1  0
  8  9  2  0
  9 10  1  0
 10 11  2  0
 11 12  1  0
 12 13  2  0
  6 14  2  0
 14 15  1  0
 14  2  1  0
 13  8  1  0
  1 16  1  0
  1 17  1  0
  1 18  1  0
  3 19  1  0
  4 20  1  0
  5 21  1  0
  7 22  1  0
  7 23  1  0
  9 24  1  0
 10 25  1  0
 11 26  1  0
 12 27  1  0
 13 28  1  0
 15 29  1  0
 15 30  1  0
 15 31  1  0
M  CHG  1   7   1
M  END
>  <UniqueID>  (47) 
45

>  <SMILES>  (47) 
Cc1cccc([NH2+]c2ccccc2)c1C

>  <Energy>  (47) 
38.725035446655625

>  <Genealogy>  (47) 
Cc1cccc([NH2+]c2ccccc2)c1C (protonated)
Cc1cccc([NH2+]c2ccccc2)c1C (3D coordinates assigned)
Cc1cccc([NH2+]c2ccccc2)c1C (optimized conformer: 38.725035446655625 kcal/mol)

>  <smiles>  (47) 
Cc1cccc(Nc2ccccc2)c1C

>  <score_type>  (47) 
oracle

>  <origin>  (47) 
adg

>  <m_score__min__energy>  (47) 
-6.6100000000000003

>  <m_primary>  (47) 
energy

$$$$
47:0
     RDKit          3D

 33 35  0  0  0  0  0  0  0  0999 V2000
   -6.7290   14.3300  -34.2270 C   0  0  0  0  0  0  0  0  0  0  0  0
   -7.1820   15.6340  -34.5780 O   0  0  0  0  0  0  0  0  0  0  0  0
   -6.7070   16.8200  -33.9980 C   0  0  0  0  0  0  0  0  0  0  0  0
   -5.7830   17.6610  -34.6460 C   0  0  0  0  0  0  0  0  0  0  0  0
   -5.3400   18.8320  -34.0250 C   0  0  0  0  0  0  0  0  0  0  0  0
   -5.8020   19.1810  -32.7450 C   0  0  0  0  0  0  0  0  0  0  0  0
   -5.3450   20.3950  -32.1190 N   0  0  0  0  0  0  0  0  0  0  0  0
   -3.7910   20.6730  -31.5690 S   0  0  0  0  0  0  0  0  0  0  0  0
   -4.0090   22.2210  -30.9910 C   0  0  0  0  0  0  0  0  0  0  0  0
   -3.1070   23.0850  -30.3810 C   0  0  0  0  0  0  0  0  0  0  0  0
   -3.5750   24.3570  -29.9780 C   0  0  0  0  0  0  0  0  0  0  0  0
   -2.7420   25.2980  -29.3560 O   0  0  0  0  0  0  0  0  0  0  0  0
   -1.8940   25.0100  -28.2490 C   0  0  0  0  0  0  0  0  0  0  0  0
   -4.9250   24.7050  -30.2020 C   0  0  0  0  0  0  0  0  0  0  0  0
   -5.8120   23.8070  -30.8210 C   0  0  0  0  0  0  0  0  0  0  0  0
   -5.3350   22.5550  -31.2180 C   0  0  0  0  0  0  0  0  0  0  0  0
   -6.0660   21.5210  -31.8420 C   0  0  0  0  0  0  0  0  0  0  0  0
   -7.2960   21.6200  -32.0960 O   0  0  0  0  0  0  0  0  0  0  0  0
   -6.7310   18.3430  -32.1050 C   0  0  0  0  0  0  0  0  0  0  0  0
   -7.1750   17.1730  -32.7280 C   0  0  0  0  0  0  0  0  0  0  0  0
   -6.6963   14.2357  -33.1315 H   0  0  0  0  0  0  0  0  0  0  0  0
   -7.4189   13.5789  -34.6392 H   0  0  0  0  0  0  0  0  0  0  0  0
   -5.7220   14.1683  -34.6392 H   0  0  0  0  0  0  0  0  0  0  0  0
   -5.4080   17.3955  -35.6454 H   0  0  0  0  0  0  0  0  0  0  0  0
   -4.6233   19.4862  -34.5430 H   0  0  0  0  0  0  0  0  0  0  0  0
   -2.0606   22.7881  -30.2167 H   0  0  0  0  0  0  0  0  0  0  0  0
   -2.4391   25.1951  -27.3117 H   0  0  0  0  0  0  0  0  0  0  0  0
   -1.5827   23.9558  -28.2901 H   0  0  0  0  0  0  0  0  0  0  0  0
   -1.0051   25.6566  -28.2901 H   0  0  0  0  0  0  0  0  0  0  0  0
   -5.2884   25.6944  -29.8872 H   0  0  0  0  0  0  0  0  0  0  0  0
   -6.8628   24.0850  -30.9898 H   0  0  0  0  0  0  0  0  0  0  0  0
   -7.1111   18.6093  -31.1077 H   0  0  0  0  0  0  0  0  0  0  0  0
   -7.8994   16.5237  -32.2145 H   0  0  0  0  0  0  0  0  0  0  0  0
  1  2  1  0
  2  3  1  0
  3  4  2  0
  4  5  1  0
  5  6  2  0
  6  7  1  0
  7  8  1  0
  8  9  1  0
  9 10  2  0
 10 11  1  0
 11 12  1  0
 12 13  1  0
 11 14  2  0
 14 15  1  0
 15 16  2  0
 16 17  1  0
 17 18  2  0
  6 19  1  0
 19 20  2  0
 20  3  1  0
 17  7  1  0
 16  9  1  0
  1 21  1  0
  1 22  1  0
  1 23  1  0
  4 24  1  0
  5 25  1  0
 10 26  1  0
 13 27  1  0
 13 28  1  0
 13 29  1  0
 14 30  1  0
 15 31  1  0
 19 32  1  0
 20 33  1  0
M  END
>  <UniqueID>  (48) 
46

>  <SMILES>  (48) 
COc1ccc(-n2sc3cc(OC)ccc3c2=O)cc1

>  <Energy>  (48) 
78.84581925861893

>  <Genealogy>  (48) 
COc1ccc(-n2sc3cc(OC)ccc3c2=O)cc1 (3D coordinates assigned)
COc1ccc(-n2sc3cc(OC)ccc3c2=O)cc1 (optimized conformer: 78.84581925861893 kcal/mol)

>  <smiles>  (48) 
COc1ccc(-n2sc3cc(OC)ccc3c2=O)cc1

>  <score_type>  (48) 
oracle

>  <origin>  (48) 
adg

>  <m_score__min__energy>  (48) 
-7.0499999999999998

>  <m_primary>  (48) 
energy

$$$$
