0:0
     RDKit          3D

 45 48  0  0  0  0  0  0  0  0999 V2000
   -6.0480   17.4520  -34.5920 C   0  0  0  0  0  0  0  0  0  0  0  0
   -5.2440   18.5810  -34.0190 C   0  0  0  0  0  0  0  0  0  0  0  0
   -3.8430   18.5400  -34.0550 C   0  0  0  0  0  0  0  0  0  0  0  0
   -3.0960   19.5710  -33.4830 C   0  0  0  0  0  0  0  0  0  0  0  0
   -3.7390   20.6450  -32.8610 C   0  0  0  0  0  0  0  0  0  0  0  0
   -5.1420   20.6950  -32.8000 C   0  0  0  0  0  0  0  0  0  0  0  0
   -5.8280   21.8300  -32.1310 C   0  0  0  0  0  0  0  0  0  0  0  0
   -7.2260   21.8250  -31.9700 C   0  0  0  0  0  0  0  0  0  0  0  0
   -7.8700   22.8950  -31.3440 C   0  0  0  0  0  0  0  0  0  0  0  0
   -7.1300   23.9840  -30.8770 C   0  0  0  0  0  0  0  0  0  0  0  0
   -5.7390   24.0140  -31.0430 C   0  0  0  0  0  0  0  0  0  0  0  0
   -4.9490   25.1590  -30.5540 C   0  0  0  0  0  0  0  0  0  0  0  0
   -5.5500   26.1960  -30.1680 O   0  0  0  0  0  0  0  0  0  0  0  0
   -3.5180   25.1140  -30.4650 N   0  0  0  0  0  0  0  0  0  0  0  0
   -2.7580   24.4620  -29.3990 C   0  0  0  0  0  0  0  0  0  0  0  0
   -1.7510   23.4330  -29.9690 C   0  0  0  0  0  0  0  0  0  0  0  0
   -1.9850   22.2220  -29.1520 C   0  0  0  0  0  0  0  0  0  0  0  0
   -1.2530   21.0320  -29.1910 C   0  0  0  0  0  0  0  0  0  0  0  0
   -1.6390   19.9750  -28.3540 C   0  0  0  0  0  0  0  0  0  0  0  0
   -2.7460   20.1190  -27.4980 C   0  0  0  0  0  0  0  0  0  0  0  0
   -3.4710   21.3200  -27.4790 C   0  0  0  0  0  0  0  0  0  0  0  0
   -3.0650   22.3620  -28.3180 C   0  0  0  0  0  0  0  0  0  0  0  0
   -3.7080   23.6900  -28.4580 C   0  0  0  0  0  0  0  0  0  0  0  0
   -5.0910   22.9290  -31.6530 C   0  0  0  0  0  0  0  0  0  0  0  0
   -5.8890   19.6510  -33.3770 C   0  0  0  0  0  0  0  0  0  0  0  0
   -6.4744   16.8532  -33.7737 H   0  0  0  0  0  0  0  0  0  0  0  0
   -6.8612   17.8583  -35.2113 H   0  0  0  0  0  0  0  0  0  0  0  0
   -5.3980   16.8164  -35.2113 H   0  0  0  0  0  0  0  0  0  0  0  0
   -3.3312   17.6930  -34.5353 H   0  0  0  0  0  0  0  0  0  0  0  0
   -1.9972   19.5382  -33.5218 H   0  0  0  0  0  0  0  0  0  0  0  0
   -3.1432   21.4559  -32.4166 H   0  0  0  0  0  0  0  0  0  0  0  0
   -7.8155   20.9730  -32.3395 H   0  0  0  0  0  0  0  0  0  0  0  0
   -8.9627   22.8800  -31.2185 H   0  0  0  0  0  0  0  0  0  0  0  0
   -7.6408   24.8204  -30.3775 H   0  0  0  0  0  0  0  0  0  0  0  0
   -2.2220   25.2569  -28.8598 H   0  0  0  0  0  0  0  0  0  0  0  0
   -1.9531   23.2340  -31.0318 H   0  0  0  0  0  0  0  0  0  0  0  0
   -0.7098   23.7845  -29.9209 H   0  0  0  0  0  0  0  0  0  0  0  0
   -0.3904   20.9265  -29.8654 H   0  0  0  0  0  0  0  0  0  0  0  0
   -1.0747   19.0309  -28.3669 H   0  0  0  0  0  0  0  0  0  0  0  0
   -3.0439   19.2879  -26.8419 H   0  0  0  0  0  0  0  0  0  0  0  0
   -4.3415   21.4394  -26.8172 H   0  0  0  0  0  0  0  0  0  0  0  0
   -4.7093   23.5955  -28.9035 H   0  0  0  0  0  0  0  0  0  0  0  0
   -3.8538   24.1959  -27.4922 H   0  0  0  0  0  0  0  0  0  0  0  0
   -3.9961   22.9378  -31.7585 H   0  0  0  0  0  0  0  0  0  0  0  0
   -6.9875   19.6732  -33.3247 H   0  0  0  0  0  0  0  0  0  0  0  0
  1  2  1  0
  2  3  2  0
  3  4  1  0
  4  5  2  0
  5  6  1  0
  6  7  1  0
  7  8  2  0
  8  9  1  0
  9 10  2  0
 10 11  1  0
 11 12  1  0
 12 13  2  0
 12 14  1  0
 14 15  1  0
 15 16  1  0
 16 17  1  0
 17 18  2  0
 18 19  1  0
 19 20  2  0
 20 21  1  0
 21 22  2  0
 22 23  1  0
 11 24  2  0
  6 25  2  0
 25  2  1  0
 24  7  1  0
 23 15  1  0
 22 17  1  0
  1 26  1  0
  1 27  1  0
  1 28  1  0
  3 29  1  0
  4 30  1  0
  5 31  1  0
  8 32  1  0
  9 33  1  0
 10 34  1  0
 15 35  1  0
 16 36  1  0
 16 37  1  0
 18 38  1  0
 19 39  1  0
 20 40  1  0
 21 41  1  0
 23 42  1  0
 23 43  1  0
 24 44  1  0
 25 45  1  0
M  CHG  1  14  -1
M  END
>  <UniqueID>  (1) 
1

>  <SMILES>  (1) 
Cc1cccc(-c2cccc(C(=O)[N-]C3Cc4ccccc4C3)c2)c1

>  <Energy>  (1) 
65.25760106814361

>  <Genealogy>  (1) 
Cc1cccc(-c2cccc(C(=O)[N-]C3Cc4ccccc4C3)c2)c1 (protonated)
Cc1cccc(-c2cccc(C(=O)[N-]C3Cc4ccccc4C3)c2)c1 (3D coordinates assigned)
Cc1cccc(-c2cccc(C(=O)[N-]C3Cc4ccccc4C3)c2)c1 (nonaromatic ring conformer: 65.25760106814361 kcal/mol)

>  <smiles>  (1) 
Cc1cccc(-c2cccc(C(=O)NC3Cc4ccccc4C3)c2)c1

>  <score_type>  (1) 
oracle

>  <origin>  (1) 
adg

>  <m_score__min__energy>  (1) 
-11.16

>  <m_primary>  (1) 
energy

$$$$
1:0
     RDKit          3D

 37 38  0  0  0  0  0  0  0  0999 V2000
   -1.2250   21.5370  -26.4340 C   0  0  0  0  0  0  0  0  0  0  0  0
   -2.0880   22.2080  -27.4600 C   0  0  0  0  0  0  0  0  0  0  0  0
   -2.5630   21.4880  -28.5670 C   0  0  0  0  0  0  0  0  0  0  0  0
   -3.3940   22.1050  -29.5070 C   0  0  0  0  0  0  0  0  0  0  0  0
   -3.7720   23.4430  -29.3420 C   0  0  0  0  0  0  0  0  0  0  0  0
   -4.7670   24.2350  -30.5590 S   0  0  0  0  0  0  0  0  0  0  0  0
   -4.7190   23.4500  -31.8410 O   0  0  0  0  0  0  0  0  0  0  0  0
   -4.2240   25.6110  -30.8260 O   0  0  0  0  0  0  0  0  0  0  0  0
   -6.4660   24.3720  -30.0090 C   0  0  0  0  0  0  0  0  0  0  0  0
   -7.2280   23.0360  -30.1300 C   0  0  0  0  0  0  0  0  0  0  0  0
   -7.4090   22.6200  -31.5460 N   0  0  0  0  0  0  0  0  0  0  0  0
   -7.0650   21.2010  -31.7490 C   0  0  0  0  0  0  0  0  0  0  0  0
   -8.3520   20.3880  -31.6440 C   0  0  0  0  0  0  0  0  0  0  0  0
   -9.4820   21.4010  -31.6640 C   0  0  0  0  0  0  0  0  0  0  0  0
   -8.8140   22.7310  -31.9670 C   0  0  0  0  0  0  0  0  0  0  0  0
   -3.3110   24.1620  -28.2300 C   0  0  0  0  0  0  0  0  0  0  0  0
   -2.4800   23.5460  -27.2890 C   0  0  0  0  0  0  0  0  0  0  0  0
   -1.5742   21.8085  -25.4269 H   0  0  0  0  0  0  0  0  0  0  0  0
   -1.2851   20.4460  -26.5612 H   0  0  0  0  0  0  0  0  0  0  0  0
   -0.1825   21.8641  -26.5612 H   0  0  0  0  0  0  0  0  0  0  0  0
   -2.2801   20.4328  -28.6958 H   0  0  0  0  0  0  0  0  0  0  0  0
   -3.7519   21.5376  -30.3787 H   0  0  0  0  0  0  0  0  0  0  0  0
   -6.4728   24.6894  -28.9558 H   0  0  0  0  0  0  0  0  0  0  0  0
   -6.9706   25.1077  -30.6525 H   0  0  0  0  0  0  0  0  0  0  0  0
   -6.6613   22.2556  -29.6010 H   0  0  0  0  0  0  0  0  0  0  0  0
   -8.2258   23.1746  -29.6881 H   0  0  0  0  0  0  0  0  0  0  0  0
   -6.8210   23.2150  -32.1750 H   0  0  0  0  0  0  0  0  0  0  0  0
   -6.6160   21.0637  -32.7438 H   0  0  0  0  0  0  0  0  0  0  0  0
   -6.3392   20.8700  -30.9916 H   0  0  0  0  0  0  0  0  0  0  0  0
   -8.4403   19.6983  -32.4964 H   0  0  0  0  0  0  0  0  0  0  0  0
   -8.3718   19.7764  -30.7299 H   0  0  0  0  0  0  0  0  0  0  0  0
  -10.2132   21.1488  -32.4461 H   0  0  0  0  0  0  0  0  0  0  0  0
  -10.0331   21.4233  -30.7123 H   0  0  0  0  0  0  0  0  0  0  0  0
   -8.8685   22.9428  -33.0450 H   0  0  0  0  0  0  0  0  0  0  0  0
   -9.3173   23.5505  -31.4330 H   0  0  0  0  0  0  0  0  0  0  0  0
   -3.6039   25.2140  -28.0974 H   0  0  0  0  0  0  0  0  0  0  0  0
   -2.1321   24.1112  -26.4118 H   0  0  0  0  0  0  0  0  0  0  0  0
  1  2  1  0
  2  3  2  0
  3  4  1  0
  4  5  2  0
  5  6  1  0
  6  7  2  0
  6  8  2  0
  6  9  1  0
  9 10  1  0
 10 11  1  0
 11 12  1  0
 12 13  1  0
 13 14  1  0
 14 15  1  0
  5 16  1  0
 16 17  2  0
 17  2  1  0
 15 11  1  0
  1 18  1  0
  1 19  1  0
  1 20  1  0
  3 21  1  0
  4 22  1  0
  9 23  1  0
  9 24  1  0
 10 25  1  0
 10 26  1  0
 11 27  1  0
 12 28  1  0
 12 29  1  0
 13 30  1  0
 13 31  1  0
 14 32  1  0
 14 33  1  0
 15 34  1  0
 15 35  1  0
 16 36  1  0
 17 37  1  0
M  CHG  1  11   1
M  END
>  <UniqueID>  (2) 
2

>  <SMILES>  (2) 
Cc1ccc(S(=O)(=O)CC[NH+]2CCCC2)cc1

>  <Energy>  (2) 
35.762378812986356

>  <Genealogy>  (2) 
Cc1ccc(S(=O)(=O)CC[NH+]2CCCC2)cc1 (protonated)
Cc1ccc(S(=O)(=O)CC[NH+]2CCCC2)cc1 (3D coordinates assigned)
Cc1ccc(S(=O)(=O)CC[NH+]2CCCC2)cc1 (nonaromatic ring conformer: 35.762378812986356 kcal/mol)

>  <smiles>  (2) 
Cc1ccc(S(=O)(=O)CCN2CCCC2)cc1

>  <score_type>  (2) 
oracle

>  <origin>  (2) 
adg

>  <m_score__min__energy>  (2) 
-6.3099999999999996

>  <m_primary>  (2) 
energy

$$$$
2:0
     RDKit          3D

 34 37  0  0  0  0  0  0  0  0999 V2000
   -3.9330   26.4140  -29.8220 H   0  0  0  0  0  0  0  0  0  0  0  0
   -4.2440   25.6740  -30.4910 N   0  0  0  0  0  0  0  0  0  0  0  0
   -3.7290   24.4870  -30.4700 C   0  0  0  0  0  0  0  0  0  0  0  0
   -4.2440   23.4890  -31.2470 N   0  0  0  0  0  0  0  0  0  0  0  0
   -3.7240   22.2200  -31.2520 C   0  0  0  0  0  0  0  0  0  0  0  0
   -4.3400   21.1830  -32.1210 C   0  0  0  0  0  0  0  0  0  0  0  0
   -3.5190   20.2720  -32.8110 C   0  0  0  0  0  0  0  0  0  0  0  0
   -2.4259   20.3358  -32.7063 H   0  0  0  0  0  0  0  0  0  0  0  0
   -4.0800   19.2870  -33.6280 C   0  0  0  0  0  0  0  0  0  0  0  0
   -3.4265   18.5791  -34.1588 H   0  0  0  0  0  0  0  0  0  0  0  0
   -5.4720   19.1960  -33.7750 C   0  0  0  0  0  0  0  0  0  0  0  0
   -6.0750   18.1120  -34.6190 C   0  0  0  0  0  0  0  0  0  0  0  0
   -6.5060   17.3372  -33.9678 H   0  0  0  0  0  0  0  0  0  0  0  0
   -6.8654   18.5386  -35.2540 H   0  0  0  0  0  0  0  0  0  0  0  0
   -5.2957   17.6654  -35.2540 H   0  0  0  0  0  0  0  0  0  0  0  0
   -6.2970   20.0810  -33.0650 C   0  0  0  0  0  0  0  0  0  0  0  0
   -7.3904   19.9982  -33.1520 H   0  0  0  0  0  0  0  0  0  0  0  0
   -5.7380   21.0670  -32.2480 C   0  0  0  0  0  0  0  0  0  0  0  0
   -6.3949   21.7582  -31.6996 H   0  0  0  0  0  0  0  0  0  0  0  0
   -2.6250   21.9310  -30.4140 C   0  0  0  0  0  0  0  0  0  0  0  0
   -2.1843   20.9237  -30.3791 H   0  0  0  0  0  0  0  0  0  0  0  0
   -2.1320   22.9410  -29.6530 N   0  0  0  0  0  0  0  0  0  0  0  0
   -2.6400   24.1890  -29.6560 C   0  0  0  0  0  0  0  0  0  0  0  0
   -2.0030   25.0470  -28.8150 N   0  0  0  0  0  0  0  0  0  0  0  0
   -1.0480   24.2570  -28.2740 C   0  0  0  0  0  0  0  0  0  0  0  0
   -0.0870   24.6130  -27.3300 C   0  0  0  0  0  0  0  0  0  0  0  0
   -0.0336   25.6370  -26.9317 H   0  0  0  0  0  0  0  0  0  0  0  0
    0.8130   23.6190  -26.9030 C   0  0  0  0  0  0  0  0  0  0  0  0
    1.5840   23.8654  -26.1582 H   0  0  0  0  0  0  0  0  0  0  0  0
    0.7350   22.3060  -27.4230 C   0  0  0  0  0  0  0  0  0  0  0  0
    1.4464   21.5400  -27.0807 H   0  0  0  0  0  0  0  0  0  0  0  0
   -0.2470   21.9720  -28.3760 C   0  0  0  0  0  0  0  0  0  0  0  0
   -0.3208   20.9552  -28.7890 H   0  0  0  0  0  0  0  0  0  0  0  0
   -1.1220   22.9820  -28.7750 C   0  0  0  0  0  0  0  0  0  0  0  0
  1  2  1  0
  2  3  2  0
  3  4  1  0
  4  5  1  0
  5  6  1  0
  6  7  2  0
  7  8  1  0
  7  9  1  0
  9 10  1  0
  9 11  2  0
 11 12  1  0
 12 13  1  0
 12 14  1  0
 12 15  1  0
 11 16  1  0
 16 17  1  0
 16 18  2  0
 18 19  1  0
  5 20  2  0
 20 21  1  0
 20 22  1  0
 22 23  1  0
 23 24  2  0
 24 25  1  0
 25 26  2  0
 26 27  1  0
 26 28  1  0
 28 29  1  0
 28 30  2  0
 30 31  1  0
 30 32  1  0
 32 33  1  0
 32 34  2  0
 23  3  1  0
 34 25  1  0
 18  6  1  0
 34 22  1  0
M  CHG  1   4  -1
M  END
>  <UniqueID>  (3) 
3

>  <SMILES>  (3) 
[H]/N=c1\[n-]c(-c2ccc(C)cc2)cn2c1nc1ccccc12

>  <Energy>  (3) 
86.49337710845072

>  <Genealogy>  (3) 
Cc1ccc(-c2cn3c(nc4ccccc43)c(=N)[n-]2)cc1 (protonated)
[H]/N=c1\[n-]c(-c2ccc(C)cc2)cn2c1nc1ccccc12 (cis-trans isomerization)
[H]/N=c1\[n-]c(-c2ccc(C)cc2)cn2c1nc1ccccc12 (3D coordinates assigned)
[H]/N=c1\[n-]c(-c2ccc(C)cc2)cn2c1nc1ccccc12 (optimized conformer: 86.49337710845072 kcal/mol)

>  <smiles>  (3) 
Cc1ccc(-c2cn3c(nc4ccccc43)c(=N)[nH]2)cc1

>  <score_type>  (3) 
oracle

>  <origin>  (3) 
adg

>  <m_score__min__energy>  (3) 
-8.9700000000000006

>  <m_primary>  (3) 
energy

$$$$
3:0
     RDKit          3D

 34 35  0  0  0  0  0  0  0  0999 V2000
   -5.3840   26.5290  -30.4860 O   0  0  0  0  0  0  0  0  0  0  0  0
   -5.1530   25.2900  -30.4430 C   0  0  0  0  0  0  0  0  0  0  0  0
   -6.2880   24.3240  -30.3430 C   0  0  0  0  0  0  0  0  0  0  0  0
   -6.2850   23.1940  -31.7330 S   0  0  0  0  0  5  0  0  0  0  0  0
   -7.2380   23.8190  -32.9700 O   0  0  0  0  0  0  0  0  0  0  0  0
   -4.7110   23.0320  -32.3020 O   0  0  0  0  0  0  0  0  0  0  0  0
   -6.8220   21.7670  -31.3290 N   0  0  0  0  0  0  0  0  0  0  0  0
   -6.6560   20.5610  -32.0910 C   0  0  0  0  0  0  0  0  0  0  0  0
   -7.3430   19.4140  -31.6780 C   0  0  0  0  0  0  0  0  0  0  0  0
   -7.2550   18.2450  -32.4340 C   0  0  0  0  0  0  0  0  0  0  0  0
   -6.4730   18.2240  -33.5870 C   0  0  0  0  0  0  0  0  0  0  0  0
   -5.7840   19.3780  -33.9650 C   0  0  0  0  0  0  0  0  0  0  0  0
   -5.8830   20.5140  -33.2200 N   0  0  0  0  0  0  0  0  0  0  0  0
   -3.8110   24.7920  -30.4990 N   0  0  0  0  0  0  0  0  0  0  0  0
   -3.2690   23.7070  -29.7330 C   0  0  0  0  0  0  0  0  0  0  0  0
   -2.4880   22.6940  -30.3200 C   0  0  0  0  0  0  0  0  0  0  0  0
   -2.0400   21.6170  -29.5510 C   0  0  0  0  0  0  0  0  0  0  0  0
   -2.3720   21.5350  -28.1940 C   0  0  0  0  0  0  0  0  0  0  0  0
   -1.7670   20.0570  -27.1490 Br  0  0  0  0  0  0  0  0  0  0  0  0
   -3.1610   22.5300  -27.6100 C   0  0  0  0  0  0  0  0  0  0  0  0
   -3.6120   23.6070  -28.3780 C   0  0  0  0  0  0  0  0  0  0  0  0
   -6.1911   23.7489  -29.4103 H   0  0  0  0  0  0  0  0  0  0  0  0
   -7.2326   24.8877  -30.3485 H   0  0  0  0  0  0  0  0  0  0  0  0
   -6.6550   23.8030  -33.7710 H   0  0  0  0  0  0  0  0  0  0  0  0
   -4.2270   23.8180  -31.9430 H   0  0  0  0  0  0  0  0  0  0  0  0
   -7.9500   19.4341  -30.7609 H   0  0  0  0  0  0  0  0  0  0  0  0
   -7.8011   17.3429  -32.1210 H   0  0  0  0  0  0  0  0  0  0  0  0
   -6.3993   17.3086  -34.1926 H   0  0  0  0  0  0  0  0  0  0  0  0
   -5.1578   19.3697  -34.8693 H   0  0  0  0  0  0  0  0  0  0  0  0
   -5.3500   21.3490  -33.5410 H   0  0  0  0  0  0  0  0  0  0  0  0
   -2.2295   22.7504  -31.3877 H   0  0  0  0  0  0  0  0  0  0  0  0
   -1.4246   20.8313  -30.0135 H   0  0  0  0  0  0  0  0  0  0  0  0
   -3.4273   22.4653  -26.5447 H   0  0  0  0  0  0  0  0  0  0  0  0
   -4.2409   24.3819  -27.9154 H   0  0  0  0  0  0  0  0  0  0  0  0
  1  2  2  0
  2  3  1  0
  3  4  1  0
  4  5  1  0
  4  6  1  0
  4  7  2  0
  7  8  1  0
  8  9  2  0
  9 10  1  0
 10 11  2  0
 11 12  1  0
 12 13  2  0
  2 14  1  0
 14 15  1  0
 15 16  2  0
 16 17  1  0
 17 18  2  0
 18 19  1  0
 18 20  1  0
 20 21  2  0
 13  8  1  0
 21 15  1  0
  3 22  1  0
  3 23  1  0
  5 24  1  0
  6 25  1  0
  9 26  1  0
 10 27  1  0
 11 28  1  0
 12 29  1  0
 13 30  1  0
 16 31  1  0
 17 32  1  0
 20 33  1  0
 21 34  1  0
M  CHG  3   4   1  13   1  14  -1
M  END
>  <UniqueID>  (4) 
4

>  <SMILES>  (4) 
O=C(C[S+](O)(O)=Nc1cccc[nH+]1)[N-]c1ccc(Br)cc1

>  <Energy>  (4) 
31.608832649210783

>  <Genealogy>  (4) 
O=C(C[S+](O)(O)=Nc1cccc[nH+]1)[N-]c1ccc(Br)cc1 (protonated)
O=C(C[S+](O)(O)=Nc1cccc[nH+]1)[N-]c1ccc(Br)cc1 (3D coordinates assigned)
O=C(C[S+](O)(O)=Nc1cccc[nH+]1)[N-]c1ccc(Br)cc1 (optimized conformer: 31.608832649210783 kcal/mol)

>  <smiles>  (4) 
O=C(C[S+]([O-])([O-])=Nc1ccccn1)Nc1ccc(Br)cc1

>  <score_type>  (4) 
oracle

>  <origin>  (4) 
adg

>  <m_score__min__energy>  (4) 
-8.0700000000000003

>  <m_primary>  (4) 
energy

$$$$
4:0
     RDKit          3D

 26 28  0  0  0  0  0  0  0  0999 V2000
   -6.9040   24.1800  -30.7640 C   0  0  0  0  0  0  0  0  0  0  0  0
   -5.4560   24.3280  -30.4400 C   0  0  0  0  0  0  0  0  0  0  0  0
   -4.6360   25.1910  -31.0690 N   0  0  0  0  0  0  0  0  0  0  0  0
   -3.4950   25.0620  -30.4660 O   0  0  0  0  0  0  0  0  0  0  0  0
   -3.5980   24.1730  -29.5070 C   0  0  0  0  0  0  0  0  0  0  0  0
   -2.4590   23.7990  -28.5940 C   0  0  1  0  0  0  0  0  0  0  0  0
   -1.1000   23.7780  -29.3350 C   0  0  0  0  0  0  0  0  0  0  0  0
   -0.2300   24.7290  -28.6020 N   0  0  0  0  0  0  0  0  0  0  0  0
    0.0790   24.1240  -27.2840 C   0  0  0  0  0  0  0  0  0  0  0  0
   -1.2300   24.2080  -26.4730 C   0  0  0  0  0  0  0  0  0  0  0  0
   -2.1770   24.8440  -27.4970 C   0  0  1  0  0  0  0  0  0  0  0  0
   -1.2020   25.7410  -28.2120 C   0  0  0  0  0  0  0  0  0  0  0  0
   -4.8470   23.6710  -29.4330 N   0  0  0  0  0  0  0  0  0  0  0  0
   -7.4842   24.1207  -29.8314 H   0  0  0  0  0  0  0  0  0  0  0  0
   -7.2393   25.0486  -31.3498 H   0  0  0  0  0  0  0  0  0  0  0  0
   -7.0566   23.2616  -31.3498 H   0  0  0  0  0  0  0  0  0  0  0  0
   -2.7841   22.8261  -28.1967 H   0  0  0  0  0  0  0  0  0  0  0  0
   -0.6669   22.7671  -29.3137 H   0  0  0  0  0  0  0  0  0  0  0  0
   -1.2093   24.0595  -30.3927 H   0  0  0  0  0  0  0  0  0  0  0  0
    0.3888   23.0756  -27.4057 H   0  0  0  0  0  0  0  0  0  0  0  0
    0.9051   24.6466  -26.7795 H   0  0  0  0  0  0  0  0  0  0  0  0
   -1.5788   23.2107  -26.1669 H   0  0  0  0  0  0  0  0  0  0  0  0
   -1.1415   24.7697  -25.5314 H   0  0  0  0  0  0  0  0  0  0  0  0
   -3.0935   25.2649  -27.0578 H   0  0  0  0  0  0  0  0  0  0  0  0
   -1.6560   26.2377  -29.0821 H   0  0  0  0  0  0  0  0  0  0  0  0
   -0.8073   26.5838  -27.6256 H   0  0  0  0  0  0  0  0  0  0  0  0
  1  2  1  0
  2  3  2  0
  3  4  1  0
  4  5  1  0
  5  6  1  0
  6  7  1  0
  8  7  1  0
  8  9  1  0
  9 10  1  0
 10 11  1  0
 11 12  1  0
  5 13  2  0
 13  2  1  0
 11  6  1  0
 12  8  1  0
  1 14  1  0
  1 15  1  0
  1 16  1  0
  6 17  1  1
  7 18  1  0
  7 19  1  0
  9 20  1  0
  9 21  1  0
 10 22  1  0
 10 23  1  0
 11 24  1  1
 12 25  1  0
 12 26  1  0
M  END
>  <UniqueID>  (5) 
5

>  <SMILES>  (5) 
Cc1noc([C@H]2C[N@]3CCC2C3)n1

>  <Energy>  (5) 
86.45015023754728

>  <Genealogy>  (5) 
Cc1noc([C@H]2C[N@]3CCC2C3)n1 (chirality)
Cc1noc([C@H]2C[N@]3CCC2C3)n1 (3D coordinates assigned)
Cc1noc([C@H]2C[N@]3CCC2C3)n1 (nonaromatic ring conformer: 86.45015023754728 kcal/mol)

>  <smiles>  (5) 
Cc1noc(C2CN3CCC2C3)n1

>  <score_type>  (5) 
oracle

>  <origin>  (5) 
adg

>  <m_score__min__energy>  (5) 
-6.4800000000000004

>  <m_primary>  (5) 
energy

$$$$
5:0
     RDKit          3D

 42 46  0  0  0  0  0  0  0  0999 V2000
   -6.5050   14.5710  -34.2130 C   0  0  0  0  0  0  0  0  0  0  0  0
   -6.3250   15.9770  -33.8830 N   0  0  0  0  0  0  0  0  0  0  0  0
   -7.2330   16.8140  -33.4080 N   0  0  0  0  0  0  0  0  0  0  0  0
   -6.7030   18.0410  -33.2220 C   0  0  0  0  0  0  0  0  0  0  0  0
   -7.3440   19.2540  -32.7200 C   0  0  0  0  0  0  0  0  0  0  0  0
   -8.7350   19.3580  -32.6890 C   0  0  0  0  0  0  0  0  0  0  0  0
   -9.3310   20.4920  -32.2200 C   0  0  0  0  0  0  0  0  0  0  0  0
   -8.5930   21.5650  -31.7660 C   0  0  0  0  0  0  0  0  0  0  0  0
   -7.2150   21.4920  -31.7850 C   0  0  0  0  0  0  0  0  0  0  0  0
   -6.3610   22.5850  -31.3220 C   0  0  0  0  0  0  0  0  0  0  0  0
   -4.9920   22.3930  -31.2960 C   0  0  0  0  0  0  0  0  0  0  0  0
   -4.2120   23.4420  -30.8540 C   0  0  0  0  0  0  0  0  0  0  0  0
   -4.7280   24.6460  -30.4470 C   0  0  0  0  0  0  0  0  0  0  0  0
   -6.0980   24.8400  -30.4730 C   0  0  0  0  0  0  0  0  0  0  0  0
   -6.8940   23.8040  -30.9110 C   0  0  0  0  0  0  0  0  0  0  0  0
   -6.6140   20.3260  -32.2670 C   0  0  0  0  0  0  0  0  0  0  0  0
   -5.3790   17.9490  -33.6090 C   0  0  0  0  0  0  0  0  0  0  0  0
   -5.1580   16.6490  -34.0210 C   0  0  0  0  0  0  0  0  0  0  0  0
   -3.8690   16.5470  -34.4020 N   0  0  0  0  0  0  0  0  0  0  0  0
   -3.2680   17.7230  -34.2480 N   0  0  0  0  0  0  0  0  0  0  0  0
   -2.0200   18.1740  -34.4680 C   0  0  0  0  0  0  0  0  0  0  0  0
   -1.6440   19.4800  -34.2190 C   0  0  0  0  0  0  0  0  0  0  0  0
   -2.6130   20.3570  -33.7170 C   0  0  0  0  0  0  0  0  0  0  0  0
   -2.2540   21.5710  -33.4870 N   0  0  0  0  0  0  0  0  0  0  0  0
   -3.8550   19.8890  -33.5030 N   0  0  0  0  0  0  0  0  0  0  0  0
   -4.1600   18.6100  -33.7650 C   0  0  0  0  0  0  0  0  0  0  0  0
   -6.5802   13.9835  -33.2861 H   0  0  0  0  0  0  0  0  0  0  0  0
   -7.4263   14.4475  -34.8012 H   0  0  0  0  0  0  0  0  0  0  0  0
   -5.6445   14.2193  -34.8012 H   0  0  0  0  0  0  0  0  0  0  0  0
   -9.3543   18.5213  -33.0446 H   0  0  0  0  0  0  0  0  0  0  0  0
  -10.4292   20.5521  -32.2035 H   0  0  0  0  0  0  0  0  0  0  0  0
   -9.0970   22.4688  -31.3930 H   0  0  0  0  0  0  0  0  0  0  0  0
   -4.5422   21.4413  -31.6152 H   0  0  0  0  0  0  0  0  0  0  0  0
   -3.1208   23.3057  -30.8267 H   0  0  0  0  0  0  0  0  0  0  0  0
   -4.0596   25.4492  -30.1034 H   0  0  0  0  0  0  0  0  0  0  0  0
   -6.5395   25.7952  -30.1527 H   0  0  0  0  0  0  0  0  0  0  0  0
   -7.9847   23.9443  -30.9368 H   0  0  0  0  0  0  0  0  0  0  0  0
   -5.5159   20.2643  -32.2843 H   0  0  0  0  0  0  0  0  0  0  0  0
   -3.4110   15.6630  -34.7650 H   0  0  0  0  0  0  0  0  0  0  0  0
   -1.2681   17.4745  -34.8622 H   0  0  0  0  0  0  0  0  0  0  0  0
   -0.6153   19.8201  -34.4093 H   0  0  0  0  0  0  0  0  0  0  0  0
   -2.0030   22.2850  -34.1840 H   0  0  0  0  0  0  0  0  0  0  0  0
  1  2  1  0
  2  3  1  0
  3  4  2  0
  4  5  1  0
  5  6  2  0
  6  7  1  0
  7  8  2  0
  8  9  1  0
  9 10  1  0
 10 11  2  0
 11 12  1  0
 12 13  2  0
 13 14  1  0
 14 15  2  0
  9 16  2  0
  4 17  1  0
 17 18  2  0
 18 19  1  0
 19 20  1  0
 20 21  1  0
 21 22  2  0
 22 23  1  0
 23 24  2  3
 23 25  1  0
 25 26  2  0
 18  2  1  0
 26 20  1  0
 16  5  1  0
 26 17  1  0
 15 10  1  0
  1 27  1  0
  1 28  1  0
  1 29  1  0
  6 30  1  0
  7 31  1  0
  8 32  1  0
 11 33  1  0
 12 34  1  0
 13 35  1  0
 14 36  1  0
 15 37  1  0
 16 38  1  0
 19 39  1  0
 21 40  1  0
 22 41  1  0
 24 42  1  0
M  END
>  <smiles>  (6) 
Cn1nc(-c2cccc(-c3ccccc3)c2)c2c1[nH]n1ccc(=N)nc21

>  <score_type>  (6) 
oracle

>  <origin>  (6) 
adg

>  <m_score__min__energy>  (6) 
-9.2899999999999991

>  <m_primary>  (6) 
energy

$$$$
6:0
     RDKit          3D

 57 61  0  0  0  0  0  0  0  0999 V2000
    0.0350   20.7130  -32.6900 O   0  0  0  0  0  0  0  0  0  0  0  0
   -1.0990   20.7280  -32.1410 C   0  0  0  0  0  0  0  0  0  0  0  0
   -2.2740   20.9160  -32.9310 N   0  0  0  0  0  0  0  0  0  0  0  0
   -3.6030   20.7480  -32.3300 C   0  0  0  0  0  0  0  0  0  0  0  0
   -4.6400   21.4920  -33.2260 C   0  0  0  0  0  0  0  0  0  0  0  0
   -6.0080   20.7900  -33.3110 C   0  0  0  0  0  0  0  0  0  0  0  0
   -6.2990   20.0690  -32.0610 N   0  0  0  0  0  0  0  0  0  0  0  0
   -7.7240   19.7210  -31.8460 C   0  0  0  0  0  0  0  0  0  0  0  0
   -8.6450   20.8740  -31.3770 C   0  0  0  0  0  0  0  0  0  0  0  0
   -7.9330   21.9330  -30.5300 C   0  0  0  0  0  0  0  0  0  0  0  0
   -7.4320   23.3560  -31.5610 S   0  0  0  0  0  0  0  0  0  0  0  0
   -5.8650   23.6160  -30.7270 C   0  0  0  0  0  0  0  0  0  0  0  0
   -5.7540   23.4210  -29.3520 C   0  0  0  0  0  0  0  0  0  0  0  0
   -4.5270   23.6350  -28.7310 C   0  0  0  0  0  0  0  0  0  0  0  0
   -3.4260   24.0430  -29.5010 C   0  0  0  0  0  0  0  0  0  0  0  0
   -2.0900   24.2910  -28.8990 C   0  0  0  0  0  0  0  0  0  0  0  0
   -0.9470   23.5900  -29.3280 C   0  0  0  0  0  0  0  0  0  0  0  0
    0.2920   23.8580  -28.7420 C   0  0  0  0  0  0  0  0  0  0  0  0
    0.3950   24.7960  -27.7640 N   0  0  0  0  0  0  0  0  0  0  0  0
   -0.6850   25.4960  -27.3330 C   0  0  0  0  0  0  0  0  0  0  0  0
   -1.9430   25.2610  -27.8920 C   0  0  0  0  0  0  0  0  0  0  0  0
   -3.6030   24.2340  -30.8400 N   0  0  0  0  0  0  0  0  0  0  0  0
   -4.7800   24.0280  -31.4320 N   0  0  0  0  0  0  0  0  0  0  0  0
   -5.3650   18.9570  -31.7770 C   0  0  0  0  0  0  0  0  0  0  0  0
   -3.9420   19.2330  -32.3020 C   0  0  0  0  0  0  0  0  0  0  0  0
   -3.5970   21.3260  -30.9560 N   0  0  0  0  0  0  0  0  0  0  0  0
   -2.5240   20.8020  -30.1350 C   0  0  0  0  0  0  0  0  0  0  0  0
   -2.6940   20.6380  -28.7510 C   0  0  0  0  0  0  0  0  0  0  0  0
   -1.6520   20.2350  -27.9760 N   0  0  0  0  0  0  0  0  0  0  0  0
   -0.4210   19.9910  -28.5000 C   0  0  0  0  0  0  0  0  0  0  0  0
   -0.1960   20.1570  -29.8670 C   0  0  0  0  0  0  0  0  0  0  0  0
   -1.2520   20.5670  -30.6890 C   0  0  0  0  0  0  0  0  0  0  0  0
   -4.7931   22.5005  -32.8143 H   0  0  0  0  0  0  0  0  0  0  0  0
   -4.2265   21.5104  -34.2452 H   0  0  0  0  0  0  0  0  0  0  0  0
   -6.7907   21.5432  -33.4845 H   0  0  0  0  0  0  0  0  0  0  0  0
   -5.9848   20.0674  -34.1400 H   0  0  0  0  0  0  0  0  0  0  0  0
   -8.1232   19.3378  -32.7967 H   0  0  0  0  0  0  0  0  0  0  0  0
   -7.7280   18.9882  -31.0257 H   0  0  0  0  0  0  0  0  0  0  0  0
   -9.0635   21.3666  -32.2671 H   0  0  0  0  0  0  0  0  0  0  0  0
   -9.4199   20.4238  -30.7392 H   0  0  0  0  0  0  0  0  0  0  0  0
   -8.6147   22.2817  -29.7402 H   0  0  0  0  0  0  0  0  0  0  0  0
   -7.0323   21.4836  -30.0863 H   0  0  0  0  0  0  0  0  0  0  0  0
   -6.6267   23.1014  -28.7636 H   0  0  0  0  0  0  0  0  0  0  0  0
   -4.4207   23.4858  -27.6464 H   0  0  0  0  0  0  0  0  0  0  0  0
   -1.0296   22.8335  -30.1223 H   0  0  0  0  0  0  0  0  0  0  0  0
    1.1860   23.3090  -29.0726 H   0  0  0  0  0  0  0  0  0  0  0  0
   -0.5691   26.2506  -26.5411 H   0  0  0  0  0  0  0  0  0  0  0  0
   -2.8163   25.8331  -27.5455 H   0  0  0  0  0  0  0  0  0  0  0  0
   -5.3164   18.8063  -30.6885 H   0  0  0  0  0  0  0  0  0  0  0  0
   -5.7439   18.0622  -32.2925 H   0  0  0  0  0  0  0  0  0  0  0  0
   -3.2195   18.7217  -31.6489 H   0  0  0  0  0  0  0  0  0  0  0  0
   -3.8880   18.8589  -33.3350 H   0  0  0  0  0  0  0  0  0  0  0  0
   -4.5190   21.1690  -30.4880 H   0  0  0  0  0  0  0  0  0  0  0  0
   -3.4500   22.3610  -31.0150 H   0  0  0  0  0  0  0  0  0  0  0  0
   -3.6738   20.8363  -28.2920 H   0  0  0  0  0  0  0  0  0  0  0  0
    0.3990   19.6621  -27.8448 H   0  0  0  0  0  0  0  0  0  0  0  0
    0.8000   19.9678  -30.2938 H   0  0  0  0  0  0  0  0  0  0  0  0
  1  2  2  0
  2  3  1  0
  3  4  1  0
  4  5  1  0
  5  6  1  0
  6  7  1  0
  7  8  1  0
  8  9  1  0
  9 10  1  0
 10 11  1  0
 11 12  1  0
 12 13  2  0
 13 14  1  0
 14 15  2  0
 15 16  1  0
 16 17  2  0
 17 18  1  0
 18 19  2  0
 19 20  1  0
 20 21  2  0
 15 22  1  0
 22 23  2  0
  7 24  1  0
 24 25  1  0
  4 26  1  0
 26 27  1  0
 27 28  2  0
 28 29  1  0
 29 30  2  0
 30 31  1  0
 31 32  2  0
 32  2  1  0
 25  4  1  0
 32 27  1  0
 23 12  1  0
 21 16  1  0
  5 33  1  0
  5 34  1  0
  6 35  1  0
  6 36  1  0
  8 37  1  0
  8 38  1  0
  9 39  1  0
  9 40  1  0
 10 41  1  0
 10 42  1  0
 13 43  1  0
 14 44  1  0
 17 45  1  0
 18 46  1  0
 20 47  1  0
 21 48  1  0
 24 49  1  0
 24 50  1  0
 25 51  1  0
 25 52  1  0
 26 53  1  0
 26 54  1  0
 28 55  1  0
 30 56  1  0
 31 57  1  0
M  CHG  2   3  -1  26   1
M  END
>  <UniqueID>  (7) 
6

>  <SMILES>  (7) 
O=C1[N-]C2(CCN(CCCSc3ccc(-c4ccncc4)nn3)CC2)[NH2+]c2cnccc21

>  <Energy>  (7) 
82.9652841299945

>  <Genealogy>  (7) 
O=C1[N-]C2(CCN(CCCSc3ccc(-c4ccncc4)nn3)CC2)[NH2+]c2cnccc21 (protonated)
O=C1[N-]C2(CCN(CCCSc3ccc(-c4ccncc4)nn3)CC2)[NH2+]c2cnccc21 (3D coordinates assigned)
O=C1[N-]C2(CCN(CCCSc3ccc(-c4ccncc4)nn3)CC2)[NH2+]c2cnccc21 (nonaromatic ring conformer: 82.9652841299945 kcal/mol)

>  <smiles>  (7) 
O=C1NC2(CCN(CCCSc3ccc(-c4ccncc4)nn3)CC2)Nc2cnccc21

>  <score_type>  (7) 
oracle

>  <origin>  (7) 
adg

>  <m_score__min__energy>  (7) 
-11.09

>  <m_primary>  (7) 
energy

$$$$
7:0
     RDKit          3D

 42 43  0  0  0  0  0  0  0  0999 V2000
   -9.0900   18.5130  -31.6290 C   0  0  0  0  0  0  0  0  0  0  0  0
   -7.9630   18.0400  -32.3630 O   0  0  0  0  0  0  0  0  0  0  0  0
   -6.7950   18.7840  -32.5860 C   0  0  0  0  0  0  0  0  0  0  0  0
   -5.9530   18.5530  -33.6910 C   0  0  0  0  0  0  0  0  0  0  0  0
   -4.8040   19.3280  -33.8740 C   0  0  0  0  0  0  0  0  0  0  0  0
   -4.4720   20.3340  -32.9530 C   0  0  0  0  0  0  0  0  0  0  0  0
   -3.2530   21.1860  -33.1760 C   0  0  0  0  0  0  0  0  0  0  0  0
   -2.9250   21.9180  -31.9560 N   0  0  0  0  0  0  0  0  0  0  0  0
   -1.7570   21.6300  -31.1740 C   0  0  0  0  0  0  0  0  0  0  0  0
   -0.9110   20.7840  -31.5790 O   0  0  0  0  0  0  0  0  0  0  0  0
   -1.5030   22.3680  -29.8920 C   0  0  0  0  0  0  0  0  0  0  0  0
   -2.7960   22.9420  -29.2970 C   0  0  0  0  0  0  0  0  0  0  0  0
   -3.0530   24.3490  -29.7740 C   0  0  0  0  0  0  0  0  0  0  0  0
   -2.3760   25.2970  -29.2940 O   0  0  0  0  0  0  0  0  0  0  0  0
   -3.9890   24.6290  -30.8230 N   0  0  0  0  0  0  0  0  0  0  0  0
   -5.2910   24.0460  -30.9650 C   0  0  0  0  0  0  0  0  0  0  0  0
   -5.9790   23.6290  -29.8190 C   0  0  0  0  0  0  0  0  0  0  0  0
   -7.2420   23.0370  -29.9300 C   0  0  0  0  0  0  0  0  0  0  0  0
   -7.8180   22.8460  -31.1900 C   0  0  0  0  0  0  0  0  0  0  0  0
   -7.1270   23.2370  -32.3400 C   0  0  0  0  0  0  0  0  0  0  0  0
   -5.8630   23.8260  -32.2320 C   0  0  0  0  0  0  0  0  0  0  0  0
   -5.3140   20.5660  -31.8550 C   0  0  0  0  0  0  0  0  0  0  0  0
   -6.4650   19.7930  -31.6750 C   0  0  0  0  0  0  0  0  0  0  0  0
   -8.8875   18.4280  -30.5511 H   0  0  0  0  0  0  0  0  0  0  0  0
   -9.2784   19.5661  -31.8848 H   0  0  0  0  0  0  0  0  0  0  0  0
   -9.9736   17.9098  -31.8848 H   0  0  0  0  0  0  0  0  0  0  0  0
   -6.2002   17.7602  -34.4124 H   0  0  0  0  0  0  0  0  0  0  0  0
   -4.1563   19.1484  -34.7448 H   0  0  0  0  0  0  0  0  0  0  0  0
   -2.4050   20.5429  -33.4540 H   0  0  0  0  0  0  0  0  0  0  0  0
   -3.4574   21.9041  -33.9839 H   0  0  0  0  0  0  0  0  0  0  0  0
   -3.5630   22.6910  -31.6550 H   0  0  0  0  0  0  0  0  0  0  0  0
   -1.0541   21.6748  -29.1654 H   0  0  0  0  0  0  0  0  0  0  0  0
   -0.8258   23.2070  -30.1097 H   0  0  0  0  0  0  0  0  0  0  0  0
   -3.6404   22.3041  -29.5971 H   0  0  0  0  0  0  0  0  0  0  0  0
   -2.6889   22.9653  -28.2025 H   0  0  0  0  0  0  0  0  0  0  0  0
   -5.5245   23.7674  -28.8269 H   0  0  0  0  0  0  0  0  0  0  0  0
   -7.7824   22.7215  -29.0253 H   0  0  0  0  0  0  0  0  0  0  0  0
   -8.8145   22.3882  -31.2758 H   0  0  0  0  0  0  0  0  0  0  0  0
   -7.5777   23.0814  -33.3313 H   0  0  0  0  0  0  0  0  0  0  0  0
   -5.3145   24.1180  -33.1397 H   0  0  0  0  0  0  0  0  0  0  0  0
   -5.0677   21.3588  -31.1333 H   0  0  0  0  0  0  0  0  0  0  0  0
   -7.1171   19.9800  -30.8091 H   0  0  0  0  0  0  0  0  0  0  0  0
  1  2  1  0
  2  3  1  0
  3  4  2  0
  4  5  1  0
  5  6  2  0
  6  7  1  0
  7  8  1  0
  8  9  1  0
  9 10  2  0
  9 11  1  0
 11 12  1  0
 12 13  1  0
 13 14  2  0
 13 15  1  0
 15 16  1  0
 16 17  2  0
 17 18  1  0
 18 19  2  0
 19 20  1  0
 20 21  2  0
  6 22  1  0
 22 23  2  0
 23  3  1  0
 21 16  1  0
  1 24  1  0
  1 25  1  0
  1 26  1  0
  4 27  1  0
  5 28  1  0
  7 29  1  0
  7 30  1  0
  8 31  1  0
 11 32  1  0
 11 33  1  0
 12 34  1  0
 12 35  1  0
 17 36  1  0
 18 37  1  0
 19 38  1  0
 20 39  1  0
 21 40  1  0
 22 41  1  0
 23 42  1  0
M  CHG  1  15  -1
M  END
>  <UniqueID>  (8) 
7

>  <SMILES>  (8) 
COc1ccc(CNC(=O)CCC(=O)[N-]c2ccccc2)cc1

>  <Energy>  (8) 
41.1462105458475

>  <Genealogy>  (8) 
COc1ccc(CNC(=O)CCC(=O)[N-]c2ccccc2)cc1 (protonated)
COc1ccc(CNC(=O)CCC(=O)[N-]c2ccccc2)cc1 (3D coordinates assigned)
COc1ccc(CNC(=O)CCC(=O)[N-]c2ccccc2)cc1 (optimized conformer: 41.1462105458475 kcal/mol)

>  <smiles>  (8) 
COc1ccc(CNC(=O)CCC(=O)Nc2ccccc2)cc1

>  <score_type>  (8) 
oracle

>  <origin>  (8) 
adg

>  <m_score__min__energy>  (8) 
-9.6999999999999993

>  <m_primary>  (8) 
energy

$$$$
8:0
     RDKit          3D

 49 50  0  0  0  0  0  0  0  0999 V2000
   -5.2810   17.1480  -34.6260 C   0  0  0  0  0  0  0  0  0  0  0  0
   -5.4870   18.6590  -34.5920 C   0  0  0  0  0  0  0  0  0  0  0  0
   -6.4100   19.0420  -33.4960 N   0  0  0  0  0  0  0  0  0  0  0  0
   -6.9790   17.8880  -32.7630 C   0  0  0  0  0  0  0  0  0  0  0  0
   -6.4710   17.7820  -31.3230 C   0  0  0  0  0  0  0  0  0  0  0  0
   -6.0610   20.2120  -32.6310 C   0  0  1  0  0  0  0  0  0  0  0  0
   -4.8060   21.0150  -33.0880 C   0  0  0  0  0  0  0  0  0  0  0  0
   -3.8630   21.2950  -32.0020 N   0  0  0  0  0  0  0  0  0  0  0  0
   -3.9630   22.4910  -31.2170 C   0  0  0  0  0  0  0  0  0  0  0  0
   -4.6390   23.4650  -31.6480 O   0  0  0  0  0  0  0  0  0  0  0  0
   -3.2750   22.5970  -29.9110 C   0  0  0  0  0  0  0  0  0  0  0  0
   -3.3770   21.5590  -28.9690 C   0  0  0  0  0  0  0  0  0  0  0  0
   -2.7270   21.6580  -27.7350 C   0  0  0  0  0  0  0  0  0  0  0  0
   -1.9630   22.7870  -27.4310 C   0  0  0  0  0  0  0  0  0  0  0  0
   -1.8400   23.8220  -28.3670 C   0  0  0  0  0  0  0  0  0  0  0  0
   -0.8700   25.2500  -28.0130 S   0  0  0  0  0  0  0  0  0  0  0  0
   -1.1720   25.7750  -26.3410 C   0  0  0  0  0  0  0  0  0  0  0  0
   -1.2410   26.3520  -28.9660 O   0  0  0  0  0  0  0  0  0  0  0  0
    0.5920   24.9410  -28.1710 O   0  0  0  0  0  0  0  0  0  0  0  0
   -2.4920   23.7230  -29.6020 C   0  0  0  0  0  0  0  0  0  0  0  0
   -7.2800   21.0710  -32.3840 C   0  0  0  0  0  0  0  0  0  0  0  0
   -7.3110   22.4630  -32.3210 C   0  0  0  0  0  0  0  0  0  0  0  0
   -8.5480   22.9780  -31.9150 C   0  0  0  0  0  0  0  0  0  0  0  0
   -9.4880   22.0030  -31.6170 C   0  0  0  0  0  0  0  0  0  0  0  0
   -8.7750   20.5010  -31.8540 S   0  0  0  0  0  0  0  0  0  0  0  0
   -5.2284   16.7619  -33.5973 H   0  0  0  0  0  0  0  0  0  0  0  0
   -6.1230   16.6749  -35.1526 H   0  0  0  0  0  0  0  0  0  0  0  0
   -4.3431   16.9176  -35.1526 H   0  0  0  0  0  0  0  0  0  0  0  0
   -4.5162   19.1515  -34.4341 H   0  0  0  0  0  0  0  0  0  0  0  0
   -5.9269   18.9757  -35.5492 H   0  0  0  0  0  0  0  0  0  0  0  0
   -8.0738   17.9924  -32.7413 H   0  0  0  0  0  0  0  0  0  0  0  0
   -6.6627   16.9760  -33.2905 H   0  0  0  0  0  0  0  0  0  0  0  0
   -7.3044   17.9559  -30.6264 H   0  0  0  0  0  0  0  0  0  0  0  0
   -6.0552   16.7778  -31.1539 H   0  0  0  0  0  0  0  0  0  0  0  0
   -5.6883   18.5362  -31.1539 H   0  0  0  0  0  0  0  0  0  0  0  0
   -5.7405   19.7995  -31.6629 H   0  0  0  0  0  0  0  0  0  0  0  0
   -4.2833   20.4332  -33.8615 H   0  0  0  0  0  0  0  0  0  0  0  0
   -5.1625   21.9851  -33.4647 H   0  0  0  0  0  0  0  0  0  0  0  0
   -3.0980   20.6220  -31.7830 H   0  0  0  0  0  0  0  0  0  0  0  0
   -3.9715   20.6638  -29.2038 H   0  0  0  0  0  0  0  0  0  0  0  0
   -2.8177   20.8438  -27.0010 H   0  0  0  0  0  0  0  0  0  0  0  0
   -1.4580   22.8635  -26.4568 H   0  0  0  0  0  0  0  0  0  0  0  0
   -0.7481   25.0380  -25.6430 H   0  0  0  0  0  0  0  0  0  0  0  0
   -0.6988   26.7537  -26.1729 H   0  0  0  0  0  0  0  0  0  0  0  0
   -2.2559   25.8580  -26.1729 H   0  0  0  0  0  0  0  0  0  0  0  0
   -2.3906   24.5343  -30.3379 H   0  0  0  0  0  0  0  0  0  0  0  0
   -6.4460   23.0966  -32.5668 H   0  0  0  0  0  0  0  0  0  0  0  0
   -8.7550   24.0557  -31.8394 H   0  0  0  0  0  0  0  0  0  0  0  0
  -10.5208   22.1822  -31.2835 H   0  0  0  0  0  0  0  0  0  0  0  0
  1  2  1  0
  2  3  1  0
  3  4  1  0
  4  5  1  0
  3  6  1  0
  6  7  1  0
  7  8  1  0
  8  9  1  0
  9 10  2  0
  9 11  1  0
 11 12  2  0
 12 13  1  0
 13 14  2  0
 14 15  1  0
 15 16  1  0
 16 17  1  0
 16 18  2  0
 16 19  2  0
 15 20  2  0
  6 21  1  0
 21 22  2  0
 22 23  1  0
 23 24  2  0
 24 25  1  0
 20 11  1  0
 25 21  1  0
  1 26  1  0
  1 27  1  0
  1 28  1  0
  2 29  1  0
  2 30  1  0
  4 31  1  0
  4 32  1  0
  5 33  1  0
  5 34  1  0
  5 35  1  0
  6 36  1  1
  7 37  1  0
  7 38  1  0
  8 39  1  0
 12 40  1  0
 13 41  1  0
 14 42  1  0
 17 43  1  0
 17 44  1  0
 17 45  1  0
 20 46  1  0
 22 47  1  0
 23 48  1  0
 24 49  1  0
M  END
>  <UniqueID>  (9) 
8

>  <SMILES>  (9) 
CCN(CC)[C@@H](CNC(=O)c1cccc(S(C)(=O)=O)c1)c1cccs1

>  <Energy>  (9) 
80.62643105395229

>  <Genealogy>  (9) 
CCN(CC)[C@@H](CNC(=O)c1cccc(S(C)(=O)=O)c1)c1cccs1 (chirality)
CCN(CC)[C@@H](CNC(=O)c1cccc(S(C)(=O)=O)c1)c1cccs1 (3D coordinates assigned)
CCN(CC)[C@@H](CNC(=O)c1cccc(S(C)(=O)=O)c1)c1cccs1 (optimized conformer: 80.62643105395229 kcal/mol)

>  <smiles>  (9) 
CCN(CC)C(CNC(=O)c1cccc(S(C)(=O)=O)c1)c1cccs1

>  <score_type>  (9) 
oracle

>  <origin>  (9) 
adg

>  <m_score__min__energy>  (9) 
-8.7400000000000002

>  <m_primary>  (9) 
energy

$$$$
9:0
     RDKit          3D

 45 49  0  0  1  0  0  0  0  0999 V2000
   -8.9920   18.5870  -32.0340 C   0  0  0  0  0  0  0  0  0  0  0  0
   -8.6110   20.0190  -31.9880 C   0  0  0  0  0  0  0  0  0  0  0  0
   -9.4960   20.9880  -31.6280 C   0  0  0  0  0  0  0  0  0  0  0  0
   -9.0260   22.2940  -31.6210 C   0  0  0  0  0  0  0  0  0  0  0  0
   -7.7550   22.6370  -31.9510 C   0  0  0  0  0  0  0  0  0  0  0  0
   -6.8080   21.6510  -32.3300 C   0  0  0  0  0  0  0  0  0  0  0  0
   -5.5400   21.8320  -32.6750 C   0  0  0  0  0  0  0  0  0  0  0  0
   -4.7520   20.7490  -33.0190 C   0  0  0  0  0  0  0  0  0  0  0  0
   -3.3730   20.6300  -33.4710 C   0  0  0  0  0  0  0  0  0  0  0  0
   -2.4760   21.2110  -32.6330 O   0  0  0  0  0  0  0  0  0  0  0  0
   -1.6800   20.8620  -31.6240 C   0  0  0  0  0  0  0  0  0  0  0  0
   -1.0020   19.6900  -31.4190 C   0  0  0  0  0  0  0  0  0  0  0  0
   -0.2010   19.4080  -30.3530 C   0  0  0  0  0  0  0  0  0  0  0  0
    0.4490   18.2060  -30.2150 F   0  0  0  0  0  0  0  0  0  0  0  0
   -0.0390   20.3610  -29.3820 C   0  0  0  0  0  0  0  0  0  0  0  0
   -0.6770   21.5490  -29.5120 C   0  0  0  0  0  0  0  0  0  0  0  0
   -1.5000   21.8420  -30.6060 C   0  0  0  0  0  0  0  0  0  0  0  0
   -2.0670   23.0650  -30.7120 N   0  0  0  0  0  0  0  0  0  0  0  0
   -3.0230   23.5400  -30.0830 C   0  0  0  0  0  0  0  0  0  0  0  0
   -4.1940   23.6570  -30.7850 N   0  0  0  0  0  0  0  0  0  0  0  0
   -5.3270   24.1400  -30.2930 C   0  0  0  0  0  0  0  0  0  0  0  0
   -5.3270   24.5430  -29.0170 N   0  0  0  0  0  0  0  0  0  0  0  0
   -4.2030   24.4400  -28.3130 C   0  0  0  0  0  0  0  0  0  0  0  0
   -3.9560   24.9270  -26.5420 S   0  0  0  0  0  0  0  0  0  0  0  0
   -2.2100   24.4170  -26.5600 C   0  0  0  0  0  0  0  0  0  0  0  0
   -1.9780   23.9310  -27.8860 C   0  0  0  0  0  0  0  0  0  0  0  0
   -2.9850   23.9560  -28.7300 C   0  0  0  0  0  0  0  0  0  0  0  0
   -5.9260   19.2970  -32.8380 S   0  0  0  0  0  0  0  0  0  0  0  0
   -7.3370   20.3720  -32.3160 C   0  0  0  0  0  0  0  0  0  0  0  0
   -9.0945   18.2017  -31.0088 H   0  0  0  0  0  0  0  0  0  0  0  0
   -9.9500   18.4793  -32.5637 H   0  0  0  0  0  0  0  0  0  0  0  0
   -8.2141   18.0174  -32.5637 H   0  0  0  0  0  0  0  0  0  0  0  0
  -10.5343   20.7478  -31.3555 H   0  0  0  0  0  0  0  0  0  0  0  0
   -9.7221   23.0952  -31.3320 H   0  0  0  0  0  0  0  0  0  0  0  0
   -7.4548   23.6949  -31.9242 H   0  0  0  0  0  0  0  0  0  0  0  0
   -5.1143   22.8462  -32.6875 H   0  0  0  0  0  0  0  0  0  0  0  0
   -3.1263   19.5616  -33.5585 H   0  0  0  0  0  0  0  0  0  0  0  0
   -3.3021   21.1550  -34.4350 H   0  0  0  0  0  0  0  0  0  0  0  0
   -1.1138   18.9063  -32.1828 H   0  0  0  0  0  0  0  0  0  0  0  0
    0.6004   20.1642  -28.5088 H   0  0  0  0  0  0  0  0  0  0  0  0
   -0.5436   22.3108  -28.7298 H   0  0  0  0  0  0  0  0  0  0  0  0
   -6.2341   24.2069  -30.9116 H   0  0  0  0  0  0  0  0  0  0  0  0
   -6.1900   24.9310  -28.5780 H   0  0  0  0  0  0  0  0  0  0  0  0
   -1.4887   24.4705  -25.7312 H   0  0  0  0  0  0  0  0  0  0  0  0
   -0.9913   23.5499  -28.1881 H   0  0  0  0  0  0  0  0  0  0  0  0
  1  2  1  0
  2  3  2  0
  3  4  1  0
  4  5  2  0
  5  6  1  0
  6  7  1  0
  7  8  2  0
  8  9  1  0
  9 10  1  0
 10 11  1  0
 11 12  2  0
 12 13  1  0
 13 14  1  0
 13 15  2  0
 15 16  1  0
 16 17  2  0
 17 18  1  0
 18 19  2  0
 19 20  1  0
 20 21  2  0
 21 22  1  0
 22 23  1  0
 23 24  1  0
 24 25  1  0
 25 26  2  0
 26 27  1  0
  8 28  1  0
 28 29  1  0
 29  2  1  0
 29  6  2  0
 17 11  1  0
 27 19  1  0
 27 23  2  0
  1 30  1  0
  1 31  1  0
  1 32  1  0
  3 33  1  0
  4 34  1  0
  5 35  1  0
  7 36  1  0
  9 37  1  0
  9 38  1  0
 12 39  1  0
 15 40  1  0
 16 41  1  0
 21 42  1  0
 22 43  1  0
 25 44  1  0
 26 45  1  0
M  END
>  <smiles>  (10) 
Cc1cccc2cc(COc3cc(F)ccc3N=c3nc[nH]c4sccc34)sc12

>  <score_type>  (10) 
oracle

>  <origin>  (10) 
adg

>  <m_score__min__energy>  (10) 
-9.4900000000000002

>  <m_primary>  (10) 
energy

$$$$
10:0
     RDKit          3D

 30 31  0  0  0  0  0  0  0  0999 V2000
   -4.4880   21.4400  -33.0240 C   0  0  0  0  0  0  0  0  0  0  0  0
   -5.7640   21.6870  -32.2680 C   0  0  0  0  0  0  0  0  0  0  0  0
   -5.7470   22.4380  -31.0840 C   0  0  0  0  0  0  0  0  0  0  0  0
   -6.8920   22.6340  -30.3780 N   0  0  0  0  0  0  0  0  0  0  0  0
   -8.0770   22.1040  -30.7790 C   0  0  0  0  0  0  0  0  0  0  0  0
   -8.1510   21.3290  -31.9450 C   0  0  0  0  0  0  0  0  0  0  0  0
   -9.4660   20.6890  -32.3250 C   0  0  0  0  0  0  0  0  0  0  0  0
   -9.2890   19.2590  -32.6240 N   0  0  0  0  0  0  0  0  0  0  0  0
   -8.5490   18.5460  -31.5690 C   0  0  0  0  0  0  0  0  0  0  0  0
   -7.3360   17.8610  -32.1310 C   0  0  0  0  0  0  0  0  0  0  0  0
   -7.2480   17.4160  -33.4590 C   0  0  0  0  0  0  0  0  0  0  0  0
   -6.0290   16.8300  -33.7690 C   0  0  0  0  0  0  0  0  0  0  0  0
   -5.0730   16.8530  -32.3870 S   0  0  0  0  0  0  0  0  0  0  0  0
   -6.1910   17.6030  -31.3820 C   0  0  0  0  0  0  0  0  0  0  0  0
   -6.9780   21.1240  -32.6970 C   0  0  0  0  0  0  0  0  0  0  0  0
   -7.0100   20.4270  -33.7490 O   0  0  0  0  0  0  0  0  0  0  0  0
   -3.6649   21.2807  -32.3119 H   0  0  0  0  0  0  0  0  0  0  0  0
   -4.6035   20.5475  -33.6566 H   0  0  0  0  0  0  0  0  0  0  0  0
   -4.2621   22.3111  -33.6566 H   0  0  0  0  0  0  0  0  0  0  0  0
   -4.8019   22.8710  -30.7245 H   0  0  0  0  0  0  0  0  0  0  0  0
   -6.8580   23.1990  -29.4990 H   0  0  0  0  0  0  0  0  0  0  0  0
   -8.9848   22.2842  -30.1846 H   0  0  0  0  0  0  0  0  0  0  0  0
  -10.1735   20.7971  -31.4896 H   0  0  0  0  0  0  0  0  0  0  0  0
   -9.8529   21.1901  -33.2246 H   0  0  0  0  0  0  0  0  0  0  0  0
   -8.7180   19.1960  -33.4990 H   0  0  0  0  0  0  0  0  0  0  0  0
   -8.2315   19.2676  -30.8019 H   0  0  0  0  0  0  0  0  0  0  0  0
   -9.2104   17.7839  -31.1311 H   0  0  0  0  0  0  0  0  0  0  0  0
   -8.0675   17.5217  -34.1852 H   0  0  0  0  0  0  0  0  0  0  0  0
   -5.7390   16.4217  -34.7484 H   0  0  0  0  0  0  0  0  0  0  0  0
   -6.0443   17.8472  -30.3195 H   0  0  0  0  0  0  0  0  0  0  0  0
  1  2  1  0
  2  3  2  0
  3  4  1  0
  4  5  1  0
  5  6  2  0
  6  7  1  0
  7  8  1  0
  8  9  1  0
  9 10  1  0
 10 11  1  0
 11 12  2  0
 12 13  1  0
 13 14  1  0
  6 15  1  0
 15 16  2  0
 15  2  1  0
 14 10  2  0
  1 17  1  0
  1 18  1  0
  1 19  1  0
  3 20  1  0
  4 21  1  0
  5 22  1  0
  7 23  1  0
  7 24  1  0
  8 25  1  0
  9 26  1  0
  9 27  1  0
 11 28  1  0
 12 29  1  0
 14 30  1  0
M  END
>  <UniqueID>  (11) 
9

>  <SMILES>  (11) 
Cc1c[nH]cc(CNCc2ccsc2)c1=O

>  <Energy>  (11) 
53.433044740925524

>  <Genealogy>  (11) 
Cc1c[nH]cc(CNCc2ccsc2)c1=O (3D coordinates assigned)
Cc1c[nH]cc(CNCc2ccsc2)c1=O (optimized conformer: 53.433044740925524 kcal/mol)

>  <smiles>  (11) 
Cc1c[nH]cc(CNCc2ccsc2)c1=O

>  <score_type>  (11) 
oracle

>  <origin>  (11) 
adg

>  <m_score__min__energy>  (11) 
-6.2800000000000002

>  <m_primary>  (11) 
energy

$$$$
11:0
     RDKit          3D

 44 47  0  0  0  0  0  0  0  0999 V2000
   -6.7636   24.5469  -32.7163 H   0  0  0  0  0  0  0  0  0  0  0  0
   -6.5440   23.6690  -32.0910 C   0  0  0  0  0  0  0  0  0  0  0  0
   -5.4270   23.7030  -31.3510 C   0  0  0  0  0  0  0  0  0  0  0  0
   -5.0310   25.1070  -30.3190 S   0  0  0  0  0  0  0  0  0  0  0  0
   -4.0290   23.9700  -29.3600 C   0  0  0  0  0  0  0  0  0  0  0  0
   -3.8980   24.1500  -28.0770 N   0  0  0  0  0  0  0  0  0  0  0  0
   -2.8080   24.7990  -27.4120 C   0  0  0  0  0  0  0  0  0  0  0  0
   -2.9540   25.3010  -26.1090 C   0  0  0  0  0  0  0  0  0  0  0  0
   -3.9059   25.1694  -25.5737 H   0  0  0  0  0  0  0  0  0  0  0  0
   -1.8920   25.9680  -25.4900 C   0  0  0  0  0  0  0  0  0  0  0  0
   -2.0025   26.3431  -24.4618 H   0  0  0  0  0  0  0  0  0  0  0  0
   -0.6900   26.1580  -26.1780 C   0  0  0  0  0  0  0  0  0  0  0  0
    0.1483   26.6746  -25.6878 H   0  0  0  0  0  0  0  0  0  0  0  0
   -0.5530   25.6920  -27.4880 C   0  0  0  0  0  0  0  0  0  0  0  0
    0.3902   25.8498  -28.0315 H   0  0  0  0  0  0  0  0  0  0  0  0
   -1.6140   25.0250  -28.1090 C   0  0  0  0  0  0  0  0  0  0  0  0
   -1.5106   24.6770  -29.1474 H   0  0  0  0  0  0  0  0  0  0  0  0
   -3.5930   22.7900  -30.0560 N   0  0  0  0  0  0  0  0  0  0  0  0
   -2.1820   22.3690  -30.0370 C   0  0  0  0  0  0  0  0  0  0  0  0
   -1.9556   21.8506  -30.9804 H   0  0  0  0  0  0  0  0  0  0  0  0
   -1.5651   23.2714  -29.9139 H   0  0  0  0  0  0  0  0  0  0  0  0
   -1.8720   21.4400  -28.8870 C   0  0  0  0  0  0  0  0  0  0  0  0
   -0.5430   21.1810  -28.5170 C   0  0  0  0  0  0  0  0  0  0  0  0
    0.2817   21.6599  -29.0653 H   0  0  0  0  0  0  0  0  0  0  0  0
   -0.2710   20.3400  -27.4830 N   0  0  0  0  0  0  0  0  0  0  0  0
   -1.2600   19.7310  -26.7780 C   0  0  0  0  0  0  0  0  0  0  0  0
   -1.0073   19.0564  -25.9467 H   0  0  0  0  0  0  0  0  0  0  0  0
   -2.5960   19.9610  -27.1080 C   0  0  0  0  0  0  0  0  0  0  0  0
   -3.4004   19.4697  -26.5410 H   0  0  0  0  0  0  0  0  0  0  0  0
   -2.9020   20.8200  -28.1640 C   0  0  0  0  0  0  0  0  0  0  0  0
   -3.9521   21.0113  -28.4299 H   0  0  0  0  0  0  0  0  0  0  0  0
   -4.4170   22.6530  -31.2160 C   0  0  0  0  0  0  0  0  0  0  0  0
   -4.2130   21.7730  -32.0940 O   0  0  0  0  0  0  0  0  0  0  0  0
   -7.5020   22.5490  -32.1340 C   0  0  0  0  0  0  0  0  0  0  0  0
   -7.1500   20.9390  -32.4970 S   0  0  0  0  0  0  0  0  0  0  0  0
   -8.6770   20.3410  -32.1320 C   0  0  0  0  0  0  0  0  0  0  0  0
   -9.1130   18.9260  -32.3150 C   0  0  0  0  0  0  0  0  0  0  0  0
   -9.2576   18.4567  -31.3307 H   0  0  0  0  0  0  0  0  0  0  0  0
  -10.0597   18.9035  -32.8746 H   0  0  0  0  0  0  0  0  0  0  0  0
   -8.3431   18.3745  -32.8746 H   0  0  0  0  0  0  0  0  0  0  0  0
   -9.4840   21.3910  -31.7140 C   0  0  0  0  0  0  0  0  0  0  0  0
  -10.5397   21.2680  -31.4305 H   0  0  0  0  0  0  0  0  0  0  0  0
   -8.8170   22.6230  -31.6900 C   0  0  0  0  0  0  0  0  0  0  0  0
   -9.2883   23.5579  -31.3526 H   0  0  0  0  0  0  0  0  0  0  0  0
  1  2  1  0
  2  3  2  0
  3  4  1  0
  4  5  1  0
  5  6  2  0
  6  7  1  0
  7  8  2  0
  8  9  1  0
  8 10  1  0
 10 11  1  0
 10 12  2  0
 12 13  1  0
 12 14  1  0
 14 15  1  0
 14 16  2  0
 16 17  1  0
  5 18  1  0
 18 19  1  0
 19 20  1  0
 19 21  1  0
 19 22  1  0
 22 23  2  0
 23 24  1  0
 23 25  1  0
 25 26  2  0
 26 27  1  0
 26 28  1  0
 28 29  1  0
 28 30  2  0
 30 31  1  0
 18 32  1  0
 32 33  2  0
  2 34  1  0
 34 35  1  0
 35 36  1  0
 36 37  1  0
 37 38  1  0
 37 39  1  0
 37 40  1  0
 36 41  2  0
 41 42  1  0
 41 43  1  0
 43 44  1  0
 32  3  1  0
 43 34  2  0
 16  7  1  0
 30 22  1  0
M  END
>  <UniqueID>  (12) 
10

>  <SMILES>  (12) 
Cc1ccc(/C=C2/S/C(=N/c3ccccc3)N(Cc3cccnc3)C2=O)s1

>  <Energy>  (12) 
110.8486444039895

>  <Genealogy>  (12) 
Cc1ccc(/C=C2/S/C(=N/c3ccccc3)N(Cc3cccnc3)C2=O)s1 (cis-trans isomerization)
Cc1ccc(/C=C2/S/C(=N/c3ccccc3)N(Cc3cccnc3)C2=O)s1 (3D coordinates assigned)
Cc1ccc(/C=C2/S/C(=N/c3ccccc3)N(Cc3cccnc3)C2=O)s1 (nonaromatic ring conformer: 110.8486444039895 kcal/mol)

>  <smiles>  (12) 
Cc1ccc(C=C2SC(=Nc3ccccc3)N(Cc3cccnc3)C2=O)s1

>  <score_type>  (12) 
oracle

>  <origin>  (12) 
adg

>  <m_score__min__energy>  (12) 
-9.1799999999999997

>  <m_primary>  (12) 
energy

$$$$
12:0
     RDKit          3D

 36 37  0  0  0  0  0  0  0  0999 V2000
   -2.6230   20.8110  -33.4630 C   0  0  0  0  0  0  0  0  0  0  0  0
   -3.8560   21.4160  -33.0840 O   0  0  0  0  0  0  0  0  0  0  0  0
   -5.0780   20.7330  -32.9660 C   0  0  0  0  0  0  0  0  0  0  0  0
   -5.3210   19.5300  -33.6550 C   0  0  0  0  0  0  0  0  0  0  0  0
   -6.5330   18.8600  -33.5010 C   0  0  0  0  0  0  0  0  0  0  0  0
   -7.5200   19.3770  -32.6660 C   0  0  0  0  0  0  0  0  0  0  0  0
   -7.3080   20.5830  -31.9730 C   0  0  0  0  0  0  0  0  0  0  0  0
   -8.2960   21.1390  -31.1420 O   0  0  0  0  0  0  0  0  0  0  0  0
   -9.4510   21.8310  -31.6070 C   0  0  0  0  0  0  0  0  0  0  0  0
   -6.0790   21.2620  -32.1230 C   0  0  0  0  0  0  0  0  0  0  0  0
   -5.8400   22.5310  -31.3940 C   0  0  0  0  0  0  0  0  0  0  0  0
   -6.3450   23.7420  -31.8940 C   0  0  0  0  0  0  0  0  0  0  0  0
   -6.1130   24.9380  -31.2110 C   0  0  0  0  0  0  0  0  0  0  0  0
   -5.3780   24.9350  -30.0210 C   0  0  0  0  0  0  0  0  0  0  0  0
   -4.8800   23.7310  -29.5010 C   0  0  0  0  0  0  0  0  0  0  0  0
   -4.0570   23.7330  -28.2400 C   0  0  0  0  0  0  0  0  0  0  0  0
   -4.6100   24.6720  -27.2640 N   0  0  0  0  0  0  0  0  0  0  0  0
   -5.1030   22.5330  -30.1980 C   0  0  0  0  0  0  0  0  0  0  0  0
   -2.0580   20.5338  -32.5608 H   0  0  0  0  0  0  0  0  0  0  0  0
   -2.8252   19.9098  -34.0604 H   0  0  0  0  0  0  0  0  0  0  0  0
   -2.0339   21.5224  -34.0604 H   0  0  0  0  0  0  0  0  0  0  0  0
   -4.5486   19.1158  -34.3198 H   0  0  0  0  0  0  0  0  0  0  0  0
   -6.7108   17.9186  -34.0414 H   0  0  0  0  0  0  0  0  0  0  0  0
   -8.4720   18.8389  -32.5473 H   0  0  0  0  0  0  0  0  0  0  0  0
  -10.0387   22.1831  -30.7464 H   0  0  0  0  0  0  0  0  0  0  0  0
   -9.1415   22.6926  -32.2168 H   0  0  0  0  0  0  0  0  0  0  0  0
  -10.0647   21.1517  -32.2168 H   0  0  0  0  0  0  0  0  0  0  0  0
   -6.9261   23.7488  -32.8280 H   0  0  0  0  0  0  0  0  0  0  0  0
   -6.5089   25.8837  -31.6096 H   0  0  0  0  0  0  0  0  0  0  0  0
   -5.1897   25.8803  -29.4909 H   0  0  0  0  0  0  0  0  0  0  0  0
   -4.0560   22.7215  -27.8077 H   0  0  0  0  0  0  0  0  0  0  0  0
   -3.0310   24.0429  -28.4874 H   0  0  0  0  0  0  0  0  0  0  0  0
   -4.3190   24.3970  -26.2970 H   0  0  0  0  0  0  0  0  0  0  0  0
   -5.6530   24.6840  -27.3290 H   0  0  0  0  0  0  0  0  0  0  0  0
   -4.2450   25.6310  -27.4670 H   0  0  0  0  0  0  0  0  0  0  0  0
   -4.6977   21.5890  -29.8048 H   0  0  0  0  0  0  0  0  0  0  0  0
  1  2  1  0
  2  3  1  0
  3  4  2  0
  4  5  1  0
  5  6  2  0
  6  7  1  0
  7  8  1  0
  8  9  1  0
  7 10  2  0
 10 11  1  0
 11 12  2  0
 12 13  1  0
 13 14  2  0
 14 15  1  0
 15 16  1  0
 16 17  1  0
 15 18  2  0
 10  3  1  0
 18 11  1  0
  1 19  1  0
  1 20  1  0
  1 21  1  0
  4 22  1  0
  5 23  1  0
  6 24  1  0
  9 25  1  0
  9 26  1  0
  9 27  1  0
 12 28  1  0
 13 29  1  0
 14 30  1  0
 16 31  1  0
 16 32  1  0
 17 33  1  0
 17 34  1  0
 17 35  1  0
 18 36  1  0
M  CHG  1  17   1
M  END
>  <UniqueID>  (13) 
11

>  <SMILES>  (13) 
COc1cccc(OC)c1-c1cccc(C[NH3+])c1

>  <Energy>  (13) 
40.429324658571254

>  <Genealogy>  (13) 
COc1cccc(OC)c1-c1cccc(C[NH3+])c1 (protonated)
COc1cccc(OC)c1-c1cccc(C[NH3+])c1 (3D coordinates assigned)
COc1cccc(OC)c1-c1cccc(C[NH3+])c1 (optimized conformer: 40.429324658571254 kcal/mol)

>  <smiles>  (13) 
COc1cccc(OC)c1-c1cccc(CN)c1

>  <score_type>  (13) 
oracle

>  <origin>  (13) 
adg

>  <m_score__min__energy>  (13) 
-5.8399999999999999

>  <m_primary>  (13) 
energy

$$$$
13:0
     RDKit          3D

 34 35  0  0  0  0  0  0  0  0999 V2000
   -3.8210   26.0090  -31.6770 H   0  0  0  0  0  0  0  0  0  0  0  0
   -4.3610   25.6780  -30.8450 N   0  0  0  0  0  0  0  0  0  0  0  0
   -3.8650   24.8200  -30.0130 C   0  0  0  0  0  0  0  0  0  0  0  0
   -2.5410   24.8690  -29.6980 N   0  0  0  0  0  0  0  0  0  0  0  0
   -1.9850   23.9790  -28.8370 C   0  0  0  0  0  0  0  0  0  0  0  0
   -0.6220   24.0450  -28.5240 C   0  0  0  0  0  0  0  0  0  0  0  0
    0.0105   24.8248  -28.9734 H   0  0  0  0  0  0  0  0  0  0  0  0
   -0.0670   23.1150  -27.6370 C   0  0  0  0  0  0  0  0  0  0  0  0
    1.0038   23.1649  -27.3902 H   0  0  0  0  0  0  0  0  0  0  0  0
   -0.8690   22.1220  -27.0630 C   0  0  0  0  0  0  0  0  0  0  0  0
   -0.4268   21.3934  -26.3676 H   0  0  0  0  0  0  0  0  0  0  0  0
   -2.2330   22.0540  -27.3720 C   0  0  0  0  0  0  0  0  0  0  0  0
   -2.8627   21.2741  -26.9190 H   0  0  0  0  0  0  0  0  0  0  0  0
   -2.7930   22.9800  -28.2580 C   0  0  0  0  0  0  0  0  0  0  0  0
   -4.1130   22.9300  -28.5710 N   0  0  0  0  0  0  0  0  0  0  0  0
   -4.6790   23.8270  -29.4260 C   0  0  0  0  0  0  0  0  0  0  0  0
   -6.1420   23.6930  -29.7550 C   0  0  0  0  0  0  0  0  0  0  0  0
   -6.5466   22.8041  -29.2489 H   0  0  0  0  0  0  0  0  0  0  0  0
   -6.6672   24.5970  -29.4129 H   0  0  0  0  0  0  0  0  0  0  0  0
   -6.3420   23.5470  -31.2650 C   0  0  0  0  0  0  0  0  0  0  0  0
   -6.5622   24.5334  -31.6991 H   0  0  0  0  0  0  0  0  0  0  0  0
   -5.4236   23.1365  -31.7100 H   0  0  0  0  0  0  0  0  0  0  0  0
   -7.4560   22.6360  -31.5440 C   0  0  0  0  0  0  0  0  0  0  0  0
   -8.3700   21.8830  -31.7710 C   0  0  0  0  0  0  0  0  0  0  0  0
   -9.4860   20.9720  -32.0540 C   0  0  0  0  0  0  0  0  0  0  0  0
  -10.0054   20.7390  -31.1128 H   0  0  0  0  0  0  0  0  0  0  0  0
  -10.1662   21.4671  -32.7627 H   0  0  0  0  0  0  0  0  0  0  0  0
   -8.9940   19.6660  -32.6890 C   0  0  0  0  0  0  0  0  0  0  0  0
   -9.7640   19.2982  -33.3831 H   0  0  0  0  0  0  0  0  0  0  0  0
   -8.0507   19.8811  -33.2123 H   0  0  0  0  0  0  0  0  0  0  0  0
   -8.7140   18.5830  -31.6470 C   0  0  0  0  0  0  0  0  0  0  0  0
   -8.8238   19.0076  -30.6382 H   0  0  0  0  0  0  0  0  0  0  0  0
   -9.4279   17.7562  -31.7765 H   0  0  0  0  0  0  0  0  0  0  0  0
   -7.6888   18.2059  -31.7765 H   0  0  0  0  0  0  0  0  0  0  0  0
  1  2  1  0
  2  3  2  0
  3  4  1  0
  4  5  1  0
  5  6  2  0
  6  7  1  0
  6  8  1  0
  8  9  1  0
  8 10  2  0
 10 11  1  0
 10 12  1  0
 12 13  1  0
 12 14  2  0
 14 15  1  0
 15 16  2  0
 16 17  1  0
 17 18  1  0
 17 19  1  0
 17 20  1  0
 20 21  1  0
 20 22  1  0
 20 23  1  0
 23 24  3  0
 24 25  1  0
 25 26  1  0
 25 27  1  0
 25 28  1  0
 28 29  1  0
 28 30  1  0
 28 31  1  0
 31 32  1  0
 31 33  1  0
 31 34  1  0
 16  3  1  0
 14  5  1  0
M  CHG  1   4  -1
M  END
>  <UniqueID>  (14) 
12

>  <SMILES>  (14) 
[H]/N=c1\[n-]c2ccccc2nc1CCC#CCCC

>  <Energy>  (14) 
25.803845672317685

>  <Genealogy>  (14) 
CCCC#CCCc1nc2ccccc2[n-]c1=N (protonated)
[H]/N=c1\[n-]c2ccccc2nc1CCC#CCCC (cis-trans isomerization)
[H]/N=c1\[n-]c2ccccc2nc1CCC#CCCC (3D coordinates assigned)
[H]/N=c1\[n-]c2ccccc2nc1CCC#CCCC (optimized conformer: 25.803845672317685 kcal/mol)

>  <smiles>  (14) 
CCCC#CCCc1nc2ccccc2[nH]c1=N

>  <score_type>  (14) 
oracle

>  <origin>  (14) 
adg

>  <m_score__min__energy>  (14) 
-8.5099999999999998

>  <m_primary>  (14) 
energy

$$$$
14:0
     RDKit          3D

 39 42  0  0  0  0  0  0  0  0999 V2000
   -1.6120   25.6220  -30.0860 H   0  0  0  0  0  0  0  0  0  0  0  0
   -2.0090   25.2930  -29.1780 N   0  0  0  0  0  0  0  0  0  0  0  0
   -2.6830   24.0390  -29.0840 C   0  0  0  0  0  0  0  0  0  0  0  0
   -2.5690   23.3520  -28.0360 O   0  0  0  0  0  0  0  0  0  0  0  0
   -3.5020   23.5590  -30.2100 C   0  0  0  0  0  0  0  0  0  0  0  0
   -4.7360   24.0760  -30.6080 C   0  0  0  0  0  0  0  0  0  0  0  0
   -5.2472   24.9232  -30.1274 H   0  0  0  0  0  0  0  0  0  0  0  0
   -5.2140   23.3850  -31.6710 N   0  0  0  0  0  0  0  0  0  0  0  0
   -6.5140   23.5700  -32.3140 C   0  0  0  0  0  0  0  0  0  0  0  0
   -6.9734   24.4968  -31.9398 H   0  0  0  0  0  0  0  0  0  0  0  0
   -6.3650   23.6304  -33.4022 H   0  0  0  0  0  0  0  0  0  0  0  0
   -7.4220   22.4150  -32.0150 C   0  0  0  0  0  0  0  0  0  0  0  0
   -7.3050   20.8950  -32.7260 S   0  0  0  0  0  0  0  0  0  0  0  0
   -8.5340   20.1940  -31.8200 C   0  0  0  0  0  0  0  0  0  0  0  0
   -9.0660   18.5320  -31.9630 Cl  0  0  0  0  0  0  0  0  0  0  0  0
   -9.0440   21.1330  -30.9370 C   0  0  0  0  0  0  0  0  0  0  0  0
   -9.8592   20.9211  -30.2295 H   0  0  0  0  0  0  0  0  0  0  0  0
   -8.4140   22.3790  -31.0390 C   0  0  0  0  0  0  0  0  0  0  0  0
   -8.6765   23.2430  -30.4109 H   0  0  0  0  0  0  0  0  0  0  0  0
   -4.2980   22.4360  -31.9360 C   0  0  0  0  0  0  0  0  0  0  0  0
   -4.3710   21.4960  -32.9100 N   0  0  0  0  0  0  0  0  0  0  0  0
   -3.3540   20.5860  -33.0220 C   0  0  0  0  0  0  0  0  0  0  0  0
   -3.3660   19.6820  -33.9550 N   0  0  0  0  0  0  0  0  0  0  0  0
   -4.3060   18.6030  -34.0580 C   0  0  0  0  0  0  0  0  0  0  0  0
   -5.6380   18.7580  -34.3840 C   0  0  0  0  0  0  0  0  0  0  0  0
   -6.1870   19.6965  -34.5511 H   0  0  0  0  0  0  0  0  0  0  0  0
   -6.1260   17.4660  -34.4530 C   0  0  0  0  0  0  0  0  0  0  0  0
   -7.1673   17.1887  -34.6738 H   0  0  0  0  0  0  0  0  0  0  0  0
   -5.1240   16.6020  -34.2070 N   0  0  0  0  0  0  0  0  0  0  0  0
   -5.1940   15.5590  -34.2140 H   0  0  0  0  0  0  0  0  0  0  0  0
   -4.0120   17.2850  -33.9870 N   0  0  0  0  0  0  0  0  0  0  0  0
   -2.7130   16.6590  -33.7570 C   0  0  0  0  0  0  0  0  0  0  0  0
   -2.5340   16.5727  -32.6751 H   0  0  0  0  0  0  0  0  0  0  0  0
   -2.7031   15.6573  -34.2113 H   0  0  0  0  0  0  0  0  0  0  0  0
   -1.9233   17.2754  -34.2113 H   0  0  0  0  0  0  0  0  0  0  0  0
   -2.2850   20.6480  -32.1660 N   0  0  0  0  0  0  0  0  0  0  0  0
   -2.2040   21.5910  -31.1840 C   0  0  0  0  0  0  0  0  0  0  0  0
   -1.3427   21.6261  -30.5006 H   0  0  0  0  0  0  0  0  0  0  0  0
   -3.2450   22.5070  -31.0740 C   0  0  0  0  0  0  0  0  0  0  0  0
  1  2  1  0
  2  3  1  0
  3  4  2  0
  3  5  1  0
  5  6  2  0
  6  7  1  0
  6  8  1  0
  8  9  1  0
  9 10  1  0
  9 11  1  0
  9 12  1  0
 12 13  1  0
 13 14  1  0
 14 15  1  0
 14 16  2  0
 16 17  1  0
 16 18  1  0
 18 19  1  0
  8 20  1  0
 20 21  2  0
 21 22  1  0
 22 23  2  0
 23 24  1  0
 24 25  2  0
 25 26  1  0
 25 27  1  0
 27 28  1  0
 27 29  2  0
 29 30  1  0
 29 31  1  0
 31 32  1  0
 32 33  1  0
 32 34  1  0
 32 35  1  0
 22 36  1  0
 36 37  1  0
 37 38  1  0
 37 39  2  0
 39  5  1  0
 18 12  2  0
 39 20  1  0
 31 24  1  0
M  CHG  3   2  -1  29   1  36  -1
M  END
>  <UniqueID>  (15) 
13

>  <SMILES>  (15) 
Cn1[nH+]ccc1/N=c1\nc2c(c[n-]1)c(C([NH-])=O)cn2Cc1ccc(Cl)s1

>  <Energy>  (15) 
140.5028916180424

>  <Genealogy>  (15) 
Cn1[nH+]ccc1N=c1nc2c(c[n-]1)c(C([NH-])=O)cn2Cc1ccc(Cl)s1 (protonated)
Cn1[nH+]ccc1/N=c1\nc2c(c[n-]1)c(C([NH-])=O)cn2Cc1ccc(Cl)s1 (cis-trans isomerization)
Cn1[nH+]ccc1/N=c1\nc2c(c[n-]1)c(C([NH-])=O)cn2Cc1ccc(Cl)s1 (3D coordinates assigned)
Cn1[nH+]ccc1/N=c1\nc2c(c[n-]1)c(C([NH-])=O)cn2Cc1ccc(Cl)s1 (optimized conformer: 140.5028916180424 kcal/mol)

>  <smiles>  (15) 
Cn1nccc1N=c1nc2c(c[nH]1)c(C(N)=O)cn2Cc1ccc(Cl)s1

>  <score_type>  (15) 
oracle

>  <origin>  (15) 
adg

>  <m_score__min__energy>  (15) 
-10.67

>  <m_primary>  (15) 
energy

$$$$
15:0
     RDKit          3D

 42 44  0  0  0  0  0  0  0  0999 V2000
   -2.6720   18.8460  -26.3990 C   0  0  0  0  0  0  0  0  0  0  0  0
   -1.5040   19.5170  -27.1100 C   0  0  0  0  0  0  0  0  0  0  0  0
   -1.6360   20.9710  -27.0460 N   0  0  0  0  0  0  0  0  0  0  0  0
   -0.7220   21.8730  -26.3540 C   0  0  0  0  0  0  0  0  0  0  0  0
   -1.2660   23.3010  -26.6150 C   0  0  0  0  0  0  0  0  0  0  0  0
   -2.3660   23.1390  -27.5620 N   0  0  0  0  0  0  0  0  0  0  0  0
   -3.2450   24.2110  -28.0280 C   0  0  0  0  0  0  0  0  0  0  0  0
   -2.7060   24.8320  -29.2880 C   0  0  0  0  0  0  0  0  0  0  0  0
   -1.5790   25.3940  -29.2580 O   0  0  0  0  0  0  0  0  0  0  0  0
   -3.4970   24.9400  -30.4790 N   0  0  0  0  0  0  0  0  0  0  0  0
   -4.7200   24.2450  -30.7590 C   0  0  0  0  0  0  0  0  0  0  0  0
   -5.9320   24.8260  -30.3830 C   0  0  0  0  0  0  0  0  0  0  0  0
   -7.1400   24.1820  -30.6580 C   0  0  0  0  0  0  0  0  0  0  0  0
   -7.1570   22.9490  -31.3300 C   0  0  0  0  0  0  0  0  0  0  0  0
   -8.4780   22.2650  -31.5530 C   0  0  0  0  0  0  0  0  0  0  0  0
   -5.9350   22.3910  -31.7830 C   0  0  0  0  0  0  0  0  0  0  0  0
   -5.8850   21.1670  -32.5350 N   0  0  0  0  0  0  0  0  0  0  0  0
   -5.0210   20.1450  -32.4150 C   0  0  0  0  0  0  0  0  0  0  0  0
   -5.3870   19.1440  -33.2360 N   0  0  0  0  0  0  0  0  0  0  0  0
   -6.4860   19.5720  -33.8440 N   0  0  0  0  0  0  0  0  0  0  0  0
   -6.7950   20.7870  -33.4150 N   0  0  0  0  0  0  0  0  0  0  0  0
   -4.7290   23.0430  -31.4810 C   0  0  0  0  0  0  0  0  0  0  0  0
   -2.5700   21.7560  -27.7570 C   0  0  0  0  0  0  0  0  0  0  0  0
   -3.4770   21.2770  -28.4870 O   0  0  0  0  0  0  0  0  0  0  0  0
   -2.5334   18.9256  -25.3107 H   0  0  0  0  0  0  0  0  0  0  0  0
   -3.6105   19.3427  -26.6864 H   0  0  0  0  0  0  0  0  0  0  0  0
   -2.7157   17.7851  -26.6864 H   0  0  0  0  0  0  0  0  0  0  0  0
   -0.5635   19.2167  -26.6249 H   0  0  0  0  0  0  0  0  0  0  0  0
   -1.5016   19.2050  -28.1648 H   0  0  0  0  0  0  0  0  0  0  0  0
   -0.7130   21.6570  -25.2755 H   0  0  0  0  0  0  0  0  0  0  0  0
    0.3112   21.7596  -26.7140 H   0  0  0  0  0  0  0  0  0  0  0  0
   -1.6292   23.7499  -25.6787 H   0  0  0  0  0  0  0  0  0  0  0  0
   -0.4848   23.9666  -27.0108 H   0  0  0  0  0  0  0  0  0  0  0  0
   -4.2442   23.7970  -28.2285 H   0  0  0  0  0  0  0  0  0  0  0  0
   -3.3016   24.9853  -27.2487 H   0  0  0  0  0  0  0  0  0  0  0  0
   -5.9356   25.7973  -29.8668 H   0  0  0  0  0  0  0  0  0  0  0  0
   -8.0876   24.6449  -30.3452 H   0  0  0  0  0  0  0  0  0  0  0  0
   -8.9365   22.0276  -30.5817 H   0  0  0  0  0  0  0  0  0  0  0  0
   -9.1447   22.9312  -32.1202 H   0  0  0  0  0  0  0  0  0  0  0  0
   -8.3188   21.3360  -32.1202 H   0  0  0  0  0  0  0  0  0  0  0  0
   -4.1472   20.1292  -31.7470 H   0  0  0  0  0  0  0  0  0  0  0  0
   -3.7773   22.6046  -31.8156 H   0  0  0  0  0  0  0  0  0  0  0  0
  1  2  1  0
  2  3  1  0
  3  4  1  0
  4  5  1  0
  5  6  1  0
  6  7  1  0
  7  8  1  0
  8  9  2  0
  8 10  1  0
 10 11  1  0
 11 12  2  0
 12 13  1  0
 13 14  2  0
 14 15  1  0
 14 16  1  0
 16 17  1  0
 17 18  1  0
 18 19  2  0
 19 20  1  0
 20 21  2  0
 16 22  2  0
  6 23  1  0
 23 24  2  0
 23  3  1  0
 22 11  1  0
 21 17  1  0
  1 25  1  0
  1 26  1  0
  1 27  1  0
  2 28  1  0
  2 29  1  0
  4 30  1  0
  4 31  1  0
  5 32  1  0
  5 33  1  0
  7 34  1  0
  7 35  1  0
 12 36  1  0
 13 37  1  0
 15 38  1  0
 15 39  1  0
 15 40  1  0
 18 41  1  0
 22 42  1  0
M  CHG  1  10  -1
M  END
>  <UniqueID>  (16) 
14

>  <SMILES>  (16) 
CCN1CCN(CC(=O)[N-]c2ccc(C)c(-n3cnnn3)c2)C1=O

>  <Energy>  (16) 
100.04212159453733

>  <Genealogy>  (16) 
CCN1CCN(CC(=O)[N-]c2ccc(C)c(-n3cnnn3)c2)C1=O (protonated)
CCN1CCN(CC(=O)[N-]c2ccc(C)c(-n3cnnn3)c2)C1=O (3D coordinates assigned)
CCN1CCN(CC(=O)[N-]c2ccc(C)c(-n3cnnn3)c2)C1=O (nonaromatic ring conformer: 100.04212159453733 kcal/mol)

>  <smiles>  (16) 
CCN1CCN(CC(=O)Nc2ccc(C)c(-n3cnnn3)c2)C1=O

>  <score_type>  (16) 
oracle

>  <origin>  (16) 
adg

>  <m_score__min__energy>  (16) 
-9.8900000000000006

>  <m_primary>  (16) 
energy

$$$$
16:0
     RDKit          3D

 41 43  0  0  0  0  0  0  0  0999 V2000
   -2.8510   24.0860  -28.7670 C   0  0  0  0  0  0  0  0  0  0  0  0
   -4.0200   24.5420  -29.5810 C   0  0  0  0  0  0  0  0  0  0  0  0
   -3.8160   25.0630  -30.7090 O   0  0  0  0  0  0  0  0  0  0  0  0
   -5.3580   24.3730  -29.0890 N   0  0  0  0  0  0  0  0  0  0  0  0
   -6.5360   24.8530  -29.8090 C   0  0  0  0  0  0  0  0  0  0  0  0
   -7.1690   23.7520  -30.6640 C   0  0  0  0  0  0  0  0  0  0  0  0
   -6.4480   23.6690  -32.3480 S   0  0  0  0  0  0  0  0  0  0  0  0
   -6.1050   21.8830  -32.3260 C   0  0  0  0  0  0  0  0  0  0  0  0
   -7.1670   20.9540  -32.2900 C   0  0  0  0  0  0  0  0  0  0  0  0
   -8.5190   21.3650  -32.3510 C   0  0  0  0  0  0  0  0  0  0  0  0
   -9.5520   20.4300  -32.2880 C   0  0  0  0  0  0  0  0  0  0  0  0
   -9.2640   19.0740  -32.1650 C   0  0  0  0  0  0  0  0  0  0  0  0
   -7.9390   18.6450  -32.1120 C   0  0  0  0  0  0  0  0  0  0  0  0
   -6.8800   19.5750  -32.1780 C   0  0  0  0  0  0  0  0  0  0  0  0
   -5.5410   19.1470  -32.1360 C   0  0  0  0  0  0  0  0  0  0  0  0
   -5.2960   17.9110  -32.0160 O   0  0  0  0  0  0  0  0  0  0  0  0
   -4.5110   20.0510  -32.2370 N   0  0  0  0  0  0  0  0  0  0  0  0
   -3.2130   19.5960  -32.2260 C   0  0  0  0  0  0  0  0  0  0  0  0
   -2.1320   20.4720  -32.3650 C   0  0  0  0  0  0  0  0  0  0  0  0
   -0.7230   19.9600  -32.3040 C   0  0  0  0  0  0  0  0  0  0  0  0
   -2.3830   21.8350  -32.4920 C   0  0  0  0  0  0  0  0  0  0  0  0
   -3.6900   22.3020  -32.4980 C   0  0  0  0  0  0  0  0  0  0  0  0
   -4.7700   21.4050  -32.3500 C   0  0  0  0  0  0  0  0  0  0  0  0
   -3.0903   24.1793  -27.6974 H   0  0  0  0  0  0  0  0  0  0  0  0
   -2.6279   23.0349  -29.0025 H   0  0  0  0  0  0  0  0  0  0  0  0
   -1.9751   24.7084  -29.0025 H   0  0  0  0  0  0  0  0  0  0  0  0
   -5.5100   23.8020  -28.2270 H   0  0  0  0  0  0  0  0  0  0  0  0
   -7.2787   25.2082  -29.0795 H   0  0  0  0  0  0  0  0  0  0  0  0
   -6.2189   25.6657  -30.4790 H   0  0  0  0  0  0  0  0  0  0  0  0
   -7.0126   22.7842  -30.1652 H   0  0  0  0  0  0  0  0  0  0  0  0
   -8.2390   23.9843  -30.7695 H   0  0  0  0  0  0  0  0  0  0  0  0
   -8.7585   22.4341  -32.4492 H   0  0  0  0  0  0  0  0  0  0  0  0
  -10.5984   20.7657  -32.3357 H   0  0  0  0  0  0  0  0  0  0  0  0
  -10.0821   18.3408  -32.1096 H   0  0  0  0  0  0  0  0  0  0  0  0
   -7.7169   17.5718  -32.0179 H   0  0  0  0  0  0  0  0  0  0  0  0
   -3.0212   18.5196  -32.1052 H   0  0  0  0  0  0  0  0  0  0  0  0
   -0.4183   19.8493  -31.2529 H   0  0  0  0  0  0  0  0  0  0  0  0
   -0.6656   18.9835  -32.8072 H   0  0  0  0  0  0  0  0  0  0  0  0
   -0.0521   20.6718  -32.8072 H   0  0  0  0  0  0  0  0  0  0  0  0
   -1.5457   22.5420  -32.5876 H   0  0  0  0  0  0  0  0  0  0  0  0
   -3.8855   23.3777  -32.6188 H   0  0  0  0  0  0  0  0  0  0  0  0
  1  2  1  0
  2  3  2  0
  2  4  1  0
  4  5  1  0
  5  6  1  0
  6  7  1  0
  7  8  1  0
  8  9  1  0
  9 10  2  0
 10 11  1  0
 11 12  2  0
 12 13  1  0
 13 14  2  0
 14 15  1  0
 15 16  2  0
 15 17  1  0
 17 18  1  0
 18 19  2  0
 19 20  1  0
 19 21  1  0
 21 22  2  0
 22 23  1  0
 23  8  2  0
 14  9  1  0
 23 17  1  0
  1 24  1  0
  1 25  1  0
  1 26  1  0
  4 27  1  0
  5 28  1  0
  5 29  1  0
  6 30  1  0
  6 31  1  0
 10 32  1  0
 11 33  1  0
 12 34  1  0
 13 35  1  0
 18 36  1  0
 20 37  1  0
 20 38  1  0
 20 39  1  0
 21 40  1  0
 22 41  1  0
M  END
>  <UniqueID>  (17) 
15

>  <SMILES>  (17) 
CC(=O)NCCSc1c2ccccc2c(=O)n2cc(C)ccc12

>  <Energy>  (17) 
47.4576657118118

>  <Genealogy>  (17) 
CC(=O)NCCSc1c2ccccc2c(=O)n2cc(C)ccc12 (3D coordinates assigned)
CC(=O)NCCSc1c2ccccc2c(=O)n2cc(C)ccc12 (optimized conformer: 47.4576657118118 kcal/mol)

>  <smiles>  (17) 
CC(=O)NCCSc1c2ccccc2c(=O)n2cc(C)ccc12

>  <score_type>  (17) 
oracle

>  <origin>  (17) 
adg

>  <m_score__min__energy>  (17) 
-9.5700000000000003

>  <m_primary>  (17) 
energy

$$$$
17:0
     RDKit          3D

 44 47  0  0  0  0  0  0  0  0999 V2000
   -0.1240   29.0540  -24.8090 C   0  0  0  0  0  0  0  0  0  0  0  0
    0.3200   27.9020  -23.9170 C   0  0  0  0  0  0  0  0  0  0  0  0
   -0.0970   26.6280  -24.4950 N   0  0  0  0  0  0  0  0  0  0  0  0
   -0.6770   26.4540  -25.6980 C   0  0  0  0  0  0  0  0  0  0  0  0
   -0.8500   25.0970  -25.8910 C   0  0  0  0  0  0  0  0  0  0  0  0
   -1.4980   24.4870  -27.0200 N   0  0  0  0  0  0  0  0  0  0  0  0
   -2.7640   24.7440  -27.3280 N   0  0  0  0  0  0  0  0  0  0  0  0
   -3.0600   24.0090  -28.4140 C   0  0  0  0  0  0  0  0  0  0  0  0
   -1.9780   23.2900  -28.8230 C   0  0  0  0  0  0  0  0  0  0  0  0
   -0.9830   23.5990  -27.9150 C   0  0  0  0  0  0  0  0  0  0  0  0
    0.4050   23.0330  -27.9070 C   0  0  0  0  0  0  0  0  0  0  0  0
   -2.0430   22.2690  -29.9190 C   0  0  0  0  0  0  0  0  0  0  0  0
   -3.1750   22.6160  -30.9180 C   0  0  0  0  0  0  0  0  0  0  0  0
   -4.4270   23.0260  -30.2390 N   0  0  0  0  0  0  0  0  0  0  0  0
   -5.7030   22.7090  -30.8300 C   0  0  0  0  0  0  0  0  0  0  0  0
   -6.0060   21.3910  -31.2170 C   0  0  0  0  0  0  0  0  0  0  0  0
   -7.2480   21.0880  -31.7830 C   0  0  0  0  0  0  0  0  0  0  0  0
   -8.2000   22.0950  -31.9640 C   0  0  0  0  0  0  0  0  0  0  0  0
   -9.4040   21.7990  -32.5120 F   0  0  0  0  0  0  0  0  0  0  0  0
   -7.9100   23.4070  -31.5780 C   0  0  0  0  0  0  0  0  0  0  0  0
   -6.6690   23.7140  -31.0130 C   0  0  0  0  0  0  0  0  0  0  0  0
   -4.3460   23.8940  -29.0870 C   0  0  0  0  0  0  0  0  0  0  0  0
   -5.3490   24.5340  -28.6720 O   0  0  0  0  0  0  0  0  0  0  0  0
   -0.3610   24.4860  -24.7480 C   0  0  0  0  0  0  0  0  0  0  0  0
    0.1000   25.4480  -23.9270 N   0  0  0  0  0  0  0  0  0  0  0  0
   -0.4493   29.8980  -24.1831 H   0  0  0  0  0  0  0  0  0  0  0  0
    0.7164   29.3710  -25.4441 H   0  0  0  0  0  0  0  0  0  0  0  0
   -0.9597   28.7250  -25.4441 H   0  0  0  0  0  0  0  0  0  0  0  0
    1.4158   27.9169  -23.8225 H   0  0  0  0  0  0  0  0  0  0  0  0
   -0.1436   28.0157  -22.9260 H   0  0  0  0  0  0  0  0  0  0  0  0
   -0.9621   27.2503  -26.4014 H   0  0  0  0  0  0  0  0  0  0  0  0
    0.7394   22.8966  -26.8680 H   0  0  0  0  0  0  0  0  0  0  0  0
    0.4079   22.0618  -28.4236 H   0  0  0  0  0  0  0  0  0  0  0  0
    1.0862   23.7252  -28.4236 H   0  0  0  0  0  0  0  0  0  0  0  0
   -1.0818   22.2502  -30.4535 H   0  0  0  0  0  0  0  0  0  0  0  0
   -2.2499   21.2839  -29.4754 H   0  0  0  0  0  0  0  0  0  0  0  0
   -2.8365   23.4413  -31.5616 H   0  0  0  0  0  0  0  0  0  0  0  0
   -3.3936   21.7101  -31.5024 H   0  0  0  0  0  0  0  0  0  0  0  0
   -5.2615   20.5941  -31.0735 H   0  0  0  0  0  0  0  0  0  0  0  0
   -7.4762   20.0555  -32.0863 H   0  0  0  0  0  0  0  0  0  0  0  0
   -8.6599   24.1992  -31.7192 H   0  0  0  0  0  0  0  0  0  0  0  0
   -6.4469   24.7478  -30.7098 H   0  0  0  0  0  0  0  0  0  0  0  0
   -0.3511   23.4046  -24.5466 H   0  0  0  0  0  0  0  0  0  0  0  0
    0.5350   25.3000  -22.9890 H   0  0  0  0  0  0  0  0  0  0  0  0
  1  2  1  0
  2  3  1  0
  3  4  1  0
  4  5  2  0
  5  6  1  0
  6  7  1  0
  7  8  2  0
  8  9  1  0
  9 10  2  0
 10 11  1  0
  9 12  1  0
 12 13  1  0
 13 14  1  0
 14 15  1  0
 15 16  2  0
 16 17  1  0
 17 18  2  0
 18 19  1  0
 18 20  1  0
 20 21  2  0
 14 22  1  0
 22 23  2  0
  5 24  1  0
 24 25  2  0
 25  3  1  0
 10  6  1  0
 21 15  1  0
 22  8  1  0
  1 26  1  0
  1 27  1  0
  1 28  1  0
  2 29  1  0
  2 30  1  0
  4 31  1  0
 11 32  1  0
 11 33  1  0
 11 34  1  0
 12 35  1  0
 12 36  1  0
 13 37  1  0
 13 38  1  0
 16 39  1  0
 17 40  1  0
 20 41  1  0
 21 42  1  0
 24 43  1  0
 25 44  1  0
M  CHG  1  25   1
M  END
>  <UniqueID>  (18) 
16

>  <SMILES>  (18) 
CCn1cc(-n2nc3c(c2C)CCN(c2ccc(F)cc2)C3=O)c[nH+]1

>  <Energy>  (18) 
117.62007999863926

>  <Genealogy>  (18) 
CCn1cc(-n2nc3c(c2C)CCN(c2ccc(F)cc2)C3=O)c[nH+]1 (protonated)
CCn1cc(-n2nc3c(c2C)CCN(c2ccc(F)cc2)C3=O)c[nH+]1 (3D coordinates assigned)
CCn1cc(-n2nc3c(c2C)CCN(c2ccc(F)cc2)C3=O)c[nH+]1 (nonaromatic ring conformer: 117.62007999863926 kcal/mol)

>  <smiles>  (18) 
CCn1cc(-n2nc3c(c2C)CCN(c2ccc(F)cc2)C3=O)cn1

>  <score_type>  (18) 
oracle

>  <origin>  (18) 
adg

>  <m_score__min__energy>  (18) 
-7.6299999999999999

>  <m_primary>  (18) 
energy

$$$$
18:0
     RDKit          3D

 43 45  0  0  0  0  0  0  0  0999 V2000
   -8.9817   22.1303  -32.3824 H   0  0  0  0  0  0  0  0  0  0  0  0
   -8.1500   21.6480  -31.8480 C   0  0  0  0  0  0  0  0  0  0  0  0
   -7.6820   22.2450  -30.7430 C   0  0  0  0  0  0  0  0  0  0  0  0
   -8.2469   22.1523  -29.8037 H   0  0  0  0  0  0  0  0  0  0  0  0
   -6.4260   23.0250  -30.7540 C   0  0  0  0  0  0  0  0  0  0  0  0
   -6.5160   24.4080  -30.5680 C   0  0  0  0  0  0  0  0  0  0  0  0
   -7.4921   24.8795  -30.3813 H   0  0  0  0  0  0  0  0  0  0  0  0
   -5.3580   25.1860  -30.6210 C   0  0  0  0  0  0  0  0  0  0  0  0
   -5.4320   26.4330  -30.4750 O   0  0  0  0  0  0  0  0  0  0  0  0
   -4.1750   24.6180  -30.8280 O   0  0  0  0  0  0  0  0  0  0  0  0
   -4.0250   23.3060  -30.9800 C   0  0  0  0  0  0  0  0  0  0  0  0
   -2.7430   22.7820  -31.1730 C   0  0  0  0  0  0  0  0  0  0  0  0
   -1.8801   23.4622  -31.2255 H   0  0  0  0  0  0  0  0  0  0  0  0
   -2.5450   21.4040  -31.3000 C   0  0  0  0  0  0  0  0  0  0  0  0
   -1.2380   20.9340  -31.4930 O   0  0  0  0  0  0  0  0  0  0  0  0
   -0.6790   20.6090  -32.7610 C   0  0  0  0  0  0  0  0  0  0  0  0
    0.2637   20.0609  -32.6165 H   0  0  0  0  0  0  0  0  0  0  0  0
   -1.3858   19.9810  -33.3232 H   0  0  0  0  0  0  0  0  0  0  0  0
   -0.4829   21.5339  -33.3232 H   0  0  0  0  0  0  0  0  0  0  0  0
   -3.6540   20.5410  -31.2220 C   0  0  0  0  0  0  0  0  0  0  0  0
   -3.5073   19.4544  -31.3097 H   0  0  0  0  0  0  0  0  0  0  0  0
   -4.9400   21.0540  -31.0340 C   0  0  0  0  0  0  0  0  0  0  0  0
   -5.7968   20.3678  -30.9628 H   0  0  0  0  0  0  0  0  0  0  0  0
   -5.1470   22.4440  -30.9350 C   0  0  0  0  0  0  0  0  0  0  0  0
   -7.6150   20.3760  -32.3950 C   0  0  0  0  0  0  0  0  0  0  0  0
   -7.9980   19.1160  -31.9020 C   0  0  0  0  0  0  0  0  0  0  0  0
   -8.7172   19.0499  -31.0723 H   0  0  0  0  0  0  0  0  0  0  0  0
   -7.4710   17.9460  -32.4590 C   0  0  0  0  0  0  0  0  0  0  0  0
   -7.7769   16.9686  -32.0575 H   0  0  0  0  0  0  0  0  0  0  0  0
   -6.5540   18.0020  -33.5270 C   0  0  0  0  0  0  0  0  0  0  0  0
   -6.0040   16.7870  -34.1030 N   0  0  0  0  0  0  0  0  0  0  0  0
   -4.6170   16.7470  -34.5790 C   0  0  0  0  0  0  0  0  0  0  0  0
   -3.9339   16.7273  -33.7170 H   0  0  0  0  0  0  0  0  0  0  0  0
   -4.4644   15.8441  -35.1885 H   0  0  0  0  0  0  0  0  0  0  0  0
   -4.4126   17.6396  -35.1885 H   0  0  0  0  0  0  0  0  0  0  0  0
   -6.8280   15.5770  -34.2190 C   0  0  0  0  0  0  0  0  0  0  0  0
   -7.0799   15.2072  -33.2141 H   0  0  0  0  0  0  0  0  0  0  0  0
   -7.7530   15.8143  -34.7649 H   0  0  0  0  0  0  0  0  0  0  0  0
   -6.2683   14.8032  -34.7649 H   0  0  0  0  0  0  0  0  0  0  0  0
   -6.1870   19.2680  -34.0240 C   0  0  0  0  0  0  0  0  0  0  0  0
   -5.4758   19.3379  -34.8603 H   0  0  0  0  0  0  0  0  0  0  0  0
   -6.7150   20.4360  -33.4680 C   0  0  0  0  0  0  0  0  0  0  0  0
   -6.4210   21.4139  -33.8770 H   0  0  0  0  0  0  0  0  0  0  0  0
  1  2  1  0
  2  3  2  0
  3  4  1  0
  3  5  1  0
  5  6  2  0
  6  7  1  0
  6  8  1  0
  8  9  2  0
  8 10  1  0
 10 11  1  0
 11 12  2  0
 12 13  1  0
 12 14  1  0
 14 15  1  0
 15 16  1  0
 16 17  1  0
 16 18  1  0
 16 19  1  0
 14 20  2  0
 20 21  1  0
 20 22  1  0
 22 23  1  0
 22 24  2  0
  2 25  1  0
 25 26  2  0
 26 27  1  0
 26 28  1  0
 28 29  1  0
 28 30  2  0
 30 31  1  0
 31 32  1  0
 32 33  1  0
 32 34  1  0
 32 35  1  0
 31 36  1  0
 36 37  1  0
 36 38  1  0
 36 39  1  0
 30 40  1  0
 40 41  1  0
 40 42  2  0
 42 43  1  0
 24  5  1  0
 42 25  1  0
 24 11  1  0
M  END
>  <UniqueID>  (19) 
17

>  <SMILES>  (19) 
COc1ccc2c(/C=C/c3ccc(N(C)C)cc3)cc(=O)oc2c1

>  <Energy>  (19) 
59.95874725416451

>  <Genealogy>  (19) 
COc1ccc2c(/C=C/c3ccc(N(C)C)cc3)cc(=O)oc2c1 (cis-trans isomerization)
COc1ccc2c(/C=C/c3ccc(N(C)C)cc3)cc(=O)oc2c1 (3D coordinates assigned)
COc1ccc2c(/C=C/c3ccc(N(C)C)cc3)cc(=O)oc2c1 (optimized conformer: 59.95874725416451 kcal/mol)

>  <smiles>  (19) 
COc1ccc2c(C=Cc3ccc(N(C)C)cc3)cc(=O)oc2c1

>  <score_type>  (19) 
oracle

>  <origin>  (19) 
adg

>  <m_score__min__energy>  (19) 
-8.4199999999999999

>  <m_primary>  (19) 
energy

$$$$
19:0
     RDKit          3D

 57 61  0  0  0  0  0  0  0  0999 V2000
   -4.0120   17.1210  -33.4560 C   0  0  0  0  0  0  0  0  0  0  0  0
   -5.1900   17.9350  -33.0140 C   0  0  0  0  0  0  0  0  0  0  0  0
   -6.3480   17.3770  -32.5980 N   0  0  0  0  0  0  0  0  0  0  0  0
   -7.1420   18.4200  -32.3220 C   0  0  0  0  0  0  0  0  0  0  0  0
   -8.4540   18.3680  -31.8750 C   0  0  0  0  0  0  0  0  0  0  0  0
   -9.1220   19.5780  -31.6650 C   0  0  0  0  0  0  0  0  0  0  0  0
   -8.4710   20.8140  -31.8790 C   0  0  0  0  0  0  0  0  0  0  0  0
   -7.1060   20.8490  -32.2930 C   0  0  0  0  0  0  0  0  0  0  0  0
   -6.4800   19.6020  -32.5590 C   0  0  0  0  0  0  0  0  0  0  0  0
   -5.2370   19.2960  -33.0280 N   0  0  0  0  0  0  0  0  0  0  0  0
   -4.1560   20.1700  -33.5060 C   0  0  0  0  0  0  0  0  0  0  0  0
   -3.2850   20.6810  -32.3780 C   0  0  0  0  0  0  0  0  0  0  0  0
   -1.9680   21.0790  -32.6650 C   0  0  0  0  0  0  0  0  0  0  0  0
   -1.1450   21.5900  -31.6570 C   0  0  0  0  0  0  0  0  0  0  0  0
   -1.6320   21.7230  -30.3550 C   0  0  0  0  0  0  0  0  0  0  0  0
   -0.8330   22.2230  -29.3790 F   0  0  0  0  0  0  0  0  0  0  0  0
   -2.9450   21.3470  -30.0590 C   0  0  0  0  0  0  0  0  0  0  0  0
   -3.7710   20.8330  -31.0620 C   0  0  0  0  0  0  0  0  0  0  0  0
   -6.4130   22.1860  -32.4730 C   0  0  0  0  0  0  0  0  0  0  0  0
   -7.0550   23.2790  -31.7150 N   0  0  0  0  0  0  0  0  0  0  0  0
   -6.7420   23.2050  -30.2660 C   0  0  0  0  0  0  0  0  0  0  0  0
   -6.1810   24.5260  -29.7190 C   0  0  0  0  0  0  0  0  0  0  0  0
   -4.7770   24.8240  -30.2560 C   0  0  0  0  0  0  0  0  0  0  0  0
   -3.7910   24.6610  -29.1930 N   0  0  0  0  0  0  0  0  0  0  0  0
   -4.0220   24.1500  -27.9700 C   0  0  0  0  0  0  0  0  0  0  0  0
   -2.8260   24.1030  -27.2880 C   0  0  0  0  0  0  0  0  0  0  0  0
   -1.8930   24.6010  -28.1780 C   0  0  0  0  0  0  0  0  0  0  0  0
   -2.5020   24.9270  -29.3350 N   0  0  0  0  0  0  0  0  0  0  0  0
   -8.4970   23.3410  -32.0260 C   0  0  0  0  0  0  0  0  0  0  0  0
   -9.2440   22.0760  -31.5910 C   0  0  0  0  0  0  0  0  0  0  0  0
   -3.4721   16.7479  -32.5732 H   0  0  0  0  0  0  0  0  0  0  0  0
   -4.3602   16.2699  -34.0596 H   0  0  0  0  0  0  0  0  0  0  0  0
   -3.3390   17.7477  -34.0596 H   0  0  0  0  0  0  0  0  0  0  0  0
   -6.5760   16.3600  -32.5170 H   0  0  0  0  0  0  0  0  0  0  0  0
   -8.9531   17.4051  -31.6915 H   0  0  0  0  0  0  0  0  0  0  0  0
  -10.1692   19.5679  -31.3284 H   0  0  0  0  0  0  0  0  0  0  0  0
   -3.5276   19.6027  -34.2083 H   0  0  0  0  0  0  0  0  0  0  0  0
   -4.6194   21.0409  -33.9926 H   0  0  0  0  0  0  0  0  0  0  0  0
   -1.5817   20.9877  -33.6909 H   0  0  0  0  0  0  0  0  0  0  0  0
   -0.1120   21.8878  -31.8899 H   0  0  0  0  0  0  0  0  0  0  0  0
   -3.3291   21.4559  -29.0340 H   0  0  0  0  0  0  0  0  0  0  0  0
   -4.8058   20.5453  -30.8244 H   0  0  0  0  0  0  0  0  0  0  0  0
   -5.3715   22.0889  -32.1327 H   0  0  0  0  0  0  0  0  0  0  0  0
   -6.4756   22.4464  -33.5399 H   0  0  0  0  0  0  0  0  0  0  0  0
   -7.6634   22.9588  -29.7179 H   0  0  0  0  0  0  0  0  0  0  0  0
   -5.9719   22.4316  -30.1287 H   0  0  0  0  0  0  0  0  0  0  0  0
   -6.8539   25.3453  -30.0122 H   0  0  0  0  0  0  0  0  0  0  0  0
   -6.1126   24.4370  -28.6247 H   0  0  0  0  0  0  0  0  0  0  0  0
   -4.5459   24.1292  -31.0768 H   0  0  0  0  0  0  0  0  0  0  0  0
   -4.7435   25.8602  -30.6237 H   0  0  0  0  0  0  0  0  0  0  0  0
   -4.9985   23.8254  -27.5813 H   0  0  0  0  0  0  0  0  0  0  0  0
   -2.6519   23.7476  -26.2617 H   0  0  0  0  0  0  0  0  0  0  0  0
   -0.8181   24.7139  -27.9732 H   0  0  0  0  0  0  0  0  0  0  0  0
   -8.9337   24.2058  -31.5050 H   0  0  0  0  0  0  0  0  0  0  0  0
   -8.6008   23.4328  -33.1172 H   0  0  0  0  0  0  0  0  0  0  0  0
   -9.4326   22.1336  -30.5088 H   0  0  0  0  0  0  0  0  0  0  0  0
  -10.1806   22.0297  -32.1660 H   0  0  0  0  0  0  0  0  0  0  0  0
  1  2  1  0
  2  3  2  0
  3  4  1  0
  4  5  2  0
  5  6  1  0
  6  7  2  0
  7  8  1  0
  8  9  2  0
  9 10  1  0
 10 11  1  0
 11 12  1  0
 12 13  2  0
 13 14  1  0
 14 15  2  0
 15 16  1  0
 15 17  1  0
 17 18  2  0
  8 19  1  0
 19 20  1  0
 20 21  1  0
 21 22  1  0
 22 23  1  0
 23 24  1  0
 24 25  1  0
 25 26  2  0
 26 27  1  0
 27 28  2  0
 20 29  1  0
 29 30  1  0
 10  2  1  0
 18 12  1  0
 28 24  1  0
  9  4  1  0
 30  7  1  0
  1 31  1  0
  1 32  1  0
  1 33  1  0
  3 34  1  0
  5 35  1  0
  6 36  1  0
 11 37  1  0
 11 38  1  0
 13 39  1  0
 14 40  1  0
 17 41  1  0
 18 42  1  0
 19 43  1  0
 19 44  1  0
 21 45  1  0
 21 46  1  0
 22 47  1  0
 22 48  1  0
 23 49  1  0
 23 50  1  0
 25 51  1  0
 26 52  1  0
 27 53  1  0
 29 54  1  0
 29 55  1  0
 30 56  1  0
 30 57  1  0
M  CHG  1   3   1
M  END
>  <UniqueID>  (20) 
18

>  <SMILES>  (20) 
Cc1[nH+]c2ccc3c(c2n1Cc1ccc(F)cc1)CN(CCCn1cccn1)CC3

>  <Energy>  (20) 
136.04816503163946

>  <Genealogy>  (20) 
Cc1[nH+]c2ccc3c(c2n1Cc1ccc(F)cc1)CN(CCCn1cccn1)CC3 (protonated)
Cc1[nH+]c2ccc3c(c2n1Cc1ccc(F)cc1)CN(CCCn1cccn1)CC3 (3D coordinates assigned)
Cc1[nH+]c2ccc3c(c2n1Cc1ccc(F)cc1)CN(CCCn1cccn1)CC3 (nonaromatic ring conformer: 136.04816503163946 kcal/mol)

>  <smiles>  (20) 
Cc1nc2ccc3c(c2n1Cc1ccc(F)cc1)CN(CCCn1cccn1)CC3

>  <score_type>  (20) 
oracle

>  <origin>  (20) 
adg

>  <m_score__min__energy>  (20) 
-9.3100000000000005

>  <m_primary>  (20) 
energy

$$$$
20:0
     RDKit          3D

 51 54  0  0  0  0  0  0  0  0999 V2000
   -4.2490   24.9270  -26.4090 C   0  0  0  0  0  0  0  0  0  0  0  0
   -2.8620   24.8150  -26.9900 C   0  0  0  0  0  0  0  0  0  0  0  0
   -1.9020   25.7760  -26.6290 C   0  0  0  0  0  0  0  0  0  0  0  0
   -0.6180   25.7370  -27.1710 C   0  0  0  0  0  0  0  0  0  0  0  0
   -0.2770   24.7500  -28.0910 C   0  0  0  0  0  0  0  0  0  0  0  0
   -1.2110   23.7800  -28.4600 C   0  0  0  0  0  0  0  0  0  0  0  0
   -0.8500   22.8470  -29.3770 F   0  0  0  0  0  0  0  0  0  0  0  0
   -2.5050   23.7780  -27.8970 C   0  0  0  0  0  0  0  0  0  0  0  0
   -3.4880   22.6990  -28.3170 C   0  0  0  0  0  0  0  0  0  0  0  0
   -3.7800   22.7730  -29.7570 N   0  0  0  0  0  0  0  0  0  0  0  0
   -4.5630   23.6710  -30.4230 C   0  0  0  0  0  0  0  0  0  0  0  0
   -5.2940   24.8180  -29.7670 C   0  0  0  0  0  0  0  0  0  0  0  0
   -6.8140   24.7490  -29.9610 C   0  0  0  0  0  0  0  0  0  0  0  0
   -7.2270   23.3870  -30.3060 N   0  0  0  0  0  0  0  0  0  0  0  0
   -7.4660   22.9590  -31.6570 C   0  0  0  0  0  0  0  0  0  0  0  0
   -7.4270   23.7940  -32.6010 O   0  0  0  0  0  0  0  0  0  0  0  0
   -7.7160   21.5350  -31.9660 C   0  0  0  0  0  0  0  0  0  0  0  0
   -6.7190   20.7830  -32.6120 C   0  0  0  0  0  0  0  0  0  0  0  0
   -6.9270   19.4310  -32.8990 C   0  0  0  0  0  0  0  0  0  0  0  0
   -8.1340   18.8190  -32.5520 C   0  0  0  0  0  0  0  0  0  0  0  0
   -9.1370   19.5610  -31.9250 C   0  0  0  0  0  0  0  0  0  0  0  0
   -8.9370   20.9150  -31.6340 C   0  0  0  0  0  0  0  0  0  0  0  0
   -9.9510   21.6220  -31.0740 F   0  0  0  0  0  0  0  0  0  0  0  0
   -4.5820   23.4660  -31.7690 N   0  0  0  0  0  0  0  0  0  0  0  0
   -3.8160   22.3740  -31.9280 C   0  0  0  0  0  0  0  0  0  0  0  0
   -3.5170   21.7180  -33.1200 C   0  0  0  0  0  0  0  0  0  0  0  0
   -2.6940   20.5790  -33.0500 C   0  0  0  0  0  0  0  0  0  0  0  0
   -2.2010   20.1290  -31.8050 C   0  0  0  0  0  0  0  0  0  0  0  0
   -2.5230   20.8160  -30.6190 C   0  0  0  0  0  0  0  0  0  0  0  0
   -3.3380   21.9470  -30.7250 C   0  0  0  0  0  0  0  0  0  0  0  0
   -4.1880   24.9221  -25.3107 H   0  0  0  0  0  0  0  0  0  0  0  0
   -4.7131   25.8655  -26.7462 H   0  0  0  0  0  0  0  0  0  0  0  0
   -4.8577   24.0751  -26.7462 H   0  0  0  0  0  0  0  0  0  0  0  0
   -2.1664   26.5669  -25.9116 H   0  0  0  0  0  0  0  0  0  0  0  0
    0.1273   26.4882  -26.8707 H   0  0  0  0  0  0  0  0  0  0  0  0
    0.7319   24.7340  -28.5290 H   0  0  0  0  0  0  0  0  0  0  0  0
   -3.0568   21.7131  -28.0890 H   0  0  0  0  0  0  0  0  0  0  0  0
   -4.4268   22.8504  -27.7642 H   0  0  0  0  0  0  0  0  0  0  0  0
   -5.0771   24.8011  -28.6887 H   0  0  0  0  0  0  0  0  0  0  0  0
   -4.9434   25.7463  -30.2418 H   0  0  0  0  0  0  0  0  0  0  0  0
   -7.3119   25.0527  -29.0283 H   0  0  0  0  0  0  0  0  0  0  0  0
   -7.0985   25.4249  -30.7809 H   0  0  0  0  0  0  0  0  0  0  0  0
   -7.2100   22.6750  -29.5420 H   0  0  0  0  0  0  0  0  0  0  0  0
   -5.7694   21.2617  -32.8933 H   0  0  0  0  0  0  0  0  0  0  0  0
   -6.1393   18.8481  -33.3987 H   0  0  0  0  0  0  0  0  0  0  0  0
   -8.2941   17.7533  -32.7726 H   0  0  0  0  0  0  0  0  0  0  0  0
  -10.0891   19.0788  -31.6585 H   0  0  0  0  0  0  0  0  0  0  0  0
   -3.9105   22.0778  -34.0821 H   0  0  0  0  0  0  0  0  0  0  0  0
   -2.4329   20.0357  -33.9701 H   0  0  0  0  0  0  0  0  0  0  0  0
   -1.5609   19.2354  -31.7618 H   0  0  0  0  0  0  0  0  0  0  0  0
   -2.1466   20.4749  -29.6433 H   0  0  0  0  0  0  0  0  0  0  0  0
  1  2  1  0
  2  3  2  0
  3  4  1  0
  4  5  2  0
  5  6  1  0
  6  7  1  0
  6  8  2  0
  8  9  1  0
  9 10  1  0
 10 11  1  0
 11 12  1  0
 12 13  1  0
 13 14  1  0
 14 15  1  0
 15 16  2  0
 15 17  1  0
 17 18  2  0
 18 19  1  0
 19 20  2  0
 20 21  1  0
 21 22  2  0
 22 23  1  0
 11 24  2  0
 24 25  1  0
 25 26  2  0
 26 27  1  0
 27 28  2  0
 28 29  1  0
 29 30  2  0
  8  2  1  0
 30 10  1  0
 22 17  1  0
 30 25  1  0
  1 31  1  0
  1 32  1  0
  1 33  1  0
  3 34  1  0
  4 35  1  0
  5 36  1  0
  9 37  1  0
  9 38  1  0
 12 39  1  0
 12 40  1  0
 13 41  1  0
 13 42  1  0
 14 43  1  0
 18 44  1  0
 19 45  1  0
 20 46  1  0
 21 47  1  0
 26 48  1  0
 27 49  1  0
 28 50  1  0
 29 51  1  0
M  END
>  <UniqueID>  (21) 
19

>  <SMILES>  (21) 
Cc1cccc(F)c1Cn1c(CCNC(=O)c2ccccc2F)nc2ccccc21

>  <Energy>  (21) 
96.17058260027792

>  <Genealogy>  (21) 
Cc1cccc(F)c1Cn1c(CCNC(=O)c2ccccc2F)nc2ccccc21 (3D coordinates assigned)
Cc1cccc(F)c1Cn1c(CCNC(=O)c2ccccc2F)nc2ccccc21 (optimized conformer: 96.17058260027792 kcal/mol)

>  <smiles>  (21) 
Cc1cccc(F)c1Cn1c(CCNC(=O)c2ccccc2F)nc2ccccc21

>  <score_type>  (21) 
oracle

>  <origin>  (21) 
adg

>  <m_score__min__energy>  (21) 
-9.6699999999999999

>  <m_primary>  (21) 
energy

$$$$
21:0
     RDKit          3D

 40 42  0  0  0  0  0  0  0  0999 V2000
   -3.1270   24.2080  -28.5800 C   0  0  0  0  0  0  0  0  0  0  0  0
   -3.7230   24.8710  -29.6870 O   0  0  0  0  0  0  0  0  0  0  0  0
   -4.9250   24.4510  -30.2650 C   0  0  0  0  0  0  0  0  0  0  0  0
   -4.9950   24.1660  -31.5950 N   0  0  0  0  0  0  0  0  0  0  0  0
   -6.1560   23.7560  -32.1660 C   0  0  0  0  0  0  0  0  0  0  0  0
   -7.3080   23.6120  -31.3840 C   0  0  0  0  0  0  0  0  0  0  0  0
   -8.6120   23.1670  -31.9900 C   0  0  0  0  0  0  0  0  0  0  0  0
   -8.9950   21.8480  -31.4840 N   0  0  0  0  0  0  0  0  0  0  0  0
   -8.3300   20.6170  -31.8300 C   0  0  0  0  0  0  0  0  0  0  0  0
   -8.7680   19.3710  -31.3450 C   0  0  0  0  0  0  0  0  0  0  0  0
   -8.1030   18.1960  -31.7050 C   0  0  0  0  0  0  0  0  0  0  0  0
   -6.9830   18.2390  -32.5540 C   0  0  0  0  0  0  0  0  0  0  0  0
   -6.2770   16.9900  -32.9370 C   0  0  0  0  0  0  0  0  0  0  0  0
   -5.0210   16.6790  -32.3820 C   0  0  0  0  0  0  0  0  0  0  0  0
   -4.3570   15.5030  -32.7460 C   0  0  0  0  0  0  0  0  0  0  0  0
   -4.9400   14.6250  -33.6630 C   0  0  0  0  0  0  0  0  0  0  0  0
   -6.1850   14.9210  -34.2200 C   0  0  0  0  0  0  0  0  0  0  0  0
   -6.8520   16.0960  -33.8610 C   0  0  0  0  0  0  0  0  0  0  0  0
   -6.5430   19.4850  -33.0320 C   0  0  0  0  0  0  0  0  0  0  0  0
   -7.2090   20.6590  -32.6710 C   0  0  0  0  0  0  0  0  0  0  0  0
   -7.2180   23.9210  -30.0220 C   0  0  0  0  0  0  0  0  0  0  0  0
   -6.0350   24.3290  -29.4890 N   0  0  0  0  0  0  0  0  0  0  0  0
   -3.5132   24.6377  -27.6439 H   0  0  0  0  0  0  0  0  0  0  0  0
   -3.3712   23.1362  -28.6197 H   0  0  0  0  0  0  0  0  0  0  0  0
   -2.0353   24.3371  -28.6197 H   0  0  0  0  0  0  0  0  0  0  0  0
   -6.1917   23.5369  -33.2434 H   0  0  0  0  0  0  0  0  0  0  0  0
   -9.3964   23.8940  -31.7327 H   0  0  0  0  0  0  0  0  0  0  0  0
   -8.4915   23.1054  -33.0816 H   0  0  0  0  0  0  0  0  0  0  0  0
   -9.7800   21.8130  -30.7930 H   0  0  0  0  0  0  0  0  0  0  0  0
   -9.6407   19.3215  -30.6772 H   0  0  0  0  0  0  0  0  0  0  0  0
   -8.4589   17.2287  -31.3208 H   0  0  0  0  0  0  0  0  0  0  0  0
   -4.5588   17.3654  -31.6573 H   0  0  0  0  0  0  0  0  0  0  0  0
   -3.3746   15.2692  -32.3097 H   0  0  0  0  0  0  0  0  0  0  0  0
   -4.4173   13.6995  -33.9463 H   0  0  0  0  0  0  0  0  0  0  0  0
   -6.6421   14.2288  -34.9425 H   0  0  0  0  0  0  0  0  0  0  0  0
   -7.8330   16.3240  -34.3034 H   0  0  0  0  0  0  0  0  0  0  0  0
   -5.6673   19.5365  -33.6957 H   0  0  0  0  0  0  0  0  0  0  0  0
   -6.8499   21.6269  -33.0508 H   0  0  0  0  0  0  0  0  0  0  0  0
   -8.1071   23.8336  -29.3803 H   0  0  0  0  0  0  0  0  0  0  0  0
   -5.9810   24.5510  -28.4700 H   0  0  0  0  0  0  0  0  0  0  0  0
  1  2  1  0
  2  3  1  0
  3  4  2  0
  4  5  1  0
  5  6  2  0
  6  7  1  0
  7  8  1  0
  8  9  1  0
  9 10  2  0
 10 11  1  0
 11 12  2  0
 12 13  1  0
 13 14  2  0
 14 15  1  0
 15 16  2  0
 16 17  1  0
 17 18  2  0
 12 19  1  0
 19 20  2  0
  6 21  1  0
 21 22  2  0
 22  3  1  0
 20  9  1  0
 18 13  1  0
  1 23  1  0
  1 24  1  0
  1 25  1  0
  5 26  1  0
  7 27  1  0
  7 28  1  0
  8 29  1  0
 10 30  1  0
 11 31  1  0
 14 32  1  0
 15 33  1  0
 16 34  1  0
 17 35  1  0
 18 36  1  0
 19 37  1  0
 20 38  1  0
 21 39  1  0
 22 40  1  0
M  CHG  1  22   1
M  END
>  <UniqueID>  (22) 
20

>  <SMILES>  (22) 
COc1ncc(CNc2ccc(-c3ccccc3)cc2)c[nH+]1

>  <Energy>  (22) 
45.3102514329178

>  <Genealogy>  (22) 
COc1ncc(CNc2ccc(-c3ccccc3)cc2)c[nH+]1 (protonated)
COc1ncc(CNc2ccc(-c3ccccc3)cc2)c[nH+]1 (3D coordinates assigned)
COc1ncc(CNc2ccc(-c3ccccc3)cc2)c[nH+]1 (optimized conformer: 45.3102514329178 kcal/mol)

>  <smiles>  (22) 
COc1ncc(CNc2ccc(-c3ccccc3)cc2)cn1

>  <score_type>  (22) 
oracle

>  <origin>  (22) 
adg

>  <m_score__min__energy>  (22) 
-7.7999999999999998

>  <m_primary>  (22) 
energy

$$$$
22:0
     RDKit          3D

 28 29  0  0  0  0  0  0  0  0999 V2000
   -9.4980   19.3140  -32.7050 C   0  0  0  0  0  0  0  0  0  0  0  0
   -8.4270   20.2810  -32.2910 C   0  0  0  0  0  0  0  0  0  0  0  0
   -8.6910   21.2590  -31.3350 C   0  0  0  0  0  0  0  0  0  0  0  0
   -7.6770   22.1280  -30.9300 C   0  0  0  0  0  0  0  0  0  0  0  0
   -6.4040   22.0320  -31.4460 N   0  0  0  0  0  0  0  0  0  0  0  0
   -5.3930   22.8850  -31.0420 C   0  0  0  0  0  0  0  0  0  0  0  0
   -5.5930   23.9880  -30.0180 C   0  0  0  0  0  0  0  0  0  0  0  0
   -5.2960   25.3590  -30.6250 C   0  0  0  0  0  0  0  0  0  0  0  0
   -3.9110   25.5720  -30.6420 O   0  0  0  0  0  0  0  0  0  0  0  0
   -4.1200   22.7710  -31.6200 C   0  0  0  0  0  0  0  0  0  0  0  0
   -3.8850   21.7830  -32.5640 C   0  0  0  0  0  0  0  0  0  0  0  0
   -2.7420   21.6680  -33.0820 O   0  0  0  0  0  0  0  0  0  0  0  0
   -4.8840   20.9430  -32.9260 N   0  0  0  0  0  0  0  0  0  0  0  0
   -6.1310   21.0560  -32.3890 C   0  0  0  0  0  0  0  0  0  0  0  0
   -7.1370   20.1710  -32.8080 C   0  0  0  0  0  0  0  0  0  0  0  0
   -9.9719   18.8861  -31.8092 H   0  0  0  0  0  0  0  0  0  0  0  0
  -10.2553   19.8403  -33.3046 H   0  0  0  0  0  0  0  0  0  0  0  0
   -9.0516   18.5070  -33.3046 H   0  0  0  0  0  0  0  0  0  0  0  0
   -9.6975   21.3463  -30.8998 H   0  0  0  0  0  0  0  0  0  0  0  0
   -7.8991   22.9051  -30.1838 H   0  0  0  0  0  0  0  0  0  0  0  0
   -6.6352   23.9682  -29.6668 H   0  0  0  0  0  0  0  0  0  0  0  0
   -4.9008   23.8182  -29.1801 H   0  0  0  0  0  0  0  0  0  0  0  0
   -5.6855   25.3971  -31.6530 H   0  0  0  0  0  0  0  0  0  0  0  0
   -5.7798   26.1403  -30.0205 H   0  0  0  0  0  0  0  0  0  0  0  0
   -3.6600   25.6660  -31.5980 H   0  0  0  0  0  0  0  0  0  0  0  0
   -3.3144   23.4601  -31.3266 H   0  0  0  0  0  0  0  0  0  0  0  0
   -4.6850   20.2040  -33.6400 H   0  0  0  0  0  0  0  0  0  0  0  0
   -6.9068   19.3887  -33.5462 H   0  0  0  0  0  0  0  0  0  0  0  0
  1  2  1  0
  2  3  1  0
  3  4  2  0
  4  5  1  0
  5  6  1  0
  6  7  1  0
  7  8  1  0
  8  9  1  0
  6 10  2  0
 10 11  1  0
 11 12  2  0
 11 13  1  0
 13 14  2  0
 14 15  1  0
 15  2  2  0
 14  5  1  0
  1 16  1  0
  1 17  1  0
  1 18  1  0
  3 19  1  0
  4 20  1  0
  7 21  1  0
  7 22  1  0
  8 23  1  0
  8 24  1  0
  9 25  1  0
 10 26  1  0
 13 27  1  0
 15 28  1  0
M  CHG  1  13   1
M  END
>  <UniqueID>  (23) 
21

>  <SMILES>  (23) 
Cc1ccn2c(CCO)cc(=O)[nH+]c2c1

>  <Energy>  (23) 
32.62476611149597

>  <Genealogy>  (23) 
Cc1ccn2c(CCO)cc(=O)[nH+]c2c1 (protonated)
Cc1ccn2c(CCO)cc(=O)[nH+]c2c1 (3D coordinates assigned)
Cc1ccn2c(CCO)cc(=O)[nH+]c2c1 (optimized conformer: 32.62476611149597 kcal/mol)

>  <smiles>  (23) 
Cc1ccn2c(CCO)cc(=O)nc2c1

>  <score_type>  (23) 
oracle

>  <origin>  (23) 
adg

>  <m_score__min__energy>  (23) 
-6.5899999999999999

>  <m_primary>  (23) 
energy

$$$$
23:0
     RDKit          3D

 70 73  0  0  0  0  0  0  0  0999 V2000
   -1.6900   16.1310  -34.9310 C   0  0  0  0  0  0  0  0  0  0  0  0
   -2.8480   15.5440  -35.7520 C   0  0  0  0  0  0  0  0  0  0  0  0
   -3.8000   14.7160  -34.9720 N   0  0  0  0  0  0  0  0  0  0  0  0
   -4.0410   13.3620  -35.5290 C   0  0  0  0  0  0  0  0  0  0  0  0
   -3.7990   12.2200  -34.5390 C   0  0  0  0  0  0  0  0  0  0  0  0
   -3.6470   14.8050  -33.5000 C   0  0  0  0  0  0  0  0  0  0  0  0
   -4.9760   15.0750  -32.7780 C   0  0  0  0  0  0  0  0  0  0  0  0
   -6.1430   15.2780  -33.7640 C   0  0  0  0  0  0  0  0  0  0  0  0
   -5.9480   16.4640  -34.6160 N   0  0  0  0  0  0  0  0  0  0  0  0
   -5.5150   17.6060  -33.8420 C   0  0  0  0  0  0  0  0  0  0  0  0
   -4.2480   18.1760  -34.0620 C   0  0  0  0  0  0  0  0  0  0  0  0
   -3.8050   19.2450  -33.2790 C   0  0  0  0  0  0  0  0  0  0  0  0
   -4.6240   19.7620  -32.2690 C   0  0  0  0  0  0  0  0  0  0  0  0
   -4.1550   20.8360  -31.4380 C   0  0  0  0  0  0  0  0  0  0  0  0
   -3.7450   21.7410  -30.7550 C   0  0  0  0  0  0  0  0  0  0  0  0
   -3.2660   22.8630  -29.9320 C   0  0  1  0  0  0  0  0  0  0  0  0
   -1.7960   22.6740  -29.5090 C   0  0  0  0  0  0  0  0  0  0  0  0
   -1.4620   23.4900  -28.3390 N   0  0  0  0  0  0  0  0  0  0  0  0
   -1.3260   22.9790  -26.9700 C   0  0  0  0  0  0  0  0  0  0  0  0
   -1.0970   24.2230  -26.1590 C   0  0  0  0  0  0  0  0  0  0  0  0
   -0.8680   24.3260  -24.7880 C   0  0  0  0  0  0  0  0  0  0  0  0
   -0.6820   25.6040  -24.2310 C   0  0  0  0  0  0  0  0  0  0  0  0
   -0.7290   26.7630  -25.0490 C   0  0  0  0  0  0  0  0  0  0  0  0
   -0.5480   28.0540  -24.5310 O   0  0  0  0  0  0  0  0  0  0  0  0
    0.6940   28.5620  -24.0570 C   0  0  0  0  0  0  0  0  0  0  0  0
   -0.9630   26.6280  -26.4300 C   0  0  0  0  0  0  0  0  0  0  0  0
   -1.1400   25.3480  -26.9510 C   0  0  0  0  0  0  0  0  0  0  0  0
   -1.3850   24.9120  -28.3020 C   0  0  0  0  0  0  0  0  0  0  0  0
   -1.5480   25.6630  -29.3000 O   0  0  0  0  0  0  0  0  0  0  0  0
   -3.4580   24.1200  -30.6470 N   0  0  0  0  0  0  0  0  0  0  0  0
   -4.3660   24.9160  -29.8990 C   0  0  0  0  0  0  0  0  0  0  0  0
   -4.7420   26.0590  -30.2680 O   0  0  0  0  0  0  0  0  0  0  0  0
   -4.8220   24.3010  -28.7070 N   0  0  0  0  0  0  0  0  0  0  0  0
   -4.1540   23.0440  -28.7320 C   0  0  0  0  0  0  0  0  0  0  0  0
   -4.3050   22.1820  -27.8260 O   0  0  0  0  0  0  0  0  0  0  0  0
   -5.8920   19.2110  -32.0500 C   0  0  0  0  0  0  0  0  0  0  0  0
   -6.3390   18.1410  -32.8310 C   0  0  0  0  0  0  0  0  0  0  0  0
   -7.5690   17.6180  -32.5960 F   0  0  0  0  0  0  0  0  0  0  0  0
   -1.9080   16.0205  -33.8585 H   0  0  0  0  0  0  0  0  0  0  0  0
   -0.7603   15.5953  -35.1733 H   0  0  0  0  0  0  0  0  0  0  0  0
   -1.5725   17.1975  -35.1733 H   0  0  0  0  0  0  0  0  0  0  0  0
   -3.4070   16.3778  -36.2017 H   0  0  0  0  0  0  0  0  0  0  0  0
   -2.3937   14.8766  -36.4991 H   0  0  0  0  0  0  0  0  0  0  0  0
   -5.0868   13.3096  -35.8661 H   0  0  0  0  0  0  0  0  0  0  0  0
   -3.3197   13.2261  -36.3483 H   0  0  0  0  0  0  0  0  0  0  0  0
   -3.8801   12.6026  -33.5109 H   0  0  0  0  0  0  0  0  0  0  0  0
   -4.5501   11.4321  -34.6973 H   0  0  0  0  0  0  0  0  0  0  0  0
   -2.7929   11.8045  -34.6973 H   0  0  0  0  0  0  0  0  0  0  0  0
   -3.2338   13.8545  -33.1316 H   0  0  0  0  0  0  0  0  0  0  0  0
   -2.9770   15.6512  -33.2875 H   0  0  0  0  0  0  0  0  0  0  0  0
   -5.2065   14.2182  -32.1278 H   0  0  0  0  0  0  0  0  0  0  0  0
   -4.8616   16.0006  -32.1947 H   0  0  0  0  0  0  0  0  0  0  0  0
   -6.2233   14.3888  -34.4066 H   0  0  0  0  0  0  0  0  0  0  0  0
   -7.0606   15.4297  -33.1766 H   0  0  0  0  0  0  0  0  0  0  0  0
   -5.2610   16.2490  -35.3770 H   0  0  0  0  0  0  0  0  0  0  0  0
   -6.8560   16.6960  -35.0830 H   0  0  0  0  0  0  0  0  0  0  0  0
   -3.6008   17.7769  -34.8569 H   0  0  0  0  0  0  0  0  0  0  0  0
   -2.8108   19.6809  -33.4568 H   0  0  0  0  0  0  0  0  0  0  0  0
   -1.6282   21.6146  -29.2650 H   0  0  0  0  0  0  0  0  0  0  0  0
   -1.1543   22.9913  -30.3442 H   0  0  0  0  0  0  0  0  0  0  0  0
   -2.2426   22.4624  -26.6492 H   0  0  0  0  0  0  0  0  0  0  0  0
   -0.5175   22.2406  -26.8640 H   0  0  0  0  0  0  0  0  0  0  0  0
   -0.8335   23.4269  -24.1551 H   0  0  0  0  0  0  0  0  0  0  0  0
   -0.4984   25.7063  -23.1513 H   0  0  0  0  0  0  0  0  0  0  0  0
    0.6943   28.5621  -22.9570 H   0  0  0  0  0  0  0  0  0  0  0  0
    1.5139   27.9270  -24.4238 H   0  0  0  0  0  0  0  0  0  0  0  0
    0.8338   29.5896  -24.4238 H   0  0  0  0  0  0  0  0  0  0  0  0
   -1.0052   27.5123  -27.0829 H   0  0  0  0  0  0  0  0  0  0  0  0
   -3.0870   24.3560  -31.5940 H   0  0  0  0  0  0  0  0  0  0  0  0
   -6.5390   19.6213  -31.2607 H   0  0  0  0  0  0  0  0  0  0  0  0
  1  2  1  0
  2  3  1  0
  3  4  1  0
  4  5  1  0
  3  6  1  0
  6  7  1  0
  7  8  1  0
  8  9  1  0
  9 10  1  0
 10 11  2  0
 11 12  1  0
 12 13  2  0
 13 14  1  0
 14 15  3  0
 16 15  1  6
 16 17  1  0
 17 18  1  0
 18 19  1  0
 19 20  1  0
 20 21  2  0
 21 22  1  0
 22 23  2  0
 23 24  1  0
 24 25  1  0
 23 26  1  0
 26 27  2  0
 27 28  1  0
 28 29  2  0
 16 30  1  0
 30 31  1  0
 31 32  2  0
 31 33  1  0
 33 34  1  0
 34 35  2  0
 13 36  1  0
 36 37  2  0
 37 38  1  0
 37 10  1  0
 34 16  1  0
 28 18  1  0
 27 20  1  0
  1 39  1  0
  1 40  1  0
  1 41  1  0
  2 42  1  0
  2 43  1  0
  4 44  1  0
  4 45  1  0
  5 46  1  0
  5 47  1  0
  5 48  1  0
  6 49  1  0
  6 50  1  0
  7 51  1  0
  7 52  1  0
  8 53  1  0
  8 54  1  0
  9 55  1  0
  9 56  1  0
 11 57  1  0
 12 58  1  0
 17 59  1  0
 17 60  1  0
 19 61  1  0
 19 62  1  0
 21 63  1  0
 22 64  1  0
 25 65  1  0
 25 66  1  0
 25 67  1  0
 26 68  1  0
 30 69  1  0
 36 70  1  0
M  CHG  2   9   1  33  -1
M  END
>  <UniqueID>  (24) 
22

>  <SMILES>  (24) 
CCN(CC)CCC[NH2+]c1ccc(C#C[C@@]2(CN3Cc4ccc(OC)cc4C3=O)NC(=O)[N-]C2=O)cc1F

>  <Energy>  (24) 
107.66013031693754

>  <Genealogy>  (24) 
CCN(CC)CCC[NH2+]c1ccc(C#CC2(CN3Cc4ccc(OC)cc4C3=O)NC(=O)[N-]C2=O)cc1F (protonated)
CCN(CC)CCC[NH2+]c1ccc(C#C[C@@]2(CN3Cc4ccc(OC)cc4C3=O)NC(=O)[N-]C2=O)cc1F (chirality)
CCN(CC)CCC[NH2+]c1ccc(C#C[C@@]2(CN3Cc4ccc(OC)cc4C3=O)NC(=O)[N-]C2=O)cc1F (3D coordinates assigned)
CCN(CC)CCC[NH2+]c1ccc(C#C[C@@]2(CN3Cc4ccc(OC)cc4C3=O)NC(=O)[N-]C2=O)cc1F (nonaromatic ring conformer: 107.66013031693754 kcal/mol)

>  <smiles>  (24) 
CCN(CC)CCCNc1ccc(C#CC2(CN3Cc4ccc(OC)cc4C3=O)NC(=O)NC2=O)cc1F

>  <score_type>  (24) 
oracle

>  <origin>  (24) 
adg

>  <m_score__min__energy>  (24) 
-8.5199999999999996

>  <m_primary>  (24) 
energy

$$$$
24:0
     RDKit          3D

 39 42  0  0  0  0  0  0  0  0999 V2000
    0.3900   21.6940  -35.3700 C   0  0  0  0  0  0  0  0  0  0  0  0
   -0.2070   21.7600  -34.0810 O   0  0  0  0  0  0  0  0  0  0  0  0
   -1.4380   21.1690  -33.7870 C   0  0  0  0  0  0  0  0  0  0  0  0
   -1.7260   19.9070  -34.2070 N   0  0  0  0  0  0  0  0  0  0  0  0
   -2.9200   19.3280  -33.9260 C   0  0  0  0  0  0  0  0  0  0  0  0
   -3.8920   20.0310  -33.1960 C   0  0  0  0  0  0  0  0  0  0  0  0
   -5.1980   19.3980  -32.8810 C   0  0  0  0  0  0  0  0  0  0  0  0
   -5.3300   17.9810  -32.7290 C   0  0  0  0  0  0  0  0  0  0  0  0
   -6.5430   17.4300  -32.4100 N   0  0  0  0  0  0  0  0  0  0  0  0
   -7.5960   18.2660  -32.2660 C   0  0  0  0  0  0  0  0  0  0  0  0
   -8.8540   17.9680  -31.8990 N   0  0  0  0  0  0  0  0  0  0  0  0
   -9.4830   19.1450  -31.8290 N   0  0  0  0  0  0  0  0  0  0  0  0
   -8.6630   20.1480  -32.1390 N   0  0  0  0  0  0  0  0  0  0  0  0
   -9.0100   21.5650  -32.0960 C   0  0  0  0  0  0  0  0  0  0  0  0
   -7.8480   22.3650  -31.5740 C   0  0  0  0  0  0  0  0  0  0  0  0
   -7.5040   22.3020  -30.2160 C   0  0  0  0  0  0  0  0  0  0  0  0
   -6.3970   23.0060  -29.7340 C   0  0  0  0  0  0  0  0  0  0  0  0
   -5.6080   23.7790  -30.6040 C   0  0  0  0  0  0  0  0  0  0  0  0
   -4.4670   24.5000  -30.1060 N   0  0  0  0  0  0  0  0  0  0  0  0
   -3.8650   25.3200  -30.8310 O   0  0  0  0  0  0  0  0  0  0  0  0
   -4.0200   24.2990  -28.8200 O   0  0  0  0  0  0  0  0  0  0  0  0
   -5.9500   23.8290  -31.9680 C   0  0  0  0  0  0  0  0  0  0  0  0
   -7.0590   23.1260  -32.4490 C   0  0  0  0  0  0  0  0  0  0  0  0
   -7.4760   19.5960  -32.4100 C   0  0  0  0  0  0  0  0  0  0  0  0
   -6.2990   20.1950  -32.7020 N   0  0  0  0  0  0  0  0  0  0  0  0
   -3.5670   21.3270  -32.7670 C   0  0  0  0  0  0  0  0  0  0  0  0
   -2.3570   21.8640  -33.0700 N   0  0  0  0  0  0  0  0  0  0  0  0
    1.4783   21.5737  -35.2643 H   0  0  0  0  0  0  0  0  0  0  0  0
   -0.0219   20.8359  -35.9214 H   0  0  0  0  0  0  0  0  0  0  0  0
    0.1754   22.6213  -35.9214 H   0  0  0  0  0  0  0  0  0  0  0  0
   -3.1276   18.3044  -34.2711 H   0  0  0  0  0  0  0  0  0  0  0  0
   -4.4534   17.3314  -32.8690 H   0  0  0  0  0  0  0  0  0  0  0  0
   -9.2625   21.9089  -33.1099 H   0  0  0  0  0  0  0  0  0  0  0  0
   -9.8729   21.7047  -31.4282 H   0  0  0  0  0  0  0  0  0  0  0  0
   -8.1088   21.6951  -29.5262 H   0  0  0  0  0  0  0  0  0  0  0  0
   -6.1410   22.9549  -28.6654 H   0  0  0  0  0  0  0  0  0  0  0  0
   -5.3399   24.4261  -32.6617 H   0  0  0  0  0  0  0  0  0  0  0  0
   -7.3137   23.1700  -33.5182 H   0  0  0  0  0  0  0  0  0  0  0  0
   -4.2948   21.9099  -32.1833 H   0  0  0  0  0  0  0  0  0  0  0  0
  1  2  1  0
  2  3  1  0
  3  4  2  0
  4  5  1  0
  5  6  2  0
  6  7  1  0
  7  8  2  0
  8  9  1  0
  9 10  2  0
 10 11  1  0
 11 12  2  0
 12 13  1  0
 13 14  1  0
 14 15  1  0
 15 16  2  0
 16 17  1  0
 17 18  2  0
 18 19  1  0
 19 20  2  0
 19 21  1  0
 18 22  1  0
 22 23  2  0
 13 24  1  0
 24 25  2  0
  6 26  1  0
 26 27  2  0
 27  3  1  0
 25  7  1  0
 24 10  1  0
 23 15  1  0
  1 28  1  0
  1 29  1  0
  1 30  1  0
  5 31  1  0
  8 32  1  0
 14 33  1  0
 14 34  1  0
 16 35  1  0
 17 36  1  0
 22 37  1  0
 23 38  1  0
 26 39  1  0
M  CHG  2  19   1  21  -1
M  END
>  <UniqueID>  (25) 
23

>  <SMILES>  (25) 
COc1ncc(-c2cnc3nnn(Cc4ccc([N+](=O)[O-])cc4)c3n2)cn1

>  <Energy>  (25) 
96.04142646102379

>  <Genealogy>  (25) 
COc1ncc(-c2cnc3nnn(Cc4ccc([N+](=O)[O-])cc4)c3n2)cn1 (3D coordinates assigned)
COc1ncc(-c2cnc3nnn(Cc4ccc([N+](=O)[O-])cc4)c3n2)cn1 (optimized conformer: 96.04142646102379 kcal/mol)

>  <smiles>  (25) 
COc1ncc(-c2cnc3nnn(Cc4ccc([N+](=O)[O-])cc4)c3n2)cn1

>  <score_type>  (25) 
oracle

>  <origin>  (25) 
adg

>  <m_score__min__energy>  (25) 
-9.5999999999999996

>  <m_primary>  (25) 
energy

$$$$
25:0
     RDKit          3D

 51 53  0  0  0  0  0  0  0  0999 V2000
   -8.3800   20.5800  -32.3490 C   0  0  0  0  0  0  0  0  0  0  0  0
   -9.1270   21.8050  -31.2320 S   0  0  0  0  0  0  0  0  0  0  0  0
   -7.5920   22.7020  -31.0050 C   0  0  0  0  0  0  0  0  0  0  0  0
   -6.9650   22.7140  -29.7540 C   0  0  0  0  0  0  0  0  0  0  0  0
   -5.7560   23.3970  -29.5810 C   0  0  0  0  0  0  0  0  0  0  0  0
   -5.1620   24.0690  -30.6620 C   0  0  0  0  0  0  0  0  0  0  0  0
   -3.8730   24.8110  -30.4690 C   0  0  0  0  0  0  0  0  0  0  0  0
   -3.1410   24.2360  -29.3480 N   0  0  0  0  0  0  0  0  0  0  0  0
   -2.0710   24.8950  -28.6580 C   0  0  0  0  0  0  0  0  0  0  0  0
   -1.3180   25.6740  -29.3030 O   0  0  0  0  0  0  0  0  0  0  0  0
   -1.8440   24.7120  -27.1840 C   0  0  0  0  0  0  0  0  0  0  0  0
   -0.4940   23.5770  -26.8720 S   0  0  0  0  0  0  0  0  0  0  0  0
    0.2640   23.3380  -28.1490 O   0  0  0  0  0  0  0  0  0  0  0  0
    0.4450   24.1440  -25.8430 O   0  0  0  0  0  0  0  0  0  0  0  0
   -1.1650   22.0270  -26.2890 C   0  0  0  0  0  0  0  0  0  0  0  0
   -1.8580   21.3040  -27.4030 C   0  0  0  0  0  0  0  0  0  0  0  0
   -2.0080   21.8050  -28.6420 N   0  0  0  0  0  0  0  0  0  0  0  0
   -2.7550   20.8900  -29.2970 C   0  0  0  0  0  0  0  0  0  0  0  0
   -3.1930   20.9980  -30.7090 C   0  0  0  0  0  0  0  0  0  0  0  0
   -2.4430   21.7750  -31.6100 C   0  0  0  0  0  0  0  0  0  0  0  0
   -2.8350   21.8900  -32.9470 C   0  0  0  0  0  0  0  0  0  0  0  0
   -3.9790   21.2280  -33.3990 C   0  0  0  0  0  0  0  0  0  0  0  0
   -4.7310   20.4490  -32.5160 C   0  0  0  0  0  0  0  0  0  0  0  0
   -5.8380   19.8020  -32.9580 F   0  0  0  0  0  0  0  0  0  0  0  0
   -4.3440   20.3330  -31.1780 C   0  0  0  0  0  0  0  0  0  0  0  0
   -3.0650   19.8720  -28.5180 O   0  0  0  0  0  0  0  0  0  0  0  0
   -2.5290   20.0980  -27.3420 C   0  0  0  0  0  0  0  0  0  0  0  0
   -2.7000   19.2050  -26.1560 C   0  0  0  0  0  0  0  0  0  0  0  0
   -5.8080   24.0760  -31.9080 C   0  0  0  0  0  0  0  0  0  0  0  0
   -7.0150   23.3900  -32.0800 C   0  0  0  0  0  0  0  0  0  0  0  0
   -7.8977   19.7890  -31.7559 H   0  0  0  0  0  0  0  0  0  0  0  0
   -9.1620   20.1373  -32.9834 H   0  0  0  0  0  0  0  0  0  0  0  0
   -7.6284   21.0725  -32.9834 H   0  0  0  0  0  0  0  0  0  0  0  0
   -7.4234   22.1856  -28.9051 H   0  0  0  0  0  0  0  0  0  0  0  0
   -5.2690   23.4077  -28.5948 H   0  0  0  0  0  0  0  0  0  0  0  0
   -3.2650   24.7322  -31.3823 H   0  0  0  0  0  0  0  0  0  0  0  0
   -4.0885   25.8693  -30.2602 H   0  0  0  0  0  0  0  0  0  0  0  0
   -1.6043   25.6868  -26.7342 H   0  0  0  0  0  0  0  0  0  0  0  0
   -2.7596   24.2943  -26.7400 H   0  0  0  0  0  0  0  0  0  0  0  0
   -0.3471   21.4002  -25.9041 H   0  0  0  0  0  0  0  0  0  0  0  0
   -1.8931   22.2321  -25.4904 H   0  0  0  0  0  0  0  0  0  0  0  0
   -1.6310   22.7130  -28.9940 H   0  0  0  0  0  0  0  0  0  0  0  0
   -1.5402   22.2967  -31.2597 H   0  0  0  0  0  0  0  0  0  0  0  0
   -2.2425   22.5019  -33.6431 H   0  0  0  0  0  0  0  0  0  0  0  0
   -4.2880   21.3201  -34.4507 H   0  0  0  0  0  0  0  0  0  0  0  0
   -4.9409   19.7194  -30.4872 H   0  0  0  0  0  0  0  0  0  0  0  0
   -2.5872   19.7943  -25.2340 H   0  0  0  0  0  0  0  0  0  0  0  0
   -3.7015   18.7506  -26.1805 H   0  0  0  0  0  0  0  0  0  0  0  0
   -1.9372   18.4128  -26.1805 H   0  0  0  0  0  0  0  0  0  0  0  0
   -5.3635   24.6230  -32.7525 H   0  0  0  0  0  0  0  0  0  0  0  0
   -7.5119   23.3909  -33.0614 H   0  0  0  0  0  0  0  0  0  0  0  0
  1  2  1  0
  2  3  1  0
  3  4  2  0
  4  5  1  0
  5  6  2  0
  6  7  1  0
  7  8  1  0
  8  9  1  0
  9 10  2  0
  9 11  1  0
 11 12  1  0
 12 13  2  0
 12 14  2  0
 12 15  1  0
 15 16  1  0
 16 17  1  0
 17 18  2  0
 18 19  1  0
 19 20  2  0
 20 21  1  0
 21 22  2  0
 22 23  1  0
 23 24  1  0
 23 25  2  0
 18 26  1  0
 26 27  1  0
 27 28  1  0
  6 29  1  0
 29 30  2  0
 30  3  1  0
 27 16  2  0
 25 19  1  0
  1 31  1  0
  1 32  1  0
  1 33  1  0
  4 34  1  0
  5 35  1  0
  7 36  1  0
  7 37  1  0
 11 38  1  0
 11 39  1  0
 15 40  1  0
 15 41  1  0
 17 42  1  0
 20 43  1  0
 21 44  1  0
 22 45  1  0
 25 46  1  0
 28 47  1  0
 28 48  1  0
 28 49  1  0
 29 50  1  0
 30 51  1  0
M  CHG  2   8  -1  17   1
M  END
>  <UniqueID>  (26) 
24

>  <SMILES>  (26) 
CSc1ccc(C[N-]C(=O)CS(=O)(=O)Cc2[nH+]c(-c3cccc(F)c3)oc2C)cc1

>  <Energy>  (26) 
68.5166891367384

>  <Genealogy>  (26) 
CSc1ccc(C[N-]C(=O)CS(=O)(=O)Cc2[nH+]c(-c3cccc(F)c3)oc2C)cc1 (protonated)
CSc1ccc(C[N-]C(=O)CS(=O)(=O)Cc2[nH+]c(-c3cccc(F)c3)oc2C)cc1 (3D coordinates assigned)
CSc1ccc(C[N-]C(=O)CS(=O)(=O)Cc2[nH+]c(-c3cccc(F)c3)oc2C)cc1 (optimized conformer: 68.5166891367384 kcal/mol)

>  <smiles>  (26) 
CSc1ccc(CNC(=O)CS(=O)(=O)Cc2nc(-c3cccc(F)c3)oc2C)cc1

>  <score_type>  (26) 
oracle

>  <origin>  (26) 
adg

>  <m_score__min__energy>  (26) 
-10.5

>  <m_primary>  (26) 
energy

$$$$
26:0
     RDKit          3D

 46 48  0  0  1  0  0  0  0  0999 V2000
   -4.1210   22.0300  -33.0890 C   0  0  0  0  0  0  0  0  0  0  0  0
   -4.0920   21.0180  -31.9760 C   0  0  0  0  0  0  0  0  0  0  0  0
   -4.0240   19.6180  -32.5470 C   0  0  0  0  0  0  0  0  0  0  0  0
   -5.3400   21.0420  -31.2490 O   0  0  0  0  0  0  0  0  0  0  0  0
   -6.5710   20.6300  -31.5910 C   0  0  0  0  0  0  0  0  0  0  0  0
   -6.9790   19.3030  -31.6570 C   0  0  0  0  0  0  0  0  0  0  0  0
   -8.2530   18.9160  -32.0140 C   0  0  0  0  0  0  0  0  0  0  0  0
   -9.2070   19.8420  -32.3300 C   0  0  0  0  0  0  0  0  0  0  0  0
   -8.8450   21.1660  -32.2800 C   0  0  0  0  0  0  0  0  0  0  0  0
   -7.5600   21.5630  -31.9210 C   0  0  0  0  0  0  0  0  0  0  0  0
   -7.2520   23.2860  -31.9890 Cl  0  0  0  0  0  0  0  0  0  0  0  0
   -3.0420   21.3260  -31.0170 C   0  0  0  0  0  0  0  0  0  0  0  0
   -2.3930   20.2340  -30.6590 O   0  0  0  0  0  0  0  0  0  0  0  0
   -2.5720   22.4770  -30.4010 N   0  0  0  0  0  0  0  0  0  0  0  0
   -1.3600   22.3780  -29.7580 C   0  0  0  0  0  0  0  0  0  0  0  0
   -0.7850   23.4570  -29.1050 C   0  0  0  0  0  0  0  0  0  0  0  0
   -1.4270   24.6750  -29.0860 C   0  0  0  0  0  0  0  0  0  0  0  0
   -0.8550   25.6520  -28.4660 N   0  0  0  0  0  0  0  0  0  0  0  0
   -0.8650   25.7650  -27.0450 C   0  0  0  0  0  0  0  0  0  0  0  0
   -0.8670   27.0320  -26.5070 C   0  0  0  0  0  0  0  0  0  0  0  0
   -0.8760   27.2130  -25.1340 C   0  0  0  0  0  0  0  0  0  0  0  0
   -0.8850   26.1100  -24.3020 C   0  0  0  0  0  0  0  0  0  0  0  0
   -0.8830   24.8320  -24.8600 C   0  0  0  0  0  0  0  0  0  0  0  0
   -0.8730   24.6380  -26.2330 C   0  0  0  0  0  0  0  0  0  0  0  0
   -2.5910   24.7560  -29.7090 N   0  0  0  0  0  0  0  0  0  0  0  0
   -3.1330   23.6850  -30.3410 C   0  0  0  0  0  0  0  0  0  0  0  0
   -4.2540   23.8720  -30.9050 N   0  0  0  0  0  0  0  0  0  0  0  0
   -4.1500   23.0435  -32.6624 H   0  0  0  0  0  0  0  0  0  0  0  0
   -3.2193   21.9189  -33.7092 H   0  0  0  0  0  0  0  0  0  0  0  0
   -5.0149   21.8675  -33.7092 H   0  0  0  0  0  0  0  0  0  0  0  0
   -3.9885   18.8880  -31.7249 H   0  0  0  0  0  0  0  0  0  0  0  0
   -4.9141   19.4307  -33.1656 H   0  0  0  0  0  0  0  0  0  0  0  0
   -3.1199   19.5178  -33.1656 H   0  0  0  0  0  0  0  0  0  0  0  0
   -6.2465   18.5200  -31.4113 H   0  0  0  0  0  0  0  0  0  0  0  0
   -8.5055   17.8458  -32.0450 H   0  0  0  0  0  0  0  0  0  0  0  0
  -10.2256   19.5387  -32.6135 H   0  0  0  0  0  0  0  0  0  0  0  0
   -9.5914   21.9341  -32.5307 H   0  0  0  0  0  0  0  0  0  0  0  0
   -0.8312   21.4135  -29.7622 H   0  0  0  0  0  0  0  0  0  0  0  0
    0.1858   23.3401  -28.6011 H   0  0  0  0  0  0  0  0  0  0  0  0
   -0.8614   27.9076  -27.1728 H   0  0  0  0  0  0  0  0  0  0  0  0
   -0.8760   28.2276  -24.7089 H   0  0  0  0  0  0  0  0  0  0  0  0
   -0.8937   26.2387  -23.2096 H   0  0  0  0  0  0  0  0  0  0  0  0
   -0.8895   23.9561  -24.1945 H   0  0  0  0  0  0  0  0  0  0  0  0
   -0.8715   23.6261  -26.6644 H   0  0  0  0  0  0  0  0  0  0  0  0
   -3.0880   25.6770  -29.7020 H   0  0  0  0  0  0  0  0  0  0  0  0
   -4.9800   23.1460  -30.9360 H   0  0  0  0  0  0  0  0  0  0  0  0
  1  2  1  0
  2  3  1  0
  2  4  1  0
  4  5  1  0
  5  6  2  0
  6  7  1  0
  7  8  2  0
  8  9  1  0
  9 10  2  0
 10 11  1  0
  2 12  1  0
 12 13  2  0
 12 14  1  0
 14 15  1  0
 15 16  2  0
 16 17  1  0
 17 18  2  0
 18 19  1  0
 19 20  2  0
 20 21  1  0
 21 22  2  0
 22 23  1  0
 23 24  2  0
 17 25  1  0
 25 26  1  0
 26 27  2  3
 10  5  1  0
 26 14  1  0
 24 19  1  0
  1 28  1  0
  1 29  1  0
  1 30  1  0
  3 31  1  0
  3 32  1  0
  3 33  1  0
  6 34  1  0
  7 35  1  0
  8 36  1  0
  9 37  1  0
 15 38  1  0
 16 39  1  0
 20 40  1  0
 21 41  1  0
 22 42  1  0
 23 43  1  0
 24 44  1  0
 25 45  1  0
 27 46  1  0
M  END
>  <smiles>  (27) 
CC(C)(Oc1ccccc1Cl)C(=O)n1ccc(=Nc2ccccc2)[nH]c1=N

>  <score_type>  (27) 
oracle

>  <origin>  (27) 
adg

>  <m_score__min__energy>  (27) 
-9.3100000000000005

>  <m_primary>  (27) 
energy

$$$$
27:0
     RDKit          3D

 46 47  0  0  0  0  0  0  0  0999 V2000
   -7.9962   21.9446  -30.1202 H   0  0  0  0  0  0  0  0  0  0  0  0
   -7.3880   21.7750  -31.0210 C   0  0  0  0  0  0  0  0  0  0  0  0
   -6.6520   22.8150  -31.4530 C   0  0  0  0  0  0  0  0  0  0  0  0
   -6.9130   24.1730  -30.9220 C   0  0  0  0  0  0  0  0  0  0  0  0
   -7.8925   24.6224  -31.1424 H   0  0  0  0  0  0  0  0  0  0  0  0
   -6.0500   24.9000  -30.1930 C   0  0  0  0  0  0  0  0  0  0  0  0
   -6.4725   25.6415  -29.4989 H   0  0  0  0  0  0  0  0  0  0  0  0
   -4.5730   24.7820  -30.2500 C   0  0  0  0  0  0  0  0  0  0  0  0
   -3.8860   25.6650  -30.8280 O   0  0  0  0  0  0  0  0  0  0  0  0
   -3.8900   23.6960  -29.6120 N   0  0  0  0  0  0  0  0  0  0  0  0
   -2.5450   23.7800  -29.0560 C   0  0  0  0  0  0  0  0  0  0  0  0
   -2.3020   24.8336  -28.8539 H   0  0  0  0  0  0  0  0  0  0  0  0
   -1.8332   23.3591  -29.7814 H   0  0  0  0  0  0  0  0  0  0  0  0
   -2.4530   22.9820  -27.7510 C   0  0  0  0  0  0  0  0  0  0  0  0
   -3.0724   23.4854  -26.9941 H   0  0  0  0  0  0  0  0  0  0  0  0
   -1.3887   22.9474  -27.4752 H   0  0  0  0  0  0  0  0  0  0  0  0
   -2.9280   21.5210  -27.8710 C   0  0  0  0  0  0  0  0  0  0  0  0
   -3.3792   21.3896  -28.8656 H   0  0  0  0  0  0  0  0  0  0  0  0
   -3.6363   21.3594  -27.0450 H   0  0  0  0  0  0  0  0  0  0  0  0
   -1.8240   20.4620  -27.7040 C   0  0  0  0  0  0  0  0  0  0  0  0
   -0.8548   20.9758  -27.6221 H   0  0  0  0  0  0  0  0  0  0  0  0
   -1.8655   19.8017  -28.5828 H   0  0  0  0  0  0  0  0  0  0  0  0
   -2.0190   19.5840  -26.4600 C   0  0  0  0  0  0  0  0  0  0  0  0
   -1.8812   20.2011  -25.5599 H   0  0  0  0  0  0  0  0  0  0  0  0
   -1.2798   18.7699  -26.4885 H   0  0  0  0  0  0  0  0  0  0  0  0
   -3.4150   18.9690  -26.4330 C   0  0  0  0  0  0  0  0  0  0  0  0
   -3.7337   18.8286  -25.3896 H   0  0  0  0  0  0  0  0  0  0  0  0
   -4.1210   19.6394  -26.9450 H   0  0  0  0  0  0  0  0  0  0  0  0
   -3.3968   17.9956  -26.9450 H   0  0  0  0  0  0  0  0  0  0  0  0
   -5.6560   22.6840  -32.5630 C   0  0  0  0  0  0  0  0  0  0  0  0
   -5.1078   23.6308  -32.6772 H   0  0  0  0  0  0  0  0  0  0  0  0
   -6.1811   22.4485  -33.5004 H   0  0  0  0  0  0  0  0  0  0  0  0
   -4.6760   21.5670  -32.2370 C   0  0  0  0  0  0  0  0  0  0  0  0
   -4.5214   21.5248  -31.1487 H   0  0  0  0  0  0  0  0  0  0  0  0
   -3.7203   21.7674  -32.7434 H   0  0  0  0  0  0  0  0  0  0  0  0
   -5.1880   20.3220  -32.6870 O   0  0  0  0  0  0  0  0  0  0  0  0
   -6.4440   19.7710  -32.3910 C   0  0  0  0  0  0  0  0  0  0  0  0
   -6.6770   18.4830  -32.8990 C   0  0  0  0  0  0  0  0  0  0  0  0
   -5.7100   17.8530  -33.6130 F   0  0  0  0  0  0  0  0  0  0  0  0
   -7.8940   17.8370  -32.6900 C   0  0  0  0  0  0  0  0  0  0  0  0
   -8.0568   16.8272  -33.0948 H   0  0  0  0  0  0  0  0  0  0  0  0
   -8.9030   18.4680  -31.9700 C   0  0  0  0  0  0  0  0  0  0  0  0
   -9.8657   17.9600  -31.8111 H   0  0  0  0  0  0  0  0  0  0  0  0
   -8.6940   19.7440  -31.4500 C   0  0  0  0  0  0  0  0  0  0  0  0
   -9.5008   20.2357  -30.8867 H   0  0  0  0  0  0  0  0  0  0  0  0
   -7.4680   20.4170  -31.6320 C   0  0  0  0  0  0  0  0  0  0  0  0
  1  2  1  0
  2  3  2  0
  3  4  1  0
  4  5  1  0
  4  6  2  0
  6  7  1  0
  6  8  1  0
  8  9  2  0
  8 10  1  0
 10 11  1  0
 11 12  1  0
 11 13  1  0
 11 14  1  0
 14 15  1  0
 14 16  1  0
 14 17  1  0
 17 18  1  0
 17 19  1  0
 17 20  1  0
 20 21  1  0
 20 22  1  0
 20 23  1  0
 23 24  1  0
 23 25  1  0
 23 26  1  0
 26 27  1  0
 26 28  1  0
 26 29  1  0
  3 30  1  0
 30 31  1  0
 30 32  1  0
 30 33  1  0
 33 34  1  0
 33 35  1  0
 33 36  1  0
 36 37  1  0
 37 38  2  0
 38 39  1  0
 38 40  1  0
 40 41  1  0
 40 42  2  0
 42 43  1  0
 42 44  1  0
 44 45  1  0
 44 46  2  0
 46  2  1  0
 46 37  1  0
M  CHG  1  10  -1
M  END
>  <UniqueID>  (28) 
25

>  <SMILES>  (28) 
CCCCCC[N-]C(=O)/C=C\C1=Cc2cccc(F)c2OCC1

>  <Energy>  (28) 
52.61235472710541

>  <Genealogy>  (28) 
CCCCCC[N-]C(=O)C=CC1=Cc2cccc(F)c2OCC1 (protonated)
CCCCCC[N-]C(=O)/C=C\C1=Cc2cccc(F)c2OCC1 (cis-trans isomerization)
CCCCCC[N-]C(=O)/C=C\C1=Cc2cccc(F)c2OCC1 (3D coordinates assigned)
CCCCCC[N-]C(=O)/C=C\C1=Cc2cccc(F)c2OCC1 (nonaromatic ring conformer: 52.61235472710541 kcal/mol)

>  <smiles>  (28) 
CCCCCCNC(=O)C=CC1=Cc2cccc(F)c2OCC1

>  <score_type>  (28) 
oracle

>  <origin>  (28) 
adg

>  <m_score__min__energy>  (28) 
-7.9699999999999998

>  <m_primary>  (28) 
energy

$$$$
28:0
     RDKit          3D

 39 40  0  0  0  0  0  0  0  0999 V2000
   -3.6070   25.3000  -30.4510 O   0  0  0  0  0  0  0  0  0  0  0  0
   -4.5460   24.4620  -30.4610 C   0  0  0  0  0  0  0  0  0  0  0  0
   -4.7920   23.6250  -29.2380 C   0  0  0  0  0  0  0  0  0  0  0  0
   -4.2590   24.3130  -28.0560 N   0  0  0  0  0  0  0  0  0  0  0  0
   -3.1050   23.6070  -27.4670 C   0  0  1  0  0  0  0  0  0  0  0  0
   -2.4060   22.6790  -28.4910 C   0  0  0  0  0  0  0  0  0  0  0  0
   -1.4600   23.5070  -29.3600 C   0  0  0  0  0  0  0  0  0  0  0  0
   -0.9670   24.8680  -28.3470 S   0  0  0  0  0  0  0  0  0  0  0  0
    0.4680   24.7480  -27.9170 O   0  0  0  0  0  0  0  0  0  0  0  0
   -1.2090   26.1810  -29.0360 O   0  0  0  0  0  0  0  0  0  0  0  0
   -2.0730   24.6350  -26.9890 C   0  0  0  0  0  0  0  0  0  0  0  0
   -5.3790   24.3720  -31.6250 N   0  0  0  0  0  0  0  0  0  0  0  0
   -5.7560   23.1330  -32.2990 C   0  0  0  0  0  0  0  0  0  0  0  0
   -7.2630   22.8950  -32.1840 C   0  0  0  0  0  0  0  0  0  0  0  0
   -7.5740   21.4280  -32.3040 C   0  0  0  0  0  0  0  0  0  0  0  0
   -6.5830   20.5300  -32.7350 C   0  0  0  0  0  0  0  0  0  0  0  0
   -6.8570   19.1610  -32.8110 C   0  0  0  0  0  0  0  0  0  0  0  0
   -8.1180   18.6790  -32.4480 C   0  0  0  0  0  0  0  0  0  0  0  0
   -9.1050   19.5640  -32.0050 C   0  0  0  0  0  0  0  0  0  0  0  0
   -8.8340   20.9330  -31.9270 C   0  0  0  0  0  0  0  0  0  0  0  0
   -5.8735   23.4676  -29.1134 H   0  0  0  0  0  0  0  0  0  0  0  0
   -4.2896   22.6532  -29.3529 H   0  0  0  0  0  0  0  0  0  0  0  0
   -3.9920   25.2910  -28.3230 H   0  0  0  0  0  0  0  0  0  0  0  0
   -3.4855   22.9961  -26.6351 H   0  0  0  0  0  0  0  0  0  0  0  0
   -1.8328   21.9074  -27.9561 H   0  0  0  0  0  0  0  0  0  0  0  0
   -3.1626   22.1961  -29.1269 H   0  0  0  0  0  0  0  0  0  0  0  0
   -0.5849   22.9091  -29.6545 H   0  0  0  0  0  0  0  0  0  0  0  0
   -1.9443   23.8418  -30.2892 H   0  0  0  0  0  0  0  0  0  0  0  0
   -1.5291   24.2535  -26.1123 H   0  0  0  0  0  0  0  0  0  0  0  0
   -2.5499   25.5791  -26.6868 H   0  0  0  0  0  0  0  0  0  0  0  0
   -5.4808   23.2013  -33.3618 H   0  0  0  0  0  0  0  0  0  0  0  0
   -5.2270   22.2946  -31.8223 H   0  0  0  0  0  0  0  0  0  0  0  0
   -7.6141   23.2611  -31.2079 H   0  0  0  0  0  0  0  0  0  0  0  0
   -7.7720   23.4348  -32.9961 H   0  0  0  0  0  0  0  0  0  0  0  0
   -5.5874   20.9056  -33.0138 H   0  0  0  0  0  0  0  0  0  0  0  0
   -6.0801   18.4631  -33.1565 H   0  0  0  0  0  0  0  0  0  0  0  0
   -8.3337   17.6022  -32.5111 H   0  0  0  0  0  0  0  0  0  0  0  0
  -10.0960   19.1828  -31.7175 H   0  0  0  0  0  0  0  0  0  0  0  0
   -9.6100   21.6256  -31.5691 H   0  0  0  0  0  0  0  0  0  0  0  0
  1  2  2  0
  2  3  1  0
  3  4  1  0
  4  5  1  0
  5  6  1  0
  6  7  1  0
  7  8  1  0
  8  9  2  0
  8 10  2  0
  8 11  1  0
  2 12  1  0
 12 13  1  0
 13 14  1  0
 14 15  1  0
 15 16  2  0
 16 17  1  0
 17 18  2  0
 18 19  1  0
 19 20  2  0
 11  5  1  0
 20 15  1  0
  3 21  1  0
  3 22  1  0
  4 23  1  0
  5 24  1  1
  6 25  1  0
  6 26  1  0
  7 27  1  0
  7 28  1  0
 11 29  1  0
 11 30  1  0
 13 31  1  0
 13 32  1  0
 14 33  1  0
 14 34  1  0
 16 35  1  0
 17 36  1  0
 18 37  1  0
 19 38  1  0
 20 39  1  0
M  CHG  1  12  -1
M  END
>  <UniqueID>  (29) 
26

>  <SMILES>  (29) 
O=C(CN[C@H]1CCS(=O)(=O)C1)[N-]CCc1ccccc1

>  <Energy>  (29) 
30.99110472698397

>  <Genealogy>  (29) 
O=C(CNC1CCS(=O)(=O)C1)[N-]CCc1ccccc1 (protonated)
O=C(CN[C@H]1CCS(=O)(=O)C1)[N-]CCc1ccccc1 (chirality)
O=C(CN[C@H]1CCS(=O)(=O)C1)[N-]CCc1ccccc1 (3D coordinates assigned)
O=C(CN[C@H]1CCS(=O)(=O)C1)[N-]CCc1ccccc1 (nonaromatic ring conformer: 30.99110472698397 kcal/mol)

>  <smiles>  (29) 
O=C(CNC1CCS(=O)(=O)C1)NCCc1ccccc1

>  <score_type>  (29) 
oracle

>  <origin>  (29) 
adg

>  <m_score__min__energy>  (29) 
-9.8900000000000006

>  <m_primary>  (29) 
energy

$$$$
29:0
     RDKit          3D

 31 34  0  0  0  0  0  0  0  0999 V2000
    1.2980   28.1910  -22.7890 C   0  0  0  0  0  0  0  0  0  0  0  0
    1.0940   27.4110  -24.0500 C   0  0  0  0  0  0  0  0  0  0  0  0
    0.9790   26.0570  -24.0720 N   0  0  0  0  0  0  0  0  0  0  0  0
    0.5930   25.7680  -25.2980 N   0  0  0  0  0  0  0  0  0  0  0  0
   -0.2670   24.8560  -25.7570 C   0  0  0  0  0  0  0  0  0  0  0  0
   -0.9340   25.4840  -26.8080 C   0  0  0  0  0  0  0  0  0  0  0  0
   -2.0170   24.8890  -27.5960 C   0  0  0  0  0  0  0  0  0  0  0  0
   -2.7660   23.8420  -27.1580 N   0  0  0  0  0  0  0  0  0  0  0  0
   -3.6060   23.6520  -28.1900 C   0  0  0  0  0  0  0  0  0  0  0  0
   -4.6160   22.7010  -28.3070 C   0  0  0  0  0  0  0  0  0  0  0  0
   -5.3720   22.6950  -29.4960 C   0  0  0  0  0  0  0  0  0  0  0  0
   -5.1030   23.6330  -30.5220 C   0  0  0  0  0  0  0  0  0  0  0  0
   -6.1380   23.6110  -32.1250 Br  0  0  0  0  0  0  0  0  0  0  0  0
   -4.0720   24.5800  -30.3660 C   0  0  0  0  0  0  0  0  0  0  0  0
   -3.3480   24.5520  -29.1780 C   0  0  0  0  0  0  0  0  0  0  0  0
   -2.3590   25.3170  -28.8010 O   0  0  0  0  0  0  0  0  0  0  0  0
   -0.5520   26.7880  -26.9200 N   0  0  0  0  0  0  0  0  0  0  0  0
    0.4050   26.8790  -25.9730 C   0  0  0  0  0  0  0  0  0  0  0  0
    0.7300   27.9650  -25.2460 N   0  0  0  0  0  0  0  0  0  0  0  0
    0.3190   29.3420  -25.5000 C   0  0  0  0  0  0  0  0  0  0  0  0
    1.1269   27.5368  -21.9214 H   0  0  0  0  0  0  0  0  0  0  0  0
    2.3274   28.5775  -22.7594 H   0  0  0  0  0  0  0  0  0  0  0  0
    0.5896   29.0320  -22.7594 H   0  0  0  0  0  0  0  0  0  0  0  0
    0.9790   25.3990  -23.2600 H   0  0  0  0  0  0  0  0  0  0  0  0
   -0.4169   23.8312  -25.3864 H   0  0  0  0  0  0  0  0  0  0  0  0
   -4.8165   21.9804  -27.5004 H   0  0  0  0  0  0  0  0  0  0  0  0
   -6.1766   21.9566  -29.6281 H   0  0  0  0  0  0  0  0  0  0  0  0
   -3.8476   25.3142  -31.1538 H   0  0  0  0  0  0  0  0  0  0  0  0
    0.1641   29.8610  -24.5426 H   0  0  0  0  0  0  0  0  0  0  0  0
    1.1022   29.8584  -26.0745 H   0  0  0  0  0  0  0  0  0  0  0  0
   -0.6191   29.3446  -26.0745 H   0  0  0  0  0  0  0  0  0  0  0  0
  1  2  1  0
  2  3  2  0
  3  4  1  0
  4  5  1  0
  5  6  2  0
  6  7  1  0
  7  8  2  0
  8  9  1  0
  9 10  2  0
 10 11  1  0
 11 12  2  0
 12 13  1  0
 12 14  1  0
 14 15  2  0
 15 16  1  0
  6 17  1  0
 17 18  2  0
 18 19  1  0
 19 20  1  0
 19  2  1  0
 18  4  1  0
 16  7  1  0
 15  9  1  0
  1 21  1  0
  1 22  1  0
  1 23  1  0
  3 24  1  0
  5 25  1  0
 10 26  1  0
 11 27  1  0
 14 28  1  0
 20 29  1  0
 20 30  1  0
 20 31  1  0
M  CHG  1   3   1
M  END
>  <UniqueID>  (30) 
27

>  <SMILES>  (30) 
Cc1[nH+]n2cc(-c3nc4ccc(Br)cc4o3)nc2n1C

>  <Energy>  (30) 
165.24416682570762

>  <Genealogy>  (30) 
Cc1[nH+]n2cc(-c3nc4ccc(Br)cc4o3)nc2n1C (protonated)
Cc1[nH+]n2cc(-c3nc4ccc(Br)cc4o3)nc2n1C (3D coordinates assigned)
Cc1[nH+]n2cc(-c3nc4ccc(Br)cc4o3)nc2n1C (optimized conformer: 165.24416682570762 kcal/mol)

>  <smiles>  (30) 
Cc1nn2cc(-c3nc4ccc(Br)cc4o3)nc2n1C

>  <score_type>  (30) 
oracle

>  <origin>  (30) 
adg

>  <m_score__min__energy>  (30) 
-6.6900000000000004

>  <m_primary>  (30) 
energy

$$$$
30:0
     RDKit          3D

 34 35  0  0  0  0  0  0  0  0999 V2000
   -8.0860   22.6840  -31.2240 C   0  0  0  0  0  0  0  0  0  0  0  0
   -7.3910   21.9100  -32.3390 C   0  0  0  0  0  0  0  0  0  0  0  0
   -7.5130   20.4630  -32.1110 N   0  0  0  0  0  0  0  0  0  0  0  0
   -8.7400   19.9560  -31.4740 C   0  0  0  0  0  0  0  0  0  0  0  0
   -9.4030   18.9000  -32.3520 C   0  0  0  0  0  0  0  0  0  0  0  0
   -6.4090   19.5750  -32.4110 C   0  0  0  0  0  0  0  0  0  0  0  0
   -6.1860   18.1820  -31.5720 S   0  0  0  0  0  0  0  0  0  0  0  0
   -5.3460   19.8620  -33.8330 S   0  0  0  0  0  0  0  0  0  0  0  0
   -3.8570   20.2060  -32.8400 C   0  0  0  0  0  0  0  0  0  0  0  0
   -4.1120   21.3860  -31.9630 C   0  0  0  0  0  0  0  0  0  0  0  0
   -4.1150   21.3730  -30.5750 C   0  0  0  0  0  0  0  0  0  0  0  0
   -4.4430   22.6110  -30.1840 N   0  0  0  0  0  0  0  0  0  0  0  0
   -4.5940   23.1370  -28.9440 C   0  0  0  0  0  0  0  0  0  0  0  0
   -4.9630   24.4850  -28.8490 C   0  0  0  0  0  0  0  0  0  0  0  0
   -5.1600   25.2200  -30.0340 C   0  0  0  0  0  0  0  0  0  0  0  0
   -4.9950   24.6270  -31.2530 N   0  0  0  0  0  0  0  0  0  0  0  0
   -4.6360   23.3210  -31.3030 C   0  0  0  0  0  0  0  0  0  0  0  0
   -4.4510   22.6130  -32.4340 N   0  0  0  0  0  0  0  0  0  0  0  0
   -7.7465   22.3059  -30.2484 H   0  0  0  0  0  0  0  0  0  0  0  0
   -7.8382   23.7523  -31.3096 H   0  0  0  0  0  0  0  0  0  0  0  0
   -9.1747   22.5522  -31.3096 H   0  0  0  0  0  0  0  0  0  0  0  0
   -7.8564   22.1657  -33.3023 H   0  0  0  0  0  0  0  0  0  0  0  0
   -6.3249   22.1809  -32.3507 H   0  0  0  0  0  0  0  0  0  0  0  0
   -8.4847   19.5095  -30.5017 H   0  0  0  0  0  0  0  0  0  0  0  0
   -9.4401   20.7932  -31.3359 H   0  0  0  0  0  0  0  0  0  0  0  0
   -9.8799   18.1404  -31.7151 H   0  0  0  0  0  0  0  0  0  0  0  0
  -10.1643   19.3765  -32.9871 H   0  0  0  0  0  0  0  0  0  0  0  0
   -8.6430   18.4214  -32.9871 H   0  0  0  0  0  0  0  0  0  0  0  0
   -3.6194   19.3303  -32.2181 H   0  0  0  0  0  0  0  0  0  0  0  0
   -3.0093   20.4191  -33.5079 H   0  0  0  0  0  0  0  0  0  0  0  0
   -3.8918   20.5146  -29.9243 H   0  0  0  0  0  0  0  0  0  0  0  0
   -4.4324   22.5265  -28.0434 H   0  0  0  0  0  0  0  0  0  0  0  0
   -5.0965   24.9609  -27.8663 H   0  0  0  0  0  0  0  0  0  0  0  0
   -5.4490   26.2798  -29.9772 H   0  0  0  0  0  0  0  0  0  0  0  0
  1  2  1  0
  2  3  1  0
  3  4  1  0
  4  5  1  0
  3  6  1  0
  6  7  2  0
  6  8  1  0
  8  9  1  0
  9 10  1  0
 10 11  2  0
 11 12  1  0
 12 13  1  0
 13 14  2  0
 14 15  1  0
 15 16  2  0
 16 17  1  0
 17 18  2  0
 18 10  1  0
 17 12  1  0
  1 19  1  0
  1 20  1  0
  1 21  1  0
  2 22  1  0
  2 23  1  0
  4 24  1  0
  4 25  1  0
  5 26  1  0
  5 27  1  0
  5 28  1  0
  9 29  1  0
  9 30  1  0
 11 31  1  0
 13 32  1  0
 14 33  1  0
 15 34  1  0
M  END
>  <UniqueID>  (31) 
28

>  <SMILES>  (31) 
CCN(CC)C(=S)SCc1cn2cccnc2n1

>  <Energy>  (31) 
60.66363196889037

>  <Genealogy>  (31) 
CCN(CC)C(=S)SCc1cn2cccnc2n1 (3D coordinates assigned)
CCN(CC)C(=S)SCc1cn2cccnc2n1 (optimized conformer: 60.66363196889037 kcal/mol)

>  <smiles>  (31) 
CCN(CC)C(=S)SCc1cn2cccnc2n1

>  <score_type>  (31) 
oracle

>  <origin>  (31) 
adg

>  <m_score__min__energy>  (31) 
-6.9699999999999998

>  <m_primary>  (31) 
energy

$$$$
31:0
     RDKit          3D

 56 57  0  0  0  0  0  0  0  0999 V2000
   -5.1630   22.7800  -28.8530 N   0  0  0  0  0  0  0  0  0  0  0  0
   -3.7760   23.2090  -28.6700 C   0  0  0  0  0  0  0  0  0  0  0  0
   -3.2810   23.9980  -29.8850 C   0  0  0  0  0  0  0  0  0  0  0  0
   -4.3690   24.1600  -30.8640 N   0  0  0  0  0  0  0  0  0  0  0  0
   -4.9150   25.5240  -30.8520 C   0  0  0  0  0  0  0  0  0  0  0  0
   -5.9040   25.6920  -29.6930 C   0  0  0  0  0  0  0  0  0  0  0  0
   -7.2200   24.9560  -29.9560 C   0  0  0  0  0  0  0  0  0  0  0  0
   -6.9360   23.7040  -30.5420 O   0  0  0  0  0  0  0  0  0  0  0  0
   -7.8260   23.4720  -31.6160 C   0  0  0  0  0  0  0  0  0  0  0  0
   -8.2480   22.0020  -31.6280 C   0  0  0  0  0  0  0  0  0  0  0  0
   -7.2890   21.1510  -32.4690 C   0  0  0  0  0  0  0  0  0  0  0  0
   -6.2330   20.4650  -31.5880 C   0  0  0  0  0  0  0  0  0  0  0  0
   -5.1780   21.3970  -31.1600 N   0  0  0  0  0  0  0  0  0  0  0  0
   -3.9680   21.3490  -32.0080 C   0  0  0  0  0  0  0  0  0  0  0  0
   -4.2640   20.9160  -33.4550 C   0  0  0  0  0  0  0  0  0  0  0  0
   -3.8810   19.4850  -33.7020 C   0  0  0  0  0  0  0  0  0  0  0  0
   -2.5890   18.9920  -33.8600 C   0  0  0  0  0  0  0  0  0  0  0  0
   -2.6170   17.6590  -34.0850 N   0  0  0  0  0  0  0  0  0  0  0  0
   -3.9140   17.3070  -34.0750 C   0  0  0  0  0  0  0  0  0  0  0  0
   -4.4430   16.0310  -34.2650 C   0  0  0  0  0  0  0  0  0  0  0  0
   -5.8420   15.8850  -34.2170 C   0  0  0  0  0  0  0  0  0  0  0  0
   -6.6690   17.0050  -33.9800 C   0  0  0  0  0  0  0  0  0  0  0  0
   -6.1080   18.2810  -33.7910 C   0  0  0  0  0  0  0  0  0  0  0  0
   -4.7170   18.3950  -33.8450 C   0  0  0  0  0  0  0  0  0  0  0  0
   -5.2740   22.4760  -29.8480 H   0  0  0  0  0  0  0  0  0  0  0  0
   -5.7830   23.6140  -28.7260 H   0  0  0  0  0  0  0  0  0  0  0  0
   -3.7117   23.8470  -27.7762 H   0  0  0  0  0  0  0  0  0  0  0  0
   -3.1455   22.3155  -28.5517 H   0  0  0  0  0  0  0  0  0  0  0  0
   -2.9358   24.9899  -29.5580 H   0  0  0  0  0  0  0  0  0  0  0  0
   -2.4528   23.4487  -30.3565 H   0  0  0  0  0  0  0  0  0  0  0  0
   -5.1440   23.5040  -30.6090 H   0  0  0  0  0  0  0  0  0  0  0  0
   -4.0913   26.2433  -30.7331 H   0  0  0  0  0  0  0  0  0  0  0  0
   -5.4415   25.7066  -31.8004 H   0  0  0  0  0  0  0  0  0  0  0  0
   -5.4488   25.2903  -28.7757 H   0  0  0  0  0  0  0  0  0  0  0  0
   -6.1275   26.7639  -29.5875 H   0  0  0  0  0  0  0  0  0  0  0  0
   -7.7551   24.8062  -29.0067 H   0  0  0  0  0  0  0  0  0  0  0  0
   -7.8494   25.5503  -30.6347 H   0  0  0  0  0  0  0  0  0  0  0  0
   -8.7163   24.1069  -31.4967 H   0  0  0  0  0  0  0  0  0  0  0  0
   -7.3236   23.7143  -32.5641 H   0  0  0  0  0  0  0  0  0  0  0  0
   -8.2516   21.6223  -30.5956 H   0  0  0  0  0  0  0  0  0  0  0  0
   -9.2518   21.9338  -32.0728 H   0  0  0  0  0  0  0  0  0  0  0  0
   -7.8664   20.3810  -33.0017 H   0  0  0  0  0  0  0  0  0  0  0  0
   -6.7718   21.8113  -33.1807 H   0  0  0  0  0  0  0  0  0  0  0  0
   -6.7280   20.0555  -30.6951 H   0  0  0  0  0  0  0  0  0  0  0  0
   -5.7607   19.6695  -32.1832 H   0  0  0  0  0  0  0  0  0  0  0  0
   -5.5680   22.3640  -31.0790 H   0  0  0  0  0  0  0  0  0  0  0  0
   -3.5140   22.3508  -32.0279 H   0  0  0  0  0  0  0  0  0  0  0  0
   -3.2907   20.5996  -31.5725 H   0  0  0  0  0  0  0  0  0  0  0  0
   -5.3404   21.0343  -33.6482 H   0  0  0  0  0  0  0  0  0  0  0  0
   -3.6677   21.5491  -34.1285 H   0  0  0  0  0  0  0  0  0  0  0  0
   -1.6743   19.6008  -33.8090 H   0  0  0  0  0  0  0  0  0  0  0  0
   -1.7950   17.0350  -34.2390 H   0  0  0  0  0  0  0  0  0  0  0  0
   -3.7879   15.1662  -34.4466 H   0  0  0  0  0  0  0  0  0  0  0  0
   -6.2938   14.8930  -34.3649 H   0  0  0  0  0  0  0  0  0  0  0  0
   -7.7611   16.8784  -33.9429 H   0  0  0  0  0  0  0  0  0  0  0  0
   -6.7436   19.1597  -33.6068 H   0  0  0  0  0  0  0  0  0  0  0  0
  1  2  1  0
  2  3  1  0
  3  4  1  0
  4  5  1  0
  5  6  1  0
  6  7  1  0
  7  8  1  0
  8  9  1  0
  9 10  1  0
 10 11  1  0
 11 12  1  0
 12 13  1  0
 13 14  1  0
 14 15  1  0
 15 16  1  0
 16 17  2  0
 17 18  1  0
 18 19  1  0
 19 20  2  0
 20 21  1  0
 21 22  2  0
 22 23  1  0
 23 24  2  0
 24 16  1  0
 24 19  1  0
  1 25  1  0
  1 26  1  0
  2 27  1  0
  2 28  1  0
  3 29  1  0
  3 30  1  0
  4 31  1  0
  5 32  1  0
  5 33  1  0
  6 34  1  0
  6 35  1  0
  7 36  1  0
  7 37  1  0
  9 38  1  0
  9 39  1  0
 10 40  1  0
 10 41  1  0
 11 42  1  0
 11 43  1  0
 12 44  1  0
 12 45  1  0
 13 46  1  0
 14 47  1  0
 14 48  1  0
 15 49  1  0
 15 50  1  0
 17 51  1  0
 18 52  1  0
 20 53  1  0
 21 54  1  0
 22 55  1  0
 23 56  1  0
M  END
>  <UniqueID>  (32) 
29

>  <SMILES>  (32) 
NCCNCCCOCCCCNCCc1c[nH]c2ccccc12

>  <Energy>  (32) 
75.6610628654378

>  <Genealogy>  (32) 
NCCNCCCOCCCCNCCc1c[nH]c2ccccc12 (3D coordinates assigned)
NCCNCCCOCCCCNCCc1c[nH]c2ccccc12 (optimized conformer: 75.6610628654378 kcal/mol)

>  <smiles>  (32) 
NCCNCCCOCCCCNCCc1c[nH]c2ccccc12

>  <score_type>  (32) 
oracle

>  <origin>  (32) 
adg

>  <m_score__min__energy>  (32) 
-6.6900000000000004

>  <m_primary>  (32) 
energy

$$$$
32:0
     RDKit          3D

 49 52  0  0  0  0  0  0  0  0999 V2000
   -3.1260   18.4920  -25.5830 C   0  0  0  0  0  0  0  0  0  0  0  0
   -2.0520   19.3890  -25.8590 O   0  0  0  0  0  0  0  0  0  0  0  0
   -2.0060   20.2480  -26.9660 C   0  0  0  0  0  0  0  0  0  0  0  0
   -3.0350   20.1740  -27.9100 C   0  0  0  0  0  0  0  0  0  0  0  0
   -3.0350   21.0150  -29.0270 C   0  0  0  0  0  0  0  0  0  0  0  0
   -2.0050   21.9470  -29.2210 C   0  0  0  0  0  0  0  0  0  0  0  0
   -2.0450   22.8100  -30.4660 C   0  0  0  0  0  0  0  0  0  0  0  0
   -2.9450   22.2910  -31.5020 N   0  0  0  0  0  0  0  0  0  0  0  0
   -2.6080   21.4130  -32.4670 C   0  0  0  0  0  0  0  0  0  0  0  0
   -3.6740   21.2820  -33.3290 C   0  0  0  0  0  0  0  0  0  0  0  0
   -4.6650   22.0920  -32.9160 N   0  0  0  0  0  0  0  0  0  0  0  0
   -4.2020   22.6900  -31.8020 C   0  0  0  0  0  0  0  0  0  0  0  0
   -4.9510   23.7430  -31.0950 C   0  0  0  0  0  0  0  0  0  0  0  0
   -4.6090   25.0460  -31.1760 N   0  0  0  0  0  0  0  0  0  0  0  0
   -5.5600   25.6830  -30.4620 C   0  0  0  0  0  0  0  0  0  0  0  0
   -6.4630   24.7680  -29.9730 C   0  0  0  0  0  0  0  0  0  0  0  0
   -6.0780   23.5440  -30.3740 N   0  0  0  0  0  0  0  0  0  0  0  0
   -6.8270   22.3040  -30.1710 C   0  0  0  0  0  0  0  0  0  0  0  0
   -7.9750   22.2020  -31.1740 C   0  0  0  0  0  0  0  0  0  0  0  0
   -7.4590   21.7510  -32.4640 N   0  0  0  0  0  0  0  0  0  0  0  0
   -7.2260   20.5090  -32.7590 C   0  0  0  0  0  0  0  0  0  0  0  0
   -7.8080   19.5010  -32.0490 N   0  0  0  0  0  0  0  0  0  0  0  0
   -7.5540   18.2000  -32.3440 C   0  0  0  0  0  0  0  0  0  0  0  0
   -6.6870   17.8800  -33.3870 C   0  0  0  0  0  0  0  0  0  0  0  0
   -6.1030   18.9200  -34.1050 C   0  0  0  0  0  0  0  0  0  0  0  0
   -6.3790   20.2110  -33.7790 N   0  0  0  0  0  0  0  0  0  0  0  0
   -0.9580   22.0070  -28.2810 C   0  0  0  0  0  0  0  0  0  0  0  0
   -0.9620   21.1700  -27.1620 C   0  0  0  0  0  0  0  0  0  0  0  0
   -3.2481   18.3900  -24.4946 H   0  0  0  0  0  0  0  0  0  0  0  0
   -4.0549   18.8864  -26.0208 H   0  0  0  0  0  0  0  0  0  0  0  0
   -2.9034   17.5077  -26.0208 H   0  0  0  0  0  0  0  0  0  0  0  0
   -3.8506   19.4487  -27.7728 H   0  0  0  0  0  0  0  0  0  0  0  0
   -3.8512   20.9450  -29.7611 H   0  0  0  0  0  0  0  0  0  0  0  0
   -2.3833   23.8174  -30.1820 H   0  0  0  0  0  0  0  0  0  0  0  0
   -1.0300   22.8184  -30.8899 H   0  0  0  0  0  0  0  0  0  0  0  0
   -1.6443   20.8894  -32.5519 H   0  0  0  0  0  0  0  0  0  0  0  0
   -3.7091   20.6238  -34.2096 H   0  0  0  0  0  0  0  0  0  0  0  0
   -5.5870   22.2450  -33.3800 H   0  0  0  0  0  0  0  0  0  0  0  0
   -5.6062   26.7694  -30.2961 H   0  0  0  0  0  0  0  0  0  0  0  0
   -7.3470   24.9979  -29.3600 H   0  0  0  0  0  0  0  0  0  0  0  0
   -6.1512   21.4467  -30.3059 H   0  0  0  0  0  0  0  0  0  0  0  0
   -7.2430   22.3023  -29.1527 H   0  0  0  0  0  0  0  0  0  0  0  0
   -8.7203   21.4817  -30.8056 H   0  0  0  0  0  0  0  0  0  0  0  0
   -8.4452   23.1893  -31.2932 H   0  0  0  0  0  0  0  0  0  0  0  0
   -8.0321   17.3996  -31.7603 H   0  0  0  0  0  0  0  0  0  0  0  0
   -6.4693   16.8311  -33.6369 H   0  0  0  0  0  0  0  0  0  0  0  0
   -5.4180   18.6973  -34.9364 H   0  0  0  0  0  0  0  0  0  0  0  0
   -0.1314   22.7176  -28.4287 H   0  0  0  0  0  0  0  0  0  0  0  0
   -0.1435   21.2326  -26.4298 H   0  0  0  0  0  0  0  0  0  0  0  0
  1  2  1  0
  2  3  1  0
  3  4  2  0
  4  5  1  0
  5  6  2  0
  6  7  1  0
  7  8  1  0
  8  9  1  0
  9 10  2  0
 10 11  1  0
 11 12  2  0
 12 13  1  0
 13 14  2  0
 14 15  1  0
 15 16  2  0
 16 17  1  0
 17 18  1  0
 18 19  1  0
 19 20  1  0
 20 21  2  3
 21 22  1  0
 22 23  2  0
 23 24  1  0
 24 25  2  0
 25 26  1  0
  6 27  1  0
 27 28  2  0
 28  3  1  0
 12  8  1  0
 17 13  1  0
 26 21  1  0
  1 29  1  0
  1 30  1  0
  1 31  1  0
  4 32  1  0
  5 33  1  0
  7 34  1  0
  7 35  1  0
  9 36  1  0
 10 37  1  0
 11 38  1  0
 15 39  1  0
 16 40  1  0
 18 41  1  0
 18 42  1  0
 19 43  1  0
 19 44  1  0
 23 45  1  0
 24 46  1  0
 25 47  1  0
 27 48  1  0
 28 49  1  0
M  CHG  2  11   1  26  -1
M  END
>  <UniqueID>  (33) 
30

>  <SMILES>  (33) 
COc1ccc(Cn2cc[nH+]c2-c2nccn2CCN=c2nccc[n-]2)cc1

>  <Energy>  (33) 
112.45642886716244

>  <Genealogy>  (33) 
COc1ccc(Cn2cc[nH+]c2-c2nccn2CCN=c2nccc[n-]2)cc1 (protonated)
COc1ccc(Cn2cc[nH+]c2-c2nccn2CCN=c2nccc[n-]2)cc1 (3D coordinates assigned)
COc1ccc(Cn2cc[nH+]c2-c2nccn2CCN=c2nccc[n-]2)cc1 (optimized conformer: 112.45642886716244 kcal/mol)

>  <smiles>  (33) 
COc1ccc(Cn2ccnc2-c2nccn2CCN=c2nccc[nH]2)cc1

>  <score_type>  (33) 
oracle

>  <origin>  (33) 
adg

>  <m_score__min__energy>  (33) 
-8.3699999999999992

>  <m_primary>  (33) 
energy

$$$$
33:0
     RDKit          3D

 33 34  0  0  0  0  0  0  0  0999 V2000
   -9.2010   21.9720  -31.5960 C   0  0  0  0  0  0  0  0  0  0  0  0
   -7.7520   22.2020  -31.6600 N   0  0  0  0  0  0  0  0  0  0  0  0
   -7.2070   23.2540  -30.9870 C   0  0  0  0  0  0  0  0  0  0  0  0
   -5.8330   23.4810  -31.0190 C   0  0  0  0  0  0  0  0  0  0  0  0
   -5.1330   24.8520  -30.1520 S   0  0  0  0  0  0  0  0  0  0  0  0
   -3.8640   25.3180  -30.8090 O   0  0  0  0  0  0  0  0  0  0  0  0
   -6.1230   25.9830  -30.1610 O   0  0  0  0  0  0  0  0  0  0  0  0
   -4.7930   24.4020  -28.5110 N   0  0  0  0  0  0  0  0  0  0  0  0
   -3.4670   24.3290  -27.9560 C   0  0  0  0  0  0  0  0  0  0  0  0
   -2.4110   23.6810  -28.6290 C   0  0  0  0  0  0  0  0  0  0  0  0
   -1.1360   23.6270  -28.0580 C   0  0  0  0  0  0  0  0  0  0  0  0
   -0.8980   24.2190  -26.8160 C   0  0  0  0  0  0  0  0  0  0  0  0
   -1.9350   24.8690  -26.1430 C   0  0  0  0  0  0  0  0  0  0  0  0
   -3.2120   24.9250  -26.7110 C   0  0  0  0  0  0  0  0  0  0  0  0
   -5.0290   22.6010  -31.7510 C   0  0  0  0  0  0  0  0  0  0  0  0
   -3.7780   22.7730  -31.7650 O   0  0  0  0  0  0  0  0  0  0  0  0
   -5.5940   21.5580  -32.4380 N   0  0  0  0  0  0  0  0  0  0  0  0
   -4.7490   20.6140  -33.1910 C   0  0  0  0  0  0  0  0  0  0  0  0
   -6.9480   21.3470  -32.3700 C   0  0  0  0  0  0  0  0  0  0  0  0
   -7.4630   20.3540  -32.9610 O   0  0  0  0  0  0  0  0  0  0  0  0
   -9.5181   21.9217  -30.5439 H   0  0  0  0  0  0  0  0  0  0  0  0
   -9.7259   22.7981  -32.0981 H   0  0  0  0  0  0  0  0  0  0  0  0
   -9.4443   21.0240  -32.0981 H   0  0  0  0  0  0  0  0  0  0  0  0
   -7.8579   23.9301  -30.4132 H   0  0  0  0  0  0  0  0  0  0  0  0
   -5.6040   24.0990  -27.9270 H   0  0  0  0  0  0  0  0  0  0  0  0
   -2.5914   23.2152  -29.6091 H   0  0  0  0  0  0  0  0  0  0  0  0
   -0.3184   23.1169  -28.5884 H   0  0  0  0  0  0  0  0  0  0  0  0
    0.1056   24.1735  -26.3679 H   0  0  0  0  0  0  0  0  0  0  0  0
   -1.7473   25.3373  -25.1655 H   0  0  0  0  0  0  0  0  0  0  0  0
   -4.0238   25.4408  -26.1772 H   0  0  0  0  0  0  0  0  0  0  0  0
   -4.1854   19.9843  -32.4868 H   0  0  0  0  0  0  0  0  0  0  0  0
   -5.3847   19.9775  -33.8241 H   0  0  0  0  0  0  0  0  0  0  0  0
   -4.0463   21.1756  -33.8241 H   0  0  0  0  0  0  0  0  0  0  0  0
  1  2  1  0
  2  3  1  0
  3  4  2  0
  4  5  1  0
  5  6  2  0
  5  7  2  0
  5  8  1  0
  8  9  1  0
  9 10  2  0
 10 11  1  0
 11 12  2  0
 12 13  1  0
 13 14  2  0
  4 15  1  0
 15 16  2  0
 15 17  1  0
 17 18  1  0
 17 19  1  0
 19 20  2  0
 19  2  1  0
 14  9  1  0
  1 21  1  0
  1 22  1  0
  1 23  1  0
  3 24  1  0
  8 25  1  0
 10 26  1  0
 11 27  1  0
 12 28  1  0
 13 29  1  0
 14 30  1  0
 18 31  1  0
 18 32  1  0
 18 33  1  0
M  END
>  <UniqueID>  (34) 
31

>  <SMILES>  (34) 
Cn1cc(S(=O)(=O)Nc2ccccc2)c(=O)n(C)c1=O

>  <Energy>  (34) 
42.32943470601893

>  <Genealogy>  (34) 
Cn1cc(S(=O)(=O)Nc2ccccc2)c(=O)n(C)c1=O (3D coordinates assigned)
Cn1cc(S(=O)(=O)Nc2ccccc2)c(=O)n(C)c1=O (optimized conformer: 42.32943470601893 kcal/mol)

>  <smiles>  (34) 
Cn1cc(S(=O)(=O)Nc2ccccc2)c(=O)n(C)c1=O

>  <score_type>  (34) 
oracle

>  <origin>  (34) 
adg

>  <m_score__min__energy>  (34) 
-7.7000000000000002

>  <m_primary>  (34) 
energy

$$$$
34:0
     RDKit          3D

 53 55  0  0  0  0  0  0  0  0999 V2000
   -6.4490   16.5460  -33.7850 C   0  0  0  0  0  0  0  0  0  0  0  0
   -6.2730   17.3760  -32.5060 C   0  0  0  0  0  0  0  0  0  0  0  0
   -6.2860   18.8390  -32.7400 N   0  0  0  0  0  0  0  0  0  0  0  0
   -7.6630   19.3590  -32.9060 C   0  0  0  0  0  0  0  0  0  0  0  0
   -8.3490   19.6520  -31.5610 C   0  0  0  0  0  0  0  0  0  0  0  0
   -9.3660   21.1810  -31.5350 S   0  0  0  0  0  0  0  0  0  0  0  0
   -8.0060   22.3210  -31.2730 C   0  0  0  0  0  0  0  0  0  0  0  0
   -7.3130   22.8530  -32.3630 C   0  0  0  0  0  0  0  0  0  0  0  0
   -6.3150   23.8020  -32.1410 C   0  0  0  0  0  0  0  0  0  0  0  0
   -6.0010   24.1990  -30.8340 C   0  0  0  0  0  0  0  0  0  0  0  0
   -4.9950   25.2510  -30.5800 C   0  0  0  0  0  0  0  0  0  0  0  0
   -5.3680   26.4440  -30.4320 O   0  0  0  0  0  0  0  0  0  0  0  0
   -3.5980   24.9440  -30.4730 N   0  0  0  0  0  0  0  0  0  0  0  0
   -2.9600   24.3220  -29.3480 C   0  0  0  0  0  0  0  0  0  0  0  0
   -1.7410   24.8390  -28.8860 C   0  0  0  0  0  0  0  0  0  0  0  0
   -1.0870   24.2460  -27.8010 C   0  0  0  0  0  0  0  0  0  0  0  0
   -1.6410   23.1250  -27.1770 C   0  0  0  0  0  0  0  0  0  0  0  0
   -1.0060   22.5520  -26.1250 F   0  0  0  0  0  0  0  0  0  0  0  0
   -2.8440   22.5890  -27.6440 C   0  0  0  0  0  0  0  0  0  0  0  0
   -3.4980   23.1760  -28.7320 C   0  0  0  0  0  0  0  0  0  0  0  0
   -6.6820   23.5950  -29.7660 C   0  0  0  0  0  0  0  0  0  0  0  0
   -7.6650   22.6860  -30.0070 N   0  0  0  0  0  0  0  0  0  0  0  0
   -5.3690   19.2460  -33.8320 C   0  0  0  0  0  0  0  0  0  0  0  0
   -4.2290   20.0570  -33.2760 C   0  0  0  0  0  0  0  0  0  0  0  0
   -2.9100   19.7820  -33.6790 C   0  0  0  0  0  0  0  0  0  0  0  0
   -1.8460   20.5290  -33.1640 C   0  0  0  0  0  0  0  0  0  0  0  0
   -2.0900   21.5600  -32.2540 C   0  0  0  0  0  0  0  0  0  0  0  0
   -3.3990   21.8490  -31.8590 C   0  0  0  0  0  0  0  0  0  0  0  0
   -4.4670   21.1050  -32.3700 C   0  0  0  0  0  0  0  0  0  0  0  0
   -6.6703   15.5023  -33.5172 H   0  0  0  0  0  0  0  0  0  0  0  0
   -7.2800   16.9567  -34.3772 H   0  0  0  0  0  0  0  0  0  0  0  0
   -5.5228   16.5841  -34.3772 H   0  0  0  0  0  0  0  0  0  0  0  0
   -7.0920   17.1274  -31.8150 H   0  0  0  0  0  0  0  0  0  0  0  0
   -5.2850   17.1249  -32.0927 H   0  0  0  0  0  0  0  0  0  0  0  0
   -7.6203   20.2901  -33.4902 H   0  0  0  0  0  0  0  0  0  0  0  0
   -8.2524   18.5853  -33.4198 H   0  0  0  0  0  0  0  0  0  0  0  0
   -9.0027   18.8015  -31.3174 H   0  0  0  0  0  0  0  0  0  0  0  0
   -7.5431   19.8025  -30.8276 H   0  0  0  0  0  0  0  0  0  0  0  0
   -7.5519   22.5269  -33.3860 H   0  0  0  0  0  0  0  0  0  0  0  0
   -5.7737   24.2394  -32.9929 H   0  0  0  0  0  0  0  0  0  0  0  0
   -1.2966   25.7158  -29.3797 H   0  0  0  0  0  0  0  0  0  0  0  0
   -0.1356   24.6625  -27.4385 H   0  0  0  0  0  0  0  0  0  0  0  0
   -3.2773   21.7040  -27.1551 H   0  0  0  0  0  0  0  0  0  0  0  0
   -4.4358   22.7409  -29.1077 H   0  0  0  0  0  0  0  0  0  0  0  0
   -6.4201   23.8575  -28.7304 H   0  0  0  0  0  0  0  0  0  0  0  0
   -8.1770   22.2710  -29.1960 H   0  0  0  0  0  0  0  0  0  0  0  0
   -4.9696   18.3476  -34.3253 H   0  0  0  0  0  0  0  0  0  0  0  0
   -5.9242   19.8570  -34.5589 H   0  0  0  0  0  0  0  0  0  0  0  0
   -2.7146   18.9763  -34.4020 H   0  0  0  0  0  0  0  0  0  0  0  0
   -0.8154   20.3043  -33.4760 H   0  0  0  0  0  0  0  0  0  0  0  0
   -1.2515   22.1448  -31.8480 H   0  0  0  0  0  0  0  0  0  0  0  0
   -3.5896   22.6635  -31.1446 H   0  0  0  0  0  0  0  0  0  0  0  0
   -5.4964   21.3405  -32.0621 H   0  0  0  0  0  0  0  0  0  0  0  0
  1  2  1  0
  2  3  1  0
  3  4  1  0
  4  5  1  0
  5  6  1  0
  6  7  1  0
  7  8  2  0
  8  9  1  0
  9 10  2  0
 10 11  1  0
 11 12  2  0
 11 13  1  0
 13 14  1  0
 14 15  2  0
 15 16  1  0
 16 17  2  0
 17 18  1  0
 17 19  1  0
 19 20  2  0
 10 21  1  0
 21 22  2  0
  3 23  1  0
 23 24  1  0
 24 25  2  0
 25 26  1  0
 26 27  2  0
 27 28  1  0
 28 29  2  0
 22  7  1  0
 29 24  1  0
 20 14  1  0
  1 30  1  0
  1 31  1  0
  1 32  1  0
  2 33  1  0
  2 34  1  0
  4 35  1  0
  4 36  1  0
  5 37  1  0
  5 38  1  0
  8 39  1  0
  9 40  1  0
 15 41  1  0
 16 42  1  0
 19 43  1  0
 20 44  1  0
 21 45  1  0
 22 46  1  0
 23 47  1  0
 23 48  1  0
 25 49  1  0
 26 50  1  0
 27 51  1  0
 28 52  1  0
 29 53  1  0
M  CHG  2  13  -1  22   1
M  END
>  <UniqueID>  (35) 
32

>  <SMILES>  (35) 
CCN(CCSc1ccc(C(=O)[N-]c2ccc(F)cc2)c[nH+]1)Cc1ccccc1

>  <Energy>  (35) 
58.754334129825885

>  <Genealogy>  (35) 
CCN(CCSc1ccc(C(=O)[N-]c2ccc(F)cc2)c[nH+]1)Cc1ccccc1 (protonated)
CCN(CCSc1ccc(C(=O)[N-]c2ccc(F)cc2)c[nH+]1)Cc1ccccc1 (3D coordinates assigned)
CCN(CCSc1ccc(C(=O)[N-]c2ccc(F)cc2)c[nH+]1)Cc1ccccc1 (optimized conformer: 58.754334129825885 kcal/mol)

>  <smiles>  (35) 
CCN(CCSc1ccc(C(=O)Nc2ccc(F)cc2)cn1)Cc1ccccc1

>  <score_type>  (35) 
oracle

>  <origin>  (35) 
adg

>  <m_score__min__energy>  (35) 
-10.199999999999999

>  <m_primary>  (35) 
energy

$$$$
35:0
     RDKit          3D

 56 58  0  0  0  0  0  0  0  0999 V2000
    1.6310   28.6950  -22.0880 C   0  0  0  0  0  0  0  0  0  0  0  0
    1.0360   28.2030  -23.4070 C   0  0  0  0  0  0  0  0  0  0  0  0
   -0.1000   27.1760  -23.2080 C   0  0  0  0  0  0  0  0  0  0  0  0
   -0.5840   26.5860  -24.4820 N   0  0  0  0  0  0  0  0  0  0  0  0
   -0.8480   25.1410  -24.2980 C   0  0  0  0  0  0  0  0  0  0  0  0
   -1.0530   24.3760  -25.6280 C   0  0  0  0  0  0  0  0  0  0  0  0
   -1.1520   25.2670  -26.7990 N   0  0  0  0  0  0  0  0  0  0  0  0
   -1.9680   24.9250  -27.9460 C   0  0  0  0  0  0  0  0  0  0  0  0
   -1.9550   25.6740  -28.9610 O   0  0  0  0  0  0  0  0  0  0  0  0
   -2.8680   23.7180  -27.9780 C   0  0  0  0  0  0  0  0  0  0  0  0
   -3.3400   23.4230  -29.3470 N   0  0  0  0  0  0  0  0  0  0  0  0
   -3.7300   22.0010  -29.4640 C   0  0  0  0  0  0  0  0  0  0  0  0
   -3.4020   21.4920  -30.8420 C   0  0  0  0  0  0  0  0  0  0  0  0
   -4.2670   20.6110  -31.5100 C   0  0  0  0  0  0  0  0  0  0  0  0
   -3.9100   20.0860  -32.7550 C   0  0  0  0  0  0  0  0  0  0  0  0
   -2.6940   20.4420  -33.3440 C   0  0  0  0  0  0  0  0  0  0  0  0
   -2.3480   19.9280  -34.5490 F   0  0  0  0  0  0  0  0  0  0  0  0
   -1.8320   21.3200  -32.6860 C   0  0  0  0  0  0  0  0  0  0  0  0
   -2.1810   21.8380  -31.4370 C   0  0  0  0  0  0  0  0  0  0  0  0
   -4.6910   24.4530  -29.7760 S   0  0  0  0  0  0  0  0  0  0  0  0
   -5.3390   25.0050  -28.5370 O   0  0  0  0  0  0  0  0  0  0  0  0
   -4.2170   25.5980  -30.6270 O   0  0  0  0  0  0  0  0  0  0  0  0
   -5.9080   23.5390  -30.6450 C   0  0  0  0  0  0  0  0  0  0  0  0
   -6.9480   22.8300  -30.0670 C   0  0  0  0  0  0  0  0  0  0  0  0
   -7.7810   22.2140  -31.0110 C   0  0  0  0  0  0  0  0  0  0  0  0
   -7.3980   22.4460  -32.3270 C   0  0  0  0  0  0  0  0  0  0  0  0
   -6.0210   23.4160  -32.3160 S   0  0  0  0  0  0  0  0  0  0  0  0
   -0.2530   26.4230  -26.9160 C   0  0  0  0  0  0  0  0  0  0  0  0
    0.3910   26.7780  -25.5750 C   0  0  0  0  0  0  0  0  0  0  0  0
    1.0840   28.2427  -21.2477 H   0  0  0  0  0  0  0  0  0  0  0  0
    2.6910   28.4061  -22.0335 H   0  0  0  0  0  0  0  0  0  0  0  0
    1.5463   29.7904  -22.0335 H   0  0  0  0  0  0  0  0  0  0  0  0
    0.6349   29.0681  -23.9554 H   0  0  0  0  0  0  0  0  0  0  0  0
    1.8403   27.7014  -23.9651 H   0  0  0  0  0  0  0  0  0  0  0  0
    0.2711   26.3641  -22.5653 H   0  0  0  0  0  0  0  0  0  0  0  0
   -0.9470   27.7093  -22.7517 H   0  0  0  0  0  0  0  0  0  0  0  0
   -1.4880   27.0390  -24.7490 H   0  0  0  0  0  0  0  0  0  0  0  0
    0.0071   24.6956  -23.7685 H   0  0  0  0  0  0  0  0  0  0  0  0
   -1.7841   25.0535  -23.7270 H   0  0  0  0  0  0  0  0  0  0  0  0
   -0.2005   23.6968  -25.7761 H   0  0  0  0  0  0  0  0  0  0  0  0
   -2.0053   23.8310  -25.5493 H   0  0  0  0  0  0  0  0  0  0  0  0
   -2.3116   22.8485  -27.5979 H   0  0  0  0  0  0  0  0  0  0  0  0
   -3.7467   23.9293  -27.3509 H   0  0  0  0  0  0  0  0  0  0  0  0
   -3.1812   21.4095  -28.7164 H   0  0  0  0  0  0  0  0  0  0  0  0
   -4.8122   21.9067  -29.2910 H   0  0  0  0  0  0  0  0  0  0  0  0
   -5.2280   20.3332  -31.0525 H   0  0  0  0  0  0  0  0  0  0  0  0
   -4.5878   19.3910  -33.2724 H   0  0  0  0  0  0  0  0  0  0  0  0
   -0.8768   21.6044  -33.1515 H   0  0  0  0  0  0  0  0  0  0  0  0
   -1.4937   22.5216  -30.9171 H   0  0  0  0  0  0  0  0  0  0  0  0
   -7.1039   22.7579  -28.9805 H   0  0  0  0  0  0  0  0  0  0  0  0
   -8.6548   21.6048  -30.7366 H   0  0  0  0  0  0  0  0  0  0  0  0
   -7.9074   22.0616  -33.2229 H   0  0  0  0  0  0  0  0  0  0  0  0
    0.5401   26.1857  -27.6404 H   0  0  0  0  0  0  0  0  0  0  0  0
   -0.8471   27.2865  -27.2499 H   0  0  0  0  0  0  0  0  0  0  0  0
    1.2618   26.1278  -25.4052 H   0  0  0  0  0  0  0  0  0  0  0  0
    0.7105   27.8304  -25.5943 H   0  0  0  0  0  0  0  0  0  0  0  0
  1  2  1  0
  2  3  1  0
  3  4  1  0
  4  5  1  0
  5  6  1  0
  6  7  1  0
  7  8  1  0
  8  9  2  0
  8 10  1  0
 10 11  1  0
 11 12  1  0
 12 13  1  0
 13 14  2  0
 14 15  1  0
 15 16  2  0
 16 17  1  0
 16 18  1  0
 18 19  2  0
 11 20  1  0
 20 21  2  0
 20 22  2  0
 20 23  1  0
 23 24  2  0
 24 25  1  0
 25 26  2  0
 26 27  1  0
  7 28  1  0
 28 29  1  0
 29  4  1  0
 19 13  1  0
 27 23  1  0
  1 30  1  0
  1 31  1  0
  1 32  1  0
  2 33  1  0
  2 34  1  0
  3 35  1  0
  3 36  1  0
  4 37  1  0
  5 38  1  0
  5 39  1  0
  6 40  1  0
  6 41  1  0
 10 42  1  0
 10 43  1  0
 12 44  1  0
 12 45  1  0
 14 46  1  0
 15 47  1  0
 18 48  1  0
 19 49  1  0
 24 50  1  0
 25 51  1  0
 26 52  1  0
 28 53  1  0
 28 54  1  0
 29 55  1  0
 29 56  1  0
M  CHG  1   4   1
M  END
>  <UniqueID>  (36) 
33

>  <SMILES>  (36) 
CCC[NH+]1CCN(C(=O)CN(Cc2ccc(F)cc2)S(=O)(=O)c2cccs2)CC1

>  <Energy>  (36) 
84.91068472102428

>  <Genealogy>  (36) 
CCC[NH+]1CCN(C(=O)CN(Cc2ccc(F)cc2)S(=O)(=O)c2cccs2)CC1 (protonated)
CCC[NH+]1CCN(C(=O)CN(Cc2ccc(F)cc2)S(=O)(=O)c2cccs2)CC1 (3D coordinates assigned)
CCC[NH+]1CCN(C(=O)CN(Cc2ccc(F)cc2)S(=O)(=O)c2cccs2)CC1 (nonaromatic ring conformer: 84.91068472102428 kcal/mol)

>  <smiles>  (36) 
CCCN1CCN(C(=O)CN(Cc2ccc(F)cc2)S(=O)(=O)c2cccs2)CC1

>  <score_type>  (36) 
oracle

>  <origin>  (36) 
adg

>  <m_score__min__energy>  (36) 
-8.7400000000000002

>  <m_primary>  (36) 
energy

$$$$
36:0
     RDKit          3D

 54 55  0  0  0  0  0  0  0  0999 V2000
   -7.7610   18.2480  -32.0310 C   0  0  0  0  0  0  0  0  0  0  0  0
   -8.7250   19.4180  -31.8760 C   0  0  0  0  0  0  0  0  0  0  0  0
   -8.0580   20.6560  -32.1190 O   0  0  0  0  0  0  0  0  0  0  0  0
   -8.1340   21.7590  -31.2580 C   0  0  0  0  0  0  0  0  0  0  0  0
   -9.1300   21.8910  -30.4930 O   0  0  0  0  0  0  0  0  0  0  0  0
   -7.0710   22.7340  -31.2400 N   0  0  0  0  0  0  0  0  0  0  0  0
   -7.2350   23.9980  -30.5040 C   0  0  0  0  0  0  0  0  0  0  0  0
   -5.9200   24.4080  -29.8350 C   0  0  0  0  0  0  0  0  0  0  0  0
   -4.7660   24.3870  -30.8540 C   0  0  0  0  0  0  0  0  0  0  0  0
   -3.4870   24.8270  -30.2710 N   0  0  0  0  0  0  0  0  0  0  0  0
   -2.7810   24.2960  -29.1240 C   0  0  0  0  0  0  0  0  0  0  0  0
   -3.0870   23.0560  -28.5290 C   0  0  0  0  0  0  0  0  0  0  0  0
   -2.3650   22.6010  -27.4220 C   0  0  0  0  0  0  0  0  0  0  0  0
   -1.3230   23.3630  -26.8990 C   0  0  0  0  0  0  0  0  0  0  0  0
   -0.9800   24.5900  -27.4860 C   0  0  0  0  0  0  0  0  0  0  0  0
    0.1210   25.4080  -26.9300 C   0  0  0  0  0  0  0  0  0  0  0  0
    1.2540   25.3770  -27.4830 O   0  0  0  0  0  0  0  0  0  0  0  0
   -0.0810   26.2540  -25.7820 N   0  0  0  0  0  0  0  0  0  0  0  0
   -0.6360   25.6890  -24.5430 C   0  0  0  0  0  0  0  0  0  0  0  0
   -0.7450   26.7670  -23.4700 C   0  0  0  0  0  0  0  0  0  0  0  0
    0.4810   27.6110  -25.7770 C   0  0  0  0  0  0  0  0  0  0  0  0
   -0.3700   28.5370  -26.6390 C   0  0  0  0  0  0  0  0  0  0  0  0
   -1.7220   25.0520  -28.5870 C   0  0  0  0  0  0  0  0  0  0  0  0
   -4.6420   23.0360  -31.5780 C   0  0  0  0  0  0  0  0  0  0  0  0
   -5.9770   22.6460  -32.2210 C   0  0  0  0  0  0  0  0  0  0  0  0
   -7.4620   17.8851  -31.0366 H   0  0  0  0  0  0  0  0  0  0  0  0
   -8.2558   17.4361  -32.5841 H   0  0  0  0  0  0  0  0  0  0  0  0
   -6.8694   18.5783  -32.5841 H   0  0  0  0  0  0  0  0  0  0  0  0
   -9.5493   19.3046  -32.5954 H   0  0  0  0  0  0  0  0  0  0  0  0
   -9.1145   19.4218  -30.8473 H   0  0  0  0  0  0  0  0  0  0  0  0
   -7.5449   24.7868  -31.2052 H   0  0  0  0  0  0  0  0  0  0  0  0
   -7.9997   23.8580  -29.7257 H   0  0  0  0  0  0  0  0  0  0  0  0
   -6.0234   25.4240  -29.4263 H   0  0  0  0  0  0  0  0  0  0  0  0
   -5.6945   23.6953  -29.0280 H   0  0  0  0  0  0  0  0  0  0  0  0
   -5.0274   25.1289  -31.6230 H   0  0  0  0  0  0  0  0  0  0  0  0
   -3.0710   25.6740  -30.7210 H   0  0  0  0  0  0  0  0  0  0  0  0
   -3.9012   22.4406  -28.9393 H   0  0  0  0  0  0  0  0  0  0  0  0
   -2.6212   21.6356  -26.9612 H   0  0  0  0  0  0  0  0  0  0  0  0
   -0.7666   23.0011  -26.0218 H   0  0  0  0  0  0  0  0  0  0  0  0
   -1.6359   25.2788  -24.7477 H   0  0  0  0  0  0  0  0  0  0  0  0
    0.0324   24.8930  -24.1828 H   0  0  0  0  0  0  0  0  0  0  0  0
   -0.6978   26.3002  -22.4751 H   0  0  0  0  0  0  0  0  0  0  0  0
    0.0857   27.4796  -23.5804 H   0  0  0  0  0  0  0  0  0  0  0  0
   -1.7015   27.2989  -23.5804 H   0  0  0  0  0  0  0  0  0  0  0  0
    0.5013   27.9920  -24.7453 H   0  0  0  0  0  0  0  0  0  0  0  0
    1.5018   27.5780  -26.1856 H   0  0  0  0  0  0  0  0  0  0  0  0
   -0.9714   29.1914  -25.9909 H   0  0  0  0  0  0  0  0  0  0  0  0
    0.2850   29.1516  -27.2740 H   0  0  0  0  0  0  0  0  0  0  0  0
   -1.0376   27.9361  -27.2740 H   0  0  0  0  0  0  0  0  0  0  0  0
   -1.4701   26.0233  -29.0377 H   0  0  0  0  0  0  0  0  0  0  0  0
   -3.8727   23.1141  -32.3604 H   0  0  0  0  0  0  0  0  0  0  0  0
   -4.3617   22.2647  -30.8455 H   0  0  0  0  0  0  0  0  0  0  0  0
   -6.1872   23.3272  -33.0587 H   0  0  0  0  0  0  0  0  0  0  0  0
   -5.9070   21.6091  -32.5814 H   0  0  0  0  0  0  0  0  0  0  0  0
  1  2  1  0
  2  3  1  0
  3  4  1  0
  4  5  2  0
  4  6  1  0
  6  7  1  0
  7  8  1  0
  8  9  1  0
  9 10  1  0
 10 11  1  0
 11 12  2  0
 12 13  1  0
 13 14  2  0
 14 15  1  0
 15 16  1  0
 16 17  2  0
 16 18  1  0
 18 19  1  0
 19 20  1  0
 18 21  1  0
 21 22  1  0
 15 23  2  0
  9 24  1  0
 24 25  1  0
 25  6  1  0
 23 11  1  0
  1 26  1  0
  1 27  1  0
  1 28  1  0
  2 29  1  0
  2 30  1  0
  7 31  1  0
  7 32  1  0
  8 33  1  0
  8 34  1  0
  9 35  1  0
 10 36  1  0
 12 37  1  0
 13 38  1  0
 14 39  1  0
 19 40  1  0
 19 41  1  0
 20 42  1  0
 20 43  1  0
 20 44  1  0
 21 45  1  0
 21 46  1  0
 22 47  1  0
 22 48  1  0
 22 49  1  0
 23 50  1  0
 24 51  1  0
 24 52  1  0
 25 53  1  0
 25 54  1  0
M  END
>  <UniqueID>  (37) 
34

>  <SMILES>  (37) 
CCOC(=O)N1CCC(Nc2cccc(C(=O)N(CC)CC)c2)CC1

>  <Energy>  (37) 
48.38313477830711

>  <Genealogy>  (37) 
CCOC(=O)N1CCC(Nc2cccc(C(=O)N(CC)CC)c2)CC1 (3D coordinates assigned)
CCOC(=O)N1CCC(Nc2cccc(C(=O)N(CC)CC)c2)CC1 (nonaromatic ring conformer: 48.38313477830711 kcal/mol)

>  <smiles>  (37) 
CCOC(=O)N1CCC(Nc2cccc(C(=O)N(CC)CC)c2)CC1

>  <score_type>  (37) 
oracle

>  <origin>  (37) 
adg

>  <m_score__min__energy>  (37) 
-8.2899999999999991

>  <m_primary>  (37) 
energy

$$$$
37:0
     RDKit          3D

 49 52  0  0  0  0  0  0  0  0999 V2000
   -0.9170   21.5300  -31.2460 O   0  0  0  0  0  0  0  0  0  0  0  0
   -1.8870   20.8160  -31.6140 C   0  0  0  0  0  0  0  0  0  0  0  0
   -3.0690   20.6730  -30.7050 C   0  0  0  0  0  0  0  0  0  0  0  0
   -4.0300   21.7780  -30.8980 N   0  0  0  0  0  0  0  0  0  0  0  0
   -3.4360   23.0960  -30.5770 C   0  0  0  0  0  0  0  0  0  0  0  0
   -4.4620   24.1810  -30.3940 C   0  0  0  0  0  0  0  0  0  0  0  0
   -5.6870   24.0420  -29.7720 C   0  0  0  0  0  0  0  0  0  0  0  0
   -6.2690   25.2900  -29.8160 C   0  0  0  0  0  0  0  0  0  0  0  0
   -5.3660   26.1120  -30.4600 C   0  0  0  0  0  0  0  0  0  0  0  0
   -4.3000   25.4220  -30.7930 O   0  0  0  0  0  0  0  0  0  0  0  0
   -4.7560   21.7710  -32.5000 S   0  0  0  0  0  0  0  0  0  0  0  0
   -3.7110   21.9180  -33.5700 O   0  0  0  0  0  0  0  0  0  0  0  0
   -5.6800   22.9540  -32.6240 O   0  0  0  0  0  0  0  0  0  0  0  0
   -5.7400   20.3040  -32.7310 C   0  0  0  0  0  0  0  0  0  0  0  0
   -7.0500   20.3420  -32.2230 C   0  0  0  0  0  0  0  0  0  0  0  0
   -7.9130   19.2580  -32.3650 C   0  0  0  0  0  0  0  0  0  0  0  0
   -7.4860   18.1030  -33.0100 C   0  0  0  0  0  0  0  0  0  0  0  0
   -6.1830   18.0200  -33.5120 C   0  0  0  0  0  0  0  0  0  0  0  0
   -5.7500   16.8480  -34.1440 C   0  0  0  0  0  0  0  0  0  0  0  0
   -4.4500   16.7590  -34.6290 C   0  0  0  0  0  0  0  0  0  0  0  0
   -3.5880   17.8410  -34.4740 C   0  0  0  0  0  0  0  0  0  0  0  0
   -4.0110   18.9800  -33.8590 N   0  0  0  0  0  0  0  0  0  0  0  0
   -5.2870   19.1160  -33.3790 C   0  0  0  0  0  0  0  0  0  0  0  0
   -1.8740   20.1370  -32.8790 N   0  0  0  0  0  0  0  0  0  0  0  0
   -0.9180   20.2580  -33.9450 C   0  0  0  0  0  0  0  0  0  0  0  0
   -0.4810   21.5420  -34.2950 C   0  0  0  0  0  0  0  0  0  0  0  0
    0.4570   21.7220  -35.3170 C   0  0  0  0  0  0  0  0  0  0  0  0
    0.9600   20.6150  -36.0060 C   0  0  0  0  0  0  0  0  0  0  0  0
    1.8660   20.7900  -37.0000 F   0  0  0  0  0  0  0  0  0  0  0  0
    0.5150   19.3310  -35.6810 C   0  0  0  0  0  0  0  0  0  0  0  0
   -0.4270   19.1500  -34.6620 C   0  0  0  0  0  0  0  0  0  0  0  0
   -3.5724   19.7186  -30.9189 H   0  0  0  0  0  0  0  0  0  0  0  0
   -2.7127   20.6999  -29.6646 H   0  0  0  0  0  0  0  0  0  0  0  0
   -2.8578   23.0013  -29.6460 H   0  0  0  0  0  0  0  0  0  0  0  0
   -2.8036   23.3852  -31.4293 H   0  0  0  0  0  0  0  0  0  0  0  0
   -6.1098   23.1262  -29.3331 H   0  0  0  0  0  0  0  0  0  0  0  0
   -7.2544   25.5741  -29.4182 H   0  0  0  0  0  0  0  0  0  0  0  0
   -5.5168   27.1825  -30.6632 H   0  0  0  0  0  0  0  0  0  0  0  0
   -7.4006   21.2457  -31.7030 H   0  0  0  0  0  0  0  0  0  0  0  0
   -8.9362   19.3161  -31.9653 H   0  0  0  0  0  0  0  0  0  0  0  0
   -8.1741   17.2526  -33.1259 H   0  0  0  0  0  0  0  0  0  0  0  0
   -6.4384   15.9975  -34.2568 H   0  0  0  0  0  0  0  0  0  0  0  0
   -4.1059   15.8424  -35.1304 H   0  0  0  0  0  0  0  0  0  0  0  0
   -2.5568   17.7754  -34.8513 H   0  0  0  0  0  0  0  0  0  0  0  0
   -3.2970   19.7250  -33.7430 H   0  0  0  0  0  0  0  0  0  0  0  0
   -0.8793   22.4173  -33.7610 H   0  0  0  0  0  0  0  0  0  0  0  0
    0.7986   22.7345  -35.5783 H   0  0  0  0  0  0  0  0  0  0  0  0
    0.9061   18.4602  -36.2275 H   0  0  0  0  0  0  0  0  0  0  0  0
   -0.7852   18.1384  -34.4203 H   0  0  0  0  0  0  0  0  0  0  0  0
  1  2  2  0
  2  3  1  0
  3  4  1  0
  4  5  1  0
  5  6  1  0
  6  7  2  0
  7  8  1  0
  8  9  2  0
  9 10  1  0
  4 11  1  0
 11 12  2  0
 11 13  2  0
 11 14  1  0
 14 15  2  0
 15 16  1  0
 16 17  2  0
 17 18  1  0
 18 19  2  0
 19 20  1  0
 20 21  2  0
 21 22  1  0
 22 23  2  0
  2 24  1  0
 24 25  1  0
 25 26  2  0
 26 27  1  0
 27 28  2  0
 28 29  1  0
 28 30  1  0
 30 31  2  0
 10  6  1  0
 23 14  1  0
 31 25  1  0
 23 18  1  0
  3 32  1  0
  3 33  1  0
  5 34  1  0
  5 35  1  0
  7 36  1  0
  8 37  1  0
  9 38  1  0
 15 39  1  0
 16 40  1  0
 17 41  1  0
 19 42  1  0
 20 43  1  0
 21 44  1  0
 22 45  1  0
 26 46  1  0
 27 47  1  0
 30 48  1  0
 31 49  1  0
M  CHG  2  22   1  24  -1
M  END
>  <UniqueID>  (38) 
35

>  <SMILES>  (38) 
O=C(CN(Cc1ccco1)S(=O)(=O)c1cccc2ccc[nH+]c12)[N-]c1ccc(F)cc1

>  <Energy>  (38) 
88.62840545605069

>  <Genealogy>  (38) 
O=C(CN(Cc1ccco1)S(=O)(=O)c1cccc2ccc[nH+]c12)[N-]c1ccc(F)cc1 (protonated)
O=C(CN(Cc1ccco1)S(=O)(=O)c1cccc2ccc[nH+]c12)[N-]c1ccc(F)cc1 (3D coordinates assigned)
O=C(CN(Cc1ccco1)S(=O)(=O)c1cccc2ccc[nH+]c12)[N-]c1ccc(F)cc1 (optimized conformer: 88.62840545605069 kcal/mol)

>  <smiles>  (38) 
O=C(CN(Cc1ccco1)S(=O)(=O)c1cccc2cccnc12)Nc1ccc(F)cc1

>  <score_type>  (38) 
oracle

>  <origin>  (38) 
adg

>  <m_score__min__energy>  (38) 
-10.140000000000001

>  <m_primary>  (38) 
energy

$$$$
38:0
     RDKit          3D

 55 57  0  0  0  0  0  0  0  0999 V2000
   -1.2610   18.5420  -32.3510 C   0  0  0  0  0  0  0  0  0  0  0  0
   -1.5570   19.2840  -33.6640 C   0  0  0  0  0  0  0  0  0  0  0  0
   -1.6710   20.7610  -33.5410 N   0  0  0  0  0  0  0  0  0  0  0  0
   -0.5510   21.5150  -34.1480 C   0  0  0  0  0  0  0  0  0  0  0  0
   -0.1180   20.9900  -35.5180 C   0  0  0  0  0  0  0  0  0  0  0  0
   -2.1170   21.2990  -32.2350 C   0  0  0  0  0  0  0  0  0  0  0  0
   -3.5600   21.8460  -32.2820 C   0  0  0  0  0  0  0  0  0  0  0  0
   -4.3390   21.3910  -33.4530 N   0  0  0  0  0  0  0  0  0  0  0  0
   -5.5460   20.6560  -33.0880 C   0  0  0  0  0  0  0  0  0  0  0  0
   -6.6840   21.3200  -32.5400 C   0  0  0  0  0  0  0  0  0  0  0  0
   -6.7210   22.7260  -32.3400 C   0  0  0  0  0  0  0  0  0  0  0  0
   -7.8650   23.3590  -31.8650 C   0  0  0  0  0  0  0  0  0  0  0  0
   -9.0060   22.6250  -31.5910 C   0  0  0  0  0  0  0  0  0  0  0  0
   -9.0000   21.2450  -31.7540 C   0  0  0  0  0  0  0  0  0  0  0  0
   -7.8350   20.5570  -32.1860 C   0  0  0  0  0  0  0  0  0  0  0  0
   -7.8190   19.1820  -32.2780 N   0  0  0  0  0  0  0  0  0  0  0  0
   -8.8690   18.3850  -31.6020 C   0  0  0  0  0  0  0  0  0  0  0  0
   -6.8040   18.5440  -32.9610 C   0  0  0  0  0  0  0  0  0  0  0  0
   -6.9170   17.1780  -33.3310 C   0  0  0  0  0  0  0  0  0  0  0  0
   -5.8590   16.4920  -33.9430 C   0  0  0  0  0  0  0  0  0  0  0  0
   -5.9610   15.1030  -34.3080 N   0  0  0  0  0  0  0  0  0  0  0  0
   -7.2270   14.4100  -34.5230 C   0  0  0  0  0  0  0  0  0  0  0  0
   -4.6750   17.1780  -34.2040 C   0  0  0  0  0  0  0  0  0  0  0  0
   -4.5570   18.5300  -33.9050 C   0  0  0  0  0  0  0  0  0  0  0  0
   -5.6260   19.2520  -33.3190 C   0  0  0  0  0  0  0  0  0  0  0  0
   -1.5187   19.1879  -31.4987 H   0  0  0  0  0  0  0  0  0  0  0  0
   -1.8605   17.6207  -32.3073 H   0  0  0  0  0  0  0  0  0  0  0  0
   -0.1920   18.2863  -32.3073 H   0  0  0  0  0  0  0  0  0  0  0  0
   -0.7442   19.0626  -34.3714 H   0  0  0  0  0  0  0  0  0  0  0  0
   -2.5411   18.9276  -34.0024 H   0  0  0  0  0  0  0  0  0  0  0  0
   -0.8617   22.5640  -34.2619 H   0  0  0  0  0  0  0  0  0  0  0  0
    0.3119   21.3996  -33.4756 H   0  0  0  0  0  0  0  0  0  0  0  0
    0.5768   20.1476  -35.3850 H   0  0  0  0  0  0  0  0  0  0  0  0
   -1.0026   20.6510  -36.0771 H   0  0  0  0  0  0  0  0  0  0  0  0
    0.3832   21.7939  -36.0771 H   0  0  0  0  0  0  0  0  0  0  0  0
   -2.0692   20.4939  -31.4870 H   0  0  0  0  0  0  0  0  0  0  0  0
   -1.4514   22.1347  -31.9731 H   0  0  0  0  0  0  0  0  0  0  0  0
   -4.0831   21.5199  -31.3710 H   0  0  0  0  0  0  0  0  0  0  0  0
   -3.4825   22.9406  -32.3579 H   0  0  0  0  0  0  0  0  0  0  0  0
   -4.6120   22.2240  -34.0210 H   0  0  0  0  0  0  0  0  0  0  0  0
   -3.7230   20.8800  -34.1170 H   0  0  0  0  0  0  0  0  0  0  0  0
   -5.8271   23.3261  -32.5653 H   0  0  0  0  0  0  0  0  0  0  0  0
   -7.8628   24.4475  -31.7065 H   0  0  0  0  0  0  0  0  0  0  0  0
   -9.9174   23.1340  -31.2443 H   0  0  0  0  0  0  0  0  0  0  0  0
   -9.9163   20.6738  -31.5441 H   0  0  0  0  0  0  0  0  0  0  0  0
   -8.7519   18.4739  -30.5119 H   0  0  0  0  0  0  0  0  0  0  0  0
   -9.8604   18.7601  -31.8961 H   0  0  0  0  0  0  0  0  0  0  0  0
   -8.7743   17.3293  -31.8961 H   0  0  0  0  0  0  0  0  0  0  0  0
   -7.8584   16.6447  -33.1324 H   0  0  0  0  0  0  0  0  0  0  0  0
   -5.0840   14.5450  -34.4220 H   0  0  0  0  0  0  0  0  0  0  0  0
   -7.6792   14.1625  -33.5513 H   0  0  0  0  0  0  0  0  0  0  0  0
   -7.9094   15.0604  -35.0899 H   0  0  0  0  0  0  0  0  0  0  0  0
   -7.0468   13.4847  -35.0899 H   0  0  0  0  0  0  0  0  0  0  0  0
   -3.8241   16.6436  -34.6517 H   0  0  0  0  0  0  0  0  0  0  0  0
   -3.6139   19.0505  -34.1279 H   0  0  0  0  0  0  0  0  0  0  0  0
  1  2  1  0
  2  3  1  0
  3  4  1  0
  4  5  1  0
  3  6  1  0
  6  7  1  0
  7  8  1  0
  8  9  1  0
  9 10  2  0
 10 11  1  0
 11 12  2  0
 12 13  1  0
 13 14  2  0
 14 15  1  0
 15 16  2  0
 16 17  1  0
 16 18  1  0
 18 19  2  0
 19 20  1  0
 20 21  1  0
 21 22  1  0
 20 23  2  0
 23 24  1  0
 24 25  2  0
 25  9  1  0
 15 10  1  0
 25 18  1  0
  1 26  1  0
  1 27  1  0
  1 28  1  0
  2 29  1  0
  2 30  1  0
  4 31  1  0
  4 32  1  0
  5 33  1  0
  5 34  1  0
  5 35  1  0
  6 36  1  0
  6 37  1  0
  7 38  1  0
  7 39  1  0
  8 40  1  0
  8 41  1  0
 11 42  1  0
 12 43  1  0
 13 44  1  0
 14 45  1  0
 17 46  1  0
 17 47  1  0
 17 48  1  0
 19 49  1  0
 21 50  1  0
 22 51  1  0
 22 52  1  0
 22 53  1  0
 23 54  1  0
 24 55  1  0
M  CHG  2   8   1  16   1
M  END
>  <UniqueID>  (39) 
36

>  <SMILES>  (39) 
CCN(CC)CC[NH2+]c1c2ccccc2[n+](C)c2cc(NC)ccc12

>  <Energy>  (39) 
88.66466716432755

>  <Genealogy>  (39) 
CCN(CC)CC[NH2+]c1c2ccccc2[n+](C)c2cc(NC)ccc12 (protonated)
CCN(CC)CC[NH2+]c1c2ccccc2[n+](C)c2cc(NC)ccc12 (3D coordinates assigned)
CCN(CC)CC[NH2+]c1c2ccccc2[n+](C)c2cc(NC)ccc12 (optimized conformer: 88.66466716432755 kcal/mol)

>  <smiles>  (39) 
CCN(CC)CCNc1c2ccccc2[n+](C)c2cc(NC)ccc12

>  <score_type>  (39) 
oracle

>  <origin>  (39) 
adg

>  <m_score__min__energy>  (39) 
-7.9500000000000002

>  <m_primary>  (39) 
energy

$$$$
39:0
     RDKit          3D

 35 37  0  0  0  0  0  0  0  0999 V2000
   -2.8140   24.5080  -28.0150 C   0  0  0  0  0  0  0  0  0  0  0  0
   -3.0510   24.9190  -29.3580 O   0  0  0  0  0  0  0  0  0  0  0  0
   -4.1760   24.5540  -30.1150 C   0  0  0  0  0  0  0  0  0  0  0  0
   -5.3680   25.3040  -30.0920 C   0  0  0  0  0  0  0  0  0  0  0  0
   -6.4660   24.9090  -30.8600 C   0  0  0  0  0  0  0  0  0  0  0  0
   -6.3930   23.7650  -31.6710 C   0  0  0  0  0  0  0  0  0  0  0  0
   -7.5380   23.3410  -32.4400 N   0  0  0  0  0  0  0  0  0  0  0  0
   -8.4090   22.4930  -31.6170 C   0  0  0  0  0  0  0  0  0  0  0  0
   -8.1910   21.0460  -31.9420 C   0  0  0  0  0  0  0  0  0  0  0  0
   -8.8850   19.9830  -31.4110 C   0  0  0  0  0  0  0  0  0  0  0  0
   -8.3520   18.8890  -31.8950 O   0  0  0  0  0  0  0  0  0  0  0  0
   -7.3650   19.2540  -32.6830 C   0  0  0  0  0  0  0  0  0  0  0  0
   -6.5150   18.3070  -33.4130 C   0  0  0  0  0  0  0  0  0  0  0  0
   -5.6940   18.6160  -34.4900 C   0  0  0  0  0  0  0  0  0  0  0  0
   -4.9970   17.5060  -34.9850 C   0  0  0  0  0  0  0  0  0  0  0  0
   -5.2670   16.3280  -34.3020 C   0  0  0  0  0  0  0  0  0  0  0  0
   -6.3740   16.6640  -33.0800 S   0  0  0  0  0  0  0  0  0  0  0  0
   -7.2110   20.5940  -32.7460 N   0  0  0  0  0  0  0  0  0  0  0  0
   -5.2090   23.0100  -31.6830 C   0  0  0  0  0  0  0  0  0  0  0  0
   -4.1080   23.4030  -30.9150 C   0  0  0  0  0  0  0  0  0  0  0  0
   -2.6420   22.4370  -30.9610 Cl  0  0  0  0  0  0  0  0  0  0  0  0
   -3.2415   25.2493  -27.3238 H   0  0  0  0  0  0  0  0  0  0  0  0
   -3.2868   23.5300  -27.8420 H   0  0  0  0  0  0  0  0  0  0  0  0
   -1.7307   24.4273  -27.8420 H   0  0  0  0  0  0  0  0  0  0  0  0
   -5.4347   26.2059  -29.4657 H   0  0  0  0  0  0  0  0  0  0  0  0
   -7.3943   25.4983  -30.8292 H   0  0  0  0  0  0  0  0  0  0  0  0
   -7.2180   22.8080  -33.2830 H   0  0  0  0  0  0  0  0  0  0  0  0
   -8.0710   24.1790  -32.7710 H   0  0  0  0  0  0  0  0  0  0  0  0
   -8.1815   22.6637  -30.5544 H   0  0  0  0  0  0  0  0  0  0  0  0
   -9.4577   22.7508  -31.8261 H   0  0  0  0  0  0  0  0  0  0  0  0
   -9.7307   20.0413  -30.7100 H   0  0  0  0  0  0  0  0  0  0  0  0
   -5.6007   19.6280  -34.9109 H   0  0  0  0  0  0  0  0  0  0  0  0
   -4.3011   17.5626  -35.8350 H   0  0  0  0  0  0  0  0  0  0  0  0
   -4.8313   15.3423  -34.5222 H   0  0  0  0  0  0  0  0  0  0  0  0
   -5.1469   22.1023  -32.3013 H   0  0  0  0  0  0  0  0  0  0  0  0
  1  2  1  0
  2  3  1  0
  3  4  2  0
  4  5  1  0
  5  6  2  0
  6  7  1  0
  7  8  1  0
  8  9  1  0
  9 10  2  0
 10 11  1  0
 11 12  1  0
 12 13  1  0
 13 14  2  0
 14 15  1  0
 15 16  2  0
 16 17  1  0
 12 18  2  0
  6 19  1  0
 19 20  2  0
 20 21  1  0
 20  3  1  0
 18  9  1  0
 17 13  1  0
  1 22  1  0
  1 23  1  0
  1 24  1  0
  4 25  1  0
  5 26  1  0
  7 27  1  0
  7 28  1  0
  8 29  1  0
  8 30  1  0
 10 31  1  0
 14 32  1  0
 15 33  1  0
 16 34  1  0
 19 35  1  0
M  CHG  1   7   1
M  END
>  <UniqueID>  (40) 
37

>  <SMILES>  (40) 
COc1ccc([NH2+]Cc2coc(-c3cccs3)n2)cc1Cl

>  <Energy>  (40) 
90.84772492788159

>  <Genealogy>  (40) 
COc1ccc([NH2+]Cc2coc(-c3cccs3)n2)cc1Cl (protonated)
COc1ccc([NH2+]Cc2coc(-c3cccs3)n2)cc1Cl (3D coordinates assigned)
COc1ccc([NH2+]Cc2coc(-c3cccs3)n2)cc1Cl (optimized conformer: 90.84772492788159 kcal/mol)

>  <smiles>  (40) 
COc1ccc(NCc2coc(-c3cccs3)n2)cc1Cl

>  <score_type>  (40) 
oracle

>  <origin>  (40) 
adg

>  <m_score__min__energy>  (40) 
-7.3099999999999996

>  <m_primary>  (40) 
energy

$$$$
40:0
     RDKit          3D

 50 52  0  0  0  0  0  0  0  0999 V2000
   -1.9130   25.2300  -28.1040 C   0  0  0  0  0  0  0  0  0  0  0  0
   -2.6040   25.2990  -29.3470 O   0  0  0  0  0  0  0  0  0  0  0  0
   -3.1350   24.1880  -30.0200 C   0  0  0  0  0  0  0  0  0  0  0  0
   -2.3860   23.0190  -30.2550 C   0  0  0  0  0  0  0  0  0  0  0  0
   -2.9620   21.9390  -30.9280 C   0  0  0  0  0  0  0  0  0  0  0  0
   -4.2850   22.0110  -31.3710 C   0  0  0  0  0  0  0  0  0  0  0  0
   -5.0410   23.1710  -31.1490 C   0  0  0  0  0  0  0  0  0  0  0  0
   -6.4710   23.2320  -31.6130 C   0  0  0  0  0  0  0  0  0  0  0  0
   -7.1940   22.0140  -31.1880 N   0  0  0  0  0  0  0  0  0  0  0  0
   -8.0970   22.3160  -30.0640 C   0  0  0  0  0  0  0  0  0  0  0  0
   -7.9580   21.4280  -32.3080 C   0  0  0  0  0  0  0  0  0  0  0  0
   -7.4240   20.0590  -32.6440 C   0  0  0  0  0  0  0  0  0  0  0  0
   -8.0610   18.9060  -32.1700 C   0  0  0  0  0  0  0  0  0  0  0  0
   -7.5740   17.6390  -32.5050 C   0  0  0  0  0  0  0  0  0  0  0  0
   -6.4300   17.4870  -33.3230 C   0  0  0  0  0  0  0  0  0  0  0  0
   -5.9210   16.1640  -33.6780 N   0  0  0  0  0  0  0  0  0  0  0  0
   -4.4610   15.9310  -33.6950 C   0  0  0  0  0  0  0  0  0  0  0  0
   -4.0750   14.4820  -34.0060 C   0  0  0  0  0  0  0  0  0  0  0  0
   -4.9280   13.9290  -34.9790 O   0  0  0  0  0  0  0  0  0  0  0  0
   -6.2050   13.7710  -34.4110 C   0  0  0  0  0  0  0  0  0  0  0  0
   -6.8640   15.1300  -34.1540 C   0  0  0  0  0  0  0  0  0  0  0  0
   -5.8030   18.6650  -33.7960 C   0  0  0  0  0  0  0  0  0  0  0  0
   -6.2930   19.9300  -33.4570 C   0  0  0  0  0  0  0  0  0  0  0  0
   -4.4600   24.2540  -30.4680 C   0  0  0  0  0  0  0  0  0  0  0  0
   -2.6360   25.3022  -27.2781 H   0  0  0  0  0  0  0  0  0  0  0  0
   -1.3738   24.2736  -28.0368 H   0  0  0  0  0  0  0  0  0  0  0  0
   -1.1954   26.0610  -28.0368 H   0  0  0  0  0  0  0  0  0  0  0  0
   -1.3442   22.9561  -29.9076 H   0  0  0  0  0  0  0  0  0  0  0  0
   -2.3719   21.0287  -31.1098 H   0  0  0  0  0  0  0  0  0  0  0  0
   -4.7350   21.1552  -31.8955 H   0  0  0  0  0  0  0  0  0  0  0  0
   -6.9583   24.1159  -31.1757 H   0  0  0  0  0  0  0  0  0  0  0  0
   -6.4914   23.2990  -32.7108 H   0  0  0  0  0  0  0  0  0  0  0  0
   -7.5713   22.1402  -29.1139 H   0  0  0  0  0  0  0  0  0  0  0  0
   -8.4121   23.3684  -30.1194 H   0  0  0  0  0  0  0  0  0  0  0  0
   -8.9819   21.6649  -30.1194 H   0  0  0  0  0  0  0  0  0  0  0  0
   -9.0166   21.3445  -32.0211 H   0  0  0  0  0  0  0  0  0  0  0  0
   -7.8574   22.0782  -33.1895 H   0  0  0  0  0  0  0  0  0  0  0  0
   -8.9507   18.9975  -31.5296 H   0  0  0  0  0  0  0  0  0  0  0  0
   -8.0896   16.7444  -32.1257 H   0  0  0  0  0  0  0  0  0  0  0  0
   -4.0138   16.5820  -34.4607 H   0  0  0  0  0  0  0  0  0  0  0  0
   -4.0868   16.1549  -32.6851 H   0  0  0  0  0  0  0  0  0  0  0  0
   -3.0406   14.4578  -34.3793 H   0  0  0  0  0  0  0  0  0  0  0  0
   -4.1666   13.8900  -33.0834 H   0  0  0  0  0  0  0  0  0  0  0  0
   -6.8357   13.1900  -35.1000 H   0  0  0  0  0  0  0  0  0  0  0  0
   -6.0985   13.2461  -33.4502 H   0  0  0  0  0  0  0  0  0  0  0  0
   -7.3183   15.4793  -35.0929 H   0  0  0  0  0  0  0  0  0  0  0  0
   -7.6092   14.9820  -33.3585 H   0  0  0  0  0  0  0  0  0  0  0  0
   -4.9156   18.5837  -34.4409 H   0  0  0  0  0  0  0  0  0  0  0  0
   -5.7852   20.8306  -33.8325 H   0  0  0  0  0  0  0  0  0  0  0  0
   -5.0520   25.1629  -30.2850 H   0  0  0  0  0  0  0  0  0  0  0  0
  1  2  1  0
  2  3  1  0
  3  4  2  0
  4  5  1  0
  5  6  2  0
  6  7  1  0
  7  8  1  0
  8  9  1  0
  9 10  1  0
  9 11  1  0
 11 12  1  0
 12 13  2  0
 13 14  1  0
 14 15  2  0
 15 16  1  0
 16 17  1  0
 17 18  1  0
 18 19  1  0
 19 20  1  0
 20 21  1  0
 15 22  1  0
 22 23  2  0
  7 24  2  0
 24  3  1  0
 23 12  1  0
 21 16  1  0
  1 25  1  0
  1 26  1  0
  1 27  1  0
  4 28  1  0
  5 29  1  0
  6 30  1  0
  8 31  1  0
  8 32  1  0
 10 33  1  0
 10 34  1  0
 10 35  1  0
 11 36  1  0
 11 37  1  0
 13 38  1  0
 14 39  1  0
 17 40  1  0
 17 41  1  0
 18 42  1  0
 18 43  1  0
 20 44  1  0
 20 45  1  0
 21 46  1  0
 21 47  1  0
 22 48  1  0
 23 49  1  0
 24 50  1  0
M  END
>  <UniqueID>  (41) 
38

>  <SMILES>  (41) 
COc1cccc(CN(C)Cc2ccc(N3CCOCC3)cc2)c1

>  <Energy>  (41) 
58.08931515954292

>  <Genealogy>  (41) 
COc1cccc(CN(C)Cc2ccc(N3CCOCC3)cc2)c1 (3D coordinates assigned)
COc1cccc(CN(C)Cc2ccc(N3CCOCC3)cc2)c1 (nonaromatic ring conformer: 58.08931515954292 kcal/mol)

>  <smiles>  (41) 
COc1cccc(CN(C)Cc2ccc(N3CCOCC3)cc2)c1

>  <score_type>  (41) 
oracle

>  <origin>  (41) 
adg

>  <m_score__min__energy>  (41) 
-8.1999999999999993

>  <m_primary>  (41) 
energy

$$$$
41:0
     RDKit          3D

 70 74  0  0  0  0  0  0  0  0999 V2000
   -1.6740   18.6870  -26.9790 C   0  0  0  0  0  0  0  0  0  0  0  0
   -1.7240   20.1530  -27.3020 C   0  0  0  0  0  0  0  0  0  0  0  0
   -0.5430   20.9090  -27.3820 C   0  0  0  0  0  0  0  0  0  0  0  0
   -0.5990   22.2760  -27.6660 C   0  0  0  0  0  0  0  0  0  0  0  0
   -1.8360   22.9030  -27.8680 C   0  0  0  0  0  0  0  0  0  0  0  0
   -1.9030   24.6210  -28.2510 S   0  0  0  0  0  0  0  0  0  0  0  0
   -0.5040   25.1610  -28.3720 O   0  0  0  0  0  0  0  0  0  0  0  0
   -2.5920   25.3310  -27.1180 O   0  0  0  0  0  0  0  0  0  0  0  0
   -2.7730   24.9410  -29.7210 N   0  0  0  0  0  0  0  0  0  0  0  0
   -3.7320   24.0710  -30.3310 C   0  0  0  0  0  0  0  0  0  0  0  0
   -4.9640   24.3120  -30.2110 O   0  0  0  0  0  0  0  0  0  0  0  0
   -3.2850   22.8980  -31.1270 C   0  0  0  0  0  0  0  0  0  0  0  0
   -2.0280   22.3290  -30.8610 C   0  0  0  0  0  0  0  0  0  0  0  0
   -1.5920   21.1990  -31.5530 C   0  0  0  0  0  0  0  0  0  0  0  0
   -2.3880   20.6190  -32.5510 C   0  0  0  0  0  0  0  0  0  0  0  0
   -1.9480   19.4320  -33.2510 N   0  0  0  0  0  0  0  0  0  0  0  0
   -0.6220   19.3840  -33.8850 C   0  0  0  0  0  0  0  0  0  0  0  0
   -0.5830   18.2940  -34.9670 C   0  0  0  0  0  0  0  0  0  0  0  0
   -0.9540   16.9440  -34.4510 N   0  0  0  0  0  0  0  0  0  0  0  0
    0.2430   16.1510  -34.0680 C   0  0  0  0  0  0  0  0  0  0  0  0
    0.5460   16.2390  -32.5870 C   0  0  0  0  0  0  0  0  0  0  0  0
    0.3360   15.1310  -31.7480 C   0  0  0  0  0  0  0  0  0  0  0  0
    0.6460   15.2080  -30.3870 C   0  0  0  0  0  0  0  0  0  0  0  0
    1.1690   16.3910  -29.8550 C   0  0  0  0  0  0  0  0  0  0  0  0
    1.3860   17.4950  -30.6850 C   0  0  0  0  0  0  0  0  0  0  0  0
    1.0790   17.4200  -32.0480 C   0  0  0  0  0  0  0  0  0  0  0  0
   -1.9130   16.9810  -33.3100 C   0  0  0  0  0  0  0  0  0  0  0  0
   -2.7950   18.2340  -33.3090 C   0  0  0  0  0  0  0  0  0  0  0  0
   -3.6270   21.2100  -32.8500 C   0  0  0  0  0  0  0  0  0  0  0  0
   -4.1000   22.3220  -32.1270 C   0  0  0  0  0  0  0  0  0  0  0  0
   -5.3440   22.9020  -32.4270 O   0  0  0  0  0  0  0  0  0  0  0  0
   -6.6070   22.3130  -32.2720 C   0  0  0  0  0  0  0  0  0  0  0  0
   -6.8300   20.9370  -32.4660 C   0  0  0  0  0  0  0  0  0  0  0  0
   -8.1090   20.3980  -32.2830 C   0  0  0  0  0  0  0  0  0  0  0  0
   -9.1660   21.2200  -31.8820 C   0  0  0  0  0  0  0  0  0  0  0  0
   -8.9440   22.5780  -31.6500 C   0  0  0  0  0  0  0  0  0  0  0  0
   -7.6710   23.1200  -31.8430 C   0  0  0  0  0  0  0  0  0  0  0  0
   -3.0180   22.1560  -27.7610 C   0  0  0  0  0  0  0  0  0  0  0  0
   -2.9620   20.7890  -27.4710 C   0  0  0  0  0  0  0  0  0  0  0  0
   -1.6694   18.5520  -25.8873 H   0  0  0  0  0  0  0  0  0  0  0  0
   -2.5556   18.1871  -27.4066 H   0  0  0  0  0  0  0  0  0  0  0  0
   -0.7604   18.2483  -27.4066 H   0  0  0  0  0  0  0  0  0  0  0  0
    0.4304   20.4228  -27.2204 H   0  0  0  0  0  0  0  0  0  0  0  0
    0.3300   22.8614  -27.7312 H   0  0  0  0  0  0  0  0  0  0  0  0
   -1.3789   22.7809  -30.0965 H   0  0  0  0  0  0  0  0  0  0  0  0
   -0.6131   20.7582  -31.3132 H   0  0  0  0  0  0  0  0  0  0  0  0
   -0.4052   20.3592  -34.3454 H   0  0  0  0  0  0  0  0  0  0  0  0
    0.1313   19.1514  -33.1179 H   0  0  0  0  0  0  0  0  0  0  0  0
   -1.2868   18.5689  -35.7664 H   0  0  0  0  0  0  0  0  0  0  0  0
    0.4524   18.2321  -35.3333 H   0  0  0  0  0  0  0  0  0  0  0  0
   -1.4380   16.4350  -35.2310 H   0  0  0  0  0  0  0  0  0  0  0  0
    0.0671   15.0973  -34.3303 H   0  0  0  0  0  0  0  0  0  0  0  0
    1.1058   16.5638  -34.6113 H   0  0  0  0  0  0  0  0  0  0  0  0
   -0.0741   14.1990  -32.1642 H   0  0  0  0  0  0  0  0  0  0  0  0
    0.4786   14.3383  -29.7346 H   0  0  0  0  0  0  0  0  0  0  0  0
    1.4096   16.4529  -28.7834 H   0  0  0  0  0  0  0  0  0  0  0  0
    1.7989   18.4243  -30.2656 H   0  0  0  0  0  0  0  0  0  0  0  0
    1.2559   18.2890  -32.6988 H   0  0  0  0  0  0  0  0  0  0  0  0
   -2.5626   16.0953  -33.3693 H   0  0  0  0  0  0  0  0  0  0  0  0
   -1.3209   16.9949  -32.3831 H   0  0  0  0  0  0  0  0  0  0  0  0
   -3.3994   18.2570  -34.2278 H   0  0  0  0  0  0  0  0  0  0  0  0
   -3.4589   18.2130  -32.4322 H   0  0  0  0  0  0  0  0  0  0  0  0
   -4.2394   20.7961  -33.6646 H   0  0  0  0  0  0  0  0  0  0  0  0
   -5.9967   20.2830  -32.7624 H   0  0  0  0  0  0  0  0  0  0  0  0
   -8.2825   19.3255  -32.4551 H   0  0  0  0  0  0  0  0  0  0  0  0
  -10.1725   20.7965  -31.7493 H   0  0  0  0  0  0  0  0  0  0  0  0
   -9.7710   23.2214  -31.3153 H   0  0  0  0  0  0  0  0  0  0  0  0
   -7.5013   24.1907  -31.6566 H   0  0  0  0  0  0  0  0  0  0  0  0
   -3.9919   22.6466  -27.9056 H   0  0  0  0  0  0  0  0  0  0  0  0
   -3.8928   20.2106  -27.3751 H   0  0  0  0  0  0  0  0  0  0  0  0
  1  2  1  0
  2  3  2  0
  3  4  1  0
  4  5  2  0
  5  6  1  0
  6  7  2  0
  6  8  2  0
  6  9  1  0
  9 10  1  0
 10 11  2  0
 10 12  1  0
 12 13  2  0
 13 14  1  0
 14 15  2  0
 15 16  1  0
 16 17  1  0
 17 18  1  0
 18 19  1  0
 19 20  1  0
 20 21  1  0
 21 22  2  0
 22 23  1  0
 23 24  2  0
 24 25  1  0
 25 26  2  0
 19 27  1  0
 27 28  1  0
 15 29  1  0
 29 30  2  0
 30 31  1  0
 31 32  1  0
 32 33  2  0
 33 34  1  0
 34 35  2  0
 35 36  1  0
 36 37  2  0
  5 38  1  0
 38 39  2  0
 39  2  1  0
 30 12  1  0
 37 32  1  0
 28 16  1  0
 26 21  1  0
  1 40  1  0
  1 41  1  0
  1 42  1  0
  3 43  1  0
  4 44  1  0
 13 45  1  0
 14 46  1  0
 17 47  1  0
 17 48  1  0
 18 49  1  0
 18 50  1  0
 19 51  1  0
 20 52  1  0
 20 53  1  0
 22 54  1  0
 23 55  1  0
 24 56  1  0
 25 57  1  0
 26 58  1  0
 27 59  1  0
 27 60  1  0
 28 61  1  0
 28 62  1  0
 29 63  1  0
 33 64  1  0
 34 65  1  0
 35 66  1  0
 36 67  1  0
 37 68  1  0
 38 69  1  0
 39 70  1  0
M  CHG  2   9  -1  19   1
M  END
>  <UniqueID>  (42) 
39

>  <SMILES>  (42) 
Cc1ccc(S(=O)(=O)[N-]C(=O)c2ccc(N3CC[NH+](Cc4ccccc4)CC3)cc2Oc2ccccc2)cc1

>  <Energy>  (42) 
99.70660971610671

>  <Genealogy>  (42) 
Cc1ccc(S(=O)(=O)[N-]C(=O)c2ccc(N3CC[NH+](Cc4ccccc4)CC3)cc2Oc2ccccc2)cc1 (protonated)
Cc1ccc(S(=O)(=O)[N-]C(=O)c2ccc(N3CC[NH+](Cc4ccccc4)CC3)cc2Oc2ccccc2)cc1 (3D coordinates assigned)
Cc1ccc(S(=O)(=O)[N-]C(=O)c2ccc(N3CC[NH+](Cc4ccccc4)CC3)cc2Oc2ccccc2)cc1 (nonaromatic ring conformer: 99.70660971610671 kcal/mol)

>  <smiles>  (42) 
Cc1ccc(S(=O)(=O)NC(=O)c2ccc(N3CCN(Cc4ccccc4)CC3)cc2Oc2ccccc2)cc1

>  <score_type>  (42) 
oracle

>  <origin>  (42) 
adg

>  <m_score__min__energy>  (42) 
-11.48

>  <m_primary>  (42) 
energy

$$$$
42:0
     RDKit          3D

 50 52  0  0  0  0  0  0  0  0999 V2000
   -1.2980   22.0330  -30.5310 C   0  0  0  0  0  0  0  0  0  0  0  0
   -2.9490   21.9570  -29.7690 S   0  0  0  0  0  0  0  0  0  0  0  0
   -2.5150   23.0780  -28.4290 C   0  0  0  0  0  0  0  0  0  0  0  0
   -1.2590   22.9370  -27.8250 C   0  0  0  0  0  0  0  0  0  0  0  0
   -0.8910   23.7630  -26.7590 C   0  0  0  0  0  0  0  0  0  0  0  0
   -1.7790   24.7290  -26.2820 C   0  0  0  0  0  0  0  0  0  0  0  0
   -3.0280   24.8900  -26.8890 C   0  0  0  0  0  0  0  0  0  0  0  0
   -3.3990   24.0920  -27.9920 C   0  0  0  0  0  0  0  0  0  0  0  0
   -4.6820   24.2640  -28.6280 N   0  0  0  0  0  0  0  0  0  0  0  0
   -4.8720   24.8770  -29.9130 C   0  0  0  0  0  0  0  0  0  0  0  0
   -3.8810   25.2940  -30.5790 O   0  0  0  0  0  0  0  0  0  0  0  0
   -6.2670   25.0430  -30.4610 C   0  0  0  0  0  0  0  0  0  0  0  0
   -6.6960   23.9360  -31.4420 C   0  0  0  0  0  0  0  0  0  0  0  0
   -7.6750   22.9020  -30.8460 C   0  0  0  0  0  0  0  0  0  0  0  0
   -8.4400   22.0850  -31.9090 C   0  0  0  0  0  0  0  0  0  0  0  0
   -8.1790   20.5760  -31.7880 C   0  0  0  0  0  0  0  0  0  0  0  0
   -7.7830   20.0040  -33.0770 N   0  0  0  0  0  0  0  0  0  0  0  0
   -6.4380   19.5870  -33.3570 C   0  0  0  0  0  0  0  0  0  0  0  0
   -6.1250   18.2840  -33.8200 C   0  0  0  0  0  0  0  0  0  0  0  0
   -4.7830   17.9140  -34.0720 C   0  0  0  0  0  0  0  0  0  0  0  0
   -3.7240   18.8280  -33.8590 C   0  0  0  0  0  0  0  0  0  0  0  0
   -2.3560   18.4450  -34.0910 N   0  0  0  0  0  0  0  0  0  0  0  0
   -1.5310   19.2670  -34.5360 O   0  0  0  0  0  0  0  0  0  0  0  0
   -1.9150   17.1910  -33.7220 O   0  0  0  0  0  0  0  0  0  0  0  0
   -4.0790   20.1040  -33.4080 C   0  0  0  0  0  0  0  0  0  0  0  0
   -3.2930   21.1440  -33.0910 N   0  0  0  0  0  0  0  0  0  0  0  0
   -4.1200   22.0730  -32.6820 O   0  0  0  0  0  0  0  0  0  0  0  0
   -5.3800   21.7200  -32.7020 N   0  0  0  0  0  0  0  0  0  0  0  0
   -5.3670   20.4640  -33.1730 C   0  0  0  0  0  0  0  0  0  0  0  0
   -0.5316   22.0683  -29.7427 H   0  0  0  0  0  0  0  0  0  0  0  0
   -1.1410   21.1411  -31.1554 H   0  0  0  0  0  0  0  0  0  0  0  0
   -1.2236   22.9355  -31.1554 H   0  0  0  0  0  0  0  0  0  0  0  0
   -0.5585   22.1722  -28.1915 H   0  0  0  0  0  0  0  0  0  0  0  0
    0.1002   23.6517  -26.2951 H   0  0  0  0  0  0  0  0  0  0  0  0
   -1.4960   25.3632  -25.4289 H   0  0  0  0  0  0  0  0  0  0  0  0
   -3.7280   25.6457  -26.5032 H   0  0  0  0  0  0  0  0  0  0  0  0
   -5.5250   23.8500  -28.1690 H   0  0  0  0  0  0  0  0  0  0  0  0
   -6.9713   25.0470  -29.6160 H   0  0  0  0  0  0  0  0  0  0  0  0
   -6.2742   25.9865  -31.0265 H   0  0  0  0  0  0  0  0  0  0  0  0
   -7.1819   24.4116  -32.3067 H   0  0  0  0  0  0  0  0  0  0  0  0
   -5.7833   23.3851  -31.7132 H   0  0  0  0  0  0  0  0  0  0  0  0
   -7.1023   22.2039  -30.2177 H   0  0  0  0  0  0  0  0  0  0  0  0
   -8.4260   23.4649  -30.2723 H   0  0  0  0  0  0  0  0  0  0  0  0
   -9.5178   22.2679  -31.7868 H   0  0  0  0  0  0  0  0  0  0  0  0
   -8.0858   22.4081  -32.8990 H   0  0  0  0  0  0  0  0  0  0  0  0
   -7.3735   20.4082  -31.0579 H   0  0  0  0  0  0  0  0  0  0  0  0
   -9.1074   20.0863  -31.4590 H   0  0  0  0  0  0  0  0  0  0  0  0
   -8.4740   19.9870  -33.8630 H   0  0  0  0  0  0  0  0  0  0  0  0
   -6.9321   17.5549  -33.9846 H   0  0  0  0  0  0  0  0  0  0  0  0
   -4.5596   16.9013  -34.4388 H   0  0  0  0  0  0  0  0  0  0  0  0
  1  2  1  0
  2  3  1  0
  3  4  2  0
  4  5  1  0
  5  6  2  0
  6  7  1  0
  7  8  2  0
  8  9  1  0
  9 10  1  0
 10 11  2  0
 10 12  1  0
 12 13  1  0
 13 14  1  0
 14 15  1  0
 15 16  1  0
 16 17  1  0
 17 18  1  0
 18 19  2  0
 19 20  1  0
 20 21  2  0
 21 22  1  0
 22 23  2  0
 22 24  1  0
 21 25  1  0
 25 26  2  0
 26 27  1  0
 27 28  1  0
 28 29  2  0
  8  3  1  0
 29 18  1  0
 29 25  1  0
  1 30  1  0
  1 31  1  0
  1 32  1  0
  4 33  1  0
  5 34  1  0
  6 35  1  0
  7 36  1  0
  9 37  1  0
 12 38  1  0
 12 39  1  0
 13 40  1  0
 13 41  1  0
 14 42  1  0
 14 43  1  0
 15 44  1  0
 15 45  1  0
 16 46  1  0
 16 47  1  0
 17 48  1  0
 19 49  1  0
 20 50  1  0
M  CHG  2  22   1  24  -1
M  END
>  <UniqueID>  (43) 
40

>  <SMILES>  (43) 
CSc1ccccc1NC(=O)CCCCCNc1ccc([N+](=O)[O-])c2nonc12

>  <Energy>  (43) 
88.33469849871594

>  <Genealogy>  (43) 
CSc1ccccc1NC(=O)CCCCCNc1ccc([N+](=O)[O-])c2nonc12 (3D coordinates assigned)
CSc1ccccc1NC(=O)CCCCCNc1ccc([N+](=O)[O-])c2nonc12 (optimized conformer: 88.33469849871594 kcal/mol)

>  <smiles>  (43) 
CSc1ccccc1NC(=O)CCCCCNc1ccc([N+](=O)[O-])c2nonc12

>  <score_type>  (43) 
oracle

>  <origin>  (43) 
adg

>  <m_score__min__energy>  (43) 
-9.6099999999999994

>  <m_primary>  (43) 
energy

$$$$
43:0
     RDKit          3D

 49 52  0  0  1  0  0  0  0  0999 V2000
   -3.3860   16.2610  -35.6310 N   0  0  0  0  0  0  0  0  0  0  0  0
   -3.7300   17.2540  -34.8670 C   0  0  0  0  0  0  0  0  0  0  0  0
   -2.8870   17.7410  -33.9250 N   0  0  0  0  0  0  0  0  0  0  0  0
   -3.2690   18.7540  -33.1680 C   0  0  0  0  0  0  0  0  0  0  0  0
   -2.4490   19.3800  -32.0900 C   0  0  0  0  0  0  0  0  0  0  0  0
   -2.0160   20.6450  -32.5380 N   0  0  0  0  0  0  0  0  0  0  0  0
   -2.8970   21.4550  -33.2730 C   0  0  0  0  0  0  0  0  0  0  0  0
   -3.7850   22.2830  -32.3680 C   0  0  0  0  0  0  0  0  0  0  0  0
   -3.1180   22.8040  -31.2150 N   0  0  0  0  0  0  0  0  0  0  0  0
   -3.6460   23.9400  -30.5040 C   0  0  0  0  0  0  0  0  0  0  0  0
   -4.6990   24.4270  -30.9610 O   0  0  0  0  0  0  0  0  0  0  0  0
   -2.9580   24.4520  -29.3250 C   0  0  0  0  0  0  0  0  0  0  0  0
   -3.3180   24.0750  -28.0310 C   0  0  0  0  0  0  0  0  0  0  0  0
   -2.4440   24.7630  -27.2080 C   0  0  0  0  0  0  0  0  0  0  0  0
   -1.6110   25.5100  -28.0020 C   0  0  0  0  0  0  0  0  0  0  0  0
   -1.9590   25.2890  -29.2550 O   0  0  0  0  0  0  0  0  0  0  0  0
   -1.8880   22.2430  -30.6850 C   0  0  0  0  0  0  0  0  0  0  0  0
   -1.1840   21.3350  -31.6400 C   0  0  0  0  0  0  0  0  0  0  0  0
   -4.4990   19.2790  -33.3560 N   0  0  0  0  0  0  0  0  0  0  0  0
   -5.3290   18.7880  -34.2930 C   0  0  0  0  0  0  0  0  0  0  0  0
   -6.4860   19.3450  -34.3960 N   0  0  0  0  0  0  0  0  0  0  0  0
   -7.1820   19.8450  -33.2640 C   0  0  0  0  0  0  0  0  0  0  0  0
   -6.9950   21.1300  -32.7800 C   0  0  0  0  0  0  0  0  0  0  0  0
   -7.7340   21.4890  -31.6790 C   0  0  0  0  0  0  0  0  0  0  0  0
   -8.6300   20.6410  -31.0540 C   0  0  0  0  0  0  0  0  0  0  0  0
   -8.8090   19.3480  -31.5500 C   0  0  0  0  0  0  0  0  0  0  0  0
   -8.0740   18.9900  -32.6460 C   0  0  0  0  0  0  0  0  0  0  0  0
   -4.9610   17.7590  -35.0740 N   0  0  0  0  0  0  0  0  0  0  0  0
   -2.5590   16.3610  -36.2920 H   0  0  0  0  0  0  0  0  0  0  0  0
   -3.0570   19.4960  -31.1807 H   0  0  0  0  0  0  0  0  0  0  0  0
   -1.5820   18.7443  -31.8572 H   0  0  0  0  0  0  0  0  0  0  0  0
   -2.3102   22.1312  -33.9121 H   0  0  0  0  0  0  0  0  0  0  0  0
   -3.5407   20.7997  -33.8782 H   0  0  0  0  0  0  0  0  0  0  0  0
   -4.1798   23.1285  -32.9505 H   0  0  0  0  0  0  0  0  0  0  0  0
   -4.5773   21.6138  -32.0014 H   0  0  0  0  0  0  0  0  0  0  0  0
   -4.1194   23.3837  -27.7313 H   0  0  0  0  0  0  0  0  0  0  0  0
   -2.4211   24.7188  -26.1091 H   0  0  0  0  0  0  0  0  0  0  0  0
   -0.8022   26.1711  -27.6573 H   0  0  0  0  0  0  0  0  0  0  0  0
   -1.2105   23.0708  -30.4287 H   0  0  0  0  0  0  0  0  0  0  0  0
   -2.1612   21.6386  -29.8075 H   0  0  0  0  0  0  0  0  0  0  0  0
   -0.4787   21.9410  -32.2276 H   0  0  0  0  0  0  0  0  0  0  0  0
   -0.6971   20.5647  -31.0239 H   0  0  0  0  0  0  0  0  0  0  0  0
   -4.8260   20.0950  -32.7590 H   0  0  0  0  0  0  0  0  0  0  0  0
   -6.2895   21.8282  -33.2541 H   0  0  0  0  0  0  0  0  0  0  0  0
   -7.6064   22.5035  -31.2735 H   0  0  0  0  0  0  0  0  0  0  0  0
   -9.1962   20.9818  -30.1746 H   0  0  0  0  0  0  0  0  0  0  0  0
   -9.5125   18.6462  -31.0783 H   0  0  0  0  0  0  0  0  0  0  0  0
   -8.1985   17.9760  -33.0538 H   0  0  0  0  0  0  0  0  0  0  0  0
   -5.6290   17.4060  -35.7880 H   0  0  0  0  0  0  0  0  0  0  0  0
  1  2  2  3
  2  3  1  0
  3  4  2  0
  4  5  1  0
  5  6  1  0
  6  7  1  0
  7  8  1  0
  8  9  1  0
  9 10  1  0
 10 11  2  0
 10 12  1  0
 12 13  2  0
 13 14  1  0
 14 15  2  0
 15 16  1  0
  9 17  1  0
 17 18  1  0
  4 19  1  0
 19 20  1  0
 20 21  2  0
 21 22  1  0
 22 23  2  0
 23 24  1  0
 24 25  2  0
 25 26  1  0
 26 27  2  0
 20 28  1  0
 28  2  1  0
 18  6  1  0
 27 22  1  0
 16 12  1  0
  1 29  1  0
  5 30  1  0
  5 31  1  0
  7 32  1  0
  7 33  1  0
  8 34  1  0
  8 35  1  0
 13 36  1  0
 14 37  1  0
 15 38  1  0
 17 39  1  0
 17 40  1  0
 18 41  1  0
 18 42  1  0
 19 43  1  0
 23 44  1  0
 24 45  1  0
 25 46  1  0
 26 47  1  0
 27 48  1  0
 28 49  1  0
M  END
>  <smiles>  (44) 
N=c1nc(CN2CCN(C(=O)c3ccco3)CC2)[nH]c(=Nc2ccccc2)[nH]1

>  <score_type>  (44) 
oracle

>  <origin>  (44) 
adg

>  <m_score__min__energy>  (44) 
-8.75

>  <m_primary>  (44) 
energy

$$$$
44:0
     RDKit          3D

 27 28  0  0  0  0  0  0  0  0999 V2000
   -4.5830   23.9160  -28.7960 C   0  0  0  0  0  0  0  0  0  0  0  0
   -4.8220   24.7960  -29.9860 C   0  0  0  0  0  0  0  0  0  0  0  0
   -3.8700   25.3010  -30.5580 O   0  0  0  0  0  0  0  0  0  0  0  0
   -6.2170   25.0460  -30.4910 C   0  0  0  0  0  0  0  0  0  0  0  0
   -6.4470   24.3400  -31.7100 O   0  0  0  0  0  0  0  0  0  0  0  0
   -7.1420   23.1250  -31.8280 C   0  0  0  0  0  0  0  0  0  0  0  0
   -8.5490   23.0530  -31.8260 C   0  0  0  0  0  0  0  0  0  0  0  0
   -9.1950   21.8190  -31.9440 C   0  0  0  0  0  0  0  0  0  0  0  0
   -8.4490   20.6400  -32.0680 C   0  0  0  0  0  0  0  0  0  0  0  0
   -9.0880   19.3960  -32.1860 C   0  0  0  0  0  0  0  0  0  0  0  0
   -8.3310   18.2270  -32.3100 C   0  0  0  0  0  0  0  0  0  0  0  0
   -6.9350   18.2900  -32.3170 C   0  0  0  0  0  0  0  0  0  0  0  0
   -6.2870   19.5230  -32.1990 C   0  0  0  0  0  0  0  0  0  0  0  0
   -7.0350   20.7040  -32.0740 C   0  0  0  0  0  0  0  0  0  0  0  0
   -6.3960   21.9480  -31.9550 C   0  0  0  0  0  0  0  0  0  0  0  0
   -4.7403   24.4952  -27.8742 H   0  0  0  0  0  0  0  0  0  0  0  0
   -5.2834   23.0682  -28.8204 H   0  0  0  0  0  0  0  0  0  0  0  0
   -3.5499   23.5390  -28.8204 H   0  0  0  0  0  0  0  0  0  0  0  0
   -6.9407   24.7067  -29.7353 H   0  0  0  0  0  0  0  0  0  0  0  0
   -6.3372   26.1232  -30.6784 H   0  0  0  0  0  0  0  0  0  0  0  0
   -9.1431   23.9739  -31.7310 H   0  0  0  0  0  0  0  0  0  0  0  0
  -10.2941   21.7736  -31.9395 H   0  0  0  0  0  0  0  0  0  0  0  0
  -10.1866   19.3406  -32.1809 H   0  0  0  0  0  0  0  0  0  0  0  0
   -8.8361   17.2542  -32.4024 H   0  0  0  0  0  0  0  0  0  0  0  0
   -6.3446   17.3671  -32.4156 H   0  0  0  0  0  0  0  0  0  0  0  0
   -5.1879   19.5678  -32.2041 H   0  0  0  0  0  0  0  0  0  0  0  0
   -5.2972   21.9982  -31.9616 H   0  0  0  0  0  0  0  0  0  0  0  0
  1  2  1  0
  2  3  2  0
  2  4  1  0
  4  5  1  0
  5  6  1  0
  6  7  2  0
  7  8  1  0
  8  9  2  0
  9 10  1  0
 10 11  2  0
 11 12  1  0
 12 13  2  0
 13 14  1  0
 14 15  2  0
 15  6  1  0
 14  9  1  0
  1 16  1  0
  1 17  1  0
  1 18  1  0
  4 19  1  0
  4 20  1  0
  7 21  1  0
  8 22  1  0
 10 23  1  0
 11 24  1  0
 12 25  1  0
 13 26  1  0
 15 27  1  0
M  END
>  <UniqueID>  (45) 
41

>  <SMILES>  (45) 
CC(=O)COc1ccc2ccccc2c1

>  <Energy>  (45) 
27.329918968136266

>  <Genealogy>  (45) 
CC(=O)COc1ccc2ccccc2c1 (3D coordinates assigned)
CC(=O)COc1ccc2ccccc2c1 (optimized conformer: 27.329918968136266 kcal/mol)

>  <smiles>  (45) 
CC(=O)COc1ccc2ccccc2c1

>  <score_type>  (45) 
oracle

>  <origin>  (45) 
adg

>  <m_score__min__energy>  (45) 
-7.4500000000000002

>  <m_primary>  (45) 
energy

$$$$
45:0
     RDKit          3D

 40 42  0  0  0  0  0  0  0  0999 V2000
   -1.3040   25.5940  -28.0720 C   0  0  0  0  0  0  0  0  0  0  0  0
   -1.9740   25.3020  -29.2940 O   0  0  0  0  0  0  0  0  0  0  0  0
   -2.3170   24.0100  -29.7240 C   0  0  0  0  0  0  0  0  0  0  0  0
   -1.5450   22.8820  -29.3880 C   0  0  0  0  0  0  0  0  0  0  0  0
   -1.9180   21.6110  -29.8310 C   0  0  0  0  0  0  0  0  0  0  0  0
   -3.0580   21.4500  -30.6280 C   0  0  0  0  0  0  0  0  0  0  0  0
   -3.4310   20.1850  -31.1030 C   0  0  0  0  0  0  0  0  0  0  0  0
   -4.5580   20.0540  -31.9240 C   0  0  0  0  0  0  0  0  0  0  0  0
   -4.9550   18.8020  -32.4180 C   0  0  0  0  0  0  0  0  0  0  0  0
   -6.0810   18.6960  -33.2510 C   0  0  0  0  0  0  0  0  0  0  0  0
   -6.5280   17.3520  -33.7470 C   0  0  0  0  0  0  0  0  0  0  0  0
   -6.8230   19.8460  -33.5630 C   0  0  0  0  0  0  0  0  0  0  0  0
   -6.4310   21.0950  -33.0730 C   0  0  0  0  0  0  0  0  0  0  0  0
   -5.3010   21.2060  -32.2570 C   0  0  0  0  0  0  0  0  0  0  0  0
   -4.9230   22.4210  -31.7800 N   0  0  0  0  0  0  0  0  0  0  0  0
   -3.8400   22.5760  -30.9710 C   0  0  0  0  0  0  0  0  0  0  0  0
   -3.4750   23.8530  -30.5010 C   0  0  0  0  0  0  0  0  0  0  0  0
   -4.2340   24.9910  -30.8100 O   0  0  0  0  0  0  0  0  0  0  0  0
   -5.4550   25.3300  -30.1480 C   0  0  0  0  0  0  0  0  0  0  0  0
   -6.6340   24.6310  -30.8290 C   0  0  0  0  0  0  0  0  0  0  0  0
   -5.3550   24.9070  -28.6850 C   0  0  0  0  0  0  0  0  0  0  0  0
   -1.9474   25.3136  -27.2250 H   0  0  0  0  0  0  0  0  0  0  0  0
   -0.3647   25.0236  -28.0235 H   0  0  0  0  0  0  0  0  0  0  0  0
   -1.0823   26.6703  -28.0235 H   0  0  0  0  0  0  0  0  0  0  0  0
   -0.6415   23.0023  -28.7722 H   0  0  0  0  0  0  0  0  0  0  0  0
   -1.3147   20.7342  -29.5531 H   0  0  0  0  0  0  0  0  0  0  0  0
   -2.8402   19.2977  -30.8317 H   0  0  0  0  0  0  0  0  0  0  0  0
   -4.3828   17.9010  -32.1521 H   0  0  0  0  0  0  0  0  0  0  0  0
   -6.7454   16.6984  -32.8894 H   0  0  0  0  0  0  0  0  0  0  0  0
   -7.4354   17.4697  -34.3576 H   0  0  0  0  0  0  0  0  0  0  0  0
   -5.7309   16.9028  -34.3576 H   0  0  0  0  0  0  0  0  0  0  0  0
   -7.7182   19.7638  -34.1969 H   0  0  0  0  0  0  0  0  0  0  0  0
   -7.0127   21.9925  -33.3299 H   0  0  0  0  0  0  0  0  0  0  0  0
   -5.6219   26.4158  -30.2046 H   0  0  0  0  0  0  0  0  0  0  0  0
   -7.3134   24.2282  -30.0634 H   0  0  0  0  0  0  0  0  0  0  0  0
   -7.1760   25.3538  -31.4565 H   0  0  0  0  0  0  0  0  0  0  0  0
   -6.2600   23.8086  -31.4565 H   0  0  0  0  0  0  0  0  0  0  0  0
   -5.5597   25.7729  -28.0382 H   0  0  0  0  0  0  0  0  0  0  0  0
   -6.0907   24.1150  -28.4812 H   0  0  0  0  0  0  0  0  0  0  0  0
   -4.3426   24.5283  -28.4812 H   0  0  0  0  0  0  0  0  0  0  0  0
  1  2  1  0
  2  3  1  0
  3  4  2  0
  4  5  1  0
  5  6  2  0
  6  7  1  0
  7  8  2  0
  8  9  1  0
  9 10  2  0
 10 11  1  0
 10 12  1  0
 12 13  2  0
 13 14  1  0
 14 15  2  0
 15 16  1  0
 16 17  2  0
 17 18  1  0
 18 19  1  0
 19 20  1  0
 19 21  1  0
 17  3  1  0
 16  6  1  0
 14  8  1  0
  1 22  1  0
  1 23  1  0
  1 24  1  0
  4 25  1  0
  5 26  1  0
  7 27  1  0
  9 28  1  0
 11 29  1  0
 11 30  1  0
 11 31  1  0
 12 32  1  0
 13 33  1  0
 19 34  1  0
 20 35  1  0
 20 36  1  0
 20 37  1  0
 21 38  1  0
 21 39  1  0
 21 40  1  0
M  END
>  <UniqueID>  (46) 
42

>  <SMILES>  (46) 
COc1ccc2cc3cc(C)ccc3nc2c1OC(C)C

>  <Energy>  (46) 
46.98680388470108

>  <Genealogy>  (46) 
COc1ccc2cc3cc(C)ccc3nc2c1OC(C)C (3D coordinates assigned)
COc1ccc2cc3cc(C)ccc3nc2c1OC(C)C (optimized conformer: 46.98680388470108 kcal/mol)

>  <smiles>  (46) 
COc1ccc2cc3cc(C)ccc3nc2c1OC(C)C

>  <score_type>  (46) 
oracle

>  <origin>  (46) 
adg

>  <m_score__min__energy>  (46) 
-8.0199999999999996

>  <m_primary>  (46) 
energy

$$$$
46:0
     RDKit          3D

 50 52  0  0  0  0  0  0  0  0999 V2000
  -10.4022   21.9790  -31.2577 H   0  0  0  0  0  0  0  0  0  0  0  0
   -9.4150   21.6620  -31.6250 C   0  0  0  0  0  0  0  0  0  0  0  0
   -9.1900   20.3580  -31.9220 N   0  0  0  0  0  0  0  0  0  0  0  0
   -8.0020   19.9300  -32.4280 C   0  0  0  0  0  0  0  0  0  0  0  0
   -7.8550   18.5710  -32.7440 C   0  0  0  0  0  0  0  0  0  0  0  0
   -8.6665   17.8647  -32.5146 H   0  0  0  0  0  0  0  0  0  0  0  0
   -6.6840   18.1110  -33.3480 C   0  0  0  0  0  0  0  0  0  0  0  0
   -6.5120   16.4180  -33.7620 Cl  0  0  0  0  0  0  0  0  0  0  0  0
   -5.6680   19.0110  -33.6660 C   0  0  0  0  0  0  0  0  0  0  0  0
   -4.7594   18.6538  -34.1729 H   0  0  0  0  0  0  0  0  0  0  0  0
   -5.7980   20.3650  -33.3440 C   0  0  0  0  0  0  0  0  0  0  0  0
   -5.0004   21.0663  -33.6303 H   0  0  0  0  0  0  0  0  0  0  0  0
   -6.9370   20.8520  -32.6560 C   0  0  0  0  0  0  0  0  0  0  0  0
   -7.1260   22.2130  -32.2310 C   0  0  0  0  0  0  0  0  0  0  0  0
   -6.1940   23.1270  -32.1130 N   0  0  0  0  0  0  0  0  0  0  0  0
   -5.0630   23.3060  -31.2010 C   0  0  0  0  0  0  0  0  0  0  0  0
   -4.1278   23.1246  -31.7509 H   0  0  0  0  0  0  0  0  0  0  0  0
   -5.1723   22.5932  -30.3703 H   0  0  0  0  0  0  0  0  0  0  0  0
   -5.0320   24.7280  -30.6170 C   0  0  0  0  0  0  0  0  0  0  0  0
   -5.5247   24.7257  -29.6335 H   0  0  0  0  0  0  0  0  0  0  0  0
   -5.5590   25.4055  -31.3050 H   0  0  0  0  0  0  0  0  0  0  0  0
   -3.6540   25.1910  -30.4630 N   0  0  0  0  0  0  0  0  0  0  0  0
   -2.7850   24.8220  -29.3830 C   0  0  0  0  0  0  0  0  0  0  0  0
   -1.9460   25.6630  -28.9700 O   0  0  0  0  0  0  0  0  0  0  0  0
   -2.9070   23.4930  -28.6780 C   0  0  0  0  0  0  0  0  0  0  0  0
   -3.6941   22.9029  -29.1702 H   0  0  0  0  0  0  0  0  0  0  0  0
   -3.1527   23.6934  -27.6247 H   0  0  0  0  0  0  0  0  0  0  0  0
   -1.6000   22.6930  -28.7090 C   0  0  0  0  0  0  0  0  0  0  0  0
   -1.0747   22.9072  -29.6514 H   0  0  0  0  0  0  0  0  0  0  0  0
   -1.8528   21.6255  -28.6284 H   0  0  0  0  0  0  0  0  0  0  0  0
   -0.7200   23.0360  -27.5880 N   0  0  0  0  0  0  0  0  0  0  0  0
    0.0010   24.2650  -27.4010 C   0  0  0  0  0  0  0  0  0  0  0  0
    0.9270   24.5450  -28.2080 O   0  0  0  0  0  0  0  0  0  0  0  0
   -0.2860   25.2030  -26.2930 C   0  0  0  0  0  0  0  0  0  0  0  0
   -0.4620   24.7420  -24.9760 C   0  0  0  0  0  0  0  0  0  0  0  0
   -0.3831   23.6669  -24.7570 H   0  0  0  0  0  0  0  0  0  0  0  0
   -0.7370   25.6450  -23.9430 C   0  0  0  0  0  0  0  0  0  0  0  0
   -0.8553   25.2785  -22.9126 H   0  0  0  0  0  0  0  0  0  0  0  0
   -0.8620   27.0100  -24.2140 C   0  0  0  0  0  0  0  0  0  0  0  0
   -1.0675   27.7161  -23.3960 H   0  0  0  0  0  0  0  0  0  0  0  0
   -0.7250   27.4830  -25.5350 C   0  0  0  0  0  0  0  0  0  0  0  0
   -0.8580   28.8410  -25.8650 O   0  0  0  0  0  0  0  0  0  0  0  0
   -0.4240   29.4160  -27.0900 C   0  0  0  0  0  0  0  0  0  0  0  0
    0.2265   30.2779  -26.8803 H   0  0  0  0  0  0  0  0  0  0  0  0
    0.1356   28.6665  -27.6689 H   0  0  0  0  0  0  0  0  0  0  0  0
   -1.2982   29.7487  -27.6689 H   0  0  0  0  0  0  0  0  0  0  0  0
   -0.4470   26.5700  -26.5650 C   0  0  0  0  0  0  0  0  0  0  0  0
   -0.3541   26.9316  -27.5997 H   0  0  0  0  0  0  0  0  0  0  0  0
   -8.4000   22.5990  -31.7840 C   0  0  0  0  0  0  0  0  0  0  0  0
   -8.5977   23.6569  -31.5566 H   0  0  0  0  0  0  0  0  0  0  0  0
  1  2  1  0
  2  3  1  0
  3  4  1  0
  4  5  2  0
  5  6  1  0
  5  7  1  0
  7  8  1  0
  7  9  2  0
  9 10  1  0
  9 11  1  0
 11 12  1  0
 11 13  2  0
 13 14  1  0
 14 15  2  0
 15 16  1  0
 16 17  1  0
 16 18  1  0
 16 19  1  0
 19 20  1  0
 19 21  1  0
 19 22  1  0
 22 23  1  0
 23 24  2  0
 23 25  1  0
 25 26  1  0
 25 27  1  0
 25 28  1  0
 28 29  1  0
 28 30  1  0
 28 31  1  0
 31 32  1  0
 32 33  2  0
 32 34  1  0
 34 35  2  0
 35 36  1  0
 35 37  1  0
 37 38  1  0
 37 39  2  0
 39 40  1  0
 39 41  1  0
 41 42  1  0
 42 43  1  0
 43 44  1  0
 43 45  1  0
 43 46  1  0
 41 47  2  0
 47 48  1  0
 14 49  1  0
 49 50  1  0
 49  2  2  0
 13  4  1  0
 47 34  1  0
M  CHG  3   3  -1  22  -1  31  -1
M  END
>  <UniqueID>  (47) 
43

>  <SMILES>  (47) 
COc1cccc(C(=O)[N-]CCC(=O)[N-]CC/N=c2/cc[n-]c3cc(Cl)ccc23)c1

>  <Energy>  (47) 
68.23530577312515

>  <Genealogy>  (47) 
COc1cccc(C(=O)[N-]CCC(=O)[N-]CCN=c2cc[n-]c3cc(Cl)ccc23)c1 (protonated)
COc1cccc(C(=O)[N-]CCC(=O)[N-]CC/N=c2/cc[n-]c3cc(Cl)ccc23)c1 (cis-trans isomerization)
COc1cccc(C(=O)[N-]CCC(=O)[N-]CC/N=c2/cc[n-]c3cc(Cl)ccc23)c1 (3D coordinates assigned)
COc1cccc(C(=O)[N-]CCC(=O)[N-]CC/N=c2/cc[n-]c3cc(Cl)ccc23)c1 (optimized conformer: 68.23530577312515 kcal/mol)

>  <smiles>  (47) 
COc1cccc(C(=O)NCCC(=O)NCCN=c2cc[nH]c3cc(Cl)ccc23)c1

>  <score_type>  (47) 
oracle

>  <origin>  (47) 
adg

>  <m_score__min__energy>  (47) 
-11.890000000000001

>  <m_primary>  (47) 
energy

$$$$
47:0
     RDKit          3D

 38 40  0  0  0  0  0  0  0  0999 V2000
   -5.8830   25.6750  -31.2370 O   0  0  0  0  0  0  0  0  0  0  0  0
   -5.2020   24.9220  -30.4930 C   0  0  0  0  0  0  0  0  0  0  0  0
   -5.8930   23.8260  -29.7260 C   0  0  0  0  0  0  0  0  0  0  0  0
   -6.6050   22.8800  -30.6590 C   0  0  0  0  0  0  0  0  0  0  0  0
   -6.0170   22.5080  -31.8770 C   0  0  0  0  0  0  0  0  0  0  0  0
   -6.6720   21.5980  -32.7100 C   0  0  0  0  0  0  0  0  0  0  0  0
   -7.8750   21.0830  -32.3430 N   0  0  0  0  0  0  0  0  0  0  0  0
   -8.4740   21.4320  -31.1740 C   0  0  0  0  0  0  0  0  0  0  0  0
   -7.8530   22.3390  -30.3110 C   0  0  0  0  0  0  0  0  0  0  0  0
   -3.7800   25.0950  -30.4470 N   0  0  0  0  0  0  0  0  0  0  0  0
   -2.8490   24.0680  -30.0890 C   0  0  0  0  0  0  0  0  0  0  0  0
   -3.0590   22.7530  -30.5310 C   0  0  0  0  0  0  0  0  0  0  0  0
   -2.1290   21.7540  -30.2370 C   0  0  0  0  0  0  0  0  0  0  0  0
   -0.9800   22.0620  -29.5060 C   0  0  0  0  0  0  0  0  0  0  0  0
   -0.7640   23.3680  -29.0600 C   0  0  0  0  0  0  0  0  0  0  0  0
   -1.6980   24.3760  -29.3300 C   0  0  0  0  0  0  0  0  0  0  0  0
   -1.4100   25.6800  -28.9010 O   0  0  0  0  0  0  0  0  0  0  0  0
   -1.3080   26.0880  -27.5650 C   0  0  0  0  0  0  0  0  0  0  0  0
   -2.0470   25.4040  -26.5920 C   0  0  0  0  0  0  0  0  0  0  0  0
   -1.9750   25.7880  -25.2500 C   0  0  0  0  0  0  0  0  0  0  0  0
   -1.1720   26.8690  -24.8730 C   0  0  0  0  0  0  0  0  0  0  0  0
   -0.4440   27.5680  -25.8400 C   0  0  0  0  0  0  0  0  0  0  0  0
   -0.5150   27.1860  -27.1830 C   0  0  0  0  0  0  0  0  0  0  0  0
   -5.1445   23.2650  -29.1471 H   0  0  0  0  0  0  0  0  0  0  0  0
   -6.6360   24.2823  -29.0553 H   0  0  0  0  0  0  0  0  0  0  0  0
   -5.0458   22.9304  -32.1744 H   0  0  0  0  0  0  0  0  0  0  0  0
   -6.2137   21.2979  -33.6639 H   0  0  0  0  0  0  0  0  0  0  0  0
   -9.4495   20.9997  -30.9066 H   0  0  0  0  0  0  0  0  0  0  0  0
   -8.3381   22.6268  -29.3666 H   0  0  0  0  0  0  0  0  0  0  0  0
   -3.9605   22.5080  -31.1118 H   0  0  0  0  0  0  0  0  0  0  0  0
   -2.3016   20.7237  -30.5815 H   0  0  0  0  0  0  0  0  0  0  0  0
   -0.2444   21.2757  -29.2812 H   0  0  0  0  0  0  0  0  0  0  0  0
    0.1473   23.6067  -28.4920 H   0  0  0  0  0  0  0  0  0  0  0  0
   -2.6879   24.5596  -26.8855 H   0  0  0  0  0  0  0  0  0  0  0  0
   -2.5505   25.2394  -24.4898 H   0  0  0  0  0  0  0  0  0  0  0  0
   -1.1133   27.1690  -23.8163 H   0  0  0  0  0  0  0  0  0  0  0  0
    0.1857   28.4199  -25.5439 H   0  0  0  0  0  0  0  0  0  0  0  0
    0.0504   27.7451  -27.9430 H   0  0  0  0  0  0  0  0  0  0  0  0
  1  2  2  0
  2  3  1  0
  3  4  1  0
  4  5  2  0
  5  6  1  0
  6  7  2  0
  7  8  1  0
  8  9  2  0
  2 10  1  0
 10 11  1  0
 11 12  2  0
 12 13  1  0
 13 14  2  0
 14 15  1  0
 15 16  2  0
 16 17  1  0
 17 18  1  0
 18 19  2  0
 19 20  1  0
 20 21  2  0
 21 22  1  0
 22 23  2  0
  9  4  1  0
 16 11  1  0
 23 18  1  0
  3 24  1  0
  3 25  1  0
  5 26  1  0
  6 27  1  0
  8 28  1  0
  9 29  1  0
 12 30  1  0
 13 31  1  0
 14 32  1  0
 15 33  1  0
 19 34  1  0
 20 35  1  0
 21 36  1  0
 22 37  1  0
 23 38  1  0
M  CHG  1  10  -1
M  END
>  <UniqueID>  (48) 
44

>  <SMILES>  (48) 
O=C(Cc1ccncc1)[N-]c1ccccc1Oc1ccccc1

>  <Energy>  (48) 
51.81536655941993

>  <Genealogy>  (48) 
O=C(Cc1ccncc1)[N-]c1ccccc1Oc1ccccc1 (protonated)
O=C(Cc1ccncc1)[N-]c1ccccc1Oc1ccccc1 (3D coordinates assigned)
O=C(Cc1ccncc1)[N-]c1ccccc1Oc1ccccc1 (optimized conformer: 51.81536655941993 kcal/mol)

>  <smiles>  (48) 
O=C(Cc1ccncc1)Nc1ccccc1Oc1ccccc1

>  <score_type>  (48) 
oracle

>  <origin>  (48) 
adg

>  <m_score__min__energy>  (48) 
-9.6699999999999999

>  <m_primary>  (48) 
energy

$$$$
48:0
     RDKit          3D

 46 49  0  0  0  0  0  0  0  0999 V2000
   -1.6450   18.2450  -26.7190 C   0  0  0  0  0  0  0  0  0  0  0  0
   -2.4940   19.3530  -26.7690 C   0  0  0  0  0  0  0  0  0  0  0  0
   -2.1800   20.4420  -27.5880 C   0  0  0  0  0  0  0  0  0  0  0  0
   -1.0060   20.4320  -28.3610 C   0  0  0  0  0  0  0  0  0  0  0  0
   -0.6790   21.5920  -29.2650 C   0  0  0  0  0  0  0  0  0  0  0  0
   -1.6310   22.6930  -29.0570 N   0  0  0  0  0  0  0  0  0  0  0  0
   -1.3170   23.7270  -28.0590 C   0  0  0  0  0  0  0  0  0  0  0  0
   -1.4220   25.1090  -28.7050 C   0  0  0  0  0  0  0  0  0  0  0  0
   -2.6910   25.2610  -29.3400 O   0  0  0  0  0  0  0  0  0  0  0  0
   -3.3130   24.2020  -30.0120 C   0  0  0  0  0  0  0  0  0  0  0  0
   -4.4530   24.4450  -30.7810 C   0  0  0  0  0  0  0  0  0  0  0  0
   -5.0960   23.3880  -31.4520 C   0  0  0  0  0  0  0  0  0  0  0  0
   -6.2470   23.5760  -32.2360 O   0  0  0  0  0  0  0  0  0  0  0  0
   -7.5670   23.1720  -31.8720 C   0  0  0  0  0  0  0  0  0  0  0  0
   -7.7710   21.7070  -32.1510 C   0  0  0  0  0  0  0  0  0  0  0  0
   -8.8790   21.0300  -31.6180 C   0  0  0  0  0  0  0  0  0  0  0  0
   -9.0540   19.6740  -31.8950 C   0  0  0  0  0  0  0  0  0  0  0  0
   -8.1340   19.0070  -32.7040 C   0  0  0  0  0  0  0  0  0  0  0  0
   -7.0500   19.7120  -33.2290 C   0  0  0  0  0  0  0  0  0  0  0  0
   -6.8920   21.0340  -32.9500 N   0  0  0  0  0  0  0  0  0  0  0  0
   -4.5780   22.0940  -31.3380 C   0  0  0  0  0  0  0  0  0  0  0  0
   -3.4420   21.8450  -30.5640 C   0  0  0  0  0  0  0  0  0  0  0  0
   -2.7920   22.8980  -29.8960 C   0  0  0  0  0  0  0  0  0  0  0  0
   -0.1610   19.3110  -28.3110 C   0  0  0  0  0  0  0  0  0  0  0  0
   -0.4790   18.2240  -27.4900 C   0  0  0  0  0  0  0  0  0  0  0  0
   -1.8936   17.3897  -26.0735 H   0  0  0  0  0  0  0  0  0  0  0  0
   -3.4117   19.3689  -26.1627 H   0  0  0  0  0  0  0  0  0  0  0  0
   -2.8545   21.3101  -27.6275 H   0  0  0  0  0  0  0  0  0  0  0  0
    0.3385   21.9470  -29.0443 H   0  0  0  0  0  0  0  0  0  0  0  0
   -0.7461   21.2573  -30.3107 H   0  0  0  0  0  0  0  0  0  0  0  0
   -2.0290   23.6580  -27.2234 H   0  0  0  0  0  0  0  0  0  0  0  0
   -0.2943   23.5750  -27.6835 H   0  0  0  0  0  0  0  0  0  0  0  0
   -1.3084   25.8817  -27.9304 H   0  0  0  0  0  0  0  0  0  0  0  0
   -0.6283   25.2139  -29.4593 H   0  0  0  0  0  0  0  0  0  0  0  0
   -4.8504   25.4674  -30.8627 H   0  0  0  0  0  0  0  0  0  0  0  0
   -7.7191   23.3598  -30.7989 H   0  0  0  0  0  0  0  0  0  0  0  0
   -8.2902   23.7493  -32.4667 H   0  0  0  0  0  0  0  0  0  0  0  0
   -9.6039   21.5647  -30.9866 H   0  0  0  0  0  0  0  0  0  0  0  0
   -9.9151   19.1323  -31.4766 H   0  0  0  0  0  0  0  0  0  0  0  0
   -8.2615   17.9371  -32.9257 H   0  0  0  0  0  0  0  0  0  0  0  0
   -6.3205   19.1966  -33.8710 H   0  0  0  0  0  0  0  0  0  0  0  0
   -6.0730   21.5370  -33.3610 H   0  0  0  0  0  0  0  0  0  0  0  0
   -5.0706   21.2628  -31.8638 H   0  0  0  0  0  0  0  0  0  0  0  0
   -3.0538   20.8195  -30.4766 H   0  0  0  0  0  0  0  0  0  0  0  0
    0.7547   19.2878  -28.9201 H   0  0  0  0  0  0  0  0  0  0  0  0
    0.1895   17.3513  -27.4510 H   0  0  0  0  0  0  0  0  0  0  0  0
  1  2  2  0
  2  3  1  0
  3  4  2  0
  4  5  1  0
  5  6  1  0
  6  7  1  0
  7  8  1  0
  8  9  1  0
  9 10  1  0
 10 11  2  0
 11 12  1  0
 12 13  1  0
 13 14  1  0
 14 15  1  0
 15 16  2  0
 16 17  1  0
 17 18  2  0
 18 19  1  0
 19 20  2  0
 12 21  2  0
 21 22  1  0
 22 23  2  0
  4 24  1  0
 24 25  2  0
 25  1  1  0
 23  6  1  0
 23 10  1  0
 20 15  1  0
  1 26  1  0
  2 27  1  0
  3 28  1  0
  5 29  1  0
  5 30  1  0
  7 31  1  0
  7 32  1  0
  8 33  1  0
  8 34  1  0
 11 35  1  0
 14 36  1  0
 14 37  1  0
 16 38  1  0
 17 39  1  0
 18 40  1  0
 19 41  1  0
 20 42  1  0
 21 43  1  0
 22 44  1  0
 24 45  1  0
 25 46  1  0
M  CHG  1  20   1
M  END
>  <UniqueID>  (49) 
45

>  <SMILES>  (49) 
c1ccc(CN2CCOc3cc(OCc4cccc[nH+]4)ccc32)cc1

>  <Energy>  (49) 
51.54389586567559

>  <Genealogy>  (49) 
c1ccc(CN2CCOc3cc(OCc4cccc[nH+]4)ccc32)cc1 (protonated)
c1ccc(CN2CCOc3cc(OCc4cccc[nH+]4)ccc32)cc1 (3D coordinates assigned)
c1ccc(CN2CCOc3cc(OCc4cccc[nH+]4)ccc32)cc1 (nonaromatic ring conformer: 51.54389586567559 kcal/mol)

>  <smiles>  (49) 
c1ccc(CN2CCOc3cc(OCc4ccccn4)ccc32)cc1

>  <score_type>  (49) 
oracle

>  <origin>  (49) 
adg

>  <m_score__min__energy>  (49) 
-9.0299999999999994

>  <m_primary>  (49) 
energy

$$$$
