0:0
     RDKit          3D

 54 55  0  0  0  0  0  0  0  0999 V2000
   -8.7430   18.6580  -31.6300 C   0  0  0  0  0  0  0  0  0  0  0  0
   -7.3640   18.0070  -31.7340 C   0  0  0  0  0  0  0  0  0  0  0  0
   -7.1930   17.1760  -33.0140 C   0  0  0  0  0  0  0  0  0  0  0  0
   -5.7790   17.2810  -33.6010 C   0  0  0  0  0  0  0  0  0  0  0  0
   -5.5960   18.5160  -34.4990 C   0  0  0  0  0  0  0  0  0  0  0  0
   -4.9910   19.6520  -33.7580 N   0  0  0  0  0  0  0  0  0  0  0  0
   -5.8460   20.5990  -33.2380 C   0  0  0  0  0  0  0  0  0  0  0  0
   -7.0950   20.4960  -33.3930 O   0  0  0  0  0  0  0  0  0  0  0  0
   -5.3640   21.6930  -32.5240 C   0  0  0  0  0  0  0  0  0  0  0  0
   -3.9930   21.8640  -32.3310 C   0  0  0  0  0  0  0  0  0  0  0  0
   -3.4740   22.9470  -31.5950 O   0  0  0  0  0  0  0  0  0  0  0  0
   -2.8770   22.8720  -30.3010 C   0  0  0  0  0  0  0  0  0  0  0  0
   -2.9070   24.2270  -29.5820 C   0  0  0  0  0  0  0  0  0  0  0  0
   -3.8540   25.1440  -30.2350 N   0  0  0  0  0  0  0  0  0  0  0  0
   -5.2330   25.0070  -29.7300 C   0  0  0  0  0  0  0  0  0  0  0  0
   -6.1210   24.5070  -30.8240 C   0  0  0  0  0  0  0  0  0  0  0  0
   -5.7110   24.5170  -32.0180 O   0  0  0  0  0  0  0  0  0  0  0  0
   -7.3760   23.9790  -30.5090 O   0  0  0  0  0  0  0  0  0  0  0  0
   -7.6110   22.5840  -30.3530 C   0  0  0  0  0  0  0  0  0  0  0  0
   -8.6880   22.1410  -31.3310 C   0  0  0  0  0  0  0  0  0  0  0  0
   -3.1090   20.9250  -32.8840 C   0  0  0  0  0  0  0  0  0  0  0  0
   -1.7190   21.0890  -32.7280 C   0  0  0  0  0  0  0  0  0  0  0  0
   -0.8300   20.1530  -33.2460 C   0  0  0  0  0  0  0  0  0  0  0  0
   -1.3110   19.0480  -33.9360 C   0  0  0  0  0  0  0  0  0  0  0  0
   -2.6840   18.8690  -34.1160 C   0  0  0  0  0  0  0  0  0  0  0  0
   -3.6210   19.8000  -33.5950 C   0  0  0  0  0  0  0  0  0  0  0  0
   -9.0100   18.7840  -30.5704 H   0  0  0  0  0  0  0  0  0  0  0  0
   -8.7223   19.6414  -32.1224 H   0  0  0  0  0  0  0  0  0  0  0  0
   -9.4891   18.0170  -32.1224 H   0  0  0  0  0  0  0  0  0  0  0  0
   -6.6001   18.7985  -31.7242 H   0  0  0  0  0  0  0  0  0  0  0  0
   -7.2550   17.3239  -30.8787 H   0  0  0  0  0  0  0  0  0  0  0  0
   -7.3998   16.1213  -32.7796 H   0  0  0  0  0  0  0  0  0  0  0  0
   -7.8951   17.5701  -33.7635 H   0  0  0  0  0  0  0  0  0  0  0  0
   -5.0580   17.3392  -32.7723 H   0  0  0  0  0  0  0  0  0  0  0  0
   -5.6128   16.3905  -34.2251 H   0  0  0  0  0  0  0  0  0  0  0  0
   -4.9397   18.2501  -35.3407 H   0  0  0  0  0  0  0  0  0  0  0  0
   -6.5883   18.8298  -34.8551 H   0  0  0  0  0  0  0  0  0  0  0  0
   -6.0695   22.4279  -32.1090 H   0  0  0  0  0  0  0  0  0  0  0  0
   -3.4273   22.1357  -29.6968 H   0  0  0  0  0  0  0  0  0  0  0  0
   -1.8256   22.5735  -30.4256 H   0  0  0  0  0  0  0  0  0  0  0  0
   -3.2153   24.0741  -28.5372 H   0  0  0  0  0  0  0  0  0  0  0  0
   -1.9012   24.6705  -29.6235 H   0  0  0  0  0  0  0  0  0  0  0  0
   -3.8600   24.9250  -31.2590 H   0  0  0  0  0  0  0  0  0  0  0  0
   -5.2469   24.2939  -28.8926 H   0  0  0  0  0  0  0  0  0  0  0  0
   -5.5946   25.9871  -29.3855 H   0  0  0  0  0  0  0  0  0  0  0  0
   -6.6820   22.0305  -30.5546 H   0  0  0  0  0  0  0  0  0  0  0  0
   -7.9424   22.3799  -29.3241 H   0  0  0  0  0  0  0  0  0  0  0  0
   -9.5645   21.7805  -30.7726 H   0  0  0  0  0  0  0  0  0  0  0  0
   -8.9809   22.9917  -31.9639 H   0  0  0  0  0  0  0  0  0  0  0  0
   -8.2976   21.3304  -31.9639 H   0  0  0  0  0  0  0  0  0  0  0  0
   -1.3320   21.9672  -32.1904 H   0  0  0  0  0  0  0  0  0  0  0  0
    0.2531   20.2879  -33.1092 H   0  0  0  0  0  0  0  0  0  0  0  0
   -0.6056   18.3088  -34.3435 H   0  0  0  0  0  0  0  0  0  0  0  0
   -3.0462   17.9912  -34.6712 H   0  0  0  0  0  0  0  0  0  0  0  0
  1  2  1  0
  2  3  1  0
  3  4  1  0
  4  5  1  0
  5  6  1  0
  6  7  1  0
  7  8  2  0
  7  9  1  0
  9 10  2  0
 10 11  1  0
 11 12  1  0
 12 13  1  0
 13 14  1  0
 14 15  1  0
 15 16  1  0
 16 17  2  0
 16 18  1  0
 18 19  1  0
 19 20  1  0
 10 21  1  0
 21 22  2  0
 22 23  1  0
 23 24  2  0
 24 25  1  0
 25 26  2  0
 26  6  1  0
 26 21  1  0
  1 27  1  0
  1 28  1  0
  1 29  1  0
  2 30  1  0
  2 31  1  0
  3 32  1  0
  3 33  1  0
  4 34  1  0
  4 35  1  0
  5 36  1  0
  5 37  1  0
  9 38  1  0
 12 39  1  0
 12 40  1  0
 13 41  1  0
 13 42  1  0
 14 43  1  0
 15 44  1  0
 15 45  1  0
 19 46  1  0
 19 47  1  0
 20 48  1  0
 20 49  1  0
 20 50  1  0
 22 51  1  0
 23 52  1  0
 24 53  1  0
 25 54  1  0
M  END
>  <UniqueID>  (1) 
1

>  <SMILES>  (1) 
CCCCCn1c(=O)cc(OCCNCC(=O)OCC)c2ccccc21

>  <Energy>  (1) 
50.74690337253108

>  <Genealogy>  (1) 
CCCCCn1c(=O)cc(OCCNCC(=O)OCC)c2ccccc21 (3D coordinates assigned)
CCCCCn1c(=O)cc(OCCNCC(=O)OCC)c2ccccc21 (optimized conformer: 50.74690337253108 kcal/mol)

>  <smiles>  (1) 
CCCCCn1c(=O)cc(OCCNCC(=O)OCC)c2ccccc21

>  <score_type>  (1) 
oracle

>  <origin>  (1) 
adg

>  <m_score__min__energy>  (1) 
-9.0399999999999991

>  <m_primary>  (1) 
energy

$$$$
1:0
     RDKit          3D

 44 45  0  0  1  0  0  0  0  0999 V2000
   -7.8610   23.3300  -32.3320 C   0  0  0  0  0  0  0  0  0  0  0  0
   -6.6590   23.2420  -31.5380 N   0  0  0  0  0  0  0  0  0  0  0  0
   -6.7730   22.3360  -30.4260 C   0  0  0  0  0  0  0  0  0  0  0  0
   -6.2820   24.5670  -31.1300 C   0  0  0  0  0  0  0  0  0  0  0  0
   -5.2730   24.4680  -30.0110 C   0  0  0  0  0  0  0  0  0  0  0  0
   -3.9190   24.3540  -30.4990 N   0  0  0  0  0  0  0  0  0  0  0  0
   -3.3750   23.2670  -30.9220 C   0  0  0  0  0  0  0  0  0  0  0  0
   -2.2890   22.7700  -30.2360 C   0  0  0  0  0  0  0  0  0  0  0  0
   -1.7240   21.6050  -30.7090 C   0  0  0  0  0  0  0  0  0  0  0  0
   -2.2500   21.0140  -31.8000 N   0  0  0  0  0  0  0  0  0  0  0  0
   -3.2970   21.5370  -32.4210 C   0  0  0  0  0  0  0  0  0  0  0  0
   -3.7630   20.9370  -33.4580 N   0  0  0  0  0  0  0  0  0  0  0  0
   -4.3000   19.5880  -33.4570 C   0  0  0  0  0  0  0  0  0  0  0  0
   -5.0410   19.2230  -32.2210 C   0  0  0  0  0  0  0  0  0  0  0  0
   -6.5020   19.2160  -32.2880 C   0  0  0  0  0  0  0  0  0  0  0  0
   -7.2360   20.1480  -33.0320 C   0  0  0  0  0  0  0  0  0  0  0  0
   -8.5990   20.0500  -33.0260 C   0  0  0  0  0  0  0  0  0  0  0  0
   -9.3060   19.0920  -32.3320 C   0  0  0  0  0  0  0  0  0  0  0  0
   -8.5720   18.1810  -31.6040 C   0  0  0  0  0  0  0  0  0  0  0  0
   -7.1910   18.2520  -31.5900 C   0  0  0  0  0  0  0  0  0  0  0  0
   -3.9010   22.6790  -32.0100 N   0  0  0  0  0  0  0  0  0  0  0  0
   -8.7354   23.3940  -31.6677 H   0  0  0  0  0  0  0  0  0  0  0  0
   -7.8163   24.2273  -32.9667 H   0  0  0  0  0  0  0  0  0  0  0  0
   -7.9474   22.4358  -32.9667 H   0  0  0  0  0  0  0  0  0  0  0  0
   -6.7020   22.9003  -29.4845 H   0  0  0  0  0  0  0  0  0  0  0  0
   -7.7432   21.8196  -30.4717 H   0  0  0  0  0  0  0  0  0  0  0  0
   -5.9610   21.5954  -30.4717 H   0  0  0  0  0  0  0  0  0  0  0  0
   -5.8371   25.1026  -31.9816 H   0  0  0  0  0  0  0  0  0  0  0  0
   -7.1698   25.1158  -30.7826 H   0  0  0  0  0  0  0  0  0  0  0  0
   -5.3485   25.3703  -29.3864 H   0  0  0  0  0  0  0  0  0  0  0  0
   -5.4994   23.5587  -29.4349 H   0  0  0  0  0  0  0  0  0  0  0  0
   -1.8893   23.2813  -29.3479 H   0  0  0  0  0  0  0  0  0  0  0  0
   -0.8538   21.1628  -30.2018 H   0  0  0  0  0  0  0  0  0  0  0  0
   -1.8100   20.1490  -32.1290 H   0  0  0  0  0  0  0  0  0  0  0  0
   -4.9863   19.4902  -34.3111 H   0  0  0  0  0  0  0  0  0  0  0  0
   -3.4384   18.9070  -33.5192 H   0  0  0  0  0  0  0  0  0  0  0  0
   -4.7194   18.2120  -31.9302 H   0  0  0  0  0  0  0  0  0  0  0  0
   -4.7968   20.0188  -31.5019 H   0  0  0  0  0  0  0  0  0  0  0  0
   -6.7291   20.9378  -33.6058 H   0  0  0  0  0  0  0  0  0  0  0  0
   -9.1694   20.7842  -33.6139 H   0  0  0  0  0  0  0  0  0  0  0  0
  -10.4051   19.0563  -32.3580 H   0  0  0  0  0  0  0  0  0  0  0  0
   -9.0863   17.3946  -31.0320 H   0  0  0  0  0  0  0  0  0  0  0  0
   -6.6257   17.5140  -31.0019 H   0  0  0  0  0  0  0  0  0  0  0  0
   -4.7240   23.0890  -32.4990 H   0  0  0  0  0  0  0  0  0  0  0  0
  1  2  1  0
  2  3  1  0
  2  4  1  0
  4  5  1  0
  5  6  1  0
  6  7  2  0
  7  8  1  0
  8  9  2  0
  9 10  1  0
 10 11  1  0
 11 12  2  0
 12 13  1  0
 13 14  1  0
 14 15  1  0
 15 16  2  0
 16 17  1  0
 17 18  2  0
 18 19  1  0
 19 20  2  0
 11 21  1  0
 21  7  1  0
 20 15  1  0
  1 22  1  0
  1 23  1  0
  1 24  1  0
  3 25  1  0
  3 26  1  0
  3 27  1  0
  4 28  1  0
  4 29  1  0
  5 30  1  0
  5 31  1  0
  8 32  1  0
  9 33  1  0
 10 34  1  0
 13 35  1  0
 13 36  1  0
 14 37  1  0
 14 38  1  0
 16 39  1  0
 17 40  1  0
 18 41  1  0
 19 42  1  0
 20 43  1  0
 21 44  1  0
M  END
>  <smiles>  (2) 
CN(C)CCN=c1cc[nH]c(=NCCc2ccccc2)[nH]1

>  <score_type>  (2) 
oracle

>  <origin>  (2) 
adg

>  <m_score__min__energy>  (2) 
-7.6299999999999999

>  <m_primary>  (2) 
energy

$$$$
2:0
     RDKit          3D

 43 47  0  0  0  0  0  0  0  0999 V2000
   -1.3530   22.4290  -28.1410 C   0  0  0  0  0  0  0  0  0  0  0  0
   -0.8540   23.6440  -28.6630 C   0  0  0  0  0  0  0  0  0  0  0  0
   -1.7140   24.5410  -29.3260 C   0  0  0  0  0  0  0  0  0  0  0  0
   -3.0540   24.1820  -29.4430 C   0  0  0  0  0  0  0  0  0  0  0  0
   -4.0450   24.8870  -30.0040 N   0  0  0  0  0  0  0  0  0  0  0  0
   -5.1260   24.0870  -29.8030 C   0  0  0  0  0  0  0  0  0  0  0  0
   -6.5150   24.4770  -30.2210 C   0  0  0  0  0  0  0  0  0  0  0  0
   -6.8290   24.1500  -31.6320 N   0  0  0  0  0  0  0  0  0  0  0  0
   -8.1080   23.4330  -31.8490 C   0  0  0  0  0  0  0  0  0  0  0  0
   -8.0170   21.9120  -31.5970 C   0  0  0  0  0  0  0  0  0  0  0  0
   -6.7080   21.3880  -31.9780 N   0  0  0  0  0  0  0  0  0  0  0  0
   -6.2660   20.1180  -31.9520 C   0  0  0  0  0  0  0  0  0  0  0  0
   -7.0870   18.9130  -31.6040 C   0  0  0  0  0  0  0  0  0  0  0  0
   -6.5680   17.7380  -32.2950 N   0  0  0  0  0  0  0  0  0  0  0  0
   -6.8240   17.3880  -33.5690 C   0  0  0  0  0  0  0  0  0  0  0  0
   -6.1190   16.2380  -33.8490 C   0  0  0  0  0  0  0  0  0  0  0  0
   -5.4430   15.9450  -32.6810 C   0  0  0  0  0  0  0  0  0  0  0  0
   -5.7290   16.8740  -31.7480 N   0  0  0  0  0  0  0  0  0  0  0  0
   -4.9420   20.1150  -32.3440 C   0  0  0  0  0  0  0  0  0  0  0  0
   -4.5420   21.3830  -32.5830 N   0  0  0  0  0  0  0  0  0  0  0  0
   -5.6430   22.1230  -32.3350 C   0  0  0  0  0  0  0  0  0  0  0  0
   -5.6990   23.6140  -32.4220 C   0  0  0  0  0  0  0  0  0  0  0  0
   -4.8520   22.9190  -29.1620 N   0  0  0  0  0  0  0  0  0  0  0  0
   -3.5330   23.0120  -28.9410 C   0  0  0  0  0  0  0  0  0  0  0  0
   -2.7140   22.1010  -28.2780 C   0  0  0  0  0  0  0  0  0  0  0  0
   -0.6729   21.7357  -27.6245 H   0  0  0  0  0  0  0  0  0  0  0  0
    0.2121   23.8905  -28.5508 H   0  0  0  0  0  0  0  0  0  0  0  0
   -1.3404   25.4907  -29.7365 H   0  0  0  0  0  0  0  0  0  0  0  0
   -7.2325   23.9499  -29.5749 H   0  0  0  0  0  0  0  0  0  0  0  0
   -6.5841   25.5704  -30.1225 H   0  0  0  0  0  0  0  0  0  0  0  0
   -8.8620   23.8535  -31.1673 H   0  0  0  0  0  0  0  0  0  0  0  0
   -8.3771   23.5682  -32.9070 H   0  0  0  0  0  0  0  0  0  0  0  0
   -8.1842   21.7154  -30.5277 H   0  0  0  0  0  0  0  0  0  0  0  0
   -8.7824   21.4124  -32.2091 H   0  0  0  0  0  0  0  0  0  0  0  0
   -7.0446   18.7449  -30.5178 H   0  0  0  0  0  0  0  0  0  0  0  0
   -8.1281   19.0838  -31.9152 H   0  0  0  0  0  0  0  0  0  0  0  0
   -7.4823   17.9270  -34.2662 H   0  0  0  0  0  0  0  0  0  0  0  0
   -6.0990   15.6767  -34.7948 H   0  0  0  0  0  0  0  0  0  0  0  0
   -4.7734   15.0846  -32.5347 H   0  0  0  0  0  0  0  0  0  0  0  0
   -4.3112   19.2196  -32.4458 H   0  0  0  0  0  0  0  0  0  0  0  0
   -4.7586   24.0324  -32.0339 H   0  0  0  0  0  0  0  0  0  0  0  0
   -5.8422   23.8981  -33.4750 H   0  0  0  0  0  0  0  0  0  0  0  0
   -3.1168   21.1595  -27.8763 H   0  0  0  0  0  0  0  0  0  0  0  0
  1  2  2  0
  2  3  1  0
  3  4  2  0
  4  5  1  0
  5  6  1  0
  6  7  1  0
  7  8  1  0
  8  9  1  0
  9 10  1  0
 10 11  1  0
 11 12  1  0
 12 13  1  0
 13 14  1  0
 14 15  1  0
 15 16  2  0
 16 17  1  0
 17 18  2  0
 12 19  2  0
 19 20  1  0
 20 21  2  0
 21 22  1  0
  6 23  2  0
 23 24  1  0
 24 25  2  0
 25  1  1  0
 24  4  1  0
 22  8  1  0
 21 11  1  0
 18 14  1  0
  1 26  1  0
  2 27  1  0
  3 28  1  0
  7 29  1  0
  7 30  1  0
  9 31  1  0
  9 32  1  0
 10 33  1  0
 10 34  1  0
 13 35  1  0
 13 36  1  0
 15 37  1  0
 16 38  1  0
 17 39  1  0
 19 40  1  0
 22 41  1  0
 22 42  1  0
 25 43  1  0
M  CHG  1   5  -1
M  END
>  <UniqueID>  (3) 
2

>  <SMILES>  (3) 
c1ccc2[n-]c(CN3CCn4c(Cn5cccn5)cnc4C3)nc2c1

>  <Energy>  (3) 
146.63688435976138

>  <Genealogy>  (3) 
c1ccc2[n-]c(CN3CCn4c(Cn5cccn5)cnc4C3)nc2c1 (protonated)
c1ccc2[n-]c(CN3CCn4c(Cn5cccn5)cnc4C3)nc2c1 (3D coordinates assigned)
c1ccc2[n-]c(CN3CCn4c(Cn5cccn5)cnc4C3)nc2c1 (nonaromatic ring conformer: 146.63688435976138 kcal/mol)

>  <smiles>  (3) 
c1ccc2[nH]c(CN3CCn4c(Cn5cccn5)cnc4C3)nc2c1

>  <score_type>  (3) 
oracle

>  <origin>  (3) 
adg

>  <m_score__min__energy>  (3) 
-8.25

>  <m_primary>  (3) 
energy

$$$$
3:0
     RDKit          3D

 39 41  0  0  0  0  0  0  0  0999 V2000
   -5.3840   26.4390  -30.4500 O   0  0  0  0  0  0  0  0  0  0  0  0
   -4.9410   25.3180  -30.8110 C   0  0  0  0  0  0  0  0  0  0  0  0
   -5.8570   24.4010  -31.5260 C   0  0  0  0  0  0  0  0  0  0  0  0
   -5.7270   23.0680  -31.6200 C   0  0  0  0  0  0  0  0  0  0  0  0
   -6.8270   22.1120  -31.8640 C   0  0  0  0  0  0  0  0  0  0  0  0
   -8.1380   22.3680  -31.4240 C   0  0  0  0  0  0  0  0  0  0  0  0
   -9.1540   21.4390  -31.6620 C   0  0  0  0  0  0  0  0  0  0  0  0
   -8.8680   20.2410  -32.3240 C   0  0  0  0  0  0  0  0  0  0  0  0
   -7.5610   19.9660  -32.7370 C   0  0  0  0  0  0  0  0  0  0  0  0
   -6.5420   20.8920  -32.4980 C   0  0  0  0  0  0  0  0  0  0  0  0
   -3.5790   24.9880  -30.4970 N   0  0  0  0  0  0  0  0  0  0  0  0
   -3.1000   24.2720  -29.3470 C   0  0  0  0  0  0  0  0  0  0  0  0
   -3.5110   22.9510  -29.1700 C   0  0  0  0  0  0  0  0  0  0  0  0
   -3.1180   22.2430  -28.0390 C   0  0  0  0  0  0  0  0  0  0  0  0
   -2.2950   22.8570  -27.0970 C   0  0  0  0  0  0  0  0  0  0  0  0
   -1.8480   24.1350  -27.2900 N   0  0  0  0  0  0  0  0  0  0  0  0
   -0.9860   24.7220  -26.2950 C   0  0  0  0  0  0  0  0  0  0  0  0
   -1.5000   25.6230  -25.3470 C   0  0  0  0  0  0  0  0  0  0  0  0
   -0.6580   26.1930  -24.3870 C   0  0  0  0  0  0  0  0  0  0  0  0
    0.7020   25.8720  -24.3700 C   0  0  0  0  0  0  0  0  0  0  0  0
    1.2220   24.9790  -25.3120 C   0  0  0  0  0  0  0  0  0  0  0  0
    0.3830   24.4080  -26.2730 C   0  0  0  0  0  0  0  0  0  0  0  0
   -2.2220   24.8460  -28.4040 C   0  0  0  0  0  0  0  0  0  0  0  0
   -1.7740   26.0110  -28.5920 O   0  0  0  0  0  0  0  0  0  0  0  0
   -6.7252   24.8539  -32.0271 H   0  0  0  0  0  0  0  0  0  0  0  0
   -4.7151   22.6520  -31.5056 H   0  0  0  0  0  0  0  0  0  0  0  0
   -8.3643   23.3030  -30.8906 H   0  0  0  0  0  0  0  0  0  0  0  0
  -10.1806   21.6503  -31.3281 H   0  0  0  0  0  0  0  0  0  0  0  0
   -9.6711   19.5152  -32.5197 H   0  0  0  0  0  0  0  0  0  0  0  0
   -7.3345   19.0200  -33.2505 H   0  0  0  0  0  0  0  0  0  0  0  0
   -5.5115   20.6640  -32.8081 H   0  0  0  0  0  0  0  0  0  0  0  0
   -4.1472   22.4681  -29.9263 H   0  0  0  0  0  0  0  0  0  0  0  0
   -3.4543   21.2064  -27.8894 H   0  0  0  0  0  0  0  0  0  0  0  0
   -2.0021   22.3086  -26.1896 H   0  0  0  0  0  0  0  0  0  0  0  0
   -2.5692   25.8810  -25.3601 H   0  0  0  0  0  0  0  0  0  0  0  0
   -1.0665   26.8945  -23.6447 H   0  0  0  0  0  0  0  0  0  0  0  0
    1.3637   26.3220  -23.6153 H   0  0  0  0  0  0  0  0  0  0  0  0
    2.2923   24.7257  -25.2967 H   0  0  0  0  0  0  0  0  0  0  0  0
    0.7966   23.7096  -27.0154 H   0  0  0  0  0  0  0  0  0  0  0  0
  1  2  2  0
  2  3  1  0
  3  4  2  3
  4  5  1  0
  5  6  2  0
  6  7  1  0
  7  8  2  0
  8  9  1  0
  9 10  2  0
  2 11  1  0
 11 12  1  0
 12 13  2  0
 13 14  1  0
 14 15  2  0
 15 16  1  0
 16 17  1  0
 17 18  2  0
 18 19  1  0
 19 20  2  0
 20 21  1  0
 21 22  2  0
 16 23  1  0
 23 24  2  0
 10  5  1  0
 23 12  1  0
 22 17  1  0
  3 25  1  0
  4 26  1  0
  6 27  1  0
  7 28  1  0
  8 29  1  0
  9 30  1  0
 10 31  1  0
 13 32  1  0
 14 33  1  0
 15 34  1  0
 18 35  1  0
 19 36  1  0
 20 37  1  0
 21 38  1  0
 22 39  1  0
M  CHG  1  11  -1
M  END
>  <UniqueID>  (4) 
3

>  <SMILES>  (4) 
O=C(C=Cc1ccccc1)[N-]c1cccn(-c2ccccc2)c1=O

>  <Energy>  (4) 
62.78067053705208

>  <Genealogy>  (4) 
O=C(C=Cc1ccccc1)[N-]c1cccn(-c2ccccc2)c1=O (protonated)
O=C(C=Cc1ccccc1)[N-]c1cccn(-c2ccccc2)c1=O (3D coordinates assigned)
O=C(C=Cc1ccccc1)[N-]c1cccn(-c2ccccc2)c1=O (optimized conformer: 62.78067053705208 kcal/mol)

>  <smiles>  (4) 
O=C(C=Cc1ccccc1)Nc1cccn(-c2ccccc2)c1=O

>  <score_type>  (4) 
oracle

>  <origin>  (4) 
adg

>  <m_score__min__energy>  (4) 
-10.57

>  <m_primary>  (4) 
energy

$$$$
4:0
     RDKit          3D

 45 46  0  0  0  0  0  0  0  0999 V2000
   -1.9260   20.8900  -27.5920 C   0  0  0  0  0  0  0  0  0  0  0  0
   -1.5880   21.5460  -28.8100 O   0  0  0  0  0  0  0  0  0  0  0  0
   -2.5180   21.9940  -29.7610 C   0  0  0  0  0  0  0  0  0  0  0  0
   -3.1190   21.1160  -30.6790 C   0  0  0  0  0  0  0  0  0  0  0  0
   -4.0440   21.5900  -31.6160 C   0  0  0  0  0  0  0  0  0  0  0  0
   -4.7030   20.6480  -32.5910 C   0  0  0  0  0  0  0  0  0  0  0  0
   -5.8710   19.9990  -31.9610 N   0  0  0  0  0  0  0  0  0  0  0  0
   -6.3280   18.8220  -32.7390 C   0  0  0  0  0  0  0  0  0  0  0  0
   -7.2260   17.8870  -31.8940 C   0  0  0  0  0  0  0  0  0  0  0  0
   -8.4830   18.5690  -31.3200 C   0  0  0  0  0  0  0  0  0  0  0  0
   -9.1080   19.6450  -32.2450 C   0  0  0  0  0  0  0  0  0  0  0  0
   -8.1650   20.7840  -32.6730 C   0  0  0  0  0  0  0  0  0  0  0  0
   -6.9530   20.9860  -31.7450 C   0  0  0  0  0  0  0  0  0  0  0  0
   -4.3670   22.9510  -31.6360 C   0  0  0  0  0  0  0  0  0  0  0  0
   -3.7820   23.8500  -30.7250 C   0  0  0  0  0  0  0  0  0  0  0  0
   -4.1170   25.2120  -30.7420 O   0  0  0  0  0  0  0  0  0  0  0  0
   -5.4190   25.7360  -30.4920 C   0  0  0  0  0  0  0  0  0  0  0  0
   -2.8430   23.3620  -29.7780 C   0  0  0  0  0  0  0  0  0  0  0  0
   -2.1980   24.1740  -28.8250 O   0  0  0  0  0  0  0  0  0  0  0  0
   -2.6960   24.5360  -27.5420 C   0  0  0  0  0  0  0  0  0  0  0  0
   -1.6068   21.5096  -26.7410 H   0  0  0  0  0  0  0  0  0  0  0  0
   -3.0146   20.7382  -27.5471 H   0  0  0  0  0  0  0  0  0  0  0  0
   -1.4178   19.9155  -27.5471 H   0  0  0  0  0  0  0  0  0  0  0  0
   -2.8601   20.0470  -30.6609 H   0  0  0  0  0  0  0  0  0  0  0  0
   -5.0338   21.2127  -33.4752 H   0  0  0  0  0  0  0  0  0  0  0  0
   -3.9794   19.8749  -32.8891 H   0  0  0  0  0  0  0  0  0  0  0  0
   -6.8998   19.1720  -33.6111 H   0  0  0  0  0  0  0  0  0  0  0  0
   -5.4398   18.2527  -33.0506 H   0  0  0  0  0  0  0  0  0  0  0  0
   -7.5479   17.0496  -32.5306 H   0  0  0  0  0  0  0  0  0  0  0  0
   -6.6225   17.5606  -31.0342 H   0  0  0  0  0  0  0  0  0  0  0  0
   -9.2405   17.7933  -31.1341 H   0  0  0  0  0  0  0  0  0  0  0  0
   -8.1668   19.0888  -30.4035 H   0  0  0  0  0  0  0  0  0  0  0  0
   -9.4659   19.1420  -33.1554 H   0  0  0  0  0  0  0  0  0  0  0  0
   -9.9062   20.1207  -31.6563 H   0  0  0  0  0  0  0  0  0  0  0  0
   -7.7918   20.5609  -33.6834 H   0  0  0  0  0  0  0  0  0  0  0  0
   -8.7530   21.7127  -32.6297 H   0  0  0  0  0  0  0  0  0  0  0  0
   -6.5454   21.9927  -31.9192 H   0  0  0  0  0  0  0  0  0  0  0  0
   -7.3105   20.8526  -30.7133 H   0  0  0  0  0  0  0  0  0  0  0  0
   -5.0901   23.3246  -32.3760 H   0  0  0  0  0  0  0  0  0  0  0  0
   -5.5852   25.8029  -29.4067 H   0  0  0  0  0  0  0  0  0  0  0  0
   -5.5029   26.7379  -30.9382 H   0  0  0  0  0  0  0  0  0  0  0  0
   -6.1736   25.0715  -30.9382 H   0  0  0  0  0  0  0  0  0  0  0  0
   -2.0680   24.0795  -26.7627 H   0  0  0  0  0  0  0  0  0  0  0  0
   -2.6744   25.6306  -27.4358 H   0  0  0  0  0  0  0  0  0  0  0  0
   -3.7306   24.1777  -27.4358 H   0  0  0  0  0  0  0  0  0  0  0  0
  1  2  1  0
  2  3  1  0
  3  4  2  0
  4  5  1  0
  5  6  1  0
  6  7  1  0
  7  8  1  0
  8  9  1  0
  9 10  1  0
 10 11  1  0
 11 12  1  0
 12 13  1  0
  5 14  2  0
 14 15  1  0
 15 16  1  0
 16 17  1  0
 15 18  2  0
 18 19  1  0
 19 20  1  0
 18  3  1  0
 13  7  1  0
  1 21  1  0
  1 22  1  0
  1 23  1  0
  4 24  1  0
  6 25  1  0
  6 26  1  0
  8 27  1  0
  8 28  1  0
  9 29  1  0
  9 30  1  0
 10 31  1  0
 10 32  1  0
 11 33  1  0
 11 34  1  0
 12 35  1  0
 12 36  1  0
 13 37  1  0
 13 38  1  0
 14 39  1  0
 17 40  1  0
 17 41  1  0
 17 42  1  0
 20 43  1  0
 20 44  1  0
 20 45  1  0
M  END
>  <UniqueID>  (5) 
4

>  <SMILES>  (5) 
COc1cc(CN2CCCCCC2)cc(OC)c1OC

>  <Energy>  (5) 
53.511552930328456

>  <Genealogy>  (5) 
COc1cc(CN2CCCCCC2)cc(OC)c1OC (3D coordinates assigned)
COc1cc(CN2CCCCCC2)cc(OC)c1OC (nonaromatic ring conformer: 53.511552930328456 kcal/mol)

>  <smiles>  (5) 
COc1cc(CN2CCCCCC2)cc(OC)c1OC

>  <score_type>  (5) 
oracle

>  <origin>  (5) 
adg

>  <m_score__min__energy>  (5) 
-5.3399999999999999

>  <m_primary>  (5) 
energy

$$$$
5:0
     RDKit          3D

 46 48  0  0  0  0  0  0  0  0999 V2000
   -3.9710   25.7560  -31.6450 H   0  0  0  0  0  0  0  0  0  0  0  0
   -4.2370   25.3940  -30.7010 N   0  0  0  0  0  0  0  0  0  0  0  0
   -3.4870   24.5450  -30.0750 C   0  0  0  0  0  0  0  0  0  0  0  0
   -2.4170   24.9240  -29.3270 N   0  0  0  0  0  0  0  0  0  0  0  0
   -1.9450   23.7450  -28.8780 C   0  0  0  0  0  0  0  0  0  0  0  0
   -0.8330   23.5360  -28.0660 C   0  0  0  0  0  0  0  0  0  0  0  0
   -0.2274   24.3797  -27.7034 H   0  0  0  0  0  0  0  0  0  0  0  0
   -0.5100   22.2100  -27.7250 C   0  0  0  0  0  0  0  0  0  0  0  0
    0.3646   22.0065  -27.0897 H   0  0  0  0  0  0  0  0  0  0  0  0
   -1.3030   21.1370  -28.1940 C   0  0  0  0  0  0  0  0  0  0  0  0
   -1.0442   20.1048  -27.9153 H   0  0  0  0  0  0  0  0  0  0  0  0
   -2.4200   21.3790  -29.0140 C   0  0  0  0  0  0  0  0  0  0  0  0
   -3.0431   20.5525  -29.3863 H   0  0  0  0  0  0  0  0  0  0  0  0
   -2.7100   22.7080  -29.3390 C   0  0  0  0  0  0  0  0  0  0  0  0
   -3.6950   23.2030  -30.1090 N   0  0  0  0  0  0  0  0  0  0  0  0
   -4.7260   22.4760  -30.8570 C   0  0  0  0  0  0  0  0  0  0  0  0
   -4.6529   21.4053  -30.6158 H   0  0  0  0  0  0  0  0  0  0  0  0
   -5.7077   22.8794  -30.5679 H   0  0  0  0  0  0  0  0  0  0  0  0
   -4.5620   22.6570  -32.3750 C   0  0  0  0  0  0  0  0  0  0  0  0
   -5.5548   22.8363  -32.8135 H   0  0  0  0  0  0  0  0  0  0  0  0
   -3.8789   23.5056  -32.5275 H   0  0  0  0  0  0  0  0  0  0  0  0
   -3.9330   21.4380  -33.0750 C   0  0  0  0  0  0  0  0  0  0  0  0
   -4.3185   21.3843  -34.1039 H   0  0  0  0  0  0  0  0  0  0  0  0
   -2.8410   21.5698  -33.0586 H   0  0  0  0  0  0  0  0  0  0  0  0
   -4.2550   20.1160  -32.3580 C   0  0  0  0  0  0  0  0  0  0  0  0
   -3.3535   19.4860  -32.3397 H   0  0  0  0  0  0  0  0  0  0  0  0
   -4.5841   20.3402  -31.3326 H   0  0  0  0  0  0  0  0  0  0  0  0
   -5.3330   19.3970  -33.0550 N   0  0  0  0  0  0  0  0  0  0  0  0
   -6.7300   19.5870  -32.7040 C   0  0  0  0  0  0  0  0  0  0  0  0
   -7.6110   18.4950  -32.5870 C   0  0  0  0  0  0  0  0  0  0  0  0
   -7.2452   17.4752  -32.7774 H   0  0  0  0  0  0  0  0  0  0  0  0
   -8.9420   18.6970  -32.2320 C   0  0  0  0  0  0  0  0  0  0  0  0
   -9.6253   17.8403  -32.1362 H   0  0  0  0  0  0  0  0  0  0  0  0
   -9.4030   19.9900  -31.9990 C   0  0  0  0  0  0  0  0  0  0  0  0
  -10.4508   20.1521  -31.7059 H   0  0  0  0  0  0  0  0  0  0  0  0
   -8.5630   21.0580  -32.1320 N   0  0  0  0  0  0  0  0  0  0  0  0
   -9.0520   22.4100  -31.8500 C   0  0  0  0  0  0  0  0  0  0  0  0
   -9.1065   22.5606  -30.7617 H   0  0  0  0  0  0  0  0  0  0  0  0
   -8.3637   23.1477  -32.2883 H   0  0  0  0  0  0  0  0  0  0  0  0
  -10.0529   22.5367  -32.2883 H   0  0  0  0  0  0  0  0  0  0  0  0
   -7.2490   20.8770  -32.4630 C   0  0  0  0  0  0  0  0  0  0  0  0
   -6.5857   21.7508  -32.5428 H   0  0  0  0  0  0  0  0  0  0  0  0
   -4.9560   18.4410  -34.1030 C   0  0  0  0  0  0  0  0  0  0  0  0
   -4.5902   17.5133  -33.6387 H   0  0  0  0  0  0  0  0  0  0  0  0
   -5.8332   18.2171  -34.7279 H   0  0  0  0  0  0  0  0  0  0  0  0
   -4.1621   18.8761  -34.7279 H   0  0  0  0  0  0  0  0  0  0  0  0
  1  2  1  0
  2  3  2  0
  3  4  1  0
  4  5  1  0
  5  6  2  0
  6  7  1  0
  6  8  1  0
  8  9  1  0
  8 10  2  0
 10 11  1  0
 10 12  1  0
 12 13  1  0
 12 14  2  0
 14 15  1  0
 15 16  1  0
 16 17  1  0
 16 18  1  0
 16 19  1  0
 19 20  1  0
 19 21  1  0
 19 22  1  0
 22 23  1  0
 22 24  1  0
 22 25  1  0
 25 26  1  0
 25 27  1  0
 25 28  1  0
 28 29  1  0
 29 30  2  0
 30 31  1  0
 30 32  1  0
 32 33  1  0
 32 34  2  0
 34 35  1  0
 34 36  1  0
 36 37  1  0
 37 38  1  0
 37 39  1  0
 37 40  1  0
 36 41  2  0
 41 42  1  0
 28 43  1  0
 43 44  1  0
 43 45  1  0
 43 46  1  0
 15  3  1  0
 41 29  1  0
 14  5  1  0
M  CHG  2   4  -1  36   1
M  END
>  <UniqueID>  (6) 
5

>  <SMILES>  (6) 
[H]/N=c1\[n-]c2ccccc2n1CCCCN(C)c1ccc[n+](C)c1

>  <Energy>  (6) 
82.75758535609863

>  <Genealogy>  (6) 
CN(CCCCn1c(=N)[n-]c2ccccc21)c1ccc[n+](C)c1 (protonated)
[H]/N=c1\[n-]c2ccccc2n1CCCCN(C)c1ccc[n+](C)c1 (cis-trans isomerization)
[H]/N=c1\[n-]c2ccccc2n1CCCCN(C)c1ccc[n+](C)c1 (3D coordinates assigned)
[H]/N=c1\[n-]c2ccccc2n1CCCCN(C)c1ccc[n+](C)c1 (optimized conformer: 82.75758535609863 kcal/mol)

>  <smiles>  (6) 
CN(CCCCn1c(=N)[nH]c2ccccc21)c1ccc[n+](C)c1

>  <score_type>  (6) 
oracle

>  <origin>  (6) 
adg

>  <m_score__min__energy>  (6) 
-8.7300000000000004

>  <m_primary>  (6) 
energy

$$$$
6:0
     RDKit          3D

 29 31  0  0  0  0  0  0  0  0999 V2000
   -6.4240   17.6720  -33.6390 C   0  0  0  0  0  0  0  0  0  0  0  0
   -7.1950   18.2180  -32.4830 C   0  0  0  0  0  0  0  0  0  0  0  0
   -8.3270   17.6480  -32.0070 N   0  0  0  0  0  0  0  0  0  0  0  0
   -8.8980   18.5460  -31.2140 N   0  0  0  0  0  0  0  0  0  0  0  0
   -8.1180   19.6400  -31.2240 C   0  0  0  0  0  0  0  0  0  0  0  0
   -7.0440   19.4620  -31.9890 N   0  0  0  0  0  0  0  0  0  0  0  0
   -6.7750   20.7050  -32.6300 C   0  0  0  0  0  0  0  0  0  0  0  0
   -5.8530   20.8810  -33.4700 O   0  0  0  0  0  0  0  0  0  0  0  0
   -7.6950   21.7230  -32.2190 N   0  0  0  0  0  0  0  0  0  0  0  0
   -7.5120   23.1670  -32.3240 C   0  0  0  0  0  0  0  0  0  0  0  0
   -6.3670   23.6060  -31.4530 C   0  0  0  0  0  0  0  0  0  0  0  0
   -5.0900   23.0470  -31.6270 C   0  0  0  0  0  0  0  0  0  0  0  0
   -4.0170   23.4850  -30.8440 C   0  0  0  0  0  0  0  0  0  0  0  0
   -4.2090   24.4880  -29.8900 C   0  0  0  0  0  0  0  0  0  0  0  0
   -3.1670   24.9130  -29.1320 F   0  0  0  0  0  0  0  0  0  0  0  0
   -5.4750   25.0580  -29.7200 C   0  0  0  0  0  0  0  0  0  0  0  0
   -6.5500   24.6230  -30.5010 C   0  0  0  0  0  0  0  0  0  0  0  0
   -8.5510   21.0280  -31.3060 C   0  0  0  0  0  0  0  0  0  0  0  0
   -9.5470   21.5350  -30.7270 O   0  0  0  0  0  0  0  0  0  0  0  0
   -5.5793   17.0738  -33.2666 H   0  0  0  0  0  0  0  0  0  0  0  0
   -7.0814   17.0370  -34.2511 H   0  0  0  0  0  0  0  0  0  0  0  0
   -6.0432   18.5029  -34.2511 H   0  0  0  0  0  0  0  0  0  0  0  0
   -9.8670   18.4670  -30.8310 H   0  0  0  0  0  0  0  0  0  0  0  0
   -7.2963   23.4316  -33.3697 H   0  0  0  0  0  0  0  0  0  0  0  0
   -8.4314   23.6721  -31.9929 H   0  0  0  0  0  0  0  0  0  0  0  0
   -4.9334   22.2621  -32.3816 H   0  0  0  0  0  0  0  0  0  0  0  0
   -3.0205   23.0393  -30.9793 H   0  0  0  0  0  0  0  0  0  0  0  0
   -5.6250   25.8495  -28.9709 H   0  0  0  0  0  0  0  0  0  0  0  0
   -7.5426   25.0786  -30.3697 H   0  0  0  0  0  0  0  0  0  0  0  0
  1  2  1  0
  2  3  2  0
  3  4  1  0
  4  5  2  0
  5  6  1  0
  6  7  1  0
  7  8  2  0
  7  9  1  0
  9 10  1  0
 10 11  1  0
 11 12  2  0
 12 13  1  0
 13 14  2  0
 14 15  1  0
 14 16  1  0
 16 17  2  0
  9 18  1  0
 18 19  2  0
  6  2  1  0
 17 11  1  0
 18  5  1  0
  1 20  1  0
  1 21  1  0
  1 22  1  0
  4 23  1  0
 10 24  1  0
 10 25  1  0
 12 26  1  0
 13 27  1  0
 16 28  1  0
 17 29  1  0
M  CHG  1   4   1
M  END
>  <UniqueID>  (7) 
6

>  <SMILES>  (7) 
Cc1n[nH+]c2n1C(=O)N(Cc1ccc(F)cc1)C2=O

>  <Energy>  (7) 
118.62013797845557

>  <Genealogy>  (7) 
Cc1n[nH+]c2n1C(=O)N(Cc1ccc(F)cc1)C2=O (protonated)
Cc1n[nH+]c2n1C(=O)N(Cc1ccc(F)cc1)C2=O (3D coordinates assigned)
Cc1n[nH+]c2n1C(=O)N(Cc1ccc(F)cc1)C2=O (nonaromatic ring conformer: 118.62013797845557 kcal/mol)

>  <smiles>  (7) 
Cc1nnc2n1C(=O)N(Cc1ccc(F)cc1)C2=O

>  <score_type>  (7) 
oracle

>  <origin>  (7) 
adg

>  <m_score__min__energy>  (7) 
-6.75

>  <m_primary>  (7) 
energy

$$$$
7:0
     RDKit          3D

 43 45  0  0  0  0  0  0  0  0999 V2000
   -3.1000   21.6320  -32.3710 C   0  0  0  0  0  0  0  0  0  0  0  0
   -3.7620   22.5680  -31.5280 O   0  0  0  0  0  0  0  0  0  0  0  0
   -5.1560   22.7170  -31.4320 C   0  0  0  0  0  0  0  0  0  0  0  0
   -5.6880   23.9310  -30.9490 C   0  0  0  0  0  0  0  0  0  0  0  0
   -4.6170   25.2380  -30.4680 Cl  0  0  0  0  0  0  0  0  0  0  0  0
   -7.0840   24.1100  -30.8400 C   0  0  0  0  0  0  0  0  0  0  0  0
   -7.9690   23.0850  -31.2110 C   0  0  0  0  0  0  0  0  0  0  0  0
   -7.4250   21.8890  -31.6830 C   0  0  0  0  0  0  0  0  0  0  0  0
   -8.0230   20.7210  -32.1220 C   0  0  0  0  0  0  0  0  0  0  0  0
   -9.4990   20.4860  -32.2590 C   0  0  0  0  0  0  0  0  0  0  0  0
   -6.9490   19.8830  -32.4740 C   0  0  0  0  0  0  0  0  0  0  0  0
   -6.9490   18.4940  -33.0060 C   0  0  0  0  0  0  0  0  0  0  0  0
   -7.6350   17.6420  -32.3720 O   0  0  0  0  0  0  0  0  0  0  0  0
   -6.3100   18.1260  -34.2620 N   0  0  2  0  0  0  0  0  0  0  0  0
   -6.3560   16.6600  -34.4540 C   0  0  0  0  0  0  0  0  0  0  0  0
   -5.4800   15.9000  -33.4370 C   0  0  0  0  0  0  0  0  0  0  0  0
   -4.1670   16.6320  -33.1060 C   0  0  0  0  0  0  0  0  0  0  0  0
   -3.7940   17.6490  -34.1940 C   0  0  2  0  0  0  0  0  0  0  0  0
   -2.4710   18.3490  -33.8570 C   0  0  0  0  0  0  0  0  0  0  0  0
   -4.9310   18.6860  -34.4120 C   0  0  0  0  0  0  0  0  0  0  0  0
   -5.8100   20.5170  -32.2640 O   0  0  0  0  0  0  0  0  0  0  0  0
   -6.0690   21.7120  -31.7930 C   0  0  0  0  0  0  0  0  0  0  0  0
   -2.5747   20.8892  -31.7527 H   0  0  0  0  0  0  0  0  0  0  0  0
   -3.8401   21.1230  -33.0060 H   0  0  0  0  0  0  0  0  0  0  0  0
   -2.3735   22.1602  -33.0060 H   0  0  0  0  0  0  0  0  0  0  0  0
   -7.4826   25.0624  -30.4605 H   0  0  0  0  0  0  0  0  0  0  0  0
   -9.0578   23.2202  -31.1322 H   0  0  0  0  0  0  0  0  0  0  0  0
   -9.9531   20.4137  -31.2597 H   0  0  0  0  0  0  0  0  0  0  0  0
   -9.9541   21.3230  -32.8088 H   0  0  0  0  0  0  0  0  0  0  0  0
   -9.6716   19.5491  -32.8088 H   0  0  0  0  0  0  0  0  0  0  0  0
   -6.8640   18.5580  -35.0300 H   0  0  0  0  0  0  0  0  0  0  0  0
   -7.3972   16.3228  -34.3432 H   0  0  0  0  0  0  0  0  0  0  0  0
   -5.9637   16.4434  -35.4586 H   0  0  0  0  0  0  0  0  0  0  0  0
   -6.0537   15.7722  -32.5072 H   0  0  0  0  0  0  0  0  0  0  0  0
   -5.2121   14.9347  -33.8913 H   0  0  0  0  0  0  0  0  0  0  0  0
   -4.2854   17.1611  -32.1489 H   0  0  0  0  0  0  0  0  0  0  0  0
   -3.3630   15.8837  -33.0459 H   0  0  0  0  0  0  0  0  0  0  0  0
   -3.6599   17.0977  -35.1364 H   0  0  0  0  0  0  0  0  0  0  0  0
   -2.3562   18.4098  -32.7647 H   0  0  0  0  0  0  0  0  0  0  0  0
   -1.6341   17.7757  -34.2823 H   0  0  0  0  0  0  0  0  0  0  0  0
   -2.4742   19.3634  -34.2823 H   0  0  0  0  0  0  0  0  0  0  0  0
   -4.8055   19.4948  -33.6771 H   0  0  0  0  0  0  0  0  0  0  0  0
   -4.8438   19.0362  -35.4511 H   0  0  0  0  0  0  0  0  0  0  0  0
  1  2  1  0
  2  3  1  0
  3  4  2  0
  4  5  1  0
  4  6  1  0
  6  7  2  0
  7  8  1  0
  8  9  1  0
  9 10  1  0
  9 11  2  0
 11 12  1  0
 12 13  2  0
 12 14  1  0
 14 15  1  0
 15 16  1  0
 16 17  1  0
 17 18  1  0
 18 19  1  0
 18 20  1  0
 11 21  1  0
 21 22  1  0
 22  3  1  0
 22  8  2  0
 20 14  1  0
  1 23  1  0
  1 24  1  0
  1 25  1  0
  6 26  1  0
  7 27  1  0
 10 28  1  0
 10 29  1  0
 10 30  1  0
 14 31  1  6
 15 32  1  0
 15 33  1  0
 16 34  1  0
 16 35  1  0
 17 36  1  0
 17 37  1  0
 18 38  1  6
 19 39  1  0
 19 40  1  0
 19 41  1  0
 20 42  1  0
 20 43  1  0
M  CHG  1  14   1
M  END
>  <UniqueID>  (8) 
7

>  <SMILES>  (8) 
COc1c(Cl)ccc2c(C)c(C(=O)[N@@H+]3CCC[C@H](C)C3)oc12

>  <Energy>  (8) 
90.70476742555624

>  <Genealogy>  (8) 
COc1c(Cl)ccc2c(C)c(C(=O)[NH+]3CCCC(C)C3)oc12 (protonated)
COc1c(Cl)ccc2c(C)c(C(=O)[N@@H+]3CCC[C@H](C)C3)oc12 (chirality)
COc1c(Cl)ccc2c(C)c(C(=O)[N@@H+]3CCC[C@H](C)C3)oc12 (3D coordinates assigned)
COc1c(Cl)ccc2c(C)c(C(=O)[N@@H+]3CCC[C@H](C)C3)oc12 (nonaromatic ring conformer: 90.70476742555624 kcal/mol)

>  <smiles>  (8) 
COc1c(Cl)ccc2c(C)c(C(=O)N3CCCC(C)C3)oc12

>  <score_type>  (8) 
oracle

>  <origin>  (8) 
adg

>  <m_score__min__energy>  (8) 
-7.5599999999999996

>  <m_primary>  (8) 
energy

$$$$
8:0
     RDKit          3D

 48 51  0  0  0  0  0  0  0  0999 V2000
   -2.1000   22.1850  -30.4980 C   0  0  0  0  0  0  0  0  0  0  0  0
   -1.0410   21.4990  -31.3550 C   0  0  0  0  0  0  0  0  0  0  0  0
   -1.6640   20.4440  -32.2280 C   0  0  0  0  0  0  0  0  0  0  0  0
   -2.4000   20.8110  -33.3650 C   0  0  0  0  0  0  0  0  0  0  0  0
   -2.9640   19.8310  -34.1850 C   0  0  0  0  0  0  0  0  0  0  0  0
   -2.8010   18.4650  -33.8870 C   0  0  0  0  0  0  0  0  0  0  0  0
   -3.4000   17.4530  -34.7360 N   0  0  0  0  0  0  0  0  0  0  0  0
   -4.7800   17.0680  -34.3490 C   0  0  1  0  0  0  0  0  0  0  0  0
   -4.8770   16.5020  -32.9130 C   0  0  0  0  0  0  0  0  0  0  0  0
   -5.5930   17.5660  -32.0560 C   0  0  0  0  0  0  0  0  0  0  0  0
   -6.1120   18.5510  -32.9920 N   0  0  0  0  0  0  0  0  0  0  0  0
   -7.1140   19.5240  -32.6640 C   0  0  0  0  0  0  0  0  0  0  0  0
   -8.4570   19.1270  -32.6150 C   0  0  0  0  0  0  0  0  0  0  0  0
   -9.4550   20.0420  -32.2780 C   0  0  0  0  0  0  0  0  0  0  0  0
   -9.1260   21.3660  -31.9870 C   0  0  0  0  0  0  0  0  0  0  0  0
   -7.7910   21.7890  -32.0390 C   0  0  0  0  0  0  0  0  0  0  0  0
   -7.4620   23.1260  -31.7600 C   0  0  0  0  0  0  0  0  0  0  0  0
   -6.1330   23.5510  -31.8280 C   0  0  0  0  0  0  0  0  0  0  0  0
   -5.1250   22.6520  -32.1800 C   0  0  0  0  0  0  0  0  0  0  0  0
   -5.4380   21.3190  -32.4580 C   0  0  0  0  0  0  0  0  0  0  0  0
   -6.7690   20.8670  -32.3830 C   0  0  0  0  0  0  0  0  0  0  0  0
   -5.7120   18.2220  -34.3080 C   0  0  0  0  0  0  0  0  0  0  0  0
   -6.1110   18.8460  -35.3270 O   0  0  0  0  0  0  0  0  0  0  0  0
   -2.0310   18.1030  -32.7670 C   0  0  0  0  0  0  0  0  0  0  0  0
   -1.4700   19.0840  -31.9440 C   0  0  0  0  0  0  0  0  0  0  0  0
   -1.8655   22.0331  -29.4341 H   0  0  0  0  0  0  0  0  0  0  0  0
   -2.1108   23.2621  -30.7209 H   0  0  0  0  0  0  0  0  0  0  0  0
   -3.0874   21.7545  -30.7209 H   0  0  0  0  0  0  0  0  0  0  0  0
   -0.5495   22.2499  -31.9911 H   0  0  0  0  0  0  0  0  0  0  0  0
   -0.3057   21.0199  -30.6918 H   0  0  0  0  0  0  0  0  0  0  0  0
   -2.5333   21.8747  -33.6115 H   0  0  0  0  0  0  0  0  0  0  0  0
   -3.5413   20.1297  -35.0725 H   0  0  0  0  0  0  0  0  0  0  0  0
   -2.7970   16.5970  -34.7430 H   0  0  0  0  0  0  0  0  0  0  0  0
   -3.4190   17.8040  -35.7220 H   0  0  0  0  0  0  0  0  0  0  0  0
   -5.0442   16.3265  -35.1173 H   0  0  0  0  0  0  0  0  0  0  0  0
   -5.4552   15.5662  -32.9141 H   0  0  0  0  0  0  0  0  0  0  0  0
   -3.8777   16.2810  -32.5100 H   0  0  0  0  0  0  0  0  0  0  0  0
   -6.4158   17.1084  -31.4872 H   0  0  0  0  0  0  0  0  0  0  0  0
   -4.9083   18.0241  -31.3271 H   0  0  0  0  0  0  0  0  0  0  0  0
   -8.7266   18.0855  -32.8441 H   0  0  0  0  0  0  0  0  0  0  0  0
  -10.5056   19.7180  -32.2416 H   0  0  0  0  0  0  0  0  0  0  0  0
   -9.9172   22.0805  -31.7158 H   0  0  0  0  0  0  0  0  0  0  0  0
   -8.2530   23.8401  -31.4873 H   0  0  0  0  0  0  0  0  0  0  0  0
   -5.8801   24.5977  -31.6034 H   0  0  0  0  0  0  0  0  0  0  0  0
   -4.0812   22.9940  -32.2387 H   0  0  0  0  0  0  0  0  0  0  0  0
   -4.6382   20.6174  -32.7376 H   0  0  0  0  0  0  0  0  0  0  0  0
   -1.8690   17.0396  -32.5368 H   0  0  0  0  0  0  0  0  0  0  0  0
   -0.8731   18.7878  -31.0688 H   0  0  0  0  0  0  0  0  0  0  0  0
  1  2  1  0
  2  3  1  0
  3  4  2  0
  4  5  1  0
  5  6  2  0
  6  7  1  0
  7  8  1  0
  8  9  1  0
  9 10  1  0
 10 11  1  0
 11 12  1  0
 12 13  2  0
 13 14  1  0
 14 15  2  0
 15 16  1  0
 16 17  2  0
 17 18  1  0
 18 19  2  0
 19 20  1  0
 20 21  2  0
 11 22  1  0
 22 23  2  0
  6 24  1  0
 24 25  2  0
 25  3  1  0
 22  8  1  0
 21 12  1  0
 21 16  1  0
  1 26  1  0
  1 27  1  0
  1 28  1  0
  2 29  1  0
  2 30  1  0
  4 31  1  0
  5 32  1  0
  7 33  1  0
  7 34  1  0
  8 35  1  6
  9 36  1  0
  9 37  1  0
 10 38  1  0
 10 39  1  0
 13 40  1  0
 14 41  1  0
 15 42  1  0
 17 43  1  0
 18 44  1  0
 19 45  1  0
 20 46  1  0
 24 47  1  0
 25 48  1  0
M  CHG  1   7   1
M  END
>  <UniqueID>  (9) 
8

>  <SMILES>  (9) 
CCc1ccc([NH2+][C@H]2CCN(c3cccc4ccccc34)C2=O)cc1

>  <Energy>  (9) 
67.52302833332699

>  <Genealogy>  (9) 
CCc1ccc([NH2+]C2CCN(c3cccc4ccccc34)C2=O)cc1 (protonated)
CCc1ccc([NH2+][C@H]2CCN(c3cccc4ccccc34)C2=O)cc1 (chirality)
CCc1ccc([NH2+][C@H]2CCN(c3cccc4ccccc34)C2=O)cc1 (3D coordinates assigned)
CCc1ccc([NH2+][C@H]2CCN(c3cccc4ccccc34)C2=O)cc1 (nonaromatic ring conformer: 67.52302833332699 kcal/mol)

>  <smiles>  (9) 
CCc1ccc(NC2CCN(c3cccc4ccccc34)C2=O)cc1

>  <score_type>  (9) 
oracle

>  <origin>  (9) 
adg

>  <m_score__min__energy>  (9) 
-8.4800000000000004

>  <m_primary>  (9) 
energy

$$$$
9:0
     RDKit          3D

 50 51  0  0  0  0  0  0  0  0999 V2000
   -6.8463   23.1750  -32.4992 H   0  0  0  0  0  0  0  0  0  0  0  0
   -6.9370   23.0700  -31.4080 C   0  0  0  0  0  0  0  0  0  0  0  0
   -6.2690   23.9410  -30.6360 C   0  0  0  0  0  0  0  0  0  0  0  0
   -6.7589   24.9006  -30.4143 H   0  0  0  0  0  0  0  0  0  0  0  0
   -4.9270   23.7130  -30.0600 C   0  0  0  0  0  0  0  0  0  0  0  0
   -4.0730   24.7810  -29.7390 C   0  0  0  0  0  0  0  0  0  0  0  0
   -4.4057   25.8150  -29.9129 H   0  0  0  0  0  0  0  0  0  0  0  0
   -2.8050   24.5440  -29.2010 C   0  0  0  0  0  0  0  0  0  0  0  0
   -1.9700   25.6460  -28.9590 O   0  0  0  0  0  0  0  0  0  0  0  0
   -1.2000   25.8280  -27.7750 C   0  0  0  0  0  0  0  0  0  0  0  0
   -1.8409   25.6765  -26.8939 H   0  0  0  0  0  0  0  0  0  0  0  0
   -0.3756   25.1000  -27.7582 H   0  0  0  0  0  0  0  0  0  0  0  0
   -0.7888   26.8481  -27.7582 H   0  0  0  0  0  0  0  0  0  0  0  0
   -2.4090   23.2210  -28.9210 C   0  0  0  0  0  0  0  0  0  0  0  0
   -1.4129   23.0259  -28.4970 H   0  0  0  0  0  0  0  0  0  0  0  0
   -3.2810   22.1490  -29.1810 C   0  0  0  0  0  0  0  0  0  0  0  0
   -2.9480   20.8190  -28.8820 O   0  0  0  0  0  0  0  0  0  0  0  0
   -2.7500   20.3120  -27.5660 C   0  0  0  0  0  0  0  0  0  0  0  0
   -3.0476   21.0742  -26.8308 H   0  0  0  0  0  0  0  0  0  0  0  0
   -3.3613   19.4084  -27.4254 H   0  0  0  0  0  0  0  0  0  0  0  0
   -1.6881   20.0618  -27.4254 H   0  0  0  0  0  0  0  0  0  0  0  0
   -4.5310   22.4040  -29.7550 C   0  0  0  0  0  0  0  0  0  0  0  0
   -5.2113   21.5667  -29.9695 H   0  0  0  0  0  0  0  0  0  0  0  0
   -7.7850   21.9810  -30.8880 C   0  0  0  0  0  0  0  0  0  0  0  0
   -7.3373   21.2078  -30.2463 H   0  0  0  0  0  0  0  0  0  0  0  0
   -9.0880   21.9160  -31.1820 C   0  0  0  0  0  0  0  0  0  0  0  0
   -9.7704   22.6267  -30.6929 H   0  0  0  0  0  0  0  0  0  0  0  0
   -9.6580   20.9340  -32.1340 C   0  0  0  0  0  0  0  0  0  0  0  0
  -10.4632   21.2901  -32.7934 H   0  0  0  0  0  0  0  0  0  0  0  0
   -9.2850   19.6490  -32.2690 C   0  0  0  0  0  0  0  0  0  0  0  0
  -10.0380   18.8772  -32.0514 H   0  0  0  0  0  0  0  0  0  0  0  0
   -7.9420   19.1920  -32.6870 C   0  0  0  0  0  0  0  0  0  0  0  0
   -7.4800   17.9070  -32.3690 C   0  0  0  0  0  0  0  0  0  0  0  0
   -8.1298   17.2133  -31.8153 H   0  0  0  0  0  0  0  0  0  0  0  0
   -6.1980   17.5030  -32.7520 C   0  0  0  0  0  0  0  0  0  0  0  0
   -5.8459   16.4951  -32.4870 H   0  0  0  0  0  0  0  0  0  0  0  0
   -5.3480   18.3690  -33.4740 C   0  0  0  0  0  0  0  0  0  0  0  0
   -4.0150   17.9460  -33.8790 N   0  0  0  0  0  0  0  0  0  0  0  0
   -2.8660   18.8530  -33.7360 C   0  0  0  0  0  0  0  0  0  0  0  0
   -2.6587   19.0166  -32.6682 H   0  0  0  0  0  0  0  0  0  0  0  0
   -1.9835   18.4054  -34.2164 H   0  0  0  0  0  0  0  0  0  0  0  0
   -3.0965   19.8153  -34.2164 H   0  0  0  0  0  0  0  0  0  0  0  0
   -3.7870   16.5980  -34.4190 C   0  0  0  0  0  0  0  0  0  0  0  0
   -3.6666   15.8861  -33.5891 H   0  0  0  0  0  0  0  0  0  0  0  0
   -4.6475   16.2998  -35.0360 H   0  0  0  0  0  0  0  0  0  0  0  0
   -2.8763   16.5994  -35.0360 H   0  0  0  0  0  0  0  0  0  0  0  0
   -5.8370   19.6530  -33.8030 C   0  0  0  0  0  0  0  0  0  0  0  0
   -5.1974   20.3492  -34.3653 H   0  0  0  0  0  0  0  0  0  0  0  0
   -7.1220   20.0510  -33.4240 C   0  0  0  0  0  0  0  0  0  0  0  0
   -7.4908   21.0477  -33.7079 H   0  0  0  0  0  0  0  0  0  0  0  0
  1  2  1  0
  2  3  2  0
  3  4  1  0
  3  5  1  0
  5  6  2  0
  6  7  1  0
  6  8  1  0
  8  9  1  0
  9 10  1  0
 10 11  1  0
 10 12  1  0
 10 13  1  0
  8 14  2  0
 14 15  1  0
 14 16  1  0
 16 17  1  0
 17 18  1  0
 18 19  1  0
 18 20  1  0
 18 21  1  0
 16 22  2  0
 22 23  1  0
  2 24  1  0
 24 25  1  0
 24 26  2  0
 26 27  1  0
 26 28  1  0
 28 29  1  0
 28 30  2  0
 30 31  1  0
 30 32  1  0
 32 33  2  0
 33 34  1  0
 33 35  1  0
 35 36  1  0
 35 37  2  0
 37 38  1  0
 38 39  1  0
 39 40  1  0
 39 41  1  0
 39 42  1  0
 38 43  1  0
 43 44  1  0
 43 45  1  0
 43 46  1  0
 37 47  1  0
 47 48  1  0
 47 49  2  0
 49 50  1  0
 22  5  1  0
 49 32  1  0
M  END
>  <UniqueID>  (10) 
9

>  <SMILES>  (10) 
COc1cc(/C=C\C=C\C=C\c2ccc(N(C)C)cc2)cc(OC)c1

>  <Energy>  (10) 
57.91278210468181

>  <Genealogy>  (10) 
COc1cc(/C=C\C=C\C=C\c2ccc(N(C)C)cc2)cc(OC)c1 (cis-trans isomerization)
COc1cc(/C=C\C=C\C=C\c2ccc(N(C)C)cc2)cc(OC)c1 (3D coordinates assigned)
COc1cc(/C=C\C=C\C=C\c2ccc(N(C)C)cc2)cc(OC)c1 (optimized conformer: 57.91278210468181 kcal/mol)

>  <smiles>  (10) 
COc1cc(C=CC=CC=Cc2ccc(N(C)C)cc2)cc(OC)c1

>  <score_type>  (10) 
oracle

>  <origin>  (10) 
adg

>  <m_score__min__energy>  (10) 
-8.2899999999999991

>  <m_primary>  (10) 
energy

$$$$
10:0
     RDKit          3D

 30 32  0  0  0  0  0  0  0  0999 V2000
   -4.8400   18.7040  -33.6180 C   0  0  0  0  0  0  0  0  0  0  0  0
   -4.4810   20.0460  -33.1670 N   0  0  0  0  0  0  0  0  0  0  0  0
   -3.0950   20.5150  -33.1390 C   0  0  0  0  0  0  0  0  0  0  0  0
   -3.1300   21.9230  -32.5140 C   0  0  0  0  0  0  0  0  0  0  0  0
   -4.5720   22.1240  -32.2080 C   0  0  0  0  0  0  0  0  0  0  0  0
   -5.3250   21.0520  -32.5990 C   0  0  0  0  0  0  0  0  0  0  0  0
   -6.7250   21.0490  -32.3940 C   0  0  0  0  0  0  0  0  0  0  0  0
   -7.2670   22.1820  -31.7220 C   0  0  0  0  0  0  0  0  0  0  0  0
   -6.4780   23.2000  -31.3640 O   0  0  0  0  0  0  0  0  0  0  0  0
   -5.1680   23.2140  -31.5820 C   0  0  0  0  0  0  0  0  0  0  0  0
   -4.4790   24.2030  -31.2180 O   0  0  0  0  0  0  0  0  0  0  0  0
   -8.7390   22.3060  -31.4310 C   0  0  0  0  0  0  0  0  0  0  0  0
   -9.4480   20.9530  -31.4370 C   0  0  0  0  0  0  0  0  0  0  0  0
   -9.1060   20.1950  -32.7160 C   0  0  0  0  0  0  0  0  0  0  0  0
   -7.6080   19.8780  -32.7780 C   0  0  0  0  0  0  0  0  0  0  0  0
   -5.0129   18.0577  -32.7448 H   0  0  0  0  0  0  0  0  0  0  0  0
   -5.7564   18.7539  -34.2244 H   0  0  0  0  0  0  0  0  0  0  0  0
   -4.0211   18.2897  -34.2244 H   0  0  0  0  0  0  0  0  0  0  0  0
   -2.4769   19.8415  -32.5272 H   0  0  0  0  0  0  0  0  0  0  0  0
   -2.6583   20.5353  -34.1484 H   0  0  0  0  0  0  0  0  0  0  0  0
   -2.5231   21.9628  -31.5974 H   0  0  0  0  0  0  0  0  0  0  0  0
   -2.7175   22.6988  -33.1757 H   0  0  0  0  0  0  0  0  0  0  0  0
   -8.8660   22.7673  -30.4405 H   0  0  0  0  0  0  0  0  0  0  0  0
   -9.1873   22.9239  -32.2229 H   0  0  0  0  0  0  0  0  0  0  0  0
   -9.1211   20.3658  -30.5662 H   0  0  0  0  0  0  0  0  0  0  0  0
  -10.5353   21.1129  -31.3898 H   0  0  0  0  0  0  0  0  0  0  0  0
   -9.6749   19.2538  -32.7402 H   0  0  0  0  0  0  0  0  0  0  0  0
   -9.3688   20.8242  -33.5792 H   0  0  0  0  0  0  0  0  0  0  0  0
   -7.3998   19.0449  -32.0905 H   0  0  0  0  0  0  0  0  0  0  0  0
   -7.3740   19.6256  -33.8228 H   0  0  0  0  0  0  0  0  0  0  0  0
  1  2  1  0
  2  3  1  0
  3  4  1  0
  4  5  1  0
  5  6  2  0
  6  7  1  0
  7  8  2  0
  8  9  1  0
  9 10  1  0
 10 11  2  0
  8 12  1  0
 12 13  1  0
 13 14  1  0
 14 15  1  0
  6  2  1  0
 15  7  1  0
 10  5  1  0
  1 16  1  0
  1 17  1  0
  1 18  1  0
  3 19  1  0
  3 20  1  0
  4 21  1  0
  4 22  1  0
 12 23  1  0
 12 24  1  0
 13 25  1  0
 13 26  1  0
 14 27  1  0
 14 28  1  0
 15 29  1  0
 15 30  1  0
M  END
>  <UniqueID>  (11) 
10

>  <SMILES>  (11) 
CN1CCc2c1c1c(oc2=O)CCCC1

>  <Energy>  (11) 
48.08674106537379

>  <Genealogy>  (11) 
CN1CCc2c1c1c(oc2=O)CCCC1 (3D coordinates assigned)
CN1CCc2c1c1c(oc2=O)CCCC1 (nonaromatic ring conformer: 48.08674106537379 kcal/mol)

>  <smiles>  (11) 
CN1CCc2c1c1c(oc2=O)CCCC1

>  <score_type>  (11) 
oracle

>  <origin>  (11) 
adg

>  <m_score__min__energy>  (11) 
-6.7199999999999998

>  <m_primary>  (11) 
energy

$$$$
11:0
     RDKit          3D

 50 53  0  0  0  0  0  0  0  0999 V2000
   -2.3250   19.2580  -26.7150 C   0  0  0  0  0  0  0  0  0  0  0  0
   -2.9330   20.4880  -27.0960 O   0  0  0  0  0  0  0  0  0  0  0  0
   -2.2500   21.5600  -27.6920 C   0  0  0  0  0  0  0  0  0  0  0  0
   -0.8540   21.4950  -27.7730 C   0  0  0  0  0  0  0  0  0  0  0  0
   -0.1300   22.5300  -28.3690 C   0  0  0  0  0  0  0  0  0  0  0  0
   -0.7950   23.6450  -28.8810 C   0  0  0  0  0  0  0  0  0  0  0  0
   -2.1880   23.7450  -28.7850 C   0  0  0  0  0  0  0  0  0  0  0  0
   -2.8310   24.9100  -29.3220 N   0  0  0  0  0  0  0  0  0  0  0  0
   -4.0140   24.9260  -30.1330 C   0  0  0  0  0  0  0  0  0  0  0  0
   -4.0710   25.6290  -31.1770 O   0  0  0  0  0  0  0  0  0  0  0  0
   -5.1690   24.0450  -29.7730 C   0  0  0  0  0  0  0  0  0  0  0  0
   -6.5480   24.2470  -30.9550 S   0  0  0  0  0  0  0  0  0  0  0  0
   -6.5780   22.5210  -31.4610 C   0  0  0  0  0  0  0  0  0  0  0  0
   -7.7230   21.8130  -31.2690 N   0  0  0  0  0  0  0  0  0  0  0  0
   -7.8180   20.5060  -31.6180 C   0  0  0  0  0  0  0  0  0  0  0  0
   -9.0020   19.7930  -31.4000 C   0  0  0  0  0  0  0  0  0  0  0  0
   -9.0790   18.4450  -31.7680 C   0  0  0  0  0  0  0  0  0  0  0  0
   -7.9770   17.8100  -32.3530 C   0  0  0  0  0  0  0  0  0  0  0  0
   -6.7910   18.5190  -32.5730 C   0  0  0  0  0  0  0  0  0  0  0  0
   -6.7090   19.8670  -32.2050 C   0  0  0  0  0  0  0  0  0  0  0  0
   -5.5680   20.5740  -32.4090 N   0  0  0  0  0  0  0  0  0  0  0  0
   -5.4620   21.8830  -32.0490 C   0  0  0  0  0  0  0  0  0  0  0  0
   -4.1780   22.6110  -32.3470 C   0  0  0  0  0  0  0  0  0  0  0  0
   -3.0040   21.6700  -32.2850 C   0  0  0  0  0  0  0  0  0  0  0  0
   -2.4650   21.2940  -31.0430 C   0  0  0  0  0  0  0  0  0  0  0  0
   -1.3820   20.4130  -30.9820 C   0  0  0  0  0  0  0  0  0  0  0  0
   -0.8290   19.9000  -32.1580 C   0  0  0  0  0  0  0  0  0  0  0  0
   -1.3570   20.2710  -33.3980 C   0  0  0  0  0  0  0  0  0  0  0  0
   -2.4400   21.1520  -33.4640 C   0  0  0  0  0  0  0  0  0  0  0  0
   -2.9180   22.6900  -28.2080 C   0  0  0  0  0  0  0  0  0  0  0  0
   -2.2914   19.1900  -25.6176 H   0  0  0  0  0  0  0  0  0  0  0  0
   -2.9121   18.4189  -27.1165 H   0  0  0  0  0  0  0  0  0  0  0  0
   -1.3018   19.2149  -27.1165 H   0  0  0  0  0  0  0  0  0  0  0  0
   -0.3234   20.6224  -27.3643 H   0  0  0  0  0  0  0  0  0  0  0  0
    0.9662   22.4662  -28.4350 H   0  0  0  0  0  0  0  0  0  0  0  0
   -0.2211   24.4502  -29.3629 H   0  0  0  0  0  0  0  0  0  0  0  0
   -4.8374   22.9962  -29.7844 H   0  0  0  0  0  0  0  0  0  0  0  0
   -5.5244   24.3287  -28.7714 H   0  0  0  0  0  0  0  0  0  0  0  0
   -9.8692   20.2903  -30.9410 H   0  0  0  0  0  0  0  0  0  0  0  0
  -10.0087   17.8824  -31.5970 H   0  0  0  0  0  0  0  0  0  0  0  0
   -8.0437   16.7504  -32.6406 H   0  0  0  0  0  0  0  0  0  0  0  0
   -5.9262   18.0189  -33.0335 H   0  0  0  0  0  0  0  0  0  0  0  0
   -4.2368   23.0486  -33.3545 H   0  0  0  0  0  0  0  0  0  0  0  0
   -4.0373   23.4009  -31.5945 H   0  0  0  0  0  0  0  0  0  0  0  0
   -2.8975   21.6950  -30.1145 H   0  0  0  0  0  0  0  0  0  0  0  0
   -0.9643   20.1230  -30.0066 H   0  0  0  0  0  0  0  0  0  0  0  0
    0.0216   19.2044  -32.1081 H   0  0  0  0  0  0  0  0  0  0  0  0
   -0.9193   19.8688  -34.3236 H   0  0  0  0  0  0  0  0  0  0  0  0
   -2.8525   21.4411  -34.4419 H   0  0  0  0  0  0  0  0  0  0  0  0
   -4.0154   22.7466  -28.1590 H   0  0  0  0  0  0  0  0  0  0  0  0
  1  2  1  0
  2  3  1  0
  3  4  2  0
  4  5  1  0
  5  6  2  0
  6  7  1  0
  7  8  1  0
  8  9  1  0
  9 10  2  0
  9 11  1  0
 11 12  1  0
 12 13  1  0
 13 14  2  0
 14 15  1  0
 15 16  2  0
 16 17  1  0
 17 18  2  0
 18 19  1  0
 19 20  2  0
 20 21  1  0
 21 22  2  0
 22 23  1  0
 23 24  1  0
 24 25  2  0
 25 26  1  0
 26 27  2  0
 27 28  1  0
 28 29  2  0
  7 30  2  0
 30  3  1  0
 22 13  1  0
 29 24  1  0
 20 15  1  0
  1 31  1  0
  1 32  1  0
  1 33  1  0
  4 34  1  0
  5 35  1  0
  6 36  1  0
 11 37  1  0
 11 38  1  0
 16 39  1  0
 17 40  1  0
 18 41  1  0
 19 42  1  0
 23 43  1  0
 23 44  1  0
 25 45  1  0
 26 46  1  0
 27 47  1  0
 28 48  1  0
 29 49  1  0
 30 50  1  0
M  CHG  1   8  -1
M  END
>  <UniqueID>  (12) 
11

>  <SMILES>  (12) 
COc1cccc([N-]C(=O)CSc2nc3ccccc3nc2Cc2ccccc2)c1

>  <Energy>  (12) 
55.14552872006279

>  <Genealogy>  (12) 
COc1cccc([N-]C(=O)CSc2nc3ccccc3nc2Cc2ccccc2)c1 (protonated)
COc1cccc([N-]C(=O)CSc2nc3ccccc3nc2Cc2ccccc2)c1 (3D coordinates assigned)
COc1cccc([N-]C(=O)CSc2nc3ccccc3nc2Cc2ccccc2)c1 (optimized conformer: 55.14552872006279 kcal/mol)

>  <smiles>  (12) 
COc1cccc(NC(=O)CSc2nc3ccccc3nc2Cc2ccccc2)c1

>  <score_type>  (12) 
oracle

>  <origin>  (12) 
adg

>  <m_score__min__energy>  (12) 
-11.390000000000001

>  <m_primary>  (12) 
energy

$$$$
12:0
     RDKit          3D

 44 46  0  0  0  0  0  0  0  0999 V2000
   -6.2100   17.3050  -31.2180 C   0  0  0  0  0  0  0  0  0  0  0  0
   -6.4300   18.0090  -32.5700 C   0  0  0  0  0  0  0  0  0  0  0  0
   -6.8690   16.9800  -33.6300 C   0  0  0  0  0  0  0  0  0  0  0  0
   -7.5440   18.9660  -32.3940 C   0  0  0  0  0  0  0  0  0  0  0  0
   -8.4550   19.7440  -32.2570 C   0  0  0  0  0  0  0  0  0  0  0  0
   -9.5500   20.7050  -32.0900 C   0  0  0  0  0  0  0  0  0  0  0  0
   -9.1050   22.1570  -32.0950 C   0  0  0  0  0  0  0  0  0  0  0  0
   -9.4940   21.4870  -30.7890 C   0  0  0  0  0  0  0  0  0  0  0  0
   -5.1320   18.7040  -33.0200 C   0  0  0  0  0  0  0  0  0  0  0  0
   -4.2850   18.0710  -33.9510 C   0  0  0  0  0  0  0  0  0  0  0  0
   -3.1350   18.6660  -34.3600 N   0  0  0  0  0  0  0  0  0  0  0  0
   -2.7480   19.8810  -33.9000 C   0  0  0  0  0  0  0  0  0  0  0  0
   -3.5420   20.5690  -32.9700 C   0  0  0  0  0  0  0  0  0  0  0  0
   -3.1690   21.8590  -32.4490 N   0  0  0  0  0  0  0  0  0  0  0  0
   -3.2540   22.2930  -30.7700 S   0  0  0  0  0  0  0  0  0  0  0  0
   -3.2810   21.0370  -29.9440 O   0  0  0  0  0  0  0  0  0  0  0  0
   -2.0320   23.0900  -30.4070 O   0  0  0  0  0  0  0  0  0  0  0  0
   -4.6840   23.2770  -30.4620 C   0  0  0  0  0  0  0  0  0  0  0  0
   -5.9430   22.6650  -30.3600 C   0  0  0  0  0  0  0  0  0  0  0  0
   -7.0830   23.4350  -30.1110 C   0  0  0  0  0  0  0  0  0  0  0  0
   -6.9740   24.8210  -29.9700 C   0  0  0  0  0  0  0  0  0  0  0  0
   -5.7260   25.4390  -30.0810 C   0  0  0  0  0  0  0  0  0  0  0  0
   -4.5820   24.6720  -30.3290 C   0  0  0  0  0  0  0  0  0  0  0  0
   -3.3820   25.2940  -30.4460 F   0  0  0  0  0  0  0  0  0  0  0  0
   -4.7340   19.9720  -32.5390 C   0  0  0  0  0  0  0  0  0  0  0  0
   -6.4292   18.0064  -30.3994 H   0  0  0  0  0  0  0  0  0  0  0  0
   -6.8791   16.4350  -31.1445 H   0  0  0  0  0  0  0  0  0  0  0  0
   -5.1646   16.9708  -31.1445 H   0  0  0  0  0  0  0  0  0  0  0  0
   -7.2534   16.0791  -33.1294 H   0  0  0  0  0  0  0  0  0  0  0  0
   -7.6596   17.4157  -34.2586 H   0  0  0  0  0  0  0  0  0  0  0  0
   -6.0074   16.7108  -34.2586 H   0  0  0  0  0  0  0  0  0  0  0  0
  -10.3191   20.1223  -32.6182 H   0  0  0  0  0  0  0  0  0  0  0  0
   -8.0525   22.4090  -32.2917 H   0  0  0  0  0  0  0  0  0  0  0  0
   -9.4221   23.0658  -32.6275 H   0  0  0  0  0  0  0  0  0  0  0  0
   -8.7233   21.2535  -30.0397 H   0  0  0  0  0  0  0  0  0  0  0  0
  -10.2096   21.7093  -29.9837 H   0  0  0  0  0  0  0  0  0  0  0  0
   -4.5584   17.0835  -34.3511 H   0  0  0  0  0  0  0  0  0  0  0  0
   -1.8088   20.3288  -34.2569 H   0  0  0  0  0  0  0  0  0  0  0  0
   -2.8650   22.6050  -33.1140 H   0  0  0  0  0  0  0  0  0  0  0  0
   -6.0331   21.5749  -30.4765 H   0  0  0  0  0  0  0  0  0  0  0  0
   -8.0664   22.9495  -30.0260 H   0  0  0  0  0  0  0  0  0  0  0  0
   -7.8712   25.4257  -29.7715 H   0  0  0  0  0  0  0  0  0  0  0  0
   -5.6424   26.5305  -29.9733 H   0  0  0  0  0  0  0  0  0  0  0  0
   -5.3711   20.4993  -31.8137 H   0  0  0  0  0  0  0  0  0  0  0  0
  1  2  1  0
  2  3  1  0
  2  4  1  0
  4  5  3  0
  5  6  1  0
  6  7  1  0
  7  8  1  0
  2  9  1  0
  9 10  2  0
 10 11  1  0
 11 12  2  0
 12 13  1  0
 13 14  1  0
 14 15  1  0
 15 16  2  0
 15 17  2  0
 15 18  1  0
 18 19  2  0
 19 20  1  0
 20 21  2  0
 21 22  1  0
 22 23  2  0
 23 24  1  0
 13 25  2  0
  8  6  1  0
 25  9  1  0
 23 18  1  0
  1 26  1  0
  1 27  1  0
  1 28  1  0
  3 29  1  0
  3 30  1  0
  3 31  1  0
  6 32  1  0
  7 33  1  0
  7 34  1  0
  8 35  1  0
  8 36  1  0
 10 37  1  0
 12 38  1  0
 14 39  1  0
 19 40  1  0
 20 41  1  0
 21 42  1  0
 22 43  1  0
 25 44  1  0
M  END
>  <UniqueID>  (13) 
12

>  <SMILES>  (13) 
CC(C)(C#CC1CC1)c1cncc(NS(=O)(=O)c2ccccc2F)c1

>  <Energy>  (13) 
309.97427257600447

>  <Genealogy>  (13) 
CC(C)(C#CC1CC1)c1cncc(NS(=O)(=O)c2ccccc2F)c1 (3D coordinates assigned)
CC(C)(C#CC1CC1)c1cncc(NS(=O)(=O)c2ccccc2F)c1 (nonaromatic ring conformer: 309.97427257600447 kcal/mol)

>  <smiles>  (13) 
CC(C)(C#CC1CC1)c1cncc(NS(=O)(=O)c2ccccc2F)c1

>  <score_type>  (13) 
oracle

>  <origin>  (13) 
adg

>  <m_score__min__energy>  (13) 
-8.8900000000000006

>  <m_primary>  (13) 
energy

$$$$
13:0
     RDKit          3D

 34 36  0  0  0  0  0  0  0  0999 V2000
   -0.6363   25.4443  -26.5666 H   0  0  0  0  0  0  0  0  0  0  0  0
   -1.6020   25.1510  -27.0040 C   0  0  0  0  0  0  0  0  0  0  0  0
   -1.9100   24.9220  -28.6420 S   0  0  0  0  0  0  0  0  0  0  0  0
   -3.5290   24.5150  -28.4570 C   0  0  0  0  0  0  0  0  0  0  0  0
   -4.6200   24.0890  -29.7620 S   0  0  0  0  0  0  0  0  0  0  0  0
   -6.0300   24.3780  -29.3350 O   0  0  0  0  0  0  0  0  0  0  0  0
   -4.3010   24.8940  -30.9900 O   0  0  0  0  0  0  0  0  0  0  0  0
   -4.4690   22.4000  -30.1260 N   0  0  0  0  0  0  0  0  0  0  0  0
   -4.1730   21.9230  -31.2990 C   0  0  0  0  0  0  0  0  0  0  0  0
   -2.9010   21.6510  -31.7830 C   0  0  0  0  0  0  0  0  0  0  0  0
   -1.9388   21.7559  -31.2603 H   0  0  0  0  0  0  0  0  0  0  0  0
   -3.1270   21.2170  -33.0770 C   0  0  0  0  0  0  0  0  0  0  0  0
   -2.0880   20.7200  -34.0270 C   0  0  0  0  0  0  0  0  0  0  0  0
   -1.2375   20.3132  -33.4603 H   0  0  0  0  0  0  0  0  0  0  0  0
   -2.5180   19.9301  -34.6603 H   0  0  0  0  0  0  0  0  0  0  0  0
   -1.7429   21.5505  -34.6603 H   0  0  0  0  0  0  0  0  0  0  0  0
   -4.4500   21.2190  -33.3310 N   0  0  0  0  0  0  0  0  0  0  0  0
   -4.9080   20.9040  -34.2160 H   0  0  0  0  0  0  0  0  0  0  0  0
   -5.0900   21.6480  -32.2540 N   0  0  0  0  0  0  0  0  0  0  0  0
   -6.5220   21.7740  -32.1630 C   0  0  0  0  0  0  0  0  0  0  0  0
   -7.1310   23.0380  -32.0580 C   0  0  0  0  0  0  0  0  0  0  0  0
   -6.5103   23.9461  -32.0530 H   0  0  0  0  0  0  0  0  0  0  0  0
   -8.5220   23.1450  -31.9600 C   0  0  0  0  0  0  0  0  0  0  0  0
   -8.9921   24.1366  -31.8843 H   0  0  0  0  0  0  0  0  0  0  0  0
   -9.3160   21.9950  -31.9580 C   0  0  0  0  0  0  0  0  0  0  0  0
  -10.4101   22.0816  -31.8841 H   0  0  0  0  0  0  0  0  0  0  0  0
   -8.7190   20.7350  -32.0500 C   0  0  0  0  0  0  0  0  0  0  0  0
   -9.3441   19.8299  -32.0453 H   0  0  0  0  0  0  0  0  0  0  0  0
   -7.3290   20.6220  -32.1480 C   0  0  0  0  0  0  0  0  0  0  0  0
   -6.8641   19.6272  -32.2137 H   0  0  0  0  0  0  0  0  0  0  0  0
   -3.8560   24.5490  -27.1110 C   0  0  0  0  0  0  0  0  0  0  0  0
   -4.8594   24.3191  -26.7231 H   0  0  0  0  0  0  0  0  0  0  0  0
   -2.7740   24.9070  -26.2960 C   0  0  0  0  0  0  0  0  0  0  0  0
   -2.8447   24.9874  -25.2012 H   0  0  0  0  0  0  0  0  0  0  0  0
  1  2  1  0
  2  3  1  0
  3  4  1  0
  4  5  1  0
  5  6  2  0
  5  7  2  0
  5  8  1  0
  8  9  2  0
  9 10  1  0
 10 11  1  0
 10 12  2  0
 12 13  1  0
 13 14  1  0
 13 15  1  0
 13 16  1  0
 12 17  1  0
 17 18  1  0
 17 19  1  0
 19 20  1  0
 20 21  2  0
 21 22  1  0
 21 23  1  0
 23 24  1  0
 23 25  2  0
 25 26  1  0
 25 27  1  0
 27 28  1  0
 27 29  2  0
 29 30  1  0
  4 31  2  0
 31 32  1  0
 31 33  1  0
 33 34  1  0
 33  2  2  0
 19  9  1  0
 29 20  1  0
M  END
>  <UniqueID>  (14) 
13

>  <SMILES>  (14) 
Cc1c/c(=N\S(=O)(=O)c2cccs2)n(-c2ccccc2)[nH]1

>  <Energy>  (14) 
100.57409728020328

>  <Genealogy>  (14) 
Cc1c/c(=N\S(=O)(=O)c2cccs2)n(-c2ccccc2)[nH]1 (cis-trans isomerization)
Cc1c/c(=N\S(=O)(=O)c2cccs2)n(-c2ccccc2)[nH]1 (3D coordinates assigned)
Cc1c/c(=N\S(=O)(=O)c2cccs2)n(-c2ccccc2)[nH]1 (optimized conformer: 100.57409728020328 kcal/mol)

>  <smiles>  (14) 
Cc1cc(=NS(=O)(=O)c2cccs2)n(-c2ccccc2)[nH]1

>  <score_type>  (14) 
oracle

>  <origin>  (14) 
adg

>  <m_score__min__energy>  (14) 
-7.9900000000000002

>  <m_primary>  (14) 
energy

$$$$
14:0
     RDKit          3D

 42 43  0  0  0  0  0  0  0  0999 V2000
   -3.2360   25.6760  -31.5960 H   0  0  0  0  0  0  0  0  0  0  0  0
   -3.8640   25.4600  -30.8320 O   0  0  0  0  0  0  0  0  0  0  0  0
   -4.1510   24.1650  -30.4460 N   0  0  0  0  0  0  0  0  0  0  0  0
   -4.2890   23.1600  -31.2660 C   0  0  0  0  0  0  0  0  0  0  0  0
   -3.1850   22.2080  -31.5230 C   0  0  0  0  0  0  0  0  0  0  0  0
   -3.3070   21.1530  -32.4570 C   0  0  0  0  0  0  0  0  0  0  0  0
   -4.4620   20.9840  -33.2310 O   0  0  0  0  0  0  0  0  0  0  0  0
   -5.1430   19.7660  -33.3790 C   0  0  0  0  0  0  0  0  0  0  0  0
   -4.5230   18.7250  -34.0760 C   0  0  0  0  0  0  0  0  0  0  0  0
   -3.5205   18.8748  -34.5032 H   0  0  0  0  0  0  0  0  0  0  0  0
   -5.1680   17.4950  -34.2340 C   0  0  0  0  0  0  0  0  0  0  0  0
   -4.6645   16.6776  -34.7709 H   0  0  0  0  0  0  0  0  0  0  0  0
   -6.4590   17.2980  -33.7090 C   0  0  0  0  0  0  0  0  0  0  0  0
   -7.1480   16.0830  -33.8370 O   0  0  0  0  0  0  0  0  0  0  0  0
   -6.5480   14.8590  -34.2450 C   0  0  0  0  0  0  0  0  0  0  0  0
   -6.2625   14.2766  -33.3566 H   0  0  0  0  0  0  0  0  0  0  0  0
   -7.2653   14.2818  -34.8469 H   0  0  0  0  0  0  0  0  0  0  0  0
   -5.6524   15.0724  -34.8469 H   0  0  0  0  0  0  0  0  0  0  0  0
   -7.0870   18.3500  -33.0320 C   0  0  0  0  0  0  0  0  0  0  0  0
   -8.1010   18.2109  -32.6289 H   0  0  0  0  0  0  0  0  0  0  0  0
   -6.4370   19.5750  -32.8640 C   0  0  0  0  0  0  0  0  0  0  0  0
   -6.9394   20.3930  -32.3269 H   0  0  0  0  0  0  0  0  0  0  0  0
   -2.2890   20.2620  -32.6000 N   0  0  0  0  0  0  0  0  0  0  0  0
   -1.1290   20.3730  -31.9010 C   0  0  0  0  0  0  0  0  0  0  0  0
   -0.3300   19.6302  -32.0415 H   0  0  0  0  0  0  0  0  0  0  0  0
   -0.9500   21.4270  -31.0060 C   0  0  0  0  0  0  0  0  0  0  0  0
   -0.0046   21.5322  -30.4536 H   0  0  0  0  0  0  0  0  0  0  0  0
   -1.9820   22.3470  -30.8180 C   0  0  0  0  0  0  0  0  0  0  0  0
   -1.8510   23.1829  -30.1151 H   0  0  0  0  0  0  0  0  0  0  0  0
   -5.5430   22.9570  -31.9330 N   0  0  0  0  0  0  0  0  0  0  0  0
   -5.6250   22.1620  -32.6070 H   0  0  0  0  0  0  0  0  0  0  0  0
   -6.7040   23.8060  -31.6610 C   0  0  0  0  0  0  0  0  0  0  0  0
   -6.6962   24.0918  -30.5988 H   0  0  0  0  0  0  0  0  0  0  0  0
   -6.6399   24.6938  -32.3073 H   0  0  0  0  0  0  0  0  0  0  0  0
   -8.0170   23.0820  -31.9710 C   0  0  0  0  0  0  0  0  0  0  0  0
   -8.8541   23.7780  -31.8132 H   0  0  0  0  0  0  0  0  0  0  0  0
   -7.9820   22.7392  -33.0156 H   0  0  0  0  0  0  0  0  0  0  0  0
   -8.2510   21.6190  -30.8970 S   0  0  0  0  0  0  0  0  0  0  0  0
   -9.4240   20.7560  -31.9930 C   0  0  0  0  0  0  0  0  0  0  0  0
  -10.1623   20.2128  -31.3849 H   0  0  0  0  0  0  0  0  0  0  0  0
   -9.9411   21.4906  -32.6278 H   0  0  0  0  0  0  0  0  0  0  0  0
   -8.8766   20.0437  -32.6278 H   0  0  0  0  0  0  0  0  0  0  0  0
  1  2  1  0
  2  3  1  0
  3  4  2  0
  4  5  1  0
  5  6  2  0
  6  7  1  0
  7  8  1  0
  8  9  2  0
  9 10  1  0
  9 11  1  0
 11 12  1  0
 11 13  2  0
 13 14  1  0
 14 15  1  0
 15 16  1  0
 15 17  1  0
 15 18  1  0
 13 19  1  0
 19 20  1  0
 19 21  2  0
 21 22  1  0
  6 23  1  0
 23 24  2  0
 24 25  1  0
 24 26  1  0
 26 27  1  0
 26 28  2  0
 28 29  1  0
  4 30  1  0
 30 31  1  0
 30 32  1  0
 32 33  1  0
 32 34  1  0
 32 35  1  0
 35 36  1  0
 35 37  1  0
 35 38  1  0
 38 39  1  0
 39 40  1  0
 39 41  1  0
 39 42  1  0
 28  5  1  0
 21  8  1  0
M  END
>  <UniqueID>  (15) 
14

>  <SMILES>  (15) 
COc1ccc(Oc2ncccc2/C(=N\O)NCCSC)cc1

>  <Energy>  (15) 
47.430523208515986

>  <Genealogy>  (15) 
COc1ccc(Oc2ncccc2/C(=N\O)NCCSC)cc1 (cis-trans isomerization)
COc1ccc(Oc2ncccc2/C(=N\O)NCCSC)cc1 (3D coordinates assigned)
COc1ccc(Oc2ncccc2/C(=N\O)NCCSC)cc1 (optimized conformer: 47.430523208515986 kcal/mol)

>  <smiles>  (15) 
COc1ccc(Oc2ncccc2C(=NO)NCCSC)cc1

>  <score_type>  (15) 
oracle

>  <origin>  (15) 
adg

>  <m_score__min__energy>  (15) 
-7.75

>  <m_primary>  (15) 
energy

$$$$
15:0
     RDKit          3D

 47 50  0  0  0  0  0  0  0  0999 V2000
    1.9196   19.4201  -28.4867 H   0  0  0  0  0  0  0  0  0  0  0  0
    0.8560   19.5680  -28.2480 C   0  0  0  0  0  0  0  0  0  0  0  0
    0.1860   20.6440  -28.7670 N   0  0  0  0  0  0  0  0  0  0  0  0
   -1.1370   20.8590  -28.5020 C   0  0  0  0  0  0  0  0  0  0  0  0
   -1.8290   22.0240  -29.0860 C   0  0  0  0  0  0  0  0  0  0  0  0
   -2.1660   23.0950  -28.2470 C   0  0  0  0  0  0  0  0  0  0  0  0
   -1.8800   23.0688  -27.1852 H   0  0  0  0  0  0  0  0  0  0  0  0
   -2.8430   24.1640  -28.7370 N   0  0  0  0  0  0  0  0  0  0  0  0
   -3.2100   24.2480  -30.0460 C   0  0  0  0  0  0  0  0  0  0  0  0
   -3.8560   25.2850  -30.4920 N   0  0  0  0  0  0  0  0  0  0  0  0
   -5.3120   25.4200  -30.5100 C   0  0  0  0  0  0  0  0  0  0  0  0
   -5.6042   26.0835  -31.3373 H   0  0  0  0  0  0  0  0  0  0  0  0
   -5.6428   25.8439  -29.5504 H   0  0  0  0  0  0  0  0  0  0  0  0
   -5.9600   24.0790  -30.6990 C   0  0  0  0  0  0  0  0  0  0  0  0
   -5.5310   23.2650  -31.7040 N   0  0  0  0  0  0  0  0  0  0  0  0
   -6.0920   22.0460  -31.9370 C   0  0  0  0  0  0  0  0  0  0  0  0
   -5.5930   21.2000  -33.0640 C   0  0  0  0  0  0  0  0  0  0  0  0
   -5.0734   20.3191  -32.6590 H   0  0  0  0  0  0  0  0  0  0  0  0
   -6.4428   20.8729  -33.6811 H   0  0  0  0  0  0  0  0  0  0  0  0
   -4.8956   21.7855  -33.6811 H   0  0  0  0  0  0  0  0  0  0  0  0
   -7.1540   21.6070  -31.1370 C   0  0  0  0  0  0  0  0  0  0  0  0
   -7.6202   20.6278  -31.3210 H   0  0  0  0  0  0  0  0  0  0  0  0
   -7.6150   22.4240  -30.1040 C   0  0  0  0  0  0  0  0  0  0  0  0
   -8.4471   22.0891  -29.4673 H   0  0  0  0  0  0  0  0  0  0  0  0
   -7.0200   23.6660  -29.8790 C   0  0  0  0  0  0  0  0  0  0  0  0
   -7.3789   24.3147  -29.0664 H   0  0  0  0  0  0  0  0  0  0  0  0
   -2.8820   23.2110  -30.9230 C   0  0  0  0  0  0  0  0  0  0  0  0
   -3.1785   23.2718  -31.9805 H   0  0  0  0  0  0  0  0  0  0  0  0
   -2.1750   22.0920  -30.4570 C   0  0  0  0  0  0  0  0  0  0  0  0
   -1.7790   21.0640  -31.3890 N   0  0  0  0  0  0  0  0  0  0  0  0
   -2.7470   20.0530  -31.8210 C   0  0  0  0  0  0  0  0  0  0  0  0
   -3.2008   19.5790  -30.9382 H   0  0  0  0  0  0  0  0  0  0  0  0
   -3.5323   20.5315  -32.4246 H   0  0  0  0  0  0  0  0  0  0  0  0
   -2.2348   19.2893  -32.4246 H   0  0  0  0  0  0  0  0  0  0  0  0
   -0.4320   21.0470  -31.9650 C   0  0  0  0  0  0  0  0  0  0  0  0
    0.3128   21.0376  -31.1556 H   0  0  0  0  0  0  0  0  0  0  0  0
   -0.3101   20.1472  -32.5859 H   0  0  0  0  0  0  0  0  0  0  0  0
   -0.2874   21.9434  -32.5859 H   0  0  0  0  0  0  0  0  0  0  0  0
   -1.7810   19.9520  -27.6610 C   0  0  0  0  0  0  0  0  0  0  0  0
   -3.0570   19.8970  -27.1410 C   0  0  0  0  0  0  0  0  0  0  0  0
   -3.8832   20.6010  -27.3194 H   0  0  0  0  0  0  0  0  0  0  0  0
   -3.0730   18.7570  -26.3410 C   0  0  0  0  0  0  0  0  0  0  0  0
   -3.9473   18.4043  -25.7743 H   0  0  0  0  0  0  0  0  0  0  0  0
   -1.8660   18.1410  -26.3550 N   0  0  0  0  0  0  0  0  0  0  0  0
   -1.5910   17.2790  -25.8350 H   0  0  0  0  0  0  0  0  0  0  0  0
   -1.0960   18.8880  -27.1600 C   0  0  0  0  0  0  0  0  0  0  0  0
    0.2130   18.6770  -27.4360 N   0  0  0  0  0  0  0  0  0  0  0  0
  1  2  1  0
  2  3  2  0
  3  4  1  0
  4  5  1  0
  5  6  2  0
  6  7  1  0
  6  8  1  0
  8  9  1  0
  9 10  2  0
 10 11  1  0
 11 12  1  0
 11 13  1  0
 11 14  1  0
 14 15  2  0
 15 16  1  0
 16 17  1  0
 17 18  1  0
 17 19  1  0
 17 20  1  0
 16 21  2  0
 21 22  1  0
 21 23  1  0
 23 24  1  0
 23 25  2  0
 25 26  1  0
  9 27  1  0
 27 28  1  0
 27 29  2  0
 29 30  1  0
 30 31  1  0
 31 32  1  0
 31 33  1  0
 31 34  1  0
 30 35  1  0
 35 36  1  0
 35 37  1  0
 35 38  1  0
  4 39  2  0
 39 40  1  0
 40 41  1  0
 40 42  2  0
 42 43  1  0
 42 44  1  0
 44 45  1  0
 44 46  1  0
 46 47  2  0
 47  2  1  0
 29  5  1  0
 46 39  1  0
 25 14  1  0
M  CHG  1   8  -1
M  END
>  <UniqueID>  (16) 
15

>  <SMILES>  (16) 
Cc1cccc(C/N=c2/cc(N(C)C)c(-c3ncnc4[nH]ccc34)c[n-]2)n1

>  <Energy>  (16) 
94.99456038857033

>  <Genealogy>  (16) 
Cc1cccc(CN=c2cc(N(C)C)c(-c3ncnc4[nH]ccc34)c[n-]2)n1 (protonated)
Cc1cccc(C/N=c2/cc(N(C)C)c(-c3ncnc4[nH]ccc34)c[n-]2)n1 (cis-trans isomerization)
Cc1cccc(C/N=c2/cc(N(C)C)c(-c3ncnc4[nH]ccc34)c[n-]2)n1 (3D coordinates assigned)
Cc1cccc(C/N=c2/cc(N(C)C)c(-c3ncnc4[nH]ccc34)c[n-]2)n1 (optimized conformer: 94.99456038857033 kcal/mol)

>  <smiles>  (16) 
Cc1cccc(CN=c2cc(N(C)C)c(-c3ncnc4[nH]ccc34)c[nH]2)n1

>  <score_type>  (16) 
oracle

>  <origin>  (16) 
adg

>  <m_score__min__energy>  (16) 
-9.4800000000000004

>  <m_primary>  (16) 
energy

$$$$
16:0
     RDKit          3D

 57 59  0  0  0  0  0  0  0  0999 V2000
   -8.6862   21.7250  -32.4397 H   0  0  0  0  0  0  0  0  0  0  0  0
   -8.0250   22.3640  -31.8360 C   0  0  0  0  0  0  0  0  0  0  0  0
   -7.3220   23.4110  -32.4410 C   0  0  0  0  0  0  0  0  0  0  0  0
   -7.4220   23.5879  -33.5221 H   0  0  0  0  0  0  0  0  0  0  0  0
   -6.4920   24.2330  -31.6720 C   0  0  0  0  0  0  0  0  0  0  0  0
   -5.9335   25.0503  -32.1516 H   0  0  0  0  0  0  0  0  0  0  0  0
   -6.3690   24.0180  -30.2870 C   0  0  0  0  0  0  0  0  0  0  0  0
   -5.4810   24.9130  -29.4610 C   0  0  0  0  0  0  0  0  0  0  0  0
   -6.0106   25.1959  -28.5393 H   0  0  0  0  0  0  0  0  0  0  0  0
   -5.2354   25.8087  -30.0504 H   0  0  0  0  0  0  0  0  0  0  0  0
   -4.2270   24.2200  -29.1060 N   0  0  0  0  0  0  0  0  0  0  0  0
   -3.2820   23.7150  -29.9500 C   0  0  0  0  0  0  0  0  0  0  0  0
   -3.4340   23.3570  -31.1950 N   0  0  0  0  0  0  0  0  0  0  0  0
   -3.4460   22.0440  -31.7610 C   0  0  0  0  0  0  0  0  0  0  0  0
   -2.4420   21.3010  -31.5910 O   0  0  0  0  0  0  0  0  0  0  0  0
   -4.7320   21.4890  -32.3410 C   0  0  0  0  0  0  0  0  0  0  0  0
   -5.5736   21.8599  -31.7376 H   0  0  0  0  0  0  0  0  0  0  0  0
   -4.7847   21.8260  -33.3868 H   0  0  0  0  0  0  0  0  0  0  0  0
   -4.7870   20.0020  -32.3600 N   0  0  0  0  0  0  0  0  0  0  0  0
   -3.9460   19.6450  -31.8440 H   0  0  0  0  0  0  0  0  0  0  0  0
   -4.7170   19.4820  -33.7550 C   0  0  0  0  0  0  0  0  0  0  0  0
   -5.3130   20.1358  -34.4087 H   0  0  0  0  0  0  0  0  0  0  0  0
   -3.6609   19.4709  -34.0625 H   0  0  0  0  0  0  0  0  0  0  0  0
   -5.2600   18.0450  -33.8590 C   0  0  2  0  0  0  0  0  0  0  0  0
   -4.7165   17.4176  -33.1372 H   0  0  0  0  0  0  0  0  0  0  0  0
   -5.0160   17.4630  -35.2570 C   0  0  0  0  0  0  0  0  0  0  0  0
   -4.5922   16.4521  -35.1645 H   0  0  0  0  0  0  0  0  0  0  0  0
   -5.9687   17.4125  -35.8045 H   0  0  0  0  0  0  0  0  0  0  0  0
   -4.3121   18.1070  -35.8045 H   0  0  0  0  0  0  0  0  0  0  0  0
   -6.7650   18.0110  -33.5000 C   0  0  0  0  0  0  0  0  0  0  0  0
   -7.3513   18.1219  -34.4241 H   0  0  0  0  0  0  0  0  0  0  0  0
   -6.9704   17.0501  -33.0055 H   0  0  0  0  0  0  0  0  0  0  0  0
   -7.1630   19.1410  -32.5200 C   0  0  1  0  0  0  0  0  0  0  0  0
   -7.4253   20.0330  -33.1078 H   0  0  0  0  0  0  0  0  0  0  0  0
   -8.3960   18.7450  -31.6990 C   0  0  0  0  0  0  0  0  0  0  0  0
   -8.1621   18.8201  -30.6268 H   0  0  0  0  0  0  0  0  0  0  0  0
   -9.2298   19.4205  -31.9406 H   0  0  0  0  0  0  0  0  0  0  0  0
   -8.6806   17.7103  -31.9406 H   0  0  0  0  0  0  0  0  0  0  0  0
   -5.9770   19.5010  -31.6020 C   0  0  0  0  0  0  0  0  0  0  0  0
   -6.3011   20.2832  -30.8998 H   0  0  0  0  0  0  0  0  0  0  0  0
   -5.6731   18.5826  -31.0784 H   0  0  0  0  0  0  0  0  0  0  0  0
   -2.0810   23.5810  -29.2890 C   0  0  0  0  0  0  0  0  0  0  0  0
   -1.1186   23.2431  -29.7008 H   0  0  0  0  0  0  0  0  0  0  0  0
   -2.3580   23.9660  -27.9950 C   0  0  0  0  0  0  0  0  0  0  0  0
   -1.3610   24.0210  -26.8780 C   0  0  0  0  0  0  0  0  0  0  0  0
   -1.8890   23.9919  -25.9135 H   0  0  0  0  0  0  0  0  0  0  0  0
   -0.6815   23.1590  -26.9502 H   0  0  0  0  0  0  0  0  0  0  0  0
   -0.7805   24.9525  -26.9502 H   0  0  0  0  0  0  0  0  0  0  0  0
   -3.6560   24.3300  -27.9050 N   0  0  0  0  0  0  0  0  0  0  0  0
   -4.2880   24.8990  -26.7110 C   0  0  0  0  0  0  0  0  0  0  0  0
   -3.8183   24.4761  -25.8107 H   0  0  0  0  0  0  0  0  0  0  0  0
   -4.1590   25.9914  -26.7132 H   0  0  0  0  0  0  0  0  0  0  0  0
   -5.3609   24.6565  -26.7132 H   0  0  0  0  0  0  0  0  0  0  0  0
   -7.0630   22.9510  -29.6900 C   0  0  0  0  0  0  0  0  0  0  0  0
   -6.9571   22.7622  -28.6115 H   0  0  0  0  0  0  0  0  0  0  0  0
   -7.8880   22.1290  -30.4650 C   0  0  0  0  0  0  0  0  0  0  0  0
   -8.4302   21.2957  -29.9943 H   0  0  0  0  0  0  0  0  0  0  0  0
  1  2  1  0
  2  3  2  0
  3  4  1  0
  3  5  1  0
  5  6  1  0
  5  7  2  0
  7  8  1  0
  8  9  1  0
  8 10  1  0
  8 11  1  0
 11 12  1  0
 12 13  2  0
 13 14  1  0
 14 15  2  0
 14 16  1  0
 16 17  1  0
 16 18  1  0
 16 19  1  0
 19 20  1  0
 19 21  1  0
 21 22  1  0
 21 23  1  0
 21 24  1  0
 24 25  1  1
 24 26  1  0
 26 27  1  0
 26 28  1  0
 26 29  1  0
 24 30  1  0
 30 31  1  0
 30 32  1  0
 30 33  1  0
 33 34  1  6
 33 35  1  0
 35 36  1  0
 35 37  1  0
 35 38  1  0
 33 39  1  0
 39 40  1  0
 39 41  1  0
 12 42  1  0
 42 43  1  0
 42 44  2  0
 44 45  1  0
 45 46  1  0
 45 47  1  0
 45 48  1  0
 44 49  1  0
 49 50  1  0
 50 51  1  0
 50 52  1  0
 50 53  1  0
  7 54  1  0
 54 55  1  0
 54 56  2  0
 56 57  1  0
 56  2  1  0
 49 11  1  0
 39 19  1  0
M  CHG  1  19   1
M  END
>  <UniqueID>  (17) 
16

>  <SMILES>  (17) 
Cc1c/c(=N/C(=O)C[NH+]2C[C@H](C)C[C@@H](C)C2)n(Cc2ccccc2)n1C

>  <Energy>  (17) 
111.42122321586544

>  <Genealogy>  (17) 
Cc1cc(=NC(=O)C[NH+]2CC(C)CC(C)C2)n(Cc2ccccc2)n1C (protonated)
Cc1cc(=NC(=O)C[NH+]2C[C@H](C)C[C@@H](C)C2)n(Cc2ccccc2)n1C (chirality)
Cc1c/c(=N/C(=O)C[NH+]2C[C@H](C)C[C@@H](C)C2)n(Cc2ccccc2)n1C (cis-trans isomerization)
Cc1c/c(=N/C(=O)C[NH+]2C[C@H](C)C[C@@H](C)C2)n(Cc2ccccc2)n1C (3D coordinates assigned)
Cc1c/c(=N/C(=O)C[NH+]2C[C@H](C)C[C@@H](C)C2)n(Cc2ccccc2)n1C (nonaromatic ring conformer: 111.42122321586544 kcal/mol)

>  <smiles>  (17) 
Cc1cc(=NC(=O)CN2CC(C)CC(C)C2)n(Cc2ccccc2)n1C

>  <score_type>  (17) 
oracle

>  <origin>  (17) 
adg

>  <m_score__min__energy>  (17) 
-8.5

>  <m_primary>  (17) 
energy

$$$$
17:0
     RDKit          3D

 37 40  0  0  0  0  0  0  0  0999 V2000
   -4.2650   24.8940  -30.6880 O   0  0  0  0  0  0  0  0  0  0  0  0
   -4.5310   23.7760  -30.1710 C   0  0  0  0  0  0  0  0  0  0  0  0
   -3.8350   23.3440  -28.9890 N   0  0  0  0  0  0  0  0  0  0  0  0
   -3.1270   24.2340  -28.1100 C   0  0  0  0  0  0  0  0  0  0  0  0
   -1.8910   24.7600  -28.5110 C   0  0  0  0  0  0  0  0  0  0  0  0
   -1.1720   25.6090  -27.6650 C   0  0  0  0  0  0  0  0  0  0  0  0
   -1.6700   25.9400  -26.3930 C   0  0  0  0  0  0  0  0  0  0  0  0
   -0.9290   26.8180  -25.5190 N   0  0  0  0  0  0  0  0  0  0  0  0
   -0.5020   26.5360  -24.2700 C   0  0  0  0  0  0  0  0  0  0  0  0
    0.1720   27.6200  -23.7460 C   0  0  0  0  0  0  0  0  0  0  0  0
    0.1560   28.6010  -24.7160 C   0  0  0  0  0  0  0  0  0  0  0  0
   -0.5300   28.0780  -25.7940 C   0  0  0  0  0  0  0  0  0  0  0  0
   -2.8990   25.3940  -25.9840 C   0  0  0  0  0  0  0  0  0  0  0  0
   -3.6170   24.5440  -26.8300 C   0  0  0  0  0  0  0  0  0  0  0  0
   -5.5290   22.9070  -30.8200 C   0  0  0  0  0  0  0  0  0  0  0  0
   -6.9150   22.9590  -30.6420 C   0  0  0  0  0  0  0  0  0  0  0  0
   -7.5890   22.0080  -31.4160 C   0  0  0  0  0  0  0  0  0  0  0  0
   -8.9720   21.8110  -31.4590 C   0  0  0  0  0  0  0  0  0  0  0  0
   -9.4870   20.8090  -32.2990 C   0  0  0  0  0  0  0  0  0  0  0  0
   -8.6210   20.0180  -33.0810 C   0  0  0  0  0  0  0  0  0  0  0  0
   -7.2340   20.2240  -33.0300 C   0  0  0  0  0  0  0  0  0  0  0  0
   -6.7480   21.2240  -32.1920 C   0  0  0  0  0  0  0  0  0  0  0  0
   -5.1560   21.6900  -31.9390 S   0  0  0  0  0  0  0  0  0  0  0  0
   -3.7490   22.3180  -28.8150 H   0  0  0  0  0  0  0  0  0  0  0  0
   -1.4836   24.5024  -29.4998 H   0  0  0  0  0  0  0  0  0  0  0  0
   -0.2081   26.0217  -27.9975 H   0  0  0  0  0  0  0  0  0  0  0  0
   -0.6670   25.5825  -23.7469 H   0  0  0  0  0  0  0  0  0  0  0  0
    0.6323   27.6886  -22.7493 H   0  0  0  0  0  0  0  0  0  0  0  0
    0.6025   29.6038  -24.6445 H   0  0  0  0  0  0  0  0  0  0  0  0
   -0.7229   28.6095  -26.7376 H   0  0  0  0  0  0  0  0  0  0  0  0
   -3.2994   25.6379  -24.9889 H   0  0  0  0  0  0  0  0  0  0  0  0
   -4.5717   24.1150  -26.4916 H   0  0  0  0  0  0  0  0  0  0  0  0
   -7.4190   23.6681  -29.9689 H   0  0  0  0  0  0  0  0  0  0  0  0
   -9.6451   22.4290  -30.8465 H   0  0  0  0  0  0  0  0  0  0  0  0
  -10.5730   20.6408  -32.3466 H   0  0  0  0  0  0  0  0  0  0  0  0
   -9.0345   19.2356  -33.7343 H   0  0  0  0  0  0  0  0  0  0  0  0
   -6.5493   19.6121  -33.6356 H   0  0  0  0  0  0  0  0  0  0  0  0
  1  2  2  0
  2  3  1  0
  3  4  1  0
  4  5  2  0
  5  6  1  0
  6  7  2  0
  7  8  1  0
  8  9  1  0
  9 10  2  0
 10 11  1  0
 11 12  2  0
  7 13  1  0
 13 14  2  0
  2 15  1  0
 15 16  2  0
 16 17  1  0
 17 18  2  0
 18 19  1  0
 19 20  2  0
 20 21  1  0
 21 22  2  0
 22 23  1  0
 14  4  1  0
 23 15  1  0
 12  8  1  0
 22 17  1  0
  3 24  1  0
  5 25  1  0
  6 26  1  0
  9 27  1  0
 10 28  1  0
 11 29  1  0
 12 30  1  0
 13 31  1  0
 14 32  1  0
 16 33  1  0
 18 34  1  0
 19 35  1  0
 20 36  1  0
 21 37  1  0
M  END
>  <UniqueID>  (18) 
17

>  <SMILES>  (18) 
O=C(Nc1ccc(-n2cccc2)cc1)c1cc2ccccc2s1

>  <Energy>  (18) 
104.99919158329088

>  <Genealogy>  (18) 
O=C(Nc1ccc(-n2cccc2)cc1)c1cc2ccccc2s1 (3D coordinates assigned)
O=C(Nc1ccc(-n2cccc2)cc1)c1cc2ccccc2s1 (optimized conformer: 104.99919158329088 kcal/mol)

>  <smiles>  (18) 
O=C(Nc1ccc(-n2cccc2)cc1)c1cc2ccccc2s1

>  <score_type>  (18) 
oracle

>  <origin>  (18) 
adg

>  <m_score__min__energy>  (18) 
-8.7699999999999996

>  <m_primary>  (18) 
energy

$$$$
18:0
     RDKit          3D

 44 46  0  0  0  0  0  0  0  0999 V2000
   -7.7802   24.6025  -31.1459 H   0  0  0  0  0  0  0  0  0  0  0  0
   -6.6960   24.4960  -30.9940 C   0  0  0  0  0  0  0  0  0  0  0  0
   -5.7140   25.5380  -30.1100 S   0  0  0  0  0  0  0  0  0  0  0  0
   -4.3210   24.6340  -30.4070 C   0  0  0  0  0  0  0  0  0  0  0  0
   -3.1260   24.9180  -29.9830 N   0  0  0  0  0  0  0  0  0  0  0  0
   -2.3440   24.0500  -29.1530 C   0  0  0  0  0  0  0  0  0  0  0  0
   -1.2470   23.3830  -29.7140 C   0  0  0  0  0  0  0  0  0  0  0  0
   -1.0039   23.5276  -30.7770 H   0  0  0  0  0  0  0  0  0  0  0  0
   -0.4610   22.5360  -28.9310 C   0  0  0  0  0  0  0  0  0  0  0  0
    0.4019   22.0197  -29.3770 H   0  0  0  0  0  0  0  0  0  0  0  0
   -0.7680   22.3430  -27.5830 C   0  0  0  0  0  0  0  0  0  0  0  0
   -0.1405   21.6835  -26.9655 H   0  0  0  0  0  0  0  0  0  0  0  0
   -1.8720   22.9870  -27.0170 C   0  0  0  0  0  0  0  0  0  0  0  0
   -2.1080   22.8343  -25.9535 H   0  0  0  0  0  0  0  0  0  0  0  0
   -2.6820   23.8280  -27.7980 C   0  0  0  0  0  0  0  0  0  0  0  0
   -3.8680   24.5070  -27.1670 C   0  0  0  0  0  0  0  0  0  0  0  0
   -3.7796   24.4564  -26.0717 H   0  0  0  0  0  0  0  0  0  0  0  0
   -3.8993   25.5598  -27.4841 H   0  0  0  0  0  0  0  0  0  0  0  0
   -4.7918   24.0010  -27.4841 H   0  0  0  0  0  0  0  0  0  0  0  0
   -4.5760   23.5530  -31.1710 N   0  0  0  0  0  0  0  0  0  0  0  0
   -5.8940   23.4740  -31.5000 C   0  0  0  0  0  0  0  0  0  0  0  0
   -6.4410   22.3350  -32.3160 C   0  0  0  0  0  0  0  0  0  0  0  0
   -7.4734   22.1301  -31.9964 H   0  0  0  0  0  0  0  0  0  0  0  0
   -6.4089   22.6245  -33.3767 H   0  0  0  0  0  0  0  0  0  0  0  0
   -5.6280   21.1000  -32.1450 N   0  0  2  0  0  0  0  0  0  0  0  0
   -4.8550   21.2970  -31.4650 H   0  0  0  0  0  0  0  0  0  0  0  0
   -4.9710   20.7300  -33.4160 C   0  0  0  0  0  0  0  0  0  0  0  0
   -4.0308   20.2005  -33.2022 H   0  0  0  0  0  0  0  0  0  0  0  0
   -5.6373   20.0745  -33.9959 H   0  0  0  0  0  0  0  0  0  0  0  0
   -4.7559   21.6396  -33.9959 H   0  0  0  0  0  0  0  0  0  0  0  0
   -6.3930   19.9410  -31.5950 C   0  0  0  0  0  0  0  0  0  0  0  0
   -6.0981   19.9394  -30.5353 H   0  0  0  0  0  0  0  0  0  0  0  0
   -7.9180   20.1110  -31.7590 C   0  0  0  0  0  0  0  0  0  0  0  0
   -8.3828   20.3284  -30.7860 H   0  0  0  0  0  0  0  0  0  0  0  0
   -8.1544   20.9466  -32.4342 H   0  0  0  0  0  0  0  0  0  0  0  0
   -8.4440   18.7930  -32.3100 C   0  0  0  0  0  0  0  0  0  0  0  0
   -8.8228   18.1613  -31.4930 H   0  0  0  0  0  0  0  0  0  0  0  0
   -9.2761   18.9534  -33.0114 H   0  0  0  0  0  0  0  0  0  0  0  0
   -7.2650   18.1230  -32.9910 C   0  0  0  0  0  0  0  0  0  0  0  0
   -7.3658   17.0286  -32.9447 H   0  0  0  0  0  0  0  0  0  0  0  0
   -7.2008   18.3951  -34.0549 H   0  0  0  0  0  0  0  0  0  0  0  0
   -6.0360   18.5760  -32.2190 C   0  0  0  0  0  0  0  0  0  0  0  0
   -5.7927   17.8489  -31.4302 H   0  0  0  0  0  0  0  0  0  0  0  0
   -5.1582   18.6555  -32.8772 H   0  0  0  0  0  0  0  0  0  0  0  0
  1  2  1  0
  2  3  1  0
  3  4  1  0
  4  5  2  0
  5  6  1  0
  6  7  2  0
  7  8  1  0
  7  9  1  0
  9 10  1  0
  9 11  2  0
 11 12  1  0
 11 13  1  0
 13 14  1  0
 13 15  2  0
 15 16  1  0
 16 17  1  0
 16 18  1  0
 16 19  1  0
  4 20  1  0
 20 21  1  0
 21 22  1  0
 22 23  1  0
 22 24  1  0
 22 25  1  0
 25 26  1  1
 25 27  1  0
 27 28  1  0
 27 29  1  0
 27 30  1  0
 25 31  1  0
 31 32  1  0
 31 33  1  0
 33 34  1  0
 33 35  1  0
 33 36  1  0
 36 37  1  0
 36 38  1  0
 36 39  1  0
 39 40  1  0
 39 41  1  0
 39 42  1  0
 42 43  1  0
 42 44  1  0
 21  2  2  0
 42 31  1  0
 15  6  1  0
M  CHG  2  20  -1  25   1
M  END
>  <UniqueID>  (19) 
18

>  <SMILES>  (19) 
Cc1ccccc1/N=c1/[n-]c(C[N@H+](C)C2CCCC2)cs1

>  <Energy>  (19) 
90.13344983695676

>  <Genealogy>  (19) 
Cc1ccccc1N=c1[n-]c(C[NH+](C)C2CCCC2)cs1 (protonated)
Cc1ccccc1N=c1[n-]c(C[N@H+](C)C2CCCC2)cs1 (chirality)
Cc1ccccc1/N=c1/[n-]c(C[N@H+](C)C2CCCC2)cs1 (cis-trans isomerization)
Cc1ccccc1/N=c1/[n-]c(C[N@H+](C)C2CCCC2)cs1 (3D coordinates assigned)
Cc1ccccc1/N=c1/[n-]c(C[N@H+](C)C2CCCC2)cs1 (nonaromatic ring conformer: 90.13344983695676 kcal/mol)

>  <smiles>  (19) 
Cc1ccccc1N=c1[nH]c(CN(C)C2CCCC2)cs1

>  <score_type>  (19) 
oracle

>  <origin>  (19) 
adg

>  <m_score__min__energy>  (19) 
-8.4800000000000004

>  <m_primary>  (19) 
energy

$$$$
19:0
     RDKit          3D

 42 45  0  0  0  0  0  0  0  0999 V2000
    0.5300   27.2070  -23.3650 C   0  0  0  0  0  0  0  0  0  0  0  0
   -0.0710   26.4190  -24.4800 C   0  0  0  0  0  0  0  0  0  0  0  0
   -0.2670   25.0780  -24.4300 N   0  0  0  0  0  0  0  0  0  0  0  0
   -0.7620   24.6080  -25.6020 C   0  0  0  0  0  0  0  0  0  0  0  0
   -1.0560   23.3070  -25.8340 N   0  0  0  0  0  0  0  0  0  0  0  0
   -1.5470   22.9350  -27.0520 C   0  0  0  0  0  0  0  0  0  0  0  0
   -1.7490   23.8630  -28.0490 N   0  0  0  0  0  0  0  0  0  0  0  0
   -2.2820   23.4040  -29.3450 C   0  0  0  0  0  0  0  0  0  0  0  0
   -3.7670   22.9430  -29.2270 C   0  0  1  0  0  0  0  0  0  0  0  0
   -4.6040   23.9450  -28.4370 C   0  0  0  0  0  0  0  0  0  0  0  0
   -5.1400   24.9090  -29.4830 C   0  0  0  0  0  0  0  0  0  0  0  0
   -4.9710   24.1920  -30.8200 C   0  0  0  0  0  0  0  0  0  0  0  0
   -4.4600   22.8480  -30.5240 N   0  0  0  0  0  0  0  0  0  0  0  0
   -3.6850   22.2470  -31.6260 C   0  0  0  0  0  0  0  0  0  0  0  0
   -4.5140   21.2260  -32.3400 C   0  0  0  0  0  0  0  0  0  0  0  0
   -5.9000   21.1730  -32.3540 C   0  0  0  0  0  0  0  0  0  0  0  0
   -6.4030   20.1440  -33.1610 C   0  0  0  0  0  0  0  0  0  0  0  0
   -5.4150   19.3970  -33.7900 C   0  0  0  0  0  0  0  0  0  0  0  0
   -3.9170   20.0170  -33.3450 S   0  0  0  0  0  0  0  0  0  0  0  0
   -1.4440   25.1870  -27.8260 C   0  0  0  0  0  0  0  0  0  0  0  0
   -1.6130   26.0610  -28.7210 O   0  0  0  0  0  0  0  0  0  0  0  0
   -0.9480   25.5540  -26.5830 C   0  0  0  0  0  0  0  0  0  0  0  0
   -0.4820   27.0610  -25.9960 S   0  0  0  0  0  0  0  0  0  0  0  0
    0.2076   26.7843  -22.4020 H   0  0  0  0  0  0  0  0  0  0  0  0
    1.6269   27.1642  -23.4354 H   0  0  0  0  0  0  0  0  0  0  0  0
    0.1986   28.2535  -23.4354 H   0  0  0  0  0  0  0  0  0  0  0  0
   -0.0570   24.4800  -23.6000 H   0  0  0  0  0  0  0  0  0  0  0  0
   -1.7850   21.8776  -27.2400 H   0  0  0  0  0  0  0  0  0  0  0  0
   -2.2217   24.2306  -30.0682 H   0  0  0  0  0  0  0  0  0  0  0  0
   -1.6815   22.5446  -29.6778 H   0  0  0  0  0  0  0  0  0  0  0  0
   -3.6933   21.9588  -28.7413 H   0  0  0  0  0  0  0  0  0  0  0  0
   -5.4302   23.4367  -27.9182 H   0  0  0  0  0  0  0  0  0  0  0  0
   -4.0169   24.4574  -27.6606 H   0  0  0  0  0  0  0  0  0  0  0  0
   -6.2014   25.1288  -29.2957 H   0  0  0  0  0  0  0  0  0  0  0  0
   -4.6064   25.8707  -29.4644 H   0  0  0  0  0  0  0  0  0  0  0  0
   -5.9396   24.1227  -31.3367 H   0  0  0  0  0  0  0  0  0  0  0  0
   -4.2779   24.7403  -31.4749 H   0  0  0  0  0  0  0  0  0  0  0  0
   -3.3884   23.0347  -32.3341 H   0  0  0  0  0  0  0  0  0  0  0  0
   -2.7899   21.7592  -31.2127 H   0  0  0  0  0  0  0  0  0  0  0  0
   -6.5389   21.8678  -31.7892 H   0  0  0  0  0  0  0  0  0  0  0  0
   -7.4780   19.9464  -33.2847 H   0  0  0  0  0  0  0  0  0  0  0  0
   -5.5841   18.5447  -34.4646 H   0  0  0  0  0  0  0  0  0  0  0  0
  1  2  1  0
  2  3  2  0
  3  4  1  0
  4  5  1  0
  5  6  2  0
  6  7  1  0
  7  8  1  0
  8  9  1  0
  9 10  1  0
 10 11  1  0
 11 12  1  0
 12 13  1  0
 13 14  1  0
 14 15  1  0
 15 16  2  0
 16 17  1  0
 17 18  2  0
 18 19  1  0
  7 20  1  0
 20 21  2  0
 20 22  1  0
 22 23  1  0
 23  2  1  0
 22  4  2  0
 13  9  1  0
 19 15  1  0
  1 24  1  0
  1 25  1  0
  1 26  1  0
  3 27  1  0
  6 28  1  0
  8 29  1  0
  8 30  1  0
  9 31  1  1
 10 32  1  0
 10 33  1  0
 11 34  1  0
 11 35  1  0
 12 36  1  0
 12 37  1  0
 14 38  1  0
 14 39  1  0
 16 40  1  0
 17 41  1  0
 18 42  1  0
M  CHG  1   3   1
M  END
>  <UniqueID>  (20) 
19

>  <SMILES>  (20) 
Cc1[nH+]c2ncn(C[C@H]3CCCN3Cc3cccs3)c(=O)c2s1

>  <Energy>  (20) 
113.2777219647485

>  <Genealogy>  (20) 
Cc1[nH+]c2ncn(CC3CCCN3Cc3cccs3)c(=O)c2s1 (protonated)
Cc1[nH+]c2ncn(C[C@H]3CCCN3Cc3cccs3)c(=O)c2s1 (chirality)
Cc1[nH+]c2ncn(C[C@H]3CCCN3Cc3cccs3)c(=O)c2s1 (3D coordinates assigned)
Cc1[nH+]c2ncn(C[C@H]3CCCN3Cc3cccs3)c(=O)c2s1 (nonaromatic ring conformer: 113.2777219647485 kcal/mol)

>  <smiles>  (20) 
Cc1nc2ncn(CC3CCCN3Cc3cccs3)c(=O)c2s1

>  <score_type>  (20) 
oracle

>  <origin>  (20) 
adg

>  <m_score__min__energy>  (20) 
-8.0600000000000005

>  <m_primary>  (20) 
energy

$$$$
20:0
     RDKit          3D

 41 44  0  0  0  0  0  0  0  0999 V2000
   -3.1840   16.3080  -35.3490 C   0  0  0  0  0  0  0  0  0  0  0  0
   -4.2060   17.2740  -35.5730 O   0  0  0  0  0  0  0  0  0  0  0  0
   -5.1420   17.6760  -34.6080 C   0  0  0  0  0  0  0  0  0  0  0  0
   -6.2520   16.8590  -34.3830 C   0  0  0  0  0  0  0  0  0  0  0  0
   -7.2170   17.2180  -33.4410 C   0  0  0  0  0  0  0  0  0  0  0  0
   -7.0840   18.3970  -32.7000 C   0  0  0  0  0  0  0  0  0  0  0  0
   -8.3980   18.8220  -31.6090 Cl  0  0  0  0  0  0  0  0  0  0  0  0
   -5.9550   19.2280  -32.8990 C   0  0  0  0  0  0  0  0  0  0  0  0
   -5.7410   20.4780  -32.1350 C   0  0  0  0  0  0  0  0  0  0  0  0
   -6.6900   21.4320  -32.0050 N   0  0  0  0  0  0  0  0  0  0  0  0
   -6.2430   22.5280  -31.3310 C   0  0  0  0  0  0  0  0  0  0  0  0
   -7.1450   23.6940  -31.0750 C   0  0  0  0  0  0  0  0  0  0  0  0
   -4.9030   22.4600  -30.9320 C   0  0  0  0  0  0  0  0  0  0  0  0
   -4.1190   23.4730  -30.2020 C   0  0  0  0  0  0  0  0  0  0  0  0
   -3.9190   24.7350  -30.6300 N   0  0  0  0  0  0  0  0  0  0  0  0
   -3.1900   25.2880  -29.7110 O   0  0  0  0  0  0  0  0  0  0  0  0
   -2.9450   24.4230  -28.7580 C   0  0  0  0  0  0  0  0  0  0  0  0
   -2.1420   24.7150  -27.5550 C   0  0  0  0  0  0  0  0  0  0  0  0
   -0.7730   24.4040  -27.5270 C   0  0  0  0  0  0  0  0  0  0  0  0
   -0.0080   24.6790  -26.3890 C   0  0  0  0  0  0  0  0  0  0  0  0
   -0.6050   25.2690  -25.2660 C   0  0  0  0  0  0  0  0  0  0  0  0
    0.1470   25.5480  -24.1270 O   0  0  0  0  0  0  0  0  0  0  0  0
   -1.9670   25.5820  -25.2890 C   0  0  0  0  0  0  0  0  0  0  0  0
   -2.7330   25.3070  -26.4250 C   0  0  0  0  0  0  0  0  0  0  0  0
   -3.5190   23.2310  -29.0190 N   0  0  0  0  0  0  0  0  0  0  0  0
   -4.2880   20.9830  -31.4490 S   0  0  0  0  0  0  0  0  0  0  0  0
   -5.0020   18.8630  -33.8660 C   0  0  0  0  0  0  0  0  0  0  0  0
   -3.0394   16.1713  -34.2671 H   0  0  0  0  0  0  0  0  0  0  0  0
   -3.4785   15.3505  -35.8034 H   0  0  0  0  0  0  0  0  0  0  0  0
   -2.2446   16.6559  -35.8034 H   0  0  0  0  0  0  0  0  0  0  0  0
   -6.3666   15.9251  -34.9528 H   0  0  0  0  0  0  0  0  0  0  0  0
   -8.0898   16.5682  -33.2798 H   0  0  0  0  0  0  0  0  0  0  0  0
   -7.2575   23.8394  -29.9905 H   0  0  0  0  0  0  0  0  0  0  0  0
   -6.7099   24.5995  -31.5232 H   0  0  0  0  0  0  0  0  0  0  0  0
   -8.1307   23.5004  -31.5232 H   0  0  0  0  0  0  0  0  0  0  0  0
   -0.2994   23.9413  -28.4054 H   0  0  0  0  0  0  0  0  0  0  0  0
    1.0638   24.4320  -26.3750 H   0  0  0  0  0  0  0  0  0  0  0  0
    0.2930   24.8510  -23.4060 H   0  0  0  0  0  0  0  0  0  0  0  0
   -2.4376   26.0464  -24.4099 H   0  0  0  0  0  0  0  0  0  0  0  0
   -3.8046   25.5552  -26.4351 H   0  0  0  0  0  0  0  0  0  0  0  0
   -4.1343   19.5150  -34.0450 H   0  0  0  0  0  0  0  0  0  0  0  0
  1  2  1  0
  2  3  1  0
  3  4  2  0
  4  5  1  0
  5  6  2  0
  6  7  1  0
  6  8  1  0
  8  9  1  0
  9 10  2  0
 10 11  1  0
 11 12  1  0
 11 13  2  0
 13 14  1  0
 14 15  2  0
 15 16  1  0
 16 17  1  0
 17 18  1  0
 18 19  2  0
 19 20  1  0
 20 21  2  0
 21 22  1  0
 21 23  1  0
 23 24  2  0
 17 25  2  0
 13 26  1  0
  8 27  2  0
 27  3  1  0
 26  9  1  0
 25 14  1  0
 24 18  1  0
  1 28  1  0
  1 29  1  0
  1 30  1  0
  4 31  1  0
  5 32  1  0
 12 33  1  0
 12 34  1  0
 12 35  1  0
 19 36  1  0
 20 37  1  0
 22 38  1  0
 23 39  1  0
 24 40  1  0
 27 41  1  0
M  END
>  <UniqueID>  (21) 
20

>  <SMILES>  (21) 
COc1ccc(Cl)c(-c2nc(C)c(-c3noc(-c4ccc(O)cc4)n3)s2)c1

>  <Energy>  (21) 
112.62571350688184

>  <Genealogy>  (21) 
COc1ccc(Cl)c(-c2nc(C)c(-c3noc(-c4ccc(O)cc4)n3)s2)c1 (3D coordinates assigned)
COc1ccc(Cl)c(-c2nc(C)c(-c3noc(-c4ccc(O)cc4)n3)s2)c1 (optimized conformer: 112.62571350688184 kcal/mol)

>  <smiles>  (21) 
COc1ccc(Cl)c(-c2nc(C)c(-c3noc(-c4ccc(O)cc4)n3)s2)c1

>  <score_type>  (21) 
oracle

>  <origin>  (21) 
adg

>  <m_score__min__energy>  (21) 
-9.5500000000000007

>  <m_primary>  (21) 
energy

$$$$
21:0
     RDKit          3D

 41 43  0  0  0  0  0  0  0  0999 V2000
   -5.6650   25.9760  -30.8620 O   0  0  0  0  0  0  0  0  0  0  0  0
   -5.2230   24.8070  -31.0170 C   0  0  0  0  0  0  0  0  0  0  0  0
   -3.9540   24.4360  -30.6390 O   0  0  0  0  0  0  0  0  0  0  0  0
   -3.7050   23.0730  -30.9270 C   0  0  0  0  0  0  0  0  0  0  0  0
   -4.9140   22.5780  -31.7690 C   0  0  2  0  0  0  0  0  0  0  0  0
   -4.5130   22.3480  -33.1760 N   0  0  0  0  0  0  0  0  0  0  0  0
   -3.5060   21.2780  -33.3220 C   0  0  0  0  0  0  0  0  0  0  0  0
   -4.1420   19.9160  -33.4840 C   0  0  0  0  0  0  0  0  0  0  0  0
   -5.5020   19.7990  -33.8170 C   0  0  0  0  0  0  0  0  0  0  0  0
   -6.0940   18.5390  -33.9340 C   0  0  0  0  0  0  0  0  0  0  0  0
   -5.3330   17.3850  -33.7240 C   0  0  0  0  0  0  0  0  0  0  0  0
   -6.1450   15.6630  -33.8820 Br  0  0  0  0  0  0  0  0  0  0  0  0
   -3.9770   17.4920  -33.3990 C   0  0  0  0  0  0  0  0  0  0  0  0
   -3.3830   18.7520  -33.2780 C   0  0  0  0  0  0  0  0  0  0  0  0
   -5.9860   23.7040  -31.6460 C   0  0  1  0  0  0  0  0  0  0  0  0
   -7.2270   23.3020  -30.8130 C   0  0  0  0  0  0  0  0  0  0  0  0
   -7.9230   22.0470  -31.2950 C   0  0  0  0  0  0  0  0  0  0  0  0
   -9.2070   22.1180  -31.8620 C   0  0  0  0  0  0  0  0  0  0  0  0
   -9.8550   20.9550  -32.2900 C   0  0  0  0  0  0  0  0  0  0  0  0
   -9.2270   19.7140  -32.1610 C   0  0  0  0  0  0  0  0  0  0  0  0
   -9.8580   18.5880  -32.5750 F   0  0  0  0  0  0  0  0  0  0  0  0
   -7.9450   19.6350  -31.6100 C   0  0  0  0  0  0  0  0  0  0  0  0
   -7.2930   20.7950  -31.1830 C   0  0  0  0  0  0  0  0  0  0  0  0
   -2.7726   22.9691  -31.5014 H   0  0  0  0  0  0  0  0  0  0  0  0
   -3.5912   22.4836  -30.0052 H   0  0  0  0  0  0  0  0  0  0  0  0
   -5.3070   21.6151  -31.4107 H   0  0  0  0  0  0  0  0  0  0  0  0
   -4.1160   23.2300  -33.5810 H   0  0  0  0  0  0  0  0  0  0  0  0
   -5.3540   22.0990  -33.7480 H   0  0  0  0  0  0  0  0  0  0  0  0
   -2.8900   21.4894  -34.2085 H   0  0  0  0  0  0  0  0  0  0  0  0
   -2.8960   21.2601  -32.4068 H   0  0  0  0  0  0  0  0  0  0  0  0
   -6.1037   20.7041  -33.9865 H   0  0  0  0  0  0  0  0  0  0  0  0
   -7.1601   18.4547  -34.1916 H   0  0  0  0  0  0  0  0  0  0  0  0
   -3.3772   16.5840  -33.2384 H   0  0  0  0  0  0  0  0  0  0  0  0
   -2.3166   18.8321  -33.0204 H   0  0  0  0  0  0  0  0  0  0  0  0
   -6.4271   23.9651  -32.6193 H   0  0  0  0  0  0  0  0  0  0  0  0
   -6.9060   23.1399  -29.7735 H   0  0  0  0  0  0  0  0  0  0  0  0
   -7.9527   24.1224  -30.9143 H   0  0  0  0  0  0  0  0  0  0  0  0
   -9.7047   23.0931  -31.9696 H   0  0  0  0  0  0  0  0  0  0  0  0
  -10.8615   21.0176  -32.7292 H   0  0  0  0  0  0  0  0  0  0  0  0
   -7.4485   18.6583  -31.5123 H   0  0  0  0  0  0  0  0  0  0  0  0
   -6.2811   20.7282  -30.7568 H   0  0  0  0  0  0  0  0  0  0  0  0
  1  2  2  0
  2  3  1  0
  3  4  1  0
  4  5  1  0
  5  6  1  0
  6  7  1  0
  7  8  1  0
  8  9  2  0
  9 10  1  0
 10 11  2  0
 11 12  1  0
 11 13  1  0
 13 14  2  0
  5 15  1  0
 15 16  1  0
 16 17  1  0
 17 18  2  0
 18 19  1  0
 19 20  2  0
 20 21  1  0
 20 22  1  0
 22 23  2  0
 15  2  1  0
 23 17  1  0
 14  8  1  0
  4 24  1  0
  4 25  1  0
  5 26  1  1
  6 27  1  0
  6 28  1  0
  7 29  1  0
  7 30  1  0
  9 31  1  0
 10 32  1  0
 13 33  1  0
 14 34  1  0
 15 35  1  6
 16 36  1  0
 16 37  1  0
 18 38  1  0
 19 39  1  0
 22 40  1  0
 23 41  1  0
M  CHG  1   6   1
M  END
>  <UniqueID>  (22) 
21

>  <SMILES>  (22) 
O=C1OC[C@H]([NH2+]Cc2ccc(Br)cc2)[C@H]1Cc1ccc(F)cc1

>  <Energy>  (22) 
51.36738616379991

>  <Genealogy>  (22) 
O=C1OCC([NH2+]Cc2ccc(Br)cc2)C1Cc1ccc(F)cc1 (protonated)
O=C1OC[C@H]([NH2+]Cc2ccc(Br)cc2)[C@H]1Cc1ccc(F)cc1 (chirality)
O=C1OC[C@H]([NH2+]Cc2ccc(Br)cc2)[C@H]1Cc1ccc(F)cc1 (3D coordinates assigned)
O=C1OC[C@H]([NH2+]Cc2ccc(Br)cc2)[C@H]1Cc1ccc(F)cc1 (nonaromatic ring conformer: 51.36738616379991 kcal/mol)

>  <smiles>  (22) 
O=C1OCC(NCc2ccc(Br)cc2)C1Cc1ccc(F)cc1

>  <score_type>  (22) 
oracle

>  <origin>  (22) 
adg

>  <m_score__min__energy>  (22) 
-8.3499999999999996

>  <m_primary>  (22) 
energy

$$$$
22:0
     RDKit          3D

 35 36  0  0  0  0  0  0  0  0999 V2000
   -6.1140   17.1600  -31.7190 C   0  0  0  0  0  0  0  0  0  0  0  0
   -7.0230   17.5560  -32.8100 N   0  0  0  0  0  0  0  0  0  0  0  0
   -6.3690   18.3900  -33.8240 C   0  0  0  0  0  0  0  0  0  0  0  0
   -5.9450   19.7660  -33.2910 C   0  0  0  0  0  0  0  0  0  0  0  0
   -6.8620   20.3600  -32.2920 N   0  0  0  0  0  0  0  0  0  0  0  0
   -6.5740   21.7020  -31.7820 C   0  0  0  0  0  0  0  0  0  0  0  0
   -5.2460   22.1840  -31.6840 C   0  0  0  0  0  0  0  0  0  0  0  0
   -4.9750   23.4650  -31.1970 C   0  0  0  0  0  0  0  0  0  0  0  0
   -6.0180   24.3110  -30.8030 C   0  0  0  0  0  0  0  0  0  0  0  0
   -5.7200   25.6780  -30.2440 C   0  0  0  0  0  0  0  0  0  0  0  0
   -6.1710   25.7780  -28.8570 N   0  0  0  0  0  0  0  0  0  0  0  0
   -7.3360   23.8520  -30.8840 C   0  0  0  0  0  0  0  0  0  0  0  0
   -7.6140   22.5710  -31.3710 C   0  0  0  0  0  0  0  0  0  0  0  0
   -7.9610   19.5850  -31.6770 C   0  0  0  0  0  0  0  0  0  0  0  0
   -8.2370   18.2230  -32.3290 C   0  0  0  0  0  0  0  0  0  0  0  0
   -6.5915   17.3680  -30.7501 H   0  0  0  0  0  0  0  0  0  0  0  0
   -5.8948   16.0848  -31.7964 H   0  0  0  0  0  0  0  0  0  0  0  0
   -5.1774   17.7316  -31.7964 H   0  0  0  0  0  0  0  0  0  0  0  0
   -5.4734   17.8636  -34.1855 H   0  0  0  0  0  0  0  0  0  0  0  0
   -7.0995   18.5611  -34.6285 H   0  0  0  0  0  0  0  0  0  0  0  0
   -4.9543   19.6608  -32.8247 H   0  0  0  0  0  0  0  0  0  0  0  0
   -5.9508   20.4457  -34.1559 H   0  0  0  0  0  0  0  0  0  0  0  0
   -4.4126   21.5379  -31.9971 H   0  0  0  0  0  0  0  0  0  0  0  0
   -3.9336   23.8115  -31.1226 H   0  0  0  0  0  0  0  0  0  0  0  0
   -4.6353   25.8564  -30.2849 H   0  0  0  0  0  0  0  0  0  0  0  0
   -6.2530   26.4298  -30.8445 H   0  0  0  0  0  0  0  0  0  0  0  0
   -6.5400   24.8540  -28.5330 H   0  0  0  0  0  0  0  0  0  0  0  0
   -5.3620   26.0490  -28.2530 H   0  0  0  0  0  0  0  0  0  0  0  0
   -6.9170   26.5070  -28.7740 H   0  0  0  0  0  0  0  0  0  0  0  0
   -8.1613   24.5040  -30.5619 H   0  0  0  0  0  0  0  0  0  0  0  0
   -8.6586   22.2324  -31.4360 H   0  0  0  0  0  0  0  0  0  0  0  0
   -7.7077   19.4127  -30.6205 H   0  0  0  0  0  0  0  0  0  0  0  0
   -8.8740   20.1829  -31.8148 H   0  0  0  0  0  0  0  0  0  0  0  0
   -8.7228   17.5723  -31.5870 H   0  0  0  0  0  0  0  0  0  0  0  0
   -8.8791   18.4035  -33.2037 H   0  0  0  0  0  0  0  0  0  0  0  0
  1  2  1  0
  2  3  1  0
  3  4  1  0
  4  5  1  0
  5  6  1  0
  6  7  2  0
  7  8  1  0
  8  9  2  0
  9 10  1  0
 10 11  1  0
  9 12  1  0
 12 13  2  0
  5 14  1  0
 14 15  1  0
 15  2  1  0
 13  6  1  0
  1 16  1  0
  1 17  1  0
  1 18  1  0
  3 19  1  0
  3 20  1  0
  4 21  1  0
  4 22  1  0
  7 23  1  0
  8 24  1  0
 10 25  1  0
 10 26  1  0
 11 27  1  0
 11 28  1  0
 11 29  1  0
 12 30  1  0
 13 31  1  0
 14 32  1  0
 14 33  1  0
 15 34  1  0
 15 35  1  0
M  CHG  1  11   1
M  END
>  <UniqueID>  (23) 
22

>  <SMILES>  (23) 
CN1CCN(c2ccc(C[NH3+])cc2)CC1

>  <Energy>  (23) 
43.002027962966885

>  <Genealogy>  (23) 
CN1CCN(c2ccc(C[NH3+])cc2)CC1 (protonated)
CN1CCN(c2ccc(C[NH3+])cc2)CC1 (3D coordinates assigned)
CN1CCN(c2ccc(C[NH3+])cc2)CC1 (nonaromatic ring conformer: 43.002027962966885 kcal/mol)

>  <smiles>  (23) 
CN1CCN(c2ccc(CN)cc2)CC1

>  <score_type>  (23) 
oracle

>  <origin>  (23) 
adg

>  <m_score__min__energy>  (23) 
-6.3200000000000003

>  <m_primary>  (23) 
energy

$$$$
23:0
     RDKit          3D

 61 63  0  0  0  0  0  0  0  0999 V2000
   -8.8810   21.0940  -31.1250 C   0  0  0  0  0  0  0  0  0  0  0  0
   -9.3650   20.3100  -32.3420 C   0  0  0  0  0  0  0  0  0  0  0  0
   -8.7850   18.8900  -32.3490 C   0  0  0  0  0  0  0  0  0  0  0  0
   -7.5990   18.7220  -31.3800 C   0  0  0  0  0  0  0  0  0  0  0  0
   -6.3960   18.1100  -32.0240 N   0  0  1  0  0  0  0  0  0  0  0  0
   -6.0810   16.7610  -31.4860 C   0  0  0  0  0  0  0  0  0  0  0  0
   -4.9940   15.9970  -32.2600 C   0  0  0  0  0  0  0  0  0  0  0  0
   -6.5000   18.0850  -33.4740 C   0  0  0  0  0  0  0  0  0  0  0  0
   -6.8730   17.0680  -34.0480 O   0  0  0  0  0  0  0  0  0  0  0  0
   -6.0740   19.2870  -34.2850 C   0  0  0  0  0  0  0  0  0  0  0  0
   -4.9830   20.0150  -33.6300 N   0  0  0  0  0  0  0  0  0  0  0  0
   -3.6880   19.6310  -33.4760 C   0  0  0  0  0  0  0  0  0  0  0  0
   -2.9710   18.1560  -34.2080 S   0  0  0  0  0  0  0  0  0  0  0  0
   -1.2660   18.5290  -33.6730 C   0  0  0  0  0  0  0  0  0  0  0  0
   -0.3900   18.7350  -34.8820 C   0  0  0  0  0  0  0  0  0  0  0  0
   -0.0970   17.6140  -35.6810 C   0  0  0  0  0  0  0  0  0  0  0  0
    0.6770   17.7430  -36.8340 C   0  0  0  0  0  0  0  0  0  0  0  0
    1.1780   18.9890  -37.2020 C   0  0  0  0  0  0  0  0  0  0  0  0
    0.9160   20.1100  -36.4120 C   0  0  0  0  0  0  0  0  0  0  0  0
    0.1460   20.0040  -35.2390 C   0  0  0  0  0  0  0  0  0  0  0  0
   -0.0700   21.1820  -34.4380 N   0  0  0  0  0  0  0  0  0  0  0  0
   -0.0760   22.3100  -34.9740 O   0  0  0  0  0  0  0  0  0  0  0  0
   -0.0490   21.1100  -33.0630 O   0  0  0  0  0  0  0  0  0  0  0  0
   -2.9520   20.4930  -32.7280 N   0  0  0  0  0  0  0  0  0  0  0  0
   -3.8430   21.4480  -32.4030 C   0  0  0  0  0  0  0  0  0  0  0  0
   -3.6260   22.5750  -31.6170 C   0  0  0  0  0  0  0  0  0  0  0  0
   -4.7240   23.4360  -31.3730 C   0  0  0  0  0  0  0  0  0  0  0  0
   -4.6070   24.5940  -30.5900 O   0  0  0  0  0  0  0  0  0  0  0  0
   -5.6840   25.1860  -29.8710 C   0  0  0  0  0  0  0  0  0  0  0  0
   -5.9910   23.1280  -31.9260 C   0  0  0  0  0  0  0  0  0  0  0  0
   -6.1740   21.9810  -32.7160 C   0  0  0  0  0  0  0  0  0  0  0  0
   -5.0640   21.1650  -32.9380 C   0  0  0  0  0  0  0  0  0  0  0  0
   -9.1991   20.5787  -30.2067 H   0  0  0  0  0  0  0  0  0  0  0  0
   -7.7833   21.1623  -31.1457 H   0  0  0  0  0  0  0  0  0  0  0  0
   -9.3118   22.1059  -31.1457 H   0  0  0  0  0  0  0  0  0  0  0  0
  -10.4631   20.2497  -32.3173 H   0  0  0  0  0  0  0  0  0  0  0  0
   -9.0273   20.8304  -33.2504 H   0  0  0  0  0  0  0  0  0  0  0  0
   -9.5782   18.1854  -32.0584 H   0  0  0  0  0  0  0  0  0  0  0  0
   -8.4123   18.6907  -33.3646 H   0  0  0  0  0  0  0  0  0  0  0  0
   -7.3217   19.7130  -30.9913 H   0  0  0  0  0  0  0  0  0  0  0  0
   -7.9240   18.0411  -30.5795 H   0  0  0  0  0  0  0  0  0  0  0  0
   -5.5620   18.7040  -31.8010 H   0  0  0  0  0  0  0  0  0  0  0  0
   -5.7427   16.8776  -30.4458 H   0  0  0  0  0  0  0  0  0  0  0  0
   -7.0025   16.1674  -31.5781 H   0  0  0  0  0  0  0  0  0  0  0  0
   -4.3077   15.5146  -31.5484 H   0  0  0  0  0  0  0  0  0  0  0  0
   -5.4648   15.2301  -32.8926 H   0  0  0  0  0  0  0  0  0  0  0  0
   -4.4319   16.6997  -32.8926 H   0  0  0  0  0  0  0  0  0  0  0  0
   -5.7347   18.9486  -35.2751 H   0  0  0  0  0  0  0  0  0  0  0  0
   -6.9354   19.9647  -34.3781 H   0  0  0  0  0  0  0  0  0  0  0  0
   -1.2661   19.4431  -33.0611 H   0  0  0  0  0  0  0  0  0  0  0  0
   -0.8774   17.6883  -33.0795 H   0  0  0  0  0  0  0  0  0  0  0  0
   -0.4828   16.6250  -35.3928 H   0  0  0  0  0  0  0  0  0  0  0  0
    0.8919   16.8596  -37.4532 H   0  0  0  0  0  0  0  0  0  0  0  0
    1.7810   19.0903  -38.1164 H   0  0  0  0  0  0  0  0  0  0  0  0
    1.3171   21.0897  -36.7107 H   0  0  0  0  0  0  0  0  0  0  0  0
   -2.6322   22.7910  -31.1978 H   0  0  0  0  0  0  0  0  0  0  0  0
   -5.5024   25.0862  -28.7907 H   0  0  0  0  0  0  0  0  0  0  0  0
   -5.7582   26.2517  -30.1334 H   0  0  0  0  0  0  0  0  0  0  0  0
   -6.6235   24.6775  -30.1334 H   0  0  0  0  0  0  0  0  0  0  0  0
   -6.8435   23.7962  -31.7342 H   0  0  0  0  0  0  0  0  0  0  0  0
   -7.1569   21.7349  -33.1442 H   0  0  0  0  0  0  0  0  0  0  0  0
  1  2  1  0
  2  3  1  0
  3  4  1  0
  4  5  1  0
  5  6  1  0
  6  7  1  0
  5  8  1  0
  8  9  2  0
  8 10  1  0
 10 11  1  0
 11 12  1  0
 12 13  1  0
 13 14  1  0
 14 15  1  0
 15 16  2  0
 16 17  1  0
 17 18  2  0
 18 19  1  0
 19 20  2  0
 20 21  1  0
 21 22  2  0
 21 23  1  0
 12 24  2  0
 24 25  1  0
 25 26  2  0
 26 27  1  0
 27 28  1  0
 28 29  1  0
 27 30  2  0
 30 31  1  0
 31 32  2  0
 32 11  1  0
 20 15  1  0
 32 25  1  0
  1 33  1  0
  1 34  1  0
  1 35  1  0
  2 36  1  0
  2 37  1  0
  3 38  1  0
  3 39  1  0
  4 40  1  0
  4 41  1  0
  5 42  1  6
  6 43  1  0
  6 44  1  0
  7 45  1  0
  7 46  1  0
  7 47  1  0
 10 48  1  0
 10 49  1  0
 14 50  1  0
 14 51  1  0
 16 52  1  0
 17 53  1  0
 18 54  1  0
 19 55  1  0
 26 56  1  0
 29 57  1  0
 29 58  1  0
 29 59  1  0
 30 60  1  0
 31 61  1  0
M  CHG  3   5   1  21   1  23  -1
M  END
>  <UniqueID>  (24) 
23

>  <SMILES>  (24) 
CCCC[N@@H+](CC)C(=O)Cn1c(SCc2ccccc2[N+](=O)[O-])nc2cc(OC)ccc21

>  <Energy>  (24) 
100.05805217125062

>  <Genealogy>  (24) 
CCCC[NH+](CC)C(=O)Cn1c(SCc2ccccc2[N+](=O)[O-])nc2cc(OC)ccc21 (protonated)
CCCC[N@@H+](CC)C(=O)Cn1c(SCc2ccccc2[N+](=O)[O-])nc2cc(OC)ccc21 (chirality)
CCCC[N@@H+](CC)C(=O)Cn1c(SCc2ccccc2[N+](=O)[O-])nc2cc(OC)ccc21 (3D coordinates assigned)
CCCC[N@@H+](CC)C(=O)Cn1c(SCc2ccccc2[N+](=O)[O-])nc2cc(OC)ccc21 (optimized conformer: 100.05805217125062 kcal/mol)

>  <smiles>  (24) 
CCCCN(CC)C(=O)Cn1c(SCc2ccccc2[N+](=O)[O-])nc2cc(OC)ccc21

>  <score_type>  (24) 
oracle

>  <origin>  (24) 
adg

>  <m_score__min__energy>  (24) 
-8.2899999999999991

>  <m_primary>  (24) 
energy

$$$$
24:0
     RDKit          3D

 39 41  0  0  0  0  0  0  0  0999 V2000
   -2.5830   25.0240  -26.7110 C   0  0  0  0  0  0  0  0  0  0  0  0
   -1.4700   25.4150  -27.6770 C   0  0  0  0  0  0  0  0  0  0  0  0
   -1.9360   25.3400  -29.0620 N   0  0  0  0  0  0  0  0  0  0  0  0
   -2.7980   24.3090  -29.5850 C   0  0  0  0  0  0  0  0  0  0  0  0
   -2.3000   23.0630  -30.0100 C   0  0  0  0  0  0  0  0  0  0  0  0
   -3.1670   22.0900  -30.5160 C   0  0  0  0  0  0  0  0  0  0  0  0
   -4.5420   22.3460  -30.6230 C   0  0  0  0  0  0  0  0  0  0  0  0
   -5.4490   21.2990  -31.1410 C   0  0  0  0  0  0  0  0  0  0  0  0
   -5.0290   20.1150  -31.7420 C   0  0  0  0  0  0  0  0  0  0  0  0
   -6.1290   19.4440  -32.1170 N   0  0  0  0  0  0  0  0  0  0  0  0
   -6.2650   18.2550  -32.7540 C   0  0  0  0  0  0  0  0  0  0  0  0
   -7.5630   17.8170  -33.0460 C   0  0  0  0  0  0  0  0  0  0  0  0
   -8.6550   18.6270  -32.6740 C   0  0  0  0  0  0  0  0  0  0  0  0
   -8.4480   19.8170  -32.0380 N   0  0  0  0  0  0  0  0  0  0  0  0
   -7.1760   20.2010  -31.7630 C   0  0  0  0  0  0  0  0  0  0  0  0
   -6.8120   21.3500  -31.1590 N   0  0  0  0  0  0  0  0  0  0  0  0
   -7.7030   22.4390  -30.7480 C   0  0  0  0  0  0  0  0  0  0  0  0
   -8.3020   23.1340  -31.9680 C   0  0  0  0  0  0  0  0  0  0  0  0
   -5.0410   23.5820  -30.1870 C   0  0  0  0  0  0  0  0  0  0  0  0
   -4.1760   24.5550  -29.6810 C   0  0  0  0  0  0  0  0  0  0  0  0
   -2.2307   25.1478  -25.6763 H   0  0  0  0  0  0  0  0  0  0  0  0
   -3.4583   25.6685  -26.8799 H   0  0  0  0  0  0  0  0  0  0  0  0
   -2.8629   23.9737  -26.8799 H   0  0  0  0  0  0  0  0  0  0  0  0
   -1.1485   26.4443  -27.4596 H   0  0  0  0  0  0  0  0  0  0  0  0
   -0.6296   24.7170  -27.5488 H   0  0  0  0  0  0  0  0  0  0  0  0
   -1.6040   26.0860  -29.7150 H   0  0  0  0  0  0  0  0  0  0  0  0
   -1.2222   22.8536  -29.9436 H   0  0  0  0  0  0  0  0  0  0  0  0
   -2.7675   21.1153  -30.8329 H   0  0  0  0  0  0  0  0  0  0  0  0
   -3.9877   19.7898  -31.8833 H   0  0  0  0  0  0  0  0  0  0  0  0
   -5.3861   17.6548  -33.0320 H   0  0  0  0  0  0  0  0  0  0  0  0
   -7.7275   16.8569  -33.5571 H   0  0  0  0  0  0  0  0  0  0  0  0
   -9.6806   18.2981  -32.8976 H   0  0  0  0  0  0  0  0  0  0  0  0
   -8.5157   22.0277  -30.1312 H   0  0  0  0  0  0  0  0  0  0  0  0
   -7.1217   23.1738  -30.1717 H   0  0  0  0  0  0  0  0  0  0  0  0
   -8.9870   23.9288  -31.6377 H   0  0  0  0  0  0  0  0  0  0  0  0
   -7.4950   23.5734  -32.5727 H   0  0  0  0  0  0  0  0  0  0  0  0
   -8.8557   22.4007  -32.5727 H   0  0  0  0  0  0  0  0  0  0  0  0
   -6.1203   23.7865  -30.2439 H   0  0  0  0  0  0  0  0  0  0  0  0
   -4.5795   25.5247  -29.3542 H   0  0  0  0  0  0  0  0  0  0  0  0
  1  2  1  0
  2  3  1  0
  3  4  1  0
  4  5  2  0
  5  6  1  0
  6  7  2  0
  7  8  1  0
  8  9  2  0
  9 10  1  0
 10 11  1  0
 11 12  2  0
 12 13  1  0
 13 14  2  0
 14 15  1  0
 15 16  2  0
 16 17  1  0
 17 18  1  0
  7 19  1  0
 19 20  2  0
 20  4  1  0
 16  8  1  0
 15 10  1  0
  1 21  1  0
  1 22  1  0
  1 23  1  0
  2 24  1  0
  2 25  1  0
  3 26  1  0
  5 27  1  0
  6 28  1  0
  9 29  1  0
 11 30  1  0
 12 31  1  0
 13 32  1  0
 17 33  1  0
 17 34  1  0
 18 35  1  0
 18 36  1  0
 18 37  1  0
 19 38  1  0
 20 39  1  0
M  CHG  1  16   1
M  END
>  <UniqueID>  (25) 
24

>  <SMILES>  (25) 
CCNc1ccc(-c2cn3cccnc3[n+]2CC)cc1

>  <Energy>  (25) 
78.89091835593177

>  <Genealogy>  (25) 
CCNc1ccc(-c2cn3cccnc3[n+]2CC)cc1 (3D coordinates assigned)
CCNc1ccc(-c2cn3cccnc3[n+]2CC)cc1 (optimized conformer: 78.89091835593177 kcal/mol)

>  <smiles>  (25) 
CCNc1ccc(-c2cn3cccnc3[n+]2CC)cc1

>  <score_type>  (25) 
oracle

>  <origin>  (25) 
adg

>  <m_score__min__energy>  (25) 
-6.7699999999999996

>  <m_primary>  (25) 
energy

$$$$
25:0
     RDKit          3D

 35 37  0  0  0  0  0  0  0  0999 V2000
   -4.4680   18.7110  -33.2980 C   0  0  0  0  0  0  0  0  0  0  0  0
   -5.7380   19.3180  -32.8630 N   0  0  0  0  0  0  0  0  0  0  0  0
   -5.8470   20.6880  -32.7840 C   0  0  0  0  0  0  0  0  0  0  0  0
   -4.8840   21.4340  -33.1100 O   0  0  0  0  0  0  0  0  0  0  0  0
   -7.0490   21.2300  -32.3330 C   0  0  0  0  0  0  0  0  0  0  0  0
   -8.0710   20.4100  -31.9820 C   0  0  0  0  0  0  0  0  0  0  0  0
   -9.1230   21.1370  -31.5620 N   0  0  0  0  0  0  0  0  0  0  0  0
   -8.7050   22.4180  -31.6730 C   0  0  0  0  0  0  0  0  0  0  0  0
   -7.4360   22.5150  -32.1460 N   0  0  0  0  0  0  0  0  0  0  0  0
   -6.6910   23.7640  -32.3170 C   0  0  0  0  0  0  0  0  0  0  0  0
   -5.7370   23.9890  -31.1310 C   0  0  0  0  0  0  0  0  0  0  0  0
   -5.4190   25.4540  -30.8430 C   0  0  0  0  0  0  0  0  0  0  0  0
   -6.0980   25.3340  -29.4860 C   0  0  0  0  0  0  0  0  0  0  0  0
   -6.4200   23.8730  -29.7700 C   0  0  0  0  0  0  0  0  0  0  0  0
   -7.9780   19.0530  -32.0380 N   0  0  0  0  0  0  0  0  0  0  0  0
   -9.1120   18.2200  -31.6100 C   0  0  0  0  0  0  0  0  0  0  0  0
   -6.7850   18.5070  -32.4620 C   0  0  0  0  0  0  0  0  0  0  0  0
   -6.6450   17.2520  -32.4820 O   0  0  0  0  0  0  0  0  0  0  0  0
   -3.8757   18.4279  -32.4154 H   0  0  0  0  0  0  0  0  0  0  0  0
   -4.6774   17.8156  -33.9017 H   0  0  0  0  0  0  0  0  0  0  0  0
   -3.9028   19.4363  -33.9017 H   0  0  0  0  0  0  0  0  0  0  0  0
  -10.0490   20.8040  -31.2120 H   0  0  0  0  0  0  0  0  0  0  0  0
   -9.3255   23.2870  -31.4089 H   0  0  0  0  0  0  0  0  0  0  0  0
   -6.1062   23.7122  -33.2472 H   0  0  0  0  0  0  0  0  0  0  0  0
   -7.4042   24.6002  -32.3635 H   0  0  0  0  0  0  0  0  0  0  0  0
   -4.9319   23.2977  -31.4207 H   0  0  0  0  0  0  0  0  0  0  0  0
   -4.3434   25.6779  -30.7888 H   0  0  0  0  0  0  0  0  0  0  0  0
   -5.7232   26.2394  -31.5505 H   0  0  0  0  0  0  0  0  0  0  0  0
   -5.4221   25.4861  -28.6316 H   0  0  0  0  0  0  0  0  0  0  0  0
   -6.8981   26.0335  -29.2021 H   0  0  0  0  0  0  0  0  0  0  0  0
   -5.9350   23.1642  -29.0828 H   0  0  0  0  0  0  0  0  0  0  0  0
   -7.4540   23.5053  -29.6948 H   0  0  0  0  0  0  0  0  0  0  0  0
   -9.1515   18.1910  -30.5111 H   0  0  0  0  0  0  0  0  0  0  0  0
  -10.0480   18.6468  -31.9994 H   0  0  0  0  0  0  0  0  0  0  0  0
   -8.9846   17.1991  -31.9994 H   0  0  0  0  0  0  0  0  0  0  0  0
  1  2  1  0
  2  3  1  0
  3  4  2  0
  3  5  1  0
  5  6  2  0
  6  7  1  0
  7  8  2  0
  8  9  1  0
  9 10  1  0
 10 11  1  0
 11 12  1  0
 12 13  1  0
 13 14  1  0
  6 15  1  0
 15 16  1  0
 15 17  1  0
 17 18  2  0
 17  2  1  0
  9  5  1  0
 14 11  1  0
  1 19  1  0
  1 20  1  0
  1 21  1  0
  7 22  1  0
  8 23  1  0
 10 24  1  0
 10 25  1  0
 11 26  1  0
 12 27  1  0
 12 28  1  0
 13 29  1  0
 13 30  1  0
 14 31  1  0
 14 32  1  0
 16 33  1  0
 16 34  1  0
 16 35  1  0
M  CHG  1   7   1
M  END
>  <UniqueID>  (26) 
25

>  <SMILES>  (26) 
Cn1c(=O)c2c([nH+]cn2CC2CCC2)n(C)c1=O

>  <Energy>  (26) 
141.38524282819273

>  <Genealogy>  (26) 
Cn1c(=O)c2c([nH+]cn2CC2CCC2)n(C)c1=O (protonated)
Cn1c(=O)c2c([nH+]cn2CC2CCC2)n(C)c1=O (3D coordinates assigned)
Cn1c(=O)c2c([nH+]cn2CC2CCC2)n(C)c1=O (nonaromatic ring conformer: 141.38524282819273 kcal/mol)

>  <smiles>  (26) 
Cn1c(=O)c2c(ncn2CC2CCC2)n(C)c1=O

>  <score_type>  (26) 
oracle

>  <origin>  (26) 
adg

>  <m_score__min__energy>  (26) 
-5.9900000000000002

>  <m_primary>  (26) 
energy

$$$$
26:0
     RDKit          3D

 34 36  0  0  0  0  0  0  0  0999 V2000
   -2.7620   24.0873  -28.7864 H   0  0  0  0  0  0  0  0  0  0  0  0
   -3.5820   24.3990  -29.4500 C   0  0  0  0  0  0  0  0  0  0  0  0
   -3.4860   25.2710  -30.4280 O   0  0  0  0  0  0  0  0  0  0  0  0
   -4.6250   25.4330  -31.0360 N   0  0  0  0  0  0  0  0  0  0  0  0
   -5.5070   24.6270  -30.4180 C   0  0  0  0  0  0  0  0  0  0  0  0
   -6.7460   24.5260  -30.8050 N   0  0  0  0  0  0  0  0  0  0  0  0
   -7.3710   23.4250  -31.4820 C   0  0  0  0  0  0  0  0  0  0  0  0
   -7.5760   23.4470  -32.7250 O   0  0  0  0  0  0  0  0  0  0  0  0
   -7.8130   22.2360  -30.6810 C   0  0  0  0  0  0  0  0  0  0  0  0
   -8.3543   22.5868  -29.7900 H   0  0  0  0  0  0  0  0  0  0  0  0
   -6.9195   21.6611  -30.3962 H   0  0  0  0  0  0  0  0  0  0  0  0
   -8.7350   21.3190  -31.4950 C   0  0  0  0  0  0  0  0  0  0  0  0
   -9.3471   21.9352  -32.1700 H   0  0  0  0  0  0  0  0  0  0  0  0
   -9.3704   20.7576  -30.7943 H   0  0  0  0  0  0  0  0  0  0  0  0
   -7.9450   20.3300  -32.3150 C   0  0  0  0  0  0  0  0  0  0  0  0
   -8.1350   18.9810  -32.2990 N   0  0  0  0  0  0  0  0  0  0  0  0
   -9.1560   18.2290  -31.5670 C   0  0  0  0  0  0  0  0  0  0  0  0
   -8.9942   18.3482  -30.4855 H   0  0  0  0  0  0  0  0  0  0  0  0
  -10.1531   18.6101  -31.8328 H   0  0  0  0  0  0  0  0  0  0  0  0
   -9.0878   17.1638  -31.8328 H   0  0  0  0  0  0  0  0  0  0  0  0
   -7.1010   18.4900  -33.0150 C   0  0  0  0  0  0  0  0  0  0  0  0
   -6.7500   17.1610  -33.2690 C   0  0  0  0  0  0  0  0  0  0  0  0
   -7.3651   16.3289  -32.8958 H   0  0  0  0  0  0  0  0  0  0  0  0
   -5.5820   16.9240  -34.0190 C   0  0  0  0  0  0  0  0  0  0  0  0
   -5.2784   15.8912  -34.2453 H   0  0  0  0  0  0  0  0  0  0  0  0
   -4.7970   18.0040  -34.4830 C   0  0  0  0  0  0  0  0  0  0  0  0
   -3.8885   17.8063  -35.0708 H   0  0  0  0  0  0  0  0  0  0  0  0
   -5.1700   19.3300  -34.1980 C   0  0  0  0  0  0  0  0  0  0  0  0
   -4.5628   20.1792  -34.5448 H   0  0  0  0  0  0  0  0  0  0  0  0
   -6.3340   19.5300  -33.4620 C   0  0  0  0  0  0  0  0  0  0  0  0
   -6.8520   20.6910  -33.0320 N   0  0  0  0  0  0  0  0  0  0  0  0
   -6.4630   21.6510  -33.1670 H   0  0  0  0  0  0  0  0  0  0  0  0
   -4.8810   23.9390  -29.3930 C   0  0  0  0  0  0  0  0  0  0  0  0
   -5.3148   23.2030  -28.7001 H   0  0  0  0  0  0  0  0  0  0  0  0
  1  2  1  0
  2  3  1  0
  3  4  1  0
  4  5  1  0
  5  6  2  0
  6  7  1  0
  7  8  2  0
  7  9  1  0
  9 10  1  0
  9 11  1  0
  9 12  1  0
 12 13  1  0
 12 14  1  0
 12 15  1  0
 15 16  1  0
 16 17  1  0
 17 18  1  0
 17 19  1  0
 17 20  1  0
 16 21  1  0
 21 22  2  0
 22 23  1  0
 22 24  1  0
 24 25  1  0
 24 26  2  0
 26 27  1  0
 26 28  1  0
 28 29  1  0
 28 30  2  0
 30 31  1  0
 31 32  1  0
  5 33  1  0
 33 34  1  0
 33  2  2  0
 31 15  2  0
 30 21  1  0
M  CHG  2   4  -1  31   1
M  END
>  <UniqueID>  (27) 
26

>  <SMILES>  (27) 
Cn1c(CCC(=O)/N=c2\cco[n-]2)[nH+]c2ccccc21

>  <Energy>  (27) 
104.29117110559834

>  <Genealogy>  (27) 
Cn1c(CCC(=O)N=c2cco[n-]2)[nH+]c2ccccc21 (protonated)
Cn1c(CCC(=O)/N=c2\cco[n-]2)[nH+]c2ccccc21 (cis-trans isomerization)
Cn1c(CCC(=O)/N=c2\cco[n-]2)[nH+]c2ccccc21 (3D coordinates assigned)
Cn1c(CCC(=O)/N=c2\cco[n-]2)[nH+]c2ccccc21 (optimized conformer: 104.29117110559834 kcal/mol)

>  <smiles>  (27) 
Cn1c(CCC(=O)N=c2cco[nH]2)nc2ccccc21

>  <score_type>  (27) 
oracle

>  <origin>  (27) 
adg

>  <m_score__min__energy>  (27) 
-9.0800000000000001

>  <m_primary>  (27) 
energy

$$$$
27:0
     RDKit          3D

 50 52  0  0  0  0  0  0  0  0999 V2000
   -3.9610   24.8940  -26.6270 C   0  0  0  0  0  0  0  0  0  0  0  0
   -2.5060   25.3500  -26.5500 C   0  0  0  0  0  0  0  0  0  0  0  0
   -1.8340   25.1050  -27.7830 O   0  0  0  0  0  0  0  0  0  0  0  0
   -0.8240   24.1470  -27.9290 C   0  0  0  0  0  0  0  0  0  0  0  0
   -0.0440   24.1790  -28.9200 O   0  0  0  0  0  0  0  0  0  0  0  0
   -0.6830   23.0620  -26.9080 C   0  0  0  0  0  0  0  0  0  0  0  0
   -0.8710   21.7400  -27.5140 N   0  0  0  0  0  0  0  0  0  0  0  0
    0.0810   20.8070  -27.7020 C   0  0  0  0  0  0  0  0  0  0  0  0
   -0.4440   19.8100  -28.4910 C   0  0  0  0  0  0  0  0  0  0  0  0
   -1.7130   20.1190  -28.8260 N   0  0  0  0  0  0  0  0  0  0  0  0
   -1.9390   21.3010  -28.2150 C   0  0  0  0  0  0  0  0  0  0  0  0
   -3.4760   22.2210  -28.4100 S   0  0  0  0  0  0  0  0  0  0  0  0
   -3.0530   23.1100  -29.9730 C   0  0  2  0  0  0  0  0  0  0  0  0
   -4.1590   24.0620  -30.3890 C   0  0  0  0  0  0  0  0  0  0  0  0
   -3.8950   25.2950  -30.4830 O   0  0  0  0  0  0  0  0  0  0  0  0
   -5.5350   23.5940  -30.7030 C   0  0  0  0  0  0  0  0  0  0  0  0
   -6.0590   23.7870  -31.9960 C   0  0  0  0  0  0  0  0  0  0  0  0
   -7.3340   23.3190  -32.3250 C   0  0  0  0  0  0  0  0  0  0  0  0
   -8.1160   22.6610  -31.3670 C   0  0  0  0  0  0  0  0  0  0  0  0
   -9.4610   22.1120  -31.7370 C   0  0  0  0  0  0  0  0  0  0  0  0
   -7.5970   22.4560  -30.0800 C   0  0  0  0  0  0  0  0  0  0  0  0
   -6.3240   22.9270  -29.7470 C   0  0  0  0  0  0  0  0  0  0  0  0
   -2.6180   22.2110  -31.1280 C   0  0  0  0  0  0  0  0  0  0  0  0
   -3.5260   21.6130  -32.0290 C   0  0  0  0  0  0  0  0  0  0  0  0
   -3.0650   20.7920  -33.0620 C   0  0  0  0  0  0  0  0  0  0  0  0
   -1.7000   20.5390  -33.2040 C   0  0  0  0  0  0  0  0  0  0  0  0
   -0.7910   21.1000  -32.3060 C   0  0  0  0  0  0  0  0  0  0  0  0
   -1.2440   21.9240  -31.2730 C   0  0  0  0  0  0  0  0  0  0  0  0
   -4.3603   24.7688  -25.6097 H   0  0  0  0  0  0  0  0  0  0  0  0
   -4.5541   25.6493  -27.1634 H   0  0  0  0  0  0  0  0  0  0  0  0
   -4.0169   23.9353  -27.1634 H   0  0  0  0  0  0  0  0  0  0  0  0
   -2.4767   26.4276  -26.3310 H   0  0  0  0  0  0  0  0  0  0  0  0
   -2.0003   24.7841  -25.7537 H   0  0  0  0  0  0  0  0  0  0  0  0
    0.3223   23.1143  -26.4645 H   0  0  0  0  0  0  0  0  0  0  0  0
   -1.4537   23.2057  -26.1364 H   0  0  0  0  0  0  0  0  0  0  0  0
    1.1025   20.8367  -27.2949 H   0  0  0  0  0  0  0  0  0  0  0  0
    0.0899   18.8997  -28.8013 H   0  0  0  0  0  0  0  0  0  0  0  0
   -2.1572   23.6992  -29.7275 H   0  0  0  0  0  0  0  0  0  0  0  0
   -5.4588   24.3112  -32.7543 H   0  0  0  0  0  0  0  0  0  0  0  0
   -7.7257   23.4682  -33.3420 H   0  0  0  0  0  0  0  0  0  0  0  0
  -10.0270   21.8810  -30.8225 H   0  0  0  0  0  0  0  0  0  0  0  0
  -10.0109   22.8576  -32.3300 H   0  0  0  0  0  0  0  0  0  0  0  0
   -9.3321   21.1945  -32.3300 H   0  0  0  0  0  0  0  0  0  0  0  0
   -8.1958   21.9211  -29.3281 H   0  0  0  0  0  0  0  0  0  0  0  0
   -5.9354   22.7752  -28.7292 H   0  0  0  0  0  0  0  0  0  0  0  0
   -4.6051   21.7948  -31.9170 H   0  0  0  0  0  0  0  0  0  0  0  0
   -3.7813   20.3434  -33.7661 H   0  0  0  0  0  0  0  0  0  0  0  0
   -1.3410   19.8981  -34.0228 H   0  0  0  0  0  0  0  0  0  0  0  0
    0.2841   20.8930  -32.4118 H   0  0  0  0  0  0  0  0  0  0  0  0
   -0.5211   22.3542  -30.5642 H   0  0  0  0  0  0  0  0  0  0  0  0
  1  2  1  0
  2  3  1  0
  3  4  1  0
  4  5  2  0
  4  6  1  0
  6  7  1  0
  7  8  1  0
  8  9  2  0
  9 10  1  0
 10 11  2  0
 11 12  1  0
 12 13  1  0
 13 14  1  0
 14 15  2  0
 14 16  1  0
 16 17  2  0
 17 18  1  0
 18 19  2  0
 19 20  1  0
 19 21  1  0
 21 22  2  0
 13 23  1  0
 23 24  2  0
 24 25  1  0
 25 26  2  0
 26 27  1  0
 27 28  2  0
 11  7  1  0
 22 16  1  0
 28 23  1  0
  1 29  1  0
  1 30  1  0
  1 31  1  0
  2 32  1  0
  2 33  1  0
  6 34  1  0
  6 35  1  0
  8 36  1  0
  9 37  1  0
 13 38  1  1
 17 39  1  0
 18 40  1  0
 20 41  1  0
 20 42  1  0
 20 43  1  0
 21 44  1  0
 22 45  1  0
 24 46  1  0
 25 47  1  0
 26 48  1  0
 27 49  1  0
 28 50  1  0
M  END
>  <UniqueID>  (28) 
27

>  <SMILES>  (28) 
CCOC(=O)Cn1ccnc1S[C@H](C(=O)c1ccc(C)cc1)c1ccccc1

>  <Energy>  (28) 
78.64944618105883

>  <Genealogy>  (28) 
CCOC(=O)Cn1ccnc1S[C@H](C(=O)c1ccc(C)cc1)c1ccccc1 (chirality)
CCOC(=O)Cn1ccnc1S[C@H](C(=O)c1ccc(C)cc1)c1ccccc1 (3D coordinates assigned)
CCOC(=O)Cn1ccnc1S[C@H](C(=O)c1ccc(C)cc1)c1ccccc1 (optimized conformer: 78.64944618105883 kcal/mol)

>  <smiles>  (28) 
CCOC(=O)Cn1ccnc1SC(C(=O)c1ccc(C)cc1)c1ccccc1

>  <score_type>  (28) 
oracle

>  <origin>  (28) 
adg

>  <m_score__min__energy>  (28) 
-9.0099999999999998

>  <m_primary>  (28) 
energy

$$$$
28:0
     RDKit          3D

 34 35  0  0  0  0  0  0  0  0999 V2000
   -1.6860   21.1650  -33.2230 C   0  0  0  0  0  0  0  0  0  0  0  0
   -3.0550   20.6560  -32.7760 C   0  0  0  0  0  0  0  0  0  0  0  0
   -4.1810   21.6570  -33.0730 C   0  0  0  0  0  0  0  0  0  0  0  0
   -5.5520   21.0700  -32.8040 C   0  0  0  0  0  0  0  0  0  0  0  0
   -5.9790   19.9840  -33.5850 C   0  0  0  0  0  0  0  0  0  0  0  0
   -7.2270   19.4660  -33.4340 N   0  0  0  0  0  0  0  0  0  0  0  0
   -8.1060   19.9710  -32.5240 C   0  0  0  0  0  0  0  0  0  0  0  0
   -9.4910   19.4030  -32.4170 C   0  0  0  0  0  0  0  0  0  0  0  0
   -7.7350   21.0650  -31.7360 C   0  0  0  0  0  0  0  0  0  0  0  0
   -6.4520   21.6160  -31.8570 C   0  0  0  0  0  0  0  0  0  0  0  0
   -6.0920   22.7500  -30.9820 C   0  0  0  0  0  0  0  0  0  0  0  0
   -6.8360   23.9400  -31.0190 C   0  0  0  0  0  0  0  0  0  0  0  0
   -6.4790   25.0190  -30.2040 C   0  0  0  0  0  0  0  0  0  0  0  0
   -5.3700   24.9220  -29.3600 C   0  0  0  0  0  0  0  0  0  0  0  0
   -4.6120   23.7480  -29.3320 C   0  0  0  0  0  0  0  0  0  0  0  0
   -4.9660   22.6670  -30.1460 C   0  0  0  0  0  0  0  0  0  0  0  0
   -1.0729   21.3930  -32.3386 H   0  0  0  0  0  0  0  0  0  0  0  0
   -1.1866   20.3925  -33.8261 H   0  0  0  0  0  0  0  0  0  0  0  0
   -1.8126   22.0761  -33.8261 H   0  0  0  0  0  0  0  0  0  0  0  0
   -3.2711   19.7154  -33.3038 H   0  0  0  0  0  0  0  0  0  0  0  0
   -3.0173   20.5094  -31.6865 H   0  0  0  0  0  0  0  0  0  0  0  0
   -4.0440   22.5439  -32.4369 H   0  0  0  0  0  0  0  0  0  0  0  0
   -4.1283   21.9189  -34.1401 H   0  0  0  0  0  0  0  0  0  0  0  0
   -5.2956   19.5470  -34.3280 H   0  0  0  0  0  0  0  0  0  0  0  0
   -7.5100   18.6640  -34.0410 H   0  0  0  0  0  0  0  0  0  0  0  0
   -9.7610   19.2923  -31.3564 H   0  0  0  0  0  0  0  0  0  0  0  0
  -10.2044   20.0812  -32.9081 H   0  0  0  0  0  0  0  0  0  0  0  0
   -9.5228   18.4192  -32.9081 H   0  0  0  0  0  0  0  0  0  0  0  0
   -8.4514   21.4939  -31.0199 H   0  0  0  0  0  0  0  0  0  0  0  0
   -7.7026   24.0240  -31.6913 H   0  0  0  0  0  0  0  0  0  0  0  0
   -7.0721   25.9451  -30.2276 H   0  0  0  0  0  0  0  0  0  0  0  0
   -5.0931   25.7703  -28.7169 H   0  0  0  0  0  0  0  0  0  0  0  0
   -3.7369   23.6742  -28.6697 H   0  0  0  0  0  0  0  0  0  0  0  0
   -4.3606   21.7487  -30.1315 H   0  0  0  0  0  0  0  0  0  0  0  0
  1  2  1  0
  2  3  1  0
  3  4  1  0
  4  5  2  0
  5  6  1  0
  6  7  2  0
  7  8  1  0
  7  9  1  0
  9 10  2  0
 10 11  1  0
 11 12  2  0
 12 13  1  0
 13 14  2  0
 14 15  1  0
 15 16  2  0
 10  4  1  0
 16 11  1  0
  1 17  1  0
  1 18  1  0
  1 19  1  0
  2 20  1  0
  2 21  1  0
  3 22  1  0
  3 23  1  0
  5 24  1  0
  6 25  1  0
  8 26  1  0
  8 27  1  0
  8 28  1  0
  9 29  1  0
 12 30  1  0
 13 31  1  0
 14 32  1  0
 15 33  1  0
 16 34  1  0
M  CHG  1   6   1
M  END
>  <UniqueID>  (29) 
28

>  <SMILES>  (29) 
CCCc1c[nH+]c(C)cc1-c1ccccc1

>  <Energy>  (29) 
36.32985051309447

>  <Genealogy>  (29) 
CCCc1c[nH+]c(C)cc1-c1ccccc1 (protonated)
CCCc1c[nH+]c(C)cc1-c1ccccc1 (3D coordinates assigned)
CCCc1c[nH+]c(C)cc1-c1ccccc1 (optimized conformer: 36.32985051309447 kcal/mol)

>  <smiles>  (29) 
CCCc1cnc(C)cc1-c1ccccc1

>  <score_type>  (29) 
oracle

>  <origin>  (29) 
adg

>  <m_score__min__energy>  (29) 
-6.04

>  <m_primary>  (29) 
energy

$$$$
29:0
     RDKit          3D

 52 54  0  0  0  0  0  0  0  0999 V2000
   -6.8510   25.0000  -30.0750 C   0  0  0  0  0  0  0  0  0  0  0  0
   -6.7910   23.7070  -30.8450 C   0  0  0  0  0  0  0  0  0  0  0  0
   -7.9920   23.1240  -31.2810 C   0  0  0  0  0  0  0  0  0  0  0  0
   -7.9880   21.9150  -31.9760 C   0  0  0  0  0  0  0  0  0  0  0  0
   -6.7830   21.2490  -32.2410 C   0  0  0  0  0  0  0  0  0  0  0  0
   -6.7960   19.9660  -32.9850 C   0  0  0  0  0  0  0  0  0  0  0  0
   -7.5280   19.0240  -32.5750 O   0  0  0  0  0  0  0  0  0  0  0  0
   -5.9740   19.7730  -34.1480 N   0  0  0  0  0  0  0  0  0  0  0  0
   -6.0250   18.5490  -34.9450 C   0  0  0  0  0  0  0  0  0  0  0  0
   -5.3300   17.4290  -34.2200 C   0  0  0  0  0  0  0  0  0  0  0  0
   -3.9750   17.5510  -33.8740 C   0  0  0  0  0  0  0  0  0  0  0  0
   -3.3290   16.5220  -33.1820 C   0  0  0  0  0  0  0  0  0  0  0  0
   -4.0320   15.3660  -32.8290 C   0  0  0  0  0  0  0  0  0  0  0  0
   -3.4050   14.3700  -32.1560 F   0  0  0  0  0  0  0  0  0  0  0  0
   -5.3820   15.2390  -33.1660 C   0  0  0  0  0  0  0  0  0  0  0  0
   -6.0320   16.2670  -33.8580 C   0  0  0  0  0  0  0  0  0  0  0  0
   -5.5780   21.8270  -31.8080 C   0  0  0  0  0  0  0  0  0  0  0  0
   -5.5690   23.0420  -31.1020 C   0  0  0  0  0  0  0  0  0  0  0  0
   -4.0160   23.7030  -30.5600 S   0  0  0  0  0  0  0  0  0  0  0  0
   -2.8840   23.0480  -31.3050 O   0  0  0  0  0  0  0  0  0  0  0  0
   -3.9900   25.1790  -30.8470 O   0  0  0  0  0  0  0  0  0  0  0  0
   -3.8140   23.4220  -28.8480 N   0  0  0  0  0  0  0  0  0  0  0  0
   -2.3970   23.1350  -28.5160 C   0  0  0  0  0  0  0  0  0  0  0  0
   -1.7000   24.3220  -27.8370 C   0  0  0  0  0  0  0  0  0  0  0  0
   -2.3870   24.7030  -26.5820 N   0  0  0  0  0  0  0  0  0  0  0  0
   -1.9930   26.0600  -26.1780 C   0  0  0  0  0  0  0  0  0  0  0  0
   -3.8640   24.5620  -26.6440 C   0  0  0  0  0  0  0  0  0  0  0  0
   -4.3910   24.5480  -28.0850 C   0  0  0  0  0  0  0  0  0  0  0  0
   -6.8410   24.7851  -28.9962 H   0  0  0  0  0  0  0  0  0  0  0  0
   -5.9807   25.6212  -30.3332 H   0  0  0  0  0  0  0  0  0  0  0  0
   -7.7751   25.5380  -30.3332 H   0  0  0  0  0  0  0  0  0  0  0  0
   -8.9475   23.6272  -31.0717 H   0  0  0  0  0  0  0  0  0  0  0  0
   -8.9383   21.4802  -32.3192 H   0  0  0  0  0  0  0  0  0  0  0  0
   -5.2590   20.4880  -34.4070 H   0  0  0  0  0  0  0  0  0  0  0  0
   -7.0752   18.2725  -35.1198 H   0  0  0  0  0  0  0  0  0  0  0  0
   -5.5185   18.7242  -35.9056 H   0  0  0  0  0  0  0  0  0  0  0  0
   -3.4192   18.4598  -34.1484 H   0  0  0  0  0  0  0  0  0  0  0  0
   -2.2666   16.6220  -32.9150 H   0  0  0  0  0  0  0  0  0  0  0  0
   -5.9346   14.3297  -32.8870 H   0  0  0  0  0  0  0  0  0  0  0  0
   -7.0956   16.1651  -34.1193 H   0  0  0  0  0  0  0  0  0  0  0  0
   -4.6261   21.3203  -32.0251 H   0  0  0  0  0  0  0  0  0  0  0  0
   -2.3620   22.2701  -27.8372 H   0  0  0  0  0  0  0  0  0  0  0  0
   -1.8677   22.9313  -29.4585 H   0  0  0  0  0  0  0  0  0  0  0  0
   -0.6611   24.0435  -27.6065 H   0  0  0  0  0  0  0  0  0  0  0  0
   -1.7294   25.1810  -28.5235 H   0  0  0  0  0  0  0  0  0  0  0  0
   -1.9742   26.1248  -25.0801 H   0  0  0  0  0  0  0  0  0  0  0  0
   -0.9924   26.2850  -26.5758 H   0  0  0  0  0  0  0  0  0  0  0  0
   -2.7175   26.7859  -26.5758 H   0  0  0  0  0  0  0  0  0  0  0  0
   -4.1496   23.6193  -26.1544 H   0  0  0  0  0  0  0  0  0  0  0  0
   -4.3053   25.4312  -26.1343 H   0  0  0  0  0  0  0  0  0  0  0  0
   -5.4862   24.4466  -28.0667 H   0  0  0  0  0  0  0  0  0  0  0  0
   -4.0997   25.4891  -28.5742 H   0  0  0  0  0  0  0  0  0  0  0  0
  1  2  1  0
  2  3  2  0
  3  4  1  0
  4  5  2  0
  5  6  1  0
  6  7  2  0
  6  8  1  0
  8  9  1  0
  9 10  1  0
 10 11  2  0
 11 12  1  0
 12 13  2  0
 13 14  1  0
 13 15  1  0
 15 16  2  0
  5 17  1  0
 17 18  2  0
 18 19  1  0
 19 20  2  0
 19 21  2  0
 19 22  1  0
 22 23  1  0
 23 24  1  0
 24 25  1  0
 25 26  1  0
 25 27  1  0
 27 28  1  0
 18  2  1  0
 28 22  1  0
 16 10  1  0
  1 29  1  0
  1 30  1  0
  1 31  1  0
  3 32  1  0
  4 33  1  0
  8 34  1  0
  9 35  1  0
  9 36  1  0
 11 37  1  0
 12 38  1  0
 15 39  1  0
 16 40  1  0
 17 41  1  0
 23 42  1  0
 23 43  1  0
 24 44  1  0
 24 45  1  0
 26 46  1  0
 26 47  1  0
 26 48  1  0
 27 49  1  0
 27 50  1  0
 28 51  1  0
 28 52  1  0
M  END
>  <UniqueID>  (30) 
29

>  <SMILES>  (30) 
Cc1ccc(C(=O)NCc2ccc(F)cc2)cc1S(=O)(=O)N1CCN(C)CC1

>  <Energy>  (30) 
64.21657111506556

>  <Genealogy>  (30) 
Cc1ccc(C(=O)NCc2ccc(F)cc2)cc1S(=O)(=O)N1CCN(C)CC1 (3D coordinates assigned)
Cc1ccc(C(=O)NCc2ccc(F)cc2)cc1S(=O)(=O)N1CCN(C)CC1 (nonaromatic ring conformer: 64.21657111506556 kcal/mol)

>  <smiles>  (30) 
Cc1ccc(C(=O)NCc2ccc(F)cc2)cc1S(=O)(=O)N1CCN(C)CC1

>  <score_type>  (30) 
oracle

>  <origin>  (30) 
adg

>  <m_score__min__energy>  (30) 
-9.6600000000000001

>  <m_primary>  (30) 
energy

$$$$
30:0
     RDKit          3D

 39 42  0  0  0  0  0  0  0  0999 V2000
   -4.9680   24.3400  -30.4310 C   0  0  0  0  0  0  0  0  0  0  0  0
   -6.2700   24.2650  -31.2200 C   0  0  0  0  0  0  0  0  0  0  0  0
   -6.4050   22.9530  -31.8550 N   0  0  0  0  0  0  0  0  0  0  0  0
   -5.3880   22.2020  -32.3400 C   0  0  0  0  0  0  0  0  0  0  0  0
   -5.8670   20.9860  -32.8090 C   0  0  0  0  0  0  0  0  0  0  0  0
   -5.0520   19.8930  -33.3640 C   0  0  0  0  0  0  0  0  0  0  0  0
   -5.5560   18.9770  -34.2300 N   0  0  0  0  0  0  0  0  0  0  0  0
   -4.5190   18.1660  -34.4970 C   0  0  0  0  0  0  0  0  0  0  0  0
   -4.4890   17.0540  -35.3350 C   0  0  0  0  0  0  0  0  0  0  0  0
   -3.2740   16.3510  -35.4420 C   0  0  0  0  0  0  0  0  0  0  0  0
   -2.1360   16.7730  -34.7170 C   0  0  0  0  0  0  0  0  0  0  0  0
   -2.2020   17.9000  -33.8770 C   0  0  0  0  0  0  0  0  0  0  0  0
   -3.4210   18.5770  -33.7950 C   0  0  0  0  0  0  0  0  0  0  0  0
   -3.7430   19.6610  -33.0640 N   0  0  0  0  0  0  0  0  0  0  0  0
   -2.8840   20.3560  -32.1050 C   0  0  0  0  0  0  0  0  0  0  0  0
   -7.2280   20.9910  -32.5540 C   0  0  0  0  0  0  0  0  0  0  0  0
   -8.1980   20.0000  -32.7120 C   0  0  0  0  0  0  0  0  0  0  0  0
   -9.5110   20.2920  -32.3030 C   0  0  0  0  0  0  0  0  0  0  0  0
   -9.8200   21.5440  -31.7310 C   0  0  0  0  0  0  0  0  0  0  0  0
   -8.8170   22.5140  -31.5520 C   0  0  0  0  0  0  0  0  0  0  0  0
   -7.5210   22.2040  -31.9760 C   0  0  0  0  0  0  0  0  0  0  0  0
   -5.1907   24.3272  -29.3539 H   0  0  0  0  0  0  0  0  0  0  0  0
   -4.3352   23.4768  -30.6849 H   0  0  0  0  0  0  0  0  0  0  0  0
   -4.4385   25.2701  -30.6849 H   0  0  0  0  0  0  0  0  0  0  0  0
   -7.1175   24.4267  -30.5377 H   0  0  0  0  0  0  0  0  0  0  0  0
   -6.2606   25.0405  -32.0000 H   0  0  0  0  0  0  0  0  0  0  0  0
   -4.3325   22.5112  -32.3597 H   0  0  0  0  0  0  0  0  0  0  0  0
   -6.5270   18.9220  -34.6120 H   0  0  0  0  0  0  0  0  0  0  0  0
   -5.3822   16.7365  -35.8930 H   0  0  0  0  0  0  0  0  0  0  0  0
   -3.2096   15.4674  -36.0941 H   0  0  0  0  0  0  0  0  0  0  0  0
   -1.1919   16.2162  -34.8102 H   0  0  0  0  0  0  0  0  0  0  0  0
   -1.3245   18.2360  -33.3051 H   0  0  0  0  0  0  0  0  0  0  0  0
   -3.1972   20.1026  -31.0814 H   0  0  0  0  0  0  0  0  0  0  0  0
   -1.8396   20.0457  -32.2563 H   0  0  0  0  0  0  0  0  0  0  0  0
   -2.9694   21.4422  -32.2563 H   0  0  0  0  0  0  0  0  0  0  0  0
   -7.9430   19.0207  -33.1432 H   0  0  0  0  0  0  0  0  0  0  0  0
  -10.3028   19.5391  -32.4299 H   0  0  0  0  0  0  0  0  0  0  0  0
  -10.8529   21.7634  -31.4227 H   0  0  0  0  0  0  0  0  0  0  0  0
   -9.0453   23.4870  -31.0924 H   0  0  0  0  0  0  0  0  0  0  0  0
  1  2  1  0
  2  3  1  0
  3  4  1  0
  4  5  2  0
  5  6  1  0
  6  7  2  0
  7  8  1  0
  8  9  2  0
  9 10  1  0
 10 11  2  0
 11 12  1  0
 12 13  2  0
 13 14  1  0
 14 15  1  0
  5 16  1  0
 16 17  2  0
 17 18  1  0
 18 19  2  0
 19 20  1  0
 20 21  2  0
 21  3  1  0
 14  6  1  0
 21 16  1  0
 13  8  1  0
  1 22  1  0
  1 23  1  0
  1 24  1  0
  2 25  1  0
  2 26  1  0
  4 27  1  0
  7 28  1  0
  9 29  1  0
 10 30  1  0
 11 31  1  0
 12 32  1  0
 15 33  1  0
 15 34  1  0
 15 35  1  0
 17 36  1  0
 18 37  1  0
 19 38  1  0
 20 39  1  0
M  CHG  1   7   1
M  END
>  <UniqueID>  (31) 
30

>  <SMILES>  (31) 
CCn1cc(-c2[nH+]c3ccccc3n2C)c2ccccc21

>  <Energy>  (31) 
117.14491866124429

>  <Genealogy>  (31) 
CCn1cc(-c2[nH+]c3ccccc3n2C)c2ccccc21 (protonated)
CCn1cc(-c2[nH+]c3ccccc3n2C)c2ccccc21 (3D coordinates assigned)
CCn1cc(-c2[nH+]c3ccccc3n2C)c2ccccc21 (optimized conformer: 117.14491866124429 kcal/mol)

>  <smiles>  (31) 
CCn1cc(-c2nc3ccccc3n2C)c2ccccc21

>  <score_type>  (31) 
oracle

>  <origin>  (31) 
adg

>  <m_score__min__energy>  (31) 
-6.9100000000000001

>  <m_primary>  (31) 
energy

$$$$
31:0
     RDKit          3D

 49 52  0  0  0  0  0  0  0  0999 V2000
   -2.8760   18.9260  -26.3410 C   0  0  0  0  0  0  0  0  0  0  0  0
   -2.1380   19.4670  -27.4320 O   0  0  0  0  0  0  0  0  0  0  0  0
   -2.2610   20.7840  -27.8990 C   0  0  0  0  0  0  0  0  0  0  0  0
   -3.3470   21.6100  -27.5530 C   0  0  0  0  0  0  0  0  0  0  0  0
   -3.4180   22.9200  -28.0380 C   0  0  0  0  0  0  0  0  0  0  0  0
   -2.4050   23.4290  -28.8680 C   0  0  0  0  0  0  0  0  0  0  0  0
   -2.4560   24.8270  -29.3550 C   0  0  0  0  0  0  0  0  0  0  0  0
   -1.6010   25.6560  -28.9440 O   0  0  0  0  0  0  0  0  0  0  0  0
   -3.4850   25.2820  -30.2430 N   0  0  0  0  0  0  0  0  0  0  0  0
   -4.7130   24.5950  -30.5210 C   0  0  0  0  0  0  0  0  0  0  0  0
   -5.9320   25.1680  -30.0840 C   0  0  0  0  0  0  0  0  0  0  0  0
   -7.1610   24.5360  -30.3500 C   0  0  0  0  0  0  0  0  0  0  0  0
   -7.1360   23.3450  -31.0690 C   0  0  0  0  0  0  0  0  0  0  0  0
   -8.1820   22.5750  -31.4210 N   0  0  0  0  0  0  0  0  0  0  0  0
   -7.5920   21.5490  -32.0890 C   0  0  0  0  0  0  0  0  0  0  0  0
   -8.5290   20.1610  -32.7390 S   0  0  0  0  0  0  0  0  0  0  0  0
   -7.7930   18.9270  -31.6070 C   0  0  0  0  0  0  0  0  0  0  0  0
   -6.8770   17.9820  -32.3410 C   0  0  0  0  0  0  0  0  0  0  0  0
   -6.8000   18.0340  -33.7430 C   0  0  0  0  0  0  0  0  0  0  0  0
   -5.9160   17.2000  -34.4330 C   0  0  0  0  0  0  0  0  0  0  0  0
   -5.1020   16.3090  -33.7310 C   0  0  0  0  0  0  0  0  0  0  0  0
   -5.1720   16.2470  -32.3370 C   0  0  0  0  0  0  0  0  0  0  0  0
   -6.0550   17.0780  -31.6410 C   0  0  0  0  0  0  0  0  0  0  0  0
   -6.0940   17.0080  -30.2860 F   0  0  0  0  0  0  0  0  0  0  0  0
   -6.2390   21.6630  -32.1700 N   0  0  0  0  0  0  0  0  0  0  0  0
   -5.2800   20.7590  -32.8030 C   0  0  0  0  0  0  0  0  0  0  0  0
   -5.9670   22.7980  -31.5110 C   0  0  0  0  0  0  0  0  0  0  0  0
   -4.7310   23.3920  -31.2640 C   0  0  0  0  0  0  0  0  0  0  0  0
   -1.3200   22.6030  -29.2050 C   0  0  0  0  0  0  0  0  0  0  0  0
   -1.2570   21.2900  -28.7320 C   0  0  0  0  0  0  0  0  0  0  0  0
   -2.4252   19.2565  -25.3936 H   0  0  0  0  0  0  0  0  0  0  0  0
   -3.9175   19.2762  -26.3933 H   0  0  0  0  0  0  0  0  0  0  0  0
   -2.8555   17.8274  -26.3933 H   0  0  0  0  0  0  0  0  0  0  0  0
   -4.1426   21.2239  -26.8989 H   0  0  0  0  0  0  0  0  0  0  0  0
   -4.2734   23.5566  -27.7676 H   0  0  0  0  0  0  0  0  0  0  0  0
   -5.9181   26.1183  -29.5301 H   0  0  0  0  0  0  0  0  0  0  0  0
   -8.1100   24.9692  -30.0010 H   0  0  0  0  0  0  0  0  0  0  0  0
   -7.2172   19.4524  -30.8309 H   0  0  0  0  0  0  0  0  0  0  0  0
   -8.6082   18.3397  -31.1592 H   0  0  0  0  0  0  0  0  0  0  0  0
   -7.4389   18.7348  -34.3004 H   0  0  0  0  0  0  0  0  0  0  0  0
   -5.8615   17.2456  -35.5307 H   0  0  0  0  0  0  0  0  0  0  0  0
   -4.4050   15.6553  -34.2759 H   0  0  0  0  0  0  0  0  0  0  0  0
   -4.5311   15.5430  -31.7860 H   0  0  0  0  0  0  0  0  0  0  0  0
   -4.7128   20.2243  -32.0269 H   0  0  0  0  0  0  0  0  0  0  0  0
   -5.8189   20.0327  -33.4292 H   0  0  0  0  0  0  0  0  0  0  0  0
   -4.5868   21.3398  -33.4292 H   0  0  0  0  0  0  0  0  0  0  0  0
   -3.7994   22.9398  -31.6350 H   0  0  0  0  0  0  0  0  0  0  0  0
   -0.5149   22.9924  -29.8454 H   0  0  0  0  0  0  0  0  0  0  0  0
   -0.4104   20.6481  -29.0170 H   0  0  0  0  0  0  0  0  0  0  0  0
  1  2  1  0
  2  3  1  0
  3  4  2  0
  4  5  1  0
  5  6  2  0
  6  7  1  0
  7  8  2  0
  7  9  1  0
  9 10  1  0
 10 11  2  0
 11 12  1  0
 12 13  2  0
 13 14  1  0
 14 15  2  0
 15 16  1  0
 16 17  1  0
 17 18  1  0
 18 19  2  0
 19 20  1  0
 20 21  2  0
 21 22  1  0
 22 23  2  0
 23 24  1  0
 15 25  1  0
 25 26  1  0
 25 27  1  0
 27 28  2  0
  6 29  1  0
 29 30  2  0
 30  3  1  0
 28 10  1  0
 27 13  1  0
 23 18  1  0
  1 31  1  0
  1 32  1  0
  1 33  1  0
  4 34  1  0
  5 35  1  0
 11 36  1  0
 12 37  1  0
 17 38  1  0
 17 39  1  0
 19 40  1  0
 20 41  1  0
 21 42  1  0
 22 43  1  0
 26 44  1  0
 26 45  1  0
 26 46  1  0
 28 47  1  0
 29 48  1  0
 30 49  1  0
M  CHG  1   9  -1
M  END
>  <UniqueID>  (32) 
31

>  <SMILES>  (32) 
COc1ccc(C(=O)[N-]c2ccc3nc(SCc4ccccc4F)n(C)c3c2)cc1

>  <Energy>  (32) 
88.47881670706937

>  <Genealogy>  (32) 
COc1ccc(C(=O)[N-]c2ccc3nc(SCc4ccccc4F)n(C)c3c2)cc1 (protonated)
COc1ccc(C(=O)[N-]c2ccc3nc(SCc4ccccc4F)n(C)c3c2)cc1 (3D coordinates assigned)
COc1ccc(C(=O)[N-]c2ccc3nc(SCc4ccccc4F)n(C)c3c2)cc1 (optimized conformer: 88.47881670706937 kcal/mol)

>  <smiles>  (32) 
COc1ccc(C(=O)Nc2ccc3nc(SCc4ccccc4F)n(C)c3c2)cc1

>  <score_type>  (32) 
oracle

>  <origin>  (32) 
adg

>  <m_score__min__energy>  (32) 
-11.77

>  <m_primary>  (32) 
energy

$$$$
32:0
     RDKit          3D

 33 34  0  0  0  0  0  0  0  0999 V2000
   -4.1790   22.9930  -27.9570 C   0  0  0  0  0  0  0  0  0  0  0  0
   -4.2900   24.2010  -28.8780 C   0  0  0  0  0  0  0  0  0  0  0  0
   -5.2140   23.9170  -29.9720 N   0  0  0  0  0  0  0  0  0  0  0  0
   -6.3670   23.2270  -29.8740 C   0  0  0  0  0  0  0  0  0  0  0  0
   -6.9020   23.1320  -31.1380 C   0  0  0  0  0  0  0  0  0  0  0  0
   -8.3930   22.3350  -31.6010 S   0  0  0  0  0  0  0  0  0  0  0  0
   -9.2660   23.3050  -32.3490 O   0  0  0  0  0  0  0  0  0  0  0  0
   -9.1050   21.8820  -30.3570 O   0  0  0  0  0  0  0  0  0  0  0  0
   -8.0330   20.9610  -32.6180 N   0  0  0  0  0  0  0  0  0  0  0  0
   -9.1070   19.9370  -32.5350 C   0  0  0  0  0  0  0  0  0  0  0  0
   -8.7290   18.7390  -31.6520 C   0  0  0  0  0  0  0  0  0  0  0  0
   -7.4530   18.0500  -32.1670 C   0  0  0  0  0  0  0  0  0  0  0  0
   -6.4780   19.0320  -32.8420 C   0  0  0  0  0  0  0  0  0  0  0  0
   -6.6760   20.4570  -32.3140 C   0  0  0  0  0  0  0  0  0  0  0  0
   -6.0130   23.7790  -31.9710 C   0  0  0  0  0  0  0  0  0  0  0  0
   -4.9850   24.2460  -31.2350 N   0  0  0  0  0  0  0  0  0  0  0  0
   -4.2097   23.3267  -26.9093 H   0  0  0  0  0  0  0  0  0  0  0  0
   -5.0180   22.3078  -28.1483 H   0  0  0  0  0  0  0  0  0  0  0  0
   -3.2292   22.4721  -28.1483 H   0  0  0  0  0  0  0  0  0  0  0  0
   -4.6605   25.0630  -28.3038 H   0  0  0  0  0  0  0  0  0  0  0  0
   -3.2976   24.4268  -29.2955 H   0  0  0  0  0  0  0  0  0  0  0  0
   -6.8015   22.8147  -28.9514 H   0  0  0  0  0  0  0  0  0  0  0  0
  -10.0091   20.4086  -32.1180 H   0  0  0  0  0  0  0  0  0  0  0  0
   -9.2755   19.5547  -33.5526 H   0  0  0  0  0  0  0  0  0  0  0  0
   -8.5571   19.0908  -30.6240 H   0  0  0  0  0  0  0  0  0  0  0  0
   -9.5536   18.0115  -31.6796 H   0  0  0  0  0  0  0  0  0  0  0  0
   -6.9417   17.5754  -31.3165 H   0  0  0  0  0  0  0  0  0  0  0  0
   -7.7567   17.3112  -32.9232 H   0  0  0  0  0  0  0  0  0  0  0  0
   -5.4459   18.7125  -32.6353 H   0  0  0  0  0  0  0  0  0  0  0  0
   -6.6740   19.0302  -33.9244 H   0  0  0  0  0  0  0  0  0  0  0  0
   -6.5295   20.4584  -31.2238 H   0  0  0  0  0  0  0  0  0  0  0  0
   -5.9441   21.1138  -32.8068 H   0  0  0  0  0  0  0  0  0  0  0  0
   -6.1249   23.8950  -33.0591 H   0  0  0  0  0  0  0  0  0  0  0  0
  1  2  1  0
  2  3  1  0
  3  4  1  0
  4  5  2  0
  5  6  1  0
  6  7  2  0
  6  8  2  0
  6  9  1  0
  9 10  1  0
 10 11  1  0
 11 12  1  0
 12 13  1  0
 13 14  1  0
  5 15  1  0
 15 16  2  0
 16  3  1  0
 14  9  1  0
  1 17  1  0
  1 18  1  0
  1 19  1  0
  2 20  1  0
  2 21  1  0
  4 22  1  0
 10 23  1  0
 10 24  1  0
 11 25  1  0
 11 26  1  0
 12 27  1  0
 12 28  1  0
 13 29  1  0
 13 30  1  0
 14 31  1  0
 14 32  1  0
 15 33  1  0
M  END
>  <UniqueID>  (33) 
32

>  <SMILES>  (33) 
CCn1cc(S(=O)(=O)N2CCCCC2)cn1

>  <Energy>  (33) 
63.058858077229644

>  <Genealogy>  (33) 
CCn1cc(S(=O)(=O)N2CCCCC2)cn1 (3D coordinates assigned)
CCn1cc(S(=O)(=O)N2CCCCC2)cn1 (nonaromatic ring conformer: 63.058858077229644 kcal/mol)

>  <smiles>  (33) 
CCn1cc(S(=O)(=O)N2CCCCC2)cn1

>  <score_type>  (33) 
oracle

>  <origin>  (33) 
adg

>  <m_score__min__energy>  (33) 
-7.1200000000000001

>  <m_primary>  (33) 
energy

$$$$
33:0
     RDKit          3D

 27 28  0  0  0  0  0  0  0  0999 V2000
   -6.3120   25.6860  -29.5380 C   0  0  0  0  0  0  0  0  0  0  0  0
   -5.6430   25.3370  -30.7460 O   0  0  0  0  0  0  0  0  0  0  0  0
   -4.8590   24.1850  -30.9140 C   0  0  0  0  0  0  0  0  0  0  0  0
   -5.3340   23.0420  -31.5870 C   0  0  0  0  0  0  0  0  0  0  0  0
   -4.5180   21.9050  -31.7320 C   0  0  0  0  0  0  0  0  0  0  0  0
   -5.0170   20.7050  -32.4460 C   0  0  0  0  0  0  0  0  0  0  0  0
   -6.2890   20.1910  -32.1390 C   0  0  0  0  0  0  0  0  0  0  0  0
   -6.7720   19.0550  -32.7930 C   0  0  0  0  0  0  0  0  0  0  0  0
   -5.9940   18.4200  -33.7620 C   0  0  0  0  0  0  0  0  0  0  0  0
   -6.4760   17.2890  -34.4090 O   0  0  0  0  0  0  0  0  0  0  0  0
   -4.7310   18.9250  -34.0840 C   0  0  0  0  0  0  0  0  0  0  0  0
   -4.2390   20.0670  -33.4370 C   0  0  0  0  0  0  0  0  0  0  0  0
   -2.9890   20.5790  -33.7910 O   0  0  0  0  0  0  0  0  0  0  0  0
   -3.2150   21.9270  -31.2100 C   0  0  0  0  0  0  0  0  0  0  0  0
   -2.7400   23.0570  -30.5430 C   0  0  0  0  0  0  0  0  0  0  0  0
   -3.5570   24.1810  -30.3940 C   0  0  0  0  0  0  0  0  0  0  0  0
   -3.0710   25.2990  -29.7250 O   0  0  0  0  0  0  0  0  0  0  0  0
   -5.7044   25.3690  -28.6776 H   0  0  0  0  0  0  0  0  0  0  0  0
   -6.4587   26.7756  -29.5017 H   0  0  0  0  0  0  0  0  0  0  0  0
   -7.2896   25.1830  -29.5017 H   0  0  0  0  0  0  0  0  0  0  0  0
   -6.3523   23.0385  -32.0030 H   0  0  0  0  0  0  0  0  0  0  0  0
   -6.9089   20.6873  -31.3778 H   0  0  0  0  0  0  0  0  0  0  0  0
   -7.7679   18.6601  -32.5436 H   0  0  0  0  0  0  0  0  0  0  0  0
   -4.1200   18.4236  -34.8491 H   0  0  0  0  0  0  0  0  0  0  0  0
   -2.8720   21.1890  -34.5900 H   0  0  0  0  0  0  0  0  0  0  0  0
   -2.5643   21.0479  -31.3275 H   0  0  0  0  0  0  0  0  0  0  0  0
   -1.7192   23.0630  -30.1332 H   0  0  0  0  0  0  0  0  0  0  0  0
  1  2  1  0
  2  3  1  0
  3  4  2  0
  4  5  1  0
  5  6  1  0
  6  7  2  0
  7  8  1  0
  8  9  2  0
  9 10  1  0
  9 11  1  0
 11 12  2  0
 12 13  1  0
  5 14  2  0
 14 15  1  0
 15 16  2  0
 16 17  1  0
 16  3  1  0
 12  6  1  0
  1 18  1  0
  1 19  1  0
  1 20  1  0
  4 21  1  0
  7 22  1  0
  8 23  1  0
 11 24  1  0
 13 25  1  0
 14 26  1  0
 15 27  1  0
M  CHG  2  10  -1  17  -1
M  END
>  <UniqueID>  (34) 
33

>  <SMILES>  (34) 
COc1cc(-c2ccc([O-])cc2O)ccc1[O-]

>  <Energy>  (34) 
33.63737327784773

>  <Genealogy>  (34) 
COc1cc(-c2ccc([O-])cc2O)ccc1[O-] (protonated)
COc1cc(-c2ccc([O-])cc2O)ccc1[O-] (3D coordinates assigned)
COc1cc(-c2ccc([O-])cc2O)ccc1[O-] (optimized conformer: 33.63737327784773 kcal/mol)

>  <smiles>  (34) 
COc1cc(-c2ccc(O)cc2O)ccc1O

>  <score_type>  (34) 
oracle

>  <origin>  (34) 
adg

>  <m_score__min__energy>  (34) 
-8.9499999999999993

>  <m_primary>  (34) 
energy

$$$$
34:0
     RDKit          3D

 31 32  0  0  0  0  0  0  0  0999 V2000
   -0.8060   21.0330  -32.6560 C   0  0  0  0  0  0  0  0  0  0  0  0
   -1.4230   21.1950  -31.2620 C   0  0  0  0  0  0  0  0  0  0  0  0
   -2.8520   21.7910  -31.2690 C   0  0  2  0  0  0  0  0  0  0  0  0
   -3.5200   21.6820  -32.6490 C   0  0  0  0  0  0  0  0  0  0  0  0
   -4.9660   21.4930  -32.5040 N   0  0  0  0  0  0  0  0  0  0  0  0
   -5.6150   20.3210  -33.1020 C   0  0  0  0  0  0  0  0  0  0  0  0
   -5.7890   22.4370  -31.7880 C   0  0  0  0  0  0  0  0  0  0  0  0
   -7.1370   22.3560  -31.7780 N   0  0  0  0  0  0  0  0  0  0  0  0
   -7.5330   23.4020  -31.0290 C   0  0  0  0  0  0  0  0  0  0  0  0
   -6.4990   24.1310  -30.5670 N   0  0  0  0  0  0  0  0  0  0  0  0
   -6.6130   25.3150  -29.7200 C   0  0  0  0  0  0  0  0  0  0  0  0
   -5.3770   23.5370  -31.0360 C   0  0  0  0  0  0  0  0  0  0  0  0
   -3.9990   24.0280  -30.7660 C   0  0  0  0  0  0  0  0  0  0  0  0
   -3.8370   25.2350  -30.4460 O   0  0  0  0  0  0  0  0  0  0  0  0
   -2.8380   23.1870  -30.8290 N   0  0  0  0  0  0  0  0  0  0  0  0
    0.2537   20.7548  -32.5579 H   0  0  0  0  0  0  0  0  0  0  0  0
   -1.3426   20.2453  -33.2052 H   0  0  0  0  0  0  0  0  0  0  0  0
   -0.8864   21.9827  -33.2052 H   0  0  0  0  0  0  0  0  0  0  0  0
   -1.4640   20.2046  -30.7851 H   0  0  0  0  0  0  0  0  0  0  0  0
   -0.7859   21.9044  -30.7134 H   0  0  0  0  0  0  0  0  0  0  0  0
   -3.4471   21.1960  -30.5606 H   0  0  0  0  0  0  0  0  0  0  0  0
   -3.3304   22.6046  -33.2172 H   0  0  0  0  0  0  0  0  0  0  0  0
   -3.0990   20.8164  -33.1815 H   0  0  0  0  0  0  0  0  0  0  0  0
   -5.9820   19.6583  -32.3044 H   0  0  0  0  0  0  0  0  0  0  0  0
   -6.4605   20.6481  -33.7250 H   0  0  0  0  0  0  0  0  0  0  0  0
   -4.8891   19.7779  -33.7250 H   0  0  0  0  0  0  0  0  0  0  0  0
   -8.5868   23.6360  -30.8172 H   0  0  0  0  0  0  0  0  0  0  0  0
   -6.5840   25.0135  -28.6625 H   0  0  0  0  0  0  0  0  0  0  0  0
   -5.7764   25.9978  -29.9297 H   0  0  0  0  0  0  0  0  0  0  0  0
   -7.5645   25.8256  -29.9297 H   0  0  0  0  0  0  0  0  0  0  0  0
   -1.9340   23.6160  -30.5250 H   0  0  0  0  0  0  0  0  0  0  0  0
  1  2  1  0
  2  3  1  0
  3  4  1  0
  4  5  1  0
  5  6  1  0
  5  7  1  0
  7  8  1  0
  8  9  2  0
  9 10  1  0
 10 11  1  0
 10 12  1  0
 12 13  1  0
 13 14  2  0
 13 15  1  0
 15  3  1  0
 12  7  2  0
  1 16  1  0
  1 17  1  0
  1 18  1  0
  2 19  1  0
  2 20  1  0
  3 21  1  1
  4 22  1  0
  4 23  1  0
  6 24  1  0
  6 25  1  0
  6 26  1  0
  9 27  1  0
 11 28  1  0
 11 29  1  0
 11 30  1  0
 15 31  1  0
M  END
>  <UniqueID>  (35) 
34

>  <SMILES>  (35) 
CC[C@@H]1CN(C)c2ncn(C)c2C(=O)N1

>  <Energy>  (35) 
61.134389544827336

>  <Genealogy>  (35) 
CC[C@@H]1CN(C)c2ncn(C)c2C(=O)N1 (chirality)
CC[C@@H]1CN(C)c2ncn(C)c2C(=O)N1 (3D coordinates assigned)
CC[C@@H]1CN(C)c2ncn(C)c2C(=O)N1 (nonaromatic ring conformer: 61.134389544827336 kcal/mol)

>  <smiles>  (35) 
CCC1CN(C)c2ncn(C)c2C(=O)N1

>  <score_type>  (35) 
oracle

>  <origin>  (35) 
adg

>  <m_score__min__energy>  (35) 
-4.1200000000000001

>  <m_primary>  (35) 
energy

$$$$
35:0
     RDKit          3D

 25 25  0  0  0  0  0  0  0  0999 V2000
   -3.4540   24.0950  -28.1930 C   0  0  0  0  0  0  0  0  0  0  0  0
   -2.7110   24.5200  -29.4550 C   0  0  0  0  0  0  0  0  0  0  0  0
   -3.6310   24.9270  -30.4670 O   0  0  0  0  0  0  0  0  0  0  0  0
   -4.9540   24.4780  -30.5330 C   0  0  0  0  0  0  0  0  0  0  0  0
   -5.8990   25.2200  -30.1510 O   0  0  0  0  0  0  0  0  0  0  0  0
   -5.2200   23.1780  -31.0790 N   0  0  0  0  0  0  0  0  0  0  0  0
   -6.5060   22.5310  -31.0590 C   0  0  0  0  0  0  0  0  0  0  0  0
   -7.5260   22.7730  -29.7900 S   0  0  0  0  0  0  0  0  0  0  0  0
   -6.7850   21.4760  -32.0010 N   0  0  0  0  0  0  0  0  0  0  0  0
   -5.7700   20.7930  -32.8000 C   0  0  0  0  0  0  0  0  0  0  0  0
   -6.5000   19.6300  -33.5090 C   0  0  0  0  0  0  0  0  0  0  0  0
   -7.8970   19.7500  -33.1250 N   0  0  0  0  0  0  0  0  0  0  0  0
   -8.0320   20.8350  -32.2340 C   0  0  0  0  0  0  0  0  0  0  0  0
   -9.4860   21.5410  -31.9600 S   0  0  0  0  0  0  0  0  0  0  0  0
   -2.8876   24.4190  -27.3074 H   0  0  0  0  0  0  0  0  0  0  0  0
   -4.4511   24.5593  -28.1806 H   0  0  0  0  0  0  0  0  0  0  0  0
   -3.5592   23.0001  -28.1806 H   0  0  0  0  0  0  0  0  0  0  0  0
   -2.0425   25.3600  -29.2152 H   0  0  0  0  0  0  0  0  0  0  0  0
   -2.1288   23.6647  -29.8285 H   0  0  0  0  0  0  0  0  0  0  0  0
   -4.4300   22.7090  -31.5740 H   0  0  0  0  0  0  0  0  0  0  0  0
   -5.3388   21.4823  -33.5409 H   0  0  0  0  0  0  0  0  0  0  0  0
   -4.9420   20.4282  -32.1744 H   0  0  0  0  0  0  0  0  0  0  0  0
   -6.3932   19.7186  -34.6002 H   0  0  0  0  0  0  0  0  0  0  0  0
   -6.0825   18.6536  -33.2221 H   0  0  0  0  0  0  0  0  0  0  0  0
   -8.6790   19.1720  -33.5060 H   0  0  0  0  0  0  0  0  0  0  0  0
  1  2  1  0
  2  3  1  0
  3  4  1  0
  4  5  2  0
  4  6  1  0
  6  7  1  0
  7  8  2  0
  7  9  1  0
  9 10  1  0
 10 11  1  0
 11 12  1  0
 12 13  1  0
 13 14  2  0
 13  9  1  0
  1 15  1  0
  1 16  1  0
  1 17  1  0
  2 18  1  0
  2 19  1  0
  6 20  1  0
 10 21  1  0
 10 22  1  0
 11 23  1  0
 11 24  1  0
 12 25  1  0
M  END
>  <UniqueID>  (36) 
35

>  <SMILES>  (36) 
CCOC(=O)NC(=S)N1CCNC1=S

>  <Energy>  (36) 
36.869832662220105

>  <Genealogy>  (36) 
CCOC(=O)NC(=S)N1CCNC1=S (3D coordinates assigned)
CCOC(=O)NC(=S)N1CCNC1=S (nonaromatic ring conformer: 36.869832662220105 kcal/mol)

>  <smiles>  (36) 
CCOC(=O)NC(=S)N1CCNC1=S

>  <score_type>  (36) 
oracle

>  <origin>  (36) 
adg

>  <m_score__min__energy>  (36) 
-6

>  <m_primary>  (36) 
energy

$$$$
36:0
     RDKit          3D

 42 43  0  0  0  0  0  0  0  0999 V2000
   -9.2140   21.8220  -31.6090 C   0  0  0  0  0  0  0  0  0  0  0  0
   -7.9770   22.7190  -31.5070 C   0  0  0  0  0  0  0  0  0  0  0  0
   -6.7530   22.1020  -30.7720 C   0  0  2  0  0  0  0  0  0  0  0  0
   -6.1650   23.0330  -29.7820 N   0  0  0  0  0  0  0  0  0  0  0  0
   -5.8320   24.3850  -30.2780 C   0  0  0  0  0  0  0  0  0  0  0  0
   -4.3500   24.6230  -30.3280 C   0  0  0  0  0  0  0  0  0  0  0  0
   -3.9070   25.6830  -30.8450 O   0  0  0  0  0  0  0  0  0  0  0  0
   -3.4550   23.6030  -29.8670 N   0  0  0  0  0  0  0  0  0  0  0  0
   -2.3940   23.7600  -28.9110 C   0  0  0  0  0  0  0  0  0  0  0  0
   -1.5830   24.9120  -28.9070 C   0  0  0  0  0  0  0  0  0  0  0  0
   -0.5830   25.0700  -27.9470 C   0  0  0  0  0  0  0  0  0  0  0  0
   -0.3820   24.0890  -26.9780 C   0  0  0  0  0  0  0  0  0  0  0  0
   -1.1890   22.9490  -26.9560 C   0  0  0  0  0  0  0  0  0  0  0  0
   -2.2100   22.7750  -27.9120 C   0  0  0  0  0  0  0  0  0  0  0  0
   -3.0940   21.5480  -27.8810 C   0  0  0  0  0  0  0  0  0  0  0  0
   -2.6240   20.5950  -26.9910 F   0  0  0  0  0  0  0  0  0  0  0  0
   -4.3750   21.9110  -27.4980 F   0  0  0  0  0  0  0  0  0  0  0  0
   -3.1430   20.9820  -29.1440 F   0  0  0  0  0  0  0  0  0  0  0  0
   -5.7220   21.4000  -31.6510 C   0  0  0  0  0  0  0  0  0  0  0  0
   -6.0820   20.4630  -32.6410 C   0  0  0  0  0  0  0  0  0  0  0  0
   -5.0880   19.8670  -33.4190 C   0  0  0  0  0  0  0  0  0  0  0  0
   -3.7510   20.1990  -33.2150 C   0  0  0  0  0  0  0  0  0  0  0  0
   -3.4220   21.1290  -32.2310 C   0  0  0  0  0  0  0  0  0  0  0  0
   -4.4000   21.7110  -31.4840 N   0  0  0  0  0  0  0  0  0  0  0  0
   -9.5661   21.5667  -30.5986 H   0  0  0  0  0  0  0  0  0  0  0  0
  -10.0095   22.3546  -32.1508 H   0  0  0  0  0  0  0  0  0  0  0  0
   -8.9550   20.9004  -32.1508 H   0  0  0  0  0  0  0  0  0  0  0  0
   -7.6622   22.9774  -32.5288 H   0  0  0  0  0  0  0  0  0  0  0  0
   -8.2843   23.5844  -30.9015 H   0  0  0  0  0  0  0  0  0  0  0  0
   -7.1785   21.2601  -30.2061 H   0  0  0  0  0  0  0  0  0  0  0  0
   -5.3260   22.5910  -29.3370 H   0  0  0  0  0  0  0  0  0  0  0  0
   -6.2437   24.5017  -31.2913 H   0  0  0  0  0  0  0  0  0  0  0  0
   -6.2677   25.1165  -29.5815 H   0  0  0  0  0  0  0  0  0  0  0  0
   -1.7393   25.6925  -29.6662 H   0  0  0  0  0  0  0  0  0  0  0  0
    0.0481   25.9709  -27.9551 H   0  0  0  0  0  0  0  0  0  0  0  0
    0.4139   24.2126  -26.2288 H   0  0  0  0  0  0  0  0  0  0  0  0
   -1.0263   22.1805  -26.1860 H   0  0  0  0  0  0  0  0  0  0  0  0
   -7.1391   20.2033  -32.7993 H   0  0  0  0  0  0  0  0  0  0  0  0
   -5.3608   19.1349  -34.1934 H   0  0  0  0  0  0  0  0  0  0  0  0
   -2.9631   19.7320  -33.8242 H   0  0  0  0  0  0  0  0  0  0  0  0
   -2.3686   21.3938  -32.0572 H   0  0  0  0  0  0  0  0  0  0  0  0
   -4.1180   22.4170  -30.7660 H   0  0  0  0  0  0  0  0  0  0  0  0
  1  2  1  0
  2  3  1  0
  3  4  1  0
  4  5  1  0
  5  6  1  0
  6  7  2  0
  6  8  1  0
  8  9  1  0
  9 10  2  0
 10 11  1  0
 11 12  2  0
 12 13  1  0
 13 14  2  0
 14 15  1  0
 15 16  1  0
 15 17  1  0
 15 18  1  0
  3 19  1  0
 19 20  2  0
 20 21  1  0
 21 22  2  0
 22 23  1  0
 23 24  2  0
 14  9  1  0
 24 19  1  0
  1 25  1  0
  1 26  1  0
  1 27  1  0
  2 28  1  0
  2 29  1  0
  3 30  1  1
  4 31  1  0
  5 32  1  0
  5 33  1  0
 10 34  1  0
 11 35  1  0
 12 36  1  0
 13 37  1  0
 20 38  1  0
 21 39  1  0
 22 40  1  0
 23 41  1  0
 24 42  1  0
M  CHG  2   8  -1  24   1
M  END
>  <UniqueID>  (37) 
36

>  <SMILES>  (37) 
CC[C@H](NCC(=O)[N-]c1ccccc1C(F)(F)F)c1cccc[nH+]1

>  <Energy>  (37) 
52.09912090531704

>  <Genealogy>  (37) 
CCC(NCC(=O)[N-]c1ccccc1C(F)(F)F)c1cccc[nH+]1 (protonated)
CC[C@H](NCC(=O)[N-]c1ccccc1C(F)(F)F)c1cccc[nH+]1 (chirality)
CC[C@H](NCC(=O)[N-]c1ccccc1C(F)(F)F)c1cccc[nH+]1 (3D coordinates assigned)
CC[C@H](NCC(=O)[N-]c1ccccc1C(F)(F)F)c1cccc[nH+]1 (optimized conformer: 52.09912090531704 kcal/mol)

>  <smiles>  (37) 
CCC(NCC(=O)Nc1ccccc1C(F)(F)F)c1ccccn1

>  <score_type>  (37) 
oracle

>  <origin>  (37) 
adg

>  <m_score__min__energy>  (37) 
-7.8200000000000003

>  <m_primary>  (37) 
energy

$$$$
37:0
     RDKit          3D

 44 46  0  0  1  0  0  0  0  0999 V2000
   -3.7810   24.4580  -29.7300 C   0  0  0  0  0  0  0  0  0  0  0  0
   -4.5870   24.7710  -30.8370 O   0  0  0  0  0  0  0  0  0  0  0  0
   -5.6850   23.9360  -31.0710 C   0  0  0  0  0  0  0  0  0  0  0  0
   -6.3110   23.8710  -32.2970 C   0  0  0  0  0  0  0  0  0  0  0  0
   -7.3940   23.0350  -32.4960 C   0  0  0  0  0  0  0  0  0  0  0  0
   -7.8150   22.2750  -31.4240 C   0  0  0  0  0  0  0  0  0  0  0  0
   -8.9890   21.3360  -31.5530 C   0  0  0  0  0  0  0  0  0  0  0  0
   -8.4710   19.9970  -31.9200 C   0  0  0  0  0  0  0  0  0  0  0  0
   -8.7150   19.0470  -31.1260 O   0  0  0  0  0  0  0  0  0  0  0  0
   -7.7270   19.7120  -33.0860 N   0  0  0  0  0  0  0  0  0  0  0  0
   -6.4760   19.5620  -33.1840 C   0  0  0  0  0  0  0  0  0  0  0  0
   -5.6700   20.5960  -32.9770 N   0  0  0  0  0  0  0  0  0  0  0  0
   -4.3500   20.3850  -33.0940 C   0  0  0  0  0  0  0  0  0  0  0  0
   -3.4300   21.5430  -32.8630 C   0  0  0  0  0  0  0  0  0  0  0  0
   -3.3250   21.8060  -31.5180 F   0  0  0  0  0  0  0  0  0  0  0  0
   -3.9840   22.6530  -33.4600 F   0  0  0  0  0  0  0  0  0  0  0  0
   -2.2010   21.3480  -33.4250 F   0  0  0  0  0  0  0  0  0  0  0  0
   -3.8540   19.1650  -33.4120 N   0  0  0  0  0  0  0  0  0  0  0  0
   -4.6420   18.1040  -33.6280 C   0  0  0  0  0  0  0  0  0  0  0  0
   -4.1750   16.8540  -33.9510 C   0  0  0  0  0  0  0  0  0  0  0  0
   -5.0690   15.7980  -34.1610 C   0  0  0  0  0  0  0  0  0  0  0  0
   -6.4270   16.0090  -34.0400 C   0  0  0  0  0  0  0  0  0  0  0  0
   -7.3790   15.0230  -34.2300 O   0  0  0  0  0  0  0  0  0  0  0  0
   -7.0660   13.6980  -34.5780 C   0  0  0  0  0  0  0  0  0  0  0  0
   -6.8740   17.2690  -33.7160 C   0  0  0  0  0  0  0  0  0  0  0  0
   -6.0020   18.2960  -33.5130 C   0  0  0  0  0  0  0  0  0  0  0  0
   -7.1900   22.3330  -30.1860 C   0  0  0  0  0  0  0  0  0  0  0  0
   -6.1050   23.1720  -29.9890 C   0  0  0  0  0  0  0  0  0  0  0  0
   -4.3325   24.6722  -28.8026 H   0  0  0  0  0  0  0  0  0  0  0  0
   -3.5148   23.3911  -29.7602 H   0  0  0  0  0  0  0  0  0  0  0  0
   -2.8645   25.0656  -29.7602 H   0  0  0  0  0  0  0  0  0  0  0  0
   -5.9444   24.4920  -33.1276 H   0  0  0  0  0  0  0  0  0  0  0  0
   -7.9003   22.9779  -33.4709 H   0  0  0  0  0  0  0  0  0  0  0  0
   -9.5266   21.2778  -30.5951 H   0  0  0  0  0  0  0  0  0  0  0  0
   -9.6842   21.6996  -32.3241 H   0  0  0  0  0  0  0  0  0  0  0  0
   -2.8160   19.0310  -33.4970 H   0  0  0  0  0  0  0  0  0  0  0  0
   -3.0927   16.6817  -34.0452 H   0  0  0  0  0  0  0  0  0  0  0  0
   -4.6888   14.7995  -34.4226 H   0  0  0  0  0  0  0  0  0  0  0  0
   -6.9253   13.1023  -33.6640 H   0  0  0  0  0  0  0  0  0  0  0  0
   -7.8879   13.2708  -35.1712 H   0  0  0  0  0  0  0  0  0  0  0  0
   -6.1398   13.6837  -35.1712 H   0  0  0  0  0  0  0  0  0  0  0  0
   -7.9546   17.4506  -33.6191 H   0  0  0  0  0  0  0  0  0  0  0  0
   -7.5578   21.7100  -29.3574 H   0  0  0  0  0  0  0  0  0  0  0  0
   -5.5966   23.2309  -29.0153 H   0  0  0  0  0  0  0  0  0  0  0  0
  1  2  1  0
  2  3  1  0
  3  4  2  0
  4  5  1  0
  5  6  2  0
  6  7  1  0
  7  8  1  0
  8  9  2  0
  8 10  1  0
 10 11  2  0
 11 12  1  0
 12 13  2  0
 13 14  1  0
 14 15  1  0
 14 16  1  0
 14 17  1  0
 13 18  1  0
 18 19  1  0
 19 20  2  0
 20 21  1  0
 21 22  2  0
 22 23  1  0
 23 24  1  0
 22 25  1  0
 25 26  2  0
  6 27  1  0
 27 28  2  0
 28  3  1  0
 26 11  1  0
 26 19  1  0
  1 29  1  0
  1 30  1  0
  1 31  1  0
  4 32  1  0
  5 33  1  0
  7 34  1  0
  7 35  1  0
 18 36  1  0
 20 37  1  0
 21 38  1  0
 24 39  1  0
 24 40  1  0
 24 41  1  0
 25 42  1  0
 27 43  1  0
 28 44  1  0
M  END
>  <smiles>  (38) 
COc1ccc(CC(=O)N=c2nc(C(F)(F)F)[nH]c3ccc(OC)cc23)cc1

>  <score_type>  (38) 
oracle

>  <origin>  (38) 
adg

>  <m_score__min__energy>  (38) 
-7.9900000000000002

>  <m_primary>  (38) 
energy

$$$$
38:0
     RDKit          3D

 30 30  0  0  0  0  0  0  0  0999 V2000
   -9.5120   18.5800  -32.3870 F   0  0  0  0  0  0  0  0  0  0  0  0
   -8.7270   18.5560  -31.2480 C   0  0  0  0  0  0  0  0  0  0  0  0
   -7.2520   18.7410  -31.6380 C   0  0  0  0  0  0  0  0  0  0  0  0
   -7.0510   18.9610  -33.0940 N   0  0  2  0  0  0  0  0  0  0  0  0
   -5.6910   18.5330  -33.5260 C   0  0  0  0  0  0  0  0  0  0  0  0
   -5.6960   17.3840  -34.5480 C   0  0  0  0  0  0  0  0  0  0  0  0
   -6.4870   15.9250  -33.8920 Cl  0  0  0  0  0  0  0  0  0  0  0  0
   -7.3790   20.3700  -33.4640 C   0  0  0  0  0  0  0  0  0  0  0  0
   -6.8520   21.4270  -32.4990 C   0  0  0  0  0  0  0  0  0  0  0  0
   -5.4830   21.7560  -32.5240 C   0  0  0  0  0  0  0  0  0  0  0  0
   -4.9590   22.7100  -31.6490 C   0  0  0  0  0  0  0  0  0  0  0  0
   -5.7960   23.3710  -30.7500 C   0  0  0  0  0  0  0  0  0  0  0  0
   -5.1370   24.5710  -29.6550 Cl  0  0  0  0  0  0  0  0  0  0  0  0
   -7.1640   23.0900  -30.7400 C   0  0  0  0  0  0  0  0  0  0  0  0
   -7.7020   22.1370  -31.6140 C   0  0  0  0  0  0  0  0  0  0  0  0
   -9.4500   21.9260  -31.6020 Cl  0  0  0  0  0  0  0  0  0  0  0  0
   -9.0330   19.3702  -30.5746 H   0  0  0  0  0  0  0  0  0  0  0  0
   -8.8526   17.5902  -30.7366 H   0  0  0  0  0  0  0  0  0  0  0  0
   -6.8541   19.6112  -31.0954 H   0  0  0  0  0  0  0  0  0  0  0  0
   -6.7266   17.8114  -31.3738 H   0  0  0  0  0  0  0  0  0  0  0  0
   -7.7530   18.3640  -33.5910 H   0  0  0  0  0  0  0  0  0  0  0  0
   -5.1832   19.3974  -33.9788 H   0  0  0  0  0  0  0  0  0  0  0  0
   -5.1729   18.1615  -32.6296 H   0  0  0  0  0  0  0  0  0  0  0  0
   -6.2376   17.7095  -35.4484 H   0  0  0  0  0  0  0  0  0  0  0  0
   -4.6524   17.1316  -34.7871 H   0  0  0  0  0  0  0  0  0  0  0  0
   -6.9514   20.5708  -34.4574 H   0  0  0  0  0  0  0  0  0  0  0  0
   -8.4759   20.4483  -33.4380 H   0  0  0  0  0  0  0  0  0  0  0  0
   -4.8175   21.2549  -33.2423 H   0  0  0  0  0  0  0  0  0  0  0  0
   -3.8836   22.9407  -31.6688 H   0  0  0  0  0  0  0  0  0  0  0  0
   -7.8247   23.6218  -30.0395 H   0  0  0  0  0  0  0  0  0  0  0  0
  1  2  1  0
  2  3  1  0
  3  4  1  0
  4  5  1  0
  5  6  1  0
  6  7  1  0
  4  8  1  0
  8  9  1  0
  9 10  2  0
 10 11  1  0
 11 12  2  0
 12 13  1  0
 12 14  1  0
 14 15  2  0
 15 16  1  0
 15  9  1  0
  2 17  1  0
  2 18  1  0
  3 19  1  0
  3 20  1  0
  4 21  1  6
  5 22  1  0
  5 23  1  0
  6 24  1  0
  6 25  1  0
  8 26  1  0
  8 27  1  0
 10 28  1  0
 11 29  1  0
 14 30  1  0
M  CHG  1   4   1
M  END
>  <UniqueID>  (39) 
37

>  <SMILES>  (39) 
FCC[N@H+](CCCl)Cc1ccc(Cl)cc1Cl

>  <Energy>  (39) 
34.894013606769555

>  <Genealogy>  (39) 
FCC[NH+](CCCl)Cc1ccc(Cl)cc1Cl (protonated)
FCC[N@H+](CCCl)Cc1ccc(Cl)cc1Cl (chirality)
FCC[N@H+](CCCl)Cc1ccc(Cl)cc1Cl (3D coordinates assigned)
FCC[N@H+](CCCl)Cc1ccc(Cl)cc1Cl (optimized conformer: 34.894013606769555 kcal/mol)

>  <smiles>  (39) 
FCCN(CCCl)Cc1ccc(Cl)cc1Cl

>  <score_type>  (39) 
oracle

>  <origin>  (39) 
adg

>  <m_score__min__energy>  (39) 
-5.4199999999999999

>  <m_primary>  (39) 
energy

$$$$
39:0
     RDKit          3D

 46 49  0  0  0  0  0  0  0  0999 V2000
   -0.9090   21.8820  -30.6730 C   0  0  0  0  0  0  0  0  0  0  0  0
   -1.7810   22.0620  -31.7830 O   0  0  0  0  0  0  0  0  0  0  0  0
   -3.0990   21.5860  -31.8380 C   0  0  0  0  0  0  0  0  0  0  0  0
   -3.5110   20.4270  -31.1550 C   0  0  0  0  0  0  0  0  0  0  0  0
   -4.8290   19.9770  -31.2630 C   0  0  0  0  0  0  0  0  0  0  0  0
   -5.7580   20.6790  -32.0460 C   0  0  0  0  0  0  0  0  0  0  0  0
   -7.1090   20.1980  -32.1790 N   0  0  0  0  0  0  0  0  0  0  0  0
   -8.2530   20.9100  -32.0940 C   0  0  0  0  0  0  0  0  0  0  0  0
   -8.3660   22.6550  -31.6800 S   0  0  0  0  0  0  0  0  0  0  0  0
   -7.6590   22.4750  -30.0060 C   0  0  0  0  0  0  0  0  0  0  0  0
   -6.3550   23.2140  -29.8810 C   0  0  0  0  0  0  0  0  0  0  0  0
   -5.3090   22.6900  -29.1010 C   0  0  0  0  0  0  0  0  0  0  0  0
   -4.0880   23.3670  -29.0140 C   0  0  0  0  0  0  0  0  0  0  0  0
   -3.9060   24.5740  -29.6950 C   0  0  0  0  0  0  0  0  0  0  0  0
   -2.7270   25.2350  -29.5980 F   0  0  0  0  0  0  0  0  0  0  0  0
   -4.9450   25.1060  -30.4640 C   0  0  0  0  0  0  0  0  0  0  0  0
   -6.1630   24.4280  -30.5620 C   0  0  0  0  0  0  0  0  0  0  0  0
   -9.3280   20.1590  -32.3960 N   0  0  0  0  0  0  0  0  0  0  0  0
   -8.8830   18.9460  -32.6870 N   0  0  0  0  0  0  0  0  0  0  0  0
   -7.5420   18.9700  -32.5540 C   0  0  0  0  0  0  0  0  0  0  0  0
   -6.6970   17.7730  -32.7510 C   0  0  0  0  0  0  0  0  0  0  0  0
   -6.1420   17.0880  -31.6550 C   0  0  0  0  0  0  0  0  0  0  0  0
   -5.3530   15.9520  -31.8610 C   0  0  0  0  0  0  0  0  0  0  0  0
   -5.1240   15.4820  -33.1570 C   0  0  0  0  0  0  0  0  0  0  0  0
   -5.6910   16.1440  -34.2490 C   0  0  0  0  0  0  0  0  0  0  0  0
   -6.4800   17.2810  -34.0490 C   0  0  0  0  0  0  0  0  0  0  0  0
   -5.3510   21.8470  -32.7080 C   0  0  0  0  0  0  0  0  0  0  0  0
   -4.0310   22.2930  -32.6050 C   0  0  0  0  0  0  0  0  0  0  0  0
   -1.4766   21.9992  -29.7381 H   0  0  0  0  0  0  0  0  0  0  0  0
   -0.4697   20.8742  -30.7114 H   0  0  0  0  0  0  0  0  0  0  0  0
   -0.1066   22.6334  -30.7114 H   0  0  0  0  0  0  0  0  0  0  0  0
   -2.7923   19.8729  -30.5334 H   0  0  0  0  0  0  0  0  0  0  0  0
   -5.1407   19.0662  -30.7307 H   0  0  0  0  0  0  0  0  0  0  0  0
   -8.3712   22.8782  -29.2710 H   0  0  0  0  0  0  0  0  0  0  0  0
   -7.4718   21.4069  -29.8212 H   0  0  0  0  0  0  0  0  0  0  0  0
   -5.4514   21.7444  -28.5573 H   0  0  0  0  0  0  0  0  0  0  0  0
   -3.2700   22.9490  -28.4089 H   0  0  0  0  0  0  0  0  0  0  0  0
   -4.8036   26.0601  -30.9930 H   0  0  0  0  0  0  0  0  0  0  0  0
   -6.9749   24.8465  -31.1749 H   0  0  0  0  0  0  0  0  0  0  0  0
   -6.3293   17.4472  -30.6323 H   0  0  0  0  0  0  0  0  0  0  0  0
   -4.9116   15.4271  -31.0010 H   0  0  0  0  0  0  0  0  0  0  0  0
   -4.4980   14.5918  -33.3172 H   0  0  0  0  0  0  0  0  0  0  0  0
   -5.5163   15.7698  -35.2685 H   0  0  0  0  0  0  0  0  0  0  0  0
   -6.9326   17.7923  -34.9114 H   0  0  0  0  0  0  0  0  0  0  0  0
   -6.0749   22.4146  -33.3112 H   0  0  0  0  0  0  0  0  0  0  0  0
   -3.7219   23.2080  -33.1316 H   0  0  0  0  0  0  0  0  0  0  0  0
  1  2  1  0
  2  3  1  0
  3  4  2  0
  4  5  1  0
  5  6  2  0
  6  7  1  0
  7  8  1  0
  8  9  1  0
  9 10  1  0
 10 11  1  0
 11 12  2  0
 12 13  1  0
 13 14  2  0
 14 15  1  0
 14 16  1  0
 16 17  2  0
  8 18  2  0
 18 19  1  0
 19 20  2  0
 20 21  1  0
 21 22  2  0
 22 23  1  0
 23 24  2  0
 24 25  1  0
 25 26  2  0
  6 27  1  0
 27 28  2  0
 28  3  1  0
 20  7  1  0
 26 21  1  0
 17 11  1  0
  1 29  1  0
  1 30  1  0
  1 31  1  0
  4 32  1  0
  5 33  1  0
 10 34  1  0
 10 35  1  0
 12 36  1  0
 13 37  1  0
 16 38  1  0
 17 39  1  0
 22 40  1  0
 23 41  1  0
 24 42  1  0
 25 43  1  0
 26 44  1  0
 27 45  1  0
 28 46  1  0
M  END
>  <UniqueID>  (40) 
38

>  <SMILES>  (40) 
COc1ccc(-n2c(SCc3ccc(F)cc3)nnc2-c2ccccc2)cc1

>  <Energy>  (40) 
85.3031241228367

>  <Genealogy>  (40) 
COc1ccc(-n2c(SCc3ccc(F)cc3)nnc2-c2ccccc2)cc1 (3D coordinates assigned)
COc1ccc(-n2c(SCc3ccc(F)cc3)nnc2-c2ccccc2)cc1 (optimized conformer: 85.3031241228367 kcal/mol)

>  <smiles>  (40) 
COc1ccc(-n2c(SCc3ccc(F)cc3)nnc2-c2ccccc2)cc1

>  <score_type>  (40) 
oracle

>  <origin>  (40) 
adg

>  <m_score__min__energy>  (40) 
-8.7799999999999994

>  <m_primary>  (40) 
energy

$$$$
40:0
     RDKit          3D

 53 56  0  0  0  0  0  0  0  0999 V2000
   -0.9890   20.9230  -32.3700 C   0  0  0  0  0  0  0  0  0  0  0  0
   -0.0090   21.1590  -31.3670 O   0  0  0  0  0  0  0  0  0  0  0  0
   -0.0780   20.5810  -30.0940 C   0  0  0  0  0  0  0  0  0  0  0  0
    0.3060   19.3920  -29.9150 O   0  0  0  0  0  0  0  0  0  0  0  0
   -0.6480   21.3710  -28.9410 C   0  0  1  0  0  0  0  0  0  0  0  0
   -0.9280   20.4550  -27.7340 C   0  0  0  0  0  0  0  0  0  0  0  0
    0.2820   22.4870  -28.5830 N   0  0  0  0  0  0  0  0  0  0  0  0
   -0.4010   23.7770  -28.8940 C   0  0  2  0  0  0  0  0  0  0  0  0
   -0.4630   24.7080  -27.6980 C   0  0  0  0  0  0  0  0  0  0  0  0
   -1.5820   25.5280  -27.4770 C   0  0  0  0  0  0  0  0  0  0  0  0
   -1.6350   26.3680  -26.3650 C   0  0  0  0  0  0  0  0  0  0  0  0
   -0.5710   26.4020  -25.4450 C   0  0  0  0  0  0  0  0  0  0  0  0
   -0.5880   27.2370  -24.3150 O   0  0  0  0  0  0  0  0  0  0  0  0
   -0.4400   26.7810  -22.9740 C   0  0  0  0  0  0  0  0  0  0  0  0
    0.5490   25.5820  -25.6510 C   0  0  0  0  0  0  0  0  0  0  0  0
    1.5950   25.6370  -24.7160 O   0  0  0  0  0  0  0  0  0  0  0  0
    2.5290   26.7070  -24.6090 C   0  0  0  0  0  0  0  0  0  0  0  0
    0.5960   24.7350  -26.7760 C   0  0  0  0  0  0  0  0  0  0  0  0
   -1.7440   23.3760  -29.3460 C   0  0  0  0  0  0  0  0  0  0  0  0
   -1.8830   22.0610  -29.3690 C   0  0  0  0  0  0  0  0  0  0  0  0
   -3.1280   21.7810  -29.8880 C   0  0  0  0  0  0  0  0  0  0  0  0
   -3.6410   20.5110  -30.1250 O   0  0  0  0  0  0  0  0  0  0  0  0
   -3.7670   22.9460  -30.1780 N   0  0  0  0  0  0  0  0  0  0  0  0
   -5.0820   23.0960  -30.7440 C   0  0  0  0  0  0  0  0  0  0  0  0
   -5.5080   22.2600  -31.7910 C   0  0  0  0  0  0  0  0  0  0  0  0
   -6.7870   22.4090  -32.3370 C   0  0  0  0  0  0  0  0  0  0  0  0
   -7.6490   23.3930  -31.8460 C   0  0  0  0  0  0  0  0  0  0  0  0
   -8.8880   23.5360  -32.3780 F   0  0  0  0  0  0  0  0  0  0  0  0
   -7.2340   24.2280  -30.8050 C   0  0  0  0  0  0  0  0  0  0  0  0
   -5.9570   24.0810  -30.2540 C   0  0  0  0  0  0  0  0  0  0  0  0
   -2.8950   23.9360  -29.8500 C   0  0  0  0  0  0  0  0  0  0  0  0
   -3.1410   25.2970  -29.9900 O   0  0  0  0  0  0  0  0  0  0  0  0
   -1.9529   20.6909  -31.8935 H   0  0  0  0  0  0  0  0  0  0  0  0
   -1.0964   21.8210  -32.9962 H   0  0  0  0  0  0  0  0  0  0  0  0
   -0.6758   20.0746  -32.9962 H   0  0  0  0  0  0  0  0  0  0  0  0
   -0.7572   21.0139  -26.8021 H   0  0  0  0  0  0  0  0  0  0  0  0
   -1.9723   20.1111  -27.7691 H   0  0  0  0  0  0  0  0  0  0  0  0
   -0.2545   19.5860  -27.7691 H   0  0  0  0  0  0  0  0  0  0  0  0
    0.5640   22.4410  -27.5760 H   0  0  0  0  0  0  0  0  0  0  0  0
    0.1452   24.3538  -29.6549 H   0  0  0  0  0  0  0  0  0  0  0  0
   -2.4226   25.5074  -28.1862 H   0  0  0  0  0  0  0  0  0  0  0  0
   -2.5150   27.0086  -26.2060 H   0  0  0  0  0  0  0  0  0  0  0  0
   -0.7034   27.5925  -22.2796 H   0  0  0  0  0  0  0  0  0  0  0  0
   -1.1054   25.9219  -22.8033 H   0  0  0  0  0  0  0  0  0  0  0  0
    0.6031   26.4764  -22.8033 H   0  0  0  0  0  0  0  0  0  0  0  0
    2.7182   26.9238  -23.5473 H   0  0  0  0  0  0  0  0  0  0  0  0
    3.4717   26.4212  -25.0985 H   0  0  0  0  0  0  0  0  0  0  0  0
    2.1184   27.6024  -25.0985 H   0  0  0  0  0  0  0  0  0  0  0  0
    1.4715   24.0880  -26.9338 H   0  0  0  0  0  0  0  0  0  0  0  0
   -4.8324   21.4853  -32.1825 H   0  0  0  0  0  0  0  0  0  0  0  0
   -7.1150   21.7502  -33.1546 H   0  0  0  0  0  0  0  0  0  0  0  0
   -7.9130   25.0022  -30.4183 H   0  0  0  0  0  0  0  0  0  0  0  0
   -5.6358   24.7393  -29.4333 H   0  0  0  0  0  0  0  0  0  0  0  0
  1  2  1  0
  2  3  1  0
  3  4  2  0
  3  5  1  0
  5  6  1  1
  5  7  1  0
  7  8  1  0
  8  9  1  0
  9 10  2  0
 10 11  1  0
 11 12  2  0
 12 13  1  0
 13 14  1  0
 12 15  1  0
 15 16  1  0
 16 17  1  0
 15 18  2  0
  8 19  1  0
 19 20  1  0
 20 21  2  0
 21 22  1  0
 21 23  1  0
 23 24  1  0
 24 25  2  0
 25 26  1  0
 26 27  2  0
 27 28  1  0
 27 29  1  0
 29 30  2  0
 23 31  1  0
 31 32  1  0
 20  5  1  0
 30 24  1  0
 18  9  1  0
 31 19  2  0
  1 33  1  0
  1 34  1  0
  1 35  1  0
  6 36  1  0
  6 37  1  0
  6 38  1  0
  7 39  1  0
  8 40  1  6
 10 41  1  0
 11 42  1  0
 14 43  1  0
 14 44  1  0
 14 45  1  0
 17 46  1  0
 17 47  1  0
 17 48  1  0
 18 49  1  0
 25 50  1  0
 26 51  1  0
 29 52  1  0
 30 53  1  0
M  CHG  2  22  -1  32  -1
M  END
>  <UniqueID>  (41) 
39

>  <SMILES>  (41) 
COC(=O)[C@@]1(C)N[C@H](c2ccc(OC)c(OC)c2)c2c1c([O-])n(-c1ccc(F)cc1)c2[O-]

>  <Energy>  (41) 
115.12183458244411

>  <Genealogy>  (41) 
COC(=O)C1(C)NC(c2ccc(OC)c(OC)c2)c2c1c([O-])n(-c1ccc(F)cc1)c2[O-] (protonated)
COC(=O)[C@@]1(C)N[C@H](c2ccc(OC)c(OC)c2)c2c1c([O-])n(-c1ccc(F)cc1)c2[O-] (chirality)
COC(=O)[C@@]1(C)N[C@H](c2ccc(OC)c(OC)c2)c2c1c([O-])n(-c1ccc(F)cc1)c2[O-] (3D coordinates assigned)
COC(=O)[C@@]1(C)N[C@H](c2ccc(OC)c(OC)c2)c2c1c([O-])n(-c1ccc(F)cc1)c2[O-] (nonaromatic ring conformer: 115.12183458244411 kcal/mol)

>  <smiles>  (41) 
COC(=O)C1(C)NC(c2ccc(OC)c(OC)c2)c2c1c(O)n(-c1ccc(F)cc1)c2O

>  <score_type>  (41) 
oracle

>  <origin>  (41) 
adg

>  <m_score__min__energy>  (41) 
-9.7400000000000002

>  <m_primary>  (41) 
energy

$$$$
41:0
     RDKit          3D

 46 48  0  0  0  0  0  0  0  0999 V2000
   -2.0670   18.5480  -26.6810 C   0  0  0  0  0  0  0  0  0  0  0  0
   -1.7970   19.9330  -27.1880 C   0  0  0  0  0  0  0  0  0  0  0  0
   -1.4710   20.9610  -26.2940 C   0  0  0  0  0  0  0  0  0  0  0  0
   -1.1860   22.2430  -26.7660 C   0  0  0  0  0  0  0  0  0  0  0  0
   -1.2240   22.5200  -28.1440 C   0  0  0  0  0  0  0  0  0  0  0  0
   -0.9070   23.8300  -28.6420 N   0  0  0  0  0  0  0  0  0  0  0  0
   -1.8450   24.8630  -28.9720 C   0  0  0  0  0  0  0  0  0  0  0  0
   -1.4550   26.0590  -28.9420 O   0  0  0  0  0  0  0  0  0  0  0  0
   -3.2150   24.5420  -29.4350 C   0  0  0  0  0  0  0  0  0  0  0  0
   -3.8470   23.6080  -28.8730 O   0  0  0  0  0  0  0  0  0  0  0  0
   -3.8540   25.2460  -30.5080 N   0  0  0  0  0  0  0  0  0  0  0  0
   -5.2010   25.8070  -30.4710 C   0  0  0  0  0  0  0  0  0  0  0  0
   -6.1710   24.8050  -29.8430 C   0  0  0  0  0  0  0  0  0  0  0  0
   -6.4780   23.6820  -30.7880 C   0  0  0  0  0  0  0  0  0  0  0  0
   -7.7710   23.3660  -31.1990 C   0  0  0  0  0  0  0  0  0  0  0  0
   -7.6710   22.0180  -32.1960 S   0  0  0  0  0  0  0  0  0  0  0  0
   -5.9950   21.8850  -32.0610 C   0  0  0  0  0  0  0  0  0  0  0  0
   -5.1510   20.8550  -32.7060 C   0  0  0  0  0  0  0  0  0  0  0  0
   -5.7320   19.6700  -33.1960 C   0  0  0  0  0  0  0  0  0  0  0  0
   -4.9410   18.6920  -33.8080 C   0  0  0  0  0  0  0  0  0  0  0  0
   -3.5640   18.8860  -33.9380 C   0  0  0  0  0  0  0  0  0  0  0  0
   -2.9760   20.0560  -33.4560 C   0  0  0  0  0  0  0  0  0  0  0  0
   -3.7620   21.0370  -32.8440 C   0  0  0  0  0  0  0  0  0  0  0  0
   -5.5040   22.8580  -31.2600 N   0  0  0  0  0  0  0  0  0  0  0  0
   -1.5050   21.4790  -29.0520 C   0  0  0  0  0  0  0  0  0  0  0  0
   -1.5160   21.7420  -30.5330 C   0  0  0  0  0  0  0  0  0  0  0  0
   -1.7940   20.1920  -28.5660 C   0  0  0  0  0  0  0  0  0  0  0  0
   -2.0659   18.5535  -25.5810 H   0  0  0  0  0  0  0  0  0  0  0  0
   -3.0481   18.2091  -27.0450 H   0  0  0  0  0  0  0  0  0  0  0  0
   -1.2850   17.8654  -27.0450 H   0  0  0  0  0  0  0  0  0  0  0  0
   -1.4395   20.7565  -25.2136 H   0  0  0  0  0  0  0  0  0  0  0  0
   -0.9298   23.0424  -26.0551 H   0  0  0  0  0  0  0  0  0  0  0  0
   -5.1942   26.7303  -29.8732 H   0  0  0  0  0  0  0  0  0  0  0  0
   -5.5270   26.0282  -31.4980 H   0  0  0  0  0  0  0  0  0  0  0  0
   -5.7184   24.3917  -28.9296 H   0  0  0  0  0  0  0  0  0  0  0  0
   -7.1093   25.3289  -29.6082 H   0  0  0  0  0  0  0  0  0  0  0  0
   -8.6905   23.9020  -30.9211 H   0  0  0  0  0  0  0  0  0  0  0  0
   -6.8161   19.5120  -33.0969 H   0  0  0  0  0  0  0  0  0  0  0  0
   -5.4040   17.7691  -34.1873 H   0  0  0  0  0  0  0  0  0  0  0  0
   -2.9432   18.1166  -34.4203 H   0  0  0  0  0  0  0  0  0  0  0  0
   -1.8912   20.2069  -33.5578 H   0  0  0  0  0  0  0  0  0  0  0  0
   -3.2917   21.9575  -32.4677 H   0  0  0  0  0  0  0  0  0  0  0  0
   -1.5614   22.8263  -30.7125 H   0  0  0  0  0  0  0  0  0  0  0  0
   -0.6000   21.3335  -30.9848 H   0  0  0  0  0  0  0  0  0  0  0  0
   -2.3947   21.2585  -30.9848 H   0  0  0  0  0  0  0  0  0  0  0  0
   -2.0199   19.3805  -29.2734 H   0  0  0  0  0  0  0  0  0  0  0  0
  1  2  1  0
  2  3  2  0
  3  4  1  0
  4  5  2  0
  5  6  1  0
  6  7  1  0
  7  8  2  0
  7  9  1  0
  9 10  2  0
  9 11  1  0
 11 12  1  0
 12 13  1  0
 13 14  1  0
 14 15  2  0
 15 16  1  0
 16 17  1  0
 17 18  1  0
 18 19  2  0
 19 20  1  0
 20 21  2  0
 21 22  1  0
 22 23  2  0
 17 24  2  0
  5 25  1  0
 25 26  1  0
 25 27  2  0
 27  2  1  0
 24 14  1  0
 23 18  1  0
  1 28  1  0
  1 29  1  0
  1 30  1  0
  3 31  1  0
  4 32  1  0
 12 33  1  0
 12 34  1  0
 13 35  1  0
 13 36  1  0
 15 37  1  0
 19 38  1  0
 20 39  1  0
 21 40  1  0
 22 41  1  0
 23 42  1  0
 26 43  1  0
 26 44  1  0
 26 45  1  0
 27 46  1  0
M  CHG  2   6  -1  11  -1
M  END
>  <UniqueID>  (42) 
40

>  <SMILES>  (42) 
Cc1ccc([N-]C(=O)C(=O)[N-]CCc2csc(-c3ccccc3)n2)c(C)c1

>  <Energy>  (42) 
79.59432078579914

>  <Genealogy>  (42) 
Cc1ccc([N-]C(=O)C(=O)[N-]CCc2csc(-c3ccccc3)n2)c(C)c1 (protonated)
Cc1ccc([N-]C(=O)C(=O)[N-]CCc2csc(-c3ccccc3)n2)c(C)c1 (3D coordinates assigned)
Cc1ccc([N-]C(=O)C(=O)[N-]CCc2csc(-c3ccccc3)n2)c(C)c1 (optimized conformer: 79.59432078579914 kcal/mol)

>  <smiles>  (42) 
Cc1ccc(NC(=O)C(=O)NCCc2csc(-c3ccccc3)n2)c(C)c1

>  <score_type>  (42) 
oracle

>  <origin>  (42) 
adg

>  <m_score__min__energy>  (42) 
-11.970000000000001

>  <m_primary>  (42) 
energy

$$$$
42:0
     RDKit          3D

 41 43  0  0  0  0  0  0  0  0999 V2000
   -4.7030   21.4310  -29.7020 H   0  0  0  0  0  0  0  0  0  0  0  0
   -4.4690   22.3240  -29.2140 N   0  0  0  0  0  0  0  0  0  0  0  0
   -4.4440   23.4640  -29.8300 C   0  0  0  0  0  0  0  0  0  0  0  0
   -5.2530   23.8510  -30.8740 C   0  0  0  0  0  0  0  0  0  0  0  0
   -6.3070   23.0780  -31.5470 C   0  0  0  0  0  0  0  0  0  0  0  0
   -7.0970   23.6610  -32.3380 O   0  0  0  0  0  0  0  0  0  0  0  0
   -6.4210   21.6690  -31.3210 N   0  0  0  0  0  0  0  0  0  0  0  0
   -6.0840   20.6610  -32.3180 C   0  0  0  0  0  0  0  0  0  0  0  0
   -6.4787   19.6857  -31.9970 H   0  0  0  0  0  0  0  0  0  0  0  0
   -6.5292   20.9461  -33.2826 H   0  0  0  0  0  0  0  0  0  0  0  0
   -4.6010   20.5670  -32.4730 C   0  0  0  0  0  0  0  0  0  0  0  0
   -3.7420   21.1990  -31.7070 O   0  0  0  0  0  0  0  0  0  0  0  0
   -2.5270   20.8910  -32.1000 C   0  0  0  0  0  0  0  0  0  0  0  0
   -1.5996   21.2723  -31.6478 H   0  0  0  0  0  0  0  0  0  0  0  0
   -2.5900   20.0160  -33.1670 C   0  0  0  0  0  0  0  0  0  0  0  0
   -1.7419   19.5776  -33.7134 H   0  0  0  0  0  0  0  0  0  0  0  0
   -3.9310   19.8030  -33.4090 C   0  0  0  0  0  0  0  0  0  0  0  0
   -4.3738   19.1602  -34.1840 H   0  0  0  0  0  0  0  0  0  0  0  0
   -4.8750   25.0960  -31.2320 N   0  0  0  0  0  0  0  0  0  0  0  0
   -3.8710   25.4460  -30.4350 N   0  0  0  0  0  0  0  0  0  0  0  0
   -3.5980   24.4780  -29.5720 N   0  0  0  0  0  0  0  0  0  0  0  0
   -2.4760   24.5070  -28.6360 C   0  0  0  0  0  0  0  0  0  0  0  0
   -2.1645   25.5487  -28.4695 H   0  0  0  0  0  0  0  0  0  0  0  0
   -2.7849   24.0589  -27.6801 H   0  0  0  0  0  0  0  0  0  0  0  0
   -1.3310   23.7290  -29.2040 C   0  0  0  0  0  0  0  0  0  0  0  0
   -0.1520   24.1510  -29.0600 O   0  0  0  0  0  0  0  0  0  0  0  0
   -1.5750   22.4780  -29.8590 N   0  0  0  0  0  0  0  0  0  0  0  0
   -2.5490   22.2610  -30.1690 H   0  0  0  0  0  0  0  0  0  0  0  0
   -0.6320   21.3690  -29.7560 C   0  0  0  0  0  0  0  0  0  0  0  0
   -0.6127   20.8145  -30.7058 H   0  0  0  0  0  0  0  0  0  0  0  0
    0.3729   21.7607  -29.5400 H   0  0  0  0  0  0  0  0  0  0  0  0
   -1.0610   20.4480  -28.6460 C   0  0  0  0  0  0  0  0  0  0  0  0
   -0.2520   19.3650  -28.2690 C   0  0  0  0  0  0  0  0  0  0  0  0
    0.7271   19.2184  -28.7484 H   0  0  0  0  0  0  0  0  0  0  0  0
   -0.6760   18.4960  -27.3120 N   0  0  0  0  0  0  0  0  0  0  0  0
   -1.8820   18.6380  -26.7010 C   0  0  0  0  0  0  0  0  0  0  0  0
   -2.1929   17.9221  -25.9259 H   0  0  0  0  0  0  0  0  0  0  0  0
   -2.7260   19.6910  -27.0560 C   0  0  0  0  0  0  0  0  0  0  0  0
   -3.7054   19.8063  -26.5687 H   0  0  0  0  0  0  0  0  0  0  0  0
   -2.3150   20.5970  -28.0360 C   0  0  0  0  0  0  0  0  0  0  0  0
   -2.9745   21.4271  -28.3293 H   0  0  0  0  0  0  0  0  0  0  0  0
  1  2  1  0
  2  3  2  0
  3  4  1  0
  4  5  1  0
  5  6  2  0
  5  7  1  0
  7  8  1  0
  8  9  1  0
  8 10  1  0
  8 11  1  0
 11 12  1  0
 12 13  1  0
 13 14  1  0
 13 15  2  0
 15 16  1  0
 15 17  1  0
 17 18  1  0
  4 19  2  0
 19 20  1  0
 20 21  1  0
 21 22  1  0
 22 23  1  0
 22 24  1  0
 22 25  1  0
 25 26  2  0
 25 27  1  0
 27 28  1  0
 27 29  1  0
 29 30  1  0
 29 31  1  0
 29 32  1  0
 32 33  2  0
 33 34  1  0
 33 35  1  0
 35 36  2  0
 36 37  1  0
 36 38  1  0
 38 39  1  0
 38 40  2  0
 40 41  1  0
 21  3  1  0
 40 32  1  0
 17 11  2  0
M  CHG  2   7  -1  20  -1
M  END
>  <UniqueID>  (43) 
41

>  <SMILES>  (43) 
[H]/N=c1/c(C(=O)[N-]Cc2ccco2)n[n-]n1CC(=O)NCc1cccnc1

>  <Energy>  (43) 
97.20417075724984

>  <Genealogy>  (43) 
N=c1c(C(=O)[N-]Cc2ccco2)n[n-]n1CC(=O)NCc1cccnc1 (protonated)
[H]/N=c1/c(C(=O)[N-]Cc2ccco2)n[n-]n1CC(=O)NCc1cccnc1 (cis-trans isomerization)
[H]/N=c1/c(C(=O)[N-]Cc2ccco2)n[n-]n1CC(=O)NCc1cccnc1 (3D coordinates assigned)
[H]/N=c1/c(C(=O)[N-]Cc2ccco2)n[n-]n1CC(=O)NCc1cccnc1 (optimized conformer: 97.20417075724984 kcal/mol)

>  <smiles>  (43) 
N=c1c(C(=O)NCc2ccco2)n[nH]n1CC(=O)NCc1cccnc1

>  <score_type>  (43) 
oracle

>  <origin>  (43) 
adg

>  <m_score__min__energy>  (43) 
-9.6300000000000008

>  <m_primary>  (43) 
energy

$$$$
43:0
     RDKit          3D

 41 43  0  0  0  0  0  0  0  0999 V2000
   -0.6410   22.1670  -26.7040 C   0  0  0  0  0  0  0  0  0  0  0  0
   -0.1970   21.3290  -27.9050 C   0  0  0  0  0  0  0  0  0  0  0  0
   -1.3170   21.0170  -28.8220 N   0  0  0  0  0  0  0  0  0  0  0  0
   -2.6420   20.9330  -28.1480 C   0  0  0  0  0  0  0  0  0  0  0  0
   -2.8120   19.7340  -27.2050 C   0  0  0  0  0  0  0  0  0  0  0  0
   -1.3010   21.9410  -29.9800 C   0  0  0  0  0  0  0  0  0  0  0  0
   -2.5010   21.7500  -30.8810 C   0  0  0  0  0  0  0  0  0  0  0  0
   -2.5470   20.5930  -31.6960 C   0  0  0  0  0  0  0  0  0  0  0  0
   -3.5740   20.4010  -32.6350 C   0  0  0  0  0  0  0  0  0  0  0  0
   -4.5750   21.3630  -32.7910 C   0  0  0  0  0  0  0  0  0  0  0  0
   -4.5250   22.4890  -31.9820 C   0  0  0  0  0  0  0  0  0  0  0  0
   -5.5470   23.7960  -31.9560 S   0  0  0  0  0  0  0  0  0  0  0  0
   -4.8240   24.6740  -30.7440 N   0  0  0  0  0  0  0  0  0  0  0  0
   -3.7510   23.9420  -30.3340 C   0  0  0  0  0  0  0  0  0  0  0  0
   -2.9710   24.3950  -29.2260 N   0  0  0  0  0  0  0  0  0  0  0  0
   -2.0010   25.2880  -29.3320 N   0  0  0  0  0  0  0  0  0  0  0  0
   -1.6330   25.6310  -28.0780 C   0  0  0  0  0  0  0  0  0  0  0  0
   -0.5610   26.6190  -27.7640 C   0  0  0  0  0  0  0  0  0  0  0  0
   -2.4150   24.9700  -27.1460 C   0  0  0  0  0  0  0  0  0  0  0  0
   -3.2620   24.2170  -27.9250 C   0  0  0  0  0  0  0  0  0  0  0  0
   -4.1940   23.4850  -27.4960 O   0  0  0  0  0  0  0  0  0  0  0  0
   -3.5420   22.7070  -31.0220 C   0  0  0  0  0  0  0  0  0  0  0  0
   -0.3663   21.6486  -25.7735 H   0  0  0  0  0  0  0  0  0  0  0  0
   -0.1443   23.1479  -26.7376 H   0  0  0  0  0  0  0  0  0  0  0  0
   -1.7315   22.3069  -26.7376 H   0  0  0  0  0  0  0  0  0  0  0  0
    0.5697   21.8881  -28.4615 H   0  0  0  0  0  0  0  0  0  0  0  0
    0.1970   20.3763  -27.5213 H   0  0  0  0  0  0  0  0  0  0  0  0
   -2.7859   21.8523  -27.5614 H   0  0  0  0  0  0  0  0  0  0  0  0
   -3.3872   20.8054  -28.9470 H   0  0  0  0  0  0  0  0  0  0  0  0
   -2.7632   20.0784  -26.1615 H   0  0  0  0  0  0  0  0  0  0  0  0
   -3.7866   19.2582  -27.3889 H   0  0  0  0  0  0  0  0  0  0  0  0
   -2.0081   19.0060  -27.3889 H   0  0  0  0  0  0  0  0  0  0  0  0
   -1.2992   22.9759  -29.6072 H   0  0  0  0  0  0  0  0  0  0  0  0
   -0.3981   21.7262  -30.5705 H   0  0  0  0  0  0  0  0  0  0  0  0
   -1.7625   19.8290  -31.5917 H   0  0  0  0  0  0  0  0  0  0  0  0
   -3.5901   19.4892  -33.2501 H   0  0  0  0  0  0  0  0  0  0  0  0
   -5.3775   21.2318  -33.5319 H   0  0  0  0  0  0  0  0  0  0  0  0
   -0.4580   26.7139  -26.6730 H   0  0  0  0  0  0  0  0  0  0  0  0
    0.3915   26.2755  -28.1937 H   0  0  0  0  0  0  0  0  0  0  0  0
   -0.8258   27.5964  -28.1937 H   0  0  0  0  0  0  0  0  0  0  0  0
   -2.3698   25.0321  -26.0487 H   0  0  0  0  0  0  0  0  0  0  0  0
  1  2  1  0
  2  3  1  0
  3  4  1  0
  4  5  1  0
  3  6  1  0
  6  7  1  0
  7  8  2  0
  8  9  1  0
  9 10  2  0
 10 11  1  0
 11 12  1  0
 12 13  1  0
 13 14  2  0
 14 15  1  0
 15 16  1  0
 16 17  1  0
 17 18  1  0
 17 19  2  0
 19 20  1  0
 20 21  2  0
 14 22  1  0
 22  7  1  0
 22 11  2  0
 20 15  1  0
  1 23  1  0
  1 24  1  0
  1 25  1  0
  2 26  1  0
  2 27  1  0
  4 28  1  0
  4 29  1  0
  5 30  1  0
  5 31  1  0
  5 32  1  0
  6 33  1  0
  6 34  1  0
  8 35  1  0
  9 36  1  0
 10 37  1  0
 18 38  1  0
 18 39  1  0
 18 40  1  0
 19 41  1  0
M  CHG  1  16  -1
M  END
>  <UniqueID>  (44) 
42

>  <SMILES>  (44) 
CCN(CC)Cc1cccc2snc(-n3[n-]c(C)cc3=O)c12

>  <Energy>  (44) 
121.65012338255224

>  <Genealogy>  (44) 
CCN(CC)Cc1cccc2snc(-n3[n-]c(C)cc3=O)c12 (protonated)
CCN(CC)Cc1cccc2snc(-n3[n-]c(C)cc3=O)c12 (3D coordinates assigned)
CCN(CC)Cc1cccc2snc(-n3[n-]c(C)cc3=O)c12 (optimized conformer: 121.65012338255224 kcal/mol)

>  <smiles>  (44) 
CCN(CC)Cc1cccc2snc(-n3[nH]c(C)cc3=O)c12

>  <score_type>  (44) 
oracle

>  <origin>  (44) 
adg

>  <m_score__min__energy>  (44) 
-8.5399999999999991

>  <m_primary>  (44) 
energy

$$$$
44:0
     RDKit          3D

 34 37  0  0  0  0  0  0  0  0999 V2000
   -4.9950   24.5150  -28.8970 C   0  0  0  0  0  0  0  0  0  0  0  0
   -5.7640   25.0450  -29.9360 C   0  0  0  0  0  0  0  0  0  0  0  0
   -5.7560   24.4360  -31.1940 C   0  0  0  0  0  0  0  0  0  0  0  0
   -4.9850   23.2840  -31.4220 C   0  0  0  0  0  0  0  0  0  0  0  0
   -4.9810   22.6840  -32.7280 N   0  0  0  0  0  0  0  0  0  0  0  0
   -4.8090   21.2790  -32.9520 C   0  0  0  0  0  0  0  0  0  0  0  0
   -5.7760   20.2880  -32.7980 C   0  0  0  0  0  0  0  0  0  0  0  0
   -7.2120   20.4680  -32.5020 C   0  0  0  0  0  0  0  0  0  0  0  0
   -8.2050   19.5110  -32.6820 C   0  0  0  0  0  0  0  0  0  0  0  0
   -9.4850   19.9670  -32.3450 C   0  0  0  0  0  0  0  0  0  0  0  0
   -9.5130   21.2830  -31.9060 C   0  0  0  0  0  0  0  0  0  0  0  0
   -7.9410   21.8770  -31.9380 S   0  0  0  0  0  0  0  0  0  0  0  0
   -5.1910   19.0830  -33.0070 N   0  0  0  0  0  0  0  0  0  0  0  0
   -3.9000   19.3650  -33.2650 C   0  0  0  0  0  0  0  0  0  0  0  0
   -2.8790   18.4510  -33.5150 C   0  0  0  0  0  0  0  0  0  0  0  0
   -1.6190   18.9350  -33.7090 N   0  0  0  0  0  0  0  0  0  0  0  0
   -1.3480   20.2750  -33.6570 C   0  0  0  0  0  0  0  0  0  0  0  0
   -2.3850   21.1850  -33.4000 C   0  0  0  0  0  0  0  0  0  0  0  0
   -3.6350   20.6810  -33.2320 N   0  0  0  0  0  0  0  0  0  0  0  0
   -4.2000   22.7670  -30.3730 C   0  0  0  0  0  0  0  0  0  0  0  0
   -4.2120   23.3790  -29.1160 C   0  0  0  0  0  0  0  0  0  0  0  0
   -5.0061   24.9924  -27.9061 H   0  0  0  0  0  0  0  0  0  0  0  0
   -6.3764   25.9424  -29.7638 H   0  0  0  0  0  0  0  0  0  0  0  0
   -6.3573   24.8615  -32.0109 H   0  0  0  0  0  0  0  0  0  0  0  0
   -5.0880   23.3000  -33.5650 H   0  0  0  0  0  0  0  0  0  0  0  0
   -8.0043   18.4951  -33.0529 H   0  0  0  0  0  0  0  0  0  0  0  0
  -10.3855   19.3399  -32.4212 H   0  0  0  0  0  0  0  0  0  0  0  0
  -10.4079   21.8403  -31.5919 H   0  0  0  0  0  0  0  0  0  0  0  0
   -5.6340   18.1380  -32.9770 H   0  0  0  0  0  0  0  0  0  0  0  0
   -3.0831   17.3708  -33.5547 H   0  0  0  0  0  0  0  0  0  0  0  0
   -0.3217   20.6376  -33.8160 H   0  0  0  0  0  0  0  0  0  0  0  0
   -2.1926   22.2662  -33.3370 H   0  0  0  0  0  0  0  0  0  0  0  0
   -3.5749   21.8781  -30.5434 H   0  0  0  0  0  0  0  0  0  0  0  0
   -3.6039   22.9653  -28.2981 H   0  0  0  0  0  0  0  0  0  0  0  0
  1  2  2  0
  2  3  1  0
  3  4  2  0
  4  5  1  0
  5  6  1  0
  6  7  2  0
  7  8  1  0
  8  9  2  0
  9 10  1  0
 10 11  2  0
 11 12  1  0
  7 13  1  0
 13 14  2  0
 14 15  1  0
 15 16  2  0
 16 17  1  0
 17 18  2  0
 18 19  1  0
  4 20  1  0
 20 21  2  0
 21  1  1  0
 19  6  1  0
 12  8  1  0
 19 14  1  0
  1 22  1  0
  2 23  1  0
  3 24  1  0
  5 25  1  0
  9 26  1  0
 10 27  1  0
 11 28  1  0
 13 29  1  0
 15 30  1  0
 17 31  1  0
 18 32  1  0
 20 33  1  0
 21 34  1  0
M  CHG  1  13   1
M  END
>  <UniqueID>  (45) 
43

>  <SMILES>  (45) 
c1ccc(Nc2c(-c3cccs3)[nH+]c3cnccn23)cc1

>  <Energy>  (45) 
110.33086693711533

>  <Genealogy>  (45) 
c1ccc(Nc2c(-c3cccs3)[nH+]c3cnccn23)cc1 (protonated)
c1ccc(Nc2c(-c3cccs3)[nH+]c3cnccn23)cc1 (3D coordinates assigned)
c1ccc(Nc2c(-c3cccs3)[nH+]c3cnccn23)cc1 (optimized conformer: 110.33086693711533 kcal/mol)

>  <smiles>  (45) 
c1ccc(Nc2c(-c3cccs3)nc3cnccn23)cc1

>  <score_type>  (45) 
oracle

>  <origin>  (45) 
adg

>  <m_score__min__energy>  (45) 
-6.9900000000000002

>  <m_primary>  (45) 
energy

$$$$
45:0
     RDKit          3D

 54 56  0  0  0  0  0  0  0  0999 V2000
   -4.1280   13.7660  -31.9930 C   0  0  0  0  0  0  0  0  0  0  0  0
   -3.7620   14.6370  -33.2070 C   0  0  0  0  0  0  0  0  0  0  0  0
   -4.6620   15.7990  -33.4250 N   0  0  1  0  0  0  0  0  0  0  0  0
   -5.7180   15.9110  -32.3730 C   0  0  0  0  0  0  0  0  0  0  0  0
   -5.6850   17.2420  -31.6160 C   0  0  0  0  0  0  0  0  0  0  0  0
   -5.7040   18.3510  -32.5760 N   0  0  0  0  0  0  0  0  0  0  0  0
   -6.6690   19.4060  -32.3840 C   0  0  0  0  0  0  0  0  0  0  0  0
   -8.0170   19.1490  -32.6720 C   0  0  0  0  0  0  0  0  0  0  0  0
   -8.9840   20.1350  -32.4860 C   0  0  0  0  0  0  0  0  0  0  0  0
   -8.6180   21.3890  -32.0010 C   0  0  0  0  0  0  0  0  0  0  0  0
   -7.2830   21.6620  -31.6800 C   0  0  0  0  0  0  0  0  0  0  0  0
   -6.9400   22.9630  -31.1850 N   0  0  0  0  0  0  0  0  0  0  0  0
   -7.1680   23.3680  -29.8120 C   0  0  0  0  0  0  0  0  0  0  0  0
   -6.6320   24.7890  -29.7190 C   0  0  0  0  0  0  0  0  0  0  0  0
   -5.7170   24.9730  -30.9300 C   0  0  0  0  0  0  0  0  0  0  0  0
   -6.1270   23.9020  -31.9340 C   0  0  0  0  0  0  0  0  0  0  0  0
   -6.2970   20.6610  -31.8380 C   0  0  0  0  0  0  0  0  0  0  0  0
   -4.8670   20.9520  -31.4490 C   0  0  0  0  0  0  0  0  0  0  0  0
   -4.8290   18.2990  -33.7700 C   0  0  0  0  0  0  0  0  0  0  0  0
   -5.6780   18.2250  -35.0580 C   0  0  0  0  0  0  0  0  0  0  0  0
   -3.9420   19.5600  -33.8350 C   0  0  0  0  0  0  0  0  0  0  0  0
   -3.9010   17.0520  -33.6770 C   0  0  0  0  0  0  0  0  0  0  0  0
   -3.8982   14.3129  -31.0667 H   0  0  0  0  0  0  0  0  0  0  0  0
   -5.2018   13.5291  -32.0221 H   0  0  0  0  0  0  0  0  0  0  0  0
   -3.5458   12.8332  -32.0221 H   0  0  0  0  0  0  0  0  0  0  0  0
   -2.7398   15.0165  -33.0619 H   0  0  0  0  0  0  0  0  0  0  0  0
   -3.8601   13.9943  -34.0943 H   0  0  0  0  0  0  0  0  0  0  0  0
   -5.1570   15.5780  -34.3220 H   0  0  0  0  0  0  0  0  0  0  0  0
   -6.7017   15.8081  -32.8543 H   0  0  0  0  0  0  0  0  0  0  0  0
   -5.5290   15.1150  -31.6377 H   0  0  0  0  0  0  0  0  0  0  0  0
   -6.5638   17.3115  -30.9580 H   0  0  0  0  0  0  0  0  0  0  0  0
   -4.7683   17.2968  -31.0104 H   0  0  0  0  0  0  0  0  0  0  0  0
   -8.3142   18.1591  -33.0486 H   0  0  0  0  0  0  0  0  0  0  0  0
  -10.0372   19.9232  -32.7223 H   0  0  0  0  0  0  0  0  0  0  0  0
   -9.3825   22.1689  -31.8696 H   0  0  0  0  0  0  0  0  0  0  0  0
   -8.2423   23.3451  -29.5768 H   0  0  0  0  0  0  0  0  0  0  0  0
   -6.6717   22.6946  -29.0977 H   0  0  0  0  0  0  0  0  0  0  0  0
   -7.4597   25.5128  -29.7516 H   0  0  0  0  0  0  0  0  0  0  0  0
   -6.0911   24.9552  -28.7757 H   0  0  0  0  0  0  0  0  0  0  0  0
   -5.8533   25.9749  -31.3631 H   0  0  0  0  0  0  0  0  0  0  0  0
   -4.6570   24.8791  -30.6516 H   0  0  0  0  0  0  0  0  0  0  0  0
   -6.7095   24.3464  -32.7544 H   0  0  0  0  0  0  0  0  0  0  0  0
   -5.2536   23.4135  -32.3906 H   0  0  0  0  0  0  0  0  0  0  0  0
   -4.7816   20.9694  -30.3525 H   0  0  0  0  0  0  0  0  0  0  0  0
   -4.2098   20.1692  -31.8556 H   0  0  0  0  0  0  0  0  0  0  0  0
   -4.5680   21.9294  -31.8556 H   0  0  0  0  0  0  0  0  0  0  0  0
   -6.7412   18.1323  -34.7915 H   0  0  0  0  0  0  0  0  0  0  0  0
   -5.5267   19.1397  -35.6499 H   0  0  0  0  0  0  0  0  0  0  0  0
   -5.3708   17.3502  -35.6499 H   0  0  0  0  0  0  0  0  0  0  0  0
   -3.7061   19.8954  -32.8143 H   0  0  0  0  0  0  0  0  0  0  0  0
   -3.0092   19.3250  -34.3685 H   0  0  0  0  0  0  0  0  0  0  0  0
   -4.4784   20.3585  -34.3685 H   0  0  0  0  0  0  0  0  0  0  0  0
   -3.3523   16.9480  -34.6247 H   0  0  0  0  0  0  0  0  0  0  0  0
   -3.2156   17.2052  -32.8304 H   0  0  0  0  0  0  0  0  0  0  0  0
  1  2  1  0
  2  3  1  0
  3  4  1  0
  4  5  1  0
  5  6  1  0
  6  7  1  0
  7  8  2  0
  8  9  1  0
  9 10  2  0
 10 11  1  0
 11 12  1  0
 12 13  1  0
 13 14  1  0
 14 15  1  0
 15 16  1  0
 11 17  2  0
 17 18  1  0
  6 19  1  0
 19 20  1  0
 19 21  1  0
 19 22  1  0
 22  3  1  0
 17  7  1  0
 16 12  1  0
  1 23  1  0
  1 24  1  0
  1 25  1  0
  2 26  1  0
  2 27  1  0
  3 28  1  6
  4 29  1  0
  4 30  1  0
  5 31  1  0
  5 32  1  0
  8 33  1  0
  9 34  1  0
 10 35  1  0
 13 36  1  0
 13 37  1  0
 14 38  1  0
 14 39  1  0
 15 40  1  0
 15 41  1  0
 16 42  1  0
 16 43  1  0
 18 44  1  0
 18 45  1  0
 18 46  1  0
 20 47  1  0
 20 48  1  0
 20 49  1  0
 21 50  1  0
 21 51  1  0
 21 52  1  0
 22 53  1  0
 22 54  1  0
M  CHG  1   3   1
M  END
>  <UniqueID>  (46) 
44

>  <SMILES>  (46) 
CC[N@H+]1CCN(c2cccc(N3CCCC3)c2C)C(C)(C)C1

>  <Energy>  (46) 
73.39523895337045

>  <Genealogy>  (46) 
CC[NH+]1CCN(c2cccc(N3CCCC3)c2C)C(C)(C)C1 (protonated)
CC[N@H+]1CCN(c2cccc(N3CCCC3)c2C)C(C)(C)C1 (chirality)
CC[N@H+]1CCN(c2cccc(N3CCCC3)c2C)C(C)(C)C1 (3D coordinates assigned)
CC[N@H+]1CCN(c2cccc(N3CCCC3)c2C)C(C)(C)C1 (nonaromatic ring conformer: 73.39523895337045 kcal/mol)

>  <smiles>  (46) 
CCN1CCN(c2cccc(N3CCCC3)c2C)C(C)(C)C1

>  <score_type>  (46) 
oracle

>  <origin>  (46) 
adg

>  <m_score__min__energy>  (46) 
-6.9299999999999997

>  <m_primary>  (46) 
energy

$$$$
46:0
     RDKit          3D

 48 49  0  0  1  0  0  0  0  0999 V2000
   -5.4150   25.9450  -30.4890 C   0  0  0  0  0  0  0  0  0  0  0  0
   -4.2330   25.2460  -30.7760 O   0  0  0  0  0  0  0  0  0  0  0  0
   -3.9280   24.1450  -29.9970 C   0  0  0  0  0  0  0  0  0  0  0  0
   -3.7430   24.2250  -28.6320 C   0  0  0  0  0  0  0  0  0  0  0  0
   -3.4380   23.1400  -27.8410 C   0  0  0  0  0  0  0  0  0  0  0  0
   -3.3180   21.9180  -28.4730 C   0  0  0  0  0  0  0  0  0  0  0  0
   -3.4900   21.7620  -29.8320 C   0  0  0  0  0  0  0  0  0  0  0  0
   -3.7940   22.8910  -30.5670 C   0  0  0  0  0  0  0  0  0  0  0  0
   -6.5820   19.5010  -33.7270 N   0  0  0  0  0  0  0  0  0  0  0  0
   -5.4000   19.9790  -33.5250 C   0  0  0  0  0  0  0  0  0  0  0  0
   -2.9130   21.0780  -33.0470 C   0  0  0  0  0  0  0  0  0  0  0  0
   -3.0430   19.8780  -33.7220 C   0  0  0  0  0  0  0  0  0  0  0  0
   -4.2720   19.3740  -33.9360 N   0  0  0  0  0  0  0  0  0  0  0  0
   -4.0630   21.7070  -32.6220 C   0  0  0  0  0  0  0  0  0  0  0  0
   -3.9900   22.8210  -31.9930 N   0  0  0  0  0  0  0  0  0  0  0  0
   -7.3170   18.9040  -32.5680 C   0  0  0  0  0  0  0  0  0  0  0  0
   -8.5980   19.5950  -32.3500 C   0  0  0  0  0  0  0  0  0  0  0  0
   -8.6830   20.6240  -31.2850 C   0  0  0  0  0  0  0  0  0  0  0  0
   -9.3730   21.9030  -31.4840 C   0  0  0  0  0  0  0  0  0  0  0  0
   -8.6460   22.9920  -32.1840 C   0  0  0  0  0  0  0  0  0  0  0  0
   -7.2790   23.1650  -31.4950 C   0  0  0  0  0  0  0  0  0  0  0  0
   -6.3920   23.7990  -32.4620 N   0  0  0  0  0  0  0  0  0  0  0  0
   -5.2780   21.1470  -32.8680 N   0  0  0  0  0  0  0  0  0  0  0  0
   -5.5413   26.0197  -29.3988 H   0  0  0  0  0  0  0  0  0  0  0  0
   -5.3581   26.9548  -30.9216 H   0  0  0  0  0  0  0  0  0  0  0  0
   -6.2724   25.4086  -30.9216 H   0  0  0  0  0  0  0  0  0  0  0  0
   -3.8446   25.2084  -28.1498 H   0  0  0  0  0  0  0  0  0  0  0  0
   -3.2964   23.2420  -26.7549 H   0  0  0  0  0  0  0  0  0  0  0  0
   -3.0752   21.0326  -27.8671 H   0  0  0  0  0  0  0  0  0  0  0  0
   -3.3891   20.7773  -30.3118 H   0  0  0  0  0  0  0  0  0  0  0  0
   -1.9226   21.5166  -32.8554 H   0  0  0  0  0  0  0  0  0  0  0  0
   -2.1518   19.3417  -34.0799 H   0  0  0  0  0  0  0  0  0  0  0  0
   -4.3280   18.4670  -34.4480 H   0  0  0  0  0  0  0  0  0  0  0  0
   -7.5110   17.8408  -32.7729 H   0  0  0  0  0  0  0  0  0  0  0  0
   -6.6991   19.0131  -31.6645 H   0  0  0  0  0  0  0  0  0  0  0  0
   -8.8651   20.0870  -33.2969 H   0  0  0  0  0  0  0  0  0  0  0  0
   -9.2742   18.7989  -32.0050 H   0  0  0  0  0  0  0  0  0  0  0  0
   -9.1764   20.1395  -30.4295 H   0  0  0  0  0  0  0  0  0  0  0  0
   -7.6344   20.9431  -31.1926 H   0  0  0  0  0  0  0  0  0  0  0  0
  -10.2847   21.6949  -32.0633 H   0  0  0  0  0  0  0  0  0  0  0  0
   -9.5280   22.2898  -30.4660 H   0  0  0  0  0  0  0  0  0  0  0  0
   -8.5010   22.7256  -33.2413 H   0  0  0  0  0  0  0  0  0  0  0  0
   -9.2206   23.9289  -32.1379 H   0  0  0  0  0  0  0  0  0  0  0  0
   -7.3829   23.8013  -30.6038 H   0  0  0  0  0  0  0  0  0  0  0  0
   -6.8768   22.1938  -31.1711 H   0  0  0  0  0  0  0  0  0  0  0  0
   -6.0190   23.0280  -33.0700 H   0  0  0  0  0  0  0  0  0  0  0  0
   -5.5950   24.2850  -31.9750 H   0  0  0  0  0  0  0  0  0  0  0  0
   -6.1340   21.6170  -32.5510 H   0  0  0  0  0  0  0  0  0  0  0  0
  1  2  1  0
  2  3  1  0
  3  4  2  0
  4  5  1  0
  5  6  2  0
  6  7  1  0
  7  8  2  0
  8  9  1  0
  9 10  2  0
 10 11  1  0
 11 12  2  0
 12 13  1  0
 13 14  1  0
 14 15  2  0
 15 16  1  0
 16 17  1  0
 17 18  1  0
 18 19  1  0
 19 20  1  0
 20 21  1  0
 21 22  1  0
 14 23  1  0
  8  3  1  0
 23 10  1  0
  1 24  1  0
  1 25  1  0
  1 26  1  0
  4 27  1  0
  5 28  1  0
  6 29  1  0
  7 30  1  0
 11 31  1  0
 12 32  1  0
 13 33  1  0
 16 34  1  0
 16 35  1  0
 17 36  1  0
 17 37  1  0
 18 38  1  0
 18 39  1  0
 19 40  1  0
 19 41  1  0
 20 42  1  0
 20 43  1  0
 21 44  1  0
 21 45  1  0
 22 46  1  0
 22 47  1  0
 23 48  1  0
M  END
>  <smiles>  (47) 
COc1ccccc1N=c1cc[nH]c(=NCCCCCCN)[nH]1

>  <score_type>  (47) 
oracle

>  <origin>  (47) 
adg

>  <m_score__min__energy>  (47) 
-7.29

>  <m_primary>  (47) 
energy

$$$$
