0:0
     RDKit          3D

 40 42  0  0  0  0  0  0  0  0999 V2000
   -8.4070   23.3210  -31.9720 C   0  0  0  0  0  0  0  0  0  0  0  0
   -7.5840   22.3580  -32.6230 O   0  0  0  0  0  0  0  0  0  0  0  0
   -7.5840   20.9820  -32.3350 C   0  0  0  0  0  0  0  0  0  0  0  0
   -8.7600   20.3050  -31.9560 C   0  0  0  0  0  0  0  0  0  0  0  0
   -8.7300   18.9350  -31.6840 C   0  0  0  0  0  0  0  0  0  0  0  0
   -7.5340   18.2260  -31.7900 C   0  0  0  0  0  0  0  0  0  0  0  0
   -6.3610   18.8850  -32.1630 C   0  0  0  0  0  0  0  0  0  0  0  0
   -6.3730   20.2650  -32.4280 C   0  0  0  0  0  0  0  0  0  0  0  0
   -5.0930   20.9630  -32.8230 C   0  0  0  0  0  0  0  0  0  0  0  0
   -5.1470   22.3850  -32.4740 N   0  0  0  0  0  0  0  0  0  0  0  0
   -4.7080   22.9300  -31.2150 C   0  0  0  0  0  0  0  0  0  0  0  0
   -5.6070   23.2030  -30.1710 C   0  0  0  0  0  0  0  0  0  0  0  0
   -5.1540   23.7380  -28.9630 C   0  0  0  0  0  0  0  0  0  0  0  0
   -3.7870   24.0100  -28.7660 C   0  0  0  0  0  0  0  0  0  0  0  0
   -3.2900   24.5540  -27.5570 C   0  0  0  0  0  0  0  0  0  0  0  0
   -4.1960   24.8830  -26.3980 C   0  0  0  0  0  0  0  0  0  0  0  0
   -1.9140   24.7950  -27.4340 C   0  0  0  0  0  0  0  0  0  0  0  0
   -1.0540   24.4990  -28.4930 C   0  0  0  0  0  0  0  0  0  0  0  0
    0.1810   24.7180  -28.3750 O   0  0  0  0  0  0  0  0  0  0  0  0
   -1.5430   23.9770  -29.6490 N   0  0  0  0  0  0  0  0  0  0  0  0
   -2.8740   23.7260  -29.8130 C   0  0  0  0  0  0  0  0  0  0  0  0
   -3.3430   23.1870  -31.0210 C   0  0  0  0  0  0  0  0  0  0  0  0
   -8.3109   23.2086  -30.8820 H   0  0  0  0  0  0  0  0  0  0  0  0
   -8.0901   24.3326  -32.2656 H   0  0  0  0  0  0  0  0  0  0  0  0
   -9.4556   23.1656  -32.2656 H   0  0  0  0  0  0  0  0  0  0  0  0
   -9.7072   20.8583  -31.8738 H   0  0  0  0  0  0  0  0  0  0  0  0
   -9.6519   18.4145  -31.3855 H   0  0  0  0  0  0  0  0  0  0  0  0
   -7.5146   17.1465  -31.5796 H   0  0  0  0  0  0  0  0  0  0  0  0
   -5.4211   18.3202  -32.2500 H   0  0  0  0  0  0  0  0  0  0  0  0
   -4.2490   20.4941  -32.2959 H   0  0  0  0  0  0  0  0  0  0  0  0
   -4.9629   20.8717  -33.9115 H   0  0  0  0  0  0  0  0  0  0  0  0
   -5.5980   23.0270  -33.1640 H   0  0  0  0  0  0  0  0  0  0  0  0
   -6.6784   22.9934  -30.3061 H   0  0  0  0  0  0  0  0  0  0  0  0
   -5.8727   23.9489  -28.1574 H   0  0  0  0  0  0  0  0  0  0  0  0
   -3.6669   24.6909  -25.4530 H   0  0  0  0  0  0  0  0  0  0  0  0
   -4.4846   25.9433  -26.4477 H   0  0  0  0  0  0  0  0  0  0  0  0
   -5.0977   24.2549  -26.4477 H   0  0  0  0  0  0  0  0  0  0  0  0
   -1.5117   25.2179  -26.5016 H   0  0  0  0  0  0  0  0  0  0  0  0
   -0.8750   23.7660  -30.4250 H   0  0  0  0  0  0  0  0  0  0  0  0
   -2.6294   22.9628  -31.8276 H   0  0  0  0  0  0  0  0  0  0  0  0
  1  2  1  0
  2  3  1  0
  3  4  2  0
  4  5  1  0
  5  6  2  0
  6  7  1  0
  7  8  2  0
  8  9  1  0
  9 10  1  0
 10 11  1  0
 11 12  2  0
 12 13  1  0
 13 14  2  0
 14 15  1  0
 15 16  1  0
 15 17  2  0
 17 18  1  0
 18 19  2  0
 18 20  1  0
 20 21  1  0
 21 22  2  0
  8  3  1  0
 22 11  1  0
 21 14  1  0
  1 23  1  0
  1 24  1  0
  1 25  1  0
  4 26  1  0
  5 27  1  0
  6 28  1  0
  7 29  1  0
  9 30  1  0
  9 31  1  0
 10 32  1  0
 12 33  1  0
 13 34  1  0
 16 35  1  0
 16 36  1  0
 16 37  1  0
 17 38  1  0
 20 39  1  0
 22 40  1  0
M  END
>  <UniqueID>  (1) 
1

>  <SMILES>  (1) 
COc1ccccc1CNc1ccc2c(C)cc(=O)[nH]c2c1

>  <Energy>  (1) 
46.465661967629245

>  <Genealogy>  (1) 
COc1ccccc1CNc1ccc2c(C)cc(=O)[nH]c2c1 (3D coordinates assigned)
COc1ccccc1CNc1ccc2c(C)cc(=O)[nH]c2c1 (optimized conformer: 46.465661967629245 kcal/mol)

>  <smiles>  (1) 
COc1ccccc1CNc1ccc2c(C)cc(=O)[nH]c2c1

>  <score_type>  (1) 
oracle

>  <origin>  (1) 
adg

>  <m_score__min__energy>  (1) 
-8.1500000000000004

>  <m_primary>  (1) 
energy

$$$$
1:0
     RDKit          3D

 35 37  0  0  0  0  0  0  0  0999 V2000
   -3.0890   20.5610  -32.9440 C   0  0  0  0  0  0  0  0  0  0  0  0
   -3.9280   19.8160  -33.8210 O   0  0  0  0  0  0  0  0  0  0  0  0
   -5.1780   19.2960  -33.4570 C   0  0  0  0  0  0  0  0  0  0  0  0
   -5.6030   17.9870  -33.7940 C   0  0  0  0  0  0  0  0  0  0  0  0
   -6.8790   17.5240  -33.3960 C   0  0  0  0  0  0  0  0  0  0  0  0
   -7.7430   18.3550  -32.6620 C   0  0  0  0  0  0  0  0  0  0  0  0
   -7.2970   19.6360  -32.3470 C   0  0  0  0  0  0  0  0  0  0  0  0
   -7.9040   20.6560  -31.6530 C   0  0  0  0  0  0  0  0  0  0  0  0
   -6.9690   21.6900  -31.6660 C   0  0  0  0  0  0  0  0  0  0  0  0
   -7.1610   23.0160  -31.0360 C   0  0  0  0  0  0  0  0  0  0  0  0
   -7.9900   23.8080  -31.5650 O   0  0  0  0  0  0  0  0  0  0  0  0
   -6.4100   23.4600  -29.8740 N   0  0  0  0  0  0  0  0  0  0  0  0
   -5.0270   22.9120  -29.8130 C   0  0  0  0  0  0  0  0  0  0  0  0
   -3.9580   24.0130  -29.7840 C   0  0  0  0  0  0  0  0  0  0  0  0
   -4.2200   24.9600  -30.7920 O   0  0  0  0  0  0  0  0  0  0  0  0
   -5.4030   25.6940  -30.5170 C   0  0  0  0  0  0  0  0  0  0  0  0
   -6.4840   24.9300  -29.7110 C   0  0  0  0  0  0  0  0  0  0  0  0
   -5.8810   21.3160  -32.3120 O   0  0  0  0  0  0  0  0  0  0  0  0
   -6.0640   20.0880  -32.7280 C   0  0  0  0  0  0  0  0  0  0  0  0
   -3.3505   20.3288  -31.9011 H   0  0  0  0  0  0  0  0  0  0  0  0
   -2.0379   20.2933  -33.1268 H   0  0  0  0  0  0  0  0  0  0  0  0
   -3.2305   21.6364  -33.1268 H   0  0  0  0  0  0  0  0  0  0  0  0
   -4.9366   17.3268  -34.3686 H   0  0  0  0  0  0  0  0  0  0  0  0
   -7.1976   16.5056  -33.6630 H   0  0  0  0  0  0  0  0  0  0  0  0
   -8.7373   18.0054  -32.3472 H   0  0  0  0  0  0  0  0  0  0  0  0
   -8.9025   20.6561  -31.1915 H   0  0  0  0  0  0  0  0  0  0  0  0
   -6.9110   23.0660  -29.0400 H   0  0  0  0  0  0  0  0  0  0  0  0
   -4.9294   22.3018  -28.9030 H   0  0  0  0  0  0  0  0  0  0  0  0
   -4.8649   22.3133  -30.7214 H   0  0  0  0  0  0  0  0  0  0  0  0
   -3.9729   24.5105  -28.8030 H   0  0  0  0  0  0  0  0  0  0  0  0
   -2.9692   23.5632  -29.9570 H   0  0  0  0  0  0  0  0  0  0  0  0
   -5.1217   26.5898  -29.9440 H   0  0  0  0  0  0  0  0  0  0  0  0
   -5.8550   25.9198  -31.4941 H   0  0  0  0  0  0  0  0  0  0  0  0
   -6.3580   25.1693  -28.6448 H   0  0  0  0  0  0  0  0  0  0  0  0
   -7.4632   25.2505  -30.0963 H   0  0  0  0  0  0  0  0  0  0  0  0
  1  2  1  0
  2  3  1  0
  3  4  2  0
  4  5  1  0
  5  6  2  0
  6  7  1  0
  7  8  1  0
  8  9  2  0
  9 10  1  0
 10 11  2  0
 10 12  1  0
 12 13  1  0
 13 14  1  0
 14 15  1  0
 15 16  1  0
 16 17  1  0
  9 18  1  0
 18 19  1  0
 19  3  1  0
 19  7  2  0
 17 12  1  0
  1 20  1  0
  1 21  1  0
  1 22  1  0
  4 23  1  0
  5 24  1  0
  6 25  1  0
  8 26  1  0
 12 27  1  0
 13 28  1  0
 13 29  1  0
 14 30  1  0
 14 31  1  0
 16 32  1  0
 16 33  1  0
 17 34  1  0
 17 35  1  0
M  CHG  1  12   1
M  END
>  <UniqueID>  (2) 
2

>  <SMILES>  (2) 
COc1cccc2cc(C(=O)[NH+]3CCOCC3)oc12

>  <Energy>  (2) 
85.33415704462267

>  <Genealogy>  (2) 
COc1cccc2cc(C(=O)[NH+]3CCOCC3)oc12 (protonated)
COc1cccc2cc(C(=O)[NH+]3CCOCC3)oc12 (3D coordinates assigned)
COc1cccc2cc(C(=O)[NH+]3CCOCC3)oc12 (nonaromatic ring conformer: 85.33415704462267 kcal/mol)

>  <smiles>  (2) 
COc1cccc2cc(C(=O)N3CCOCC3)oc12

>  <score_type>  (2) 
oracle

>  <origin>  (2) 
adg

>  <m_score__min__energy>  (2) 
-6.5499999999999998

>  <m_primary>  (2) 
energy

$$$$
2:0
     RDKit          3D

 44 47  0  0  0  0  0  0  0  0999 V2000
   -5.8992   25.1475  -31.3003 H   0  0  0  0  0  0  0  0  0  0  0  0
   -5.1590   24.9070  -30.5230 C   0  0  0  0  0  0  0  0  0  0  0  0
   -3.8650   25.3190  -30.5950 N   0  0  0  0  0  0  0  0  0  0  0  0
   -3.1530   24.8990  -29.5250 C   0  0  0  0  0  0  0  0  0  0  0  0
   -1.8930   25.1560  -29.3330 N   0  0  0  0  0  0  0  0  0  0  0  0
   -1.0030   24.4360  -28.4640 C   0  0  0  0  0  0  0  0  0  0  0  0
   -0.0390   25.0260  -27.9060 O   0  0  0  0  0  0  0  0  0  0  0  0
   -1.2070   22.9850  -28.2440 C   0  0  0  0  0  0  0  0  0  0  0  0
   -1.2460   22.4830  -26.9290 C   0  0  0  0  0  0  0  0  0  0  0  0
   -1.0916   23.1657  -26.0804 H   0  0  0  0  0  0  0  0  0  0  0  0
   -1.4790   21.1260  -26.6920 C   0  0  0  0  0  0  0  0  0  0  0  0
   -1.5071   20.7460  -25.6601 H   0  0  0  0  0  0  0  0  0  0  0  0
   -1.6760   20.2520  -27.7610 C   0  0  0  0  0  0  0  0  0  0  0  0
   -1.8692   19.1859  -27.5712 H   0  0  0  0  0  0  0  0  0  0  0  0
   -1.6280   20.7300  -29.0720 C   0  0  0  0  0  0  0  0  0  0  0  0
   -1.7850   20.0380  -29.9125 H   0  0  0  0  0  0  0  0  0  0  0  0
   -1.3810   22.0860  -29.3230 C   0  0  0  0  0  0  0  0  0  0  0  0
   -1.2940   22.5110  -30.6500 O   0  0  0  0  0  0  0  0  0  0  0  0
   -1.3000   21.5780  -31.7250 C   0  0  0  0  0  0  0  0  0  0  0  0
   -0.7567   20.6698  -31.4250 H   0  0  0  0  0  0  0  0  0  0  0  0
   -0.8099   22.0265  -32.6017 H   0  0  0  0  0  0  0  0  0  0  0  0
   -2.7110   21.2230  -32.0710 C   0  0  0  0  0  0  0  0  0  0  0  0
   -4.0630   21.7950  -31.2510 S   0  0  0  0  0  0  0  0  0  0  0  0
   -5.1590   21.0440  -32.2900 C   0  0  0  0  0  0  0  0  0  0  0  0
   -6.6340   21.1030  -32.1820 C   0  0  0  0  0  0  0  0  0  0  0  0
   -7.4290   19.9820  -32.4870 C   0  0  0  0  0  0  0  0  0  0  0  0
   -6.9519   19.0446  -32.8090 H   0  0  0  0  0  0  0  0  0  0  0  0
   -8.8220   20.0530  -32.3830 C   0  0  0  0  0  0  0  0  0  0  0  0
   -9.4356   19.1722  -32.6233 H   0  0  0  0  0  0  0  0  0  0  0  0
   -9.4360   21.2390  -31.9750 C   0  0  0  0  0  0  0  0  0  0  0  0
  -10.5318   21.2921  -31.8954 H   0  0  0  0  0  0  0  0  0  0  0  0
   -8.6580   22.3580  -31.6680 C   0  0  0  0  0  0  0  0  0  0  0  0
   -9.1416   23.2917  -31.3450 H   0  0  0  0  0  0  0  0  0  0  0  0
   -7.2650   22.2920  -31.7710 C   0  0  0  0  0  0  0  0  0  0  0  0
   -6.6575   23.1765  -31.5288 H   0  0  0  0  0  0  0  0  0  0  0  0
   -4.5080   20.3740  -33.2700 N   0  0  0  0  0  0  0  0  0  0  0  0
   -3.1550   20.4650  -33.1570 C   0  0  0  0  0  0  0  0  0  0  0  0
   -2.2510   19.8460  -34.1750 C   0  0  0  0  0  0  0  0  0  0  0  0
   -1.4469   19.2954  -33.6648 H   0  0  0  0  0  0  0  0  0  0  0  0
   -2.8280   19.1526  -34.8045 H   0  0  0  0  0  0  0  0  0  0  0  0
   -1.8132   20.6347  -34.8045 H   0  0  0  0  0  0  0  0  0  0  0  0
   -4.0890   24.0100  -28.4540 S   0  0  0  0  0  0  0  0  0  0  0  0
   -5.4780   24.1590  -29.3940 C   0  0  0  0  0  0  0  0  0  0  0  0
   -6.4662   23.7380  -29.1567 H   0  0  0  0  0  0  0  0  0  0  0  0
  1  2  1  0
  2  3  1  0
  3  4  1  0
  4  5  2  0
  5  6  1  0
  6  7  2  0
  6  8  1  0
  8  9  2  0
  9 10  1  0
  9 11  1  0
 11 12  1  0
 11 13  2  0
 13 14  1  0
 13 15  1  0
 15 16  1  0
 15 17  2  0
 17 18  1  0
 18 19  1  0
 19 20  1  0
 19 21  1  0
 19 22  1  0
 22 23  1  0
 23 24  1  0
 24 25  1  0
 25 26  2  0
 26 27  1  0
 26 28  1  0
 28 29  1  0
 28 30  2  0
 30 31  1  0
 30 32  1  0
 32 33  1  0
 32 34  2  0
 34 35  1  0
 24 36  2  0
 36 37  1  0
 37 38  1  0
 38 39  1  0
 38 40  1  0
 38 41  1  0
  4 42  1  0
 42 43  1  0
 43 44  1  0
 43  2  2  0
 17  8  1  0
 37 22  2  0
 34 25  1  0
M  CHG  1   3  -1
M  END
>  <UniqueID>  (3) 
3

>  <SMILES>  (3) 
Cc1nc(-c2ccccc2)sc1COc1ccccc1C(=O)/N=c1\[n-]ccs1

>  <Energy>  (3) 
117.72737048991594

>  <Genealogy>  (3) 
Cc1nc(-c2ccccc2)sc1COc1ccccc1C(=O)N=c1[n-]ccs1 (protonated)
Cc1nc(-c2ccccc2)sc1COc1ccccc1C(=O)/N=c1\[n-]ccs1 (cis-trans isomerization)
Cc1nc(-c2ccccc2)sc1COc1ccccc1C(=O)/N=c1\[n-]ccs1 (3D coordinates assigned)
Cc1nc(-c2ccccc2)sc1COc1ccccc1C(=O)/N=c1\[n-]ccs1 (optimized conformer: 117.72737048991594 kcal/mol)

>  <smiles>  (3) 
Cc1nc(-c2ccccc2)sc1COc1ccccc1C(=O)N=c1[nH]ccs1

>  <score_type>  (3) 
oracle

>  <origin>  (3) 
adg

>  <m_score__min__energy>  (3) 
-11.27

>  <m_primary>  (3) 
energy

$$$$
3:0
     RDKit          3D

 60 62  0  0  0  0  0  0  0  0999 V2000
   -1.3770   20.4820  -29.0020 C   0  0  0  0  0  0  0  0  0  0  0  0
   -0.2610   20.2130  -30.0120 C   0  0  0  0  0  0  0  0  0  0  0  0
   -0.7800   20.1130  -31.3980 N   0  0  0  0  0  0  0  0  0  0  0  0
   -0.7160   21.4390  -32.0540 C   0  0  0  0  0  0  0  0  0  0  0  0
   -1.6290   21.4950  -33.2780 C   0  0  0  0  0  0  0  0  0  0  0  0
   -0.0560   19.0760  -32.1840 C   0  0  0  0  0  0  0  0  0  0  0  0
   -1.0520   18.1620  -32.9040 C   0  0  0  0  0  0  0  0  0  0  0  0
   -2.4280   18.5100  -32.5500 N   0  0  0  0  0  0  0  0  0  0  0  0
   -3.5270   18.4310  -33.4750 C   0  0  0  0  0  0  0  0  0  0  0  0
   -3.5300   17.4540  -34.4890 C   0  0  0  0  0  0  0  0  0  0  0  0
   -4.6240   17.3260  -35.3460 C   0  0  0  0  0  0  0  0  0  0  0  0
   -5.7320   18.1580  -35.1960 C   0  0  0  0  0  0  0  0  0  0  0  0
   -5.7420   19.1320  -34.1960 C   0  0  0  0  0  0  0  0  0  0  0  0
   -4.6380   19.2940  -33.3490 C   0  0  0  0  0  0  0  0  0  0  0  0
   -4.7210   20.5790  -32.0880 S   0  0  0  0  0  0  0  0  0  0  0  0
   -6.5240   20.6300  -31.9750 C   0  0  0  0  0  0  0  0  0  0  0  0
   -7.1760   19.4380  -31.6250 C   0  0  0  0  0  0  0  0  0  0  0  0
   -8.5680   19.3660  -31.5960 C   0  0  0  0  0  0  0  0  0  0  0  0
   -9.3310   20.4740  -31.9540 C   0  0  0  0  0  0  0  0  0  0  0  0
   -8.7040   21.6580  -32.3370 C   0  0  0  0  0  0  0  0  0  0  0  0
   -7.2980   21.7660  -32.3400 C   0  0  0  0  0  0  0  0  0  0  0  0
   -6.6920   23.0310  -32.7010 N   0  0  0  0  0  0  0  0  0  0  0  0
   -6.7120   23.9780  -31.5690 C   0  0  0  0  0  0  0  0  0  0  0  0
   -5.4620   23.8890  -30.7320 C   0  0  0  0  0  0  0  0  0  0  0  0
   -5.4740   24.2590  -29.3790 C   0  0  0  0  0  0  0  0  0  0  0  0
   -4.2910   24.1850  -28.6380 C   0  0  0  0  0  0  0  0  0  0  0  0
   -3.1170   23.7440  -29.2490 C   0  0  0  0  0  0  0  0  0  0  0  0
   -3.1410   23.3840  -30.5980 C   0  0  0  0  0  0  0  0  0  0  0  0
   -4.3010   23.4660  -31.3050 N   0  0  0  0  0  0  0  0  0  0  0  0
   -0.9786   20.3860  -27.9812 H   0  0  0  0  0  0  0  0  0  0  0  0
   -1.7672   21.4999  -29.1491 H   0  0  0  0  0  0  0  0  0  0  0  0
   -2.1881   19.7536  -29.1491 H   0  0  0  0  0  0  0  0  0  0  0  0
    0.4678   21.0356  -29.9639 H   0  0  0  0  0  0  0  0  0  0  0  0
    0.2074   19.2518  -29.7537 H   0  0  0  0  0  0  0  0  0  0  0  0
   -1.0312   22.2102  -31.3357 H   0  0  0  0  0  0  0  0  0  0  0  0
    0.3187   21.6150  -32.3831 H   0  0  0  0  0  0  0  0  0  0  0  0
   -2.6773   21.5593  -32.9509 H   0  0  0  0  0  0  0  0  0  0  0  0
   -1.3785   22.3795  -33.8821 H   0  0  0  0  0  0  0  0  0  0  0  0
   -1.4885   20.5865  -33.8821 H   0  0  0  0  0  0  0  0  0  0  0  0
    0.5877   19.5683  -32.9278 H   0  0  0  0  0  0  0  0  0  0  0  0
    0.5548   18.4698  -31.4988 H   0  0  0  0  0  0  0  0  0  0  0  0
   -0.9208   18.2712  -33.9907 H   0  0  0  0  0  0  0  0  0  0  0  0
   -0.8616   17.1230  -32.5972 H   0  0  0  0  0  0  0  0  0  0  0  0
   -2.5940   18.9160  -31.6030 H   0  0  0  0  0  0  0  0  0  0  0  0
   -2.6635   16.7866  -34.6065 H   0  0  0  0  0  0  0  0  0  0  0  0
   -4.6117   16.5666  -36.1418 H   0  0  0  0  0  0  0  0  0  0  0  0
   -6.5980   18.0473  -35.8651 H   0  0  0  0  0  0  0  0  0  0  0  0
   -6.6240   19.7776  -34.0721 H   0  0  0  0  0  0  0  0  0  0  0  0
   -6.5811   18.5486  -31.3701 H   0  0  0  0  0  0  0  0  0  0  0  0
   -9.0638   18.4330  -31.2900 H   0  0  0  0  0  0  0  0  0  0  0  0
  -10.4292   20.4148  -31.9345 H   0  0  0  0  0  0  0  0  0  0  0  0
   -9.3146   22.5209  -32.6414 H   0  0  0  0  0  0  0  0  0  0  0  0
   -5.7030   22.8920  -33.0080 H   0  0  0  0  0  0  0  0  0  0  0  0
   -7.1940   23.4350  -33.5260 H   0  0  0  0  0  0  0  0  0  0  0  0
   -6.8021   25.0007  -31.9639 H   0  0  0  0  0  0  0  0  0  0  0  0
   -7.5677   23.7204  -30.9276 H   0  0  0  0  0  0  0  0  0  0  0  0
   -6.4051   24.6040  -28.9058 H   0  0  0  0  0  0  0  0  0  0  0  0
   -4.2858   24.4736  -27.5765 H   0  0  0  0  0  0  0  0  0  0  0  0
   -2.1815   23.6805  -28.6738 H   0  0  0  0  0  0  0  0  0  0  0  0
   -2.2214   23.0338  -31.0897 H   0  0  0  0  0  0  0  0  0  0  0  0
  1  2  1  0
  2  3  1  0
  3  4  1  0
  4  5  1  0
  3  6  1  0
  6  7  1  0
  7  8  1  0
  8  9  1  0
  9 10  2  0
 10 11  1  0
 11 12  2  0
 12 13  1  0
 13 14  2  0
 14 15  1  0
 15 16  1  0
 16 17  2  0
 17 18  1  0
 18 19  2  0
 19 20  1  0
 20 21  2  0
 21 22  1  0
 22 23  1  0
 23 24  1  0
 24 25  2  0
 25 26  1  0
 26 27  2  0
 27 28  1  0
 28 29  2  0
 14  9  1  0
 21 16  1  0
 29 24  1  0
  1 30  1  0
  1 31  1  0
  1 32  1  0
  2 33  1  0
  2 34  1  0
  4 35  1  0
  4 36  1  0
  5 37  1  0
  5 38  1  0
  5 39  1  0
  6 40  1  0
  6 41  1  0
  7 42  1  0
  7 43  1  0
  8 44  1  0
 10 45  1  0
 11 46  1  0
 12 47  1  0
 13 48  1  0
 17 49  1  0
 18 50  1  0
 19 51  1  0
 20 52  1  0
 22 53  1  0
 22 54  1  0
 23 55  1  0
 23 56  1  0
 25 57  1  0
 26 58  1  0
 27 59  1  0
 28 60  1  0
M  CHG  1  22   1
M  END
>  <UniqueID>  (4) 
4

>  <SMILES>  (4) 
CCN(CC)CCNc1ccccc1Sc1ccccc1[NH2+]Cc1ccccn1

>  <Energy>  (4) 
61.28695440382605

>  <Genealogy>  (4) 
CCN(CC)CCNc1ccccc1Sc1ccccc1[NH2+]Cc1ccccn1 (protonated)
CCN(CC)CCNc1ccccc1Sc1ccccc1[NH2+]Cc1ccccn1 (3D coordinates assigned)
CCN(CC)CCNc1ccccc1Sc1ccccc1[NH2+]Cc1ccccn1 (optimized conformer: 61.28695440382605 kcal/mol)

>  <smiles>  (4) 
CCN(CC)CCNc1ccccc1Sc1ccccc1NCc1ccccn1

>  <score_type>  (4) 
oracle

>  <origin>  (4) 
adg

>  <m_score__min__energy>  (4) 
-7.8899999999999997

>  <m_primary>  (4) 
energy

$$$$
4:0
     RDKit          3D

 57 60  0  0  0  0  0  0  0  0999 V2000
   -8.7520   23.0320  -32.0120 C   0  0  0  0  0  0  0  0  0  0  0  0
   -7.4450   22.5820  -32.3550 O   0  0  0  0  0  0  0  0  0  0  0  0
   -6.2620   22.9980  -31.7200 C   0  0  0  0  0  0  0  0  0  0  0  0
   -6.2430   24.1220  -30.8720 C   0  0  0  0  0  0  0  0  0  0  0  0
   -5.0650   24.5110  -30.2390 C   0  0  0  0  0  0  0  0  0  0  0  0
   -3.8890   23.7940  -30.4440 C   0  0  0  0  0  0  0  0  0  0  0  0
   -3.8750   22.6740  -31.2880 C   0  0  0  0  0  0  0  0  0  0  0  0
   -2.5970   21.9570  -31.4830 C   0  0  0  0  0  0  0  0  0  0  0  0
   -2.1270   21.8200  -32.7190 O   0  0  0  0  0  0  0  0  0  0  0  0
   -1.0020   21.1760  -32.9970 C   0  0  0  0  0  0  0  0  0  0  0  0
   -0.5790   21.0670  -34.3260 C   0  0  0  0  0  0  0  0  0  0  0  0
    0.6040   20.3910  -34.6340 C   0  0  0  0  0  0  0  0  0  0  0  0
    1.3710   19.8210  -33.6150 C   0  0  0  0  0  0  0  0  0  0  0  0
    0.9580   19.9230  -32.2820 C   0  0  0  0  0  0  0  0  0  0  0  0
   -0.2330   20.6020  -31.9620 C   0  0  0  0  0  0  0  0  0  0  0  0
   -0.6910   20.7290  -30.6380 C   0  0  0  0  0  0  0  0  0  0  0  0
   -0.0220   20.2270  -29.6950 O   0  0  0  0  0  0  0  0  0  0  0  0
   -1.8990   21.4170  -30.3850 C   0  0  0  0  0  0  0  0  0  0  0  0
   -2.4580   21.5770  -29.1010 O   0  0  0  0  0  0  0  0  0  0  0  0
   -2.7370   20.5370  -28.1700 C   0  0  0  0  0  0  0  0  0  0  0  0
   -5.0710   22.2630  -31.9340 C   0  0  0  0  0  0  0  0  0  0  0  0
   -5.0970   21.0180  -32.8140 C   0  0  0  0  0  0  0  0  0  0  0  0
   -6.3460   20.2270  -32.6420 N   0  0  0  0  0  0  0  0  0  0  0  0
   -6.1450   19.2040  -31.5860 C   0  0  0  0  0  0  0  0  0  0  0  0
   -6.8710   17.8710  -31.8620 C   0  0  0  0  0  0  0  0  0  0  0  0
   -6.1170   16.8610  -32.7620 C   0  0  0  0  0  0  0  0  0  0  0  0
   -6.1450   17.1790  -34.2670 C   0  0  0  0  0  0  0  0  0  0  0  0
   -5.9170   18.6640  -34.6270 C   0  0  0  0  0  0  0  0  0  0  0  0
   -6.8470   19.6880  -33.9360 C   0  0  0  0  0  0  0  0  0  0  0  0
   -8.8523   23.0665  -30.9171 H   0  0  0  0  0  0  0  0  0  0  0  0
   -8.9142   24.0377  -32.4270 H   0  0  0  0  0  0  0  0  0  0  0  0
   -9.4990   22.3393  -32.4270 H   0  0  0  0  0  0  0  0  0  0  0  0
   -7.1660   24.6975  -30.7082 H   0  0  0  0  0  0  0  0  0  0  0  0
   -5.0636   25.3878  -29.5747 H   0  0  0  0  0  0  0  0  0  0  0  0
   -2.9634   24.1087  -29.9398 H   0  0  0  0  0  0  0  0  0  0  0  0
   -1.1799   21.5151  -35.1311 H   0  0  0  0  0  0  0  0  0  0  0  0
    0.9321   20.3074  -35.6806 H   0  0  0  0  0  0  0  0  0  0  0  0
    2.3025   19.2903  -33.8613 H   0  0  0  0  0  0  0  0  0  0  0  0
    1.5648   19.4720  -31.4830 H   0  0  0  0  0  0  0  0  0  0  0  0
   -2.6331   20.9242  -27.1457 H   0  0  0  0  0  0  0  0  0  0  0  0
   -3.7642   20.1743  -28.3224 H   0  0  0  0  0  0  0  0  0  0  0  0
   -2.0293   19.7088  -28.3224 H   0  0  0  0  0  0  0  0  0  0  0  0
   -5.0172   21.3277  -33.8665 H   0  0  0  0  0  0  0  0  0  0  0  0
   -4.2522   20.3795  -32.5163 H   0  0  0  0  0  0  0  0  0  0  0  0
   -7.0910   20.8690  -32.2840 H   0  0  0  0  0  0  0  0  0  0  0  0
   -5.0673   19.0006  -31.5013 H   0  0  0  0  0  0  0  0  0  0  0  0
   -6.5711   19.6140  -30.6585 H   0  0  0  0  0  0  0  0  0  0  0  0
   -7.0595   17.3837  -30.8940 H   0  0  0  0  0  0  0  0  0  0  0  0
   -7.7826   18.1390  -32.4161 H   0  0  0  0  0  0  0  0  0  0  0  0
   -5.0659   16.8354  -32.4388 H   0  0  0  0  0  0  0  0  0  0  0  0
   -6.6360   15.8984  -32.6430 H   0  0  0  0  0  0  0  0  0  0  0  0
   -5.3584   16.5852  -34.7555 H   0  0  0  0  0  0  0  0  0  0  0  0
   -7.1592   16.9318  -34.6137 H   0  0  0  0  0  0  0  0  0  0  0  0
   -4.8809   18.9184  -34.3590 H   0  0  0  0  0  0  0  0  0  0  0  0
   -6.1413   18.7428  -35.7010 H   0  0  0  0  0  0  0  0  0  0  0  0
   -6.9921   20.5341  -34.6237 H   0  0  0  0  0  0  0  0  0  0  0  0
   -7.7760   19.1474  -33.7022 H   0  0  0  0  0  0  0  0  0  0  0  0
  1  2  1  0
  2  3  1  0
  3  4  2  0
  4  5  1  0
  5  6  2  0
  6  7  1  0
  7  8  1  0
  8  9  1  0
  9 10  1  0
 10 11  2  0
 11 12  1  0
 12 13  2  0
 13 14  1  0
 14 15  2  0
 15 16  1  0
 16 17  2  0
 16 18  1  0
 18 19  1  0
 19 20  1  0
  7 21  2  0
 21 22  1  0
 22 23  1  0
 23 24  1  0
 24 25  1  0
 25 26  1  0
 26 27  1  0
 27 28  1  0
 28 29  1  0
 21  3  1  0
 29 23  1  0
 18  8  2  0
 15 10  1  0
  1 30  1  0
  1 31  1  0
  1 32  1  0
  4 33  1  0
  5 34  1  0
  6 35  1  0
 11 36  1  0
 12 37  1  0
 13 38  1  0
 14 39  1  0
 20 40  1  0
 20 41  1  0
 20 42  1  0
 22 43  1  0
 22 44  1  0
 23 45  1  0
 24 46  1  0
 24 47  1  0
 25 48  1  0
 25 49  1  0
 26 50  1  0
 26 51  1  0
 27 52  1  0
 27 53  1  0
 28 54  1  0
 28 55  1  0
 29 56  1  0
 29 57  1  0
M  CHG  1  23   1
M  END
>  <UniqueID>  (5) 
5

>  <SMILES>  (5) 
COc1cccc(-c2oc3ccccc3c(=O)c2OC)c1C[NH+]1CCCCCC1

>  <Energy>  (5) 
89.39646345619288

>  <Genealogy>  (5) 
COc1cccc(-c2oc3ccccc3c(=O)c2OC)c1C[NH+]1CCCCCC1 (protonated)
COc1cccc(-c2oc3ccccc3c(=O)c2OC)c1C[NH+]1CCCCCC1 (3D coordinates assigned)
COc1cccc(-c2oc3ccccc3c(=O)c2OC)c1C[NH+]1CCCCCC1 (nonaromatic ring conformer: 89.39646345619288 kcal/mol)

>  <smiles>  (5) 
COc1cccc(-c2oc3ccccc3c(=O)c2OC)c1CN1CCCCCC1

>  <score_type>  (5) 
oracle

>  <origin>  (5) 
adg

>  <m_score__min__energy>  (5) 
-5.9400000000000004

>  <m_primary>  (5) 
energy

$$$$
5:0
     RDKit          3D

 48 51  0  0  0  0  0  0  0  0999 V2000
   -9.1890   18.1720  -31.9660 C   0  0  0  0  0  0  0  0  0  0  0  0
   -8.4760   19.4790  -32.1230 C   0  0  0  0  0  0  0  0  0  0  0  0
   -8.9570   20.6940  -31.6780 C   0  0  0  0  0  0  0  0  0  0  0  0
   -7.9390   21.5850  -31.9550 C   0  0  0  0  0  0  0  0  0  0  0  0
   -7.9090   23.0120  -31.5940 C   0  0  0  0  0  0  0  0  0  0  0  0
   -8.8160   23.7750  -32.0210 O   0  0  0  0  0  0  0  0  0  0  0  0
   -6.8290   23.5560  -30.8190 N   0  0  0  0  0  0  0  0  0  0  0  0
   -6.5380   23.0520  -29.4700 C   0  0  0  0  0  0  0  0  0  0  0  0
   -5.0260   22.7980  -29.2940 C   0  0  0  0  0  0  0  0  0  0  0  0
   -4.2710   23.3880  -30.4080 N   0  0  0  0  0  0  0  0  0  0  0  0
   -3.4370   22.5530  -31.2340 C   0  0  0  0  0  0  0  0  0  0  0  0
   -3.9370   21.9830  -32.4190 C   0  0  0  0  0  0  0  0  0  0  0  0
   -3.1320   21.1440  -33.1910 C   0  0  0  0  0  0  0  0  0  0  0  0
   -1.8220   20.8690  -32.7920 C   0  0  0  0  0  0  0  0  0  0  0  0
   -1.3160   21.4320  -31.6180 C   0  0  0  0  0  0  0  0  0  0  0  0
   -2.1200   22.2670  -30.8390 C   0  0  0  0  0  0  0  0  0  0  0  0
   -4.6520   24.7400  -30.8320 C   0  0  0  0  0  0  0  0  0  0  0  0
   -6.1110   24.7390  -31.3190 C   0  0  0  0  0  0  0  0  0  0  0  0
   -6.9040   20.9360  -32.5290 N   0  0  0  0  0  0  0  0  0  0  0  0
   -7.2410   19.6590  -32.6450 N   0  0  0  0  0  0  0  0  0  0  0  0
   -6.3530   18.6670  -33.1930 C   0  0  0  0  0  0  0  0  0  0  0  0
   -5.9010   17.6110  -32.3820 C   0  0  0  0  0  0  0  0  0  0  0  0
   -5.0230   16.6540  -32.8950 C   0  0  0  0  0  0  0  0  0  0  0  0
   -4.5800   16.7490  -34.2180 C   0  0  0  0  0  0  0  0  0  0  0  0
   -5.0090   17.8060  -35.0270 C   0  0  0  0  0  0  0  0  0  0  0  0
   -5.8840   18.7650  -34.5160 C   0  0  0  0  0  0  0  0  0  0  0  0
   -9.3115   17.9474  -30.8962 H   0  0  0  0  0  0  0  0  0  0  0  0
  -10.1781   18.2343  -32.4432 H   0  0  0  0  0  0  0  0  0  0  0  0
   -8.6012   17.3740  -32.4432 H   0  0  0  0  0  0  0  0  0  0  0  0
   -9.9297   20.9045  -31.2094 H   0  0  0  0  0  0  0  0  0  0  0  0
   -6.8676   23.7948  -28.7287 H   0  0  0  0  0  0  0  0  0  0  0  0
   -7.0741   22.1025  -29.3252 H   0  0  0  0  0  0  0  0  0  0  0  0
   -4.6905   23.2511  -28.3494 H   0  0  0  0  0  0  0  0  0  0  0  0
   -4.8474   21.7127  -29.2790 H   0  0  0  0  0  0  0  0  0  0  0  0
   -4.9670   22.1995  -32.7385 H   0  0  0  0  0  0  0  0  0  0  0  0
   -3.5297   20.6987  -34.1149 H   0  0  0  0  0  0  0  0  0  0  0  0
   -1.1885   20.2088  -33.4025 H   0  0  0  0  0  0  0  0  0  0  0  0
   -0.2830   21.2174  -31.3067 H   0  0  0  0  0  0  0  0  0  0  0  0
   -1.7198   22.7027  -29.9116 H   0  0  0  0  0  0  0  0  0  0  0  0
   -4.5505   25.4317  -29.9827 H   0  0  0  0  0  0  0  0  0  0  0  0
   -3.9944   25.0632  -31.6524 H   0  0  0  0  0  0  0  0  0  0  0  0
   -6.6136   25.6467  -30.9537 H   0  0  0  0  0  0  0  0  0  0  0  0
   -6.1151   24.7147  -32.4187 H   0  0  0  0  0  0  0  0  0  0  0  0
   -6.2407   17.5384  -31.3383 H   0  0  0  0  0  0  0  0  0  0  0  0
   -4.6798   15.8252  -32.2583 H   0  0  0  0  0  0  0  0  0  0  0  0
   -3.8931   15.9912  -34.6229 H   0  0  0  0  0  0  0  0  0  0  0  0
   -4.6565   17.8813  -36.0663 H   0  0  0  0  0  0  0  0  0  0  0  0
   -6.2091   19.6024  -35.1509 H   0  0  0  0  0  0  0  0  0  0  0  0
  1  2  1  0
  2  3  2  0
  3  4  1  0
  4  5  1  0
  5  6  2  0
  5  7  1  0
  7  8  1  0
  8  9  1  0
  9 10  1  0
 10 11  1  0
 11 12  2  0
 12 13  1  0
 13 14  2  0
 14 15  1  0
 15 16  2  0
 10 17  1  0
 17 18  1  0
  4 19  2  0
 19 20  1  0
 20 21  1  0
 21 22  2  0
 22 23  1  0
 23 24  2  0
 24 25  1  0
 25 26  2  0
 20  2  1  0
 26 21  1  0
 18  7  1  0
 16 11  1  0
  1 27  1  0
  1 28  1  0
  1 29  1  0
  3 30  1  0
  8 31  1  0
  8 32  1  0
  9 33  1  0
  9 34  1  0
 12 35  1  0
 13 36  1  0
 14 37  1  0
 15 38  1  0
 16 39  1  0
 17 40  1  0
 17 41  1  0
 18 42  1  0
 18 43  1  0
 22 44  1  0
 23 45  1  0
 24 46  1  0
 25 47  1  0
 26 48  1  0
M  END
>  <UniqueID>  (6) 
6

>  <SMILES>  (6) 
Cc1cc(C(=O)N2CCN(c3ccccc3)CC2)nn1-c1ccccc1

>  <Energy>  (6) 
96.8351102815096

>  <Genealogy>  (6) 
Cc1cc(C(=O)N2CCN(c3ccccc3)CC2)nn1-c1ccccc1 (3D coordinates assigned)
Cc1cc(C(=O)N2CCN(c3ccccc3)CC2)nn1-c1ccccc1 (nonaromatic ring conformer: 96.8351102815096 kcal/mol)

>  <smiles>  (6) 
Cc1cc(C(=O)N2CCN(c3ccccc3)CC2)nn1-c1ccccc1

>  <score_type>  (6) 
oracle

>  <origin>  (6) 
adg

>  <m_score__min__energy>  (6) 
-8.5399999999999991

>  <m_primary>  (6) 
energy

$$$$
6:0
     RDKit          3D

 60 62  0  0  0  0  0  0  0  0999 V2000
   -7.3941   23.0237  -33.1101 H   0  0  0  0  0  0  0  0  0  0  0  0
   -6.9000   22.4460  -32.3150 C   0  0  0  0  0  0  0  0  0  0  0  0
   -7.3450   21.2040  -32.0680 C   0  0  0  0  0  0  0  0  0  0  0  0
   -9.1060   20.8340  -32.0740 S   0  0  0  0  0  0  0  0  0  0  0  0
   -8.6810   19.1060  -31.8450 C   0  0  0  0  0  0  0  0  0  0  0  0
   -9.5630   18.2110  -31.7770 O   0  0  0  0  0  0  0  0  0  0  0  0
   -7.2890   18.8090  -31.7410 N   0  0  0  0  0  0  0  0  0  0  0  0
   -6.7280   17.4580  -31.7750 C   0  0  0  0  0  0  0  0  0  0  0  0
   -6.1415   17.2846  -30.8607 H   0  0  0  0  0  0  0  0  0  0  0  0
   -7.5493   16.7289  -31.8371 H   0  0  0  0  0  0  0  0  0  0  0  0
   -5.8360   17.2980  -32.9760 C   0  0  0  0  0  0  0  0  0  0  0  0
   -6.1660   17.9200  -34.1920 C   0  0  0  0  0  0  0  0  0  0  0  0
   -7.0965   18.5007  -34.2751 H   0  0  0  0  0  0  0  0  0  0  0  0
   -5.3160   17.8040  -35.2980 C   0  0  0  0  0  0  0  0  0  0  0  0
   -5.5819   18.2890  -36.2488 H   0  0  0  0  0  0  0  0  0  0  0  0
   -4.1290   17.0720  -35.1950 C   0  0  0  0  0  0  0  0  0  0  0  0
   -3.4627   16.9793  -36.0654 H   0  0  0  0  0  0  0  0  0  0  0  0
   -3.7890   16.4580  -33.9860 C   0  0  0  0  0  0  0  0  0  0  0  0
   -2.8543   15.8836  -33.9055 H   0  0  0  0  0  0  0  0  0  0  0  0
   -4.6360   16.5730  -32.8780 C   0  0  0  0  0  0  0  0  0  0  0  0
   -4.3615   16.0940  -31.9266 H   0  0  0  0  0  0  0  0  0  0  0  0
   -6.5250   20.0010  -31.8730 C   0  0  0  0  0  0  0  0  0  0  0  0
   -5.2650   19.9960  -31.8530 O   0  0  0  0  0  0  0  0  0  0  0  0
   -5.7910   23.0810  -31.5860 C   0  0  0  0  0  0  0  0  0  0  0  0
   -6.0460   24.1820  -30.7660 C   0  0  0  0  0  0  0  0  0  0  0  0
   -7.0679   24.5812  -30.6864 H   0  0  0  0  0  0  0  0  0  0  0  0
   -5.0100   24.7770  -30.0480 C   0  0  0  0  0  0  0  0  0  0  0  0
   -5.2200   25.6558  -29.4206 H   0  0  0  0  0  0  0  0  0  0  0  0
   -3.7060   24.2720  -30.1140 C   0  0  0  0  0  0  0  0  0  0  0  0
   -2.7330   24.9310  -29.3430 O   0  0  0  0  0  0  0  0  0  0  0  0
   -2.6290   24.9110  -27.9230 C   0  0  0  0  0  0  0  0  0  0  0  0
   -3.4749   25.4672  -27.4928 H   0  0  0  0  0  0  0  0  0  0  0  0
   -1.6746   25.3764  -27.6356 H   0  0  0  0  0  0  0  0  0  0  0  0
   -2.6510   23.4710  -27.3880 C   0  0  0  0  0  0  0  0  0  0  0  0
   -3.7035   23.1727  -27.2732 H   0  0  0  0  0  0  0  0  0  0  0  0
   -2.0806   23.4998  -26.4479 H   0  0  0  0  0  0  0  0  0  0  0  0
   -1.9760   22.4400  -28.2300 N   0  0  0  0  0  0  0  0  0  0  0  0
   -1.9770   22.8610  -29.1910 H   0  0  0  0  0  0  0  0  0  0  0  0
   -2.7650   21.1810  -28.3830 C   0  0  0  0  0  0  0  0  0  0  0  0
   -2.5499   20.7646  -29.3782 H   0  0  0  0  0  0  0  0  0  0  0  0
   -3.8182   21.4644  -28.2403 H   0  0  0  0  0  0  0  0  0  0  0  0
   -2.4750   20.0890  -27.3390 C   0  0  0  0  0  0  0  0  0  0  0  0
   -2.5865   20.5090  -26.3285 H   0  0  0  0  0  0  0  0  0  0  0  0
   -3.1836   19.2581  -27.4710 H   0  0  0  0  0  0  0  0  0  0  0  0
   -1.4475   19.7191  -27.4710 H   0  0  0  0  0  0  0  0  0  0  0  0
   -0.5380   22.2050  -27.9190 C   0  0  0  0  0  0  0  0  0  0  0  0
   -0.3325   21.1283  -28.0114 H   0  0  0  0  0  0  0  0  0  0  0  0
    0.0504   22.8027  -28.6307 H   0  0  0  0  0  0  0  0  0  0  0  0
   -0.1390   22.6570  -26.5090 C   0  0  0  0  0  0  0  0  0  0  0  0
   -0.6747   22.0502  -25.7641 H   0  0  0  0  0  0  0  0  0  0  0  0
    0.9453   22.5281  -26.3757 H   0  0  0  0  0  0  0  0  0  0  0  0
   -0.4014   23.7169  -26.3757 H   0  0  0  0  0  0  0  0  0  0  0  0
   -3.4340   23.1510  -30.9390 C   0  0  0  0  0  0  0  0  0  0  0  0
   -2.1240   22.6590  -31.0420 O   0  0  0  0  0  0  0  0  0  0  0  0
   -1.7280   21.5480  -31.8400 C   0  0  0  0  0  0  0  0  0  0  0  0
   -1.4309   20.7145  -31.1865 H   0  0  0  0  0  0  0  0  0  0  0  0
   -2.5696   21.2341  -32.4750 H   0  0  0  0  0  0  0  0  0  0  0  0
   -0.8776   21.8372  -32.4750 H   0  0  0  0  0  0  0  0  0  0  0  0
   -4.4930   22.5580  -31.6590 C   0  0  0  0  0  0  0  0  0  0  0  0
   -4.2973   21.6748  -32.2849 H   0  0  0  0  0  0  0  0  0  0  0  0
  1  2  1  0
  2  3  2  0
  3  4  1  0
  4  5  1  0
  5  6  2  0
  5  7  1  0
  7  8  1  0
  8  9  1  0
  8 10  1  0
  8 11  1  0
 11 12  2  0
 12 13  1  0
 12 14  1  0
 14 15  1  0
 14 16  2  0
 16 17  1  0
 16 18  1  0
 18 19  1  0
 18 20  2  0
 20 21  1  0
  7 22  1  0
 22 23  2  0
  2 24  1  0
 24 25  2  0
 25 26  1  0
 25 27  1  0
 27 28  1  0
 27 29  2  0
 29 30  1  0
 30 31  1  0
 31 32  1  0
 31 33  1  0
 31 34  1  0
 34 35  1  0
 34 36  1  0
 34 37  1  0
 37 38  1  0
 37 39  1  0
 39 40  1  0
 39 41  1  0
 39 42  1  0
 42 43  1  0
 42 44  1  0
 42 45  1  0
 37 46  1  0
 46 47  1  0
 46 48  1  0
 46 49  1  0
 49 50  1  0
 49 51  1  0
 49 52  1  0
 29 53  1  0
 53 54  1  0
 54 55  1  0
 55 56  1  0
 55 57  1  0
 55 58  1  0
 53 59  2  0
 59 60  1  0
 22  3  1  0
 59 24  1  0
 20 11  1  0
M  CHG  1  37   1
M  END
>  <UniqueID>  (7) 
7

>  <SMILES>  (7) 
CC[NH+](CC)CCOc1ccc(/C=C2/SC(=O)N(Cc3ccccc3)C2=O)cc1OC

>  <Energy>  (7) 
96.81040377098986

>  <Genealogy>  (7) 
CC[NH+](CC)CCOc1ccc(C=C2SC(=O)N(Cc3ccccc3)C2=O)cc1OC (protonated)
CC[NH+](CC)CCOc1ccc(/C=C2/SC(=O)N(Cc3ccccc3)C2=O)cc1OC (cis-trans isomerization)
CC[NH+](CC)CCOc1ccc(/C=C2/SC(=O)N(Cc3ccccc3)C2=O)cc1OC (3D coordinates assigned)
CC[NH+](CC)CCOc1ccc(/C=C2/SC(=O)N(Cc3ccccc3)C2=O)cc1OC (nonaromatic ring conformer: 96.81040377098986 kcal/mol)

>  <smiles>  (7) 
CCN(CC)CCOc1ccc(C=C2SC(=O)N(Cc3ccccc3)C2=O)cc1OC

>  <score_type>  (7) 
oracle

>  <origin>  (7) 
adg

>  <m_score__min__energy>  (7) 
-9.1799999999999997

>  <m_primary>  (7) 
energy

$$$$
7:0
     RDKit          3D

 37 39  0  0  0  0  0  0  0  0999 V2000
   -2.2200   24.9320  -28.6530 C   0  0  0  0  0  0  0  0  0  0  0  0
   -3.1010   25.2890  -29.7120 O   0  0  0  0  0  0  0  0  0  0  0  0
   -4.2430   24.5570  -30.0720 C   0  0  0  0  0  0  0  0  0  0  0  0
   -5.5430   25.0880  -29.9710 C   0  0  0  0  0  0  0  0  0  0  0  0
   -6.6490   24.3180  -30.3420 C   0  0  0  0  0  0  0  0  0  0  0  0
   -6.4780   23.0080  -30.8190 C   0  0  0  0  0  0  0  0  0  0  0  0
   -7.6430   22.1900  -31.2120 C   0  0  0  0  0  0  0  0  0  0  0  0
   -7.5740   20.8720  -31.4990 N   0  0  0  0  0  0  0  0  0  0  0  0
   -8.8470   20.5600  -31.8070 C   0  0  0  0  0  0  0  0  0  0  0  0
   -9.3150   19.1800  -32.1390 C   0  0  0  0  0  0  0  0  0  0  0  0
   -8.3720   18.5510  -33.0720 N   0  0  0  0  0  0  0  0  0  0  0  0
   -7.2390   17.9290  -32.3700 C   0  0  0  0  0  0  0  0  0  0  0  0
   -5.9250   18.2530  -33.0220 C   0  0  0  0  0  0  0  0  0  0  0  0
   -5.4050   17.6380  -34.1540 C   0  0  0  0  0  0  0  0  0  0  0  0
   -4.1780   18.1780  -34.5570 C   0  0  0  0  0  0  0  0  0  0  0  0
   -3.7340   19.2180  -33.7500 C   0  0  0  0  0  0  0  0  0  0  0  0
   -4.8700   19.4670  -32.5350 S   0  0  0  0  0  0  0  0  0  0  0  0
   -9.6410   21.6760  -31.6800 C   0  0  0  0  0  0  0  0  0  0  0  0
   -8.8660   22.6670  -31.3180 O   0  0  0  0  0  0  0  0  0  0  0  0
   -5.1800   22.4820  -30.9190 C   0  0  0  0  0  0  0  0  0  0  0  0
   -4.0740   23.2530  -30.5470 C   0  0  0  0  0  0  0  0  0  0  0  0
   -2.7083   25.1299  -27.6874 H   0  0  0  0  0  0  0  0  0  0  0  0
   -1.9727   23.8627  -28.7265 H   0  0  0  0  0  0  0  0  0  0  0  0
   -1.2981   25.5275  -28.7265 H   0  0  0  0  0  0  0  0  0  0  0  0
   -5.6889   26.1128  -29.5987 H   0  0  0  0  0  0  0  0  0  0  0  0
   -7.6610   24.7412  -30.2598 H   0  0  0  0  0  0  0  0  0  0  0  0
   -9.3727   18.5815  -31.2179 H   0  0  0  0  0  0  0  0  0  0  0  0
  -10.3095   19.2341  -32.6060 H   0  0  0  0  0  0  0  0  0  0  0  0
   -8.0090   19.2810  -33.7320 H   0  0  0  0  0  0  0  0  0  0  0  0
   -7.2202   18.2947  -31.3327 H   0  0  0  0  0  0  0  0  0  0  0  0
   -7.3755   16.8381  -32.4056 H   0  0  0  0  0  0  0  0  0  0  0  0
   -5.9059   16.8117  -34.6796 H   0  0  0  0  0  0  0  0  0  0  0  0
   -3.6180   17.8131  -35.4306 H   0  0  0  0  0  0  0  0  0  0  0  0
   -2.7991   19.7822  -33.8830 H   0  0  0  0  0  0  0  0  0  0  0  0
  -10.7265   21.7264  -31.8510 H   0  0  0  0  0  0  0  0  0  0  0  0
   -5.0322   21.4578  -31.2920 H   0  0  0  0  0  0  0  0  0  0  0  0
   -3.0621   22.8296  -30.6289 H   0  0  0  0  0  0  0  0  0  0  0  0
  1  2  1  0
  2  3  1  0
  3  4  2  0
  4  5  1  0
  5  6  2  0
  6  7  1  0
  7  8  2  0
  8  9  1  0
  9 10  1  0
 10 11  1  0
 11 12  1  0
 12 13  1  0
 13 14  2  0
 14 15  1  0
 15 16  2  0
 16 17  1  0
  9 18  2  0
 18 19  1  0
  6 20  1  0
 20 21  2  0
 21  3  1  0
 19  7  1  0
 17 13  1  0
  1 22  1  0
  1 23  1  0
  1 24  1  0
  4 25  1  0
  5 26  1  0
 10 27  1  0
 10 28  1  0
 11 29  1  0
 12 30  1  0
 12 31  1  0
 14 32  1  0
 15 33  1  0
 16 34  1  0
 18 35  1  0
 20 36  1  0
 21 37  1  0
M  END
>  <UniqueID>  (8) 
8

>  <SMILES>  (8) 
COc1ccc(-c2nc(CNCc3cccs3)co2)cc1

>  <Energy>  (8) 
91.73428824063247

>  <Genealogy>  (8) 
COc1ccc(-c2nc(CNCc3cccs3)co2)cc1 (3D coordinates assigned)
COc1ccc(-c2nc(CNCc3cccs3)co2)cc1 (optimized conformer: 91.73428824063247 kcal/mol)

>  <smiles>  (8) 
COc1ccc(-c2nc(CNCc3cccs3)co2)cc1

>  <score_type>  (8) 
oracle

>  <origin>  (8) 
adg

>  <m_score__min__energy>  (8) 
-7.8099999999999996

>  <m_primary>  (8) 
energy

$$$$
8:0
     RDKit          3D

 58 60  0  0  0  0  0  0  0  0999 V2000
   -0.8150   26.9610  -27.8370 C   0  0  0  0  0  0  0  0  0  0  0  0
   -1.3370   26.2450  -28.9520 O   0  0  0  0  0  0  0  0  0  0  0  0
   -1.5570   24.8600  -28.9770 C   0  0  0  0  0  0  0  0  0  0  0  0
   -0.6860   23.9530  -28.3410 C   0  0  0  0  0  0  0  0  0  0  0  0
   -0.9410   22.5820  -28.3840 C   0  0  0  0  0  0  0  0  0  0  0  0
   -2.0610   22.0970  -29.0620 C   0  0  0  0  0  0  0  0  0  0  0  0
   -2.3840   20.3330  -29.1160 S   0  0  0  0  0  0  0  0  0  0  0  0
   -0.9330   19.9240  -30.1600 C   0  0  0  0  0  0  0  0  0  0  0  0
   -0.8930   20.8110  -31.4070 C   0  0  0  0  0  0  0  0  0  0  0  0
   -1.2280   20.0260  -32.6860 C   0  0  0  0  0  0  0  0  0  0  0  0
   -2.5360   20.4270  -33.2520 N   0  0  0  0  0  0  0  0  0  0  0  0
   -3.5260   19.3170  -33.1540 C   0  0  0  0  0  0  0  0  0  0  0  0
   -4.6240   19.5700  -32.1160 C   0  0  0  0  0  0  0  0  0  0  0  0
   -5.2870   20.8380  -32.4210 N   0  0  0  0  0  0  0  0  0  0  0  0
   -6.7010   20.9840  -32.2300 C   0  0  0  0  0  0  0  0  0  0  0  0
   -7.2020   22.1240  -31.5840 C   0  0  0  0  0  0  0  0  0  0  0  0
   -8.5760   22.2720  -31.3800 C   0  0  0  0  0  0  0  0  0  0  0  0
   -9.4580   21.2840  -31.8220 C   0  0  0  0  0  0  0  0  0  0  0  0
   -8.9700   20.1470  -32.4730 C   0  0  0  0  0  0  0  0  0  0  0  0
   -7.5860   19.9880  -32.6870 C   0  0  0  0  0  0  0  0  0  0  0  0
   -7.0590   18.8700  -33.3520 O   0  0  0  0  0  0  0  0  0  0  0  0
   -7.1880   17.5270  -32.8980 C   0  0  0  0  0  0  0  0  0  0  0  0
   -4.4950   21.9650  -32.9180 C   0  0  0  0  0  0  0  0  0  0  0  0
   -3.0000   21.7190  -32.6800 C   0  0  0  0  0  0  0  0  0  0  0  0
   -2.9320   22.9880  -29.6960 C   0  0  0  0  0  0  0  0  0  0  0  0
   -2.6860   24.3740  -29.6570 C   0  0  0  0  0  0  0  0  0  0  0  0
   -3.5370   25.2990  -30.2820 O   0  0  0  0  0  0  0  0  0  0  0  0
   -4.9390   25.1180  -30.4550 C   0  0  0  0  0  0  0  0  0  0  0  0
   -1.1589   26.4893  -26.9047 H   0  0  0  0  0  0  0  0  0  0  0  0
    0.2843   26.9443  -27.8726 H   0  0  0  0  0  0  0  0  0  0  0  0
   -1.1672   28.0025  -27.8726 H   0  0  0  0  0  0  0  0  0  0  0  0
    0.1999   24.3280  -27.8076 H   0  0  0  0  0  0  0  0  0  0  0  0
   -0.2576   21.8811  -27.8823 H   0  0  0  0  0  0  0  0  0  0  0  0
   -0.0136   20.0802  -29.5767 H   0  0  0  0  0  0  0  0  0  0  0  0
   -1.0116   18.8736  -30.4769 H   0  0  0  0  0  0  0  0  0  0  0  0
   -1.6246   21.6238  -31.2878 H   0  0  0  0  0  0  0  0  0  0  0  0
    0.1287   21.2056  -31.5095 H   0  0  0  0  0  0  0  0  0  0  0  0
   -0.4439   20.2136  -33.4343 H   0  0  0  0  0  0  0  0  0  0  0  0
   -1.2810   18.9582  -32.4271 H   0  0  0  0  0  0  0  0  0  0  0  0
   -4.0001   19.1849  -34.1378 H   0  0  0  0  0  0  0  0  0  0  0  0
   -2.9766   18.4197  -32.8330 H   0  0  0  0  0  0  0  0  0  0  0  0
   -5.3590   18.7523  -32.1503 H   0  0  0  0  0  0  0  0  0  0  0  0
   -4.1804   19.6158  -31.1105 H   0  0  0  0  0  0  0  0  0  0  0  0
   -6.5097   22.9050  -31.2365 H   0  0  0  0  0  0  0  0  0  0  0  0
   -8.9631   23.1671  -30.8711 H   0  0  0  0  0  0  0  0  0  0  0  0
  -10.5394   21.4005  -31.6576 H   0  0  0  0  0  0  0  0  0  0  0  0
   -9.6698   19.3725  -32.8200 H   0  0  0  0  0  0  0  0  0  0  0  0
   -7.1896   17.5103  -31.7981 H   0  0  0  0  0  0  0  0  0  0  0  0
   -8.1311   17.1023  -33.2725 H   0  0  0  0  0  0  0  0  0  0  0  0
   -6.3430   16.9306  -33.2725 H   0  0  0  0  0  0  0  0  0  0  0  0
   -4.6746   22.0856  -33.9965 H   0  0  0  0  0  0  0  0  0  0  0  0
   -4.7954   22.8755  -32.3787 H   0  0  0  0  0  0  0  0  0  0  0  0
   -2.4297   22.5360  -33.1462 H   0  0  0  0  0  0  0  0  0  0  0  0
   -2.8372   21.6802  -31.5928 H   0  0  0  0  0  0  0  0  0  0  0  0
   -3.8147   22.6041  -30.2285 H   0  0  0  0  0  0  0  0  0  0  0  0
   -5.4249   25.0553  -29.4701 H   0  0  0  0  0  0  0  0  0  0  0  0
   -5.3525   25.9702  -31.0142 H   0  0  0  0  0  0  0  0  0  0  0  0
   -5.1225   24.1887  -31.0142 H   0  0  0  0  0  0  0  0  0  0  0  0
  1  2  1  0
  2  3  1  0
  3  4  2  0
  4  5  1  0
  5  6  2  0
  6  7  1  0
  7  8  1  0
  8  9  1  0
  9 10  1  0
 10 11  1  0
 11 12  1  0
 12 13  1  0
 13 14  1  0
 14 15  1  0
 15 16  2  0
 16 17  1  0
 17 18  2  0
 18 19  1  0
 19 20  2  0
 20 21  1  0
 21 22  1  0
 14 23  1  0
 23 24  1  0
  6 25  1  0
 25 26  2  0
 26 27  1  0
 27 28  1  0
 26  3  1  0
 24 11  1  0
 20 15  1  0
  1 29  1  0
  1 30  1  0
  1 31  1  0
  4 32  1  0
  5 33  1  0
  8 34  1  0
  8 35  1  0
  9 36  1  0
  9 37  1  0
 10 38  1  0
 10 39  1  0
 12 40  1  0
 12 41  1  0
 13 42  1  0
 13 43  1  0
 16 44  1  0
 17 45  1  0
 18 46  1  0
 19 47  1  0
 22 48  1  0
 22 49  1  0
 22 50  1  0
 23 51  1  0
 23 52  1  0
 24 53  1  0
 24 54  1  0
 25 55  1  0
 28 56  1  0
 28 57  1  0
 28 58  1  0
M  END
>  <UniqueID>  (9) 
9

>  <SMILES>  (9) 
COc1ccc(SCCCN2CCN(c3ccccc3OC)CC2)cc1OC

>  <Energy>  (9) 
64.57110803361084

>  <Genealogy>  (9) 
COc1ccc(SCCCN2CCN(c3ccccc3OC)CC2)cc1OC (3D coordinates assigned)
COc1ccc(SCCCN2CCN(c3ccccc3OC)CC2)cc1OC (nonaromatic ring conformer: 64.57110803361084 kcal/mol)

>  <smiles>  (9) 
COc1ccc(SCCCN2CCN(c3ccccc3OC)CC2)cc1OC

>  <score_type>  (9) 
oracle

>  <origin>  (9) 
adg

>  <m_score__min__energy>  (9) 
-8.4499999999999993

>  <m_primary>  (9) 
energy

$$$$
9:0
     RDKit          3D

 51 53  0  0  0  0  0  0  0  0999 V2000
   -6.4040   17.7910  -31.2330 C   0  0  0  0  0  0  0  0  0  0  0  0
   -7.5980   17.9930  -32.1680 C   0  0  0  0  0  0  0  0  0  0  0  0
   -8.4530   19.1120  -31.7190 N   0  0  0  0  0  0  0  0  0  0  0  0
   -9.4760   19.4470  -32.7280 C   0  0  0  0  0  0  0  0  0  0  0  0
   -7.6470   20.3070  -31.3820 C   0  0  0  0  0  0  0  0  0  0  0  0
   -7.1250   20.9720  -32.6600 C   0  0  0  0  0  0  0  0  0  0  0  0
   -5.6510   21.0940  -32.6330 N   0  0  0  0  0  0  0  0  0  0  0  0
   -5.0460   22.1680  -32.0190 C   0  0  0  0  0  0  0  0  0  0  0  0
   -5.9890   23.4630  -31.1970 S   0  0  0  0  0  0  0  0  0  0  0  0
   -4.8140   23.6280  -29.8140 C   0  0  0  0  0  0  0  0  0  0  0  0
   -3.8780   24.7620  -30.1100 C   0  0  0  0  0  0  0  0  0  0  0  0
   -4.2430   25.6680  -30.9070 O   0  0  0  0  0  0  0  0  0  0  0  0
   -2.6530   24.9320  -29.3870 N   0  0  0  0  0  0  0  0  0  0  0  0
   -1.8830   23.8810  -28.7940 C   0  0  0  0  0  0  0  0  0  0  0  0
   -1.6630   23.8930  -27.4100 C   0  0  0  0  0  0  0  0  0  0  0  0
   -0.8660   22.9080  -26.8130 C   0  0  0  0  0  0  0  0  0  0  0  0
   -0.2770   21.9130  -27.6000 C   0  0  0  0  0  0  0  0  0  0  0  0
   -0.4680   21.9120  -28.9850 C   0  0  0  0  0  0  0  0  0  0  0  0
   -1.2610   22.8970  -29.5830 C   0  0  0  0  0  0  0  0  0  0  0  0
   -3.6940   22.2920  -32.0300 N   0  0  0  0  0  0  0  0  0  0  0  0
   -2.9000   21.3820  -32.6380 C   0  0  0  0  0  0  0  0  0  0  0  0
   -1.5100   21.5460  -32.6300 C   0  0  0  0  0  0  0  0  0  0  0  0
   -0.6900   20.6120  -33.2680 C   0  0  0  0  0  0  0  0  0  0  0  0
   -1.2560   19.5110  -33.9160 C   0  0  0  0  0  0  0  0  0  0  0  0
   -2.6430   19.3390  -33.9280 C   0  0  0  0  0  0  0  0  0  0  0  0
   -3.4770   20.2760  -33.2860 C   0  0  0  0  0  0  0  0  0  0  0  0
   -4.8760   20.1510  -33.2700 C   0  0  0  0  0  0  0  0  0  0  0  0
   -5.4170   19.1700  -33.8520 O   0  0  0  0  0  0  0  0  0  0  0  0
   -6.7428   17.8483  -30.1880 H   0  0  0  0  0  0  0  0  0  0  0  0
   -5.9552   16.8042  -31.4194 H   0  0  0  0  0  0  0  0  0  0  0  0
   -5.6556   18.5753  -31.4194 H   0  0  0  0  0  0  0  0  0  0  0  0
   -7.2267   18.2105  -33.1803 H   0  0  0  0  0  0  0  0  0  0  0  0
   -8.2012   17.0732  -32.1620 H   0  0  0  0  0  0  0  0  0  0  0  0
  -10.4043   19.7510  -32.2221 H   0  0  0  0  0  0  0  0  0  0  0  0
   -9.1137   20.2734  -33.3571 H   0  0  0  0  0  0  0  0  0  0  0  0
   -9.6727   18.5663  -33.3571 H   0  0  0  0  0  0  0  0  0  0  0  0
   -8.2729   21.0232  -30.8295 H   0  0  0  0  0  0  0  0  0  0  0  0
   -6.7915   19.9994  -30.7627 H   0  0  0  0  0  0  0  0  0  0  0  0
   -7.4193   20.3633  -33.5277 H   0  0  0  0  0  0  0  0  0  0  0  0
   -7.5578   21.9808  -32.7308 H   0  0  0  0  0  0  0  0  0  0  0  0
   -5.3638   23.8351  -28.8841 H   0  0  0  0  0  0  0  0  0  0  0  0
   -4.2448   22.6945  -29.6928 H   0  0  0  0  0  0  0  0  0  0  0  0
   -2.1182   24.6793  -26.7899 H   0  0  0  0  0  0  0  0  0  0  0  0
   -0.7033   22.9170  -25.7251 H   0  0  0  0  0  0  0  0  0  0  0  0
    0.3367   21.1310  -27.1291 H   0  0  0  0  0  0  0  0  0  0  0  0
    0.0055   21.1363  -29.6047 H   0  0  0  0  0  0  0  0  0  0  0  0
   -1.3986   22.9019  -30.6744 H   0  0  0  0  0  0  0  0  0  0  0  0
   -1.0624   22.4120  -32.1204 H   0  0  0  0  0  0  0  0  0  0  0  0
    0.4021   20.7434  -33.2602 H   0  0  0  0  0  0  0  0  0  0  0  0
   -0.6081   18.7775  -34.4181 H   0  0  0  0  0  0  0  0  0  0  0  0
   -3.0843   18.4708  -34.4394 H   0  0  0  0  0  0  0  0  0  0  0  0
  1  2  1  0
  2  3  1  0
  3  4  1  0
  3  5  1  0
  5  6  1  0
  6  7  1  0
  7  8  1  0
  8  9  1  0
  9 10  1  0
 10 11  1  0
 11 12  2  0
 11 13  1  0
 13 14  1  0
 14 15  2  0
 15 16  1  0
 16 17  2  0
 17 18  1  0
 18 19  2  0
  8 20  2  0
 20 21  1  0
 21 22  2  0
 22 23  1  0
 23 24  2  0
 24 25  1  0
 25 26  2  0
 26 27  1  0
 27 28  2  0
 27  7  1  0
 19 14  1  0
 26 21  1  0
  1 29  1  0
  1 30  1  0
  1 31  1  0
  2 32  1  0
  2 33  1  0
  4 34  1  0
  4 35  1  0
  4 36  1  0
  5 37  1  0
  5 38  1  0
  6 39  1  0
  6 40  1  0
 10 41  1  0
 10 42  1  0
 15 43  1  0
 16 44  1  0
 17 45  1  0
 18 46  1  0
 19 47  1  0
 22 48  1  0
 23 49  1  0
 24 50  1  0
 25 51  1  0
M  CHG  1  13  -1
M  END
>  <UniqueID>  (10) 
10

>  <SMILES>  (10) 
CCN(C)CCn1c(SCC(=O)[N-]c2ccccc2)nc2ccccc2c1=O

>  <Energy>  (10) 
58.8183757564517

>  <Genealogy>  (10) 
CCN(C)CCn1c(SCC(=O)[N-]c2ccccc2)nc2ccccc2c1=O (protonated)
CCN(C)CCn1c(SCC(=O)[N-]c2ccccc2)nc2ccccc2c1=O (3D coordinates assigned)
CCN(C)CCn1c(SCC(=O)[N-]c2ccccc2)nc2ccccc2c1=O (optimized conformer: 58.8183757564517 kcal/mol)

>  <smiles>  (10) 
CCN(C)CCn1c(SCC(=O)Nc2ccccc2)nc2ccccc2c1=O

>  <score_type>  (10) 
oracle

>  <origin>  (10) 
adg

>  <m_score__min__energy>  (10) 
-10.539999999999999

>  <m_primary>  (10) 
energy

$$$$
10:0
     RDKit          3D

 51 53  0  0  0  0  0  0  0  0999 V2000
   -5.7560   17.9900  -34.9720 C   0  0  0  0  0  0  0  0  0  0  0  0
   -4.5820   17.8780  -34.7240 C   0  0  0  0  0  0  0  0  0  0  0  0
   -3.1470   17.7410  -34.4200 C   0  0  0  0  0  0  0  0  0  0  0  0
   -2.5380   19.0320  -34.0050 N   0  0  2  0  0  0  0  0  0  0  0  0
   -1.0510   18.9740  -33.9430 C   0  0  0  0  0  0  0  0  0  0  0  0
   -0.3470   20.2670  -34.3830 C   0  0  0  0  0  0  0  0  0  0  0  0
   -3.1230   19.5120  -32.7170 C   0  0  0  0  0  0  0  0  0  0  0  0
   -3.3380   21.0390  -32.6820 C   0  0  0  0  0  0  0  0  0  0  0  0
   -4.7390   21.4590  -33.1460 C   0  0  0  0  0  0  0  0  0  0  0  0
   -5.6870   21.4960  -32.0230 N   0  0  0  0  0  0  0  0  0  0  0  0
   -5.7020   22.6390  -31.1580 C   0  0  0  0  0  0  0  0  0  0  0  0
   -4.7550   22.7740  -30.1330 C   0  0  0  0  0  0  0  0  0  0  0  0
   -4.7720   23.9010  -29.3060 C   0  0  0  0  0  0  0  0  0  0  0  0
   -5.7440   24.8890  -29.4910 C   0  0  0  0  0  0  0  0  0  0  0  0
   -6.7030   24.7470  -30.4960 C   0  0  0  0  0  0  0  0  0  0  0  0
   -6.6820   23.6220  -31.3380 C   0  0  0  0  0  0  0  0  0  0  0  0
   -7.7480   23.3980  -32.3670 C   0  0  0  0  0  0  0  0  0  0  0  0
   -8.6900   22.2800  -31.9060 C   0  0  0  0  0  0  0  0  0  0  0  0
   -8.1270   20.8620  -31.9050 C   0  0  0  0  0  0  0  0  0  0  0  0
   -9.0780   19.8270  -31.8160 C   0  0  0  0  0  0  0  0  0  0  0  0
   -8.6890   18.4880  -31.7950 C   0  0  0  0  0  0  0  0  0  0  0  0
   -7.3400   18.1530  -31.8540 C   0  0  0  0  0  0  0  0  0  0  0  0
   -6.3750   19.1550  -31.9280 C   0  0  0  0  0  0  0  0  0  0  0  0
   -6.7410   20.5140  -31.9420 C   0  0  0  0  0  0  0  0  0  0  0  0
   -6.8276   18.0922  -35.1984 H   0  0  0  0  0  0  0  0  0  0  0  0
   -3.0250   17.0128  -33.6046 H   0  0  0  0  0  0  0  0  0  0  0  0
   -2.6374   17.4044  -35.3349 H   0  0  0  0  0  0  0  0  0  0  0  0
   -2.7590   19.7300  -34.7560 H   0  0  0  0  0  0  0  0  0  0  0  0
   -0.7580   18.7588  -32.9048 H   0  0  0  0  0  0  0  0  0  0  0  0
   -0.7375   18.1900  -34.6481 H   0  0  0  0  0  0  0  0  0  0  0  0
   -0.0370   20.8364  -33.4943 H   0  0  0  0  0  0  0  0  0  0  0  0
    0.5388   20.0157  -34.9848 H   0  0  0  0  0  0  0  0  0  0  0  0
   -1.0388   20.8746  -34.9848 H   0  0  0  0  0  0  0  0  0  0  0  0
   -4.0946   19.0182  -32.5682 H   0  0  0  0  0  0  0  0  0  0  0  0
   -2.4080   19.2630  -31.9190 H   0  0  0  0  0  0  0  0  0  0  0  0
   -3.1909   21.3899  -31.6499 H   0  0  0  0  0  0  0  0  0  0  0  0
   -2.6132   21.4889  -33.3765 H   0  0  0  0  0  0  0  0  0  0  0  0
   -4.6811   22.4599  -33.5987 H   0  0  0  0  0  0  0  0  0  0  0  0
   -5.0975   20.7200  -33.8777 H   0  0  0  0  0  0  0  0  0  0  0  0
   -3.9972   21.9917  -29.9792 H   0  0  0  0  0  0  0  0  0  0  0  0
   -4.0209   24.0105  -28.5099 H   0  0  0  0  0  0  0  0  0  0  0  0
   -5.7532   25.7788  -28.8443 H   0  0  0  0  0  0  0  0  0  0  0  0
   -7.4767   25.5175  -30.6290 H   0  0  0  0  0  0  0  0  0  0  0  0
   -8.3227   24.3257  -32.5050 H   0  0  0  0  0  0  0  0  0  0  0  0
   -7.2783   23.1072  -33.3182 H   0  0  0  0  0  0  0  0  0  0  0  0
   -9.0054   22.5134  -30.8784 H   0  0  0  0  0  0  0  0  0  0  0  0
   -9.5035   22.2659  -32.6463 H   0  0  0  0  0  0  0  0  0  0  0  0
  -10.1473   20.0795  -31.7621 H   0  0  0  0  0  0  0  0  0  0  0  0
   -9.4496   17.6958  -31.7317 H   0  0  0  0  0  0  0  0  0  0  0  0
   -7.0351   17.0962  -31.8422 H   0  0  0  0  0  0  0  0  0  0  0  0
   -5.3110   18.8800  -31.9762 H   0  0  0  0  0  0  0  0  0  0  0  0
  1  2  3  0
  2  3  1  0
  3  4  1  0
  4  5  1  0
  5  6  1  0
  4  7  1  0
  7  8  1  0
  8  9  1  0
  9 10  1  0
 10 11  1  0
 11 12  2  0
 12 13  1  0
 13 14  2  0
 14 15  1  0
 15 16  2  0
 16 17  1  0
 17 18  1  0
 18 19  1  0
 19 20  2  0
 20 21  1  0
 21 22  2  0
 22 23  1  0
 23 24  2  0
 24 10  1  0
 16 11  1  0
 24 19  1  0
  1 25  1  0
  3 26  1  0
  3 27  1  0
  4 28  1  6
  5 29  1  0
  5 30  1  0
  6 31  1  0
  6 32  1  0
  6 33  1  0
  7 34  1  0
  7 35  1  0
  8 36  1  0
  8 37  1  0
  9 38  1  0
  9 39  1  0
 12 40  1  0
 13 41  1  0
 14 42  1  0
 15 43  1  0
 17 44  1  0
 17 45  1  0
 18 46  1  0
 18 47  1  0
 20 48  1  0
 21 49  1  0
 22 50  1  0
 23 51  1  0
M  CHG  1   4   1
M  END
>  <UniqueID>  (11) 
11

>  <SMILES>  (11) 
C#CC[N@H+](CC)CCCN1c2ccccc2CCc2ccccc21

>  <Energy>  (11) 
72.67737992131507

>  <Genealogy>  (11) 
C#CC[NH+](CC)CCCN1c2ccccc2CCc2ccccc21 (protonated)
C#CC[N@H+](CC)CCCN1c2ccccc2CCc2ccccc21 (chirality)
C#CC[N@H+](CC)CCCN1c2ccccc2CCc2ccccc21 (3D coordinates assigned)
C#CC[N@H+](CC)CCCN1c2ccccc2CCc2ccccc21 (nonaromatic ring conformer: 72.67737992131507 kcal/mol)

>  <smiles>  (11) 
C#CCN(CC)CCCN1c2ccccc2CCc2ccccc21

>  <score_type>  (11) 
oracle

>  <origin>  (11) 
adg

>  <m_score__min__energy>  (11) 
-6.2199999999999998

>  <m_primary>  (11) 
energy

$$$$
11:0
     RDKit          3D

 42 43  0  0  0  0  0  0  0  0999 V2000
   -7.6490   17.9350  -31.6180 C   0  0  0  0  0  0  0  0  0  0  0  0
   -8.7430   18.9160  -32.0290 C   0  0  0  0  0  0  0  0  0  0  0  0
   -8.1900   19.9950  -32.8510 N   0  0  0  0  0  0  0  0  0  0  0  0
   -7.2350   20.9660  -32.3760 C   0  0  0  0  0  0  0  0  0  0  0  0
   -7.6510   22.0870  -31.6370 C   0  0  0  0  0  0  0  0  0  0  0  0
   -6.7320   23.0680  -31.2270 C   0  0  0  0  0  0  0  0  0  0  0  0
   -7.2440   24.2680  -30.4740 C   0  0  0  0  0  0  0  0  0  0  0  0
   -5.3600   22.9120  -31.5370 C   0  0  0  0  0  0  0  0  0  0  0  0
   -4.3710   23.8610  -31.0950 N   0  0  0  0  0  0  0  0  0  0  0  0
   -4.6130   25.0850  -31.1440 O   0  0  0  0  0  0  0  0  0  0  0  0
   -3.0940   23.4520  -30.7900 O   0  0  0  0  0  0  0  0  0  0  0  0
   -4.9530   21.7990  -32.2900 C   0  0  0  0  0  0  0  0  0  0  0  0
   -5.8730   20.8260  -32.6990 C   0  0  0  0  0  0  0  0  0  0  0  0
   -5.3990   19.6700  -33.4050 N   0  0  0  0  0  0  0  0  0  0  0  0
   -4.1170   19.0660  -33.0310 C   0  0  0  0  0  0  0  0  0  0  0  0
   -3.6070   18.1430  -34.1470 C   0  0  0  0  0  0  0  0  0  0  0  0
   -4.6220   17.1520  -34.5830 N   0  0  0  0  0  0  0  0  0  0  0  0
   -4.5370   15.9160  -33.7890 C   0  0  0  0  0  0  0  0  0  0  0  0
   -6.0200   17.6600  -34.6320 C   0  0  0  0  0  0  0  0  0  0  0  0
   -6.1100   19.1880  -34.5880 C   0  0  0  0  0  0  0  0  0  0  0  0
   -7.5941   17.8858  -30.5205 H   0  0  0  0  0  0  0  0  0  0  0  0
   -7.8817   16.9373  -32.0186 H   0  0  0  0  0  0  0  0  0  0  0  0
   -6.6825   18.2747  -32.0186 H   0  0  0  0  0  0  0  0  0  0  0  0
   -9.5105   18.3796  -32.6063 H   0  0  0  0  0  0  0  0  0  0  0  0
   -9.1840   19.3539  -31.1214 H   0  0  0  0  0  0  0  0  0  0  0  0
   -8.4860   20.0280  -33.8520 H   0  0  0  0  0  0  0  0  0  0  0  0
   -8.7136   22.1983  -31.3752 H   0  0  0  0  0  0  0  0  0  0  0  0
   -7.1652   24.0833  -29.3925 H   0  0  0  0  0  0  0  0  0  0  0  0
   -6.6443   25.1510  -30.7398 H   0  0  0  0  0  0  0  0  0  0  0  0
   -8.2964   24.4460  -30.7398 H   0  0  0  0  0  0  0  0  0  0  0  0
   -3.8931   21.6896  -32.5633 H   0  0  0  0  0  0  0  0  0  0  0  0
   -3.3794   19.8631  -32.8561 H   0  0  0  0  0  0  0  0  0  0  0  0
   -4.2592   18.4711  -32.1168 H   0  0  0  0  0  0  0  0  0  0  0  0
   -3.3247   18.7607  -35.0123 H   0  0  0  0  0  0  0  0  0  0  0  0
   -2.7484   17.5835  -33.7473 H   0  0  0  0  0  0  0  0  0  0  0  0
   -4.5542   16.1663  -32.7180 H   0  0  0  0  0  0  0  0  0  0  0  0
   -5.3927   15.2673  -34.0277 H   0  0  0  0  0  0  0  0  0  0  0  0
   -3.6006   15.3905  -34.0277 H   0  0  0  0  0  0  0  0  0  0  0  0
   -6.4867   17.3093  -35.5643 H   0  0  0  0  0  0  0  0  0  0  0  0
   -6.5378   17.2769  -33.7403 H   0  0  0  0  0  0  0  0  0  0  0  0
   -5.6502   19.6113  -35.4932 H   0  0  0  0  0  0  0  0  0  0  0  0
   -7.1643   19.4982  -34.5415 H   0  0  0  0  0  0  0  0  0  0  0  0
  1  2  1  0
  2  3  1  0
  3  4  1  0
  4  5  2  0
  5  6  1  0
  6  7  1  0
  6  8  2  0
  8  9  1  0
  9 10  2  0
  9 11  1  0
  8 12  1  0
 12 13  2  0
 13 14  1  0
 14 15  1  0
 15 16  1  0
 16 17  1  0
 17 18  1  0
 17 19  1  0
 19 20  1  0
 13  4  1  0
 20 14  1  0
  1 21  1  0
  1 22  1  0
  1 23  1  0
  2 24  1  0
  2 25  1  0
  3 26  1  0
  5 27  1  0
  7 28  1  0
  7 29  1  0
  7 30  1  0
 12 31  1  0
 15 32  1  0
 15 33  1  0
 16 34  1  0
 16 35  1  0
 18 36  1  0
 18 37  1  0
 18 38  1  0
 19 39  1  0
 19 40  1  0
 20 41  1  0
 20 42  1  0
M  CHG  2   9   1  11  -1
M  END
>  <UniqueID>  (12) 
12

>  <SMILES>  (12) 
CCNc1cc(C)c([N+](=O)[O-])cc1N1CCN(C)CC1

>  <Energy>  (12) 
54.9084011794183

>  <Genealogy>  (12) 
CCNc1cc(C)c([N+](=O)[O-])cc1N1CCN(C)CC1 (3D coordinates assigned)
CCNc1cc(C)c([N+](=O)[O-])cc1N1CCN(C)CC1 (nonaromatic ring conformer: 54.9084011794183 kcal/mol)

>  <smiles>  (12) 
CCNc1cc(C)c([N+](=O)[O-])cc1N1CCN(C)CC1

>  <score_type>  (12) 
oracle

>  <origin>  (12) 
adg

>  <m_score__min__energy>  (12) 
-8.0299999999999994

>  <m_primary>  (12) 
energy

$$$$
12:0
     RDKit          3D

 36 37  0  0  1  0  0  0  0  0999 V2000
   -6.8660   16.4970  -33.7040 C   0  0  0  0  0  0  0  0  0  0  0  0
   -6.7470   17.1600  -32.4170 N   0  0  0  0  0  0  0  0  0  0  0  0
   -7.7990   18.1380  -32.3300 C   0  0  0  0  0  0  0  0  0  0  0  0
   -5.4050   17.8060  -32.4010 C   0  0  0  0  0  0  0  0  0  0  0  0
   -5.2360   18.7320  -33.5210 C   0  0  0  0  0  0  0  0  0  0  0  0
   -5.3170   20.1160  -33.4770 N   0  0  0  0  0  0  0  0  0  0  0  0
   -4.8820   21.0780  -32.8470 C   0  0  0  0  0  0  0  0  0  0  0  0
   -3.5580   21.2470  -32.7150 N   0  0  0  0  0  0  0  0  0  0  0  0
   -2.9770   22.2420  -32.0620 C   0  0  0  0  0  0  0  0  0  0  0  0
   -3.7640   23.1640  -31.4790 N   0  0  0  0  0  0  0  0  0  0  0  0
   -5.1240   23.0750  -31.5610 C   0  0  0  0  0  0  0  0  0  0  0  0
   -5.9200   24.0280  -30.9590 C   0  0  0  0  0  0  0  0  0  0  0  0
   -5.3620   25.1440  -30.2280 C   0  0  0  0  0  0  0  0  0  0  0  0
   -6.1110   25.6970  -29.1340 N   0  0  0  0  0  0  0  0  0  0  0  0
   -4.2480   25.6500  -30.5120 O   0  0  0  0  0  0  0  0  0  0  0  0
   -7.2880   23.9040  -31.0620 C   0  0  0  0  0  0  0  0  0  0  0  0
   -7.8370   22.8460  -31.7560 C   0  0  0  0  0  0  0  0  0  0  0  0
   -7.0620   21.8820  -32.3660 C   0  0  0  0  0  0  0  0  0  0  0  0
   -5.6930   22.0230  -32.2500 C   0  0  0  0  0  0  0  0  0  0  0  0
   -7.0584   15.4253  -33.5479 H   0  0  0  0  0  0  0  0  0  0  0  0
   -7.6989   16.9405  -34.2693 H   0  0  0  0  0  0  0  0  0  0  0  0
   -5.9309   16.6232  -34.2693 H   0  0  0  0  0  0  0  0  0  0  0  0
   -8.0211   18.3445  -31.2726 H   0  0  0  0  0  0  0  0  0  0  0  0
   -7.4785   19.0663  -32.8254 H   0  0  0  0  0  0  0  0  0  0  0  0
   -8.7015   17.7507  -32.8254 H   0  0  0  0  0  0  0  0  0  0  0  0
   -5.2881   18.3614  -31.4587 H   0  0  0  0  0  0  0  0  0  0  0  0
   -4.6439   17.0170  -32.4910 H   0  0  0  0  0  0  0  0  0  0  0  0
   -4.2319   18.5189  -33.9165 H   0  0  0  0  0  0  0  0  0  0  0  0
   -6.1642   18.5171  -34.0709 H   0  0  0  0  0  0  0  0  0  0  0  0
   -2.9610   20.5350  -33.1650 H   0  0  0  0  0  0  0  0  0  0  0  0
   -1.8811   22.3125  -31.9982 H   0  0  0  0  0  0  0  0  0  0  0  0
   -6.8430   26.4450  -29.3020 H   0  0  0  0  0  0  0  0  0  0  0  0
   -5.9500   25.3710  -28.1400 H   0  0  0  0  0  0  0  0  0  0  0  0
   -7.9439   24.6502  -30.5898 H   0  0  0  0  0  0  0  0  0  0  0  0
   -8.9321   22.7683  -31.8254 H   0  0  0  0  0  0  0  0  0  0  0  0
   -7.5116   21.0430  -32.9172 H   0  0  0  0  0  0  0  0  0  0  0  0
  1  2  1  0
  2  3  1  0
  2  4  1  0
  4  5  1  0
  5  6  1  0
  6  7  2  0
  7  8  1  0
  8  9  1  0
  9 10  2  0
 10 11  1  0
 11 12  2  0
 12 13  1  0
 13 14  1  0
 13 15  2  0
 12 16  1  0
 16 17  2  0
 17 18  1  0
 18 19  2  0
 19  7  1  0
 19 11  1  0
  1 20  1  0
  1 21  1  0
  1 22  1  0
  3 23  1  0
  3 24  1  0
  3 25  1  0
  4 26  1  0
  4 27  1  0
  5 28  1  0
  5 29  1  0
  8 30  1  0
  9 31  1  0
 14 32  1  0
 14 33  1  0
 16 34  1  0
 17 35  1  0
 18 36  1  0
M  END
>  <smiles>  (13) 
CN(C)CCN=c1[nH]cnc2c(C(N)=O)cccc12

>  <score_type>  (13) 
oracle

>  <origin>  (13) 
adg

>  <m_score__min__energy>  (13) 
-7.5599999999999996

>  <m_primary>  (13) 
energy

$$$$
13:0
     RDKit          3D

 38 38  0  0  0  0  0  0  0  0999 V2000
   -6.7530   25.6930  -29.4010 C   0  0  0  0  0  0  0  0  0  0  0  0
   -5.5950   24.9260  -28.9270 N   0  0  0  0  0  0  0  0  0  0  0  0
   -5.3360   23.7170  -29.7600 C   0  0  2  0  0  0  0  0  0  0  0  0
   -4.0120   23.8690  -30.4750 C   0  0  0  0  0  0  0  0  0  0  0  0
   -3.7000   23.0680  -31.3980 O   0  0  0  0  0  0  0  0  0  0  0  0
   -3.1170   24.9240  -30.1020 N   0  0  0  0  0  0  0  0  0  0  0  0
   -2.2050   24.8380  -28.9650 C   0  0  0  0  0  0  0  0  0  0  0  0
   -2.8360   24.0880  -27.8210 C   0  0  0  0  0  0  0  0  0  0  0  0
   -3.7780   24.6310  -27.1810 O   0  0  0  0  0  0  0  0  0  0  0  0
   -2.4180   22.7080  -27.4660 C   0  0  0  0  0  0  0  0  0  0  0  0
   -3.1730   21.5870  -27.8670 C   0  0  0  0  0  0  0  0  0  0  0  0
   -2.7640   20.2960  -27.5190 C   0  0  0  0  0  0  0  0  0  0  0  0
   -1.6040   20.1070  -26.7660 C   0  0  0  0  0  0  0  0  0  0  0  0
   -0.8500   21.2080  -26.3560 C   0  0  0  0  0  0  0  0  0  0  0  0
   -1.2550   22.5020  -26.7010 C   0  0  0  0  0  0  0  0  0  0  0  0
   -6.4760   23.4500  -30.7980 C   0  0  0  0  0  0  0  0  0  0  0  0
   -6.1510   24.0800  -32.1660 C   0  0  0  0  0  0  0  0  0  0  0  0
   -6.7420   21.9480  -30.9990 C   0  0  0  0  0  0  0  0  0  0  0  0
   -7.3216   26.0696  -28.5379 H   0  0  0  0  0  0  0  0  0  0  0  0
   -6.4067   26.5409  -30.0102 H   0  0  0  0  0  0  0  0  0  0  0  0
   -7.3986   25.0434  -30.0102 H   0  0  0  0  0  0  0  0  0  0  0  0
   -5.8050   24.6620  -27.9340 H   0  0  0  0  0  0  0  0  0  0  0  0
   -4.7580   25.5520  -28.8930 H   0  0  0  0  0  0  0  0  0  0  0  0
   -5.3046   22.8498  -29.0841 H   0  0  0  0  0  0  0  0  0  0  0  0
   -1.2897   24.3139  -29.2772 H   0  0  0  0  0  0  0  0  0  0  0  0
   -1.9695   25.8580  -28.6273 H   0  0  0  0  0  0  0  0  0  0  0  0
   -4.0901   21.7289  -28.4577 H   0  0  0  0  0  0  0  0  0  0  0  0
   -3.3578   19.4272  -27.8394 H   0  0  0  0  0  0  0  0  0  0  0  0
   -1.2838   19.0900  -26.4955 H   0  0  0  0  0  0  0  0  0  0  0  0
    0.0632   21.0581  -25.7613 H   0  0  0  0  0  0  0  0  0  0  0  0
   -0.6591   23.3659  -26.3714 H   0  0  0  0  0  0  0  0  0  0  0  0
   -7.3795   23.9175  -30.3795 H   0  0  0  0  0  0  0  0  0  0  0  0
   -5.6515   25.0483  -32.0144 H   0  0  0  0  0  0  0  0  0  0  0  0
   -5.4865   23.4090  -32.7301 H   0  0  0  0  0  0  0  0  0  0  0  0
   -7.0829   24.2325  -32.7301 H   0  0  0  0  0  0  0  0  0  0  0  0
   -6.8290   21.4566  -30.0187 H   0  0  0  0  0  0  0  0  0  0  0  0
   -7.6780   21.8134  -31.5610 H   0  0  0  0  0  0  0  0  0  0  0  0
   -5.9092   21.5001  -31.5610 H   0  0  0  0  0  0  0  0  0  0  0  0
  1  2  1  0
  2  3  1  0
  3  4  1  0
  4  5  2  0
  4  6  1  0
  6  7  1  0
  7  8  1  0
  8  9  2  0
  8 10  1  0
 10 11  2  0
 11 12  1  0
 12 13  2  0
 13 14  1  0
 14 15  2  0
  3 16  1  0
 16 17  1  0
 16 18  1  0
 15 10  1  0
  1 19  1  0
  1 20  1  0
  1 21  1  0
  2 22  1  0
  2 23  1  0
  3 24  1  1
  7 25  1  0
  7 26  1  0
 11 27  1  0
 12 28  1  0
 13 29  1  0
 14 30  1  0
 15 31  1  0
 16 32  1  0
 17 33  1  0
 17 34  1  0
 17 35  1  0
 18 36  1  0
 18 37  1  0
 18 38  1  0
M  CHG  2   2   1   6  -1
M  END
>  <UniqueID>  (14) 
13

>  <SMILES>  (14) 
C[NH2+][C@H](C(=O)[N-]CC(=O)c1ccccc1)C(C)C

>  <Energy>  (14) 
35.23223246205866

>  <Genealogy>  (14) 
C[NH2+]C(C(=O)[N-]CC(=O)c1ccccc1)C(C)C (protonated)
C[NH2+][C@H](C(=O)[N-]CC(=O)c1ccccc1)C(C)C (chirality)
C[NH2+][C@H](C(=O)[N-]CC(=O)c1ccccc1)C(C)C (3D coordinates assigned)
C[NH2+][C@H](C(=O)[N-]CC(=O)c1ccccc1)C(C)C (optimized conformer: 35.23223246205866 kcal/mol)

>  <smiles>  (14) 
CNC(C(=O)NCC(=O)c1ccccc1)C(C)C

>  <score_type>  (14) 
oracle

>  <origin>  (14) 
adg

>  <m_score__min__energy>  (14) 
-7.7999999999999998

>  <m_primary>  (14) 
energy

$$$$
14:0
     RDKit          3D

 60 63  0  0  0  0  0  0  0  0999 V2000
   -0.8530   17.5550  -32.3500 C   0  0  0  0  0  0  0  0  0  0  0  0
   -0.2500   17.3790  -33.7410 C   0  0  0  0  0  0  0  0  0  0  0  0
   -0.0590   18.6940  -34.3950 N   0  0  0  0  0  0  0  0  0  0  0  0
    0.5340   18.5640  -35.7400 C   0  0  0  0  0  0  0  0  0  0  0  0
    0.6660   19.6670  -33.5420 C   0  0  0  0  0  0  0  0  0  0  0  0
   -0.0310   21.0380  -33.3930 C   0  0  0  0  0  0  0  0  0  0  0  0
   -1.2300   21.1420  -34.2280 N   0  0  0  0  0  0  0  0  0  0  0  0
   -2.4950   20.5880  -33.8270 C   0  0  0  0  0  0  0  0  0  0  0  0
   -3.3610   21.3400  -33.1330 C   0  0  0  0  0  0  0  0  0  0  0  0
   -4.6730   20.7940  -32.6700 C   0  0  0  0  0  0  0  0  0  0  0  0
   -5.0990   19.5620  -33.2050 C   0  0  0  0  0  0  0  0  0  0  0  0
   -4.2000   18.7830  -33.9710 C   0  0  0  0  0  0  0  0  0  0  0  0
   -4.6150   17.5710  -34.5280 C   0  0  0  0  0  0  0  0  0  0  0  0
   -5.9250   17.1400  -34.3600 C   0  0  0  0  0  0  0  0  0  0  0  0
   -6.8260   17.8990  -33.6140 C   0  0  0  0  0  0  0  0  0  0  0  0
   -6.4230   19.1080  -32.9870 C   0  0  0  0  0  0  0  0  0  0  0  0
   -7.2910   19.8550  -32.2170 N   0  0  0  0  0  0  0  0  0  0  0  0
   -8.5970   19.2840  -31.8150 C   0  0  0  0  0  0  0  0  0  0  0  0
   -6.9220   21.1110  -31.7730 C   0  0  0  0  0  0  0  0  0  0  0  0
   -7.8780   22.0120  -31.2500 C   0  0  0  0  0  0  0  0  0  0  0  0
   -7.4930   23.2170  -30.6760 C   0  0  0  0  0  0  0  0  0  0  0  0
   -6.1450   23.5370  -30.5430 C   0  0  0  0  0  0  0  0  0  0  0  0
   -5.7710   24.6950  -29.7790 N   0  0  0  0  0  0  0  0  0  0  0  0
   -5.7360   25.9910  -30.4550 C   0  0  0  0  0  0  0  0  0  0  0  0
   -4.9820   24.5170  -28.5600 C   0  0  0  0  0  0  0  0  0  0  0  0
   -5.1630   22.6880  -31.0960 C   0  0  0  0  0  0  0  0  0  0  0  0
   -3.7890   22.9210  -30.7490 N   0  0  0  0  0  0  0  0  0  0  0  0
   -3.2780   24.0470  -30.9220 O   0  0  0  0  0  0  0  0  0  0  0  0
   -2.9930   21.8800  -30.3250 O   0  0  0  0  0  0  0  0  0  0  0  0
   -5.5620   21.5350  -31.8440 C   0  0  0  0  0  0  0  0  0  0  0  0
   -2.8640   19.2520  -34.1990 N   0  0  0  0  0  0  0  0  0  0  0  0
   -0.0905   17.3325  -31.5890 H   0  0  0  0  0  0  0  0  0  0  0  0
   -1.1999   18.5919  -32.2292 H   0  0  0  0  0  0  0  0  0  0  0  0
   -1.7032   16.8675  -32.2292 H   0  0  0  0  0  0  0  0  0  0  0  0
    0.7234   16.8744  -33.6521 H   0  0  0  0  0  0  0  0  0  0  0  0
   -0.9367   16.7748  -34.3520 H   0  0  0  0  0  0  0  0  0  0  0  0
    1.6047   18.3293  -35.6475 H   0  0  0  0  0  0  0  0  0  0  0  0
    0.0273   17.7556  -36.2875 H   0  0  0  0  0  0  0  0  0  0  0  0
    0.4120   19.5102  -36.2875 H   0  0  0  0  0  0  0  0  0  0  0  0
    0.7771   19.2281  -32.5395 H   0  0  0  0  0  0  0  0  0  0  0  0
    1.6285   19.8595  -34.0385 H   0  0  0  0  0  0  0  0  0  0  0  0
   -0.3190   21.1766  -32.3405 H   0  0  0  0  0  0  0  0  0  0  0  0
    0.6767   21.8142  -33.7195 H   0  0  0  0  0  0  0  0  0  0  0  0
   -1.1840   21.6830  -35.1220 H   0  0  0  0  0  0  0  0  0  0  0  0
   -3.1000   22.3827  -32.8990 H   0  0  0  0  0  0  0  0  0  0  0  0
   -3.9038   16.9572  -35.1002 H   0  0  0  0  0  0  0  0  0  0  0  0
   -6.2531   16.1952  -34.8178 H   0  0  0  0  0  0  0  0  0  0  0  0
   -7.8658   17.5558  -33.5094 H   0  0  0  0  0  0  0  0  0  0  0  0
   -8.6624   19.2554  -30.7173 H   0  0  0  0  0  0  0  0  0  0  0  0
   -9.4091   19.9092  -32.2145 H   0  0  0  0  0  0  0  0  0  0  0  0
   -8.6895   18.2633  -32.2145 H   0  0  0  0  0  0  0  0  0  0  0  0
   -8.9462   21.7540  -31.2985 H   0  0  0  0  0  0  0  0  0  0  0  0
   -8.2591   23.9235  -30.3240 H   0  0  0  0  0  0  0  0  0  0  0  0
   -5.7143   26.7953  -29.7049 H   0  0  0  0  0  0  0  0  0  0  0  0
   -4.8359   26.0521  -31.0843 H   0  0  0  0  0  0  0  0  0  0  0  0
   -6.6315   26.1006  -31.0843 H   0  0  0  0  0  0  0  0  0  0  0  0
   -5.6272   24.6626  -27.6811 H   0  0  0  0  0  0  0  0  0  0  0  0
   -4.5604   23.5012  -28.5412 H   0  0  0  0  0  0  0  0  0  0  0  0
   -4.1651   25.2534  -28.5412 H   0  0  0  0  0  0  0  0  0  0  0  0
   -2.1980   18.6500  -34.7320 H   0  0  0  0  0  0  0  0  0  0  0  0
  1  2  1  0
  2  3  1  0
  3  4  1  0
  3  5  1  0
  5  6  1  0
  6  7  1  0
  7  8  1  0
  8  9  2  0
  9 10  1  0
 10 11  1  0
 11 12  2  0
 12 13  1  0
 13 14  2  0
 14 15  1  0
 15 16  2  0
 16 17  1  0
 17 18  1  0
 17 19  2  0
 19 20  1  0
 20 21  2  0
 21 22  1  0
 22 23  1  0
 23 24  1  0
 23 25  1  0
 22 26  2  0
 26 27  1  0
 27 28  2  0
 27 29  1  0
 26 30  1  0
 12 31  1  0
 31  8  1  0
 30 10  2  0
 16 11  1  0
 30 19  1  0
  1 32  1  0
  1 33  1  0
  1 34  1  0
  2 35  1  0
  2 36  1  0
  4 37  1  0
  4 38  1  0
  4 39  1  0
  5 40  1  0
  5 41  1  0
  6 42  1  0
  6 43  1  0
  7 44  1  0
  9 45  1  0
 13 46  1  0
 14 47  1  0
 15 48  1  0
 18 49  1  0
 18 50  1  0
 18 51  1  0
 20 52  1  0
 21 53  1  0
 24 54  1  0
 24 55  1  0
 24 56  1  0
 25 57  1  0
 25 58  1  0
 25 59  1  0
 31 60  1  0
M  CHG  3  17   1  27   1  29  -1
M  END
>  <UniqueID>  (15) 
14

>  <SMILES>  (15) 
CCN(C)CCNC1=Cc2c3c(cccc3[n+](C)c3ccc(N(C)C)c([N+](=O)[O-])c23)N1

>  <Energy>  (15) 
106.36928791039762

>  <Genealogy>  (15) 
CCN(C)CCNC1=Cc2c3c(cccc3[n+](C)c3ccc(N(C)C)c([N+](=O)[O-])c23)N1 (3D coordinates assigned)
CCN(C)CCNC1=Cc2c3c(cccc3[n+](C)c3ccc(N(C)C)c([N+](=O)[O-])c23)N1 (nonaromatic ring conformer: 106.36928791039762 kcal/mol)

>  <smiles>  (15) 
CCN(C)CCNC1=Cc2c3c(cccc3[n+](C)c3ccc(N(C)C)c([N+](=O)[O-])c23)N1

>  <score_type>  (15) 
oracle

>  <origin>  (15) 
adg

>  <m_score__min__energy>  (15) 
-9.25

>  <m_primary>  (15) 
energy

$$$$
15:0
     RDKit          3D

 49 52  0  0  0  0  0  0  0  0999 V2000
    0.2280   21.5570  -35.2650 C   0  0  0  0  0  0  0  0  0  0  0  0
    0.5910   21.2410  -33.8170 C   0  0  0  0  0  0  0  0  0  0  0  0
   -0.6160   20.9850  -32.9980 N   0  0  0  0  0  0  0  0  0  0  0  0
   -0.4860   21.5280  -31.6260 C   0  0  0  0  0  0  0  0  0  0  0  0
   -1.7870   21.4740  -30.8120 C   0  0  0  0  0  0  0  0  0  0  0  0
   -1.0480   19.5640  -33.0160 C   0  0  0  0  0  0  0  0  0  0  0  0
   -2.3810   19.4150  -33.7630 C   0  0  0  0  0  0  0  0  0  0  0  0
   -3.1730   20.6460  -33.6910 N   0  0  0  0  0  0  0  0  0  0  0  0
   -4.4780   20.7310  -33.0940 C   0  0  0  0  0  0  0  0  0  0  0  0
   -4.8990   21.8150  -32.3200 C   0  0  0  0  0  0  0  0  0  0  0  0
   -4.2320   22.9180  -32.0580 O   0  0  0  0  0  0  0  0  0  0  0  0
   -5.0120   23.6760  -31.3200 C   0  0  0  0  0  0  0  0  0  0  0  0
   -4.7110   24.9430  -30.8250 C   0  0  0  0  0  0  0  0  0  0  0  0
   -5.6950   25.6120  -30.0800 C   0  0  0  0  0  0  0  0  0  0  0  0
   -6.9530   25.0140  -29.8560 C   0  0  0  0  0  0  0  0  0  0  0  0
   -7.2380   23.7350  -30.3650 C   0  0  0  0  0  0  0  0  0  0  0  0
   -6.2340   23.0710  -31.0830 C   0  0  0  0  0  0  0  0  0  0  0  0
   -6.1580   21.8420  -31.7310 C   0  0  0  0  0  0  0  0  0  0  0  0
   -7.0580   20.8070  -31.8480 N   0  0  0  0  0  0  0  0  0  0  0  0
   -8.3270   20.8190  -31.1090 C   0  0  0  0  0  0  0  0  0  0  0  0
   -6.6930   19.7580  -32.6720 C   0  0  0  0  0  0  0  0  0  0  0  0
   -7.4810   18.6380  -33.0070 C   0  0  0  0  0  0  0  0  0  0  0  0
   -6.8270   17.7340  -33.8400 C   0  0  0  0  0  0  0  0  0  0  0  0
   -5.2800   18.3110  -34.1790 S   0  0  0  0  0  0  0  0  0  0  0  0
   -5.4290   19.7200  -33.2790 C   0  0  0  0  0  0  0  0  0  0  0  0
   -0.6015   22.2791  -35.2858 H   0  0  0  0  0  0  0  0  0  0  0  0
    1.1016   21.9873  -35.7765 H   0  0  0  0  0  0  0  0  0  0  0  0
   -0.0778   20.6324  -35.7765 H   0  0  0  0  0  0  0  0  0  0  0  0
    1.2330   20.3480  -33.7962 H   0  0  0  0  0  0  0  0  0  0  0  0
    1.1160   22.1108  -33.3953 H   0  0  0  0  0  0  0  0  0  0  0  0
    0.2805   20.9456  -31.0937 H   0  0  0  0  0  0  0  0  0  0  0  0
   -0.2146   22.5893  -31.7260 H   0  0  0  0  0  0  0  0  0  0  0  0
   -1.5484   21.4839  -29.7382 H   0  0  0  0  0  0  0  0  0  0  0  0
   -2.4095   22.3471  -31.0573 H   0  0  0  0  0  0  0  0  0  0  0  0
   -2.3350   20.5523  -31.0573 H   0  0  0  0  0  0  0  0  0  0  0  0
   -0.2807   18.9590  -33.5212 H   0  0  0  0  0  0  0  0  0  0  0  0
   -1.1814   19.2203  -31.9796 H   0  0  0  0  0  0  0  0  0  0  0  0
   -2.1761   19.1821  -34.8184 H   0  0  0  0  0  0  0  0  0  0  0  0
   -2.9552   18.6049  -33.2897 H   0  0  0  0  0  0  0  0  0  0  0  0
   -2.8160   21.4720  -34.2230 H   0  0  0  0  0  0  0  0  0  0  0  0
   -3.7308   25.4057  -31.0125 H   0  0  0  0  0  0  0  0  0  0  0  0
   -5.4836   26.6097  -29.6679 H   0  0  0  0  0  0  0  0  0  0  0  0
   -7.7177   25.5534  -29.2779 H   0  0  0  0  0  0  0  0  0  0  0  0
   -8.2211   23.2685  -30.2043 H   0  0  0  0  0  0  0  0  0  0  0  0
   -8.1220   20.8171  -30.0283 H   0  0  0  0  0  0  0  0  0  0  0  0
   -8.8963   21.7226  -31.3726 H   0  0  0  0  0  0  0  0  0  0  0  0
   -8.9133   19.9264  -31.3726 H   0  0  0  0  0  0  0  0  0  0  0  0
   -8.5100   18.4928  -32.6463 H   0  0  0  0  0  0  0  0  0  0  0  0
   -7.2526   16.7924  -34.2171 H   0  0  0  0  0  0  0  0  0  0  0  0
  1  2  1  0
  2  3  1  0
  3  4  1  0
  4  5  1  0
  3  6  1  0
  6  7  1  0
  7  8  1  0
  8  9  1  0
  9 10  2  0
 10 11  1  0
 11 12  1  0
 12 13  2  0
 13 14  1  0
 14 15  2  0
 15 16  1  0
 16 17  2  0
 17 18  1  0
 18 19  2  0
 19 20  1  0
 19 21  1  0
 21 22  1  0
 22 23  2  0
 23 24  1  0
 24 25  1  0
 25  9  1  0
 18 10  1  0
 25 21  2  0
 17 12  1  0
  1 26  1  0
  1 27  1  0
  1 28  1  0
  2 29  1  0
  2 30  1  0
  4 31  1  0
  4 32  1  0
  5 33  1  0
  5 34  1  0
  5 35  1  0
  6 36  1  0
  6 37  1  0
  7 38  1  0
  7 39  1  0
  8 40  1  0
 13 41  1  0
 14 42  1  0
 15 43  1  0
 16 44  1  0
 20 45  1  0
 20 46  1  0
 20 47  1  0
 22 48  1  0
 23 49  1  0
M  CHG  1  19   1
M  END
>  <UniqueID>  (16) 
15

>  <SMILES>  (16) 
CCN(CC)CCNc1c2oc3ccccc3c2[n+](C)c2ccsc12

>  <Energy>  (16) 
131.7121416154637

>  <Genealogy>  (16) 
CCN(CC)CCNc1c2oc3ccccc3c2[n+](C)c2ccsc12 (3D coordinates assigned)
CCN(CC)CCNc1c2oc3ccccc3c2[n+](C)c2ccsc12 (optimized conformer: 131.7121416154637 kcal/mol)

>  <smiles>  (16) 
CCN(CC)CCNc1c2oc3ccccc3c2[n+](C)c2ccsc12

>  <score_type>  (16) 
oracle

>  <origin>  (16) 
adg

>  <m_score__min__energy>  (16) 
-7.8899999999999997

>  <m_primary>  (16) 
energy

$$$$
16:0
     RDKit          3D

 36 37  0  0  0  0  0  0  0  0999 V2000
   -6.9318   24.2281  -32.8695 H   0  0  0  0  0  0  0  0  0  0  0  0
   -6.5800   23.4020  -32.2340 C   0  0  0  0  0  0  0  0  0  0  0  0
   -5.3750   23.5450  -31.6390 C   0  0  0  0  0  0  0  0  0  0  0  0
   -5.0360   24.7160  -30.7950 C   0  0  0  0  0  0  0  0  0  0  0  0
   -5.9450   25.4660  -30.3440 O   0  0  0  0  0  0  0  0  0  0  0  0
   -3.6960   24.9560  -30.4680 O   0  0  0  0  0  0  0  0  0  0  0  0
   -3.1040   24.5580  -29.2330 C   0  0  0  0  0  0  0  0  0  0  0  0
   -2.5116   25.3926  -28.8298 H   0  0  0  0  0  0  0  0  0  0  0  0
   -2.4573   23.6865  -29.4126 H   0  0  0  0  0  0  0  0  0  0  0  0
   -4.1810   24.1740  -28.2250 C   0  0  0  0  0  0  0  0  0  0  0  0
   -3.7941   24.3120  -27.2046 H   0  0  0  0  0  0  0  0  0  0  0  0
   -5.0647   24.8124  -28.3715 H   0  0  0  0  0  0  0  0  0  0  0  0
   -4.4614   23.1205  -28.3715 H   0  0  0  0  0  0  0  0  0  0  0  0
   -4.3650   22.4620  -31.7730 C   0  0  0  0  0  0  0  0  0  0  0  0
   -3.8530   21.8200  -30.6290 C   0  0  0  0  0  0  0  0  0  0  0  0
   -4.2077   22.1176  -29.6312 H   0  0  0  0  0  0  0  0  0  0  0  0
   -2.8980   20.8080  -30.7520 C   0  0  0  0  0  0  0  0  0  0  0  0
   -2.5058   20.3109  -29.8525 H   0  0  0  0  0  0  0  0  0  0  0  0
   -2.4400   20.4260  -32.0160 C   0  0  0  0  0  0  0  0  0  0  0  0
   -1.6883   19.6286  -32.1108 H   0  0  0  0  0  0  0  0  0  0  0  0
   -2.9370   21.0570  -33.1590 C   0  0  0  0  0  0  0  0  0  0  0  0
   -2.5751   20.7566  -34.1534 H   0  0  0  0  0  0  0  0  0  0  0  0
   -3.8930   22.0690  -33.0410 C   0  0  0  0  0  0  0  0  0  0  0  0
   -4.2800   22.5625  -33.9447 H   0  0  0  0  0  0  0  0  0  0  0  0
   -7.4640   22.2230  -32.0990 C   0  0  0  0  0  0  0  0  0  0  0  0
   -8.8090   22.3600  -31.7080 C   0  0  0  0  0  0  0  0  0  0  0  0
   -9.2098   23.3548  -31.4636 H   0  0  0  0  0  0  0  0  0  0  0  0
   -9.6370   21.2380  -31.6290 C   0  0  0  0  0  0  0  0  0  0  0  0
  -10.6832   21.3494  -31.3080 H   0  0  0  0  0  0  0  0  0  0  0  0
   -9.1390   19.9740  -31.9570 C   0  0  0  0  0  0  0  0  0  0  0  0
   -9.7907   19.0907  -31.8861 H   0  0  0  0  0  0  0  0  0  0  0  0
   -7.8100   19.8320  -32.3760 C   0  0  0  0  0  0  0  0  0  0  0  0
   -7.3020   18.5320  -32.7280 C   0  0  0  0  0  0  0  0  0  0  0  0
   -6.8950   17.4860  -33.0110 N   0  0  0  0  0  0  0  0  0  0  0  0
   -6.9780   20.9560  -32.4560 C   0  0  0  0  0  0  0  0  0  0  0  0
   -5.9391   20.8450  -32.8002 H   0  0  0  0  0  0  0  0  0  0  0  0
  1  2  1  0
  2  3  2  0
  3  4  1  0
  4  5  2  0
  4  6  1  0
  6  7  1  0
  7  8  1  0
  7  9  1  0
  7 10  1  0
 10 11  1  0
 10 12  1  0
 10 13  1  0
  3 14  1  0
 14 15  2  0
 15 16  1  0
 15 17  1  0
 17 18  1  0
 17 19  2  0
 19 20  1  0
 19 21  1  0
 21 22  1  0
 21 23  2  0
 23 24  1  0
  2 25  1  0
 25 26  2  0
 26 27  1  0
 26 28  1  0
 28 29  1  0
 28 30  2  0
 30 31  1  0
 30 32  1  0
 32 33  1  0
 33 34  3  0
 32 35  2  0
 35 36  1  0
 23 14  1  0
 35 25  1  0
M  END
>  <UniqueID>  (17) 
16

>  <SMILES>  (17) 
CCOC(=O)/C(=C\c1cccc(C#N)c1)c1ccccc1

>  <Energy>  (17) 
45.0012776822907

>  <Genealogy>  (17) 
CCOC(=O)/C(=C\c1cccc(C#N)c1)c1ccccc1 (cis-trans isomerization)
CCOC(=O)/C(=C\c1cccc(C#N)c1)c1ccccc1 (3D coordinates assigned)
CCOC(=O)/C(=C\c1cccc(C#N)c1)c1ccccc1 (optimized conformer: 45.0012776822907 kcal/mol)

>  <smiles>  (17) 
CCOC(=O)C(=Cc1cccc(C#N)c1)c1ccccc1

>  <score_type>  (17) 
oracle

>  <origin>  (17) 
adg

>  <m_score__min__energy>  (17) 
-7.9699999999999998

>  <m_primary>  (17) 
energy

$$$$
17:0
     RDKit          3D

101105  0  0  0  0  0  0  0  0999 V2000
   -6.1630   25.5320  -29.4410 C   0  0  0  0  0  0  0  0  0  0  0  0
   -6.9210   24.5470  -30.3350 C   0  0  0  0  0  0  0  0  0  0  0  0
   -6.2110   23.2490  -30.4580 N   0  0  0  0  0  0  0  0  0  0  0  0
   -7.0610   22.1440  -30.9740 C   0  0  0  0  0  0  0  0  0  0  0  0
   -8.2080   22.5950  -31.8900 C   0  0  0  0  0  0  0  0  0  0  0  0
   -4.9540   23.3730  -31.2400 C   0  0  0  0  0  0  0  0  0  0  0  0
   -3.7170   23.3590  -30.3380 C   0  0  0  0  0  0  0  0  0  0  0  0
   -2.6860   22.5590  -30.9220 O   0  0  0  0  0  0  0  0  0  0  0  0
   -2.7910   21.1710  -31.1020 C   0  0  0  0  0  0  0  0  0  0  0  0
   -3.1650   20.4620  -30.1270 O   0  0  0  0  0  0  0  0  0  0  0  0
   -2.6530   20.5220  -32.4950 C   0  0  2  0  0  0  0  0  0  0  0  0
   -3.6980   21.2410  -33.4310 C   0  0  0  0  0  0  0  0  0  0  0  0
   -5.0300   20.5280  -33.5260 C   0  0  0  0  0  0  0  0  0  0  0  0
   -4.7970   19.1420  -34.1160 C   0  0  2  0  0  0  0  0  0  0  0  0
   -6.1170   18.5460  -34.6240 C   0  0  0  0  0  0  0  0  0  0  0  0
   -4.0570   18.2420  -33.0940 C   0  0  2  0  0  0  0  0  0  0  0  0
   -4.9990   17.6620  -32.0180 C   0  0  0  0  0  0  0  0  0  0  0  0
   -2.7910   18.9160  -32.4280 C   0  0  1  0  0  0  0  0  0  0  0  0
   -1.5230   18.1250  -32.8140 C   0  0  0  0  0  0  0  0  0  0  0  0
   -1.3390   16.9080  -32.2640 C   0  0  0  0  0  0  0  0  0  0  0  0
   -0.1670   16.0670  -32.6410 C   0  0  0  0  0  0  0  0  0  0  0  0
    1.1320   16.9020  -32.5890 C   0  0  2  0  0  0  0  0  0  0  0  0
    1.7490   17.1200  -31.1160 C   0  0  2  0  0  0  0  0  0  0  0  0
    3.3000   16.9960  -31.2580 C   0  0  0  0  0  0  0  0  0  0  0  0
    1.3060   15.9940  -30.1250 C   0  0  0  0  0  0  0  0  0  0  0  0
    1.6550   16.2680  -28.6610 C   0  0  0  0  0  0  0  0  0  0  0  0
    0.9570   17.5490  -28.1860 C   0  0  2  0  0  0  0  0  0  0  0  0
   -0.4370   17.4100  -28.3320 O   0  0  0  0  0  0  0  0  0  0  0  0
    1.4480   18.7890  -28.9960 C   0  0  0  0  0  0  0  0  0  0  0  0
    2.8850   19.1660  -28.5420 C   0  0  0  0  0  0  0  0  0  0  0  0
    0.5680   19.9910  -28.5840 C   0  0  0  0  0  0  0  0  0  0  0  0
    1.2880   18.5200  -30.5630 C   0  0  1  0  0  0  0  0  0  0  0  0
    1.8650   19.6610  -31.4050 C   0  0  0  0  0  0  0  0  0  0  0  0
    1.8290   19.4320  -32.9260 C   0  0  0  0  0  0  0  0  0  0  0  0
    1.0060   18.2140  -33.5310 C   0  0  1  0  0  0  0  0  0  0  0  0
    1.7740   17.8810  -34.8480 C   0  0  0  0  0  0  0  0  0  0  0  0
   -0.5610   18.5810  -33.9240 C   0  0  1  0  0  0  0  0  0  0  0  0
   -1.0420   17.8570  -35.2300 C   0  0  0  0  0  0  0  0  0  0  0  0
   -0.8130   20.0920  -34.2320 C   0  0  0  0  0  0  0  0  0  0  0  0
   -1.2320   20.9030  -32.9990 C   0  0  0  0  0  0  0  0  0  0  0  0
   -6.3508   25.2880  -28.3850 H   0  0  0  0  0  0  0  0  0  0  0  0
   -5.0850   25.4601  -29.6479 H   0  0  0  0  0  0  0  0  0  0  0  0
   -6.5086   26.5556  -29.6479 H   0  0  0  0  0  0  0  0  0  0  0  0
   -7.9163   24.3679  -29.9022 H   0  0  0  0  0  0  0  0  0  0  0  0
   -6.9979   24.9891  -31.3393 H   0  0  0  0  0  0  0  0  0  0  0  0
   -6.4195   21.4539  -31.5417 H   0  0  0  0  0  0  0  0  0  0  0  0
   -7.5289   21.6742  -30.0963 H   0  0  0  0  0  0  0  0  0  0  0  0
   -9.0576   22.9291  -31.2763 H   0  0  0  0  0  0  0  0  0  0  0  0
   -7.8654   23.4254  -32.5249 H   0  0  0  0  0  0  0  0  0  0  0  0
   -8.5227   21.7536  -32.5249 H   0  0  0  0  0  0  0  0  0  0  0  0
   -4.8894   22.5314  -31.9453 H   0  0  0  0  0  0  0  0  0  0  0  0
   -4.9770   24.3354  -31.7722 H   0  0  0  0  0  0  0  0  0  0  0  0
   -3.3494   24.3879  -30.2102 H   0  0  0  0  0  0  0  0  0  0  0  0
   -3.9909   22.9327  -29.3617 H   0  0  0  0  0  0  0  0  0  0  0  0
   -3.8745   22.2536  -33.0392 H   0  0  0  0  0  0  0  0  0  0  0  0
   -3.2674   21.2485  -34.4432 H   0  0  0  0  0  0  0  0  0  0  0  0
   -5.4730   20.4346  -32.5235 H   0  0  0  0  0  0  0  0  0  0  0  0
   -5.7178   21.0991  -34.1669 H   0  0  0  0  0  0  0  0  0  0  0  0
   -4.1394   19.2154  -34.9947 H   0  0  0  0  0  0  0  0  0  0  0  0
   -6.7452   18.2624  -33.7667 H   0  0  0  0  0  0  0  0  0  0  0  0
   -6.6455   19.2928  -35.2347 H   0  0  0  0  0  0  0  0  0  0  0  0
   -5.9063   17.6557  -35.2347 H   0  0  0  0  0  0  0  0  0  0  0  0
   -3.6770   17.4072  -33.7012 H   0  0  0  0  0  0  0  0  0  0  0  0
   -4.6071   17.9033  -31.0189 H   0  0  0  0  0  0  0  0  0  0  0  0
   -6.0016   18.0994  -32.1341 H   0  0  0  0  0  0  0  0  0  0  0  0
   -5.0598   16.5698  -32.1341 H   0  0  0  0  0  0  0  0  0  0  0  0
   -2.9530   18.8296  -31.3434 H   0  0  0  0  0  0  0  0  0  0  0  0
   -2.0633   16.5304  -31.5272 H   0  0  0  0  0  0  0  0  0  0  0  0
   -0.0847   15.2240  -31.9392 H   0  0  0  0  0  0  0  0  0  0  0  0
   -0.3105   15.6924  -33.6653 H   0  0  0  0  0  0  0  0  0  0  0  0
    1.9339   16.2962  -33.0362 H   0  0  0  0  0  0  0  0  0  0  0  0
    3.7579   16.9594  -30.2585 H   0  0  0  0  0  0  0  0  0  0  0  0
    3.5454   16.0754  -31.8077 H   0  0  0  0  0  0  0  0  0  0  0  0
    3.6886   17.8659  -31.8077 H   0  0  0  0  0  0  0  0  0  0  0  0
    0.2150   15.8770  -30.2026 H   0  0  0  0  0  0  0  0  0  0  0  0
    1.8561   15.0865  -30.4145 H   0  0  0  0  0  0  0  0  0  0  0  0
    1.3224   15.4212  -28.0426 H   0  0  0  0  0  0  0  0  0  0  0  0
    2.7437   16.3939  -28.5668 H   0  0  0  0  0  0  0  0  0  0  0  0
    1.2071   17.7069  -27.1265 H   0  0  0  0  0  0  0  0  0  0  0  0
   -0.6820   17.8080  -29.2070 H   0  0  0  0  0  0  0  0  0  0  0  0
    2.9310   19.1781  -27.4430 H   0  0  0  0  0  0  0  0  0  0  0  0
    3.5987   18.4247  -28.9307 H   0  0  0  0  0  0  0  0  0  0  0  0
    3.1428   20.1622  -28.9307 H   0  0  0  0  0  0  0  0  0  0  0  0
    0.5225   20.0531  -27.4867 H   0  0  0  0  0  0  0  0  0  0  0  0
    1.0023   20.9182  -28.9860 H   0  0  0  0  0  0  0  0  0  0  0  0
   -0.4471   19.8571  -28.9860 H   0  0  0  0  0  0  0  0  0  0  0  0
    0.1943   18.4854  -30.6757 H   0  0  0  0  0  0  0  0  0  0  0  0
    1.2900   20.5723  -31.1838 H   0  0  0  0  0  0  0  0  0  0  0  0
    2.9278   19.7366  -31.1315 H   0  0  0  0  0  0  0  0  0  0  0  0
    1.4157   20.3475  -33.3745 H   0  0  0  0  0  0  0  0  0  0  0  0
    2.8712   19.1746  -33.1659 H   0  0  0  0  0  0  0  0  0  0  0  0
    2.7575   17.4546  -34.6011 H   0  0  0  0  0  0  0  0  0  0  0  0
    1.1957   17.1528  -35.4356 H   0  0  0  0  0  0  0  0  0  0  0  0
    1.9102   18.8009  -35.4356 H   0  0  0  0  0  0  0  0  0  0  0  0
   -1.6322   16.9687  -34.9606 H   0  0  0  0  0  0  0  0  0  0  0  0
   -1.6636   18.5444  -35.8225 H   0  0  0  0  0  0  0  0  0  0  0  0
   -0.1674   17.5503  -35.8225 H   0  0  0  0  0  0  0  0  0  0  0  0
    0.1141   20.5250  -34.6357 H   0  0  0  0  0  0  0  0  0  0  0  0
   -1.6432   20.1428  -34.9518 H   0  0  0  0  0  0  0  0  0  0  0  0
   -0.5088   20.7171  -32.1912 H   0  0  0  0  0  0  0  0  0  0  0  0
   -1.2509   21.9648  -33.2859 H   0  0  0  0  0  0  0  0  0  0  0  0
  1  2  1  0
  2  3  1  0
  3  4  1  0
  4  5  1  0
  3  6  1  0
  6  7  1  0
  7  8  1  0
  8  9  1  0
  9 10  2  0
 11  9  1  1
 11 12  1  0
 12 13  1  0
 13 14  1  0
 14 15  1  0
 14 16  1  0
 16 17  1  0
 16 18  1  0
 18 19  1  0
 19 20  2  0
 20 21  1  0
 21 22  1  0
 22 23  1  0
 23 24  1  6
 23 25  1  0
 25 26  1  0
 26 27  1  0
 27 28  1  0
 27 29  1  0
 29 30  1  0
 29 31  1  0
 29 32  1  0
 32 33  1  0
 33 34  1  0
 34 35  1  0
 35 36  1  6
 35 37  1  0
 37 38  1  6
 37 39  1  0
 39 40  1  0
 18 11  1  0
 37 19  1  0
 40 11  1  0
 35 22  1  0
 32 23  1  0
  1 41  1  0
  1 42  1  0
  1 43  1  0
  2 44  1  0
  2 45  1  0
  4 46  1  0
  4 47  1  0
  5 48  1  0
  5 49  1  0
  5 50  1  0
  6 51  1  0
  6 52  1  0
  7 53  1  0
  7 54  1  0
 12 55  1  0
 12 56  1  0
 13 57  1  0
 13 58  1  0
 14 59  1  6
 15 60  1  0
 15 61  1  0
 15 62  1  0
 16 63  1  6
 17 64  1  0
 17 65  1  0
 17 66  1  0
 18 67  1  1
 20 68  1  0
 21 69  1  0
 21 70  1  0
 22 71  1  6
 24 72  1  0
 24 73  1  0
 24 74  1  0
 25 75  1  0
 25 76  1  0
 26 77  1  0
 26 78  1  0
 27 79  1  1
 28 80  1  0
 30 81  1  0
 30 82  1  0
 30 83  1  0
 31 84  1  0
 31 85  1  0
 31 86  1  0
 32 87  1  1
 33 88  1  0
 33 89  1  0
 34 90  1  0
 34 91  1  0
 36 92  1  0
 36 93  1  0
 36 94  1  0
 38 95  1  0
 38 96  1  0
 38 97  1  0
 39 98  1  0
 39 99  1  0
 40100  1  0
 40101  1  0
M  END
>  <UniqueID>  (18) 
17

>  <SMILES>  (18) 
CCN(CC)CCOC(=O)[C@]12CC[C@H](C)C(C)C1C1=CCC3C4(C)CCC(O)C(C)(C)C4CCC3(C)C1(C)CC2

>  <Energy>  (18) 
189.94410219031369

>  <Genealogy>  (18) 
CCN(CC)CCOC(=O)[C@]12CC[C@H](C)C(C)C1C1=CCC3C4(C)CCC(O)C(C)(C)C4CCC3(C)C1(C)CC2 (chirality)
CCN(CC)CCOC(=O)[C@]12CC[C@H](C)C(C)C1C1=CCC3C4(C)CCC(O)C(C)(C)C4CCC3(C)C1(C)CC2 (3D coordinates assigned)
CCN(CC)CCOC(=O)[C@]12CC[C@H](C)C(C)C1C1=CCC3C4(C)CCC(O)C(C)(C)C4CCC3(C)C1(C)CC2 (nonaromatic ring conformer: 189.94410219031369 kcal/mol)

>  <smiles>  (18) 
CCN(CC)CCOC(=O)C12CCC(C)C(C)C1C1=CCC3C4(C)CCC(O)C(C)(C)C4CCC3(C)C1(C)CC2

>  <score_type>  (18) 
oracle

>  <origin>  (18) 
adg

>  <m_score__min__energy>  (18) 
-7.4800000000000004

>  <m_primary>  (18) 
energy

$$$$
18:0
     RDKit          3D

 43 45  0  0  0  0  0  0  0  0999 V2000
   -2.7270   25.1250  -26.7170 C   0  0  0  0  0  0  0  0  0  0  0  0
   -1.5880   25.3520  -27.7050 C   0  0  0  0  0  0  0  0  0  0  0  0
   -2.0880   25.4510  -29.0390 O   0  0  0  0  0  0  0  0  0  0  0  0
   -3.0270   24.5870  -29.6260 C   0  0  0  0  0  0  0  0  0  0  0  0
   -4.3700   24.9520  -29.8430 C   0  0  0  0  0  0  0  0  0  0  0  0
   -5.2610   24.0480  -30.4290 C   0  0  0  0  0  0  0  0  0  0  0  0
   -4.8330   22.7620  -30.7940 C   0  0  0  0  0  0  0  0  0  0  0  0
   -5.7780   21.8220  -31.4360 C   0  0  0  0  0  0  0  0  0  0  0  0
   -7.1540   21.9280  -31.3910 C   0  0  0  0  0  0  0  0  0  0  0  0
   -7.6860   20.9230  -32.1120 N   0  0  0  0  0  0  0  0  0  0  0  0
   -6.6320   20.2320  -32.6080 C   0  0  0  0  0  0  0  0  0  0  0  0
   -5.4510   20.7370  -32.1790 N   0  0  0  0  0  0  0  0  0  0  0  0
   -4.1150   20.1910  -32.4290 C   0  0  0  0  0  0  0  0  0  0  0  0
   -6.7850   19.0140  -33.4750 C   0  0  0  0  0  0  0  0  0  0  0  0
   -7.4050   17.8480  -32.6900 C   0  0  0  0  0  0  0  0  0  0  0  0
   -8.6710   18.2190  -31.8880 C   0  0  0  0  0  0  0  0  0  0  0  0
   -9.5510   19.2610  -32.6000 C   0  0  0  0  0  0  0  0  0  0  0  0
   -9.1230   20.7310  -32.3600 C   0  0  0  0  0  0  0  0  0  0  0  0
   -3.4910   22.4040  -30.5910 C   0  0  0  0  0  0  0  0  0  0  0  0
   -2.6010   23.3090  -30.0040 C   0  0  0  0  0  0  0  0  0  0  0  0
   -2.3419   25.2018  -25.6895 H   0  0  0  0  0  0  0  0  0  0  0  0
   -3.5060   25.8856  -26.8744 H   0  0  0  0  0  0  0  0  0  0  0  0
   -3.1549   24.1239  -26.8744 H   0  0  0  0  0  0  0  0  0  0  0  0
   -1.0654   26.2844  -27.4453 H   0  0  0  0  0  0  0  0  0  0  0  0
   -0.8966   24.4982  -27.6493 H   0  0  0  0  0  0  0  0  0  0  0  0
   -4.7194   25.9530  -29.5500 H   0  0  0  0  0  0  0  0  0  0  0  0
   -6.3049   24.3466  -30.6053 H   0  0  0  0  0  0  0  0  0  0  0  0
   -7.7208   22.7039  -30.8556 H   0  0  0  0  0  0  0  0  0  0  0  0
   -3.6167   19.9874  -31.4697 H   0  0  0  0  0  0  0  0  0  0  0  0
   -4.2023   19.2564  -33.0025 H   0  0  0  0  0  0  0  0  0  0  0  0
   -3.5227   20.9192  -33.0025 H   0  0  0  0  0  0  0  0  0  0  0  0
   -7.4361   19.2594  -34.3270 H   0  0  0  0  0  0  0  0  0  0  0  0
   -5.7880   18.7076  -33.8246 H   0  0  0  0  0  0  0  0  0  0  0  0
   -7.6709   17.0552  -33.4047 H   0  0  0  0  0  0  0  0  0  0  0  0
   -6.6510   17.5289  -31.9554 H   0  0  0  0  0  0  0  0  0  0  0  0
   -9.2657   17.3071  -31.7305 H   0  0  0  0  0  0  0  0  0  0  0  0
   -8.3396   18.6630  -30.9377 H   0  0  0  0  0  0  0  0  0  0  0  0
   -9.5118   19.0633  -33.6814 H   0  0  0  0  0  0  0  0  0  0  0  0
  -10.5629   19.1561  -32.1816 H   0  0  0  0  0  0  0  0  0  0  0  0
   -9.3979   21.3169  -33.2495 H   0  0  0  0  0  0  0  0  0  0  0  0
   -9.6411   21.0589  -31.4467 H   0  0  0  0  0  0  0  0  0  0  0  0
   -3.1379   21.4075  -30.8949 H   0  0  0  0  0  0  0  0  0  0  0  0
   -1.5547   23.0129  -29.8377 H   0  0  0  0  0  0  0  0  0  0  0  0
  1  2  1  0
  2  3  1  0
  3  4  1  0
  4  5  2  0
  5  6  1  0
  6  7  2  0
  7  8  1  0
  8  9  2  0
  9 10  1  0
 10 11  1  0
 11 12  2  0
 12 13  1  0
 11 14  1  0
 14 15  1  0
 15 16  1  0
 16 17  1  0
 17 18  1  0
  7 19  1  0
 19 20  2  0
 20  4  1  0
 12  8  1  0
 18 10  1  0
  1 21  1  0
  1 22  1  0
  1 23  1  0
  2 24  1  0
  2 25  1  0
  5 26  1  0
  6 27  1  0
  9 28  1  0
 13 29  1  0
 13 30  1  0
 13 31  1  0
 14 32  1  0
 14 33  1  0
 15 34  1  0
 15 35  1  0
 16 36  1  0
 16 37  1  0
 17 38  1  0
 17 39  1  0
 18 40  1  0
 18 41  1  0
 19 42  1  0
 20 43  1  0
M  CHG  1  12   1
M  END
>  <UniqueID>  (19) 
18

>  <SMILES>  (19) 
CCOc1ccc(-c2cn3c([n+]2C)CCCCC3)cc1

>  <Energy>  (19) 
82.90174743445993

>  <Genealogy>  (19) 
CCOc1ccc(-c2cn3c([n+]2C)CCCCC3)cc1 (3D coordinates assigned)
CCOc1ccc(-c2cn3c([n+]2C)CCCCC3)cc1 (nonaromatic ring conformer: 82.90174743445993 kcal/mol)

>  <smiles>  (19) 
CCOc1ccc(-c2cn3c([n+]2C)CCCCC3)cc1

>  <score_type>  (19) 
oracle

>  <origin>  (19) 
adg

>  <m_score__min__energy>  (19) 
-5.71

>  <m_primary>  (19) 
energy

$$$$
19:0
     RDKit          3D

 30 32  0  0  0  0  0  0  0  0999 V2000
   -0.5870   26.1530  -27.0020 C   0  0  0  0  0  0  0  0  0  0  0  0
   -0.8630   25.0370  -27.9580 C   0  0  0  0  0  0  0  0  0  0  0  0
   -2.1060   24.9460  -28.6010 C   0  0  0  0  0  0  0  0  0  0  0  0
   -2.3500   23.8930  -29.4990 C   0  0  0  0  0  0  0  0  0  0  0  0
   -3.6470   23.7570  -30.2020 C   0  0  0  0  0  0  0  0  0  0  0  0
   -4.3840   22.6320  -30.2840 N   0  0  0  0  0  0  0  0  0  0  0  0
   -5.4480   23.0180  -31.0170 C   0  0  0  0  0  0  0  0  0  0  0  0
   -6.5800   22.1380  -31.4060 C   0  0  0  0  0  0  0  0  0  0  0  0
   -7.8590   22.3280  -30.8460 C   0  0  0  0  0  0  0  0  0  0  0  0
   -8.9250   21.5020  -31.2140 C   0  0  0  0  0  0  0  0  0  0  0  0
   -8.7330   20.4800  -32.1430 C   0  0  0  0  0  0  0  0  0  0  0  0
   -7.4730   20.2810  -32.7090 C   0  0  0  0  0  0  0  0  0  0  0  0
   -6.3990   21.1020  -32.3490 C   0  0  0  0  0  0  0  0  0  0  0  0
   -5.1860   20.8690  -32.9110 F   0  0  0  0  0  0  0  0  0  0  0  0
   -5.3560   24.3200  -31.3640 N   0  0  0  0  0  0  0  0  0  0  0  0
   -4.2390   24.7360  -30.8450 O   0  0  0  0  0  0  0  0  0  0  0  0
   -1.3330   22.9540  -29.7320 C   0  0  0  0  0  0  0  0  0  0  0  0
   -0.1100   23.0790  -29.0730 C   0  0  0  0  0  0  0  0  0  0  0  0
    0.0980   24.1070  -28.2090 N   0  0  0  0  0  0  0  0  0  0  0  0
   -0.6785   25.7830  -25.9702 H   0  0  0  0  0  0  0  0  0  0  0  0
    0.4322   26.5329  -27.1663 H   0  0  0  0  0  0  0  0  0  0  0  0
   -1.3116   26.9642  -27.1663 H   0  0  0  0  0  0  0  0  0  0  0  0
   -2.8865   25.6955  -28.4033 H   0  0  0  0  0  0  0  0  0  0  0  0
   -4.1720   21.6880  -29.8980 H   0  0  0  0  0  0  0  0  0  0  0  0
   -8.0199   23.1327  -30.1135 H   0  0  0  0  0  0  0  0  0  0  0  0
   -9.9188   21.6588  -30.7692 H   0  0  0  0  0  0  0  0  0  0  0  0
   -9.5739   19.8313  -32.4294 H   0  0  0  0  0  0  0  0  0  0  0  0
   -7.3236   19.4745  -33.4419 H   0  0  0  0  0  0  0  0  0  0  0  0
   -1.5000   22.1222  -30.4321 H   0  0  0  0  0  0  0  0  0  0  0  0
    0.6880   22.3437  -29.2531 H   0  0  0  0  0  0  0  0  0  0  0  0
  1  2  1  0
  2  3  2  0
  3  4  1  0
  4  5  1  0
  5  6  2  0
  6  7  1  0
  7  8  1  0
  8  9  2  0
  9 10  1  0
 10 11  2  0
 11 12  1  0
 12 13  2  0
 13 14  1  0
  7 15  2  0
 15 16  1  0
  4 17  2  0
 17 18  1  0
 18 19  2  0
 19  2  1  0
 16  5  1  0
 13  8  1  0
  1 20  1  0
  1 21  1  0
  1 22  1  0
  3 23  1  0
  6 24  1  0
  9 25  1  0
 10 26  1  0
 11 27  1  0
 12 28  1  0
 17 29  1  0
 18 30  1  0
M  CHG  1   6   1
M  END
>  <UniqueID>  (20) 
19

>  <SMILES>  (20) 
Cc1cc(-c2[nH+]c(-c3ccccc3F)no2)ccn1

>  <Energy>  (20) 
70.59628557990371

>  <Genealogy>  (20) 
Cc1cc(-c2[nH+]c(-c3ccccc3F)no2)ccn1 (protonated)
Cc1cc(-c2[nH+]c(-c3ccccc3F)no2)ccn1 (3D coordinates assigned)
Cc1cc(-c2[nH+]c(-c3ccccc3F)no2)ccn1 (optimized conformer: 70.59628557990371 kcal/mol)

>  <smiles>  (20) 
Cc1cc(-c2nc(-c3ccccc3F)no2)ccn1

>  <score_type>  (20) 
oracle

>  <origin>  (20) 
adg

>  <m_score__min__energy>  (20) 
-6.6299999999999999

>  <m_primary>  (20) 
energy

$$$$
20:0
     RDKit          3D

 62 66  0  0  0  0  0  0  0  0999 V2000
   -8.3080   19.2860  -32.0450 C   0  0  0  0  0  0  0  0  0  0  0  0
   -7.1950   19.8690  -32.9170 C   0  0  0  0  0  0  0  0  0  0  0  0
   -6.0520   18.9360  -33.0520 N   0  0  0  0  0  0  0  0  0  0  0  0
   -6.4870   17.5240  -32.9450 C   0  0  0  0  0  0  0  0  0  0  0  0
   -5.7120   16.8140  -31.8390 C   0  0  0  0  0  0  0  0  0  0  0  0
   -5.2110   19.1740  -34.2520 C   0  0  0  0  0  0  0  0  0  0  0  0
   -3.7360   19.4910  -33.9350 C   0  0  0  0  0  0  0  0  0  0  0  0
   -3.4730   19.3620  -32.5010 N   0  0  0  0  0  0  0  0  0  0  0  0
   -2.9710   20.4450  -31.6990 C   0  0  0  0  0  0  0  0  0  0  0  0
   -1.5760   20.6660  -31.4880 C   0  0  0  0  0  0  0  0  0  0  0  0
   -1.1160   21.7850  -30.7400 C   0  0  0  0  0  0  0  0  0  0  0  0
   -2.0410   22.6680  -30.1530 C   0  0  0  0  0  0  0  0  0  0  0  0
   -3.3720   22.3830  -30.3540 C   0  0  0  0  0  0  0  0  0  0  0  0
   -3.8530   21.3630  -31.1220 C   0  0  0  0  0  0  0  0  0  0  0  0
   -5.2440   21.4970  -31.2690 O   0  0  0  0  0  0  0  0  0  0  0  0
   -5.5130   22.8540  -30.8800 C   0  0  1  0  0  0  0  0  0  0  0  0
   -6.8200   23.3470  -30.3720 C   0  0  0  0  0  0  0  0  0  0  0  0
   -7.8240   22.6550  -30.3790 O   0  0  0  0  0  0  0  0  0  0  0  0
   -6.8340   24.8160  -29.9390 C   0  0  0  0  0  0  0  0  0  0  0  0
   -5.5300   25.3020  -29.1880 C   0  0  0  0  0  0  0  0  0  0  0  0
   -4.1910   24.6190  -29.6690 C   0  0  1  0  0  0  0  0  0  0  0  0
   -3.8520   25.1570  -30.9280 O   0  0  0  0  0  0  0  0  0  0  0  0
   -2.9180   24.6880  -28.7390 C   0  0  2  0  0  0  0  0  0  0  0  0
   -1.6830   23.9650  -29.4260 C   0  0  0  0  0  0  0  0  0  0  0  0
   -3.1380   24.0840  -27.3970 N   0  0  0  0  0  0  0  0  0  0  0  0
   -3.7500   24.9670  -26.3870 C   0  0  0  0  0  0  0  0  0  0  0  0
   -3.6780   22.7050  -27.3910 C   0  0  0  0  0  0  0  0  0  0  0  0
   -4.8190   22.4970  -28.4030 C   0  0  0  0  0  0  0  0  0  0  0  0
   -4.4810   23.1300  -29.7970 C   0  0  2  0  0  0  0  0  0  0  0  0
   -8.0510   19.4206  -30.9839 H   0  0  0  0  0  0  0  0  0  0  0  0
   -9.2535   19.8046  -32.2619 H   0  0  0  0  0  0  0  0  0  0  0  0
   -8.4200   18.2134  -32.2619 H   0  0  0  0  0  0  0  0  0  0  0  0
   -7.6010   20.0808  -33.9171 H   0  0  0  0  0  0  0  0  0  0  0  0
   -6.8298   20.7874  -32.4342 H   0  0  0  0  0  0  0  0  0  0  0  0
   -7.5618   17.4919  -32.7132 H   0  0  0  0  0  0  0  0  0  0  0  0
   -6.2926   17.0161  -33.9012 H   0  0  0  0  0  0  0  0  0  0  0  0
   -6.0801   17.1512  -30.8588 H   0  0  0  0  0  0  0  0  0  0  0  0
   -5.8553   15.7272  -31.9304 H   0  0  0  0  0  0  0  0  0  0  0  0
   -4.6419   17.0517  -31.9304 H   0  0  0  0  0  0  0  0  0  0  0  0
   -5.2429   18.2718  -34.8805 H   0  0  0  0  0  0  0  0  0  0  0  0
   -5.6238   20.0594  -34.7577 H   0  0  0  0  0  0  0  0  0  0  0  0
   -3.0904   18.7901  -34.4845 H   0  0  0  0  0  0  0  0  0  0  0  0
   -3.5245   20.5264  -34.2404 H   0  0  0  0  0  0  0  0  0  0  0  0
   -3.6530   18.4450  -32.0300 H   0  0  0  0  0  0  0  0  0  0  0  0
   -0.8459   19.9600  -31.9105 H   0  0  0  0  0  0  0  0  0  0  0  0
   -0.0366   21.9601  -30.6204 H   0  0  0  0  0  0  0  0  0  0  0  0
   -5.4961   23.3845  -31.8434 H   0  0  0  0  0  0  0  0  0  0  0  0
   -6.9612   25.4361  -30.8386 H   0  0  0  0  0  0  0  0  0  0  0  0
   -7.6599   24.9173  -29.2195 H   0  0  0  0  0  0  0  0  0  0  0  0
   -5.4332   26.3872  -29.3393 H   0  0  0  0  0  0  0  0  0  0  0  0
   -5.6585   25.0185  -28.1330 H   0  0  0  0  0  0  0  0  0  0  0  0
   -3.0080   25.6680  -30.8180 H   0  0  0  0  0  0  0  0  0  0  0  0
   -2.7092   25.7586  -28.5968 H   0  0  0  0  0  0  0  0  0  0  0  0
   -1.2396   24.6584  -30.1557 H   0  0  0  0  0  0  0  0  0  0  0  0
   -0.9868   23.6932  -28.6189 H   0  0  0  0  0  0  0  0  0  0  0  0
   -3.4975   24.6027  -25.3802 H   0  0  0  0  0  0  0  0  0  0  0  0
   -3.3663   25.9901  -26.5137 H   0  0  0  0  0  0  0  0  0  0  0  0
   -4.8427   24.9669  -26.5137 H   0  0  0  0  0  0  0  0  0  0  0  0
   -2.8622   22.0089  -27.6357 H   0  0  0  0  0  0  0  0  0  0  0  0
   -4.0918   22.5200  -26.3887 H   0  0  0  0  0  0  0  0  0  0  0  0
   -4.9877   21.4178  -28.5331 H   0  0  0  0  0  0  0  0  0  0  0  0
   -5.7194   22.9925  -28.0109 H   0  0  0  0  0  0  0  0  0  0  0  0
  1  2  1  0
  2  3  1  0
  3  4  1  0
  4  5  1  0
  3  6  1  0
  6  7  1  0
  7  8  1  0
  8  9  1  0
  9 10  2  0
 10 11  1  0
 11 12  2  0
 12 13  1  0
 13 14  2  0
 14 15  1  0
 15 16  1  0
 16 17  1  0
 17 18  2  0
 17 19  1  0
 19 20  1  0
 20 21  1  0
 21 22  1  6
 21 23  1  0
 23 24  1  0
 23 25  1  0
 25 26  1  0
 25 27  1  0
 27 28  1  0
 29 28  1  1
 14  9  1  0
 29 16  1  0
 24 12  1  0
 29 13  1  0
 29 21  1  0
  1 30  1  0
  1 31  1  0
  1 32  1  0
  2 33  1  0
  2 34  1  0
  4 35  1  0
  4 36  1  0
  5 37  1  0
  5 38  1  0
  5 39  1  0
  6 40  1  0
  6 41  1  0
  7 42  1  0
  7 43  1  0
  8 44  1  0
 10 45  1  0
 11 46  1  0
 16 47  1  6
 19 48  1  0
 19 49  1  0
 20 50  1  0
 20 51  1  0
 22 52  1  0
 23 53  1  1
 24 54  1  0
 24 55  1  0
 26 56  1  0
 26 57  1  0
 26 58  1  0
 27 59  1  0
 27 60  1  0
 28 61  1  0
 28 62  1  0
M  END
>  <UniqueID>  (21) 
20

>  <SMILES>  (21) 
CCN(CC)CCNc1ccc2c3c1O[C@H]1C(=O)CC[C@@]4(O)C(C2)N(C)CCC314

>  <Energy>  (21) 
141.60200566790564

>  <Genealogy>  (21) 
CCN(CC)CCNc1ccc2c3c1O[C@H]1C(=O)CC[C@@]4(O)C(C2)N(C)CCC314 (chirality)
CCN(CC)CCNc1ccc2c3c1O[C@H]1C(=O)CC[C@@]4(O)C(C2)N(C)CCC314 (3D coordinates assigned)
CCN(CC)CCNc1ccc2c3c1O[C@H]1C(=O)CC[C@@]4(O)C(C2)N(C)CCC314 (nonaromatic ring conformer: 141.60200566790564 kcal/mol)

>  <smiles>  (21) 
CCN(CC)CCNc1ccc2c3c1OC1C(=O)CCC4(O)C(C2)N(C)CCC314

>  <score_type>  (21) 
oracle

>  <origin>  (21) 
adg

>  <m_score__min__energy>  (21) 
-8.8100000000000005

>  <m_primary>  (21) 
energy

$$$$
21:0
     RDKit          3D

 51 53  0  0  0  0  0  0  0  0999 V2000
   -0.8930   26.9300  -24.2730 C   0  0  0  0  0  0  0  0  0  0  0  0
   -1.9840   26.4330  -25.2320 C   0  0  0  0  0  0  0  0  0  0  0  0
   -1.5200   26.1700  -26.6170 N   0  0  0  0  0  0  0  0  0  0  0  0
   -0.4080   27.0530  -27.0060 C   0  0  0  0  0  0  0  0  0  0  0  0
   -1.1950   24.7560  -26.9030 C   0  0  0  0  0  0  0  0  0  0  0  0
   -2.4520   23.8780  -27.0740 C   0  0  0  0  0  0  0  0  0  0  0  0
   -3.5530   24.5700  -27.7710 N   0  0  0  0  0  0  0  0  0  0  0  0
   -4.0280   23.8130  -28.9060 C   0  0  0  0  0  0  0  0  0  0  0  0
   -3.1880   22.9010  -29.5520 C   0  0  0  0  0  0  0  0  0  0  0  0
   -3.6590   22.1470  -30.6230 C   0  0  0  0  0  0  0  0  0  0  0  0
   -4.9810   22.2820  -31.0910 C   0  0  0  0  0  0  0  0  0  0  0  0
   -5.8450   23.2220  -30.4450 C   0  0  0  0  0  0  0  0  0  0  0  0
   -5.3480   23.9590  -29.3530 C   0  0  0  0  0  0  0  0  0  0  0  0
   -7.3070   23.4750  -30.7920 C   0  0  0  0  0  0  0  0  0  0  0  0
   -7.7780   22.9970  -32.1630 C   0  0  0  0  0  0  0  0  0  0  0  0
   -7.8490   21.5000  -32.1790 C   0  0  0  0  0  0  0  0  0  0  0  0
   -9.0820   20.8290  -32.1530 C   0  0  0  0  0  0  0  0  0  0  0  0
   -9.1190   19.4310  -32.1470 C   0  0  0  0  0  0  0  0  0  0  0  0
   -7.9290   18.7000  -32.1590 C   0  0  0  0  0  0  0  0  0  0  0  0
   -6.6990   19.3650  -32.1730 C   0  0  0  0  0  0  0  0  0  0  0  0
   -6.6570   20.7680  -32.1690 C   0  0  0  0  0  0  0  0  0  0  0  0
   -5.4010   21.4600  -32.2040 N   0  0  0  0  0  0  0  0  0  0  0  0
   -4.4770   21.1660  -33.3040 C   0  0  0  0  0  0  0  0  0  0  0  0
   -1.2220   26.7801  -23.2341 H   0  0  0  0  0  0  0  0  0  0  0  0
    0.0347   26.3656  -24.4489 H   0  0  0  0  0  0  0  0  0  0  0  0
   -0.7100   28.0003  -24.4489 H   0  0  0  0  0  0  0  0  0  0  0  0
   -2.3972   25.4980  -24.8258 H   0  0  0  0  0  0  0  0  0  0  0  0
   -2.7275   27.2406  -25.3017 H   0  0  0  0  0  0  0  0  0  0  0  0
    0.0835   27.4433  -26.1026 H   0  0  0  0  0  0  0  0  0  0  0  0
    0.3202   26.4843  -27.6030 H   0  0  0  0  0  0  0  0  0  0  0  0
   -0.7969   27.8911  -27.6030 H   0  0  0  0  0  0  0  0  0  0  0  0
   -0.6058   24.7112  -27.8308 H   0  0  0  0  0  0  0  0  0  0  0  0
   -0.6313   24.3646  -26.0433 H   0  0  0  0  0  0  0  0  0  0  0  0
   -2.1781   22.9842  -27.6537 H   0  0  0  0  0  0  0  0  0  0  0  0
   -2.8120   23.6223  -26.0665 H   0  0  0  0  0  0  0  0  0  0  0  0
   -4.3430   24.6960  -27.0960 H   0  0  0  0  0  0  0  0  0  0  0  0
   -3.2520   25.5290  -28.0630 H   0  0  0  0  0  0  0  0  0  0  0  0
   -2.1491   22.7786  -29.2120 H   0  0  0  0  0  0  0  0  0  0  0  0
   -2.9846   21.4304  -31.1145 H   0  0  0  0  0  0  0  0  0  0  0  0
   -6.0130   24.6676  -28.8376 H   0  0  0  0  0  0  0  0  0  0  0  0
   -7.9222   22.9694  -30.0331 H   0  0  0  0  0  0  0  0  0  0  0  0
   -7.4139   24.5696  -30.8147 H   0  0  0  0  0  0  0  0  0  0  0  0
   -8.7747   23.4126  -32.3726 H   0  0  0  0  0  0  0  0  0  0  0  0
   -7.0674   23.3363  -32.9310 H   0  0  0  0  0  0  0  0  0  0  0  0
  -10.0199   21.4035  -32.1373 H   0  0  0  0  0  0  0  0  0  0  0  0
  -10.0860   18.9068  -32.1328 H   0  0  0  0  0  0  0  0  0  0  0  0
   -7.9594   17.6004  -32.1574 H   0  0  0  0  0  0  0  0  0  0  0  0
   -5.7628   18.7877  -32.1872 H   0  0  0  0  0  0  0  0  0  0  0  0
   -3.5046   20.8566  -32.8933 H   0  0  0  0  0  0  0  0  0  0  0  0
   -4.8890   20.3546  -33.9220 H   0  0  0  0  0  0  0  0  0  0  0  0
   -4.3443   22.0663  -33.9220 H   0  0  0  0  0  0  0  0  0  0  0  0
  1  2  1  0
  2  3  1  0
  3  4  1  0
  3  5  1  0
  5  6  1  0
  6  7  1  0
  7  8  1  0
  8  9  2  0
  9 10  1  0
 10 11  2  0
 11 12  1  0
 12 13  2  0
 12 14  1  0
 14 15  1  0
 15 16  1  0
 16 17  2  0
 17 18  1  0
 18 19  2  0
 19 20  1  0
 20 21  2  0
 21 22  1  0
 22 23  1  0
 13  8  1  0
 21 16  1  0
 22 11  1  0
  1 24  1  0
  1 25  1  0
  1 26  1  0
  2 27  1  0
  2 28  1  0
  4 29  1  0
  4 30  1  0
  4 31  1  0
  5 32  1  0
  5 33  1  0
  6 34  1  0
  6 35  1  0
  7 36  1  0
  7 37  1  0
  9 38  1  0
 10 39  1  0
 13 40  1  0
 14 41  1  0
 14 42  1  0
 15 43  1  0
 15 44  1  0
 17 45  1  0
 18 46  1  0
 19 47  1  0
 20 48  1  0
 23 49  1  0
 23 50  1  0
 23 51  1  0
M  CHG  1   7   1
M  END
>  <UniqueID>  (22) 
21

>  <SMILES>  (22) 
CCN(C)CC[NH2+]c1ccc2c(c1)CCc1ccccc1N2C

>  <Energy>  (22) 
71.10342402543134

>  <Genealogy>  (22) 
CCN(C)CC[NH2+]c1ccc2c(c1)CCc1ccccc1N2C (protonated)
CCN(C)CC[NH2+]c1ccc2c(c1)CCc1ccccc1N2C (3D coordinates assigned)
CCN(C)CC[NH2+]c1ccc2c(c1)CCc1ccccc1N2C (nonaromatic ring conformer: 71.10342402543134 kcal/mol)

>  <smiles>  (22) 
CCN(C)CCNc1ccc2c(c1)CCc1ccccc1N2C

>  <score_type>  (22) 
oracle

>  <origin>  (22) 
adg

>  <m_score__min__energy>  (22) 
-5.9100000000000001

>  <m_primary>  (22) 
energy

$$$$
22:0
     RDKit          3D

 45 47  0  0  0  0  0  0  0  0999 V2000
   -4.7520   22.6300  -32.3360 C   0  0  0  0  0  0  0  0  0  0  0  0
   -3.9920   21.4470  -32.7740 N   0  0  0  0  0  0  0  0  0  0  0  0
   -4.6440   20.4050  -33.3920 C   0  0  0  0  0  0  0  0  0  0  0  0
   -5.8840   20.4510  -33.6130 O   0  0  0  0  0  0  0  0  0  0  0  0
   -3.9000   19.2900  -33.7600 C   0  0  0  0  0  0  0  0  0  0  0  0
   -2.5720   19.2380  -33.5020 C   0  0  0  0  0  0  0  0  0  0  0  0
   -2.0440   18.0770  -33.9370 N   0  0  0  0  0  0  0  0  0  0  0  0
   -3.1180   17.4370  -34.4700 C   0  0  0  0  0  0  0  0  0  0  0  0
   -4.2680   18.1500  -34.3720 N   0  0  0  0  0  0  0  0  0  0  0  0
   -5.5750   17.7660  -34.9070 C   0  0  0  0  0  0  0  0  0  0  0  0
   -6.4370   17.1880  -33.8170 C   0  0  0  0  0  0  0  0  0  0  0  0
   -6.9610   16.0940  -33.9880 O   0  0  0  0  0  0  0  0  0  0  0  0
   -6.6480   17.9130  -32.5790 N   0  0  2  0  0  0  0  0  0  0  0  0
   -6.1030   17.1340  -31.4540 C   0  0  0  0  0  0  0  0  0  0  0  0
   -8.0890   18.2010  -32.4040 C   0  0  0  0  0  0  0  0  0  0  0  0
   -8.3290   19.6300  -31.9730 C   0  0  0  0  0  0  0  0  0  0  0  0
   -7.3590   20.3220  -31.2280 C   0  0  0  0  0  0  0  0  0  0  0  0
   -7.5780   21.6510  -30.8510 C   0  0  0  0  0  0  0  0  0  0  0  0
   -8.7610   22.2980  -31.2170 C   0  0  0  0  0  0  0  0  0  0  0  0
   -9.7280   21.6170  -31.9630 C   0  0  0  0  0  0  0  0  0  0  0  0
   -9.5130   20.2890  -32.3420 C   0  0  0  0  0  0  0  0  0  0  0  0
   -1.9100   20.2530  -32.8850 N   0  0  0  0  0  0  0  0  0  0  0  0
   -0.4780   20.1390  -32.5780 C   0  0  0  0  0  0  0  0  0  0  0  0
   -2.6380   21.3560  -32.4920 C   0  0  0  0  0  0  0  0  0  0  0  0
   -2.0630   22.2890  -31.8630 O   0  0  0  0  0  0  0  0  0  0  0  0
   -4.7745   22.6650  -31.2368 H   0  0  0  0  0  0  0  0  0  0  0  0
   -4.2689   23.5397  -32.7220 H   0  0  0  0  0  0  0  0  0  0  0  0
   -5.7802   22.5688  -32.7220 H   0  0  0  0  0  0  0  0  0  0  0  0
   -3.0606   16.4413  -34.9340 H   0  0  0  0  0  0  0  0  0  0  0  0
   -6.0695   18.6537  -35.3283 H   0  0  0  0  0  0  0  0  0  0  0  0
   -5.4318   17.0068  -35.6900 H   0  0  0  0  0  0  0  0  0  0  0  0
   -6.1250   18.8210  -32.6260 H   0  0  0  0  0  0  0  0  0  0  0  0
   -6.4214   17.5891  -30.5045 H   0  0  0  0  0  0  0  0  0  0  0  0
   -6.4762   16.1007  -31.5086 H   0  0  0  0  0  0  0  0  0  0  0  0
   -5.0044   17.1304  -31.5086 H   0  0  0  0  0  0  0  0  0  0  0  0
   -8.6054   18.0260  -33.3594 H   0  0  0  0  0  0  0  0  0  0  0  0
   -8.4766   17.5374  -31.6169 H   0  0  0  0  0  0  0  0  0  0  0  0
   -6.4249   19.8171  -30.9406 H   0  0  0  0  0  0  0  0  0  0  0  0
   -6.8173   22.1879  -30.2652 H   0  0  0  0  0  0  0  0  0  0  0  0
   -8.9317   23.3428  -30.9184 H   0  0  0  0  0  0  0  0  0  0  0  0
  -10.6588   22.1270  -32.2518 H   0  0  0  0  0  0  0  0  0  0  0  0
  -10.2744   19.7577  -32.9318 H   0  0  0  0  0  0  0  0  0  0  0  0
   -0.3366   20.1277  -31.4872 H   0  0  0  0  0  0  0  0  0  0  0  0
   -0.0838   19.2066  -33.0085 H   0  0  0  0  0  0  0  0  0  0  0  0
    0.0587   20.9973  -33.0085 H   0  0  0  0  0  0  0  0  0  0  0  0
  1  2  1  0
  2  3  1  0
  3  4  2  0
  3  5  1  0
  5  6  2  0
  6  7  1  0
  7  8  2  0
  8  9  1  0
  9 10  1  0
 10 11  1  0
 11 12  2  0
 11 13  1  0
 13 14  1  0
 13 15  1  0
 15 16  1  0
 16 17  2  0
 17 18  1  0
 18 19  2  0
 19 20  1  0
 20 21  2  0
  6 22  1  0
 22 23  1  0
 22 24  1  0
 24 25  2  0
 24  2  1  0
  9  5  1  0
 21 16  1  0
  1 26  1  0
  1 27  1  0
  1 28  1  0
  8 29  1  0
 10 30  1  0
 10 31  1  0
 13 32  1  6
 14 33  1  0
 14 34  1  0
 14 35  1  0
 15 36  1  0
 15 37  1  0
 17 38  1  0
 18 39  1  0
 19 40  1  0
 20 41  1  0
 21 42  1  0
 23 43  1  0
 23 44  1  0
 23 45  1  0
M  CHG  1  13   1
M  END
>  <UniqueID>  (23) 
22

>  <SMILES>  (23) 
Cn1c(=O)c2c(ncn2CC(=O)[N@H+](C)Cc2ccccc2)n(C)c1=O

>  <Energy>  (23) 
90.80943835887342

>  <Genealogy>  (23) 
Cn1c(=O)c2c(ncn2CC(=O)[NH+](C)Cc2ccccc2)n(C)c1=O (protonated)
Cn1c(=O)c2c(ncn2CC(=O)[N@H+](C)Cc2ccccc2)n(C)c1=O (chirality)
Cn1c(=O)c2c(ncn2CC(=O)[N@H+](C)Cc2ccccc2)n(C)c1=O (3D coordinates assigned)
Cn1c(=O)c2c(ncn2CC(=O)[N@H+](C)Cc2ccccc2)n(C)c1=O (optimized conformer: 90.80943835887342 kcal/mol)

>  <smiles>  (23) 
CN(Cc1ccccc1)C(=O)Cn1cnc2c1c(=O)n(C)c(=O)n2C

>  <score_type>  (23) 
oracle

>  <origin>  (23) 
adg

>  <m_score__min__energy>  (23) 
-6.9000000000000004

>  <m_primary>  (23) 
energy

$$$$
23:0
     RDKit          3D

 63 65  0  0  0  0  0  0  0  0999 V2000
   -3.6560   22.5290  -27.9360 C   0  0  0  0  0  0  0  0  0  0  0  0
   -3.7760   23.9770  -27.4710 C   0  0  0  0  0  0  0  0  0  0  0  0
   -4.9180   24.6450  -28.1190 N   0  0  0  0  0  0  0  0  0  0  0  0
   -5.3070   23.9800  -29.3790 C   0  0  0  0  0  0  0  0  0  0  0  0
   -5.8970   24.9500  -30.4190 C   0  0  0  0  0  0  0  0  0  0  0  0
   -5.9080   24.3550  -31.7570 N   0  0  0  0  0  0  0  0  0  0  0  0
   -5.8510   22.9310  -31.9170 C   0  0  0  0  0  0  0  0  0  0  0  0
   -4.5980   22.3240  -32.0590 C   0  0  0  0  0  0  0  0  0  0  0  0
   -4.4960   20.9480  -32.2420 C   0  0  0  0  0  0  0  0  0  0  0  0
   -3.2770   20.3750  -32.3910 F   0  0  0  0  0  0  0  0  0  0  0  0
   -5.6430   20.1570  -32.2660 C   0  0  0  0  0  0  0  0  0  0  0  0
   -6.9170   20.7290  -32.0820 C   0  0  0  0  0  0  0  0  0  0  0  0
   -7.0210   22.1340  -31.9020 C   0  0  0  0  0  0  0  0  0  0  0  0
   -8.3820   22.7790  -31.7260 C   0  0  0  0  0  0  0  0  0  0  0  0
   -9.4470   21.7950  -31.2450 C   0  0  0  0  0  0  0  0  0  0  0  0
   -9.4230   20.5430  -32.1130 C   0  0  0  0  0  0  0  0  0  0  0  0
   -8.1080   19.8980  -32.0030 N   0  0  0  0  0  0  0  0  0  0  0  0
   -8.0330   18.4660  -31.6710 C   0  0  0  0  0  0  0  0  0  0  0  0
   -7.3140   17.7470  -32.7280 C   0  0  0  0  0  0  0  0  0  0  0  0
   -6.6980   17.1200  -33.5500 C   0  0  0  0  0  0  0  0  0  0  0  0
   -5.9820   16.3790  -34.5940 C   0  0  0  0  0  0  0  0  0  0  0  0
   -4.8640   17.1850  -35.1310 N   0  0  0  0  0  0  0  0  0  0  0  0
   -3.7950   16.3320  -35.7100 C   0  0  0  0  0  0  0  0  0  0  0  0
   -2.3920   16.6300  -35.1500 C   0  0  0  0  0  0  0  0  0  0  0  0
   -2.3870   16.6830  -33.6740 N   0  0  0  0  0  0  0  0  0  0  0  0
   -2.4320   15.3350  -33.0800 C   0  0  0  0  0  0  0  0  0  0  0  0
   -3.4330   17.5690  -33.1060 C   0  0  0  0  0  0  0  0  0  0  0  0
   -4.3610   18.1910  -34.1660 C   0  0  0  0  0  0  0  0  0  0  0  0
   -3.6011   21.8659  -27.0600 H   0  0  0  0  0  0  0  0  0  0  0  0
   -4.5353   22.2643  -28.5416 H   0  0  0  0  0  0  0  0  0  0  0  0
   -2.7451   22.4127  -28.5416 H   0  0  0  0  0  0  0  0  0  0  0  0
   -3.9202   23.9942  -26.3806 H   0  0  0  0  0  0  0  0  0  0  0  0
   -2.8546   24.5115  -27.7455 H   0  0  0  0  0  0  0  0  0  0  0  0
   -5.7380   24.6000  -27.4680 H   0  0  0  0  0  0  0  0  0  0  0  0
   -4.7010   25.6540  -28.2920 H   0  0  0  0  0  0  0  0  0  0  0  0
   -4.4157   23.5026  -29.8122 H   0  0  0  0  0  0  0  0  0  0  0  0
   -6.0899   23.2472  -29.1340 H   0  0  0  0  0  0  0  0  0  0  0  0
   -6.9283   25.2008  -30.1301 H   0  0  0  0  0  0  0  0  0  0  0  0
   -5.2693   25.8529  -30.4462 H   0  0  0  0  0  0  0  0  0  0  0  0
   -6.4200   24.8850  -32.4990 H   0  0  0  0  0  0  0  0  0  0  0  0
   -3.6867   22.9391  -32.0257 H   0  0  0  0  0  0  0  0  0  0  0  0
   -5.5524   19.0732  -32.4306 H   0  0  0  0  0  0  0  0  0  0  0  0
   -8.2937   23.5896  -30.9877 H   0  0  0  0  0  0  0  0  0  0  0  0
   -8.6994   23.1550  -32.7098 H   0  0  0  0  0  0  0  0  0  0  0  0
   -9.2435   21.5187  -30.1999 H   0  0  0  0  0  0  0  0  0  0  0  0
  -10.4375   22.2680  -31.3173 H   0  0  0  0  0  0  0  0  0  0  0  0
  -10.2032   19.8459  -31.7733 H   0  0  0  0  0  0  0  0  0  0  0  0
   -9.6102   20.8191  -33.1612 H   0  0  0  0  0  0  0  0  0  0  0  0
   -7.5007   18.3400  -30.7167 H   0  0  0  0  0  0  0  0  0  0  0  0
   -9.0516   18.0599  -31.5842 H   0  0  0  0  0  0  0  0  0  0  0  0
   -5.5832   15.4470  -34.1669 H   0  0  0  0  0  0  0  0  0  0  0  0
   -6.6818   16.1538  -35.4123 H   0  0  0  0  0  0  0  0  0  0  0  0
   -4.0372   15.2802  -35.4977 H   0  0  0  0  0  0  0  0  0  0  0  0
   -3.7622   16.5465  -36.7884 H   0  0  0  0  0  0  0  0  0  0  0  0
   -1.7023   15.8390  -35.4796 H   0  0  0  0  0  0  0  0  0  0  0  0
   -2.0768   17.6141  -35.5271 H   0  0  0  0  0  0  0  0  0  0  0  0
   -2.4292   15.4174  -31.9831 H   0  0  0  0  0  0  0  0  0  0  0  0
   -3.3478   14.8207  -33.4068 H   0  0  0  0  0  0  0  0  0  0  0  0
   -1.5525   14.7608  -33.4068 H   0  0  0  0  0  0  0  0  0  0  0  0
   -4.0474   16.9789  -32.4101 H   0  0  0  0  0  0  0  0  0  0  0  0
   -2.9134   18.4001  -32.6066 H   0  0  0  0  0  0  0  0  0  0  0  0
   -5.2195   18.6537  -33.6572 H   0  0  0  0  0  0  0  0  0  0  0  0
   -3.7789   18.9360  -34.7283 H   0  0  0  0  0  0  0  0  0  0  0  0
  1  2  1  0
  2  3  1  0
  3  4  1  0
  4  5  1  0
  5  6  1  0
  6  7  1  0
  7  8  2  0
  8  9  1  0
  9 10  1  0
  9 11  2  0
 11 12  1  0
 12 13  2  0
 13 14  1  0
 14 15  1  0
 15 16  1  0
 16 17  1  0
 17 18  1  0
 18 19  1  0
 19 20  3  0
 20 21  1  0
 21 22  1  0
 22 23  1  0
 23 24  1  0
 24 25  1  0
 25 26  1  0
 25 27  1  0
 27 28  1  0
 13  7  1  0
 28 22  1  0
 17 12  1  0
  1 29  1  0
  1 30  1  0
  1 31  1  0
  2 32  1  0
  2 33  1  0
  3 34  1  0
  3 35  1  0
  4 36  1  0
  4 37  1  0
  5 38  1  0
  5 39  1  0
  6 40  1  0
  8 41  1  0
 11 42  1  0
 14 43  1  0
 14 44  1  0
 15 45  1  0
 15 46  1  0
 16 47  1  0
 16 48  1  0
 18 49  1  0
 18 50  1  0
 21 51  1  0
 21 52  1  0
 23 53  1  0
 23 54  1  0
 24 55  1  0
 24 56  1  0
 26 57  1  0
 26 58  1  0
 26 59  1  0
 27 60  1  0
 27 61  1  0
 28 62  1  0
 28 63  1  0
M  CHG  1   3   1
M  END
>  <UniqueID>  (24) 
23

>  <SMILES>  (24) 
CC[NH2+]CCNc1cc(F)cc2c1CCCN2CC#CCN1CCN(C)CC1

>  <Energy>  (24) 
72.37586120549139

>  <Genealogy>  (24) 
CC[NH2+]CCNc1cc(F)cc2c1CCCN2CC#CCN1CCN(C)CC1 (protonated)
CC[NH2+]CCNc1cc(F)cc2c1CCCN2CC#CCN1CCN(C)CC1 (3D coordinates assigned)
CC[NH2+]CCNc1cc(F)cc2c1CCCN2CC#CCN1CCN(C)CC1 (nonaromatic ring conformer: 72.37586120549139 kcal/mol)

>  <smiles>  (24) 
CCNCCNc1cc(F)cc2c1CCCN2CC#CCN1CCN(C)CC1

>  <score_type>  (24) 
oracle

>  <origin>  (24) 
adg

>  <m_score__min__energy>  (24) 
-7.4699999999999998

>  <m_primary>  (24) 
energy

$$$$
24:0
     RDKit          3D

 51 55  0  0  0  0  0  0  0  0999 V2000
    0.6140   20.0780  -32.4190 C   0  0  0  0  0  0  0  0  0  0  0  0
   -0.2730   20.8140  -33.2620 O   0  0  0  0  0  0  0  0  0  0  0  0
   -1.6610   20.9000  -33.0740 C   0  0  0  0  0  0  0  0  0  0  0  0
   -2.1540   21.9030  -32.2280 C   0  0  0  0  0  0  0  0  0  0  0  0
   -3.5280   22.0280  -31.9950 C   0  0  0  0  0  0  0  0  0  0  0  0
   -4.4330   21.1490  -32.6100 C   0  0  0  0  0  0  0  0  0  0  0  0
   -5.8440   21.2580  -32.3490 N   0  0  0  0  0  0  0  0  0  0  0  0
   -6.5910   22.3920  -32.1970 C   0  0  0  0  0  0  0  0  0  0  0  0
   -6.0470   23.8000  -32.2080 C   0  0  0  0  0  0  0  0  0  0  0  0
   -5.9160   24.3220  -30.8490 N   0  0  0  0  0  0  0  0  0  0  0  0
   -4.7090   24.4610  -30.0870 C   0  0  0  0  0  0  0  0  0  0  0  0
   -3.8460   25.2820  -30.5040 O   0  0  0  0  0  0  0  0  0  0  0  0
   -4.5300   23.8220  -28.7190 C   0  0  2  0  0  0  0  0  0  0  0  0
   -3.4450   24.5460  -27.8830 C   0  0  0  0  0  0  0  0  0  0  0  0
   -2.1370   24.2110  -28.3660 O   0  0  0  0  0  0  0  0  0  0  0  0
   -1.8250   22.8860  -28.6980 C   0  0  0  0  0  0  0  0  0  0  0  0
   -0.4940   22.4710  -28.8420 C   0  0  0  0  0  0  0  0  0  0  0  0
   -0.2120   21.1220  -29.0980 C   0  0  0  0  0  0  0  0  0  0  0  0
   -1.2580   20.1920  -29.2060 C   0  0  0  0  0  0  0  0  0  0  0  0
   -2.5900   20.6150  -29.0880 C   0  0  0  0  0  0  0  0  0  0  0  0
   -2.8740   21.9680  -28.8710 C   0  0  0  0  0  0  0  0  0  0  0  0
   -4.2000   22.4240  -28.8170 O   0  0  0  0  0  0  0  0  0  0  0  0
   -7.9240   22.1320  -32.0390 N   0  0  0  0  0  0  0  0  0  0  0  0
   -7.9860   20.7840  -32.0530 C   0  0  0  0  0  0  0  0  0  0  0  0
   -9.1200   19.9800  -31.9100 C   0  0  0  0  0  0  0  0  0  0  0  0
   -8.9480   18.5830  -31.9720 C   0  0  0  0  0  0  0  0  0  0  0  0
   -7.6650   18.0280  -32.1860 C   0  0  0  0  0  0  0  0  0  0  0  0
   -6.5360   18.8680  -32.3240 C   0  0  0  0  0  0  0  0  0  0  0  0
   -6.7410   20.2510  -32.2380 C   0  0  0  0  0  0  0  0  0  0  0  0
   -3.9470   20.1490  -33.4690 C   0  0  0  0  0  0  0  0  0  0  0  0
   -2.5710   20.0210  -33.6980 C   0  0  0  0  0  0  0  0  0  0  0  0
    0.3706   20.2800  -31.3655 H   0  0  0  0  0  0  0  0  0  0  0  0
    0.5038   19.0023  -32.6211 H   0  0  0  0  0  0  0  0  0  0  0  0
    1.6509   20.3847  -32.6211 H   0  0  0  0  0  0  0  0  0  0  0  0
   -1.4538   22.5987  -31.7425 H   0  0  0  0  0  0  0  0  0  0  0  0
   -3.9005   22.8186  -31.3270 H   0  0  0  0  0  0  0  0  0  0  0  0
   -5.0582   23.7998  -32.6900 H   0  0  0  0  0  0  0  0  0  0  0  0
   -6.7467   24.4415  -32.7637 H   0  0  0  0  0  0  0  0  0  0  0  0
   -5.4990   23.9216  -28.2079 H   0  0  0  0  0  0  0  0  0  0  0  0
   -3.5928   25.6333  -27.9607 H   0  0  0  0  0  0  0  0  0  0  0  0
   -3.5308   24.2274  -26.8336 H   0  0  0  0  0  0  0  0  0  0  0  0
    0.3250   23.2001  -28.7546 H   0  0  0  0  0  0  0  0  0  0  0  0
    0.8307   20.7915  -29.2145 H   0  0  0  0  0  0  0  0  0  0  0  0
   -1.0326   19.1301  -29.3834 H   0  0  0  0  0  0  0  0  0  0  0  0
   -3.4093   19.8852  -29.1658 H   0  0  0  0  0  0  0  0  0  0  0  0
  -10.1145   20.4234  -31.7541 H   0  0  0  0  0  0  0  0  0  0  0  0
   -9.8174   17.9196  -31.8532 H   0  0  0  0  0  0  0  0  0  0  0  0
   -7.5446   16.9362  -32.2455 H   0  0  0  0  0  0  0  0  0  0  0  0
   -5.5325   18.4503  -32.4929 H   0  0  0  0  0  0  0  0  0  0  0  0
   -4.6504   19.4633  -33.9641 H   0  0  0  0  0  0  0  0  0  0  0  0
   -2.1984   19.2316  -34.3673 H   0  0  0  0  0  0  0  0  0  0  0  0
  1  2  1  0
  2  3  1  0
  3  4  2  0
  4  5  1  0
  5  6  2  0
  6  7  1  0
  7  8  1  0
  8  9  1  0
  9 10  1  0
 10 11  1  0
 11 12  2  0
 11 13  1  0
 13 14  1  0
 14 15  1  0
 15 16  1  0
 16 17  2  0
 17 18  1  0
 18 19  2  0
 19 20  1  0
 20 21  2  0
 21 22  1  0
  8 23  2  0
 23 24  1  0
 24 25  2  0
 25 26  1  0
 26 27  2  0
 27 28  1  0
 28 29  2  0
  6 30  1  0
 30 31  2  0
 31  3  1  0
 29  7  1  0
 22 13  1  0
 29 24  1  0
 21 16  1  0
  1 32  1  0
  1 33  1  0
  1 34  1  0
  4 35  1  0
  5 36  1  0
  9 37  1  0
  9 38  1  0
 13 39  1  1
 14 40  1  0
 14 41  1  0
 17 42  1  0
 18 43  1  0
 19 44  1  0
 20 45  1  0
 25 46  1  0
 26 47  1  0
 27 48  1  0
 28 49  1  0
 30 50  1  0
 31 51  1  0
M  CHG  1  10  -1
M  END
>  <UniqueID>  (25) 
24

>  <SMILES>  (25) 
COc1ccc(-n2c(C[N-]C(=O)[C@@H]3COc4ccccc4O3)nc3ccccc32)cc1

>  <Energy>  (25) 
103.0635556874321

>  <Genealogy>  (25) 
COc1ccc(-n2c(C[N-]C(=O)C3COc4ccccc4O3)nc3ccccc32)cc1 (protonated)
COc1ccc(-n2c(C[N-]C(=O)[C@@H]3COc4ccccc4O3)nc3ccccc32)cc1 (chirality)
COc1ccc(-n2c(C[N-]C(=O)[C@@H]3COc4ccccc4O3)nc3ccccc32)cc1 (3D coordinates assigned)
COc1ccc(-n2c(C[N-]C(=O)[C@@H]3COc4ccccc4O3)nc3ccccc32)cc1 (nonaromatic ring conformer: 103.0635556874321 kcal/mol)

>  <smiles>  (25) 
COc1ccc(-n2c(CNC(=O)C3COc4ccccc4O3)nc3ccccc32)cc1

>  <score_type>  (25) 
oracle

>  <origin>  (25) 
adg

>  <m_score__min__energy>  (25) 
-10.470000000000001

>  <m_primary>  (25) 
energy

$$$$
25:0
     RDKit          3D

 36 40  0  0  0  0  0  0  0  0999 V2000
   -8.7840   23.1330  -31.9700 C   0  0  0  0  0  0  0  0  0  0  0  0
   -7.4410   23.4260  -32.6280 C   0  0  0  0  0  0  0  0  0  0  0  0
   -6.4230   22.4860  -32.1490 N   0  0  0  0  0  0  0  0  0  0  0  0
   -6.4450   21.1290  -32.2620 C   0  0  0  0  0  0  0  0  0  0  0  0
   -7.4160   20.3310  -32.8790 C   0  0  0  0  0  0  0  0  0  0  0  0
   -7.2360   18.9350  -32.8650 C   0  0  0  0  0  0  0  0  0  0  0  0
   -6.1080   18.3610  -32.2400 C   0  0  0  0  0  0  0  0  0  0  0  0
   -5.1460   19.1760  -31.6160 C   0  0  0  0  0  0  0  0  0  0  0  0
   -5.3480   20.5510  -31.6470 C   0  0  0  0  0  0  0  0  0  0  0  0
   -4.6220   21.5840  -31.1150 C   0  0  0  0  0  0  0  0  0  0  0  0
   -3.4920   21.5530  -30.4100 O   0  0  0  0  0  0  0  0  0  0  0  0
   -3.0030   22.7160  -29.9870 C   0  0  0  0  0  0  0  0  0  0  0  0
   -3.6120   23.9380  -30.2400 C   0  0  0  0  0  0  0  0  0  0  0  0
   -2.9230   24.9250  -29.7030 O   0  0  0  0  0  0  0  0  0  0  0  0
   -1.8790   24.3730  -29.1080 C   0  0  0  0  0  0  0  0  0  0  0  0
   -0.8650   25.0180  -28.4060 C   0  0  0  0  0  0  0  0  0  0  0  0
    0.1590   24.2280  -27.8480 C   0  0  0  0  0  0  0  0  0  0  0  0
    0.1470   22.8220  -28.0030 C   0  0  0  0  0  0  0  0  0  0  0  0
   -0.8860   22.1890  -28.7170 C   0  0  0  0  0  0  0  0  0  0  0  0
   -1.8810   22.9980  -29.2550 C   0  0  0  0  0  0  0  0  0  0  0  0
   -4.8020   24.0000  -30.9750 C   0  0  0  0  0  0  0  0  0  0  0  0
   -5.3760   25.0970  -31.2030 O   0  0  0  0  0  0  0  0  0  0  0  0
   -5.3020   22.7600  -31.4270 C   0  0  0  0  0  0  0  0  0  0  0  0
   -8.6696   23.1580  -30.8762 H   0  0  0  0  0  0  0  0  0  0  0  0
   -9.5173   23.8923  -32.2794 H   0  0  0  0  0  0  0  0  0  0  0  0
   -9.1344   22.1373  -32.2794 H   0  0  0  0  0  0  0  0  0  0  0  0
   -7.5421   23.3264  -33.7188 H   0  0  0  0  0  0  0  0  0  0  0  0
   -7.1321   24.4497  -32.3697 H   0  0  0  0  0  0  0  0  0  0  0  0
   -8.2954   20.7826  -33.3614 H   0  0  0  0  0  0  0  0  0  0  0  0
   -7.9818   18.2849  -33.3459 H   0  0  0  0  0  0  0  0  0  0  0  0
   -5.9802   17.2684  -32.2409 H   0  0  0  0  0  0  0  0  0  0  0  0
   -4.2653   18.7407  -31.1212 H   0  0  0  0  0  0  0  0  0  0  0  0
   -0.8633   26.1119  -28.2904 H   0  0  0  0  0  0  0  0  0  0  0  0
    0.9745   24.7082  -27.2873 H   0  0  0  0  0  0  0  0  0  0  0  0
    0.9532   22.2182  -27.5609 H   0  0  0  0  0  0  0  0  0  0  0  0
   -0.9062   21.0967  -28.8449 H   0  0  0  0  0  0  0  0  0  0  0  0
  1  2  1  0
  2  3  1  0
  3  4  1  0
  4  5  2  0
  5  6  1  0
  6  7  2  0
  7  8  1  0
  8  9  2  0
  9 10  1  0
 10 11  1  0
 11 12  1  0
 12 13  2  0
 13 14  1  0
 14 15  1  0
 15 16  2  0
 16 17  1  0
 17 18  2  0
 18 19  1  0
 19 20  2  0
 13 21  1  0
 21 22  2  0
 21 23  1  0
 23  3  1  0
  9  4  1  0
 23 10  2  0
 20 12  1  0
 20 15  1  0
  1 24  1  0
  1 25  1  0
  1 26  1  0
  2 27  1  0
  2 28  1  0
  5 29  1  0
  6 30  1  0
  7 31  1  0
  8 32  1  0
 16 33  1  0
 17 34  1  0
 18 35  1  0
 19 36  1  0
M  END
>  <UniqueID>  (26) 
25

>  <SMILES>  (26) 
CCn1c2ccccc2c2oc3c(oc4ccccc43)c(=O)c21

>  <Energy>  (26) 
128.9680858584546

>  <Genealogy>  (26) 
CCn1c2ccccc2c2oc3c(oc4ccccc43)c(=O)c21 (3D coordinates assigned)
CCn1c2ccccc2c2oc3c(oc4ccccc43)c(=O)c21 (optimized conformer: 128.9680858584546 kcal/mol)

>  <smiles>  (26) 
CCn1c2ccccc2c2oc3c(oc4ccccc43)c(=O)c21

>  <score_type>  (26) 
oracle

>  <origin>  (26) 
adg

>  <m_score__min__energy>  (26) 
-8.0800000000000001

>  <m_primary>  (26) 
energy

$$$$
26:0
     RDKit          3D

 35 36  0  0  0  0  0  0  0  0999 V2000
   -5.3550   20.6670  -33.0940 C   0  0  0  0  0  0  0  0  0  0  0  0
   -6.3530   19.5150  -33.1140 C   0  0  0  0  0  0  0  0  0  0  0  0
   -6.8680   19.2880  -31.8140 O   0  0  0  0  0  0  0  0  0  0  0  0
   -8.1810   18.7580  -31.8640 C   0  0  0  0  0  0  0  0  0  0  0  0
   -9.0920   19.6750  -32.6900 C   0  0  0  0  0  0  0  0  0  0  0  0
   -9.4180   20.9790  -31.9500 C   0  0  0  0  0  0  0  0  0  0  0  0
   -8.2070   21.5980  -31.4100 N   0  0  0  0  0  0  0  0  0  0  0  0
   -7.8380   22.9550  -31.6970 C   0  0  0  0  0  0  0  0  0  0  0  0
   -8.6100   23.6930  -32.3680 O   0  0  0  0  0  0  0  0  0  0  0  0
   -6.5610   23.4970  -31.2100 C   0  0  0  0  0  0  0  0  0  0  0  0
   -6.0830   23.4160  -29.9170 C   0  0  0  0  0  0  0  0  0  0  0  0
   -4.8720   24.0750  -29.9800 C   0  0  0  0  0  0  0  0  0  0  0  0
   -3.9280   24.2900  -28.8780 C   0  0  0  0  0  0  0  0  0  0  0  0
   -4.2270   24.2940  -27.5200 C   0  0  0  0  0  0  0  0  0  0  0  0
   -3.1090   24.5280  -26.7110 C   0  0  0  0  0  0  0  0  0  0  0  0
   -1.9310   24.7090  -27.4240 C   0  0  0  0  0  0  0  0  0  0  0  0
   -2.2810   24.5760  -29.0630 S   0  0  0  0  0  0  0  0  0  0  0  0
   -4.6810   24.4940  -31.2100 O   0  0  0  0  0  0  0  0  0  0  0  0
   -5.6780   24.1660  -31.9790 N   0  0  0  0  0  0  0  0  0  0  0  0
   -5.1238   20.9338  -32.0522 H   0  0  0  0  0  0  0  0  0  0  0  0
   -4.4316   20.3612  -33.6077 H   0  0  0  0  0  0  0  0  0  0  0  0
   -5.7893   21.5373  -33.6077 H   0  0  0  0  0  0  0  0  0  0  0  0
   -7.1810   19.7640  -33.7940 H   0  0  0  0  0  0  0  0  0  0  0  0
   -5.8417   18.6047  -33.4603 H   0  0  0  0  0  0  0  0  0  0  0  0
   -8.1528   17.7608  -32.3275 H   0  0  0  0  0  0  0  0  0  0  0  0
   -8.5778   18.6857  -30.8406 H   0  0  0  0  0  0  0  0  0  0  0  0
   -8.5860   19.9201  -33.6355 H   0  0  0  0  0  0  0  0  0  0  0  0
  -10.0369   19.1417  -32.8711 H   0  0  0  0  0  0  0  0  0  0  0  0
   -9.8970   21.6789  -32.6505 H   0  0  0  0  0  0  0  0  0  0  0  0
  -10.0926   20.7453  -31.1131 H   0  0  0  0  0  0  0  0  0  0  0  0
   -7.6110   21.0300  -30.7660 H   0  0  0  0  0  0  0  0  0  0  0  0
   -6.5549   22.9398  -29.0449 H   0  0  0  0  0  0  0  0  0  0  0  0
   -5.2393   24.1299  -27.1220 H   0  0  0  0  0  0  0  0  0  0  0  0
   -3.1588   24.5651  -25.6128 H   0  0  0  0  0  0  0  0  0  0  0  0
   -0.9392   24.9056  -26.9907 H   0  0  0  0  0  0  0  0  0  0  0  0
  1  2  1  0
  2  3  1  0
  3  4  1  0
  4  5  1  0
  5  6  1  0
  6  7  1  0
  7  8  1  0
  8  9  2  0
  8 10  1  0
 10 11  1  0
 11 12  2  0
 12 13  1  0
 13 14  2  0
 14 15  1  0
 15 16  2  0
 16 17  1  0
 12 18  1  0
 18 19  1  0
 19 10  2  0
 17 13  1  0
  1 20  1  0
  1 21  1  0
  1 22  1  0
  2 23  1  0
  2 24  1  0
  4 25  1  0
  4 26  1  0
  5 27  1  0
  5 28  1  0
  6 29  1  0
  6 30  1  0
  7 31  1  0
 11 32  1  0
 14 33  1  0
 15 34  1  0
 16 35  1  0
M  END
>  <UniqueID>  (27) 
26

>  <SMILES>  (27) 
CCOCCCNC(=O)c1cc(-c2cccs2)on1

>  <Energy>  (27) 
83.8987282820345

>  <Genealogy>  (27) 
CCOCCCNC(=O)c1cc(-c2cccs2)on1 (3D coordinates assigned)
CCOCCCNC(=O)c1cc(-c2cccs2)on1 (optimized conformer: 83.8987282820345 kcal/mol)

>  <smiles>  (27) 
CCOCCCNC(=O)c1cc(-c2cccs2)on1

>  <score_type>  (27) 
oracle

>  <origin>  (27) 
adg

>  <m_score__min__energy>  (27) 
-7.1399999999999997

>  <m_primary>  (27) 
energy

$$$$
27:0
     RDKit          3D

 55 57  0  0  0  0  0  0  0  0999 V2000
   -5.3440   25.6450  -30.4580 C   0  0  0  0  0  0  0  0  0  0  0  0
   -5.1610   24.4920  -31.2720 O   0  0  0  0  0  0  0  0  0  0  0  0
   -6.1600   23.5400  -31.5380 C   0  0  0  0  0  0  0  0  0  0  0  0
   -7.5230   23.7990  -31.2990 C   0  0  0  0  0  0  0  0  0  0  0  0
   -8.4860   22.8240  -31.5700 C   0  0  0  0  0  0  0  0  0  0  0  0
   -8.1070   21.5750  -32.0850 C   0  0  0  0  0  0  0  0  0  0  0  0
   -9.1420   20.5110  -32.3590 C   0  0  0  0  0  0  0  0  0  0  0  0
   -8.5670   19.3290  -33.0310 N   0  0  0  0  0  0  0  0  0  0  0  0
   -8.0240   18.3120  -32.1090 C   0  0  0  0  0  0  0  0  0  0  0  0
   -6.5780   17.9110  -32.4540 C   0  0  0  0  0  0  0  0  0  0  0  0
   -6.3440   18.0650  -33.9100 N   0  0  0  0  0  0  0  0  0  0  0  0
   -5.3730   19.1350  -34.2100 C   0  0  0  0  0  0  0  0  0  0  0  0
   -3.9370   18.7370  -33.7930 C   0  0  0  0  0  0  0  0  0  0  0  0
   -3.7890   17.3460  -33.5690 O   0  0  0  0  0  0  0  0  0  0  0  0
   -4.4080   16.6190  -34.6090 C   0  0  0  0  0  0  0  0  0  0  0  0
   -5.9400   16.7910  -34.5540 C   0  0  0  0  0  0  0  0  0  0  0  0
   -6.7490   21.3150  -32.3250 C   0  0  0  0  0  0  0  0  0  0  0  0
   -5.7820   22.2890  -32.0530 C   0  0  0  0  0  0  0  0  0  0  0  0
   -4.0530   21.9130  -32.3680 S   0  0  0  0  0  0  0  0  0  0  0  0
   -3.7660   21.2490  -30.6930 C   0  0  0  0  0  0  0  0  0  0  0  0
   -3.4200   22.3730  -29.7610 C   0  0  0  0  0  0  0  0  0  0  0  0
   -2.2120   23.0730  -29.9200 C   0  0  0  0  0  0  0  0  0  0  0  0
   -1.8740   24.1060  -29.0390 C   0  0  0  0  0  0  0  0  0  0  0  0
   -2.7370   24.4400  -27.9900 C   0  0  0  0  0  0  0  0  0  0  0  0
   -3.9340   23.7390  -27.8180 C   0  0  0  0  0  0  0  0  0  0  0  0
   -4.2760   22.7060  -28.6970 C   0  0  0  0  0  0  0  0  0  0  0  0
   -5.2982   25.3562  -29.3976 H   0  0  0  0  0  0  0  0  0  0  0  0
   -4.5506   26.3758  -30.6736 H   0  0  0  0  0  0  0  0  0  0  0  0
   -6.3247   26.0942  -30.6736 H   0  0  0  0  0  0  0  0  0  0  0  0
   -7.8316   24.7751  -30.8964 H   0  0  0  0  0  0  0  0  0  0  0  0
   -9.5481   23.0367  -31.3785 H   0  0  0  0  0  0  0  0  0  0  0  0
   -9.5847   20.1939  -31.4033 H   0  0  0  0  0  0  0  0  0  0  0  0
   -9.8995   20.9435  -33.0292 H   0  0  0  0  0  0  0  0  0  0  0  0
   -9.3050   18.8910  -33.6290 H   0  0  0  0  0  0  0  0  0  0  0  0
   -7.7990   19.6410  -33.6700 H   0  0  0  0  0  0  0  0  0  0  0  0
   -8.0426   18.7176  -31.0867 H   0  0  0  0  0  0  0  0  0  0  0  0
   -8.6498   17.4120  -32.2001 H   0  0  0  0  0  0  0  0  0  0  0  0
   -5.8791   18.5568  -31.9022 H   0  0  0  0  0  0  0  0  0  0  0  0
   -6.4168   16.8603  -32.1710 H   0  0  0  0  0  0  0  0  0  0  0  0
   -5.3874   19.3368  -35.2912 H   0  0  0  0  0  0  0  0  0  0  0  0
   -5.6608   20.0298  -33.6386 H   0  0  0  0  0  0  0  0  0  0  0  0
   -3.2440   19.0386  -34.5923 H   0  0  0  0  0  0  0  0  0  0  0  0
   -3.7177   19.2474  -32.8436 H   0  0  0  0  0  0  0  0  0  0  0  0
   -4.0374   16.9865  -35.5773 H   0  0  0  0  0  0  0  0  0  0  0  0
   -4.1662   15.5526  -34.4891 H   0  0  0  0  0  0  0  0  0  0  0  0
   -6.3344   16.7737  -35.5807 H   0  0  0  0  0  0  0  0  0  0  0  0
   -6.3483   15.9665  -33.9511 H   0  0  0  0  0  0  0  0  0  0  0  0
   -6.4427   20.3390  -32.7296 H   0  0  0  0  0  0  0  0  0  0  0  0
   -4.6769   20.7452  -30.3374 H   0  0  0  0  0  0  0  0  0  0  0  0
   -2.9355   20.5283  -30.7220 H   0  0  0  0  0  0  0  0  0  0  0  0
   -1.5292   22.8077  -30.7406 H   0  0  0  0  0  0  0  0  0  0  0  0
   -0.9301   24.6552  -29.1712 H   0  0  0  0  0  0  0  0  0  0  0  0
   -2.4734   25.2550  -27.2999 H   0  0  0  0  0  0  0  0  0  0  0  0
   -4.6087   24.0003  -26.9894 H   0  0  0  0  0  0  0  0  0  0  0  0
   -5.2165   22.1533  -28.5553 H   0  0  0  0  0  0  0  0  0  0  0  0
  1  2  1  0
  2  3  1  0
  3  4  2  0
  4  5  1  0
  5  6  2  0
  6  7  1  0
  7  8  1  0
  8  9  1  0
  9 10  1  0
 10 11  1  0
 11 12  1  0
 12 13  1  0
 13 14  1  0
 14 15  1  0
 15 16  1  0
  6 17  1  0
 17 18  2  0
 18 19  1  0
 19 20  1  0
 20 21  1  0
 21 22  2  0
 22 23  1  0
 23 24  2  0
 24 25  1  0
 25 26  2  0
 18  3  1  0
 26 21  1  0
 16 11  1  0
  1 27  1  0
  1 28  1  0
  1 29  1  0
  4 30  1  0
  5 31  1  0
  7 32  1  0
  7 33  1  0
  8 34  1  0
  8 35  1  0
  9 36  1  0
  9 37  1  0
 10 38  1  0
 10 39  1  0
 12 40  1  0
 12 41  1  0
 13 42  1  0
 13 43  1  0
 15 44  1  0
 15 45  1  0
 16 46  1  0
 16 47  1  0
 17 48  1  0
 20 49  1  0
 20 50  1  0
 22 51  1  0
 23 52  1  0
 24 53  1  0
 25 54  1  0
 26 55  1  0
M  CHG  1   8   1
M  END
>  <UniqueID>  (28) 
27

>  <SMILES>  (28) 
COc1ccc(C[NH2+]CCN2CCOCC2)cc1SCc1ccccc1

>  <Energy>  (28) 
62.45206941874944

>  <Genealogy>  (28) 
COc1ccc(C[NH2+]CCN2CCOCC2)cc1SCc1ccccc1 (protonated)
COc1ccc(C[NH2+]CCN2CCOCC2)cc1SCc1ccccc1 (3D coordinates assigned)
COc1ccc(C[NH2+]CCN2CCOCC2)cc1SCc1ccccc1 (nonaromatic ring conformer: 62.45206941874944 kcal/mol)

>  <smiles>  (28) 
COc1ccc(CNCCN2CCOCC2)cc1SCc1ccccc1

>  <score_type>  (28) 
oracle

>  <origin>  (28) 
adg

>  <m_score__min__energy>  (28) 
-7.71

>  <m_primary>  (28) 
energy

$$$$
28:0
     RDKit          3D

 52 55  0  0  0  0  0  0  0  0999 V2000
   -5.2540   25.6230  -30.8400 C   0  0  0  0  0  0  0  0  0  0  0  0
   -3.9410   25.2640  -30.4680 O   0  0  0  0  0  0  0  0  0  0  0  0
   -3.9520   24.5510  -29.2460 C   0  0  0  0  0  0  0  0  0  0  0  0
   -3.2050   23.2260  -29.4010 C   0  0  0  0  0  0  0  0  0  0  0  0
   -2.7980   23.0340  -30.7940 N   0  0  0  0  0  0  0  0  0  0  0  0
   -2.9080   21.7740  -31.4900 C   0  0  0  0  0  0  0  0  0  0  0  0
   -1.7810   20.9430  -31.5870 C   0  0  0  0  0  0  0  0  0  0  0  0
   -1.8630   19.7020  -32.1990 C   0  0  0  0  0  0  0  0  0  0  0  0
   -3.0680   19.2660  -32.7310 C   0  0  0  0  0  0  0  0  0  0  0  0
   -4.2200   20.0690  -32.6830 C   0  0  0  0  0  0  0  0  0  0  0  0
   -4.1540   21.3530  -32.0440 C   0  0  0  0  0  0  0  0  0  0  0  0
   -5.3390   22.3120  -31.8900 C   0  0  0  0  0  0  0  0  0  0  0  0
   -6.5930   22.0480  -32.7250 C   0  0  0  0  0  0  0  0  0  0  0  0
   -7.2690   20.7930  -32.2630 C   0  0  0  0  0  0  0  0  0  0  0  0
   -8.4760   20.8330  -31.5480 C   0  0  0  0  0  0  0  0  0  0  0  0
   -9.0760   19.6440  -31.1210 C   0  0  0  0  0  0  0  0  0  0  0  0
   -8.4710   18.4150  -31.4000 C   0  0  0  0  0  0  0  0  0  0  0  0
   -7.2640   18.3740  -32.1040 C   0  0  0  0  0  0  0  0  0  0  0  0
   -6.6570   19.5660  -32.5270 C   0  0  0  0  0  0  0  0  0  0  0  0
   -5.4300   19.5390  -33.2690 N   0  0  0  0  0  0  0  0  0  0  0  0
   -5.4130   18.8950  -34.5920 C   0  0  0  0  0  0  0  0  0  0  0  0
   -5.3900   17.4030  -34.4460 C   0  0  0  0  0  0  0  0  0  0  0  0
   -6.4860   16.6640  -34.1880 N   0  0  0  0  0  0  0  0  0  0  0  0
   -6.0000   15.4040  -34.2210 C   0  0  0  0  0  0  0  0  0  0  0  0
   -4.6800   15.3660  -34.4970 N   0  0  0  0  0  0  0  0  0  0  0  0
   -4.3110   16.6240  -34.6450 N   0  0  0  0  0  0  0  0  0  0  0  0
   -2.9480   17.0470  -34.9510 C   0  0  0  0  0  0  0  0  0  0  0  0
   -5.8589   25.7884  -29.9363 H   0  0  0  0  0  0  0  0  0  0  0  0
   -5.2264   26.5466  -31.4369 H   0  0  0  0  0  0  0  0  0  0  0  0
   -5.7002   24.8139  -31.4369 H   0  0  0  0  0  0  0  0  0  0  0  0
   -3.4623   25.1554  -28.4683 H   0  0  0  0  0  0  0  0  0  0  0  0
   -4.9940   24.3443  -28.9604 H   0  0  0  0  0  0  0  0  0  0  0  0
   -2.3114   23.2357  -28.7596 H   0  0  0  0  0  0  0  0  0  0  0  0
   -3.8712   22.4021  -29.1053 H   0  0  0  0  0  0  0  0  0  0  0  0
   -2.4370   23.8730  -31.2990 H   0  0  0  0  0  0  0  0  0  0  0  0
   -0.8201   21.2810  -31.1719 H   0  0  0  0  0  0  0  0  0  0  0  0
   -0.9710   19.0615  -32.2630 H   0  0  0  0  0  0  0  0  0  0  0  0
   -3.1225   18.2723  -33.1995 H   0  0  0  0  0  0  0  0  0  0  0  0
   -5.6406   22.2913  -30.8323 H   0  0  0  0  0  0  0  0  0  0  0  0
   -4.9609   23.2758  -32.2615 H   0  0  0  0  0  0  0  0  0  0  0  0
   -7.2864   22.8950  -32.6166 H   0  0  0  0  0  0  0  0  0  0  0  0
   -6.3033   21.9317  -33.7798 H   0  0  0  0  0  0  0  0  0  0  0  0
   -8.9502   21.7998  -31.3234 H   0  0  0  0  0  0  0  0  0  0  0  0
  -10.0247   19.6759  -30.5652 H   0  0  0  0  0  0  0  0  0  0  0  0
   -8.9447   17.4803  -31.0656 H   0  0  0  0  0  0  0  0  0  0  0  0
   -6.7899   17.4066  -32.3264 H   0  0  0  0  0  0  0  0  0  0  0  0
   -6.3131   19.1908  -35.1508 H   0  0  0  0  0  0  0  0  0  0  0  0
   -4.5104   19.2148  -35.1333 H   0  0  0  0  0  0  0  0  0  0  0  0
   -6.6128   14.5081  -34.0426 H   0  0  0  0  0  0  0  0  0  0  0  0
   -2.3979   17.2177  -34.0138 H   0  0  0  0  0  0  0  0  0  0  0  0
   -2.4432   16.2633  -35.5349 H   0  0  0  0  0  0  0  0  0  0  0  0
   -2.9756   17.9788  -35.5349 H   0  0  0  0  0  0  0  0  0  0  0  0
  1  2  1  0
  2  3  1  0
  3  4  1  0
  4  5  1  0
  5  6  1  0
  6  7  2  0
  7  8  1  0
  8  9  2  0
  9 10  1  0
 10 11  2  0
 11 12  1  0
 12 13  1  0
 13 14  1  0
 14 15  2  0
 15 16  1  0
 16 17  2  0
 17 18  1  0
 18 19  2  0
 19 20  1  0
 20 21  1  0
 21 22  1  0
 22 23  2  0
 23 24  1  0
 24 25  2  0
 25 26  1  0
 26 27  1  0
 11  6  1  0
 19 14  1  0
 26 22  1  0
 20 10  1  0
  1 28  1  0
  1 29  1  0
  1 30  1  0
  3 31  1  0
  3 32  1  0
  4 33  1  0
  4 34  1  0
  5 35  1  0
  7 36  1  0
  8 37  1  0
  9 38  1  0
 12 39  1  0
 12 40  1  0
 13 41  1  0
 13 42  1  0
 15 43  1  0
 16 44  1  0
 17 45  1  0
 18 46  1  0
 21 47  1  0
 21 48  1  0
 24 49  1  0
 27 50  1  0
 27 51  1  0
 27 52  1  0
M  END
>  <UniqueID>  (29) 
28

>  <SMILES>  (29) 
COCCNc1cccc2c1CCc1ccccc1N2Cc1ncnn1C

>  <Energy>  (29) 
106.91953291467607

>  <Genealogy>  (29) 
COCCNc1cccc2c1CCc1ccccc1N2Cc1ncnn1C (3D coordinates assigned)
COCCNc1cccc2c1CCc1ccccc1N2Cc1ncnn1C (nonaromatic ring conformer: 106.91953291467607 kcal/mol)

>  <smiles>  (29) 
COCCNc1cccc2c1CCc1ccccc1N2Cc1ncnn1C

>  <score_type>  (29) 
oracle

>  <origin>  (29) 
adg

>  <m_score__min__energy>  (29) 
-7.0599999999999996

>  <m_primary>  (29) 
energy

$$$$
29:0
     RDKit          3D

 32 32  0  0  0  0  0  0  0  0999 V2000
   -4.2680   21.5260  -33.0750 C   0  0  0  0  0  0  0  0  0  0  0  0
   -5.5070   21.8800  -32.4710 O   0  0  0  0  0  0  0  0  0  0  0  0
   -6.6350   21.0430  -32.4160 C   0  0  0  0  0  0  0  0  0  0  0  0
   -6.5650   19.6800  -32.7650 C   0  0  0  0  0  0  0  0  0  0  0  0
   -7.7010   18.8700  -32.6840 C   0  0  0  0  0  0  0  0  0  0  0  0
   -8.9130   19.4050  -32.2510 C   0  0  0  0  0  0  0  0  0  0  0  0
   -8.9980   20.7550  -31.9040 C   0  0  0  0  0  0  0  0  0  0  0  0
   -7.8690   21.5850  -31.9960 C   0  0  0  0  0  0  0  0  0  0  0  0
   -7.9760   23.0340  -31.5800 C   0  0  0  0  0  0  0  0  0  0  0  0
   -6.6870   23.5170  -31.0640 N   0  0  0  0  0  0  0  0  0  0  0  0
   -6.8900   24.6030  -30.0930 C   0  0  0  0  0  0  0  0  0  0  0  0
   -5.7310   25.6000  -30.1430 C   0  0  0  0  0  0  0  0  0  0  0  0
   -4.1650   24.7180  -30.4640 S   0  0  0  0  0  0  0  0  0  0  0  0
   -4.1770   23.8160  -28.8830 C   0  0  0  0  0  0  0  0  0  0  0  0
   -3.5255   21.3139  -32.2916 H   0  0  0  0  0  0  0  0  0  0  0  0
   -4.4071   20.6317  -33.7001 H   0  0  0  0  0  0  0  0  0  0  0  0
   -3.9136   22.3588  -33.7001 H   0  0  0  0  0  0  0  0  0  0  0  0
   -5.6104   19.2506  -33.1033 H   0  0  0  0  0  0  0  0  0  0  0  0
   -7.6385   17.8077  -32.9626 H   0  0  0  0  0  0  0  0  0  0  0  0
   -9.8036   18.7631  -32.1825 H   0  0  0  0  0  0  0  0  0  0  0  0
   -9.9552   21.1708  -31.5565 H   0  0  0  0  0  0  0  0  0  0  0  0
   -8.2677   23.6401  -32.4504 H   0  0  0  0  0  0  0  0  0  0  0  0
   -8.7328   23.1218  -30.7865 H   0  0  0  0  0  0  0  0  0  0  0  0
   -6.1070   23.8730  -31.8610 H   0  0  0  0  0  0  0  0  0  0  0  0
   -6.1850   22.7250  -30.5960 H   0  0  0  0  0  0  0  0  0  0  0  0
   -7.8275   25.1276  -30.3295 H   0  0  0  0  0  0  0  0  0  0  0  0
   -6.9383   24.1689  -29.0835 H   0  0  0  0  0  0  0  0  0  0  0  0
   -5.9109   26.3282  -30.9476 H   0  0  0  0  0  0  0  0  0  0  0  0
   -5.6609   26.1221  -29.1774 H   0  0  0  0  0  0  0  0  0  0  0  0
   -4.1674   24.5350  -28.0506 H   0  0  0  0  0  0  0  0  0  0  0  0
   -5.0835   23.1959  -28.8215 H   0  0  0  0  0  0  0  0  0  0  0  0
   -3.2873   23.1720  -28.8215 H   0  0  0  0  0  0  0  0  0  0  0  0
  1  2  1  0
  2  3  1  0
  3  4  2  0
  4  5  1  0
  5  6  2  0
  6  7  1  0
  7  8  2  0
  8  9  1  0
  9 10  1  0
 10 11  1  0
 11 12  1  0
 12 13  1  0
 13 14  1  0
  8  3  1  0
  1 15  1  0
  1 16  1  0
  1 17  1  0
  4 18  1  0
  5 19  1  0
  6 20  1  0
  7 21  1  0
  9 22  1  0
  9 23  1  0
 10 24  1  0
 10 25  1  0
 11 26  1  0
 11 27  1  0
 12 28  1  0
 12 29  1  0
 14 30  1  0
 14 31  1  0
 14 32  1  0
M  CHG  1  10   1
M  END
>  <UniqueID>  (30) 
29

>  <SMILES>  (30) 
COc1ccccc1C[NH2+]CCSC

>  <Energy>  (30) 
21.838345742032892

>  <Genealogy>  (30) 
COc1ccccc1C[NH2+]CCSC (protonated)
COc1ccccc1C[NH2+]CCSC (3D coordinates assigned)
COc1ccccc1C[NH2+]CCSC (optimized conformer: 21.838345742032892 kcal/mol)

>  <smiles>  (30) 
COc1ccccc1CNCCSC

>  <score_type>  (30) 
oracle

>  <origin>  (30) 
adg

>  <m_score__min__energy>  (30) 
-4.2999999999999998

>  <m_primary>  (30) 
energy

$$$$
30:0
     RDKit          3D

 44 48  0  0  0  0  0  0  0  0999 V2000
   -1.8480   19.0550  -32.7570 O   0  0  0  0  0  0  0  0  0  0  0  0
   -2.9900   18.5850  -33.0260 C   0  0  0  0  0  0  0  0  0  0  0  0
   -3.0960   17.4050  -33.7780 C   0  0  0  0  0  0  0  0  0  0  0  0
   -1.9630   16.7030  -34.2340 C   0  0  0  0  0  0  0  0  0  0  0  0
   -2.1150   15.5350  -34.9870 C   0  0  0  0  0  0  0  0  0  0  0  0
   -3.3920   15.0580  -35.2910 C   0  0  0  0  0  0  0  0  0  0  0  0
   -4.5230   15.7480  -34.8440 C   0  0  0  0  0  0  0  0  0  0  0  0
   -4.3810   16.9230  -34.0870 C   0  0  0  0  0  0  0  0  0  0  0  0
   -5.4780   17.5940  -33.6480 N   0  0  0  0  0  0  0  0  0  0  0  0
   -5.3650   18.7290  -32.9010 C   0  0  0  0  0  0  0  0  0  0  0  0
   -6.6070   19.3850  -32.4230 C   0  0  0  0  0  0  0  0  0  0  0  0
   -6.8570   20.7300  -32.7390 C   0  0  0  0  0  0  0  0  0  0  0  0
   -8.0220   21.3550  -32.2840 C   0  0  0  0  0  0  0  0  0  0  0  0
   -8.9490   20.6410  -31.5200 C   0  0  0  0  0  0  0  0  0  0  0  0
   -8.7150   19.2970  -31.2150 C   0  0  0  0  0  0  0  0  0  0  0  0
   -7.5510   18.6670  -31.6690 C   0  0  0  0  0  0  0  0  0  0  0  0
   -4.1200   19.2350  -32.5990 N   0  0  0  0  0  0  0  0  0  0  0  0
   -3.9840   20.4810  -31.8800 C   0  0  0  0  0  0  0  0  0  0  0  0
   -4.0160   21.7010  -32.5710 C   0  0  0  0  0  0  0  0  0  0  0  0
   -3.8570   22.9080  -31.8860 C   0  0  0  0  0  0  0  0  0  0  0  0
   -3.6650   22.9150  -30.4920 C   0  0  0  0  0  0  0  0  0  0  0  0
   -3.6410   21.6830  -29.7930 C   0  0  0  0  0  0  0  0  0  0  0  0
   -3.4470   21.6890  -28.4080 C   0  0  0  0  0  0  0  0  0  0  0  0
   -3.2830   22.8980  -27.7370 C   0  0  0  0  0  0  0  0  0  0  0  0
   -3.3130   24.0940  -28.4550 C   0  0  0  0  0  0  0  0  0  0  0  0
   -3.5020   24.0890  -29.8040 N   0  0  0  0  0  0  0  0  0  0  0  0
   -3.5220   25.2970  -30.4660 O   0  0  0  0  0  0  0  0  0  0  0  0
   -3.8060   20.4770  -30.4890 C   0  0  0  0  0  0  0  0  0  0  0  0
   -0.9554   17.0751  -33.9968 H   0  0  0  0  0  0  0  0  0  0  0  0
   -1.2271   14.9905  -35.3408 H   0  0  0  0  0  0  0  0  0  0  0  0
   -3.5082   14.1382  -35.8829 H   0  0  0  0  0  0  0  0  0  0  0  0
   -5.5272   15.3696  -35.0858 H   0  0  0  0  0  0  0  0  0  0  0  0
   -6.4300   17.2230  -33.8690 H   0  0  0  0  0  0  0  0  0  0  0  0
   -6.1339   21.2939  -33.3466 H   0  0  0  0  0  0  0  0  0  0  0  0
   -8.2093   22.4111  -32.5280 H   0  0  0  0  0  0  0  0  0  0  0  0
   -9.8624   21.1363  -31.1588 H   0  0  0  0  0  0  0  0  0  0  0  0
   -9.4469   18.7339  -30.6173 H   0  0  0  0  0  0  0  0  0  0  0  0
   -7.3743   17.6068  -31.4351 H   0  0  0  0  0  0  0  0  0  0  0  0
   -4.1674   21.7075  -33.6605 H   0  0  0  0  0  0  0  0  0  0  0  0
   -3.8820   23.8583  -32.4394 H   0  0  0  0  0  0  0  0  0  0  0  0
   -3.4240   20.7412  -27.8502 H   0  0  0  0  0  0  0  0  0  0  0  0
   -3.1307   22.9101  -26.6477 H   0  0  0  0  0  0  0  0  0  0  0  0
   -3.1828   25.0500  -27.9267 H   0  0  0  0  0  0  0  0  0  0  0  0
   -3.7958   19.5231  -29.9413 H   0  0  0  0  0  0  0  0  0  0  0  0
  1  2  2  0
  2  3  1  0
  3  4  2  0
  4  5  1  0
  5  6  2  0
  6  7  1  0
  7  8  2  0
  8  9  1  0
  9 10  2  0
 10 11  1  0
 11 12  2  0
 12 13  1  0
 13 14  2  0
 14 15  1  0
 15 16  2  0
 10 17  1  0
 17 18  1  0
 18 19  2  0
 19 20  1  0
 20 21  2  0
 21 22  1  0
 22 23  1  0
 23 24  2  0
 24 25  1  0
 25 26  2  0
 26 27  1  0
 22 28  2  0
 17  2  1  0
 28 18  1  0
  8  3  1  0
 16 11  1  0
 26 21  1  0
  4 29  1  0
  5 30  1  0
  6 31  1  0
  7 32  1  0
  9 33  1  0
 12 34  1  0
 13 35  1  0
 14 36  1  0
 15 37  1  0
 16 38  1  0
 19 39  1  0
 20 40  1  0
 23 41  1  0
 24 42  1  0
 25 43  1  0
 28 44  1  0
M  CHG  3   9   1  26   1  27  -1
M  END
>  <UniqueID>  (31) 
30

>  <SMILES>  (31) 
O=c1c2ccccc2[nH+]c(-c2ccccc2)n1-c1ccc2c(ccc[n+]2[O-])c1

>  <Energy>  (31) 
75.33559301601854

>  <Genealogy>  (31) 
O=c1c2ccccc2[nH+]c(-c2ccccc2)n1-c1ccc2c(ccc[n+]2[O-])c1 (protonated)
O=c1c2ccccc2[nH+]c(-c2ccccc2)n1-c1ccc2c(ccc[n+]2[O-])c1 (3D coordinates assigned)
O=c1c2ccccc2[nH+]c(-c2ccccc2)n1-c1ccc2c(ccc[n+]2[O-])c1 (optimized conformer: 75.33559301601854 kcal/mol)

>  <smiles>  (31) 
O=c1c2ccccc2nc(-c2ccccc2)n1-c1ccc2c(ccc[n+]2[O-])c1

>  <score_type>  (31) 
oracle

>  <origin>  (31) 
adg

>  <m_score__min__energy>  (31) 
-9.2400000000000002

>  <m_primary>  (31) 
energy

$$$$
31:0
     RDKit          3D

 62 64  0  0  0  0  0  0  0  0999 V2000
   -1.4280   19.2400  -28.1320 C   0  0  0  0  0  0  0  0  0  0  0  0
   -1.7720   20.6590  -28.4940 C   0  0  0  0  0  0  0  0  0  0  0  0
   -2.0860   21.5750  -27.4770 C   0  0  0  0  0  0  0  0  0  0  0  0
   -2.4110   22.8960  -27.7880 C   0  0  0  0  0  0  0  0  0  0  0  0
   -2.4080   23.3350  -29.1200 C   0  0  0  0  0  0  0  0  0  0  0  0
   -2.7300   24.7420  -29.4550 C   0  0  0  0  0  0  0  0  0  0  0  0
   -2.0300   25.6680  -28.9640 O   0  0  0  0  0  0  0  0  0  0  0  0
   -3.7840   25.0870  -30.3640 N   0  0  0  0  0  0  0  0  0  0  0  0
   -4.9780   24.3270  -30.6080 C   0  0  0  0  0  0  0  0  0  0  0  0
   -5.5750   23.6460  -29.5410 C   0  0  0  0  0  0  0  0  0  0  0  0
   -6.7300   22.8860  -29.7450 C   0  0  0  0  0  0  0  0  0  0  0  0
   -7.3030   22.7960  -31.0230 C   0  0  0  0  0  0  0  0  0  0  0  0
   -8.5270   21.9510  -31.2510 C   0  0  0  0  0  0  0  0  0  0  0  0
   -8.1350   20.5980  -31.7800 C   0  0  0  0  0  0  0  0  0  0  0  0
   -7.2180   20.4900  -32.8390 C   0  0  0  0  0  0  0  0  0  0  0  0
   -6.8810   19.2330  -33.3530 C   0  0  0  0  0  0  0  0  0  0  0  0
   -7.4650   18.0800  -32.8220 C   0  0  0  0  0  0  0  0  0  0  0  0
   -8.3870   18.1800  -31.7760 C   0  0  0  0  0  0  0  0  0  0  0  0
   -8.7260   19.4350  -31.2590 C   0  0  0  0  0  0  0  0  0  0  0  0
   -6.6850   23.4500  -32.1000 C   0  0  0  0  0  0  0  0  0  0  0  0
   -5.5270   24.2050  -31.8960 C   0  0  0  0  0  0  0  0  0  0  0  0
   -2.1040   22.4210  -30.1400 C   0  0  0  0  0  0  0  0  0  0  0  0
   -1.7860   21.0840  -29.8410 C   0  0  0  0  0  0  0  0  0  0  0  0
   -1.4220   20.1770  -30.8980 N   0  0  0  0  0  0  0  0  0  0  0  0
   -0.2960   20.3900  -31.7620 C   0  0  0  0  0  0  0  0  0  0  0  0
    0.3050   21.4980  -31.7690 O   0  0  0  0  0  0  0  0  0  0  0  0
    0.1410   19.3140  -32.7130 C   0  0  0  0  0  0  0  0  0  0  0  0
   -0.8360   19.1590  -33.8890 C   0  0  0  0  0  0  0  0  0  0  0  0
   -1.9590   20.2130  -33.8970 C   0  0  0  0  0  0  0  0  0  0  0  0
   -3.0560   19.8650  -32.9660 N   0  0  0  0  0  0  0  0  0  0  0  0
   -3.9840   21.0000  -32.8370 C   0  0  0  0  0  0  0  0  0  0  0  0
   -3.8010   18.6810  -33.4340 C   0  0  0  0  0  0  0  0  0  0  0  0
   -1.4030   19.1367  -27.0372 H   0  0  0  0  0  0  0  0  0  0  0  0
   -2.1876   18.5613  -28.5471 H   0  0  0  0  0  0  0  0  0  0  0  0
   -0.4419   18.9845  -28.5471 H   0  0  0  0  0  0  0  0  0  0  0  0
   -2.0757   21.2486  -26.4266 H   0  0  0  0  0  0  0  0  0  0  0  0
   -2.6715   23.5982  -26.9824 H   0  0  0  0  0  0  0  0  0  0  0  0
   -5.1326   23.7093  -28.5359 H   0  0  0  0  0  0  0  0  0  0  0  0
   -7.1924   22.3556  -28.8995 H   0  0  0  0  0  0  0  0  0  0  0  0
   -9.0649   21.8269  -30.2996 H   0  0  0  0  0  0  0  0  0  0  0  0
   -9.1746   22.4497  -31.9872 H   0  0  0  0  0  0  0  0  0  0  0  0
   -6.7636   21.3965  -33.2654 H   0  0  0  0  0  0  0  0  0  0  0  0
   -6.1556   19.1524  -34.1760 H   0  0  0  0  0  0  0  0  0  0  0  0
   -7.1990   17.0927  -33.2274 H   0  0  0  0  0  0  0  0  0  0  0  0
   -8.8462   17.2715  -31.3592 H   0  0  0  0  0  0  0  0  0  0  0  0
   -9.4580   19.5113  -30.4415 H   0  0  0  0  0  0  0  0  0  0  0  0
   -7.1142   23.3679  -33.1095 H   0  0  0  0  0  0  0  0  0  0  0  0
   -5.0430   24.7061  -32.7473 H   0  0  0  0  0  0  0  0  0  0  0  0
   -2.1145   22.7547  -31.1881 H   0  0  0  0  0  0  0  0  0  0  0  0
   -2.0290   19.3470  -31.0760 H   0  0  0  0  0  0  0  0  0  0  0  0
    1.1352   19.5702  -33.1078 H   0  0  0  0  0  0  0  0  0  0  0  0
    0.1668   18.3618  -32.1628 H   0  0  0  0  0  0  0  0  0  0  0  0
   -0.2686   19.2475  -34.8272 H   0  0  0  0  0  0  0  0  0  0  0  0
   -1.3162   18.1750  -33.7835 H   0  0  0  0  0  0  0  0  0  0  0  0
   -1.5362   21.1840  -33.5998 H   0  0  0  0  0  0  0  0  0  0  0  0
   -2.3776   20.2542  -34.9134 H   0  0  0  0  0  0  0  0  0  0  0  0
   -4.1577   21.2124  -31.7718 H   0  0  0  0  0  0  0  0  0  0  0  0
   -3.5487   21.8865  -33.3214 H   0  0  0  0  0  0  0  0  0  0  0  0
   -4.9393   20.7495  -33.3214 H   0  0  0  0  0  0  0  0  0  0  0  0
   -4.1614   18.1082  -32.5668 H   0  0  0  0  0  0  0  0  0  0  0  0
   -4.6587   19.0043  -34.0421 H   0  0  0  0  0  0  0  0  0  0  0  0
   -3.1384   18.0476  -34.0421 H   0  0  0  0  0  0  0  0  0  0  0  0
  1  2  1  0
  2  3  2  0
  3  4  1  0
  4  5  2  0
  5  6  1  0
  6  7  2  0
  6  8  1  0
  8  9  1  0
  9 10  2  0
 10 11  1  0
 11 12  2  0
 12 13  1  0
 13 14  1  0
 14 15  2  0
 15 16  1  0
 16 17  2  0
 17 18  1  0
 18 19  2  0
 12 20  1  0
 20 21  2  0
  5 22  1  0
 22 23  2  0
 23 24  1  0
 24 25  1  0
 25 26  2  0
 25 27  1  0
 27 28  1  0
 28 29  1  0
 29 30  1  0
 30 31  1  0
 30 32  1  0
 23  2  1  0
 21  9  1  0
 19 14  1  0
  1 33  1  0
  1 34  1  0
  1 35  1  0
  3 36  1  0
  4 37  1  0
 10 38  1  0
 11 39  1  0
 13 40  1  0
 13 41  1  0
 15 42  1  0
 16 43  1  0
 17 44  1  0
 18 45  1  0
 19 46  1  0
 20 47  1  0
 21 48  1  0
 22 49  1  0
 24 50  1  0
 27 51  1  0
 27 52  1  0
 28 53  1  0
 28 54  1  0
 29 55  1  0
 29 56  1  0
 31 57  1  0
 31 58  1  0
 31 59  1  0
 32 60  1  0
 32 61  1  0
 32 62  1  0
M  CHG  1   8  -1
M  END
>  <UniqueID>  (32) 
31

>  <SMILES>  (32) 
Cc1ccc(C(=O)[N-]c2ccc(Cc3ccccc3)cc2)cc1NC(=O)CCCN(C)C

>  <Energy>  (32) 
67.86552901381775

>  <Genealogy>  (32) 
Cc1ccc(C(=O)[N-]c2ccc(Cc3ccccc3)cc2)cc1NC(=O)CCCN(C)C (protonated)
Cc1ccc(C(=O)[N-]c2ccc(Cc3ccccc3)cc2)cc1NC(=O)CCCN(C)C (3D coordinates assigned)
Cc1ccc(C(=O)[N-]c2ccc(Cc3ccccc3)cc2)cc1NC(=O)CCCN(C)C (optimized conformer: 67.86552901381775 kcal/mol)

>  <smiles>  (32) 
Cc1ccc(C(=O)Nc2ccc(Cc3ccccc3)cc2)cc1NC(=O)CCCN(C)C

>  <score_type>  (32) 
oracle

>  <origin>  (32) 
adg

>  <m_score__min__energy>  (32) 
-11.800000000000001

>  <m_primary>  (32) 
energy

$$$$
32:0
     RDKit          3D

 45 47  0  0  0  0  0  0  0  0999 V2000
   -4.2050   15.7440  -34.6930 C   0  0  0  0  0  0  0  0  0  0  0  0
   -5.0730   16.4470  -33.7050 C   0  0  0  0  0  0  0  0  0  0  0  0
   -5.0130   16.3020  -32.3260 C   0  0  0  0  0  0  0  0  0  0  0  0
   -6.0080   17.0190  -31.6500 C   0  0  0  0  0  0  0  0  0  0  0  0
   -6.8640   17.7180  -32.5020 C   0  0  0  0  0  0  0  0  0  0  0  0
   -8.0300   18.5470  -32.1230 C   0  0  0  0  0  0  0  0  0  0  0  0
   -8.6770   18.2280  -31.0850 O   0  0  0  0  0  0  0  0  0  0  0  0
   -8.4050   19.7290  -32.8750 N   0  0  2  0  0  0  0  0  0  0  0  0
   -7.2260   20.4380  -33.4580 C   0  0  0  0  0  0  0  0  0  0  0  0
   -6.3300   21.1730  -32.4720 C   0  0  0  0  0  0  0  0  0  0  0  0
   -6.4260   22.5650  -32.3220 C   0  0  0  0  0  0  0  0  0  0  0  0
   -5.5850   23.2490  -31.4400 C   0  0  0  0  0  0  0  0  0  0  0  0
   -4.5970   22.5630  -30.7070 C   0  0  0  0  0  0  0  0  0  0  0  0
   -3.7260   23.2720  -29.7860 N   0  0  0  0  0  0  0  0  0  0  0  0
   -2.2680   23.1230  -29.8740 C   0  0  0  0  0  0  0  0  0  0  0  0
   -4.2880   24.1520  -28.7540 C   0  0  0  0  0  0  0  0  0  0  0  0
   -4.4640   21.1750  -30.9070 C   0  0  0  0  0  0  0  0  0  0  0  0
   -5.3080   20.4950  -31.7900 C   0  0  0  0  0  0  0  0  0  0  0  0
   -9.4740   20.4860  -32.1600 C   0  0  0  0  0  0  0  0  0  0  0  0
   -9.4030   22.0080  -32.0840 C   0  0  0  0  0  0  0  0  0  0  0  0
   -9.1000   21.1670  -30.8500 C   0  0  0  0  0  0  0  0  0  0  0  0
   -6.3790   17.4300  -34.0900 S   0  0  0  0  0  0  0  0  0  0  0  0
   -3.4576   15.1387  -34.1591 H   0  0  0  0  0  0  0  0  0  0  0  0
   -4.8238   15.0894  -35.3243 H   0  0  0  0  0  0  0  0  0  0  0  0
   -3.6933   16.4853  -35.3243 H   0  0  0  0  0  0  0  0  0  0  0  0
   -4.2590   15.6853  -31.8150 H   0  0  0  0  0  0  0  0  0  0  0  0
   -6.1053   17.0301  -30.5544 H   0  0  0  0  0  0  0  0  0  0  0  0
   -8.9260   19.3810  -33.7120 H   0  0  0  0  0  0  0  0  0  0  0  0
   -6.6094   19.6913  -33.9798 H   0  0  0  0  0  0  0  0  0  0  0  0
   -7.6445   21.2165  -34.1129 H   0  0  0  0  0  0  0  0  0  0  0  0
   -7.1720   23.1243  -32.9056 H   0  0  0  0  0  0  0  0  0  0  0  0
   -5.6960   24.3364  -31.3167 H   0  0  0  0  0  0  0  0  0  0  0  0
   -1.8421   23.0795  -28.8608 H   0  0  0  0  0  0  0  0  0  0  0  0
   -2.0261   22.1955  -30.4136 H   0  0  0  0  0  0  0  0  0  0  0  0
   -1.8435   23.9824  -30.4136 H   0  0  0  0  0  0  0  0  0  0  0  0
   -4.0360   23.7574  -27.7586 H   0  0  0  0  0  0  0  0  0  0  0  0
   -3.8676   25.1624  -28.8651 H   0  0  0  0  0  0  0  0  0  0  0  0
   -5.3815   24.1956  -28.8651 H   0  0  0  0  0  0  0  0  0  0  0  0
   -3.6867   20.6195  -30.3618 H   0  0  0  0  0  0  0  0  0  0  0  0
   -5.1694   19.4159  -31.9521 H   0  0  0  0  0  0  0  0  0  0  0  0
  -10.2429   19.7712  -32.4885 H   0  0  0  0  0  0  0  0  0  0  0  0
   -8.5918   22.5472  -32.5951 H   0  0  0  0  0  0  0  0  0  0  0  0
  -10.0948   22.8318  -32.3137 H   0  0  0  0  0  0  0  0  0  0  0  0
   -8.0699   21.0997  -30.4699 H   0  0  0  0  0  0  0  0  0  0  0  0
   -9.4829   21.1330  -29.8193 H   0  0  0  0  0  0  0  0  0  0  0  0
  1  2  1  0
  2  3  2  0
  3  4  1  0
  4  5  2  0
  5  6  1  0
  6  7  2  0
  6  8  1  0
  8  9  1  0
  9 10  1  0
 10 11  2  0
 11 12  1  0
 12 13  2  0
 13 14  1  0
 14 15  1  0
 14 16  1  0
 13 17  1  0
 17 18  2  0
  8 19  1  0
 19 20  1  0
 20 21  1  0
  5 22  1  0
 22  2  1  0
 18 10  1  0
 21 19  1  0
  1 23  1  0
  1 24  1  0
  1 25  1  0
  3 26  1  0
  4 27  1  0
  8 28  1  6
  9 29  1  0
  9 30  1  0
 11 31  1  0
 12 32  1  0
 15 33  1  0
 15 34  1  0
 15 35  1  0
 16 36  1  0
 16 37  1  0
 16 38  1  0
 17 39  1  0
 18 40  1  0
 19 41  1  0
 20 42  1  0
 20 43  1  0
 21 44  1  0
 21 45  1  0
M  CHG  1   8   1
M  END
>  <UniqueID>  (33) 
32

>  <SMILES>  (33) 
Cc1ccc(C(=O)[N@H+](Cc2ccc(N(C)C)cc2)C2CC2)s1

>  <Energy>  (33) 
356.6758743053791

>  <Genealogy>  (33) 
Cc1ccc(C(=O)[NH+](Cc2ccc(N(C)C)cc2)C2CC2)s1 (protonated)
Cc1ccc(C(=O)[N@H+](Cc2ccc(N(C)C)cc2)C2CC2)s1 (chirality)
Cc1ccc(C(=O)[N@H+](Cc2ccc(N(C)C)cc2)C2CC2)s1 (3D coordinates assigned)
Cc1ccc(C(=O)[N@H+](Cc2ccc(N(C)C)cc2)C2CC2)s1 (nonaromatic ring conformer: 356.6758743053791 kcal/mol)

>  <smiles>  (33) 
Cc1ccc(C(=O)N(Cc2ccc(N(C)C)cc2)C2CC2)s1

>  <score_type>  (33) 
oracle

>  <origin>  (33) 
adg

>  <m_score__min__energy>  (33) 
-7.0199999999999996

>  <m_primary>  (33) 
energy

$$$$
33:0
     RDKit          3D

 52 54  0  0  0  0  0  0  0  0999 V2000
   -1.6330   20.4450  -30.1910 C   0  0  0  0  0  0  0  0  0  0  0  0
   -2.8490   20.9540  -29.4070 C   0  0  0  0  0  0  0  0  0  0  0  0
   -2.4950   21.9240  -28.3380 N   0  0  0  0  0  0  0  0  0  0  0  0
   -1.3960   21.3670  -27.5080 C   0  0  0  0  0  0  0  0  0  0  0  0
   -1.8120   20.1290  -26.7040 C   0  0  0  0  0  0  0  0  0  0  0  0
   -3.6690   22.3800  -27.5420 C   0  0  0  0  0  0  0  0  0  0  0  0
   -4.0830   23.8460  -27.7630 C   0  0  0  0  0  0  0  0  0  0  0  0
   -3.6820   24.2660  -29.0660 O   0  0  0  0  0  0  0  0  0  0  0  0
   -4.5750   24.7360  -30.0360 C   0  0  0  0  0  0  0  0  0  0  0  0
   -4.2300   25.6330  -30.8520 O   0  0  0  0  0  0  0  0  0  0  0  0
   -5.9630   24.1750  -30.0850 C   0  0  0  0  0  0  0  0  0  0  0  0
   -6.4430   23.9420  -31.5240 C   0  0  0  0  0  0  0  0  0  0  0  0
   -6.3740   22.5220  -31.8940 N   0  0  0  0  0  0  0  0  0  0  0  0
   -5.2900   21.8290  -32.3320 C   0  0  0  0  0  0  0  0  0  0  0  0
   -3.9710   22.2800  -32.4710 C   0  0  0  0  0  0  0  0  0  0  0  0
   -3.0170   21.3900  -32.9980 C   0  0  0  0  0  0  0  0  0  0  0  0
   -3.3870   20.0820  -33.3770 C   0  0  0  0  0  0  0  0  0  0  0  0
   -4.7140   19.6440  -33.2290 C   0  0  0  0  0  0  0  0  0  0  0  0
   -5.6380   20.5430  -32.7000 C   0  0  0  0  0  0  0  0  0  0  0  0
   -6.9920   20.4310  -32.4840 C   0  0  0  0  0  0  0  0  0  0  0  0
   -7.8760   19.3770  -32.7090 C   0  0  0  0  0  0  0  0  0  0  0  0
   -9.2330   19.5880  -32.4070 C   0  0  0  0  0  0  0  0  0  0  0  0
   -9.6700   20.8300  -31.8990 C   0  0  0  0  0  0  0  0  0  0  0  0
   -8.7570   21.8790  -31.6890 C   0  0  0  0  0  0  0  0  0  0  0  0
   -7.4110   21.6520  -31.9940 C   0  0  0  0  0  0  0  0  0  0  0  0
   -0.8533   20.1186  -29.4871 H   0  0  0  0  0  0  0  0  0  0  0  0
   -1.9336   19.5972  -30.8241 H   0  0  0  0  0  0  0  0  0  0  0  0
   -1.2400   21.2542  -30.8241 H   0  0  0  0  0  0  0  0  0  0  0  0
   -3.5373   21.4454  -30.1104 H   0  0  0  0  0  0  0  0  0  0  0  0
   -3.3090   20.0830  -28.9174 H   0  0  0  0  0  0  0  0  0  0  0  0
   -2.1090   22.7730  -28.8180 H   0  0  0  0  0  0  0  0  0  0  0  0
   -0.5636   21.0893  -28.1713 H   0  0  0  0  0  0  0  0  0  0  0  0
   -1.1075   22.1439  -26.7847 H   0  0  0  0  0  0  0  0  0  0  0  0
   -1.7383   20.3484  -25.6286 H   0  0  0  0  0  0  0  0  0  0  0  0
   -2.8494   19.8614  -26.9534 H   0  0  0  0  0  0  0  0  0  0  0  0
   -1.1467   19.2893  -26.9534 H   0  0  0  0  0  0  0  0  0  0  0  0
   -4.5258   21.7416  -27.8035 H   0  0  0  0  0  0  0  0  0  0  0  0
   -3.3694   22.3039  -26.4863 H   0  0  0  0  0  0  0  0  0  0  0  0
   -5.1753   23.9359  -27.6696 H   0  0  0  0  0  0  0  0  0  0  0  0
   -3.5951   24.4807  -27.0086 H   0  0  0  0  0  0  0  0  0  0  0  0
   -5.9766   23.2155  -29.5472 H   0  0  0  0  0  0  0  0  0  0  0  0
   -6.6395   24.9055  -29.6172 H   0  0  0  0  0  0  0  0  0  0  0  0
   -7.4848   24.2837  -31.6125 H   0  0  0  0  0  0  0  0  0  0  0  0
   -5.7855   24.5064  -32.2016 H   0  0  0  0  0  0  0  0  0  0  0  0
   -3.6889   23.3016  -32.1763 H   0  0  0  0  0  0  0  0  0  0  0  0
   -1.9733   21.7168  -33.1156 H   0  0  0  0  0  0  0  0  0  0  0  0
   -2.6304   19.3997  -33.7917 H   0  0  0  0  0  0  0  0  0  0  0  0
   -5.0131   18.6264  -33.5207 H   0  0  0  0  0  0  0  0  0  0  0  0
   -7.5245   18.4143  -33.1086 H   0  0  0  0  0  0  0  0  0  0  0  0
   -9.9599   18.7783  -32.5680 H   0  0  0  0  0  0  0  0  0  0  0  0
  -10.7345   20.9790  -31.6651 H   0  0  0  0  0  0  0  0  0  0  0  0
   -9.0920   22.8503  -31.2961 H   0  0  0  0  0  0  0  0  0  0  0  0
  1  2  1  0
  2  3  1  0
  3  4  1  0
  4  5  1  0
  3  6  1  0
  6  7  1  0
  7  8  1  0
  8  9  1  0
  9 10  2  0
  9 11  1  0
 11 12  1  0
 12 13  1  0
 13 14  1  0
 14 15  2  0
 15 16  1  0
 16 17  2  0
 17 18  1  0
 18 19  2  0
 19 20  1  0
 20 21  2  0
 21 22  1  0
 22 23  2  0
 23 24  1  0
 24 25  2  0
 25 13  1  0
 19 14  1  0
 25 20  1  0
  1 26  1  0
  1 27  1  0
  1 28  1  0
  2 29  1  0
  2 30  1  0
  3 31  1  0
  4 32  1  0
  4 33  1  0
  5 34  1  0
  5 35  1  0
  5 36  1  0
  6 37  1  0
  6 38  1  0
  7 39  1  0
  7 40  1  0
 11 41  1  0
 11 42  1  0
 12 43  1  0
 12 44  1  0
 15 45  1  0
 16 46  1  0
 17 47  1  0
 18 48  1  0
 21 49  1  0
 22 50  1  0
 23 51  1  0
 24 52  1  0
M  CHG  1   3   1
M  END
>  <UniqueID>  (34) 
33

>  <SMILES>  (34) 
CC[NH+](CC)CCOC(=O)CCn1c2ccccc2c2ccccc21

>  <Energy>  (34) 
87.8991785726509

>  <Genealogy>  (34) 
CC[NH+](CC)CCOC(=O)CCn1c2ccccc2c2ccccc21 (protonated)
CC[NH+](CC)CCOC(=O)CCn1c2ccccc2c2ccccc21 (3D coordinates assigned)
CC[NH+](CC)CCOC(=O)CCn1c2ccccc2c2ccccc21 (optimized conformer: 87.8991785726509 kcal/mol)

>  <smiles>  (34) 
CCN(CC)CCOC(=O)CCn1c2ccccc2c2ccccc21

>  <score_type>  (34) 
oracle

>  <origin>  (34) 
adg

>  <m_score__min__energy>  (34) 
-7.5499999999999998

>  <m_primary>  (34) 
energy

$$$$
34:0
     RDKit          3D

 50 52  0  0  0  0  0  0  0  0999 V2000
   -5.7810   24.1260  -30.1250 C   0  0  0  0  0  0  0  0  0  0  0  0
   -4.9010   25.2460  -30.6700 C   0  0  0  0  0  0  0  0  0  0  0  0
   -3.5210   24.9440  -30.4720 O   0  0  0  0  0  0  0  0  0  0  0  0
   -2.9920   24.1530  -29.4360 C   0  0  0  0  0  0  0  0  0  0  0  0
   -3.0390   24.5550  -28.0850 C   0  0  0  0  0  0  0  0  0  0  0  0
   -2.5070   23.7390  -27.0860 C   0  0  0  0  0  0  0  0  0  0  0  0
   -1.9220   22.5160  -27.4160 C   0  0  0  0  0  0  0  0  0  0  0  0
   -1.8660   22.1050  -28.7500 C   0  0  0  0  0  0  0  0  0  0  0  0
   -2.3940   22.9190  -29.7660 C   0  0  0  0  0  0  0  0  0  0  0  0
   -2.3570   22.4490  -31.2010 C   0  0  0  0  0  0  0  0  0  0  0  0
   -3.1090   21.1860  -31.3610 N   0  0  0  0  0  0  0  0  0  0  0  0
   -2.3110   20.1670  -32.0890 C   0  0  0  0  0  0  0  0  0  0  0  0
   -3.2160   19.1130  -32.7390 C   0  0  0  0  0  0  0  0  0  0  0  0
   -4.0800   19.7270  -33.7770 N   0  0  0  0  0  0  0  0  0  0  0  0
   -5.2200   18.8520  -34.1610 C   0  0  0  0  0  0  0  0  0  0  0  0
   -6.4530   18.9990  -33.2880 C   0  0  0  0  0  0  0  0  0  0  0  0
   -6.7740   18.0130  -32.3380 C   0  0  0  0  0  0  0  0  0  0  0  0
   -7.9100   18.1430  -31.5360 C   0  0  0  0  0  0  0  0  0  0  0  0
   -8.7520   19.2470  -31.6870 C   0  0  0  0  0  0  0  0  0  0  0  0
   -8.4640   20.2160  -32.6510 C   0  0  0  0  0  0  0  0  0  0  0  0
   -7.3260   20.0910  -33.4550 C   0  0  0  0  0  0  0  0  0  0  0  0
   -4.4850   21.1250  -33.4620 C   0  0  0  0  0  0  0  0  0  0  0  0
   -4.4530   21.4180  -31.9510 C   0  0  0  0  0  0  0  0  0  0  0  0
   -5.7636   24.1481  -29.0254 H   0  0  0  0  0  0  0  0  0  0  0  0
   -6.8133   24.2659  -30.4783 H   0  0  0  0  0  0  0  0  0  0  0  0
   -5.4008   23.1561  -30.4783 H   0  0  0  0  0  0  0  0  0  0  0  0
   -5.0938   25.3655  -31.7464 H   0  0  0  0  0  0  0  0  0  0  0  0
   -5.1400   26.1764  -30.1341 H   0  0  0  0  0  0  0  0  0  0  0  0
   -3.4980   25.5181  -27.8171 H   0  0  0  0  0  0  0  0  0  0  0  0
   -2.5489   24.0609  -26.0350 H   0  0  0  0  0  0  0  0  0  0  0  0
   -1.5047   21.8751  -26.6254 H   0  0  0  0  0  0  0  0  0  0  0  0
   -1.4062   21.1391  -29.0062 H   0  0  0  0  0  0  0  0  0  0  0  0
   -2.8063   23.2199  -31.8444 H   0  0  0  0  0  0  0  0  0  0  0  0
   -1.3094   22.2735  -31.4869 H   0  0  0  0  0  0  0  0  0  0  0  0
   -1.7214   20.6657  -32.8724 H   0  0  0  0  0  0  0  0  0  0  0  0
   -1.6509   19.6621  -31.3684 H   0  0  0  0  0  0  0  0  0  0  0  0
   -2.5897   18.3374  -33.2039 H   0  0  0  0  0  0  0  0  0  0  0  0
   -3.8579   18.6725  -31.9619 H   0  0  0  0  0  0  0  0  0  0  0  0
   -3.4870   19.7900  -34.6400 H   0  0  0  0  0  0  0  0  0  0  0  0
   -5.5026   19.0918  -35.1967 H   0  0  0  0  0  0  0  0  0  0  0  0
   -4.8725   17.8157  -34.0368 H   0  0  0  0  0  0  0  0  0  0  0  0
   -6.1249   17.1320  -32.2257 H   0  0  0  0  0  0  0  0  0  0  0  0
   -8.1420   17.3744  -30.7840 H   0  0  0  0  0  0  0  0  0  0  0  0
   -9.6408   19.3533  -31.0476 H   0  0  0  0  0  0  0  0  0  0  0  0
   -9.1336   21.0794  -32.7783 H   0  0  0  0  0  0  0  0  0  0  0  0
   -7.1120   20.8500  -34.2219 H   0  0  0  0  0  0  0  0  0  0  0  0
   -3.7962   21.8156  -33.9706 H   0  0  0  0  0  0  0  0  0  0  0  0
   -5.5201   21.2609  -33.8085 H   0  0  0  0  0  0  0  0  0  0  0  0
   -4.7344   22.4689  -31.7882 H   0  0  0  0  0  0  0  0  0  0  0  0
   -5.1595   20.7328  -31.4598 H   0  0  0  0  0  0  0  0  0  0  0  0
  1  2  1  0
  2  3  1  0
  3  4  1  0
  4  5  2  0
  5  6  1  0
  6  7  2  0
  7  8  1  0
  8  9  2  0
  9 10  1  0
 10 11  1  0
 11 12  1  0
 12 13  1  0
 13 14  1  0
 14 15  1  0
 15 16  1  0
 16 17  2  0
 17 18  1  0
 18 19  2  0
 19 20  1  0
 20 21  2  0
 14 22  1  0
 22 23  1  0
  9  4  1  0
 23 11  1  0
 21 16  1  0
  1 24  1  0
  1 25  1  0
  1 26  1  0
  2 27  1  0
  2 28  1  0
  5 29  1  0
  6 30  1  0
  7 31  1  0
  8 32  1  0
 10 33  1  0
 10 34  1  0
 12 35  1  0
 12 36  1  0
 13 37  1  0
 13 38  1  0
 14 39  1  0
 15 40  1  0
 15 41  1  0
 17 42  1  0
 18 43  1  0
 19 44  1  0
 20 45  1  0
 21 46  1  0
 22 47  1  0
 22 48  1  0
 23 49  1  0
 23 50  1  0
M  CHG  1  14   1
M  END
>  <UniqueID>  (35) 
34

>  <SMILES>  (35) 
CCOc1ccccc1CN1CC[NH+](Cc2ccccc2)CC1

>  <Energy>  (35) 
65.29433302912487

>  <Genealogy>  (35) 
CCOc1ccccc1CN1CC[NH+](Cc2ccccc2)CC1 (protonated)
CCOc1ccccc1CN1CC[NH+](Cc2ccccc2)CC1 (3D coordinates assigned)
CCOc1ccccc1CN1CC[NH+](Cc2ccccc2)CC1 (nonaromatic ring conformer: 65.29433302912487 kcal/mol)

>  <smiles>  (35) 
CCOc1ccccc1CN1CCN(Cc2ccccc2)CC1

>  <score_type>  (35) 
oracle

>  <origin>  (35) 
adg

>  <m_score__min__energy>  (35) 
-7.2599999999999998

>  <m_primary>  (35) 
energy

$$$$
35:0
     RDKit          3D

 58 62  0  0  0  0  0  0  0  0999 V2000
    0.6270   16.8790  -27.3900 C   0  0  0  0  0  0  0  0  0  0  0  0
    0.2640   18.2610  -27.7040 N   0  0  0  0  0  0  0  0  0  0  0  0
    1.2410   18.8950  -28.6090 C   0  0  0  0  0  0  0  0  0  0  0  0
    1.0890   20.4250  -28.6790 C   0  0  0  0  0  0  0  0  0  0  0  0
   -0.3310   20.8280  -28.6800 N   0  0  0  0  0  0  0  0  0  0  0  0
   -1.0530   20.8150  -27.4370 C   0  0  0  0  0  0  0  0  0  0  0  0
   -0.4400   20.8170  -26.3340 O   0  0  0  0  0  0  0  0  0  0  0  0
   -2.4780   20.8050  -27.4500 N   0  0  0  0  0  0  0  0  0  0  0  0
   -3.2050   20.4350  -28.6560 C   0  0  0  0  0  0  0  0  0  0  0  0
   -2.4880   20.8910  -29.9120 C   0  0  0  0  0  0  0  0  0  0  0  0
   -3.2100   21.0930  -31.1170 C   0  0  0  0  0  0  0  0  0  0  0  0
   -4.6680   20.8420  -31.2080 C   0  0  0  0  0  0  0  0  0  0  0  0
   -5.1310   19.5930  -31.6440 C   0  0  0  0  0  0  0  0  0  0  0  0
   -6.5020   19.3640  -31.7970 C   0  0  0  0  0  0  0  0  0  0  0  0
   -6.9910   18.1230  -32.2300 C   0  0  0  0  0  0  0  0  0  0  0  0
   -8.3670   17.9270  -32.3800 C   0  0  0  0  0  0  0  0  0  0  0  0
   -9.2600   18.9680  -32.1020 C   0  0  0  0  0  0  0  0  0  0  0  0
   -8.7800   20.2090  -31.6720 C   0  0  0  0  0  0  0  0  0  0  0  0
   -7.4040   20.4130  -31.5170 C   0  0  0  0  0  0  0  0  0  0  0  0
   -6.9360   21.6180  -31.0980 N   0  0  0  0  0  0  0  0  0  0  0  0
   -5.6080   21.8590  -30.9270 C   0  0  0  0  0  0  0  0  0  0  0  0
   -5.1850   23.1550  -30.4770 N   0  0  0  0  0  0  0  0  0  0  0  0
   -4.4310   23.3000  -29.2280 C   0  0  0  0  0  0  0  0  0  0  0  0
   -3.4020   24.4490  -29.3410 C   0  0  0  0  0  0  0  0  0  0  0  0
   -3.5810   25.2720  -30.4850 O   0  0  0  0  0  0  0  0  0  0  0  0
   -4.9480   25.5900  -30.6560 C   0  0  0  0  0  0  0  0  0  0  0  0
   -5.6990   24.3500  -31.1470 C   0  0  0  0  0  0  0  0  0  0  0  0
   -2.5420   21.5520  -32.2580 C   0  0  0  0  0  0  0  0  0  0  0  0
   -1.1770   21.8100  -32.2210 C   0  0  0  0  0  0  0  0  0  0  0  0
   -0.4500   21.5820  -31.0540 C   0  0  0  0  0  0  0  0  0  0  0  0
   -1.0810   21.0840  -29.8950 C   0  0  0  0  0  0  0  0  0  0  0  0
    0.6614   16.7479  -26.2984 H   0  0  0  0  0  0  0  0  0  0  0  0
   -0.1224   16.1968  -27.8178 H   0  0  0  0  0  0  0  0  0  0  0  0
    1.6149   16.6531  -27.8178 H   0  0  0  0  0  0  0  0  0  0  0  0
    0.1730   18.7940  -26.8080 H   0  0  0  0  0  0  0  0  0  0  0  0
    2.2544   18.6591  -28.2520 H   0  0  0  0  0  0  0  0  0  0  0  0
    1.0598   18.4992  -29.6192 H   0  0  0  0  0  0  0  0  0  0  0  0
    1.5874   20.8740  -27.8072 H   0  0  0  0  0  0  0  0  0  0  0  0
    1.5478   20.7749  -29.6155 H   0  0  0  0  0  0  0  0  0  0  0  0
   -2.9950   20.8420  -26.5420 H   0  0  0  0  0  0  0  0  0  0  0  0
   -3.3116   19.3406  -28.6851 H   0  0  0  0  0  0  0  0  0  0  0  0
   -4.1874   20.9290  -28.6264 H   0  0  0  0  0  0  0  0  0  0  0  0
   -4.4132   18.7898  -31.8667 H   0  0  0  0  0  0  0  0  0  0  0  0
   -6.2916   17.3035  -32.4517 H   0  0  0  0  0  0  0  0  0  0  0  0
   -8.7487   16.9521  -32.7174 H   0  0  0  0  0  0  0  0  0  0  0  0
  -10.3419   18.8097  -32.2220 H   0  0  0  0  0  0  0  0  0  0  0  0
   -9.4844   21.0256  -31.4554 H   0  0  0  0  0  0  0  0  0  0  0  0
   -5.1300   23.5206  -28.4078 H   0  0  0  0  0  0  0  0  0  0  0  0
   -3.8928   22.3616  -29.0288 H   0  0  0  0  0  0  0  0  0  0  0  0
   -3.4874   25.0798  -28.4439 H   0  0  0  0  0  0  0  0  0  0  0  0
   -2.4108   23.9815  -29.4361 H   0  0  0  0  0  0  0  0  0  0  0  0
   -5.3714   25.9196  -29.6957 H   0  0  0  0  0  0  0  0  0  0  0  0
   -5.0483   26.3981  -31.3956 H   0  0  0  0  0  0  0  0  0  0  0  0
   -6.7703   24.4607  -30.9231 H   0  0  0  0  0  0  0  0  0  0  0  0
   -5.5532   24.2460  -32.2323 H   0  0  0  0  0  0  0  0  0  0  0  0
   -3.1020   21.7098  -33.1916 H   0  0  0  0  0  0  0  0  0  0  0  0
   -0.6681   22.1958  -33.1166 H   0  0  0  0  0  0  0  0  0  0  0  0
    0.6294   21.7931  -31.0366 H   0  0  0  0  0  0  0  0  0  0  0  0
  1  2  1  0
  2  3  1  0
  3  4  1  0
  4  5  1  0
  5  6  1  0
  6  7  2  0
  6  8  1  0
  8  9  1  0
  9 10  1  0
 10 11  2  0
 11 12  1  0
 12 13  2  0
 13 14  1  0
 14 15  2  0
 15 16  1  0
 16 17  2  0
 17 18  1  0
 18 19  2  0
 19 20  1  0
 20 21  2  0
 21 22  1  0
 22 23  1  0
 23 24  1  0
 24 25  1  0
 25 26  1  0
 26 27  1  0
 11 28  1  0
 28 29  2  0
 29 30  1  0
 30 31  2  0
 31  5  1  0
 31 10  1  0
 21 12  1  0
 27 22  1  0
 19 14  1  0
  1 32  1  0
  1 33  1  0
  1 34  1  0
  2 35  1  0
  3 36  1  0
  3 37  1  0
  4 38  1  0
  4 39  1  0
  8 40  1  0
  9 41  1  0
  9 42  1  0
 13 43  1  0
 15 44  1  0
 16 45  1  0
 17 46  1  0
 18 47  1  0
 23 48  1  0
 23 49  1  0
 24 50  1  0
 24 51  1  0
 26 52  1  0
 26 53  1  0
 27 54  1  0
 27 55  1  0
 28 56  1  0
 29 57  1  0
 30 58  1  0
M  END
>  <UniqueID>  (36) 
35

>  <SMILES>  (36) 
CNCCN1C(=O)NCc2c(-c3cc4ccccc4nc3N3CCOCC3)cccc21

>  <Energy>  (36) 
86.6388713990165

>  <Genealogy>  (36) 
CNCCN1C(=O)NCc2c(-c3cc4ccccc4nc3N3CCOCC3)cccc21 (3D coordinates assigned)
CNCCN1C(=O)NCc2c(-c3cc4ccccc4nc3N3CCOCC3)cccc21 (nonaromatic ring conformer: 86.6388713990165 kcal/mol)

>  <smiles>  (36) 
CNCCN1C(=O)NCc2c(-c3cc4ccccc4nc3N3CCOCC3)cccc21

>  <score_type>  (36) 
oracle

>  <origin>  (36) 
adg

>  <m_score__min__energy>  (36) 
-8.0399999999999991

>  <m_primary>  (36) 
energy

$$$$
36:0
     RDKit          3D

 53 56  0  0  0  0  0  0  0  0999 V2000
   -4.1900   24.1350  -28.3410 C   0  0  0  0  0  0  0  0  0  0  0  0
   -3.6100   24.1440  -29.7630 C   0  0  0  0  0  0  0  0  0  0  0  0
   -4.5670   24.5890  -30.8020 N   0  0  0  0  0  0  0  0  0  0  0  0
   -5.6280   25.4480  -30.2460 C   0  0  0  0  0  0  0  0  0  0  0  0
   -5.1150   23.4650  -31.5910 C   0  0  0  0  0  0  0  0  0  0  0  0
   -4.0230   22.4320  -31.8850 C   0  0  0  0  0  0  0  0  0  0  0  0
   -4.3090   21.7120  -33.1270 N   0  0  0  0  0  0  0  0  0  0  0  0
   -4.2300   20.2830  -33.1750 C   0  0  0  0  0  0  0  0  0  0  0  0
   -3.0270   19.6450  -33.5570 C   0  0  0  0  0  0  0  0  0  0  0  0
   -1.9150   20.4030  -33.9820 C   0  0  0  0  0  0  0  0  0  0  0  0
   -0.7260   19.7790  -34.3520 C   0  0  0  0  0  0  0  0  0  0  0  0
   -0.6250   18.3920  -34.3190 C   0  0  0  0  0  0  0  0  0  0  0  0
   -1.7160   17.6170  -33.9260 C   0  0  0  0  0  0  0  0  0  0  0  0
   -2.9390   18.2190  -33.5410 C   0  0  0  0  0  0  0  0  0  0  0  0
   -4.0350   17.4590  -33.1740 N   0  0  0  0  0  0  0  0  0  0  0  0
   -3.9560   15.9850  -33.1360 C   0  0  0  0  0  0  0  0  0  0  0  0
   -5.2080   18.0980  -32.8720 C   0  0  0  0  0  0  0  0  0  0  0  0
   -6.6920   17.3810  -32.5010 S   0  0  0  0  0  0  0  0  0  0  0  0
   -7.5250   18.8270  -32.3270 C   0  0  0  0  0  0  0  0  0  0  0  0
   -6.6570   19.9040  -32.5120 C   0  0  0  0  0  0  0  0  0  0  0  0
   -5.3420   19.4850  -32.8550 C   0  0  0  0  0  0  0  0  0  0  0  0
   -7.1680   21.3270  -32.4610 C   0  0  0  0  0  0  0  0  0  0  0  0
   -8.5600   21.4330  -31.8130 C   0  0  0  0  0  0  0  0  0  0  0  0
   -9.5060   20.3360  -32.3190 C   0  0  0  0  0  0  0  0  0  0  0  0
   -8.9710   18.9480  -31.9510 C   0  0  0  0  0  0  0  0  0  0  0  0
   -3.3683   24.1477  -27.6098 H   0  0  0  0  0  0  0  0  0  0  0  0
   -4.8225   25.0234  -28.1974 H   0  0  0  0  0  0  0  0  0  0  0  0
   -4.7946   23.2274  -28.1974 H   0  0  0  0  0  0  0  0  0  0  0  0
   -2.7432   24.8211  -29.7786 H   0  0  0  0  0  0  0  0  0  0  0  0
   -3.3407   23.1048  -30.0030 H   0  0  0  0  0  0  0  0  0  0  0  0
   -5.5879   25.4155  -29.1472 H   0  0  0  0  0  0  0  0  0  0  0  0
   -5.4788   26.4828  -30.5879 H   0  0  0  0  0  0  0  0  0  0  0  0
   -6.6091   25.0867  -30.5879 H   0  0  0  0  0  0  0  0  0  0  0  0
   -5.9242   22.9841  -31.0219 H   0  0  0  0  0  0  0  0  0  0  0  0
   -5.5011   23.8550  -32.5443 H   0  0  0  0  0  0  0  0  0  0  0  0
   -3.0559   22.9471  -31.9814 H   0  0  0  0  0  0  0  0  0  0  0  0
   -3.9906   21.7081  -31.0574 H   0  0  0  0  0  0  0  0  0  0  0  0
   -4.6200   22.2230  -33.9850 H   0  0  0  0  0  0  0  0  0  0  0  0
   -1.9882   21.4999  -34.0215 H   0  0  0  0  0  0  0  0  0  0  0  0
    0.1352   20.3844  -34.6711 H   0  0  0  0  0  0  0  0  0  0  0  0
    0.3190   17.9045  -34.6040 H   0  0  0  0  0  0  0  0  0  0  0  0
   -1.6252   16.5208  -33.9149 H   0  0  0  0  0  0  0  0  0  0  0  0
   -3.9378   15.6456  -32.0898 H   0  0  0  0  0  0  0  0  0  0  0  0
   -4.8325   15.5576  -33.6449 H   0  0  0  0  0  0  0  0  0  0  0  0
   -3.0388   15.6537  -33.6449 H   0  0  0  0  0  0  0  0  0  0  0  0
   -6.4606   21.9347  -31.8776 H   0  0  0  0  0  0  0  0  0  0  0  0
   -7.2543   21.6874  -33.4967 H   0  0  0  0  0  0  0  0  0  0  0  0
   -8.4538   21.3371  -30.7223 H   0  0  0  0  0  0  0  0  0  0  0  0
   -8.9906   22.4086  -32.0826 H   0  0  0  0  0  0  0  0  0  0  0  0
  -10.4968   20.4742  -31.8615 H   0  0  0  0  0  0  0  0  0  0  0  0
   -9.5782   20.4085  -33.4142 H   0  0  0  0  0  0  0  0  0  0  0  0
   -9.0774   18.7946  -30.8670 H   0  0  0  0  0  0  0  0  0  0  0  0
   -9.5464   18.1876  -32.4994 H   0  0  0  0  0  0  0  0  0  0  0  0
  1  2  1  0
  2  3  1  0
  3  4  1  0
  3  5  1  0
  5  6  1  0
  6  7  1  0
  7  8  1  0
  8  9  2  0
  9 10  1  0
 10 11  2  0
 11 12  1  0
 12 13  2  0
 13 14  1  0
 14 15  2  0
 15 16  1  0
 15 17  1  0
 17 18  1  0
 18 19  1  0
 19 20  2  0
 20 21  1  0
 20 22  1  0
 22 23  1  0
 23 24  1  0
 24 25  1  0
 21  8  1  0
 14  9  1  0
 21 17  2  0
 25 19  1  0
  1 26  1  0
  1 27  1  0
  1 28  1  0
  2 29  1  0
  2 30  1  0
  4 31  1  0
  4 32  1  0
  4 33  1  0
  5 34  1  0
  5 35  1  0
  6 36  1  0
  6 37  1  0
  7 38  1  0
 10 39  1  0
 11 40  1  0
 12 41  1  0
 13 42  1  0
 16 43  1  0
 16 44  1  0
 16 45  1  0
 22 46  1  0
 22 47  1  0
 23 48  1  0
 23 49  1  0
 24 50  1  0
 24 51  1  0
 25 52  1  0
 25 53  1  0
M  CHG  1  15   1
M  END
>  <UniqueID>  (37) 
36

>  <SMILES>  (37) 
CCN(C)CCNc1c2ccccc2[n+](C)c2sc3c(c12)CCCC3

>  <Energy>  (37) 
103.01610226716562

>  <Genealogy>  (37) 
CCN(C)CCNc1c2ccccc2[n+](C)c2sc3c(c12)CCCC3 (3D coordinates assigned)
CCN(C)CCNc1c2ccccc2[n+](C)c2sc3c(c12)CCCC3 (nonaromatic ring conformer: 103.01610226716562 kcal/mol)

>  <smiles>  (37) 
CCN(C)CCNc1c2ccccc2[n+](C)c2sc3c(c12)CCCC3

>  <score_type>  (37) 
oracle

>  <origin>  (37) 
adg

>  <m_score__min__energy>  (37) 
-9.4100000000000001

>  <m_primary>  (37) 
energy

$$$$
37:0
     RDKit          3D

 46 49  0  0  0  0  0  0  0  0999 V2000
   -2.2823   20.2060  -34.5364 H   0  0  0  0  0  0  0  0  0  0  0  0
   -2.6300   20.5950  -33.5680 C   0  0  0  0  0  0  0  0  0  0  0  0
   -3.9250   20.3130  -33.1260 C   0  0  0  0  0  0  0  0  0  0  0  0
   -4.5984   19.7075  -33.7504 H   0  0  0  0  0  0  0  0  0  0  0  0
   -4.3670   20.7990  -31.8910 C   0  0  0  0  0  0  0  0  0  0  0  0
   -5.3931   20.5880  -31.5555 H   0  0  0  0  0  0  0  0  0  0  0  0
   -3.5050   21.5570  -31.0750 C   0  0  0  0  0  0  0  0  0  0  0  0
   -3.9650   22.1340  -29.7560 C   0  0  0  0  0  0  0  0  0  0  0  0
   -3.9382   21.3405  -28.9946 H   0  0  0  0  0  0  0  0  0  0  0  0
   -4.9843   22.5227  -29.8970 H   0  0  0  0  0  0  0  0  0  0  0  0
   -3.1170   23.2500  -29.3060 N   0  0  0  0  0  0  0  0  0  0  0  0
   -3.0710   24.5690  -29.6890 C   0  0  0  0  0  0  0  0  0  0  0  0
   -3.8690   25.1710  -30.5300 N   0  0  0  0  0  0  0  0  0  0  0  0
   -5.2930   25.4930  -30.4630 C   0  0  0  0  0  0  0  0  0  0  0  0
   -5.5079   26.3021  -31.1766 H   0  0  0  0  0  0  0  0  0  0  0  0
   -5.5233   25.7993  -29.4319 H   0  0  0  0  0  0  0  0  0  0  0  0
   -6.1600   24.3030  -30.8000 C   0  0  0  0  0  0  0  0  0  0  0  0
   -6.8400   23.6290  -29.7730 C   0  0  0  0  0  0  0  0  0  0  0  0
   -6.7620   23.9907  -28.7371 H   0  0  0  0  0  0  0  0  0  0  0  0
   -7.6150   22.5020  -30.0580 C   0  0  0  0  0  0  0  0  0  0  0  0
   -8.1574   21.9938  -29.2471 H   0  0  0  0  0  0  0  0  0  0  0  0
   -7.7070   22.0140  -31.3670 C   0  0  0  0  0  0  0  0  0  0  0  0
   -8.5020   20.8810  -31.6010 O   0  0  0  0  0  0  0  0  0  0  0  0
   -8.0780   19.7430  -32.3440 C   0  0  0  0  0  0  0  0  0  0  0  0
   -7.7798   18.9427  -31.6507 H   0  0  0  0  0  0  0  0  0  0  0  0
   -8.9049   19.3899  -32.9777 H   0  0  0  0  0  0  0  0  0  0  0  0
   -7.2217   20.0171  -32.9777 H   0  0  0  0  0  0  0  0  0  0  0  0
   -7.0010   22.6680  -32.3940 C   0  0  0  0  0  0  0  0  0  0  0  0
   -7.0596   22.2902  -33.4254 H   0  0  0  0  0  0  0  0  0  0  0  0
   -6.2260   23.7950  -32.1090 C   0  0  0  0  0  0  0  0  0  0  0  0
   -5.6632   24.2885  -32.9151 H   0  0  0  0  0  0  0  0  0  0  0  0
   -2.0710   25.2680  -29.0950 N   0  0  0  0  0  0  0  0  0  0  0  0
   -1.4740   24.3570  -28.3140 C   0  0  0  0  0  0  0  0  0  0  0  0
   -0.3640   24.5490  -27.4950 C   0  0  0  0  0  0  0  0  0  0  0  0
    0.1144   25.5357  -27.4087 H   0  0  0  0  0  0  0  0  0  0  0  0
    0.1250   23.4400  -26.7820 C   0  0  0  0  0  0  0  0  0  0  0  0
    0.9970   23.5552  -26.1214 H   0  0  0  0  0  0  0  0  0  0  0  0
   -0.4980   22.1790  -26.9100 C   0  0  0  0  0  0  0  0  0  0  0  0
   -0.1060   21.3165  -26.3511 H   0  0  0  0  0  0  0  0  0  0  0  0
   -1.6170   22.0190  -27.7480 C   0  0  0  0  0  0  0  0  0  0  0  0
   -2.1065   21.0404  -27.8603 H   0  0  0  0  0  0  0  0  0  0  0  0
   -2.0880   23.1460  -28.4350 C   0  0  0  0  0  0  0  0  0  0  0  0
   -2.2140   21.8590  -31.5440 C   0  0  0  0  0  0  0  0  0  0  0  0
   -1.5435   22.4830  -30.9349 H   0  0  0  0  0  0  0  0  0  0  0  0
   -1.7770   21.3710  -32.7800 C   0  0  0  0  0  0  0  0  0  0  0  0
   -0.7600   21.5988  -33.1319 H   0  0  0  0  0  0  0  0  0  0  0  0
  1  2  1  0
  2  3  2  0
  3  4  1  0
  3  5  1  0
  5  6  1  0
  5  7  2  0
  7  8  1  0
  8  9  1  0
  8 10  1  0
  8 11  1  0
 11 12  1  0
 12 13  2  0
 13 14  1  0
 14 15  1  0
 14 16  1  0
 14 17  1  0
 17 18  2  0
 18 19  1  0
 18 20  1  0
 20 21  1  0
 20 22  2  0
 22 23  1  0
 23 24  1  0
 24 25  1  0
 24 26  1  0
 24 27  1  0
 22 28  1  0
 28 29  1  0
 28 30  2  0
 30 31  1  0
 12 32  1  0
 32 33  1  0
 33 34  2  0
 34 35  1  0
 34 36  1  0
 36 37  1  0
 36 38  2  0
 38 39  1  0
 38 40  1  0
 40 41  1  0
 40 42  2  0
  7 43  1  0
 43 44  1  0
 43 45  2  0
 45 46  1  0
 45  2  1  0
 42 11  1  0
 30 17  1  0
 42 33  1  0
M  CHG  1  32  -1
M  END
>  <UniqueID>  (38) 
37

>  <SMILES>  (38) 
COc1ccc(C/N=c2/[n-]c3ccccc3n2Cc2ccccc2)cc1

>  <Energy>  (38) 
95.90379505079859

>  <Genealogy>  (38) 
COc1ccc(CN=c2[n-]c3ccccc3n2Cc2ccccc2)cc1 (protonated)
COc1ccc(C/N=c2/[n-]c3ccccc3n2Cc2ccccc2)cc1 (cis-trans isomerization)
COc1ccc(C/N=c2/[n-]c3ccccc3n2Cc2ccccc2)cc1 (3D coordinates assigned)
COc1ccc(C/N=c2/[n-]c3ccccc3n2Cc2ccccc2)cc1 (optimized conformer: 95.90379505079859 kcal/mol)

>  <smiles>  (38) 
COc1ccc(CN=c2[nH]c3ccccc3n2Cc2ccccc2)cc1

>  <score_type>  (38) 
oracle

>  <origin>  (38) 
adg

>  <m_score__min__energy>  (38) 
-9.6600000000000001

>  <m_primary>  (38) 
energy

$$$$
38:0
     RDKit          3D

 35 36  0  0  0  0  0  0  0  0999 V2000
   -9.2750   22.9240  -31.9760 C   0  0  0  0  0  0  0  0  0  0  0  0
   -8.1540   22.1690  -31.4010 N   0  0  0  0  0  0  0  0  0  0  0  0
   -7.4740   22.6850  -30.2000 C   0  0  0  0  0  0  0  0  0  0  0  0
   -6.8100   24.0440  -30.4620 C   0  0  0  0  0  0  0  0  0  0  0  0
   -5.0260   23.9770  -30.3190 S   0  0  0  0  0  0  0  0  0  0  0  0
   -4.4390   25.2550  -30.8490 O   0  0  0  0  0  0  0  0  0  0  0  0
   -4.6580   23.8440  -28.8670 O   0  0  0  0  0  0  0  0  0  0  0  0
   -4.3720   22.6240  -31.2400 C   0  0  0  0  0  0  0  0  0  0  0  0
   -4.4270   22.6190  -32.6420 C   0  0  0  0  0  0  0  0  0  0  0  0
   -3.8920   21.5450  -33.3610 C   0  0  0  0  0  0  0  0  0  0  0  0
   -3.3040   20.4710  -32.6850 C   0  0  0  0  0  0  0  0  0  0  0  0
   -2.5720   19.0070  -33.6680 Br  0  0  0  0  0  0  0  0  0  0  0  0
   -3.2540   20.4700  -31.2870 C   0  0  0  0  0  0  0  0  0  0  0  0
   -3.7880   21.5420  -30.5670 C   0  0  0  0  0  0  0  0  0  0  0  0
   -7.7810   20.8790  -31.9420 C   0  0  0  0  0  0  0  0  0  0  0  0
   -8.2900   19.6790  -31.4080 C   0  0  0  0  0  0  0  0  0  0  0  0
   -7.9060   18.4570  -31.9630 C   0  0  0  0  0  0  0  0  0  0  0  0
   -7.0210   18.4300  -33.0410 C   0  0  0  0  0  0  0  0  0  0  0  0
   -6.4870   16.7660  -33.8120 Br  0  0  0  0  0  0  0  0  0  0  0  0
   -6.5320   19.6330  -33.5510 C   0  0  0  0  0  0  0  0  0  0  0  0
   -6.9190   20.8130  -32.9970 N   0  0  0  0  0  0  0  0  0  0  0  0
   -9.8916   23.3393  -31.1652 H   0  0  0  0  0  0  0  0  0  0  0  0
   -8.8848   23.7440  -32.5967 H   0  0  0  0  0  0  0  0  0  0  0  0
   -9.8882   22.2541  -32.5967 H   0  0  0  0  0  0  0  0  0  0  0  0
   -8.2132   22.7992  -29.3934 H   0  0  0  0  0  0  0  0  0  0  0  0
   -6.6884   21.9689  -29.9170 H   0  0  0  0  0  0  0  0  0  0  0  0
   -7.0699   24.3730  -31.4789 H   0  0  0  0  0  0  0  0  0  0  0  0
   -7.1793   24.7477  -29.7015 H   0  0  0  0  0  0  0  0  0  0  0  0
   -4.8915   23.4608  -33.1765 H   0  0  0  0  0  0  0  0  0  0  0  0
   -3.9338   21.5451  -34.4602 H   0  0  0  0  0  0  0  0  0  0  0  0
   -2.7940   19.6248  -30.7541 H   0  0  0  0  0  0  0  0  0  0  0  0
   -3.7499   21.5367  -29.4677 H   0  0  0  0  0  0  0  0  0  0  0  0
   -8.9870   19.7047  -30.5574 H   0  0  0  0  0  0  0  0  0  0  0  0
   -8.3007   17.5166  -31.5508 H   0  0  0  0  0  0  0  0  0  0  0  0
   -5.8337   19.6270  -34.4009 H   0  0  0  0  0  0  0  0  0  0  0  0
  1  2  1  0
  2  3  1  0
  3  4  1  0
  4  5  1  0
  5  6  2  0
  5  7  2  0
  5  8  1  0
  8  9  2  0
  9 10  1  0
 10 11  2  0
 11 12  1  0
 11 13  1  0
 13 14  2  0
  2 15  1  0
 15 16  2  0
 16 17  1  0
 17 18  2  0
 18 19  1  0
 18 20  1  0
 20 21  2  0
 14  8  1  0
 21 15  1  0
  1 22  1  0
  1 23  1  0
  1 24  1  0
  3 25  1  0
  3 26  1  0
  4 27  1  0
  4 28  1  0
  9 29  1  0
 10 30  1  0
 13 31  1  0
 14 32  1  0
 16 33  1  0
 17 34  1  0
 20 35  1  0
M  END
>  <UniqueID>  (39) 
38

>  <SMILES>  (39) 
CN(CCS(=O)(=O)c1ccc(Br)cc1)c1ccc(Br)cn1

>  <Energy>  (39) 
29.900362744580182

>  <Genealogy>  (39) 
CN(CCS(=O)(=O)c1ccc(Br)cc1)c1ccc(Br)cn1 (3D coordinates assigned)
CN(CCS(=O)(=O)c1ccc(Br)cc1)c1ccc(Br)cn1 (optimized conformer: 29.900362744580182 kcal/mol)

>  <smiles>  (39) 
CN(CCS(=O)(=O)c1ccc(Br)cc1)c1ccc(Br)cn1

>  <score_type>  (39) 
oracle

>  <origin>  (39) 
adg

>  <m_score__min__energy>  (39) 
-8.9499999999999993

>  <m_primary>  (39) 
energy

$$$$
39:0
     RDKit          3D

 52 54  0  0  0  0  0  0  0  0999 V2000
   -1.6680   20.6190  -27.1030 C   0  0  0  0  0  0  0  0  0  0  0  0
   -2.1080   21.8500  -27.8360 C   0  0  0  0  0  0  0  0  0  0  0  0
   -3.2840   21.8370  -28.6000 C   0  0  0  0  0  0  0  0  0  0  0  0
   -3.7030   23.0040  -29.2670 C   0  0  0  0  0  0  0  0  0  0  0  0
   -4.9760   23.0630  -30.0370 C   0  0  0  0  0  0  0  0  0  0  0  0
   -6.0480   22.7610  -29.4370 O   0  0  0  0  0  0  0  0  0  0  0  0
   -5.0200   23.5100  -31.4270 N   0  0  2  0  0  0  0  0  0  0  0  0
   -6.2540   24.2820  -31.6990 C   0  0  0  0  0  0  0  0  0  0  0  0
   -7.5370   23.4260  -31.8810 C   0  0  0  0  0  0  0  0  0  0  0  0
   -7.3040   21.9510  -32.1330 C   0  0  0  0  0  0  0  0  0  0  0  0
   -8.4080   21.0860  -32.1170 C   0  0  0  0  0  0  0  0  0  0  0  0
   -8.2420   19.7150  -32.3130 C   0  0  0  0  0  0  0  0  0  0  0  0
   -6.9760   19.1810  -32.5530 C   0  0  0  0  0  0  0  0  0  0  0  0
   -6.8700   17.7860  -32.7140 O   0  0  0  0  0  0  0  0  0  0  0  0
   -5.9450   17.1120  -33.5770 C   0  0  0  0  0  0  0  0  0  0  0  0
   -6.4880   15.7160  -33.8870 C   0  0  0  0  0  0  0  0  0  0  0  0
   -5.7510   17.9090  -34.8730 C   0  0  0  0  0  0  0  0  0  0  0  0
   -5.8640   20.0470  -32.6080 C   0  0  0  0  0  0  0  0  0  0  0  0
   -6.0150   21.4340  -32.3730 C   0  0  0  0  0  0  0  0  0  0  0  0
   -4.8430   22.4090  -32.4130 C   0  0  2  0  0  0  0  0  0  0  0  0
   -3.4560   21.7450  -32.2570 C   0  0  0  0  0  0  0  0  0  0  0  0
   -2.9170   24.1650  -29.1440 C   0  0  0  0  0  0  0  0  0  0  0  0
   -1.7550   24.1440  -28.3570 C   0  0  0  0  0  0  0  0  0  0  0  0
   -0.9370   25.3850  -28.1860 C   0  0  0  0  0  0  0  0  0  0  0  0
   -1.3830   22.9950  -27.7320 N   0  0  0  0  0  0  0  0  0  0  0  0
   -1.7311   20.7955  -26.0191 H   0  0  0  0  0  0  0  0  0  0  0  0
   -2.3207   19.7767  -27.3760 H   0  0  0  0  0  0  0  0  0  0  0  0
   -0.6293   20.3813  -27.3760 H   0  0  0  0  0  0  0  0  0  0  0  0
   -3.8790   20.9151  -28.6781 H   0  0  0  0  0  0  0  0  0  0  0  0
   -4.2430   24.1870  -31.5920 H   0  0  0  0  0  0  0  0  0  0  0  0
   -6.4191   24.9695  -30.8563 H   0  0  0  0  0  0  0  0  0  0  0  0
   -6.0896   24.7970  -32.6570 H   0  0  0  0  0  0  0  0  0  0  0  0
   -8.1418   23.5227  -30.9673 H   0  0  0  0  0  0  0  0  0  0  0  0
   -8.0336   23.8126  -32.7832 H   0  0  0  0  0  0  0  0  0  0  0  0
   -9.4158   21.4933  -31.9480 H   0  0  0  0  0  0  0  0  0  0  0  0
   -9.1170   19.0493  -32.2780 H   0  0  0  0  0  0  0  0  0  0  0  0
   -4.9681   17.0257  -33.0788 H   0  0  0  0  0  0  0  0  0  0  0  0
   -6.6944   15.1855  -32.9457 H   0  0  0  0  0  0  0  0  0  0  0  0
   -7.4171   15.8049  -34.4691 H   0  0  0  0  0  0  0  0  0  0  0  0
   -5.7430   15.1537  -34.4691 H   0  0  0  0  0  0  0  0  0  0  0  0
   -5.4974   18.9510  -34.6282 H   0  0  0  0  0  0  0  0  0  0  0  0
   -4.9356   17.4614  -35.4601 H   0  0  0  0  0  0  0  0  0  0  0  0
   -6.6809   17.8862  -35.4601 H   0  0  0  0  0  0  0  0  0  0  0  0
   -4.8681   19.6394  -32.8362 H   0  0  0  0  0  0  0  0  0  0  0  0
   -4.8558   22.8324  -33.4282 H   0  0  0  0  0  0  0  0  0  0  0  0
   -3.2214   21.6327  -31.1882 H   0  0  0  0  0  0  0  0  0  0  0  0
   -3.4676   20.7548  -32.7359 H   0  0  0  0  0  0  0  0  0  0  0  0
   -2.6919   22.3750  -32.7359 H   0  0  0  0  0  0  0  0  0  0  0  0
   -3.2131   25.0879  -29.6641 H   0  0  0  0  0  0  0  0  0  0  0  0
   -0.8018   25.5902  -27.1138 H   0  0  0  0  0  0  0  0  0  0  0  0
    0.0460   25.2443  -28.6592 H   0  0  0  0  0  0  0  0  0  0  0  0
   -1.4538   26.2329  -28.6592 H   0  0  0  0  0  0  0  0  0  0  0  0
  1  2  1  0
  2  3  2  0
  3  4  1  0
  4  5  1  0
  5  6  2  0
  5  7  1  0
  7  8  1  0
  8  9  1  0
  9 10  1  0
 10 11  2  0
 11 12  1  0
 12 13  2  0
 13 14  1  0
 14 15  1  0
 15 16  1  0
 15 17  1  0
 13 18  1  0
 18 19  2  0
 19 20  1  0
 20 21  1  0
  4 22  2  0
 22 23  1  0
 23 24  1  0
 23 25  2  0
 25  2  1  0
 20  7  1  0
 19 10  1  0
  1 26  1  0
  1 27  1  0
  1 28  1  0
  3 29  1  0
  7 30  1  1
  8 31  1  0
  8 32  1  0
  9 33  1  0
  9 34  1  0
 11 35  1  0
 12 36  1  0
 15 37  1  0
 16 38  1  0
 16 39  1  0
 16 40  1  0
 17 41  1  0
 17 42  1  0
 17 43  1  0
 18 44  1  0
 20 45  1  6
 21 46  1  0
 21 47  1  0
 21 48  1  0
 22 49  1  0
 24 50  1  0
 24 51  1  0
 24 52  1  0
M  CHG  1   7   1
M  END
>  <UniqueID>  (40) 
39

>  <SMILES>  (40) 
Cc1cc(C(=O)[N@@H+]2CCc3ccc(OC(C)C)cc3[C@@H]2C)cc(C)n1

>  <Energy>  (40) 
65.80534852304133

>  <Genealogy>  (40) 
Cc1cc(C(=O)[NH+]2CCc3ccc(OC(C)C)cc3C2C)cc(C)n1 (protonated)
Cc1cc(C(=O)[N@@H+]2CCc3ccc(OC(C)C)cc3[C@@H]2C)cc(C)n1 (chirality)
Cc1cc(C(=O)[N@@H+]2CCc3ccc(OC(C)C)cc3[C@@H]2C)cc(C)n1 (3D coordinates assigned)
Cc1cc(C(=O)[N@@H+]2CCc3ccc(OC(C)C)cc3[C@@H]2C)cc(C)n1 (nonaromatic ring conformer: 65.80534852304133 kcal/mol)

>  <smiles>  (40) 
Cc1cc(C(=O)N2CCc3ccc(OC(C)C)cc3C2C)cc(C)n1

>  <score_type>  (40) 
oracle

>  <origin>  (40) 
adg

>  <m_score__min__energy>  (40) 
-7.4699999999999998

>  <m_primary>  (40) 
energy

$$$$
40:0
     RDKit          3D

 30 31  0  0  0  0  0  0  0  0999 V2000
   -3.6470   23.3520  -28.6700 C   0  0  0  0  0  0  0  0  0  0  0  0
   -2.9680   23.8080  -29.9560 C   0  0  0  0  0  0  0  0  0  0  0  0
   -3.9370   24.1250  -30.9550 O   0  0  0  0  0  0  0  0  0  0  0  0
   -5.0650   23.3520  -31.2790 C   0  0  0  0  0  0  0  0  0  0  0  0
   -4.9830   22.1860  -32.0670 C   0  0  0  0  0  0  0  0  0  0  0  0
   -6.1320   21.4490  -32.3610 C   0  0  0  0  0  0  0  0  0  0  0  0
   -7.3800   21.8530  -31.8680 C   0  0  0  0  0  0  0  0  0  0  0  0
   -8.6150   21.0510  -32.1900 C   0  0  0  0  0  0  0  0  0  0  0  0
   -8.2870   19.9540  -33.0990 N   0  0  0  0  0  0  0  0  0  0  0  0
   -7.4560   18.8840  -32.7210 N   0  0  0  0  0  0  0  0  0  0  0  0
   -6.4730   18.3390  -33.4520 C   0  0  0  0  0  0  0  0  0  0  0  0
   -5.8930   17.3250  -32.7810 N   0  0  0  0  0  0  0  0  0  0  0  0
   -6.5150   17.2200  -31.6120 N   0  0  0  0  0  0  0  0  0  0  0  0
   -7.4680   18.1720  -31.5810 C   0  0  0  0  0  0  0  0  0  0  0  0
   -7.4660   23.0150  -31.0880 C   0  0  0  0  0  0  0  0  0  0  0  0
   -6.3180   23.7560  -30.7910 C   0  0  0  0  0  0  0  0  0  0  0  0
   -6.4800   25.3310  -29.7160 Br  0  0  0  0  0  0  0  0  0  0  0  0
   -3.0839   23.7302  -27.8040 H   0  0  0  0  0  0  0  0  0  0  0  0
   -4.6743   23.7440  -28.6389 H   0  0  0  0  0  0  0  0  0  0  0  0
   -3.6729   22.2527  -28.6389 H   0  0  0  0  0  0  0  0  0  0  0  0
   -2.3606   24.7008  -29.7463 H   0  0  0  0  0  0  0  0  0  0  0  0
   -2.3318   22.9914  -30.3279 H   0  0  0  0  0  0  0  0  0  0  0  0
   -4.0076   21.8546  -32.4528 H   0  0  0  0  0  0  0  0  0  0  0  0
   -6.0570   20.5453  -32.9837 H   0  0  0  0  0  0  0  0  0  0  0  0
   -9.0322   20.6384  -31.2595 H   0  0  0  0  0  0  0  0  0  0  0  0
   -9.3514   21.7086  -32.6751 H   0  0  0  0  0  0  0  0  0  0  0  0
   -8.6700   19.9820  -34.0710 H   0  0  0  0  0  0  0  0  0  0  0  0
   -6.1810   18.6730  -34.4586 H   0  0  0  0  0  0  0  0  0  0  0  0
   -8.1582   18.3424  -30.7416 H   0  0  0  0  0  0  0  0  0  0  0  0
   -8.4434   23.3460  -30.7071 H   0  0  0  0  0  0  0  0  0  0  0  0
  1  2  1  0
  2  3  1  0
  3  4  1  0
  4  5  2  0
  5  6  1  0
  6  7  2  0
  7  8  1  0
  8  9  1  0
  9 10  1  0
 10 11  1  0
 11 12  2  0
 12 13  1  0
 13 14  2  0
  7 15  1  0
 15 16  2  0
 16 17  1  0
 16  4  1  0
 14 10  1  0
  1 18  1  0
  1 19  1  0
  1 20  1  0
  2 21  1  0
  2 22  1  0
  5 23  1  0
  6 24  1  0
  8 25  1  0
  8 26  1  0
  9 27  1  0
 11 28  1  0
 14 29  1  0
 15 30  1  0
M  END
>  <UniqueID>  (41) 
40

>  <SMILES>  (41) 
CCOc1ccc(CNn2cnnc2)cc1Br

>  <Energy>  (41) 
61.55674256876339

>  <Genealogy>  (41) 
CCOc1ccc(CNn2cnnc2)cc1Br (3D coordinates assigned)
CCOc1ccc(CNn2cnnc2)cc1Br (optimized conformer: 61.55674256876339 kcal/mol)

>  <smiles>  (41) 
CCOc1ccc(CNn2cnnc2)cc1Br

>  <score_type>  (41) 
oracle

>  <origin>  (41) 
adg

>  <m_score__min__energy>  (41) 
-7.0099999999999998

>  <m_primary>  (41) 
energy

$$$$
41:0
     RDKit          3D

 44 47  0  0  0  0  0  0  0  0999 V2000
   -7.0840   19.9020  -33.1080 C   0  0  0  0  0  0  0  0  0  0  0  0
   -5.6850   19.9170  -33.7320 C   0  0  0  0  0  0  0  0  0  0  0  0
   -4.8900   21.0790  -33.3060 N   0  0  0  0  0  0  0  0  0  0  0  0
   -5.3160   21.5980  -32.0000 C   0  0  0  0  0  0  0  0  0  0  0  0
   -4.4620   20.9920  -30.8800 C   0  0  0  0  0  0  0  0  0  0  0  0
   -3.6730   22.0250  -30.1930 N   0  0  0  0  0  0  0  0  0  0  0  0
   -3.6280   23.3470  -30.7660 C   0  0  0  0  0  0  0  0  0  0  0  0
   -2.9840   24.3080  -30.1760 N   0  0  0  0  0  0  0  0  0  0  0  0
   -2.2900   24.1120  -28.9370 C   0  0  0  0  0  0  0  0  0  0  0  0
   -1.6100   25.1790  -28.3400 C   0  0  0  0  0  0  0  0  0  0  0  0
   -1.6140   26.4230  -28.9650 O   0  0  0  0  0  0  0  0  0  0  0  0
   -0.9290   24.9930  -27.1200 C   0  0  0  0  0  0  0  0  0  0  0  0
   -0.2410   26.0590  -26.5100 C   0  0  0  0  0  0  0  0  0  0  0  0
    0.4310   25.8680  -25.3010 C   0  0  0  0  0  0  0  0  0  0  0  0
    0.4260   24.6170  -24.6860 C   0  0  0  0  0  0  0  0  0  0  0  0
   -0.2500   23.5460  -25.2740 C   0  0  0  0  0  0  0  0  0  0  0  0
   -0.9350   23.7170  -26.4940 C   0  0  0  0  0  0  0  0  0  0  0  0
   -1.6240   22.6470  -27.1030 C   0  0  0  0  0  0  0  0  0  0  0  0
   -1.6490   21.4140  -26.5280 N   0  0  0  0  0  0  0  0  0  0  0  0
   -2.3050   20.3630  -27.0910 C   0  0  0  0  0  0  0  0  0  0  0  0
   -2.3090   19.1090  -26.4710 O   0  0  0  0  0  0  0  0  0  0  0  0
   -3.4510   18.5870  -25.8030 C   0  0  0  0  0  0  0  0  0  0  0  0
   -2.9820   20.5310  -28.3010 C   0  0  0  0  0  0  0  0  0  0  0  0
   -2.9870   21.7880  -28.9360 C   0  0  0  0  0  0  0  0  0  0  0  0
   -2.2990   22.8510  -28.3240 C   0  0  0  0  0  0  0  0  0  0  0  0
   -6.9964   19.9029  -32.0115 H   0  0  0  0  0  0  0  0  0  0  0  0
   -7.6397   20.7942  -33.4322 H   0  0  0  0  0  0  0  0  0  0  0  0
   -7.6204   18.9981  -33.4322 H   0  0  0  0  0  0  0  0  0  0  0  0
   -5.1562   18.9996  -33.4342 H   0  0  0  0  0  0  0  0  0  0  0  0
   -5.8068   19.9777  -34.8235 H   0  0  0  0  0  0  0  0  0  0  0  0
   -4.9840   21.8370  -34.0230 H   0  0  0  0  0  0  0  0  0  0  0  0
   -5.2031   22.6921  -31.9904 H   0  0  0  0  0  0  0  0  0  0  0  0
   -6.3686   21.3253  -31.8336 H   0  0  0  0  0  0  0  0  0  0  0  0
   -5.1231   20.5015  -30.1504 H   0  0  0  0  0  0  0  0  0  0  0  0
   -3.7684   20.2643  -31.3266 H   0  0  0  0  0  0  0  0  0  0  0  0
   -4.1462   23.5444  -31.7160 H   0  0  0  0  0  0  0  0  0  0  0  0
   -0.2327   27.0492  -26.9890 H   0  0  0  0  0  0  0  0  0  0  0  0
    0.9659   26.7072  -24.8325 H   0  0  0  0  0  0  0  0  0  0  0  0
    0.9569   24.4729  -23.7334 H   0  0  0  0  0  0  0  0  0  0  0  0
   -0.2480   22.5622  -24.7818 H   0  0  0  0  0  0  0  0  0  0  0  0
   -3.3024   18.6549  -24.7152 H   0  0  0  0  0  0  0  0  0  0  0  0
   -4.3403   19.1680  -26.0886 H   0  0  0  0  0  0  0  0  0  0  0  0
   -3.5935   17.5343  -26.0886 H   0  0  0  0  0  0  0  0  0  0  0  0
   -3.5111   19.6817  -28.7579 H   0  0  0  0  0  0  0  0  0  0  0  0
  1  2  1  0
  2  3  1  0
  3  4  1  0
  4  5  1  0
  5  6  1  0
  6  7  1  0
  7  8  2  0
  8  9  1  0
  9 10  1  0
 10 11  1  0
 10 12  2  0
 12 13  1  0
 13 14  2  0
 14 15  1  0
 15 16  2  0
 16 17  1  0
 17 18  2  0
 18 19  1  0
 19 20  2  0
 20 21  1  0
 21 22  1  0
 20 23  1  0
 23 24  2  0
 24 25  1  0
 24  6  1  0
 25  9  2  0
 17 12  1  0
 25 18  1  0
  1 26  1  0
  1 27  1  0
  1 28  1  0
  2 29  1  0
  2 30  1  0
  3 31  1  0
  4 32  1  0
  4 33  1  0
  5 34  1  0
  5 35  1  0
  7 36  1  0
 13 37  1  0
 14 38  1  0
 15 39  1  0
 16 40  1  0
 22 41  1  0
 22 42  1  0
 22 43  1  0
 23 44  1  0
M  CHG  1  11  -1
M  END
>  <UniqueID>  (42) 
41

>  <SMILES>  (42) 
CCNCCN1C=Nc2c([O-])c3ccccc3c3nc(OC)cc1c23

>  <Energy>  (42) 
53.095010005936466

>  <Genealogy>  (42) 
CCNCCN1C=Nc2c([O-])c3ccccc3c3nc(OC)cc1c23 (protonated)
CCNCCN1C=Nc2c([O-])c3ccccc3c3nc(OC)cc1c23 (3D coordinates assigned)
CCNCCN1C=Nc2c([O-])c3ccccc3c3nc(OC)cc1c23 (nonaromatic ring conformer: 53.095010005936466 kcal/mol)

>  <smiles>  (42) 
CCNCCN1C=Nc2c(O)c3ccccc3c3nc(OC)cc1c23

>  <score_type>  (42) 
oracle

>  <origin>  (42) 
adg

>  <m_score__min__energy>  (42) 
-10.31

>  <m_primary>  (42) 
energy

$$$$
42:0
     RDKit          3D

 33 34  0  0  0  0  0  0  0  0999 V2000
   -8.4830   22.9700  -31.9820 C   0  0  0  0  0  0  0  0  0  0  0  0
   -7.4620   22.0630  -32.3840 O   0  0  0  0  0  0  0  0  0  0  0  0
   -7.5660   20.6640  -32.3210 C   0  0  0  0  0  0  0  0  0  0  0  0
   -8.7070   20.0290  -31.7880 C   0  0  0  0  0  0  0  0  0  0  0  0
   -8.7760   18.6350  -31.7250 C   0  0  0  0  0  0  0  0  0  0  0  0
   -7.7110   17.8600  -32.1860 C   0  0  0  0  0  0  0  0  0  0  0  0
   -6.5760   18.4750  -32.7170 C   0  0  0  0  0  0  0  0  0  0  0  0
   -6.4990   19.8760  -32.8010 C   0  0  0  0  0  0  0  0  0  0  0  0
   -5.2460   20.5180  -33.3450 C   0  0  0  0  0  0  0  0  0  0  0  0
   -5.0520   21.8480  -32.7590 N   0  0  0  0  0  0  0  0  0  0  0  0
   -3.4740   21.8980  -31.9370 S   0  0  0  0  0  0  0  0  0  0  0  0
   -4.1260   22.1480  -30.2460 C   0  0  0  0  0  0  0  0  0  0  0  0
   -4.9130   23.4180  -30.1610 C   0  0  0  0  0  0  0  0  0  0  0  0
   -6.2470   23.5270  -29.7840 C   0  0  0  0  0  0  0  0  0  0  0  0
   -6.7000   24.8510  -29.7500 C   0  0  0  0  0  0  0  0  0  0  0  0
   -5.7290   25.7830  -30.0940 C   0  0  0  0  0  0  0  0  0  0  0  0
   -4.3040   24.9600  -30.4390 S   0  0  0  0  0  0  0  0  0  0  0  0
   -8.5270   23.0091  -30.8836 H   0  0  0  0  0  0  0  0  0  0  0  0
   -8.2589   23.9723  -32.3759 H   0  0  0  0  0  0  0  0  0  0  0  0
   -9.4519   22.6294  -32.3759 H   0  0  0  0  0  0  0  0  0  0  0  0
   -9.5478   20.6351  -31.4196 H   0  0  0  0  0  0  0  0  0  0  0  0
   -9.6712   18.1476  -31.3114 H   0  0  0  0  0  0  0  0  0  0  0  0
   -7.7660   16.7628  -32.1309 H   0  0  0  0  0  0  0  0  0  0  0  0
   -5.7364   17.8593  -33.0720 H   0  0  0  0  0  0  0  0  0  0  0  0
   -4.3801   19.8853  -33.1004 H   0  0  0  0  0  0  0  0  0  0  0  0
   -5.3452   20.6218  -34.4356 H   0  0  0  0  0  0  0  0  0  0  0  0
   -5.8420   22.0780  -32.1140 H   0  0  0  0  0  0  0  0  0  0  0  0
   -5.0300   22.5610  -33.5240 H   0  0  0  0  0  0  0  0  0  0  0  0
   -4.7776   21.3019  -29.9822 H   0  0  0  0  0  0  0  0  0  0  0  0
   -3.2785   22.2116  -29.5477 H   0  0  0  0  0  0  0  0  0  0  0  0
   -6.8807   22.6622  -29.5379 H   0  0  0  0  0  0  0  0  0  0  0  0
   -7.7289   25.1277  -29.4764 H   0  0  0  0  0  0  0  0  0  0  0  0
   -5.8686   26.8734  -30.1339 H   0  0  0  0  0  0  0  0  0  0  0  0
  1  2  1  0
  2  3  1  0
  3  4  2  0
  4  5  1  0
  5  6  2  0
  6  7  1  0
  7  8  2  0
  8  9  1  0
  9 10  1  0
 10 11  1  0
 11 12  1  0
 12 13  1  0
 13 14  2  0
 14 15  1  0
 15 16  2  0
 16 17  1  0
  8  3  1  0
 17 13  1  0
  1 18  1  0
  1 19  1  0
  1 20  1  0
  4 21  1  0
  5 22  1  0
  6 23  1  0
  7 24  1  0
  9 25  1  0
  9 26  1  0
 10 27  1  0
 10 28  1  0
 12 29  1  0
 12 30  1  0
 14 31  1  0
 15 32  1  0
 16 33  1  0
M  CHG  1  10   1
M  END
>  <UniqueID>  (43) 
42

>  <SMILES>  (43) 
COc1ccccc1C[NH2+]SCc1cccs1

>  <Energy>  (43) 
53.44262814925201

>  <Genealogy>  (43) 
COc1ccccc1C[NH2+]SCc1cccs1 (protonated)
COc1ccccc1C[NH2+]SCc1cccs1 (3D coordinates assigned)
COc1ccccc1C[NH2+]SCc1cccs1 (optimized conformer: 53.44262814925201 kcal/mol)

>  <smiles>  (43) 
COc1ccccc1CNSCc1cccs1

>  <score_type>  (43) 
oracle

>  <origin>  (43) 
adg

>  <m_score__min__energy>  (43) 
-6.9800000000000004

>  <m_primary>  (43) 
energy

$$$$
43:0
     RDKit          3D

 42 43  0  0  0  0  0  0  0  0999 V2000
   -6.8450   17.2780  -33.2610 C   0  0  0  0  0  0  0  0  0  0  0  0
   -6.8630   18.0880  -32.0890 O   0  0  0  0  0  0  0  0  0  0  0  0
   -7.4620   19.3540  -32.0090 C   0  0  0  0  0  0  0  0  0  0  0  0
   -6.7080   20.5370  -31.8720 C   0  0  0  0  0  0  0  0  0  0  0  0
   -7.3500   21.7850  -31.8020 C   0  0  0  0  0  0  0  0  0  0  0  0
   -6.5440   23.0430  -31.6190 C   0  0  0  0  0  0  0  0  0  0  0  0
   -5.1770   22.9110  -32.2940 C   0  0  0  0  0  0  0  0  0  0  0  0
   -4.1050   22.9820  -31.2930 N   0  0  0  0  0  0  0  0  0  0  0  0
   -3.0940   21.9220  -31.2260 C   0  0  0  0  0  0  0  0  0  0  0  0
   -3.4360   20.8880  -30.1390 C   0  0  0  0  0  0  0  0  0  0  0  0
   -3.3130   21.4000  -28.7490 N   0  0  1  0  0  0  0  0  0  0  0  0
   -1.9650   21.9710  -28.5710 C   0  0  0  0  0  0  0  0  0  0  0  0
   -4.3360   22.4280  -28.4230 C   0  0  0  0  0  0  0  0  0  0  0  0
   -3.9880   23.8700  -28.8880 C   0  0  0  0  0  0  0  0  0  0  0  0
   -4.0300   24.0950  -30.3780 C   0  0  0  0  0  0  0  0  0  0  0  0
   -3.9850   25.2750  -30.8190 O   0  0  0  0  0  0  0  0  0  0  0  0
   -8.7510   21.8450  -31.8450 C   0  0  0  0  0  0  0  0  0  0  0  0
   -9.5000   20.6740  -31.9810 C   0  0  0  0  0  0  0  0  0  0  0  0
   -8.8590   19.4360  -32.0660 C   0  0  0  0  0  0  0  0  0  0  0  0
   -9.6000   18.3070  -32.1960 F   0  0  0  0  0  0  0  0  0  0  0  0
   -6.8214   16.2167  -32.9729 H   0  0  0  0  0  0  0  0  0  0  0  0
   -7.7478   17.4760  -33.8575 H   0  0  0  0  0  0  0  0  0  0  0  0
   -5.9519   17.5159  -33.8575 H   0  0  0  0  0  0  0  0  0  0  0  0
   -5.6106   20.4830  -31.8196 H   0  0  0  0  0  0  0  0  0  0  0  0
   -7.0875   23.8885  -32.0659 H   0  0  0  0  0  0  0  0  0  0  0  0
   -6.3927   23.2133  -30.5429 H   0  0  0  0  0  0  0  0  0  0  0  0
   -5.1221   21.9445  -32.8164 H   0  0  0  0  0  0  0  0  0  0  0  0
   -5.0514   23.7351  -33.0116 H   0  0  0  0  0  0  0  0  0  0  0  0
   -3.0433   21.4137  -32.2002 H   0  0  0  0  0  0  0  0  0  0  0  0
   -2.1267   22.3815  -30.9747 H   0  0  0  0  0  0  0  0  0  0  0  0
   -4.4732   20.5557  -30.2934 H   0  0  0  0  0  0  0  0  0  0  0  0
   -2.7064   20.0710  -30.2400 H   0  0  0  0  0  0  0  0  0  0  0  0
   -3.3760   20.6020  -28.0740 H   0  0  0  0  0  0  0  0  0  0  0  0
   -1.7451   22.0641  -27.4972 H   0  0  0  0  0  0  0  0  0  0  0  0
   -1.2219   21.3104  -29.0415 H   0  0  0  0  0  0  0  0  0  0  0  0
   -1.9225   22.9644  -29.0415 H   0  0  0  0  0  0  0  0  0  0  0  0
   -5.2811   22.1333  -28.9025 H   0  0  0  0  0  0  0  0  0  0  0  0
   -4.3968   22.4647  -27.3253 H   0  0  0  0  0  0  0  0  0  0  0  0
   -4.7052   24.5602  -28.4199 H   0  0  0  0  0  0  0  0  0  0  0  0
   -2.9453   24.0440  -28.5837 H   0  0  0  0  0  0  0  0  0  0  0  0
   -9.2609   22.8169  -31.7714 H   0  0  0  0  0  0  0  0  0  0  0  0
  -10.5980   20.7269  -32.0213 H   0  0  0  0  0  0  0  0  0  0  0  0
  1  2  1  0
  2  3  1  0
  3  4  2  0
  4  5  1  0
  5  6  1  0
  6  7  1  0
  7  8  1  0
  8  9  1  0
  9 10  1  0
 10 11  1  0
 11 12  1  0
 11 13  1  0
 13 14  1  0
 14 15  1  0
 15 16  2  0
  5 17  2  0
 17 18  1  0
 18 19  2  0
 19 20  1  0
 19  3  1  0
 15  8  1  0
  1 21  1  0
  1 22  1  0
  1 23  1  0
  4 24  1  0
  6 25  1  0
  6 26  1  0
  7 27  1  0
  7 28  1  0
  9 29  1  0
  9 30  1  0
 10 31  1  0
 10 32  1  0
 11 33  1  1
 12 34  1  0
 12 35  1  0
 12 36  1  0
 13 37  1  0
 13 38  1  0
 14 39  1  0
 14 40  1  0
 17 41  1  0
 18 42  1  0
M  CHG  1  11   1
M  END
>  <UniqueID>  (44) 
43

>  <SMILES>  (44) 
COc1cc(CCN2CC[N@@H+](C)CCC2=O)ccc1F

>  <Energy>  (44) 
45.97751324077779

>  <Genealogy>  (44) 
COc1cc(CCN2CC[NH+](C)CCC2=O)ccc1F (protonated)
COc1cc(CCN2CC[N@@H+](C)CCC2=O)ccc1F (chirality)
COc1cc(CCN2CC[N@@H+](C)CCC2=O)ccc1F (3D coordinates assigned)
COc1cc(CCN2CC[N@@H+](C)CCC2=O)ccc1F (nonaromatic ring conformer: 45.97751324077779 kcal/mol)

>  <smiles>  (44) 
COc1cc(CCN2CCN(C)CCC2=O)ccc1F

>  <score_type>  (44) 
oracle

>  <origin>  (44) 
adg

>  <m_score__min__energy>  (44) 
-4.6299999999999999

>  <m_primary>  (44) 
energy

$$$$
