0:0
     RDKit          3D

 54 55  0  0  0  0  0  0  0  0999 V2000
   -8.2330   22.8340  -31.6090 C   0  0  0  0  0  0  0  0  0  0  0  0
   -9.1380   21.6080  -31.6290 C   0  0  0  0  0  0  0  0  0  0  0  0
   -8.7090   20.7040  -32.6280 O   0  0  0  0  0  0  0  0  0  0  0  0
   -9.4910   19.5280  -32.6050 C   0  0  0  0  0  0  0  0  0  0  0  0
   -8.8360   18.5070  -31.6860 C   0  0  0  0  0  0  0  0  0  0  0  0
   -7.9430   17.7120  -32.4400 O   0  0  0  0  0  0  0  0  0  0  0  0
   -6.6110   17.8570  -31.9740 C   0  0  1  0  0  0  0  0  0  0  0  0
   -5.6230   17.4170  -33.0620 C   0  0  0  0  0  0  0  0  0  0  0  0
   -5.7270   18.2870  -34.3260 C   0  0  0  0  0  0  0  0  0  0  0  0
   -6.3750   19.6620  -34.0640 C   0  0  0  0  0  0  0  0  0  0  0  0
   -6.0090   20.2320  -32.7460 N   0  0  2  0  0  0  0  0  0  0  0  0
   -4.5790   20.6410  -32.7240 C   0  0  0  0  0  0  0  0  0  0  0  0
   -4.3760   21.9930  -32.0690 C   0  0  0  0  0  0  0  0  0  0  0  0
   -5.1690   22.9320  -32.3570 O   0  0  0  0  0  0  0  0  0  0  0  0
   -3.2670   22.2470  -31.1770 N   0  0  0  0  0  0  0  0  0  0  0  0
   -3.2270   23.4920  -30.4010 C   0  0  0  0  0  0  0  0  0  0  0  0
   -2.5390   23.2680  -29.0420 C   0  0  0  0  0  0  0  0  0  0  0  0
   -1.3110   22.4270  -29.1040 N   0  0  0  0  0  0  0  0  0  0  0  0
   -0.1850   23.0710  -28.4040 C   0  0  0  0  0  0  0  0  0  0  0  0
   -0.9060   22.0500  -30.4730 C   0  0  0  0  0  0  0  0  0  0  0  0
   -2.0740   21.3880  -31.2050 C   0  0  0  0  0  0  0  0  0  0  0  0
   -6.3640   19.3380  -31.5980 C   0  0  0  0  0  0  0  0  0  0  0  0
   -8.0233   23.1180  -30.5672 H   0  0  0  0  0  0  0  0  0  0  0  0
   -7.2886   22.6010  -32.1227 H   0  0  0  0  0  0  0  0  0  0  0  0
   -8.7338   23.6679  -32.1227 H   0  0  0  0  0  0  0  0  0  0  0  0
   -9.0997   21.1114  -30.6482 H   0  0  0  0  0  0  0  0  0  0  0  0
  -10.1684   21.9245  -31.8482 H   0  0  0  0  0  0  0  0  0  0  0  0
  -10.4989   19.7641  -32.2330 H   0  0  0  0  0  0  0  0  0  0  0  0
   -9.5654   19.1147  -33.6217 H   0  0  0  0  0  0  0  0  0  0  0  0
   -8.2833   19.0284  -30.8906 H   0  0  0  0  0  0  0  0  0  0  0  0
   -9.6078   17.8683  -31.2318 H   0  0  0  0  0  0  0  0  0  0  0  0
   -6.4600   17.2236  -31.0874 H   0  0  0  0  0  0  0  0  0  0  0  0
   -4.6005   17.4917  -32.6634 H   0  0  0  0  0  0  0  0  0  0  0  0
   -5.8680   16.3820  -33.3428 H   0  0  0  0  0  0  0  0  0  0  0  0
   -4.7144   18.4477  -34.7244 H   0  0  0  0  0  0  0  0  0  0  0  0
   -6.3710   17.7521  -35.0396 H   0  0  0  0  0  0  0  0  0  0  0  0
   -6.0490   20.3588  -34.8502 H   0  0  0  0  0  0  0  0  0  0  0  0
   -7.4656   19.5186  -34.0695 H   0  0  0  0  0  0  0  0  0  0  0  0
   -6.5850   21.1030  -32.6550 H   0  0  0  0  0  0  0  0  0  0  0  0
   -4.0044   19.8876  -32.1652 H   0  0  0  0  0  0  0  0  0  0  0  0
   -4.2354   20.7176  -33.7661 H   0  0  0  0  0  0  0  0  0  0  0  0
   -2.6683   24.2519  -30.9671 H   0  0  0  0  0  0  0  0  0  0  0  0
   -4.2587   23.8291  -30.2223 H   0  0  0  0  0  0  0  0  0  0  0  0
   -2.2628   24.2500  -28.6304 H   0  0  0  0  0  0  0  0  0  0  0  0
   -3.2590   22.7254  -28.4118 H   0  0  0  0  0  0  0  0  0  0  0  0
   -0.3324   22.9867  -27.3172 H   0  0  0  0  0  0  0  0  0  0  0  0
    0.7548   22.5738  -28.6862 H   0  0  0  0  0  0  0  0  0  0  0  0
   -0.1370   24.1331  -28.6862 H   0  0  0  0  0  0  0  0  0  0  0  0
   -0.5972   22.9518  -31.0220 H   0  0  0  0  0  0  0  0  0  0  0  0
   -0.0681   21.3395  -30.4169 H   0  0  0  0  0  0  0  0  0  0  0  0
   -1.7863   21.2056  -32.2509 H   0  0  0  0  0  0  0  0  0  0  0  0
   -2.3123   20.4400  -30.7005 H   0  0  0  0  0  0  0  0  0  0  0  0
   -5.5392   19.3724  -30.8710 H   0  0  0  0  0  0  0  0  0  0  0  0
   -7.3159   19.7161  -31.1970 H   0  0  0  0  0  0  0  0  0  0  0  0
  1  2  1  0
  2  3  1  0
  3  4  1  0
  4  5  1  0
  5  6  1  0
  6  7  1  0
  7  8  1  0
  8  9  1  0
  9 10  1  0
 10 11  1  0
 11 12  1  0
 12 13  1  0
 13 14  2  0
 13 15  1  0
 15 16  1  0
 16 17  1  0
 17 18  1  0
 18 19  1  0
 18 20  1  0
 20 21  1  0
 11 22  1  0
 22  7  1  0
 21 15  1  0
  1 23  1  0
  1 24  1  0
  1 25  1  0
  2 26  1  0
  2 27  1  0
  4 28  1  0
  4 29  1  0
  5 30  1  0
  5 31  1  0
  7 32  1  1
  8 33  1  0
  8 34  1  0
  9 35  1  0
  9 36  1  0
 10 37  1  0
 10 38  1  0
 11 39  1  1
 12 40  1  0
 12 41  1  0
 16 42  1  0
 16 43  1  0
 17 44  1  0
 17 45  1  0
 19 46  1  0
 19 47  1  0
 19 48  1  0
 20 49  1  0
 20 50  1  0
 21 51  1  0
 21 52  1  0
 22 53  1  0
 22 54  1  0
M  CHG  1  11   1
M  END
>  <UniqueID>  (1) 
1

>  <SMILES>  (1) 
CCOCCO[C@H]1CCC[N@H+](CC(=O)N2CCN(C)CC2)C1

>  <Energy>  (1) 
67.60960632471142

>  <Genealogy>  (1) 
CCOCCOC1CCC[NH+](CC(=O)N2CCN(C)CC2)C1 (protonated)
CCOCCO[C@H]1CCC[N@H+](CC(=O)N2CCN(C)CC2)C1 (chirality)
CCOCCO[C@H]1CCC[N@H+](CC(=O)N2CCN(C)CC2)C1 (3D coordinates assigned)
CCOCCO[C@H]1CCC[N@H+](CC(=O)N2CCN(C)CC2)C1 (nonaromatic ring conformer: 67.60960632471142 kcal/mol)

>  <smiles>  (1) 
CCOCCOC1CCCN(CC(=O)N2CCN(C)CC2)C1

>  <score_type>  (1) 
oracle

>  <origin>  (1) 
adg

>  <m_score__min__energy>  (1) 
-6.7300000000000004

>  <m_primary>  (1) 
energy

$$$$
1:0
     RDKit          3D

 50 51  0  0  0  0  0  0  0  0999 V2000
   -2.9510   24.5260  -27.3770 C   0  0  0  0  0  0  0  0  0  0  0  0
   -2.2060   24.9270  -28.6460 C   0  0  0  0  0  0  0  0  0  0  0  0
   -3.1210   25.2190  -29.7010 O   0  0  0  0  0  0  0  0  0  0  0  0
   -4.2260   24.4310  -30.0650 C   0  0  0  0  0  0  0  0  0  0  0  0
   -4.1850   23.0230  -30.0930 C   0  0  0  0  0  0  0  0  0  0  0  0
   -5.3180   22.2920  -30.4590 C   0  0  0  0  0  0  0  0  0  0  0  0
   -6.5030   22.9530  -30.8080 C   0  0  0  0  0  0  0  0  0  0  0  0
   -7.9540   22.0400  -31.2170 S   0  0  0  0  0  0  0  0  0  0  0  0
   -8.8390   21.9910  -30.0010 O   0  0  0  0  0  0  0  0  0  0  0  0
   -8.7010   22.7320  -32.3230 O   0  0  0  0  0  0  0  0  0  0  0  0
   -7.5260   20.4160  -31.7090 N   0  0  1  0  0  0  0  0  0  0  0  0
   -8.5920   19.4810  -31.2810 C   0  0  0  0  0  0  0  0  0  0  0  0
   -9.4480   19.0040  -32.4600 C   0  0  0  0  0  0  0  0  0  0  0  0
   -7.3020   20.3620  -33.1820 C   0  0  0  0  0  0  0  0  0  0  0  0
   -6.2930   19.2710  -33.5930 C   0  0  0  0  0  0  0  0  0  0  0  0
   -4.8680   19.7490  -33.4750 C   0  0  0  0  0  0  0  0  0  0  0  0
   -3.7990   18.8540  -33.6470 C   0  0  0  0  0  0  0  0  0  0  0  0
   -2.4790   19.3090  -33.5740 C   0  0  0  0  0  0  0  0  0  0  0  0
   -2.2100   20.6600  -33.3150 C   0  0  0  0  0  0  0  0  0  0  0  0
   -0.7940   21.1550  -33.2810 C   0  0  0  0  0  0  0  0  0  0  0  0
   -3.2760   21.5580  -33.1570 C   0  0  0  0  0  0  0  0  0  0  0  0
   -4.5960   21.1040  -33.2290 C   0  0  0  0  0  0  0  0  0  0  0  0
   -6.5470   24.3520  -30.7840 C   0  0  0  0  0  0  0  0  0  0  0  0
   -5.4140   25.0840  -30.4170 C   0  0  0  0  0  0  0  0  0  0  0  0
   -2.3703   24.8386  -26.4966 H   0  0  0  0  0  0  0  0  0  0  0  0
   -3.9357   25.0160  -27.3596 H   0  0  0  0  0  0  0  0  0  0  0  0
   -3.0843   23.4342  -27.3596 H   0  0  0  0  0  0  0  0  0  0  0  0
   -1.5971   25.8195  -28.4397 H   0  0  0  0  0  0  0  0  0  0  0  0
   -1.5650   24.0892  -28.9576 H   0  0  0  0  0  0  0  0  0  0  0  0
   -3.2568   22.4968  -29.8255 H   0  0  0  0  0  0  0  0  0  0  0  0
   -5.2795   21.1928  -30.4732 H   0  0  0  0  0  0  0  0  0  0  0  0
   -6.6540   20.1790  -31.1830 H   0  0  0  0  0  0  0  0  0  0  0  0
   -8.1260   18.6061  -30.8041 H   0  0  0  0  0  0  0  0  0  0  0  0
   -9.2494   20.0151  -30.5792 H   0  0  0  0  0  0  0  0  0  0  0  0
  -10.3494   18.5017  -32.0791 H   0  0  0  0  0  0  0  0  0  0  0  0
   -9.7416   19.8686  -33.0734 H   0  0  0  0  0  0  0  0  0  0  0  0
   -8.8672   18.2995  -33.0734 H   0  0  0  0  0  0  0  0  0  0  0  0
   -8.2629   20.1563  -33.6764 H   0  0  0  0  0  0  0  0  0  0  0  0
   -6.8845   21.3322  -33.4894 H   0  0  0  0  0  0  0  0  0  0  0  0
   -6.4297   18.3962  -32.9403 H   0  0  0  0  0  0  0  0  0  0  0  0
   -6.4798   19.0135  -34.6460 H   0  0  0  0  0  0  0  0  0  0  0  0
   -4.0014   17.7902  -33.8400 H   0  0  0  0  0  0  0  0  0  0  0  0
   -1.6478   18.6035  -33.7205 H   0  0  0  0  0  0  0  0  0  0  0  0
   -0.4702   21.2682  -32.2359 H   0  0  0  0  0  0  0  0  0  0  0  0
   -0.1405   20.4320  -33.7911 H   0  0  0  0  0  0  0  0  0  0  0  0
   -0.7333   22.1277  -33.7911 H   0  0  0  0  0  0  0  0  0  0  0  0
   -3.0723   22.6237  -32.9757 H   0  0  0  0  0  0  0  0  0  0  0  0
   -5.4263   21.8124  -33.0921 H   0  0  0  0  0  0  0  0  0  0  0  0
   -7.4753   24.8765  -31.0546 H   0  0  0  0  0  0  0  0  0  0  0  0
   -5.4559   26.1831  -30.4046 H   0  0  0  0  0  0  0  0  0  0  0  0
  1  2  1  0
  2  3  1  0
  3  4  1  0
  4  5  2  0
  5  6  1  0
  6  7  2  0
  7  8  1  0
  8  9  2  0
  8 10  2  0
  8 11  1  0
 11 12  1  0
 12 13  1  0
 11 14  1  0
 14 15  1  0
 15 16  1  0
 16 17  2  0
 17 18  1  0
 18 19  2  0
 19 20  1  0
 19 21  1  0
 21 22  2  0
  7 23  1  0
 23 24  2  0
 24  4  1  0
 22 16  1  0
  1 25  1  0
  1 26  1  0
  1 27  1  0
  2 28  1  0
  2 29  1  0
  5 30  1  0
  6 31  1  0
 11 32  1  1
 12 33  1  0
 12 34  1  0
 13 35  1  0
 13 36  1  0
 13 37  1  0
 14 38  1  0
 14 39  1  0
 15 40  1  0
 15 41  1  0
 17 42  1  0
 18 43  1  0
 20 44  1  0
 20 45  1  0
 20 46  1  0
 21 47  1  0
 22 48  1  0
 23 49  1  0
 24 50  1  0
M  CHG  1  11   1
M  END
>  <UniqueID>  (2) 
2

>  <SMILES>  (2) 
CCOc1ccc(S(=O)(=O)[N@@H+](CC)CCc2ccc(C)cc2)cc1

>  <Energy>  (2) 
43.78770665246471

>  <Genealogy>  (2) 
CCOc1ccc(S(=O)(=O)[NH+](CC)CCc2ccc(C)cc2)cc1 (protonated)
CCOc1ccc(S(=O)(=O)[N@@H+](CC)CCc2ccc(C)cc2)cc1 (chirality)
CCOc1ccc(S(=O)(=O)[N@@H+](CC)CCc2ccc(C)cc2)cc1 (3D coordinates assigned)
CCOc1ccc(S(=O)(=O)[N@@H+](CC)CCc2ccc(C)cc2)cc1 (optimized conformer: 43.78770665246471 kcal/mol)

>  <smiles>  (2) 
CCOc1ccc(S(=O)(=O)N(CC)CCc2ccc(C)cc2)cc1

>  <score_type>  (2) 
oracle

>  <origin>  (2) 
adg

>  <m_score__min__energy>  (2) 
-8.2400000000000002

>  <m_primary>  (2) 
energy

$$$$
2:0
     RDKit          3D

 62 64  0  0  0  0  0  0  0  0999 V2000
   -6.8160   14.1630  -34.4630 C   0  0  0  0  0  0  0  0  0  0  0  0
   -5.2830   14.0850  -34.3870 C   0  0  0  0  0  0  0  0  0  0  0  0
   -4.6430   15.3500  -33.9590 N   0  0  0  0  0  0  0  0  0  0  0  0
   -3.2000   15.4090  -34.2940 C   0  0  0  0  0  0  0  0  0  0  0  0
   -3.0290   15.9690  -35.7000 C   0  0  0  0  0  0  0  0  0  0  0  0
   -4.9370   15.6950  -32.5510 C   0  0  0  0  0  0  0  0  0  0  0  0
   -6.0870   16.7130  -32.4730 C   0  0  0  0  0  0  0  0  0  0  0  0
   -6.1060   17.6330  -33.6260 N   0  0  0  0  0  0  0  0  0  0  0  0
   -5.8680   19.0190  -33.2340 C   0  0  0  0  0  0  0  0  0  0  0  0
   -4.5800   19.6200  -33.3870 C   0  0  0  0  0  0  0  0  0  0  0  0
   -3.4710   18.9230  -33.9370 C   0  0  0  0  0  0  0  0  0  0  0  0
   -2.2180   19.5250  -34.0450 C   0  0  0  0  0  0  0  0  0  0  0  0
   -2.0300   20.8290  -33.6130 C   0  0  0  0  0  0  0  0  0  0  0  0
   -3.0920   21.5400  -33.0670 C   0  0  0  0  0  0  0  0  0  0  0  0
   -4.3710   20.9530  -32.9430 C   0  0  0  0  0  0  0  0  0  0  0  0
   -5.4270   21.6930  -32.3750 C   0  0  0  0  0  0  0  0  0  0  0  0
   -5.1140   22.8790  -31.6250 N   0  0  0  0  0  0  0  0  0  0  0  0
   -4.5380   22.7950  -30.2810 C   0  0  0  0  0  0  0  0  0  0  0  0
   -3.8430   24.1020  -29.8870 C   0  0  0  0  0  0  0  0  0  0  0  0
   -4.1910   25.1280  -30.7990 O   0  0  0  0  0  0  0  0  0  0  0  0
   -5.4450   25.6800  -30.4640 C   0  0  0  0  0  0  0  0  0  0  0  0
   -6.7480   21.1780  -32.3780 C   0  0  0  0  0  0  0  0  0  0  0  0
   -6.9390   19.8030  -32.6980 C   0  0  0  0  0  0  0  0  0  0  0  0
   -8.2140   19.2450  -32.4580 C   0  0  0  0  0  0  0  0  0  0  0  0
   -9.2490   20.0220  -31.9700 C   0  0  0  0  0  0  0  0  0  0  0  0
   -9.0570   21.3800  -31.7880 C   0  0  0  0  0  0  0  0  0  0  0  0
   -7.8480   21.9600  -32.0510 N   0  0  0  0  0  0  0  0  0  0  0  0
   -7.8220   23.4330  -32.0770 C   0  0  0  0  0  0  0  0  0  0  0  0
   -7.2330   14.1842  -33.4453 H   0  0  0  0  0  0  0  0  0  0  0  0
   -7.1105   15.0773  -34.9990 H   0  0  0  0  0  0  0  0  0  0  0  0
   -7.2018   13.2833  -34.9990 H   0  0  0  0  0  0  0  0  0  0  0  0
   -5.0105   13.2976  -33.6688 H   0  0  0  0  0  0  0  0  0  0  0  0
   -4.9213   13.8696  -35.4033 H   0  0  0  0  0  0  0  0  0  0  0  0
   -2.6826   16.0603  -33.5742 H   0  0  0  0  0  0  0  0  0  0  0  0
   -2.7704   14.3974  -34.2469 H   0  0  0  0  0  0  0  0  0  0  0  0
   -2.7082   17.0195  -35.6398 H   0  0  0  0  0  0  0  0  0  0  0  0
   -2.2686   15.3837  -36.2378 H   0  0  0  0  0  0  0  0  0  0  0  0
   -3.9866   15.9083  -36.2378 H   0  0  0  0  0  0  0  0  0  0  0  0
   -5.2240   14.7828  -32.0074 H   0  0  0  0  0  0  0  0  0  0  0  0
   -4.0380   16.1396  -32.0992 H   0  0  0  0  0  0  0  0  0  0  0  0
   -7.0409   16.1660  -32.4423 H   0  0  0  0  0  0  0  0  0  0  0  0
   -5.9379   17.3170  -31.5658 H   0  0  0  0  0  0  0  0  0  0  0  0
   -7.0310   17.5600  -34.1070 H   0  0  0  0  0  0  0  0  0  0  0  0
   -5.4590   17.2970  -34.3680 H   0  0  0  0  0  0  0  0  0  0  0  0
   -3.6035   17.8878  -34.2846 H   0  0  0  0  0  0  0  0  0  0  0  0
   -1.3754   18.9633  -34.4746 H   0  0  0  0  0  0  0  0  0  0  0  0
   -1.0403   21.3008  -33.7024 H   0  0  0  0  0  0  0  0  0  0  0  0
   -2.9345   22.5741  -32.7267 H   0  0  0  0  0  0  0  0  0  0  0  0
   -5.0480   23.7900  -32.1320 H   0  0  0  0  0  0  0  0  0  0  0  0
   -5.3418   22.5858  -29.5598 H   0  0  0  0  0  0  0  0  0  0  0  0
   -3.7887   21.9897  -30.2757 H   0  0  0  0  0  0  0  0  0  0  0  0
   -4.1591   24.3920  -28.8741 H   0  0  0  0  0  0  0  0  0  0  0  0
   -2.7533   23.9530  -29.9087 H   0  0  0  0  0  0  0  0  0  0  0  0
   -5.5455   25.7243  -29.3695 H   0  0  0  0  0  0  0  0  0  0  0  0
   -5.5219   26.6951  -30.8806 H   0  0  0  0  0  0  0  0  0  0  0  0
   -6.2456   25.0511  -30.8806 H   0  0  0  0  0  0  0  0  0  0  0  0
   -8.3863   18.1779  -32.6620 H   0  0  0  0  0  0  0  0  0  0  0  0
  -10.2189   19.5630  -31.7281 H   0  0  0  0  0  0  0  0  0  0  0  0
   -9.8894   22.0016  -31.4265 H   0  0  0  0  0  0  0  0  0  0  0  0
   -7.8152   23.8178  -31.0465 H   0  0  0  0  0  0  0  0  0  0  0  0
   -6.9177   23.7746  -32.6019 H   0  0  0  0  0  0  0  0  0  0  0  0
   -8.7137   23.8063  -32.6019 H   0  0  0  0  0  0  0  0  0  0  0  0
  1  2  1  0
  2  3  1  0
  3  4  1  0
  4  5  1  0
  3  6  1  0
  6  7  1  0
  7  8  1  0
  8  9  1  0
  9 10  2  0
 10 11  1  0
 11 12  2  0
 12 13  1  0
 13 14  2  0
 14 15  1  0
 15 16  2  0
 16 17  1  0
 17 18  1  0
 18 19  1  0
 19 20  1  0
 20 21  1  0
 16 22  1  0
 22 23  2  0
 23 24  1  0
 24 25  2  0
 25 26  1  0
 26 27  2  0
 27 28  1  0
 23  9  1  0
 15 10  1  0
 27 22  1  0
  1 29  1  0
  1 30  1  0
  1 31  1  0
  2 32  1  0
  2 33  1  0
  4 34  1  0
  4 35  1  0
  5 36  1  0
  5 37  1  0
  5 38  1  0
  6 39  1  0
  6 40  1  0
  7 41  1  0
  7 42  1  0
  8 43  1  0
  8 44  1  0
 11 45  1  0
 12 46  1  0
 13 47  1  0
 14 48  1  0
 17 49  1  0
 18 50  1  0
 18 51  1  0
 19 52  1  0
 19 53  1  0
 21 54  1  0
 21 55  1  0
 21 56  1  0
 24 57  1  0
 25 58  1  0
 26 59  1  0
 28 60  1  0
 28 61  1  0
 28 62  1  0
M  CHG  2   8   1  27   1
M  END
>  <UniqueID>  (3) 
3

>  <SMILES>  (3) 
CCN(CC)CC[NH2+]c1c2ccccc2c(NCCOC)c2c1ccc[n+]2C

>  <Energy>  (3) 
99.64868787437041

>  <Genealogy>  (3) 
CCN(CC)CC[NH2+]c1c2ccccc2c(NCCOC)c2c1ccc[n+]2C (protonated)
CCN(CC)CC[NH2+]c1c2ccccc2c(NCCOC)c2c1ccc[n+]2C (3D coordinates assigned)
CCN(CC)CC[NH2+]c1c2ccccc2c(NCCOC)c2c1ccc[n+]2C (optimized conformer: 99.64868787437041 kcal/mol)

>  <smiles>  (3) 
CCN(CC)CCNc1c2ccccc2c(NCCOC)c2c1ccc[n+]2C

>  <score_type>  (3) 
oracle

>  <origin>  (3) 
adg

>  <m_score__min__energy>  (3) 
-7.5

>  <m_primary>  (3) 
energy

$$$$
3:0
     RDKit          3D

 36 38  0  0  0  0  0  0  0  0999 V2000
   -0.9080   20.5560  -30.1280 C   0  0  0  0  0  0  0  0  0  0  0  0
   -1.9390   21.5840  -29.7670 C   0  0  0  0  0  0  0  0  0  0  0  0
   -1.9230   22.8470  -30.3780 C   0  0  0  0  0  0  0  0  0  0  0  0
   -2.9030   23.7940  -30.0660 C   0  0  0  0  0  0  0  0  0  0  0  0
   -3.9220   23.4840  -29.1520 C   0  0  0  0  0  0  0  0  0  0  0  0
   -4.9560   24.5160  -28.7950 C   0  0  0  0  0  0  0  0  0  0  0  0
   -5.6530   25.2930  -30.2940 S   0  0  0  0  0  0  0  0  0  0  0  0
   -5.8350   23.7490  -31.1920 C   0  0  0  0  0  0  0  0  0  0  0  0
   -5.1270   23.4550  -32.2990 N   0  0  0  0  0  0  0  0  0  0  0  0
   -5.5440   22.2650  -32.6950 N   0  0  0  0  0  0  0  0  0  0  0  0
   -6.5030   21.8450  -31.8460 C   0  0  0  0  0  0  0  0  0  0  0  0
   -7.2150   20.5620  -32.0050 C   0  0  0  0  0  0  0  0  0  0  0  0
   -8.5890   20.3650  -32.1260 C   0  0  0  0  0  0  0  0  0  0  0  0
   -8.9430   19.0240  -32.3170 C   0  0  0  0  0  0  0  0  0  0  0  0
   -7.8590   18.1590  -32.3600 C   0  0  0  0  0  0  0  0  0  0  0  0
   -6.4590   19.0670  -32.1650 S   0  0  0  0  0  0  0  0  0  0  0  0
   -6.6940   22.7580  -30.8660 N   0  0  0  0  0  0  0  0  0  0  0  0
   -7.6120   22.7160  -29.7290 C   0  0  0  0  0  0  0  0  0  0  0  0
   -3.9460   22.2140  -28.5530 C   0  0  0  0  0  0  0  0  0  0  0  0
   -2.9640   21.2690  -28.8640 C   0  0  0  0  0  0  0  0  0  0  0  0
   -0.4792   20.1285  -29.2096 H   0  0  0  0  0  0  0  0  0  0  0  0
   -1.3785   19.7568  -30.7195 H   0  0  0  0  0  0  0  0  0  0  0  0
   -0.1102   21.0288  -30.7195 H   0  0  0  0  0  0  0  0  0  0  0  0
   -1.1358   23.0932  -31.1058 H   0  0  0  0  0  0  0  0  0  0  0  0
   -2.8753   24.7867  -30.5391 H   0  0  0  0  0  0  0  0  0  0  0  0
   -5.7669   24.0321  -28.2308 H   0  0  0  0  0  0  0  0  0  0  0  0
   -4.4754   25.2970  -28.1875 H   0  0  0  0  0  0  0  0  0  0  0  0
   -5.1900   21.7670  -33.5420 H   0  0  0  0  0  0  0  0  0  0  0  0
   -9.3233   21.1825  -32.0763 H   0  0  0  0  0  0  0  0  0  0  0  0
   -9.9847   18.6871  -32.4232 H   0  0  0  0  0  0  0  0  0  0  0  0
   -7.9078   17.0687  -32.4978 H   0  0  0  0  0  0  0  0  0  0  0  0
   -7.0365   22.7423  -28.7919 H   0  0  0  0  0  0  0  0  0  0  0  0
   -8.2862   23.5842  -29.7698 H   0  0  0  0  0  0  0  0  0  0  0  0
   -8.2041   21.7898  -29.7698 H   0  0  0  0  0  0  0  0  0  0  0  0
   -4.7411   21.9618  -27.8359 H   0  0  0  0  0  0  0  0  0  0  0  0
   -2.9957   20.2732  -28.3978 H   0  0  0  0  0  0  0  0  0  0  0  0
  1  2  1  0
  2  3  2  0
  3  4  1  0
  4  5  2  0
  5  6  1  0
  6  7  1  0
  7  8  1  0
  8  9  2  0
  9 10  1  0
 10 11  2  0
 11 12  1  0
 12 13  2  0
 13 14  1  0
 14 15  2  0
 15 16  1  0
 11 17  1  0
 17 18  1  0
  5 19  1  0
 19 20  2  0
 20  2  1  0
 17  8  1  0
 16 12  1  0
  1 21  1  0
  1 22  1  0
  1 23  1  0
  3 24  1  0
  4 25  1  0
  6 26  1  0
  6 27  1  0
 10 28  1  0
 13 29  1  0
 14 30  1  0
 15 31  1  0
 18 32  1  0
 18 33  1  0
 18 34  1  0
 19 35  1  0
 20 36  1  0
M  CHG  1  10   1
M  END
>  <UniqueID>  (4) 
4

>  <SMILES>  (4) 
Cc1ccc(CSc2n[nH+]c(-c3cccs3)n2C)cc1

>  <Energy>  (4) 
96.06431232181308

>  <Genealogy>  (4) 
Cc1ccc(CSc2n[nH+]c(-c3cccs3)n2C)cc1 (protonated)
Cc1ccc(CSc2n[nH+]c(-c3cccs3)n2C)cc1 (3D coordinates assigned)
Cc1ccc(CSc2n[nH+]c(-c3cccs3)n2C)cc1 (optimized conformer: 96.06431232181308 kcal/mol)

>  <smiles>  (4) 
Cc1ccc(CSc2nnc(-c3cccs3)n2C)cc1

>  <score_type>  (4) 
oracle

>  <origin>  (4) 
adg

>  <m_score__min__energy>  (4) 
-7.8499999999999996

>  <m_primary>  (4) 
energy

$$$$
4:0
     RDKit          3D

 51 53  0  0  0  0  0  0  0  0999 V2000
   -3.4460   21.1580  -31.9000 C   0  0  0  0  0  0  0  0  0  0  0  0
   -4.2140   21.7180  -33.0920 C   0  0  0  0  0  0  0  0  0  0  0  0
   -5.4930   21.0970  -33.2070 O   0  0  0  0  0  0  0  0  0  0  0  0
   -5.7230   19.7180  -33.3660 C   0  0  0  0  0  0  0  0  0  0  0  0
   -4.7660   18.8600  -33.9550 C   0  0  0  0  0  0  0  0  0  0  0  0
   -5.0520   17.5000  -34.0740 C   0  0  0  0  0  0  0  0  0  0  0  0
   -6.2400   16.9840  -33.6370 C   0  0  0  0  0  0  0  0  0  0  0  0
   -7.2110   17.7980  -33.0570 C   0  0  0  0  0  0  0  0  0  0  0  0
   -6.9570   19.1780  -32.9170 C   0  0  0  0  0  0  0  0  0  0  0  0
   -7.9710   20.0510  -32.2160 C   0  0  0  0  0  0  0  0  0  0  0  0
   -7.4030   21.3530  -31.8160 N   0  0  0  0  0  0  0  0  0  0  0  0
   -8.1400   21.9970  -30.7050 C   0  0  0  0  0  0  0  0  0  0  0  0
   -7.2370   22.8850  -29.8140 C   0  0  0  0  0  0  0  0  0  0  0  0
   -5.9040   23.1020  -30.4210 N   0  0  0  0  0  0  0  0  0  0  0  0
   -5.9220   24.2200  -31.3980 C   0  0  0  0  0  0  0  0  0  0  0  0
   -5.2430   25.4870  -30.8440 C   0  0  0  0  0  0  0  0  0  0  0  0
   -3.8860   25.2810  -30.4790 O   0  0  0  0  0  0  0  0  0  0  0  0
   -3.6220   23.9770  -29.9750 C   0  0  0  0  0  0  0  0  0  0  0  0
   -4.8570   23.2740  -29.3890 C   0  0  0  0  0  0  0  0  0  0  0  0
   -6.3240   15.5210  -33.8450 C   0  0  0  0  0  0  0  0  0  0  0  0
   -4.9820   15.1590  -34.5100 C   0  0  0  0  0  0  0  0  0  0  0  0
   -4.1650   16.4600  -34.6430 C   0  0  0  0  0  0  0  0  0  0  0  0
   -3.9165   21.5011  -30.9667 H   0  0  0  0  0  0  0  0  0  0  0  0
   -3.4629   20.0587  -31.9366 H   0  0  0  0  0  0  0  0  0  0  0  0
   -2.4045   21.5102  -31.9366 H   0  0  0  0  0  0  0  0  0  0  0  0
   -4.3498   22.8012  -32.9570 H   0  0  0  0  0  0  0  0  0  0  0  0
   -3.6399   21.5156  -34.0082 H   0  0  0  0  0  0  0  0  0  0  0  0
   -3.8069   19.2604  -34.3153 H   0  0  0  0  0  0  0  0  0  0  0  0
   -8.1638   17.3694  -32.7127 H   0  0  0  0  0  0  0  0  0  0  0  0
   -8.8172   20.2275  -32.8963 H   0  0  0  0  0  0  0  0  0  0  0  0
   -8.2936   19.5283  -31.3035 H   0  0  0  0  0  0  0  0  0  0  0  0
   -6.3870   21.2460  -31.5940 H   0  0  0  0  0  0  0  0  0  0  0  0
   -7.4620   21.9840  -32.6490 H   0  0  0  0  0  0  0  0  0  0  0  0
   -8.9376   22.6238  -31.1304 H   0  0  0  0  0  0  0  0  0  0  0  0
   -8.5429   21.1950  -30.0690 H   0  0  0  0  0  0  0  0  0  0  0  0
   -7.7261   23.8600  -29.6722 H   0  0  0  0  0  0  0  0  0  0  0  0
   -7.0939   22.3694  -28.8529 H   0  0  0  0  0  0  0  0  0  0  0  0
   -5.3923   23.9034  -32.3086 H   0  0  0  0  0  0  0  0  0  0  0  0
   -6.9728   24.4655  -31.6114 H   0  0  0  0  0  0  0  0  0  0  0  0
   -5.2824   26.2703  -31.6152 H   0  0  0  0  0  0  0  0  0  0  0  0
   -5.7861   25.7766  -29.9323 H   0  0  0  0  0  0  0  0  0  0  0  0
   -3.2303   23.3605  -30.7975 H   0  0  0  0  0  0  0  0  0  0  0  0
   -2.9002   24.0924  -29.1530 H   0  0  0  0  0  0  0  0  0  0  0  0
   -4.5617   22.2857  -29.0068 H   0  0  0  0  0  0  0  0  0  0  0  0
   -5.2624   23.8940  -28.5758 H   0  0  0  0  0  0  0  0  0  0  0  0
   -6.4385   14.9959  -32.8852 H   0  0  0  0  0  0  0  0  0  0  0  0
   -7.1907   15.2304  -34.4569 H   0  0  0  0  0  0  0  0  0  0  0  0
   -4.4369   14.4353  -33.8862 H   0  0  0  0  0  0  0  0  0  0  0  0
   -5.1491   14.7037  -35.4973 H   0  0  0  0  0  0  0  0  0  0  0  0
   -3.2264   16.3922  -34.0733 H   0  0  0  0  0  0  0  0  0  0  0  0
   -3.8751   16.6734  -35.6824 H   0  0  0  0  0  0  0  0  0  0  0  0
  1  2  1  0
  2  3  1  0
  3  4  1  0
  4  5  2  0
  5  6  1  0
  6  7  2  0
  7  8  1  0
  8  9  2  0
  9 10  1  0
 10 11  1  0
 11 12  1  0
 12 13  1  0
 13 14  1  0
 14 15  1  0
 15 16  1  0
 16 17  1  0
 17 18  1  0
 18 19  1  0
  7 20  1  0
 20 21  1  0
 21 22  1  0
  9  4  1  0
 19 14  1  0
 22  6  1  0
  1 23  1  0
  1 24  1  0
  1 25  1  0
  2 26  1  0
  2 27  1  0
  5 28  1  0
  8 29  1  0
 10 30  1  0
 10 31  1  0
 11 32  1  0
 11 33  1  0
 12 34  1  0
 12 35  1  0
 13 36  1  0
 13 37  1  0
 15 38  1  0
 15 39  1  0
 16 40  1  0
 16 41  1  0
 18 42  1  0
 18 43  1  0
 19 44  1  0
 19 45  1  0
 20 46  1  0
 20 47  1  0
 21 48  1  0
 21 49  1  0
 22 50  1  0
 22 51  1  0
M  CHG  1  11   1
M  END
>  <UniqueID>  (5) 
5

>  <SMILES>  (5) 
CCOc1cc2c(cc1C[NH2+]CCN1CCOCC1)CCC2

>  <Energy>  (5) 
71.09044150777623

>  <Genealogy>  (5) 
CCOc1cc2c(cc1C[NH2+]CCN1CCOCC1)CCC2 (protonated)
CCOc1cc2c(cc1C[NH2+]CCN1CCOCC1)CCC2 (3D coordinates assigned)
CCOc1cc2c(cc1C[NH2+]CCN1CCOCC1)CCC2 (nonaromatic ring conformer: 71.09044150777623 kcal/mol)

>  <smiles>  (5) 
CCOc1cc2c(cc1CNCCN1CCOCC1)CCC2

>  <score_type>  (5) 
oracle

>  <origin>  (5) 
adg

>  <m_score__min__energy>  (5) 
-7.3499999999999996

>  <m_primary>  (5) 
energy

$$$$
5:0
     RDKit          3D

 57 59  0  0  0  0  0  0  0  0999 V2000
   -2.5900   20.1810  -27.4480 C   0  0  0  0  0  0  0  0  0  0  0  0
   -2.5140   21.6710  -27.7770 C   0  0  0  0  0  0  0  0  0  0  0  0
   -3.8950   22.3440  -27.8460 C   0  0  0  0  0  0  0  0  0  0  0  0
   -3.8530   23.8680  -27.5930 C   0  0  0  0  0  0  0  0  0  0  0  0
   -4.9920   24.5530  -28.2310 N   0  0  0  0  0  0  0  0  0  0  0  0
   -5.5610   23.7730  -29.3470 C   0  0  0  0  0  0  0  0  0  0  0  0
   -5.6390   24.5820  -30.6530 C   0  0  0  0  0  0  0  0  0  0  0  0
   -4.7090   24.0720  -31.5900 O   0  0  0  0  0  0  0  0  0  0  0  0
   -3.6230   23.4570  -30.9270 C   0  0  0  0  0  0  0  0  0  0  0  0
   -3.3670   22.0850  -31.5440 C   0  0  0  0  0  0  0  0  0  0  0  0
   -4.3320   21.7990  -32.6060 N   0  0  0  0  0  0  0  0  0  0  0  0
   -4.7780   20.4570  -32.8440 C   0  0  0  0  0  0  0  0  0  0  0  0
   -3.8930   19.5030  -33.3740 C   0  0  0  0  0  0  0  0  0  0  0  0
   -2.5610   19.8500  -33.6810 C   0  0  0  0  0  0  0  0  0  0  0  0
   -1.7020   18.9220  -34.2650 C   0  0  0  0  0  0  0  0  0  0  0  0
   -2.1590   17.6440  -34.5650 C   0  0  0  0  0  0  0  0  0  0  0  0
   -3.4660   17.2740  -34.2510 C   0  0  0  0  0  0  0  0  0  0  0  0
   -4.3520   18.1800  -33.6140 C   0  0  0  0  0  0  0  0  0  0  0  0
   -5.6330   17.8110  -33.2410 N   0  0  0  0  0  0  0  0  0  0  0  0
   -6.0150   16.3810  -33.2310 C   0  0  0  0  0  0  0  0  0  0  0  0
   -6.5450   18.7740  -32.8480 C   0  0  0  0  0  0  0  0  0  0  0  0
   -7.9250   18.4810  -32.6950 C   0  0  0  0  0  0  0  0  0  0  0  0
   -8.8220   19.4480  -32.2420 C   0  0  0  0  0  0  0  0  0  0  0  0
   -8.3770   20.7320  -31.9430 C   0  0  0  0  0  0  0  0  0  0  0  0
   -9.5100   21.9400  -31.3650 Cl  0  0  0  0  0  0  0  0  0  0  0  0
   -7.0350   21.0630  -32.1250 C   0  0  0  0  0  0  0  0  0  0  0  0
   -6.1150   20.1050  -32.6010 C   0  0  0  0  0  0  0  0  0  0  0  0
   -2.5969   20.0464  -26.3563 H   0  0  0  0  0  0  0  0  0  0  0  0
   -3.5109   19.7576  -27.8754 H   0  0  0  0  0  0  0  0  0  0  0  0
   -1.7169   19.6661  -27.8754 H   0  0  0  0  0  0  0  0  0  0  0  0
   -1.9190   22.1715  -26.9989 H   0  0  0  0  0  0  0  0  0  0  0  0
   -2.0531   21.7646  -28.7714 H   0  0  0  0  0  0  0  0  0  0  0  0
   -4.3178   22.1689  -28.8463 H   0  0  0  0  0  0  0  0  0  0  0  0
   -4.5102   21.9012  -27.0489 H   0  0  0  0  0  0  0  0  0  0  0  0
   -3.8872   24.0515  -26.5089 H   0  0  0  0  0  0  0  0  0  0  0  0
   -2.9239   24.2647  -28.0281 H   0  0  0  0  0  0  0  0  0  0  0  0
   -5.7340   24.7440  -27.5180 H   0  0  0  0  0  0  0  0  0  0  0  0
   -4.6750   25.4710  -28.6160 H   0  0  0  0  0  0  0  0  0  0  0  0
   -4.9293   22.8887  -29.5172 H   0  0  0  0  0  0  0  0  0  0  0  0
   -6.5867   23.4903  -29.0678 H   0  0  0  0  0  0  0  0  0  0  0  0
   -6.6546   24.5069  -31.0688 H   0  0  0  0  0  0  0  0  0  0  0  0
   -5.4013   25.6351  -30.4422 H   0  0  0  0  0  0  0  0  0  0  0  0
   -2.7245   24.0822  -31.0356 H   0  0  0  0  0  0  0  0  0  0  0  0
   -3.8604   23.3423  -29.8591 H   0  0  0  0  0  0  0  0  0  0  0  0
   -2.3513   22.0642  -31.9658 H   0  0  0  0  0  0  0  0  0  0  0  0
   -3.4740   21.3222  -30.7587 H   0  0  0  0  0  0  0  0  0  0  0  0
   -4.6950   22.5610  -33.2240 H   0  0  0  0  0  0  0  0  0  0  0  0
   -2.1968   20.8635  -33.4570 H   0  0  0  0  0  0  0  0  0  0  0  0
   -0.6617   19.2006  -34.4889 H   0  0  0  0  0  0  0  0  0  0  0  0
   -1.4870   16.9220  -35.0519 H   0  0  0  0  0  0  0  0  0  0  0  0
   -3.8162   16.2618  -34.5017 H   0  0  0  0  0  0  0  0  0  0  0  0
   -6.1078   16.0335  -32.1915 H   0  0  0  0  0  0  0  0  0  0  0  0
   -6.9783   16.2552  -33.7471 H   0  0  0  0  0  0  0  0  0  0  0  0
   -5.2428   15.7916  -33.7471 H   0  0  0  0  0  0  0  0  0  0  0  0
   -8.2937   17.4735  -32.9380 H   0  0  0  0  0  0  0  0  0  0  0  0
   -9.8855   19.1947  -32.1206 H   0  0  0  0  0  0  0  0  0  0  0  0
   -6.6898   22.0818  -31.8951 H   0  0  0  0  0  0  0  0  0  0  0  0
  1  2  1  0
  2  3  1  0
  3  4  1  0
  4  5  1  0
  5  6  1  0
  6  7  1  0
  7  8  1  0
  8  9  1  0
  9 10  1  0
 10 11  1  0
 11 12  1  0
 12 13  2  0
 13 14  1  0
 14 15  2  0
 15 16  1  0
 16 17  2  0
 17 18  1  0
 18 19  2  0
 19 20  1  0
 19 21  1  0
 21 22  2  0
 22 23  1  0
 23 24  2  0
 24 25  1  0
 24 26  1  0
 26 27  2  0
 27 12  1  0
 18 13  1  0
 27 21  1  0
  1 28  1  0
  1 29  1  0
  1 30  1  0
  2 31  1  0
  2 32  1  0
  3 33  1  0
  3 34  1  0
  4 35  1  0
  4 36  1  0
  5 37  1  0
  5 38  1  0
  6 39  1  0
  6 40  1  0
  7 41  1  0
  7 42  1  0
  9 43  1  0
  9 44  1  0
 10 45  1  0
 10 46  1  0
 11 47  1  0
 14 48  1  0
 15 49  1  0
 16 50  1  0
 17 51  1  0
 20 52  1  0
 20 53  1  0
 20 54  1  0
 22 55  1  0
 23 56  1  0
 26 57  1  0
M  CHG  2   5   1  19   1
M  END
>  <UniqueID>  (6) 
6

>  <SMILES>  (6) 
CCCC[NH2+]CCOCCNc1c2ccccc2[n+](C)c2ccc(Cl)cc12

>  <Energy>  (6) 
79.69992939212707

>  <Genealogy>  (6) 
CCCC[NH2+]CCOCCNc1c2ccccc2[n+](C)c2ccc(Cl)cc12 (protonated)
CCCC[NH2+]CCOCCNc1c2ccccc2[n+](C)c2ccc(Cl)cc12 (3D coordinates assigned)
CCCC[NH2+]CCOCCNc1c2ccccc2[n+](C)c2ccc(Cl)cc12 (optimized conformer: 79.69992939212707 kcal/mol)

>  <smiles>  (6) 
CCCCNCCOCCNc1c2ccccc2[n+](C)c2ccc(Cl)cc12

>  <score_type>  (6) 
oracle

>  <origin>  (6) 
adg

>  <m_score__min__energy>  (6) 
-8.3900000000000006

>  <m_primary>  (6) 
energy

$$$$
6:0
     RDKit          3D

 80 84  0  0  0  0  0  0  0  0999 V2000
   -0.8000   26.0410  -36.8510 C   0  0  0  0  0  0  0  0  0  0  0  0
    0.3070   25.3210  -36.0930 C   0  0  0  0  0  0  0  0  0  0  0  0
    0.2400   23.8780  -36.3580 N   0  0  0  0  0  0  0  0  0  0  0  0
    1.5230   23.2150  -36.0720 C   0  0  0  0  0  0  0  0  0  0  0  0
    1.2910   21.9460  -35.2480 C   0  0  0  0  0  0  0  0  0  0  0  0
   -0.0490   21.9550  -34.6460 N   0  0  0  0  0  0  0  0  0  0  0  0
   -0.3810   20.6600  -34.0300 C   0  0  0  0  0  0  0  0  0  0  0  0
   -1.8160   20.6060  -33.5630 C   0  0  0  0  0  0  0  0  0  0  0  0
   -2.3410   21.6420  -32.7500 C   0  0  0  0  0  0  0  0  0  0  0  0
   -3.6500   21.5660  -32.2420 C   0  0  0  0  0  0  0  0  0  0  0  0
   -4.4160   20.4390  -32.5540 C   0  0  0  0  0  0  0  0  0  0  0  0
   -3.9080   19.4410  -33.3620 C   0  0  0  0  0  0  0  0  0  0  0  0
   -2.6170   19.4900  -33.8810 C   0  0  0  0  0  0  0  0  0  0  0  0
   -4.8990   18.4910  -33.4740 C   0  0  0  0  0  0  0  0  0  0  0  0
   -4.9420   17.2800  -34.1630 C   0  0  0  0  0  0  0  0  0  0  0  0
   -6.1250   16.5240  -34.0830 C   0  0  0  0  0  0  0  0  0  0  0  0
   -7.2220   16.9890  -33.3260 C   0  0  0  0  0  0  0  0  0  0  0  0
   -7.1500   18.2130  -32.6350 C   0  0  0  0  0  0  0  0  0  0  0  0
   -5.9650   18.9510  -32.7270 C   0  0  0  0  0  0  0  0  0  0  0  0
   -5.6760   20.1430  -32.1450 N   0  0  0  0  0  0  0  0  0  0  0  0
   -6.5440   20.9390  -31.2740 C   0  0  0  0  0  0  0  0  0  0  0  0
   -7.4850   21.8110  -32.1130 C   0  0  0  0  0  0  0  0  0  0  0  0
   -8.1660   22.9010  -31.2760 C   0  0  0  0  0  0  0  0  0  0  0  0
   -7.1890   23.5780  -30.4070 N   0  0  0  0  0  0  0  0  0  0  0  0
   -6.2550   24.4540  -31.1410 C   0  0  0  0  0  0  0  0  0  0  0  0
   -5.4140   25.3550  -30.2150 C   0  0  0  0  0  0  0  0  0  0  0  0
   -5.2530   24.7720  -28.8740 N   0  0  0  0  0  0  0  0  0  0  0  0
   -4.1670   23.8220  -28.8770 C   0  0  0  0  0  0  0  0  0  0  0  0
   -3.0090   24.0720  -29.6320 C   0  0  0  0  0  0  0  0  0  0  0  0
   -1.9400   23.1740  -29.6090 C   0  0  0  0  0  0  0  0  0  0  0  0
   -2.0120   22.0050  -28.8370 C   0  0  0  0  0  0  0  0  0  0  0  0
   -3.1580   21.7590  -28.0530 C   0  0  0  0  0  0  0  0  0  0  0  0
   -4.2300   22.6630  -28.0810 C   0  0  0  0  0  0  0  0  0  0  0  0
   -3.2380   20.5690  -27.2520 N   0  0  0  0  0  0  0  0  0  0  0  0
   -2.0880   19.6830  -27.0880 C   0  0  0  0  0  0  0  0  0  0  0  0
   -1.2530   19.6490  -28.3690 C   0  0  0  0  0  0  0  0  0  0  0  0
   -0.8320   21.0670  -28.7760 C   0  0  0  0  0  0  0  0  0  0  0  0
   -1.4994   26.4959  -36.1341 H   0  0  0  0  0  0  0  0  0  0  0  0
   -0.3605   26.8265  -37.4833 H   0  0  0  0  0  0  0  0  0  0  0  0
   -1.3399   25.3207  -37.4833 H   0  0  0  0  0  0  0  0  0  0  0  0
    1.2836   25.7067  -36.4209 H   0  0  0  0  0  0  0  0  0  0  0  0
    0.1798   25.4966  -35.0146 H   0  0  0  0  0  0  0  0  0  0  0  0
   -0.4870   23.4710  -35.7210 H   0  0  0  0  0  0  0  0  0  0  0  0
    2.0131   22.9480  -37.0199 H   0  0  0  0  0  0  0  0  0  0  0  0
    2.1622   23.9028  -35.4990 H   0  0  0  0  0  0  0  0  0  0  0  0
    1.3865   21.0676  -35.9032 H   0  0  0  0  0  0  0  0  0  0  0  0
    2.0398   21.9053  -34.4432 H   0  0  0  0  0  0  0  0  0  0  0  0
   -0.7550   22.1760  -35.3850 H   0  0  0  0  0  0  0  0  0  0  0  0
   -0.2184   19.8627  -34.7702 H   0  0  0  0  0  0  0  0  0  0  0  0
    0.2671   20.5261  -33.1513 H   0  0  0  0  0  0  0  0  0  0  0  0
   -1.7166   22.5162  -32.5136 H   0  0  0  0  0  0  0  0  0  0  0  0
   -4.0603   22.3719  -31.6158 H   0  0  0  0  0  0  0  0  0  0  0  0
   -2.2331   18.6816  -34.5206 H   0  0  0  0  0  0  0  0  0  0  0  0
   -4.0803   16.9279  -34.7491 H   0  0  0  0  0  0  0  0  0  0  0  0
   -6.1961   15.5634  -34.6141 H   0  0  0  0  0  0  0  0  0  0  0  0
   -8.1424   16.3887  -33.2757 H   0  0  0  0  0  0  0  0  0  0  0  0
   -8.0001   18.5785  -32.0403 H   0  0  0  0  0  0  0  0  0  0  0  0
   -7.1410   20.2646  -30.6425 H   0  0  0  0  0  0  0  0  0  0  0  0
   -5.9192   21.5900  -30.6449 H   0  0  0  0  0  0  0  0  0  0  0  0
   -6.9032   22.2910  -32.9137 H   0  0  0  0  0  0  0  0  0  0  0  0
   -8.2712   21.1605  -32.5238 H   0  0  0  0  0  0  0  0  0  0  0  0
   -8.6231   23.6406  -31.9498 H   0  0  0  0  0  0  0  0  0  0  0  0
   -8.9352   22.4324  -30.6445 H   0  0  0  0  0  0  0  0  0  0  0  0
   -6.6580   22.8650  -29.8520 H   0  0  0  0  0  0  0  0  0  0  0  0
   -5.5725   23.8229  -31.7291 H   0  0  0  0  0  0  0  0  0  0  0  0
   -6.8595   25.1148  -31.7797 H   0  0  0  0  0  0  0  0  0  0  0  0
   -4.4191   25.4942  -30.6632 H   0  0  0  0  0  0  0  0  0  0  0  0
   -5.9402   26.3149  -30.1065 H   0  0  0  0  0  0  0  0  0  0  0  0
   -6.1350   24.2850  -28.5870 H   0  0  0  0  0  0  0  0  0  0  0  0
   -5.0570   25.5310  -28.1820 H   0  0  0  0  0  0  0  0  0  0  0  0
   -2.9439   24.9823  -30.2461 H   0  0  0  0  0  0  0  0  0  0  0  0
   -1.0362   23.3845  -30.1996 H   0  0  0  0  0  0  0  0  0  0  0  0
   -5.1270   22.4646  -27.4761 H   0  0  0  0  0  0  0  0  0  0  0  0
   -4.0980   20.3790  -26.6890 H   0  0  0  0  0  0  0  0  0  0  0  0
   -1.4645   20.0484  -26.2587 H   0  0  0  0  0  0  0  0  0  0  0  0
   -2.4490   18.6669  -26.8708 H   0  0  0  0  0  0  0  0  0  0  0  0
   -0.3533   19.0396  -28.1982 H   0  0  0  0  0  0  0  0  0  0  0  0
   -1.8595   19.2132  -29.1766 H   0  0  0  0  0  0  0  0  0  0  0  0
   -0.1105   21.4497  -28.0391 H   0  0  0  0  0  0  0  0  0  0  0  0
   -0.3829   21.0162  -29.7789 H   0  0  0  0  0  0  0  0  0  0  0  0
  1  2  1  0
  2  3  1  0
  3  4  1  0
  4  5  1  0
  5  6  1  0
  6  7  1  0
  7  8  1  0
  8  9  2  0
  9 10  1  0
 10 11  2  0
 11 12  1  0
 12 13  2  0
 12 14  1  0
 14 15  2  0
 15 16  1  0
 16 17  2  0
 17 18  1  0
 18 19  2  0
 19 20  1  0
 20 21  1  0
 21 22  1  0
 22 23  1  0
 23 24  1  0
 24 25  1  0
 25 26  1  0
 26 27  1  0
 27 28  1  0
 28 29  2  0
 29 30  1  0
 30 31  2  0
 31 32  1  0
 32 33  2  0
 32 34  1  0
 34 35  1  0
 35 36  1  0
 36 37  1  0
 13  8  1  0
 19 14  1  0
 33 28  1  0
 20 11  1  0
 37 31  1  0
  1 38  1  0
  1 39  1  0
  1 40  1  0
  2 41  1  0
  2 42  1  0
  3 43  1  0
  4 44  1  0
  4 45  1  0
  5 46  1  0
  5 47  1  0
  6 48  1  0
  7 49  1  0
  7 50  1  0
  9 51  1  0
 10 52  1  0
 13 53  1  0
 15 54  1  0
 16 55  1  0
 17 56  1  0
 18 57  1  0
 21 58  1  0
 21 59  1  0
 22 60  1  0
 22 61  1  0
 23 62  1  0
 23 63  1  0
 24 64  1  0
 25 65  1  0
 25 66  1  0
 26 67  1  0
 26 68  1  0
 27 69  1  0
 27 70  1  0
 29 71  1  0
 30 72  1  0
 33 73  1  0
 34 74  1  0
 35 75  1  0
 35 76  1  0
 36 77  1  0
 36 78  1  0
 37 79  1  0
 37 80  1  0
M  CHG  1  27   1
M  END
>  <UniqueID>  (7) 
7

>  <SMILES>  (7) 
CCNCCNCc1ccc2c(c1)c1ccccc1n2CCCNCC[NH2+]c1ccc2c(c1)NCCC2

>  <Energy>  (7) 
117.37928230520033

>  <Genealogy>  (7) 
CCNCCNCc1ccc2c(c1)c1ccccc1n2CCCNCC[NH2+]c1ccc2c(c1)NCCC2 (protonated)
CCNCCNCc1ccc2c(c1)c1ccccc1n2CCCNCC[NH2+]c1ccc2c(c1)NCCC2 (3D coordinates assigned)
CCNCCNCc1ccc2c(c1)c1ccccc1n2CCCNCC[NH2+]c1ccc2c(c1)NCCC2 (nonaromatic ring conformer: 117.37928230520033 kcal/mol)

>  <smiles>  (7) 
CCNCCNCc1ccc2c(c1)c1ccccc1n2CCCNCCNc1ccc2c(c1)NCCC2

>  <score_type>  (7) 
oracle

>  <origin>  (7) 
adg

>  <m_score__min__energy>  (7) 
-11.800000000000001

>  <m_primary>  (7) 
energy

$$$$
8:0
     RDKit          3D

 56 60  0  0  0  0  0  0  0  0999 V2000
    1.0500   26.0130  -27.0270 C   0  0  0  0  0  0  0  0  0  0  0  0
    0.1840   25.1450  -27.8140 N   0  0  0  0  0  0  0  0  0  0  0  0
   -1.1590   25.2090  -27.8580 C   0  0  0  0  0  0  0  0  0  0  0  0
   -1.6030   24.2260  -28.7190 C   0  0  0  0  0  0  0  0  0  0  0  0
   -3.0070   23.9360  -29.0710 C   0  0  0  0  0  0  0  0  0  0  0  0
   -4.0830   24.5470  -28.4000 C   0  0  0  0  0  0  0  0  0  0  0  0
   -5.3620   24.2520  -28.7600 N   0  0  0  0  0  0  0  0  0  0  0  0
   -5.6190   23.3650  -29.7620 C   0  0  0  0  0  0  0  0  0  0  0  0
   -6.9260   23.0420  -30.1400 C   0  0  0  0  0  0  0  0  0  0  0  0
   -7.1460   22.1160  -31.1620 C   0  0  0  0  0  0  0  0  0  0  0  0
   -6.0470   21.5170  -31.8180 C   0  0  0  0  0  0  0  0  0  0  0  0
   -6.2200   20.5310  -32.8700 N   0  0  0  0  0  0  0  0  0  0  0  0
   -5.0260   19.9420  -33.5000 C   0  0  0  0  0  0  0  0  0  0  0  0
   -4.3770   18.9200  -32.5580 C   0  0  0  0  0  0  0  0  0  0  0  0
   -4.0000   17.6950  -33.2980 N   0  0  0  0  0  0  0  0  0  0  0  0
   -4.7590   16.5250  -32.8220 C   0  0  0  0  0  0  0  0  0  0  0  0
   -5.9960   16.3730  -33.6980 C   0  0  0  0  0  0  0  0  0  0  0  0
   -5.7580   17.2680  -34.8990 C   0  0  0  0  0  0  0  0  0  0  0  0
   -4.3480   17.8050  -34.7220 C   0  0  0  0  0  0  0  0  0  0  0  0
   -7.5500   20.1110  -33.3410 C   0  0  0  0  0  0  0  0  0  0  0  0
   -7.9390   18.7650  -32.7100 C   0  0  0  0  0  0  0  0  0  0  0  0
   -7.4680   18.5560  -31.2790 C   0  0  0  0  0  0  0  0  0  0  0  0
   -8.9330   18.8470  -31.5620 C   0  0  0  0  0  0  0  0  0  0  0  0
   -4.7850   21.8590  -31.4250 N   0  0  0  0  0  0  0  0  0  0  0  0
   -4.5480   22.7510  -30.4310 C   0  0  0  0  0  0  0  0  0  0  0  0
   -3.2740   23.0520  -30.0710 N   0  0  0  0  0  0  0  0  0  0  0  0
   -0.4520   23.5970  -29.1710 C   0  0  0  0  0  0  0  0  0  0  0  0
    0.6230   24.1790  -28.6030 N   0  0  0  0  0  0  0  0  0  0  0  0
    0.8723   25.8349  -25.9562 H   0  0  0  0  0  0  0  0  0  0  0  0
    2.1016   25.7954  -27.2653 H   0  0  0  0  0  0  0  0  0  0  0  0
    0.8300   27.0641  -27.2653 H   0  0  0  0  0  0  0  0  0  0  0  0
   -1.7915   25.9193  -27.3054 H   0  0  0  0  0  0  0  0  0  0  0  0
   -3.8905   25.2616  -27.5862 H   0  0  0  0  0  0  0  0  0  0  0  0
   -6.1480   24.7170  -28.2530 H   0  0  0  0  0  0  0  0  0  0  0  0
   -7.7793   23.5164  -29.6333 H   0  0  0  0  0  0  0  0  0  0  0  0
   -8.1730   21.8534  -31.4558 H   0  0  0  0  0  0  0  0  0  0  0  0
   -5.3187   19.4400  -34.4340 H   0  0  0  0  0  0  0  0  0  0  0  0
   -4.3022   20.7423  -33.7134 H   0  0  0  0  0  0  0  0  0  0  0  0
   -3.4756   19.3632  -32.1096 H   0  0  0  0  0  0  0  0  0  0  0  0
   -5.1000   18.6519  -31.7735 H   0  0  0  0  0  0  0  0  0  0  0  0
   -4.1362   15.6214  -32.8967 H   0  0  0  0  0  0  0  0  0  0  0  0
   -5.0519   16.6635  -31.7708 H   0  0  0  0  0  0  0  0  0  0  0  0
   -6.1148   15.3268  -34.0164 H   0  0  0  0  0  0  0  0  0  0  0  0
   -6.9134   16.6513  -33.1585 H   0  0  0  0  0  0  0  0  0  0  0  0
   -5.8366   16.6907  -35.8320 H   0  0  0  0  0  0  0  0  0  0  0  0
   -6.5010   18.0766  -34.9630 H   0  0  0  0  0  0  0  0  0  0  0  0
   -3.6440   17.2137  -35.3259 H   0  0  0  0  0  0  0  0  0  0  0  0
   -4.2922   18.8532  -35.0510 H   0  0  0  0  0  0  0  0  0  0  0  0
   -8.2921   20.8722  -33.0583 H   0  0  0  0  0  0  0  0  0  0  0  0
   -7.5231   19.9987  -34.4349 H   0  0  0  0  0  0  0  0  0  0  0  0
   -7.8730   18.1887  -33.6446 H   0  0  0  0  0  0  0  0  0  0  0  0
   -7.1613   17.5549  -30.9416 H   0  0  0  0  0  0  0  0  0  0  0  0
   -6.6944   19.0081  -30.6409 H   0  0  0  0  0  0  0  0  0  0  0  0
   -9.6863   18.0565  -31.4293 H   0  0  0  0  0  0  0  0  0  0  0  0
   -9.6584   19.5969  -31.2134 H   0  0  0  0  0  0  0  0  0  0  0  0
   -0.4215   22.7568  -29.8803 H   0  0  0  0  0  0  0  0  0  0  0  0
  1  2  1  0
  2  3  1  0
  3  4  2  0
  4  5  1  0
  5  6  2  0
  6  7  1  0
  7  8  2  0
  8  9  1  0
  9 10  2  0
 10 11  1  0
 11 12  1  0
 12 13  1  0
 13 14  1  0
 14 15  1  0
 15 16  1  0
 16 17  1  0
 17 18  1  0
 18 19  1  0
 12 20  1  0
 20 21  1  0
 21 22  1  0
 22 23  1  0
 11 24  2  0
 24 25  1  0
 25 26  2  0
  4 27  1  0
 27 28  2  0
 28  2  1  0
 26  5  1  0
 25  8  1  0
 19 15  1  0
 23 21  1  0
  1 29  1  0
  1 30  1  0
  1 31  1  0
  3 32  1  0
  6 33  1  0
  7 34  1  0
  9 35  1  0
 10 36  1  0
 13 37  1  0
 13 38  1  0
 14 39  1  0
 14 40  1  0
 16 41  1  0
 16 42  1  0
 17 43  1  0
 17 44  1  0
 18 45  1  0
 18 46  1  0
 19 47  1  0
 19 48  1  0
 20 49  1  0
 20 50  1  0
 21 51  1  0
 22 52  1  0
 22 53  1  0
 23 54  1  0
 23 55  1  0
 27 56  1  0
M  CHG  1   7   1
M  END
>  <UniqueID>  (8) 
8

>  <SMILES>  (8) 
Cn1cc(-c2c[nH+]c3ccc(N(CCN4CCCC4)CC4CC4)nc3n2)cn1

>  <Energy>  (8) 
357.22838980248156

>  <Genealogy>  (8) 
Cn1cc(-c2c[nH+]c3ccc(N(CCN4CCCC4)CC4CC4)nc3n2)cn1 (protonated)
Cn1cc(-c2c[nH+]c3ccc(N(CCN4CCCC4)CC4CC4)nc3n2)cn1 (3D coordinates assigned)
Cn1cc(-c2c[nH+]c3ccc(N(CCN4CCCC4)CC4CC4)nc3n2)cn1 (nonaromatic ring conformer: 357.22838980248156 kcal/mol)

>  <smiles>  (8) 
Cn1cc(-c2cnc3ccc(N(CCN4CCCC4)CC4CC4)nc3n2)cn1

>  <score_type>  (8) 
oracle

>  <origin>  (8) 
adg

>  <m_score__min__energy>  (8) 
-7.8799999999999999

>  <m_primary>  (8) 
energy

$$$$
9:0
     RDKit          3D

 55 56  0  0  0  0  0  0  0  0999 V2000
   -6.2280   25.7460  -29.3700 C   0  0  0  0  0  0  0  0  0  0  0  0
   -5.6640   25.3780  -30.7350 C   0  0  0  0  0  0  0  0  0  0  0  0
   -4.2810   25.6220  -30.7460 O   0  0  0  0  0  0  0  0  0  0  0  0
   -3.6830   24.4220  -30.5160 N   0  0  0  0  0  0  0  0  0  0  0  0
   -2.7170   24.5950  -29.4310 C   0  0  0  0  0  0  0  0  0  0  0  0
   -2.3570   23.2380  -28.8130 C   0  0  0  0  0  0  0  0  0  0  0  0
   -2.5130   22.0970  -29.8190 C   0  0  0  0  0  0  0  0  0  0  0  0
   -2.2350   22.5640  -31.1170 O   0  0  0  0  0  0  0  0  0  0  0  0
   -2.8140   21.6840  -31.9770 N   0  0  0  0  0  0  0  0  0  0  0  0
   -2.0940   20.7320  -32.7970 C   0  0  0  0  0  0  0  0  0  0  0  0
   -3.1710   20.2130  -33.7670 C   0  0  0  0  0  0  0  0  0  0  0  0
   -4.3680   20.9980  -33.4720 N   0  0  0  0  0  0  0  0  0  0  0  0
   -4.1290   21.7890  -32.4840 C   0  0  0  0  0  0  0  0  0  0  0  0
   -5.0960   22.7120  -31.9660 N   0  0  0  0  0  0  0  0  0  0  0  0
   -6.4630   22.7900  -32.4760 C   0  0  0  0  0  0  0  0  0  0  0  0
   -7.4700   22.5870  -31.3350 C   0  0  0  0  0  0  0  0  0  0  0  0
   -7.8420   21.1100  -31.1310 C   0  0  0  0  0  0  0  0  0  0  0  0
   -8.2580   20.4190  -32.4360 C   0  0  0  0  0  0  0  0  0  0  0  0
   -7.0840   20.1270  -33.2550 N   0  0  0  0  0  0  0  0  0  0  0  0
   -6.6310   18.7910  -33.5110 C   0  0  0  0  0  0  0  0  0  0  0  0
   -7.2060   17.7480  -33.0220 N   0  0  0  0  0  0  0  0  0  0  0  0
   -6.4990   16.5530  -33.4660 C   0  0  0  0  0  0  0  0  0  0  0  0
   -5.3440   17.0690  -34.3390 C   0  0  0  0  0  0  0  0  0  0  0  0
   -5.5040   18.5100  -34.3130 N   0  0  0  0  0  0  0  0  0  0  0  0
   -5.5849   25.3264  -28.5823 H   0  0  0  0  0  0  0  0  0  0  0  0
   -6.2625   26.8410  -29.2706 H   0  0  0  0  0  0  0  0  0  0  0  0
   -7.2441   25.3366  -29.2706 H   0  0  0  0  0  0  0  0  0  0  0  0
   -5.8509   24.3126  -30.9349 H   0  0  0  0  0  0  0  0  0  0  0  0
   -6.1519   25.9853  -31.5116 H   0  0  0  0  0  0  0  0  0  0  0  0
   -3.1430   24.1860  -31.3810 H   0  0  0  0  0  0  0  0  0  0  0  0
   -1.8056   25.0651  -29.8289 H   0  0  0  0  0  0  0  0  0  0  0  0
   -3.1638   25.2331  -28.6543 H   0  0  0  0  0  0  0  0  0  0  0  0
   -1.3126   23.2692  -28.4690 H   0  0  0  0  0  0  0  0  0  0  0  0
   -3.0439   23.0510  -27.9744 H   0  0  0  0  0  0  0  0  0  0  0  0
   -1.8129   21.2876  -29.5645 H   0  0  0  0  0  0  0  0  0  0  0  0
   -3.5455   21.7195  -29.7824 H   0  0  0  0  0  0  0  0  0  0  0  0
   -1.2752   21.2228  -33.3435 H   0  0  0  0  0  0  0  0  0  0  0  0
   -1.6209   19.9305  -32.2107 H   0  0  0  0  0  0  0  0  0  0  0  0
   -2.8566   20.3673  -34.8098 H   0  0  0  0  0  0  0  0  0  0  0  0
   -3.3479   19.1343  -33.6436 H   0  0  0  0  0  0  0  0  0  0  0  0
   -4.7990   23.3900  -31.2280 H   0  0  0  0  0  0  0  0  0  0  0  0
   -6.6247   23.7783  -32.9311 H   0  0  0  0  0  0  0  0  0  0  0  0
   -6.6100   22.0004  -33.2276 H   0  0  0  0  0  0  0  0  0  0  0  0
   -7.0290   22.9712  -30.4034 H   0  0  0  0  0  0  0  0  0  0  0  0
   -8.3896   23.1284  -31.6019 H   0  0  0  0  0  0  0  0  0  0  0  0
   -6.9713   20.5819  -30.7151 H   0  0  0  0  0  0  0  0  0  0  0  0
   -8.7031   21.0754  -30.4474 H   0  0  0  0  0  0  0  0  0  0  0  0
   -8.7771   19.4787  -32.1986 H   0  0  0  0  0  0  0  0  0  0  0  0
   -8.9263   21.0889  -32.9968 H   0  0  0  0  0  0  0  0  0  0  0  0
   -6.5220   20.9240  -33.6280 H   0  0  0  0  0  0  0  0  0  0  0  0
   -6.1098   15.9922  -32.6034 H   0  0  0  0  0  0  0  0  0  0  0  0
   -7.1577   15.8673  -34.0190 H   0  0  0  0  0  0  0  0  0  0  0  0
   -4.3721   16.7754  -33.9157 H   0  0  0  0  0  0  0  0  0  0  0  0
   -5.3669   16.6580  -35.3591 H   0  0  0  0  0  0  0  0  0  0  0  0
   -4.8990   19.2080  -34.7970 H   0  0  0  0  0  0  0  0  0  0  0  0
  1  2  1  0
  2  3  1  0
  3  4  1  0
  4  5  1  0
  5  6  1  0
  6  7  1  0
  7  8  1  0
  8  9  1  0
  9 10  1  0
 10 11  1  0
 11 12  1  0
 12 13  2  0
 13 14  1  0
 14 15  1  0
 15 16  1  0
 16 17  1  0
 17 18  1  0
 18 19  1  0
 19 20  1  0
 20 21  2  0
 21 22  1  0
 22 23  1  0
 23 24  1  0
 13  9  1  0
 24 20  1  0
  1 25  1  0
  1 26  1  0
  1 27  1  0
  2 28  1  0
  2 29  1  0
  4 30  1  0
  5 31  1  0
  5 32  1  0
  6 33  1  0
  6 34  1  0
  7 35  1  0
  7 36  1  0
 10 37  1  0
 10 38  1  0
 11 39  1  0
 11 40  1  0
 14 41  1  0
 15 42  1  0
 15 43  1  0
 16 44  1  0
 16 45  1  0
 17 46  1  0
 17 47  1  0
 18 48  1  0
 18 49  1  0
 19 50  1  0
 22 51  1  0
 22 52  1  0
 23 53  1  0
 23 54  1  0
 24 55  1  0
M  END
>  <UniqueID>  (9) 
9

>  <SMILES>  (9) 
CCONCCCON1CCN=C1NCCCCNC1=NCCN1

>  <Energy>  (9) 
54.94532728894141

>  <Genealogy>  (9) 
CCONCCCON1CCN=C1NCCCCNC1=NCCN1 (3D coordinates assigned)
CCONCCCON1CCN=C1NCCCCNC1=NCCN1 (nonaromatic ring conformer: 54.94532728894141 kcal/mol)

>  <smiles>  (9) 
CCONCCCON1CCN=C1NCCCCNC1=NCCN1

>  <score_type>  (9) 
oracle

>  <origin>  (9) 
adg

>  <m_score__min__energy>  (9) 
-7.8799999999999999

>  <m_primary>  (9) 
energy

$$$$
10:0
     RDKit          3D

 41 42  0  0  0  0  0  0  0  0999 V2000
   -8.6930   18.9400  -31.8740 C   0  0  0  0  0  0  0  0  0  0  0  0
   -8.6430   20.3030  -32.5570 C   0  0  0  0  0  0  0  0  0  0  0  0
   -7.2680   20.8240  -32.5620 N   0  0  0  0  0  0  0  0  0  0  0  0
   -6.2620   20.3290  -33.3440 C   0  0  0  0  0  0  0  0  0  0  0  0
   -6.4320   19.2710  -34.3040 N   0  0  0  0  0  0  0  0  0  0  0  0
   -5.4590   18.1930  -34.4750 C   0  0  0  0  0  0  0  0  0  0  0  0
   -5.9650   16.9030  -33.8070 C   0  0  0  0  0  0  0  0  0  0  0  0
   -4.8660   15.9720  -33.4480 N   0  0  1  0  0  0  0  0  0  0  0  0
   -3.5610   16.6350  -33.6320 C   0  0  0  0  0  0  0  0  0  0  0  0
   -4.9850   15.3700  -32.0930 C   0  0  0  0  0  0  0  0  0  0  0  0
   -4.4170   13.9480  -31.9680 C   0  0  0  0  0  0  0  0  0  0  0  0
   -4.8030   21.1550  -33.0930 S   0  0  0  0  0  0  0  0  0  0  0  0
   -5.4850   22.1880  -31.9650 C   0  0  0  0  0  0  0  0  0  0  0  0
   -4.8690   23.2290  -31.2750 C   0  0  0  0  0  0  0  0  0  0  0  0
   -5.6460   23.9890  -30.3900 C   0  0  0  0  0  0  0  0  0  0  0  0
   -7.0130   23.7000  -30.2180 C   0  0  0  0  0  0  0  0  0  0  0  0
   -7.6140   22.6460  -30.9250 C   0  0  0  0  0  0  0  0  0  0  0  0
   -6.8310   21.8780  -31.8040 C   0  0  0  0  0  0  0  0  0  0  0  0
   -8.6880   19.0764  -30.7825 H   0  0  0  0  0  0  0  0  0  0  0  0
   -9.6111   18.4133  -32.1735 H   0  0  0  0  0  0  0  0  0  0  0  0
   -7.8160   18.3474  -32.1735 H   0  0  0  0  0  0  0  0  0  0  0  0
   -8.9960   20.2019  -33.5939 H   0  0  0  0  0  0  0  0  0  0  0  0
   -9.2875   21.0026  -32.0046 H   0  0  0  0  0  0  0  0  0  0  0  0
   -7.2360   19.2990  -34.9690 H   0  0  0  0  0  0  0  0  0  0  0  0
   -5.3065   18.0094  -35.5488 H   0  0  0  0  0  0  0  0  0  0  0  0
   -4.5105   18.4904  -34.0039 H   0  0  0  0  0  0  0  0  0  0  0  0
   -6.5108   17.1724  -32.8907 H   0  0  0  0  0  0  0  0  0  0  0  0
   -6.6128   16.3872  -34.5311 H   0  0  0  0  0  0  0  0  0  0  0  0
   -4.8910   15.1790  -34.1340 H   0  0  0  0  0  0  0  0  0  0  0  0
   -3.1213   16.8584  -32.6487 H   0  0  0  0  0  0  0  0  0  0  0  0
   -2.8875   15.9698  -34.1922 H   0  0  0  0  0  0  0  0  0  0  0  0
   -3.7011   17.5712  -34.1922 H   0  0  0  0  0  0  0  0  0  0  0  0
   -4.4485   16.0165  -31.3829 H   0  0  0  0  0  0  0  0  0  0  0  0
   -6.0618   15.2932  -31.8816 H   0  0  0  0  0  0  0  0  0  0  0  0
   -4.3127   13.6870  -30.9045 H   0  0  0  0  0  0  0  0  0  0  0  0
   -5.0999   13.2363  -32.4550 H   0  0  0  0  0  0  0  0  0  0  0  0
   -3.4317   13.9026  -32.4550 H   0  0  0  0  0  0  0  0  0  0  0  0
   -3.8011   23.4490  -31.4206 H   0  0  0  0  0  0  0  0  0  0  0  0
   -5.1857   24.8147  -29.8275 H   0  0  0  0  0  0  0  0  0  0  0  0
   -7.6153   24.3048  -29.5241 H   0  0  0  0  0  0  0  0  0  0  0  0
   -8.6833   22.4244  -30.7927 H   0  0  0  0  0  0  0  0  0  0  0  0
  1  2  1  0
  2  3  1  0
  3  4  2  0
  4  5  1  0
  5  6  1  0
  6  7  1  0
  7  8  1  0
  8  9  1  0
  8 10  1  0
 10 11  1  0
  4 12  1  0
 12 13  1  0
 13 14  2  0
 14 15  1  0
 15 16  2  0
 16 17  1  0
 17 18  2  0
 18  3  1  0
 18 13  1  0
  1 19  1  0
  1 20  1  0
  1 21  1  0
  2 22  1  0
  2 23  1  0
  5 24  1  0
  6 25  1  0
  6 26  1  0
  7 27  1  0
  7 28  1  0
  8 29  1  6
  9 30  1  0
  9 31  1  0
  9 32  1  0
 10 33  1  0
 10 34  1  0
 11 35  1  0
 11 36  1  0
 11 37  1  0
 14 38  1  0
 15 39  1  0
 16 40  1  0
 17 41  1  0
M  CHG  2   3   1   8   1
M  END
>  <UniqueID>  (10) 
10

>  <SMILES>  (10) 
CC[n+]1c(NCC[N@@H+](C)CC)sc2ccccc21

>  <Energy>  (10) 
74.07425151146626

>  <Genealogy>  (10) 
CC[n+]1c(NCC[NH+](C)CC)sc2ccccc21 (protonated)
CC[n+]1c(NCC[N@@H+](C)CC)sc2ccccc21 (chirality)
CC[n+]1c(NCC[N@@H+](C)CC)sc2ccccc21 (3D coordinates assigned)
CC[n+]1c(NCC[N@@H+](C)CC)sc2ccccc21 (optimized conformer: 74.07425151146626 kcal/mol)

>  <smiles>  (10) 
CCN(C)CCNc1sc2ccccc2[n+]1CC

>  <score_type>  (10) 
oracle

>  <origin>  (10) 
adg

>  <m_score__min__energy>  (10) 
-5.3799999999999999

>  <m_primary>  (10) 
energy

$$$$
11:0
     RDKit          3D

 53 56  0  0  0  0  0  0  0  0999 V2000
    0.2170   21.7500  -35.6580 C   0  0  0  0  0  0  0  0  0  0  0  0
   -0.3340   21.5260  -34.2390 C   0  0  0  0  0  0  0  0  0  0  0  0
    0.5910   20.6070  -33.4250 C   0  0  0  0  0  0  0  0  0  0  0  0
   -1.7410   21.0620  -34.2420 N   0  0  0  0  0  0  0  0  0  0  0  0
   -2.0740   20.1130  -33.1590 C   0  0  0  0  0  0  0  0  0  0  0  0
   -3.2960   20.5680  -32.3270 C   0  0  2  0  0  0  0  0  0  0  0  0
   -4.2320   21.2480  -33.1580 O   0  0  0  0  0  0  0  0  0  0  0  0
   -5.3760   20.4610  -33.4370 C   0  0  0  0  0  0  0  0  0  0  0  0
   -6.5840   20.9920  -32.7130 C   0  0  0  0  0  0  0  0  0  0  0  0
   -6.6170   22.3200  -32.2570 C   0  0  0  0  0  0  0  0  0  0  0  0
   -7.7220   22.7900  -31.5400 C   0  0  0  0  0  0  0  0  0  0  0  0
   -8.7970   21.9380  -31.2720 C   0  0  0  0  0  0  0  0  0  0  0  0
   -8.7690   20.6150  -31.7200 C   0  0  0  0  0  0  0  0  0  0  0  0
   -7.6670   20.1420  -32.4390 C   0  0  0  0  0  0  0  0  0  0  0  0
   -2.8630   21.4710  -31.1900 C   0  0  0  0  0  0  0  0  0  0  0  0
   -1.4950   21.7960  -31.0380 C   0  0  0  0  0  0  0  0  0  0  0  0
   -1.0660   22.6600  -30.0170 C   0  0  0  0  0  0  0  0  0  0  0  0
   -2.0170   23.2090  -29.1510 C   0  0  0  0  0  0  0  0  0  0  0  0
   -3.3650   22.8980  -29.3100 C   0  0  0  0  0  0  0  0  0  0  0  0
   -3.8120   22.0450  -30.3140 C   0  0  0  0  0  0  0  0  0  0  0  0
   -4.2960   23.6940  -28.1490 S   0  0  0  0  0  0  0  0  0  0  0  0
   -2.9700   24.4470  -27.4280 C   0  0  0  0  0  0  0  0  0  0  0  0
   -2.9740   25.3130  -26.3360 C   0  0  0  0  0  0  0  0  0  0  0  0
   -1.7500   25.8300  -25.8920 C   0  0  0  0  0  0  0  0  0  0  0  0
   -0.5510   25.4780  -26.5410 C   0  0  0  0  0  0  0  0  0  0  0  0
   -0.5640   24.6050  -27.6410 C   0  0  0  0  0  0  0  0  0  0  0  0
   -1.7920   24.0890  -28.0790 C   0  0  0  0  0  0  0  0  0  0  0  0
    1.2344   22.1636  -35.5952 H   0  0  0  0  0  0  0  0  0  0  0  0
    0.2435   20.7913  -36.1966 H   0  0  0  0  0  0  0  0  0  0  0  0
   -0.4330   22.4553  -36.1966 H   0  0  0  0  0  0  0  0  0  0  0  0
   -0.3470   22.5036  -33.7349 H   0  0  0  0  0  0  0  0  0  0  0  0
    0.4220   20.7749  -32.3511 H   0  0  0  0  0  0  0  0  0  0  0  0
    0.3734   19.5571  -33.6707 H   0  0  0  0  0  0  0  0  0  0  0  0
    1.6395   20.8314  -33.6707 H   0  0  0  0  0  0  0  0  0  0  0  0
   -2.3580   21.9030  -34.1550 H   0  0  0  0  0  0  0  0  0  0  0  0
   -1.9390   20.6260  -35.1730 H   0  0  0  0  0  0  0  0  0  0  0  0
   -2.2965   19.1325  -33.6053 H   0  0  0  0  0  0  0  0  0  0  0  0
   -1.2088   20.0623  -32.4816 H   0  0  0  0  0  0  0  0  0  0  0  0
   -3.7762   19.6744  -31.9017 H   0  0  0  0  0  0  0  0  0  0  0  0
   -5.5691   20.4777  -34.5198 H   0  0  0  0  0  0  0  0  0  0  0  0
   -5.1863   19.4326  -33.0959 H   0  0  0  0  0  0  0  0  0  0  0  0
   -5.7714   22.9923  -32.4644 H   0  0  0  0  0  0  0  0  0  0  0  0
   -7.7450   23.8314  -31.1866 H   0  0  0  0  0  0  0  0  0  0  0  0
   -9.6655   22.3093  -30.7081 H   0  0  0  0  0  0  0  0  0  0  0  0
   -9.6148   19.9447  -31.5069 H   0  0  0  0  0  0  0  0  0  0  0  0
   -7.6487   19.1001  -32.7912 H   0  0  0  0  0  0  0  0  0  0  0  0
   -0.7558   21.3657  -31.7297 H   0  0  0  0  0  0  0  0  0  0  0  0
    0.0009   22.9009  -29.9005 H   0  0  0  0  0  0  0  0  0  0  0  0
   -4.8834   21.8216  -30.4239 H   0  0  0  0  0  0  0  0  0  0  0  0
   -3.9151   25.5839  -25.8351 H   0  0  0  0  0  0  0  0  0  0  0  0
   -1.7254   26.5148  -25.0315 H   0  0  0  0  0  0  0  0  0  0  0  0
    0.4040   25.8903  -26.1834 H   0  0  0  0  0  0  0  0  0  0  0  0
    0.3721   24.3310  -28.1497 H   0  0  0  0  0  0  0  0  0  0  0  0
  1  2  1  0
  2  3  1  0
  2  4  1  0
  4  5  1  0
  5  6  1  0
  6  7  1  0
  7  8  1  0
  8  9  1  0
  9 10  2  0
 10 11  1  0
 11 12  2  0
 12 13  1  0
 13 14  2  0
  6 15  1  0
 15 16  2  0
 16 17  1  0
 17 18  2  0
 18 19  1  0
 19 20  2  0
 19 21  1  0
 21 22  1  0
 22 23  2  0
 23 24  1  0
 24 25  2  0
 25 26  1  0
 26 27  2  0
 14  9  1  0
 20 15  1  0
 27 22  1  0
 27 18  1  0
  1 28  1  0
  1 29  1  0
  1 30  1  0
  2 31  1  0
  3 32  1  0
  3 33  1  0
  3 34  1  0
  4 35  1  0
  4 36  1  0
  5 37  1  0
  5 38  1  0
  6 39  1  1
  8 40  1  0
  8 41  1  0
 10 42  1  0
 11 43  1  0
 12 44  1  0
 13 45  1  0
 14 46  1  0
 16 47  1  0
 17 48  1  0
 20 49  1  0
 23 50  1  0
 24 51  1  0
 25 52  1  0
 26 53  1  0
M  CHG  1   4   1
M  END
>  <UniqueID>  (11) 
11

>  <SMILES>  (11) 
CC(C)[NH2+]C[C@H](OCc1ccccc1)c1ccc2c(c1)sc1ccccc12

>  <Energy>  (11) 
93.5348163821018

>  <Genealogy>  (11) 
CC(C)[NH2+]CC(OCc1ccccc1)c1ccc2c(c1)sc1ccccc12 (protonated)
CC(C)[NH2+]C[C@H](OCc1ccccc1)c1ccc2c(c1)sc1ccccc12 (chirality)
CC(C)[NH2+]C[C@H](OCc1ccccc1)c1ccc2c(c1)sc1ccccc12 (3D coordinates assigned)
CC(C)[NH2+]C[C@H](OCc1ccccc1)c1ccc2c(c1)sc1ccccc12 (optimized conformer: 93.5348163821018 kcal/mol)

>  <smiles>  (11) 
CC(C)NCC(OCc1ccccc1)c1ccc2c(c1)sc1ccccc12

>  <score_type>  (11) 
oracle

>  <origin>  (11) 
adg

>  <m_score__min__energy>  (11) 
-8.5299999999999994

>  <m_primary>  (11) 
energy

$$$$
12:0
     RDKit          3D

 62 65  0  0  0  0  0  0  0  0999 V2000
   -6.1750   24.9190  -29.8050 C   0  0  0  0  0  0  0  0  0  0  0  0
   -5.2100   25.4960  -30.8340 C   0  0  0  0  0  0  0  0  0  0  0  0
   -3.8700   25.2430  -30.4470 O   0  0  0  0  0  0  0  0  0  0  0  0
   -3.8110   24.5540  -29.2090 C   0  0  0  0  0  0  0  0  0  0  0  0
   -2.3780   24.1260  -28.8960 C   0  0  0  0  0  0  0  0  0  0  0  0
   -2.3760   22.7960  -28.4230 O   0  0  0  0  0  0  0  0  0  0  0  0
   -3.5410   22.1140  -28.8500 C   0  0  0  0  0  0  0  0  0  0  0  0
   -3.2430   21.3160  -30.1220 C   0  0  0  0  0  0  0  0  0  0  0  0
   -2.5140   22.1500  -31.0890 N   0  0  0  0  0  0  0  0  0  0  0  0
   -1.2220   21.5630  -31.4890 C   0  0  0  0  0  0  0  0  0  0  0  0
   -1.3200   20.6970  -32.7620 C   0  0  0  0  0  0  0  0  0  0  0  0
   -2.4290   21.1230  -33.6320 N   0  0  0  0  0  0  0  0  0  0  0  0
   -3.4910   20.1360  -33.6090 C   0  0  0  0  0  0  0  0  0  0  0  0
   -4.7710   20.4770  -33.1520 C   0  0  0  0  0  0  0  0  0  0  0  0
   -5.7860   19.5370  -33.0680 C   0  0  0  0  0  0  0  0  0  0  0  0
   -5.6360   18.2690  -33.5670 N   0  0  0  0  0  0  0  0  0  0  0  0
   -6.8200   17.4160  -33.7680 C   0  0  0  0  0  0  0  0  0  0  0  0
   -4.3720   17.8520  -33.9530 C   0  0  0  0  0  0  0  0  0  0  0  0
   -4.1130   16.4970  -34.2750 C   0  0  0  0  0  0  0  0  0  0  0  0
   -2.8610   16.0930  -34.7330 C   0  0  0  0  0  0  0  0  0  0  0  0
   -1.8370   17.0190  -34.8780 C   0  0  0  0  0  0  0  0  0  0  0  0
   -2.0400   18.3510  -34.5280 C   0  0  0  0  0  0  0  0  0  0  0  0
   -3.2870   18.7900  -34.0270 C   0  0  0  0  0  0  0  0  0  0  0  0
   -6.9770   20.1870  -32.4660 C   0  0  0  0  0  0  0  0  0  0  0  0
   -8.1720   19.6550  -31.9580 C   0  0  0  0  0  0  0  0  0  0  0  0
   -9.0970   20.5280  -31.3590 C   0  0  0  0  0  0  0  0  0  0  0  0
   -8.8080   21.8990  -31.2300 C   0  0  0  0  0  0  0  0  0  0  0  0
   -7.5790   22.4060  -31.6770 C   0  0  0  0  0  0  0  0  0  0  0  0
   -6.6820   21.5270  -32.2800 C   0  0  0  0  0  0  0  0  0  0  0  0
   -5.3140   21.7660  -32.7050 C   0  0  0  0  0  0  0  0  0  0  0  0
   -4.7350   22.8840  -32.7130 O   0  0  0  0  0  0  0  0  0  0  0  0
   -5.8062   25.1395  -28.7924 H   0  0  0  0  0  0  0  0  0  0  0  0
   -7.1685   25.3714  -29.9400 H   0  0  0  0  0  0  0  0  0  0  0  0
   -6.2467   23.8297  -29.9400 H   0  0  0  0  0  0  0  0  0  0  0  0
   -5.3998   25.0289  -31.8116 H   0  0  0  0  0  0  0  0  0  0  0  0
   -5.3646   26.5831  -30.8998 H   0  0  0  0  0  0  0  0  0  0  0  0
   -4.1725   25.2171  -28.4093 H   0  0  0  0  0  0  0  0  0  0  0  0
   -4.4419   23.6553  -29.2744 H   0  0  0  0  0  0  0  0  0  0  0  0
   -1.7683   24.1911  -29.8092 H   0  0  0  0  0  0  0  0  0  0  0  0
   -1.9575   24.7893  -28.1258 H   0  0  0  0  0  0  0  0  0  0  0  0
   -3.8718   21.4265  -28.0576 H   0  0  0  0  0  0  0  0  0  0  0  0
   -4.3326   22.8480  -29.0610 H   0  0  0  0  0  0  0  0  0  0  0  0
   -2.6307   20.4391  -29.8650 H   0  0  0  0  0  0  0  0  0  0  0  0
   -4.1932   20.9934  -30.5727 H   0  0  0  0  0  0  0  0  0  0  0  0
   -3.1170   22.3030  -31.9270 H   0  0  0  0  0  0  0  0  0  0  0  0
   -0.5089   22.3796  -31.6749 H   0  0  0  0  0  0  0  0  0  0  0  0
   -0.8918   20.9069  -30.6701 H   0  0  0  0  0  0  0  0  0  0  0  0
   -0.3768   20.7798  -33.3219 H   0  0  0  0  0  0  0  0  0  0  0  0
   -1.5083   19.6580  -32.4538 H   0  0  0  0  0  0  0  0  0  0  0  0
   -2.0810   21.2550  -34.6070 H   0  0  0  0  0  0  0  0  0  0  0  0
   -2.7960   22.0590  -33.3570 H   0  0  0  0  0  0  0  0  0  0  0  0
   -7.2295   17.1210  -32.7906 H   0  0  0  0  0  0  0  0  0  0  0  0
   -7.5823   17.9738  -34.3317 H   0  0  0  0  0  0  0  0  0  0  0  0
   -6.5323   16.5163  -34.3317 H   0  0  0  0  0  0  0  0  0  0  0  0
   -4.9138   15.7515  -34.1615 H   0  0  0  0  0  0  0  0  0  0  0  0
   -2.6831   15.0361  -34.9807 H   0  0  0  0  0  0  0  0  0  0  0  0
   -0.8608   16.6988  -35.2712 H   0  0  0  0  0  0  0  0  0  0  0  0
   -1.2179   19.0727  -34.6430 H   0  0  0  0  0  0  0  0  0  0  0  0
   -8.3807   18.5772  -32.0270 H   0  0  0  0  0  0  0  0  0  0  0  0
  -10.0553   20.1357  -30.9878 H   0  0  0  0  0  0  0  0  0  0  0  0
   -9.5481   22.5752  -30.7772 H   0  0  0  0  0  0  0  0  0  0  0  0
   -7.3298   23.4704  -31.5546 H   0  0  0  0  0  0  0  0  0  0  0  0
  1  2  1  0
  2  3  1  0
  3  4  1  0
  4  5  1  0
  5  6  1  0
  6  7  1  0
  7  8  1  0
  8  9  1  0
  9 10  1  0
 10 11  1  0
 11 12  1  0
 12 13  1  0
 13 14  2  0
 14 15  1  0
 15 16  2  0
 16 17  1  0
 16 18  1  0
 18 19  2  0
 19 20  1  0
 20 21  2  0
 21 22  1  0
 22 23  2  0
 15 24  1  0
 24 25  2  0
 25 26  1  0
 26 27  2  0
 27 28  1  0
 28 29  2  0
 29 30  1  0
 30 31  2  0
 23 13  1  0
 29 24  1  0
 30 14  1  0
 23 18  1  0
  1 32  1  0
  1 33  1  0
  1 34  1  0
  2 35  1  0
  2 36  1  0
  4 37  1  0
  4 38  1  0
  5 39  1  0
  5 40  1  0
  7 41  1  0
  7 42  1  0
  8 43  1  0
  8 44  1  0
  9 45  1  0
 10 46  1  0
 10 47  1  0
 11 48  1  0
 11 49  1  0
 12 50  1  0
 12 51  1  0
 17 52  1  0
 17 53  1  0
 17 54  1  0
 19 55  1  0
 20 56  1  0
 21 57  1  0
 22 58  1  0
 25 59  1  0
 26 60  1  0
 27 61  1  0
 28 62  1  0
M  CHG  2  12   1  16   1
M  END
>  <UniqueID>  (12) 
12

>  <SMILES>  (12) 
CCOCCOCCNCC[NH2+]c1c2c([n+](C)c3ccccc13)-c1ccccc1C2=O

>  <Energy>  (12) 
118.79819318295316

>  <Genealogy>  (12) 
CCOCCOCCNCC[NH2+]c1c2c([n+](C)c3ccccc13)-c1ccccc1C2=O (protonated)
CCOCCOCCNCC[NH2+]c1c2c([n+](C)c3ccccc13)-c1ccccc1C2=O (3D coordinates assigned)
CCOCCOCCNCC[NH2+]c1c2c([n+](C)c3ccccc13)-c1ccccc1C2=O (nonaromatic ring conformer: 118.79819318295316 kcal/mol)

>  <smiles>  (12) 
CCOCCOCCNCCNc1c2c([n+](C)c3ccccc13)-c1ccccc1C2=O

>  <score_type>  (12) 
oracle

>  <origin>  (12) 
adg

>  <m_score__min__energy>  (12) 
-9.3300000000000001

>  <m_primary>  (12) 
energy

$$$$
13:0
     RDKit          3D

 48 51  0  0  0  0  0  0  0  0999 V2000
   -2.9530   23.0920  -30.4400 C   0  0  0  0  0  0  0  0  0  0  0  0
   -3.7300   24.1990  -29.7440 C   0  0  0  0  0  0  0  0  0  0  0  0
   -3.8600   25.2950  -30.6250 O   0  0  0  0  0  0  0  0  0  0  0  0
   -5.2260   25.6160  -30.8210 C   0  0  0  0  0  0  0  0  0  0  0  0
   -6.1130   24.4070  -30.5090 C   0  0  0  0  0  0  0  0  0  0  0  0
   -6.1610   23.5110  -31.6170 O   0  0  0  0  0  0  0  0  0  0  0  0
   -7.1640   22.5540  -31.8450 C   0  0  0  0  0  0  0  0  0  0  0  0
   -8.5340   22.7700  -31.5610 C   0  0  0  0  0  0  0  0  0  0  0  0
   -9.4890   21.7580  -31.8110 C   0  0  0  0  0  0  0  0  0  0  0  0
   -9.0980   20.5170  -32.3470 C   0  0  0  0  0  0  0  0  0  0  0  0
   -7.7480   20.3210  -32.6190 C   0  0  0  0  0  0  0  0  0  0  0  0
   -7.1790   19.2430  -33.1270 O   0  0  0  0  0  0  0  0  0  0  0  0
   -5.8880   19.5060  -33.2180 C   0  0  0  0  0  0  0  0  0  0  0  0
   -4.8440   18.7090  -33.7000 C   0  0  0  0  0  0  0  0  0  0  0  0
   -5.0440   17.3600  -34.1850 N   0  0  0  0  0  0  0  0  0  0  0  0
   -3.9970   16.6850  -34.9690 C   0  0  0  0  0  0  0  0  0  0  0  0
   -3.5970   15.3580  -34.3060 C   0  0  0  0  0  0  0  0  0  0  0  0
   -4.7910   14.5930  -33.6940 C   0  0  0  0  0  0  0  0  0  0  0  0
   -6.1440   15.1210  -34.1830 C   0  0  0  0  0  0  0  0  0  0  0  0
   -6.2780   16.6180  -33.8670 C   0  0  0  0  0  0  0  0  0  0  0  0
   -3.5910   19.2640  -33.6920 N   0  0  0  0  0  0  0  0  0  0  0  0
   -3.3550   20.5350  -33.2380 C   0  0  0  0  0  0  0  0  0  0  0  0
   -1.7280   21.1780  -33.2620 Cl  0  0  0  0  0  0  0  0  0  0  0  0
   -4.3790   21.3040  -32.7650 N   0  0  0  0  0  0  0  0  0  0  0  0
   -5.6220   20.7700  -32.7650 C   0  0  0  0  0  0  0  0  0  0  0  0
   -6.8170   21.3100  -32.3700 C   0  0  0  0  0  0  0  0  0  0  0  0
   -2.4931   22.4367  -29.6856 H   0  0  0  0  0  0  0  0  0  0  0  0
   -3.6371   22.5034  -31.0689 H   0  0  0  0  0  0  0  0  0  0  0  0
   -2.1669   23.5353  -31.0689 H   0  0  0  0  0  0  0  0  0  0  0  0
   -4.7280   23.8297  -29.4653 H   0  0  0  0  0  0  0  0  0  0  0  0
   -3.1945   24.5140  -28.8362 H   0  0  0  0  0  0  0  0  0  0  0  0
   -5.5011   26.4477  -30.1558 H   0  0  0  0  0  0  0  0  0  0  0  0
   -5.3757   25.9044  -31.8719 H   0  0  0  0  0  0  0  0  0  0  0  0
   -5.7055   23.8775  -29.6352 H   0  0  0  0  0  0  0  0  0  0  0  0
   -7.1326   24.7638  -30.3014 H   0  0  0  0  0  0  0  0  0  0  0  0
   -8.8584   23.7340  -31.1420 H   0  0  0  0  0  0  0  0  0  0  0  0
  -10.5494   21.9427  -31.5840 H   0  0  0  0  0  0  0  0  0  0  0  0
   -9.8369   19.7265  -32.5447 H   0  0  0  0  0  0  0  0  0  0  0  0
   -4.3767   16.4834  -35.9815 H   0  0  0  0  0  0  0  0  0  0  0  0
   -3.1132   17.3381  -35.0175 H   0  0  0  0  0  0  0  0  0  0  0  0
   -3.1249   14.7173  -35.0654 H   0  0  0  0  0  0  0  0  0  0  0  0
   -2.9105   15.6012  -33.4816 H   0  0  0  0  0  0  0  0  0  0  0  0
   -4.7071   13.5313  -33.9691 H   0  0  0  0  0  0  0  0  0  0  0  0
   -4.7531   14.7346  -32.6038 H   0  0  0  0  0  0  0  0  0  0  0  0
   -6.2205   14.9714  -35.2701 H   0  0  0  0  0  0  0  0  0  0  0  0
   -6.9483   14.5736  -33.6697 H   0  0  0  0  0  0  0  0  0  0  0  0
   -7.1058   17.0339  -34.4601 H   0  0  0  0  0  0  0  0  0  0  0  0
   -6.4705   16.7229  -32.7891 H   0  0  0  0  0  0  0  0  0  0  0  0
  1  2  1  0
  2  3  1  0
  3  4  1  0
  4  5  1  0
  5  6  1  0
  6  7  1  0
  7  8  2  0
  8  9  1  0
  9 10  2  0
 10 11  1  0
 11 12  1  0
 12 13  1  0
 13 14  2  0
 14 15  1  0
 15 16  1  0
 16 17  1  0
 17 18  1  0
 18 19  1  0
 19 20  1  0
 14 21  1  0
 21 22  2  0
 22 23  1  0
 22 24  1  0
 24 25  2  0
 25 26  1  0
 26  7  1  0
 26 11  2  0
 25 13  1  0
 20 15  1  0
  1 27  1  0
  1 28  1  0
  1 29  1  0
  2 30  1  0
  2 31  1  0
  4 32  1  0
  4 33  1  0
  5 34  1  0
  5 35  1  0
  8 36  1  0
  9 37  1  0
 10 38  1  0
 16 39  1  0
 16 40  1  0
 17 41  1  0
 17 42  1  0
 18 43  1  0
 18 44  1  0
 19 45  1  0
 19 46  1  0
 20 47  1  0
 20 48  1  0
M  END
>  <UniqueID>  (13) 
13

>  <SMILES>  (13) 
CCOCCOc1cccc2oc3c(N4CCCCC4)nc(Cl)nc3c12

>  <Energy>  (13) 
96.90227298118198

>  <Genealogy>  (13) 
CCOCCOc1cccc2oc3c(N4CCCCC4)nc(Cl)nc3c12 (3D coordinates assigned)
CCOCCOc1cccc2oc3c(N4CCCCC4)nc(Cl)nc3c12 (nonaromatic ring conformer: 96.90227298118198 kcal/mol)

>  <smiles>  (13) 
CCOCCOc1cccc2oc3c(N4CCCCC4)nc(Cl)nc3c12

>  <score_type>  (13) 
oracle

>  <origin>  (13) 
adg

>  <m_score__min__energy>  (13) 
-8.75

>  <m_primary>  (13) 
energy

$$$$
14:0
     RDKit          3D

 41 43  0  0  0  0  0  0  0  0999 V2000
   -2.0550   21.1630  -27.2070 C   0  0  0  0  0  0  0  0  0  0  0  0
   -2.2050   22.4270  -27.9260 C   0  0  0  0  0  0  0  0  0  0  0  0
   -2.3250   23.4690  -28.5210 C   0  0  0  0  0  0  0  0  0  0  0  0
   -2.4740   24.7100  -29.2350 C   0  0  0  0  0  0  0  0  0  0  0  0
   -1.7020   25.6680  -28.9750 O   0  0  0  0  0  0  0  0  0  0  0  0
   -3.4860   24.8730  -30.2330 N   0  0  0  0  0  0  0  0  0  0  0  0
   -4.1990   23.7570  -30.8410 C   0  0  0  0  0  0  0  0  0  0  0  0
   -5.7040   24.0360  -30.8240 C   0  0  0  0  0  0  0  0  0  0  0  0
   -6.3580   23.7890  -32.1930 C   0  0  0  0  0  0  0  0  0  0  0  0
   -7.0810   22.4530  -32.2560 C   0  0  0  0  0  0  0  0  0  0  0  0
   -8.4550   22.4250  -31.9750 C   0  0  0  0  0  0  0  0  0  0  0  0
   -9.1280   23.5580  -31.6450 F   0  0  0  0  0  0  0  0  0  0  0  0
   -9.1530   21.2280  -32.0390 C   0  0  0  0  0  0  0  0  0  0  0  0
   -8.5250   20.0750  -32.3760 N   0  0  0  0  0  0  0  0  0  0  0  0
   -7.1840   20.0290  -32.6700 C   0  0  0  0  0  0  0  0  0  0  0  0
   -6.4300   21.2400  -32.6190 C   0  0  0  0  0  0  0  0  0  0  0  0
   -5.0570   21.2080  -32.9290 C   0  0  0  0  0  0  0  0  0  0  0  0
   -4.4280   20.0220  -33.2800 C   0  0  0  0  0  0  0  0  0  0  0  0
   -5.1430   18.8260  -33.3330 C   0  0  0  0  0  0  0  0  0  0  0  0
   -4.4730   17.6430  -33.6900 C   0  0  0  0  0  0  0  0  0  0  0  0
   -5.1610   16.4350  -33.7500 C   0  0  0  0  0  0  0  0  0  0  0  0
   -6.5210   16.3920  -33.4540 C   0  0  0  0  0  0  0  0  0  0  0  0
   -7.2030   17.5580  -33.0970 C   0  0  0  0  0  0  0  0  0  0  0  0
   -6.5320   18.8060  -33.0280 C   0  0  0  0  0  0  0  0  0  0  0  0
   -2.0775   21.3525  -26.1237 H   0  0  0  0  0  0  0  0  0  0  0  0
   -2.8792   20.4869  -27.4782 H   0  0  0  0  0  0  0  0  0  0  0  0
   -1.0954   20.6986  -27.4782 H   0  0  0  0  0  0  0  0  0  0  0  0
   -3.8622   23.6306  -31.8805 H   0  0  0  0  0  0  0  0  0  0  0  0
   -3.9921   22.8388  -30.2717 H   0  0  0  0  0  0  0  0  0  0  0  0
   -6.1777   23.3770  -30.0815 H   0  0  0  0  0  0  0  0  0  0  0  0
   -5.8471   25.0964  -30.5688 H   0  0  0  0  0  0  0  0  0  0  0  0
   -7.0830   24.5928  -32.3886 H   0  0  0  0  0  0  0  0  0  0  0  0
   -5.5592   23.7747  -32.9492 H   0  0  0  0  0  0  0  0  0  0  0  0
  -10.2295   21.2143  -31.8135 H   0  0  0  0  0  0  0  0  0  0  0  0
   -9.1310   19.2320  -32.3970 H   0  0  0  0  0  0  0  0  0  0  0  0
   -4.4728   22.1393  -32.8923 H   0  0  0  0  0  0  0  0  0  0  0  0
   -3.3543   20.0253  -33.5189 H   0  0  0  0  0  0  0  0  0  0  0  0
   -3.3984   17.6724  -33.9233 H   0  0  0  0  0  0  0  0  0  0  0  0
   -4.6303   15.5135  -34.0314 H   0  0  0  0  0  0  0  0  0  0  0  0
   -7.0612   15.4350  -33.5015 H   0  0  0  0  0  0  0  0  0  0  0  0
   -8.2772   17.5075  -32.8658 H   0  0  0  0  0  0  0  0  0  0  0  0
  1  2  1  0
  2  3  3  0
  3  4  1  0
  4  5  2  0
  4  6  1  0
  6  7  1  0
  7  8  1  0
  8  9  1  0
  9 10  1  0
 10 11  2  0
 11 12  1  0
 11 13  1  0
 13 14  2  0
 14 15  1  0
 15 16  2  0
 16 17  1  0
 17 18  2  0
 18 19  1  0
 19 20  2  0
 20 21  1  0
 21 22  2  0
 22 23  1  0
 23 24  2  0
 16 10  1  0
 24 19  1  0
 24 15  1  0
  1 25  1  0
  1 26  1  0
  1 27  1  0
  7 28  1  0
  7 29  1  0
  8 30  1  0
  8 31  1  0
  9 32  1  0
  9 33  1  0
 13 34  1  0
 14 35  1  0
 17 36  1  0
 18 37  1  0
 20 38  1  0
 21 39  1  0
 22 40  1  0
 23 41  1  0
M  CHG  2   6  -1  14   1
M  END
>  <UniqueID>  (14) 
14

>  <SMILES>  (14) 
CC#CC(=O)[N-]CCCc1c(F)c[nH+]c2c1ccc1ccccc12

>  <Energy>  (14) 
46.14613344305137

>  <Genealogy>  (14) 
CC#CC(=O)[N-]CCCc1c(F)c[nH+]c2c1ccc1ccccc12 (protonated)
CC#CC(=O)[N-]CCCc1c(F)c[nH+]c2c1ccc1ccccc12 (3D coordinates assigned)
CC#CC(=O)[N-]CCCc1c(F)c[nH+]c2c1ccc1ccccc12 (optimized conformer: 46.14613344305137 kcal/mol)

>  <smiles>  (14) 
CC#CC(=O)NCCCc1c(F)cnc2c1ccc1ccccc12

>  <score_type>  (14) 
oracle

>  <origin>  (14) 
adg

>  <m_score__min__energy>  (14) 
-9.8699999999999992

>  <m_primary>  (14) 
energy

$$$$
15:0
     RDKit          3D

 52 54  0  0  0  0  0  0  0  0999 V2000
   -2.3300   18.4530  -33.2830 C   0  0  0  0  0  0  0  0  0  0  0  0
   -3.0290   19.4420  -34.2230 C   0  0  0  0  0  0  0  0  0  0  0  0
   -2.4170   20.7840  -34.1780 N   0  0  0  0  0  0  0  0  0  0  0  0
   -1.7350   21.0680  -32.8980 C   0  0  0  0  0  0  0  0  0  0  0  0
   -2.5840   21.9290  -31.9460 C   0  0  0  0  0  0  0  0  0  0  0  0
   -3.6410   21.1410  -31.3080 N   0  0  0  0  0  0  0  0  0  0  0  0
   -5.0270   21.5160  -31.4130 C   0  0  0  0  0  0  0  0  0  0  0  0
   -5.4440   22.8000  -31.0180 C   0  0  0  0  0  0  0  0  0  0  0  0
   -4.5110   23.7590  -30.5700 C   0  0  0  0  0  0  0  0  0  0  0  0
   -4.9350   25.0050  -30.1120 C   0  0  0  0  0  0  0  0  0  0  0  0
   -6.2880   25.3130  -30.0890 C   0  0  0  0  0  0  0  0  0  0  0  0
   -7.2250   24.3970  -30.5640 C   0  0  0  0  0  0  0  0  0  0  0  0
   -6.8220   23.1400  -31.0850 C   0  0  0  0  0  0  0  0  0  0  0  0
   -7.7300   22.2540  -31.6360 N   0  0  0  0  0  0  0  0  0  0  0  0
   -9.0990   22.7110  -31.9670 C   0  0  0  0  0  0  0  0  0  0  0  0
   -7.3490   20.9550  -31.9170 C   0  0  0  0  0  0  0  0  0  0  0  0
   -8.2970   19.9560  -32.2460 C   0  0  0  0  0  0  0  0  0  0  0  0
   -7.9010   18.6630  -32.5770 C   0  0  0  0  0  0  0  0  0  0  0  0
   -6.5460   18.3050  -32.5840 C   0  0  0  0  0  0  0  0  0  0  0  0
   -6.1380   16.9580  -32.9310 N   0  0  0  0  0  0  0  0  0  0  0  0
   -6.5130   16.3780  -34.2250 C   0  0  0  0  0  0  0  0  0  0  0  0
   -5.3590   16.1500  -31.9860 C   0  0  0  0  0  0  0  0  0  0  0  0
   -5.5970   19.2740  -32.2230 C   0  0  0  0  0  0  0  0  0  0  0  0
   -5.9810   20.5830  -31.8590 C   0  0  0  0  0  0  0  0  0  0  0  0
   -2.5298   18.7357  -32.2389 H   0  0  0  0  0  0  0  0  0  0  0  0
   -2.7128   17.4384  -33.4678 H   0  0  0  0  0  0  0  0  0  0  0  0
   -1.2459   18.4752  -33.4678 H   0  0  0  0  0  0  0  0  0  0  0  0
   -2.9649   19.0581  -35.2518 H   0  0  0  0  0  0  0  0  0  0  0  0
   -4.0745   19.5373  -33.8947 H   0  0  0  0  0  0  0  0  0  0  0  0
   -3.1550   21.5090  -34.3380 H   0  0  0  0  0  0  0  0  0  0  0  0
   -1.7410   20.8680  -34.9710 H   0  0  0  0  0  0  0  0  0  0  0  0
   -1.5096   20.1130  -32.4008 H   0  0  0  0  0  0  0  0  0  0  0  0
   -0.8209   21.6345  -33.1293 H   0  0  0  0  0  0  0  0  0  0  0  0
   -1.9315   22.3493  -31.1665 H   0  0  0  0  0  0  0  0  0  0  0  0
   -3.0573   22.7292  -32.5340 H   0  0  0  0  0  0  0  0  0  0  0  0
   -3.3750   20.4100  -30.6100 H   0  0  0  0  0  0  0  0  0  0  0  0
   -3.4372   23.5205  -30.5824 H   0  0  0  0  0  0  0  0  0  0  0  0
   -4.1969   25.7448  -29.7685 H   0  0  0  0  0  0  0  0  0  0  0  0
   -6.6222   26.2838  -29.6944 H   0  0  0  0  0  0  0  0  0  0  0  0
   -8.2945   24.6526  -30.5345 H   0  0  0  0  0  0  0  0  0  0  0  0
   -9.6579   22.8976  -31.0381 H   0  0  0  0  0  0  0  0  0  0  0  0
   -9.0437   23.6394  -32.5544 H   0  0  0  0  0  0  0  0  0  0  0  0
   -9.6124   21.9355  -32.5544 H   0  0  0  0  0  0  0  0  0  0  0  0
   -9.3681   20.2066  -32.2399 H   0  0  0  0  0  0  0  0  0  0  0  0
   -8.6619   17.9122  -32.8365 H   0  0  0  0  0  0  0  0  0  0  0  0
   -7.1035   15.4647  -34.0601 H   0  0  0  0  0  0  0  0  0  0  0  0
   -7.1126   17.1048  -34.7926 H   0  0  0  0  0  0  0  0  0  0  0  0
   -5.6041   16.1295  -34.7926 H   0  0  0  0  0  0  0  0  0  0  0  0
   -5.6279   16.4290  -30.9565 H   0  0  0  0  0  0  0  0  0  0  0  0
   -5.5791   15.0843  -32.1465 H   0  0  0  0  0  0  0  0  0  0  0  0
   -4.2859   16.3310  -32.1465 H   0  0  0  0  0  0  0  0  0  0  0  0
   -4.5298   19.0075  -32.2237 H   0  0  0  0  0  0  0  0  0  0  0  0
  1  2  1  0
  2  3  1  0
  3  4  1  0
  4  5  1  0
  5  6  1  0
  6  7  1  0
  7  8  2  0
  8  9  1  0
  9 10  2  0
 10 11  1  0
 11 12  2  0
 12 13  1  0
 13 14  2  0
 14 15  1  0
 14 16  1  0
 16 17  2  0
 17 18  1  0
 18 19  2  0
 19 20  1  0
 20 21  1  0
 20 22  1  0
 19 23  1  0
 23 24  2  0
 24  7  1  0
 13  8  1  0
 24 16  1  0
  1 25  1  0
  1 26  1  0
  1 27  1  0
  2 28  1  0
  2 29  1  0
  3 30  1  0
  3 31  1  0
  4 32  1  0
  4 33  1  0
  5 34  1  0
  5 35  1  0
  6 36  1  0
  9 37  1  0
 10 38  1  0
 11 39  1  0
 12 40  1  0
 15 41  1  0
 15 42  1  0
 15 43  1  0
 17 44  1  0
 18 45  1  0
 21 46  1  0
 21 47  1  0
 21 48  1  0
 22 49  1  0
 22 50  1  0
 22 51  1  0
 23 52  1  0
M  CHG  2   3   1  14   1
M  END
>  <UniqueID>  (15) 
15

>  <SMILES>  (15) 
CC[NH2+]CCNc1c2ccccc2[n+](C)c2ccc(N(C)C)cc12

>  <Energy>  (15) 
78.91730370594878

>  <Genealogy>  (15) 
CC[NH2+]CCNc1c2ccccc2[n+](C)c2ccc(N(C)C)cc12 (protonated)
CC[NH2+]CCNc1c2ccccc2[n+](C)c2ccc(N(C)C)cc12 (3D coordinates assigned)
CC[NH2+]CCNc1c2ccccc2[n+](C)c2ccc(N(C)C)cc12 (optimized conformer: 78.91730370594878 kcal/mol)

>  <smiles>  (15) 
CCNCCNc1c2ccccc2[n+](C)c2ccc(N(C)C)cc12

>  <score_type>  (15) 
oracle

>  <origin>  (15) 
adg

>  <m_score__min__energy>  (15) 
-7.4699999999999998

>  <m_primary>  (15) 
energy

$$$$
16:0
     RDKit          3D

 54 55  0  0  0  0  0  0  0  0999 V2000
   -0.4530   25.8860  -36.6540 C   0  0  0  0  0  0  0  0  0  0  0  0
    0.8940   25.8320  -37.3610 C   0  0  0  0  0  0  0  0  0  0  0  0
    1.4490   24.5370  -37.2360 O   0  0  0  0  0  0  0  0  0  0  0  0
    2.2690   24.4530  -36.0860 C   0  0  0  0  0  0  0  0  0  0  0  0
    2.2850   23.0100  -35.5720 C   0  0  0  0  0  0  0  0  0  0  0  0
    1.0230   22.6360  -35.0480 O   0  0  0  0  0  0  0  0  0  0  0  0
    0.8850   21.2290  -34.9650 C   0  0  0  0  0  0  0  0  0  0  0  0
   -0.5960   20.8300  -35.0110 C   0  0  0  0  0  0  0  0  0  0  0  0
   -0.9780   20.1740  -33.8140 O   0  0  0  0  0  0  0  0  0  0  0  0
   -0.5210   20.8990  -32.6890 C   0  0  0  0  0  0  0  0  0  0  0  0
   -1.7160   21.5340  -31.9750 C   0  0  0  0  0  0  0  0  0  0  0  0
   -2.8210   21.7520  -32.9120 N   0  0  0  0  0  0  0  0  0  0  0  0
   -4.1770   21.9190  -32.4730 C   0  0  0  0  0  0  0  0  0  0  0  0
   -5.1590   21.0350  -32.9390 C   0  0  0  0  0  0  0  0  0  0  0  0
   -4.7760   20.0260  -33.8380 O   0  0  0  0  0  0  0  0  0  0  0  0
   -5.5780   18.9010  -34.1820 C   0  0  0  0  0  0  0  0  0  0  0  0
   -6.4820   21.1630  -32.4810 C   0  0  0  0  0  0  0  0  0  0  0  0
   -6.8400   22.1580  -31.5550 C   0  0  0  0  0  0  0  0  0  0  0  0
   -8.1570   22.2570  -31.0680 O   0  0  0  0  0  0  0  0  0  0  0  0
   -9.2810   21.5700  -31.6100 C   0  0  0  0  0  0  0  0  0  0  0  0
   -5.8570   23.0750  -31.1110 C   0  0  0  0  0  0  0  0  0  0  0  0
   -6.1500   24.1300  -30.2090 C   0  0  0  0  0  0  0  0  0  0  0  0
   -7.3100   24.2950  -29.7410 O   0  0  0  0  0  0  0  0  0  0  0  0
   -5.1430   25.0190  -29.8260 C   0  0  0  0  0  0  0  0  0  0  0  0
   -3.8560   24.8670  -30.3370 C   0  0  0  0  0  0  0  0  0  0  0  0
   -3.5800   23.8490  -31.1880 N   0  0  0  0  0  0  0  0  0  0  0  0
   -4.5230   22.9500  -31.5830 C   0  0  0  0  0  0  0  0  0  0  0  0
   -0.2962   25.8797  -35.5653 H   0  0  0  0  0  0  0  0  0  0  0  0
   -0.9821   26.8061  -36.9429 H   0  0  0  0  0  0  0  0  0  0  0  0
   -1.0541   25.0112  -36.9429 H   0  0  0  0  0  0  0  0  0  0  0  0
    0.7571   26.0694  -38.4263 H   0  0  0  0  0  0  0  0  0  0  0  0
    1.5745   26.5646  -36.9026 H   0  0  0  0  0  0  0  0  0  0  0  0
    3.2931   24.7617  -36.3430 H   0  0  0  0  0  0  0  0  0  0  0  0
    1.8707   25.1156  -35.3035 H   0  0  0  0  0  0  0  0  0  0  0  0
    2.5418   22.3365  -36.4029 H   0  0  0  0  0  0  0  0  0  0  0  0
    3.0308   22.9366  -34.7667 H   0  0  0  0  0  0  0  0  0  0  0  0
    1.4117   20.7632  -35.8109 H   0  0  0  0  0  0  0  0  0  0  0  0
    1.3165   20.8850  -34.0134 H   0  0  0  0  0  0  0  0  0  0  0  0
   -1.2093   21.7342  -35.1382 H   0  0  0  0  0  0  0  0  0  0  0  0
   -0.7496   20.1413  -35.8549 H   0  0  0  0  0  0  0  0  0  0  0  0
   -0.0011   20.2176  -31.9995 H   0  0  0  0  0  0  0  0  0  0  0  0
    0.1730   21.6871  -33.0165 H   0  0  0  0  0  0  0  0  0  0  0  0
   -2.0523   20.8654  -31.1688 H   0  0  0  0  0  0  0  0  0  0  0  0
   -1.4062   22.5046  -31.5604 H   0  0  0  0  0  0  0  0  0  0  0  0
   -2.6470   21.5730  -33.9270 H   0  0  0  0  0  0  0  0  0  0  0  0
   -5.9300   18.4072  -33.2642 H   0  0  0  0  0  0  0  0  0  0  0  0
   -6.4431   19.2347  -34.7738 H   0  0  0  0  0  0  0  0  0  0  0  0
   -4.9805   18.1919  -34.7738 H   0  0  0  0  0  0  0  0  0  0  0  0
   -7.2516   20.4714  -32.8544 H   0  0  0  0  0  0  0  0  0  0  0  0
   -9.9070   21.1874  -30.7904 H   0  0  0  0  0  0  0  0  0  0  0  0
   -9.8704   22.2624  -32.2291 H   0  0  0  0  0  0  0  0  0  0  0  0
   -8.9336   20.7297  -32.2291 H   0  0  0  0  0  0  0  0  0  0  0  0
   -5.3654   25.8359  -29.1237 H   0  0  0  0  0  0  0  0  0  0  0  0
   -3.0634   25.5736  -30.0497 H   0  0  0  0  0  0  0  0  0  0  0  0
  1  2  1  0
  2  3  1  0
  3  4  1  0
  4  5  1  0
  5  6  1  0
  6  7  1  0
  7  8  1  0
  8  9  1  0
  9 10  1  0
 10 11  1  0
 11 12  1  0
 12 13  1  0
 13 14  2  0
 14 15  1  0
 15 16  1  0
 14 17  1  0
 17 18  2  0
 18 19  1  0
 19 20  1  0
 18 21  1  0
 21 22  1  0
 22 23  2  0
 22 24  1  0
 24 25  2  0
 25 26  1  0
 26 27  1  0
 27 13  1  0
 27 21  2  0
  1 28  1  0
  1 29  1  0
  1 30  1  0
  2 31  1  0
  2 32  1  0
  4 33  1  0
  4 34  1  0
  5 35  1  0
  5 36  1  0
  7 37  1  0
  7 38  1  0
  8 39  1  0
  8 40  1  0
 10 41  1  0
 10 42  1  0
 11 43  1  0
 11 44  1  0
 12 45  1  0
 16 46  1  0
 16 47  1  0
 16 48  1  0
 17 49  1  0
 20 50  1  0
 20 51  1  0
 20 52  1  0
 24 53  1  0
 25 54  1  0
M  CHG  1  26  -1
M  END
>  <UniqueID>  (16) 
16

>  <SMILES>  (16) 
CCOCCOCCOCCNc1c(OC)cc(OC)c2c(=O)cc[n-]c12

>  <Energy>  (16) 
62.866405753488756

>  <Genealogy>  (16) 
CCOCCOCCOCCNc1c(OC)cc(OC)c2c(=O)cc[n-]c12 (protonated)
CCOCCOCCOCCNc1c(OC)cc(OC)c2c(=O)cc[n-]c12 (3D coordinates assigned)
CCOCCOCCOCCNc1c(OC)cc(OC)c2c(=O)cc[n-]c12 (optimized conformer: 62.866405753488756 kcal/mol)

>  <smiles>  (16) 
CCOCCOCCOCCNc1c(OC)cc(OC)c2c(=O)cc[nH]c12

>  <score_type>  (16) 
oracle

>  <origin>  (16) 
adg

>  <m_score__min__energy>  (16) 
-7.7400000000000002

>  <m_primary>  (16) 
energy

$$$$
17:0
     RDKit          3D

 53 55  0  0  0  0  0  0  0  0999 V2000
   -0.6210   21.6170  -30.4510 C   0  0  0  0  0  0  0  0  0  0  0  0
   -2.0170   21.5990  -29.8450 C   0  0  0  0  0  0  0  0  0  0  0  0
   -2.6190   22.8610  -30.0320 O   0  0  0  0  0  0  0  0  0  0  0  0
   -3.1920   23.3260  -28.8230 C   0  0  0  0  0  0  0  0  0  0  0  0
   -4.1910   24.4600  -29.0800 C   0  0  0  0  0  0  0  0  0  0  0  0
   -4.0930   24.9200  -30.4780 N   0  0  0  0  0  0  0  0  0  0  0  0
   -5.4020   25.2250  -31.0770 C   0  0  0  0  0  0  0  0  0  0  0  0
   -5.9290   24.0310  -31.8810 C   0  0  0  0  0  0  0  0  0  0  0  0
   -5.3510   22.7740  -31.4010 N   0  0  0  0  0  0  0  0  0  0  0  0
   -5.4920   21.5480  -32.1410 C   0  0  0  0  0  0  0  0  0  0  0  0
   -6.7080   20.8380  -32.1080 C   0  0  0  0  0  0  0  0  0  0  0  0
   -7.8230   21.3300  -31.3950 C   0  0  0  0  0  0  0  0  0  0  0  0
   -9.0090   20.6000  -31.3370 C   0  0  0  0  0  0  0  0  0  0  0  0
   -9.1070   19.3740  -31.9860 C   0  0  0  0  0  0  0  0  0  0  0  0
   -8.0260   18.8770  -32.7110 C   0  0  0  0  0  0  0  0  0  0  0  0
   -6.8110   19.6010  -32.7980 C   0  0  0  0  0  0  0  0  0  0  0  0
   -5.7370   19.1150  -33.5170 N   0  0  0  0  0  0  0  0  0  0  0  0
   -5.9880   18.1220  -34.5830 C   0  0  0  0  0  0  0  0  0  0  0  0
   -4.4880   19.6900  -33.3720 C   0  0  0  0  0  0  0  0  0  0  0  0
   -3.2750   19.0280  -33.7440 C   0  0  0  0  0  0  0  0  0  0  0  0
   -3.1560   17.5300  -33.8780 C   0  0  0  0  0  0  0  0  0  0  0  0
   -2.0850   19.7660  -33.8400 C   0  0  0  0  0  0  0  0  0  0  0  0
   -2.0510   21.1060  -33.4730 C   0  0  0  0  0  0  0  0  0  0  0  0
   -3.1800   21.7080  -32.9300 C   0  0  0  0  0  0  0  0  0  0  0  0
   -4.3880   20.9920  -32.8130 C   0  0  0  0  0  0  0  0  0  0  0  0
    0.1282   21.6267  -29.6457 H   0  0  0  0  0  0  0  0  0  0  0  0
   -0.4796   20.7206  -31.0727 H   0  0  0  0  0  0  0  0  0  0  0  0
   -0.5027   22.5167  -31.0727 H   0  0  0  0  0  0  0  0  0  0  0  0
   -2.6229   20.8253  -30.3392 H   0  0  0  0  0  0  0  0  0  0  0  0
   -1.9508   21.3762  -28.7698 H   0  0  0  0  0  0  0  0  0  0  0  0
   -3.7147   22.4928  -28.3305 H   0  0  0  0  0  0  0  0  0  0  0  0
   -2.3854   23.7124  -28.1826 H   0  0  0  0  0  0  0  0  0  0  0  0
   -5.2111   24.0957  -28.8883 H   0  0  0  0  0  0  0  0  0  0  0  0
   -3.9594   25.3004  -28.4092 H   0  0  0  0  0  0  0  0  0  0  0  0
   -3.6510   24.1570  -31.0470 H   0  0  0  0  0  0  0  0  0  0  0  0
   -6.1174   25.4635  -30.2762 H   0  0  0  0  0  0  0  0  0  0  0  0
   -5.2855   26.0818  -31.7570 H   0  0  0  0  0  0  0  0  0  0  0  0
   -7.0233   23.9848  -31.7795 H   0  0  0  0  0  0  0  0  0  0  0  0
   -5.6431   24.1665  -32.9345 H   0  0  0  0  0  0  0  0  0  0  0  0
   -4.6180   22.8260  -30.6580 H   0  0  0  0  0  0  0  0  0  0  0  0
   -7.7550   22.2996  -30.8799 H   0  0  0  0  0  0  0  0  0  0  0  0
   -9.8694   20.9946  -30.7766 H   0  0  0  0  0  0  0  0  0  0  0  0
  -10.0405   18.7951  -31.9268 H   0  0  0  0  0  0  0  0  0  0  0  0
   -8.1171   17.9080  -33.2236 H   0  0  0  0  0  0  0  0  0  0  0  0
   -6.2335   17.1507  -34.1289 H   0  0  0  0  0  0  0  0  0  0  0  0
   -6.8294   18.4583  -35.2067 H   0  0  0  0  0  0  0  0  0  0  0  0
   -5.0879   18.0181  -35.2067 H   0  0  0  0  0  0  0  0  0  0  0  0
   -3.1198   17.0741  -32.8776 H   0  0  0  0  0  0  0  0  0  0  0  0
   -4.0260   17.1407  -34.4271 H   0  0  0  0  0  0  0  0  0  0  0  0
   -2.2354   17.2830  -34.4271 H   0  0  0  0  0  0  0  0  0  0  0  0
   -1.1704   19.2791  -34.2093 H   0  0  0  0  0  0  0  0  0  0  0  0
   -1.1298   21.6907  -33.6124 H   0  0  0  0  0  0  0  0  0  0  0  0
   -3.1301   22.7525  -32.5886 H   0  0  0  0  0  0  0  0  0  0  0  0
  1  2  1  0
  2  3  1  0
  3  4  1  0
  4  5  1  0
  5  6  1  0
  6  7  1  0
  7  8  1  0
  8  9  1  0
  9 10  1  0
 10 11  2  0
 11 12  1  0
 12 13  2  0
 13 14  1  0
 14 15  2  0
 15 16  1  0
 16 17  2  0
 17 18  1  0
 17 19  1  0
 19 20  2  0
 20 21  1  0
 20 22  1  0
 22 23  2  0
 23 24  1  0
 24 25  2  0
 25 10  1  0
 16 11  1  0
 25 19  1  0
  1 26  1  0
  1 27  1  0
  1 28  1  0
  2 29  1  0
  2 30  1  0
  4 31  1  0
  4 32  1  0
  5 33  1  0
  5 34  1  0
  6 35  1  0
  7 36  1  0
  7 37  1  0
  8 38  1  0
  8 39  1  0
  9 40  1  0
 12 41  1  0
 13 42  1  0
 14 43  1  0
 15 44  1  0
 18 45  1  0
 18 46  1  0
 18 47  1  0
 21 48  1  0
 21 49  1  0
 21 50  1  0
 22 51  1  0
 23 52  1  0
 24 53  1  0
M  CHG  1  17   1
M  END
>  <UniqueID>  (17) 
17

>  <SMILES>  (17) 
CCOCCNCCNc1c2ccccc2[n+](C)c2c(C)cccc12

>  <Energy>  (17) 
81.09808566022438

>  <Genealogy>  (17) 
CCOCCNCCNc1c2ccccc2[n+](C)c2c(C)cccc12 (3D coordinates assigned)
CCOCCNCCNc1c2ccccc2[n+](C)c2c(C)cccc12 (optimized conformer: 81.09808566022438 kcal/mol)

>  <smiles>  (17) 
CCOCCNCCNc1c2ccccc2[n+](C)c2c(C)cccc12

>  <score_type>  (17) 
oracle

>  <origin>  (17) 
adg

>  <m_score__min__energy>  (17) 
-9.1300000000000008

>  <m_primary>  (17) 
energy

$$$$
18:0
     RDKit          3D

 44 46  0  0  0  0  0  0  0  0999 V2000
   -2.7860   24.8070  -26.8790 C   0  0  0  0  0  0  0  0  0  0  0  0
   -4.2310   24.5490  -27.3260 C   0  0  0  0  0  0  0  0  0  0  0  0
   -4.3740   23.5340  -28.3990 N   0  0  0  0  0  0  0  0  0  0  0  0
   -3.1290   22.7570  -28.6110 C   0  0  0  0  0  0  0  0  0  0  0  0
   -3.1540   21.4040  -27.8930 C   0  0  0  0  0  0  0  0  0  0  0  0
   -5.0210   24.2190  -29.8880 S   0  0  0  0  0  0  0  0  0  0  0  0
   -3.9230   24.9320  -30.6270 O   0  0  0  0  0  0  0  0  0  0  0  0
   -6.0640   25.2440  -29.5410 O   0  0  0  0  0  0  0  0  0  0  0  0
   -5.7630   23.0350  -30.9770 C   0  0  0  0  0  0  0  0  0  0  0  0
   -7.1550   23.0850  -31.2490 C   0  0  0  0  0  0  0  0  0  0  0  0
   -7.7590   22.1360  -32.0940 C   0  0  0  0  0  0  0  0  0  0  0  0
   -6.9550   21.1370  -32.6340 C   0  0  0  0  0  0  0  0  0  0  0  0
   -7.3310   20.1450  -33.4650 N   0  0  0  0  0  0  0  0  0  0  0  0
   -6.2020   19.4450  -33.7150 C   0  0  0  0  0  0  0  0  0  0  0  0
   -5.1250   19.9660  -33.0180 C   0  0  0  0  0  0  0  0  0  0  0  0
   -5.6130   21.0630  -32.3450 C   0  0  0  0  0  0  0  0  0  0  0  0
   -4.9850   21.9880  -31.5160 C   0  0  0  0  0  0  0  0  0  0  0  0
   -3.7180   19.4650  -33.1350 C   0  0  0  0  0  0  0  0  0  0  0  0
   -3.7060   18.0380  -33.7200 C   0  0  0  0  0  0  0  0  0  0  0  0
   -4.6510   17.9080  -34.9340 C   0  0  0  0  0  0  0  0  0  0  0  0
   -6.1150   18.2030  -34.5510 C   0  0  0  0  0  0  0  0  0  0  0  0
   -2.7381   24.8155  -25.7801 H   0  0  0  0  0  0  0  0  0  0  0  0
   -2.1341   24.0110  -27.2682 H   0  0  0  0  0  0  0  0  0  0  0  0
   -2.4498   25.7794  -27.2682 H   0  0  0  0  0  0  0  0  0  0  0  0
   -4.8047   24.2073  -26.4519 H   0  0  0  0  0  0  0  0  0  0  0  0
   -4.6024   25.4970  -27.7423 H   0  0  0  0  0  0  0  0  0  0  0  0
   -5.1090   22.8730  -28.0520 H   0  0  0  0  0  0  0  0  0  0  0  0
   -3.0014   22.5820  -29.6895 H   0  0  0  0  0  0  0  0  0  0  0  0
   -2.2948   23.3413  -28.1953 H   0  0  0  0  0  0  0  0  0  0  0  0
   -3.1510   21.5662  -26.8050 H   0  0  0  0  0  0  0  0  0  0  0  0
   -4.0625   20.8537  -28.1792 H   0  0  0  0  0  0  0  0  0  0  0  0
   -2.2665   20.8206  -28.1792 H   0  0  0  0  0  0  0  0  0  0  0  0
   -7.7694   23.8756  -30.7935 H   0  0  0  0  0  0  0  0  0  0  0  0
   -8.8343   22.1824  -32.3209 H   0  0  0  0  0  0  0  0  0  0  0  0
   -8.2880   19.9580  -33.8380 H   0  0  0  0  0  0  0  0  0  0  0  0
   -3.9122   21.9053  -31.2873 H   0  0  0  0  0  0  0  0  0  0  0  0
   -3.1484   20.1337  -33.7972 H   0  0  0  0  0  0  0  0  0  0  0  0
   -3.2601   19.4461  -32.1350 H   0  0  0  0  0  0  0  0  0  0  0  0
   -2.6821   17.7921  -34.0379 H   0  0  0  0  0  0  0  0  0  0  0  0
   -4.0547   17.3456  -32.9396 H   0  0  0  0  0  0  0  0  0  0  0  0
   -4.3349   18.6209  -35.7098 H   0  0  0  0  0  0  0  0  0  0  0  0
   -4.5949   16.8733  -35.3031 H   0  0  0  0  0  0  0  0  0  0  0  0
   -6.7074   18.3418  -35.4674 H   0  0  0  0  0  0  0  0  0  0  0  0
   -6.5069   17.3557  -33.9691 H   0  0  0  0  0  0  0  0  0  0  0  0
  1  2  1  0
  2  3  1  0
  3  4  1  0
  4  5  1  0
  3  6  1  0
  6  7  2  0
  6  8  2  0
  6  9  1  0
  9 10  2  0
 10 11  1  0
 11 12  2  0
 12 13  1  0
 13 14  1  0
 14 15  2  0
 15 16  1  0
 16 17  2  0
 15 18  1  0
 18 19  1  0
 19 20  1  0
 20 21  1  0
 17  9  1  0
 16 12  1  0
 21 14  1  0
  1 22  1  0
  1 23  1  0
  1 24  1  0
  2 25  1  0
  2 26  1  0
  3 27  1  0
  4 28  1  0
  4 29  1  0
  5 30  1  0
  5 31  1  0
  5 32  1  0
 10 33  1  0
 11 34  1  0
 13 35  1  0
 17 36  1  0
 18 37  1  0
 18 38  1  0
 19 39  1  0
 19 40  1  0
 20 41  1  0
 20 42  1  0
 21 43  1  0
 21 44  1  0
M  CHG  1   3   1
M  END
>  <UniqueID>  (18) 
18

>  <SMILES>  (18) 
CC[NH+](CC)S(=O)(=O)c1ccc2[nH]c3c(c2c1)CCCC3

>  <Energy>  (18) 
78.5547368631578

>  <Genealogy>  (18) 
CC[NH+](CC)S(=O)(=O)c1ccc2[nH]c3c(c2c1)CCCC3 (protonated)
CC[NH+](CC)S(=O)(=O)c1ccc2[nH]c3c(c2c1)CCCC3 (3D coordinates assigned)
CC[NH+](CC)S(=O)(=O)c1ccc2[nH]c3c(c2c1)CCCC3 (nonaromatic ring conformer: 78.5547368631578 kcal/mol)

>  <smiles>  (18) 
CCN(CC)S(=O)(=O)c1ccc2[nH]c3c(c2c1)CCCC3

>  <score_type>  (18) 
oracle

>  <origin>  (18) 
adg

>  <m_score__min__energy>  (18) 
-8.3599999999999994

>  <m_primary>  (18) 
energy

$$$$
19:0
     RDKit          3D

 56 59  0  0  0  0  0  0  0  0999 V2000
   -4.1050   13.6850  -31.8360 C   0  0  0  0  0  0  0  0  0  0  0  0
   -4.2810   15.0530  -32.5340 C   0  0  0  0  0  0  0  0  0  0  0  0
   -5.6900   15.3900  -32.8270 N   0  0  0  0  0  0  0  0  0  0  0  0
   -6.0720   15.0440  -34.1990 C   0  0  0  0  0  0  0  0  0  0  0  0
   -6.0500   16.7880  -32.4790 C   0  0  0  0  0  0  0  0  0  0  0  0
   -7.0830   17.3160  -33.4900 C   0  0  0  0  0  0  0  0  0  0  0  0
   -6.4840   18.2350  -34.4980 N   0  0  0  0  0  0  0  0  0  0  0  0
   -5.2990   18.8850  -33.9470 C   0  0  0  0  0  0  0  0  0  0  0  0
   -5.4450   20.0790  -33.2420 C   0  0  0  0  0  0  0  0  0  0  0  0
   -4.3620   20.7420  -32.7140 C   0  0  0  0  0  0  0  0  0  0  0  0
   -3.0960   20.2160  -32.7560 N   0  0  0  0  0  0  0  0  0  0  0  0
   -2.0310   20.7740  -31.8950 C   0  0  0  0  0  0  0  0  0  0  0  0
   -2.8700   19.1130  -33.5590 C   0  0  0  0  0  0  0  0  0  0  0  0
   -1.5590   18.6680  -33.8250 C   0  0  0  0  0  0  0  0  0  0  0  0
   -1.3240   17.5330  -34.6010 C   0  0  0  0  0  0  0  0  0  0  0  0
    0.4630   16.9710  -34.9430 Br  0  0  0  0  0  0  0  0  0  0  0  0
   -2.3830   16.8140  -35.1390 C   0  0  0  0  0  0  0  0  0  0  0  0
   -3.6870   17.2500  -34.9470 C   0  0  0  0  0  0  0  0  0  0  0  0
   -3.9680   18.4060  -34.1610 C   0  0  0  0  0  0  0  0  0  0  0  0
   -4.8800   21.9720  -32.1010 C   0  0  0  0  0  0  0  0  0  0  0  0
   -4.2020   23.0870  -31.5830 C   0  0  0  0  0  0  0  0  0  0  0  0
   -4.9630   24.1610  -31.0960 C   0  0  0  0  0  0  0  0  0  0  0  0
   -4.3870   25.1630  -30.5880 O   0  0  0  0  0  0  0  0  0  0  0  0
   -6.3600   24.1310  -31.1800 C   0  0  0  0  0  0  0  0  0  0  0  0
   -6.9920   23.0370  -31.7790 C   0  0  0  0  0  0  0  0  0  0  0  0
   -8.7840   23.0330  -31.9670 S   0  0  0  0  0  0  0  0  0  0  0  0
   -9.0060   21.6130  -30.8150 C   0  0  0  0  0  0  0  0  0  0  0  0
   -6.2270   21.9950  -32.2200 N   0  0  0  0  0  0  0  0  0  0  0  0
   -6.7090   20.8230  -32.9370 C   0  0  0  0  0  0  0  0  0  0  0  0
   -4.1230   13.8250  -30.7451 H   0  0  0  0  0  0  0  0  0  0  0  0
   -4.9242   13.0137  -32.1331 H   0  0  0  0  0  0  0  0  0  0  0  0
   -3.1426   13.2429  -32.1331 H   0  0  0  0  0  0  0  0  0  0  0  0
   -3.8654   15.8335  -31.8796 H   0  0  0  0  0  0  0  0  0  0  0  0
   -3.7559   14.9932  -33.4987 H   0  0  0  0  0  0  0  0  0  0  0  0
   -6.8871   14.3057  -34.1775 H   0  0  0  0  0  0  0  0  0  0  0  0
   -6.4107   15.9490  -34.7246 H   0  0  0  0  0  0  0  0  0  0  0  0
   -5.2048   14.6176  -34.7246 H   0  0  0  0  0  0  0  0  0  0  0  0
   -6.4798   16.8153  -31.4668 H   0  0  0  0  0  0  0  0  0  0  0  0
   -5.1491   17.4184  -32.5107 H   0  0  0  0  0  0  0  0  0  0  0  0
   -7.5297   16.4596  -34.0163 H   0  0  0  0  0  0  0  0  0  0  0  0
   -7.8368   17.8863  -32.9273 H   0  0  0  0  0  0  0  0  0  0  0  0
   -7.1920   18.9280  -34.8850 H   0  0  0  0  0  0  0  0  0  0  0  0
   -6.1840   17.6740  -35.3520 H   0  0  0  0  0  0  0  0  0  0  0  0
   -2.3018   20.6321  -30.8383 H   0  0  0  0  0  0  0  0  0  0  0  0
   -1.0827   20.2569  -32.1031 H   0  0  0  0  0  0  0  0  0  0  0  0
   -1.9163   21.8480  -32.1031 H   0  0  0  0  0  0  0  0  0  0  0  0
   -0.7055   19.2263  -33.4129 H   0  0  0  0  0  0  0  0  0  0  0  0
   -2.1887   15.8988  -35.7174 H   0  0  0  0  0  0  0  0  0  0  0  0
   -4.5168   16.6947  -35.4087 H   0  0  0  0  0  0  0  0  0  0  0  0
   -3.1027   23.1180  -31.5595 H   0  0  0  0  0  0  0  0  0  0  0  0
   -6.9567   24.9627  -30.7774 H   0  0  0  0  0  0  0  0  0  0  0  0
   -8.9500   21.9712  -29.7765 H   0  0  0  0  0  0  0  0  0  0  0  0
   -9.9877   21.1486  -30.9903 H   0  0  0  0  0  0  0  0  0  0  0  0
   -8.2129   20.8712  -30.9903 H   0  0  0  0  0  0  0  0  0  0  0  0
   -7.3809   20.2215  -32.3071 H   0  0  0  0  0  0  0  0  0  0  0  0
   -7.2960   21.0712  -33.8336 H   0  0  0  0  0  0  0  0  0  0  0  0
  1  2  1  0
  2  3  1  0
  3  4  1  0
  3  5  1  0
  5  6  1  0
  6  7  1  0
  7  8  1  0
  8  9  2  0
  9 10  1  0
 10 11  2  0
 11 12  1  0
 11 13  1  0
 13 14  2  0
 14 15  1  0
 15 16  1  0
 15 17  2  0
 17 18  1  0
 18 19  2  0
 10 20  1  0
 20 21  2  0
 21 22  1  0
 22 23  2  0
 22 24  1  0
 24 25  2  0
 25 26  1  0
 26 27  1  0
 25 28  1  0
 28 29  1  0
 19  8  1  0
 28 20  1  0
 29  9  1  0
 19 13  1  0
  1 30  1  0
  1 31  1  0
  1 32  1  0
  2 33  1  0
  2 34  1  0
  4 35  1  0
  4 36  1  0
  4 37  1  0
  5 38  1  0
  5 39  1  0
  6 40  1  0
  6 41  1  0
  7 42  1  0
  7 43  1  0
 12 44  1  0
 12 45  1  0
 12 46  1  0
 14 47  1  0
 17 48  1  0
 18 49  1  0
 21 50  1  0
 24 51  1  0
 27 52  1  0
 27 53  1  0
 27 54  1  0
 29 55  1  0
 29 56  1  0
M  CHG  2   7   1  11   1
M  END
>  <UniqueID>  (19) 
19

>  <SMILES>  (19) 
CCN(C)CC[NH2+]c1c2c([n+](C)c3cc(Br)ccc13)-c1cc(=O)cc(SC)n1C2

>  <Energy>  (19) 
106.02666941182284

>  <Genealogy>  (19) 
CCN(C)CC[NH2+]c1c2c([n+](C)c3cc(Br)ccc13)-c1cc(=O)cc(SC)n1C2 (protonated)
CCN(C)CC[NH2+]c1c2c([n+](C)c3cc(Br)ccc13)-c1cc(=O)cc(SC)n1C2 (3D coordinates assigned)
CCN(C)CC[NH2+]c1c2c([n+](C)c3cc(Br)ccc13)-c1cc(=O)cc(SC)n1C2 (nonaromatic ring conformer: 106.02666941182284 kcal/mol)

>  <smiles>  (19) 
CCN(C)CCNc1c2c([n+](C)c3cc(Br)ccc13)-c1cc(=O)cc(SC)n1C2

>  <score_type>  (19) 
oracle

>  <origin>  (19) 
adg

>  <m_score__min__energy>  (19) 
-7.6200000000000001

>  <m_primary>  (19) 
energy

$$$$
20:0
     RDKit          3D

 82 85  0  0  0  0  0  0  0  0999 V2000
   -1.4340   25.1980  -28.5910 C   0  0  0  0  0  0  0  0  0  0  0  0
   -2.7760   24.5460  -28.8980 C   0  0  0  0  0  0  0  0  0  0  0  0
   -3.4810   25.2960  -29.8700 O   0  0  0  0  0  0  0  0  0  0  0  0
   -4.8520   24.9430  -29.9140 C   0  0  0  0  0  0  0  0  0  0  0  0
   -5.0310   23.5570  -30.5330 C   0  0  0  0  0  0  0  0  0  0  0  0
   -4.0840   23.3790  -31.5630 O   0  0  0  0  0  0  0  0  0  0  0  0
   -3.3660   22.1830  -31.3520 C   0  0  0  0  0  0  0  0  0  0  0  0
   -3.4960   21.2820  -32.5850 C   0  0  0  0  0  0  0  0  0  0  0  0
   -4.6680   21.6140  -33.4180 N   0  0  0  0  0  0  0  0  0  0  0  0
   -5.8160   20.7710  -33.0980 C   0  0  0  0  0  0  0  0  0  0  0  0
   -7.0200   21.3260  -32.5720 C   0  0  0  0  0  0  0  0  0  0  0  0
   -7.1980   22.7240  -32.3920 C   0  0  0  0  0  0  0  0  0  0  0  0
   -8.3950   23.2480  -31.9130 C   0  0  0  0  0  0  0  0  0  0  0  0
   -9.4540   22.4060  -31.6180 C   0  0  0  0  0  0  0  0  0  0  0  0
   -9.3120   21.0320  -31.7690 C   0  0  0  0  0  0  0  0  0  0  0  0
   -8.0900   20.4580  -32.2090 C   0  0  0  0  0  0  0  0  0  0  0  0
   -7.9400   19.0910  -32.2960 N   0  0  0  0  0  0  0  0  0  0  0  0
   -8.9190   18.1950  -31.6340 C   0  0  0  0  0  0  0  0  0  0  0  0
   -6.8680   18.5520  -32.9760 C   0  0  0  0  0  0  0  0  0  0  0  0
   -6.8480   17.1820  -33.3420 C   0  0  0  0  0  0  0  0  0  0  0  0
   -5.7380   16.6150  -33.9560 C   0  0  0  0  0  0  0  0  0  0  0  0
   -4.6120   17.3780  -34.2280 C   0  0  0  0  0  0  0  0  0  0  0  0
   -3.5200   16.7360  -34.8330 O   0  0  0  0  0  0  0  0  0  0  0  0
   -2.1390   17.0060  -34.5850 C   0  0  0  0  0  0  0  0  0  0  0  0
   -1.2480   16.0080  -35.3680 C   0  0  0  0  0  0  0  0  0  0  0  0
   -1.2670   14.5850  -34.8850 N   0  0  0  0  0  0  0  0  0  0  0  0
   -0.3960   13.7410  -35.7470 C   0  0  0  0  0  0  0  0  0  0  0  0
   -2.6790   14.0870  -35.0070 C   0  0  0  0  0  0  0  0  0  0  0  0
   -3.0200   12.9980  -33.9710 C   0  0  0  0  0  0  0  0  0  0  0  0
   -2.9230   13.5070  -32.5650 N   0  0  0  0  0  0  0  0  0  0  0  0
   -2.5340   12.3860  -31.6730 C   0  0  0  0  0  0  0  0  0  0  0  0
   -4.2490   14.0040  -32.1200 C   0  0  0  0  0  0  0  0  0  0  0  0
   -1.9260   14.6150  -32.4410 C   0  0  0  0  0  0  0  0  0  0  0  0
   -0.7830   14.4920  -33.4660 C   0  0  0  0  0  0  0  0  0  0  0  0
   -4.6180   18.7460  -33.9100 C   0  0  0  0  0  0  0  0  0  0  0  0
   -5.7580   19.3660  -33.3290 C   0  0  0  0  0  0  0  0  0  0  0  0
   -1.2990   25.2636  -27.5013 H   0  0  0  0  0  0  0  0  0  0  0  0
   -0.6245   24.5928  -29.0250 H   0  0  0  0  0  0  0  0  0  0  0  0
   -1.4094   26.2085  -29.0250 H   0  0  0  0  0  0  0  0  0  0  0  0
   -2.6052   23.5286  -29.2797 H   0  0  0  0  0  0  0  0  0  0  0  0
   -3.3732   24.5095  -27.9749 H   0  0  0  0  0  0  0  0  0  0  0  0
   -5.2568   24.9372  -28.8912 H   0  0  0  0  0  0  0  0  0  0  0  0
   -5.3881   25.6790  -30.5312 H   0  0  0  0  0  0  0  0  0  0  0  0
   -4.8824   22.7880  -29.7607 H   0  0  0  0  0  0  0  0  0  0  0  0
   -6.0461   23.4675  -30.9472 H   0  0  0  0  0  0  0  0  0  0  0  0
   -2.3052   22.4181  -31.1804 H   0  0  0  0  0  0  0  0  0  0  0  0
   -3.7740   21.6617  -30.4735 H   0  0  0  0  0  0  0  0  0  0  0  0
   -2.5884   21.3912  -33.1968 H   0  0  0  0  0  0  0  0  0  0  0  0
   -3.6270   20.2500  -32.2273 H   0  0  0  0  0  0  0  0  0  0  0  0
   -4.8650   22.6310  -33.3700 H   0  0  0  0  0  0  0  0  0  0  0  0
   -4.4190   21.5060  -34.4260 H   0  0  0  0  0  0  0  0  0  0  0  0
   -6.3714   23.4073  -32.6366 H   0  0  0  0  0  0  0  0  0  0  0  0
   -8.5001   24.3334  -31.7684 H   0  0  0  0  0  0  0  0  0  0  0  0
  -10.4076   22.8248  -31.2641 H   0  0  0  0  0  0  0  0  0  0  0  0
  -10.1646   20.3748  -31.5428 H   0  0  0  0  0  0  0  0  0  0  0  0
   -8.8195   18.2860  -30.5423 H   0  0  0  0  0  0  0  0  0  0  0  0
   -9.9382   18.4798  -31.9343 H   0  0  0  0  0  0  0  0  0  0  0  0
   -8.7254   17.1547  -31.9343 H   0  0  0  0  0  0  0  0  0  0  0  0
   -7.7286   16.5559  -33.1357 H   0  0  0  0  0  0  0  0  0  0  0  0
   -5.7523   15.5496  -34.2293 H   0  0  0  0  0  0  0  0  0  0  0  0
   -1.9058   18.0314  -34.9078 H   0  0  0  0  0  0  0  0  0  0  0  0
   -1.9400   16.8959  -33.5088 H   0  0  0  0  0  0  0  0  0  0  0  0
   -1.5808   16.0115  -36.4164 H   0  0  0  0  0  0  0  0  0  0  0  0
   -0.2149   16.3561  -35.2210 H   0  0  0  0  0  0  0  0  0  0  0  0
    0.2501   13.1149  -35.1141 H   0  0  0  0  0  0  0  0  0  0  0  0
   -1.0221   13.0971  -36.3821 H   0  0  0  0  0  0  0  0  0  0  0  0
    0.2279   14.3871  -36.3821 H   0  0  0  0  0  0  0  0  0  0  0  0
   -3.3644   14.9353  -34.8637 H   0  0  0  0  0  0  0  0  0  0  0  0
   -2.7870   13.6392  -36.0059 H   0  0  0  0  0  0  0  0  0  0  0  0
   -4.0467   12.6465  -34.1509 H   0  0  0  0  0  0  0  0  0  0  0  0
   -2.2923   12.1812  -34.0864 H   0  0  0  0  0  0  0  0  0  0  0  0
   -2.6422   12.6979  -30.6237 H   0  0  0  0  0  0  0  0  0  0  0  0
   -3.1843   11.5203  -31.8672 H   0  0  0  0  0  0  0  0  0  0  0  0
   -1.4873   12.1092  -31.8672 H   0  0  0  0  0  0  0  0  0  0  0  0
   -4.2854   14.0176  -31.0207 H   0  0  0  0  0  0  0  0  0  0  0  0
   -4.4069   15.0223  -32.5048 H   0  0  0  0  0  0  0  0  0  0  0  0
   -5.0373   13.3403  -32.5048 H   0  0  0  0  0  0  0  0  0  0  0  0
   -2.4414   15.5737  -32.5996 H   0  0  0  0  0  0  0  0  0  0  0  0
   -1.4833   14.5577  -31.4356 H   0  0  0  0  0  0  0  0  0  0  0  0
   -0.0602   15.3016  -33.2865 H   0  0  0  0  0  0  0  0  0  0  0  0
   -0.3233   13.5013  -33.3351 H   0  0  0  0  0  0  0  0  0  0  0  0
   -3.7220   19.3504  -34.1147 H   0  0  0  0  0  0  0  0  0  0  0  0
  1  2  1  0
  2  3  1  0
  3  4  1  0
  4  5  1  0
  5  6  1  0
  6  7  1  0
  7  8  1  0
  8  9  1  0
  9 10  1  0
 10 11  2  0
 11 12  1  0
 12 13  2  0
 13 14  1  0
 14 15  2  0
 15 16  1  0
 16 17  2  0
 17 18  1  0
 17 19  1  0
 19 20  2  0
 20 21  1  0
 21 22  2  0
 22 23  1  0
 23 24  1  0
 24 25  1  0
 25 26  1  0
 26 27  1  0
 26 28  1  0
 28 29  1  0
 29 30  1  0
 30 31  1  0
 30 32  1  0
 30 33  1  0
 33 34  1  0
 22 35  1  0
 35 36  2  0
 36 10  1  0
 16 11  1  0
 36 19  1  0
 34 26  1  0
  1 37  1  0
  1 38  1  0
  1 39  1  0
  2 40  1  0
  2 41  1  0
  4 42  1  0
  4 43  1  0
  5 44  1  0
  5 45  1  0
  7 46  1  0
  7 47  1  0
  8 48  1  0
  8 49  1  0
  9 50  1  0
  9 51  1  0
 12 52  1  0
 13 53  1  0
 14 54  1  0
 15 55  1  0
 18 56  1  0
 18 57  1  0
 18 58  1  0
 20 59  1  0
 21 60  1  0
 24 61  1  0
 24 62  1  0
 25 63  1  0
 25 64  1  0
 27 65  1  0
 27 66  1  0
 27 67  1  0
 28 68  1  0
 28 69  1  0
 29 70  1  0
 29 71  1  0
 31 72  1  0
 31 73  1  0
 31 74  1  0
 32 75  1  0
 32 76  1  0
 32 77  1  0
 33 78  1  0
 33 79  1  0
 34 80  1  0
 34 81  1  0
 35 82  1  0
M  CHG  4   9   1  17   1  26   1  30   1
M  END
>  <UniqueID>  (20) 
20

>  <SMILES>  (20) 
CCOCCOCC[NH2+]c1c2ccccc2[n+](C)c2ccc(OCC[N+]3(C)CC[N+](C)(C)CC3)cc12

>  <Energy>  (20) 
136.3932629521073

>  <Genealogy>  (20) 
CCOCCOCC[NH2+]c1c2ccccc2[n+](C)c2ccc(OCC[N+]3(C)CC[N+](C)(C)CC3)cc12 (protonated)
CCOCCOCC[NH2+]c1c2ccccc2[n+](C)c2ccc(OCC[N+]3(C)CC[N+](C)(C)CC3)cc12 (3D coordinates assigned)
CCOCCOCC[NH2+]c1c2ccccc2[n+](C)c2ccc(OCC[N+]3(C)CC[N+](C)(C)CC3)cc12 (nonaromatic ring conformer: 136.3932629521073 kcal/mol)

>  <smiles>  (20) 
CCOCCOCCNc1c2ccccc2[n+](C)c2ccc(OCC[N+]3(C)CC[N+](C)(C)CC3)cc12

>  <score_type>  (20) 
oracle

>  <origin>  (20) 
adg

>  <m_score__min__energy>  (20) 
-7.8700000000000001

>  <m_primary>  (20) 
energy

$$$$
21:0
     RDKit          3D

 48 51  0  0  0  0  0  0  0  0999 V2000
   -5.6860   18.8010  -34.1760 C   0  0  0  0  0  0  0  0  0  0  0  0
   -6.8300   19.0520  -33.2530 C   0  0  0  0  0  0  0  0  0  0  0  0
   -7.2890   18.1840  -32.2830 C   0  0  0  0  0  0  0  0  0  0  0  0
   -8.3480   18.8260  -31.6780 C   0  0  0  0  0  0  0  0  0  0  0  0
   -8.4660   20.0430  -32.3220 C   0  0  0  0  0  0  0  0  0  0  0  0
   -9.4970   21.0910  -32.0340 C   0  0  0  0  0  0  0  0  0  0  0  0
   -8.9360   22.1560  -31.1860 N   0  0  0  0  0  0  0  0  0  0  0  0
   -8.2330   23.1890  -31.9640 C   0  0  0  0  0  0  0  0  0  0  0  0
   -6.7440   23.0610  -31.8040 C   0  0  0  0  0  0  0  0  0  0  0  0
   -6.0070   22.1680  -32.5100 N   0  0  0  0  0  0  0  0  0  0  0  0
   -4.7900   22.2210  -31.9460 C   0  0  0  0  0  0  0  0  0  0  0  0
   -3.6810   21.4260  -32.2210 C   0  0  0  0  0  0  0  0  0  0  0  0
   -2.5390   21.5950  -31.4170 C   0  0  0  0  0  0  0  0  0  0  0  0
   -2.5400   22.5370  -30.3610 C   0  0  0  0  0  0  0  0  0  0  0  0
   -1.0840   22.7230  -29.3320 S   0  0  0  0  0  0  0  0  0  0  0  0
   -1.4520   21.2440  -28.3890 C   0  0  0  0  0  0  0  0  0  0  0  0
   -2.7270   21.0610  -27.8370 C   0  0  0  0  0  0  0  0  0  0  0  0
   -3.0110   19.9100  -27.0950 C   0  0  0  0  0  0  0  0  0  0  0  0
   -2.0230   18.9380  -26.9060 C   0  0  0  0  0  0  0  0  0  0  0  0
   -0.7510   19.1170  -27.4590 C   0  0  0  0  0  0  0  0  0  0  0  0
   -0.4650   20.2680  -28.2010 C   0  0  0  0  0  0  0  0  0  0  0  0
   -3.6840   23.3170  -30.1020 C   0  0  0  0  0  0  0  0  0  0  0  0
   -4.7930   23.1340  -30.9300 C   0  0  0  0  0  0  0  0  0  0  0  0
   -6.0170   23.6920  -30.8400 N   0  0  0  0  0  0  0  0  0  0  0  0
   -6.5000   24.5930  -29.7960 C   0  0  0  0  0  0  0  0  0  0  0  0
   -7.5390   20.1570  -33.2460 O   0  0  0  0  0  0  0  0  0  0  0  0
   -4.7777   18.6017  -33.5884 H   0  0  0  0  0  0  0  0  0  0  0  0
   -5.9107   17.9308  -34.8102 H   0  0  0  0  0  0  0  0  0  0  0  0
   -5.5257   19.6853  -34.8102 H   0  0  0  0  0  0  0  0  0  0  0  0
   -6.8920   17.1867  -32.0426 H   0  0  0  0  0  0  0  0  0  0  0  0
   -8.9703   18.4480  -30.8534 H   0  0  0  0  0  0  0  0  0  0  0  0
   -9.8412   21.5288  -32.9826 H   0  0  0  0  0  0  0  0  0  0  0  0
  -10.3378   20.6221  -31.5018 H   0  0  0  0  0  0  0  0  0  0  0  0
   -9.7400   22.6260  -30.7080 H   0  0  0  0  0  0  0  0  0  0  0  0
   -8.4918   23.0774  -33.0273 H   0  0  0  0  0  0  0  0  0  0  0  0
   -8.5422   24.1780  -31.5949 H   0  0  0  0  0  0  0  0  0  0  0  0
   -6.3320   21.5180  -33.2600 H   0  0  0  0  0  0  0  0  0  0  0  0
   -3.6970   20.6907  -33.0390 H   0  0  0  0  0  0  0  0  0  0  0  0
   -1.6400   20.9913  -31.6103 H   0  0  0  0  0  0  0  0  0  0  0  0
   -3.5054   21.8236  -27.9875 H   0  0  0  0  0  0  0  0  0  0  0  0
   -4.0114   19.7691  -26.6600 H   0  0  0  0  0  0  0  0  0  0  0  0
   -2.2466   18.0328  -26.3224 H   0  0  0  0  0  0  0  0  0  0  0  0
    0.0254   18.3520  -27.3104 H   0  0  0  0  0  0  0  0  0  0  0  0
    0.5354   20.4066  -28.6370 H   0  0  0  0  0  0  0  0  0  0  0  0
   -3.7029   24.0442  -29.2769 H   0  0  0  0  0  0  0  0  0  0  0  0
   -6.2711   24.1660  -28.8084 H   0  0  0  0  0  0  0  0  0  0  0  0
   -6.0047   25.5700  -29.8968 H   0  0  0  0  0  0  0  0  0  0  0  0
   -7.5878   24.7213  -29.8968 H   0  0  0  0  0  0  0  0  0  0  0  0
  1  2  1  0
  2  3  2  0
  3  4  1  0
  4  5  2  0
  5  6  1  0
  6  7  1  0
  7  8  1  0
  8  9  1  0
  9 10  2  0
 10 11  1  0
 11 12  2  0
 12 13  1  0
 13 14  2  0
 14 15  1  0
 15 16  1  0
 16 17  2  0
 17 18  1  0
 18 19  2  0
 19 20  1  0
 20 21  2  0
 14 22  1  0
 22 23  2  0
 23 24  1  0
 24 25  1  0
  5 26  1  0
 26  2  1  0
 24  9  1  0
 23 11  1  0
 21 16  1  0
  1 27  1  0
  1 28  1  0
  1 29  1  0
  3 30  1  0
  4 31  1  0
  6 32  1  0
  6 33  1  0
  7 34  1  0
  8 35  1  0
  8 36  1  0
 10 37  1  0
 12 38  1  0
 13 39  1  0
 17 40  1  0
 18 41  1  0
 19 42  1  0
 20 43  1  0
 21 44  1  0
 22 45  1  0
 25 46  1  0
 25 47  1  0
 25 48  1  0
M  CHG  1  10   1
M  END
>  <UniqueID>  (21) 
21

>  <SMILES>  (21) 
Cc1ccc(CNCc2[nH+]c3ccc(Sc4ccccc4)cc3n2C)o1

>  <Energy>  (21) 
103.58210760722758

>  <Genealogy>  (21) 
Cc1ccc(CNCc2[nH+]c3ccc(Sc4ccccc4)cc3n2C)o1 (protonated)
Cc1ccc(CNCc2[nH+]c3ccc(Sc4ccccc4)cc3n2C)o1 (3D coordinates assigned)
Cc1ccc(CNCc2[nH+]c3ccc(Sc4ccccc4)cc3n2C)o1 (optimized conformer: 103.58210760722758 kcal/mol)

>  <smiles>  (21) 
Cc1ccc(CNCc2nc3ccc(Sc4ccccc4)cc3n2C)o1

>  <score_type>  (21) 
oracle

>  <origin>  (21) 
adg

>  <m_score__min__energy>  (21) 
-9.3399999999999999

>  <m_primary>  (21) 
energy

$$$$
22:0
     RDKit          3D

 37 40  0  0  0  0  0  0  0  0999 V2000
   -4.5700   19.1790  -33.5210 C   0  0  0  0  0  0  0  0  0  0  0  0
   -5.4730   20.1780  -32.9590 N   0  0  0  0  0  0  0  0  0  0  0  0
   -5.1760   21.4760  -32.7110 C   0  0  0  0  0  0  0  0  0  0  0  0
   -6.2990   22.1400  -32.2270 C   0  0  0  0  0  0  0  0  0  0  0  0
   -6.4030   23.6020  -31.9200 C   0  0  0  0  0  0  0  0  0  0  0  0
   -5.5330   23.9410  -30.7550 C   0  0  0  0  0  0  0  0  0  0  0  0
   -5.9430   24.6820  -29.7040 N   0  0  0  0  0  0  0  0  0  0  0  0
   -4.9750   24.9190  -28.8200 N   0  0  0  0  0  0  0  0  0  0  0  0
   -3.7740   24.3870  -29.1570 C   0  0  0  0  0  0  0  0  0  0  0  0
   -2.5330   24.5180  -28.3530 C   0  0  0  0  0  0  0  0  0  0  0  0
   -2.5800   24.6710  -26.9560 C   0  0  0  0  0  0  0  0  0  0  0  0
   -1.4000   24.7890  -26.2210 C   0  0  0  0  0  0  0  0  0  0  0  0
   -0.1740   24.7550  -26.8840 C   0  0  0  0  0  0  0  0  0  0  0  0
   -0.1360   24.6020  -28.2330 N   0  0  0  0  0  0  0  0  0  0  0  0
   -1.2700   24.4830  -28.9740 C   0  0  0  0  0  0  0  0  0  0  0  0
   -3.8940   23.5750  -30.6340 S   0  0  0  0  0  0  0  0  0  0  0  0
   -7.3160   21.2030  -32.2130 C   0  0  0  0  0  0  0  0  0  0  0  0
   -8.6620   21.3160  -31.8670 C   0  0  0  0  0  0  0  0  0  0  0  0
   -9.4680   20.1690  -31.9840 C   0  0  0  0  0  0  0  0  0  0  0  0
   -8.9190   18.9520  -32.4430 C   0  0  0  0  0  0  0  0  0  0  0  0
   -7.5590   18.8690  -32.7920 C   0  0  0  0  0  0  0  0  0  0  0  0
   -6.7790   20.0220  -32.6610 C   0  0  0  0  0  0  0  0  0  0  0  0
   -4.0753   18.6317  -32.7051 H   0  0  0  0  0  0  0  0  0  0  0  0
   -5.1433   18.4739  -34.1408 H   0  0  0  0  0  0  0  0  0  0  0  0
   -3.8107   19.6784  -34.1408 H   0  0  0  0  0  0  0  0  0  0  0  0
   -4.1904   21.9381  -32.8692 H   0  0  0  0  0  0  0  0  0  0  0  0
   -6.0804   24.1824  -32.7969 H   0  0  0  0  0  0  0  0  0  0  0  0
   -7.4471   23.8467  -31.6749 H   0  0  0  0  0  0  0  0  0  0  0  0
   -5.1510   25.4940  -27.9690 H   0  0  0  0  0  0  0  0  0  0  0  0
   -3.5513   24.6978  -26.4404 H   0  0  0  0  0  0  0  0  0  0  0  0
   -1.4366   24.9078  -25.1280 H   0  0  0  0  0  0  0  0  0  0  0  0
    0.7622   24.8521  -26.3147 H   0  0  0  0  0  0  0  0  0  0  0  0
   -1.2001   24.3587  -30.0647 H   0  0  0  0  0  0  0  0  0  0  0  0
   -9.0798   22.2705  -31.5142 H   0  0  0  0  0  0  0  0  0  0  0  0
  -10.5336   20.2207  -31.7159 H   0  0  0  0  0  0  0  0  0  0  0  0
   -9.5597   18.0619  -32.5283 H   0  0  0  0  0  0  0  0  0  0  0  0
   -7.1230   17.9271  -33.1563 H   0  0  0  0  0  0  0  0  0  0  0  0
  1  2  1  0
  2  3  1  0
  3  4  2  0
  4  5  1  0
  5  6  1  0
  6  7  2  0
  7  8  1  0
  8  9  2  0
  9 10  1  0
 10 11  2  0
 11 12  1  0
 12 13  2  0
 13 14  1  0
 14 15  2  0
  9 16  1  0
  4 17  1  0
 17 18  2  0
 18 19  1  0
 19 20  2  0
 20 21  1  0
 21 22  2  0
 22  2  1  0
 16  6  1  0
 22 17  1  0
 15 10  1  0
  1 23  1  0
  1 24  1  0
  1 25  1  0
  3 26  1  0
  5 27  1  0
  5 28  1  0
  8 29  1  0
 11 30  1  0
 12 31  1  0
 13 32  1  0
 15 33  1  0
 18 34  1  0
 19 35  1  0
 20 36  1  0
 21 37  1  0
M  CHG  1   8   1
M  END
>  <UniqueID>  (22) 
22

>  <SMILES>  (22) 
Cn1cc(Cc2n[nH+]c(-c3cccnc3)s2)c2ccccc21

>  <Energy>  (22) 
108.01249039769472

>  <Genealogy>  (22) 
Cn1cc(Cc2n[nH+]c(-c3cccnc3)s2)c2ccccc21 (protonated)
Cn1cc(Cc2n[nH+]c(-c3cccnc3)s2)c2ccccc21 (3D coordinates assigned)
Cn1cc(Cc2n[nH+]c(-c3cccnc3)s2)c2ccccc21 (optimized conformer: 108.01249039769472 kcal/mol)

>  <smiles>  (22) 
Cn1cc(Cc2nnc(-c3cccnc3)s2)c2ccccc21

>  <score_type>  (22) 
oracle

>  <origin>  (22) 
adg

>  <m_score__min__energy>  (22) 
-8.3499999999999996

>  <m_primary>  (22) 
energy

$$$$
23:0
     RDKit          3D

 37 39  0  0  0  0  0  0  0  0999 V2000
   -9.1090   18.6370  -31.9410 C   0  0  0  0  0  0  0  0  0  0  0  0
   -8.7750   20.0760  -32.3500 C   0  0  0  0  0  0  0  0  0  0  0  0
   -9.2750   21.1020  -31.3270 C   0  0  0  0  0  0  0  0  0  0  0  0
   -7.3090   20.2480  -32.6810 C   0  0  0  0  0  0  0  0  0  0  0  0
   -6.5330   19.1830  -33.0030 N   0  0  0  0  0  0  0  0  0  0  0  0
   -5.3080   19.7110  -33.1800 C   0  0  0  0  0  0  0  0  0  0  0  0
   -4.1600   18.9990  -33.5210 C   0  0  0  0  0  0  0  0  0  0  0  0
   -2.9600   19.7150  -33.6500 C   0  0  0  0  0  0  0  0  0  0  0  0
   -2.9380   21.1050  -33.4320 C   0  0  0  0  0  0  0  0  0  0  0  0
   -4.1240   21.7700  -33.0880 C   0  0  0  0  0  0  0  0  0  0  0  0
   -5.2670   21.0390  -32.9830 N   0  0  0  0  0  0  0  0  0  0  0  0
   -6.5240   21.4120  -32.6710 C   0  0  0  0  0  0  0  0  0  0  0  0
   -6.9380   22.8350  -32.3860 C   0  0  0  0  0  0  0  0  0  0  0  0
   -6.2200   23.3930  -31.1800 C   0  0  0  0  0  0  0  0  0  0  0  0
   -6.0970   24.7830  -31.0120 C   0  0  0  0  0  0  0  0  0  0  0  0
   -5.4140   25.3040  -29.9090 C   0  0  0  0  0  0  0  0  0  0  0  0
   -4.8400   24.4430  -28.9690 C   0  0  0  0  0  0  0  0  0  0  0  0
   -4.9440   23.0600  -29.1350 C   0  0  0  0  0  0  0  0  0  0  0  0
   -5.6250   22.5340  -30.2370 C   0  0  0  0  0  0  0  0  0  0  0  0
   -9.1263   18.5623  -30.8437 H   0  0  0  0  0  0  0  0  0  0  0  0
  -10.0951   18.3611  -32.3429 H   0  0  0  0  0  0  0  0  0  0  0  0
   -8.3453   17.9549  -32.3429 H   0  0  0  0  0  0  0  0  0  0  0  0
   -9.3272   20.2783  -33.2796 H   0  0  0  0  0  0  0  0  0  0  0  0
   -9.0914   20.7252  -30.3100 H   0  0  0  0  0  0  0  0  0  0  0  0
   -8.7389   22.0520  -31.4684 H   0  0  0  0  0  0  0  0  0  0  0  0
  -10.3536   21.2651  -31.4684 H   0  0  0  0  0  0  0  0  0  0  0  0
   -4.1932   17.9116  -33.6837 H   0  0  0  0  0  0  0  0  0  0  0  0
   -2.0337   19.1880  -33.9224 H   0  0  0  0  0  0  0  0  0  0  0  0
   -1.9971   21.6662  -33.5307 H   0  0  0  0  0  0  0  0  0  0  0  0
   -4.1301   22.8551  -32.9076 H   0  0  0  0  0  0  0  0  0  0  0  0
   -6.7017   23.4575  -33.2616 H   0  0  0  0  0  0  0  0  0  0  0  0
   -8.0180   22.8435  -32.1773 H   0  0  0  0  0  0  0  0  0  0  0  0
   -6.5406   25.4648  -31.7525 H   0  0  0  0  0  0  0  0  0  0  0  0
   -5.3281   26.3931  -29.7806 H   0  0  0  0  0  0  0  0  0  0  0  0
   -4.3068   24.8544  -28.0992 H   0  0  0  0  0  0  0  0  0  0  0  0
   -4.4890   22.3831  -28.3969 H   0  0  0  0  0  0  0  0  0  0  0  0
   -5.6961   21.4441  -30.3676 H   0  0  0  0  0  0  0  0  0  0  0  0
  1  2  1  0
  2  3  1  0
  2  4  1  0
  4  5  1  0
  5  6  2  0
  6  7  1  0
  7  8  2  0
  8  9  1  0
  9 10  2  0
 10 11  1  0
 11 12  1  0
 12 13  1  0
 13 14  1  0
 14 15  2  0
 15 16  1  0
 16 17  2  0
 17 18  1  0
 18 19  2  0
 12  4  2  0
 19 14  1  0
 11  6  1  0
  1 20  1  0
  1 21  1  0
  1 22  1  0
  2 23  1  0
  3 24  1  0
  3 25  1  0
  3 26  1  0
  7 27  1  0
  8 28  1  0
  9 29  1  0
 10 30  1  0
 13 31  1  0
 13 32  1  0
 15 33  1  0
 16 34  1  0
 17 35  1  0
 18 36  1  0
 19 37  1  0
M  END
>  <UniqueID>  (23) 
23

>  <SMILES>  (23) 
CC(C)c1nc2ccccn2c1Cc1ccccc1

>  <Energy>  (23) 
70.88588393817632

>  <Genealogy>  (23) 
CC(C)c1nc2ccccn2c1Cc1ccccc1 (3D coordinates assigned)
CC(C)c1nc2ccccn2c1Cc1ccccc1 (optimized conformer: 70.88588393817632 kcal/mol)

>  <smiles>  (23) 
CC(C)c1nc2ccccn2c1Cc1ccccc1

>  <score_type>  (23) 
oracle

>  <origin>  (23) 
adg

>  <m_score__min__energy>  (23) 
-7.4800000000000004

>  <m_primary>  (23) 
energy

$$$$
