0:0
     RDKit          3D

 61 64  0  0  0  0  0  0  0  0999 V2000
   -0.5628   21.8125  -33.1014 H   0  0  0  0  0  0  0  0  0  0  0  0
   -1.5220   21.5470  -32.6330 C   0  0  0  0  0  0  0  0  0  0  0  0
   -2.5370   21.2330  -33.3880 N   0  0  0  0  0  0  0  0  0  0  0  0
   -3.0080   19.8970  -33.6550 C   0  0  0  0  0  0  0  0  0  0  0  0
   -2.1030   18.9140  -34.0920 C   0  0  0  0  0  0  0  0  0  0  0  0
   -1.0475   19.1805  -34.2498 H   0  0  0  0  0  0  0  0  0  0  0  0
   -2.5220   17.6130  -34.3270 C   0  0  0  0  0  0  0  0  0  0  0  0
   -1.7978   16.8575  -34.6658 H   0  0  0  0  0  0  0  0  0  0  0  0
   -3.8490   17.2600  -34.1370 C   0  0  0  0  0  0  0  0  0  0  0  0
   -4.1644   16.2238  -34.3285 H   0  0  0  0  0  0  0  0  0  0  0  0
   -4.8040   18.2060  -33.7020 C   0  0  0  0  0  0  0  0  0  0  0  0
   -4.3730   19.5390  -33.4200 C   0  0  0  0  0  0  0  0  0  0  0  0
   -5.3310   20.4570  -32.9180 C   0  0  0  0  0  0  0  0  0  0  0  0
   -5.0350   21.8580  -32.8020 N   0  0  0  0  0  0  0  0  0  0  0  0
   -4.6030   22.3420  -33.6220 H   0  0  0  0  0  0  0  0  0  0  0  0
   -5.0110   22.5100  -31.4920 C   0  0  0  0  0  0  0  0  0  0  0  0
   -3.9771   22.5328  -31.1172 H   0  0  0  0  0  0  0  0  0  0  0  0
   -5.6512   21.9438  -30.7995 H   0  0  0  0  0  0  0  0  0  0  0  0
   -5.5410   23.9440  -31.6000 C   0  0  0  0  0  0  0  0  0  0  0  0
   -6.5652   23.9728  -31.1999 H   0  0  0  0  0  0  0  0  0  0  0  0
   -5.5137   24.2318  -32.6613 H   0  0  0  0  0  0  0  0  0  0  0  0
   -4.7090   24.9140  -30.8480 N   0  0  0  0  0  0  0  0  0  0  0  0
   -5.5620   25.8640  -30.0940 C   0  0  0  0  0  0  0  0  0  0  0  0
   -5.7629   26.7471  -30.7183 H   0  0  0  0  0  0  0  0  0  0  0  0
   -5.0387   26.1667  -29.1750 H   0  0  0  0  0  0  0  0  0  0  0  0
   -6.8850   25.1980  -29.7200 C   0  0  0  0  0  0  0  0  0  0  0  0
   -6.9758   25.1523  -28.6247 H   0  0  0  0  0  0  0  0  0  0  0  0
   -7.7198   25.7833  -30.1330 H   0  0  0  0  0  0  0  0  0  0  0  0
   -6.9121   24.1788  -30.1330 H   0  0  0  0  0  0  0  0  0  0  0  0
   -3.6790   24.2840  -29.9780 C   0  0  0  0  0  0  0  0  0  0  0  0
   -3.4723   23.2750  -30.3641 H   0  0  0  0  0  0  0  0  0  0  0  0
   -2.7976   24.9415  -30.0065 H   0  0  0  0  0  0  0  0  0  0  0  0
   -4.0880   24.1600  -28.5020 C   0  0  0  0  0  0  0  0  0  0  0  0
   -3.2323   24.4194  -27.8614 H   0  0  0  0  0  0  0  0  0  0  0  0
   -4.9228   24.8454  -28.2940 H   0  0  0  0  0  0  0  0  0  0  0  0
   -4.4017   23.1264  -28.2940 H   0  0  0  0  0  0  0  0  0  0  0  0
   -6.5980   19.9910  -32.5200 C   0  0  0  0  0  0  0  0  0  0  0  0
   -7.4920   20.8320  -31.8220 C   0  0  0  0  0  0  0  0  0  0  0  0
   -7.2022   21.8702  -31.6026 H   0  0  0  0  0  0  0  0  0  0  0  0
   -8.7360   20.3630  -31.4080 C   0  0  0  0  0  0  0  0  0  0  0  0
   -9.4288   21.0346  -30.8798 H   0  0  0  0  0  0  0  0  0  0  0  0
   -9.1030   19.0460  -31.6620 C   0  0  0  0  0  0  0  0  0  0  0  0
  -10.0803   18.6728  -31.3220 H   0  0  0  0  0  0  0  0  0  0  0  0
   -8.2340   18.1980  -32.3470 C   0  0  0  0  0  0  0  0  0  0  0  0
   -8.5275   17.1531  -32.5263 H   0  0  0  0  0  0  0  0  0  0  0  0
   -6.9770   18.6600  -32.8170 C   0  0  0  0  0  0  0  0  0  0  0  0
   -6.1290   17.8480  -33.5380 N   0  0  0  0  0  0  0  0  0  0  0  0
   -6.6450   16.6040  -34.1520 C   0  0  0  0  0  0  0  0  0  0  0  0
   -6.9377   15.8984  -33.3605 H   0  0  0  0  0  0  0  0  0  0  0  0
   -7.5200   16.8386  -34.7759 H   0  0  0  0  0  0  0  0  0  0  0  0
   -5.8608   16.1504  -34.7759 H   0  0  0  0  0  0  0  0  0  0  0  0
   -1.6350   21.5530  -31.1650 C   0  0  0  0  0  0  0  0  0  0  0  0
   -0.8550   22.4130  -30.4530 N   0  0  0  0  0  0  0  0  0  0  0  0
   -0.9230   22.4950  -29.0960 C   0  0  0  0  0  0  0  0  0  0  0  0
   -0.2754   23.2008  -28.5553 H   0  0  0  0  0  0  0  0  0  0  0  0
   -1.8130   21.6850  -28.3900 C   0  0  0  0  0  0  0  0  0  0  0  0
   -1.8755   21.7501  -27.2937 H   0  0  0  0  0  0  0  0  0  0  0  0
   -2.6230   20.7910  -29.0920 C   0  0  0  0  0  0  0  0  0  0  0  0
   -3.3296   20.1459  -28.5493 H   0  0  0  0  0  0  0  0  0  0  0  0
   -2.5360   20.7160  -30.4830 C   0  0  0  0  0  0  0  0  0  0  0  0
   -3.1668   20.0083  -31.0409 H   0  0  0  0  0  0  0  0  0  0  0  0
  1  2  1  0
  2  3  2  0
  3  4  1  0
  4  5  2  0
  5  6  1  0
  5  7  1  0
  7  8  1  0
  7  9  2  0
  9 10  1  0
  9 11  1  0
 11 12  2  0
 12 13  1  0
 13 14  1  0
 14 15  1  0
 14 16  1  0
 16 17  1  0
 16 18  1  0
 16 19  1  0
 19 20  1  0
 19 21  1  0
 19 22  1  0
 22 23  1  0
 23 24  1  0
 23 25  1  0
 23 26  1  0
 26 27  1  0
 26 28  1  0
 26 29  1  0
 22 30  1  0
 30 31  1  0
 30 32  1  0
 30 33  1  0
 33 34  1  0
 33 35  1  0
 33 36  1  0
 13 37  2  0
 37 38  1  0
 38 39  1  0
 38 40  2  0
 40 41  1  0
 40 42  1  0
 42 43  1  0
 42 44  2  0
 44 45  1  0
 44 46  1  0
 46 47  2  0
 47 48  1  0
 48 49  1  0
 48 50  1  0
 48 51  1  0
  2 52  1  0
 52 53  2  0
 53 54  1  0
 54 55  1  0
 54 56  2  0
 56 57  1  0
 56 58  1  0
 58 59  1  0
 58 60  2  0
 60 61  1  0
 12  4  1  0
 46 37  1  0
 60 52  1  0
 47 11  1  0
M  CHG  1  47   1
M  END
>  <UniqueID>  (1) 
1

>  <SMILES>  (1) 
CCN(CC)CCNc1c2ccccc2[n+](C)c2cccc(/N=C/c3ccccn3)c12

>  <Energy>  (1) 
96.70163210791077

>  <Genealogy>  (1) 
CCN(CC)CCNc1c2ccccc2[n+](C)c2cccc(/N=C/c3ccccn3)c12 (cis-trans isomerization)
CCN(CC)CCNc1c2ccccc2[n+](C)c2cccc(/N=C/c3ccccn3)c12 (3D coordinates assigned)
CCN(CC)CCNc1c2ccccc2[n+](C)c2cccc(/N=C/c3ccccn3)c12 (optimized conformer: 96.70163210791077 kcal/mol)

>  <smiles>  (1) 
CCN(CC)CCNc1c2ccccc2[n+](C)c2cccc(N=Cc3ccccn3)c12

>  <score_type>  (1) 
oracle

>  <origin>  (1) 
adg

>  <m_score__min__energy>  (1) 
-9.6699999999999999

>  <m_primary>  (1) 
energy

$$$$
1:0
     RDKit          3D

 30 31  0  0  0  0  0  0  0  0999 V2000
   -2.5710   23.7060  -28.9190 C   0  0  0  0  0  0  0  0  0  0  0  0
   -3.7730   24.5380  -28.4630 C   0  0  0  0  0  0  0  0  0  0  0  0
   -3.8870   24.5250  -26.9350 C   0  0  0  0  0  0  0  0  0  0  0  0
   -5.0050   24.0210  -29.0660 N   0  0  0  0  0  0  0  0  0  0  0  0
   -5.2780   24.1200  -30.4800 C   0  0  0  0  0  0  0  0  0  0  0  0
   -4.5480   24.8460  -31.2110 O   0  0  0  0  0  0  0  0  0  0  0  0
   -6.5560   23.5580  -31.0630 C   0  0  0  0  0  0  0  0  0  0  0  0
   -5.5630   22.7690  -31.8560 C   0  0  0  0  0  0  0  0  0  0  0  0
   -5.7360   21.4200  -32.2060 C   0  0  0  0  0  0  0  0  0  0  0  0
   -4.6750   20.5890  -32.6100 C   0  0  0  0  0  0  0  0  0  0  0  0
   -4.9260   19.2490  -32.9340 C   0  0  0  0  0  0  0  0  0  0  0  0
   -3.4900   18.1030  -33.4530 Br  0  0  0  0  0  0  0  0  0  0  0  0
   -6.2340   18.7500  -32.8740 C   0  0  0  0  0  0  0  0  0  0  0  0
   -7.2920   19.5940  -32.5120 C   0  0  0  0  0  0  0  0  0  0  0  0
   -9.0830   18.9240  -32.5130 Br  0  0  0  0  0  0  0  0  0  0  0  0
   -7.0260   20.9330  -32.1900 C   0  0  0  0  0  0  0  0  0  0  0  0
   -7.9920   21.7930  -31.9820 O   0  0  0  0  0  0  0  0  0  0  0  0
   -7.7630   23.0520  -31.6090 C   0  0  0  0  0  0  0  0  0  0  0  0
   -8.7500   23.8340  -31.5990 O   0  0  0  0  0  0  0  0  0  0  0  0
   -2.0293   23.3310  -28.0381 H   0  0  0  0  0  0  0  0  0  0  0  0
   -2.9213   22.8562  -29.5232 H   0  0  0  0  0  0  0  0  0  0  0  0
   -1.8990   24.3332  -29.5232 H   0  0  0  0  0  0  0  0  0  0  0  0
   -3.6238   25.5765  -28.7937 H   0  0  0  0  0  0  0  0  0  0  0  0
   -2.8868   24.6391  -26.4917 H   0  0  0  0  0  0  0  0  0  0  0  0
   -4.5298   25.3557  -26.6082 H   0  0  0  0  0  0  0  0  0  0  0  0
   -4.3263   23.5709  -26.6082 H   0  0  0  0  0  0  0  0  0  0  0  0
   -5.7110   23.5380  -28.4620 H   0  0  0  0  0  0  0  0  0  0  0  0
   -4.6432   23.2752  -32.1843 H   0  0  0  0  0  0  0  0  0  0  0  0
   -3.6524   20.9896  -32.6713 H   0  0  0  0  0  0  0  0  0  0  0  0
   -6.4304   17.6940  -33.1115 H   0  0  0  0  0  0  0  0  0  0  0  0
  1  2  1  0
  2  3  1  0
  2  4  1  0
  4  5  1  0
  5  6  2  0
  5  7  1  0
  7  8  2  0
  8  9  1  0
  9 10  2  0
 10 11  1  0
 11 12  1  0
 11 13  2  0
 13 14  1  0
 14 15  1  0
 14 16  2  0
 16 17  1  0
 17 18  1  0
 18 19  2  0
 18  7  1  0
 16  9  1  0
  1 20  1  0
  1 21  1  0
  1 22  1  0
  2 23  1  0
  3 24  1  0
  3 25  1  0
  3 26  1  0
  4 27  1  0
  8 28  1  0
 10 29  1  0
 13 30  1  0
M  END
>  <UniqueID>  (2) 
2

>  <SMILES>  (2) 
CC(C)NC(=O)c1cc2cc(Br)cc(Br)c2oc1=O

>  <Energy>  (2) 
176.47406846238283

>  <Genealogy>  (2) 
CC(C)NC(=O)c1cc2cc(Br)cc(Br)c2oc1=O (3D coordinates assigned)
CC(C)NC(=O)c1cc2cc(Br)cc(Br)c2oc1=O (optimized conformer: 176.47406846238283 kcal/mol)

>  <smiles>  (2) 
CC(C)NC(=O)c1cc2cc(Br)cc(Br)c2oc1=O

>  <score_type>  (2) 
oracle

>  <origin>  (2) 
adg

>  <m_score__min__energy>  (2) 
-7.9900000000000002

>  <m_primary>  (2) 
energy

$$$$
2:0
     RDKit          3D

 78 81  0  0  0  0  0  0  0  0999 V2000
   -0.4310   19.2620  -34.7590 C   0  0  0  0  0  0  0  0  0  0  0  0
   -1.0420   18.9870  -33.3810 C   0  0  0  0  0  0  0  0  0  0  0  0
   -1.7070   20.1650  -32.7690 N   0  0  0  0  0  0  0  0  0  0  0  0
   -0.9020   20.8710  -31.7430 C   0  0  0  0  0  0  0  0  0  0  0  0
   -0.7830   20.0790  -30.4420 C   0  0  0  0  0  0  0  0  0  0  0  0
   -2.2290   21.1050  -33.7900 C   0  0  0  0  0  0  0  0  0  0  0  0
   -3.6630   21.5260  -33.4460 C   0  0  0  0  0  0  0  0  0  0  0  0
   -4.0980   20.9670  -32.1490 N   0  0  0  0  0  0  0  0  0  0  0  0
   -5.4180   20.3650  -32.2520 C   0  0  0  0  0  0  0  0  0  0  0  0
   -5.5110   18.9990  -32.6640 C   0  0  0  0  0  0  0  0  0  0  0  0
   -4.3680   18.2520  -33.0640 C   0  0  0  0  0  0  0  0  0  0  0  0
   -4.4750   16.9270  -33.4780 C   0  0  0  0  0  0  0  0  0  0  0  0
   -5.7140   16.3110  -33.5300 C   0  0  0  0  0  0  0  0  0  0  0  0
   -6.8510   17.0120  -33.1430 C   0  0  0  0  0  0  0  0  0  0  0  0
   -6.7710   18.3500  -32.6740 C   0  0  0  0  0  0  0  0  0  0  0  0
   -7.8930   19.0170  -32.2460 N   0  0  0  0  0  0  0  0  0  0  0  0
   -9.1230   18.2520  -31.9220 C   0  0  0  0  0  0  0  0  0  0  0  0
   -7.8780   20.3900  -32.1160 C   0  0  0  0  0  0  0  0  0  0  0  0
   -9.1030   21.1010  -32.0730 C   0  0  0  0  0  0  0  0  0  0  0  0
   -9.1430   22.4650  -31.8780 C   0  0  0  0  0  0  0  0  0  0  0  0
   -7.9700   23.1640  -31.6960 C   0  0  0  0  0  0  0  0  0  0  0  0
   -6.7190   22.5290  -31.7370 C   0  0  0  0  0  0  0  0  0  0  0  0
   -5.5890   23.3660  -31.4440 N   0  0  0  0  0  0  0  0  0  0  0  0
   -5.7510   24.8000  -31.1690 C   0  0  0  0  0  0  0  0  0  0  0  0
   -4.7740   25.2640  -30.0830 C   0  0  0  0  0  0  0  0  0  0  0  0
   -4.9700   24.5090  -28.7380 C   0  0  0  0  0  0  0  0  0  0  0  0
   -3.7120   24.0780  -28.0450 N   0  0  0  0  0  0  0  0  0  0  0  0
   -3.6260   24.7430  -26.7180 C   0  0  0  0  0  0  0  0  0  0  0  0
   -2.4870   24.3920  -28.8500 C   0  0  0  0  0  0  0  0  0  0  0  0
   -2.0760   23.2540  -29.8100 C   0  0  0  0  0  0  0  0  0  0  0  0
   -3.1950   22.4990  -30.2080 O   0  0  0  0  0  0  0  0  0  0  0  0
   -3.7100   21.7770  -29.1050 C   0  0  0  0  0  0  0  0  0  0  0  0
   -3.7760   22.6070  -27.7970 C   0  0  0  0  0  0  0  0  0  0  0  0
   -6.6360   21.1120  -32.0360 C   0  0  0  0  0  0  0  0  0  0  0  0
    0.5657   19.7106  -34.6352 H   0  0  0  0  0  0  0  0  0  0  0  0
   -0.3414   18.3174  -35.3155 H   0  0  0  0  0  0  0  0  0  0  0  0
   -1.0787   19.9554  -35.3155 H   0  0  0  0  0  0  0  0  0  0  0  0
   -1.7876   18.1853  -33.4871 H   0  0  0  0  0  0  0  0  0  0  0  0
   -0.2121   18.7084  -32.7149 H   0  0  0  0  0  0  0  0  0  0  0  0
    0.1076   21.0430  -32.1443 H   0  0  0  0  0  0  0  0  0  0  0  0
   -1.4132   21.8171  -31.5115 H   0  0  0  0  0  0  0  0  0  0  0  0
   -0.8857   20.7623  -29.5861 H   0  0  0  0  0  0  0  0  0  0  0  0
   -1.5770   19.3188  -30.4016 H   0  0  0  0  0  0  0  0  0  0  0  0
    0.1993   19.5857  -30.4016 H   0  0  0  0  0  0  0  0  0  0  0  0
   -1.5871   21.9977  -33.8225 H   0  0  0  0  0  0  0  0  0  0  0  0
   -2.2296   20.6038  -34.7692 H   0  0  0  0  0  0  0  0  0  0  0  0
   -3.7103   22.6238  -33.3954 H   0  0  0  0  0  0  0  0  0  0  0  0
   -4.3321   21.1395  -34.2289 H   0  0  0  0  0  0  0  0  0  0  0  0
   -4.0410   21.6630  -31.3910 H   0  0  0  0  0  0  0  0  0  0  0  0
   -3.4090   20.2580  -31.8070 H   0  0  0  0  0  0  0  0  0  0  0  0
   -3.3783   18.7318  -33.0458 H   0  0  0  0  0  0  0  0  0  0  0  0
   -3.5723   16.3677  -33.7647 H   0  0  0  0  0  0  0  0  0  0  0  0
   -5.7987   15.2704  -33.8763 H   0  0  0  0  0  0  0  0  0  0  0  0
   -7.8330   16.5197  -33.2014 H   0  0  0  0  0  0  0  0  0  0  0  0
   -9.2346   18.1826  -30.8299 H   0  0  0  0  0  0  0  0  0  0  0  0
   -9.9973   18.7659  -32.3480 H   0  0  0  0  0  0  0  0  0  0  0  0
   -9.0486   17.2406  -32.3480 H   0  0  0  0  0  0  0  0  0  0  0  0
  -10.0467   20.5500  -32.1985 H   0  0  0  0  0  0  0  0  0  0  0  0
  -10.1078   22.9932  -31.8678 H   0  0  0  0  0  0  0  0  0  0  0  0
   -8.0150   24.2479  -31.5138 H   0  0  0  0  0  0  0  0  0  0  0  0
   -4.6440   23.0470  -31.7300 H   0  0  0  0  0  0  0  0  0  0  0  0
   -5.5593   25.3673  -32.0917 H   0  0  0  0  0  0  0  0  0  0  0  0
   -6.7777   24.9756  -30.8154 H   0  0  0  0  0  0  0  0  0  0  0  0
   -3.7468   25.0919  -30.4368 H   0  0  0  0  0  0  0  0  0  0  0  0
   -4.9664   26.3309  -29.8965 H   0  0  0  0  0  0  0  0  0  0  0  0
   -5.5217   25.1722  -28.0554 H   0  0  0  0  0  0  0  0  0  0  0  0
   -5.5063   23.5822  -28.9898 H   0  0  0  0  0  0  0  0  0  0  0  0
   -3.7235   23.9890  -25.9230 H   0  0  0  0  0  0  0  0  0  0  0  0
   -2.6547   25.2508  -26.6246 H   0  0  0  0  0  0  0  0  0  0  0  0
   -4.4362   25.4812  -26.6246 H   0  0  0  0  0  0  0  0  0  0  0  0
   -2.6829   25.2963  -29.4448 H   0  0  0  0  0  0  0  0  0  0  0  0
   -1.6589   24.5330  -28.1398 H   0  0  0  0  0  0  0  0  0  0  0  0
   -1.6009   23.6897  -30.7013 H   0  0  0  0  0  0  0  0  0  0  0  0
   -1.3746   22.5893  -29.2844 H   0  0  0  0  0  0  0  0  0  0  0  0
   -4.7267   21.4393  -29.3544 H   0  0  0  0  0  0  0  0  0  0  0  0
   -3.0241   20.9371  -28.9202 H   0  0  0  0  0  0  0  0  0  0  0  0
   -4.7204   22.3776  -27.2818 H   0  0  0  0  0  0  0  0  0  0  0  0
   -2.9030   22.3345  -27.1858 H   0  0  0  0  0  0  0  0  0  0  0  0
  1  2  1  0
  2  3  1  0
  3  4  1  0
  4  5  1  0
  3  6  1  0
  6  7  1  0
  7  8  1  0
  8  9  1  0
  9 10  2  0
 10 11  1  0
 11 12  2  0
 12 13  1  0
 13 14  2  0
 14 15  1  0
 15 16  2  0
 16 17  1  0
 16 18  1  0
 18 19  2  0
 19 20  1  0
 20 21  2  0
 21 22  1  0
 22 23  1  0
 23 24  1  0
 24 25  1  0
 25 26  1  0
 26 27  1  0
 27 28  1  0
 27 29  1  0
 29 30  1  0
 30 31  1  0
 31 32  1  0
 32 33  1  0
 22 34  2  0
 34  9  1  0
 15 10  1  0
 34 18  1  0
 33 27  1  0
  1 35  1  0
  1 36  1  0
  1 37  1  0
  2 38  1  0
  2 39  1  0
  4 40  1  0
  4 41  1  0
  5 42  1  0
  5 43  1  0
  5 44  1  0
  6 45  1  0
  6 46  1  0
  7 47  1  0
  7 48  1  0
  8 49  1  0
  8 50  1  0
 11 51  1  0
 12 52  1  0
 13 53  1  0
 14 54  1  0
 17 55  1  0
 17 56  1  0
 17 57  1  0
 19 58  1  0
 20 59  1  0
 21 60  1  0
 23 61  1  0
 24 62  1  0
 24 63  1  0
 25 64  1  0
 25 65  1  0
 26 66  1  0
 26 67  1  0
 28 68  1  0
 28 69  1  0
 28 70  1  0
 29 71  1  0
 29 72  1  0
 30 73  1  0
 30 74  1  0
 32 75  1  0
 32 76  1  0
 33 77  1  0
 33 78  1  0
M  CHG  3   8   1  16   1  27   1
M  END
>  <UniqueID>  (3) 
3

>  <SMILES>  (3) 
CCN(CC)CC[NH2+]c1c2ccccc2[n+](C)c2cccc(NCCC[N+]3(C)CCOCC3)c12

>  <Energy>  (3) 
142.53063211964033

>  <Genealogy>  (3) 
CCN(CC)CC[NH2+]c1c2ccccc2[n+](C)c2cccc(NCCC[N+]3(C)CCOCC3)c12 (protonated)
CCN(CC)CC[NH2+]c1c2ccccc2[n+](C)c2cccc(NCCC[N+]3(C)CCOCC3)c12 (3D coordinates assigned)
CCN(CC)CC[NH2+]c1c2ccccc2[n+](C)c2cccc(NCCC[N+]3(C)CCOCC3)c12 (nonaromatic ring conformer: 142.53063211964033 kcal/mol)

>  <smiles>  (3) 
CCN(CC)CCNc1c2ccccc2[n+](C)c2cccc(NCCC[N+]3(C)CCOCC3)c12

>  <score_type>  (3) 
oracle

>  <origin>  (3) 
adg

>  <m_score__min__energy>  (3) 
-8.7599999999999998

>  <m_primary>  (3) 
energy

$$$$
3:0
     RDKit          3D

 79 82  0  0  0  0  0  0  0  0999 V2000
    0.5720   21.1170  -33.7200 C   0  0  0  0  0  0  0  0  0  0  0  0
    0.0600   20.7270  -32.3340 C   0  0  0  0  0  0  0  0  0  0  0  0
   -1.3260   20.2020  -32.4080 N   0  0  0  0  0  0  0  0  0  0  0  0
   -1.3130   18.7330  -32.2020 C   0  0  0  0  0  0  0  0  0  0  0  0
   -2.3150   18.0160  -33.1050 C   0  0  0  0  0  0  0  0  0  0  0  0
   -1.9750   20.5800  -33.6940 C   0  0  0  0  0  0  0  0  0  0  0  0
   -3.3830   21.1430  -33.4560 C   0  0  0  0  0  0  0  0  0  0  0  0
   -3.8530   20.8590  -32.0980 N   0  0  0  0  0  0  0  0  0  0  0  0
   -5.2100   21.1050  -31.7080 C   0  0  0  0  0  0  0  0  0  0  0  0
   -6.2000   20.1230  -31.9630 C   0  0  0  0  0  0  0  0  0  0  0  0
   -5.8560   18.8780  -32.5320 C   0  0  0  0  0  0  0  0  0  0  0  0
   -6.8190   17.8950  -32.7440 C   0  0  0  0  0  0  0  0  0  0  0  0
   -8.1450   18.1350  -32.4140 C   0  0  0  0  0  0  0  0  0  0  0  0
   -8.5240   19.3680  -31.8860 C   0  0  0  0  0  0  0  0  0  0  0  0
   -7.5690   20.3910  -31.6540 C   0  0  0  0  0  0  0  0  0  0  0  0
   -7.9400   21.6230  -31.1530 N   0  0  0  0  0  0  0  0  0  0  0  0
   -9.3530   21.9120  -30.8330 C   0  0  0  0  0  0  0  0  0  0  0  0
   -6.9740   22.5730  -30.9520 C   0  0  0  0  0  0  0  0  0  0  0  0
   -7.2050   24.1370  -30.3730 S   0  0  0  0  0  0  0  0  0  0  0  0
   -5.5890   24.5690  -30.3810 C   0  0  0  0  0  0  0  0  0  0  0  0
   -4.8200   23.4900  -30.8200 C   0  0  0  0  0  0  0  0  0  0  0  0
   -3.3140   23.5800  -30.6960 C   0  0  0  0  0  0  0  0  0  0  0  0
   -2.7950   22.8080  -29.4770 C   0  0  0  0  0  0  0  0  0  0  0  0
   -2.4020   21.4400  -29.8570 N   0  0  0  0  0  0  0  0  0  0  0  0
   -1.5090   20.8050  -28.8730 C   0  0  0  0  0  0  0  0  0  0  0  0
   -0.3920   21.7700  -28.4700 C   0  0  0  0  0  0  0  0  0  0  0  0
   -0.1390   21.7920  -26.9540 C   0  0  0  0  0  0  0  0  0  0  0  0
   -1.2430   22.5610  -26.2070 C   0  0  0  0  0  0  0  0  0  0  0  0
   -1.4030   23.9970  -26.7320 C   0  0  0  0  0  0  0  0  0  0  0  0
   -1.0520   25.0100  -25.6730 C   0  0  0  0  0  0  0  0  0  0  0  0
   -1.6130   26.2960  -25.6840 C   0  0  0  0  0  0  0  0  0  0  0  0
   -1.2410   27.2250  -24.7090 C   0  0  0  0  0  0  0  0  0  0  0  0
   -0.3240   26.8570  -23.7230 C   0  0  0  0  0  0  0  0  0  0  0  0
    0.2000   25.5980  -23.7120 N   0  0  0  0  0  0  0  0  0  0  0  0
   -0.1430   24.6790  -24.6550 C   0  0  0  0  0  0  0  0  0  0  0  0
   -5.6140   22.3550  -31.1820 C   0  0  0  0  0  0  0  0  0  0  0  0
    1.4431   21.7805  -33.6158 H   0  0  0  0  0  0  0  0  0  0  0  0
    0.8649   20.2111  -34.2710 H   0  0  0  0  0  0  0  0  0  0  0  0
   -0.2235   21.6401  -34.2710 H   0  0  0  0  0  0  0  0  0  0  0  0
    0.7166   19.9513  -31.9130 H   0  0  0  0  0  0  0  0  0  0  0  0
    0.0623   21.6221  -31.6946 H   0  0  0  0  0  0  0  0  0  0  0  0
   -0.3040   18.3533  -32.4205 H   0  0  0  0  0  0  0  0  0  0  0  0
   -1.5970   18.5354  -31.1578 H   0  0  0  0  0  0  0  0  0  0  0  0
   -3.0541   17.4871  -32.4853 H   0  0  0  0  0  0  0  0  0  0  0  0
   -2.8289   18.7527  -33.7400 H   0  0  0  0  0  0  0  0  0  0  0  0
   -1.7836   17.2919  -33.7400 H   0  0  0  0  0  0  0  0  0  0  0  0
   -1.3623   21.3439  -34.1951 H   0  0  0  0  0  0  0  0  0  0  0  0
   -2.0591   19.6804  -34.3214 H   0  0  0  0  0  0  0  0  0  0  0  0
   -3.3623   22.2325  -33.6064 H   0  0  0  0  0  0  0  0  0  0  0  0
   -4.0713   20.6622  -34.1667 H   0  0  0  0  0  0  0  0  0  0  0  0
   -3.2710   20.2710  -31.4620 H   0  0  0  0  0  0  0  0  0  0  0  0
   -4.8107   18.6812  -32.8124 H   0  0  0  0  0  0  0  0  0  0  0  0
   -6.5277   16.9255  -33.1743 H   0  0  0  0  0  0  0  0  0  0  0  0
   -8.8995   17.3498  -32.5695 H   0  0  0  0  0  0  0  0  0  0  0  0
   -9.5816   19.5509  -31.6451 H   0  0  0  0  0  0  0  0  0  0  0  0
   -9.4836   21.9387  -29.7411 H   0  0  0  0  0  0  0  0  0  0  0  0
   -9.6338   22.8862  -31.2598 H   0  0  0  0  0  0  0  0  0  0  0  0
   -9.9937   21.1263  -31.2598 H   0  0  0  0  0  0  0  0  0  0  0  0
   -5.1933   25.5520  -30.0858 H   0  0  0  0  0  0  0  0  0  0  0  0
   -2.8564   23.1606  -31.6041 H   0  0  0  0  0  0  0  0  0  0  0  0
   -3.0444   24.6389  -30.5698 H   0  0  0  0  0  0  0  0  0  0  0  0
   -1.9218   23.3327  -29.0620 H   0  0  0  0  0  0  0  0  0  0  0  0
   -3.5971   22.7504  -28.7265 H   0  0  0  0  0  0  0  0  0  0  0  0
   -1.8960   21.4810  -30.7730 H   0  0  0  0  0  0  0  0  0  0  0  0
   -2.0899   20.5292  -27.9806 H   0  0  0  0  0  0  0  0  0  0  0  0
   -1.0611   19.9068  -29.3232 H   0  0  0  0  0  0  0  0  0  0  0  0
    0.5355   21.4644  -28.9763 H   0  0  0  0  0  0  0  0  0  0  0  0
   -0.7062   22.7814  -28.7671 H   0  0  0  0  0  0  0  0  0  0  0  0
   -0.1102   20.7573  -26.5818 H   0  0  0  0  0  0  0  0  0  0  0  0
    0.8188   22.3015  -26.7722 H   0  0  0  0  0  0  0  0  0  0  0  0
   -2.1964   22.0277  -26.3361 H   0  0  0  0  0  0  0  0  0  0  0  0
   -0.9583   22.6176  -25.1460 H   0  0  0  0  0  0  0  0  0  0  0  0
   -0.7385   24.1383  -27.5971 H   0  0  0  0  0  0  0  0  0  0  0  0
   -2.4541   24.1461  -27.0199 H   0  0  0  0  0  0  0  0  0  0  0  0
   -2.3439   26.5721  -26.4583 H   0  0  0  0  0  0  0  0  0  0  0  0
   -1.6676   28.2389  -24.7183 H   0  0  0  0  0  0  0  0  0  0  0  0
   -0.0236   27.5836  -22.9537 H   0  0  0  0  0  0  0  0  0  0  0  0
    0.8850   25.3370  -22.9680 H   0  0  0  0  0  0  0  0  0  0  0  0
    0.2945   23.6704  -24.6197 H   0  0  0  0  0  0  0  0  0  0  0  0
  1  2  1  0
  2  3  1  0
  3  4  1  0
  4  5  1  0
  3  6  1  0
  6  7  1  0
  7  8  1  0
  8  9  1  0
  9 10  2  0
 10 11  1  0
 11 12  2  0
 12 13  1  0
 13 14  2  0
 14 15  1  0
 15 16  2  0
 16 17  1  0
 16 18  1  0
 18 19  1  0
 19 20  1  0
 20 21  2  0
 21 22  1  0
 22 23  1  0
 23 24  1  0
 24 25  1  0
 25 26  1  0
 26 27  1  0
 27 28  1  0
 28 29  1  0
 29 30  1  0
 30 31  2  0
 31 32  1  0
 32 33  2  0
 33 34  1  0
 34 35  2  0
 21 36  1  0
 36  9  1  0
 15 10  1  0
 36 18  2  0
 35 30  1  0
  1 37  1  0
  1 38  1  0
  1 39  1  0
  2 40  1  0
  2 41  1  0
  4 42  1  0
  4 43  1  0
  5 44  1  0
  5 45  1  0
  5 46  1  0
  6 47  1  0
  6 48  1  0
  7 49  1  0
  7 50  1  0
  8 51  1  0
 11 52  1  0
 12 53  1  0
 13 54  1  0
 14 55  1  0
 17 56  1  0
 17 57  1  0
 17 58  1  0
 20 59  1  0
 22 60  1  0
 22 61  1  0
 23 62  1  0
 23 63  1  0
 24 64  1  0
 25 65  1  0
 25 66  1  0
 26 67  1  0
 26 68  1  0
 27 69  1  0
 27 70  1  0
 28 71  1  0
 28 72  1  0
 29 73  1  0
 29 74  1  0
 31 75  1  0
 32 76  1  0
 33 77  1  0
 34 78  1  0
 35 79  1  0
M  CHG  2  16   1  34   1
M  END
>  <UniqueID>  (4) 
4

>  <SMILES>  (4) 
CCN(CC)CCNc1c2ccccc2[n+](C)c2scc(CCNCCCCCc3ccc[nH+]c3)c12

>  <Energy>  (4) 
115.68556671955683

>  <Genealogy>  (4) 
CCN(CC)CCNc1c2ccccc2[n+](C)c2scc(CCNCCCCCc3ccc[nH+]c3)c12 (protonated)
CCN(CC)CCNc1c2ccccc2[n+](C)c2scc(CCNCCCCCc3ccc[nH+]c3)c12 (3D coordinates assigned)
CCN(CC)CCNc1c2ccccc2[n+](C)c2scc(CCNCCCCCc3ccc[nH+]c3)c12 (optimized conformer: 115.68556671955683 kcal/mol)

>  <smiles>  (4) 
CCN(CC)CCNc1c2ccccc2[n+](C)c2scc(CCNCCCCCc3cccnc3)c12

>  <score_type>  (4) 
oracle

>  <origin>  (4) 
adg

>  <m_score__min__energy>  (4) 
-11.550000000000001

>  <m_primary>  (4) 
energy

$$$$
4:0
     RDKit          3D

 46 49  0  0  0  0  0  0  0  0999 V2000
   -6.8660   24.6070  -30.0930 C   0  0  0  0  0  0  0  0  0  0  0  0
   -5.5260   25.3500  -30.0850 C   0  0  0  0  0  0  0  0  0  0  0  0
   -4.6080   24.8590  -31.1270 N   0  0  0  0  0  0  0  0  0  0  0  0
   -3.6040   23.9220  -30.5990 C   0  0  0  0  0  0  0  0  0  0  0  0
   -4.0630   22.4790  -30.8180 C   0  0  0  0  0  0  0  0  0  0  0  0
   -4.9610   22.4050  -31.9680 N   0  0  0  0  0  0  0  0  0  0  0  0
   -5.4910   21.1440  -32.4030 C   0  0  0  0  0  0  0  0  0  0  0  0
   -4.6490   20.1800  -32.9450 C   0  0  0  0  0  0  0  0  0  0  0  0
   -5.1310   18.9380  -33.3200 C   0  0  0  0  0  0  0  0  0  0  0  0
   -6.4420   18.5780  -33.1490 N   0  0  0  0  0  0  0  0  0  0  0  0
   -6.8670   17.1930  -33.4170 C   0  0  0  0  0  0  0  0  0  0  0  0
   -7.3400   19.5480  -32.7280 C   0  0  0  0  0  0  0  0  0  0  0  0
   -8.7360   19.3080  -32.7030 C   0  0  0  0  0  0  0  0  0  0  0  0
   -9.6260   20.2900  -32.2690 C   0  0  0  0  0  0  0  0  0  0  0  0
   -9.1590   21.5380  -31.8680 C   0  0  0  0  0  0  0  0  0  0  0  0
   -7.7960   21.8200  -31.9060 C   0  0  0  0  0  0  0  0  0  0  0  0
   -6.8710   20.8450  -32.3280 C   0  0  0  0  0  0  0  0  0  0  0  0
   -3.9970   18.1720  -33.8730 C   0  0  0  0  0  0  0  0  0  0  0  0
   -3.9900   16.9520  -34.4710 N   0  0  0  0  0  0  0  0  0  0  0  0
   -2.8230   16.4520  -34.9720 C   0  0  0  0  0  0  0  0  0  0  0  0
   -1.6300   17.2010  -34.8940 C   0  0  0  0  0  0  0  0  0  0  0  0
   -1.6450   18.4750  -34.3050 C   0  0  0  0  0  0  0  0  0  0  0  0
   -2.8550   18.9410  -33.8000 C   0  0  0  0  0  0  0  0  0  0  0  0
   -3.2070   20.2230  -33.2100 C   0  0  0  0  0  0  0  0  0  0  0  0
   -2.4210   21.1820  -32.9890 O   0  0  0  0  0  0  0  0  0  0  0  0
   -7.1914   24.4266  -29.0578 H   0  0  0  0  0  0  0  0  0  0  0  0
   -7.6198   25.2160  -30.6135 H   0  0  0  0  0  0  0  0  0  0  0  0
   -6.7488   23.6450  -30.6135 H   0  0  0  0  0  0  0  0  0  0  0  0
   -5.7141   26.4204  -30.2551 H   0  0  0  0  0  0  0  0  0  0  0  0
   -5.0505   25.1757  -29.1085 H   0  0  0  0  0  0  0  0  0  0  0  0
   -4.1180   25.6690  -31.5750 H   0  0  0  0  0  0  0  0  0  0  0  0
   -2.6481   24.0823  -31.1191 H   0  0  0  0  0  0  0  0  0  0  0  0
   -3.4786   24.0996  -29.5207 H   0  0  0  0  0  0  0  0  0  0  0  0
   -3.1850   21.8421  -31.0008 H   0  0  0  0  0  0  0  0  0  0  0  0
   -4.5979   22.1322  -29.9216 H   0  0  0  0  0  0  0  0  0  0  0  0
   -4.9270   23.1900  -32.6570 H   0  0  0  0  0  0  0  0  0  0  0  0
   -7.0281   16.6680  -32.4639 H   0  0  0  0  0  0  0  0  0  0  0  0
   -7.8037   17.2020  -33.9936 H   0  0  0  0  0  0  0  0  0  0  0  0
   -6.0865   16.6750  -33.9936 H   0  0  0  0  0  0  0  0  0  0  0  0
   -9.1238   18.3322  -33.0309 H   0  0  0  0  0  0  0  0  0  0  0  0
  -10.7048   20.0765  -32.2435 H   0  0  0  0  0  0  0  0  0  0  0  0
   -9.8683   22.3035  -31.5202 H   0  0  0  0  0  0  0  0  0  0  0  0
   -7.4376   22.8149  -31.6032 H   0  0  0  0  0  0  0  0  0  0  0  0
   -2.8126   15.4568  -35.4405 H   0  0  0  0  0  0  0  0  0  0  0  0
   -0.6918   16.7882  -35.2932 H   0  0  0  0  0  0  0  0  0  0  0  0
   -0.7312   19.0844  -34.2447 H   0  0  0  0  0  0  0  0  0  0  0  0
  1  2  1  0
  2  3  1  0
  3  4  1  0
  4  5  1  0
  5  6  1  0
  6  7  1  0
  7  8  2  0
  8  9  1  0
  9 10  2  0
 10 11  1  0
 10 12  1  0
 12 13  2  0
 13 14  1  0
 14 15  2  0
 15 16  1  0
 16 17  2  0
  9 18  1  0
 18 19  2  0
 19 20  1  0
 20 21  2  0
 21 22  1  0
 22 23  2  0
 23 24  1  0
 24 25  2  0
 17  7  1  0
 23 18  1  0
 24  8  1  0
 17 12  1  0
  1 26  1  0
  1 27  1  0
  1 28  1  0
  2 29  1  0
  2 30  1  0
  3 31  1  0
  4 32  1  0
  4 33  1  0
  5 34  1  0
  5 35  1  0
  6 36  1  0
 11 37  1  0
 11 38  1  0
 11 39  1  0
 13 40  1  0
 14 41  1  0
 15 42  1  0
 16 43  1  0
 20 44  1  0
 21 45  1  0
 22 46  1  0
M  CHG  1  10   1
M  END
>  <UniqueID>  (5) 
5

>  <SMILES>  (5) 
CCNCCNc1c2c([n+](C)c3ccccc13)-c1ncccc1C2=O

>  <Energy>  (5) 
99.46108653748865

>  <Genealogy>  (5) 
CCNCCNc1c2c([n+](C)c3ccccc13)-c1ncccc1C2=O (3D coordinates assigned)
CCNCCNc1c2c([n+](C)c3ccccc13)-c1ncccc1C2=O (nonaromatic ring conformer: 99.46108653748865 kcal/mol)

>  <smiles>  (5) 
CCNCCNc1c2c([n+](C)c3ccccc13)-c1ncccc1C2=O

>  <score_type>  (5) 
oracle

>  <origin>  (5) 
adg

>  <m_score__min__energy>  (5) 
-9.1600000000000001

>  <m_primary>  (5) 
energy

$$$$
5:0
     RDKit          3D

 64 66  0  0  0  0  0  0  0  0999 V2000
   -1.9470   25.9520  -26.5240 C   0  0  0  0  0  0  0  0  0  0  0  0
   -0.9100   25.9190  -27.6380 C   0  0  0  0  0  0  0  0  0  0  0  0
   -1.5340   25.6430  -28.8760 O   0  0  0  0  0  0  0  0  0  0  0  0
   -1.2120   24.3440  -29.3240 C   0  0  0  0  0  0  0  0  0  0  0  0
   -0.9010   23.4410  -28.1250 C   0  0  0  0  0  0  0  0  0  0  0  0
   -2.0410   22.4570  -27.8170 C   0  0  0  0  0  0  0  0  0  0  0  0
   -3.0790   22.4800  -28.8790 N   0  0  0  0  0  0  0  0  0  0  0  0
   -3.2220   21.1350  -29.4690 C   0  0  0  0  0  0  0  0  0  0  0  0
   -4.3730   22.9690  -28.3430 C   0  0  0  0  0  0  0  0  0  0  0  0
   -4.6040   24.4680  -28.6100 C   0  0  0  0  0  0  0  0  0  0  0  0
   -4.2110   24.8380  -29.9800 N   0  0  0  0  0  0  0  0  0  0  0  0
   -5.3550   25.2630  -30.8090 C   0  0  0  0  0  0  0  0  0  0  0  0
   -5.7420   24.1330  -31.7540 C   0  0  0  0  0  0  0  0  0  0  0  0
   -5.1090   22.8730  -31.3630 N   0  0  0  0  0  0  0  0  0  0  0  0
   -5.3110   21.6580  -32.1070 C   0  0  0  0  0  0  0  0  0  0  0  0
   -4.2190   21.0320  -32.7380 C   0  0  0  0  0  0  0  0  0  0  0  0
   -2.9340   21.6160  -32.7040 C   0  0  0  0  0  0  0  0  0  0  0  0
   -1.8390   20.9630  -33.2600 C   0  0  0  0  0  0  0  0  0  0  0  0
   -2.0020   19.7180  -33.8540 C   0  0  0  0  0  0  0  0  0  0  0  0
   -3.2650   19.1300  -33.9150 C   0  0  0  0  0  0  0  0  0  0  0  0
   -4.4090   19.7860  -33.3900 C   0  0  0  0  0  0  0  0  0  0  0  0
   -5.6740   19.2360  -33.4920 N   0  0  0  0  0  0  0  0  0  0  0  0
   -5.9060   18.0880  -34.4010 C   0  0  0  0  0  0  0  0  0  0  0  0
   -6.7290   19.7900  -32.7890 C   0  0  0  0  0  0  0  0  0  0  0  0
   -7.9850   19.1370  -32.6800 C   0  0  0  0  0  0  0  0  0  0  0  0
   -9.0720   19.7660  -32.0770 C   0  0  0  0  0  0  0  0  0  0  0  0
   -8.9420   21.0550  -31.5740 C   0  0  0  0  0  0  0  0  0  0  0  0
   -7.7070   21.6960  -31.6040 C   0  0  0  0  0  0  0  0  0  0  0  0
   -6.5790   21.0540  -32.1590 C   0  0  0  0  0  0  0  0  0  0  0  0
   -1.4382   25.9358  -25.5489 H   0  0  0  0  0  0  0  0  0  0  0  0
   -2.5475   26.8697  -26.6091 H   0  0  0  0  0  0  0  0  0  0  0  0
   -2.6046   25.0743  -26.6091 H   0  0  0  0  0  0  0  0  0  0  0  0
   -0.4059   26.8950  -27.6945 H   0  0  0  0  0  0  0  0  0  0  0  0
   -0.1752   25.1295  -27.4219 H   0  0  0  0  0  0  0  0  0  0  0  0
   -2.0643   23.9289  -29.8819 H   0  0  0  0  0  0  0  0  0  0  0  0
   -0.3289   24.3949  -29.9779 H   0  0  0  0  0  0  0  0  0  0  0  0
    0.0113   22.8666  -28.3434 H   0  0  0  0  0  0  0  0  0  0  0  0
   -0.7711   24.0877  -27.2447 H   0  0  0  0  0  0  0  0  0  0  0  0
   -1.6265   21.4407  -27.7438 H   0  0  0  0  0  0  0  0  0  0  0  0
   -2.5100   22.7568  -26.8682 H   0  0  0  0  0  0  0  0  0  0  0  0
   -3.3014   20.3885  -28.6650 H   0  0  0  0  0  0  0  0  0  0  0  0
   -4.1287   21.1019  -30.0909 H   0  0  0  0  0  0  0  0  0  0  0  0
   -2.3425   20.9120  -30.0909 H   0  0  0  0  0  0  0  0  0  0  0  0
   -5.1865   22.3989  -28.8154 H   0  0  0  0  0  0  0  0  0  0  0  0
   -4.3534   22.8271  -27.2524 H   0  0  0  0  0  0  0  0  0  0  0  0
   -5.6710   24.6959  -28.4702 H   0  0  0  0  0  0  0  0  0  0  0  0
   -3.9856   25.0438  -27.9057 H   0  0  0  0  0  0  0  0  0  0  0  0
   -3.7830   23.9910  -30.4220 H   0  0  0  0  0  0  0  0  0  0  0  0
   -6.2086   25.5068  -30.1594 H   0  0  0  0  0  0  0  0  0  0  0  0
   -5.0751   26.1516  -31.3938 H   0  0  0  0  0  0  0  0  0  0  0  0
   -6.8345   24.0068  -31.7332 H   0  0  0  0  0  0  0  0  0  0  0  0
   -5.3997   24.3942  -32.7662 H   0  0  0  0  0  0  0  0  0  0  0  0
   -4.5410   22.8410  -30.4860 H   0  0  0  0  0  0  0  0  0  0  0  0
   -2.7971   22.6000  -32.2318 H   0  0  0  0  0  0  0  0  0  0  0  0
   -0.8446   21.4322  -33.2293 H   0  0  0  0  0  0  0  0  0  0  0  0
   -1.1323   19.1944  -34.2775 H   0  0  0  0  0  0  0  0  0  0  0  0
   -3.3768   18.1389  -34.3788 H   0  0  0  0  0  0  0  0  0  0  0  0
   -6.0893   17.1808  -33.8065 H   0  0  0  0  0  0  0  0  0  0  0  0
   -6.7807   18.2936  -35.0355 H   0  0  0  0  0  0  0  0  0  0  0  0
   -5.0201   17.9378  -35.0355 H   0  0  0  0  0  0  0  0  0  0  0  0
   -8.1017   18.1182  -33.0780 H   0  0  0  0  0  0  0  0  0  0  0  0
  -10.0355   19.2411  -31.9988 H   0  0  0  0  0  0  0  0  0  0  0  0
   -9.8173   21.5699  -31.1512 H   0  0  0  0  0  0  0  0  0  0  0  0
   -7.6091   22.7112  -31.1919 H   0  0  0  0  0  0  0  0  0  0  0  0
  1  2  1  0
  2  3  1  0
  3  4  1  0
  4  5  1  0
  5  6  1  0
  6  7  1  0
  7  8  1  0
  7  9  1  0
  9 10  1  0
 10 11  1  0
 11 12  1  0
 12 13  1  0
 13 14  1  0
 14 15  1  0
 15 16  2  0
 16 17  1  0
 17 18  2  0
 18 19  1  0
 19 20  2  0
 20 21  1  0
 21 22  2  0
 22 23  1  0
 22 24  1  0
 24 25  2  0
 25 26  1  0
 26 27  2  0
 27 28  1  0
 28 29  2  0
 29 15  1  0
 21 16  1  0
 29 24  1  0
  1 30  1  0
  1 31  1  0
  1 32  1  0
  2 33  1  0
  2 34  1  0
  4 35  1  0
  4 36  1  0
  5 37  1  0
  5 38  1  0
  6 39  1  0
  6 40  1  0
  8 41  1  0
  8 42  1  0
  8 43  1  0
  9 44  1  0
  9 45  1  0
 10 46  1  0
 10 47  1  0
 11 48  1  0
 12 49  1  0
 12 50  1  0
 13 51  1  0
 13 52  1  0
 14 53  1  0
 17 54  1  0
 18 55  1  0
 19 56  1  0
 20 57  1  0
 23 58  1  0
 23 59  1  0
 23 60  1  0
 25 61  1  0
 26 62  1  0
 27 63  1  0
 28 64  1  0
M  CHG  1  22   1
M  END
>  <UniqueID>  (6) 
6

>  <SMILES>  (6) 
CCOCCCN(C)CCNCCNc1c2ccccc2[n+](C)c2ccccc12

>  <Energy>  (6) 
84.30101931383528

>  <Genealogy>  (6) 
CCOCCCN(C)CCNCCNc1c2ccccc2[n+](C)c2ccccc12 (3D coordinates assigned)
CCOCCCN(C)CCNCCNc1c2ccccc2[n+](C)c2ccccc12 (optimized conformer: 84.30101931383528 kcal/mol)

>  <smiles>  (6) 
CCOCCCN(C)CCNCCNc1c2ccccc2[n+](C)c2ccccc12

>  <score_type>  (6) 
oracle

>  <origin>  (6) 
adg

>  <m_score__min__energy>  (6) 
-8.8399999999999999

>  <m_primary>  (6) 
energy

$$$$
6:0
     RDKit          3D

 54 56  0  0  0  0  0  0  0  0999 V2000
   -0.6610   21.3580  -30.3350 C   0  0  0  0  0  0  0  0  0  0  0  0
   -0.2960   20.8660  -31.7490 C   0  0  0  0  0  0  0  0  0  0  0  0
   -1.4480   20.3300  -32.5510 N   0  0  0  0  0  0  0  0  0  0  0  0
   -1.3720   18.8400  -32.5580 C   0  0  0  0  0  0  0  0  0  0  0  0
   -1.4620   20.7910  -33.9850 C   0  0  0  0  0  0  0  0  0  0  0  0
   -0.1080   21.2130  -34.5930 C   0  0  0  0  0  0  0  0  0  0  0  0
   -2.7430   20.6520  -31.8590 C   0  0  0  0  0  0  0  0  0  0  0  0
   -3.4790   21.9180  -32.3390 C   0  0  0  0  0  0  0  0  0  0  0  0
   -4.4430   21.5680  -33.3820 N   0  0  0  0  0  0  0  0  0  0  0  0
   -5.6150   20.7940  -33.0800 C   0  0  0  0  0  0  0  0  0  0  0  0
   -6.7240   21.4130  -32.5070 C   0  0  0  0  0  0  0  0  0  0  0  0
   -7.8320   20.6910  -32.1500 C   0  0  0  0  0  0  0  0  0  0  0  0
   -7.9110   19.3340  -32.3450 N   0  0  0  0  0  0  0  0  0  0  0  0
   -9.1140   18.5920  -31.9220 C   0  0  0  0  0  0  0  0  0  0  0  0
   -6.8550   18.6810  -32.9600 C   0  0  0  0  0  0  0  0  0  0  0  0
   -6.8980   17.2920  -33.2340 C   0  0  0  0  0  0  0  0  0  0  0  0
   -5.8390   16.6540  -33.8800 C   0  0  0  0  0  0  0  0  0  0  0  0
   -4.7210   17.3790  -34.2790 C   0  0  0  0  0  0  0  0  0  0  0  0
   -4.6440   18.7460  -34.0240 C   0  0  0  0  0  0  0  0  0  0  0  0
   -5.6870   19.4110  -33.3490 C   0  0  0  0  0  0  0  0  0  0  0  0
   -8.8690   21.5640  -31.5270 C   0  0  0  0  0  0  0  0  0  0  0  0
   -8.2780   22.9810  -31.6010 C   0  0  0  0  0  0  0  0  0  0  0  0
   -6.8580   22.8540  -32.1700 C   0  0  0  0  0  0  0  0  0  0  0  0
   -0.1809   20.7108  -29.5863 H   0  0  0  0  0  0  0  0  0  0  0  0
   -0.3100   22.3923  -30.2047 H   0  0  0  0  0  0  0  0  0  0  0  0
   -1.7527   21.3221  -30.2047 H   0  0  0  0  0  0  0  0  0  0  0  0
    0.1414   21.7104  -32.3020 H   0  0  0  0  0  0  0  0  0  0  0  0
    0.4010   20.0261  -31.6123 H   0  0  0  0  0  0  0  0  0  0  0  0
   -1.3531   18.4690  -31.5226 H   0  0  0  0  0  0  0  0  0  0  0  0
   -2.2504   18.4305  -33.0783 H   0  0  0  0  0  0  0  0  0  0  0  0
   -0.4565   18.5220  -33.0783 H   0  0  0  0  0  0  0  0  0  0  0  0
   -1.8587   19.9666  -34.5958 H   0  0  0  0  0  0  0  0  0  0  0  0
   -2.0761   21.7036  -33.9881 H   0  0  0  0  0  0  0  0  0  0  0  0
    0.6039   21.4349  -33.7843 H   0  0  0  0  0  0  0  0  0  0  0  0
    0.2859   20.3950  -35.2141 H   0  0  0  0  0  0  0  0  0  0  0  0
   -0.2486   22.1099  -35.2141 H   0  0  0  0  0  0  0  0  0  0  0  0
   -3.4202   19.7969  -32.0010 H   0  0  0  0  0  0  0  0  0  0  0  0
   -2.4735   20.8498  -30.8110 H   0  0  0  0  0  0  0  0  0  0  0  0
   -4.0094   22.3753  -31.4907 H   0  0  0  0  0  0  0  0  0  0  0  0
   -2.7465   22.6300  -32.7470 H   0  0  0  0  0  0  0  0  0  0  0  0
   -4.4600   22.1720  -34.2350 H   0  0  0  0  0  0  0  0  0  0  0  0
   -9.1599   18.5637  -30.8233 H   0  0  0  0  0  0  0  0  0  0  0  0
  -10.0110   19.0940  -32.3136 H   0  0  0  0  0  0  0  0  0  0  0  0
   -9.0680   17.5651  -32.3136 H   0  0  0  0  0  0  0  0  0  0  0  0
   -7.7799   16.7075  -32.9328 H   0  0  0  0  0  0  0  0  0  0  0  0
   -5.8883   15.5725  -34.0748 H   0  0  0  0  0  0  0  0  0  0  0  0
   -3.8948   16.8709  -34.7978 H   0  0  0  0  0  0  0  0  0  0  0  0
   -3.7601   19.3123  -34.3528 H   0  0  0  0  0  0  0  0  0  0  0  0
   -9.8131   21.5071  -32.0887 H   0  0  0  0  0  0  0  0  0  0  0  0
   -9.1029   21.2628  -30.4952 H   0  0  0  0  0  0  0  0  0  0  0  0
   -8.8928   23.6113  -32.2603 H   0  0  0  0  0  0  0  0  0  0  0  0
   -8.2582   23.4473  -30.6049 H   0  0  0  0  0  0  0  0  0  0  0  0
   -6.7416   23.4768  -33.0692 H   0  0  0  0  0  0  0  0  0  0  0  0
   -6.0892   23.1924  -31.4597 H   0  0  0  0  0  0  0  0  0  0  0  0
  1  2  1  0
  2  3  1  0
  3  4  1  0
  3  5  1  0
  5  6  1  0
  3  7  1  0
  7  8  1  0
  8  9  1  0
  9 10  1  0
 10 11  2  0
 11 12  1  0
 12 13  2  0
 13 14  1  0
 13 15  1  0
 15 16  2  0
 16 17  1  0
 17 18  2  0
 18 19  1  0
 19 20  2  0
 12 21  1  0
 21 22  1  0
 22 23  1  0
 20 10  1  0
 23 11  1  0
 20 15  1  0
  1 24  1  0
  1 25  1  0
  1 26  1  0
  2 27  1  0
  2 28  1  0
  4 29  1  0
  4 30  1  0
  4 31  1  0
  5 32  1  0
  5 33  1  0
  6 34  1  0
  6 35  1  0
  6 36  1  0
  7 37  1  0
  7 38  1  0
  8 39  1  0
  8 40  1  0
  9 41  1  0
 14 42  1  0
 14 43  1  0
 14 44  1  0
 16 45  1  0
 17 46  1  0
 18 47  1  0
 19 48  1  0
 21 49  1  0
 21 50  1  0
 22 51  1  0
 22 52  1  0
 23 53  1  0
 23 54  1  0
M  CHG  2   3   1  13   1
M  END
>  <UniqueID>  (7) 
7

>  <SMILES>  (7) 
CC[N+](C)(CC)CCNc1c2c([n+](C)c3ccccc13)CCC2

>  <Energy>  (7) 
91.50274288481401

>  <Genealogy>  (7) 
CC[N+](C)(CC)CCNc1c2c([n+](C)c3ccccc13)CCC2 (3D coordinates assigned)
CC[N+](C)(CC)CCNc1c2c([n+](C)c3ccccc13)CCC2 (nonaromatic ring conformer: 91.50274288481401 kcal/mol)

>  <smiles>  (7) 
CC[N+](C)(CC)CCNc1c2c([n+](C)c3ccccc13)CCC2

>  <score_type>  (7) 
oracle

>  <origin>  (7) 
adg

>  <m_score__min__energy>  (7) 
-6.75

>  <m_primary>  (7) 
energy

$$$$
7:0
     RDKit          3D

 56 55  0  0  0  0  0  0  0  0999 V2000
   -9.6545   19.8763  -33.0197 H   0  0  0  0  0  0  0  0  0  0  0  0
   -8.9860   20.1670  -32.1960 C   0  0  0  0  0  0  0  0  0  0  0  0
   -9.0830   21.4260  -31.7300 C   0  0  0  0  0  0  0  0  0  0  0  0
   -9.7267   22.1282  -32.2800 H   0  0  0  0  0  0  0  0  0  0  0  0
   -8.3700   21.9380  -30.5070 C   0  0  0  0  0  0  0  0  0  0  0  0
   -8.2710   21.1220  -29.7760 H   0  0  0  0  0  0  0  0  0  0  0  0
   -8.9520   22.7638  -30.0719 H   0  0  0  0  0  0  0  0  0  0  0  0
   -7.0350   22.4310  -30.8670 N   0  0  0  0  0  0  0  0  0  0  0  0
   -6.6550   21.7930  -31.6060 H   0  0  0  0  0  0  0  0  0  0  0  0
   -7.1270   23.7810  -31.4370 C   0  0  0  0  0  0  0  0  0  0  0  0
   -8.1387   23.9325  -31.8415 H   0  0  0  0  0  0  0  0  0  0  0  0
   -6.3750   23.8769  -32.2340 H   0  0  0  0  0  0  0  0  0  0  0  0
   -6.8480   24.8480  -30.3710 C   0  0  0  0  0  0  0  0  0  0  0  0
   -7.0147   24.4054  -29.3779 H   0  0  0  0  0  0  0  0  0  0  0  0
   -7.5280   25.6919  -30.5594 H   0  0  0  0  0  0  0  0  0  0  0  0
   -5.4130   25.3860  -30.4340 C   0  0  0  0  0  0  0  0  0  0  0  0
   -5.1128   25.7433  -29.4379 H   0  0  0  0  0  0  0  0  0  0  0  0
   -5.3673   26.2159  -31.1545 H   0  0  0  0  0  0  0  0  0  0  0  0
   -4.5000   24.3180  -30.8650 N   0  0  0  0  0  0  0  0  0  0  0  0
   -5.0590   23.4340  -30.9390 H   0  0  0  0  0  0  0  0  0  0  0  0
   -3.4300   24.0960  -29.8800 C   0  0  0  0  0  0  0  0  0  0  0  0
   -2.9123   25.0474  -29.6884 H   0  0  0  0  0  0  0  0  0  0  0  0
   -2.7259   23.3534  -30.2834 H   0  0  0  0  0  0  0  0  0  0  0  0
   -4.0100   23.5620  -28.5600 C   0  0  0  0  0  0  0  0  0  0  0  0
   -3.9100   22.4666  -28.5531 H   0  0  0  0  0  0  0  0  0  0  0  0
   -5.0608   23.8839  -28.5133 H   0  0  0  0  0  0  0  0  0  0  0  0
   -3.3080   24.1230  -27.3140 C   0  0  0  0  0  0  0  0  0  0  0  0
   -2.4894   24.7812  -27.6407 H   0  0  0  0  0  0  0  0  0  0  0  0
   -2.9414   23.2648  -26.7316 H   0  0  0  0  0  0  0  0  0  0  0  0
   -4.2410   24.9230  -26.4050 C   0  0  0  0  0  0  0  0  0  0  0  0
   -3.9966   24.7135  -25.3532 H   0  0  0  0  0  0  0  0  0  0  0  0
   -4.1142   25.9974  -26.6039 H   0  0  0  0  0  0  0  0  0  0  0  0
   -5.2835   24.6338  -26.6039 H   0  0  0  0  0  0  0  0  0  0  0  0
   -8.0290   19.1250  -31.6730 C   0  0  0  0  0  0  0  0  0  0  0  0
   -8.2069   18.9736  -30.5981 H   0  0  0  0  0  0  0  0  0  0  0  0
   -8.1912   18.1812  -32.2142 H   0  0  0  0  0  0  0  0  0  0  0  0
   -6.6460   19.5670  -31.8790 N   0  0  0  0  0  0  0  0  0  0  0  0
   -6.5320   20.4870  -31.3920 H   0  0  0  0  0  0  0  0  0  0  0  0
   -6.3640   19.7830  -33.3050 C   0  0  0  0  0  0  0  0  0  0  0  0
   -6.5687   18.8576  -33.8633 H   0  0  0  0  0  0  0  0  0  0  0  0
   -7.0049   20.5915  -33.6866 H   0  0  0  0  0  0  0  0  0  0  0  0
   -4.8910   20.1720  -33.4830 C   0  0  0  0  0  0  0  0  0  0  0  0
   -4.2632   19.3909  -33.0294 H   0  0  0  0  0  0  0  0  0  0  0  0
   -4.7008   20.2703  -34.5620 H   0  0  0  0  0  0  0  0  0  0  0  0
   -4.5500   21.5240  -32.8240 C   0  0  0  0  0  0  0  0  0  0  0  0
   -3.5575   21.8428  -33.1751 H   0  0  0  0  0  0  0  0  0  0  0  0
   -5.3396   22.2341  -33.1109 H   0  0  0  0  0  0  0  0  0  0  0  0
   -4.5290   21.4670  -31.3510 N   0  0  0  0  0  0  0  0  0  0  0  0
   -5.3990   21.0140  -30.9980 H   0  0  0  0  0  0  0  0  0  0  0  0
   -3.3620   20.7420  -30.8330 C   0  0  0  0  0  0  0  0  0  0  0  0
   -3.2834   20.9051  -29.7480 H   0  0  0  0  0  0  0  0  0  0  0  0
   -3.4816   19.6683  -31.0400 H   0  0  0  0  0  0  0  0  0  0  0  0
   -2.0940   21.2460  -31.5130 C   0  0  0  0  0  0  0  0  0  0  0  0
   -1.3592   21.5381  -30.7483 H   0  0  0  0  0  0  0  0  0  0  0  0
   -1.6722   20.4472  -32.1407 H   0  0  0  0  0  0  0  0  0  0  0  0
   -2.3357   22.1164  -32.1407 H   0  0  0  0  0  0  0  0  0  0  0  0
  1  2  1  0
  2  3  2  0
  3  4  1  0
  3  5  1  0
  5  6  1  0
  5  7  1  0
  5  8  1  0
  8  9  1  0
  8 10  1  0
 10 11  1  0
 10 12  1  0
 10 13  1  0
 13 14  1  0
 13 15  1  0
 13 16  1  0
 16 17  1  0
 16 18  1  0
 16 19  1  0
 19 20  1  0
 19 21  1  0
 21 22  1  0
 21 23  1  0
 21 24  1  0
 24 25  1  0
 24 26  1  0
 24 27  1  0
 27 28  1  0
 27 29  1  0
 27 30  1  0
 30 31  1  0
 30 32  1  0
 30 33  1  0
  2 34  1  0
 34 35  1  0
 34 36  1  0
 34 37  1  0
 37 38  1  0
 37 39  1  0
 39 40  1  0
 39 41  1  0
 39 42  1  0
 42 43  1  0
 42 44  1  0
 42 45  1  0
 45 46  1  0
 45 47  1  0
 45 48  1  0
 48 49  1  0
 48 50  1  0
 50 51  1  0
 50 52  1  0
 50 53  1  0
 53 54  1  0
 53 55  1  0
 53 56  1  0
M  END
>  <UniqueID>  (8) 
8

>  <SMILES>  (8) 
CCCCNCCCNC/C=C\CNCCCNCC

>  <Energy>  (8) 
27.85107898465807

>  <Genealogy>  (8) 
CCCCNCCCNC/C=C\CNCCCNCC (cis-trans isomerization)
CCCCNCCCNC/C=C\CNCCCNCC (3D coordinates assigned)
CCCCNCCCNC/C=C\CNCCCNCC (optimized conformer: 27.85107898465807 kcal/mol)

>  <smiles>  (8) 
CCCCNCCCNCC=CCNCCCNCC

>  <score_type>  (8) 
oracle

>  <origin>  (8) 
adg

>  <m_score__min__energy>  (8) 
-5.2800000000000002

>  <m_primary>  (8) 
energy

$$$$
8:0
     RDKit          3D

 53 55  0  0  0  0  0  0  0  0999 V2000
   -1.7360   26.1020  -25.0570 C   0  0  0  0  0  0  0  0  0  0  0  0
   -2.7130   25.3110  -25.9330 C   0  0  0  0  0  0  0  0  0  0  0  0
   -2.3070   25.2750  -27.3600 N   0  0  1  0  0  0  0  0  0  0  0  0
   -1.0960   26.0950  -27.5680 C   0  0  0  0  0  0  0  0  0  0  0  0
   -2.1440   23.9060  -27.9170 C   0  0  0  0  0  0  0  0  0  0  0  0
   -2.3150   23.8120  -29.4480 C   0  0  0  0  0  0  0  0  0  0  0  0
   -3.1290   24.8730  -29.9170 O   0  0  0  0  0  0  0  0  0  0  0  0
   -4.3670   24.3840  -30.4010 C   0  0  0  0  0  0  0  0  0  0  0  0
   -4.3290   22.8540  -30.5120 C   0  0  0  0  0  0  0  0  0  0  0  0
   -4.4410   22.4430  -31.8770 O   0  0  0  0  0  0  0  0  0  0  0  0
   -5.3870   21.4950  -32.2870 C   0  0  0  0  0  0  0  0  0  0  0  0
   -6.7550   21.7910  -32.1920 C   0  0  0  0  0  0  0  0  0  0  0  0
   -7.1910   23.1140  -31.9750 C   0  0  0  0  0  0  0  0  0  0  0  0
   -8.5500   23.4110  -31.9010 C   0  0  0  0  0  0  0  0  0  0  0  0
   -9.4910   22.4010  -32.0630 C   0  0  0  0  0  0  0  0  0  0  0  0
   -9.0810   21.0880  -32.2880 C   0  0  0  0  0  0  0  0  0  0  0  0
   -7.7040   20.7510  -32.3380 C   0  0  0  0  0  0  0  0  0  0  0  0
   -7.2780   19.4550  -32.5300 N   0  0  0  0  0  0  0  0  0  0  0  0
   -8.2220   18.3320  -32.3400 C   0  0  0  0  0  0  0  0  0  0  0  0
   -5.9650   19.2070  -32.8890 C   0  0  0  0  0  0  0  0  0  0  0  0
   -5.5680   17.9440  -33.3930 C   0  0  0  0  0  0  0  0  0  0  0  0
   -4.2410   17.6770  -33.7060 C   0  0  0  0  0  0  0  0  0  0  0  0
   -3.7430   15.9570  -34.3760 Br  0  0  0  0  0  0  0  0  0  0  0  0
   -3.2780   18.6660  -33.5550 C   0  0  0  0  0  0  0  0  0  0  0  0
   -3.6270   19.9400  -33.1070 C   0  0  0  0  0  0  0  0  0  0  0  0
   -2.1890   21.2210  -33.1150 Br  0  0  0  0  0  0  0  0  0  0  0  0
   -4.9790   20.2320  -32.7650 C   0  0  0  0  0  0  0  0  0  0  0  0
   -1.9630   25.9182  -23.9965 H   0  0  0  0  0  0  0  0  0  0  0  0
   -0.7066   25.7798  -25.2728 H   0  0  0  0  0  0  0  0  0  0  0  0
   -1.8369   27.1759  -25.2728 H   0  0  0  0  0  0  0  0  0  0  0  0
   -2.7658   24.2788  -25.5566 H   0  0  0  0  0  0  0  0  0  0  0  0
   -3.6889   25.8157  -25.8792 H   0  0  0  0  0  0  0  0  0  0  0  0
   -3.0690   25.7330  -27.9150 H   0  0  0  0  0  0  0  0  0  0  0  0
   -0.6745   26.3804  -26.5929 H   0  0  0  0  0  0  0  0  0  0  0  0
   -0.3523   25.5139  -28.1330 H   0  0  0  0  0  0  0  0  0  0  0  0
   -1.3594   27.0013  -28.1330 H   0  0  0  0  0  0  0  0  0  0  0  0
   -1.1352   23.5493  -27.6617 H   0  0  0  0  0  0  0  0  0  0  0  0
   -2.9427   23.2920  -27.4753 H   0  0  0  0  0  0  0  0  0  0  0  0
   -1.3272   23.8727  -29.9281 H   0  0  0  0  0  0  0  0  0  0  0  0
   -2.7960   22.8545  -29.6967 H   0  0  0  0  0  0  0  0  0  0  0  0
   -5.1691   24.6777  -29.7078 H   0  0  0  0  0  0  0  0  0  0  0  0
   -4.5550   24.8103  -31.3974 H   0  0  0  0  0  0  0  0  0  0  0  0
   -3.3774   22.4857  -30.1010 H   0  0  0  0  0  0  0  0  0  0  0  0
   -5.1758   22.4374  -29.9468 H   0  0  0  0  0  0  0  0  0  0  0  0
   -6.4507   23.9198  -31.8630 H   0  0  0  0  0  0  0  0  0  0  0  0
   -8.8782   24.4442  -31.7145 H   0  0  0  0  0  0  0  0  0  0  0  0
  -10.5638   22.6389  -32.0134 H   0  0  0  0  0  0  0  0  0  0  0  0
   -9.8367   20.3012  -32.4289 H   0  0  0  0  0  0  0  0  0  0  0  0
   -8.3703   18.1556  -31.2644 H   0  0  0  0  0  0  0  0  0  0  0  0
   -9.1863   18.5806  -32.8072 H   0  0  0  0  0  0  0  0  0  0  0  0
   -7.8113   17.4247  -32.8072 H   0  0  0  0  0  0  0  0  0  0  0  0
   -6.3250   17.1595  -33.5394 H   0  0  0  0  0  0  0  0  0  0  0  0
   -2.2273   18.4420  -33.7915 H   0  0  0  0  0  0  0  0  0  0  0  0
  1  2  1  0
  2  3  1  0
  3  4  1  0
  3  5  1  0
  5  6  1  0
  6  7  1  0
  7  8  1  0
  8  9  1  0
  9 10  1  0
 10 11  1  0
 11 12  2  0
 12 13  1  0
 13 14  2  0
 14 15  1  0
 15 16  2  0
 16 17  1  0
 17 18  2  0
 18 19  1  0
 18 20  1  0
 20 21  2  0
 21 22  1  0
 22 23  1  0
 22 24  2  0
 24 25  1  0
 25 26  1  0
 25 27  2  0
 27 11  1  0
 17 12  1  0
 27 20  1  0
  1 28  1  0
  1 29  1  0
  1 30  1  0
  2 31  1  0
  2 32  1  0
  3 33  1  6
  4 34  1  0
  4 35  1  0
  4 36  1  0
  5 37  1  0
  5 38  1  0
  6 39  1  0
  6 40  1  0
  8 41  1  0
  8 42  1  0
  9 43  1  0
  9 44  1  0
 13 45  1  0
 14 46  1  0
 15 47  1  0
 16 48  1  0
 19 49  1  0
 19 50  1  0
 19 51  1  0
 21 52  1  0
 24 53  1  0
M  CHG  2   3   1  18   1
M  END
>  <UniqueID>  (9) 
9

>  <SMILES>  (9) 
CC[N@@H+](C)CCOCCOc1c2ccccc2[n+](C)c2cc(Br)cc(Br)c12

>  <Energy>  (9) 
87.97728613575924

>  <Genealogy>  (9) 
CC[NH+](C)CCOCCOc1c2ccccc2[n+](C)c2cc(Br)cc(Br)c12 (protonated)
CC[N@@H+](C)CCOCCOc1c2ccccc2[n+](C)c2cc(Br)cc(Br)c12 (chirality)
CC[N@@H+](C)CCOCCOc1c2ccccc2[n+](C)c2cc(Br)cc(Br)c12 (3D coordinates assigned)
CC[N@@H+](C)CCOCCOc1c2ccccc2[n+](C)c2cc(Br)cc(Br)c12 (optimized conformer: 87.97728613575924 kcal/mol)

>  <smiles>  (9) 
CCN(C)CCOCCOc1c2ccccc2[n+](C)c2cc(Br)cc(Br)c12

>  <score_type>  (9) 
oracle

>  <origin>  (9) 
adg

>  <m_score__min__energy>  (9) 
-7.5300000000000002

>  <m_primary>  (9) 
energy

$$$$
9:0
     RDKit          3D

 74 77  0  0  0  0  0  0  0  0999 V2000
   -1.5460   24.8460  -28.8560 C   0  0  0  0  0  0  0  0  0  0  0  0
   -2.6570   24.5940  -27.8420 C   0  0  0  0  0  0  0  0  0  0  0  0
   -3.7020   23.7440  -28.4620 N   0  0  0  0  0  0  0  0  0  0  0  0
   -4.2300   22.7820  -27.4770 C   0  0  0  0  0  0  0  0  0  0  0  0
   -4.8050   24.5300  -29.0690 C   0  0  0  0  0  0  0  0  0  0  0  0
   -4.7700   24.4490  -30.6050 C   0  0  0  0  0  0  0  0  0  0  0  0
   -3.8380   23.3620  -31.1720 C   0  0  0  0  0  0  0  0  0  0  0  0
   -4.1370   22.0420  -30.5960 N   0  0  0  0  0  0  0  0  0  0  0  0
   -4.7730   21.0090  -31.3700 C   0  0  0  0  0  0  0  0  0  0  0  0
   -6.1850   21.0370  -31.4800 C   0  0  0  0  0  0  0  0  0  0  0  0
   -6.9390   22.1060  -30.9400 C   0  0  0  0  0  0  0  0  0  0  0  0
   -8.3300   22.0780  -30.9490 C   0  0  0  0  0  0  0  0  0  0  0  0
   -8.9990   21.0140  -31.5380 C   0  0  0  0  0  0  0  0  0  0  0  0
   -8.2830   20.0000  -32.1650 C   0  0  0  0  0  0  0  0  0  0  0  0
   -6.8620   19.9950  -32.1550 C   0  0  0  0  0  0  0  0  0  0  0  0
   -6.1430   19.0420  -32.8350 N   0  0  0  0  0  0  0  0  0  0  0  0
   -6.8420   17.8650  -33.4100 C   0  0  0  0  0  0  0  0  0  0  0  0
   -4.7770   19.1820  -32.9880 C   0  0  0  0  0  0  0  0  0  0  0  0
   -4.1040   18.4700  -34.0070 C   0  0  0  0  0  0  0  0  0  0  0  0
   -2.7350   18.4680  -34.0880 C   0  0  0  0  0  0  0  0  0  0  0  0
   -1.9870   19.1070  -33.1220 C   0  0  0  0  0  0  0  0  0  0  0  0
   -2.5800   19.9170  -32.1320 C   0  0  0  0  0  0  0  0  0  0  0  0
   -1.7360   20.2960  -31.0000 N   0  0  0  0  0  0  0  0  0  0  0  0
   -0.2840   20.0520  -31.1620 C   0  0  0  0  0  0  0  0  0  0  0  0
    0.5000   19.8770  -29.8490 C   0  0  0  0  0  0  0  0  0  0  0  0
   -0.0900   18.8270  -28.8860 C   0  0  0  0  0  0  0  0  0  0  0  0
   -0.3740   19.3750  -27.5400 N   0  0  0  0  0  0  0  0  0  0  0  0
   -1.7670   19.1940  -27.0890 C   0  0  0  0  0  0  0  0  0  0  0  0
   -2.7490   20.0450  -27.9200 C   0  0  0  0  0  0  0  0  0  0  0  0
   -2.1440   21.1570  -28.5500 O   0  0  0  0  0  0  0  0  0  0  0  0
   -1.1850   21.7650  -27.6940 C   0  0  0  0  0  0  0  0  0  0  0  0
    0.0090   20.8130  -27.4640 C   0  0  0  0  0  0  0  0  0  0  0  0
   -4.0260   20.0560  -32.1370 C   0  0  0  0  0  0  0  0  0  0  0  0
   -0.6065   25.0591  -28.3251 H   0  0  0  0  0  0  0  0  0  0  0  0
   -1.4164   23.9544  -29.4871 H   0  0  0  0  0  0  0  0  0  0  0  0
   -1.8138   25.7062  -29.4871 H   0  0  0  0  0  0  0  0  0  0  0  0
   -2.2417   24.0822  -26.9613 H   0  0  0  0  0  0  0  0  0  0  0  0
   -3.0977   25.5530  -27.5319 H   0  0  0  0  0  0  0  0  0  0  0  0
   -4.0280   23.1501  -26.4603 H   0  0  0  0  0  0  0  0  0  0  0  0
   -5.3153   22.6713  -27.6180 H   0  0  0  0  0  0  0  0  0  0  0  0
   -3.7406   21.8070  -27.6180 H   0  0  0  0  0  0  0  0  0  0  0  0
   -5.7666   24.1335  -28.7111 H   0  0  0  0  0  0  0  0  0  0  0  0
   -4.6841   25.5828  -28.7741 H   0  0  0  0  0  0  0  0  0  0  0  0
   -5.7907   24.2445  -30.9605 H   0  0  0  0  0  0  0  0  0  0  0  0
   -4.3733   25.4125  -30.9575 H   0  0  0  0  0  0  0  0  0  0  0  0
   -3.9676   23.3136  -32.2633 H   0  0  0  0  0  0  0  0  0  0  0  0
   -2.8021   23.6255  -30.9122 H   0  0  0  0  0  0  0  0  0  0  0  0
   -3.8980   21.8440  -29.5980 H   0  0  0  0  0  0  0  0  0  0  0  0
   -6.4174   22.9721  -30.5066 H   0  0  0  0  0  0  0  0  0  0  0  0
   -8.8996   22.8991  -30.4893 H   0  0  0  0  0  0  0  0  0  0  0  0
  -10.0978   20.9727  -31.5088 H   0  0  0  0  0  0  0  0  0  0  0  0
   -8.8244   19.1902  -32.6760 H   0  0  0  0  0  0  0  0  0  0  0  0
   -7.2197   17.2290  -32.5958 H   0  0  0  0  0  0  0  0  0  0  0  0
   -7.6843   18.2056  -34.0301 H   0  0  0  0  0  0  0  0  0  0  0  0
   -6.1398   17.2884  -34.0301 H   0  0  0  0  0  0  0  0  0  0  0  0
   -4.6894   17.9070  -34.7489 H   0  0  0  0  0  0  0  0  0  0  0  0
   -2.2339   17.9568  -34.9233 H   0  0  0  0  0  0  0  0  0  0  0  0
   -0.8942   18.9810  -33.1238 H   0  0  0  0  0  0  0  0  0  0  0  0
   -1.8600   21.2720  -30.6960 H   0  0  0  0  0  0  0  0  0  0  0  0
   -2.0550   19.7200  -30.1830 H   0  0  0  0  0  0  0  0  0  0  0  0
   -0.1569   19.1370  -31.7591 H   0  0  0  0  0  0  0  0  0  0  0  0
    0.1254   20.9514  -31.6452 H   0  0  0  0  0  0  0  0  0  0  0  0
    1.5271   19.5738  -30.1001 H   0  0  0  0  0  0  0  0  0  0  0  0
    0.4521   20.8431  -29.3253 H   0  0  0  0  0  0  0  0  0  0  0  0
   -1.0284   18.4455  -29.3148 H   0  0  0  0  0  0  0  0  0  0  0  0
    0.6592   18.0304  -28.7668 H   0  0  0  0  0  0  0  0  0  0  0  0
   -2.0399   18.1332  -27.1905 H   0  0  0  0  0  0  0  0  0  0  0  0
   -1.8335   19.5186  -26.0401 H   0  0  0  0  0  0  0  0  0  0  0  0
   -3.1925   19.4045  -28.6966 H   0  0  0  0  0  0  0  0  0  0  0  0
   -3.5019   20.4407  -27.2224 H   0  0  0  0  0  0  0  0  0  0  0  0
   -0.8235   22.6950  -28.1570 H   0  0  0  0  0  0  0  0  0  0  0  0
   -1.6585   21.9850  -26.7258 H   0  0  0  0  0  0  0  0  0  0  0  0
    0.7714   21.0143  -28.2309 H   0  0  0  0  0  0  0  0  0  0  0  0
    0.3903   21.0003  -26.4493 H   0  0  0  0  0  0  0  0  0  0  0  0
  1  2  1  0
  2  3  1  0
  3  4  1  0
  3  5  1  0
  5  6  1  0
  6  7  1  0
  7  8  1  0
  8  9  1  0
  9 10  2  0
 10 11  1  0
 11 12  2  0
 12 13  1  0
 13 14  2  0
 14 15  1  0
 15 16  2  0
 16 17  1  0
 16 18  1  0
 18 19  2  0
 19 20  1  0
 20 21  2  0
 21 22  1  0
 22 23  1  0
 23 24  1  0
 24 25  1  0
 25 26  1  0
 26 27  1  0
 27 28  1  0
 28 29  1  0
 29 30  1  0
 30 31  1  0
 31 32  1  0
 22 33  2  0
 33  9  1  0
 15 10  1  0
 33 18  1  0
 32 27  1  0
  1 34  1  0
  1 35  1  0
  1 36  1  0
  2 37  1  0
  2 38  1  0
  4 39  1  0
  4 40  1  0
  4 41  1  0
  5 42  1  0
  5 43  1  0
  6 44  1  0
  6 45  1  0
  7 46  1  0
  7 47  1  0
  8 48  1  0
 11 49  1  0
 12 50  1  0
 13 51  1  0
 14 52  1  0
 17 53  1  0
 17 54  1  0
 17 55  1  0
 19 56  1  0
 20 57  1  0
 21 58  1  0
 23 59  1  0
 23 60  1  0
 24 61  1  0
 24 62  1  0
 25 63  1  0
 25 64  1  0
 26 65  1  0
 26 66  1  0
 28 67  1  0
 28 68  1  0
 29 69  1  0
 29 70  1  0
 31 71  1  0
 31 72  1  0
 32 73  1  0
 32 74  1  0
M  CHG  2  16   1  23   1
M  END
>  <UniqueID>  (10) 
10

>  <SMILES>  (10) 
CCN(C)CCCNc1c2ccccc2[n+](C)c2cccc([NH2+]CCCN3CCOCC3)c12

>  <Energy>  (10) 
139.09502130235725

>  <Genealogy>  (10) 
CCN(C)CCCNc1c2ccccc2[n+](C)c2cccc([NH2+]CCCN3CCOCC3)c12 (protonated)
CCN(C)CCCNc1c2ccccc2[n+](C)c2cccc([NH2+]CCCN3CCOCC3)c12 (3D coordinates assigned)
CCN(C)CCCNc1c2ccccc2[n+](C)c2cccc([NH2+]CCCN3CCOCC3)c12 (nonaromatic ring conformer: 139.09502130235725 kcal/mol)

>  <smiles>  (10) 
CCN(C)CCCNc1c2ccccc2[n+](C)c2cccc(NCCCN3CCOCC3)c12

>  <score_type>  (10) 
oracle

>  <origin>  (10) 
adg

>  <m_score__min__energy>  (10) 
-8.0099999999999998

>  <m_primary>  (10) 
energy

$$$$
10:0
     RDKit          3D

 69 68  0  0  0  0  0  0  0  0999 V2000
   -1.6640   21.3800  -32.8910 C   0  0  0  0  0  0  0  0  0  0  0  0
   -1.7110   21.4180  -31.3610 C   0  0  0  0  0  0  0  0  0  0  0  0
   -1.8900   22.7810  -30.8360 N   0  0  0  0  0  0  0  0  0  0  0  0
   -1.1380   23.0010  -29.5930 C   0  0  0  0  0  0  0  0  0  0  0  0
   -1.5360   24.3380  -28.9490 C   0  0  0  0  0  0  0  0  0  0  0  0
   -2.8570   24.2800  -28.1600 C   0  0  0  0  0  0  0  0  0  0  0  0
   -4.0880   24.1440  -29.0660 C   0  0  0  0  0  0  0  0  0  0  0  0
   -3.8840   24.8920  -30.3150 N   0  0  0  0  0  0  0  0  0  0  0  0
   -5.1340   25.4610  -30.8490 C   0  0  0  0  0  0  0  0  0  0  0  0
   -6.1870   24.3730  -31.1440 C   0  0  0  0  0  0  0  0  0  0  0  0
   -5.7700   23.4430  -32.3030 C   0  0  0  0  0  0  0  0  0  0  0  0
   -4.5680   22.6420  -32.0120 N   0  0  0  0  0  0  0  0  0  0  0  0
   -4.8130   21.6170  -30.9860 C   0  0  0  0  0  0  0  0  0  0  0  0
   -5.2640   20.3010  -31.6320 C   0  0  0  0  0  0  0  0  0  0  0  0
   -4.9250   20.2410  -33.1320 C   0  0  0  0  0  0  0  0  0  0  0  0
   -4.5080   18.8330  -33.5860 C   0  0  0  0  0  0  0  0  0  0  0  0
   -5.5190   18.2060  -34.5670 C   0  0  0  0  0  0  0  0  0  0  0  0
   -6.8580   18.0730  -33.9690 N   0  0  0  0  0  0  0  0  0  0  0  0
   -6.8420   17.3620  -32.6800 C   0  0  0  0  0  0  0  0  0  0  0  0
   -7.5770   18.1630  -31.5940 C   0  0  0  0  0  0  0  0  0  0  0  0
   -9.0320   18.4930  -31.9580 C   0  0  0  0  0  0  0  0  0  0  0  0
   -9.0920   19.6250  -32.8950 N   0  0  0  0  0  0  0  0  0  0  0  0
   -8.4310   20.8270  -32.3620 C   0  0  0  0  0  0  0  0  0  0  0  0
   -9.2800   21.5460  -31.3100 C   0  0  0  0  0  0  0  0  0  0  0  0
   -0.8469   20.7194  -33.2164 H   0  0  0  0  0  0  0  0  0  0  0  0
   -2.6204   20.9982  -33.2779 H   0  0  0  0  0  0  0  0  0  0  0  0
   -1.4910   22.3951  -33.2779 H   0  0  0  0  0  0  0  0  0  0  0  0
   -2.5503   20.7950  -31.0184 H   0  0  0  0  0  0  0  0  0  0  0  0
   -0.7478   21.0401  -30.9877 H   0  0  0  0  0  0  0  0  0  0  0  0
   -2.9070   22.9570  -30.6570 H   0  0  0  0  0  0  0  0  0  0  0  0
   -1.3541   22.1828  -28.8902 H   0  0  0  0  0  0  0  0  0  0  0  0
   -0.0638   23.0269  -29.8285 H   0  0  0  0  0  0  0  0  0  0  0  0
   -0.7342   24.6434  -28.2606 H   0  0  0  0  0  0  0  0  0  0  0  0
   -1.6842   25.0564  -29.7687 H   0  0  0  0  0  0  0  0  0  0  0  0
   -2.8230   23.4147  -27.4817 H   0  0  0  0  0  0  0  0  0  0  0  0
   -2.9549   25.2276  -27.6100 H   0  0  0  0  0  0  0  0  0  0  0  0
   -4.2507   23.0818  -29.3010 H   0  0  0  0  0  0  0  0  0  0  0  0
   -4.9656   24.5514  -28.5428 H   0  0  0  0  0  0  0  0  0  0  0  0
   -3.4520   24.2600  -31.0300 H   0  0  0  0  0  0  0  0  0  0  0  0
   -5.5475   26.1640  -30.1109 H   0  0  0  0  0  0  0  0  0  0  0  0
   -4.8977   25.9694  -31.7954 H   0  0  0  0  0  0  0  0  0  0  0  0
   -6.3291   23.7653  -30.2382 H   0  0  0  0  0  0  0  0  0  0  0  0
   -7.1164   24.8805  -31.4416 H   0  0  0  0  0  0  0  0  0  0  0  0
   -6.6028   22.7563  -32.5150 H   0  0  0  0  0  0  0  0  0  0  0  0
   -5.5294   24.0859  -33.1625 H   0  0  0  0  0  0  0  0  0  0  0  0
   -3.7910   23.2680  -31.7030 H   0  0  0  0  0  0  0  0  0  0  0  0
   -3.8855   21.4427  -30.4209 H   0  0  0  0  0  0  0  0  0  0  0  0
   -5.6081   21.9720  -30.3139 H   0  0  0  0  0  0  0  0  0  0  0  0
   -4.7614   19.4660  -31.1220 H   0  0  0  0  0  0  0  0  0  0  0  0
   -6.3573   20.2336  -31.5309 H   0  0  0  0  0  0  0  0  0  0  0  0
   -5.8112   20.5487  -33.7064 H   0  0  0  0  0  0  0  0  0  0  0  0
   -4.0738   20.9148  -33.3092 H   0  0  0  0  0  0  0  0  0  0  0  0
   -3.5285   18.8979  -34.0823 H   0  0  0  0  0  0  0  0  0  0  0  0
   -4.4669   18.1921  -32.6930 H   0  0  0  0  0  0  0  0  0  0  0  0
   -5.5906   18.8447  -35.4597 H   0  0  0  0  0  0  0  0  0  0  0  0
   -5.1610   17.1987  -34.8262 H   0  0  0  0  0  0  0  0  0  0  0  0
   -7.2820   19.0220  -33.8340 H   0  0  0  0  0  0  0  0  0  0  0  0
   -7.3356   16.3866  -32.8022 H   0  0  0  0  0  0  0  0  0  0  0  0
   -5.7955   17.2309  -32.3677 H   0  0  0  0  0  0  0  0  0  0  0  0
   -7.5752   17.5739  -30.6651 H   0  0  0  0  0  0  0  0  0  0  0  0
   -7.0459   19.1197  -31.4812 H   0  0  0  0  0  0  0  0  0  0  0  0
   -9.4952   17.6121  -32.4265 H   0  0  0  0  0  0  0  0  0  0  0  0
   -9.5719   18.7665  -31.0395 H   0  0  0  0  0  0  0  0  0  0  0  0
   -8.6190   19.3520  -33.7880 H   0  0  0  0  0  0  0  0  0  0  0  0
   -7.4768   20.5302  -31.9023 H   0  0  0  0  0  0  0  0  0  0  0  0
   -8.2774   21.5230  -33.1999 H   0  0  0  0  0  0  0  0  0  0  0  0
   -8.9396   21.2577  -30.3045 H   0  0  0  0  0  0  0  0  0  0  0  0
   -9.1747   22.6338  -31.4349 H   0  0  0  0  0  0  0  0  0  0  0  0
  -10.3356   21.2630  -31.4349 H   0  0  0  0  0  0  0  0  0  0  0  0
  1  2  1  0
  2  3  1  0
  3  4  1  0
  4  5  1  0
  5  6  1  0
  6  7  1  0
  7  8  1  0
  8  9  1  0
  9 10  1  0
 10 11  1  0
 11 12  1  0
 12 13  1  0
 13 14  1  0
 14 15  1  0
 15 16  1  0
 16 17  1  0
 17 18  1  0
 18 19  1  0
 19 20  1  0
 20 21  1  0
 21 22  1  0
 22 23  1  0
 23 24  1  0
  1 25  1  0
  1 26  1  0
  1 27  1  0
  2 28  1  0
  2 29  1  0
  3 30  1  0
  4 31  1  0
  4 32  1  0
  5 33  1  0
  5 34  1  0
  6 35  1  0
  6 36  1  0
  7 37  1  0
  7 38  1  0
  8 39  1  0
  9 40  1  0
  9 41  1  0
 10 42  1  0
 10 43  1  0
 11 44  1  0
 11 45  1  0
 12 46  1  0
 13 47  1  0
 13 48  1  0
 14 49  1  0
 14 50  1  0
 15 51  1  0
 15 52  1  0
 16 53  1  0
 16 54  1  0
 17 55  1  0
 17 56  1  0
 18 57  1  0
 19 58  1  0
 19 59  1  0
 20 60  1  0
 20 61  1  0
 21 62  1  0
 21 63  1  0
 22 64  1  0
 23 65  1  0
 23 66  1  0
 24 67  1  0
 24 68  1  0
 24 69  1  0
M  END
>  <UniqueID>  (11) 
11

>  <SMILES>  (11) 
CCNCCCCNCCCNCCCCCNCCCNCC

>  <Energy>  (11) 
45.67983655375082

>  <Genealogy>  (11) 
CCNCCCCNCCCNCCCCCNCCCNCC (3D coordinates assigned)
CCNCCCCNCCCNCCCCCNCCCNCC (optimized conformer: 45.67983655375082 kcal/mol)

>  <smiles>  (11) 
CCNCCCCNCCCNCCCCCNCCCNCC

>  <score_type>  (11) 
oracle

>  <origin>  (11) 
adg

>  <m_score__min__energy>  (11) 
-6.1900000000000004

>  <m_primary>  (11) 
energy

$$$$
11:0
     RDKit          3D

 55 58  0  0  0  0  0  0  0  0999 V2000
   -6.3210   25.6430  -29.3660 C   0  0  0  0  0  0  0  0  0  0  0  0
   -5.5930   25.4190  -30.6830 C   0  0  0  0  0  0  0  0  0  0  0  0
   -4.1970   25.5110  -30.4640 O   0  0  0  0  0  0  0  0  0  0  0  0
   -3.6110   24.2820  -30.6500 N   0  0  0  0  0  0  0  0  0  0  0  0
   -2.6100   24.0610  -29.6040 C   0  0  0  0  0  0  0  0  0  0  0  0
   -1.7720   22.8150  -29.9230 C   0  0  0  0  0  0  0  0  0  0  0  0
   -2.4990   21.8290  -30.8510 C   0  0  0  0  0  0  0  0  0  0  0  0
   -1.7190   21.5510  -32.1480 C   0  0  0  0  0  0  0  0  0  0  0  0
   -2.5790   21.5960  -33.3460 N   0  0  0  0  0  0  0  0  0  0  0  0
   -3.5740   20.5360  -33.3510 C   0  0  0  0  0  0  0  0  0  0  0  0
   -4.9020   20.8230  -33.0020 C   0  0  0  0  0  0  0  0  0  0  0  0
   -5.8820   19.8440  -33.0010 C   0  0  0  0  0  0  0  0  0  0  0  0
   -5.6340   18.5770  -33.4590 N   0  0  0  0  0  0  0  0  0  0  0  0
   -6.7550   17.6770  -33.7740 C   0  0  0  0  0  0  0  0  0  0  0  0
   -4.3200   18.2000  -33.6840 C   0  0  0  0  0  0  0  0  0  0  0  0
   -3.9820   16.8440  -33.9210 C   0  0  0  0  0  0  0  0  0  0  0  0
   -2.6700   16.4650  -34.1870 C   0  0  0  0  0  0  0  0  0  0  0  0
   -1.6590   17.4150  -34.2100 C   0  0  0  0  0  0  0  0  0  0  0  0
   -1.9450   18.7530  -33.9470 C   0  0  0  0  0  0  0  0  0  0  0  0
   -3.2650   19.1760  -33.6620 C   0  0  0  0  0  0  0  0  0  0  0  0
   -7.1480   20.4470  -32.5160 C   0  0  0  0  0  0  0  0  0  0  0  0
   -8.3660   19.8720  -32.1220 C   0  0  0  0  0  0  0  0  0  0  0  0
   -9.3740   20.7080  -31.6140 C   0  0  0  0  0  0  0  0  0  0  0  0
   -9.1480   22.0880  -31.4600 C   0  0  0  0  0  0  0  0  0  0  0  0
   -7.9030   22.6420  -31.7900 C   0  0  0  0  0  0  0  0  0  0  0  0
   -6.9220   21.7980  -32.3080 C   0  0  0  0  0  0  0  0  0  0  0  0
   -5.5300   22.0890  -32.6020 C   0  0  0  0  0  0  0  0  0  0  0  0
   -4.9820   23.2180  -32.5090 O   0  0  0  0  0  0  0  0  0  0  0  0
   -5.6384   25.4330  -28.5294 H   0  0  0  0  0  0  0  0  0  0  0  0
   -6.6614   26.6874  -29.3082 H   0  0  0  0  0  0  0  0  0  0  0  0
   -7.1896   24.9706  -29.3082 H   0  0  0  0  0  0  0  0  0  0  0  0
   -5.8392   24.4209  -31.0745 H   0  0  0  0  0  0  0  0  0  0  0  0
   -5.9041   26.1817  -31.4120 H   0  0  0  0  0  0  0  0  0  0  0  0
   -3.1740   24.1570  -31.5980 H   0  0  0  0  0  0  0  0  0  0  0  0
   -1.9483   24.9377  -29.5440 H   0  0  0  0  0  0  0  0  0  0  0  0
   -3.1239   23.9101  -28.6432 H   0  0  0  0  0  0  0  0  0  0  0  0
   -0.8394   23.1344  -30.4111 H   0  0  0  0  0  0  0  0  0  0  0  0
   -1.5785   22.2944  -28.9735 H   0  0  0  0  0  0  0  0  0  0  0  0
   -2.6401   20.8792  -30.3145 H   0  0  0  0  0  0  0  0  0  0  0  0
   -3.4605   22.2835  -31.1318 H   0  0  0  0  0  0  0  0  0  0  0  0
   -0.9281   22.3083  -32.2530 H   0  0  0  0  0  0  0  0  0  0  0  0
   -1.3007   20.5362  -32.0751 H   0  0  0  0  0  0  0  0  0  0  0  0
   -3.0760   22.5160  -33.3600 H   0  0  0  0  0  0  0  0  0  0  0  0
   -2.0020   21.6160  -34.2140 H   0  0  0  0  0  0  0  0  0  0  0  0
   -7.2074   17.3138  -32.8394 H   0  0  0  0  0  0  0  0  0  0  0  0
   -7.5100   18.2226  -34.3590 H   0  0  0  0  0  0  0  0  0  0  0  0
   -6.3855   16.8219  -34.3590 H   0  0  0  0  0  0  0  0  0  0  0  0
   -4.7709   16.0779  -33.8941 H   0  0  0  0  0  0  0  0  0  0  0  0
   -2.4333   15.4082  -34.3798 H   0  0  0  0  0  0  0  0  0  0  0  0
   -0.6267   17.1103  -34.4370 H   0  0  0  0  0  0  0  0  0  0  0  0
   -1.1312   19.4929  -33.9611 H   0  0  0  0  0  0  0  0  0  0  0  0
   -8.5282   18.7875  -32.2093 H   0  0  0  0  0  0  0  0  0  0  0  0
  -10.3480   20.2802  -31.3343 H   0  0  0  0  0  0  0  0  0  0  0  0
   -9.9517   22.7353  -31.0790 H   0  0  0  0  0  0  0  0  0  0  0  0
   -7.7056   23.7143  -31.6440 H   0  0  0  0  0  0  0  0  0  0  0  0
  1  2  1  0
  2  3  1  0
  3  4  1  0
  4  5  1  0
  5  6  1  0
  6  7  1  0
  7  8  1  0
  8  9  1  0
  9 10  1  0
 10 11  2  0
 11 12  1  0
 12 13  2  0
 13 14  1  0
 13 15  1  0
 15 16  2  0
 16 17  1  0
 17 18  2  0
 18 19  1  0
 19 20  2  0
 12 21  1  0
 21 22  2  0
 22 23  1  0
 23 24  2  0
 24 25  1  0
 25 26  2  0
 26 27  1  0
 27 28  2  0
 20 10  1  0
 26 21  1  0
 27 11  1  0
 20 15  1  0
  1 29  1  0
  1 30  1  0
  1 31  1  0
  2 32  1  0
  2 33  1  0
  4 34  1  0
  5 35  1  0
  5 36  1  0
  6 37  1  0
  6 38  1  0
  7 39  1  0
  7 40  1  0
  8 41  1  0
  8 42  1  0
  9 43  1  0
  9 44  1  0
 14 45  1  0
 14 46  1  0
 14 47  1  0
 16 48  1  0
 17 49  1  0
 18 50  1  0
 19 51  1  0
 22 52  1  0
 23 53  1  0
 24 54  1  0
 25 55  1  0
M  CHG  2   9   1  13   1
M  END
>  <UniqueID>  (12) 
12

>  <SMILES>  (12) 
CCONCCCC[NH2+]c1c2c([n+](C)c3ccccc13)-c1ccccc1C2=O

>  <Energy>  (12) 
110.68785136932047

>  <Genealogy>  (12) 
CCONCCCC[NH2+]c1c2c([n+](C)c3ccccc13)-c1ccccc1C2=O (protonated)
CCONCCCC[NH2+]c1c2c([n+](C)c3ccccc13)-c1ccccc1C2=O (3D coordinates assigned)
CCONCCCC[NH2+]c1c2c([n+](C)c3ccccc13)-c1ccccc1C2=O (nonaromatic ring conformer: 110.68785136932047 kcal/mol)

>  <smiles>  (12) 
CCONCCCCNc1c2c([n+](C)c3ccccc13)-c1ccccc1C2=O

>  <score_type>  (12) 
oracle

>  <origin>  (12) 
adg

>  <m_score__min__energy>  (12) 
-9.8000000000000007

>  <m_primary>  (12) 
energy

$$$$
12:0
     RDKit          3D

 52 54  0  0  0  0  0  0  0  0999 V2000
   -1.9680   22.5510  -30.5480 C   0  0  0  0  0  0  0  0  0  0  0  0
   -3.2600   22.7090  -29.8620 N   0  0  0  0  0  0  0  0  0  0  0  0
   -3.4630   21.5880  -28.9280 C   0  0  0  0  0  0  0  0  0  0  0  0
   -3.3200   24.0080  -29.1550 C   0  0  0  0  0  0  0  0  0  0  0  0
   -4.4420   24.8930  -29.7210 C   0  0  0  0  0  0  0  0  0  0  0  0
   -4.5690   24.7610  -31.1810 N   0  0  0  0  0  0  0  0  0  0  0  0
   -5.9680   24.5810  -31.6010 C   0  0  0  0  0  0  0  0  0  0  0  0
   -6.2350   23.1410  -32.0740 C   0  0  0  0  0  0  0  0  0  0  0  0
   -5.1900   22.1840  -31.6560 N   0  0  0  0  0  0  0  0  0  0  0  0
   -5.3430   20.8780  -32.2880 C   0  0  0  0  0  0  0  0  0  0  0  0
   -6.5740   20.1690  -32.1670 C   0  0  0  0  0  0  0  0  0  0  0  0
   -7.6610   20.6820  -31.4130 C   0  0  0  0  0  0  0  0  0  0  0  0
   -8.8370   19.9550  -31.2520 C   0  0  0  0  0  0  0  0  0  0  0  0
   -8.9610   18.6980  -31.8240 C   0  0  0  0  0  0  0  0  0  0  0  0
   -7.9240   18.1760  -32.5880 C   0  0  0  0  0  0  0  0  0  0  0  0
   -6.7290   18.9100  -32.8100 C   0  0  0  0  0  0  0  0  0  0  0  0
   -5.7310   18.4150  -33.6200 N   0  0  0  0  0  0  0  0  0  0  0  0
   -6.0160   17.2900  -34.5400 C   0  0  0  0  0  0  0  0  0  0  0  0
   -4.4750   18.9840  -33.5990 C   0  0  0  0  0  0  0  0  0  0  0  0
   -3.3630   18.3150  -34.1740 C   0  0  0  0  0  0  0  0  0  0  0  0
   -2.1090   18.9100  -34.2270 C   0  0  0  0  0  0  0  0  0  0  0  0
   -1.9230   20.1830  -33.7110 C   0  0  0  0  0  0  0  0  0  0  0  0
   -0.2000   21.0020  -33.8170 Br  0  0  0  0  0  0  0  0  0  0  0  0
   -2.9830   20.8530  -33.1020 C   0  0  0  0  0  0  0  0  0  0  0  0
   -4.2660   20.2550  -32.9870 C   0  0  0  0  0  0  0  0  0  0  0  0
   -1.1661   22.4529  -29.8015 H   0  0  0  0  0  0  0  0  0  0  0  0
   -1.9950   21.6495  -31.1777 H   0  0  0  0  0  0  0  0  0  0  0  0
   -1.7770   23.4325  -31.1777 H   0  0  0  0  0  0  0  0  0  0  0  0
   -3.3964   21.9560  -27.8935 H   0  0  0  0  0  0  0  0  0  0  0  0
   -4.4559   21.1455  -29.0965 H   0  0  0  0  0  0  0  0  0  0  0  0
   -2.6883   20.8254  -29.0965 H   0  0  0  0  0  0  0  0  0  0  0  0
   -3.5089   23.8274  -28.0865 H   0  0  0  0  0  0  0  0  0  0  0  0
   -2.3604   24.5273  -29.2948 H   0  0  0  0  0  0  0  0  0  0  0  0
   -5.3941   24.6001  -29.2544 H   0  0  0  0  0  0  0  0  0  0  0  0
   -4.1926   25.9405  -29.4964 H   0  0  0  0  0  0  0  0  0  0  0  0
   -4.2190   25.6580  -31.5940 H   0  0  0  0  0  0  0  0  0  0  0  0
   -6.6282   24.8058  -30.7503 H   0  0  0  0  0  0  0  0  0  0  0  0
   -6.1660   25.2623  -32.4416 H   0  0  0  0  0  0  0  0  0  0  0  0
   -7.1979   22.8099  -31.6578 H   0  0  0  0  0  0  0  0  0  0  0  0
   -6.2412   23.1559  -33.1739 H   0  0  0  0  0  0  0  0  0  0  0  0
   -4.2490   22.6090  -31.7800 H   0  0  0  0  0  0  0  0  0  0  0  0
   -5.2260   22.0700  -30.6180 H   0  0  0  0  0  0  0  0  0  0  0  0
   -7.5726   21.6742  -30.9463 H   0  0  0  0  0  0  0  0  0  0  0  0
   -9.6691   20.3782  -30.6702 H   0  0  0  0  0  0  0  0  0  0  0  0
   -9.8806   18.1136  -31.6730 H   0  0  0  0  0  0  0  0  0  0  0  0
   -8.0312   17.1742  -33.0295 H   0  0  0  0  0  0  0  0  0  0  0  0
   -6.2448   16.3869  -33.9551 H   0  0  0  0  0  0  0  0  0  0  0  0
   -6.8781   17.5443  -35.1741 H   0  0  0  0  0  0  0  0  0  0  0  0
   -5.1368   17.1032  -35.1741 H   0  0  0  0  0  0  0  0  0  0  0  0
   -3.4971   17.3041  -34.5863 H   0  0  0  0  0  0  0  0  0  0  0  0
   -1.2632   18.3708  -34.6786 H   0  0  0  0  0  0  0  0  0  0  0  0
   -2.8224   21.8652  -32.7025 H   0  0  0  0  0  0  0  0  0  0  0  0
  1  2  1  0
  2  3  1  0
  2  4  1  0
  4  5  1  0
  5  6  1  0
  6  7  1  0
  7  8  1  0
  8  9  1  0
  9 10  1  0
 10 11  2  0
 11 12  1  0
 12 13  2  0
 13 14  1  0
 14 15  2  0
 15 16  1  0
 16 17  2  0
 17 18  1  0
 17 19  1  0
 19 20  2  0
 20 21  1  0
 21 22  2  0
 22 23  1  0
 22 24  1  0
 24 25  2  0
 25 10  1  0
 16 11  1  0
 25 19  1  0
  1 26  1  0
  1 27  1  0
  1 28  1  0
  3 29  1  0
  3 30  1  0
  3 31  1  0
  4 32  1  0
  4 33  1  0
  5 34  1  0
  5 35  1  0
  6 36  1  0
  7 37  1  0
  7 38  1  0
  8 39  1  0
  8 40  1  0
  9 41  1  0
  9 42  1  0
 12 43  1  0
 13 44  1  0
 14 45  1  0
 15 46  1  0
 18 47  1  0
 18 48  1  0
 18 49  1  0
 20 50  1  0
 21 51  1  0
 24 52  1  0
M  CHG  2   9   1  17   1
M  END
>  <UniqueID>  (13) 
13

>  <SMILES>  (13) 
CN(C)CCNCC[NH2+]c1c2ccccc2[n+](C)c2ccc(Br)cc12

>  <Energy>  (13) 
80.32750347336781

>  <Genealogy>  (13) 
CN(C)CCNCC[NH2+]c1c2ccccc2[n+](C)c2ccc(Br)cc12 (protonated)
CN(C)CCNCC[NH2+]c1c2ccccc2[n+](C)c2ccc(Br)cc12 (3D coordinates assigned)
CN(C)CCNCC[NH2+]c1c2ccccc2[n+](C)c2ccc(Br)cc12 (optimized conformer: 80.32750347336781 kcal/mol)

>  <smiles>  (13) 
CN(C)CCNCCNc1c2ccccc2[n+](C)c2ccc(Br)cc12

>  <score_type>  (13) 
oracle

>  <origin>  (13) 
adg

>  <m_score__min__energy>  (13) 
-7.8799999999999999

>  <m_primary>  (13) 
energy

$$$$
13:0
     RDKit          3D

 37 38  0  0  0  0  0  0  0  0999 V2000
   -5.9810   25.3090  -29.3550 C   0  0  0  0  0  0  0  0  0  0  0  0
   -5.1770   25.6140  -30.6140 C   0  0  0  0  0  0  0  0  0  0  0  0
   -3.8280   25.1660  -30.4770 O   0  0  0  0  0  0  0  0  0  0  0  0
   -3.3170   24.3990  -29.4150 C   0  0  0  0  0  0  0  0  0  0  0  0
   -2.4100   24.9290  -28.4740 C   0  0  0  0  0  0  0  0  0  0  0  0
   -1.9290   24.1350  -27.4310 C   0  0  0  0  0  0  0  0  0  0  0  0
   -2.3500   22.8120  -27.3040 C   0  0  0  0  0  0  0  0  0  0  0  0
   -3.2540   22.2760  -28.2230 C   0  0  0  0  0  0  0  0  0  0  0  0
   -3.7340   23.0560  -29.2880 C   0  0  0  0  0  0  0  0  0  0  0  0
   -4.6750   22.4510  -30.2990 C   0  0  0  0  0  0  0  0  0  0  0  0
   -4.1050   22.5630  -31.6530 N   0  0  0  0  0  0  0  0  0  0  0  0
   -5.1340   22.7320  -32.6920 C   0  0  0  0  0  0  0  0  0  0  0  0
   -6.4620   22.2000  -32.2400 C   0  0  0  0  0  0  0  0  0  0  0  0
   -7.6410   23.1160  -31.4640 S   0  0  0  0  0  0  0  0  0  0  0  0
   -8.7590   21.8740  -31.2820 C   0  0  0  0  0  0  0  0  0  0  0  0
   -8.2230   20.7200  -31.8390 C   0  0  0  0  0  0  0  0  0  0  0  0
   -6.9480   20.9000  -32.3940 C   0  0  0  0  0  0  0  0  0  0  0  0
   -6.1750   19.7800  -33.0200 C   0  0  0  0  0  0  0  0  0  0  0  0
   -5.3736   25.5394  -28.4673 H   0  0  0  0  0  0  0  0  0  0  0  0
   -6.8933   25.9235  -29.3447 H   0  0  0  0  0  0  0  0  0  0  0  0
   -6.2562   24.2440  -29.3447 H   0  0  0  0  0  0  0  0  0  0  0  0
   -5.6411   25.1031  -31.4705 H   0  0  0  0  0  0  0  0  0  0  0  0
   -5.1719   26.7024  -30.7732 H   0  0  0  0  0  0  0  0  0  0  0  0
   -2.0794   25.9744  -28.5623 H   0  0  0  0  0  0  0  0  0  0  0  0
   -1.2153   24.5549  -26.7069 H   0  0  0  0  0  0  0  0  0  0  0  0
   -1.9699   22.1905  -26.4798 H   0  0  0  0  0  0  0  0  0  0  0  0
   -3.5928   21.2354  -28.1123 H   0  0  0  0  0  0  0  0  0  0  0  0
   -4.8341   21.3896  -30.0581 H   0  0  0  0  0  0  0  0  0  0  0  0
   -5.6331   22.9904  -30.2664 H   0  0  0  0  0  0  0  0  0  0  0  0
   -3.5040   23.4200  -31.6770 H   0  0  0  0  0  0  0  0  0  0  0  0
   -5.2372   23.8026  -32.9225 H   0  0  0  0  0  0  0  0  0  0  0  0
   -4.8211   22.1687  -33.5835 H   0  0  0  0  0  0  0  0  0  0  0  0
   -9.7458   21.9603  -30.8038 H   0  0  0  0  0  0  0  0  0  0  0  0
   -8.7499   19.7544  -31.8442 H   0  0  0  0  0  0  0  0  0  0  0  0
   -5.7396   19.1491  -32.2310 H   0  0  0  0  0  0  0  0  0  0  0  0
   -6.8481   19.1740  -33.6443 H   0  0  0  0  0  0  0  0  0  0  0  0
   -5.3697   20.1944  -33.6443 H   0  0  0  0  0  0  0  0  0  0  0  0
  1  2  1  0
  2  3  1  0
  3  4  1  0
  4  5  2  0
  5  6  1  0
  6  7  2  0
  7  8  1  0
  8  9  2  0
  9 10  1  0
 10 11  1  0
 11 12  1  0
 12 13  1  0
 13 14  1  0
 14 15  1  0
 15 16  2  0
 16 17  1  0
 17 18  1  0
  9  4  1  0
 17 13  2  0
  1 19  1  0
  1 20  1  0
  1 21  1  0
  2 22  1  0
  2 23  1  0
  5 24  1  0
  6 25  1  0
  7 26  1  0
  8 27  1  0
 10 28  1  0
 10 29  1  0
 11 30  1  0
 12 31  1  0
 12 32  1  0
 15 33  1  0
 16 34  1  0
 18 35  1  0
 18 36  1  0
 18 37  1  0
M  END
>  <UniqueID>  (14) 
14

>  <SMILES>  (14) 
CCOc1ccccc1CNCc1sccc1C

>  <Energy>  (14) 
55.904392253227535

>  <Genealogy>  (14) 
CCOc1ccccc1CNCc1sccc1C (3D coordinates assigned)
CCOc1ccccc1CNCc1sccc1C (optimized conformer: 55.904392253227535 kcal/mol)

>  <smiles>  (14) 
CCOc1ccccc1CNCc1sccc1C

>  <score_type>  (14) 
oracle

>  <origin>  (14) 
adg

>  <m_score__min__energy>  (14) 
-7.1500000000000004

>  <m_primary>  (14) 
energy

$$$$
14:0
     RDKit          3D

 55 57  0  0  0  0  0  0  0  0999 V2000
   -6.1810   25.4130  -29.5990 C   0  0  0  0  0  0  0  0  0  0  0  0
   -5.2910   25.5890  -30.8240 C   0  0  0  0  0  0  0  0  0  0  0  0
   -3.8940   25.2990  -30.4770 N   0  0  0  0  0  0  0  0  0  0  0  0
   -3.8040   24.4100  -29.3090 C   0  0  0  0  0  0  0  0  0  0  0  0
   -3.7410   22.9480  -29.7530 C   0  0  0  0  0  0  0  0  0  0  0  0
   -3.4140   22.8770  -31.1270 O   0  0  0  0  0  0  0  0  0  0  0  0
   -2.8950   21.6050  -31.4570 C   0  0  0  0  0  0  0  0  0  0  0  0
   -3.0290   21.3690  -32.9630 C   0  0  0  0  0  0  0  0  0  0  0  0
   -4.3960   21.6180  -33.4270 N   0  0  0  0  0  0  0  0  0  0  0  0
   -5.5090   20.8000  -33.0370 C   0  0  0  0  0  0  0  0  0  0  0  0
   -6.5680   21.3320  -32.2730 C   0  0  0  0  0  0  0  0  0  0  0  0
   -7.6640   20.5070  -31.9230 C   0  0  0  0  0  0  0  0  0  0  0  0
   -7.6690   19.1670  -32.2610 N   0  0  0  0  0  0  0  0  0  0  0  0
   -8.7960   18.3010  -31.8720 C   0  0  0  0  0  0  0  0  0  0  0  0
   -6.6170   18.6620  -32.9840 C   0  0  0  0  0  0  0  0  0  0  0  0
   -5.5690   19.4500  -33.3910 C   0  0  0  0  0  0  0  0  0  0  0  0
   -4.5650   18.6810  -34.1680 C   0  0  0  0  0  0  0  0  0  0  0  0
   -5.0290   17.2230  -34.0460 C   0  0  0  0  0  0  0  0  0  0  0  0
   -6.4310   17.2480  -33.4160 C   0  0  0  0  0  0  0  0  0  0  0  0
   -8.7880   21.1640  -31.1410 C   0  0  0  0  0  0  0  0  0  0  0  0
   -9.1480   22.5230  -31.7620 C   0  0  0  0  0  0  0  0  0  0  0  0
   -7.9270   23.4360  -32.0280 C   0  0  0  0  0  0  0  0  0  0  0  0
   -6.5660   22.7640  -31.7850 C   0  0  0  0  0  0  0  0  0  0  0  0
   -5.5775   25.5323  -28.6871 H   0  0  0  0  0  0  0  0  0  0  0  0
   -6.9781   26.1709  -29.6130 H   0  0  0  0  0  0  0  0  0  0  0  0
   -6.6296   24.4087  -29.6130 H   0  0  0  0  0  0  0  0  0  0  0  0
   -5.6202   24.8995  -31.6153 H   0  0  0  0  0  0  0  0  0  0  0  0
   -5.3664   26.6277  -31.1783 H   0  0  0  0  0  0  0  0  0  0  0  0
   -3.4630   24.8010  -31.2910 H   0  0  0  0  0  0  0  0  0  0  0  0
   -2.8966   24.6542  -28.7372 H   0  0  0  0  0  0  0  0  0  0  0  0
   -4.6968   24.5537  -28.6826 H   0  0  0  0  0  0  0  0  0  0  0  0
   -2.9729   22.4215  -29.1674 H   0  0  0  0  0  0  0  0  0  0  0  0
   -4.7212   22.4766  -29.5887 H   0  0  0  0  0  0  0  0  0  0  0  0
   -1.8335   21.5580  -31.1724 H   0  0  0  0  0  0  0  0  0  0  0  0
   -3.4570   20.8301  -30.9151 H   0  0  0  0  0  0  0  0  0  0  0  0
   -2.3429   22.0460  -33.4931 H   0  0  0  0  0  0  0  0  0  0  0  0
   -2.7807   20.3177  -33.1705 H   0  0  0  0  0  0  0  0  0  0  0  0
   -4.5400   22.3190  -34.1890 H   0  0  0  0  0  0  0  0  0  0  0  0
   -8.8593   18.2523  -30.7749 H   0  0  0  0  0  0  0  0  0  0  0  0
   -9.7322   18.7143  -32.2754 H   0  0  0  0  0  0  0  0  0  0  0  0
   -8.6377   17.2899  -32.2754 H   0  0  0  0  0  0  0  0  0  0  0  0
   -4.5578   19.0011  -35.2204 H   0  0  0  0  0  0  0  0  0  0  0  0
   -3.5407   18.8293  -33.7953 H   0  0  0  0  0  0  0  0  0  0  0  0
   -5.0703   16.7553  -35.0408 H   0  0  0  0  0  0  0  0  0  0  0  0
   -4.3312   16.6398  -33.4272 H   0  0  0  0  0  0  0  0  0  0  0  0
   -7.1948   16.9627  -34.1543 H   0  0  0  0  0  0  0  0  0  0  0  0
   -6.5289   16.5379  -32.5816 H   0  0  0  0  0  0  0  0  0  0  0  0
   -9.6729   20.5108  -31.1598 H   0  0  0  0  0  0  0  0  0  0  0  0
   -8.4572   21.3215  -30.1038 H   0  0  0  0  0  0  0  0  0  0  0  0
   -9.6594   22.3416  -32.7188 H   0  0  0  0  0  0  0  0  0  0  0  0
   -9.7851   23.0470  -31.0343 H   0  0  0  0  0  0  0  0  0  0  0  0
   -7.9657   23.7651  -33.0769 H   0  0  0  0  0  0  0  0  0  0  0  0
   -7.9972   24.2697  -31.3138 H   0  0  0  0  0  0  0  0  0  0  0  0
   -5.7876   23.3252  -32.3227 H   0  0  0  0  0  0  0  0  0  0  0  0
   -6.3662   22.7631  -30.7033 H   0  0  0  0  0  0  0  0  0  0  0  0
  1  2  1  0
  2  3  1  0
  3  4  1  0
  4  5  1  0
  5  6  1  0
  6  7  1  0
  7  8  1  0
  8  9  1  0
  9 10  1  0
 10 11  2  0
 11 12  1  0
 12 13  2  0
 13 14  1  0
 13 15  1  0
 15 16  2  0
 16 17  1  0
 17 18  1  0
 18 19  1  0
 12 20  1  0
 20 21  1  0
 21 22  1  0
 22 23  1  0
 16 10  1  0
 23 11  1  0
 19 15  1  0
  1 24  1  0
  1 25  1  0
  1 26  1  0
  2 27  1  0
  2 28  1  0
  3 29  1  0
  4 30  1  0
  4 31  1  0
  5 32  1  0
  5 33  1  0
  7 34  1  0
  7 35  1  0
  8 36  1  0
  8 37  1  0
  9 38  1  0
 14 39  1  0
 14 40  1  0
 14 41  1  0
 17 42  1  0
 17 43  1  0
 18 44  1  0
 18 45  1  0
 19 46  1  0
 19 47  1  0
 20 48  1  0
 20 49  1  0
 21 50  1  0
 21 51  1  0
 22 52  1  0
 22 53  1  0
 23 54  1  0
 23 55  1  0
M  CHG  1  13   1
M  END
>  <UniqueID>  (15) 
15

>  <SMILES>  (15) 
CCNCCOCCNc1c2c([n+](C)c3c1CCC3)CCCC2

>  <Energy>  (15) 
70.09434128604464

>  <Genealogy>  (15) 
CCNCCOCCNc1c2c([n+](C)c3c1CCC3)CCCC2 (3D coordinates assigned)
CCNCCOCCNc1c2c([n+](C)c3c1CCC3)CCCC2 (nonaromatic ring conformer: 70.09434128604464 kcal/mol)

>  <smiles>  (15) 
CCNCCOCCNc1c2c([n+](C)c3c1CCC3)CCCC2

>  <score_type>  (15) 
oracle

>  <origin>  (15) 
adg

>  <m_score__min__energy>  (15) 
-9.2599999999999998

>  <m_primary>  (15) 
energy

$$$$
15:0
     RDKit          3D

 27 28  0  0  0  0  0  0  0  0999 V2000
   -5.9890   22.1110  -32.3280 C   0  0  0  0  0  0  0  0  0  0  0  0
   -5.4920   20.8710  -33.0910 C   0  0  0  0  0  0  0  0  0  0  0  0
   -6.2610   19.6130  -32.8510 N   0  0  0  0  0  0  0  0  0  0  0  0
   -7.7160   19.8790  -32.6610 C   0  0  0  0  0  0  0  0  0  0  0  0
   -8.4630   18.5590  -32.3420 C   0  0  0  0  0  0  0  0  0  0  0  0
   -7.5190   17.4200  -32.3240 N   0  0  0  0  0  0  0  0  0  0  0  0
   -6.8510   17.3220  -33.6390 C   0  0  0  0  0  0  0  0  0  0  0  0
   -6.0970   18.6370  -33.9640 C   0  0  0  0  0  0  0  0  0  0  0  0
   -6.4950   17.6720  -31.2920 C   0  0  0  0  0  0  0  0  0  0  0  0
   -5.7380   18.9860  -31.6020 C   0  0  0  0  0  0  0  0  0  0  0  0
   -5.9161   21.9291  -31.2456 H   0  0  0  0  0  0  0  0  0  0  0  0
   -5.3695   22.9794  -32.5964 H   0  0  0  0  0  0  0  0  0  0  0  0
   -7.0368   22.3111  -32.5964 H   0  0  0  0  0  0  0  0  0  0  0  0
   -5.5375   21.0952  -34.1669 H   0  0  0  0  0  0  0  0  0  0  0  0
   -4.4751   20.6771  -32.7191 H   0  0  0  0  0  0  0  0  0  0  0  0
   -7.8509   20.5837  -31.8272 H   0  0  0  0  0  0  0  0  0  0  0  0
   -8.1265   20.3097  -33.5862 H   0  0  0  0  0  0  0  0  0  0  0  0
   -8.9452   18.6450  -31.3570 H   0  0  0  0  0  0  0  0  0  0  0  0
   -9.2194   18.3815  -33.1207 H   0  0  0  0  0  0  0  0  0  0  0  0
   -6.1334   16.4886  -33.6193 H   0  0  0  0  0  0  0  0  0  0  0  0
   -7.6129   17.1480  -34.4131 H   0  0  0  0  0  0  0  0  0  0  0  0
   -5.0277   18.4183  -34.1008 H   0  0  0  0  0  0  0  0  0  0  0  0
   -6.5128   19.0706  -34.8855 H   0  0  0  0  0  0  0  0  0  0  0  0
   -6.9821   17.7561  -30.3093 H   0  0  0  0  0  0  0  0  0  0  0  0
   -5.7786   16.8373  -31.2850 H   0  0  0  0  0  0  0  0  0  0  0  0
   -5.8706   19.6857  -30.7636 H   0  0  0  0  0  0  0  0  0  0  0  0
   -4.6714   18.7557  -31.7413 H   0  0  0  0  0  0  0  0  0  0  0  0
  1  2  1  0
  2  3  1  0
  3  4  1  0
  4  5  1  0
  5  6  1  0
  6  7  1  0
  7  8  1  0
  6  9  1  0
  9 10  1  0
  8  3  1  0
 10  3  1  0
  1 11  1  0
  1 12  1  0
  1 13  1  0
  2 14  1  0
  2 15  1  0
  4 16  1  0
  4 17  1  0
  5 18  1  0
  5 19  1  0
  7 20  1  0
  7 21  1  0
  8 22  1  0
  8 23  1  0
  9 24  1  0
  9 25  1  0
 10 26  1  0
 10 27  1  0
M  CHG  1   3   1
M  END
>  <UniqueID>  (16) 
16

>  <SMILES>  (16) 
CC[N+]12CCN(CC1)CC2

>  <Energy>  (16) 
46.536648836936806

>  <Genealogy>  (16) 
CC[N+]12CCN(CC1)CC2 (3D coordinates assigned)
CC[N+]12CCN(CC1)CC2 (nonaromatic ring conformer: 46.536648836936806 kcal/mol)

>  <smiles>  (16) 
CC[N+]12CCN(CC1)CC2

>  <score_type>  (16) 
oracle

>  <origin>  (16) 
adg

>  <m_score__min__energy>  (16) 
-3.6000000000000001

>  <m_primary>  (16) 
energy

$$$$
16:0
     RDKit          3D

 40 42  0  0  0  0  0  0  0  0999 V2000
   -2.8150   21.2610  -30.7920 C   0  0  0  0  0  0  0  0  0  0  0  0
   -2.4830   21.4290  -32.2730 C   0  0  0  0  0  0  0  0  0  0  0  0
   -3.1900   20.4220  -33.0900 N   0  0  0  0  0  0  0  0  0  0  0  0
   -2.3640   19.5940  -33.9930 C   0  0  0  0  0  0  0  0  0  0  0  0
   -1.0320   20.2760  -34.2940 C   0  0  0  0  0  0  0  0  0  0  0  0
   -4.4970   20.2300  -33.0380 C   0  0  0  0  0  0  0  0  0  0  0  0
   -5.1210   19.0690  -33.5540 C   0  0  0  0  0  0  0  0  0  0  0  0
   -6.5040   18.9330  -33.4590 C   0  0  0  0  0  0  0  0  0  0  0  0
   -7.2580   19.9380  -32.8550 C   0  0  0  0  0  0  0  0  0  0  0  0
   -8.6490   19.8280  -32.7230 C   0  0  0  0  0  0  0  0  0  0  0  0
   -9.3720   20.8440  -32.0960 C   0  0  0  0  0  0  0  0  0  0  0  0
   -8.7140   21.9740  -31.6020 C   0  0  0  0  0  0  0  0  0  0  0  0
   -7.3210   22.1070  -31.7360 C   0  0  0  0  0  0  0  0  0  0  0  0
   -6.6430   23.3140  -31.2030 C   0  0  0  0  0  0  0  0  0  0  0  0
   -7.2330   24.0840  -30.1880 C   0  0  0  0  0  0  0  0  0  0  0  0
   -6.5880   25.2260  -29.7100 C   0  0  0  0  0  0  0  0  0  0  0  0
   -5.3500   25.5860  -30.2440 C   0  0  0  0  0  0  0  0  0  0  0  0
   -4.7830   24.8270  -31.2200 N   0  0  0  0  0  0  0  0  0  0  0  0
   -5.3920   23.7110  -31.7030 C   0  0  0  0  0  0  0  0  0  0  0  0
   -6.5900   21.0760  -32.3620 C   0  0  0  0  0  0  0  0  0  0  0  0
   -5.2670   21.1650  -32.4740 O   0  0  0  0  0  0  0  0  0  0  0  0
   -1.9972   21.6748  -30.1837 H   0  0  0  0  0  0  0  0  0  0  0  0
   -3.7490   21.7950  -30.5627 H   0  0  0  0  0  0  0  0  0  0  0  0
   -2.9379   20.1922  -30.5627 H   0  0  0  0  0  0  0  0  0  0  0  0
   -2.7875   22.4347  -32.5983 H   0  0  0  0  0  0  0  0  0  0  0  0
   -1.3998   21.2927  -32.4076 H   0  0  0  0  0  0  0  0  0  0  0  0
   -2.1708   18.6226  -33.5144 H   0  0  0  0  0  0  0  0  0  0  0  0
   -2.9088   19.4558  -34.9386 H   0  0  0  0  0  0  0  0  0  0  0  0
   -0.5300   20.5330  -33.3496 H   0  0  0  0  0  0  0  0  0  0  0  0
   -0.3937   19.5938  -34.8747 H   0  0  0  0  0  0  0  0  0  0  0  0
   -1.2124   21.1927  -34.8747 H   0  0  0  0  0  0  0  0  0  0  0  0
   -4.5180   18.2797  -34.0267 H   0  0  0  0  0  0  0  0  0  0  0  0
   -6.9993   18.0360  -33.8591 H   0  0  0  0  0  0  0  0  0  0  0  0
   -9.1705   18.9416  -33.1133 H   0  0  0  0  0  0  0  0  0  0  0  0
  -10.4633   20.7552  -31.9902 H   0  0  0  0  0  0  0  0  0  0  0  0
   -9.2916   22.7665  -31.1038 H   0  0  0  0  0  0  0  0  0  0  0  0
   -8.2055   23.7868  -29.7686 H   0  0  0  0  0  0  0  0  0  0  0  0
   -7.0510   25.8360  -28.9203 H   0  0  0  0  0  0  0  0  0  0  0  0
   -4.8325   26.4840  -29.8755 H   0  0  0  0  0  0  0  0  0  0  0  0
   -4.9026   23.1167  -32.4887 H   0  0  0  0  0  0  0  0  0  0  0  0
  1  2  1  0
  2  3  1  0
  3  4  1  0
  4  5  1  0
  3  6  2  3
  6  7  1  0
  7  8  2  0
  8  9  1  0
  9 10  2  0
 10 11  1  0
 11 12  2  0
 12 13  1  0
 13 14  1  0
 14 15  2  0
 15 16  1  0
 16 17  2  0
 17 18  1  0
 18 19  2  0
 13 20  2  0
 20 21  1  0
 21  6  1  0
 20  9  1  0
 19 14  1  0
  1 22  1  0
  1 23  1  0
  1 24  1  0
  2 25  1  0
  2 26  1  0
  4 27  1  0
  4 28  1  0
  5 29  1  0
  5 30  1  0
  5 31  1  0
  7 32  1  0
  8 33  1  0
 10 34  1  0
 11 35  1  0
 12 36  1  0
 15 37  1  0
 16 38  1  0
 17 39  1  0
 19 40  1  0
M  CHG  1   3   1
M  END
>  <UniqueID>  (17) 
17

>  <SMILES>  (17) 
CC[N+](CC)=c1ccc2cccc(-c3cccnc3)c2o1

>  <Energy>  (17) 
51.96912854015013

>  <Genealogy>  (17) 
CC[N+](CC)=c1ccc2cccc(-c3cccnc3)c2o1 (3D coordinates assigned)
CC[N+](CC)=c1ccc2cccc(-c3cccnc3)c2o1 (optimized conformer: 51.96912854015013 kcal/mol)

>  <smiles>  (17) 
CC[N+](CC)=c1ccc2cccc(-c3cccnc3)c2o1

>  <score_type>  (17) 
oracle

>  <origin>  (17) 
adg

>  <m_score__min__energy>  (17) 
-7.5700000000000003

>  <m_primary>  (17) 
energy

$$$$
17:0
     RDKit          3D

 54 56  0  0  0  0  0  0  0  0999 V2000
   -1.6400   18.4980  -34.0910 C   0  0  0  0  0  0  0  0  0  0  0  0
   -0.4790   19.3810  -34.5520 C   0  0  0  0  0  0  0  0  0  0  0  0
   -0.7750   20.8190  -34.3550 N   0  0  0  0  0  0  0  0  0  0  0  0
    0.1930   21.6570  -35.0940 C   0  0  0  0  0  0  0  0  0  0  0  0
   -0.7520   21.1650  -32.9140 C   0  0  0  0  0  0  0  0  0  0  0  0
   -2.1640   21.5130  -32.4250 C   0  0  0  0  0  0  0  0  0  0  0  0
   -3.1620   21.2160  -33.4530 N   0  0  0  0  0  0  0  0  0  0  0  0
   -4.4710   20.7360  -33.1080 C   0  0  0  0  0  0  0  0  0  0  0  0
   -4.9220   19.1100  -33.1090 S   0  0  0  0  0  0  0  0  0  0  0  0
   -6.4870   19.3720  -32.5670 C   0  0  0  0  0  0  0  0  0  0  0  0
   -6.7040   20.7370  -32.4130 C   0  0  0  0  0  0  0  0  0  0  0  0
   -5.5620   21.5210  -32.7020 C   0  0  0  0  0  0  0  0  0  0  0  0
   -5.5220   23.0220  -32.5400 C   0  0  0  0  0  0  0  0  0  0  0  0
   -5.1750   23.4010  -31.1230 C   0  0  0  0  0  0  0  0  0  0  0  0
   -4.3340   22.5800  -30.3540 C   0  0  0  0  0  0  0  0  0  0  0  0
   -4.0190   22.9270  -29.0380 C   0  0  0  0  0  0  0  0  0  0  0  0
   -4.5300   24.1060  -28.4740 C   0  0  0  0  0  0  0  0  0  0  0  0
   -4.2240   24.4670  -27.0510 C   0  0  0  0  0  0  0  0  0  0  0  0
   -5.3800   24.9210  -29.2360 C   0  0  0  0  0  0  0  0  0  0  0  0
   -5.6960   24.5740  -30.5520 C   0  0  0  0  0  0  0  0  0  0  0  0
   -8.0090   21.2660  -31.8670 C   0  0  0  0  0  0  0  0  0  0  0  0
   -9.1450   20.2400  -32.0130 C   0  0  0  0  0  0  0  0  0  0  0  0
   -8.7030   18.8460  -31.5400 C   0  0  0  0  0  0  0  0  0  0  0  0
   -7.5380   18.3170  -32.3920 C   0  0  0  0  0  0  0  0  0  0  0  0
   -1.6695   18.4756  -32.9916 H   0  0  0  0  0  0  0  0  0  0  0  0
   -2.5864   18.9066  -34.4749 H   0  0  0  0  0  0  0  0  0  0  0  0
   -1.4990   17.4769  -34.4749 H   0  0  0  0  0  0  0  0  0  0  0  0
    0.4197   19.1192  -33.9742 H   0  0  0  0  0  0  0  0  0  0  0  0
   -0.3202   19.2068  -35.6265 H   0  0  0  0  0  0  0  0  0  0  0  0
    0.8251   22.2042  -34.3791 H   0  0  0  0  0  0  0  0  0  0  0  0
    0.8250   21.0161  -35.7264 H   0  0  0  0  0  0  0  0  0  0  0  0
   -0.3507   22.3742  -35.7264 H   0  0  0  0  0  0  0  0  0  0  0  0
   -0.3713   20.3066  -32.3411 H   0  0  0  0  0  0  0  0  0  0  0  0
   -0.0983   22.0374  -32.7669 H   0  0  0  0  0  0  0  0  0  0  0  0
   -2.3885   20.9229  -31.5243 H   0  0  0  0  0  0  0  0  0  0  0  0
   -2.2020   22.5890  -32.1996 H   0  0  0  0  0  0  0  0  0  0  0  0
   -2.9100   21.3560  -34.4560 H   0  0  0  0  0  0  0  0  0  0  0  0
   -4.7637   23.4375  -33.2199 H   0  0  0  0  0  0  0  0  0  0  0  0
   -6.5161   23.4279  -32.7790 H   0  0  0  0  0  0  0  0  0  0  0  0
   -3.9211   21.6586  -30.7904 H   0  0  0  0  0  0  0  0  0  0  0  0
   -3.3670   22.2726  -28.4407 H   0  0  0  0  0  0  0  0  0  0  0  0
   -4.7855   23.8046  -26.3758 H   0  0  0  0  0  0  0  0  0  0  0  0
   -3.1459   24.3499  -26.8667 H   0  0  0  0  0  0  0  0  0  0  0  0
   -4.5161   25.5114  -26.8667 H   0  0  0  0  0  0  0  0  0  0  0  0
   -5.7997   25.8374  -28.7955 H   0  0  0  0  0  0  0  0  0  0  0  0
   -6.3570   25.2234  -31.1447 H   0  0  0  0  0  0  0  0  0  0  0  0
   -7.8788   21.5043  -30.8010 H   0  0  0  0  0  0  0  0  0  0  0  0
   -8.2820   22.1635  -32.4414 H   0  0  0  0  0  0  0  0  0  0  0  0
  -10.0037   20.5678  -31.4087 H   0  0  0  0  0  0  0  0  0  0  0  0
   -9.4194   20.1749  -33.0762 H   0  0  0  0  0  0  0  0  0  0  0  0
   -8.3811   18.9081  -30.4900 H   0  0  0  0  0  0  0  0  0  0  0  0
   -9.5533   18.1558  -31.6432 H   0  0  0  0  0  0  0  0  0  0  0  0
   -7.0932   17.4436  -31.8928 H   0  0  0  0  0  0  0  0  0  0  0  0
   -7.9242   18.0350  -33.3826 H   0  0  0  0  0  0  0  0  0  0  0  0
  1  2  1  0
  2  3  1  0
  3  4  1  0
  3  5  1  0
  5  6  1  0
  6  7  1  0
  7  8  1  0
  8  9  1  0
  9 10  1  0
 10 11  2  0
 11 12  1  0
 12 13  1  0
 13 14  1  0
 14 15  2  0
 15 16  1  0
 16 17  2  0
 17 18  1  0
 17 19  1  0
 19 20  2  0
 11 21  1  0
 21 22  1  0
 22 23  1  0
 23 24  1  0
 12  8  2  0
 20 14  1  0
 24 10  1  0
  1 25  1  0
  1 26  1  0
  1 27  1  0
  2 28  1  0
  2 29  1  0
  4 30  1  0
  4 31  1  0
  4 32  1  0
  5 33  1  0
  5 34  1  0
  6 35  1  0
  6 36  1  0
  7 37  1  0
 13 38  1  0
 13 39  1  0
 15 40  1  0
 16 41  1  0
 18 42  1  0
 18 43  1  0
 18 44  1  0
 19 45  1  0
 20 46  1  0
 21 47  1  0
 21 48  1  0
 22 49  1  0
 22 50  1  0
 23 51  1  0
 23 52  1  0
 24 53  1  0
 24 54  1  0
M  END
>  <UniqueID>  (18) 
18

>  <SMILES>  (18) 
CCN(C)CCNc1sc2c(c1Cc1ccc(C)cc1)CCCC2

>  <Energy>  (18) 
74.96113887468958

>  <Genealogy>  (18) 
CCN(C)CCNc1sc2c(c1Cc1ccc(C)cc1)CCCC2 (3D coordinates assigned)
CCN(C)CCNc1sc2c(c1Cc1ccc(C)cc1)CCCC2 (nonaromatic ring conformer: 74.96113887468958 kcal/mol)

>  <smiles>  (18) 
CCN(C)CCNc1sc2c(c1Cc1ccc(C)cc1)CCCC2

>  <score_type>  (18) 
oracle

>  <origin>  (18) 
adg

>  <m_score__min__energy>  (18) 
-8.3499999999999996

>  <m_primary>  (18) 
energy

$$$$
18:0
     RDKit          3D

 75 78  0  0  0  0  0  0  0  0999 V2000
    0.6570   24.7530  -36.0830 C   0  0  0  0  0  0  0  0  0  0  0  0
    1.1020   23.3000  -36.1270 C   0  0  0  0  0  0  0  0  0  0  0  0
    0.6360   22.6380  -34.9690 O   0  0  0  0  0  0  0  0  0  0  0  0
   -0.0480   21.4610  -35.3430 C   0  0  0  0  0  0  0  0  0  0  0  0
   -0.3920   20.6650  -34.0850 C   0  0  0  0  0  0  0  0  0  0  0  0
   -0.5550   21.5330  -32.9800 O   0  0  0  0  0  0  0  0  0  0  0  0
   -0.6330   20.7960  -31.7760 C   0  0  0  0  0  0  0  0  0  0  0  0
   -2.0980   20.5650  -31.4150 C   0  0  0  0  0  0  0  0  0  0  0  0
   -2.9720   21.4790  -32.1480 N   0  0  0  0  0  0  0  0  0  0  0  0
   -4.3250   21.1060  -32.4400 C   0  0  0  0  0  0  0  0  0  0  0  0
   -4.5680   19.9500  -33.1980 C   0  0  0  0  0  0  0  0  0  0  0  0
   -3.4990   19.2270  -33.7720 C   0  0  0  0  0  0  0  0  0  0  0  0
   -3.7410   18.1080  -34.5630 C   0  0  0  0  0  0  0  0  0  0  0  0
   -5.0470   17.6990  -34.8080 C   0  0  0  0  0  0  0  0  0  0  0  0
   -6.1160   18.3890  -34.2380 C   0  0  0  0  0  0  0  0  0  0  0  0
   -5.9000   19.5060  -33.3910 C   0  0  0  0  0  0  0  0  0  0  0  0
   -6.9430   20.1610  -32.7660 N   0  0  0  0  0  0  0  0  0  0  0  0
   -8.2790   19.5250  -32.7030 C   0  0  0  0  0  0  0  0  0  0  0  0
   -6.7340   21.3970  -32.1800 C   0  0  0  0  0  0  0  0  0  0  0  0
   -7.8210   22.2060  -31.7690 C   0  0  0  0  0  0  0  0  0  0  0  0
   -7.6140   23.4200  -31.1270 C   0  0  0  0  0  0  0  0  0  0  0  0
   -6.3280   23.8860  -30.9080 C   0  0  0  0  0  0  0  0  0  0  0  0
   -5.2140   23.1560  -31.3550 C   0  0  0  0  0  0  0  0  0  0  0  0
   -3.9140   23.6770  -31.2140 O   0  0  0  0  0  0  0  0  0  0  0  0
   -3.3180   24.1540  -30.0060 C   0  0  0  0  0  0  0  0  0  0  0  0
   -2.3510   23.0890  -29.4360 C   0  0  0  0  0  0  0  0  0  0  0  0
   -2.5420   22.7370  -27.9890 N   0  0  0  0  0  0  0  0  0  0  0  0
   -3.1230   23.8930  -27.2550 C   0  0  0  0  0  0  0  0  0  0  0  0
   -3.4660   21.5570  -27.8500 C   0  0  0  0  0  0  0  0  0  0  0  0
   -2.7290   20.2090  -27.8760 C   0  0  0  0  0  0  0  0  0  0  0  0
   -1.7550   20.0920  -26.6930 C   0  0  0  0  0  0  0  0  0  0  0  0
   -1.2190   21.4590  -26.2370 C   0  0  0  0  0  0  0  0  0  0  0  0
   -1.1820   22.4510  -27.4110 C   0  0  0  0  0  0  0  0  0  0  0  0
   -5.4110   21.8930  -31.9890 C   0  0  0  0  0  0  0  0  0  0  0  0
    0.5585   25.0747  -35.0357 H   0  0  0  0  0  0  0  0  0  0  0  0
    1.4040   25.3808  -36.5907 H   0  0  0  0  0  0  0  0  0  0  0  0
   -0.3135   24.8548  -36.5907 H   0  0  0  0  0  0  0  0  0  0  0  0
    0.6854   22.8142  -37.0217 H   0  0  0  0  0  0  0  0  0  0  0  0
    2.2002   23.2500  -36.1656 H   0  0  0  0  0  0  0  0  0  0  0  0
   -0.9729   21.7256  -35.8765 H   0  0  0  0  0  0  0  0  0  0  0  0
    0.5890   20.8549  -36.0039 H   0  0  0  0  0  0  0  0  0  0  0  0
   -1.3276   20.1109  -34.2515 H   0  0  0  0  0  0  0  0  0  0  0  0
    0.4293   19.9654  -33.8704 H   0  0  0  0  0  0  0  0  0  0  0  0
   -0.1302   19.8264  -31.9064 H   0  0  0  0  0  0  0  0  0  0  0  0
   -0.1408   21.3587  -30.9691 H   0  0  0  0  0  0  0  0  0  0  0  0
   -2.3705   19.5292  -31.6656 H   0  0  0  0  0  0  0  0  0  0  0  0
   -2.2252   20.7490  -30.3380 H   0  0  0  0  0  0  0  0  0  0  0  0
   -2.6270   22.4080  -32.4800 H   0  0  0  0  0  0  0  0  0  0  0  0
   -2.4637   19.5521  -33.5918 H   0  0  0  0  0  0  0  0  0  0  0  0
   -2.8989   17.5470  -34.9945 H   0  0  0  0  0  0  0  0  0  0  0  0
   -5.2374   16.8287  -35.4533 H   0  0  0  0  0  0  0  0  0  0  0  0
   -7.1447   18.0615  -34.4488 H   0  0  0  0  0  0  0  0  0  0  0  0
   -8.5699   19.3865  -31.6512 H   0  0  0  0  0  0  0  0  0  0  0  0
   -9.0157   20.1690  -33.2055 H   0  0  0  0  0  0  0  0  0  0  0  0
   -8.2436   18.5471  -33.2055 H   0  0  0  0  0  0  0  0  0  0  0  0
   -8.8493   21.8664  -31.9619 H   0  0  0  0  0  0  0  0  0  0  0  0
   -8.4760   24.0148  -30.7906 H   0  0  0  0  0  0  0  0  0  0  0  0
   -6.1774   24.8382  -30.3782 H   0  0  0  0  0  0  0  0  0  0  0  0
   -2.7594   25.0781  -30.2157 H   0  0  0  0  0  0  0  0  0  0  0  0
   -4.1088   24.3551  -29.2683 H   0  0  0  0  0  0  0  0  0  0  0  0
   -2.4770   22.1692  -30.0260 H   0  0  0  0  0  0  0  0  0  0  0  0
   -1.3465   23.5321  -29.5044 H   0  0  0  0  0  0  0  0  0  0  0  0
   -3.0364   23.7207  -26.1720 H   0  0  0  0  0  0  0  0  0  0  0  0
   -2.5786   24.8099  -27.5251 H   0  0  0  0  0  0  0  0  0  0  0  0
   -4.1836   24.0032  -27.5251 H   0  0  0  0  0  0  0  0  0  0  0  0
   -4.0036   21.6438  -26.8943 H   0  0  0  0  0  0  0  0  0  0  0  0
   -4.1511   21.5733  -28.7104 H   0  0  0  0  0  0  0  0  0  0  0  0
   -3.4661   19.3946  -27.8172 H   0  0  0  0  0  0  0  0  0  0  0  0
   -2.1544   20.1413  -28.8116 H   0  0  0  0  0  0  0  0  0  0  0  0
   -2.2791   19.6189  -25.8495 H   0  0  0  0  0  0  0  0  0  0  0  0
   -0.8967   19.4889  -27.0239 H   0  0  0  0  0  0  0  0  0  0  0  0
   -1.8737   21.8581  -25.4483 H   0  0  0  0  0  0  0  0  0  0  0  0
   -0.1959   21.3267  -25.8552 H   0  0  0  0  0  0  0  0  0  0  0  0
   -0.7472   23.3969  -27.0558 H   0  0  0  0  0  0  0  0  0  0  0  0
   -0.5783   21.9920  -28.2077 H   0  0  0  0  0  0  0  0  0  0  0  0
  1  2  1  0
  2  3  1  0
  3  4  1  0
  4  5  1  0
  5  6  1  0
  6  7  1  0
  7  8  1  0
  8  9  1  0
  9 10  1  0
 10 11  2  0
 11 12  1  0
 12 13  2  0
 13 14  1  0
 14 15  2  0
 15 16  1  0
 16 17  2  0
 17 18  1  0
 17 19  1  0
 19 20  2  0
 20 21  1  0
 21 22  2  0
 22 23  1  0
 23 24  1  0
 24 25  1  0
 25 26  1  0
 26 27  1  0
 27 28  1  0
 27 29  1  0
 29 30  1  0
 30 31  1  0
 31 32  1  0
 32 33  1  0
 23 34  2  0
 34 10  1  0
 16 11  1  0
 34 19  1  0
 33 27  1  0
  1 35  1  0
  1 36  1  0
  1 37  1  0
  2 38  1  0
  2 39  1  0
  4 40  1  0
  4 41  1  0
  5 42  1  0
  5 43  1  0
  7 44  1  0
  7 45  1  0
  8 46  1  0
  8 47  1  0
  9 48  1  0
 12 49  1  0
 13 50  1  0
 14 51  1  0
 15 52  1  0
 18 53  1  0
 18 54  1  0
 18 55  1  0
 20 56  1  0
 21 57  1  0
 22 58  1  0
 25 59  1  0
 25 60  1  0
 26 61  1  0
 26 62  1  0
 28 63  1  0
 28 64  1  0
 28 65  1  0
 29 66  1  0
 29 67  1  0
 30 68  1  0
 30 69  1  0
 31 70  1  0
 31 71  1  0
 32 72  1  0
 32 73  1  0
 33 74  1  0
 33 75  1  0
M  CHG  2  17   1  27   1
M  END
>  <UniqueID>  (19) 
19

>  <SMILES>  (19) 
CCOCCOCCNc1c2ccccc2[n+](C)c2cccc(OCC[N+]3(C)CCCCC3)c12

>  <Energy>  (19) 
117.04774268231422

>  <Genealogy>  (19) 
CCOCCOCCNc1c2ccccc2[n+](C)c2cccc(OCC[N+]3(C)CCCCC3)c12 (3D coordinates assigned)
CCOCCOCCNc1c2ccccc2[n+](C)c2cccc(OCC[N+]3(C)CCCCC3)c12 (nonaromatic ring conformer: 117.04774268231422 kcal/mol)

>  <smiles>  (19) 
CCOCCOCCNc1c2ccccc2[n+](C)c2cccc(OCC[N+]3(C)CCCCC3)c12

>  <score_type>  (19) 
oracle

>  <origin>  (19) 
adg

>  <m_score__min__energy>  (19) 
-9

>  <m_primary>  (19) 
energy

$$$$
19:0
     RDKit          3D

 66 68  0  0  0  0  0  0  0  0999 V2000
    0.5030   22.1830  -35.6700 C   0  0  0  0  0  0  0  0  0  0  0  0
    0.2070   20.9070  -34.8650 C   0  0  0  0  0  0  0  0  0  0  0  0
    1.3490   20.5530  -33.9030 C   0  0  0  0  0  0  0  0  0  0  0  0
   -1.0980   20.9570  -34.1710 N   0  0  0  0  0  0  0  0  0  0  0  0
   -1.0600   21.5180  -32.8060 C   0  0  0  0  0  0  0  0  0  0  0  0
   -2.4710   21.9030  -32.3600 C   0  0  0  0  0  0  0  0  0  0  0  0
   -3.4650   21.5240  -33.3650 N   0  0  0  0  0  0  0  0  0  0  0  0
   -4.6570   20.8210  -32.9820 C   0  0  0  0  0  0  0  0  0  0  0  0
   -5.7120   21.5450  -32.3940 C   0  0  0  0  0  0  0  0  0  0  0  0
   -5.5260   22.8830  -31.9780 C   0  0  0  0  0  0  0  0  0  0  0  0
   -6.5720   23.6050  -31.4120 C   0  0  0  0  0  0  0  0  0  0  0  0
   -7.8240   23.0220  -31.2710 C   0  0  0  0  0  0  0  0  0  0  0  0
   -8.0370   21.7090  -31.6880 C   0  0  0  0  0  0  0  0  0  0  0  0
   -6.9830   20.9320  -32.2360 C   0  0  0  0  0  0  0  0  0  0  0  0
   -7.1820   19.6330  -32.6600 N   0  0  0  0  0  0  0  0  0  0  0  0
   -8.4420   18.9290  -32.3290 C   0  0  0  0  0  0  0  0  0  0  0  0
   -6.1950   18.9740  -33.3660 C   0  0  0  0  0  0  0  0  0  0  0  0
   -6.4840   17.8090  -34.1180 C   0  0  0  0  0  0  0  0  0  0  0  0
   -5.4790   17.1220  -34.7860 C   0  0  0  0  0  0  0  0  0  0  0  0
   -4.1550   17.5080  -34.6400 C   0  0  0  0  0  0  0  0  0  0  0  0
   -3.8120   18.6280  -33.8650 C   0  0  0  0  0  0  0  0  0  0  0  0
   -2.4200   18.7920  -33.4770 N   0  0  0  0  0  0  0  0  0  0  0  0
   -1.9140   17.6390  -32.7050 C   0  0  0  0  0  0  0  0  0  0  0  0
   -0.3740   17.6310  -32.6190 C   0  0  0  0  0  0  0  0  0  0  0  0
    0.2700   17.0660  -33.8940 C   0  0  0  0  0  0  0  0  0  0  0  0
   -0.5610   17.3220  -35.0910 N   0  0  0  0  0  0  0  0  0  0  0  0
    0.2690   17.8840  -36.1700 C   0  0  0  0  0  0  0  0  0  0  0  0
   -1.2090   16.0870  -35.5650 C   0  0  0  0  0  0  0  0  0  0  0  0
   -4.8640   19.4790  -33.3860 C   0  0  0  0  0  0  0  0  0  0  0  0
    0.6963   23.0163  -34.9784 H   0  0  0  0  0  0  0  0  0  0  0  0
    1.3872   22.0199  -36.3038 H   0  0  0  0  0  0  0  0  0  0  0  0
   -0.3627   22.4258  -36.3038 H   0  0  0  0  0  0  0  0  0  0  0  0
    0.1372   20.0928  -35.6014 H   0  0  0  0  0  0  0  0  0  0  0  0
    1.0009   20.6609  -32.8651 H   0  0  0  0  0  0  0  0  0  0  0  0
    1.6664   19.5143  -34.0771 H   0  0  0  0  0  0  0  0  0  0  0  0
    2.1983   21.2300  -34.0771 H   0  0  0  0  0  0  0  0  0  0  0  0
   -1.7570   21.5360  -34.7500 H   0  0  0  0  0  0  0  0  0  0  0  0
   -0.6516   20.7664  -32.1144 H   0  0  0  0  0  0  0  0  0  0  0  0
   -0.4224   22.4143  -32.8013 H   0  0  0  0  0  0  0  0  0  0  0  0
   -2.7016   21.3888  -31.4153 H   0  0  0  0  0  0  0  0  0  0  0  0
   -2.5088   22.9942  -32.2266 H   0  0  0  0  0  0  0  0  0  0  0  0
   -3.2420   21.6100  -34.3840 H   0  0  0  0  0  0  0  0  0  0  0  0
   -4.5424   23.3592  -32.1033 H   0  0  0  0  0  0  0  0  0  0  0  0
   -6.4067   24.6392  -31.0758 H   0  0  0  0  0  0  0  0  0  0  0  0
   -8.6504   23.5979  -30.8289 H   0  0  0  0  0  0  0  0  0  0  0  0
   -9.0397   21.2672  -31.5907 H   0  0  0  0  0  0  0  0  0  0  0  0
   -8.5516   18.8678  -31.2362 H   0  0  0  0  0  0  0  0  0  0  0  0
   -9.2933   19.4822  -32.7525 H   0  0  0  0  0  0  0  0  0  0  0  0
   -8.4171   17.9141  -32.7525 H   0  0  0  0  0  0  0  0  0  0  0  0
   -7.5199   17.4431  -34.1737 H   0  0  0  0  0  0  0  0  0  0  0  0
   -5.7337   16.2694  -35.4327 H   0  0  0  0  0  0  0  0  0  0  0  0
   -3.3629   16.9293  -35.1378 H   0  0  0  0  0  0  0  0  0  0  0  0
   -1.8400   18.9020  -34.3430 H   0  0  0  0  0  0  0  0  0  0  0  0
   -2.2540   19.6240  -32.8760 H   0  0  0  0  0  0  0  0  0  0  0  0
   -2.3262   17.6856  -31.6862 H   0  0  0  0  0  0  0  0  0  0  0  0
   -2.2298   16.7203  -33.2209 H   0  0  0  0  0  0  0  0  0  0  0  0
   -0.0212   18.6621  -32.4697 H   0  0  0  0  0  0  0  0  0  0  0  0
   -0.0838   16.9856  -31.7768 H   0  0  0  0  0  0  0  0  0  0  0  0
    1.2530   17.5388  -34.0356 H   0  0  0  0  0  0  0  0  0  0  0  0
    0.3679   15.9771  -33.7731 H   0  0  0  0  0  0  0  0  0  0  0  0
    1.1048   18.4499  -35.7328 H   0  0  0  0  0  0  0  0  0  0  0  0
    0.6646   17.0672  -36.7916 H   0  0  0  0  0  0  0  0  0  0  0  0
   -0.3425   18.5546  -36.7916 H   0  0  0  0  0  0  0  0  0  0  0  0
   -1.5254   15.4841  -34.7011 H   0  0  0  0  0  0  0  0  0  0  0  0
   -2.0881   16.3446  -36.1740 H   0  0  0  0  0  0  0  0  0  0  0  0
   -0.4975   15.5100  -36.1740 H   0  0  0  0  0  0  0  0  0  0  0  0
  1  2  1  0
  2  3  1  0
  2  4  1  0
  4  5  1  0
  5  6  1  0
  6  7  1  0
  7  8  1  0
  8  9  2  0
  9 10  1  0
 10 11  2  0
 11 12  1  0
 12 13  2  0
 13 14  1  0
 14 15  2  0
 15 16  1  0
 15 17  1  0
 17 18  2  0
 18 19  1  0
 19 20  2  0
 20 21  1  0
 21 22  1  0
 22 23  1  0
 23 24  1  0
 24 25  1  0
 25 26  1  0
 26 27  1  0
 26 28  1  0
 21 29  2  0
 29  8  1  0
 14  9  1  0
 29 17  1  0
  1 30  1  0
  1 31  1  0
  1 32  1  0
  2 33  1  0
  3 34  1  0
  3 35  1  0
  3 36  1  0
  4 37  1  0
  5 38  1  0
  5 39  1  0
  6 40  1  0
  6 41  1  0
  7 42  1  0
 10 43  1  0
 11 44  1  0
 12 45  1  0
 13 46  1  0
 16 47  1  0
 16 48  1  0
 16 49  1  0
 18 50  1  0
 19 51  1  0
 20 52  1  0
 22 53  1  0
 22 54  1  0
 23 55  1  0
 23 56  1  0
 24 57  1  0
 24 58  1  0
 25 59  1  0
 25 60  1  0
 27 61  1  0
 27 62  1  0
 27 63  1  0
 28 64  1  0
 28 65  1  0
 28 66  1  0
M  CHG  2  15   1  22   1
M  END
>  <UniqueID>  (20) 
20

>  <SMILES>  (20) 
CC(C)NCCNc1c2ccccc2[n+](C)c2cccc([NH2+]CCCN(C)C)c12

>  <Energy>  (20) 
103.00989256820348

>  <Genealogy>  (20) 
CC(C)NCCNc1c2ccccc2[n+](C)c2cccc([NH2+]CCCN(C)C)c12 (protonated)
CC(C)NCCNc1c2ccccc2[n+](C)c2cccc([NH2+]CCCN(C)C)c12 (3D coordinates assigned)
CC(C)NCCNc1c2ccccc2[n+](C)c2cccc([NH2+]CCCN(C)C)c12 (optimized conformer: 103.00989256820348 kcal/mol)

>  <smiles>  (20) 
CC(C)NCCNc1c2ccccc2[n+](C)c2cccc(NCCCN(C)C)c12

>  <score_type>  (20) 
oracle

>  <origin>  (20) 
adg

>  <m_score__min__energy>  (20) 
-7.8899999999999997

>  <m_primary>  (20) 
energy

$$$$
20:0
     RDKit          3D

 75 78  0  0  0  0  0  0  0  0999 V2000
   -1.7860   22.1190  -29.9610 C   0  0  0  0  0  0  0  0  0  0  0  0
   -2.4390   23.4880  -29.7670 C   0  0  0  0  0  0  0  0  0  0  0  0
   -3.9170   23.4180  -29.8590 N   0  0  0  0  0  0  0  0  0  0  0  0
   -4.5290   23.0650  -28.5580 C   0  0  0  0  0  0  0  0  0  0  0  0
   -4.1600   24.1010  -27.5010 C   0  0  0  0  0  0  0  0  0  0  0  0
   -4.5450   24.6170  -30.4670 C   0  0  0  0  0  0  0  0  0  0  0  0
   -5.9230   24.3530  -31.1100 C   0  0  0  0  0  0  0  0  0  0  0  0
   -5.7800   23.5830  -32.3460 N   0  0  0  0  0  0  0  0  0  0  0  0
   -5.8270   22.1460  -32.3780 C   0  0  0  0  0  0  0  0  0  0  0  0
   -4.6790   21.4000  -32.6500 C   0  0  0  0  0  0  0  0  0  0  0  0
   -4.7390   20.0220  -32.7480 C   0  0  0  0  0  0  0  0  0  0  0  0
   -5.8760   19.3200  -32.4400 N   0  0  0  0  0  0  0  0  0  0  0  0
   -5.8100   17.8660  -32.2200 C   0  0  0  0  0  0  0  0  0  0  0  0
   -7.0580   20.0200  -32.2670 C   0  0  0  0  0  0  0  0  0  0  0  0
   -8.3050   19.3570  -32.1540 C   0  0  0  0  0  0  0  0  0  0  0  0
   -9.4820   20.0730  -31.9380 C   0  0  0  0  0  0  0  0  0  0  0  0
   -9.4520   21.4600  -31.8370 C   0  0  0  0  0  0  0  0  0  0  0  0
   -8.2480   22.1470  -31.9750 C   0  0  0  0  0  0  0  0  0  0  0  0
   -7.0470   21.4510  -32.2140 C   0  0  0  0  0  0  0  0  0  0  0  0
   -3.4290   19.5480  -33.2160 C   0  0  0  0  0  0  0  0  0  0  0  0
   -3.0160   18.3000  -33.6970 C   0  0  0  0  0  0  0  0  0  0  0  0
   -1.6940   18.1490  -34.1790 C   0  0  0  0  0  0  0  0  0  0  0  0
   -1.2190   16.9150  -34.6510 O   0  0  0  0  0  0  0  0  0  0  0  0
   -2.0370   15.8910  -35.2080 C   0  0  0  0  0  0  0  0  0  0  0  0
   -0.8220   19.2690  -34.2040 C   0  0  0  0  0  0  0  0  0  0  0  0
    0.5190   19.1470  -34.7250 N   0  0  0  0  0  0  0  0  0  0  0  0
    1.4820   19.7290  -33.7780 C   0  0  0  0  0  0  0  0  0  0  0  0
    1.8830   21.1470  -34.2100 C   0  0  0  0  0  0  0  0  0  0  0  0
    1.5130   21.3870  -35.6220 N   0  0  0  0  0  0  0  0  0  0  0  0
    0.6660   22.5850  -35.7320 C   0  0  0  0  0  0  0  0  0  0  0  0
    2.7120   21.5600  -36.4610 C   0  0  0  0  0  0  0  0  0  0  0  0
   -1.2990   20.5330  -33.7970 C   0  0  0  0  0  0  0  0  0  0  0  0
   -2.6010   20.6470  -33.3190 C   0  0  0  0  0  0  0  0  0  0  0  0
   -3.2990   21.9120  -32.9440 C   0  0  0  0  0  0  0  0  0  0  0  0
   -1.5728   21.6720  -28.9788 H   0  0  0  0  0  0  0  0  0  0  0  0
   -2.4684   21.4634  -30.5219 H   0  0  0  0  0  0  0  0  0  0  0  0
   -0.8471   22.2368  -30.5219 H   0  0  0  0  0  0  0  0  0  0  0  0
   -2.1631   23.8754  -28.7751 H   0  0  0  0  0  0  0  0  0  0  0  0
   -2.0804   24.1513  -30.5679 H   0  0  0  0  0  0  0  0  0  0  0  0
   -5.6230   23.0330  -28.6684 H   0  0  0  0  0  0  0  0  0  0  0  0
   -4.1533   22.0809  -28.2411 H   0  0  0  0  0  0  0  0  0  0  0  0
   -4.3124   23.6730  -26.4992 H   0  0  0  0  0  0  0  0  0  0  0  0
   -3.1047   24.3872  -27.6208 H   0  0  0  0  0  0  0  0  0  0  0  0
   -4.7968   24.9899  -27.6208 H   0  0  0  0  0  0  0  0  0  0  0  0
   -4.6710   25.3763  -29.6811 H   0  0  0  0  0  0  0  0  0  0  0  0
   -3.8770   24.9473  -31.2761 H   0  0  0  0  0  0  0  0  0  0  0  0
   -6.5486   23.7880  -30.4033 H   0  0  0  0  0  0  0  0  0  0  0  0
   -6.3921   25.3190  -31.3483 H   0  0  0  0  0  0  0  0  0  0  0  0
   -5.8060   24.1030  -33.2520 H   0  0  0  0  0  0  0  0  0  0  0  0
   -5.8006   17.6587  -31.1398 H   0  0  0  0  0  0  0  0  0  0  0  0
   -6.6873   17.3857  -32.6779 H   0  0  0  0  0  0  0  0  0  0  0  0
   -4.8928   17.4671  -32.6779 H   0  0  0  0  0  0  0  0  0  0  0  0
   -8.3453   18.2609  -32.2379 H   0  0  0  0  0  0  0  0  0  0  0  0
  -10.4390   19.5383  -31.8470 H   0  0  0  0  0  0  0  0  0  0  0  0
  -10.3820   22.0161  -31.6476 H   0  0  0  0  0  0  0  0  0  0  0  0
   -8.2351   23.2441  -31.8965 H   0  0  0  0  0  0  0  0  0  0  0  0
   -3.7106   17.4470  -33.7003 H   0  0  0  0  0  0  0  0  0  0  0  0
   -2.5008   15.3104  -34.3969 H   0  0  0  0  0  0  0  0  0  0  0  0
   -2.8228   16.3464  -35.8287 H   0  0  0  0  0  0  0  0  0  0  0  0
   -1.4193   15.2252  -35.8287 H   0  0  0  0  0  0  0  0  0  0  0  0
    0.7460   18.1360  -34.8820 H   0  0  0  0  0  0  0  0  0  0  0  0
    0.5870   19.6330  -35.6500 H   0  0  0  0  0  0  0  0  0  0  0  0
    1.0239   19.7724  -32.7789 H   0  0  0  0  0  0  0  0  0  0  0  0
    2.3830   19.0982  -33.7592 H   0  0  0  0  0  0  0  0  0  0  0  0
    1.3661   21.8788  -33.5718 H   0  0  0  0  0  0  0  0  0  0  0  0
    2.9729   21.2535  -34.1067 H   0  0  0  0  0  0  0  0  0  0  0  0
    0.4102   22.9469  -34.7252 H   0  0  0  0  0  0  0  0  0  0  0  0
    1.2107   23.3704  -36.2765 H   0  0  0  0  0  0  0  0  0  0  0  0
   -0.2561   22.3334  -36.2765 H   0  0  0  0  0  0  0  0  0  0  0  0
    3.5948   21.6874  -35.8172 H   0  0  0  0  0  0  0  0  0  0  0  0
    2.8464   20.6719  -37.0961 H   0  0  0  0  0  0  0  0  0  0  0  0
    2.5899   22.4498  -37.0961 H   0  0  0  0  0  0  0  0  0  0  0  0
   -0.6490   21.4184  -33.8569 H   0  0  0  0  0  0  0  0  0  0  0  0
   -2.8433   22.3776  -32.0577 H   0  0  0  0  0  0  0  0  0  0  0  0
   -3.2605   22.6970  -33.7136 H   0  0  0  0  0  0  0  0  0  0  0  0
  1  2  1  0
  2  3  1  0
  3  4  1  0
  4  5  1  0
  3  6  1  0
  6  7  1  0
  7  8  1  0
  8  9  1  0
  9 10  2  0
 10 11  1  0
 11 12  2  0
 12 13  1  0
 12 14  1  0
 14 15  2  0
 15 16  1  0
 16 17  2  0
 17 18  1  0
 18 19  2  0
 11 20  1  0
 20 21  2  0
 21 22  1  0
 22 23  1  0
 23 24  1  0
 22 25  2  0
 25 26  1  0
 26 27  1  0
 27 28  1  0
 28 29  1  0
 29 30  1  0
 29 31  1  0
 25 32  1  0
 32 33  2  0
 33 34  1  0
 19  9  1  0
 33 20  1  0
 34 10  1  0
 19 14  1  0
  1 35  1  0
  1 36  1  0
  1 37  1  0
  2 38  1  0
  2 39  1  0
  4 40  1  0
  4 41  1  0
  5 42  1  0
  5 43  1  0
  5 44  1  0
  6 45  1  0
  6 46  1  0
  7 47  1  0
  7 48  1  0
  8 49  1  0
 13 50  1  0
 13 51  1  0
 13 52  1  0
 15 53  1  0
 16 54  1  0
 17 55  1  0
 18 56  1  0
 21 57  1  0
 24 58  1  0
 24 59  1  0
 24 60  1  0
 26 61  1  0
 26 62  1  0
 27 63  1  0
 27 64  1  0
 28 65  1  0
 28 66  1  0
 30 67  1  0
 30 68  1  0
 30 69  1  0
 31 70  1  0
 31 71  1  0
 31 72  1  0
 32 73  1  0
 34 74  1  0
 34 75  1  0
M  CHG  2  12   1  26   1
M  END
>  <UniqueID>  (21) 
21

>  <SMILES>  (21) 
CCN(CC)CCNc1c2c([n+](C)c3ccccc13)-c1cc(OC)c([NH2+]CCN(C)C)cc1C2

>  <Energy>  (21) 
117.78881865034995

>  <Genealogy>  (21) 
CCN(CC)CCNc1c2c([n+](C)c3ccccc13)-c1cc(OC)c([NH2+]CCN(C)C)cc1C2 (protonated)
CCN(CC)CCNc1c2c([n+](C)c3ccccc13)-c1cc(OC)c([NH2+]CCN(C)C)cc1C2 (3D coordinates assigned)
CCN(CC)CCNc1c2c([n+](C)c3ccccc13)-c1cc(OC)c([NH2+]CCN(C)C)cc1C2 (nonaromatic ring conformer: 117.78881865034995 kcal/mol)

>  <smiles>  (21) 
CCN(CC)CCNc1c2c([n+](C)c3ccccc13)-c1cc(OC)c(NCCN(C)C)cc1C2

>  <score_type>  (21) 
oracle

>  <origin>  (21) 
adg

>  <m_score__min__energy>  (21) 
-8.3000000000000007

>  <m_primary>  (21) 
energy

$$$$
21:0
     RDKit          3D

 86 89  0  0  0  0  0  0  0  0999 V2000
   -0.4960   25.8040  -36.8560 C   0  0  0  0  0  0  0  0  0  0  0  0
    0.9690   25.5480  -36.5210 C   0  0  0  0  0  0  0  0  0  0  0  0
    1.4220   24.3640  -37.1500 O   0  0  0  0  0  0  0  0  0  0  0  0
    1.8080   23.3840  -36.2020 C   0  0  0  0  0  0  0  0  0  0  0  0
    0.7170   22.3290  -36.0640 C   0  0  0  0  0  0  0  0  0  0  0  0
    0.3470   22.2060  -34.7040 O   0  0  0  0  0  0  0  0  0  0  0  0
    0.4410   20.8660  -34.2610 C   0  0  0  0  0  0  0  0  0  0  0  0
    0.1960   20.7920  -32.7570 C   0  0  0  0  0  0  0  0  0  0  0  0
   -1.1220   20.3350  -32.5390 O   0  0  0  0  0  0  0  0  0  0  0  0
   -2.0400   21.0260  -33.3610 C   0  0  0  0  0  0  0  0  0  0  0  0
   -3.3190   21.3730  -32.5880 C   0  0  0  0  0  0  0  0  0  0  0  0
   -4.4980   21.2770  -33.4530 N   0  0  0  0  0  0  0  0  0  0  0  0
   -5.6480   20.5250  -33.0380 C   0  0  0  0  0  0  0  0  0  0  0  0
   -5.6620   19.1340  -33.2550 C   0  0  0  0  0  0  0  0  0  0  0  0
   -4.5370   18.4700  -33.7950 C   0  0  0  0  0  0  0  0  0  0  0  0
   -4.5840   17.1110  -34.0870 C   0  0  0  0  0  0  0  0  0  0  0  0
   -5.7460   16.3890  -33.8540 C   0  0  0  0  0  0  0  0  0  0  0  0
   -6.8530   17.0090  -33.2780 C   0  0  0  0  0  0  0  0  0  0  0  0
   -6.8220   18.3870  -32.9350 C   0  0  0  0  0  0  0  0  0  0  0  0
   -7.8990   19.0040  -32.3370 N   0  0  0  0  0  0  0  0  0  0  0  0
   -8.9700   18.1850  -31.7240 C   0  0  0  0  0  0  0  0  0  0  0  0
   -7.9620   20.3820  -32.2750 C   0  0  0  0  0  0  0  0  0  0  0  0
   -9.1820   21.0360  -31.9790 C   0  0  0  0  0  0  0  0  0  0  0  0
   -9.2390   22.4150  -31.8310 C   0  0  0  0  0  0  0  0  0  0  0  0
   -8.0920   23.1790  -31.9630 C   0  0  0  0  0  0  0  0  0  0  0  0
   -6.8680   22.5850  -32.3040 C   0  0  0  0  0  0  0  0  0  0  0  0
   -5.6990   23.4170  -32.3230 N   0  0  0  0  0  0  0  0  0  0  0  0
   -5.0350   23.8390  -31.0860 C   0  0  0  0  0  0  0  0  0  0  0  0
   -5.0010   22.7310  -30.0240 C   0  0  0  0  0  0  0  0  0  0  0  0
   -4.0630   22.9120  -28.7960 C   0  0  0  0  0  0  0  0  0  0  0  0
   -2.6810   22.3090  -28.8160 N   0  0  0  0  0  0  0  0  0  0  0  0
   -1.8670   22.9280  -29.8980 C   0  0  0  0  0  0  0  0  0  0  0  0
   -2.7070   20.8230  -29.0300 C   0  0  0  0  0  0  0  0  0  0  0  0
   -2.9910   20.0480  -27.7370 C   0  0  0  0  0  0  0  0  0  0  0  0
   -1.8830   20.2810  -26.6930 C   0  0  0  0  0  0  0  0  0  0  0  0
   -1.0880   21.5670  -26.9640 C   0  0  0  0  0  0  0  0  0  0  0  0
   -2.0140   22.6650  -27.5050 C   0  0  0  0  0  0  0  0  0  0  0  0
   -6.8030   21.1750  -32.5310 C   0  0  0  0  0  0  0  0  0  0  0  0
   -1.0729   25.9048  -35.9248 H   0  0  0  0  0  0  0  0  0  0  0  0
   -0.5815   26.7307  -37.4424 H   0  0  0  0  0  0  0  0  0  0  0  0
   -0.8907   24.9612  -37.4424 H   0  0  0  0  0  0  0  0  0  0  0  0
    1.5740   26.3977  -36.8704 H   0  0  0  0  0  0  0  0  0  0  0  0
    1.0699   25.4329  -35.4317 H   0  0  0  0  0  0  0  0  0  0  0  0
    2.7393   22.9026  -36.5352 H   0  0  0  0  0  0  0  0  0  0  0  0
    1.9647   23.8688  -35.2271 H   0  0  0  0  0  0  0  0  0  0  0  0
   -0.1598   22.6291  -36.6565 H   0  0  0  0  0  0  0  0  0  0  0  0
    1.0942   21.3625  -36.4295 H   0  0  0  0  0  0  0  0  0  0  0  0
   -0.3119   20.2568  -34.7826 H   0  0  0  0  0  0  0  0  0  0  0  0
    1.4491   20.4844  -34.4805 H   0  0  0  0  0  0  0  0  0  0  0  0
    0.9114   20.0934  -32.2986 H   0  0  0  0  0  0  0  0  0  0  0  0
    0.3297   21.7856  -32.3043 H   0  0  0  0  0  0  0  0  0  0  0  0
   -1.5730   21.9554  -33.7191 H   0  0  0  0  0  0  0  0  0  0  0  0
   -2.3082   20.3775  -34.2081 H   0  0  0  0  0  0  0  0  0  0  0  0
   -3.4320   20.6731  -31.7469 H   0  0  0  0  0  0  0  0  0  0  0  0
   -3.2370   22.4067  -32.2209 H   0  0  0  0  0  0  0  0  0  0  0  0
   -4.6210   21.9400  -34.2530 H   0  0  0  0  0  0  0  0  0  0  0  0
   -3.6129   19.0351  -33.9866 H   0  0  0  0  0  0  0  0  0  0  0  0
   -3.6989   16.6077  -34.5032 H   0  0  0  0  0  0  0  0  0  0  0  0
   -5.7933   15.3239  -34.1249 H   0  0  0  0  0  0  0  0  0  0  0  0
   -7.7639   16.4229  -33.0862 H   0  0  0  0  0  0  0  0  0  0  0  0
   -8.8942   18.2430  -30.6282 H   0  0  0  0  0  0  0  0  0  0  0  0
   -9.9512   18.5653  -32.0443 H   0  0  0  0  0  0  0  0  0  0  0  0
   -8.8601   17.1384  -32.0443 H   0  0  0  0  0  0  0  0  0  0  0  0
  -10.1003   20.4414  -31.8643 H   0  0  0  0  0  0  0  0  0  0  0  0
  -10.1994   22.9027  -31.6079 H   0  0  0  0  0  0  0  0  0  0  0  0
   -8.1412   24.2655  -31.7984 H   0  0  0  0  0  0  0  0  0  0  0  0
   -5.3080   23.6950  -33.2500 H   0  0  0  0  0  0  0  0  0  0  0  0
   -4.0013   24.1307  -31.3234 H   0  0  0  0  0  0  0  0  0  0  0  0
   -5.6099   24.6798  -30.6706 H   0  0  0  0  0  0  0  0  0  0  0  0
   -6.0248   22.6193  -29.6376 H   0  0  0  0  0  0  0  0  0  0  0  0
   -4.5874   21.8606  -30.5544 H   0  0  0  0  0  0  0  0  0  0  0  0
   -3.9365   23.9946  -28.6481 H   0  0  0  0  0  0  0  0  0  0  0  0
   -4.5746   22.3533  -27.9984 H   0  0  0  0  0  0  0  0  0  0  0  0
   -1.0666   23.5367  -29.4521 H   0  0  0  0  0  0  0  0  0  0  0  0
   -1.4228   22.1374  -30.5207 H   0  0  0  0  0  0  0  0  0  0  0  0
   -2.5102   23.5673  -30.5207 H   0  0  0  0  0  0  0  0  0  0  0  0
   -3.4921   20.5859  -29.7630 H   0  0  0  0  0  0  0  0  0  0  0  0
   -1.7127   20.5198  -29.3898 H   0  0  0  0  0  0  0  0  0  0  0  0
   -3.9523   20.3841  -27.3211 H   0  0  0  0  0  0  0  0  0  0  0  0
   -3.0252   18.9746  -27.9748 H   0  0  0  0  0  0  0  0  0  0  0  0
   -2.3448   20.3538  -25.6973 H   0  0  0  0  0  0  0  0  0  0  0  0
   -1.1831   19.4343  -26.7503 H   0  0  0  0  0  0  0  0  0  0  0  0
   -0.6261   21.9117  -26.0271 H   0  0  0  0  0  0  0  0  0  0  0  0
   -0.3109   21.3547  -27.7131 H   0  0  0  0  0  0  0  0  0  0  0  0
   -2.7980   22.8571  -26.7577 H   0  0  0  0  0  0  0  0  0  0  0  0
   -1.3872   23.5491  -27.6936 H   0  0  0  0  0  0  0  0  0  0  0  0
  1  2  1  0
  2  3  1  0
  3  4  1  0
  4  5  1  0
  5  6  1  0
  6  7  1  0
  7  8  1  0
  8  9  1  0
  9 10  1  0
 10 11  1  0
 11 12  1  0
 12 13  1  0
 13 14  2  0
 14 15  1  0
 15 16  2  0
 16 17  1  0
 17 18  2  0
 18 19  1  0
 19 20  2  0
 20 21  1  0
 20 22  1  0
 22 23  2  0
 23 24  1  0
 24 25  2  0
 25 26  1  0
 26 27  1  0
 27 28  1  0
 28 29  1  0
 29 30  1  0
 30 31  1  0
 31 32  1  0
 31 33  1  0
 33 34  1  0
 34 35  1  0
 35 36  1  0
 36 37  1  0
 26 38  2  0
 38 13  1  0
 19 14  1  0
 38 22  1  0
 37 31  1  0
  1 39  1  0
  1 40  1  0
  1 41  1  0
  2 42  1  0
  2 43  1  0
  4 44  1  0
  4 45  1  0
  5 46  1  0
  5 47  1  0
  7 48  1  0
  7 49  1  0
  8 50  1  0
  8 51  1  0
 10 52  1  0
 10 53  1  0
 11 54  1  0
 11 55  1  0
 12 56  1  0
 15 57  1  0
 16 58  1  0
 17 59  1  0
 18 60  1  0
 21 61  1  0
 21 62  1  0
 21 63  1  0
 23 64  1  0
 24 65  1  0
 25 66  1  0
 27 67  1  0
 28 68  1  0
 28 69  1  0
 29 70  1  0
 29 71  1  0
 30 72  1  0
 30 73  1  0
 32 74  1  0
 32 75  1  0
 32 76  1  0
 33 77  1  0
 33 78  1  0
 34 79  1  0
 34 80  1  0
 35 81  1  0
 35 82  1  0
 36 83  1  0
 36 84  1  0
 37 85  1  0
 37 86  1  0
M  CHG  2  20   1  31   1
M  END
>  <UniqueID>  (22) 
22

>  <SMILES>  (22) 
CCOCCOCCOCCNc1c2ccccc2[n+](C)c2cccc(NCCC[N+]3(C)CCCCC3)c12

>  <Energy>  (22) 
144.727632627607

>  <Genealogy>  (22) 
CCOCCOCCOCCNc1c2ccccc2[n+](C)c2cccc(NCCC[N+]3(C)CCCCC3)c12 (3D coordinates assigned)
CCOCCOCCOCCNc1c2ccccc2[n+](C)c2cccc(NCCC[N+]3(C)CCCCC3)c12 (nonaromatic ring conformer: 144.727632627607 kcal/mol)

>  <smiles>  (22) 
CCOCCOCCOCCNc1c2ccccc2[n+](C)c2cccc(NCCC[N+]3(C)CCCCC3)c12

>  <score_type>  (22) 
oracle

>  <origin>  (22) 
adg

>  <m_score__min__energy>  (22) 
-9.7699999999999996

>  <m_primary>  (22) 
energy

$$$$
22:0
     RDKit          3D

 58 61  0  0  0  0  0  0  0  0999 V2000
   -2.7540   20.9870  -28.5230 C   0  0  0  0  0  0  0  0  0  0  0  0
   -1.4370   20.4780  -29.0860 C   0  0  0  0  0  0  0  0  0  0  0  0
   -1.5090   20.4730  -30.4950 O   0  0  0  0  0  0  0  0  0  0  0  0
   -0.2410   20.7810  -31.0340 C   0  0  0  0  0  0  0  0  0  0  0  0
    0.0430   19.8710  -32.2280 C   0  0  0  0  0  0  0  0  0  0  0  0
   -1.1610   19.5490  -32.9000 O   0  0  0  0  0  0  0  0  0  0  0  0
   -1.5950   20.5770  -33.7780 C   0  0  0  0  0  0  0  0  0  0  0  0
   -3.0360   20.9810  -33.4520 C   0  0  0  0  0  0  0  0  0  0  0  0
   -3.4410   20.5380  -32.1080 N   0  0  0  0  0  0  0  0  0  0  0  0
   -4.8810   20.4040  -32.0400 C   0  0  0  0  0  0  0  0  0  0  0  0
   -5.5440   19.2190  -32.4780 C   0  0  0  0  0  0  0  0  0  0  0  0
   -4.8170   18.0680  -32.8660 C   0  0  0  0  0  0  0  0  0  0  0  0
   -5.4680   16.9340  -33.3430 C   0  0  0  0  0  0  0  0  0  0  0  0
   -6.8510   16.9180  -33.4550 C   0  0  0  0  0  0  0  0  0  0  0  0
   -7.6010   18.0210  -33.0590 C   0  0  0  0  0  0  0  0  0  0  0  0
   -6.9790   19.1810  -32.5290 C   0  0  0  0  0  0  0  0  0  0  0  0
   -7.7290   20.2560  -32.0790 N   0  0  0  0  0  0  0  0  0  0  0  0
   -9.2040   20.1900  -32.0360 C   0  0  0  0  0  0  0  0  0  0  0  0
   -7.0720   21.3810  -31.6540 C   0  0  0  0  0  0  0  0  0  0  0  0
   -7.6520   22.5370  -31.2470 N   0  0  0  0  0  0  0  0  0  0  0  0
   -6.6360   23.3340  -30.8740 C   0  0  0  0  0  0  0  0  0  0  0  0
   -6.7510   24.6200  -30.3520 C   0  0  0  0  0  0  0  0  0  0  0  0
   -5.5790   25.2890  -29.9710 C   0  0  0  0  0  0  0  0  0  0  0  0
   -4.3140   24.6590  -30.1000 C   0  0  0  0  0  0  0  0  0  0  0  0
   -3.1230   25.2850  -29.7040 O   0  0  0  0  0  0  0  0  0  0  0  0
   -2.2270   24.7650  -28.7280 C   0  0  0  0  0  0  0  0  0  0  0  0
   -4.2330   23.3570  -30.6330 C   0  0  0  0  0  0  0  0  0  0  0  0
   -5.4140   22.7180  -31.0420 C   0  0  0  0  0  0  0  0  0  0  0  0
   -5.6910   21.4590  -31.5820 C   0  0  0  0  0  0  0  0  0  0  0  0
   -2.7134   20.9713  -27.4239 H   0  0  0  0  0  0  0  0  0  0  0  0
   -2.9271   22.0168  -28.8689 H   0  0  0  0  0  0  0  0  0  0  0  0
   -3.5746   20.3413  -28.8689 H   0  0  0  0  0  0  0  0  0  0  0  0
   -0.6183   21.1369  -28.7613 H   0  0  0  0  0  0  0  0  0  0  0  0
   -1.2472   19.4579  -28.7208 H   0  0  0  0  0  0  0  0  0  0  0  0
   -0.2280   21.8307  -31.3625 H   0  0  0  0  0  0  0  0  0  0  0  0
    0.5302   20.6262  -30.2651 H   0  0  0  0  0  0  0  0  0  0  0  0
    0.7200   20.3874  -32.9245 H   0  0  0  0  0  0  0  0  0  0  0  0
    0.5093   18.9427  -31.8664 H   0  0  0  0  0  0  0  0  0  0  0  0
   -0.9383   21.4522  -33.6648 H   0  0  0  0  0  0  0  0  0  0  0  0
   -1.5528   20.2056  -34.8125 H   0  0  0  0  0  0  0  0  0  0  0  0
   -3.1185   22.0766  -33.5049 H   0  0  0  0  0  0  0  0  0  0  0  0
   -3.6991   20.4968  -34.1841 H   0  0  0  0  0  0  0  0  0  0  0  0
   -2.9780   19.6410  -31.8510 H   0  0  0  0  0  0  0  0  0  0  0  0
   -3.1050   21.2050  -31.3790 H   0  0  0  0  0  0  0  0  0  0  0  0
   -3.7197   18.0698  -32.7893 H   0  0  0  0  0  0  0  0  0  0  0  0
   -4.8843   16.0476  -33.6321 H   0  0  0  0  0  0  0  0  0  0  0  0
   -7.3570   16.0287  -33.8589 H   0  0  0  0  0  0  0  0  0  0  0  0
   -8.6961   17.9932  -33.1586 H   0  0  0  0  0  0  0  0  0  0  0  0
   -9.5400   20.1750  -30.9887 H   0  0  0  0  0  0  0  0  0  0  0  0
   -9.6254   21.0702  -32.5437 H   0  0  0  0  0  0  0  0  0  0  0  0
   -9.5451   19.2757  -32.5437 H   0  0  0  0  0  0  0  0  0  0  0  0
   -8.6610   22.8010  -31.2240 H   0  0  0  0  0  0  0  0  0  0  0  0
   -7.7353   25.0984  -30.2415 H   0  0  0  0  0  0  0  0  0  0  0  0
   -5.6407   26.3109  -29.5687 H   0  0  0  0  0  0  0  0  0  0  0  0
   -2.6113   24.9880  -27.7217 H   0  0  0  0  0  0  0  0  0  0  0  0
   -2.1395   23.6758  -28.8540 H   0  0  0  0  0  0  0  0  0  0  0  0
   -1.2378   25.2294  -28.8540 H   0  0  0  0  0  0  0  0  0  0  0  0
   -3.2612   22.8503  -30.7269 H   0  0  0  0  0  0  0  0  0  0  0  0
  1  2  1  0
  2  3  1  0
  3  4  1  0
  4  5  1  0
  5  6  1  0
  6  7  1  0
  7  8  1  0
  8  9  1  0
  9 10  1  0
 10 11  2  0
 11 12  1  0
 12 13  2  0
 13 14  1  0
 14 15  2  0
 15 16  1  0
 16 17  2  0
 17 18  1  0
 17 19  1  0
 19 20  1  0
 20 21  1  0
 21 22  2  0
 22 23  1  0
 23 24  2  0
 24 25  1  0
 25 26  1  0
 24 27  1  0
 27 28  2  0
 28 29  1  0
 29 10  1  0
 16 11  1  0
 29 19  2  0
 28 21  1  0
  1 30  1  0
  1 31  1  0
  1 32  1  0
  2 33  1  0
  2 34  1  0
  4 35  1  0
  4 36  1  0
  5 37  1  0
  5 38  1  0
  7 39  1  0
  7 40  1  0
  8 41  1  0
  8 42  1  0
  9 43  1  0
  9 44  1  0
 12 45  1  0
 13 46  1  0
 14 47  1  0
 15 48  1  0
 18 49  1  0
 18 50  1  0
 18 51  1  0
 20 52  1  0
 22 53  1  0
 23 54  1  0
 26 55  1  0
 26 56  1  0
 26 57  1  0
 27 58  1  0
M  CHG  2   9   1  17   1
M  END
>  <UniqueID>  (23) 
23

>  <SMILES>  (23) 
CCOCCOCC[NH2+]c1c2ccccc2[n+](C)c2[nH]c3ccc(OC)cc3c12

>  <Energy>  (23) 
116.08512413116877

>  <Genealogy>  (23) 
CCOCCOCC[NH2+]c1c2ccccc2[n+](C)c2[nH]c3ccc(OC)cc3c12 (protonated)
CCOCCOCC[NH2+]c1c2ccccc2[n+](C)c2[nH]c3ccc(OC)cc3c12 (3D coordinates assigned)
CCOCCOCC[NH2+]c1c2ccccc2[n+](C)c2[nH]c3ccc(OC)cc3c12 (optimized conformer: 116.08512413116877 kcal/mol)

>  <smiles>  (23) 
CCOCCOCCNc1c2ccccc2[n+](C)c2[nH]c3ccc(OC)cc3c12

>  <score_type>  (23) 
oracle

>  <origin>  (23) 
adg

>  <m_score__min__energy>  (23) 
-7.9299999999999997

>  <m_primary>  (23) 
energy

$$$$
23:0
     RDKit          3D

 52 52  0  0  0  0  0  0  0  0999 V2000
   -0.1620   22.4300  -26.9520 C   0  0  0  0  0  0  0  0  0  0  0  0
    0.9120   23.1480  -27.7680 C   0  0  0  0  0  0  0  0  0  0  0  0
    0.6090   24.5950  -27.8810 N   0  0  0  0  0  0  0  0  0  0  0  0
    1.7160   25.3810  -27.3030 C   0  0  0  0  0  0  0  0  0  0  0  0
   -0.6660   24.9220  -27.2010 C   0  0  0  0  0  0  0  0  0  0  0  0
   -1.4700   25.9640  -27.9830 C   0  0  0  0  0  0  0  0  0  0  0  0
   -1.6110   25.5490  -29.3270 O   0  0  0  0  0  0  0  0  0  0  0  0
   -2.0220   24.1980  -29.3690 C   0  0  0  0  0  0  0  0  0  0  0  0
   -3.5440   24.1230  -29.3170 C   0  0  0  0  0  0  0  0  0  0  0  0
   -4.0840   24.7760  -30.4410 O   0  0  0  0  0  0  0  0  0  0  0  0
   -5.3900   24.3900  -30.5230 N   0  0  0  0  0  0  0  0  0  0  0  0
   -6.2130   25.4910  -30.0040 C   0  0  0  0  0  0  0  0  0  0  0  0
   -5.7060   24.1610  -31.9400 C   0  0  0  0  0  0  0  0  0  0  0  0
   -5.8590   22.6820  -32.2130 C   0  0  0  0  0  0  0  0  0  0  0  0
   -7.1510   22.1290  -32.1750 C   0  0  0  0  0  0  0  0  0  0  0  0
   -7.3430   20.7560  -32.3490 C   0  0  0  0  0  0  0  0  0  0  0  0
   -9.1090   20.0270  -32.3070 Br  0  0  0  0  0  0  0  0  0  0  0  0
   -6.2460   19.9170  -32.5420 C   0  0  0  0  0  0  0  0  0  0  0  0
   -4.9550   20.4480  -32.5610 C   0  0  0  0  0  0  0  0  0  0  0  0
   -4.7470   21.8240  -32.4080 C   0  0  0  0  0  0  0  0  0  0  0  0
   -3.4290   22.2950  -32.4310 O   0  0  0  0  0  0  0  0  0  0  0  0
   -2.3030   21.4500  -32.6650 C   0  0  0  0  0  0  0  0  0  0  0  0
   -1.2950   21.5940  -31.5300 C   0  0  0  0  0  0  0  0  0  0  0  0
   -1.9760   20.7960  -29.8970 Br  0  0  0  0  0  0  0  0  0  0  0  0
    0.0407   22.5655  -25.8794 H   0  0  0  0  0  0  0  0  0  0  0  0
   -1.1491   22.8505  -27.1946 H   0  0  0  0  0  0  0  0  0  0  0  0
   -0.1508   21.3571  -27.1946 H   0  0  0  0  0  0  0  0  0  0  0  0
    1.8859   23.0213  -27.2727 H   0  0  0  0  0  0  0  0  0  0  0  0
    0.9363   22.7133  -28.7782 H   0  0  0  0  0  0  0  0  0  0  0  0
    1.6598   25.3411  -26.2052 H   0  0  0  0  0  0  0  0  0  0  0  0
    2.6767   24.9616  -27.6365 H   0  0  0  0  0  0  0  0  0  0  0  0
    1.6367   26.4262  -27.6365 H   0  0  0  0  0  0  0  0  0  0  0  0
   -1.2660   24.0049  -27.1071 H   0  0  0  0  0  0  0  0  0  0  0  0
   -0.4309   25.3404  -26.2112 H   0  0  0  0  0  0  0  0  0  0  0  0
   -2.4655   26.0739  -27.5282 H   0  0  0  0  0  0  0  0  0  0  0  0
   -0.9411   26.9281  -27.9538 H   0  0  0  0  0  0  0  0  0  0  0  0
   -1.6646   23.7357  -30.3010 H   0  0  0  0  0  0  0  0  0  0  0  0
   -1.6007   23.6617  -28.5059 H   0  0  0  0  0  0  0  0  0  0  0  0
   -3.8596   23.0692  -29.3182 H   0  0  0  0  0  0  0  0  0  0  0  0
   -3.9044   24.6123  -28.4001 H   0  0  0  0  0  0  0  0  0  0  0  0
   -6.1990   25.4723  -28.9042 H   0  0  0  0  0  0  0  0  0  0  0  0
   -5.8087   26.4502  -30.3596 H   0  0  0  0  0  0  0  0  0  0  0  0
   -7.2474   25.3747  -30.3596 H   0  0  0  0  0  0  0  0  0  0  0  0
   -6.6461   24.6748  -32.1894 H   0  0  0  0  0  0  0  0  0  0  0  0
   -4.8850   24.5549  -32.5571 H   0  0  0  0  0  0  0  0  0  0  0  0
   -8.0190   22.7834  -32.0067 H   0  0  0  0  0  0  0  0  0  0  0  0
   -6.3980   18.8362  -32.6793 H   0  0  0  0  0  0  0  0  0  0  0  0
   -4.0928   19.7787  -32.6975 H   0  0  0  0  0  0  0  0  0  0  0  0
   -2.6388   20.4041  -32.7229 H   0  0  0  0  0  0  0  0  0  0  0  0
   -1.8240   21.7422  -33.6111 H   0  0  0  0  0  0  0  0  0  0  0  0
   -0.3585   21.0914  -31.8136 H   0  0  0  0  0  0  0  0  0  0  0  0
   -1.1164   22.6646  -31.3511 H   0  0  0  0  0  0  0  0  0  0  0  0
  1  2  1  0
  2  3  1  0
  3  4  1  0
  3  5  1  0
  5  6  1  0
  6  7  1  0
  7  8  1  0
  8  9  1  0
  9 10  1  0
 10 11  1  0
 11 12  1  0
 11 13  1  0
 13 14  1  0
 14 15  2  0
 15 16  1  0
 16 17  1  0
 16 18  2  0
 18 19  1  0
 19 20  2  0
 20 21  1  0
 21 22  1  0
 22 23  1  0
 23 24  1  0
 20 14  1  0
  1 25  1  0
  1 26  1  0
  1 27  1  0
  2 28  1  0
  2 29  1  0
  4 30  1  0
  4 31  1  0
  4 32  1  0
  5 33  1  0
  5 34  1  0
  6 35  1  0
  6 36  1  0
  8 37  1  0
  8 38  1  0
  9 39  1  0
  9 40  1  0
 12 41  1  0
 12 42  1  0
 12 43  1  0
 13 44  1  0
 13 45  1  0
 15 46  1  0
 18 47  1  0
 19 48  1  0
 22 49  1  0
 22 50  1  0
 23 51  1  0
 23 52  1  0
M  END
>  <UniqueID>  (24) 
24

>  <SMILES>  (24) 
CCN(C)CCOCCON(C)Cc1cc(Br)ccc1OCCBr

>  <Energy>  (24) 
43.92317882257786

>  <Genealogy>  (24) 
CCN(C)CCOCCON(C)Cc1cc(Br)ccc1OCCBr (3D coordinates assigned)
CCN(C)CCOCCON(C)Cc1cc(Br)ccc1OCCBr (optimized conformer: 43.92317882257786 kcal/mol)

>  <smiles>  (24) 
CCN(C)CCOCCON(C)Cc1cc(Br)ccc1OCCBr

>  <score_type>  (24) 
oracle

>  <origin>  (24) 
adg

>  <m_score__min__energy>  (24) 
-7.8099999999999996

>  <m_primary>  (24) 
energy

$$$$
24:0
     RDKit          3D

 26 26  0  0  0  0  0  0  0  0999 V2000
   -3.9240   22.0350  -32.6680 C   0  0  0  0  0  0  0  0  0  0  0  0
   -4.3090   22.5020  -31.2650 C   0  0  0  0  0  0  0  0  0  0  0  0
   -4.9860   23.8170  -31.3180 N   0  0  0  0  0  0  0  0  0  0  0  0
   -5.4260   24.2660  -29.9720 C   0  0  0  0  0  0  0  0  0  0  0  0
   -6.0970   25.6290  -30.0820 C   0  0  0  0  0  0  0  0  0  0  0  0
   -6.1140   23.7770  -32.2730 C   0  0  0  0  0  0  0  0  0  0  0  0
   -7.0680   22.7390  -31.8890 N   0  0  0  0  0  0  0  0  0  0  0  0
   -7.1340   21.4930  -32.3920 C   0  0  0  0  0  0  0  0  0  0  0  0
   -8.1500   20.8290  -31.7440 C   0  0  0  0  0  0  0  0  0  0  0  0
   -8.7140   19.0290  -32.0190 Br  0  0  0  0  0  0  0  0  0  0  0  0
   -8.6680   21.7400  -30.8450 C   0  0  0  0  0  0  0  0  0  0  0  0
   -7.9900   22.9000  -30.9510 N   0  0  0  0  0  0  0  0  0  0  0  0
   -3.2259   21.1882  -32.5939 H   0  0  0  0  0  0  0  0  0  0  0  0
   -4.8275   21.7190  -33.2101 H   0  0  0  0  0  0  0  0  0  0  0  0
   -3.4415   22.8616  -33.2101 H   0  0  0  0  0  0  0  0  0  0  0  0
   -4.9882   21.7643  -30.8127 H   0  0  0  0  0  0  0  0  0  0  0  0
   -3.3944   22.5995  -30.6617 H   0  0  0  0  0  0  0  0  0  0  0  0
   -6.1403   23.5386  -29.5588 H   0  0  0  0  0  0  0  0  0  0  0  0
   -4.5520   24.3416  -29.3084 H   0  0  0  0  0  0  0  0  0  0  0  0
   -6.2916   26.0243  -29.0741 H   0  0  0  0  0  0  0  0  0  0  0  0
   -5.4362   26.3202  -30.6257 H   0  0  0  0  0  0  0  0  0  0  0  0
   -7.0478   25.5268  -30.6257 H   0  0  0  0  0  0  0  0  0  0  0  0
   -6.6215   24.7529  -32.2760 H   0  0  0  0  0  0  0  0  0  0  0  0
   -5.7248   23.5511  -33.2767 H   0  0  0  0  0  0  0  0  0  0  0  0
   -6.4898   21.0785  -33.1815 H   0  0  0  0  0  0  0  0  0  0  0  0
   -9.5012   21.5494  -30.1526 H   0  0  0  0  0  0  0  0  0  0  0  0
  1  2  1  0
  2  3  1  0
  3  4  1  0
  4  5  1  0
  3  6  1  0
  6  7  1  0
  7  8  1  0
  8  9  2  0
  9 10  1  0
  9 11  1  0
 11 12  2  0
 12  7  1  0
  1 13  1  0
  1 14  1  0
  1 15  1  0
  2 16  1  0
  2 17  1  0
  4 18  1  0
  4 19  1  0
  5 20  1  0
  5 21  1  0
  5 22  1  0
  6 23  1  0
  6 24  1  0
  8 25  1  0
 11 26  1  0
M  END
>  <UniqueID>  (25) 
25

>  <SMILES>  (25) 
CCN(CC)Cn1cc(Br)cn1

>  <Energy>  (25) 
51.50271757524248

>  <Genealogy>  (25) 
CCN(CC)Cn1cc(Br)cn1 (3D coordinates assigned)
CCN(CC)Cn1cc(Br)cn1 (optimized conformer: 51.50271757524248 kcal/mol)

>  <smiles>  (25) 
CCN(CC)Cn1cc(Br)cn1

>  <score_type>  (25) 
oracle

>  <origin>  (25) 
adg

>  <m_score__min__energy>  (25) 
-5

>  <m_primary>  (25) 
energy

$$$$
