0:0
     RDKit          3D

 59 61  0  0  0  0  0  0  0  0999 V2000
   -6.1560   17.3800  -34.2650 C   0  0  0  0  0  0  0  0  0  0  0  0
   -6.0700   18.9040  -34.2170 C   0  0  0  0  0  0  0  0  0  0  0  0
   -5.5540   19.3600  -32.9050 N   0  0  0  0  0  0  0  0  0  0  0  0
   -4.1900   18.8320  -32.6570 C   0  0  0  0  0  0  0  0  0  0  0  0
   -3.2810   19.0690  -33.8750 C   0  0  0  0  0  0  0  0  0  0  0  0
   -2.4060   20.3290  -33.7230 C   0  0  0  0  0  0  0  0  0  0  0  0
   -2.8720   21.2190  -32.6350 N   0  0  0  0  0  0  0  0  0  0  0  0
   -4.1140   21.9500  -32.9590 C   0  0  0  0  0  0  0  0  0  0  0  0
   -4.5670   22.8430  -31.8230 C   0  0  0  0  0  0  0  0  0  0  0  0
   -5.7640   23.5670  -31.9660 C   0  0  0  0  0  0  0  0  0  0  0  0
   -6.2080   24.4190  -30.9540 C   0  0  0  0  0  0  0  0  0  0  0  0
   -5.4580   24.5670  -29.7880 C   0  0  0  0  0  0  0  0  0  0  0  0
   -4.2610   23.8670  -29.6360 C   0  0  0  0  0  0  0  0  0  0  0  0
   -3.8030   23.0050  -30.6390 C   0  0  0  0  0  0  0  0  0  0  0  0
   -2.5650   22.3840  -30.4450 O   0  0  0  0  0  0  0  0  0  0  0  0
   -1.7980   22.5210  -29.2520 C   0  0  0  0  0  0  0  0  0  0  0  0
   -1.8030   21.2170  -28.5080 C   0  0  0  0  0  0  0  0  0  0  0  0
   -0.7270   20.3220  -28.6380 C   0  0  0  0  0  0  0  0  0  0  0  0
   -0.7250   19.1160  -27.9310 C   0  0  0  0  0  0  0  0  0  0  0  0
   -1.7930   18.7950  -27.0890 C   0  0  0  0  0  0  0  0  0  0  0  0
   -2.8600   19.6860  -26.9430 C   0  0  0  0  0  0  0  0  0  0  0  0
   -2.8660   20.8960  -27.6440 C   0  0  0  0  0  0  0  0  0  0  0  0
   -3.9060   21.7530  -27.4800 F   0  0  0  0  0  0  0  0  0  0  0  0
   -6.4850   19.0120  -31.8000 C   0  0  0  0  0  0  0  0  0  0  0  0
   -7.6210   19.9850  -31.7640 C   0  0  0  0  0  0  0  0  0  0  0  0
   -7.6450   21.1880  -31.0710 C   0  0  0  0  0  0  0  0  0  0  0  0
   -8.8670   21.8610  -31.1830 C   0  0  0  0  0  0  0  0  0  0  0  0
   -9.8060   21.1950  -31.9570 C   0  0  0  0  0  0  0  0  0  0  0  0
   -9.1210   19.7540  -32.4900 S   0  0  0  0  0  0  0  0  0  0  0  0
   -6.1785   16.9816  -33.2399 H   0  0  0  0  0  0  0  0  0  0  0  0
   -7.0724   17.0810  -34.7948 H   0  0  0  0  0  0  0  0  0  0  0  0
   -5.2790   16.9798  -34.7948 H   0  0  0  0  0  0  0  0  0  0  0  0
   -5.3937   19.2524  -35.0115 H   0  0  0  0  0  0  0  0  0  0  0  0
   -7.0781   19.3192  -34.3634 H   0  0  0  0  0  0  0  0  0  0  0  0
   -3.7600   19.3413  -31.7819 H   0  0  0  0  0  0  0  0  0  0  0  0
   -4.2594   17.7494  -32.4751 H   0  0  0  0  0  0  0  0  0  0  0  0
   -2.6235   18.1960  -33.9995 H   0  0  0  0  0  0  0  0  0  0  0  0
   -3.9289   19.2161  -34.7517 H   0  0  0  0  0  0  0  0  0  0  0  0
   -1.3740   20.0169  -33.5050 H   0  0  0  0  0  0  0  0  0  0  0  0
   -2.4691   20.8936  -34.6649 H   0  0  0  0  0  0  0  0  0  0  0  0
   -2.9920   20.6860  -31.7450 H   0  0  0  0  0  0  0  0  0  0  0  0
   -2.1250   21.9330  -32.4570 H   0  0  0  0  0  0  0  0  0  0  0  0
   -3.9368   22.5718  -33.8489 H   0  0  0  0  0  0  0  0  0  0  0  0
   -4.9049   21.2071  -33.1396 H   0  0  0  0  0  0  0  0  0  0  0  0
   -6.3572   23.4605  -32.8862 H   0  0  0  0  0  0  0  0  0  0  0  0
   -7.1499   24.9740  -31.0762 H   0  0  0  0  0  0  0  0  0  0  0  0
   -5.8100   25.2354  -28.9884 H   0  0  0  0  0  0  0  0  0  0  0  0
   -3.6701   23.9940  -28.7169 H   0  0  0  0  0  0  0  0  0  0  0  0
   -0.7638   22.7937  -29.5091 H   0  0  0  0  0  0  0  0  0  0  0  0
   -2.2356   23.3080  -28.6203 H   0  0  0  0  0  0  0  0  0  0  0  0
    0.1166   20.5714  -29.2984 H   0  0  0  0  0  0  0  0  0  0  0  0
    0.1188   18.4185  -28.0377 H   0  0  0  0  0  0  0  0  0  0  0  0
   -1.7940   17.8412  -26.5411 H   0  0  0  0  0  0  0  0  0  0  0  0
   -3.6971   19.4348  -26.2750 H   0  0  0  0  0  0  0  0  0  0  0  0
   -6.8789   17.9976  -31.9611 H   0  0  0  0  0  0  0  0  0  0  0  0
   -5.9428   19.0536  -30.8438 H   0  0  0  0  0  0  0  0  0  0  0  0
   -6.7914   21.5725  -30.4934 H   0  0  0  0  0  0  0  0  0  0  0  0
   -9.0648   22.8299  -30.7012 H   0  0  0  0  0  0  0  0  0  0  0  0
  -10.8229   21.5482  -32.1832 H   0  0  0  0  0  0  0  0  0  0  0  0
  1  2  1  0
  2  3  1  0
  3  4  1  0
  4  5  1  0
  5  6  1  0
  6  7  1  0
  7  8  1  0
  8  9  1  0
  9 10  2  0
 10 11  1  0
 11 12  2  0
 12 13  1  0
 13 14  2  0
 14 15  1  0
 15 16  1  0
 16 17  1  0
 17 18  2  0
 18 19  1  0
 19 20  2  0
 20 21  1  0
 21 22  2  0
 22 23  1  0
  3 24  1  0
 24 25  1  0
 25 26  2  0
 26 27  1  0
 27 28  2  0
 28 29  1  0
 14  9  1  0
 22 17  1  0
 29 25  1  0
  1 30  1  0
  1 31  1  0
  1 32  1  0
  2 33  1  0
  2 34  1  0
  4 35  1  0
  4 36  1  0
  5 37  1  0
  5 38  1  0
  6 39  1  0
  6 40  1  0
  7 41  1  0
  7 42  1  0
  8 43  1  0
  8 44  1  0
 10 45  1  0
 11 46  1  0
 12 47  1  0
 13 48  1  0
 16 49  1  0
 16 50  1  0
 18 51  1  0
 19 52  1  0
 20 53  1  0
 21 54  1  0
 24 55  1  0
 24 56  1  0
 26 57  1  0
 27 58  1  0
 28 59  1  0
M  CHG  1   7   1
M  END
>  <UniqueID>  (1) 
1

>  <SMILES>  (1) 
CCN(CCC[NH2+]Cc1ccccc1OCc1ccccc1F)Cc1cccs1

>  <Energy>  (1) 
93.0763845530623

>  <Genealogy>  (1) 
CCN(CCC[NH2+]Cc1ccccc1OCc1ccccc1F)Cc1cccs1 (protonated)
CCN(CCC[NH2+]Cc1ccccc1OCc1ccccc1F)Cc1cccs1 (3D coordinates assigned)
CCN(CCC[NH2+]Cc1ccccc1OCc1ccccc1F)Cc1cccs1 (optimized conformer: 93.0763845530623 kcal/mol)

>  <smiles>  (1) 
CCN(CCCNCc1ccccc1OCc1ccccc1F)Cc1cccs1

>  <score_type>  (1) 
oracle

>  <origin>  (1) 
adg

>  <m_score__min__energy>  (1) 
-7.5099999999999998

>  <m_primary>  (1) 
energy

$$$$
1:0
     RDKit          3D

 41 43  0  0  0  0  0  0  0  0999 V2000
   -5.2100   23.4050  -32.7230 O   0  0  0  0  0  0  0  0  0  0  0  0
   -5.1860   23.5190  -31.2250 S   0  0  0  0  0  0  0  0  0  0  0  0
   -4.6240   24.8590  -30.8400 O   0  0  0  0  0  0  0  0  0  0  0  0
   -4.1610   22.2250  -30.5420 C   0  0  0  0  0  0  0  0  0  0  0  0
   -3.2670   21.6500  -31.6040 C   0  0  0  0  0  0  0  0  0  0  0  0
   -3.7990   20.8250  -32.6090 C   0  0  0  0  0  0  0  0  0  0  0  0
   -2.9620   20.2650  -33.5780 C   0  0  0  0  0  0  0  0  0  0  0  0
   -1.5870   20.5180  -33.5440 C   0  0  0  0  0  0  0  0  0  0  0  0
   -1.0480   21.3270  -32.5410 C   0  0  0  0  0  0  0  0  0  0  0  0
   -1.8840   21.8890  -31.5700 C   0  0  0  0  0  0  0  0  0  0  0  0
   -6.8490   23.3860  -30.5880 C   0  0  0  0  0  0  0  0  0  0  0  0
   -7.5890   22.2700  -31.2710 C   0  0  0  0  0  0  0  0  0  0  0  0
   -8.9910   22.2770  -31.3240 C   0  0  0  0  0  0  0  0  0  0  0  0
   -9.6780   21.2220  -31.9290 C   0  0  0  0  0  0  0  0  0  0  0  0
   -8.9740   20.1490  -32.4780 C   0  0  0  0  0  0  0  0  0  0  0  0
   -7.5690   20.1170  -32.4260 C   0  0  0  0  0  0  0  0  0  0  0  0
   -6.8180   18.9690  -32.9970 C   0  0  0  0  0  0  0  0  0  0  0  0
   -6.8040   17.7250  -32.3380 C   0  0  0  0  0  0  0  0  0  0  0  0
   -6.0970   16.6460  -32.8780 C   0  0  0  0  0  0  0  0  0  0  0  0
   -5.3990   16.7960  -34.0780 C   0  0  0  0  0  0  0  0  0  0  0  0
   -5.4060   18.0250  -34.7410 C   0  0  0  0  0  0  0  0  0  0  0  0
   -6.1110   19.1070  -34.2060 C   0  0  0  0  0  0  0  0  0  0  0  0
   -6.8840   21.1870  -31.8190 C   0  0  0  0  0  0  0  0  0  0  0  0
   -3.5421   22.6414  -29.7336 H   0  0  0  0  0  0  0  0  0  0  0  0
   -4.8081   21.4268  -30.1495 H   0  0  0  0  0  0  0  0  0  0  0  0
   -4.8792   20.6189  -32.6333 H   0  0  0  0  0  0  0  0  0  0  0  0
   -3.3845   19.6255  -34.3670 H   0  0  0  0  0  0  0  0  0  0  0  0
   -0.9289   20.0792  -34.3084 H   0  0  0  0  0  0  0  0  0  0  0  0
    0.0342   21.5223  -32.5145 H   0  0  0  0  0  0  0  0  0  0  0  0
   -1.4562   22.5203  -30.7772 H   0  0  0  0  0  0  0  0  0  0  0  0
   -6.8073   23.1841  -29.5075 H   0  0  0  0  0  0  0  0  0  0  0  0
   -7.3784   24.3313  -30.7781 H   0  0  0  0  0  0  0  0  0  0  0  0
   -9.5515   23.1168  -30.8873 H   0  0  0  0  0  0  0  0  0  0  0  0
  -10.7770   21.2368  -31.9729 H   0  0  0  0  0  0  0  0  0  0  0  0
   -9.5219   19.3228  -32.9546 H   0  0  0  0  0  0  0  0  0  0  0  0
   -7.3525   17.6010  -31.3926 H   0  0  0  0  0  0  0  0  0  0  0  0
   -6.0908   15.6775  -32.3565 H   0  0  0  0  0  0  0  0  0  0  0  0
   -4.8436   15.9460  -34.5011 H   0  0  0  0  0  0  0  0  0  0  0  0
   -4.8556   18.1419  -35.6862 H   0  0  0  0  0  0  0  0  0  0  0  0
   -6.1132   20.0724  -34.7333 H   0  0  0  0  0  0  0  0  0  0  0  0
   -5.7850   21.1741  -31.7738 H   0  0  0  0  0  0  0  0  0  0  0  0
  1  2  2  0
  2  3  2  0
  2  4  1  0
  4  5  1  0
  5  6  2  0
  6  7  1  0
  7  8  2  0
  8  9  1  0
  9 10  2  0
  2 11  1  0
 11 12  1  0
 12 13  2  0
 13 14  1  0
 14 15  2  0
 15 16  1  0
 16 17  1  0
 17 18  2  0
 18 19  1  0
 19 20  2  0
 20 21  1  0
 21 22  2  0
 16 23  2  0
 10  5  1  0
 23 12  1  0
 22 17  1  0
  4 24  1  0
  4 25  1  0
  6 26  1  0
  7 27  1  0
  8 28  1  0
  9 29  1  0
 10 30  1  0
 11 31  1  0
 11 32  1  0
 13 33  1  0
 14 34  1  0
 15 35  1  0
 18 36  1  0
 19 37  1  0
 20 38  1  0
 21 39  1  0
 22 40  1  0
 23 41  1  0
M  END
>  <UniqueID>  (2) 
2

>  <SMILES>  (2) 
O=S(=O)(Cc1ccccc1)Cc1cccc(-c2ccccc2)c1

>  <Energy>  (2) 
39.46125038947442

>  <Genealogy>  (2) 
O=S(=O)(Cc1ccccc1)Cc1cccc(-c2ccccc2)c1 (3D coordinates assigned)
O=S(=O)(Cc1ccccc1)Cc1cccc(-c2ccccc2)c1 (optimized conformer: 39.46125038947442 kcal/mol)

>  <smiles>  (2) 
O=S(=O)(Cc1ccccc1)Cc1cccc(-c2ccccc2)c1

>  <score_type>  (2) 
oracle

>  <origin>  (2) 
adg

>  <m_score__min__energy>  (2) 
-9.9900000000000002

>  <m_primary>  (2) 
energy

$$$$
2:0
     RDKit          3D

 44 44  0  0  0  0  0  0  0  0999 V2000
   -8.0200   22.9030  -31.3850 C   0  0  0  0  0  0  0  0  0  0  0  0
   -8.6100   21.5340  -31.0590 C   0  0  0  0  0  0  0  0  0  0  0  0
   -9.0090   20.7820  -32.3450 C   0  0  0  0  0  0  0  0  0  0  0  0
   -8.1080   19.5770  -32.7320 C   0  0  0  0  0  0  0  0  0  0  0  0
   -8.1970   18.3560  -31.7790 C   0  0  0  0  0  0  0  0  0  0  0  0
   -6.8610   17.8110  -31.2300 C   0  0  0  0  0  0  0  0  0  0  0  0
   -6.1160   16.9550  -32.2560 C   0  0  0  0  0  0  0  0  0  0  0  0
   -6.6950   19.9930  -33.0790 C   0  0  0  0  0  0  0  0  0  0  0  0
   -6.2130   19.7530  -34.2190 O   0  0  0  0  0  0  0  0  0  0  0  0
   -5.8820   20.6260  -32.0790 N   0  0  0  0  0  0  0  0  0  0  0  0
   -4.4250   20.6730  -32.1770 C   0  0  0  0  0  0  0  0  0  0  0  0
   -3.9090   21.9100  -31.4960 C   0  0  0  0  0  0  0  0  0  0  0  0
   -2.7230   21.8690  -30.7490 C   0  0  0  0  0  0  0  0  0  0  0  0
   -2.2900   23.0020  -30.0570 C   0  0  0  0  0  0  0  0  0  0  0  0
   -3.0410   24.1800  -30.0950 C   0  0  0  0  0  0  0  0  0  0  0  0
   -2.6000   25.2970  -29.3950 O   0  0  0  0  0  0  0  0  0  0  0  0
   -4.2320   24.2380  -30.8320 C   0  0  0  0  0  0  0  0  0  0  0  0
   -4.9610   25.4370  -30.8350 O   0  0  0  0  0  0  0  0  0  0  0  0
   -6.0880   25.6970  -30.0050 C   0  0  0  0  0  0  0  0  0  0  0  0
   -4.6620   23.0950  -31.5340 C   0  0  0  0  0  0  0  0  0  0  0  0
   -7.7905   23.4354  -30.4502 H   0  0  0  0  0  0  0  0  0  0  0  0
   -7.0973   22.7748  -31.9699 H   0  0  0  0  0  0  0  0  0  0  0  0
   -8.7469   23.4857  -31.9699 H   0  0  0  0  0  0  0  0  0  0  0  0
   -7.8615   20.9407  -30.5132 H   0  0  0  0  0  0  0  0  0  0  0  0
   -9.5109   21.6786  -30.4446 H   0  0  0  0  0  0  0  0  0  0  0  0
  -10.0347   20.4073  -32.2122 H   0  0  0  0  0  0  0  0  0  0  0  0
   -8.9004   21.5102  -33.1622 H   0  0  0  0  0  0  0  0  0  0  0  0
   -8.5440   19.1894  -33.6646 H   0  0  0  0  0  0  0  0  0  0  0  0
   -8.8173   18.6481  -30.9188 H   0  0  0  0  0  0  0  0  0  0  0  0
   -8.6149   17.5412  -32.3885 H   0  0  0  0  0  0  0  0  0  0  0  0
   -6.2219   18.6607  -30.9478 H   0  0  0  0  0  0  0  0  0  0  0  0
   -7.0892   17.1736  -30.3630 H   0  0  0  0  0  0  0  0  0  0  0  0
   -5.4808   16.2252  -31.7326 H   0  0  0  0  0  0  0  0  0  0  0  0
   -6.8432   16.4225  -32.8866 H   0  0  0  0  0  0  0  0  0  0  0  0
   -5.4883   17.6018  -32.8866 H   0  0  0  0  0  0  0  0  0  0  0  0
   -6.3280   20.9520  -31.1920 H   0  0  0  0  0  0  0  0  0  0  0  0
   -3.9973   19.7834  -31.6915 H   0  0  0  0  0  0  0  0  0  0  0  0
   -4.1325   20.6930  -33.2372 H   0  0  0  0  0  0  0  0  0  0  0  0
   -2.1322   20.9420  -30.7080 H   0  0  0  0  0  0  0  0  0  0  0  0
   -1.3543   22.9672  -29.4798 H   0  0  0  0  0  0  0  0  0  0  0  0
   -5.7891   25.6280  -28.9486 H   0  0  0  0  0  0  0  0  0  0  0  0
   -6.4710   26.7071  -30.2125 H   0  0  0  0  0  0  0  0  0  0  0  0
   -6.8748   24.9568  -30.2125 H   0  0  0  0  0  0  0  0  0  0  0  0
   -5.5945   23.1308  -32.1163 H   0  0  0  0  0  0  0  0  0  0  0  0
  1  2  1  0
  2  3  1  0
  3  4  1  0
  4  5  1  0
  5  6  1  0
  6  7  1  0
  4  8  1  0
  8  9  2  0
  8 10  1  0
 10 11  1  0
 11 12  1  0
 12 13  2  0
 13 14  1  0
 14 15  2  0
 15 16  1  0
 15 17  1  0
 17 18  1  0
 18 19  1  0
 17 20  2  0
 20 12  1  0
  1 21  1  0
  1 22  1  0
  1 23  1  0
  2 24  1  0
  2 25  1  0
  3 26  1  0
  3 27  1  0
  4 28  1  0
  5 29  1  0
  5 30  1  0
  6 31  1  0
  6 32  1  0
  7 33  1  0
  7 34  1  0
  7 35  1  0
 10 36  1  0
 11 37  1  0
 11 38  1  0
 13 39  1  0
 14 40  1  0
 19 41  1  0
 19 42  1  0
 19 43  1  0
 20 44  1  0
M  CHG  1  16  -1
M  END
>  <UniqueID>  (3) 
3

>  <SMILES>  (3) 
CCCC(CCC)C(=O)NCc1ccc([O-])c(OC)c1

>  <Energy>  (3) 
33.44081900859222

>  <Genealogy>  (3) 
CCCC(CCC)C(=O)NCc1ccc([O-])c(OC)c1 (protonated)
CCCC(CCC)C(=O)NCc1ccc([O-])c(OC)c1 (3D coordinates assigned)
CCCC(CCC)C(=O)NCc1ccc([O-])c(OC)c1 (optimized conformer: 33.44081900859222 kcal/mol)

>  <smiles>  (3) 
CCCC(CCC)C(=O)NCc1ccc(O)c(OC)c1

>  <score_type>  (3) 
oracle

>  <origin>  (3) 
adg

>  <m_score__min__energy>  (3) 
-10.029999999999999

>  <m_primary>  (3) 
energy

$$$$
3:0
     RDKit          3D

 53 55  0  0  0  0  0  0  0  0999 V2000
   -5.8870   16.0060  -33.2680 C   0  0  0  0  0  0  0  0  0  0  0  0
   -6.8630   16.9950  -33.8920 C   0  0  0  0  0  0  0  0  0  0  0  0
   -6.8670   18.2490  -33.1380 N   0  0  0  0  0  0  0  0  0  0  0  0
   -7.9680   18.9160  -32.7180 C   0  0  0  0  0  0  0  0  0  0  0  0
   -7.6030   20.1020  -32.0880 C   0  0  0  0  0  0  0  0  0  0  0  0
   -8.5310   21.1190  -31.5040 C   0  0  0  0  0  0  0  0  0  0  0  0
   -6.2230   20.1510  -32.1510 C   0  0  0  0  0  0  0  0  0  0  0  0
   -5.2900   21.0890  -31.7180 C   0  0  0  0  0  0  0  0  0  0  0  0
   -5.5180   22.5440  -30.9250 S   0  0  0  0  0  0  0  0  0  0  0  0
   -3.8750   22.9450  -30.8350 C   0  0  0  0  0  0  0  0  0  0  0  0
   -3.3810   24.1760  -30.1800 C   0  0  0  0  0  0  0  0  0  0  0  0
   -3.8620   25.2960  -30.4980 O   0  0  0  0  0  0  0  0  0  0  0  0
   -2.3280   24.1030  -29.2060 N   0  0  0  0  0  0  0  0  0  0  0  0
   -1.8890   25.2660  -28.4350 C   0  0  0  0  0  0  0  0  0  0  0  0
   -0.9220   24.8410  -27.3250 C   0  0  0  0  0  0  0  0  0  0  0  0
   -0.4300   23.4630  -27.5460 N   0  0  0  0  0  0  0  0  0  0  0  0
    1.0390   23.4230  -27.4740 C   0  0  0  0  0  0  0  0  0  0  0  0
   -0.9960   22.5330  -26.5520 C   0  0  0  0  0  0  0  0  0  0  0  0
   -3.1170   21.9250  -31.4500 C   0  0  0  0  0  0  0  0  0  0  0  0
   -1.6170   21.9390  -31.6230 C   0  0  0  0  0  0  0  0  0  0  0  0
   -0.9630   21.9650  -30.3680 O   0  0  0  0  0  0  0  0  0  0  0  0
   -1.1030   20.7210  -29.7200 C   0  0  0  0  0  0  0  0  0  0  0  0
   -3.9300   20.8800  -31.9400 C   0  0  0  0  0  0  0  0  0  0  0  0
   -3.4940   19.7120  -32.6100 C   0  0  0  0  0  0  0  0  0  0  0  0
   -4.4440   18.7630  -33.0470 C   0  0  0  0  0  0  0  0  0  0  0  0
   -5.8050   19.0120  -32.7990 C   0  0  0  0  0  0  0  0  0  0  0  0
   -5.9505   16.0703  -32.1717 H   0  0  0  0  0  0  0  0  0  0  0  0
   -6.1421   14.9859  -33.5908 H   0  0  0  0  0  0  0  0  0  0  0  0
   -4.8636   16.2476  -33.5908 H   0  0  0  0  0  0  0  0  0  0  0  0
   -6.5609   17.1968  -34.9303 H   0  0  0  0  0  0  0  0  0  0  0  0
   -7.8738   16.5617  -33.8710 H   0  0  0  0  0  0  0  0  0  0  0  0
   -9.0031   18.5699  -32.8552 H   0  0  0  0  0  0  0  0  0  0  0  0
   -8.4855   21.0692  -30.4061 H   0  0  0  0  0  0  0  0  0  0  0  0
   -8.2316   22.1233  -31.8382 H   0  0  0  0  0  0  0  0  0  0  0  0
   -9.5585   20.9125  -31.8382 H   0  0  0  0  0  0  0  0  0  0  0  0
   -1.9520   23.1690  -28.9260 H   0  0  0  0  0  0  0  0  0  0  0  0
   -1.3809   25.9742  -29.1060 H   0  0  0  0  0  0  0  0  0  0  0  0
   -2.7688   25.7416  -27.9771 H   0  0  0  0  0  0  0  0  0  0  0  0
   -0.0651   25.5306  -27.3115 H   0  0  0  0  0  0  0  0  0  0  0  0
   -1.4575   24.8710  -26.3646 H   0  0  0  0  0  0  0  0  0  0  0  0
    1.3544   23.4144  -26.4202 H   0  0  0  0  0  0  0  0  0  0  0  0
    1.4060   22.5145  -27.9740 H   0  0  0  0  0  0  0  0  0  0  0  0
    1.4549   24.3102  -27.9740 H   0  0  0  0  0  0  0  0  0  0  0  0
   -0.7732   22.8990  -25.5389 H   0  0  0  0  0  0  0  0  0  0  0  0
   -2.0858   22.4700  -26.6877 H   0  0  0  0  0  0  0  0  0  0  0  0
   -0.5513   21.5361  -26.6877 H   0  0  0  0  0  0  0  0  0  0  0  0
   -1.3094   21.0359  -32.1705 H   0  0  0  0  0  0  0  0  0  0  0  0
   -1.3368   22.8430  -32.1836 H   0  0  0  0  0  0  0  0  0  0  0  0
   -1.0861   20.8712  -28.6304 H   0  0  0  0  0  0  0  0  0  0  0  0
   -2.0586   20.2610  -30.0120 H   0  0  0  0  0  0  0  0  0  0  0  0
   -0.2736   20.0601  -30.0120 H   0  0  0  0  0  0  0  0  0  0  0  0
   -2.4217   19.5445  -32.7892 H   0  0  0  0  0  0  0  0  0  0  0  0
   -4.1260   17.8490  -33.5700 H   0  0  0  0  0  0  0  0  0  0  0  0
  1  2  1  0
  2  3  1  0
  3  4  1  0
  4  5  2  0
  5  6  1  0
  5  7  1  0
  7  8  2  0
  8  9  1  0
  9 10  1  0
 10 11  1  0
 11 12  2  0
 11 13  1  0
 13 14  1  0
 14 15  1  0
 15 16  1  0
 16 17  1  0
 16 18  1  0
 10 19  2  0
 19 20  1  0
 20 21  1  0
 21 22  1  0
 19 23  1  0
 23 24  2  0
 24 25  1  0
 25 26  2  0
 26  3  1  0
 26  7  1  0
 23  8  1  0
  1 27  1  0
  1 28  1  0
  1 29  1  0
  2 30  1  0
  2 31  1  0
  4 32  1  0
  6 33  1  0
  6 34  1  0
  6 35  1  0
 13 36  1  0
 14 37  1  0
 14 38  1  0
 15 39  1  0
 15 40  1  0
 17 41  1  0
 17 42  1  0
 17 43  1  0
 18 44  1  0
 18 45  1  0
 18 46  1  0
 20 47  1  0
 20 48  1  0
 22 49  1  0
 22 50  1  0
 22 51  1  0
 24 52  1  0
 25 53  1  0
M  END
>  <UniqueID>  (4) 
4

>  <SMILES>  (4) 
CCn1cc(C)c2c3sc(C(=O)NCCN(C)C)c(COC)c3ccc21

>  <Energy>  (4) 
116.50947334833644

>  <Genealogy>  (4) 
CCn1cc(C)c2c3sc(C(=O)NCCN(C)C)c(COC)c3ccc21 (3D coordinates assigned)
CCn1cc(C)c2c3sc(C(=O)NCCN(C)C)c(COC)c3ccc21 (optimized conformer: 116.50947334833644 kcal/mol)

>  <smiles>  (4) 
CCn1cc(C)c2c3sc(C(=O)NCCN(C)C)c(COC)c3ccc21

>  <score_type>  (4) 
oracle

>  <origin>  (4) 
adg

>  <m_score__min__energy>  (4) 
-7.5599999999999996

>  <m_primary>  (4) 
energy

$$$$
4:0
     RDKit          3D

 40 41  0  0  0  0  0  0  0  0999 V2000
   -6.8460   16.8190  -33.4210 C   0  0  0  0  0  0  0  0  0  0  0  0
   -6.0150   17.7170  -32.6230 N   0  0  0  0  0  0  0  0  0  0  0  0
   -5.2920   18.9180  -33.6490 S   0  0  0  0  0  0  0  0  0  0  0  0
   -4.4020   18.2510  -34.6610 O   0  0  0  0  0  0  0  0  0  0  0  0
   -6.3760   19.6560  -34.3840 O   0  0  0  0  0  0  0  0  0  0  0  0
   -4.3630   20.0690  -32.6910 C   0  0  0  0  0  0  0  0  0  0  0  0
   -4.4870   20.0990  -31.2950 C   0  0  0  0  0  0  0  0  0  0  0  0
   -3.7580   21.0250  -30.5440 C   0  0  0  0  0  0  0  0  0  0  0  0
   -2.9050   21.9410  -31.1810 C   0  0  0  0  0  0  0  0  0  0  0  0
   -2.0920   22.9110  -30.3690 C   0  0  0  0  0  0  0  0  0  0  0  0
   -3.0080   23.8520  -29.5830 C   0  0  0  0  0  0  0  0  0  0  0  0
   -3.5780   24.8650  -30.4740 N   0  0  0  0  0  0  0  0  0  0  0  0
   -5.2650   25.1210  -30.1390 S   0  0  0  0  0  0  0  0  0  0  0  0
   -5.4580   25.2560  -28.6540 O   0  0  0  0  0  0  0  0  0  0  0  0
   -5.7350   26.3890  -30.7980 O   0  0  0  0  0  0  0  0  0  0  0  0
   -6.2090   23.7490  -30.7140 C   0  0  0  0  0  0  0  0  0  0  0  0
   -7.0770   23.0640  -29.8490 C   0  0  0  0  0  0  0  0  0  0  0  0
   -7.8330   21.9870  -30.3220 C   0  0  0  0  0  0  0  0  0  0  0  0
   -7.7280   21.5900  -31.6590 C   0  0  0  0  0  0  0  0  0  0  0  0
   -8.7620   20.1190  -32.3030 Br  0  0  0  0  0  0  0  0  0  0  0  0
   -6.8660   22.2720  -32.5250 C   0  0  0  0  0  0  0  0  0  0  0  0
   -6.1110   23.3500  -32.0540 C   0  0  0  0  0  0  0  0  0  0  0  0
   -2.7760   21.9020  -32.5790 C   0  0  0  0  0  0  0  0  0  0  0  0
   -3.5070   20.9760  -33.3290 C   0  0  0  0  0  0  0  0  0  0  0  0
   -7.4394   16.1778  -32.7527 H   0  0  0  0  0  0  0  0  0  0  0  0
   -7.5214   17.4115  -34.0556 H   0  0  0  0  0  0  0  0  0  0  0  0
   -6.2030   16.1915  -34.0556 H   0  0  0  0  0  0  0  0  0  0  0  0
   -5.2350   17.1520  -32.2140 H   0  0  0  0  0  0  0  0  0  0  0  0
   -5.1603   19.3914  -30.7891 H   0  0  0  0  0  0  0  0  0  0  0  0
   -3.8528   21.0365  -29.4482 H   0  0  0  0  0  0  0  0  0  0  0  0
   -1.4580   22.3517  -29.6653 H   0  0  0  0  0  0  0  0  0  0  0  0
   -1.4676   23.5086  -31.0494 H   0  0  0  0  0  0  0  0  0  0  0  0
   -3.8223   23.2695  -29.1273 H   0  0  0  0  0  0  0  0  0  0  0  0
   -2.4203   24.3531  -28.7997 H   0  0  0  0  0  0  0  0  0  0  0  0
   -7.1625   23.3750  -28.7974 H   0  0  0  0  0  0  0  0  0  0  0  0
   -8.5113   21.4512  -29.6416 H   0  0  0  0  0  0  0  0  0  0  0  0
   -6.7825   21.9598  -33.5765 H   0  0  0  0  0  0  0  0  0  0  0  0
   -5.4373   23.8873  -32.7377 H   0  0  0  0  0  0  0  0  0  0  0  0
   -2.0968   22.6032  -33.0860 H   0  0  0  0  0  0  0  0  0  0  0  0
   -3.4096   20.9595  -34.4246 H   0  0  0  0  0  0  0  0  0  0  0  0
  1  2  1  0
  2  3  1  0
  3  4  2  0
  3  5  2  0
  3  6  1  0
  6  7  2  0
  7  8  1  0
  8  9  2  0
  9 10  1  0
 10 11  1  0
 11 12  1  0
 12 13  1  0
 13 14  2  0
 13 15  2  0
 13 16  1  0
 16 17  2  0
 17 18  1  0
 18 19  2  0
 19 20  1  0
 19 21  1  0
 21 22  2  0
  9 23  1  0
 23 24  2  0
 24  6  1  0
 22 16  1  0
  1 25  1  0
  1 26  1  0
  1 27  1  0
  2 28  1  0
  7 29  1  0
  8 30  1  0
 10 31  1  0
 10 32  1  0
 11 33  1  0
 11 34  1  0
 17 35  1  0
 18 36  1  0
 21 37  1  0
 22 38  1  0
 23 39  1  0
 24 40  1  0
M  CHG  1  12  -1
M  END
>  <UniqueID>  (5) 
5

>  <SMILES>  (5) 
CNS(=O)(=O)c1ccc(CC[N-]S(=O)(=O)c2ccc(Br)cc2)cc1

>  <Energy>  (5) 
34.123690642157285

>  <Genealogy>  (5) 
CNS(=O)(=O)c1ccc(CC[N-]S(=O)(=O)c2ccc(Br)cc2)cc1 (protonated)
CNS(=O)(=O)c1ccc(CC[N-]S(=O)(=O)c2ccc(Br)cc2)cc1 (3D coordinates assigned)
CNS(=O)(=O)c1ccc(CC[N-]S(=O)(=O)c2ccc(Br)cc2)cc1 (optimized conformer: 34.123690642157285 kcal/mol)

>  <smiles>  (5) 
CNS(=O)(=O)c1ccc(CCNS(=O)(=O)c2ccc(Br)cc2)cc1

>  <score_type>  (5) 
oracle

>  <origin>  (5) 
adg

>  <m_score__min__energy>  (5) 
-10.56

>  <m_primary>  (5) 
energy

$$$$
5:0
     RDKit          3D

 36 38  0  0  0  0  0  0  0  0999 V2000
   -2.6460   24.9140  -26.9440 C   0  0  0  0  0  0  0  0  0  0  0  0
   -1.9300   24.8230  -28.2740 C   0  0  0  0  0  0  0  0  0  0  0  0
   -2.7030   25.2960  -29.3490 O   0  0  0  0  0  0  0  0  0  0  0  0
   -3.7940   24.5890  -29.7970 C   0  0  0  0  0  0  0  0  0  0  0  0
   -4.9110   25.3170  -30.1760 C   0  0  0  0  0  0  0  0  0  0  0  0
   -6.0500   24.6900  -30.6370 C   0  0  0  0  0  0  0  0  0  0  0  0
   -6.1380   23.2990  -30.7440 C   0  0  0  0  0  0  0  0  0  0  0  0
   -7.5850   22.5790  -31.3560 S   0  0  0  0  0  0  0  0  0  0  0  0
   -8.2980   21.7840  -30.2920 O   0  0  0  0  0  0  0  0  0  0  0  0
   -8.5120   23.6990  -31.8050 O   0  0  0  0  0  0  0  0  0  0  0  0
   -7.2450   21.6340  -32.7380 N   0  0  0  0  0  0  0  0  0  0  0  0
   -7.1600   20.2410  -32.8160 C   0  0  0  0  0  0  0  0  0  0  0  0
   -7.9630   19.3250  -32.2100 C   0  0  0  0  0  0  0  0  0  0  0  0
   -7.7940   17.9850  -32.3690 N   0  0  0  0  0  0  0  0  0  0  0  0
   -6.8290   17.4730  -33.1300 C   0  0  0  0  0  0  0  0  0  0  0  0
   -6.4410   16.2270  -33.4580 N   0  0  0  0  0  0  0  0  0  0  0  0
   -5.3830   16.3520  -34.2790 C   0  0  0  0  0  0  0  0  0  0  0  0
   -5.1010   17.6440  -34.4710 N   0  0  0  0  0  0  0  0  0  0  0  0
   -5.9800   18.3560  -33.7730 C   0  0  0  0  0  0  0  0  0  0  0  0
   -6.1340   19.7210  -33.6240 C   0  0  0  0  0  0  0  0  0  0  0  0
   -5.0130   22.6010  -30.3600 C   0  0  0  0  0  0  0  0  0  0  0  0
   -3.8700   23.2230  -29.8980 C   0  0  0  0  0  0  0  0  0  0  0  0
   -1.9152   24.8211  -26.1271 H   0  0  0  0  0  0  0  0  0  0  0  0
   -3.1584   25.8845  -26.8691 H   0  0  0  0  0  0  0  0  0  0  0  0
   -3.3849   24.1025  -26.8691 H   0  0  0  0  0  0  0  0  0  0  0  0
   -1.0075   25.4195  -28.2167 H   0  0  0  0  0  0  0  0  0  0  0  0
   -1.7212   23.7596  -28.4625 H   0  0  0  0  0  0  0  0  0  0  0  0
   -4.8888   26.4147  -30.1079 H   0  0  0  0  0  0  0  0  0  0  0  0
   -6.9152   25.3032  -30.9293 H   0  0  0  0  0  0  0  0  0  0  0  0
   -7.0780   22.1670  -33.6440 H   0  0  0  0  0  0  0  0  0  0  0  0
   -8.7806   19.6821  -31.5665 H   0  0  0  0  0  0  0  0  0  0  0  0
   -6.8930   15.3460  -33.1240 H   0  0  0  0  0  0  0  0  0  0  0  0
   -4.8304   15.5130  -34.7271 H   0  0  0  0  0  0  0  0  0  0  0  0
   -5.4477   20.4068  -34.1422 H   0  0  0  0  0  0  0  0  0  0  0  0
   -5.0264   21.5030  -30.4243 H   0  0  0  0  0  0  0  0  0  0  0  0
   -3.0038   22.6114  -29.6053 H   0  0  0  0  0  0  0  0  0  0  0  0
  1  2  1  0
  2  3  1  0
  3  4  1  0
  4  5  2  0
  5  6  1  0
  6  7  2  0
  7  8  1  0
  8  9  2  0
  8 10  2  0
  8 11  1  0
 11 12  1  0
 12 13  2  0
 13 14  1  0
 14 15  2  0
 15 16  1  0
 16 17  1  0
 17 18  2  0
 18 19  1  0
 19 20  2  0
  7 21  1  0
 21 22  2  0
 22  4  1  0
 20 12  1  0
 19 15  1  0
  1 23  1  0
  1 24  1  0
  1 25  1  0
  2 26  1  0
  2 27  1  0
  5 28  1  0
  6 29  1  0
 11 30  1  0
 13 31  1  0
 16 32  1  0
 17 33  1  0
 20 34  1  0
 21 35  1  0
 22 36  1  0
M  END
>  <smiles>  (6) 
CCOc1ccc(S(=O)(=O)Nc2cnc3[nH]cnc3c2)cc1

>  <score_type>  (6) 
oracle

>  <origin>  (6) 
adg

>  <m_score__min__energy>  (6) 
-8.0600000000000005

>  <m_primary>  (6) 
energy

$$$$
6:0
     RDKit          3D

 58 61  0  0  0  0  0  0  0  0999 V2000
    0.4310   19.6530  -30.3470 C   0  0  0  0  0  0  0  0  0  0  0  0
    0.0940   20.2740  -29.1110 O   0  0  0  0  0  0  0  0  0  0  0  0
   -0.9110   19.8250  -28.2400 C   0  0  0  0  0  0  0  0  0  0  0  0
   -0.7840   18.6200  -27.5180 C   0  0  0  0  0  0  0  0  0  0  0  0
   -1.8120   18.1880  -26.6780 C   0  0  0  0  0  0  0  0  0  0  0  0
   -2.9770   18.9460  -26.5480 C   0  0  0  0  0  0  0  0  0  0  0  0
   -3.1130   20.1420  -27.2550 C   0  0  0  0  0  0  0  0  0  0  0  0
   -2.0860   20.5920  -28.1000 C   0  0  0  0  0  0  0  0  0  0  0  0
   -2.2420   21.8350  -28.8070 N   0  0  0  0  0  0  0  0  0  0  0  0
   -2.4910   21.8430  -30.2510 C   0  0  0  0  0  0  0  0  0  0  0  0
   -3.8170   22.5600  -30.5690 C   0  0  0  0  0  0  0  0  0  0  0  0
   -4.2030   23.5760  -29.5530 N   0  0  0  0  0  0  0  0  0  0  0  0
   -5.0110   24.6240  -30.1540 C   0  0  0  0  0  0  0  0  0  0  0  0
   -4.4780   25.4930  -30.8330 O   0  0  0  0  0  0  0  0  0  0  0  0
   -6.4940   24.7180  -29.8740 C   0  0  0  0  0  0  0  0  0  0  0  0
   -7.2380   23.3860  -30.0670 C   0  0  0  0  0  0  0  0  0  0  0  0
   -7.5920   23.0150  -31.7850 S   0  0  0  0  0  0  0  0  0  0  0  0
   -6.6040   23.7440  -32.6520 O   0  0  0  0  0  0  0  0  0  0  0  0
   -8.9750   23.5100  -32.1090 O   0  0  0  0  0  0  0  0  0  0  0  0
   -7.4750   21.2920  -32.1340 C   0  0  0  0  0  0  0  0  0  0  0  0
   -8.4550   20.4090  -31.6600 C   0  0  0  0  0  0  0  0  0  0  0  0
   -8.3800   19.0450  -31.9530 C   0  0  0  0  0  0  0  0  0  0  0  0
   -7.3160   18.5450  -32.7180 C   0  0  0  0  0  0  0  0  0  0  0  0
   -7.2450   17.1800  -33.0400 C   0  0  0  0  0  0  0  0  0  0  0  0
   -6.1820   16.6950  -33.8100 C   0  0  0  0  0  0  0  0  0  0  0  0
   -6.1010   14.9900  -34.2140 Cl  0  0  0  0  0  0  0  0  0  0  0  0
   -5.1870   17.5680  -34.2600 C   0  0  0  0  0  0  0  0  0  0  0  0
   -5.2460   18.9280  -33.9440 C   0  0  0  0  0  0  0  0  0  0  0  0
   -6.3070   19.4260  -33.1730 C   0  0  0  0  0  0  0  0  0  0  0  0
   -6.3860   20.7920  -32.8630 C   0  0  0  0  0  0  0  0  0  0  0  0
   -3.0320   24.1730  -28.8780 C   0  0  0  0  0  0  0  0  0  0  0  0
   -2.2850   23.1030  -28.0670 C   0  0  0  0  0  0  0  0  0  0  0  0
    0.9472   18.7017  -30.1506 H   0  0  0  0  0  0  0  0  0  0  0  0
   -0.4863   19.4604  -30.9227 H   0  0  0  0  0  0  0  0  0  0  0  0
    1.0925   20.3171  -30.9227 H   0  0  0  0  0  0  0  0  0  0  0  0
    0.1306   18.0170  -27.6174 H   0  0  0  0  0  0  0  0  0  0  0  0
   -1.7037   17.2479  -26.1172 H   0  0  0  0  0  0  0  0  0  0  0  0
   -3.7873   18.6011  -25.8889 H   0  0  0  0  0  0  0  0  0  0  0  0
   -4.0323   20.7367  -27.1492 H   0  0  0  0  0  0  0  0  0  0  0  0
   -1.6666   22.3666  -30.7570 H   0  0  0  0  0  0  0  0  0  0  0  0
   -2.5562   20.8036  -30.6052 H   0  0  0  0  0  0  0  0  0  0  0  0
   -3.7160   23.0624  -31.5423 H   0  0  0  0  0  0  0  0  0  0  0  0
   -4.6054   21.7930  -30.5741 H   0  0  0  0  0  0  0  0  0  0  0  0
   -4.7730   23.0920  -28.8190 H   0  0  0  0  0  0  0  0  0  0  0  0
   -6.6321   25.0469  -28.8334 H   0  0  0  0  0  0  0  0  0  0  0  0
   -6.9159   25.4329  -30.5957 H   0  0  0  0  0  0  0  0  0  0  0  0
   -6.6173   22.5764  -29.6555 H   0  0  0  0  0  0  0  0  0  0  0  0
   -8.2032   23.4731  -29.5466 H   0  0  0  0  0  0  0  0  0  0  0  0
   -9.2886   20.7925  -31.0533 H   0  0  0  0  0  0  0  0  0  0  0  0
   -9.1578   18.3611  -31.5826 H   0  0  0  0  0  0  0  0  0  0  0  0
   -8.0262   16.4910  -32.6864 H   0  0  0  0  0  0  0  0  0  0  0  0
   -4.3537   17.1825  -34.8657 H   0  0  0  0  0  0  0  0  0  0  0  0
   -4.4592   19.6092  -34.3004 H   0  0  0  0  0  0  0  0  0  0  0  0
   -5.5894   21.4748  -33.1935 H   0  0  0  0  0  0  0  0  0  0  0  0
   -2.3535   24.5959  -29.6335 H   0  0  0  0  0  0  0  0  0  0  0  0
   -3.3756   24.9653  -28.1966 H   0  0  0  0  0  0  0  0  0  0  0  0
   -1.2574   23.4456  -27.8754 H   0  0  0  0  0  0  0  0  0  0  0  0
   -2.8143   22.9427  -27.1161 H   0  0  0  0  0  0  0  0  0  0  0  0
  1  2  1  0
  2  3  1  0
  3  4  2  0
  4  5  1  0
  5  6  2  0
  6  7  1  0
  7  8  2  0
  8  9  1  0
  9 10  1  0
 10 11  1  0
 11 12  1  0
 12 13  1  0
 13 14  2  0
 13 15  1  0
 15 16  1  0
 16 17  1  0
 17 18  2  0
 17 19  2  0
 17 20  1  0
 20 21  2  0
 21 22  1  0
 22 23  2  0
 23 24  1  0
 24 25  2  0
 25 26  1  0
 25 27  1  0
 27 28  2  0
 28 29  1  0
 29 30  2  0
 12 31  1  0
 31 32  1  0
  8  3  1  0
 32  9  1  0
 30 20  1  0
 29 23  1  0
  1 33  1  0
  1 34  1  0
  1 35  1  0
  4 36  1  0
  5 37  1  0
  6 38  1  0
  7 39  1  0
 10 40  1  0
 10 41  1  0
 11 42  1  0
 11 43  1  0
 12 44  1  0
 15 45  1  0
 15 46  1  0
 16 47  1  0
 16 48  1  0
 21 49  1  0
 22 50  1  0
 24 51  1  0
 27 52  1  0
 28 53  1  0
 30 54  1  0
 31 55  1  0
 31 56  1  0
 32 57  1  0
 32 58  1  0
M  CHG  1  12   1
M  END
>  <UniqueID>  (7) 
6

>  <SMILES>  (7) 
COc1ccccc1N1CC[NH+](C(=O)CCS(=O)(=O)c2ccc3cc(Cl)ccc3c2)CC1

>  <Energy>  (7) 
67.78841344858532

>  <Genealogy>  (7) 
COc1ccccc1N1CC[NH+](C(=O)CCS(=O)(=O)c2ccc3cc(Cl)ccc3c2)CC1 (protonated)
COc1ccccc1N1CC[NH+](C(=O)CCS(=O)(=O)c2ccc3cc(Cl)ccc3c2)CC1 (3D coordinates assigned)
COc1ccccc1N1CC[NH+](C(=O)CCS(=O)(=O)c2ccc3cc(Cl)ccc3c2)CC1 (nonaromatic ring conformer: 67.78841344858532 kcal/mol)

>  <smiles>  (7) 
COc1ccccc1N1CCN(C(=O)CCS(=O)(=O)c2ccc3cc(Cl)ccc3c2)CC1

>  <score_type>  (7) 
oracle

>  <origin>  (7) 
adg

>  <m_score__min__energy>  (7) 
-10.279999999999999

>  <m_primary>  (7) 
energy

$$$$
7:0
     RDKit          3D

 65 69  0  0  0  0  0  0  0  0999 V2000
   -6.9518   24.9821  -31.4522 H   0  0  0  0  0  0  0  0  0  0  0  0
   -5.9010   24.7980  -31.1840 C   0  0  0  0  0  0  0  0  0  0  0  0
   -5.0170   25.7400  -30.8050 N   0  0  0  0  0  0  0  0  0  0  0  0
   -3.8550   25.1540  -30.5610 N   0  0  0  0  0  0  0  0  0  0  0  0
   -3.9840   23.8330  -30.7820 C   0  0  0  0  0  0  0  0  0  0  0  0
   -3.1853   23.0861  -30.6627 H   0  0  0  0  0  0  0  0  0  0  0  0
   -5.2800   23.5630  -31.1830 C   0  0  0  0  0  0  0  0  0  0  0  0
   -5.8700   22.2450  -31.5340 C   0  0  0  0  0  0  0  0  0  0  0  0
   -7.1420   22.1660  -32.1290 C   0  0  0  0  0  0  0  0  0  0  0  0
   -7.7055   23.0876  -32.3364 H   0  0  0  0  0  0  0  0  0  0  0  0
   -7.6960   20.9250  -32.4590 C   0  0  0  0  0  0  0  0  0  0  0  0
   -8.6919   20.8784  -32.9239 H   0  0  0  0  0  0  0  0  0  0  0  0
   -6.9920   19.7390  -32.2020 C   0  0  0  0  0  0  0  0  0  0  0  0
   -7.6050   18.4020  -32.5590 C   0  0  0  0  0  0  0  0  0  0  0  0
   -8.4851   18.5751  -33.1957 H   0  0  0  0  0  0  0  0  0  0  0  0
   -7.8806   17.8970  -31.6214 H   0  0  0  0  0  0  0  0  0  0  0  0
   -6.6540   17.5220  -33.2870 N   0  0  2  0  0  0  0  0  0  0  0  0
   -5.8580   17.3410  -32.6300 H   0  0  0  0  0  0  0  0  0  0  0  0
   -6.0240   18.1760  -34.4660 C   0  0  0  0  0  0  0  0  0  0  0  0
   -6.3050   17.6075  -35.3648 H   0  0  0  0  0  0  0  0  0  0  0  0
   -6.3900   19.2132  -34.4801 H   0  0  0  0  0  0  0  0  0  0  0  0
   -4.5200   18.2540  -34.4100 C   0  0  0  0  0  0  0  0  0  0  0  0
   -3.6400   17.2980  -34.8780 C   0  0  0  0  0  0  0  0  0  0  0  0
   -3.8982   16.3471  -35.3671 H   0  0  0  0  0  0  0  0  0  0  0  0
   -2.3720   17.7730  -34.6100 C   0  0  0  0  0  0  0  0  0  0  0  0
   -1.4204   17.2705  -34.8379 H   0  0  0  0  0  0  0  0  0  0  0  0
   -2.5310   19.0060  -33.9980 C   0  0  0  0  0  0  0  0  0  0  0  0
   -1.4370   19.8880  -33.5200 C   0  0  0  0  0  0  0  0  0  0  0  0
   -0.6450   20.6040  -34.4320 C   0  0  0  0  0  0  0  0  0  0  0  0
   -0.8302   20.5163  -35.5127 H   0  0  0  0  0  0  0  0  0  0  0  0
    0.3790   21.4280  -33.9600 C   0  0  0  0  0  0  0  0  0  0  0  0
    1.0044   21.9882  -34.6707 H   0  0  0  0  0  0  0  0  0  0  0  0
    0.6040   21.5390  -32.6260 N   0  0  0  0  0  0  0  0  0  0  0  0
   -0.1400   20.8630  -31.7110 C   0  0  0  0  0  0  0  0  0  0  0  0
    0.0840   20.9850  -30.4330 N   0  0  0  0  0  0  0  0  0  0  0  0
   -0.7440   21.6750  -29.4330 C   0  0  0  0  0  0  0  0  0  0  0  0
   -1.6543   21.0760  -29.2829 H   0  0  0  0  0  0  0  0  0  0  0  0
   -0.0560   21.7200  -28.0450 C   0  0  0  0  0  0  0  0  0  0  0  0
   -0.8274   21.5608  -27.2771 H   0  0  0  0  0  0  0  0  0  0  0  0
    0.7157   20.9362  -28.0603 H   0  0  0  0  0  0  0  0  0  0  0  0
    0.6810   23.0450  -27.7180 C   0  0  0  0  0  0  0  0  0  0  0  0
    0.3703   23.3687  -26.7137 H   0  0  0  0  0  0  0  0  0  0  0  0
    1.7559   22.8243  -27.7944 H   0  0  0  0  0  0  0  0  0  0  0  0
    0.4320   24.1100  -28.6190 O   0  0  0  0  0  0  0  0  0  0  0  0
   -0.9350   24.1660  -28.9550 C   0  0  0  0  0  0  0  0  0  0  0  0
   -1.5426   24.0431  -28.0463 H   0  0  0  0  0  0  0  0  0  0  0  0
   -1.1628   25.1386  -29.4156 H   0  0  0  0  0  0  0  0  0  0  0  0
   -1.2560   23.0450  -29.9390 C   0  0  0  0  0  0  0  0  0  0  0  0
   -2.3463   22.9904  -30.0738 H   0  0  0  0  0  0  0  0  0  0  0  0
   -0.7518   23.2693  -30.8906 H   0  0  0  0  0  0  0  0  0  0  0  0
   -1.1740   20.0240  -32.1450 C   0  0  0  0  0  0  0  0  0  0  0  0
   -1.7798   19.4720  -31.4113 H   0  0  0  0  0  0  0  0  0  0  0  0
   -3.8450   19.2940  -33.8860 N   0  0  0  0  0  0  0  0  0  0  0  0
   -4.2690   20.1430  -33.4520 H   0  0  0  0  0  0  0  0  0  0  0  0
   -7.2030   16.1650  -33.5800 C   0  0  0  0  0  0  0  0  0  0  0  0
   -8.0429   16.2827  -34.2805 H   0  0  0  0  0  0  0  0  0  0  0  0
   -7.4941   15.7395  -32.6083 H   0  0  0  0  0  0  0  0  0  0  0  0
   -6.2050   15.1680  -34.1980 C   0  0  0  0  0  0  0  0  0  0  0  0
   -5.6730   14.6365  -33.3952 H   0  0  0  0  0  0  0  0  0  0  0  0
   -6.7494   14.4423  -34.8201 H   0  0  0  0  0  0  0  0  0  0  0  0
   -5.4798   15.7131  -34.8201 H   0  0  0  0  0  0  0  0  0  0  0  0
   -5.7210   19.8140  -31.6170 C   0  0  0  0  0  0  0  0  0  0  0  0
   -5.1563   18.8912  -31.4182 H   0  0  0  0  0  0  0  0  0  0  0  0
   -5.1650   21.0530  -31.2840 C   0  0  0  0  0  0  0  0  0  0  0  0
   -4.1675   21.0964  -30.8224 H   0  0  0  0  0  0  0  0  0  0  0  0
  1  2  1  0
  2  3  2  0
  3  4  1  0
  4  5  1  0
  5  6  1  0
  5  7  2  0
  7  8  1  0
  8  9  2  0
  9 10  1  0
  9 11  1  0
 11 12  1  0
 11 13  2  0
 13 14  1  0
 14 15  1  0
 14 16  1  0
 14 17  1  0
 17 18  1  1
 17 19  1  0
 19 20  1  0
 19 21  1  0
 19 22  1  0
 22 23  2  0
 23 24  1  0
 23 25  1  0
 25 26  1  0
 25 27  2  0
 27 28  1  0
 28 29  1  0
 29 30  1  0
 29 31  2  0
 31 32  1  0
 31 33  1  0
 33 34  1  0
 34 35  2  0
 35 36  1  0
 36 37  1  0
 36 38  1  0
 38 39  1  0
 38 40  1  0
 38 41  1  0
 41 42  1  0
 41 43  1  0
 41 44  1  0
 44 45  1  0
 45 46  1  0
 45 47  1  0
 45 48  1  0
 48 49  1  0
 48 50  1  0
 34 51  1  0
 51 52  1  0
 27 53  1  0
 53 54  1  0
 17 55  1  0
 55 56  1  0
 55 57  1  0
 55 58  1  0
 58 59  1  0
 58 60  1  0
 58 61  1  0
 13 62  1  0
 62 63  1  0
 62 64  2  0
 64 65  1  0
  7  2  1  0
 64  8  1  0
 53 22  1  0
 51 28  2  0
 48 36  1  0
M  CHG  3   4  -1  17   1  33  -1
M  END
>  <UniqueID>  (8) 
7

>  <SMILES>  (8) 
CC[N@H+](Cc1ccc(-c2cn[n-]c2)cc1)Cc1ccc(-c2cc[n-]/c(=N\C3CCOCC3)c2)[nH]1

>  <Energy>  (8) 
149.4294042265337

>  <Genealogy>  (8) 
CC[NH+](Cc1ccc(-c2cn[n-]c2)cc1)Cc1ccc(-c2cc[n-]c(=NC3CCOCC3)c2)[nH]1 (protonated)
CC[N@H+](Cc1ccc(-c2cn[n-]c2)cc1)Cc1ccc(-c2cc[n-]c(=NC3CCOCC3)c2)[nH]1 (chirality)
CC[N@H+](Cc1ccc(-c2cn[n-]c2)cc1)Cc1ccc(-c2cc[n-]/c(=N\C3CCOCC3)c2)[nH]1 (cis-trans isomerization)
CC[N@H+](Cc1ccc(-c2cn[n-]c2)cc1)Cc1ccc(-c2cc[n-]/c(=N\C3CCOCC3)c2)[nH]1 (3D coordinates assigned)
CC[N@H+](Cc1ccc(-c2cn[n-]c2)cc1)Cc1ccc(-c2cc[n-]/c(=N\C3CCOCC3)c2)[nH]1 (nonaromatic ring conformer: 149.4294042265337 kcal/mol)

>  <smiles>  (8) 
CCN(Cc1ccc(-c2cn[nH]c2)cc1)Cc1ccc(-c2cc[nH]c(=NC3CCOCC3)c2)[nH]1

>  <score_type>  (8) 
oracle

>  <origin>  (8) 
adg

>  <m_score__min__energy>  (8) 
-11.710000000000001

>  <m_primary>  (8) 
energy

$$$$
8:0
     RDKit          3D

 29 30  0  0  0  0  0  0  0  0999 V2000
   -1.9940   25.6640  -29.8330 H   0  0  0  0  0  0  0  0  0  0  0  0
   -1.9150   25.2870  -28.8620 N   0  0  0  0  0  0  0  0  0  0  0  0
   -2.1030   24.0310  -28.6140 C   0  0  0  0  0  0  0  0  0  0  0  0
   -0.8910   22.9630  -28.1540 S   0  0  0  0  0  0  0  0  0  0  0  0
   -1.9470   21.6540  -28.0480 C   0  0  0  0  0  0  0  0  0  0  0  0
   -1.6730   20.6266  -27.7662 H   0  0  0  0  0  0  0  0  0  0  0  0
   -3.2250   22.0950  -28.3780 C   0  0  0  0  0  0  0  0  0  0  0  0
   -4.0986   21.4266  -28.3857 H   0  0  0  0  0  0  0  0  0  0  0  0
   -3.3110   23.4190  -28.6910 N   0  0  0  0  0  0  0  0  0  0  0  0
   -4.5590   24.0760  -29.0920 C   0  0  0  0  0  0  0  0  0  0  0  0
   -5.3960   23.3736  -28.9651 H   0  0  0  0  0  0  0  0  0  0  0  0
   -4.7141   24.9645  -28.4623 H   0  0  0  0  0  0  0  0  0  0  0  0
   -4.4840   24.5040  -30.5330 C   0  0  0  0  0  0  0  0  0  0  0  0
   -3.9130   25.5900  -30.8140 O   0  0  0  0  0  0  0  0  0  0  0  0
   -4.9950   23.7000  -31.6050 N   0  0  0  0  0  0  0  0  0  0  0  0
   -5.0210   22.2410  -31.6480 C   0  0  0  0  0  0  0  0  0  0  0  0
   -4.4339   21.8963  -32.5120 H   0  0  0  0  0  0  0  0  0  0  0  0
   -4.5920   21.8557  -30.7112 H   0  0  0  0  0  0  0  0  0  0  0  0
   -6.4380   21.7260  -31.7760 C   0  0  0  0  0  0  0  0  0  0  0  0
   -7.4770   22.4250  -31.1310 C   0  0  0  0  0  0  0  0  0  0  0  0
   -7.2438   23.3197  -30.5350 H   0  0  0  0  0  0  0  0  0  0  0  0
   -8.8000   21.9930  -31.2410 C   0  0  0  0  0  0  0  0  0  0  0  0
   -9.6014   22.5399  -30.7226 H   0  0  0  0  0  0  0  0  0  0  0  0
   -9.1070   20.8680  -32.0080 C   0  0  0  0  0  0  0  0  0  0  0  0
  -10.1490   20.5247  -32.0880 H   0  0  0  0  0  0  0  0  0  0  0  0
   -8.0930   20.1790  -32.6730 C   0  0  0  0  0  0  0  0  0  0  0  0
   -8.3406   19.2961  -33.2806 H   0  0  0  0  0  0  0  0  0  0  0  0
   -6.7610   20.6030  -32.5730 C   0  0  0  0  0  0  0  0  0  0  0  0
   -5.5430   19.6980  -33.4680 Cl  0  0  0  0  0  0  0  0  0  0  0  0
  1  2  1  0
  2  3  2  0
  3  4  1  0
  4  5  1  0
  5  6  1  0
  5  7  2  0
  7  8  1  0
  7  9  1  0
  9 10  1  0
 10 11  1  0
 10 12  1  0
 10 13  1  0
 13 14  2  0
 13 15  1  0
 15 16  1  0
 16 17  1  0
 16 18  1  0
 16 19  1  0
 19 20  2  0
 20 21  1  0
 20 22  1  0
 22 23  1  0
 22 24  2  0
 24 25  1  0
 24 26  1  0
 26 27  1  0
 26 28  2  0
 28 29  1  0
  9  3  1  0
 28 19  1  0
M  CHG  1  15  -1
M  END
>  <UniqueID>  (9) 
8

>  <SMILES>  (9) 
[H]/N=c1\sccn1CC(=O)[N-]Cc1ccccc1Cl

>  <Energy>  (9) 
58.862781479329215

>  <Genealogy>  (9) 
N=c1sccn1CC(=O)[N-]Cc1ccccc1Cl (protonated)
[H]/N=c1\sccn1CC(=O)[N-]Cc1ccccc1Cl (cis-trans isomerization)
[H]/N=c1\sccn1CC(=O)[N-]Cc1ccccc1Cl (3D coordinates assigned)
[H]/N=c1\sccn1CC(=O)[N-]Cc1ccccc1Cl (optimized conformer: 58.862781479329215 kcal/mol)

>  <smiles>  (9) 
N=c1sccn1CC(=O)NCc1ccccc1Cl

>  <score_type>  (9) 
oracle

>  <origin>  (9) 
adg

>  <m_score__min__energy>  (9) 
-8.2799999999999994

>  <m_primary>  (9) 
energy

$$$$
9:0
     RDKit          3D

 56 57  0  0  0  0  0  0  0  0999 V2000
   -5.7340   18.2490  -35.2490 C   0  0  0  0  0  0  0  0  0  0  0  0
   -4.9620   17.0030  -34.8000 C   0  0  0  0  0  0  0  0  0  0  0  0
   -5.5780   16.3330  -33.6230 N   0  0  0  0  0  0  0  0  0  0  0  0
   -5.3850   14.8560  -33.6900 C   0  0  0  0  0  0  0  0  0  0  0  0
   -6.6190   14.1290  -34.2390 C   0  0  0  0  0  0  0  0  0  0  0  0
   -5.1010   16.8750  -32.3220 C   0  0  0  0  0  0  0  0  0  0  0  0
   -6.2090   17.4690  -31.4320 C   0  0  0  0  0  0  0  0  0  0  0  0
   -7.4530   17.3330  -32.0980 O   0  0  0  0  0  0  0  0  0  0  0  0
   -7.7790   18.4960  -32.8380 C   0  0  0  0  0  0  0  0  0  0  0  0
   -7.7210   19.7570  -31.9500 C   0  0  2  0  0  0  0  0  0  0  0  0
   -9.1080   20.0970  -31.3440 C   0  0  0  0  0  0  0  0  0  0  0  0
   -9.3570   21.6050  -31.1760 C   0  0  0  0  0  0  0  0  0  0  0  0
   -8.0740   22.3740  -30.8370 C   0  0  0  0  0  0  0  0  0  0  0  0
   -7.0150   22.1090  -31.8240 N   0  0  0  0  0  0  0  0  0  0  0  0
   -5.8300   22.9330  -31.8320 C   0  0  0  0  0  0  0  0  0  0  0  0
   -5.7680   24.3180  -30.9540 S   0  0  0  0  0  0  0  0  0  0  0  0
   -4.8010   22.6930  -32.7960 N   0  0  0  0  0  0  0  0  0  0  0  0
   -3.8220   21.6490  -32.6660 C   0  0  0  0  0  0  0  0  0  0  0  0
   -3.9130   20.4630  -33.4180 C   0  0  0  0  0  0  0  0  0  0  0  0
   -2.9540   19.4580  -33.2640 C   0  0  0  0  0  0  0  0  0  0  0  0
   -1.9030   19.6210  -32.3550 C   0  0  0  0  0  0  0  0  0  0  0  0
   -1.8150   20.7910  -31.5940 C   0  0  0  0  0  0  0  0  0  0  0  0
   -2.7730   21.7980  -31.7440 C   0  0  0  0  0  0  0  0  0  0  0  0
   -7.1310   20.9490  -32.7230 C   0  0  0  0  0  0  0  0  0  0  0  0
   -6.0786   18.8052  -34.3648 H   0  0  0  0  0  0  0  0  0  0  0  0
   -5.0752   18.8910  -35.8522 H   0  0  0  0  0  0  0  0  0  0  0  0
   -6.6021   17.9449  -35.8522 H   0  0  0  0  0  0  0  0  0  0  0  0
   -4.9331   16.2881  -35.6355 H   0  0  0  0  0  0  0  0  0  0  0  0
   -3.9536   17.3282  -34.5043 H   0  0  0  0  0  0  0  0  0  0  0  0
   -6.6090   16.5240  -33.6520 H   0  0  0  0  0  0  0  0  0  0  0  0
   -4.5279   14.6412  -34.3452 H   0  0  0  0  0  0  0  0  0  0  0  0
   -5.2106   14.4939  -32.6660 H   0  0  0  0  0  0  0  0  0  0  0  0
   -7.2338   13.7668  -33.4019 H   0  0  0  0  0  0  0  0  0  0  0  0
   -7.2100   14.8233  -34.8544 H   0  0  0  0  0  0  0  0  0  0  0  0
   -6.2982   13.2756  -34.8544 H   0  0  0  0  0  0  0  0  0  0  0  0
   -4.6155   16.0587  -31.7671 H   0  0  0  0  0  0  0  0  0  0  0  0
   -4.4149   17.7012  -32.5602 H   0  0  0  0  0  0  0  0  0  0  0  0
   -6.2420   16.9299  -30.4737 H   0  0  0  0  0  0  0  0  0  0  0  0
   -6.0031   18.5322  -31.2389 H   0  0  0  0  0  0  0  0  0  0  0  0
   -7.0632   18.6069  -33.6659 H   0  0  0  0  0  0  0  0  0  0  0  0
   -8.8037   18.3880  -33.2231 H   0  0  0  0  0  0  0  0  0  0  0  0
   -7.0486   19.5399  -31.1070 H   0  0  0  0  0  0  0  0  0  0  0  0
   -9.8857   19.6884  -32.0060 H   0  0  0  0  0  0  0  0  0  0  0  0
   -9.1366   19.6527  -30.3381 H   0  0  0  0  0  0  0  0  0  0  0  0
   -9.7693   22.0020  -32.1154 H   0  0  0  0  0  0  0  0  0  0  0  0
  -10.0594   21.7384  -30.3400 H   0  0  0  0  0  0  0  0  0  0  0  0
   -8.2940   23.4517  -30.8282 H   0  0  0  0  0  0  0  0  0  0  0  0
   -7.7201   22.0409  -29.8502 H   0  0  0  0  0  0  0  0  0  0  0  0
   -4.7730   23.3140  -33.6370 H   0  0  0  0  0  0  0  0  0  0  0  0
   -4.7412   20.3265  -34.1290 H   0  0  0  0  0  0  0  0  0  0  0  0
   -3.0258   18.5359  -33.8594 H   0  0  0  0  0  0  0  0  0  0  0  0
   -1.1472   18.8302  -32.2391 H   0  0  0  0  0  0  0  0  0  0  0  0
   -0.9910   20.9191  -30.8766 H   0  0  0  0  0  0  0  0  0  0  0  0
   -2.7049   22.7124  -31.1364 H   0  0  0  0  0  0  0  0  0  0  0  0
   -7.7915   21.2027  -33.5653 H   0  0  0  0  0  0  0  0  0  0  0  0
   -6.1350   20.6808  -33.1053 H   0  0  0  0  0  0  0  0  0  0  0  0
  1  2  1  0
  2  3  1  0
  3  4  1  0
  4  5  1  0
  3  6  1  0
  6  7  1  0
  7  8  1  0
  8  9  1  0
  9 10  1  0
 10 11  1  0
 11 12  1  0
 12 13  1  0
 13 14  1  0
 14 15  1  0
 15 16  2  0
 15 17  1  0
 17 18  1  0
 18 19  2  0
 19 20  1  0
 20 21  2  0
 21 22  1  0
 22 23  2  0
 14 24  1  0
 24 10  1  0
 23 18  1  0
  1 25  1  0
  1 26  1  0
  1 27  1  0
  2 28  1  0
  2 29  1  0
  3 30  1  0
  4 31  1  0
  4 32  1  0
  5 33  1  0
  5 34  1  0
  5 35  1  0
  6 36  1  0
  6 37  1  0
  7 38  1  0
  7 39  1  0
  9 40  1  0
  9 41  1  0
 10 42  1  1
 11 43  1  0
 11 44  1  0
 12 45  1  0
 12 46  1  0
 13 47  1  0
 13 48  1  0
 17 49  1  0
 19 50  1  0
 20 51  1  0
 21 52  1  0
 22 53  1  0
 23 54  1  0
 24 55  1  0
 24 56  1  0
M  CHG  1   3   1
M  END
>  <UniqueID>  (10) 
9

>  <SMILES>  (10) 
CC[NH+](CC)CCOC[C@@H]1CCCN(C(=S)Nc2ccccc2)C1

>  <Energy>  (10) 
70.08818953473013

>  <Genealogy>  (10) 
CC[NH+](CC)CCOCC1CCCN(C(=S)Nc2ccccc2)C1 (protonated)
CC[NH+](CC)CCOC[C@@H]1CCCN(C(=S)Nc2ccccc2)C1 (chirality)
CC[NH+](CC)CCOC[C@@H]1CCCN(C(=S)Nc2ccccc2)C1 (3D coordinates assigned)
CC[NH+](CC)CCOC[C@@H]1CCCN(C(=S)Nc2ccccc2)C1 (nonaromatic ring conformer: 70.08818953473013 kcal/mol)

>  <smiles>  (10) 
CCN(CC)CCOCC1CCCN(C(=S)Nc2ccccc2)C1

>  <score_type>  (10) 
oracle

>  <origin>  (10) 
adg

>  <m_score__min__energy>  (10) 
-7.4900000000000002

>  <m_primary>  (10) 
energy

$$$$
10:0
     RDKit          3D

 52 55  0  0  0  0  0  0  0  0999 V2000
   -3.4040   24.4050  -27.4200 C   0  0  0  0  0  0  0  0  0  0  0  0
   -2.4370   24.8520  -28.5110 C   0  0  0  0  0  0  0  0  0  0  0  0
   -3.1390   25.1370  -29.7220 O   0  0  0  0  0  0  0  0  0  0  0  0
   -4.3020   24.4910  -30.1770 C   0  0  0  0  0  0  0  0  0  0  0  0
   -5.5150   25.1840  -30.3540 C   0  0  0  0  0  0  0  0  0  0  0  0
   -6.6540   24.5240  -30.8120 C   0  0  0  0  0  0  0  0  0  0  0  0
   -6.6110   23.1540  -31.1060 C   0  0  0  0  0  0  0  0  0  0  0  0
   -7.7420   22.4580  -31.5710 C   0  0  0  0  0  0  0  0  0  0  0  0
   -8.8390   23.0610  -31.7360 O   0  0  0  0  0  0  0  0  0  0  0  0
   -7.6370   21.0860  -31.8510 C   0  0  0  0  0  0  0  0  0  0  0  0
   -8.7280   20.3310  -32.3210 C   0  0  0  0  0  0  0  0  0  0  0  0
   -8.5740   18.9660  -32.5860 C   0  0  0  0  0  0  0  0  0  0  0  0
   -7.3380   18.3460  -32.3880 C   0  0  0  0  0  0  0  0  0  0  0  0
   -6.2480   19.0870  -31.9210 C   0  0  0  0  0  0  0  0  0  0  0  0
   -6.3900   20.4520  -31.6520 C   0  0  0  0  0  0  0  0  0  0  0  0
   -5.3470   21.1440  -31.2100 O   0  0  0  0  0  0  0  0  0  0  0  0
   -5.3990   22.4450  -30.9360 C   0  0  0  0  0  0  0  0  0  0  0  0
   -4.2440   23.1100  -30.4740 C   0  0  0  0  0  0  0  0  0  0  0  0
   -2.9410   22.3380  -30.3240 C   0  0  0  0  0  0  0  0  0  0  0  0
   -2.8110   21.2410  -31.3240 N   0  0  1  0  0  0  0  0  0  0  0  0
   -2.9440   21.7940  -32.7040 C   0  0  0  0  0  0  0  0  0  0  0  0
   -2.4000   20.8670  -33.8110 C   0  0  0  0  0  0  0  0  0  0  0  0
   -2.3910   19.4120  -33.3630 C   0  0  0  0  0  0  0  0  0  0  0  0
   -1.5240   19.2370  -32.1100 C   0  0  0  0  0  0  0  0  0  0  0  0
   -1.5280   20.4860  -31.1840 C   0  0  2  0  0  0  0  0  0  0  0  0
   -1.2370   20.0270  -29.7400 C   0  0  0  0  0  0  0  0  0  0  0  0
   -2.9630   24.6089  -26.4331 H   0  0  0  0  0  0  0  0  0  0  0  0
   -4.3502   24.9571  -27.5199 H   0  0  0  0  0  0  0  0  0  0  0  0
   -3.5964   23.3266  -27.5199 H   0  0  0  0  0  0  0  0  0  0  0  0
   -1.9099   25.7580  -28.1773 H   0  0  0  0  0  0  0  0  0  0  0  0
   -1.7187   24.0409  -28.7011 H   0  0  0  0  0  0  0  0  0  0  0  0
   -5.5642   26.2594  -30.1280 H   0  0  0  0  0  0  0  0  0  0  0  0
   -7.5929   25.0818  -30.9436 H   0  0  0  0  0  0  0  0  0  0  0  0
   -9.7030   20.8149  -32.4801 H   0  0  0  0  0  0  0  0  0  0  0  0
   -9.4293   18.3788  -32.9516 H   0  0  0  0  0  0  0  0  0  0  0  0
   -7.2219   17.2729  -32.5999 H   0  0  0  0  0  0  0  0  0  0  0  0
   -5.2766   18.5951  -31.7648 H   0  0  0  0  0  0  0  0  0  0  0  0
   -2.1004   23.0355  -30.4539 H   0  0  0  0  0  0  0  0  0  0  0  0
   -2.9357   21.8813  -29.3233 H   0  0  0  0  0  0  0  0  0  0  0  0
   -3.5980   20.5680  -31.1630 H   0  0  0  0  0  0  0  0  0  0  0  0
   -4.0105   21.9777  -32.9009 H   0  0  0  0  0  0  0  0  0  0  0  0
   -2.3407   22.7132  -32.7361 H   0  0  0  0  0  0  0  0  0  0  0  0
   -3.0367   20.9628  -34.7029 H   0  0  0  0  0  0  0  0  0  0  0  0
   -1.3656   21.1663  -34.0356 H   0  0  0  0  0  0  0  0  0  0  0  0
   -3.4205   19.0972  -33.1369 H   0  0  0  0  0  0  0  0  0  0  0  0
   -1.9728   18.7950  -34.1720 H   0  0  0  0  0  0  0  0  0  0  0  0
   -1.9041   18.3771  -31.5390 H   0  0  0  0  0  0  0  0  0  0  0  0
   -0.4884   19.0832  -32.4475 H   0  0  0  0  0  0  0  0  0  0  0  0
   -0.7373   21.1925  -31.4765 H   0  0  0  0  0  0  0  0  0  0  0  0
   -1.6876   20.7377  -29.0315 H   0  0  0  0  0  0  0  0  0  0  0  0
   -1.6665   19.0271  -29.5795 H   0  0  0  0  0  0  0  0  0  0  0  0
   -0.1494   19.9889  -29.5795 H   0  0  0  0  0  0  0  0  0  0  0  0
  1  2  1  0
  2  3  1  0
  3  4  1  0
  4  5  2  0
  5  6  1  0
  6  7  2  0
  7  8  1  0
  8  9  2  0
  8 10  1  0
 10 11  2  0
 11 12  1  0
 12 13  2  0
 13 14  1  0
 14 15  2  0
 15 16  1  0
 16 17  1  0
 17 18  2  0
 18 19  1  0
 19 20  1  0
 20 21  1  0
 21 22  1  0
 22 23  1  0
 23 24  1  0
 24 25  1  0
 25 26  1  0
 18  4  1  0
 25 20  1  0
 17  7  1  0
 15 10  1  0
  1 27  1  0
  1 28  1  0
  1 29  1  0
  2 30  1  0
  2 31  1  0
  5 32  1  0
  6 33  1  0
 11 34  1  0
 12 35  1  0
 13 36  1  0
 14 37  1  0
 19 38  1  0
 19 39  1  0
 20 40  1  1
 21 41  1  0
 21 42  1  0
 22 43  1  0
 22 44  1  0
 23 45  1  0
 23 46  1  0
 24 47  1  0
 24 48  1  0
 25 49  1  6
 26 50  1  0
 26 51  1  0
 26 52  1  0
M  CHG  1  20   1
M  END
>  <UniqueID>  (11) 
10

>  <SMILES>  (11) 
CCOc1ccc2c(=O)c3ccccc3oc2c1C[N@H+]1CCCC[C@@H]1C

>  <Energy>  (11) 
71.48261963611372

>  <Genealogy>  (11) 
CCOc1ccc2c(=O)c3ccccc3oc2c1C[NH+]1CCCCC1C (protonated)
CCOc1ccc2c(=O)c3ccccc3oc2c1C[N@H+]1CCCC[C@@H]1C (chirality)
CCOc1ccc2c(=O)c3ccccc3oc2c1C[N@H+]1CCCC[C@@H]1C (3D coordinates assigned)
CCOc1ccc2c(=O)c3ccccc3oc2c1C[N@H+]1CCCC[C@@H]1C (nonaromatic ring conformer: 71.48261963611372 kcal/mol)

>  <smiles>  (11) 
CCOc1ccc2c(=O)c3ccccc3oc2c1CN1CCCCC1C

>  <score_type>  (11) 
oracle

>  <origin>  (11) 
adg

>  <m_score__min__energy>  (11) 
-8.3000000000000007

>  <m_primary>  (11) 
energy

$$$$
11:0
     RDKit          3D

 35 37  0  0  0  0  0  0  0  0999 V2000
   -9.5100   21.8220  -31.7860 C   0  0  0  0  0  0  0  0  0  0  0  0
   -8.4200   20.8340  -31.8250 N   0  0  0  0  0  0  0  0  0  0  0  0
   -8.7270   19.5240  -31.5780 C   0  0  0  0  0  0  0  0  0  0  0  0
   -7.7430   18.5420  -31.5990 C   0  0  0  0  0  0  0  0  0  0  0  0
   -6.4300   18.8960  -31.8700 C   0  0  0  0  0  0  0  0  0  0  0  0
   -6.0980   20.2290  -32.1260 C   0  0  0  0  0  0  0  0  0  0  0  0
   -7.1170   21.2170  -32.0690 C   0  0  0  0  0  0  0  0  0  0  0  0
   -6.7850   22.6780  -32.3540 C   0  0  0  0  0  0  0  0  0  0  0  0
   -5.2800   23.0240  -32.3350 C   0  0  1  0  0  0  0  0  0  0  0  0
   -4.7250   23.3580  -30.9550 C   0  0  0  0  0  0  0  0  0  0  0  0
   -5.4760   24.1890  -30.1030 C   0  0  0  0  0  0  0  0  0  0  0  0
   -4.9880   24.5480  -28.8430 C   0  0  0  0  0  0  0  0  0  0  0  0
   -3.7390   24.0910  -28.4210 C   0  0  0  0  0  0  0  0  0  0  0  0
   -2.9740   23.2780  -29.2580 C   0  0  0  0  0  0  0  0  0  0  0  0
   -3.4570   22.9160  -30.5190 C   0  0  0  0  0  0  0  0  0  0  0  0
   -4.4640   21.9280  -33.0290 C   0  0  0  0  0  0  0  0  0  0  0  0
   -4.6470   20.5750  -32.3430 C   0  0  0  0  0  0  0  0  0  0  0  0
   -9.7612   22.0497  -30.7396 H   0  0  0  0  0  0  0  0  0  0  0  0
   -9.1886   22.7429  -32.2946 H   0  0  0  0  0  0  0  0  0  0  0  0
  -10.3949   21.4119  -32.2946 H   0  0  0  0  0  0  0  0  0  0  0  0
   -9.7679   19.2434  -31.3595 H   0  0  0  0  0  0  0  0  0  0  0  0
   -8.0042   17.4918  -31.4020 H   0  0  0  0  0  0  0  0  0  0  0  0
   -5.6464   18.1242  -31.8835 H   0  0  0  0  0  0  0  0  0  0  0  0
   -7.1798   22.9291  -33.3495 H   0  0  0  0  0  0  0  0  0  0  0  0
   -7.2433   23.2603  -31.5411 H   0  0  0  0  0  0  0  0  0  0  0  0
   -5.1788   23.9586  -32.9062 H   0  0  0  0  0  0  0  0  0  0  0  0
   -6.4578   24.5602  -30.4320 H   0  0  0  0  0  0  0  0  0  0  0  0
   -5.5892   25.1913  -28.1837 H   0  0  0  0  0  0  0  0  0  0  0  0
   -3.3574   24.3717  -27.4282 H   0  0  0  0  0  0  0  0  0  0  0  0
   -1.9883   22.9210  -28.9248 H   0  0  0  0  0  0  0  0  0  0  0  0
   -2.8443   22.2818  -31.1766 H   0  0  0  0  0  0  0  0  0  0  0  0
   -4.7930   21.8457  -34.0754 H   0  0  0  0  0  0  0  0  0  0  0  0
   -3.4001   22.2021  -32.9737 H   0  0  0  0  0  0  0  0  0  0  0  0
   -4.1888   19.7965  -32.9707 H   0  0  0  0  0  0  0  0  0  0  0  0
   -4.1662   20.6334  -31.3554 H   0  0  0  0  0  0  0  0  0  0  0  0
  1  2  1  0
  2  3  2  0
  3  4  1  0
  4  5  2  0
  5  6  1  0
  6  7  2  0
  7  8  1  0
  8  9  1  0
  9 10  1  0
 10 11  2  0
 11 12  1  0
 12 13  2  0
 13 14  1  0
 14 15  2  0
  9 16  1  0
 16 17  1  0
  7  2  1  0
 15 10  1  0
 17  6  1  0
  1 18  1  0
  1 19  1  0
  1 20  1  0
  3 21  1  0
  4 22  1  0
  5 23  1  0
  8 24  1  0
  8 25  1  0
  9 26  1  6
 11 27  1  0
 12 28  1  0
 13 29  1  0
 14 30  1  0
 15 31  1  0
 16 32  1  0
 16 33  1  0
 17 34  1  0
 17 35  1  0
M  CHG  1   2   1
M  END
>  <UniqueID>  (12) 
11

>  <SMILES>  (12) 
C[n+]1cccc2c1C[C@@H](c1ccccc1)CC2

>  <Energy>  (12) 
43.12420234867134

>  <Genealogy>  (12) 
C[n+]1cccc2c1C[C@@H](c1ccccc1)CC2 (chirality)
C[n+]1cccc2c1C[C@@H](c1ccccc1)CC2 (3D coordinates assigned)
C[n+]1cccc2c1C[C@@H](c1ccccc1)CC2 (nonaromatic ring conformer: 43.12420234867134 kcal/mol)

>  <smiles>  (12) 
C[n+]1cccc2c1CC(c1ccccc1)CC2

>  <score_type>  (12) 
oracle

>  <origin>  (12) 
adg

>  <m_score__min__energy>  (12) 
-6.5

>  <m_primary>  (12) 
energy

$$$$
12:0
     RDKit          3D

 53 56  0  0  0  0  0  0  0  0999 V2000
   -2.1060   22.0140  -30.9580 C   0  0  0  0  0  0  0  0  0  0  0  0
   -2.8080   21.7560  -32.2910 C   0  0  0  0  0  0  0  0  0  0  0  0
   -4.1850   21.0900  -32.1130 C   0  0  0  0  0  0  0  0  0  0  0  0
   -4.9390   20.8510  -33.4340 C   0  0  0  0  0  0  0  0  0  0  0  0
   -5.8830   19.7310  -33.3410 N   0  0  0  0  0  0  0  0  0  0  0  0
   -7.2150   19.7730  -33.0520 C   0  0  0  0  0  0  0  0  0  0  0  0
   -7.9620   21.0150  -32.6510 C   0  0  0  0  0  0  0  0  0  0  0  0
   -7.0770   21.9510  -31.9280 N   0  0  0  0  0  0  0  0  0  0  0  0
   -7.2430   23.3190  -32.4390 C   0  0  0  0  0  0  0  0  0  0  0  0
   -6.0780   24.1670  -31.9430 C   0  0  0  0  0  0  0  0  0  0  0  0
   -5.7800   23.9050  -30.5270 N   0  0  0  0  0  0  0  0  0  0  0  0
   -4.6680   24.6040  -29.9220 C   0  0  0  0  0  0  0  0  0  0  0  0
   -3.8660   25.2530  -30.6510 O   0  0  0  0  0  0  0  0  0  0  0  0
   -4.4060   24.5420  -28.4410 C   0  0  0  0  0  0  0  0  0  0  0  0
   -3.8750   23.2100  -27.9270 C   0  0  0  0  0  0  0  0  0  0  0  0
   -2.9390   24.3970  -28.0630 C   0  0  0  0  0  0  0  0  0  0  0  0
   -6.7100   23.1080  -29.7050 C   0  0  0  0  0  0  0  0  0  0  0  0
   -7.3300   21.9150  -30.4690 C   0  0  0  0  0  0  0  0  0  0  0  0
   -7.8080   18.5510  -33.0530 N   0  0  0  0  0  0  0  0  0  0  0  0
   -6.7960   17.7220  -33.3630 C   0  0  0  0  0  0  0  0  0  0  0  0
   -6.8480   16.3360  -33.4940 C   0  0  0  0  0  0  0  0  0  0  0  0
   -5.6520   15.6620  -33.8060 C   0  0  0  0  0  0  0  0  0  0  0  0
   -4.4470   16.3810  -33.9700 C   0  0  0  0  0  0  0  0  0  0  0  0
   -4.4280   17.7800  -33.8280 C   0  0  0  0  0  0  0  0  0  0  0  0
   -5.6340   18.4210  -33.5290 C   0  0  0  0  0  0  0  0  0  0  0  0
   -2.7865   21.7639  -30.1308 H   0  0  0  0  0  0  0  0  0  0  0  0
   -1.2033   21.3889  -30.8920 H   0  0  0  0  0  0  0  0  0  0  0  0
   -1.8230   23.0749  -30.8920 H   0  0  0  0  0  0  0  0  0  0  0  0
   -2.9450   22.7165  -32.8093 H   0  0  0  0  0  0  0  0  0  0  0  0
   -2.1770   21.0686  -32.8735 H   0  0  0  0  0  0  0  0  0  0  0  0
   -4.0384   20.1189  -31.6175 H   0  0  0  0  0  0  0  0  0  0  0  0
   -4.7986   21.7809  -31.5162 H   0  0  0  0  0  0  0  0  0  0  0  0
   -5.4965   21.7631  -33.6933 H   0  0  0  0  0  0  0  0  0  0  0  0
   -4.1958   20.6019  -34.2057 H   0  0  0  0  0  0  0  0  0  0  0  0
   -8.3492   21.5099  -33.5539 H   0  0  0  0  0  0  0  0  0  0  0  0
   -8.7897   20.7283  -31.9856 H   0  0  0  0  0  0  0  0  0  0  0  0
   -7.2499   23.3056  -33.5389 H   0  0  0  0  0  0  0  0  0  0  0  0
   -8.1941   23.7410  -32.0822 H   0  0  0  0  0  0  0  0  0  0  0  0
   -5.1865   23.9347  -32.5440 H   0  0  0  0  0  0  0  0  0  0  0  0
   -6.3565   25.2263  -32.0450 H   0  0  0  0  0  0  0  0  0  0  0  0
   -5.2288   25.2130  -28.1533 H   0  0  0  0  0  0  0  0  0  0  0  0
   -4.1656   22.8505  -26.9289 H   0  0  0  0  0  0  0  0  0  0  0  0
   -3.8780   22.1754  -28.3007 H   0  0  0  0  0  0  0  0  0  0  0  0
   -2.5513   24.8971  -27.1632 H   0  0  0  0  0  0  0  0  0  0  0  0
   -1.9829   24.5777  -28.5761 H   0  0  0  0  0  0  0  0  0  0  0  0
   -6.1614   22.7186  -28.8347 H   0  0  0  0  0  0  0  0  0  0  0  0
   -7.5361   23.7717  -29.4099 H   0  0  0  0  0  0  0  0  0  0  0  0
   -6.9051   20.9843  -30.0650 H   0  0  0  0  0  0  0  0  0  0  0  0
   -8.4195   21.9722  -30.3284 H   0  0  0  0  0  0  0  0  0  0  0  0
   -7.7915   15.7869  -33.3583 H   0  0  0  0  0  0  0  0  0  0  0  0
   -5.6558   14.5682  -33.9229 H   0  0  0  0  0  0  0  0  0  0  0  0
   -3.5180   15.8433  -34.2102 H   0  0  0  0  0  0  0  0  0  0  0  0
   -3.4954   18.3509  -33.9482 H   0  0  0  0  0  0  0  0  0  0  0  0
  1  2  1  0
  2  3  1  0
  3  4  1  0
  4  5  1  0
  5  6  1  0
  6  7  1  0
  7  8  1  0
  8  9  1  0
  9 10  1  0
 10 11  1  0
 11 12  1  0
 12 13  2  0
 12 14  1  0
 14 15  1  0
 15 16  1  0
 11 17  1  0
 17 18  1  0
  6 19  2  0
 19 20  1  0
 20 21  2  0
 21 22  1  0
 22 23  2  0
 23 24  1  0
 24 25  2  0
 25  5  1  0
 18  8  1  0
 25 20  1  0
 16 14  1  0
  1 26  1  0
  1 27  1  0
  1 28  1  0
  2 29  1  0
  2 30  1  0
  3 31  1  0
  3 32  1  0
  4 33  1  0
  4 34  1  0
  7 35  1  0
  7 36  1  0
  9 37  1  0
  9 38  1  0
 10 39  1  0
 10 40  1  0
 14 41  1  0
 15 42  1  0
 15 43  1  0
 16 44  1  0
 16 45  1  0
 17 46  1  0
 17 47  1  0
 18 48  1  0
 18 49  1  0
 21 50  1  0
 22 51  1  0
 23 52  1  0
 24 53  1  0
M  END
>  <UniqueID>  (13) 
12

>  <SMILES>  (13) 
CCCCn1c(CN2CCN(C(=O)C3CC3)CC2)nc2ccccc21

>  <Energy>  (13) 
355.01031944307516

>  <Genealogy>  (13) 
CCCCn1c(CN2CCN(C(=O)C3CC3)CC2)nc2ccccc21 (3D coordinates assigned)
CCCCn1c(CN2CCN(C(=O)C3CC3)CC2)nc2ccccc21 (nonaromatic ring conformer: 355.01031944307516 kcal/mol)

>  <smiles>  (13) 
CCCCn1c(CN2CCN(C(=O)C3CC3)CC2)nc2ccccc21

>  <score_type>  (13) 
oracle

>  <origin>  (13) 
adg

>  <m_score__min__energy>  (13) 
-8.4199999999999999

>  <m_primary>  (13) 
energy

$$$$
13:0
     RDKit          3D

 36 38  0  0  1  0  0  0  0  0999 V2000
   -2.7010   24.2270  -29.4310 C   0  0  0  0  0  0  0  0  0  0  0  0
   -3.4950   24.9250  -30.3830 O   0  0  0  0  0  0  0  0  0  0  0  0
   -4.7650   24.3880  -30.6630 C   0  0  0  0  0  0  0  0  0  0  0  0
   -5.8420   24.9060  -29.9630 C   0  0  0  0  0  0  0  0  0  0  0  0
   -7.1130   24.4230  -30.1900 C   0  0  0  0  0  0  0  0  0  0  0  0
   -7.3470   23.4140  -31.1200 C   0  0  0  0  0  0  0  0  0  0  0  0
   -8.5840   22.8960  -31.3860 O   0  0  0  0  0  0  0  0  0  0  0  0
   -9.4890   23.3740  -32.3380 C   0  0  0  0  0  0  0  0  0  0  0  0
   -6.2510   22.8940  -31.8240 C   0  0  0  0  0  0  0  0  0  0  0  0
   -6.4480   21.9350  -32.7790 N   0  0  0  0  0  0  0  0  0  0  0  0
   -6.3090   20.6920  -32.7800 C   0  0  0  0  0  0  0  0  0  0  0  0
   -5.0990   20.1590  -33.1870 C   0  0  0  0  0  0  0  0  0  0  0  0
   -4.8850   18.8000  -33.2090 C   0  0  0  0  0  0  0  0  0  0  0  0
   -3.5990   18.1970  -33.6410 C   0  0  0  0  0  0  0  0  0  0  0  0
   -5.9390   18.0340  -32.8050 N   0  0  0  0  0  0  0  0  0  0  0  0
   -7.0990   18.5840  -32.4160 C   0  0  0  0  0  0  0  0  0  0  0  0
   -8.2310   17.9950  -31.9920 N   0  0  0  0  0  0  0  0  0  0  0  0
   -9.1030   18.9810  -31.7220 C   0  0  0  0  0  0  0  0  0  0  0  0
   -8.5130   20.1950  -31.9790 N   0  0  0  0  0  0  0  0  0  0  0  0
   -7.3230   19.9190  -32.3890 N   0  0  0  0  0  0  0  0  0  0  0  0
   -4.9590   23.3970  -31.5830 C   0  0  0  0  0  0  0  0  0  0  0  0
   -3.0176   24.5053  -28.4150 H   0  0  0  0  0  0  0  0  0  0  0  0
   -2.8287   23.1434  -29.5710 H   0  0  0  0  0  0  0  0  0  0  0  0
   -1.6428   24.4926  -29.5710 H   0  0  0  0  0  0  0  0  0  0  0  0
   -5.6827   25.7050  -29.2239 H   0  0  0  0  0  0  0  0  0  0  0  0
   -7.9585   24.8430  -29.6254 H   0  0  0  0  0  0  0  0  0  0  0  0
  -10.3510   23.8293  -31.8284 H   0  0  0  0  0  0  0  0  0  0  0  0
   -8.9946   24.1286  -32.9674 H   0  0  0  0  0  0  0  0  0  0  0  0
   -9.8336   22.5403  -32.9674 H   0  0  0  0  0  0  0  0  0  0  0  0
   -4.2906   20.8362  -33.4998 H   0  0  0  0  0  0  0  0  0  0  0  0
   -3.0082   17.9200  -32.7555 H   0  0  0  0  0  0  0  0  0  0  0  0
   -3.7993   17.2989  -34.2438 H   0  0  0  0  0  0  0  0  0  0  0  0
   -3.0367   18.9253  -34.2438 H   0  0  0  0  0  0  0  0  0  0  0  0
  -10.1293   18.8385  -31.3527 H   0  0  0  0  0  0  0  0  0  0  0  0
   -9.0750   21.0470  -31.8130 H   0  0  0  0  0  0  0  0  0  0  0  0
   -4.1010   22.9901  -32.1382 H   0  0  0  0  0  0  0  0  0  0  0  0
  1  2  1  0
  2  3  1  0
  3  4  2  0
  4  5  1  0
  5  6  2  0
  6  7  1  0
  7  8  1  0
  6  9  1  0
  9 10  1  0
 10 11  2  0
 11 12  1  0
 12 13  2  0
 13 14  1  0
 13 15  1  0
 15 16  2  0
 16 17  1  0
 17 18  2  0
 18 19  1  0
 19 20  1  0
  9 21  2  0
 21  3  1  0
 20 11  1  0
 20 16  1  0
  1 22  1  0
  1 23  1  0
  1 24  1  0
  4 25  1  0
  5 26  1  0
  8 27  1  0
  8 28  1  0
  8 29  1  0
 12 30  1  0
 14 31  1  0
 14 32  1  0
 14 33  1  0
 18 34  1  0
 19 35  1  0
 21 36  1  0
M  END
>  <smiles>  (14) 
COc1ccc(OC)c(N=c2cc(C)nc3nc[nH]n23)c1

>  <score_type>  (14) 
oracle

>  <origin>  (14) 
adg

>  <m_score__min__energy>  (14) 
-6.79

>  <m_primary>  (14) 
energy

$$$$
14:0
     RDKit          3D

 57 60  0  0  0  0  0  0  0  0999 V2000
   -9.4830   20.0960  -32.3000 C   0  0  0  0  0  0  0  0  0  0  0  0
   -8.8420   18.8410  -32.5070 O   0  0  0  0  0  0  0  0  0  0  0  0
   -7.4810   18.6880  -32.8100 C   0  0  0  0  0  0  0  0  0  0  0  0
   -6.7460   17.7330  -32.0990 C   0  0  0  0  0  0  0  0  0  0  0  0
   -5.3860   17.5430  -32.3630 C   0  0  0  0  0  0  0  0  0  0  0  0
   -4.7410   18.3110  -33.3440 C   0  0  0  0  0  0  0  0  0  0  0  0
   -3.2680   18.1230  -33.5970 C   0  0  0  0  0  0  0  0  0  0  0  0
   -2.4940   19.1500  -32.8750 N   0  0  0  0  0  0  0  0  0  0  0  0
   -1.2420   18.5860  -32.3330 C   0  0  0  0  0  0  0  0  0  0  0  0
   -0.2650   19.6900  -31.8610 C   0  0  0  0  0  0  0  0  0  0  0  0
   -0.9390   20.9890  -31.6400 N   0  0  0  0  0  0  0  0  0  0  0  0
   -1.8570   20.9310  -30.4690 C   0  0  0  0  0  0  0  0  0  0  0  0
   -2.6320   22.2270  -30.2810 C   0  0  0  0  0  0  0  0  0  0  0  0
   -1.9570   23.3280  -29.7210 C   0  0  0  0  0  0  0  0  0  0  0  0
   -2.6130   24.5490  -29.5010 C   0  0  0  0  0  0  0  0  0  0  0  0
   -1.9660   25.6590  -28.9380 O   0  0  0  0  0  0  0  0  0  0  0  0
   -1.3410   25.6650  -27.6570 C   0  0  0  0  0  0  0  0  0  0  0  0
   -3.9580   24.6760  -29.8470 C   0  0  0  0  0  0  0  0  0  0  0  0
   -4.6570   23.6030  -30.4160 C   0  0  0  0  0  0  0  0  0  0  0  0
   -6.0090   23.7570  -30.7620 C   0  0  0  0  0  0  0  0  0  0  0  0
   -6.7150   22.6980  -31.3330 C   0  0  0  0  0  0  0  0  0  0  0  0
   -6.0810   21.4790  -31.5640 C   0  0  0  0  0  0  0  0  0  0  0  0
   -4.7370   21.3080  -31.2250 C   0  0  0  0  0  0  0  0  0  0  0  0
   -4.0000   22.3630  -30.6420 C   0  0  0  0  0  0  0  0  0  0  0  0
   -1.6110   21.4580  -32.8830 C   0  0  0  0  0  0  0  0  0  0  0  0
   -2.2060   20.3140  -33.7290 C   0  0  0  0  0  0  0  0  0  0  0  0
   -5.4750   19.2700  -34.0580 C   0  0  0  0  0  0  0  0  0  0  0  0
   -6.8350   19.4580  -33.7950 C   0  0  0  0  0  0  0  0  0  0  0  0
   -9.5795   20.2848  -31.2206 H   0  0  0  0  0  0  0  0  0  0  0  0
   -8.8824   20.8947  -32.7598 H   0  0  0  0  0  0  0  0  0  0  0  0
  -10.4821   20.0777  -32.7598 H   0  0  0  0  0  0  0  0  0  0  0  0
   -7.2418   17.1270  -31.3264 H   0  0  0  0  0  0  0  0  0  0  0  0
   -4.8192   16.7878  -31.7988 H   0  0  0  0  0  0  0  0  0  0  0  0
   -2.9634   17.1255  -33.2476 H   0  0  0  0  0  0  0  0  0  0  0  0
   -3.0732   18.2178  -34.6755 H   0  0  0  0  0  0  0  0  0  0  0  0
   -1.4853   17.9379  -31.4781 H   0  0  0  0  0  0  0  0  0  0  0  0
   -0.7499   18.0176  -33.1360 H   0  0  0  0  0  0  0  0  0  0  0  0
    0.2000   19.3691  -30.9172 H   0  0  0  0  0  0  0  0  0  0  0  0
    0.4841   19.8336  -32.6536 H   0  0  0  0  0  0  0  0  0  0  0  0
   -0.1810   21.6780  -31.4240 H   0  0  0  0  0  0  0  0  0  0  0  0
   -2.5724   20.1092  -30.6202 H   0  0  0  0  0  0  0  0  0  0  0  0
   -1.2459   20.7695  -29.5687 H   0  0  0  0  0  0  0  0  0  0  0  0
   -0.8953   23.2295  -29.4507 H   0  0  0  0  0  0  0  0  0  0  0  0
   -2.1122   25.6576  -26.8727 H   0  0  0  0  0  0  0  0  0  0  0  0
   -0.7056   24.7729  -27.5549 H   0  0  0  0  0  0  0  0  0  0  0  0
   -0.7228   26.5691  -27.5549 H   0  0  0  0  0  0  0  0  0  0  0  0
   -4.4765   25.6301  -29.6711 H   0  0  0  0  0  0  0  0  0  0  0  0
   -6.5140   24.7175  -30.5819 H   0  0  0  0  0  0  0  0  0  0  0  0
   -7.7741   22.8255  -31.6014 H   0  0  0  0  0  0  0  0  0  0  0  0
   -6.6417   20.6473  -32.0155 H   0  0  0  0  0  0  0  0  0  0  0  0
   -4.2470   20.3415  -31.4139 H   0  0  0  0  0  0  0  0  0  0  0  0
   -2.4246   22.1428  -32.6019 H   0  0  0  0  0  0  0  0  0  0  0  0
   -0.8448   21.9515  -33.4989 H   0  0  0  0  0  0  0  0  0  0  0  0
   -3.1378   20.6578  -34.2017 H   0  0  0  0  0  0  0  0  0  0  0  0
   -1.4796   20.0225  -34.5018 H   0  0  0  0  0  0  0  0  0  0  0  0
   -4.9777   19.8771  -34.8288 H   0  0  0  0  0  0  0  0  0  0  0  0
   -7.4029   20.2114  -34.3606 H   0  0  0  0  0  0  0  0  0  0  0  0
  1  2  1  0
  2  3  1  0
  3  4  2  0
  4  5  1  0
  5  6  2  0
  6  7  1  0
  7  8  1  0
  8  9  1  0
  9 10  1  0
 10 11  1  0
 11 12  1  0
 12 13  1  0
 13 14  2  0
 14 15  1  0
 15 16  1  0
 16 17  1  0
 15 18  2  0
 18 19  1  0
 19 20  2  0
 20 21  1  0
 21 22  2  0
 22 23  1  0
 23 24  2  0
 11 25  1  0
 25 26  1  0
  6 27  1  0
 27 28  2  0
 28  3  1  0
 26  8  1  0
 24 13  1  0
 24 19  1  0
  1 29  1  0
  1 30  1  0
  1 31  1  0
  4 32  1  0
  5 33  1  0
  7 34  1  0
  7 35  1  0
  9 36  1  0
  9 37  1  0
 10 38  1  0
 10 39  1  0
 11 40  1  0
 12 41  1  0
 12 42  1  0
 14 43  1  0
 17 44  1  0
 17 45  1  0
 17 46  1  0
 18 47  1  0
 20 48  1  0
 21 49  1  0
 22 50  1  0
 23 51  1  0
 25 52  1  0
 25 53  1  0
 26 54  1  0
 26 55  1  0
 27 56  1  0
 28 57  1  0
M  CHG  1  11   1
M  END
>  <UniqueID>  (15) 
13

>  <SMILES>  (15) 
COc1ccc(CN2CC[NH+](Cc3cc(OC)cc4ccccc34)CC2)cc1

>  <Energy>  (15) 
75.75671468282108

>  <Genealogy>  (15) 
COc1ccc(CN2CC[NH+](Cc3cc(OC)cc4ccccc34)CC2)cc1 (protonated)
COc1ccc(CN2CC[NH+](Cc3cc(OC)cc4ccccc34)CC2)cc1 (3D coordinates assigned)
COc1ccc(CN2CC[NH+](Cc3cc(OC)cc4ccccc34)CC2)cc1 (nonaromatic ring conformer: 75.75671468282108 kcal/mol)

>  <smiles>  (15) 
COc1ccc(CN2CCN(Cc3cc(OC)cc4ccccc34)CC2)cc1

>  <score_type>  (15) 
oracle

>  <origin>  (15) 
adg

>  <m_score__min__energy>  (15) 
-8.1600000000000001

>  <m_primary>  (15) 
energy

$$$$
15:0
     RDKit          3D

 45 47  0  0  0  0  0  0  0  0999 V2000
   -9.4760   19.6070  -32.3480 C   0  0  0  0  0  0  0  0  0  0  0  0
   -9.5260   21.1360  -32.3120 C   0  0  0  0  0  0  0  0  0  0  0  0
   -9.0800   21.7040  -30.9570 C   0  0  0  0  0  0  0  0  0  0  0  0
   -7.6870   22.2660  -31.0160 C   0  0  0  0  0  0  0  0  0  0  0  0
   -7.4350   23.5290  -30.5640 N   0  0  0  0  0  0  0  0  0  0  0  0
   -6.2080   24.0770  -30.6040 N   0  0  0  0  0  0  0  0  0  0  0  0
   -6.0320   25.4320  -30.0810 C   0  0  0  0  0  0  0  0  0  0  0  0
   -5.1390   23.3790  -31.1120 C   0  0  0  0  0  0  0  0  0  0  0  0
   -3.9840   23.8860  -31.1170 O   0  0  0  0  0  0  0  0  0  0  0  0
   -5.3740   22.0920  -31.6110 C   0  0  0  0  0  0  0  0  0  0  0  0
   -6.6200   21.5530  -31.5510 C   0  0  0  0  0  0  0  0  0  0  0  0
   -6.6210   20.2940  -32.0210 N   0  0  0  0  0  0  0  0  0  0  0  0
   -5.3260   20.0990  -32.3710 C   0  0  0  0  0  0  0  0  0  0  0  0
   -4.5330   21.1840  -32.1560 N   0  0  0  0  0  0  0  0  0  0  0  0
   -3.0700   21.2650  -32.3290 C   0  0  0  0  0  0  0  0  0  0  0  0
   -2.5880   20.2810  -33.4200 C   0  0  0  0  0  0  0  0  0  0  0  0
   -1.3840   20.7910  -34.2320 C   0  0  0  0  0  0  0  0  0  0  0  0
   -0.0220   20.7670  -33.4990 C   0  0  0  0  0  0  0  0  0  0  0  0
   -0.0250   21.4250  -32.1040 C   0  0  0  0  0  0  0  0  0  0  0  0
   -0.8820   20.7110  -31.0230 C   0  0  0  0  0  0  0  0  0  0  0  0
   -2.3680   21.1140  -30.9560 C   0  0  0  0  0  0  0  0  0  0  0  0
   -9.4632   19.2163  -31.3198 H   0  0  0  0  0  0  0  0  0  0  0  0
  -10.3621   19.2235  -32.8750 H   0  0  0  0  0  0  0  0  0  0  0  0
   -8.5668   19.2822  -32.8750 H   0  0  0  0  0  0  0  0  0  0  0  0
   -8.8624   21.5298  -33.0959 H   0  0  0  0  0  0  0  0  0  0  0  0
  -10.5698   21.4416  -32.4768 H   0  0  0  0  0  0  0  0  0  0  0  0
   -9.7741   22.5043  -30.6610 H   0  0  0  0  0  0  0  0  0  0  0  0
   -9.0858   20.8832  -30.2247 H   0  0  0  0  0  0  0  0  0  0  0  0
   -6.0356   25.4039  -28.9814 H   0  0  0  0  0  0  0  0  0  0  0  0
   -5.0734   25.8397  -30.4342 H   0  0  0  0  0  0  0  0  0  0  0  0
   -6.8547   26.0711  -30.4342 H   0  0  0  0  0  0  0  0  0  0  0  0
   -4.9514   19.1531  -32.7893 H   0  0  0  0  0  0  0  0  0  0  0  0
   -2.7843   22.2588  -32.7042 H   0  0  0  0  0  0  0  0  0  0  0  0
   -2.3025   19.3368  -32.9331 H   0  0  0  0  0  0  0  0  0  0  0  0
   -3.4207   20.1562  -34.1278 H   0  0  0  0  0  0  0  0  0  0  0  0
   -1.2943   20.1656  -35.1324 H   0  0  0  0  0  0  0  0  0  0  0  0
   -1.5920   21.8502  -34.4435 H   0  0  0  0  0  0  0  0  0  0  0  0
    0.2845   19.7171  -33.3812 H   0  0  0  0  0  0  0  0  0  0  0  0
    0.6719   21.3558  -34.1169 H   0  0  0  0  0  0  0  0  0  0  0  0
    1.0139   21.4580  -31.7439 H   0  0  0  0  0  0  0  0  0  0  0  0
   -0.4818   22.4162  -32.2416 H   0  0  0  0  0  0  0  0  0  0  0  0
   -0.8362   19.6296  -31.2190 H   0  0  0  0  0  0  0  0  0  0  0  0
   -0.4510   21.0154  -30.0578 H   0  0  0  0  0  0  0  0  0  0  0  0
   -2.9044   20.3443  -30.3817 H   0  0  0  0  0  0  0  0  0  0  0  0
   -2.3951   22.1085  -30.4868 H   0  0  0  0  0  0  0  0  0  0  0  0
  1  2  1  0
  2  3  1  0
  3  4  1  0
  4  5  2  0
  5  6  1  0
  6  7  1  0
  6  8  1  0
  8  9  2  0
  8 10  1  0
 10 11  2  0
 11 12  1  0
 12 13  2  0
 13 14  1  0
 14 15  1  0
 15 16  1  0
 16 17  1  0
 17 18  1  0
 18 19  1  0
 19 20  1  0
 20 21  1  0
 11  4  1  0
 21 15  1  0
 14 10  1  0
  1 22  1  0
  1 23  1  0
  1 24  1  0
  2 25  1  0
  2 26  1  0
  3 27  1  0
  3 28  1  0
  7 29  1  0
  7 30  1  0
  7 31  1  0
 13 32  1  0
 15 33  1  0
 16 34  1  0
 16 35  1  0
 17 36  1  0
 17 37  1  0
 18 38  1  0
 18 39  1  0
 19 40  1  0
 19 41  1  0
 20 42  1  0
 20 43  1  0
 21 44  1  0
 21 45  1  0
M  END
>  <UniqueID>  (16) 
14

>  <SMILES>  (16) 
CCCc1nn(C)c(=O)c2c1ncn2C1CCCCCC1

>  <Energy>  (16) 
90.15971113396317

>  <Genealogy>  (16) 
CCCc1nn(C)c(=O)c2c1ncn2C1CCCCCC1 (3D coordinates assigned)
CCCc1nn(C)c(=O)c2c1ncn2C1CCCCCC1 (nonaromatic ring conformer: 90.15971113396317 kcal/mol)

>  <smiles>  (16) 
CCCc1nn(C)c(=O)c2c1ncn2C1CCCCCC1

>  <score_type>  (16) 
oracle

>  <origin>  (16) 
adg

>  <m_score__min__energy>  (16) 
-5.6100000000000003

>  <m_primary>  (16) 
energy

$$$$
16:0
     RDKit          3D

 48 52  0  0  0  0  0  0  0  0999 V2000
   -8.8660   18.3160  -31.5910 C   0  0  0  0  0  0  0  0  0  0  0  0
   -8.1050   18.6920  -32.7340 O   0  0  0  0  0  0  0  0  0  0  0  0
   -6.8110   19.2140  -32.6190 C   0  0  0  0  0  0  0  0  0  0  0  0
   -5.6880   18.4180  -32.8990 C   0  0  0  0  0  0  0  0  0  0  0  0
   -5.8290   16.9850  -33.2530 C   0  0  0  0  0  0  0  0  0  0  0  0
   -4.9460   16.0360  -32.7110 C   0  0  0  0  0  0  0  0  0  0  0  0
   -5.0770   14.6830  -33.0370 C   0  0  0  0  0  0  0  0  0  0  0  0
   -6.0930   14.2650  -33.9000 C   0  0  0  0  0  0  0  0  0  0  0  0
   -6.9820   15.1990  -34.4360 C   0  0  0  0  0  0  0  0  0  0  0  0
   -6.8560   16.5540  -34.1130 C   0  0  0  0  0  0  0  0  0  0  0  0
   -4.4420   18.9620  -32.8180 N   0  0  0  0  0  0  0  0  0  0  0  0
   -4.2240   20.2560  -32.4480 C   0  0  0  0  0  0  0  0  0  0  0  0
   -2.8180   20.6920  -32.3190 C   0  0  0  0  0  0  0  0  0  0  0  0
   -2.0160   20.8390  -33.4580 C   0  0  0  0  0  0  0  0  0  0  0  0
   -0.6790   21.2180  -33.3230 C   0  0  0  0  0  0  0  0  0  0  0  0
   -0.1540   21.4310  -32.0460 C   0  0  0  0  0  0  0  0  0  0  0  0
   -0.9400   21.2650  -30.9490 N   0  0  0  0  0  0  0  0  0  0  0  0
   -2.2460   20.8980  -31.0560 C   0  0  0  0  0  0  0  0  0  0  0  0
   -5.3300   21.1070  -32.1590 C   0  0  0  0  0  0  0  0  0  0  0  0
   -5.2020   22.4880  -31.8310 C   0  0  0  0  0  0  0  0  0  0  0  0
   -4.0630   23.0310  -31.8420 O   0  0  0  0  0  0  0  0  0  0  0  0
   -6.3080   23.2520  -31.5250 N   0  0  0  0  0  0  0  0  0  0  0  0
   -6.0940   24.6830  -31.1620 C   0  0  0  0  0  0  0  0  0  0  0  0
   -5.1540   24.9660  -29.9970 C   0  0  0  0  0  0  0  0  0  0  0  0
   -6.6620   25.1460  -29.8260 C   0  0  0  0  0  0  0  0  0  0  0  0
   -7.5560   22.6830  -31.5700 C   0  0  0  0  0  0  0  0  0  0  0  0
   -7.7320   21.3530  -31.9260 C   0  0  0  0  0  0  0  0  0  0  0  0
   -6.6280   20.5530  -32.2280 C   0  0  0  0  0  0  0  0  0  0  0  0
   -8.3155   18.5880  -30.6783 H   0  0  0  0  0  0  0  0  0  0  0  0
   -9.8331   18.8400  -31.6058 H   0  0  0  0  0  0  0  0  0  0  0  0
   -9.0374   17.2295  -31.6058 H   0  0  0  0  0  0  0  0  0  0  0  0
   -4.1477   16.3593  -32.0268 H   0  0  0  0  0  0  0  0  0  0  0  0
   -4.3788   13.9461  -32.6133 H   0  0  0  0  0  0  0  0  0  0  0  0
   -6.1927   13.2002  -34.1573 H   0  0  0  0  0  0  0  0  0  0  0  0
   -7.7830   14.8684  -35.1136 H   0  0  0  0  0  0  0  0  0  0  0  0
   -7.5623   17.2854  -34.5328 H   0  0  0  0  0  0  0  0  0  0  0  0
   -3.6150   18.3510  -33.0080 H   0  0  0  0  0  0  0  0  0  0  0  0
   -2.4388   20.6562  -34.4569 H   0  0  0  0  0  0  0  0  0  0  0  0
   -0.0456   21.3475  -34.2129 H   0  0  0  0  0  0  0  0  0  0  0  0
    0.8970   21.7335  -31.9278 H   0  0  0  0  0  0  0  0  0  0  0  0
   -2.8541   20.7627  -30.1494 H   0  0  0  0  0  0  0  0  0  0  0  0
   -6.1690   25.0325  -32.2023 H   0  0  0  0  0  0  0  0  0  0  0  0
   -4.6381   24.1360  -29.4920 H   0  0  0  0  0  0  0  0  0  0  0  0
   -4.2718   25.6055  -29.8464 H   0  0  0  0  0  0  0  0  0  0  0  0
   -7.2321   24.4456  -29.1980 H   0  0  0  0  0  0  0  0  0  0  0  0
   -7.3159   25.9688  -29.5013 H   0  0  0  0  0  0  0  0  0  0  0  0
   -8.4355   23.2939  -31.3186 H   0  0  0  0  0  0  0  0  0  0  0  0
   -8.7454   20.9274  -31.9704 H   0  0  0  0  0  0  0  0  0  0  0  0
  1  2  1  0
  2  3  1  0
  3  4  2  0
  4  5  1  0
  5  6  2  0
  6  7  1  0
  7  8  2  0
  8  9  1  0
  9 10  2  0
  4 11  1  0
 11 12  2  0
 12 13  1  0
 13 14  2  0
 14 15  1  0
 15 16  2  0
 16 17  1  0
 17 18  2  0
 12 19  1  0
 19 20  1  0
 20 21  2  0
 20 22  1  0
 22 23  1  0
 23 24  1  0
 24 25  1  0
 22 26  1  0
 26 27  2  0
 27 28  1  0
 28  3  1  0
 10  5  1  0
 18 13  1  0
 28 19  2  0
 25 23  1  0
  1 29  1  0
  1 30  1  0
  1 31  1  0
  6 32  1  0
  7 33  1  0
  8 34  1  0
  9 35  1  0
 10 36  1  0
 11 37  1  0
 14 38  1  0
 15 39  1  0
 16 40  1  0
 18 41  1  0
 23 42  1  0
 24 43  1  0
 24 44  1  0
 25 45  1  0
 25 46  1  0
 26 47  1  0
 27 48  1  0
M  CHG  1  11   1
M  END
>  <UniqueID>  (17) 
15

>  <SMILES>  (17) 
COc1c(-c2ccccc2)[nH+]c(-c2cccnc2)c2c(=O)n(C3CC3)ccc12

>  <Energy>  (17) 
357.5729586993884

>  <Genealogy>  (17) 
COc1c(-c2ccccc2)[nH+]c(-c2cccnc2)c2c(=O)n(C3CC3)ccc12 (protonated)
COc1c(-c2ccccc2)[nH+]c(-c2cccnc2)c2c(=O)n(C3CC3)ccc12 (3D coordinates assigned)
COc1c(-c2ccccc2)[nH+]c(-c2cccnc2)c2c(=O)n(C3CC3)ccc12 (nonaromatic ring conformer: 357.5729586993884 kcal/mol)

>  <smiles>  (17) 
COc1c(-c2ccccc2)nc(-c2cccnc2)c2c(=O)n(C3CC3)ccc12

>  <score_type>  (17) 
oracle

>  <origin>  (17) 
adg

>  <m_score__min__energy>  (17) 
-8.0099999999999998

>  <m_primary>  (17) 
energy

$$$$
17:0
     RDKit          3D

 58 61  0  0  0  0  0  0  0  0999 V2000
   -2.5650   23.9440  -29.6080 C   0  0  0  0  0  0  0  0  0  0  0  0
   -3.4560   24.2390  -30.6780 O   0  0  0  0  0  0  0  0  0  0  0  0
   -4.7350   23.6790  -30.8290 C   0  0  0  0  0  0  0  0  0  0  0  0
   -5.8940   24.3500  -30.3880 C   0  0  0  0  0  0  0  0  0  0  0  0
   -7.1570   23.7850  -30.5830 C   0  0  0  0  0  0  0  0  0  0  0  0
   -7.2800   22.5490  -31.2170 C   0  0  0  0  0  0  0  0  0  0  0  0
   -6.1400   21.8700  -31.6530 C   0  0  0  0  0  0  0  0  0  0  0  0
   -4.8630   22.4230  -31.4560 C   0  0  0  0  0  0  0  0  0  0  0  0
   -3.6990   21.6980  -31.8950 N   0  0  0  0  0  0  0  0  0  0  0  0
   -3.1720   21.9240  -33.2460 C   0  0  0  0  0  0  0  0  0  0  0  0
   -1.7250   21.4170  -33.3760 C   0  0  0  0  0  0  0  0  0  0  0  0
   -1.5140   20.0460  -32.8340 N   0  0  0  0  0  0  0  0  0  0  0  0
   -1.5470   18.9840  -33.8740 C   0  0  0  0  0  0  0  0  0  0  0  0
   -1.6300   17.5300  -33.3380 C   0  0  0  0  0  0  0  0  0  0  0  0
   -2.6480   16.6700  -34.1030 C   0  0  0  0  0  0  0  0  0  0  0  0
   -3.7880   16.2180  -33.1840 C   0  0  0  0  0  0  0  0  0  0  0  0
   -4.8700   17.2150  -33.1860 N   0  0  0  0  0  0  0  0  0  0  0  0
   -4.9350   18.1180  -34.2100 C   0  0  0  0  0  0  0  0  0  0  0  0
   -5.9320   19.0360  -34.2620 N   0  0  0  0  0  0  0  0  0  0  0  0
   -6.8970   19.0820  -33.3100 C   0  0  0  0  0  0  0  0  0  0  0  0
   -7.9130   20.0400  -33.3890 C   0  0  0  0  0  0  0  0  0  0  0  0
   -8.9110   20.0840  -32.4110 C   0  0  0  0  0  0  0  0  0  0  0  0
   -8.8960   19.1720  -31.3530 C   0  0  0  0  0  0  0  0  0  0  0  0
   -7.8840   18.2110  -31.2660 C   0  0  0  0  0  0  0  0  0  0  0  0
   -6.8740   18.1600  -32.2460 C   0  0  0  0  0  0  0  0  0  0  0  0
   -5.8340   17.2140  -32.2070 C   0  0  0  0  0  0  0  0  0  0  0  0
   -5.7910   16.3640  -31.2740 O   0  0  0  0  0  0  0  0  0  0  0  0
   -2.3250   19.6970  -31.6310 C   0  0  0  0  0  0  0  0  0  0  0  0
   -2.9120   20.9260  -30.9330 C   0  0  0  0  0  0  0  0  0  0  0  0
   -3.0756   24.1131  -28.6485 H   0  0  0  0  0  0  0  0  0  0  0  0
   -2.2477   22.8928  -29.6743 H   0  0  0  0  0  0  0  0  0  0  0  0
   -1.6831   24.5981  -29.6743 H   0  0  0  0  0  0  0  0  0  0  0  0
   -5.8033   25.3251  -29.8870 H   0  0  0  0  0  0  0  0  0  0  0  0
   -8.0557   24.3160  -30.2359 H   0  0  0  0  0  0  0  0  0  0  0  0
   -8.2757   22.1085  -31.3738 H   0  0  0  0  0  0  0  0  0  0  0  0
   -6.2423   20.8960  -32.1539 H   0  0  0  0  0  0  0  0  0  0  0  0
   -3.8046   21.3907  -33.9708 H   0  0  0  0  0  0  0  0  0  0  0  0
   -3.1789   23.0060  -33.4439 H   0  0  0  0  0  0  0  0  0  0  0  0
   -1.4540   21.4133  -34.4421 H   0  0  0  0  0  0  0  0  0  0  0  0
   -1.0949   22.0952  -32.7819 H   0  0  0  0  0  0  0  0  0  0  0  0
   -0.5190   20.0470  -32.5020 H   0  0  0  0  0  0  0  0  0  0  0  0
   -2.4253   19.1611  -34.5122 H   0  0  0  0  0  0  0  0  0  0  0  0
   -0.5893   19.0551  -34.4104 H   0  0  0  0  0  0  0  0  0  0  0  0
   -0.6376   17.0645  -33.4297 H   0  0  0  0  0  0  0  0  0  0  0  0
   -1.9615   17.5819  -32.2904 H   0  0  0  0  0  0  0  0  0  0  0  0
   -3.0667   17.2603  -34.9314 H   0  0  0  0  0  0  0  0  0  0  0  0
   -2.1331   15.7769  -34.4868 H   0  0  0  0  0  0  0  0  0  0  0  0
   -4.1814   15.2546  -33.5404 H   0  0  0  0  0  0  0  0  0  0  0  0
   -3.4014   16.1109  -32.1597 H   0  0  0  0  0  0  0  0  0  0  0  0
   -4.1703   18.1000  -35.0006 H   0  0  0  0  0  0  0  0  0  0  0  0
   -7.9268   20.7593  -34.2212 H   0  0  0  0  0  0  0  0  0  0  0  0
   -9.7094   20.8380  -32.4747 H   0  0  0  0  0  0  0  0  0  0  0  0
   -9.6831   19.2100  -30.5855 H   0  0  0  0  0  0  0  0  0  0  0  0
   -7.8768   17.4944  -30.4315 H   0  0  0  0  0  0  0  0  0  0  0  0
   -3.1518   19.0418  -31.9428 H   0  0  0  0  0  0  0  0  0  0  0  0
   -1.6559   19.1979  -30.9146 H   0  0  0  0  0  0  0  0  0  0  0  0
   -3.5587   20.6037  -30.1036 H   0  0  0  0  0  0  0  0  0  0  0  0
   -2.0969   21.5502  -30.5381 H   0  0  0  0  0  0  0  0  0  0  0  0
  1  2  1  0
  2  3  1  0
  3  4  2  0
  4  5  1  0
  5  6  2  0
  6  7  1  0
  7  8  2  0
  8  9  1  0
  9 10  1  0
 10 11  1  0
 11 12  1  0
 12 13  1  0
 13 14  1  0
 14 15  1  0
 15 16  1  0
 16 17  1  0
 17 18  1  0
 18 19  2  0
 19 20  1  0
 20 21  2  0
 21 22  1  0
 22 23  2  0
 23 24  1  0
 24 25  2  0
 25 26  1  0
 26 27  2  0
 12 28  1  0
 28 29  1  0
  8  3  1  0
 29  9  1  0
 26 17  1  0
 25 20  1  0
  1 30  1  0
  1 31  1  0
  1 32  1  0
  4 33  1  0
  5 34  1  0
  6 35  1  0
  7 36  1  0
 10 37  1  0
 10 38  1  0
 11 39  1  0
 11 40  1  0
 12 41  1  0
 13 42  1  0
 13 43  1  0
 14 44  1  0
 14 45  1  0
 15 46  1  0
 15 47  1  0
 16 48  1  0
 16 49  1  0
 18 50  1  0
 21 51  1  0
 22 52  1  0
 23 53  1  0
 24 54  1  0
 28 55  1  0
 28 56  1  0
 29 57  1  0
 29 58  1  0
M  CHG  1  12   1
M  END
>  <UniqueID>  (18) 
16

>  <SMILES>  (18) 
COc1ccccc1N1CC[NH+](CCCCn2cnc3ccccc3c2=O)CC1

>  <Energy>  (18) 
79.45225302169501

>  <Genealogy>  (18) 
COc1ccccc1N1CC[NH+](CCCCn2cnc3ccccc3c2=O)CC1 (protonated)
COc1ccccc1N1CC[NH+](CCCCn2cnc3ccccc3c2=O)CC1 (3D coordinates assigned)
COc1ccccc1N1CC[NH+](CCCCn2cnc3ccccc3c2=O)CC1 (nonaromatic ring conformer: 79.45225302169501 kcal/mol)

>  <smiles>  (18) 
COc1ccccc1N1CCN(CCCCn2cnc3ccccc3c2=O)CC1

>  <score_type>  (18) 
oracle

>  <origin>  (18) 
adg

>  <m_score__min__energy>  (18) 
-8.3800000000000008

>  <m_primary>  (18) 
energy

$$$$
18:0
     RDKit          3D

 52 55  0  0  0  0  0  0  0  0999 V2000
    0.0270   21.2060  -34.9660 C   0  0  0  0  0  0  0  0  0  0  0  0
   -0.9120   20.6330  -33.9870 N   0  0  0  0  0  0  0  0  0  0  0  0
   -0.6350   21.1380  -32.6320 C   0  0  0  0  0  0  0  0  0  0  0  0
   -0.9680   19.1540  -34.0480 C   0  0  0  0  0  0  0  0  0  0  0  0
   -2.3700   18.5990  -34.2040 C   0  0  0  0  0  0  0  0  0  0  0  0
   -2.5780   17.3710  -34.8550 C   0  0  0  0  0  0  0  0  0  0  0  0
   -3.8700   16.8580  -34.9900 C   0  0  0  0  0  0  0  0  0  0  0  0
   -4.9630   17.5630  -34.4760 C   0  0  0  0  0  0  0  0  0  0  0  0
   -4.7720   18.7900  -33.8200 C   0  0  0  0  0  0  0  0  0  0  0  0
   -5.9240   19.5440  -33.2770 C   0  0  0  0  0  0  0  0  0  0  0  0
   -7.1730   19.0350  -33.1500 N   0  0  0  0  0  0  0  0  0  0  0  0
   -7.9060   20.0400  -32.6320 C   0  0  0  0  0  0  0  0  0  0  0  0
   -9.2740   20.0000  -32.3610 C   0  0  0  0  0  0  0  0  0  0  0  0
   -9.8770   21.1720  -31.8820 C   0  0  0  0  0  0  0  0  0  0  0  0
   -9.1130   22.3400  -31.6990 C   0  0  0  0  0  0  0  0  0  0  0  0
   -7.7400   22.3250  -31.9900 C   0  0  0  0  0  0  0  0  0  0  0  0
   -7.1860   21.1620  -32.4270 N   0  0  0  0  0  0  0  0  0  0  0  0
   -5.9290   20.8590  -32.8200 C   0  0  0  0  0  0  0  0  0  0  0  0
   -4.8400   21.7850  -32.9260 N   0  0  0  0  0  0  0  0  0  0  0  0
   -3.9330   22.0780  -31.8170 C   0  0  0  0  0  0  0  0  0  0  0  0
   -4.5090   23.1790  -30.9660 C   0  0  0  0  0  0  0  0  0  0  0  0
   -5.3800   24.1290  -31.5270 C   0  0  0  0  0  0  0  0  0  0  0  0
   -5.9800   25.1010  -30.7170 C   0  0  0  0  0  0  0  0  0  0  0  0
   -5.7190   25.1270  -29.3420 C   0  0  0  0  0  0  0  0  0  0  0  0
   -4.8610   24.1780  -28.7750 C   0  0  0  0  0  0  0  0  0  0  0  0
   -4.2620   23.2020  -29.5800 C   0  0  0  0  0  0  0  0  0  0  0  0
   -3.4730   19.3100  -33.7010 C   0  0  0  0  0  0  0  0  0  0  0  0
    0.8494   21.7078  -34.4351 H   0  0  0  0  0  0  0  0  0  0  0  0
    0.4344   20.4024  -35.5971 H   0  0  0  0  0  0  0  0  0  0  0  0
   -0.5013   21.9358  -35.5971 H   0  0  0  0  0  0  0  0  0  0  0  0
   -1.0250   20.4269  -31.8888 H   0  0  0  0  0  0  0  0  0  0  0  0
    0.4509   21.2502  -32.4974 H   0  0  0  0  0  0  0  0  0  0  0  0
   -1.1240   22.1141  -32.4974 H   0  0  0  0  0  0  0  0  0  0  0  0
   -0.3656   18.8195  -34.9054 H   0  0  0  0  0  0  0  0  0  0  0  0
   -0.5810   18.7797  -33.0888 H   0  0  0  0  0  0  0  0  0  0  0  0
   -1.7210   16.8124  -35.2593 H   0  0  0  0  0  0  0  0  0  0  0  0
   -4.0282   15.8973  -35.5018 H   0  0  0  0  0  0  0  0  0  0  0  0
   -5.9782   17.1541  -34.5862 H   0  0  0  0  0  0  0  0  0  0  0  0
   -7.5020   18.0760  -33.4000 H   0  0  0  0  0  0  0  0  0  0  0  0
   -9.8589   19.0816  -32.5175 H   0  0  0  0  0  0  0  0  0  0  0  0
  -10.9519   21.1786  -31.6482 H   0  0  0  0  0  0  0  0  0  0  0  0
   -9.5897   23.2600  -31.3297 H   0  0  0  0  0  0  0  0  0  0  0  0
   -7.1276   23.2306  -31.8678 H   0  0  0  0  0  0  0  0  0  0  0  0
   -4.6220   22.1860  -33.8660 H   0  0  0  0  0  0  0  0  0  0  0  0
   -3.8007   21.1739  -31.2045 H   0  0  0  0  0  0  0  0  0  0  0  0
   -2.9602   22.3990  -32.2177 H   0  0  0  0  0  0  0  0  0  0  0  0
   -5.5911   24.1088  -32.6064 H   0  0  0  0  0  0  0  0  0  0  0  0
   -6.6572   25.8450  -31.1618 H   0  0  0  0  0  0  0  0  0  0  0  0
   -6.1882   25.8932  -28.7074 H   0  0  0  0  0  0  0  0  0  0  0  0
   -4.6568   24.1990  -27.6943 H   0  0  0  0  0  0  0  0  0  0  0  0
   -3.5967   22.4512  -29.1287 H   0  0  0  0  0  0  0  0  0  0  0  0
   -3.3175   20.2820  -33.2100 H   0  0  0  0  0  0  0  0  0  0  0  0
  1  2  1  0
  2  3  1  0
  2  4  1  0
  4  5  1  0
  5  6  2  0
  6  7  1  0
  7  8  2  0
  8  9  1  0
  9 10  1  0
 10 11  1  0
 11 12  2  0
 12 13  1  0
 13 14  2  0
 14 15  1  0
 15 16  2  0
 16 17  1  0
 17 18  1  0
 18 19  1  0
 19 20  1  0
 20 21  1  0
 21 22  2  0
 22 23  1  0
 23 24  2  0
 24 25  1  0
 25 26  2  0
  9 27  2  0
 27  5  1  0
 18 10  2  0
 26 21  1  0
 17 12  1  0
  1 28  1  0
  1 29  1  0
  1 30  1  0
  3 31  1  0
  3 32  1  0
  3 33  1  0
  4 34  1  0
  4 35  1  0
  6 36  1  0
  7 37  1  0
  8 38  1  0
 11 39  1  0
 13 40  1  0
 14 41  1  0
 15 42  1  0
 16 43  1  0
 19 44  1  0
 20 45  1  0
 20 46  1  0
 22 47  1  0
 23 48  1  0
 24 49  1  0
 25 50  1  0
 26 51  1  0
 27 52  1  0
M  CHG  1  11   1
M  END
>  <UniqueID>  (19) 
17

>  <SMILES>  (19) 
CN(C)Cc1cccc(-c2[nH+]c3ccccn3c2NCc2ccccc2)c1

>  <Energy>  (19) 
100.58814932269341

>  <Genealogy>  (19) 
CN(C)Cc1cccc(-c2[nH+]c3ccccn3c2NCc2ccccc2)c1 (protonated)
CN(C)Cc1cccc(-c2[nH+]c3ccccn3c2NCc2ccccc2)c1 (3D coordinates assigned)
CN(C)Cc1cccc(-c2[nH+]c3ccccn3c2NCc2ccccc2)c1 (optimized conformer: 100.58814932269341 kcal/mol)

>  <smiles>  (19) 
CN(C)Cc1cccc(-c2nc3ccccn3c2NCc2ccccc2)c1

>  <score_type>  (19) 
oracle

>  <origin>  (19) 
adg

>  <m_score__min__energy>  (19) 
-8.1400000000000006

>  <m_primary>  (19) 
energy

$$$$
19:0
     RDKit          3D

 40 41  0  0  0  0  0  0  0  0999 V2000
   -6.4710   17.7420  -31.3690 C   0  0  0  0  0  0  0  0  0  0  0  0
   -7.2110   17.9780  -32.6830 C   0  0  0  0  0  0  0  0  0  0  0  0
   -7.1540   19.4040  -33.0630 N   0  0  0  0  0  0  0  0  0  0  0  0
   -8.4960   20.0490  -33.0460 C   0  0  0  0  0  0  0  0  0  0  0  0
   -8.6910   20.9550  -31.8210 C   0  0  0  0  0  0  0  0  0  0  0  0
   -7.6870   22.0500  -31.7990 N   0  0  0  0  0  0  0  0  0  0  0  0
   -7.6210   22.7350  -30.4810 C   0  0  0  0  0  0  0  0  0  0  0  0
   -6.2900   23.4020  -30.1800 C   0  0  0  0  0  0  0  0  0  0  0  0
   -5.9940   24.6780  -30.6880 C   0  0  0  0  0  0  0  0  0  0  0  0
   -4.7680   25.2860  -30.4050 C   0  0  0  0  0  0  0  0  0  0  0  0
   -3.8240   24.6440  -29.5970 C   0  0  0  0  0  0  0  0  0  0  0  0
   -2.6060   25.2940  -29.3480 O   0  0  0  0  0  0  0  0  0  0  0  0
   -1.7130   24.9520  -28.2930 C   0  0  0  0  0  0  0  0  0  0  0  0
   -4.1290   23.3800  -29.0590 C   0  0  0  0  0  0  0  0  0  0  0  0
   -5.3550   22.7720  -29.3410 C   0  0  0  0  0  0  0  0  0  0  0  0
   -6.3540   21.6410  -32.3220 C   0  0  0  0  0  0  0  0  0  0  0  0
   -6.1450   20.1220  -32.2500 C   0  0  0  0  0  0  0  0  0  0  0  0
   -7.1438   17.9566  -30.5256 H   0  0  0  0  0  0  0  0  0  0  0  0
   -6.1408   16.6940  -31.3172 H   0  0  0  0  0  0  0  0  0  0  0  0
   -5.5951   18.4054  -31.3172 H   0  0  0  0  0  0  0  0  0  0  0  0
   -6.7436   17.3740  -33.4746 H   0  0  0  0  0  0  0  0  0  0  0  0
   -8.2640   17.6872  -32.5541 H   0  0  0  0  0  0  0  0  0  0  0  0
   -8.6085   20.6559  -33.9565 H   0  0  0  0  0  0  0  0  0  0  0  0
   -9.2524   19.2517  -32.9991 H   0  0  0  0  0  0  0  0  0  0  0  0
   -9.6994   21.3931  -31.8553 H   0  0  0  0  0  0  0  0  0  0  0  0
   -8.5638   20.3467  -30.9134 H   0  0  0  0  0  0  0  0  0  0  0  0
   -8.0460   22.7780  -32.4640 H   0  0  0  0  0  0  0  0  0  0  0  0
   -8.4046   23.5065  -30.4559 H   0  0  0  0  0  0  0  0  0  0  0  0
   -7.7581   21.9550  -29.7175 H   0  0  0  0  0  0  0  0  0  0  0  0
   -6.7323   25.2020  -31.3127 H   0  0  0  0  0  0  0  0  0  0  0  0
   -4.5433   26.2789  -30.8217 H   0  0  0  0  0  0  0  0  0  0  0  0
   -2.2006   25.1388  -27.3248 H   0  0  0  0  0  0  0  0  0  0  0  0
   -1.4455   23.8878  -28.3696 H   0  0  0  0  0  0  0  0  0  0  0  0
   -0.8030   25.5653  -28.3696 H   0  0  0  0  0  0  0  0  0  0  0  0
   -3.3994   22.8686  -28.4139 H   0  0  0  0  0  0  0  0  0  0  0  0
   -5.5905   21.7912  -28.9023 H   0  0  0  0  0  0  0  0  0  0  0  0
   -6.2716   21.9607  -33.3713 H   0  0  0  0  0  0  0  0  0  0  0  0
   -5.5847   22.1181  -31.6970 H   0  0  0  0  0  0  0  0  0  0  0  0
   -5.1409   19.8795  -32.6280 H   0  0  0  0  0  0  0  0  0  0  0  0
   -6.2516   19.8047  -31.2022 H   0  0  0  0  0  0  0  0  0  0  0  0
  1  2  1  0
  2  3  1  0
  3  4  1  0
  4  5  1  0
  5  6  1  0
  6  7  1  0
  7  8  1  0
  8  9  2  0
  9 10  1  0
 10 11  2  0
 11 12  1  0
 12 13  1  0
 11 14  1  0
 14 15  2  0
  6 16  1  0
 16 17  1  0
 17  3  1  0
 15  8  1  0
  1 18  1  0
  1 19  1  0
  1 20  1  0
  2 21  1  0
  2 22  1  0
  4 23  1  0
  4 24  1  0
  5 25  1  0
  5 26  1  0
  6 27  1  0
  7 28  1  0
  7 29  1  0
  9 30  1  0
 10 31  1  0
 13 32  1  0
 13 33  1  0
 13 34  1  0
 14 35  1  0
 15 36  1  0
 16 37  1  0
 16 38  1  0
 17 39  1  0
 17 40  1  0
M  CHG  1   6   1
M  END
>  <UniqueID>  (20) 
18

>  <SMILES>  (20) 
CCN1CC[NH+](Cc2ccc(OC)cc2)CC1

>  <Energy>  (20) 
52.48254664126753

>  <Genealogy>  (20) 
CCN1CC[NH+](Cc2ccc(OC)cc2)CC1 (protonated)
CCN1CC[NH+](Cc2ccc(OC)cc2)CC1 (3D coordinates assigned)
CCN1CC[NH+](Cc2ccc(OC)cc2)CC1 (nonaromatic ring conformer: 52.48254664126753 kcal/mol)

>  <smiles>  (20) 
CCN1CCN(Cc2ccc(OC)cc2)CC1

>  <score_type>  (20) 
oracle

>  <origin>  (20) 
adg

>  <m_score__min__energy>  (20) 
-6.2400000000000002

>  <m_primary>  (20) 
energy

$$$$
20:0
     RDKit          3D

 34 36  0  0  0  0  0  0  0  0999 V2000
   -6.1470   25.6990  -29.7040 C   0  0  0  0  0  0  0  0  0  0  0  0
   -5.1680   24.5460  -29.5140 C   0  0  0  0  0  0  0  0  0  0  0  0
   -5.2620   23.6120  -30.6340 N   0  0  0  0  0  0  0  0  0  0  0  0
   -4.2450   23.3220  -31.4370 N   0  0  0  0  0  0  0  0  0  0  0  0
   -4.6650   22.3970  -32.3330 C   0  0  0  0  0  0  0  0  0  0  0  0
   -3.7890   21.8300  -33.4030 C   0  0  0  0  0  0  0  0  0  0  0  0
   -5.9860   22.0780  -32.0580 C   0  0  0  0  0  0  0  0  0  0  0  0
   -6.9190   21.2040  -32.6250 C   0  0  0  0  0  0  0  0  0  0  0  0
   -6.6030   20.3650  -33.6950 O   0  0  0  0  0  0  0  0  0  0  0  0
   -6.2670   19.0110  -33.5530 C   0  0  0  0  0  0  0  0  0  0  0  0
   -6.4690   18.3990  -32.3100 C   0  0  0  0  0  0  0  0  0  0  0  0
   -6.1540   17.0490  -32.1240 C   0  0  0  0  0  0  0  0  0  0  0  0
   -5.6290   16.3020  -33.1830 C   0  0  0  0  0  0  0  0  0  0  0  0
   -5.4150   16.9040  -34.4250 C   0  0  0  0  0  0  0  0  0  0  0  0
   -5.7280   18.2540  -34.6130 C   0  0  0  0  0  0  0  0  0  0  0  0
   -8.1810   21.1900  -32.1010 N   0  0  0  0  0  0  0  0  0  0  0  0
   -8.5410   21.9750  -31.0380 C   0  0  0  0  0  0  0  0  0  0  0  0
   -7.6060   22.8400  -30.4430 C   0  0  0  0  0  0  0  0  0  0  0  0
   -6.3250   22.8670  -30.9940 C   0  0  0  0  0  0  0  0  0  0  0  0
   -6.4661   26.0749  -28.7207 H   0  0  0  0  0  0  0  0  0  0  0  0
   -5.6560   26.5084  -30.2642 H   0  0  0  0  0  0  0  0  0  0  0  0
   -7.0253   25.3457  -30.2642 H   0  0  0  0  0  0  0  0  0  0  0  0
   -4.1442   24.9445  -29.4586 H   0  0  0  0  0  0  0  0  0  0  0  0
   -5.4163   24.0151  -28.5831 H   0  0  0  0  0  0  0  0  0  0  0  0
   -2.9508   21.2875  -32.9414 H   0  0  0  0  0  0  0  0  0  0  0  0
   -4.3738   21.1386  -34.0275 H   0  0  0  0  0  0  0  0  0  0  0  0
   -3.3977   22.6466  -34.0275 H   0  0  0  0  0  0  0  0  0  0  0  0
   -6.8785   18.9843  -31.4735 H   0  0  0  0  0  0  0  0  0  0  0  0
   -6.3192   16.5752  -31.1451 H   0  0  0  0  0  0  0  0  0  0  0  0
   -5.3843   15.2394  -33.0378 H   0  0  0  0  0  0  0  0  0  0  0  0
   -4.9997   16.3155  -35.2564 H   0  0  0  0  0  0  0  0  0  0  0  0
   -5.5531   18.7265  -35.5908 H   0  0  0  0  0  0  0  0  0  0  0  0
   -9.5682   21.9284  -30.6473 H   0  0  0  0  0  0  0  0  0  0  0  0
   -7.8731   23.4682  -29.5804 H   0  0  0  0  0  0  0  0  0  0  0  0
  1  2  1  0
  2  3  1  0
  3  4  1  0
  4  5  2  0
  5  6  1  0
  5  7  1  0
  7  8  2  0
  8  9  1  0
  9 10  1  0
 10 11  2  0
 11 12  1  0
 12 13  2  0
 13 14  1  0
 14 15  2  0
  8 16  1  0
 16 17  2  0
 17 18  1  0
 18 19  2  0
 19  3  1  0
 19  7  1  0
 15 10  1  0
  1 20  1  0
  1 21  1  0
  1 22  1  0
  2 23  1  0
  2 24  1  0
  6 25  1  0
  6 26  1  0
  6 27  1  0
 11 28  1  0
 12 29  1  0
 13 30  1  0
 14 31  1  0
 15 32  1  0
 17 33  1  0
 18 34  1  0
M  END
>  <UniqueID>  (21) 
19

>  <SMILES>  (21) 
CCn1nc(C)c2c(Oc3ccccc3)nccc21

>  <Energy>  (21) 
80.58462864309476

>  <Genealogy>  (21) 
CCn1nc(C)c2c(Oc3ccccc3)nccc21 (3D coordinates assigned)
CCn1nc(C)c2c(Oc3ccccc3)nccc21 (optimized conformer: 80.58462864309476 kcal/mol)

>  <smiles>  (21) 
CCn1nc(C)c2c(Oc3ccccc3)nccc21

>  <score_type>  (21) 
oracle

>  <origin>  (21) 
adg

>  <m_score__min__energy>  (21) 
-7.0800000000000001

>  <m_primary>  (21) 
energy

$$$$
21:0
     RDKit          3D

 34 37  0  0  0  0  0  0  0  0999 V2000
   -0.4900   29.6860  -26.9510 O   0  0  0  0  0  0  0  0  0  0  0  0
    0.4530   28.9350  -26.5910 C   0  0  0  0  0  0  0  0  0  0  0  0
    0.2240   27.8250  -25.6410 C   0  0  0  0  0  0  0  0  0  0  0  0
    0.5040   28.1080  -24.2980 C   0  0  0  0  0  0  0  0  0  0  0  0
    0.4860   27.0950  -23.3490 C   0  0  0  0  0  0  0  0  0  0  0  0
    0.2020   25.8230  -23.7160 N   0  0  0  0  0  0  0  0  0  0  0  0
   -0.1220   25.5060  -24.9990 C   0  0  0  0  0  0  0  0  0  0  0  0
   -0.4850   23.8980  -25.3860 S   0  0  0  0  0  0  0  0  0  0  0  0
   -0.8950   23.8080  -27.0000 C   0  0  0  0  0  0  0  0  0  0  0  0
   -1.2850   22.7120  -27.7320 C   0  0  0  0  0  0  0  0  0  0  0  0
   -1.5560   23.2500  -28.9840 C   0  0  0  0  0  0  0  0  0  0  0  0
   -2.0940   22.5200  -30.1550 C   0  0  0  0  0  0  0  0  0  0  0  0
   -1.3970   21.3860  -30.6090 C   0  0  0  0  0  0  0  0  0  0  0  0
   -1.8010   20.7190  -31.7660 C   0  0  0  0  0  0  0  0  0  0  0  0
   -2.9060   21.1710  -32.4850 C   0  0  0  0  0  0  0  0  0  0  0  0
   -3.6240   22.2820  -32.0370 C   0  0  0  0  0  0  0  0  0  0  0  0
   -3.2450   22.9550  -30.8620 C   0  0  0  0  0  0  0  0  0  0  0  0
   -4.0730   24.0230  -30.3700 N   0  0  0  0  0  0  0  0  0  0  0  0
   -4.8420   23.8270  -29.4060 O   0  0  0  0  0  0  0  0  0  0  0  0
   -3.8650   25.3120  -30.8030 O   0  0  0  0  0  0  0  0  0  0  0  0
   -1.3600   24.5900  -28.9650 N   0  0  0  0  0  0  0  0  0  0  0  0
   -0.9440   24.9140  -27.7510 N   0  0  0  0  0  0  0  0  0  0  0  0
   -0.6540   26.1920  -27.3470 C   0  0  0  0  0  0  0  0  0  0  0  0
   -0.8600   27.1220  -28.1730 O   0  0  0  0  0  0  0  0  0  0  0  0
   -0.1730   26.5040  -26.0210 C   0  0  0  0  0  0  0  0  0  0  0  0
    1.4639   29.1067  -26.9892 H   0  0  0  0  0  0  0  0  0  0  0  0
    0.7394   29.1385  -23.9937 H   0  0  0  0  0  0  0  0  0  0  0  0
    0.7031   27.3264  -22.2958 H   0  0  0  0  0  0  0  0  0  0  0  0
    0.2200   25.0760  -22.9850 H   0  0  0  0  0  0  0  0  0  0  0  0
   -1.3634   21.6643  -27.4061 H   0  0  0  0  0  0  0  0  0  0  0  0
   -0.5249   21.0214  -30.0465 H   0  0  0  0  0  0  0  0  0  0  0  0
   -1.2460   19.8343  -32.1115 H   0  0  0  0  0  0  0  0  0  0  0  0
   -3.2127   20.6527  -33.4055 H   0  0  0  0  0  0  0  0  0  0  0  0
   -4.4949   22.6342  -32.6092 H   0  0  0  0  0  0  0  0  0  0  0  0
  1  2  2  0
  2  3  1  0
  3  4  2  0
  4  5  1  0
  5  6  2  0
  6  7  1  0
  7  8  1  0
  8  9  1  0
  9 10  2  0
 10 11  1  0
 11 12  1  0
 12 13  2  0
 13 14  1  0
 14 15  2  0
 15 16  1  0
 16 17  2  0
 17 18  1  0
 18 19  2  0
 18 20  1  0
 11 21  2  0
 21 22  1  0
 22 23  1  0
 23 24  2  0
 23 25  1  0
 25  3  1  0
 25  7  2  0
 22  9  1  0
 17 12  1  0
  2 26  1  0
  4 27  1  0
  5 28  1  0
  6 29  1  0
 10 30  1  0
 13 31  1  0
 14 32  1  0
 15 33  1  0
 16 34  1  0
M  CHG  3   6   1  18   1  20  -1
M  END
>  <UniqueID>  (22) 
20

>  <SMILES>  (22) 
O=Cc1cc[nH+]c2sc3cc(-c4ccccc4[N+](=O)[O-])nn3c(=O)c12

>  <Energy>  (22) 
101.77064168338752

>  <Genealogy>  (22) 
O=Cc1cc[nH+]c2sc3cc(-c4ccccc4[N+](=O)[O-])nn3c(=O)c12 (protonated)
O=Cc1cc[nH+]c2sc3cc(-c4ccccc4[N+](=O)[O-])nn3c(=O)c12 (3D coordinates assigned)
O=Cc1cc[nH+]c2sc3cc(-c4ccccc4[N+](=O)[O-])nn3c(=O)c12 (optimized conformer: 101.77064168338752 kcal/mol)

>  <smiles>  (22) 
O=Cc1ccnc2sc3cc(-c4ccccc4[N+](=O)[O-])nn3c(=O)c12

>  <score_type>  (22) 
oracle

>  <origin>  (22) 
adg

>  <m_score__min__energy>  (22) 
-8.7899999999999991

>  <m_primary>  (22) 
energy

$$$$
22:0
     RDKit          3D

 52 54  0  0  0  0  0  0  0  0999 V2000
   -9.4510   22.8820  -31.9810 C   0  0  0  0  0  0  0  0  0  0  0  0
   -8.9610   21.8060  -31.1880 O   0  0  0  0  0  0  0  0  0  0  0  0
   -8.4650   20.6010  -31.7090 C   0  0  0  0  0  0  0  0  0  0  0  0
   -7.5520   20.6610  -32.7680 C   0  0  0  0  0  0  0  0  0  0  0  0
   -7.0290   19.4890  -33.3230 C   0  0  0  0  0  0  0  0  0  0  0  0
   -7.4090   18.2370  -32.8190 C   0  0  0  0  0  0  0  0  0  0  0  0
   -6.8760   16.9720  -33.4430 C   0  0  0  0  0  0  0  0  0  0  0  0
   -5.3550   16.8480  -33.2670 C   0  0  0  0  0  0  0  0  0  0  0  0
   -4.6030   17.8490  -34.1090 C   0  0  0  0  0  0  0  0  0  0  0  0
   -4.7630   17.8050  -35.3600 O   0  0  0  0  0  0  0  0  0  0  0  0
   -3.6580   18.8440  -33.5290 C   0  0  0  0  0  0  0  0  0  0  0  0
   -2.3170   18.4800  -33.2990 C   0  0  0  0  0  0  0  0  0  0  0  0
   -1.4190   19.3900  -32.7380 C   0  0  0  0  0  0  0  0  0  0  0  0
   -1.8370   20.6790  -32.4090 C   0  0  0  0  0  0  0  0  0  0  0  0
   -3.1620   21.0760  -32.6520 C   0  0  0  0  0  0  0  0  0  0  0  0
   -3.6250   22.3900  -32.3000 N   0  0  0  0  0  0  0  0  0  0  0  0
   -3.1340   23.1490  -31.1860 C   0  0  0  0  0  0  0  0  0  0  0  0
   -2.0970   22.7820  -30.5670 O   0  0  0  0  0  0  0  0  0  0  0  0
   -3.7930   24.3280  -30.8220 O   0  0  0  0  0  0  0  0  0  0  0  0
   -4.6310   24.4360  -29.6700 C   0  0  0  0  0  0  0  0  0  0  0  0
   -5.8620   25.2570  -30.0150 C   0  0  0  0  0  0  0  0  0  0  0  0
   -6.8860   24.2690  -30.5600 C   0  0  0  0  0  0  0  0  0  0  0  0
   -6.4570   22.8830  -30.0810 C   0  0  0  0  0  0  0  0  0  0  0  0
   -5.1800   23.0720  -29.2730 C   0  0  0  0  0  0  0  0  0  0  0  0
   -4.0670   20.1500  -33.1940 C   0  0  0  0  0  0  0  0  0  0  0  0
   -8.3310   18.1720  -31.7620 C   0  0  0  0  0  0  0  0  0  0  0  0
   -8.8540   19.3440  -31.2080 C   0  0  0  0  0  0  0  0  0  0  0  0
   -9.8166   23.6849  -31.3239 H   0  0  0  0  0  0  0  0  0  0  0  0
   -8.6401   23.2685  -32.6159 H   0  0  0  0  0  0  0  0  0  0  0  0
  -10.2749   22.5240  -32.6159 H   0  0  0  0  0  0  0  0  0  0  0  0
   -7.2432   21.6384  -33.1671 H   0  0  0  0  0  0  0  0  0  0  0  0
   -6.3163   19.5495  -34.1587 H   0  0  0  0  0  0  0  0  0  0  0  0
   -7.3615   16.1076  -32.9665 H   0  0  0  0  0  0  0  0  0  0  0  0
   -7.0948   17.0029  -34.5206 H   0  0  0  0  0  0  0  0  0  0  0  0
   -5.1055   17.0159  -32.2089 H   0  0  0  0  0  0  0  0  0  0  0  0
   -5.0573   15.8402  -33.5921 H   0  0  0  0  0  0  0  0  0  0  0  0
   -1.9739   17.4690  -33.5639 H   0  0  0  0  0  0  0  0  0  0  0  0
   -0.3770   19.0888  -32.5547 H   0  0  0  0  0  0  0  0  0  0  0  0
   -1.1266   21.3872  -31.9576 H   0  0  0  0  0  0  0  0  0  0  0  0
   -4.3070   22.8640  -32.9350 H   0  0  0  0  0  0  0  0  0  0  0  0
   -4.0249   24.8830  -28.8682 H   0  0  0  0  0  0  0  0  0  0  0  0
   -6.2530   25.7559  -29.1160 H   0  0  0  0  0  0  0  0  0  0  0  0
   -5.6298   26.0428  -30.7489 H   0  0  0  0  0  0  0  0  0  0  0  0
   -7.8877   24.5100  -30.1747 H   0  0  0  0  0  0  0  0  0  0  0  0
   -6.9313   24.3116  -31.6582 H   0  0  0  0  0  0  0  0  0  0  0  0
   -7.2421   22.4406  -29.4503 H   0  0  0  0  0  0  0  0  0  0  0  0
   -6.2891   22.2061  -30.9316 H   0  0  0  0  0  0  0  0  0  0  0  0
   -5.4020   23.0479  -28.1959 H   0  0  0  0  0  0  0  0  0  0  0  0
   -4.4535   22.2709  -29.4739 H   0  0  0  0  0  0  0  0  0  0  0  0
   -5.1126   20.4488  -33.3599 H   0  0  0  0  0  0  0  0  0  0  0  0
   -8.6434   17.1937  -31.3678 H   0  0  0  0  0  0  0  0  0  0  0  0
   -9.5724   19.2840  -30.3772 H   0  0  0  0  0  0  0  0  0  0  0  0
  1  2  1  0
  2  3  1  0
  3  4  2  0
  4  5  1  0
  5  6  2  0
  6  7  1  0
  7  8  1  0
  8  9  1  0
  9 10  2  0
  9 11  1  0
 11 12  2  0
 12 13  1  0
 13 14  2  0
 14 15  1  0
 15 16  1  0
 16 17  1  0
 17 18  2  0
 17 19  1  0
 19 20  1  0
 20 21  1  0
 21 22  1  0
 22 23  1  0
 23 24  1  0
 15 25  2  0
  6 26  1  0
 26 27  2  0
 27  3  1  0
 25 11  1  0
 24 20  1  0
  1 28  1  0
  1 29  1  0
  1 30  1  0
  4 31  1  0
  5 32  1  0
  7 33  1  0
  7 34  1  0
  8 35  1  0
  8 36  1  0
 12 37  1  0
 13 38  1  0
 14 39  1  0
 16 40  1  0
 20 41  1  0
 21 42  1  0
 21 43  1  0
 22 44  1  0
 22 45  1  0
 23 46  1  0
 23 47  1  0
 24 48  1  0
 24 49  1  0
 25 50  1  0
 26 51  1  0
 27 52  1  0
M  END
>  <UniqueID>  (23) 
21

>  <SMILES>  (23) 
COc1ccc(CCC(=O)c2cccc(NC(=O)OC3CCCC3)c2)cc1

>  <Energy>  (23) 
52.28363528778311

>  <Genealogy>  (23) 
COc1ccc(CCC(=O)c2cccc(NC(=O)OC3CCCC3)c2)cc1 (3D coordinates assigned)
COc1ccc(CCC(=O)c2cccc(NC(=O)OC3CCCC3)c2)cc1 (nonaromatic ring conformer: 52.28363528778311 kcal/mol)

>  <smiles>  (23) 
COc1ccc(CCC(=O)c2cccc(NC(=O)OC3CCCC3)c2)cc1

>  <score_type>  (23) 
oracle

>  <origin>  (23) 
adg

>  <m_score__min__energy>  (23) 
-9.1899999999999995

>  <m_primary>  (23) 
energy

$$$$
23:0
     RDKit          3D

 44 47  0  0  0  0  0  0  0  0999 V2000
   -6.5660   23.9120  -32.7880 O   0  0  0  0  0  0  0  0  0  0  0  0
   -6.1830   22.8120  -32.3040 C   0  0  0  0  0  0  0  0  0  0  0  0
   -4.7830   22.7190  -31.7510 C   0  0  0  0  0  0  0  0  0  0  0  0
   -3.9800   21.4260  -32.1170 C   0  0  0  0  0  0  0  0  0  0  0  0
   -4.0230   20.3750  -30.9860 C   0  0  0  0  0  0  0  0  0  0  0  0
   -3.3430   20.8070  -29.6740 C   0  0  0  0  0  0  0  0  0  0  0  0
   -2.2090   21.7530  -29.8020 N   0  0  0  0  0  0  0  0  0  0  0  0
   -1.5230   22.1930  -28.5850 C   0  0  0  0  0  0  0  0  0  0  0  0
   -1.7950   21.5930  -27.3300 C   0  0  0  0  0  0  0  0  0  0  0  0
   -1.1360   22.0150  -26.1700 C   0  0  0  0  0  0  0  0  0  0  0  0
   -0.1940   23.0380  -26.2310 C   0  0  0  0  0  0  0  0  0  0  0  0
    0.0990   23.6400  -27.4530 C   0  0  0  0  0  0  0  0  0  0  0  0
   -0.5530   23.2260  -28.6170 C   0  0  0  0  0  0  0  0  0  0  0  0
   -1.8360   22.3820  -31.0870 C   0  0  0  0  0  0  0  0  0  0  0  0
   -2.4870   21.7560  -32.3220 C   0  0  0  0  0  0  0  0  0  0  0  0
   -4.5180   20.8120  -33.4430 C   0  0  0  0  0  0  0  0  0  0  0  0
   -5.6740   20.0030  -33.2400 O   0  0  0  0  0  0  0  0  0  0  0  0
   -6.8920   20.4000  -32.6650 C   0  0  0  0  0  0  0  0  0  0  0  0
   -7.8860   19.4180  -32.5540 C   0  0  0  0  0  0  0  0  0  0  0  0
   -9.1330   19.7200  -32.0050 C   0  0  0  0  0  0  0  0  0  0  0  0
   -9.4030   21.0140  -31.5620 C   0  0  0  0  0  0  0  0  0  0  0  0
   -8.4250   22.0050  -31.6630 C   0  0  0  0  0  0  0  0  0  0  0  0
   -7.1580   21.7110  -32.1980 C   0  0  0  0  0  0  0  0  0  0  0  0
   -4.2159   23.5837  -32.1260 H   0  0  0  0  0  0  0  0  0  0  0  0
   -4.8994   22.6937  -30.6575 H   0  0  0  0  0  0  0  0  0  0  0  0
   -5.0776   20.1516  -30.7669 H   0  0  0  0  0  0  0  0  0  0  0  0
   -3.4607   19.5037  -31.3528 H   0  0  0  0  0  0  0  0  0  0  0  0
   -4.1069   21.2832  -29.0417 H   0  0  0  0  0  0  0  0  0  0  0  0
   -2.9115   19.8878  -29.2510 H   0  0  0  0  0  0  0  0  0  0  0  0
   -2.5361   20.7826  -27.2669 H   0  0  0  0  0  0  0  0  0  0  0  0
   -1.3633   21.5364  -25.2060 H   0  0  0  0  0  0  0  0  0  0  0  0
    0.3182   23.3706  -25.3161 H   0  0  0  0  0  0  0  0  0  0  0  0
    0.8472   24.4449  -27.5013 H   0  0  0  0  0  0  0  0  0  0  0  0
   -0.3096   23.7098  -29.5744 H   0  0  0  0  0  0  0  0  0  0  0  0
   -2.1281   23.4417  -31.0465 H   0  0  0  0  0  0  0  0  0  0  0  0
   -0.7519   22.2340  -31.2005 H   0  0  0  0  0  0  0  0  0  0  0  0
   -2.3963   22.4614  -33.1611 H   0  0  0  0  0  0  0  0  0  0  0  0
   -1.9660   20.8082  -32.5228 H   0  0  0  0  0  0  0  0  0  0  0  0
   -4.7764   21.6302  -34.1314 H   0  0  0  0  0  0  0  0  0  0  0  0
   -3.7283   20.1686  -33.8582 H   0  0  0  0  0  0  0  0  0  0  0  0
   -7.6804   18.3957  -32.9043 H   0  0  0  0  0  0  0  0  0  0  0  0
   -9.9020   18.9379  -31.9219 H   0  0  0  0  0  0  0  0  0  0  0  0
  -10.3869   21.2542  -31.1328 H   0  0  0  0  0  0  0  0  0  0  0  0
   -8.6476   23.0264  -31.3206 H   0  0  0  0  0  0  0  0  0  0  0  0
  1  2  2  0
  2  3  1  0
  3  4  1  0
  4  5  1  0
  5  6  1  0
  6  7  1  0
  7  8  1  0
  8  9  2  0
  9 10  1  0
 10 11  2  0
 11 12  1  0
 12 13  2  0
  7 14  1  0
 14 15  1  0
  4 16  1  0
 16 17  1  0
 17 18  1  0
 18 19  2  0
 19 20  1  0
 20 21  2  0
 21 22  1  0
 22 23  2  0
 23  2  1  0
 15  4  1  0
 23 18  1  0
 13  8  1  0
  3 24  1  0
  3 25  1  0
  5 26  1  0
  5 27  1  0
  6 28  1  0
  6 29  1  0
  9 30  1  0
 10 31  1  0
 11 32  1  0
 12 33  1  0
 13 34  1  0
 14 35  1  0
 14 36  1  0
 15 37  1  0
 15 38  1  0
 16 39  1  0
 16 40  1  0
 19 41  1  0
 20 42  1  0
 21 43  1  0
 22 44  1  0
M  END
>  <UniqueID>  (24) 
22

>  <SMILES>  (24) 
O=C1CC2(CCN(c3ccccc3)CC2)COc2ccccc21

>  <Energy>  (24) 
72.22370111508357

>  <Genealogy>  (24) 
O=C1CC2(CCN(c3ccccc3)CC2)COc2ccccc21 (3D coordinates assigned)
O=C1CC2(CCN(c3ccccc3)CC2)COc2ccccc21 (nonaromatic ring conformer: 72.22370111508357 kcal/mol)

>  <smiles>  (24) 
O=C1CC2(CCN(c3ccccc3)CC2)COc2ccccc21

>  <score_type>  (24) 
oracle

>  <origin>  (24) 
adg

>  <m_score__min__energy>  (24) 
-6.5700000000000003

>  <m_primary>  (24) 
energy

$$$$
24:0
     RDKit          3D

 45 47  0  0  0  0  0  0  0  0999 V2000
   -2.2490   24.2660  -29.0980 C   0  0  0  0  0  0  0  0  0  0  0  0
   -3.1430   24.9630  -29.9600 O   0  0  0  0  0  0  0  0  0  0  0  0
   -4.4400   24.5300  -30.2730 C   0  0  0  0  0  0  0  0  0  0  0  0
   -5.5860   25.2900  -29.9640 C   0  0  0  0  0  0  0  0  0  0  0  0
   -6.8550   24.8190  -30.3080 C   0  0  0  0  0  0  0  0  0  0  0  0
   -6.9970   23.5880  -30.9520 C   0  0  0  0  0  0  0  0  0  0  0  0
   -5.8680   22.8110  -31.2460 C   0  0  0  0  0  0  0  0  0  0  0  0
   -6.0230   21.5180  -31.9390 C   0  0  0  0  0  0  0  0  0  0  0  0
   -6.9730   20.5620  -31.5900 C   0  0  0  0  0  0  0  0  0  0  0  0
   -6.7420   19.4990  -32.4340 C   0  0  0  0  0  0  0  0  0  0  0  0
   -7.3700   18.2580  -32.5070 C   0  0  0  0  0  0  0  0  0  0  0  0
   -6.8860   17.3300  -33.4460 C   0  0  0  0  0  0  0  0  0  0  0  0
   -5.7890   17.6570  -34.2730 C   0  0  0  0  0  0  0  0  0  0  0  0
   -5.1710   18.9170  -34.1720 C   0  0  0  0  0  0  0  0  0  0  0  0
   -5.6820   19.8280  -33.2420 C   0  0  0  0  0  0  0  0  0  0  0  0
   -5.2360   21.0720  -32.9580 N   0  0  0  0  0  0  0  0  0  0  0  0
   -4.0130   21.6950  -33.4770 C   0  0  0  0  0  0  0  0  0  0  0  0
   -2.7810   20.8980  -33.0200 C   0  0  0  0  0  0  0  0  0  0  0  0
   -1.5280   21.4530  -33.5590 N   0  0  0  0  0  0  0  0  0  0  0  0
   -0.6340   20.4140  -34.0960 C   0  0  0  0  0  0  0  0  0  0  0  0
    0.2900   21.0010  -35.1660 C   0  0  0  0  0  0  0  0  0  0  0  0
    0.1500   22.3950  -35.2310 O   0  0  0  0  0  0  0  0  0  0  0  0
   -4.5920   23.2960  -30.9180 C   0  0  0  0  0  0  0  0  0  0  0  0
   -2.5139   24.4725  -28.0505 H   0  0  0  0  0  0  0  0  0  0  0  0
   -2.3235   23.1852  -29.2888 H   0  0  0  0  0  0  0  0  0  0  0  0
   -1.2191   24.6019  -29.2888 H   0  0  0  0  0  0  0  0  0  0  0  0
   -5.4806   26.2570  -29.4504 H   0  0  0  0  0  0  0  0  0  0  0  0
   -7.7455   25.4196  -30.0709 H   0  0  0  0  0  0  0  0  0  0  0  0
   -7.9983   23.2269  -31.2295 H   0  0  0  0  0  0  0  0  0  0  0  0
   -7.7427   20.6393  -30.8080 H   0  0  0  0  0  0  0  0  0  0  0  0
   -8.2178   18.0116  -31.8508 H   0  0  0  0  0  0  0  0  0  0  0  0
   -7.3646   16.3437  -33.5369 H   0  0  0  0  0  0  0  0  0  0  0  0
   -5.4152   16.9218  -35.0009 H   0  0  0  0  0  0  0  0  0  0  0  0
   -4.3109   19.1780  -34.8061 H   0  0  0  0  0  0  0  0  0  0  0  0
   -4.0500   21.7094  -34.5763 H   0  0  0  0  0  0  0  0  0  0  0  0
   -3.9406   22.7229  -33.0921 H   0  0  0  0  0  0  0  0  0  0  0  0
   -2.7336   20.9183  -31.9212 H   0  0  0  0  0  0  0  0  0  0  0  0
   -2.8848   19.8700  -33.3974 H   0  0  0  0  0  0  0  0  0  0  0  0
   -1.7440   22.1450  -34.3150 H   0  0  0  0  0  0  0  0  0  0  0  0
   -0.0246   20.0028  -33.2777 H   0  0  0  0  0  0  0  0  0  0  0  0
   -1.2447   19.6201  -34.5506 H   0  0  0  0  0  0  0  0  0  0  0  0
    1.3327   20.7540  -34.9177 H   0  0  0  0  0  0  0  0  0  0  0  0
    0.0183   20.5723  -36.1419 H   0  0  0  0  0  0  0  0  0  0  0  0
   -0.8240   22.5820  -35.2670 H   0  0  0  0  0  0  0  0  0  0  0  0
   -3.7021   22.7006  -31.1702 H   0  0  0  0  0  0  0  0  0  0  0  0
  1  2  1  0
  2  3  1  0
  3  4  2  0
  4  5  1  0
  5  6  2  0
  6  7  1  0
  7  8  1  0
  8  9  2  0
  9 10  1  0
 10 11  2  0
 11 12  1  0
 12 13  2  0
 13 14  1  0
 14 15  2  0
 15 16  1  0
 16 17  1  0
 17 18  1  0
 18 19  1  0
 19 20  1  0
 20 21  1  0
 21 22  1  0
  7 23  2  0
 23  3  1  0
 16  8  1  0
 15 10  1  0
  1 24  1  0
  1 25  1  0
  1 26  1  0
  4 27  1  0
  5 28  1  0
  6 29  1  0
  9 30  1  0
 11 31  1  0
 12 32  1  0
 13 33  1  0
 14 34  1  0
 17 35  1  0
 17 36  1  0
 18 37  1  0
 18 38  1  0
 19 39  1  0
 20 40  1  0
 20 41  1  0
 21 42  1  0
 21 43  1  0
 22 44  1  0
 23 45  1  0
M  END
>  <UniqueID>  (25) 
23

>  <SMILES>  (25) 
COc1cccc(-c2cc3ccccc3n2CCNCCO)c1

>  <Energy>  (25) 
82.38664361585768

>  <Genealogy>  (25) 
COc1cccc(-c2cc3ccccc3n2CCNCCO)c1 (3D coordinates assigned)
COc1cccc(-c2cc3ccccc3n2CCNCCO)c1 (optimized conformer: 82.38664361585768 kcal/mol)

>  <smiles>  (25) 
COc1cccc(-c2cc3ccccc3n2CCNCCO)c1

>  <score_type>  (25) 
oracle

>  <origin>  (25) 
adg

>  <m_score__min__energy>  (25) 
-9.2200000000000006

>  <m_primary>  (25) 
energy

$$$$
25:0
     RDKit          3D

 45 47  0  0  1  0  0  0  0  0999 V2000
   -4.8690   14.2380  -34.6520 C   0  0  0  0  0  0  0  0  0  0  0  0
   -5.0470   15.6620  -34.2470 C   0  0  0  0  0  0  0  0  0  0  0  0
   -4.3370   16.6490  -34.8940 C   0  0  0  0  0  0  0  0  0  0  0  0
   -4.4900   17.9710  -34.5320 C   0  0  0  0  0  0  0  0  0  0  0  0
   -5.3510   18.3710  -33.5140 C   0  0  0  0  0  0  0  0  0  0  0  0
   -5.4670   19.7990  -33.1780 C   0  0  0  0  0  0  0  0  0  0  0  0
   -4.9600   20.0800  -31.7640 C   0  0  0  0  0  0  0  0  0  0  0  0
   -4.9570   21.5720  -31.5320 C   0  0  0  0  0  0  0  0  0  0  0  0
   -6.3020   22.0610  -31.8330 N   0  0  0  0  0  0  0  0  0  0  0  0
   -6.6470   23.4160  -31.8930 C   0  0  0  0  0  0  0  0  0  0  0  0
   -7.8220   23.8020  -32.1560 O   0  0  0  0  0  0  0  0  0  0  0  0
   -5.6630   24.4140  -31.6540 N   0  0  0  0  0  0  0  0  0  0  0  0
   -4.9410   24.4320  -30.5940 C   0  0  0  0  0  0  0  0  0  0  0  0
   -5.3830   24.0220  -29.3540 C   0  0  0  0  0  0  0  0  0  0  0  0
   -4.5560   24.0620  -28.2360 C   0  0  0  0  0  0  0  0  0  0  0  0
   -3.2540   24.5370  -28.4220 C   0  0  0  0  0  0  0  0  0  0  0  0
   -2.8560   24.9270  -29.6360 N   0  0  0  0  0  0  0  0  0  0  0  0
   -3.6550   24.8780  -30.6730 N   0  0  0  0  0  0  0  0  0  0  0  0
   -7.3050   21.0250  -32.0760 C   0  0  0  0  0  0  0  0  0  0  0  0
   -6.8510   20.3370  -33.3610 C   0  0  0  0  0  0  0  0  0  0  0  0
   -6.0560   17.3730  -32.8740 C   0  0  0  0  0  0  0  0  0  0  0  0
   -6.9920   17.7300  -31.7800 C   0  0  0  0  0  0  0  0  0  0  0  0
   -5.8960   16.0340  -33.2480 C   0  0  0  0  0  0  0  0  0  0  0  0
   -4.7903   13.6083  -33.7535 H   0  0  0  0  0  0  0  0  0  0  0  0
   -5.7339   13.9162  -35.2506 H   0  0  0  0  0  0  0  0  0  0  0  0
   -3.9515   14.1390  -35.2506 H   0  0  0  0  0  0  0  0  0  0  0  0
   -3.6434   16.3812  -35.7047 H   0  0  0  0  0  0  0  0  0  0  0  0
   -3.9104   18.7374  -35.0674 H   0  0  0  0  0  0  0  0  0  0  0  0
   -4.8250   20.3317  -33.8950 H   0  0  0  0  0  0  0  0  0  0  0  0
   -5.6211   19.5939  -31.0315 H   0  0  0  0  0  0  0  0  0  0  0  0
   -3.9406   19.6832  -31.6483 H   0  0  0  0  0  0  0  0  0  0  0  0
   -4.7030   21.7896  -30.4841 H   0  0  0  0  0  0  0  0  0  0  0  0
   -4.2108   22.0645  -32.1728 H   0  0  0  0  0  0  0  0  0  0  0  0
   -6.4142   23.6545  -29.2461 H   0  0  0  0  0  0  0  0  0  0  0  0
   -4.9111   23.7340  -27.2479 H   0  0  0  0  0  0  0  0  0  0  0  0
   -2.5593   24.5894  -27.5707 H   0  0  0  0  0  0  0  0  0  0  0  0
   -3.2500   25.2080  -31.5910 H   0  0  0  0  0  0  0  0  0  0  0  0
   -7.3323   20.3087  -31.2417 H   0  0  0  0  0  0  0  0  0  0  0  0
   -8.3194   21.4413  -32.1638 H   0  0  0  0  0  0  0  0  0  0  0  0
   -7.5374   19.5102  -33.5962 H   0  0  0  0  0  0  0  0  0  0  0  0
   -6.8550   21.0639  -34.1866 H   0  0  0  0  0  0  0  0  0  0  0  0
   -6.5087   17.5457  -30.8092 H   0  0  0  0  0  0  0  0  0  0  0  0
   -7.2606   18.7937  -31.8598 H   0  0  0  0  0  0  0  0  0  0  0  0
   -7.9008   17.1154  -31.8598 H   0  0  0  0  0  0  0  0  0  0  0  0
   -6.4721   15.2595  -32.7205 H   0  0  0  0  0  0  0  0  0  0  0  0
  1  2  1  0
  2  3  2  0
  3  4  1  0
  4  5  2  0
  5  6  1  0
  6  7  1  0
  7  8  1  0
  8  9  1  0
  9 10  1  0
 10 11  2  0
 10 12  1  0
 12 13  2  0
 13 14  1  0
 14 15  2  0
 15 16  1  0
 16 17  2  0
 17 18  1  0
  9 19  1  0
 19 20  1  0
  5 21  1  0
 21 22  1  0
 21 23  2  0
 23  2  1  0
 20  6  1  0
 18 13  1  0
  1 24  1  0
  1 25  1  0
  1 26  1  0
  3 27  1  0
  4 28  1  0
  6 29  1  0
  7 30  1  0
  7 31  1  0
  8 32  1  0
  8 33  1  0
 14 34  1  0
 15 35  1  0
 16 36  1  0
 18 37  1  0
 19 38  1  0
 19 39  1  0
 20 40  1  0
 20 41  1  0
 22 42  1  0
 22 43  1  0
 22 44  1  0
 23 45  1  0
M  END
>  <smiles>  (26) 
Cc1ccc(C2CCN(C(=O)N=c3cccn[nH]3)CC2)c(C)c1

>  <score_type>  (26) 
oracle

>  <origin>  (26) 
adg

>  <m_score__min__energy>  (26) 
-9.0999999999999996

>  <m_primary>  (26) 
energy

$$$$
26:0
     RDKit          3D

 39 40  0  0  0  0  0  0  0  0999 V2000
   -4.9531   21.4998  -32.7652 H   0  0  0  0  0  0  0  0  0  0  0  0
   -5.2150   22.2970  -32.0540 C   0  0  0  0  0  0  0  0  0  0  0  0
   -4.2490   23.1410  -31.6040 N   0  0  0  0  0  0  0  0  0  0  0  0
   -4.5150   24.1420  -30.7220 C   0  0  0  0  0  0  0  0  0  0  0  0
   -3.5720   24.9330  -30.3070 N   0  0  0  0  0  0  0  0  0  0  0  0
   -2.5320   24.5740  -28.9670 S   0  0  0  0  0  0  0  0  0  0  0  0
   -1.3150   25.4550  -29.0140 O   0  0  0  0  0  0  0  0  0  0  0  0
   -3.2640   24.8120  -27.6740 O   0  0  0  0  0  0  0  0  0  0  0  0
   -2.0410   22.8870  -29.0630 C   0  0  0  0  0  0  0  0  0  0  0  0
   -1.2020   22.4550  -30.1000 C   0  0  0  0  0  0  0  0  0  0  0  0
   -0.8411   23.1740  -30.8502 H   0  0  0  0  0  0  0  0  0  0  0  0
   -0.8230   21.1100  -30.1820 C   0  0  0  0  0  0  0  0  0  0  0  0
   -0.1611   20.7742  -30.9938 H   0  0  0  0  0  0  0  0  0  0  0  0
   -1.2850   20.1930  -29.2330 C   0  0  0  0  0  0  0  0  0  0  0  0
   -0.9855   19.1366  -29.2980 H   0  0  0  0  0  0  0  0  0  0  0  0
   -2.1270   20.6180  -28.2020 C   0  0  0  0  0  0  0  0  0  0  0  0
   -2.4906   19.8955  -27.4564 H   0  0  0  0  0  0  0  0  0  0  0  0
   -2.5080   21.9610  -28.1170 C   0  0  0  0  0  0  0  0  0  0  0  0
   -3.1749   22.2923  -27.3073 H   0  0  0  0  0  0  0  0  0  0  0  0
   -5.8170   24.3210  -30.2580 C   0  0  0  0  0  0  0  0  0  0  0  0
   -6.0446   25.1270  -29.5449 H   0  0  0  0  0  0  0  0  0  0  0  0
   -6.8300   23.4710  -30.7040 C   0  0  0  0  0  0  0  0  0  0  0  0
   -7.8580   23.6119  -30.3387 H   0  0  0  0  0  0  0  0  0  0  0  0
   -6.5510   22.4330  -31.6180 C   0  0  0  0  0  0  0  0  0  0  0  0
   -7.5990   21.5370  -32.0920 N   0  0  0  0  0  0  0  0  0  0  0  0
   -7.2770   20.2670  -32.7670 C   0  0  0  0  0  0  0  0  0  0  0  0
   -6.2451   19.9781  -32.5185 H   0  0  0  0  0  0  0  0  0  0  0  0
   -7.3846   20.4078  -33.8526 H   0  0  0  0  0  0  0  0  0  0  0  0
   -8.2280   19.1590  -32.3210 C   0  0  0  0  0  0  0  0  0  0  0  0
   -8.2591   19.1228  -31.2220 H   0  0  0  0  0  0  0  0  0  0  0  0
   -9.2366   19.3629  -32.7098 H   0  0  0  0  0  0  0  0  0  0  0  0
   -7.8735   18.1930  -32.7098 H   0  0  0  0  0  0  0  0  0  0  0  0
   -9.0250   21.8620  -31.9170 C   0  0  0  0  0  0  0  0  0  0  0  0
   -9.1793   22.9309  -32.1257 H   0  0  0  0  0  0  0  0  0  0  0  0
   -9.6143   21.2465  -32.6126 H   0  0  0  0  0  0  0  0  0  0  0  0
   -9.4800   21.5600  -30.4920 C   0  0  0  0  0  0  0  0  0  0  0  0
   -8.7825   22.0230  -29.7785 H   0  0  0  0  0  0  0  0  0  0  0  0
  -10.4894   21.9680  -30.3352 H   0  0  0  0  0  0  0  0  0  0  0  0
   -9.4961   20.4714  -30.3352 H   0  0  0  0  0  0  0  0  0  0  0  0
  1  2  1  0
  2  3  1  0
  3  4  1  0
  4  5  2  0
  5  6  1  0
  6  7  2  0
  6  8  2  0
  6  9  1  0
  9 10  2  0
 10 11  1  0
 10 12  1  0
 12 13  1  0
 12 14  2  0
 14 15  1  0
 14 16  1  0
 16 17  1  0
 16 18  2  0
 18 19  1  0
  4 20  1  0
 20 21  1  0
 20 22  2  0
 22 23  1  0
 22 24  1  0
 24 25  1  0
 25 26  1  0
 26 27  1  0
 26 28  1  0
 26 29  1  0
 29 30  1  0
 29 31  1  0
 29 32  1  0
 25 33  1  0
 33 34  1  0
 33 35  1  0
 33 36  1  0
 36 37  1  0
 36 38  1  0
 36 39  1  0
 24  2  2  0
 18  9  1  0
M  CHG  1   3  -1
M  END
>  <UniqueID>  (27) 
24

>  <SMILES>  (27) 
CCN(CC)c1cc/c(=N/S(=O)(=O)c2ccccc2)[n-]c1

>  <Energy>  (27) 
42.34770520782896

>  <Genealogy>  (27) 
CCN(CC)c1ccc(=NS(=O)(=O)c2ccccc2)[n-]c1 (protonated)
CCN(CC)c1cc/c(=N/S(=O)(=O)c2ccccc2)[n-]c1 (cis-trans isomerization)
CCN(CC)c1cc/c(=N/S(=O)(=O)c2ccccc2)[n-]c1 (3D coordinates assigned)
CCN(CC)c1cc/c(=N/S(=O)(=O)c2ccccc2)[n-]c1 (optimized conformer: 42.34770520782896 kcal/mol)

>  <smiles>  (27) 
CCN(CC)c1ccc(=NS(=O)(=O)c2ccccc2)[nH]c1

>  <score_type>  (27) 
oracle

>  <origin>  (27) 
adg

>  <m_score__min__energy>  (27) 
-8.9299999999999997

>  <m_primary>  (27) 
energy

$$$$
27:0
     RDKit          3D

 57 60  0  0  0  0  0  0  0  0999 V2000
   -5.7580   16.5020  -31.3080 O   0  0  0  0  0  0  0  0  0  0  0  0
   -6.1520   17.8050  -30.9580 C   0  0  0  0  0  0  0  0  0  0  0  0
   -6.6460   18.6250  -32.1890 C   0  0  1  0  0  0  0  0  0  0  0  0
   -5.7920   18.2930  -33.4570 C   0  0  0  0  0  0  0  0  0  0  0  0
   -4.3340   18.6950  -33.3830 C   0  0  0  0  0  0  0  0  0  0  0  0
   -3.9640   20.0460  -33.5140 C   0  0  0  0  0  0  0  0  0  0  0  0
   -2.6180   20.4200  -33.4520 C   0  0  0  0  0  0  0  0  0  0  0  0
   -1.6300   19.4500  -33.2710 C   0  0  0  0  0  0  0  0  0  0  0  0
   -1.9850   18.1040  -33.1590 C   0  0  0  0  0  0  0  0  0  0  0  0
   -3.3290   17.7250  -33.2210 C   0  0  0  0  0  0  0  0  0  0  0  0
   -8.1580   18.3420  -32.4740 C   0  0  0  0  0  0  0  0  0  0  0  0
   -9.0790   19.1670  -31.5690 C   0  0  0  0  0  0  0  0  0  0  0  0
   -8.8260   20.6800  -31.7430 C   0  0  0  0  0  0  0  0  0  0  0  0
   -7.5490   20.9480  -32.4380 N   0  0  0  0  0  0  0  0  0  0  0  0
   -7.2390   22.3920  -32.5480 C   0  0  0  0  0  0  0  0  0  0  0  0
   -6.2400   22.8880  -31.5230 C   0  0  0  0  0  0  0  0  0  0  0  0
   -6.6790   23.4260  -30.3020 C   0  0  0  0  0  0  0  0  0  0  0  0
   -5.7570   23.8870  -29.3590 C   0  0  0  0  0  0  0  0  0  0  0  0
   -4.3760   23.8130  -29.6140 C   0  0  0  0  0  0  0  0  0  0  0  0
   -3.3950   24.3060  -28.6130 C   0  0  0  0  0  0  0  0  0  0  0  0
   -2.0580   24.5460  -28.9810 C   0  0  0  0  0  0  0  0  0  0  0  0
   -1.1360   25.0110  -28.0380 C   0  0  0  0  0  0  0  0  0  0  0  0
   -1.5380   25.2420  -26.7200 C   0  0  0  0  0  0  0  0  0  0  0  0
   -2.8610   25.0060  -26.3430 C   0  0  0  0  0  0  0  0  0  0  0  0
   -3.7870   24.5430  -27.2820 C   0  0  0  0  0  0  0  0  0  0  0  0
   -3.9390   23.2610  -30.8300 C   0  0  0  0  0  0  0  0  0  0  0  0
   -4.8620   22.7990  -31.7720 C   0  0  0  0  0  0  0  0  0  0  0  0
   -6.4510   20.1500  -31.8600 C   0  0  0  0  0  0  0  0  0  0  0  0
   -5.7160   15.9700  -30.4710 H   0  0  0  0  0  0  0  0  0  0  0  0
   -6.9688   17.7423  -30.2239 H   0  0  0  0  0  0  0  0  0  0  0  0
   -5.2749   18.3209  -30.5402 H   0  0  0  0  0  0  0  0  0  0  0  0
   -5.8362   17.2061  -33.6206 H   0  0  0  0  0  0  0  0  0  0  0  0
   -6.2271   18.8823  -34.2776 H   0  0  0  0  0  0  0  0  0  0  0  0
   -4.7381   20.8126  -33.6661 H   0  0  0  0  0  0  0  0  0  0  0  0
   -2.3372   21.4794  -33.5459 H   0  0  0  0  0  0  0  0  0  0  0  0
   -0.5720   19.7461  -33.2166 H   0  0  0  0  0  0  0  0  0  0  0  0
   -1.2052   17.3404  -33.0217 H   0  0  0  0  0  0  0  0  0  0  0  0
   -3.6019   16.6623  -33.1426 H   0  0  0  0  0  0  0  0  0  0  0  0
   -8.3742   18.5925  -33.5230 H   0  0  0  0  0  0  0  0  0  0  0  0
   -8.3478   17.2777  -32.2707 H   0  0  0  0  0  0  0  0  0  0  0  0
  -10.1256   18.9466  -31.8261 H   0  0  0  0  0  0  0  0  0  0  0  0
   -8.8708   18.8977  -30.5230 H   0  0  0  0  0  0  0  0  0  0  0  0
   -9.6487   21.1130  -32.3308 H   0  0  0  0  0  0  0  0  0  0  0  0
   -8.7721   21.1344  -30.7427 H   0  0  0  0  0  0  0  0  0  0  0  0
   -6.8289   22.5822  -33.5508 H   0  0  0  0  0  0  0  0  0  0  0  0
   -8.1785   22.9339  -32.3645 H   0  0  0  0  0  0  0  0  0  0  0  0
   -7.7561   23.4848  -30.0868 H   0  0  0  0  0  0  0  0  0  0  0  0
   -6.1143   24.3114  -28.4091 H   0  0  0  0  0  0  0  0  0  0  0  0
   -1.7360   24.3666  -30.0174 H   0  0  0  0  0  0  0  0  0  0  0  0
   -0.0928   25.1952  -28.3343 H   0  0  0  0  0  0  0  0  0  0  0  0
   -0.8122   25.6097  -25.9798 H   0  0  0  0  0  0  0  0  0  0  0  0
   -3.1757   25.1848  -25.3043 H   0  0  0  0  0  0  0  0  0  0  0  0
   -4.8289   24.3626  -26.9789 H   0  0  0  0  0  0  0  0  0  0  0  0
   -2.8619   23.1920  -31.0421 H   0  0  0  0  0  0  0  0  0  0  0  0
   -4.5054   22.3620  -32.7164 H   0  0  0  0  0  0  0  0  0  0  0  0
   -5.4943   20.4918  -32.2817 H   0  0  0  0  0  0  0  0  0  0  0  0
   -6.4526   20.2813  -30.7679 H   0  0  0  0  0  0  0  0  0  0  0  0
  1  2  1  0
  3  2  1  1
  3  4  1  0
  4  5  1  0
  5  6  2  0
  6  7  1  0
  7  8  2  0
  8  9  1  0
  9 10  2  0
  3 11  1  0
 11 12  1  0
 12 13  1  0
 13 14  1  0
 14 15  1  0
 15 16  1  0
 16 17  2  0
 17 18  1  0
 18 19  2  0
 19 20  1  0
 20 21  2  0
 21 22  1  0
 22 23  2  0
 23 24  1  0
 24 25  2  0
 19 26  1  0
 26 27  2  0
 14 28  1  0
 28  3  1  0
 10  5  1  0
 27 16  1  0
 25 20  1  0
  1 29  1  0
  2 30  1  0
  2 31  1  0
  4 32  1  0
  4 33  1  0
  6 34  1  0
  7 35  1  0
  8 36  1  0
  9 37  1  0
 10 38  1  0
 11 39  1  0
 11 40  1  0
 12 41  1  0
 12 42  1  0
 13 43  1  0
 13 44  1  0
 15 45  1  0
 15 46  1  0
 17 47  1  0
 18 48  1  0
 21 49  1  0
 22 50  1  0
 23 51  1  0
 24 52  1  0
 25 53  1  0
 26 54  1  0
 27 55  1  0
 28 56  1  0
 28 57  1  0
M  END
>  <UniqueID>  (28) 
25

>  <SMILES>  (28) 
OC[C@@]1(Cc2ccccc2)CCCN(Cc2ccc(-c3ccccc3)cc2)C1

>  <Energy>  (28) 
78.08370633462987

>  <Genealogy>  (28) 
OC[C@@]1(Cc2ccccc2)CCCN(Cc2ccc(-c3ccccc3)cc2)C1 (chirality)
OC[C@@]1(Cc2ccccc2)CCCN(Cc2ccc(-c3ccccc3)cc2)C1 (3D coordinates assigned)
OC[C@@]1(Cc2ccccc2)CCCN(Cc2ccc(-c3ccccc3)cc2)C1 (nonaromatic ring conformer: 78.08370633462987 kcal/mol)

>  <smiles>  (28) 
OCC1(Cc2ccccc2)CCCN(Cc2ccc(-c3ccccc3)cc2)C1

>  <score_type>  (28) 
oracle

>  <origin>  (28) 
adg

>  <m_score__min__energy>  (28) 
-9.6999999999999993

>  <m_primary>  (28) 
energy

$$$$
28:0
     RDKit          3D

 37 37  0  0  0  0  0  0  0  0999 V2000
   -3.8080   24.1100  -28.3570 C   0  0  0  0  0  0  0  0  0  0  0  0
   -3.3350   24.5220  -29.7480 C   0  0  0  0  0  0  0  0  0  0  0  0
   -4.3730   24.2550  -30.7700 N   0  0  0  0  0  0  0  0  0  0  0  0
   -5.4200   25.3050  -30.7910 C   0  0  0  0  0  0  0  0  0  0  0  0
   -6.7190   24.8950  -30.0830 C   0  0  0  0  0  0  0  0  0  0  0  0
   -4.9350   22.8840  -30.6970 C   0  0  0  0  0  0  0  0  0  0  0  0
   -4.7880   22.1660  -32.0440 C   0  0  0  0  0  0  0  0  0  0  0  0
   -6.0830   22.0240  -32.7140 N   0  0  0  0  0  0  0  0  0  0  0  0
   -6.9500   20.8830  -32.5620 C   0  0  0  0  0  0  0  0  0  0  0  0
   -6.4970   19.5910  -32.8920 C   0  0  0  0  0  0  0  0  0  0  0  0
   -7.3350   18.4850  -32.7480 C   0  0  0  0  0  0  0  0  0  0  0  0
   -8.6310   18.6470  -32.2620 C   0  0  0  0  0  0  0  0  0  0  0  0
   -9.0940   19.9180  -31.9170 C   0  0  0  0  0  0  0  0  0  0  0  0
   -8.2670   21.0440  -32.0660 C   0  0  0  0  0  0  0  0  0  0  0  0
   -8.8000   22.4030  -31.7030 C   0  0  0  0  0  0  0  0  0  0  0  0
   -3.2088   24.6320  -27.5964 H   0  0  0  0  0  0  0  0  0  0  0  0
   -4.8680   24.3778  -28.2359 H   0  0  0  0  0  0  0  0  0  0  0  0
   -3.6882   23.0233  -28.2359 H   0  0  0  0  0  0  0  0  0  0  0  0
   -3.1042   25.5975  -29.7441 H   0  0  0  0  0  0  0  0  0  0  0  0
   -2.4406   23.9331  -29.9993 H   0  0  0  0  0  0  0  0  0  0  0  0
   -5.0221   26.2023  -30.2944 H   0  0  0  0  0  0  0  0  0  0  0  0
   -5.6723   25.4865  -31.8462 H   0  0  0  0  0  0  0  0  0  0  0  0
   -6.5731   24.9410  -28.9937 H   0  0  0  0  0  0  0  0  0  0  0  0
   -7.5276   25.5816  -30.3740 H   0  0  0  0  0  0  0  0  0  0  0  0
   -6.9870   23.8686  -30.3740 H   0  0  0  0  0  0  0  0  0  0  0  0
   -4.3986   22.3145  -29.9237 H   0  0  0  0  0  0  0  0  0  0  0  0
   -6.0041   22.9527  -30.4474 H   0  0  0  0  0  0  0  0  0  0  0  0
   -4.1126   22.7477  -32.6886 H   0  0  0  0  0  0  0  0  0  0  0  0
   -4.3796   21.1613  -31.8599 H   0  0  0  0  0  0  0  0  0  0  0  0
   -6.3550   22.7790  -33.3830 H   0  0  0  0  0  0  0  0  0  0  0  0
   -5.4722   19.4525  -33.2670 H   0  0  0  0  0  0  0  0  0  0  0  0
   -6.9719   17.4826  -33.0187 H   0  0  0  0  0  0  0  0  0  0  0  0
   -9.2895   17.7730  -32.1502 H   0  0  0  0  0  0  0  0  0  0  0  0
  -10.1147   20.0389  -31.5253 H   0  0  0  0  0  0  0  0  0  0  0  0
   -8.8385   22.5013  -30.6081 H   0  0  0  0  0  0  0  0  0  0  0  0
   -8.1395   23.1787  -32.1177 H   0  0  0  0  0  0  0  0  0  0  0  0
   -9.8117   22.5228  -32.1177 H   0  0  0  0  0  0  0  0  0  0  0  0
  1  2  1  0
  2  3  1  0
  3  4  1  0
  4  5  1  0
  3  6  1  0
  6  7  1  0
  7  8  1  0
  8  9  1  0
  9 10  2  0
 10 11  1  0
 11 12  2  0
 12 13  1  0
 13 14  2  0
 14 15  1  0
 14  9  1  0
  1 16  1  0
  1 17  1  0
  1 18  1  0
  2 19  1  0
  2 20  1  0
  4 21  1  0
  4 22  1  0
  5 23  1  0
  5 24  1  0
  5 25  1  0
  6 26  1  0
  6 27  1  0
  7 28  1  0
  7 29  1  0
  8 30  1  0
 10 31  1  0
 11 32  1  0
 12 33  1  0
 13 34  1  0
 15 35  1  0
 15 36  1  0
 15 37  1  0
M  END
>  <UniqueID>  (29) 
26

>  <SMILES>  (29) 
CCN(CC)CCNc1ccccc1C

>  <Energy>  (29) 
34.38084606819715

>  <Genealogy>  (29) 
CCN(CC)CCNc1ccccc1C (3D coordinates assigned)
CCN(CC)CCNc1ccccc1C (optimized conformer: 34.38084606819715 kcal/mol)

>  <smiles>  (29) 
CCN(CC)CCNc1ccccc1C

>  <score_type>  (29) 
oracle

>  <origin>  (29) 
adg

>  <m_score__min__energy>  (29) 
-6.5700000000000003

>  <m_primary>  (29) 
energy

$$$$
29:0
     RDKit          3D

 76 82  0  0  0  0  0  0  0  0999 V2000
   -3.0600   13.7140  -32.1860 C   0  0  0  0  0  0  0  0  0  0  0  0
   -2.5780   14.9780  -32.9060 C   0  0  0  0  0  0  0  0  0  0  0  0
   -1.9680   14.6570  -34.2730 C   0  0  0  0  0  0  0  0  0  0  0  0
   -3.6520   16.0530  -32.9220 C   0  0  0  0  0  0  0  0  0  0  0  0
   -4.8860   15.7740  -32.4250 N   0  0  0  0  0  0  0  0  0  0  0  0
   -5.5790   16.9000  -32.6430 C   0  0  0  0  0  0  0  0  0  0  0  0
   -6.8950   17.1600  -32.2730 C   0  0  0  0  0  0  0  0  0  0  0  0
   -7.4010   18.4510  -32.5160 C   0  0  0  0  0  0  0  0  0  0  0  0
   -6.6210   19.3980  -33.2070 C   0  0  0  0  0  0  0  0  0  0  0  0
   -5.2970   19.0970  -33.5910 C   0  0  0  0  0  0  0  0  0  0  0  0
   -4.7990   17.8290  -33.2640 C   0  0  0  0  0  0  0  0  0  0  0  0
   -3.5650   17.3150  -33.4560 N   0  0  0  0  0  0  0  0  0  0  0  0
   -2.4210   18.0060  -34.0700 C   0  0  0  0  0  0  0  0  0  0  0  0
   -1.9340   19.1560  -33.2270 C   0  0  0  0  0  0  0  0  0  0  0  0
   -2.4690   20.4420  -33.4160 C   0  0  0  0  0  0  0  0  0  0  0  0
   -2.0140   21.5170  -32.6490 C   0  0  0  0  0  0  0  0  0  0  0  0
   -1.0100   21.3230  -31.6980 C   0  0  0  0  0  0  0  0  0  0  0  0
   -0.4430   20.0560  -31.5330 C   0  0  0  0  0  0  0  0  0  0  0  0
   -0.8900   18.9810  -32.3040 C   0  0  0  0  0  0  0  0  0  0  0  0
   -7.2310   20.7520  -33.4210 C   0  0  0  0  0  0  0  0  0  0  0  0
   -7.7980   21.2510  -32.1470 N   0  0  0  0  0  0  0  0  0  0  0  0
   -6.7160   21.6270  -31.2070 C   0  0  0  0  0  0  0  0  0  0  0  0
   -7.1200   22.8270  -30.3370 C   0  0  0  0  0  0  0  0  0  0  0  0
   -6.1450   24.2980  -30.8140 S   0  0  0  0  0  0  0  0  0  0  0  0
   -4.8800   24.1020  -29.5570 C   0  0  0  0  0  0  0  0  0  0  0  0
   -5.0020   24.5310  -28.2890 N   0  0  0  0  0  0  0  0  0  0  0  0
   -3.8510   24.3040  -27.6780 N   0  0  0  0  0  0  0  0  0  0  0  0
   -3.0710   23.7100  -28.6030 C   0  0  0  0  0  0  0  0  0  0  0  0
   -1.7030   23.2510  -28.3520 C   0  0  0  0  0  0  0  0  0  0  0  0
   -0.6080   24.0500  -28.0390 C   0  0  0  0  0  0  0  0  0  0  0  0
    0.4860   23.2780  -27.8350 N   0  0  0  0  0  0  0  0  0  0  0  0
    1.8090   23.7420  -27.4220 C   0  0  0  0  0  0  0  0  0  0  0  0
    0.0840   21.9960  -27.9820 C   0  0  0  0  0  0  0  0  0  0  0  0
    0.8300   20.8340  -27.7740 C   0  0  0  0  0  0  0  0  0  0  0  0
    0.1620   19.5990  -27.8730 C   0  0  0  0  0  0  0  0  0  0  0  0
   -1.2200   19.5510  -28.1660 C   0  0  0  0  0  0  0  0  0  0  0  0
   -1.9410   20.7340  -28.3990 C   0  0  0  0  0  0  0  0  0  0  0  0
   -1.2540   21.9440  -28.3020 C   0  0  0  0  0  0  0  0  0  0  0  0
   -3.6910   23.5890  -29.7580 O   0  0  0  0  0  0  0  0  0  0  0  0
   -8.7940   20.3210  -31.5300 C   0  0  0  0  0  0  0  0  0  0  0  0
   -8.7760   18.8630  -32.0740 C   0  0  0  0  0  0  0  0  0  0  0  0
   -3.0017   13.8668  -31.0982 H   0  0  0  0  0  0  0  0  0  0  0  0
   -4.1013   13.5039  -32.4715 H   0  0  0  0  0  0  0  0  0  0  0  0
   -2.4229   12.8639  -32.4715 H   0  0  0  0  0  0  0  0  0  0  0  0
   -1.7490   15.4134  -32.3288 H   0  0  0  0  0  0  0  0  0  0  0  0
   -1.0024   14.1489  -34.1334 H   0  0  0  0  0  0  0  0  0  0  0  0
   -2.6499   14.0009  -34.8339 H   0  0  0  0  0  0  0  0  0  0  0  0
   -1.8134   15.5906  -34.8339 H   0  0  0  0  0  0  0  0  0  0  0  0
   -7.5187   16.3832  -31.8065 H   0  0  0  0  0  0  0  0  0  0  0  0
   -4.6783   19.8313  -34.1276 H   0  0  0  0  0  0  0  0  0  0  0  0
   -1.5988   17.2865  -34.1973 H   0  0  0  0  0  0  0  0  0  0  0  0
   -2.7502   18.4115  -35.0381 H   0  0  0  0  0  0  0  0  0  0  0  0
   -3.2510   20.6028  -34.1727 H   0  0  0  0  0  0  0  0  0  0  0  0
   -2.4471   22.5177  -32.7943 H   0  0  0  0  0  0  0  0  0  0  0  0
   -0.6660   22.1655  -31.0800 H   0  0  0  0  0  0  0  0  0  0  0  0
    0.3575   19.9054  -30.7938 H   0  0  0  0  0  0  0  0  0  0  0  0
   -0.4221   17.9923  -32.1879 H   0  0  0  0  0  0  0  0  0  0  0  0
   -6.4577   21.4496  -33.7752 H   0  0  0  0  0  0  0  0  0  0  0  0
   -8.0318   20.6763  -34.1713 H   0  0  0  0  0  0  0  0  0  0  0  0
   -6.4956   20.7697  -30.5539 H   0  0  0  0  0  0  0  0  0  0  0  0
   -5.8298   21.9087  -31.7946 H   0  0  0  0  0  0  0  0  0  0  0  0
   -8.1903   23.0369  -30.4796 H   0  0  0  0  0  0  0  0  0  0  0  0
   -6.9249   22.5903  -29.2806 H   0  0  0  0  0  0  0  0  0  0  0  0
   -5.8300   24.9940  -27.8540 H   0  0  0  0  0  0  0  0  0  0  0  0
   -0.6278   25.1475  -27.9677 H   0  0  0  0  0  0  0  0  0  0  0  0
    1.8644   23.7614  -26.3236 H   0  0  0  0  0  0  0  0  0  0  0  0
    2.5764   23.0594  -27.8158 H   0  0  0  0  0  0  0  0  0  0  0  0
    1.9819   24.7544  -27.8158 H   0  0  0  0  0  0  0  0  0  0  0  0
    1.9039   20.8822  -27.5406 H   0  0  0  0  0  0  0  0  0  0  0  0
    0.7201   18.6634  -27.7211 H   0  0  0  0  0  0  0  0  0  0  0  0
   -1.7348   18.5800  -28.2119 H   0  0  0  0  0  0  0  0  0  0  0  0
   -3.0117   20.7069  -28.6496 H   0  0  0  0  0  0  0  0  0  0  0  0
   -8.5963   20.2817  -30.4486 H   0  0  0  0  0  0  0  0  0  0  0  0
   -9.7842   20.7264  -31.7854 H   0  0  0  0  0  0  0  0  0  0  0  0
   -9.1137   18.1819  -31.2790 H   0  0  0  0  0  0  0  0  0  0  0  0
   -9.4449   18.8144  -32.9459 H   0  0  0  0  0  0  0  0  0  0  0  0
  1  2  1  0
  2  3  1  0
  2  4  1  0
  4  5  2  0
  5  6  1  0
  6  7  2  0
  7  8  1  0
  8  9  2  0
  9 10  1  0
 10 11  2  0
 11 12  1  0
 12 13  1  0
 13 14  1  0
 14 15  2  0
 15 16  1  0
 16 17  2  0
 17 18  1  0
 18 19  2  0
  9 20  1  0
 20 21  1  0
 21 22  1  0
 22 23  1  0
 23 24  1  0
 24 25  1  0
 25 26  2  0
 26 27  1  0
 27 28  2  0
 28 29  1  0
 29 30  2  0
 30 31  1  0
 31 32  1  0
 31 33  1  0
 33 34  2  0
 34 35  1  0
 35 36  2  0
 36 37  1  0
 37 38  2  0
 28 39  1  0
 21 40  1  0
 40 41  1  0
 12  4  1  0
 19 14  1  0
 39 25  1  0
 11  6  1  0
 38 29  1  0
 41  8  1  0
 38 33  1  0
  1 42  1  0
  1 43  1  0
  1 44  1  0
  2 45  1  0
  3 46  1  0
  3 47  1  0
  3 48  1  0
  7 49  1  0
 10 50  1  0
 13 51  1  0
 13 52  1  0
 15 53  1  0
 16 54  1  0
 17 55  1  0
 18 56  1  0
 19 57  1  0
 20 58  1  0
 20 59  1  0
 22 60  1  0
 22 61  1  0
 23 62  1  0
 23 63  1  0
 26 64  1  0
 30 65  1  0
 32 66  1  0
 32 67  1  0
 32 68  1  0
 34 69  1  0
 35 70  1  0
 36 71  1  0
 37 72  1  0
 40 73  1  0
 40 74  1  0
 41 75  1  0
 41 76  1  0
M  CHG  1  26   1
M  END
>  <UniqueID>  (30) 
27

>  <SMILES>  (30) 
CC(C)c1nc2cc3c(cc2n1Cc1ccccc1)CN(CCSc1[nH+]nc(-c2cn(C)c4ccccc24)o1)CC3

>  <Energy>  (30) 
200.91423617488567

>  <Genealogy>  (30) 
CC(C)c1nc2cc3c(cc2n1Cc1ccccc1)CN(CCSc1[nH+]nc(-c2cn(C)c4ccccc24)o1)CC3 (protonated)
CC(C)c1nc2cc3c(cc2n1Cc1ccccc1)CN(CCSc1[nH+]nc(-c2cn(C)c4ccccc24)o1)CC3 (3D coordinates assigned)
CC(C)c1nc2cc3c(cc2n1Cc1ccccc1)CN(CCSc1[nH+]nc(-c2cn(C)c4ccccc24)o1)CC3 (nonaromatic ring conformer: 200.91423617488567 kcal/mol)

>  <smiles>  (30) 
CC(C)c1nc2cc3c(cc2n1Cc1ccccc1)CN(CCSc1nnc(-c2cn(C)c4ccccc24)o1)CC3

>  <score_type>  (30) 
oracle

>  <origin>  (30) 
adg

>  <m_score__min__energy>  (30) 
-11.74

>  <m_primary>  (30) 
energy

$$$$
30:0
     RDKit          3D

 32 33  0  0  0  0  0  0  0  0999 V2000
   -5.3470   21.6560  -32.3920 C   0  0  0  0  0  0  0  0  0  0  0  0
   -5.4470   22.8570  -31.4880 C   0  0  0  0  0  0  0  0  0  0  0  0
   -4.2570   23.4640  -31.0520 C   0  0  0  0  0  0  0  0  0  0  0  0
   -4.2880   24.5450  -30.1630 C   0  0  0  0  0  0  0  0  0  0  0  0
   -3.1070   25.1430  -29.7290 O   0  0  0  0  0  0  0  0  0  0  0  0
   -5.5130   25.0270  -29.7020 C   0  0  0  0  0  0  0  0  0  0  0  0
   -6.7040   24.4480  -30.1380 C   0  0  0  0  0  0  0  0  0  0  0  0
   -6.6940   23.3880  -31.0620 C   0  0  0  0  0  0  0  0  0  0  0  0
   -7.9930   22.8690  -31.5430 C   0  0  0  0  0  0  0  0  0  0  0  0
   -8.5280   23.3890  -32.5590 O   0  0  0  0  0  0  0  0  0  0  0  0
   -8.6570   21.6860  -30.8940 C   0  0  0  0  0  0  0  0  0  0  0  0
   -9.7140   20.7890  -32.0840 S   0  0  0  0  0  0  0  0  0  0  0  0
   -8.4350   19.6280  -32.5780 C   0  0  0  0  0  0  0  0  0  0  0  0
   -8.3830   18.3500  -32.0090 C   0  0  0  0  0  0  0  0  0  0  0  0
   -7.3650   17.4620  -32.3720 C   0  0  0  0  0  0  0  0  0  0  0  0
   -6.4020   17.8460  -33.3130 C   0  0  0  0  0  0  0  0  0  0  0  0
   -5.0040   16.6390  -33.7970 Br  0  0  0  0  0  0  0  0  0  0  0  0
   -6.4650   19.1160  -33.8970 C   0  0  0  0  0  0  0  0  0  0  0  0
   -7.4830   20.0040  -33.5350 C   0  0  0  0  0  0  0  0  0  0  0  0
   -5.2710   20.7435  -31.7824 H   0  0  0  0  0  0  0  0  0  0  0  0
   -6.2435   21.5992  -33.0268 H   0  0  0  0  0  0  0  0  0  0  0  0
   -4.4534   21.7483  -33.0268 H   0  0  0  0  0  0  0  0  0  0  0  0
   -3.2896   23.0853  -31.4135 H   0  0  0  0  0  0  0  0  0  0  0  0
   -3.0990   26.0790  -29.3410 H   0  0  0  0  0  0  0  0  0  0  0  0
   -5.5395   25.8668  -28.9920 H   0  0  0  0  0  0  0  0  0  0  0  0
   -7.6635   24.8251  -29.7544 H   0  0  0  0  0  0  0  0  0  0  0  0
   -7.8827   21.0026  -30.5153 H   0  0  0  0  0  0  0  0  0  0  0  0
   -9.2892   22.0491  -30.0703 H   0  0  0  0  0  0  0  0  0  0  0  0
   -9.1435   18.0438  -31.2756 H   0  0  0  0  0  0  0  0  0  0  0  0
   -7.3210   16.4611  -31.9178 H   0  0  0  0  0  0  0  0  0  0  0  0
   -5.7131   19.4163  -34.6416 H   0  0  0  0  0  0  0  0  0  0  0  0
   -7.5364   20.9985  -34.0020 H   0  0  0  0  0  0  0  0  0  0  0  0
  1  2  1  0
  2  3  2  0
  3  4  1  0
  4  5  1  0
  4  6  2  0
  6  7  1  0
  7  8  2  0
  8  9  1  0
  9 10  2  0
  9 11  1  0
 11 12  1  0
 12 13  1  0
 13 14  2  0
 14 15  1  0
 15 16  2  0
 16 17  1  0
 16 18  1  0
 18 19  2  0
  8  2  1  0
 19 13  1  0
  1 20  1  0
  1 21  1  0
  1 22  1  0
  3 23  1  0
  5 24  1  0
  6 25  1  0
  7 26  1  0
 11 27  1  0
 11 28  1  0
 14 29  1  0
 15 30  1  0
 18 31  1  0
 19 32  1  0
M  END
>  <UniqueID>  (31) 
28

>  <SMILES>  (31) 
Cc1cc(O)ccc1C(=O)CSc1ccc(Br)cc1

>  <Energy>  (31) 
32.14590428936486

>  <Genealogy>  (31) 
Cc1cc(O)ccc1C(=O)CSc1ccc(Br)cc1 (3D coordinates assigned)
Cc1cc(O)ccc1C(=O)CSc1ccc(Br)cc1 (optimized conformer: 32.14590428936486 kcal/mol)

>  <smiles>  (31) 
Cc1cc(O)ccc1C(=O)CSc1ccc(Br)cc1

>  <score_type>  (31) 
oracle

>  <origin>  (31) 
adg

>  <m_score__min__energy>  (31) 
-9.3300000000000001

>  <m_primary>  (31) 
energy

$$$$
31:0
     RDKit          3D

 49 51  0  0  0  0  0  0  0  0999 V2000
   -1.2090   26.1740  -27.7310 C   0  0  0  0  0  0  0  0  0  0  0  0
   -1.6230   25.6590  -28.9780 O   0  0  0  0  0  0  0  0  0  0  0  0
   -1.2520   24.2980  -29.0980 C   0  0  0  0  0  0  0  0  0  0  0  0
   -2.3790   23.3810  -28.6140 C   0  0  0  0  0  0  0  0  0  0  0  0
   -3.2330   22.9690  -29.7310 N   0  0  0  0  0  0  0  0  0  0  0  0
   -2.9550   22.0740  -30.7160 C   0  0  0  0  0  0  0  0  0  0  0  0
   -1.4400   21.1120  -30.8120 S   0  0  0  0  0  0  0  0  0  0  0  0
   -1.1430   21.4680  -32.5770 C   0  0  0  0  0  0  0  0  0  0  0  0
   -1.8820   20.4930  -33.4380 C   0  0  0  0  0  0  0  0  0  0  0  0
   -1.5300   20.3320  -34.6380 O   0  0  0  0  0  0  0  0  0  0  0  0
   -2.9960   19.7650  -32.9030 N   0  0  0  0  0  0  0  0  0  0  0  0
   -3.7420   18.7800  -33.6820 C   0  0  0  0  0  0  0  0  0  0  0  0
   -5.2090   18.8610  -33.3600 C   0  0  0  0  0  0  0  0  0  0  0  0
   -5.8990   17.7140  -32.9400 C   0  0  0  0  0  0  0  0  0  0  0  0
   -7.2540   17.7900  -32.5990 C   0  0  0  0  0  0  0  0  0  0  0  0
   -7.9380   19.0110  -32.6880 C   0  0  0  0  0  0  0  0  0  0  0  0
   -9.3770   19.1020  -32.2760 C   0  0  0  0  0  0  0  0  0  0  0  0
   -7.2450   20.1620  -33.0940 C   0  0  0  0  0  0  0  0  0  0  0  0
   -5.8890   20.0870  -33.4290 C   0  0  0  0  0  0  0  0  0  0  0  0
   -3.9270   21.9850  -31.6600 N   0  0  0  0  0  0  0  0  0  0  0  0
   -4.8460   22.8690  -31.2290 C   0  0  0  0  0  0  0  0  0  0  0  0
   -6.0570   23.1950  -31.8350 C   0  0  0  0  0  0  0  0  0  0  0  0
   -6.8570   24.1730  -31.2130 C   0  0  0  0  0  0  0  0  0  0  0  0
   -6.4270   24.7960  -30.0200 C   0  0  0  0  0  0  0  0  0  0  0  0
   -5.1960   24.4470  -29.4360 C   0  0  0  0  0  0  0  0  0  0  0  0
   -4.4320   23.4690  -30.0750 C   0  0  0  0  0  0  0  0  0  0  0  0
   -1.6756   25.5936  -26.9214 H   0  0  0  0  0  0  0  0  0  0  0  0
   -0.1144   26.1022  -27.6498 H   0  0  0  0  0  0  0  0  0  0  0  0
   -1.5144   27.2276  -27.6498 H   0  0  0  0  0  0  0  0  0  0  0  0
   -1.0343   24.0755  -30.1530 H   0  0  0  0  0  0  0  0  0  0  0  0
   -0.3619   24.1197  -28.4768 H   0  0  0  0  0  0  0  0  0  0  0  0
   -1.9404   22.4869  -28.1469 H   0  0  0  0  0  0  0  0  0  0  0  0
   -2.9930   23.9321  -27.8865 H   0  0  0  0  0  0  0  0  0  0  0  0
   -1.4892   22.4871  -32.8043 H   0  0  0  0  0  0  0  0  0  0  0  0
   -0.0659   21.3797  -32.7821 H   0  0  0  0  0  0  0  0  0  0  0  0
   -3.2790   19.9310  -31.9110 H   0  0  0  0  0  0  0  0  0  0  0  0
   -3.5945   18.9781  -34.7539 H   0  0  0  0  0  0  0  0  0  0  0  0
   -3.3759   17.7737  -33.4304 H   0  0  0  0  0  0  0  0  0  0  0  0
   -5.3723   16.7502  -32.8784 H   0  0  0  0  0  0  0  0  0  0  0  0
   -7.7848   16.8883  -32.2597 H   0  0  0  0  0  0  0  0  0  0  0  0
   -9.4445   19.1063  -31.1781 H   0  0  0  0  0  0  0  0  0  0  0  0
   -9.8144   20.0296  -32.6739 H   0  0  0  0  0  0  0  0  0  0  0  0
   -9.9277   18.2369  -32.6739 H   0  0  0  0  0  0  0  0  0  0  0  0
   -7.7703   21.1269  -33.1490 H   0  0  0  0  0  0  0  0  0  0  0  0
   -5.3530   20.9931  -33.7480 H   0  0  0  0  0  0  0  0  0  0  0  0
   -6.3773   22.7057  -32.7667 H   0  0  0  0  0  0  0  0  0  0  0  0
   -7.8227   24.4536  -31.6588 H   0  0  0  0  0  0  0  0  0  0  0  0
   -7.0598   25.5598  -29.5443 H   0  0  0  0  0  0  0  0  0  0  0  0
   -4.8480   24.9272  -28.5096 H   0  0  0  0  0  0  0  0  0  0  0  0
  1  2  1  0
  2  3  1  0
  3  4  1  0
  4  5  1  0
  5  6  1  0
  6  7  1  0
  7  8  1  0
  8  9  1  0
  9 10  2  0
  9 11  1  0
 11 12  1  0
 12 13  1  0
 13 14  2  0
 14 15  1  0
 15 16  2  0
 16 17  1  0
 16 18  1  0
 18 19  2  0
  6 20  2  0
 20 21  1  0
 21 22  2  0
 22 23  1  0
 23 24  2  0
 24 25  1  0
 25 26  2  0
 26  5  1  0
 19 13  1  0
 26 21  1  0
  1 27  1  0
  1 28  1  0
  1 29  1  0
  3 30  1  0
  3 31  1  0
  4 32  1  0
  4 33  1  0
  8 34  1  0
  8 35  1  0
 11 36  1  0
 12 37  1  0
 12 38  1  0
 14 39  1  0
 15 40  1  0
 17 41  1  0
 17 42  1  0
 17 43  1  0
 18 44  1  0
 19 45  1  0
 22 46  1  0
 23 47  1  0
 24 48  1  0
 25 49  1  0
M  END
>  <UniqueID>  (32) 
29

>  <SMILES>  (32) 
COCCn1c(SCC(=O)NCc2ccc(C)cc2)nc2ccccc21

>  <Energy>  (32) 
73.27150439519701

>  <Genealogy>  (32) 
COCCn1c(SCC(=O)NCc2ccc(C)cc2)nc2ccccc21 (3D coordinates assigned)
COCCn1c(SCC(=O)NCc2ccc(C)cc2)nc2ccccc21 (optimized conformer: 73.27150439519701 kcal/mol)

>  <smiles>  (32) 
COCCn1c(SCC(=O)NCc2ccc(C)cc2)nc2ccccc21

>  <score_type>  (32) 
oracle

>  <origin>  (32) 
adg

>  <m_score__min__energy>  (32) 
-8.6600000000000001

>  <m_primary>  (32) 
energy

$$$$
32:0
     RDKit          3D

 44 47  0  0  0  0  0  0  0  0999 V2000
   -9.1800   18.5650  -32.3230 C   0  0  0  0  0  0  0  0  0  0  0  0
   -9.6720   19.8730  -32.3390 C   0  0  0  0  0  0  0  0  0  0  0  0
   -8.8640   20.9320  -31.9120 C   0  0  0  0  0  0  0  0  0  0  0  0
   -7.5540   20.6860  -31.4660 C   0  0  0  0  0  0  0  0  0  0  0  0
   -6.6780   21.8150  -30.9930 C   0  0  0  0  0  0  0  0  0  0  0  0
   -5.8360   22.3090  -32.1050 N   0  0  0  0  0  0  0  0  0  0  0  0
   -5.9840   23.7660  -32.3020 C   0  0  0  0  0  0  0  0  0  0  0  0
   -5.4090   24.5540  -31.1150 C   0  0  0  0  0  0  0  0  0  0  0  0
   -4.1430   23.9670  -30.6530 N   0  0  0  0  0  0  0  0  0  0  0  0
   -3.5570   24.3590  -29.3890 C   0  0  0  0  0  0  0  0  0  0  0  0
   -4.2330   24.1690  -28.1720 C   0  0  0  0  0  0  0  0  0  0  0  0
   -3.6240   24.5540  -26.9800 C   0  0  0  0  0  0  0  0  0  0  0  0
   -2.3480   25.1250  -27.0120 C   0  0  0  0  0  0  0  0  0  0  0  0
   -1.6580   25.5500  -25.7780 C   0  0  0  0  0  0  0  0  0  0  0  0
   -1.6730   26.8350  -25.2430 C   0  0  0  0  0  0  0  0  0  0  0  0
   -0.9290   26.9550  -24.0620 C   0  0  0  0  0  0  0  0  0  0  0  0
   -0.3260   25.7720  -23.6580 C   0  0  0  0  0  0  0  0  0  0  0  0
   -0.7170   24.5770  -24.7720 S   0  0  0  0  0  0  0  0  0  0  0  0
   -1.7350   25.2900  -28.2150 N   0  0  0  0  0  0  0  0  0  0  0  0
   -2.3170   24.9200  -29.3570 N   0  0  0  0  0  0  0  0  0  0  0  0
   -3.4590   23.0160  -31.5390 C   0  0  0  0  0  0  0  0  0  0  0  0
   -4.4150   21.8870  -31.9740 C   0  0  0  0  0  0  0  0  0  0  0  0
   -7.0670   19.3680  -31.4520 C   0  0  0  0  0  0  0  0  0  0  0  0
   -7.8790   18.3130  -31.8790 C   0  0  0  0  0  0  0  0  0  0  0  0
   -9.8168   17.7337  -32.6599 H   0  0  0  0  0  0  0  0  0  0  0  0
  -10.6964   20.0701  -32.6880 H   0  0  0  0  0  0  0  0  0  0  0  0
   -9.2549   21.9601  -31.9253 H   0  0  0  0  0  0  0  0  0  0  0  0
   -7.3107   22.6357  -30.6240 H   0  0  0  0  0  0  0  0  0  0  0  0
   -6.0272   21.4499  -30.1848 H   0  0  0  0  0  0  0  0  0  0  0  0
   -5.4505   24.0592  -33.2182 H   0  0  0  0  0  0  0  0  0  0  0  0
   -7.0564   23.9969  -32.3836 H   0  0  0  0  0  0  0  0  0  0  0  0
   -5.2302   25.5936  -31.4269 H   0  0  0  0  0  0  0  0  0  0  0  0
   -6.1332   24.5174  -30.2879 H   0  0  0  0  0  0  0  0  0  0  0  0
   -5.2367   23.7191  -28.1607 H   0  0  0  0  0  0  0  0  0  0  0  0
   -4.1428   24.4100  -26.0208 H   0  0  0  0  0  0  0  0  0  0  0  0
   -2.2159   27.6741  -25.7025 H   0  0  0  0  0  0  0  0  0  0  0  0
   -0.8317   27.8994  -23.5064 H   0  0  0  0  0  0  0  0  0  0  0  0
    0.2998   25.6398  -22.7631 H   0  0  0  0  0  0  0  0  0  0  0  0
   -3.1006   23.5490  -32.4320 H   0  0  0  0  0  0  0  0  0  0  0  0
   -2.6138   22.5712  -30.9932 H   0  0  0  0  0  0  0  0  0  0  0  0
   -4.0771   21.5050  -32.9486 H   0  0  0  0  0  0  0  0  0  0  0  0
   -4.3833   21.1231  -31.1832 H   0  0  0  0  0  0  0  0  0  0  0  0
   -6.0434   19.1656  -31.1039 H   0  0  0  0  0  0  0  0  0  0  0  0
   -7.4933   17.2829  -31.8655 H   0  0  0  0  0  0  0  0  0  0  0  0
  1  2  2  0
  2  3  1  0
  3  4  2  0
  4  5  1  0
  5  6  1  0
  6  7  1  0
  7  8  1  0
  8  9  1  0
  9 10  1  0
 10 11  2  0
 11 12  1  0
 12 13  2  0
 13 14  1  0
 14 15  2  0
 15 16  1  0
 16 17  2  0
 17 18  1  0
 13 19  1  0
 19 20  2  0
  9 21  1  0
 21 22  1  0
  4 23  1  0
 23 24  2  0
 24  1  1  0
 22  6  1  0
 20 10  1  0
 18 14  1  0
  1 25  1  0
  2 26  1  0
  3 27  1  0
  5 28  1  0
  5 29  1  0
  7 30  1  0
  7 31  1  0
  8 32  1  0
  8 33  1  0
 11 34  1  0
 12 35  1  0
 15 36  1  0
 16 37  1  0
 17 38  1  0
 21 39  1  0
 21 40  1  0
 22 41  1  0
 22 42  1  0
 23 43  1  0
 24 44  1  0
M  END
>  <UniqueID>  (33) 
30

>  <SMILES>  (33) 
c1ccc(CN2CCN(c3ccc(-c4cccs4)nn3)CC2)cc1

>  <Energy>  (33) 
85.3450672142935

>  <Genealogy>  (33) 
c1ccc(CN2CCN(c3ccc(-c4cccs4)nn3)CC2)cc1 (3D coordinates assigned)
c1ccc(CN2CCN(c3ccc(-c4cccs4)nn3)CC2)cc1 (nonaromatic ring conformer: 85.3450672142935 kcal/mol)

>  <smiles>  (33) 
c1ccc(CN2CCN(c3ccc(-c4cccs4)nn3)CC2)cc1

>  <score_type>  (33) 
oracle

>  <origin>  (33) 
adg

>  <m_score__min__energy>  (33) 
-8.4000000000000004

>  <m_primary>  (33) 
energy

$$$$
33:0
     RDKit          3D

 48 50  0  0  0  0  0  0  0  0999 V2000
   -8.0020   18.0610  -32.3390 C   0  0  0  0  0  0  0  0  0  0  0  0
   -6.9920   18.0130  -33.3400 O   0  0  0  0  0  0  0  0  0  0  0  0
   -6.1660   16.9000  -33.5330 C   0  0  0  0  0  0  0  0  0  0  0  0
   -6.6920   15.7280  -33.9950 N   0  0  0  0  0  0  0  0  0  0  0  0
   -5.9270   14.6250  -34.2000 C   0  0  0  0  0  0  0  0  0  0  0  0
   -4.5580   14.6670  -33.9400 C   0  0  0  0  0  0  0  0  0  0  0  0
   -3.9880   15.8480  -33.4640 C   0  0  0  0  0  0  0  0  0  0  0  0
   -4.7870   16.9830  -33.2530 C   0  0  0  0  0  0  0  0  0  0  0  0
   -4.1570   18.2500  -32.7160 C   0  0  0  0  0  0  0  0  0  0  0  0
   -5.0130   19.4320  -32.9660 N   0  0  2  0  0  0  0  0  0  0  0  0
   -4.2920   20.5450  -33.6210 C   0  0  0  0  0  0  0  0  0  0  0  0
   -4.5980   21.8240  -32.8440 C   0  0  0  0  0  0  0  0  0  0  0  0
   -5.7930   21.4710  -31.9490 C   0  0  2  0  0  0  0  0  0  0  0  0
   -7.1490   21.7070  -32.7110 C   0  0  0  0  0  0  0  0  0  0  0  0
   -8.1940   22.4450  -31.8650 C   0  0  0  0  0  0  0  0  0  0  0  0
   -7.6250   23.7750  -31.3550 C   0  0  0  0  0  0  0  0  0  0  0  0
   -6.2790   23.6110  -30.7810 N   0  0  0  0  0  0  0  0  0  0  0  0
   -5.5530   24.7920  -30.3690 C   0  0  0  0  0  0  0  0  0  0  0  0
   -6.1230   25.7800  -29.3970 C   0  0  0  0  0  0  0  0  0  0  0  0
   -4.4000   25.0070  -30.8330 O   0  0  0  0  0  0  0  0  0  0  0  0
   -5.7420   22.2520  -30.6060 C   0  0  0  0  0  0  0  0  0  0  0  0
   -5.5600   19.9750  -31.7130 C   0  0  0  0  0  0  0  0  0  0  0  0
   -7.5335   18.0387  -31.3440 H   0  0  0  0  0  0  0  0  0  0  0  0
   -8.5841   18.9878  -32.4495 H   0  0  0  0  0  0  0  0  0  0  0  0
   -8.6693   17.1936  -32.4495 H   0  0  0  0  0  0  0  0  0  0  0  0
   -6.3878   13.6978  -34.5714 H   0  0  0  0  0  0  0  0  0  0  0  0
   -3.9332   13.7775  -34.1085 H   0  0  0  0  0  0  0  0  0  0  0  0
   -2.9092   15.8901  -33.2533 H   0  0  0  0  0  0  0  0  0  0  0  0
   -4.0055   18.1417  -31.6319 H   0  0  0  0  0  0  0  0  0  0  0  0
   -3.1983   18.4037  -33.2329 H   0  0  0  0  0  0  0  0  0  0  0  0
   -5.8200   19.1470  -33.5720 H   0  0  0  0  0  0  0  0  0  0  0  0
   -3.2097   20.3489  -33.6069 H   0  0  0  0  0  0  0  0  0  0  0  0
   -4.6135   20.6464  -34.6681 H   0  0  0  0  0  0  0  0  0  0  0  0
   -3.7327   22.1214  -32.2335 H   0  0  0  0  0  0  0  0  0  0  0  0
   -4.8187   22.6695  -33.5121 H   0  0  0  0  0  0  0  0  0  0  0  0
   -6.9447   22.3027  -33.6129 H   0  0  0  0  0  0  0  0  0  0  0  0
   -7.5641   20.7182  -32.9558 H   0  0  0  0  0  0  0  0  0  0  0  0
   -9.0841   22.6434  -32.4801 H   0  0  0  0  0  0  0  0  0  0  0  0
   -8.4634   21.8175  -31.0026 H   0  0  0  0  0  0  0  0  0  0  0  0
   -7.5699   24.4837  -32.1945 H   0  0  0  0  0  0  0  0  0  0  0  0
   -8.2904   24.1498  -30.5633 H   0  0  0  0  0  0  0  0  0  0  0  0
   -5.9263   25.4391  -28.3698 H   0  0  0  0  0  0  0  0  0  0  0  0
   -5.6526   26.7619  -29.5539 H   0  0  0  0  0  0  0  0  0  0  0  0
   -7.2085   25.8642  -29.5539 H   0  0  0  0  0  0  0  0  0  0  0  0
   -4.6986   22.3161  -30.2636 H   0  0  0  0  0  0  0  0  0  0  0  0
   -6.3528   21.7206  -29.8613 H   0  0  0  0  0  0  0  0  0  0  0  0
   -4.8441   19.8274  -30.8909 H   0  0  0  0  0  0  0  0  0  0  0  0
   -6.4952   19.4668  -31.4353 H   0  0  0  0  0  0  0  0  0  0  0  0
  1  2  1  0
  2  3  1  0
  3  4  2  0
  4  5  1  0
  5  6  2  0
  6  7  1  0
  7  8  2  0
  8  9  1  0
  9 10  1  0
 10 11  1  0
 11 12  1  0
 13 12  1  6
 13 14  1  0
 14 15  1  0
 15 16  1  0
 16 17  1  0
 17 18  1  0
 18 19  1  0
 18 20  2  0
 17 21  1  0
 13 22  1  0
  8  3  1  0
 22 10  1  0
 21 13  1  0
  1 23  1  0
  1 24  1  0
  1 25  1  0
  5 26  1  0
  6 27  1  0
  7 28  1  0
  9 29  1  0
  9 30  1  0
 10 31  1  6
 11 32  1  0
 11 33  1  0
 12 34  1  0
 12 35  1  0
 14 36  1  0
 14 37  1  0
 15 38  1  0
 15 39  1  0
 16 40  1  0
 16 41  1  0
 19 42  1  0
 19 43  1  0
 19 44  1  0
 21 45  1  0
 21 46  1  0
 22 47  1  0
 22 48  1  0
M  CHG  1  10   1
M  END
>  <UniqueID>  (34) 
31

>  <SMILES>  (34) 
COc1ncccc1C[N@@H+]1CC[C@@]2(CCCN(C(C)=O)C2)C1

>  <Energy>  (34) 
56.476535523128156

>  <Genealogy>  (34) 
COc1ncccc1C[NH+]1CCC2(CCCN(C(C)=O)C2)C1 (protonated)
COc1ncccc1C[N@@H+]1CC[C@@]2(CCCN(C(C)=O)C2)C1 (chirality)
COc1ncccc1C[N@@H+]1CC[C@@]2(CCCN(C(C)=O)C2)C1 (3D coordinates assigned)
COc1ncccc1C[N@@H+]1CC[C@@]2(CCCN(C(C)=O)C2)C1 (nonaromatic ring conformer: 56.476535523128156 kcal/mol)

>  <smiles>  (34) 
COc1ncccc1CN1CCC2(CCCN(C(C)=O)C2)C1

>  <score_type>  (34) 
oracle

>  <origin>  (34) 
adg

>  <m_score__min__energy>  (34) 
-6.3799999999999999

>  <m_primary>  (34) 
energy

$$$$
34:0
     RDKit          3D

 32 34  0  0  0  0  0  0  0  0999 V2000
   -9.8550   21.7350  -30.8400 C   0  0  0  0  0  0  0  0  0  0  0  0
   -8.5420   21.3160  -31.4170 C   0  0  0  0  0  0  0  0  0  0  0  0
   -8.2880   20.0700  -31.8630 N   0  0  0  0  0  0  0  0  0  0  0  0
   -7.0670   20.0640  -32.3760 N   0  0  0  0  0  0  0  0  0  0  0  0
   -6.4610   18.8870  -32.9360 C   0  0  0  0  0  0  0  0  0  0  0  0
   -6.2440   17.7410  -32.1510 C   0  0  0  0  0  0  0  0  0  0  0  0
   -5.6340   16.6110  -32.7060 C   0  0  0  0  0  0  0  0  0  0  0  0
   -5.2240   16.6210  -34.0410 C   0  0  0  0  0  0  0  0  0  0  0  0
   -5.4170   17.7620  -34.8230 C   0  0  0  0  0  0  0  0  0  0  0  0
   -6.0250   18.8950  -34.2710 C   0  0  0  0  0  0  0  0  0  0  0  0
   -6.5260   21.2980  -32.2680 C   0  0  0  0  0  0  0  0  0  0  0  0
   -4.8850   21.7460  -32.7230 Cl  0  0  0  0  0  0  0  0  0  0  0  0
   -7.4430   22.1270  -31.6520 C   0  0  0  0  0  0  0  0  0  0  0  0
   -7.3110   23.5980  -31.3890 C   0  0  0  0  0  0  0  0  0  0  0  0
   -5.9900   23.8920  -30.8430 N   0  0  0  0  0  0  0  0  0  0  0  0
   -5.3760   23.2650  -29.8270 C   0  0  0  0  0  0  0  0  0  0  0  0
   -4.1760   23.9020  -29.6020 C   0  0  0  0  0  0  0  0  0  0  0  0
   -4.0390   24.9290  -30.4660 N   0  0  0  0  0  0  0  0  0  0  0  0
   -5.1680   24.8950  -31.2070 C   0  0  0  0  0  0  0  0  0  0  0  0
   -9.7957   21.7161  -29.7418 H   0  0  0  0  0  0  0  0  0  0  0  0
  -10.0949   22.7543  -31.1767 H   0  0  0  0  0  0  0  0  0  0  0  0
  -10.6410   21.0431  -31.1767 H   0  0  0  0  0  0  0  0  0  0  0  0
   -6.5552   17.7329  -31.0960 H   0  0  0  0  0  0  0  0  0  0  0  0
   -5.4771   15.7133  -32.0900 H   0  0  0  0  0  0  0  0  0  0  0  0
   -4.7488   15.7298  -34.4768 H   0  0  0  0  0  0  0  0  0  0  0  0
   -5.0908   17.7700  -35.8735 H   0  0  0  0  0  0  0  0  0  0  0  0
   -6.1622   19.7967  -34.8859 H   0  0  0  0  0  0  0  0  0  0  0  0
   -7.4467   24.1498  -32.3308 H   0  0  0  0  0  0  0  0  0  0  0  0
   -8.0779   23.9046  -30.6624 H   0  0  0  0  0  0  0  0  0  0  0  0
   -5.7626   22.3970  -29.2729 H   0  0  0  0  0  0  0  0  0  0  0  0
   -3.4412   23.6169  -28.8347 H   0  0  0  0  0  0  0  0  0  0  0  0
   -5.3908   25.6061  -32.0162 H   0  0  0  0  0  0  0  0  0  0  0  0
  1  2  1  0
  2  3  2  0
  3  4  1  0
  4  5  1  0
  5  6  2  0
  6  7  1  0
  7  8  2  0
  8  9  1  0
  9 10  2  0
  4 11  1  0
 11 12  1  0
 11 13  2  0
 13 14  1  0
 14 15  1  0
 15 16  1  0
 16 17  2  0
 17 18  1  0
 18 19  2  0
 13  2  1  0
 19 15  1  0
 10  5  1  0
  1 20  1  0
  1 21  1  0
  1 22  1  0
  6 23  1  0
  7 24  1  0
  8 25  1  0
  9 26  1  0
 10 27  1  0
 14 28  1  0
 14 29  1  0
 16 30  1  0
 17 31  1  0
 19 32  1  0
M  END
>  <UniqueID>  (35) 
32

>  <SMILES>  (35) 
Cc1nn(-c2ccccc2)c(Cl)c1Cn1ccnc1

>  <Energy>  (35) 
95.83760870240391

>  <Genealogy>  (35) 
Cc1nn(-c2ccccc2)c(Cl)c1Cn1ccnc1 (3D coordinates assigned)
Cc1nn(-c2ccccc2)c(Cl)c1Cn1ccnc1 (optimized conformer: 95.83760870240391 kcal/mol)

>  <smiles>  (35) 
Cc1nn(-c2ccccc2)c(Cl)c1Cn1ccnc1

>  <score_type>  (35) 
oracle

>  <origin>  (35) 
adg

>  <m_score__min__energy>  (35) 
-7.5

>  <m_primary>  (35) 
energy

$$$$
35:0
     RDKit          3D

 22 23  0  0  0  0  0  0  0  0999 V2000
   -1.9860   25.6630  -29.7570 H   0  0  0  0  0  0  0  0  0  0  0  0
   -2.6480   24.9240  -29.4330 N   0  0  0  0  0  0  0  0  0  0  0  0
   -3.7260   24.6180  -30.0840 C   0  0  0  0  0  0  0  0  0  0  0  0
   -4.3980   25.5020  -30.8410 N   0  0  0  0  0  0  0  0  0  0  0  0
   -5.4190   24.8440  -31.3700 N   0  0  0  0  0  0  0  0  0  0  0  0
   -5.3510   23.5710  -30.9260 C   0  0  0  0  0  0  0  0  0  0  0  0
   -6.2960   22.5160  -31.3510 C   0  0  0  0  0  0  0  0  0  0  0  0
   -7.5960   22.4970  -30.8200 C   0  0  0  0  0  0  0  0  0  0  0  0
   -7.9066   23.2772  -30.1095 H   0  0  0  0  0  0  0  0  0  0  0  0
   -8.4980   21.4950  -31.1870 C   0  0  0  0  0  0  0  0  0  0  0  0
   -9.5159   21.4916  -30.7701 H   0  0  0  0  0  0  0  0  0  0  0  0
   -8.1070   20.4980  -32.0830 C   0  0  0  0  0  0  0  0  0  0  0  0
   -8.8183   19.7110  -32.3740 H   0  0  0  0  0  0  0  0  0  0  0  0
   -6.8140   20.4990  -32.6100 C   0  0  0  0  0  0  0  0  0  0  0  0
   -6.5093   19.7096  -33.3129 H   0  0  0  0  0  0  0  0  0  0  0  0
   -5.9030   21.4990  -32.2490 C   0  0  0  0  0  0  0  0  0  0  0  0
   -4.3000   21.4700  -32.9770 Cl  0  0  0  0  0  0  0  0  0  0  0  0
   -4.2970   23.3950  -30.0980 N   0  0  0  0  0  0  0  0  0  0  0  0
   -3.8700   22.1850  -29.3960 C   0  0  0  0  0  0  0  0  0  0  0  0
   -3.9286   22.3511  -28.3102 H   0  0  0  0  0  0  0  0  0  0  0  0
   -4.5271   21.3481  -29.6749 H   0  0  0  0  0  0  0  0  0  0  0  0
   -2.8332   21.9458  -29.6749 H   0  0  0  0  0  0  0  0  0  0  0  0
  1  2  1  0
  2  3  2  0
  3  4  1  0
  4  5  1  0
  5  6  2  0
  6  7  1  0
  7  8  2  0
  8  9  1  0
  8 10  1  0
 10 11  1  0
 10 12  2  0
 12 13  1  0
 12 14  1  0
 14 15  1  0
 14 16  2  0
 16 17  1  0
  6 18  1  0
 18 19  1  0
 19 20  1  0
 19 21  1  0
 19 22  1  0
 18  3  1  0
 16  7  1  0
M  CHG  1   4  -1
M  END
>  <UniqueID>  (36) 
33

>  <SMILES>  (36) 
[H]/N=c1/[n-]nc(-c2ccccc2Cl)n1C

>  <Energy>  (36) 
65.06873479472257

>  <Genealogy>  (36) 
Cn1c(-c2ccccc2Cl)n[n-]c1=N (protonated)
[H]/N=c1/[n-]nc(-c2ccccc2Cl)n1C (cis-trans isomerization)
[H]/N=c1/[n-]nc(-c2ccccc2Cl)n1C (3D coordinates assigned)
[H]/N=c1/[n-]nc(-c2ccccc2Cl)n1C (optimized conformer: 65.06873479472257 kcal/mol)

>  <smiles>  (36) 
Cn1c(-c2ccccc2Cl)n[nH]c1=N

>  <score_type>  (36) 
oracle

>  <origin>  (36) 
adg

>  <m_score__min__energy>  (36) 
-8.3399999999999999

>  <m_primary>  (36) 
energy

$$$$
36:0
     RDKit          3D

 39 40  0  0  0  0  0  0  0  0999 V2000
   -5.6479   22.1807  -32.5015 H   0  0  0  0  0  0  0  0  0  0  0  0
   -5.5980   23.0190  -31.7910 C   0  0  0  0  0  0  0  0  0  0  0  0
   -4.3910   23.4620  -31.3470 N   0  0  0  0  0  0  0  0  0  0  0  0
   -4.2840   24.4980  -30.4670 C   0  0  0  0  0  0  0  0  0  0  0  0
   -3.1210   24.9080  -30.0530 N   0  0  0  0  0  0  0  0  0  0  0  0
   -2.6470   24.8290  -28.6690 C   0  0  0  0  0  0  0  0  0  0  0  0
   -2.6884   25.8311  -28.2172 H   0  0  0  0  0  0  0  0  0  0  0  0
   -1.6144   24.4499  -28.6741 H   0  0  0  0  0  0  0  0  0  0  0  0
   -3.5120   23.8730  -27.8450 C   0  0  0  0  0  0  0  0  0  0  0  0
   -4.5457   24.2483  -27.8197 H   0  0  0  0  0  0  0  0  0  0  0  0
   -3.1091   23.8142  -26.8231 H   0  0  0  0  0  0  0  0  0  0  0  0
   -3.4970   22.5310  -28.4450 N   0  0  0  0  0  0  0  0  0  0  0  0
   -3.7860   22.6050  -29.4490 H   0  0  0  0  0  0  0  0  0  0  0  0
   -2.1690   21.9080  -28.3650 C   0  0  0  0  0  0  0  0  0  0  0  0
   -2.2395   21.0025  -27.7444 H   0  0  0  0  0  0  0  0  0  0  0  0
   -1.4780   22.6424  -27.9256 H   0  0  0  0  0  0  0  0  0  0  0  0
   -1.6330   21.5240  -29.7280 C   0  0  0  0  0  0  0  0  0  0  0  0
   -0.5060   21.0510  -29.8070 O   0  0  0  0  0  0  0  0  0  0  0  0
   -2.4180   21.7370  -30.9300 N   0  0  0  0  0  0  0  0  0  0  0  0
   -2.9690   22.6210  -30.8200 H   0  0  0  0  0  0  0  0  0  0  0  0
   -1.5390   21.9170  -32.1150 C   0  0  0  0  0  0  0  0  0  0  0  0
   -1.9409   22.7311  -32.7361 H   0  0  0  0  0  0  0  0  0  0  0  0
   -0.5268   22.1559  -31.7568 H   0  0  0  0  0  0  0  0  0  0  0  0
   -1.4560   20.6360  -32.9650 C   0  0  0  0  0  0  0  0  0  0  0  0
   -0.7987   20.8303  -33.8253 H   0  0  0  0  0  0  0  0  0  0  0  0
   -1.0650   19.8394  -32.3149 H   0  0  0  0  0  0  0  0  0  0  0  0
   -2.7190   20.1990  -33.4520 O   0  0  0  0  0  0  0  0  0  0  0  0
   -3.8040   20.4950  -32.5810 C   0  0  0  0  0  0  0  0  0  0  0  0
   -4.2611   21.4412  -32.9062 H   0  0  0  0  0  0  0  0  0  0  0  0
   -4.5018   19.6468  -32.6403 H   0  0  0  0  0  0  0  0  0  0  0  0
   -3.3970   20.6360  -31.1050 C   0  0  0  0  0  0  0  0  0  0  0  0
   -4.2924   20.8508  -30.5032 H   0  0  0  0  0  0  0  0  0  0  0  0
   -2.9310   19.6951  -30.7769 H   0  0  0  0  0  0  0  0  0  0  0  0
   -5.4430   25.1280  -29.9970 C   0  0  0  0  0  0  0  0  0  0  0  0
   -5.3701   25.9621  -29.2836 H   0  0  0  0  0  0  0  0  0  0  0  0
   -6.6920   24.6890  -30.4410 C   0  0  0  0  0  0  0  0  0  0  0  0
   -7.6088   25.1776  -30.0795 H   0  0  0  0  0  0  0  0  0  0  0  0
   -6.7740   23.6270  -31.3460 C   0  0  0  0  0  0  0  0  0  0  0  0
   -8.4730   23.0150  -31.9630 Br  0  0  0  0  0  0  0  0  0  0  0  0
  1  2  1  0
  2  3  1  0
  3  4  1  0
  4  5  2  0
  5  6  1  0
  6  7  1  0
  6  8  1  0
  6  9  1  0
  9 10  1  0
  9 11  1  0
  9 12  1  0
 12 13  1  0
 12 14  1  0
 14 15  1  0
 14 16  1  0
 14 17  1  0
 17 18  2  0
 17 19  1  0
 19 20  1  0
 19 21  1  0
 21 22  1  0
 21 23  1  0
 21 24  1  0
 24 25  1  0
 24 26  1  0
 24 27  1  0
 27 28  1  0
 28 29  1  0
 28 30  1  0
 28 31  1  0
 31 32  1  0
 31 33  1  0
  4 34  1  0
 34 35  1  0
 34 36  2  0
 36 37  1  0
 36 38  1  0
 38 39  1  0
 38  2  2  0
 31 19  1  0
M  CHG  2   3  -1  19   1
M  END
>  <UniqueID>  (37) 
34

>  <SMILES>  (37) 
O=C(CNCC/N=c1/ccc(Br)c[n-]1)[NH+]1CCOCC1

>  <Energy>  (37) 
49.3410889706563

>  <Genealogy>  (37) 
O=C(CNCCN=c1ccc(Br)c[n-]1)[NH+]1CCOCC1 (protonated)
O=C(CNCC/N=c1/ccc(Br)c[n-]1)[NH+]1CCOCC1 (cis-trans isomerization)
O=C(CNCC/N=c1/ccc(Br)c[n-]1)[NH+]1CCOCC1 (3D coordinates assigned)
O=C(CNCC/N=c1/ccc(Br)c[n-]1)[NH+]1CCOCC1 (nonaromatic ring conformer: 49.3410889706563 kcal/mol)

>  <smiles>  (37) 
O=C(CNCCN=c1ccc(Br)c[nH]1)N1CCOCC1

>  <score_type>  (37) 
oracle

>  <origin>  (37) 
adg

>  <m_score__min__energy>  (37) 
-8.3800000000000008

>  <m_primary>  (37) 
energy

$$$$
37:0
     RDKit          3D

 40 42  0  0  0  0  0  0  0  0999 V2000
   -4.0810   25.3590  -30.8320 O   0  0  0  0  0  0  0  0  0  0  0  0
   -4.3900   24.1880  -30.4830 C   0  0  0  0  0  0  0  0  0  0  0  0
   -5.3980   23.4260  -31.2880 C   0  0  0  0  0  0  0  0  0  0  0  0
   -5.1700   22.0220  -31.1680 O   0  0  0  0  0  0  0  0  0  0  0  0
   -4.3930   21.2430  -32.0440 C   0  0  0  0  0  0  0  0  0  0  0  0
   -3.0320   21.5230  -32.2800 C   0  0  0  0  0  0  0  0  0  0  0  0
   -2.2940   20.7480  -33.1780 C   0  0  0  0  0  0  0  0  0  0  0  0
   -2.9010   19.6910  -33.8540 C   0  0  0  0  0  0  0  0  0  0  0  0
   -4.2470   19.3990  -33.6300 C   0  0  0  0  0  0  0  0  0  0  0  0
   -5.0030   20.1620  -32.7220 C   0  0  0  0  0  0  0  0  0  0  0  0
   -6.4240   19.8140  -32.4840 C   0  0  0  0  0  0  0  0  0  0  0  0
   -6.7840   18.5010  -32.1310 C   0  0  0  0  0  0  0  0  0  0  0  0
   -8.1220   18.1740  -31.8980 C   0  0  0  0  0  0  0  0  0  0  0  0
   -9.1130   19.1520  -32.0100 C   0  0  0  0  0  0  0  0  0  0  0  0
   -8.7660   20.4620  -32.3530 C   0  0  0  0  0  0  0  0  0  0  0  0
   -7.4280   20.7940  -32.5860 C   0  0  0  0  0  0  0  0  0  0  0  0
   -3.7550   23.5740  -29.3510 N   0  0  0  0  0  0  0  0  0  0  0  0
   -3.1070   24.3110  -28.3010 C   0  0  0  0  0  0  0  0  0  0  0  0
   -3.7950   24.5500  -27.1010 C   0  0  0  0  0  0  0  0  0  0  0  0
   -3.1950   25.2870  -26.0750 C   0  0  0  0  0  0  0  0  0  0  0  0
   -1.9070   25.8050  -26.2450 C   0  0  0  0  0  0  0  0  0  0  0  0
   -1.0900   26.8150  -24.8450 Br  0  0  0  0  0  0  0  0  0  0  0  0
   -1.2230   25.5920  -27.4450 C   0  0  0  0  0  0  0  0  0  0  0  0
   -1.8200   24.8540  -28.4730 C   0  0  0  0  0  0  0  0  0  0  0  0
   -6.4080   23.6621  -30.9218 H   0  0  0  0  0  0  0  0  0  0  0  0
   -5.3031   23.7145  -32.3452 H   0  0  0  0  0  0  0  0  0  0  0  0
   -2.5472   22.3581  -31.7531 H   0  0  0  0  0  0  0  0  0  0  0  0
   -1.2313   20.9725  -33.3520 H   0  0  0  0  0  0  0  0  0  0  0  0
   -2.3185   19.0864  -34.5647 H   0  0  0  0  0  0  0  0  0  0  0  0
   -4.7209   18.5649  -34.1682 H   0  0  0  0  0  0  0  0  0  0  0  0
   -6.0077   17.7273  -32.0379 H   0  0  0  0  0  0  0  0  0  0  0  0
   -8.3958   17.1440  -31.6257 H   0  0  0  0  0  0  0  0  0  0  0  0
  -10.1661   18.8914  -31.8283 H   0  0  0  0  0  0  0  0  0  0  0  0
   -9.5464   21.2324  -32.4397 H   0  0  0  0  0  0  0  0  0  0  0  0
   -7.1589   21.8273  -32.8505 H   0  0  0  0  0  0  0  0  0  0  0  0
   -3.7350   22.5300  -29.3070 H   0  0  0  0  0  0  0  0  0  0  0  0
   -4.8128   24.1550  -26.9668 H   0  0  0  0  0  0  0  0  0  0  0  0
   -3.7367   25.4595  -25.1333 H   0  0  0  0  0  0  0  0  0  0  0  0
   -0.2129   26.0055  -27.5817 H   0  0  0  0  0  0  0  0  0  0  0  0
   -1.2814   24.6976  -29.4193 H   0  0  0  0  0  0  0  0  0  0  0  0
  1  2  2  0
  2  3  1  0
  3  4  1  0
  4  5  1  0
  5  6  2  0
  6  7  1  0
  7  8  2  0
  8  9  1  0
  9 10  2  0
 10 11  1  0
 11 12  2  0
 12 13  1  0
 13 14  2  0
 14 15  1  0
 15 16  2  0
  2 17  1  0
 17 18  1  0
 18 19  2  0
 19 20  1  0
 20 21  2  0
 21 22  1  0
 21 23  1  0
 23 24  2  0
 10  5  1  0
 16 11  1  0
 24 18  1  0
  3 25  1  0
  3 26  1  0
  6 27  1  0
  7 28  1  0
  8 29  1  0
  9 30  1  0
 12 31  1  0
 13 32  1  0
 14 33  1  0
 15 34  1  0
 16 35  1  0
 17 36  1  0
 19 37  1  0
 20 38  1  0
 23 39  1  0
 24 40  1  0
M  END
>  <UniqueID>  (38) 
35

>  <SMILES>  (38) 
O=C(COc1ccccc1-c1ccccc1)Nc1ccc(Br)cc1

>  <Energy>  (38) 
50.91860989166496

>  <Genealogy>  (38) 
O=C(COc1ccccc1-c1ccccc1)Nc1ccc(Br)cc1 (3D coordinates assigned)
O=C(COc1ccccc1-c1ccccc1)Nc1ccc(Br)cc1 (optimized conformer: 50.91860989166496 kcal/mol)

>  <smiles>  (38) 
O=C(COc1ccccc1-c1ccccc1)Nc1ccc(Br)cc1

>  <score_type>  (38) 
oracle

>  <origin>  (38) 
adg

>  <m_score__min__energy>  (38) 
-9.1699999999999999

>  <m_primary>  (38) 
energy

$$$$
38:0
     RDKit          3D

 36 39  0  0  0  0  0  0  0  0999 V2000
   -4.4840   25.7430  -30.5910 N   0  0  0  0  0  0  0  0  0  0  0  0
   -4.2190   24.5690  -29.7610 C   0  0  0  0  0  0  0  0  0  0  0  0
   -4.0040   23.3470  -30.6080 C   0  0  0  0  0  0  0  0  0  0  0  0
   -3.1970   22.2950  -30.1550 C   0  0  0  0  0  0  0  0  0  0  0  0
   -2.9890   21.1870  -30.9770 C   0  0  0  0  0  0  0  0  0  0  0  0
   -3.5820   21.1330  -32.2470 C   0  0  0  0  0  0  0  0  0  0  0  0
   -3.3690   19.9700  -33.1320 C   0  0  0  0  0  0  0  0  0  0  0  0
   -4.2600   18.9310  -33.4580 C   0  0  0  0  0  0  0  0  0  0  0  0
   -5.6970   18.8450  -33.1170 C   0  0  0  0  0  0  0  0  0  0  0  0
   -6.2250   17.7120  -32.4740 C   0  0  0  0  0  0  0  0  0  0  0  0
   -7.5830   17.6530  -32.1480 C   0  0  0  0  0  0  0  0  0  0  0  0
   -8.4230   18.7280  -32.4500 C   0  0  0  0  0  0  0  0  0  0  0  0
   -9.7400   18.6700  -32.1330 F   0  0  0  0  0  0  0  0  0  0  0  0
   -7.9030   19.8670  -33.0710 C   0  0  0  0  0  0  0  0  0  0  0  0
   -6.5450   19.9300  -33.3980 C   0  0  0  0  0  0  0  0  0  0  0  0
   -3.6220   17.9700  -34.1860 N   0  0  0  0  0  0  0  0  0  0  0  0
   -2.3780   18.4730  -34.2850 C   0  0  0  0  0  0  0  0  0  0  0  0
   -0.9700   17.8610  -34.9530 S   0  0  0  0  0  0  0  0  0  0  0  0
   -0.0750   19.2160  -34.4050 C   0  0  0  0  0  0  0  0  0  0  0  0
   -0.9240   20.0870  -33.7070 C   0  0  0  0  0  0  0  0  0  0  0  0
   -2.1970   19.6300  -33.6840 N   0  0  0  0  0  0  0  0  0  0  0  0
   -4.3670   22.2150  -32.6690 C   0  0  0  0  0  0  0  0  0  0  0  0
   -4.5560   23.2840  -31.8510 N   0  0  0  0  0  0  0  0  0  0  0  0
   -4.2360   25.5170  -31.5810 H   0  0  0  0  0  0  0  0  0  0  0  0
   -3.8620   26.5240  -30.2780 H   0  0  0  0  0  0  0  0  0  0  0  0
   -3.3175   24.7514  -29.1576 H   0  0  0  0  0  0  0  0  0  0  0  0
   -5.0897   24.3959  -29.1114 H   0  0  0  0  0  0  0  0  0  0  0  0
   -2.7313   22.3423  -29.1596 H   0  0  0  0  0  0  0  0  0  0  0  0
   -2.3593   20.3550  -30.6288 H   0  0  0  0  0  0  0  0  0  0  0  0
   -5.5658   16.8670  -32.2260 H   0  0  0  0  0  0  0  0  0  0  0  0
   -7.9909   16.7593  -31.6531 H   0  0  0  0  0  0  0  0  0  0  0  0
   -8.5634   20.7156  -33.3030 H   0  0  0  0  0  0  0  0  0  0  0  0
   -6.1385   20.8328  -33.8773 H   0  0  0  0  0  0  0  0  0  0  0  0
    0.9998   19.3776  -34.5746 H   0  0  0  0  0  0  0  0  0  0  0  0
   -0.5955   21.0255  -33.2365 H   0  0  0  0  0  0  0  0  0  0  0  0
   -4.8318   22.1989  -33.6659 H   0  0  0  0  0  0  0  0  0  0  0  0
  1  2  1  0
  2  3  1  0
  3  4  2  0
  4  5  1  0
  5  6  2  0
  6  7  1  0
  7  8  2  0
  8  9  1  0
  9 10  2  0
 10 11  1  0
 11 12  2  0
 12 13  1  0
 12 14  1  0
 14 15  2  0
  8 16  1  0
 16 17  2  0
 17 18  1  0
 18 19  1  0
 19 20  2  0
 20 21  1  0
  6 22  1  0
 22 23  2  0
 23  3  1  0
 21  7  1  0
 15  9  1  0
 21 17  1  0
  1 24  1  0
  1 25  1  0
  2 26  1  0
  2 27  1  0
  4 28  1  0
  5 29  1  0
 10 30  1  0
 11 31  1  0
 14 32  1  0
 15 33  1  0
 19 34  1  0
 20 35  1  0
 22 36  1  0
M  END
>  <UniqueID>  (39) 
36

>  <SMILES>  (39) 
NCc1ccc(-c2c(-c3ccc(F)cc3)nc3sccn23)cn1

>  <Energy>  (39) 
125.95559728764374

>  <Genealogy>  (39) 
NCc1ccc(-c2c(-c3ccc(F)cc3)nc3sccn23)cn1 (3D coordinates assigned)
NCc1ccc(-c2c(-c3ccc(F)cc3)nc3sccn23)cn1 (optimized conformer: 125.95559728764374 kcal/mol)

>  <smiles>  (39) 
NCc1ccc(-c2c(-c3ccc(F)cc3)nc3sccn23)cn1

>  <score_type>  (39) 
oracle

>  <origin>  (39) 
adg

>  <m_score__min__energy>  (39) 
-7.8799999999999999

>  <m_primary>  (39) 
energy

$$$$
39:0
     RDKit          3D

 24 25  0  0  0  0  0  0  0  0999 V2000
   -9.1220   19.8080  -31.6370 N   0  0  0  0  0  0  0  0  0  0  0  0
   -8.1800   19.4180  -32.1850 C   0  0  0  0  0  0  0  0  0  0  0  0
   -7.0040   18.9320  -32.8670 C   0  0  0  0  0  0  0  0  0  0  0  0
   -7.0480   17.6500  -33.4360 C   0  0  0  0  0  0  0  0  0  0  0  0
   -5.9510   17.1540  -34.1420 C   0  0  0  0  0  0  0  0  0  0  0  0
   -4.8030   17.9320  -34.2880 C   0  0  0  0  0  0  0  0  0  0  0  0
   -4.7470   19.2090  -33.7290 C   0  0  0  0  0  0  0  0  0  0  0  0
   -5.8410   19.7290  -33.0120 C   0  0  0  0  0  0  0  0  0  0  0  0
   -5.7360   21.0840  -32.4130 C   0  0  0  0  0  0  0  0  0  0  0  0
   -4.5150   21.5900  -32.0960 N   0  0  0  0  0  0  0  0  0  0  0  0
   -4.3730   22.8300  -31.5620 C   0  0  0  0  0  0  0  0  0  0  0  0
   -3.2170   23.2450  -31.2850 O   0  0  0  0  0  0  0  0  0  0  0  0
   -5.5110   23.6270  -31.3260 C   0  0  0  0  0  0  0  0  0  0  0  0
   -5.4230   24.9530  -30.7610 N   0  0  0  0  0  0  0  0  0  0  0  0
   -6.4010   25.4770  -30.1890 O   0  0  0  0  0  0  0  0  0  0  0  0
   -4.2490   25.6660  -30.8440 O   0  0  0  0  0  0  0  0  0  0  0  0
   -6.7600   23.0850  -31.6630 C   0  0  0  0  0  0  0  0  0  0  0  0
   -6.8510   21.8380  -32.1960 N   0  0  0  0  0  0  0  0  0  0  0  0
   -7.9518   17.0328  -33.3250 H   0  0  0  0  0  0  0  0  0  0  0  0
   -5.9920   16.1476  -34.5841 H   0  0  0  0  0  0  0  0  0  0  0  0
   -3.9400   17.5381  -34.8449 H   0  0  0  0  0  0  0  0  0  0  0  0
   -3.8378   19.8163  -33.8499 H   0  0  0  0  0  0  0  0  0  0  0  0
   -7.6736   23.6741  -31.4945 H   0  0  0  0  0  0  0  0  0  0  0  0
   -7.8000   21.4600  -32.4170 H   0  0  0  0  0  0  0  0  0  0  0  0
  1  2  3  0
  2  3  1  0
  3  4  2  0
  4  5  1  0
  5  6  2  0
  6  7  1  0
  7  8  2  0
  8  9  1  0
  9 10  2  0
 10 11  1  0
 11 12  2  0
 11 13  1  0
 13 14  1  0
 14 15  2  0
 14 16  1  0
 13 17  2  0
 17 18  1  0
  8  3  1  0
 18  9  1  0
  4 19  1  0
  5 20  1  0
  6 21  1  0
  7 22  1  0
 17 23  1  0
 18 24  1  0
M  CHG  2  14   1  16  -1
M  END
>  <UniqueID>  (40) 
37

>  <SMILES>  (40) 
N#Cc1ccccc1-c1nc(=O)c([N+](=O)[O-])c[nH]1

>  <Energy>  (40) 
33.72216585855336

>  <Genealogy>  (40) 
N#Cc1ccccc1-c1nc(=O)c([N+](=O)[O-])c[nH]1 (3D coordinates assigned)
N#Cc1ccccc1-c1nc(=O)c([N+](=O)[O-])c[nH]1 (optimized conformer: 33.72216585855336 kcal/mol)

>  <smiles>  (40) 
N#Cc1ccccc1-c1nc(=O)c([N+](=O)[O-])c[nH]1

>  <score_type>  (40) 
oracle

>  <origin>  (40) 
adg

>  <m_score__min__energy>  (40) 
-7.2699999999999996

>  <m_primary>  (40) 
energy

$$$$
40:0
     RDKit          3D

 38 38  0  0  0  0  0  0  0  0999 V2000
   -3.5811   24.4558  -26.2929 H   0  0  0  0  0  0  0  0  0  0  0  0
   -2.7330   24.5250  -26.9900 C   0  0  0  0  0  0  0  0  0  0  0  0
   -3.0030   24.5520  -28.4410 C   0  0  0  0  0  0  0  0  0  0  0  0
   -2.2820   25.2370  -29.2170 O   0  0  0  0  0  0  0  0  0  0  0  0
   -4.1720   23.7960  -29.0010 C   0  0  0  0  0  0  0  0  0  0  0  0
   -5.0985   24.3429  -28.7719 H   0  0  0  0  0  0  0  0  0  0  0  0
   -4.1961   22.7951  -28.5454 H   0  0  0  0  0  0  0  0  0  0  0  0
   -4.0420   23.6420  -30.5180 C   0  0  0  0  0  0  0  0  0  0  0  0
   -4.2602   22.6015  -30.8005 H   0  0  0  0  0  0  0  0  0  0  0  0
   -3.0176   23.8994  -30.8252 H   0  0  0  0  0  0  0  0  0  0  0  0
   -5.0000   24.5470  -31.1920 N   0  0  0  0  0  0  0  0  0  0  0  0
   -5.4870   25.6200  -30.2950 C   0  0  0  0  0  0  0  0  0  0  0  0
   -5.5519   26.5583  -30.8654 H   0  0  0  0  0  0  0  0  0  0  0  0
   -4.7788   25.7129  -29.4585 H   0  0  0  0  0  0  0  0  0  0  0  0
   -6.8650   25.2970  -29.7160 C   0  0  0  0  0  0  0  0  0  0  0  0
   -6.8131   25.3092  -28.6173 H   0  0  0  0  0  0  0  0  0  0  0  0
   -7.5915   26.0492  -30.0571 H   0  0  0  0  0  0  0  0  0  0  0  0
   -7.1816   24.3003  -30.0571 H   0  0  0  0  0  0  0  0  0  0  0  0
   -6.0660   23.8080  -31.9170 C   0  0  0  0  0  0  0  0  0  0  0  0
   -6.9655   23.7929  -31.2841 H   0  0  0  0  0  0  0  0  0  0  0  0
   -6.2209   24.3352  -32.8699 H   0  0  0  0  0  0  0  0  0  0  0  0
   -5.7040   22.3580  -32.2720 C   0  0  0  0  0  0  0  0  0  0  0  0
   -5.5595   21.7793  -31.3477 H   0  0  0  0  0  0  0  0  0  0  0  0
   -6.5180   21.9106  -32.8612 H   0  0  0  0  0  0  0  0  0  0  0  0
   -4.7752   22.3457  -32.8612 H   0  0  0  0  0  0  0  0  0  0  0  0
   -1.4890   24.5820  -26.4930 C   0  0  0  0  0  0  0  0  0  0  0  0
   -0.7559   23.8404  -26.8432 H   0  0  0  0  0  0  0  0  0  0  0  0
   -1.0450   25.5890  -25.4970 C   0  0  0  0  0  0  0  0  0  0  0  0
   -1.2750   26.9690  -25.6530 C   0  0  0  0  0  0  0  0  0  0  0  0
   -1.8130   27.3399  -26.5379 H   0  0  0  0  0  0  0  0  0  0  0  0
   -0.8210   27.8670  -24.6860 C   0  0  0  0  0  0  0  0  0  0  0  0
   -1.0057   28.9453  -24.8005 H   0  0  0  0  0  0  0  0  0  0  0  0
   -0.1310   27.3860  -23.5730 C   0  0  0  0  0  0  0  0  0  0  0  0
    0.2266   28.0861  -22.8036 H   0  0  0  0  0  0  0  0  0  0  0  0
    0.1000   26.0530  -23.4380 N   0  0  0  0  0  0  0  0  0  0  0  0
    0.6230   25.7090  -22.6010 H   0  0  0  0  0  0  0  0  0  0  0  0
   -0.3320   25.1570  -24.3670 C   0  0  0  0  0  0  0  0  0  0  0  0
   -0.1209   24.0860  -24.2316 H   0  0  0  0  0  0  0  0  0  0  0  0
  1  2  1  0
  2  3  1  0
  3  4  2  0
  3  5  1  0
  5  6  1  0
  5  7  1  0
  5  8  1  0
  8  9  1  0
  8 10  1  0
  8 11  1  0
 11 12  1  0
 12 13  1  0
 12 14  1  0
 12 15  1  0
 15 16  1  0
 15 17  1  0
 15 18  1  0
 11 19  1  0
 19 20  1  0
 19 21  1  0
 19 22  1  0
 22 23  1  0
 22 24  1  0
 22 25  1  0
  2 26  2  0
 26 27  1  0
 26 28  1  0
 28 29  2  0
 29 30  1  0
 29 31  1  0
 31 32  1  0
 31 33  2  0
 33 34  1  0
 33 35  1  0
 35 36  1  0
 35 37  2  0
 37 38  1  0
 37 28  1  0
M  CHG  1  35   1
M  END
>  <UniqueID>  (41) 
38

>  <SMILES>  (41) 
CCN(CC)CCC(=O)/C=C/c1ccc[nH+]c1

>  <Energy>  (41) 
36.96210390742652

>  <Genealogy>  (41) 
CCN(CC)CCC(=O)C=Cc1ccc[nH+]c1 (protonated)
CCN(CC)CCC(=O)/C=C/c1ccc[nH+]c1 (cis-trans isomerization)
CCN(CC)CCC(=O)/C=C/c1ccc[nH+]c1 (3D coordinates assigned)
CCN(CC)CCC(=O)/C=C/c1ccc[nH+]c1 (optimized conformer: 36.96210390742652 kcal/mol)

>  <smiles>  (41) 
CCN(CC)CCC(=O)C=Cc1cccnc1

>  <score_type>  (41) 
oracle

>  <origin>  (41) 
adg

>  <m_score__min__energy>  (41) 
-7.1699999999999999

>  <m_primary>  (41) 
energy

$$$$
41:0
     RDKit          3D

 53 55  0  0  0  0  0  0  0  0999 V2000
   -3.5780   24.3090  -29.5190 C   0  0  0  0  0  0  0  0  0  0  0  0
   -3.8710   25.2790  -30.4980 O   0  0  0  0  0  0  0  0  0  0  0  0
   -5.2650   25.5280  -30.5570 C   0  0  0  0  0  0  0  0  0  0  0  0
   -6.0680   24.2680  -30.2200 C   0  0  0  0  0  0  0  0  0  0  0  0
   -5.8790   23.2670  -31.2230 O   0  0  0  0  0  0  0  0  0  0  0  0
   -6.8720   22.3550  -31.6210 C   0  0  0  0  0  0  0  0  0  0  0  0
   -8.2160   22.4990  -31.2200 C   0  0  0  0  0  0  0  0  0  0  0  0
   -9.1740   21.5610  -31.6070 C   0  0  0  0  0  0  0  0  0  0  0  0
   -8.8090   20.4740  -32.3980 C   0  0  0  0  0  0  0  0  0  0  0  0
   -7.4850   20.3220  -32.8070 C   0  0  0  0  0  0  0  0  0  0  0  0
   -6.5120   21.2600  -32.4310 C   0  0  0  0  0  0  0  0  0  0  0  0
   -5.1580   21.1080  -32.8860 N   0  0  0  0  0  0  0  0  0  0  0  0
   -4.2770   22.2660  -33.0410 C   0  0  0  0  0  0  0  0  0  0  0  0
   -3.1370   22.1870  -32.0230 C   0  0  0  0  0  0  0  0  0  0  0  0
   -2.5300   20.8470  -32.0360 N   0  0  0  0  0  0  0  0  0  0  0  0
   -1.0930   20.7060  -32.0020 C   0  0  0  0  0  0  0  0  0  0  0  0
   -0.3710   21.5710  -32.5660 O   0  0  0  0  0  0  0  0  0  0  0  0
   -0.4400   19.5810  -31.3010 C   0  0  0  0  0  0  0  0  0  0  0  0
    0.2790   18.5550  -31.8910 C   0  0  0  0  0  0  0  0  0  0  0  0
    0.7300   17.7320  -30.9260 N   0  0  0  0  0  0  0  0  0  0  0  0
    0.3160   18.1800  -29.7500 N   0  0  0  0  0  0  0  0  0  0  0  0
    0.6810   17.5740  -28.4710 C   0  0  0  0  0  0  0  0  0  0  0  0
   -0.4200   19.3010  -29.9370 C   0  0  0  0  0  0  0  0  0  0  0  0
   -0.9110   20.1800  -28.8240 C   0  0  0  0  0  0  0  0  0  0  0  0
   -3.4190   19.6780  -31.9350 C   0  0  0  0  0  0  0  0  0  0  0  0
   -4.5470   19.7800  -32.9630 C   0  0  0  0  0  0  0  0  0  0  0  0
   -3.7101   24.7464  -28.5184 H   0  0  0  0  0  0  0  0  0  0  0  0
   -4.2573   23.4519  -29.6371 H   0  0  0  0  0  0  0  0  0  0  0  0
   -2.5378   23.9714  -29.6371 H   0  0  0  0  0  0  0  0  0  0  0  0
   -5.5190   26.3188  -29.8358 H   0  0  0  0  0  0  0  0  0  0  0  0
   -5.5199   25.8398  -31.5806 H   0  0  0  0  0  0  0  0  0  0  0  0
   -5.7326   23.8746  -29.2491 H   0  0  0  0  0  0  0  0  0  0  0  0
   -7.1357   24.5292  -30.1767 H   0  0  0  0  0  0  0  0  0  0  0  0
   -8.5115   23.3567  -30.5978 H   0  0  0  0  0  0  0  0  0  0  0  0
  -10.2196   21.6802  -31.2868 H   0  0  0  0  0  0  0  0  0  0  0  0
   -9.5659   19.7352  -32.7000 H   0  0  0  0  0  0  0  0  0  0  0  0
   -7.2012   19.4603  -33.4291 H   0  0  0  0  0  0  0  0  0  0  0  0
   -3.8588   22.2736  -34.0584 H   0  0  0  0  0  0  0  0  0  0  0  0
   -4.8534   23.1874  -32.8715 H   0  0  0  0  0  0  0  0  0  0  0  0
   -2.3711   22.9344  -32.2777 H   0  0  0  0  0  0  0  0  0  0  0  0
   -3.5404   22.3863  -31.0192 H   0  0  0  0  0  0  0  0  0  0  0  0
    0.4529   18.4327  -32.9703 H   0  0  0  0  0  0  0  0  0  0  0  0
    1.3320   16.8900  -31.0690 H   0  0  0  0  0  0  0  0  0  0  0  0
    0.3043   18.1994  -27.6482 H   0  0  0  0  0  0  0  0  0  0  0  0
    0.2373   16.5699  -28.4011 H   0  0  0  0  0  0  0  0  0  0  0  0
    1.7761   17.4967  -28.4011 H   0  0  0  0  0  0  0  0  0  0  0  0
   -0.6559   19.7233  -27.8563 H   0  0  0  0  0  0  0  0  0  0  0  0
   -0.4344   21.1685  -28.8999 H   0  0  0  0  0  0  0  0  0  0  0  0
   -2.0026   20.2925  -28.8999 H   0  0  0  0  0  0  0  0  0  0  0  0
   -2.8382   18.7629  -32.1228 H   0  0  0  0  0  0  0  0  0  0  0  0
   -3.8557   19.6460  -30.9259 H   0  0  0  0  0  0  0  0  0  0  0  0
   -4.1389   19.6220  -33.9722 H   0  0  0  0  0  0  0  0  0  0  0  0
   -5.3070   19.0136  -32.7510 H   0  0  0  0  0  0  0  0  0  0  0  0
  1  2  1  0
  2  3  1  0
  3  4  1  0
  4  5  1  0
  5  6  1  0
  6  7  2  0
  7  8  1  0
  8  9  2  0
  9 10  1  0
 10 11  2  0
 11 12  1  0
 12 13  1  0
 13 14  1  0
 14 15  1  0
 15 16  1  0
 16 17  2  0
 16 18  1  0
 18 19  1  0
 19 20  2  0
 20 21  1  0
 21 22  1  0
 21 23  1  0
 23 24  1  0
 15 25  1  0
 25 26  1  0
 11  6  1  0
 26 12  1  0
 23 18  2  0
  1 27  1  0
  1 28  1  0
  1 29  1  0
  3 30  1  0
  3 31  1  0
  4 32  1  0
  4 33  1  0
  7 34  1  0
  8 35  1  0
  9 36  1  0
 10 37  1  0
 13 38  1  0
 13 39  1  0
 14 40  1  0
 14 41  1  0
 19 42  1  0
 20 43  1  0
 22 44  1  0
 22 45  1  0
 22 46  1  0
 24 47  1  0
 24 48  1  0
 24 49  1  0
 25 50  1  0
 25 51  1  0
 26 52  1  0
 26 53  1  0
M  CHG  1  20   1
M  END
>  <UniqueID>  (42) 
39

>  <SMILES>  (42) 
COCCOc1ccccc1N1CCN(C(=O)c2c[nH+]n(C)c2C)CC1

>  <Energy>  (42) 
92.59340213119975

>  <Genealogy>  (42) 
COCCOc1ccccc1N1CCN(C(=O)c2c[nH+]n(C)c2C)CC1 (protonated)
COCCOc1ccccc1N1CCN(C(=O)c2c[nH+]n(C)c2C)CC1 (3D coordinates assigned)
COCCOc1ccccc1N1CCN(C(=O)c2c[nH+]n(C)c2C)CC1 (nonaromatic ring conformer: 92.59340213119975 kcal/mol)

>  <smiles>  (42) 
COCCOc1ccccc1N1CCN(C(=O)c2cnn(C)c2C)CC1

>  <score_type>  (42) 
oracle

>  <origin>  (42) 
adg

>  <m_score__min__energy>  (42) 
-7.0999999999999996

>  <m_primary>  (42) 
energy

$$$$
42:0
     RDKit          3D

 37 39  0  0  0  0  0  0  0  0999 V2000
   -2.7100   24.5340  -29.3570 C   0  0  0  0  0  0  0  0  0  0  0  0
   -3.5440   24.8380  -30.4700 O   0  0  0  0  0  0  0  0  0  0  0  0
   -4.6980   24.1180  -30.8150 C   0  0  0  0  0  0  0  0  0  0  0  0
   -5.9850   24.5130  -30.4060 C   0  0  0  0  0  0  0  0  0  0  0  0
   -7.1040   23.7610  -30.7770 C   0  0  0  0  0  0  0  0  0  0  0  0
   -6.9590   22.6150  -31.5730 C   0  0  0  0  0  0  0  0  0  0  0  0
   -8.1490   21.8210  -31.9500 C   0  0  0  0  0  0  0  0  0  0  0  0
   -9.4600   22.2490  -31.8790 C   0  0  0  0  0  0  0  0  0  0  0  0
  -10.2340   21.1940  -32.1970 N   0  0  0  0  0  0  0  0  0  0  0  0
   -9.4470   20.1640  -32.4610 N   0  0  0  0  0  0  0  0  0  0  0  0
   -8.1780   20.5180  -32.3230 N   0  0  0  0  0  0  0  0  0  0  0  0
   -7.0790   19.6410  -32.6220 C   0  0  0  0  0  0  0  0  0  0  0  0
   -6.7100   18.6460  -31.7050 C   0  0  0  0  0  0  0  0  0  0  0  0
   -5.6530   17.7790  -31.9910 C   0  0  0  0  0  0  0  0  0  0  0  0
   -4.9560   17.8790  -33.2000 C   0  0  0  0  0  0  0  0  0  0  0  0
   -3.8990   16.9870  -33.4380 O   0  0  0  0  0  0  0  0  0  0  0  0
   -4.0100   15.5710  -33.3570 C   0  0  0  0  0  0  0  0  0  0  0  0
   -5.3390   18.8630  -34.1320 C   0  0  0  0  0  0  0  0  0  0  0  0
   -6.3980   19.7300  -33.8460 C   0  0  0  0  0  0  0  0  0  0  0  0
   -5.6730   22.2120  -31.9630 C   0  0  0  0  0  0  0  0  0  0  0  0
   -4.5540   22.9620  -31.5910 C   0  0  0  0  0  0  0  0  0  0  0  0
   -3.2570   24.7334  -28.4237 H   0  0  0  0  0  0  0  0  0  0  0  0
   -2.4219   23.4730  -29.3937 H   0  0  0  0  0  0  0  0  0  0  0  0
   -1.8067   25.1607  -29.3937 H   0  0  0  0  0  0  0  0  0  0  0  0
   -6.1114   25.4169  -29.7920 H   0  0  0  0  0  0  0  0  0  0  0  0
   -8.1052   24.0703  -30.4423 H   0  0  0  0  0  0  0  0  0  0  0  0
   -9.8059   23.2588  -31.6134 H   0  0  0  0  0  0  0  0  0  0  0  0
  -11.2760   21.1710  -32.2280 H   0  0  0  0  0  0  0  0  0  0  0  0
   -7.2561   18.5479  -30.7552 H   0  0  0  0  0  0  0  0  0  0  0  0
   -5.3658   17.0101  -31.2586 H   0  0  0  0  0  0  0  0  0  0  0  0
   -4.0340   15.2649  -32.3007 H   0  0  0  0  0  0  0  0  0  0  0  0
   -4.9363   15.2468  -33.8538 H   0  0  0  0  0  0  0  0  0  0  0  0
   -3.1455   15.1064  -33.8538 H   0  0  0  0  0  0  0  0  0  0  0  0
   -4.8029   18.9498  -35.0886 H   0  0  0  0  0  0  0  0  0  0  0  0
   -6.6994   20.4868  -34.5852 H   0  0  0  0  0  0  0  0  0  0  0  0
   -5.5447   21.3004  -32.5651 H   0  0  0  0  0  0  0  0  0  0  0  0
   -3.5516   22.6412  -31.9107 H   0  0  0  0  0  0  0  0  0  0  0  0
  1  2  1  0
  2  3  1  0
  3  4  2  0
  4  5  1  0
  5  6  2  0
  6  7  1  0
  7  8  2  0
  8  9  1  0
  9 10  2  0
 10 11  1  0
 11 12  1  0
 12 13  2  0
 13 14  1  0
 14 15  2  0
 15 16  1  0
 16 17  1  0
 15 18  1  0
 18 19  2  0
  6 20  1  0
 20 21  2  0
 21  3  1  0
 11  7  1  0
 19 12  1  0
  1 22  1  0
  1 23  1  0
  1 24  1  0
  4 25  1  0
  5 26  1  0
  8 27  1  0
  9 28  1  0
 13 29  1  0
 14 30  1  0
 17 31  1  0
 17 32  1  0
 17 33  1  0
 18 34  1  0
 19 35  1  0
 20 36  1  0
 21 37  1  0
M  CHG  1   9   1
M  END
>  <UniqueID>  (43) 
40

>  <SMILES>  (43) 
COc1ccc(-c2c[nH+]nn2-c2ccc(OC)cc2)cc1

>  <Energy>  (43) 
82.51405990336792

>  <Genealogy>  (43) 
COc1ccc(-c2c[nH+]nn2-c2ccc(OC)cc2)cc1 (protonated)
COc1ccc(-c2c[nH+]nn2-c2ccc(OC)cc2)cc1 (3D coordinates assigned)
COc1ccc(-c2c[nH+]nn2-c2ccc(OC)cc2)cc1 (optimized conformer: 82.51405990336792 kcal/mol)

>  <smiles>  (43) 
COc1ccc(-c2cnnn2-c2ccc(OC)cc2)cc1

>  <score_type>  (43) 
oracle

>  <origin>  (43) 
adg

>  <m_score__min__energy>  (43) 
-7.4199999999999999

>  <m_primary>  (43) 
energy

$$$$
43:0
     RDKit          3D

 66 69  0  0  0  0  0  0  0  0999 V2000
   -2.6480   19.3510  -26.7060 C   0  0  0  0  0  0  0  0  0  0  0  0
   -1.5850   20.4110  -26.4290 C   0  0  0  0  0  0  0  0  0  0  0  0
   -1.2270   21.1530  -27.6520 N   0  0  0  0  0  0  0  0  0  0  0  0
   -0.0970   20.7210  -28.4990 C   0  0  0  0  0  0  0  0  0  0  0  0
    0.5750   19.4350  -27.9910 C   0  0  0  0  0  0  0  0  0  0  0  0
   -0.2410   18.1770  -28.3590 C   0  0  0  0  0  0  0  0  0  0  0  0
    0.5480   17.0980  -29.0010 N   0  0  0  0  0  0  0  0  0  0  0  0
    1.0500   16.1150  -28.0270 C   0  0  0  0  0  0  0  0  0  0  0  0
    1.6380   17.5660  -29.8850 C   0  0  0  0  0  0  0  0  0  0  0  0
    1.1470   17.8670  -31.3080 C   0  0  0  0  0  0  0  0  0  0  0  0
   -0.1310   18.5770  -31.2710 N   0  0  0  0  0  0  0  0  0  0  0  0
   -0.5940   19.3860  -32.3630 C   0  0  0  0  0  0  0  0  0  0  0  0
    0.0450   19.3940  -33.4510 O   0  0  0  0  0  0  0  0  0  0  0  0
   -1.8250   20.2030  -32.2340 C   0  0  0  0  0  0  0  0  0  0  0  0
   -1.7310   21.5740  -31.9510 C   0  0  0  0  0  0  0  0  0  0  0  0
   -2.8820   22.3530  -31.8250 C   0  0  0  0  0  0  0  0  0  0  0  0
   -4.1550   21.7760  -31.9720 C   0  0  0  0  0  0  0  0  0  0  0  0
   -4.2640   20.3960  -32.2430 C   0  0  0  0  0  0  0  0  0  0  0  0
   -3.0970   19.6190  -32.3680 C   0  0  0  0  0  0  0  0  0  0  0  0
   -5.6030   19.7750  -32.3850 C   0  0  0  0  0  0  0  0  0  0  0  0
   -5.7020   18.5430  -32.6350 O   0  0  0  0  0  0  0  0  0  0  0  0
   -6.8260   20.5970  -32.2340 C   0  0  0  0  0  0  0  0  0  0  0  0
   -8.1020   20.0160  -32.3560 C   0  0  0  0  0  0  0  0  0  0  0  0
   -9.2520   20.7950  -32.2100 C   0  0  0  0  0  0  0  0  0  0  0  0
   -9.1420   22.1590  -31.9400 C   0  0  0  0  0  0  0  0  0  0  0  0
   -7.8830   22.7500  -31.8170 C   0  0  0  0  0  0  0  0  0  0  0  0
   -6.7160   21.9780  -31.9630 C   0  0  0  0  0  0  0  0  0  0  0  0
   -5.3770   22.6030  -31.8370 C   0  0  0  0  0  0  0  0  0  0  0  0
   -5.2790   23.8440  -31.6180 O   0  0  0  0  0  0  0  0  0  0  0  0
   -2.0980   22.2000  -28.1260 C   0  0  0  0  0  0  0  0  0  0  0  0
   -3.4930   22.0220  -28.1300 C   0  0  0  0  0  0  0  0  0  0  0  0
   -4.3340   23.0390  -28.5930 C   0  0  0  0  0  0  0  0  0  0  0  0
   -3.7920   24.2400  -29.0560 C   0  0  0  0  0  0  0  0  0  0  0  0
   -2.4090   24.4270  -29.0540 C   0  0  0  0  0  0  0  0  0  0  0  0
   -1.5640   23.4110  -28.5940 C   0  0  0  0  0  0  0  0  0  0  0  0
   -3.0366   18.9635  -25.7527 H   0  0  0  0  0  0  0  0  0  0  0  0
   -3.4709   19.7988  -27.2825 H   0  0  0  0  0  0  0  0  0  0  0  0
   -2.2025   18.5268  -27.2825 H   0  0  0  0  0  0  0  0  0  0  0  0
   -1.9733   21.1194  -25.6824 H   0  0  0  0  0  0  0  0  0  0  0  0
   -0.6822   19.9042  -26.0573 H   0  0  0  0  0  0  0  0  0  0  0  0
   -0.4706   20.5426  -29.5181 H   0  0  0  0  0  0  0  0  0  0  0  0
    0.6585   21.5201  -28.4735 H   0  0  0  0  0  0  0  0  0  0  0  0
    1.5755   19.3545  -28.4410 H   0  0  0  0  0  0  0  0  0  0  0  0
    0.6379   19.4927  -26.8943 H   0  0  0  0  0  0  0  0  0  0  0  0
   -0.6866   17.7748  -27.4372 H   0  0  0  0  0  0  0  0  0  0  0  0
   -0.9923   18.4962  -29.0964 H   0  0  0  0  0  0  0  0  0  0  0  0
    0.8630   16.4813  -27.0068 H   0  0  0  0  0  0  0  0  0  0  0  0
    0.5312   15.1561  -28.1732 H   0  0  0  0  0  0  0  0  0  0  0  0
    2.1310   15.9731  -28.1732 H   0  0  0  0  0  0  0  0  0  0  0  0
    2.0698   18.4834  -29.4585 H   0  0  0  0  0  0  0  0  0  0  0  0
    2.3860   16.7621  -29.9506 H   0  0  0  0  0  0  0  0  0  0  0  0
    1.8924   18.4905  -31.8235 H   0  0  0  0  0  0  0  0  0  0  0  0
    1.0099   16.9167  -31.8448 H   0  0  0  0  0  0  0  0  0  0  0  0
   -0.7900   18.3570  -30.4900 H   0  0  0  0  0  0  0  0  0  0  0  0
   -0.7417   22.0388  -31.8274 H   0  0  0  0  0  0  0  0  0  0  0  0
   -2.7921   23.4278  -31.6088 H   0  0  0  0  0  0  0  0  0  0  0  0
   -3.1812   18.5416  -32.5731 H   0  0  0  0  0  0  0  0  0  0  0  0
   -8.1943   18.9406  -32.5679 H   0  0  0  0  0  0  0  0  0  0  0  0
  -10.2452   20.3325  -32.3080 H   0  0  0  0  0  0  0  0  0  0  0  0
  -10.0490   22.7704  -31.8237 H   0  0  0  0  0  0  0  0  0  0  0  0
   -7.8031   23.8263  -31.6045 H   0  0  0  0  0  0  0  0  0  0  0  0
   -3.9250   21.0778  -27.7670 H   0  0  0  0  0  0  0  0  0  0  0  0
   -5.4242   22.8927  -28.5925 H   0  0  0  0  0  0  0  0  0  0  0  0
   -4.4547   25.0380  -29.4220 H   0  0  0  0  0  0  0  0  0  0  0  0
   -1.9825   25.3747  -29.4146 H   0  0  0  0  0  0  0  0  0  0  0  0
   -0.4744   23.5621  -28.5991 H   0  0  0  0  0  0  0  0  0  0  0  0
  1  2  1  0
  2  3  1  0
  3  4  1  0
  4  5  1  0
  5  6  1  0
  6  7  1  0
  7  8  1  0
  7  9  1  0
  9 10  1  0
 10 11  1  0
 11 12  1  0
 12 13  2  0
 12 14  1  0
 14 15  2  0
 15 16  1  0
 16 17  2  0
 17 18  1  0
 18 19  2  0
 18 20  1  0
 20 21  2  0
 20 22  1  0
 22 23  2  0
 23 24  1  0
 24 25  2  0
 25 26  1  0
 26 27  2  0
 27 28  1  0
 28 29  2  0
  3 30  1  0
 30 31  2  0
 31 32  1  0
 32 33  2  0
 33 34  1  0
 34 35  2  0
 19 14  1  0
 27 22  1  0
 35 30  1  0
 28 17  1  0
  1 36  1  0
  1 37  1  0
  1 38  1  0
  2 39  1  0
  2 40  1  0
  4 41  1  0
  4 42  1  0
  5 43  1  0
  5 44  1  0
  6 45  1  0
  6 46  1  0
  8 47  1  0
  8 48  1  0
  8 49  1  0
  9 50  1  0
  9 51  1  0
 10 52  1  0
 10 53  1  0
 11 54  1  0
 15 55  1  0
 16 56  1  0
 19 57  1  0
 23 58  1  0
 24 59  1  0
 25 60  1  0
 26 61  1  0
 31 62  1  0
 32 63  1  0
 33 64  1  0
 34 65  1  0
 35 66  1  0
M  END
>  <UniqueID>  (44) 
41

>  <SMILES>  (44) 
CCN(CCCN(C)CCNC(=O)c1ccc2c(c1)C(=O)c1ccccc1C2=O)c1ccccc1

>  <Energy>  (44) 
77.10333753423478

>  <Genealogy>  (44) 
CCN(CCCN(C)CCNC(=O)c1ccc2c(c1)C(=O)c1ccccc1C2=O)c1ccccc1 (3D coordinates assigned)
CCN(CCCN(C)CCNC(=O)c1ccc2c(c1)C(=O)c1ccccc1C2=O)c1ccccc1 (nonaromatic ring conformer: 77.10333753423478 kcal/mol)

>  <smiles>  (44) 
CCN(CCCN(C)CCNC(=O)c1ccc2c(c1)C(=O)c1ccccc1C2=O)c1ccccc1

>  <score_type>  (44) 
oracle

>  <origin>  (44) 
adg

>  <m_score__min__energy>  (44) 
-10.529999999999999

>  <m_primary>  (44) 
energy

$$$$
44:0
     RDKit          3D

 19 19  0  0  0  0  0  0  0  0999 V2000
   -0.4920   25.1800  -24.0740 C   0  0  0  0  0  0  0  0  0  0  0  0
    0.0360   26.5710  -23.9510 C   0  0  0  0  0  0  0  0  0  0  0  0
   -0.3290   27.6660  -24.7120 C   0  0  0  0  0  0  0  0  0  0  0  0
    0.3220   28.7280  -24.1940 N   0  0  0  0  0  0  0  0  0  0  0  0
    0.2010   30.1140  -24.6350 C   0  0  0  0  0  0  0  0  0  0  0  0
    1.0270   28.3010  -23.1540 N   0  0  0  0  0  0  0  0  0  0  0  0
    1.8450   29.1480  -22.2890 C   0  0  0  0  0  0  0  0  0  0  0  0
    0.8690   26.9980  -22.9840 N   0  0  0  0  0  0  0  0  0  0  0  0
   -0.6520   24.7585  -23.0706 H   0  0  0  0  0  0  0  0  0  0  0  0
   -1.4462   25.1970  -24.6210 H   0  0  0  0  0  0  0  0  0  0  0  0
    0.2332   24.5596  -24.6210 H   0  0  0  0  0  0  0  0  0  0  0  0
   -1.0156   27.6704  -25.5714 H   0  0  0  0  0  0  0  0  0  0  0  0
    0.1433   30.7744  -23.7572 H   0  0  0  0  0  0  0  0  0  0  0  0
    1.0790   30.3842  -25.2401 H   0  0  0  0  0  0  0  0  0  0  0  0
   -0.7105   30.2280  -25.2401 H   0  0  0  0  0  0  0  0  0  0  0  0
    1.6238   28.9189  -21.2361 H   0  0  0  0  0  0  0  0  0  0  0  0
    2.9096   28.9575  -22.4898 H   0  0  0  0  0  0  0  0  0  0  0  0
    1.6175   30.2053  -22.4898 H   0  0  0  0  0  0  0  0  0  0  0  0
    1.2980   26.4260  -22.2210 H   0  0  0  0  0  0  0  0  0  0  0  0
  1  2  1  0
  2  3  1  0
  3  4  2  0
  4  5  1  0
  4  6  1  0
  6  7  1  0
  6  8  1  0
  8  2  2  0
  1  9  1  0
  1 10  1  0
  1 11  1  0
  3 12  1  0
  5 13  1  0
  5 14  1  0
  5 15  1  0
  7 16  1  0
  7 17  1  0
  7 18  1  0
  8 19  1  0
M  CHG  2   4   1   8   1
M  END
>  <UniqueID>  (45) 
42

>  <SMILES>  (45) 
Cc1c[n+](C)n(C)[nH+]1

>  <Energy>  (45) 
50.26431322001847

>  <Genealogy>  (45) 
Cc1c[n+](C)n(C)[nH+]1 (protonated)
Cc1c[n+](C)n(C)[nH+]1 (3D coordinates assigned)
Cc1c[n+](C)n(C)[nH+]1 (optimized conformer: 50.26431322001847 kcal/mol)

>  <smiles>  (45) 
Cc1c[n+](C)n(C)n1

>  <score_type>  (45) 
oracle

>  <origin>  (45) 
adg

>  <m_score__min__energy>  (45) 
-4.2000000000000002

>  <m_primary>  (45) 
energy

$$$$
45:0
     RDKit          3D

 58 61  0  0  0  0  0  0  0  0999 V2000
   -1.4350   18.6870  -32.7120 C   0  0  0  0  0  0  0  0  0  0  0  0
   -2.4620   17.7350  -33.3250 C   0  0  0  0  0  0  0  0  0  0  0  0
   -3.3730   18.4290  -34.3530 C   0  0  0  0  0  0  0  0  0  0  0  0
   -4.5390   19.0620  -33.7020 N   0  0  0  0  0  0  0  0  0  0  0  0
   -5.7140   18.3750  -33.5140 C   0  0  0  0  0  0  0  0  0  0  0  0
   -5.8220   17.1830  -33.9230 O   0  0  0  0  0  0  0  0  0  0  0  0
   -6.8060   18.9870  -32.8560 C   0  0  0  0  0  0  0  0  0  0  0  0
   -8.0180   18.2940  -32.6710 C   0  0  0  0  0  0  0  0  0  0  0  0
   -9.0910   18.9140  -32.0360 C   0  0  0  0  0  0  0  0  0  0  0  0
   -8.9710   20.2250  -31.5780 C   0  0  0  0  0  0  0  0  0  0  0  0
   -7.7750   20.9270  -31.7440 C   0  0  0  0  0  0  0  0  0  0  0  0
   -6.6690   20.3220  -32.3790 C   0  0  0  0  0  0  0  0  0  0  0  0
   -5.4620   20.9480  -32.5770 N   0  0  0  0  0  0  0  0  0  0  0  0
   -4.9200   22.1610  -32.2670 C   0  0  0  0  0  0  0  0  0  0  0  0
   -5.5660   23.3290  -31.5670 C   0  0  0  0  0  0  0  0  0  0  0  0
   -4.9320   23.6010  -30.1930 C   0  0  0  0  0  0  0  0  0  0  0  0
   -4.1440   24.8870  -30.2010 C   0  0  0  0  0  0  0  0  0  0  0  0
   -4.7330   25.9660  -30.4760 O   0  0  0  0  0  0  0  0  0  0  0  0
   -2.7440   24.9240  -29.8770 N   0  0  0  0  0  0  0  0  0  0  0  0
   -2.1980   24.8700  -28.5270 C   0  0  0  0  0  0  0  0  0  0  0  0
   -0.9720   23.9600  -28.5000 C   0  0  0  0  0  0  0  0  0  0  0  0
   -1.3540   22.5820  -28.0280 C   0  0  0  0  0  0  0  0  0  0  0  0
   -2.2480   21.8040  -28.7810 C   0  0  0  0  0  0  0  0  0  0  0  0
   -2.6310   20.5340  -28.3360 C   0  0  0  0  0  0  0  0  0  0  0  0
   -2.1290   20.0260  -27.1200 C   0  0  0  0  0  0  0  0  0  0  0  0
   -2.4720   18.7520  -26.6410 O   0  0  0  0  0  0  0  0  0  0  0  0
   -3.4940   18.5040  -25.6780 C   0  0  0  0  0  0  0  0  0  0  0  0
   -1.2550   20.8140  -26.3590 C   0  0  0  0  0  0  0  0  0  0  0  0
   -0.8730   22.0860  -26.8040 C   0  0  0  0  0  0  0  0  0  0  0  0
   -3.6580   22.2630  -32.7400 N   0  0  0  0  0  0  0  0  0  0  0  0
   -3.3590   21.1210  -33.3390 N   0  0  0  0  0  0  0  0  0  0  0  0
   -4.4490   20.3420  -33.2300 C   0  0  0  0  0  0  0  0  0  0  0  0
   -1.4937   18.6326  -31.6149 H   0  0  0  0  0  0  0  0  0  0  0  0
   -0.4256   18.3980  -33.0400 H   0  0  0  0  0  0  0  0  0  0  0  0
   -1.6467   19.7154  -33.0400 H   0  0  0  0  0  0  0  0  0  0  0  0
   -1.9270   16.9146  -33.8257 H   0  0  0  0  0  0  0  0  0  0  0  0
   -3.1012   17.3649  -32.5099 H   0  0  0  0  0  0  0  0  0  0  0  0
   -2.7940   19.2021  -34.8795 H   0  0  0  0  0  0  0  0  0  0  0  0
   -3.7412   17.6685  -35.0573 H   0  0  0  0  0  0  0  0  0  0  0  0
   -8.1174   17.2588  -33.0296 H   0  0  0  0  0  0  0  0  0  0  0  0
  -10.0355   18.3679  -31.8955 H   0  0  0  0  0  0  0  0  0  0  0  0
   -9.8246   20.7103  -31.0821 H   0  0  0  0  0  0  0  0  0  0  0  0
   -7.6942   21.9607  -31.3766 H   0  0  0  0  0  0  0  0  0  0  0  0
   -5.4524   24.2256  -32.1941 H   0  0  0  0  0  0  0  0  0  0  0  0
   -6.6269   23.0852  -31.4088 H   0  0  0  0  0  0  0  0  0  0  0  0
   -5.7288   23.6731  -29.4381 H   0  0  0  0  0  0  0  0  0  0  0  0
   -4.2467   22.7740  -29.9557 H   0  0  0  0  0  0  0  0  0  0  0  0
   -1.9081   25.8826  -28.2097 H   0  0  0  0  0  0  0  0  0  0  0  0
   -2.9612   24.4710  -27.8426 H   0  0  0  0  0  0  0  0  0  0  0  0
   -0.5482   23.8921  -29.5128 H   0  0  0  0  0  0  0  0  0  0  0  0
   -0.2285   24.3819  -27.8078 H   0  0  0  0  0  0  0  0  0  0  0  0
   -2.6499   22.1956  -29.7271 H   0  0  0  0  0  0  0  0  0  0  0  0
   -3.3263   19.9295  -28.9369 H   0  0  0  0  0  0  0  0  0  0  0  0
   -3.0762   18.6054  -24.6655 H   0  0  0  0  0  0  0  0  0  0  0  0
   -4.3089   19.2305  -25.8128 H   0  0  0  0  0  0  0  0  0  0  0  0
   -3.8853   17.4848  -25.8128 H   0  0  0  0  0  0  0  0  0  0  0  0
   -0.8658   20.4304  -25.4043 H   0  0  0  0  0  0  0  0  0  0  0  0
   -0.1940   22.6991  -26.1932 H   0  0  0  0  0  0  0  0  0  0  0  0
  1  2  1  0
  2  3  1  0
  3  4  1  0
  4  5  1  0
  5  6  2  0
  5  7  1  0
  7  8  2  0
  8  9  1  0
  9 10  2  0
 10 11  1  0
 11 12  2  0
 12 13  1  0
 13 14  1  0
 14 15  1  0
 15 16  1  0
 16 17  1  0
 17 18  2  0
 17 19  1  0
 19 20  1  0
 20 21  1  0
 21 22  1  0
 22 23  2  0
 23 24  1  0
 24 25  2  0
 25 26  1  0
 26 27  1  0
 25 28  1  0
 28 29  2  0
 14 30  2  0
 30 31  1  0
 31 32  2  0
 32  4  1  0
 12  7  1  0
 32 13  1  0
 29 22  1  0
  1 33  1  0
  1 34  1  0
  1 35  1  0
  2 36  1  0
  2 37  1  0
  3 38  1  0
  3 39  1  0
  8 40  1  0
  9 41  1  0
 10 42  1  0
 11 43  1  0
 15 44  1  0
 15 45  1  0
 16 46  1  0
 16 47  1  0
 20 48  1  0
 20 49  1  0
 21 50  1  0
 21 51  1  0
 23 52  1  0
 24 53  1  0
 27 54  1  0
 27 55  1  0
 27 56  1  0
 28 57  1  0
 29 58  1  0
M  CHG  1  19  -1
M  END
>  <UniqueID>  (46) 
43

>  <SMILES>  (46) 
CCCn1c(=O)c2ccccc2n2c(CCC(=O)[N-]CCc3ccc(OC)cc3)nnc12

>  <Energy>  (46) 
99.96273765922429

>  <Genealogy>  (46) 
CCCn1c(=O)c2ccccc2n2c(CCC(=O)[N-]CCc3ccc(OC)cc3)nnc12 (protonated)
CCCn1c(=O)c2ccccc2n2c(CCC(=O)[N-]CCc3ccc(OC)cc3)nnc12 (3D coordinates assigned)
CCCn1c(=O)c2ccccc2n2c(CCC(=O)[N-]CCc3ccc(OC)cc3)nnc12 (optimized conformer: 99.96273765922429 kcal/mol)

>  <smiles>  (46) 
CCCn1c(=O)c2ccccc2n2c(CCC(=O)NCCc3ccc(OC)cc3)nnc12

>  <score_type>  (46) 
oracle

>  <origin>  (46) 
adg

>  <m_score__min__energy>  (46) 
-11.57

>  <m_primary>  (46) 
energy

$$$$
46:0
     RDKit          3D

 51 54  0  0  0  0  0  0  0  0999 V2000
   -8.8450   18.2170  -31.6860 C   0  0  0  0  0  0  0  0  0  0  0  0
   -7.6290   19.0230  -32.0140 C   0  0  0  0  0  0  0  0  0  0  0  0
   -7.6530   19.9430  -33.0690 C   0  0  0  0  0  0  0  0  0  0  0  0
   -6.5010   20.6710  -33.3710 C   0  0  0  0  0  0  0  0  0  0  0  0
   -5.3270   20.4860  -32.6170 C   0  0  0  0  0  0  0  0  0  0  0  0
   -4.0320   21.2220  -32.9280 C   0  0  2  0  0  0  0  0  0  0  0  0
   -2.9360   20.3020  -33.4680 C   0  0  0  0  0  0  0  0  0  0  0  0
   -3.0020   18.8970  -33.3780 C   0  0  0  0  0  0  0  0  0  0  0  0
   -1.9880   18.1180  -33.9340 C   0  0  0  0  0  0  0  0  0  0  0  0
   -0.9210   18.7280  -34.5890 C   0  0  0  0  0  0  0  0  0  0  0  0
   -0.8860   20.1190  -34.6800 C   0  0  0  0  0  0  0  0  0  0  0  0
   -1.8810   20.8670  -34.1330 N   0  0  0  0  0  0  0  0  0  0  0  0
   -3.6260   22.1180  -31.8130 N   0  0  0  0  0  0  0  0  0  0  0  0
   -2.5430   21.5840  -30.9660 C   0  0  0  0  0  0  0  0  0  0  0  0
   -1.9660   22.7070  -30.1040 C   0  0  0  0  0  0  0  0  0  0  0  0
   -3.0290   23.4070  -29.3670 N   0  0  0  0  0  0  0  0  0  0  0  0
   -2.6750   24.2970  -28.2860 C   0  0  0  0  0  0  0  0  0  0  0  0
   -1.4920   25.0600  -28.3420 C   0  0  0  0  0  0  0  0  0  0  0  0
   -1.1570   25.9260  -27.2960 C   0  0  0  0  0  0  0  0  0  0  0  0
   -1.9960   26.0420  -26.1850 C   0  0  0  0  0  0  0  0  0  0  0  0
   -3.1730   25.2940  -26.1200 C   0  0  0  0  0  0  0  0  0  0  0  0
   -3.5130   24.4270  -27.1630 C   0  0  0  0  0  0  0  0  0  0  0  0
   -4.4330   23.0460  -29.6030 C   0  0  0  0  0  0  0  0  0  0  0  0
   -4.7050   22.8520  -31.1040 C   0  0  0  0  0  0  0  0  0  0  0  0
   -5.3480   19.5340  -31.5840 C   0  0  0  0  0  0  0  0  0  0  0  0
   -6.4810   18.8370  -31.3090 N   0  0  0  0  0  0  0  0  0  0  0  0
   -8.9536   18.1450  -30.5937 H   0  0  0  0  0  0  0  0  0  0  0  0
   -9.7342   18.7051  -32.1115 H   0  0  0  0  0  0  0  0  0  0  0  0
   -8.7418   17.2079  -32.1115 H   0  0  0  0  0  0  0  0  0  0  0  0
   -8.5721   20.0909  -33.6550 H   0  0  0  0  0  0  0  0  0  0  0  0
   -6.5107   21.3922  -34.2016 H   0  0  0  0  0  0  0  0  0  0  0  0
   -4.2266   21.8997  -33.7723 H   0  0  0  0  0  0  0  0  0  0  0  0
   -3.8513   18.4163  -32.8704 H   0  0  0  0  0  0  0  0  0  0  0  0
   -2.0308   17.0217  -33.8553 H   0  0  0  0  0  0  0  0  0  0  0  0
   -0.1164   18.1204  -35.0288 H   0  0  0  0  0  0  0  0  0  0  0  0
   -0.0499   20.6132  -35.1965 H   0  0  0  0  0  0  0  0  0  0  0  0
   -1.8270   21.9050  -34.2360 H   0  0  0  0  0  0  0  0  0  0  0  0
   -2.9432   20.7921  -30.3159 H   0  0  0  0  0  0  0  0  0  0  0  0
   -1.7496   21.1693  -31.6052 H   0  0  0  0  0  0  0  0  0  0  0  0
   -1.2527   22.2779  -29.3849 H   0  0  0  0  0  0  0  0  0  0  0  0
   -1.4625   23.4300  -30.7626 H   0  0  0  0  0  0  0  0  0  0  0  0
   -0.8273   24.9741  -29.2142 H   0  0  0  0  0  0  0  0  0  0  0  0
   -0.2308   26.5171  -27.3483 H   0  0  0  0  0  0  0  0  0  0  0  0
   -1.7295   26.7219  -25.3624 H   0  0  0  0  0  0  0  0  0  0  0  0
   -3.8346   25.3869  -25.2461 H   0  0  0  0  0  0  0  0  0  0  0  0
   -4.4428   23.8420  -27.1052 H   0  0  0  0  0  0  0  0  0  0  0  0
   -4.6581   22.1092  -29.0722 H   0  0  0  0  0  0  0  0  0  0  0  0
   -5.0724   23.8608  -29.2325 H   0  0  0  0  0  0  0  0  0  0  0  0
   -5.6424   22.2877  -31.2176 H   0  0  0  0  0  0  0  0  0  0  0  0
   -4.7633   23.8541  -31.5538 H   0  0  0  0  0  0  0  0  0  0  0  0
   -4.4387   19.3514  -30.9925 H   0  0  0  0  0  0  0  0  0  0  0  0
  1  2  1  0
  2  3  2  0
  3  4  1  0
  4  5  2  0
  5  6  1  0
  6  7  1  0
  7  8  2  0
  8  9  1  0
  9 10  2  0
 10 11  1  0
 11 12  2  0
  6 13  1  0
 13 14  1  0
 14 15  1  0
 15 16  1  0
 16 17  1  0
 17 18  2  0
 18 19  1  0
 19 20  2  0
 20 21  1  0
 21 22  2  0
 16 23  1  0
 23 24  1  0
  5 25  1  0
 25 26  2  0
 26  2  1  0
 12  7  1  0
 24 13  1  0
 22 17  1  0
  1 27  1  0
  1 28  1  0
  1 29  1  0
  3 30  1  0
  4 31  1  0
  6 32  1  6
  8 33  1  0
  9 34  1  0
 10 35  1  0
 11 36  1  0
 12 37  1  0
 14 38  1  0
 14 39  1  0
 15 40  1  0
 15 41  1  0
 18 42  1  0
 19 43  1  0
 20 44  1  0
 21 45  1  0
 22 46  1  0
 23 47  1  0
 23 48  1  0
 24 49  1  0
 24 50  1  0
 25 51  1  0
M  CHG  1  12   1
M  END
>  <UniqueID>  (47) 
44

>  <SMILES>  (47) 
Cc1ccc([C@H](c2cccc[nH+]2)N2CCN(c3ccccc3)CC2)cn1

>  <Energy>  (47) 
74.65462531014583

>  <Genealogy>  (47) 
Cc1ccc(C(c2cccc[nH+]2)N2CCN(c3ccccc3)CC2)cn1 (protonated)
Cc1ccc([C@H](c2cccc[nH+]2)N2CCN(c3ccccc3)CC2)cn1 (chirality)
Cc1ccc([C@H](c2cccc[nH+]2)N2CCN(c3ccccc3)CC2)cn1 (3D coordinates assigned)
Cc1ccc([C@H](c2cccc[nH+]2)N2CCN(c3ccccc3)CC2)cn1 (nonaromatic ring conformer: 74.65462531014583 kcal/mol)

>  <smiles>  (47) 
Cc1ccc(C(c2ccccn2)N2CCN(c3ccccc3)CC2)cn1

>  <score_type>  (47) 
oracle

>  <origin>  (47) 
adg

>  <m_score__min__energy>  (47) 
-7.7300000000000004

>  <m_primary>  (47) 
energy

$$$$
47:0
     RDKit          3D

 54 56  0  0  0  0  0  0  0  0999 V2000
   -0.5740   26.1890  -24.1200 C   0  0  0  0  0  0  0  0  0  0  0  0
   -1.3160   27.0060  -25.1730 C   0  0  0  0  0  0  0  0  0  0  0  0
   -0.9760   26.5100  -26.5960 C   0  0  0  0  0  0  0  0  0  0  0  0
   -2.0140   25.6500  -27.2070 N   0  0  0  0  0  0  0  0  0  0  0  0
   -3.0130   25.1410  -26.2500 C   0  0  0  0  0  0  0  0  0  0  0  0
   -4.2180   24.5380  -27.0040 C   0  0  0  0  0  0  0  0  0  0  0  0
   -3.8890   24.2100  -28.4130 N   0  0  0  0  0  0  0  0  0  0  0  0
   -4.9470   23.4040  -29.0690 C   0  0  0  0  0  0  0  0  0  0  0  0
   -4.9930   23.5490  -30.5740 C   0  0  0  0  0  0  0  0  0  0  0  0
   -4.6220   24.6320  -31.1010 O   0  0  0  0  0  0  0  0  0  0  0  0
   -5.5270   22.4800  -31.4400 C   0  0  0  0  0  0  0  0  0  0  0  0
   -4.8320   21.6360  -32.3140 C   0  0  0  0  0  0  0  0  0  0  0  0
   -3.3660   21.7190  -32.6290 C   0  0  0  0  0  0  0  0  0  0  0  0
   -5.6830   20.7310  -32.8710 N   0  0  0  0  0  0  0  0  0  0  0  0
   -5.3490   19.6820  -33.8410 C   0  0  0  0  0  0  0  0  0  0  0  0
   -5.6480   18.3050  -33.2610 C   0  0  0  0  0  0  0  0  0  0  0  0
   -6.9110   21.0280  -32.3930 C   0  0  0  0  0  0  0  0  0  0  0  0
   -8.1240   20.3900  -32.6740 C   0  0  0  0  0  0  0  0  0  0  0  0
   -9.2840   20.8590  -32.0310 C   0  0  0  0  0  0  0  0  0  0  0  0
   -9.2150   21.9420  -31.1310 C   0  0  0  0  0  0  0  0  0  0  0  0
   -7.9860   22.5710  -30.8680 C   0  0  0  0  0  0  0  0  0  0  0  0
   -6.8510   22.0900  -31.5250 C   0  0  0  0  0  0  0  0  0  0  0  0
   -2.5490   23.5910  -28.5170 C   0  0  0  0  0  0  0  0  0  0  0  0
   -1.4530   24.5730  -28.0490 C   0  0  0  0  0  0  0  0  0  0  0  0
   -0.8770   26.5226  -23.1165 H   0  0  0  0  0  0  0  0  0  0  0  0
   -0.8199   25.1238  -24.2421 H   0  0  0  0  0  0  0  0  0  0  0  0
    0.5099   26.3315  -24.2421 H   0  0  0  0  0  0  0  0  0  0  0  0
   -2.3990   26.9088  -25.0069 H   0  0  0  0  0  0  0  0  0  0  0  0
   -1.0065   28.0578  -25.0841 H   0  0  0  0  0  0  0  0  0  0  0  0
   -0.8332   27.3889  -27.2419 H   0  0  0  0  0  0  0  0  0  0  0  0
   -0.0698   25.8930  -26.5057 H   0  0  0  0  0  0  0  0  0  0  0  0
   -2.5517   24.3641  -25.6226 H   0  0  0  0  0  0  0  0  0  0  0  0
   -3.3637   25.9732  -25.6219 H   0  0  0  0  0  0  0  0  0  0  0  0
   -4.5332   23.6179  -26.4902 H   0  0  0  0  0  0  0  0  0  0  0  0
   -5.0226   25.2880  -27.0104 H   0  0  0  0  0  0  0  0  0  0  0  0
   -3.8570   25.1150  -28.9440 H   0  0  0  0  0  0  0  0  0  0  0  0
   -4.7721   22.3447  -28.8296 H   0  0  0  0  0  0  0  0  0  0  0  0
   -5.9095   23.7740  -28.6861 H   0  0  0  0  0  0  0  0  0  0  0  0
   -2.7909   21.7516  -31.6919 H   0  0  0  0  0  0  0  0  0  0  0  0
   -3.0659   20.8364  -33.2129 H   0  0  0  0  0  0  0  0  0  0  0  0
   -3.1674   22.6298  -33.2129 H   0  0  0  0  0  0  0  0  0  0  0  0
   -5.9466   19.8284  -34.7528 H   0  0  0  0  0  0  0  0  0  0  0  0
   -4.2764   19.7437  -34.0770 H   0  0  0  0  0  0  0  0  0  0  0  0
   -5.6362   18.3594  -32.1624 H   0  0  0  0  0  0  0  0  0  0  0  0
   -6.6395   17.9714  -33.6010 H   0  0  0  0  0  0  0  0  0  0  0  0
   -4.8841   17.5902  -33.6010 H   0  0  0  0  0  0  0  0  0  0  0  0
   -8.1694   19.5457  -33.3777 H   0  0  0  0  0  0  0  0  0  0  0  0
  -10.2522   20.3771  -32.2319 H   0  0  0  0  0  0  0  0  0  0  0  0
  -10.1286   22.2968  -30.6316 H   0  0  0  0  0  0  0  0  0  0  0  0
   -7.9199   23.4158  -30.1666 H   0  0  0  0  0  0  0  0  0  0  0  0
   -2.5183   22.6897  -27.8872 H   0  0  0  0  0  0  0  0  0  0  0  0
   -2.3622   23.3298  -29.5691 H   0  0  0  0  0  0  0  0  0  0  0  0
   -0.7017   24.0191  -27.4671 H   0  0  0  0  0  0  0  0  0  0  0  0
   -0.9984   25.0324  -28.9391 H   0  0  0  0  0  0  0  0  0  0  0  0
  1  2  1  0
  2  3  1  0
  3  4  1  0
  4  5  1  0
  5  6  1  0
  6  7  1  0
  7  8  1  0
  8  9  1  0
  9 10  2  0
  9 11  1  0
 11 12  2  0
 12 13  1  0
 12 14  1  0
 14 15  1  0
 15 16  1  0
 14 17  1  0
 17 18  2  0
 18 19  1  0
 19 20  2  0
 20 21  1  0
 21 22  2  0
  7 23  1  0
 23 24  1  0
 24  4  1  0
 22 11  1  0
 22 17  1  0
  1 25  1  0
  1 26  1  0
  1 27  1  0
  2 28  1  0
  2 29  1  0
  3 30  1  0
  3 31  1  0
  5 32  1  0
  5 33  1  0
  6 34  1  0
  6 35  1  0
  7 36  1  0
  8 37  1  0
  8 38  1  0
 13 39  1  0
 13 40  1  0
 13 41  1  0
 15 42  1  0
 15 43  1  0
 16 44  1  0
 16 45  1  0
 16 46  1  0
 18 47  1  0
 19 48  1  0
 20 49  1  0
 21 50  1  0
 23 51  1  0
 23 52  1  0
 24 53  1  0
 24 54  1  0
M  CHG  1   7   1
M  END
>  <UniqueID>  (48) 
45

>  <SMILES>  (48) 
CCCN1CC[NH+](CC(=O)c2c(C)n(CC)c3ccccc23)CC1

>  <Energy>  (48) 
99.3500203654241

>  <Genealogy>  (48) 
CCCN1CC[NH+](CC(=O)c2c(C)n(CC)c3ccccc23)CC1 (protonated)
CCCN1CC[NH+](CC(=O)c2c(C)n(CC)c3ccccc23)CC1 (3D coordinates assigned)
CCCN1CC[NH+](CC(=O)c2c(C)n(CC)c3ccccc23)CC1 (nonaromatic ring conformer: 99.3500203654241 kcal/mol)

>  <smiles>  (48) 
CCCN1CCN(CC(=O)c2c(C)n(CC)c3ccccc23)CC1

>  <score_type>  (48) 
oracle

>  <origin>  (48) 
adg

>  <m_score__min__energy>  (48) 
-7.8600000000000003

>  <m_primary>  (48) 
energy

$$$$
