0:0
     RDKit          3D

 27 29  0  0  1  0  0  0  0  0999 V2000
   -5.4530   19.0630  -33.2360 C   0  0  0  0  0  0  0  0  0  0  0  0
   -5.9840   19.7350  -32.0920 N   0  0  0  0  0  0  0  0  0  0  0  0
   -7.1410   20.2970  -32.0570 C   0  0  0  0  0  0  0  0  0  0  0  0
   -8.2610   19.5500  -32.3460 C   0  0  0  0  0  0  0  0  0  0  0  0
   -9.4910   20.2020  -32.2950 C   0  0  0  0  0  0  0  0  0  0  0  0
   -9.5900   21.5300  -31.9690 C   0  0  0  0  0  0  0  0  0  0  0  0
   -8.4220   22.2120  -31.6910 C   0  0  0  0  0  0  0  0  0  0  0  0
   -7.2070   21.5990  -31.7350 N   0  0  0  0  0  0  0  0  0  0  0  0
   -6.0610   22.3800  -31.4340 C   0  0  0  0  0  0  0  0  0  0  0  0
   -4.8500   21.9990  -31.8730 N   0  0  0  0  0  0  0  0  0  0  0  0
   -3.7180   22.6750  -31.6350 C   0  0  0  0  0  0  0  0  0  0  0  0
   -3.7730   23.8240  -30.9030 N   0  0  0  0  0  0  0  0  0  0  0  0
   -4.9710   24.2670  -30.4280 C   0  0  0  0  0  0  0  0  0  0  0  0
   -5.3610   25.3270  -29.6960 N   0  0  0  0  0  0  0  0  0  0  0  0
   -6.6890   25.3060  -29.4910 C   0  0  0  0  0  0  0  0  0  0  0  0
   -7.1310   24.1910  -30.1190 N   0  0  0  0  0  0  0  0  0  0  0  0
   -6.1170   23.5450  -30.6920 C   0  0  0  0  0  0  0  0  0  0  0  0
   -4.8020   18.2392  -32.9080 H   0  0  0  0  0  0  0  0  0  0  0  0
   -6.2788   18.6594  -33.8403 H   0  0  0  0  0  0  0  0  0  0  0  0
   -4.8694   19.7731  -33.8403 H   0  0  0  0  0  0  0  0  0  0  0  0
   -8.1876   18.4837  -32.6061 H   0  0  0  0  0  0  0  0  0  0  0  0
  -10.4068   19.6366  -32.5222 H   0  0  0  0  0  0  0  0  0  0  0  0
  -10.5665   22.0349  -31.9302 H   0  0  0  0  0  0  0  0  0  0  0  0
   -8.4745   23.2786  -31.4270 H   0  0  0  0  0  0  0  0  0  0  0  0
   -2.7571   22.3080  -32.0249 H   0  0  0  0  0  0  0  0  0  0  0  0
   -4.6890   26.0460  -29.3550 H   0  0  0  0  0  0  0  0  0  0  0  0
   -7.2892   26.0389  -28.9319 H   0  0  0  0  0  0  0  0  0  0  0  0
  1  2  1  0
  2  3  2  0
  3  4  1  0
  4  5  2  0
  5  6  1  0
  6  7  2  0
  7  8  1  0
  8  9  1  0
  9 10  2  0
 10 11  1  0
 11 12  2  0
 12 13  1  0
 13 14  1  0
 14 15  1  0
 15 16  2  0
 16 17  1  0
  8  3  1  0
 17  9  1  0
 17 13  2  0
  1 18  1  0
  1 19  1  0
  1 20  1  0
  4 21  1  0
  5 22  1  0
  6 23  1  0
  7 24  1  0
 11 25  1  0
 14 26  1  0
 15 27  1  0
M  END
>  <smiles>  (1) 
CN=c1ccccn1-c1ncnc2[nH]cnc12

>  <score_type>  (1) 
oracle

>  <origin>  (1) 
adg

>  <m_score__min__energy>  (1) 
-6.5199999999999996

>  <m_primary>  (1) 
energy

$$$$
1:0
     RDKit          3D

 30 31  0  0  0  0  0  0  0  0999 V2000
   -1.3690   22.4550  -26.7850 C   0  0  0  0  0  0  0  0  0  0  0  0
   -1.4830   23.7070  -27.5970 C   0  0  0  0  0  0  0  0  0  0  0  0
   -0.4770   24.6160  -27.8480 C   0  0  0  0  0  0  0  0  0  0  0  0
   -1.0590   25.6200  -28.5950 C   0  0  0  0  0  0  0  0  0  0  0  0
   -2.3330   25.3580  -28.7830 O   0  0  0  0  0  0  0  0  0  0  0  0
   -2.6230   24.2230  -28.1880 C   0  0  0  0  0  0  0  0  0  0  0  0
   -3.9820   23.5970  -28.2040 C   0  0  0  0  0  0  0  0  0  0  0  0
   -4.9390   24.5060  -28.8360 N   0  0  0  0  0  0  0  0  0  0  0  0
   -4.8540   24.3360  -30.5630 S   0  0  0  0  0  0  0  0  0  0  0  0
   -5.0600   25.6760  -31.2130 O   0  0  0  0  0  0  0  0  0  0  0  0
   -3.4940   23.8240  -30.9450 O   0  0  0  0  0  0  0  0  0  0  0  0
   -6.0750   23.1930  -31.1210 C   0  0  0  0  0  0  0  0  0  0  0  0
   -5.7720   22.3120  -32.1680 C   0  0  0  0  0  0  0  0  0  0  0  0
   -6.7240   21.3820  -32.6020 C   0  0  0  0  0  0  0  0  0  0  0  0
   -7.9800   21.3280  -31.9890 C   0  0  0  0  0  0  0  0  0  0  0  0
   -8.9010   20.4260  -32.4090 F   0  0  0  0  0  0  0  0  0  0  0  0
   -8.2830   22.2010  -30.9390 C   0  0  0  0  0  0  0  0  0  0  0  0
   -7.3330   23.1310  -30.5040 C   0  0  0  0  0  0  0  0  0  0  0  0
   -1.3921   22.7086  -25.7149 H   0  0  0  0  0  0  0  0  0  0  0  0
   -2.2100   21.7866  -27.0216 H   0  0  0  0  0  0  0  0  0  0  0  0
   -0.4211   21.9495  -27.0216 H   0  0  0  0  0  0  0  0  0  0  0  0
    0.5714   24.5539  -27.5209 H   0  0  0  0  0  0  0  0  0  0  0  0
   -0.5341   26.5082  -28.9766 H   0  0  0  0  0  0  0  0  0  0  0  0
   -3.9436   22.6552  -28.7711 H   0  0  0  0  0  0  0  0  0  0  0  0
   -4.3009   23.3948  -27.1709 H   0  0  0  0  0  0  0  0  0  0  0  0
   -4.6530   25.4890  -28.6190 H   0  0  0  0  0  0  0  0  0  0  0  0
   -4.7839   22.3514  -32.6498 H   0  0  0  0  0  0  0  0  0  0  0  0
   -6.4842   20.6933  -33.4255 H   0  0  0  0  0  0  0  0  0  0  0  0
   -9.2696   22.1562  -30.4547 H   0  0  0  0  0  0  0  0  0  0  0  0
   -7.5730   23.8149  -29.6766 H   0  0  0  0  0  0  0  0  0  0  0  0
  1  2  1  0
  2  3  1  0
  3  4  2  0
  4  5  1  0
  5  6  1  0
  6  7  1  0
  7  8  1  0
  8  9  1  0
  9 10  2  0
  9 11  2  0
  9 12  1  0
 12 13  2  0
 13 14  1  0
 14 15  2  0
 15 16  1  0
 15 17  1  0
 17 18  2  0
  6  2  2  0
 18 12  1  0
  1 19  1  0
  1 20  1  0
  1 21  1  0
  3 22  1  0
  4 23  1  0
  7 24  1  0
  7 25  1  0
  8 26  1  0
 13 27  1  0
 14 28  1  0
 17 29  1  0
 18 30  1  0
M  END
>  <UniqueID>  (2) 
1

>  <SMILES>  (2) 
Cc1ccoc1CNS(=O)(=O)c1ccc(F)cc1

>  <Energy>  (2) 
51.52060662269846

>  <Genealogy>  (2) 
Cc1ccoc1CNS(=O)(=O)c1ccc(F)cc1 (3D coordinates assigned)
Cc1ccoc1CNS(=O)(=O)c1ccc(F)cc1 (optimized conformer: 51.52060662269846 kcal/mol)

>  <smiles>  (2) 
Cc1ccoc1CNS(=O)(=O)c1ccc(F)cc1

>  <score_type>  (2) 
oracle

>  <origin>  (2) 
adg

>  <m_score__min__energy>  (2) 
-7.8700000000000001

>  <m_primary>  (2) 
energy

$$$$
2:0
     RDKit          3D

 36 38  0  0  0  0  0  0  0  0999 V2000
   -6.1140   25.3830  -29.3350 C   0  0  0  0  0  0  0  0  0  0  0  0
   -5.5340   25.6560  -30.7170 C   0  0  0  0  0  0  0  0  0  0  0  0
   -4.2370   25.0750  -30.8400 O   0  0  0  0  0  0  0  0  0  0  0  0
   -3.9780   23.7090  -30.6760 C   0  0  0  0  0  0  0  0  0  0  0  0
   -2.9380   23.3340  -30.0680 O   0  0  0  0  0  0  0  0  0  0  0  0
   -4.8900   22.6860  -31.2350 C   0  0  0  0  0  0  0  0  0  0  0  0
   -6.1960   22.8930  -31.0840 O   0  0  0  0  0  0  0  0  0  0  0  0
   -7.1260   22.0450  -31.5050 C   0  0  0  0  0  0  0  0  0  0  0  0
   -8.4780   22.3440  -31.3010 C   0  0  0  0  0  0  0  0  0  0  0  0
   -9.4660   21.4550  -31.7350 C   0  0  0  0  0  0  0  0  0  0  0  0
   -9.1080   20.2650  -32.3740 C   0  0  0  0  0  0  0  0  0  0  0  0
   -7.7610   19.9580  -32.5830 C   0  0  0  0  0  0  0  0  0  0  0  0
   -6.7580   20.8460  -32.1510 C   0  0  0  0  0  0  0  0  0  0  0  0
   -5.3930   20.5870  -32.3460 C   0  0  0  0  0  0  0  0  0  0  0  0
   -5.0230   19.5320  -32.9340 O   0  0  0  0  0  0  0  0  0  0  0  0
   -4.4380   21.5150  -31.8950 C   0  0  0  0  0  0  0  0  0  0  0  0
   -3.0030   21.2610  -32.1590 C   0  0  0  0  0  0  0  0  0  0  0  0
   -2.4760   21.4880  -33.4400 C   0  0  0  0  0  0  0  0  0  0  0  0
   -1.1230   21.2430  -33.6970 C   0  0  0  0  0  0  0  0  0  0  0  0
   -0.2900   20.7770  -32.6770 C   0  0  0  0  0  0  0  0  0  0  0  0
   -0.8060   20.5590  -31.3960 C   0  0  0  0  0  0  0  0  0  0  0  0
   -2.1580   20.8020  -31.1330 C   0  0  0  0  0  0  0  0  0  0  0  0
   -2.6450   20.5880  -29.8840 F   0  0  0  0  0  0  0  0  0  0  0  0
   -5.4024   25.7180  -28.5660 H   0  0  0  0  0  0  0  0  0  0  0  0
   -7.0617   25.9296  -29.2206 H   0  0  0  0  0  0  0  0  0  0  0  0
   -6.2967   24.3043  -29.2206 H   0  0  0  0  0  0  0  0  0  0  0  0
   -6.1980   25.2233  -31.4798 H   0  0  0  0  0  0  0  0  0  0  0  0
   -5.4506   26.7437  -30.8585 H   0  0  0  0  0  0  0  0  0  0  0  0
   -8.7637   23.2799  -30.7985 H   0  0  0  0  0  0  0  0  0  0  0  0
  -10.5277   21.6929  -31.5730 H   0  0  0  0  0  0  0  0  0  0  0  0
   -9.8886   19.5682  -32.7133 H   0  0  0  0  0  0  0  0  0  0  0  0
   -7.4837   19.0201  -33.0864 H   0  0  0  0  0  0  0  0  0  0  0  0
   -3.1286   21.8595  -34.2438 H   0  0  0  0  0  0  0  0  0  0  0  0
   -0.7145   21.4175  -34.7033 H   0  0  0  0  0  0  0  0  0  0  0  0
    0.7729   20.5814  -32.8819 H   0  0  0  0  0  0  0  0  0  0  0  0
   -0.1473   20.1957  -30.5934 H   0  0  0  0  0  0  0  0  0  0  0  0
  1  2  1  0
  2  3  1  0
  3  4  1  0
  4  5  2  0
  4  6  1  0
  6  7  1  0
  7  8  1  0
  8  9  2  0
  9 10  1  0
 10 11  2  0
 11 12  1  0
 12 13  2  0
 13 14  1  0
 14 15  2  0
 14 16  1  0
 16 17  1  0
 17 18  2  0
 18 19  1  0
 19 20  2  0
 20 21  1  0
 21 22  2  0
 22 23  1  0
 16  6  2  0
 22 17  1  0
 13  8  1  0
  1 24  1  0
  1 25  1  0
  1 26  1  0
  2 27  1  0
  2 28  1  0
  9 29  1  0
 10 30  1  0
 11 31  1  0
 12 32  1  0
 18 33  1  0
 19 34  1  0
 20 35  1  0
 21 36  1  0
M  END
>  <UniqueID>  (3) 
2

>  <SMILES>  (3) 
CCOC(=O)c1oc2ccccc2c(=O)c1-c1ccccc1F

>  <Energy>  (3) 
50.050040586701215

>  <Genealogy>  (3) 
CCOC(=O)c1oc2ccccc2c(=O)c1-c1ccccc1F (3D coordinates assigned)
CCOC(=O)c1oc2ccccc2c(=O)c1-c1ccccc1F (optimized conformer: 50.050040586701215 kcal/mol)

>  <smiles>  (3) 
CCOC(=O)c1oc2ccccc2c(=O)c1-c1ccccc1F

>  <score_type>  (3) 
oracle

>  <origin>  (3) 
adg

>  <m_score__min__energy>  (3) 
-7.7199999999999998

>  <m_primary>  (3) 
energy

$$$$
3:0
     RDKit          3D

 56 57  0  0  0  0  0  0  0  0999 V2000
   -5.4268   26.4947  -31.3391 H   0  0  0  0  0  0  0  0  0  0  0  0
   -5.1750   25.5940  -30.7600 C   0  0  0  0  0  0  0  0  0  0  0  0
   -3.8970   25.3740  -30.3750 N   0  0  0  0  0  0  0  0  0  0  0  0
   -3.5480   24.2990  -29.6220 C   0  0  0  0  0  0  0  0  0  0  0  0
   -2.2050   24.1500  -29.2570 C   0  0  0  0  0  0  0  0  0  0  0  0
   -1.4570   24.8725  -29.6154 H   0  0  0  0  0  0  0  0  0  0  0  0
   -1.8110   23.0910  -28.4420 C   0  0  0  0  0  0  0  0  0  0  0  0
   -0.1250   22.9120  -27.9860 Cl  0  0  0  0  0  0  0  0  0  0  0  0
   -2.7630   22.1970  -27.9610 C   0  0  0  0  0  0  0  0  0  0  0  0
   -2.4546   21.3775  -27.2952 H   0  0  0  0  0  0  0  0  0  0  0  0
   -4.1070   22.3320  -28.3170 C   0  0  0  0  0  0  0  0  0  0  0  0
   -4.8491   21.6336  -27.9029 H   0  0  0  0  0  0  0  0  0  0  0  0
   -4.5300   23.3540  -29.2030 C   0  0  0  0  0  0  0  0  0  0  0  0
   -5.8710   23.5280  -29.6880 C   0  0  0  0  0  0  0  0  0  0  0  0
   -6.8540   22.6710  -29.5760 N   0  0  0  0  0  0  0  0  0  0  0  0
   -7.9190   22.2580  -30.4830 C   0  0  0  0  0  0  0  0  0  0  0  0
   -8.7082   23.0242  -30.4955 H   0  0  0  0  0  0  0  0  0  0  0  0
   -8.3427   21.3021  -30.1413 H   0  0  0  0  0  0  0  0  0  0  0  0
   -7.3470   22.0890  -31.8970 C   0  0  0  0  0  0  0  0  0  0  0  0
   -6.2499   22.0500  -31.8269 H   0  0  0  0  0  0  0  0  0  0  0  0
   -7.6955   22.9456  -32.4926 H   0  0  0  0  0  0  0  0  0  0  0  0
   -7.8360   20.8140  -32.6060 C   0  0  0  0  0  0  0  0  0  0  0  0
   -8.0682   21.0596  -33.6528 H   0  0  0  0  0  0  0  0  0  0  0  0
   -8.7250   20.4528  -32.0682 H   0  0  0  0  0  0  0  0  0  0  0  0
   -6.8180   19.7210  -32.5850 N   0  0  0  0  0  0  0  0  0  0  0  0
   -7.4780   18.3970  -32.4480 C   0  0  0  0  0  0  0  0  0  0  0  0
   -6.7891   17.7087  -31.9365 H   0  0  0  0  0  0  0  0  0  0  0  0
   -7.7265   18.0368  -33.4572 H   0  0  0  0  0  0  0  0  0  0  0  0
   -8.7760   18.4810  -31.6460 C   0  0  0  0  0  0  0  0  0  0  0  0
   -8.5443   18.4660  -30.5708 H   0  0  0  0  0  0  0  0  0  0  0  0
   -9.3010   19.4150  -31.8949 H   0  0  0  0  0  0  0  0  0  0  0  0
   -9.4170   17.6225  -31.8949 H   0  0  0  0  0  0  0  0  0  0  0  0
   -5.8730   19.9500  -31.4580 C   0  0  0  0  0  0  0  0  0  0  0  0
   -6.0734   20.9512  -31.0488 H   0  0  0  0  0  0  0  0  0  0  0  0
   -6.0535   19.1294  -30.7481 H   0  0  0  0  0  0  0  0  0  0  0  0
   -4.3560   19.8740  -31.8120 C   0  0  0  0  0  0  0  0  0  0  0  0
   -3.8704   20.7572  -31.3715 H   0  0  0  0  0  0  0  0  0  0  0  0
   -4.0234   18.9049  -31.4117 H   0  0  0  0  0  0  0  0  0  0  0  0
   -3.9860   19.8350  -33.2580 N   0  0  0  0  0  0  0  0  0  0  0  0
   -4.8290   20.1670  -33.7890 H   0  0  0  0  0  0  0  0  0  0  0  0
   -3.6930   18.4740  -33.7740 C   0  0  0  0  0  0  0  0  0  0  0  0
   -2.7845   18.5218  -34.3924 H   0  0  0  0  0  0  0  0  0  0  0  0
   -3.5638   17.8134  -32.9040 H   0  0  0  0  0  0  0  0  0  0  0  0
   -4.8320   17.8960  -34.6230 C   0  0  0  0  0  0  0  0  0  0  0  0
   -5.6163   17.4980  -33.9623 H   0  0  0  0  0  0  0  0  0  0  0  0
   -5.2548   18.6886  -35.2578 H   0  0  0  0  0  0  0  0  0  0  0  0
   -4.4419   17.0868  -35.2578 H   0  0  0  0  0  0  0  0  0  0  0  0
   -2.8820   20.7670  -33.6040 C   0  0  0  0  0  0  0  0  0  0  0  0
   -2.0203   20.1763  -33.9482 H   0  0  0  0  0  0  0  0  0  0  0  0
   -3.2571   21.4433  -34.3863 H   0  0  0  0  0  0  0  0  0  0  0  0
   -2.4360   21.6380  -32.4220 C   0  0  0  0  0  0  0  0  0  0  0  0
   -2.6935   21.1351  -31.4782 H   0  0  0  0  0  0  0  0  0  0  0  0
   -1.3479   21.7923  -32.4702 H   0  0  0  0  0  0  0  0  0  0  0  0
   -2.9468   22.6110  -32.4702 H   0  0  0  0  0  0  0  0  0  0  0  0
   -6.1700   24.6840  -30.4250 C   0  0  0  0  0  0  0  0  0  0  0  0
   -7.2064   24.8723  -30.7419 H   0  0  0  0  0  0  0  0  0  0  0  0
  1  2  1  0
  2  3  1  0
  3  4  1  0
  4  5  2  0
  5  6  1  0
  5  7  1  0
  7  8  1  0
  7  9  2  0
  9 10  1  0
  9 11  1  0
 11 12  1  0
 11 13  2  0
 13 14  1  0
 14 15  2  0
 15 16  1  0
 16 17  1  0
 16 18  1  0
 16 19  1  0
 19 20  1  0
 19 21  1  0
 19 22  1  0
 22 23  1  0
 22 24  1  0
 22 25  1  0
 25 26  1  0
 26 27  1  0
 26 28  1  0
 26 29  1  0
 29 30  1  0
 29 31  1  0
 29 32  1  0
 25 33  1  0
 33 34  1  0
 33 35  1  0
 33 36  1  0
 36 37  1  0
 36 38  1  0
 36 39  1  0
 39 40  1  0
 39 41  1  0
 41 42  1  0
 41 43  1  0
 41 44  1  0
 44 45  1  0
 44 46  1  0
 44 47  1  0
 39 48  1  0
 48 49  1  0
 48 50  1  0
 48 51  1  0
 51 52  1  0
 51 53  1  0
 51 54  1  0
 14 55  1  0
 55 56  1  0
 55  2  2  0
 13  4  1  0
M  CHG  2   3  -1  39   1
M  END
>  <UniqueID>  (4) 
3

>  <SMILES>  (4) 
CCN(CCC/N=c1/cc[n-]c2cc(Cl)ccc12)CC[NH+](CC)CC

>  <Energy>  (4) 
75.90691707303844

>  <Genealogy>  (4) 
CCN(CCCN=c1cc[n-]c2cc(Cl)ccc12)CC[NH+](CC)CC (protonated)
CCN(CCC/N=c1/cc[n-]c2cc(Cl)ccc12)CC[NH+](CC)CC (cis-trans isomerization)
CCN(CCC/N=c1/cc[n-]c2cc(Cl)ccc12)CC[NH+](CC)CC (3D coordinates assigned)
CCN(CCC/N=c1/cc[n-]c2cc(Cl)ccc12)CC[NH+](CC)CC (optimized conformer: 75.90691707303844 kcal/mol)

>  <smiles>  (4) 
CCN(CC)CCN(CC)CCCN=c1cc[nH]c2cc(Cl)ccc12

>  <score_type>  (4) 
oracle

>  <origin>  (4) 
adg

>  <m_score__min__energy>  (4) 
-8.0800000000000001

>  <m_primary>  (4) 
energy

$$$$
4:0
     RDKit          3D

 59 62  0  0  0  0  0  0  0  0999 V2000
   -8.3845   16.6002  -32.5679 H   0  0  0  0  0  0  0  0  0  0  0  0
   -7.6680   17.4280  -32.4610 C   0  0  0  0  0  0  0  0  0  0  0  0
   -8.0150   18.4550  -31.6690 C   0  0  0  0  0  0  0  0  0  0  0  0
   -8.9684   18.3808  -31.1253 H   0  0  0  0  0  0  0  0  0  0  0  0
   -7.1920   19.7030  -31.4710 C   0  0  0  0  0  0  0  0  0  0  0  0
   -6.1247   19.4411  -31.5198 H   0  0  0  0  0  0  0  0  0  0  0  0
   -7.4399   20.1330  -30.4894 H   0  0  0  0  0  0  0  0  0  0  0  0
   -7.4910   20.7090  -32.5140 N   0  0  0  0  0  0  0  0  0  0  0  0
   -6.3900   21.6920  -32.6890 C   0  0  0  0  0  0  0  0  0  0  0  0
   -5.9778   21.5744  -33.7020 H   0  0  0  0  0  0  0  0  0  0  0  0
   -5.6468   21.4836  -31.9053 H   0  0  0  0  0  0  0  0  0  0  0  0
   -6.8310   23.1580  -32.5110 C   0  0  0  0  0  0  0  0  0  0  0  0
   -7.4198   23.4601  -33.3896 H   0  0  0  0  0  0  0  0  0  0  0  0
   -5.9252   23.7731  -32.4059 H   0  0  0  0  0  0  0  0  0  0  0  0
   -7.6560   23.3500  -31.2940 N   0  0  0  0  0  0  0  0  0  0  0  0
   -6.8470   23.4190  -30.0590 C   0  0  0  0  0  0  0  0  0  0  0  0
   -6.2730   22.4868  -29.9515 H   0  0  0  0  0  0  0  0  0  0  0  0
   -7.5232   23.5537  -29.2019 H   0  0  0  0  0  0  0  0  0  0  0  0
   -5.8980   24.5770  -30.1080 C   0  0  0  0  0  0  0  0  0  0  0  0
   -6.1760   25.6370  -29.4800 O   0  0  0  0  0  0  0  0  0  0  0  0
   -4.6750   24.4600  -30.8480 N   0  0  0  0  0  0  0  0  0  0  0  0
   -3.5620   23.6100  -30.5300 C   0  0  0  0  0  0  0  0  0  0  0  0
   -3.0800   22.6690  -31.4600 C   0  0  0  0  0  0  0  0  0  0  0  0
   -3.5502   22.5965  -32.4518 H   0  0  0  0  0  0  0  0  0  0  0  0
   -2.0060   21.8210  -31.1380 C   0  0  0  0  0  0  0  0  0  0  0  0
   -1.4910   20.8820  -32.0470 O   0  0  0  0  0  0  0  0  0  0  0  0
   -2.2360   20.2950  -33.1090 C   0  0  0  0  0  0  0  0  0  0  0  0
   -3.0354   19.6651  -32.6917 H   0  0  0  0  0  0  0  0  0  0  0  0
   -2.6799   21.0887  -33.7279 H   0  0  0  0  0  0  0  0  0  0  0  0
   -1.5682   19.6777  -33.7279 H   0  0  0  0  0  0  0  0  0  0  0  0
   -1.4230   21.9010  -29.8710 C   0  0  0  0  0  0  0  0  0  0  0  0
   -0.5799   21.2421  -29.6159 H   0  0  0  0  0  0  0  0  0  0  0  0
   -1.9030   22.8130  -28.9230 C   0  0  0  0  0  0  0  0  0  0  0  0
   -1.3250   22.8890  -27.6490 C   0  0  0  0  0  0  0  0  0  0  0  0
   -0.4868   22.2277  -27.3843 H   0  0  0  0  0  0  0  0  0  0  0  0
   -1.8130   23.8030  -26.7180 C   0  0  0  0  0  0  0  0  0  0  0  0
   -1.3608   23.8708  -25.7175 H   0  0  0  0  0  0  0  0  0  0  0  0
   -2.8820   24.6330  -27.0660 C   0  0  0  0  0  0  0  0  0  0  0  0
   -3.2744   25.3539  -26.3336 H   0  0  0  0  0  0  0  0  0  0  0  0
   -3.4410   24.5560  -28.3040 N   0  0  0  0  0  0  0  0  0  0  0  0
   -4.2350   25.2030  -28.5180 H   0  0  0  0  0  0  0  0  0  0  0  0
   -2.9830   23.6710  -29.2440 C   0  0  0  0  0  0  0  0  0  0  0  0
   -8.7730   22.3770  -31.1740 C   0  0  0  0  0  0  0  0  0  0  0  0
   -9.7215   22.9341  -31.1809 H   0  0  0  0  0  0  0  0  0  0  0  0
   -8.6189   21.8238  -30.2358 H   0  0  0  0  0  0  0  0  0  0  0  0
   -8.8110   21.3380  -32.3090 C   0  0  0  0  0  0  0  0  0  0  0  0
   -9.1170   21.8374  -33.2401 H   0  0  0  0  0  0  0  0  0  0  0  0
   -9.5279   20.5512  -32.0315 H   0  0  0  0  0  0  0  0  0  0  0  0
   -6.3920   17.3310  -33.1990 C   0  0  0  0  0  0  0  0  0  0  0  0
   -5.4870   16.3100  -32.8690 C   0  0  0  0  0  0  0  0  0  0  0  0
   -5.7296   15.6018  -32.0630 H   0  0  0  0  0  0  0  0  0  0  0  0
   -4.2770   16.1900  -33.5620 C   0  0  0  0  0  0  0  0  0  0  0  0
   -3.5658   15.3958  -33.2908 H   0  0  0  0  0  0  0  0  0  0  0  0
   -3.9700   17.0770  -34.5980 C   0  0  0  0  0  0  0  0  0  0  0  0
   -3.0143   16.9863  -35.1350 H   0  0  0  0  0  0  0  0  0  0  0  0
   -4.8780   18.0790  -34.9510 C   0  0  0  0  0  0  0  0  0  0  0  0
   -4.6395   18.7735  -35.7701 H   0  0  0  0  0  0  0  0  0  0  0  0
   -6.0900   18.1990  -34.2630 C   0  0  0  0  0  0  0  0  0  0  0  0
   -6.8107   18.9767  -34.5560 H   0  0  0  0  0  0  0  0  0  0  0  0
  1  2  1  0
  2  3  2  0
  3  4  1  0
  3  5  1  0
  5  6  1  0
  5  7  1  0
  5  8  1  0
  8  9  1  0
  9 10  1  0
  9 11  1  0
  9 12  1  0
 12 13  1  0
 12 14  1  0
 12 15  1  0
 15 16  1  0
 16 17  1  0
 16 18  1  0
 16 19  1  0
 19 20  2  0
 19 21  1  0
 21 22  1  0
 22 23  2  0
 23 24  1  0
 23 25  1  0
 25 26  1  0
 26 27  1  0
 27 28  1  0
 27 29  1  0
 27 30  1  0
 25 31  2  0
 31 32  1  0
 31 33  1  0
 33 34  2  0
 34 35  1  0
 34 36  1  0
 36 37  1  0
 36 38  2  0
 38 39  1  0
 38 40  1  0
 40 41  1  0
 40 42  2  0
 15 43  1  0
 43 44  1  0
 43 45  1  0
 43 46  1  0
 46 47  1  0
 46 48  1  0
  2 49  1  0
 49 50  2  0
 50 51  1  0
 50 52  1  0
 52 53  1  0
 52 54  2  0
 54 55  1  0
 54 56  1  0
 56 57  1  0
 56 58  2  0
 58 59  1  0
 46  8  1  0
 58 49  1  0
 42 22  1  0
 42 33  1  0
M  CHG  2  21  -1  40   1
M  END
>  <UniqueID>  (5) 
4

>  <SMILES>  (5) 
COc1cc([N-]C(=O)CN2CCN(C/C=C\c3ccccc3)CC2)c2[nH+]cccc2c1

>  <Energy>  (5) 
87.66282048198136

>  <Genealogy>  (5) 
COc1cc([N-]C(=O)CN2CCN(CC=Cc3ccccc3)CC2)c2[nH+]cccc2c1 (protonated)
COc1cc([N-]C(=O)CN2CCN(C/C=C\c3ccccc3)CC2)c2[nH+]cccc2c1 (cis-trans isomerization)
COc1cc([N-]C(=O)CN2CCN(C/C=C\c3ccccc3)CC2)c2[nH+]cccc2c1 (3D coordinates assigned)
COc1cc([N-]C(=O)CN2CCN(C/C=C\c3ccccc3)CC2)c2[nH+]cccc2c1 (nonaromatic ring conformer: 87.66282048198136 kcal/mol)

>  <smiles>  (5) 
COc1cc(NC(=O)CN2CCN(CC=Cc3ccccc3)CC2)c2ncccc2c1

>  <score_type>  (5) 
oracle

>  <origin>  (5) 
adg

>  <m_score__min__energy>  (5) 
-9.9700000000000006

>  <m_primary>  (5) 
energy

$$$$
5:0
     RDKit          3D

 37 39  0  0  0  0  0  0  0  0999 V2000
   -4.9877   18.1287  -34.6889 H   0  0  0  0  0  0  0  0  0  0  0  0
   -5.2100   18.9390  -33.9790 C   0  0  0  0  0  0  0  0  0  0  0  0
   -6.5320   19.3380  -33.7700 C   0  0  0  0  0  0  0  0  0  0  0  0
   -7.3460   18.8392  -34.3165 H   0  0  0  0  0  0  0  0  0  0  0  0
   -6.8280   20.3670  -32.8710 C   0  0  0  0  0  0  0  0  0  0  0  0
   -8.1710   20.7320  -32.6990 O   0  0  0  0  0  0  0  0  0  0  0  0
   -9.1440   19.9330  -32.0350 C   0  0  0  0  0  0  0  0  0  0  0  0
   -9.0208   20.0342  -30.9466 H   0  0  0  0  0  0  0  0  0  0  0  0
  -10.1516   20.2678  -32.3226 H   0  0  0  0  0  0  0  0  0  0  0  0
   -9.0116   18.8796  -32.3226 H   0  0  0  0  0  0  0  0  0  0  0  0
   -5.7770   21.0000  -32.1760 C   0  0  0  0  0  0  0  0  0  0  0  0
   -6.0023   21.8115  -31.4684 H   0  0  0  0  0  0  0  0  0  0  0  0
   -4.4400   20.6020  -32.3800 C   0  0  0  0  0  0  0  0  0  0  0  0
   -3.3250   21.2570  -31.6550 C   0  0  0  0  0  0  0  0  0  0  0  0
   -2.2250   21.7640  -32.2500 N   0  0  0  0  0  0  0  0  0  0  0  0
   -1.4640   22.2740  -31.2920 N   0  0  0  0  0  0  0  0  0  0  0  0
   -2.0360   22.1000  -30.1130 N   0  0  0  0  0  0  0  0  0  0  0  0
   -1.5030   22.6080  -28.8540 C   0  0  0  0  0  0  0  0  0  0  0  0
   -2.1807   22.3326  -28.0325 H   0  0  0  0  0  0  0  0  0  0  0  0
   -0.5096   22.1703  -28.6763 H   0  0  0  0  0  0  0  0  0  0  0  0
   -1.3830   24.0960  -28.9210 C   0  0  0  0  0  0  0  0  0  0  0  0
   -0.2380   24.6200  -28.9370 O   0  0  0  0  0  0  0  0  0  0  0  0
   -2.5770   24.8950  -28.9170 N   0  0  0  0  0  0  0  0  0  0  0  0
   -3.6800   24.7020  -29.5810 C   0  0  0  0  0  0  0  0  0  0  0  0
   -3.8560   25.1710  -30.8310 N   0  0  0  0  0  0  0  0  0  0  0  0
   -5.0470   24.8040  -31.2050 O   0  0  0  0  0  0  0  0  0  0  0  0
   -5.6520   24.1260  -30.2580 C   0  0  0  0  0  0  0  0  0  0  0  0
   -7.0170   23.5370  -30.3800 C   0  0  0  0  0  0  0  0  0  0  0  0
   -7.4304   23.3586  -29.3764 H   0  0  0  0  0  0  0  0  0  0  0  0
   -7.6694   24.2337  -30.9268 H   0  0  0  0  0  0  0  0  0  0  0  0
   -6.9578   22.5844  -30.9268 H   0  0  0  0  0  0  0  0  0  0  0  0
   -4.8120   24.0150  -29.1700 C   0  0  0  0  0  0  0  0  0  0  0  0
   -4.9950   23.5066  -28.2119 H   0  0  0  0  0  0  0  0  0  0  0  0
   -3.2120   21.4760  -30.2940 C   0  0  0  0  0  0  0  0  0  0  0  0
   -3.9383   21.1959  -29.5168 H   0  0  0  0  0  0  0  0  0  0  0  0
   -4.1700   19.5650  -33.2900 C   0  0  0  0  0  0  0  0  0  0  0  0
   -3.1316   19.2446  -33.4603 H   0  0  0  0  0  0  0  0  0  0  0  0
  1  2  1  0
  2  3  2  0
  3  4  1  0
  3  5  1  0
  5  6  1  0
  6  7  1  0
  7  8  1  0
  7  9  1  0
  7 10  1  0
  5 11  2  0
 11 12  1  0
 11 13  1  0
 13 14  1  0
 14 15  1  0
 15 16  2  0
 16 17  1  0
 17 18  1  0
 18 19  1  0
 18 20  1  0
 18 21  1  0
 21 22  2  0
 21 23  1  0
 23 24  2  0
 24 25  1  0
 25 26  1  0
 26 27  1  0
 27 28  1  0
 28 29  1  0
 28 30  1  0
 28 31  1  0
 27 32  2  0
 32 33  1  0
 17 34  1  0
 34 35  1  0
 13 36  2  0
 36 37  1  0
 36  2  1  0
 34 14  2  0
 32 24  1  0
M  CHG  1  25  -1
M  END
>  <UniqueID>  (6) 
5

>  <SMILES>  (6) 
COc1cccc(-c2cn(CC(=O)/N=c3\cc(C)o[n-]3)nn2)c1

>  <Energy>  (6) 
106.2807747786059

>  <Genealogy>  (6) 
COc1cccc(-c2cn(CC(=O)N=c3cc(C)o[n-]3)nn2)c1 (protonated)
COc1cccc(-c2cn(CC(=O)/N=c3\cc(C)o[n-]3)nn2)c1 (cis-trans isomerization)
COc1cccc(-c2cn(CC(=O)/N=c3\cc(C)o[n-]3)nn2)c1 (3D coordinates assigned)
COc1cccc(-c2cn(CC(=O)/N=c3\cc(C)o[n-]3)nn2)c1 (optimized conformer: 106.2807747786059 kcal/mol)

>  <smiles>  (6) 
COc1cccc(-c2cn(CC(=O)N=c3cc(C)o[nH]3)nn2)c1

>  <score_type>  (6) 
oracle

>  <origin>  (6) 
adg

>  <m_score__min__energy>  (6) 
-9.9100000000000001

>  <m_primary>  (6) 
energy

$$$$
6:0
     RDKit          3D

 52 56  0  0  0  0  0  0  0  0999 V2000
   -1.1590   26.2570  -24.9270 C   0  0  0  0  0  0  0  0  0  0  0  0
   -0.5140   25.7920  -26.1090 O   0  0  0  0  0  0  0  0  0  0  0  0
   -1.1560   25.0870  -27.1400 C   0  0  0  0  0  0  0  0  0  0  0  0
   -2.5380   24.8240  -27.1180 C   0  0  0  0  0  0  0  0  0  0  0  0
   -3.1500   24.1270  -28.1680 C   0  0  0  0  0  0  0  0  0  0  0  0
   -2.3740   23.6600  -29.2450 C   0  0  0  0  0  0  0  0  0  0  0  0
   -0.9930   23.9200  -29.2650 C   0  0  0  0  0  0  0  0  0  0  0  0
   -0.3810   24.6340  -28.2170 C   0  0  0  0  0  0  0  0  0  0  0  0
    0.9940   24.9140  -28.2100 O   0  0  0  0  0  0  0  0  0  0  0  0
    1.9320   24.3380  -27.3050 C   0  0  0  0  0  0  0  0  0  0  0  0
   -3.0280   22.9100  -30.3460 C   0  0  0  0  0  0  0  0  0  0  0  0
   -2.2710   22.2560  -31.2680 N   0  0  0  0  0  0  0  0  0  0  0  0
   -2.8080   21.5610  -32.3050 C   0  0  0  0  0  0  0  0  0  0  0  0
   -1.9020   20.8770  -33.2630 C   0  0  0  0  0  0  0  0  0  0  0  0
   -0.7850   21.5260  -33.8220 C   0  0  0  0  0  0  0  0  0  0  0  0
    0.0500   20.8480  -34.7110 C   0  0  0  0  0  0  0  0  0  0  0  0
   -0.2290   19.5200  -35.0350 C   0  0  0  0  0  0  0  0  0  0  0  0
   -1.3020   18.8970  -34.4820 N   0  0  0  0  0  0  0  0  0  0  0  0
   -2.1310   19.5340  -33.6120 C   0  0  0  0  0  0  0  0  0  0  0  0
   -4.2030   21.4980  -32.4320 C   0  0  0  0  0  0  0  0  0  0  0  0
   -5.0240   22.1550  -31.5050 C   0  0  0  0  0  0  0  0  0  0  0  0
   -6.4870   22.0690  -31.6800 C   0  0  0  0  0  0  0  0  0  0  0  0
   -7.1290   20.8220  -31.6410 C   0  0  0  0  0  0  0  0  0  0  0  0
   -8.5170   20.7410  -31.7860 C   0  0  0  0  0  0  0  0  0  0  0  0
   -9.2720   21.9050  -31.9610 C   0  0  0  0  0  0  0  0  0  0  0  0
   -8.6390   23.1510  -31.9890 C   0  0  0  0  0  0  0  0  0  0  0  0
   -7.2510   23.2350  -31.8440 C   0  0  0  0  0  0  0  0  0  0  0  0
   -4.4350   22.8710  -30.4380 C   0  0  0  0  0  0  0  0  0  0  0  0
   -5.2520   23.7250  -29.4880 C   0  0  0  0  0  0  0  0  0  0  0  0
   -4.6160   23.7810  -28.0930 C   0  0  0  0  0  0  0  0  0  0  0  0
   -0.6270   25.8735  -24.0439 H   0  0  0  0  0  0  0  0  0  0  0  0
   -1.1488   27.3569  -24.9122 H   0  0  0  0  0  0  0  0  0  0  0  0
   -2.1993   25.8997  -24.9122 H   0  0  0  0  0  0  0  0  0  0  0  0
   -3.1443   25.1692  -26.2676 H   0  0  0  0  0  0  0  0  0  0  0  0
   -0.3839   23.5620  -30.1081 H   0  0  0  0  0  0  0  0  0  0  0  0
    1.6121   24.5344  -26.2710 H   0  0  0  0  0  0  0  0  0  0  0  0
    1.9840   23.2521  -27.4727 H   0  0  0  0  0  0  0  0  0  0  0  0
    2.9240   24.7828  -27.4727 H   0  0  0  0  0  0  0  0  0  0  0  0
   -0.5695   22.5716  -33.5570 H   0  0  0  0  0  0  0  0  0  0  0  0
    0.9202   21.3559  -35.1523 H   0  0  0  0  0  0  0  0  0  0  0  0
    0.4199   18.9774  -35.7382 H   0  0  0  0  0  0  0  0  0  0  0  0
   -2.9863   18.9951  -33.1784 H   0  0  0  0  0  0  0  0  0  0  0  0
   -4.6539   20.9320  -33.2605 H   0  0  0  0  0  0  0  0  0  0  0  0
   -6.5384   19.9054  -31.4959 H   0  0  0  0  0  0  0  0  0  0  0  0
   -9.0157   19.7608  -31.7624 H   0  0  0  0  0  0  0  0  0  0  0  0
  -10.3640   21.8401  -32.0766 H   0  0  0  0  0  0  0  0  0  0  0  0
   -9.2336   24.0664  -32.1253 H   0  0  0  0  0  0  0  0  0  0  0  0
   -6.7564   24.2174  -31.8585 H   0  0  0  0  0  0  0  0  0  0  0  0
   -5.3177   24.7460  -29.8920 H   0  0  0  0  0  0  0  0  0  0  0  0
   -6.2517   23.2759  -29.3935 H   0  0  0  0  0  0  0  0  0  0  0  0
   -5.1336   24.5452  -27.4945 H   0  0  0  0  0  0  0  0  0  0  0  0
   -4.7133   22.7884  -27.6290 H   0  0  0  0  0  0  0  0  0  0  0  0
  1  2  1  0
  2  3  1  0
  3  4  2  0
  4  5  1  0
  5  6  2  0
  6  7  1  0
  7  8  2  0
  8  9  1  0
  9 10  1  0
  6 11  1  0
 11 12  2  0
 12 13  1  0
 13 14  1  0
 14 15  2  0
 15 16  1  0
 16 17  2  0
 17 18  1  0
 18 19  2  0
 13 20  2  0
 20 21  1  0
 21 22  1  0
 22 23  2  0
 23 24  1  0
 24 25  2  0
 25 26  1  0
 26 27  2  0
 21 28  2  0
 28 29  1  0
 29 30  1  0
  8  3  1  0
 28 11  1  0
 30  5  1  0
 19 14  1  0
 27 22  1  0
  1 31  1  0
  1 32  1  0
  1 33  1  0
  4 34  1  0
  7 35  1  0
 10 36  1  0
 10 37  1  0
 10 38  1  0
 15 39  1  0
 16 40  1  0
 17 41  1  0
 19 42  1  0
 20 43  1  0
 23 44  1  0
 24 45  1  0
 25 46  1  0
 26 47  1  0
 27 48  1  0
 29 49  1  0
 29 50  1  0
 30 51  1  0
 30 52  1  0
M  END
>  <UniqueID>  (7) 
6

>  <SMILES>  (7) 
COc1cc2c(cc1OC)-c1nc(-c3cccnc3)cc(-c3ccccc3)c1CC2

>  <Energy>  (7) 
74.28624421415108

>  <Genealogy>  (7) 
COc1cc2c(cc1OC)-c1nc(-c3cccnc3)cc(-c3ccccc3)c1CC2 (3D coordinates assigned)
COc1cc2c(cc1OC)-c1nc(-c3cccnc3)cc(-c3ccccc3)c1CC2 (nonaromatic ring conformer: 74.28624421415108 kcal/mol)

>  <smiles>  (7) 
COc1cc2c(cc1OC)-c1nc(-c3cccnc3)cc(-c3ccccc3)c1CC2

>  <score_type>  (7) 
oracle

>  <origin>  (7) 
adg

>  <m_score__min__energy>  (7) 
-9.0999999999999996

>  <m_primary>  (7) 
energy

$$$$
7:0
     RDKit          3D

 32 34  0  0  0  0  0  0  0  0999 V2000
   -3.8380   17.0540  -35.3270 C   0  0  0  0  0  0  0  0  0  0  0  0
   -4.7430   18.1050  -35.0060 O   0  0  0  0  0  0  0  0  0  0  0  0
   -5.5480   18.1320  -33.8570 C   0  0  0  0  0  0  0  0  0  0  0  0
   -5.3440   17.1530  -32.8780 C   0  0  0  0  0  0  0  0  0  0  0  0
   -6.1200   17.1410  -31.7160 C   0  0  0  0  0  0  0  0  0  0  0  0
   -7.1010   18.1150  -31.5180 C   0  0  0  0  0  0  0  0  0  0  0  0
   -7.3090   19.1160  -32.4780 C   0  0  0  0  0  0  0  0  0  0  0  0
   -8.3260   20.1100  -32.2650 N   0  0  0  0  0  0  0  0  0  0  0  0
   -9.6030   19.9260  -32.5530 N   0  0  0  0  0  0  0  0  0  0  0  0
  -10.2450   21.0630  -32.3350 N   0  0  0  0  0  0  0  0  0  0  0  0
   -9.4150   22.0020  -31.9070 N   0  0  0  0  0  0  0  0  0  0  0  0
   -8.2110   21.3960  -31.8600 C   0  0  0  0  0  0  0  0  0  0  0  0
   -6.9900   22.0580  -31.3520 C   0  0  0  0  0  0  0  0  0  0  0  0
   -7.0320   22.7570  -30.1350 C   0  0  0  0  0  0  0  0  0  0  0  0
   -5.8840   23.3870  -29.6460 C   0  0  0  0  0  0  0  0  0  0  0  0
   -4.6830   23.3130  -30.3590 C   0  0  0  0  0  0  0  0  0  0  0  0
   -3.1180   24.1790  -29.6900 Br  0  0  0  0  0  0  0  0  0  0  0  0
   -4.6280   22.5970  -31.5580 C   0  0  0  0  0  0  0  0  0  0  0  0
   -5.7740   21.9640  -32.0490 C   0  0  0  0  0  0  0  0  0  0  0  0
   -6.5470   19.1040  -33.6590 C   0  0  0  0  0  0  0  0  0  0  0  0
   -3.4523   16.6061  -34.3993 H   0  0  0  0  0  0  0  0  0  0  0  0
   -4.3618   16.2859  -35.9149 H   0  0  0  0  0  0  0  0  0  0  0  0
   -3.0006   17.4580  -35.9149 H   0  0  0  0  0  0  0  0  0  0  0  0
   -4.5675   16.3877  -33.0242 H   0  0  0  0  0  0  0  0  0  0  0  0
   -5.9578   16.3628  -30.9557 H   0  0  0  0  0  0  0  0  0  0  0  0
   -7.7136   18.0970  -30.6045 H   0  0  0  0  0  0  0  0  0  0  0  0
  -11.2680   21.2010  -32.4840 H   0  0  0  0  0  0  0  0  0  0  0  0
   -7.9711   22.8090  -29.5647 H   0  0  0  0  0  0  0  0  0  0  0  0
   -5.9253   23.9427  -28.6976 H   0  0  0  0  0  0  0  0  0  0  0  0
   -3.6823   22.5314  -32.1159 H   0  0  0  0  0  0  0  0  0  0  0  0
   -5.7231   21.3896  -32.9857 H   0  0  0  0  0  0  0  0  0  0  0  0
   -6.7328   19.8607  -34.4354 H   0  0  0  0  0  0  0  0  0  0  0  0
  1  2  1  0
  2  3  1  0
  3  4  2  0
  4  5  1  0
  5  6  2  0
  6  7  1  0
  7  8  1  0
  8  9  1  0
  9 10  2  0
 10 11  1  0
 11 12  2  0
 12 13  1  0
 13 14  2  0
 14 15  1  0
 15 16  2  0
 16 17  1  0
 16 18  1  0
 18 19  2  0
  7 20  2  0
 20  3  1  0
 12  8  1  0
 19 13  1  0
  1 21  1  0
  1 22  1  0
  1 23  1  0
  4 24  1  0
  5 25  1  0
  6 26  1  0
 10 27  1  0
 14 28  1  0
 15 29  1  0
 18 30  1  0
 19 31  1  0
 20 32  1  0
M  CHG  1  10   1
M  END
>  <UniqueID>  (8) 
7

>  <SMILES>  (8) 
COc1cccc(-n2n[nH+]nc2-c2ccc(Br)cc2)c1

>  <Energy>  (8) 
81.78457874867595

>  <Genealogy>  (8) 
COc1cccc(-n2n[nH+]nc2-c2ccc(Br)cc2)c1 (protonated)
COc1cccc(-n2n[nH+]nc2-c2ccc(Br)cc2)c1 (3D coordinates assigned)
COc1cccc(-n2n[nH+]nc2-c2ccc(Br)cc2)c1 (optimized conformer: 81.78457874867595 kcal/mol)

>  <smiles>  (8) 
COc1cccc(-n2nnnc2-c2ccc(Br)cc2)c1

>  <score_type>  (8) 
oracle

>  <origin>  (8) 
adg

>  <m_score__min__energy>  (8) 
-8.1699999999999999

>  <m_primary>  (8) 
energy

$$$$
8:0
     RDKit          3D

 43 47  0  0  0  0  0  0  0  0999 V2000
   -0.0551   27.2912  -27.8278 H   0  0  0  0  0  0  0  0  0  0  0  0
   -0.4520   26.2700  -27.9260 C   0  0  0  0  0  0  0  0  0  0  0  0
   -1.6000   26.0520  -28.6150 N   0  0  0  0  0  0  0  0  0  0  0  0
   -2.1550   24.8170  -28.7670 C   0  0  0  0  0  0  0  0  0  0  0  0
   -3.2270   24.7410  -29.5080 N   0  0  0  0  0  0  0  0  0  0  0  0
   -4.6190   24.5130  -29.1370 C   0  0  0  0  0  0  0  0  0  0  0  0
   -4.6665   23.7892  -28.3101 H   0  0  0  0  0  0  0  0  0  0  0  0
   -5.0776   25.4596  -28.8150 H   0  0  0  0  0  0  0  0  0  0  0  0
   -5.3550   23.9720  -30.3190 C   0  0  0  0  0  0  0  0  0  0  0  0
   -5.4500   22.6350  -30.5520 N   0  0  0  0  0  0  0  0  0  0  0  0
   -6.1960   22.3540  -31.6450 C   0  0  0  0  0  0  0  0  0  0  0  0
   -6.4570   20.9790  -32.1260 C   0  0  0  0  0  0  0  0  0  0  0  0
   -7.5700   20.2360  -31.6450 C   0  0  0  0  0  0  0  0  0  0  0  0
   -8.2472   20.6869  -30.9047 H   0  0  0  0  0  0  0  0  0  0  0  0
   -7.8130   18.9300  -32.1070 C   0  0  0  0  0  0  0  0  0  0  0  0
   -8.6720   18.3492  -31.7398 H   0  0  0  0  0  0  0  0  0  0  0  0
   -6.9340   18.3960  -33.0420 C   0  0  0  0  0  0  0  0  0  0  0  0
   -5.8700   19.0960  -33.5080 C   0  0  0  0  0  0  0  0  0  0  0  0
   -5.5920   20.3900  -33.0790 C   0  0  0  0  0  0  0  0  0  0  0  0
   -4.7235   20.9404  -33.4699 H   0  0  0  0  0  0  0  0  0  0  0  0
   -5.1760   18.3250  -34.4200 O   0  0  0  0  0  0  0  0  0  0  0  0
   -5.8470   17.0610  -34.5340 C   0  0  0  0  0  0  0  0  0  0  0  0
   -6.1919   16.8984  -35.5658 H   0  0  0  0  0  0  0  0  0  0  0  0
   -5.1845   16.2186  -34.2861 H   0  0  0  0  0  0  0  0  0  0  0  0
   -6.9630   17.1490  -33.6380 O   0  0  0  0  0  0  0  0  0  0  0  0
   -6.7750   23.7730  -32.3490 S   0  0  0  0  0  0  0  0  0  0  0  0
   -6.0460   24.7800  -31.2190 C   0  0  0  0  0  0  0  0  0  0  0  0
   -6.1039   25.8782  -31.1943 H   0  0  0  0  0  0  0  0  0  0  0  0
   -1.5070   23.7010  -28.1520 C   0  0  0  0  0  0  0  0  0  0  0  0
   -2.0310   22.3260  -28.1450 C   0  0  0  0  0  0  0  0  0  0  0  0
   -2.6440   21.7530  -29.1550 O   0  0  0  0  0  0  0  0  0  0  0  0
   -3.0240   20.5470  -28.8470 N   0  0  0  0  0  0  0  0  0  0  0  0
   -2.6550   20.3390  -27.5680 C   0  0  0  0  0  0  0  0  0  0  0  0
   -2.8450   19.0490  -26.8440 C   0  0  0  0  0  0  0  0  0  0  0  0
   -2.8184   19.2299  -25.7593 H   0  0  0  0  0  0  0  0  0  0  0  0
   -3.8169   18.6137  -27.1194 H   0  0  0  0  0  0  0  0  0  0  0  0
   -2.0398   18.3519  -27.1194 H   0  0  0  0  0  0  0  0  0  0  0  0
   -2.0090   21.4540  -27.0780 C   0  0  0  0  0  0  0  0  0  0  0  0
   -1.5798   21.6100  -26.0773 H   0  0  0  0  0  0  0  0  0  0  0  0
   -0.3070   23.9200  -27.4590 C   0  0  0  0  0  0  0  0  0  0  0  0
    0.2207   23.0699  -27.0018 H   0  0  0  0  0  0  0  0  0  0  0  0
    0.2230   25.2030  -27.3440 C   0  0  0  0  0  0  0  0  0  0  0  0
    1.1640   25.3699  -26.7994 H   0  0  0  0  0  0  0  0  0  0  0  0
  1  2  1  0
  2  3  1  0
  3  4  1  0
  4  5  2  0
  5  6  1  0
  6  7  1  0
  6  8  1  0
  6  9  1  0
  9 10  1  0
 10 11  2  0
 11 12  1  0
 12 13  2  0
 13 14  1  0
 13 15  1  0
 15 16  1  0
 15 17  2  0
 17 18  1  0
 18 19  2  0
 19 20  1  0
 18 21  1  0
 21 22  1  0
 22 23  1  0
 22 24  1  0
 22 25  1  0
 11 26  1  0
 26 27  1  0
 27 28  1  0
  4 29  1  0
 29 30  1  0
 30 31  1  0
 31 32  1  0
 32 33  2  0
 33 34  1  0
 34 35  1  0
 34 36  1  0
 34 37  1  0
 33 38  1  0
 38 39  1  0
 29 40  2  0
 40 41  1  0
 40 42  1  0
 42 43  1  0
 42  2  2  0
 27  9  2  0
 38 30  2  0
 19 12  1  0
 25 17  1  0
M  CHG  1   3  -1
M  END
>  <UniqueID>  (9) 
8

>  <SMILES>  (9) 
Cc1cc(-c2ccc[n-]/c2=N/Cc2csc(-c3ccc4c(c3)OCO4)n2)on1

>  <Energy>  (9) 
150.3067644516247

>  <Genealogy>  (9) 
Cc1cc(-c2ccc[n-]c2=NCc2csc(-c3ccc4c(c3)OCO4)n2)on1 (protonated)
Cc1cc(-c2ccc[n-]/c2=N/Cc2csc(-c3ccc4c(c3)OCO4)n2)on1 (cis-trans isomerization)
Cc1cc(-c2ccc[n-]/c2=N/Cc2csc(-c3ccc4c(c3)OCO4)n2)on1 (3D coordinates assigned)
Cc1cc(-c2ccc[n-]/c2=N/Cc2csc(-c3ccc4c(c3)OCO4)n2)on1 (nonaromatic ring conformer: 150.3067644516247 kcal/mol)

>  <smiles>  (9) 
Cc1cc(-c2ccc[nH]c2=NCc2csc(-c3ccc4c(c3)OCO4)n2)on1

>  <score_type>  (9) 
oracle

>  <origin>  (9) 
adg

>  <m_score__min__energy>  (9) 
-10.93

>  <m_primary>  (9) 
energy

$$$$
9:0
     RDKit          3D

 50 51  0  0  0  0  0  0  0  0999 V2000
   -1.9040   23.0560  -29.7330 C   0  0  0  0  0  0  0  0  0  0  0  0
   -2.6440   24.1430  -28.9400 C   0  0  0  0  0  0  0  0  0  0  0  0
   -3.7960   23.6420  -28.1500 N   0  0  0  0  0  0  0  0  0  0  0  0
   -4.1650   24.5110  -27.0070 C   0  0  0  0  0  0  0  0  0  0  0  0
   -2.9350   25.1220  -26.3370 C   0  0  0  0  0  0  0  0  0  0  0  0
   -4.9660   23.3330  -29.0000 C   0  0  0  0  0  0  0  0  0  0  0  0
   -5.3160   24.5390  -29.8760 C   0  0  0  0  0  0  0  0  0  0  0  0
   -4.9620   24.2890  -31.2350 O   0  0  0  0  0  0  0  0  0  0  0  0
   -5.2190   23.0760  -31.8890 C   0  0  0  0  0  0  0  0  0  0  0  0
   -4.2730   22.4280  -32.4170 O   0  0  0  0  0  0  0  0  0  0  0  0
   -6.6040   22.5610  -31.9650 C   0  0  0  0  0  0  0  0  0  0  0  0
   -7.6930   23.4250  -31.7510 C   0  0  0  0  0  0  0  0  0  0  0  0
   -9.0020   22.9440  -31.8270 C   0  0  0  0  0  0  0  0  0  0  0  0
   -9.2420   21.6000  -32.1130 C   0  0  0  0  0  0  0  0  0  0  0  0
   -8.1680   20.7170  -32.3260 C   0  0  0  0  0  0  0  0  0  0  0  0
   -8.4150   19.3340  -32.6610 N   0  0  0  0  0  0  0  0  0  0  0  0
   -7.4940   18.4350  -31.9470 C   0  0  0  0  0  0  0  0  0  0  0  0
   -6.4280   17.8810  -32.8620 C   0  0  0  0  0  0  0  0  0  0  0  0
   -6.0990   18.5370  -34.0580 C   0  0  0  0  0  0  0  0  0  0  0  0
   -5.1420   17.9890  -34.9130 C   0  0  0  0  0  0  0  0  0  0  0  0
   -4.5240   16.7870  -34.5670 C   0  0  0  0  0  0  0  0  0  0  0  0
   -4.8590   16.1570  -33.4100 N   0  0  0  0  0  0  0  0  0  0  0  0
   -5.7880   16.6700  -32.5600 C   0  0  0  0  0  0  0  0  0  0  0  0
   -6.8530   21.2070  -32.2530 C   0  0  0  0  0  0  0  0  0  0  0  0
   -1.4259   22.3537  -29.0342 H   0  0  0  0  0  0  0  0  0  0  0  0
   -2.6204   22.5124  -30.3664 H   0  0  0  0  0  0  0  0  0  0  0  0
   -1.1356   23.5232  -30.3664 H   0  0  0  0  0  0  0  0  0  0  0  0
   -1.9291   24.6121  -28.2480 H   0  0  0  0  0  0  0  0  0  0  0  0
   -3.0505   24.8507  -29.6775 H   0  0  0  0  0  0  0  0  0  0  0  0
   -4.8118   25.3227  -27.3714 H   0  0  0  0  0  0  0  0  0  0  0  0
   -4.6874   23.8924  -26.2625 H   0  0  0  0  0  0  0  0  0  0  0  0
   -3.0471   25.0663  -25.2441 H   0  0  0  0  0  0  0  0  0  0  0  0
   -2.0367   24.5654  -26.6423 H   0  0  0  0  0  0  0  0  0  0  0  0
   -2.8358   26.1741  -26.6423 H   0  0  0  0  0  0  0  0  0  0  0  0
   -4.7306   22.4725  -29.6435 H   0  0  0  0  0  0  0  0  0  0  0  0
   -5.8254   23.0958  -28.3556 H   0  0  0  0  0  0  0  0  0  0  0  0
   -6.3974   24.7305  -29.8130 H   0  0  0  0  0  0  0  0  0  0  0  0
   -4.7543   25.4141  -29.5173 H   0  0  0  0  0  0  0  0  0  0  0  0
   -7.5127   24.4858  -31.5224 H   0  0  0  0  0  0  0  0  0  0  0  0
   -9.8473   23.6279  -31.6606 H   0  0  0  0  0  0  0  0  0  0  0  0
  -10.2758   21.2290  -32.1722 H   0  0  0  0  0  0  0  0  0  0  0  0
   -9.3980   19.0890  -32.3930 H   0  0  0  0  0  0  0  0  0  0  0  0
   -8.3320   19.1840  -33.6940 H   0  0  0  0  0  0  0  0  0  0  0  0
   -7.0091   18.9949  -31.1337 H   0  0  0  0  0  0  0  0  0  0  0  0
   -8.0782   17.5905  -31.5526 H   0  0  0  0  0  0  0  0  0  0  0  0
   -6.5952   19.4827  -34.3214 H   0  0  0  0  0  0  0  0  0  0  0  0
   -4.8774   18.4997  -35.8506 H   0  0  0  0  0  0  0  0  0  0  0  0
   -3.7647   16.3486  -35.2313 H   0  0  0  0  0  0  0  0  0  0  0  0
   -6.0384   16.1337  -31.6328 H   0  0  0  0  0  0  0  0  0  0  0  0
   -6.0082   20.5234  -32.4231 H   0  0  0  0  0  0  0  0  0  0  0  0
  1  2  1  0
  2  3  1  0
  3  4  1  0
  4  5  1  0
  3  6  1  0
  6  7  1  0
  7  8  1  0
  8  9  1  0
  9 10  2  0
  9 11  1  0
 11 12  2  0
 12 13  1  0
 13 14  2  0
 14 15  1  0
 15 16  1  0
 16 17  1  0
 17 18  1  0
 18 19  2  0
 19 20  1  0
 20 21  2  0
 21 22  1  0
 22 23  2  0
 15 24  2  0
 24 11  1  0
 23 18  1  0
  1 25  1  0
  1 26  1  0
  1 27  1  0
  2 28  1  0
  2 29  1  0
  4 30  1  0
  4 31  1  0
  5 32  1  0
  5 33  1  0
  5 34  1  0
  6 35  1  0
  6 36  1  0
  7 37  1  0
  7 38  1  0
 12 39  1  0
 13 40  1  0
 14 41  1  0
 16 42  1  0
 16 43  1  0
 17 44  1  0
 17 45  1  0
 19 46  1  0
 20 47  1  0
 21 48  1  0
 23 49  1  0
 24 50  1  0
M  CHG  1  16   1
M  END
>  <UniqueID>  (10) 
9

>  <SMILES>  (10) 
CCN(CC)CCOC(=O)c1cccc([NH2+]Cc2cccnc2)c1

>  <Energy>  (10) 
49.70705205793786

>  <Genealogy>  (10) 
CCN(CC)CCOC(=O)c1cccc([NH2+]Cc2cccnc2)c1 (protonated)
CCN(CC)CCOC(=O)c1cccc([NH2+]Cc2cccnc2)c1 (3D coordinates assigned)
CCN(CC)CCOC(=O)c1cccc([NH2+]Cc2cccnc2)c1 (optimized conformer: 49.70705205793786 kcal/mol)

>  <smiles>  (10) 
CCN(CC)CCOC(=O)c1cccc(NCc2cccnc2)c1

>  <score_type>  (10) 
oracle

>  <origin>  (10) 
adg

>  <m_score__min__energy>  (10) 
-7.1900000000000004

>  <m_primary>  (10) 
energy

$$$$
10:0
     RDKit          3D

 32 33  0  0  0  0  0  0  0  0999 V2000
   -5.3800   17.5900  -34.9980 C   0  0  0  0  0  0  0  0  0  0  0  0
   -5.5650   16.6740  -33.7940 C   0  0  0  0  0  0  0  0  0  0  0  0
   -7.0140   16.6950  -33.3000 C   0  0  0  0  0  0  0  0  0  0  0  0
   -7.3780   18.0570  -32.8010 C   0  0  0  0  0  0  0  0  0  0  0  0
   -6.5080   19.0690  -32.4620 C   0  0  0  0  0  0  0  0  0  0  0  0
   -7.2730   20.1340  -32.1440 N   0  0  0  0  0  0  0  0  0  0  0  0
   -6.8420   21.4450  -31.7240 C   0  0  0  0  0  0  0  0  0  0  0  0
   -7.6430   22.2020  -30.8490 C   0  0  0  0  0  0  0  0  0  0  0  0
   -7.2390   23.4730  -30.4330 C   0  0  0  0  0  0  0  0  0  0  0  0
   -6.0220   24.0100  -30.8740 C   0  0  0  0  0  0  0  0  0  0  0  0
   -5.6050   25.3960  -30.4520 C   0  0  0  0  0  0  0  0  0  0  0  0
   -4.2260   25.6720  -30.8490 N   0  0  0  0  0  0  0  0  0  0  0  0
   -5.2240   23.2670  -31.7550 C   0  0  0  0  0  0  0  0  0  0  0  0
   -5.6250   21.9950  -32.1730 C   0  0  0  0  0  0  0  0  0  0  0  0
   -8.5430   19.7830  -32.2960 N   0  0  0  0  0  0  0  0  0  0  0  0
   -8.6370   18.5240  -32.7020 N   0  0  0  0  0  0  0  0  0  0  0  0
   -5.1733   18.6134  -34.6518 H   0  0  0  0  0  0  0  0  0  0  0  0
   -4.5362   17.2310  -35.6056 H   0  0  0  0  0  0  0  0  0  0  0  0
   -6.2970   17.5866  -35.6056 H   0  0  0  0  0  0  0  0  0  0  0  0
   -5.2986   15.6460  -34.0809 H   0  0  0  0  0  0  0  0  0  0  0  0
   -4.9148   17.0308  -32.9816 H   0  0  0  0  0  0  0  0  0  0  0  0
   -7.6832   16.4227  -34.1295 H   0  0  0  0  0  0  0  0  0  0  0  0
   -7.1191   15.9744  -32.4755 H   0  0  0  0  0  0  0  0  0  0  0  0
   -5.4092   19.0192  -32.4524 H   0  0  0  0  0  0  0  0  0  0  0  0
   -8.5968   21.7888  -30.4890 H   0  0  0  0  0  0  0  0  0  0  0  0
   -7.8800   24.0558  -29.7552 H   0  0  0  0  0  0  0  0  0  0  0  0
   -6.2702   26.1320  -30.9271 H   0  0  0  0  0  0  0  0  0  0  0  0
   -5.6744   25.4643  -29.3563 H   0  0  0  0  0  0  0  0  0  0  0  0
   -4.2110   25.9190  -31.8650 H   0  0  0  0  0  0  0  0  0  0  0  0
   -3.8820   26.5040  -30.3150 H   0  0  0  0  0  0  0  0  0  0  0  0
   -4.2755   23.6880  -32.1199 H   0  0  0  0  0  0  0  0  0  0  0  0
   -4.9855   21.4188  -32.8579 H   0  0  0  0  0  0  0  0  0  0  0  0
  1  2  1  0
  2  3  1  0
  3  4  1  0
  4  5  2  0
  5  6  1  0
  6  7  1  0
  7  8  2  0
  8  9  1  0
  9 10  2  0
 10 11  1  0
 11 12  1  0
 10 13  1  0
 13 14  2  0
  6 15  1  0
 15 16  2  0
 16  4  1  0
 14  7  1  0
  1 17  1  0
  1 18  1  0
  1 19  1  0
  2 20  1  0
  2 21  1  0
  3 22  1  0
  3 23  1  0
  5 24  1  0
  8 25  1  0
  9 26  1  0
 11 27  1  0
 11 28  1  0
 12 29  1  0
 12 30  1  0
 13 31  1  0
 14 32  1  0
M  END
>  <UniqueID>  (11) 
10

>  <SMILES>  (11) 
CCCc1cn(-c2ccc(CN)cc2)nn1

>  <Energy>  (11) 
61.67457468036672

>  <Genealogy>  (11) 
CCCc1cn(-c2ccc(CN)cc2)nn1 (3D coordinates assigned)
CCCc1cn(-c2ccc(CN)cc2)nn1 (optimized conformer: 61.67457468036672 kcal/mol)

>  <smiles>  (11) 
CCCc1cn(-c2ccc(CN)cc2)nn1

>  <score_type>  (11) 
oracle

>  <origin>  (11) 
adg

>  <m_score__min__energy>  (11) 
-7.7699999999999996

>  <m_primary>  (11) 
energy

$$$$
11:0
     RDKit          3D

 29 31  0  0  0  0  0  0  0  0999 V2000
   -7.6400   19.8270  -33.0330 C   0  0  0  0  0  0  0  0  0  0  0  0
   -6.5010   20.6140  -32.4710 C   0  0  0  0  0  0  0  0  0  0  0  0
   -5.1530   20.5000  -32.8080 C   0  0  0  0  0  0  0  0  0  0  0  0
   -4.5100   21.6030  -32.2920 C   0  0  0  0  0  0  0  0  0  0  0  0
   -5.3980   22.3460  -31.6100 N   0  0  0  0  0  0  0  0  0  0  0  0
   -6.5860   21.7730  -31.7160 C   0  0  0  0  0  0  0  0  0  0  0  0
   -7.9880   22.7800  -31.2570 S   0  0  0  0  0  0  0  0  0  0  0  0
   -6.8240   24.1750  -30.8780 C   0  0  0  0  0  0  0  0  0  0  0  0
   -5.4370   23.6820  -31.1570 C   0  0  0  0  0  0  0  0  0  0  0  0
   -4.4060   24.3900  -31.0240 O   0  0  0  0  0  0  0  0  0  0  0  0
   -3.0710   21.9230  -32.5620 C   0  0  0  0  0  0  0  0  0  0  0  0
   -2.5540   21.1550  -33.7150 N   0  0  0  0  0  0  0  0  0  0  0  0
   -2.9630   19.7290  -33.7300 C   0  0  1  0  0  0  0  0  0  0  0  0
   -2.3440   18.9620  -32.5510 C   0  0  0  0  0  0  0  0  0  0  0  0
   -4.5040   19.5680  -33.7800 C   0  0  0  0  0  0  0  0  0  0  0  0
   -8.2404   19.4121  -32.2100 H   0  0  0  0  0  0  0  0  0  0  0  0
   -8.2696   20.4837  -33.6514 H   0  0  0  0  0  0  0  0  0  0  0  0
   -7.2485   19.0058  -33.6514 H   0  0  0  0  0  0  0  0  0  0  0  0
   -7.0521   25.0406  -31.5173 H   0  0  0  0  0  0  0  0  0  0  0  0
   -6.9224   24.4921  -29.8293 H   0  0  0  0  0  0  0  0  0  0  0  0
   -2.9778   22.9977  -32.7772 H   0  0  0  0  0  0  0  0  0  0  0  0
   -2.4833   21.6501  -31.6731 H   0  0  0  0  0  0  0  0  0  0  0  0
   -2.9090   21.6030  -34.5930 H   0  0  0  0  0  0  0  0  0  0  0  0
   -2.5707   19.2837  -34.6562 H   0  0  0  0  0  0  0  0  0  0  0  0
   -2.6960   19.3982  -31.6045 H   0  0  0  0  0  0  0  0  0  0  0  0
   -2.6454   17.9053  -32.6023 H   0  0  0  0  0  0  0  0  0  0  0  0
   -1.2475   19.0335  -32.6023 H   0  0  0  0  0  0  0  0  0  0  0  0
   -4.8603   19.7963  -34.7954 H   0  0  0  0  0  0  0  0  0  0  0  0
   -4.7653   18.5332  -33.5137 H   0  0  0  0  0  0  0  0  0  0  0  0
  1  2  1  0
  2  3  1  0
  3  4  2  0
  4  5  1  0
  5  6  1  0
  6  7  1  0
  7  8  1  0
  8  9  1  0
  9 10  2  0
  4 11  1  0
 11 12  1  0
 12 13  1  0
 13 14  1  0
 13 15  1  0
  6  2  2  0
 15  3  1  0
  9  5  1  0
  1 16  1  0
  1 17  1  0
  1 18  1  0
  8 19  1  0
  8 20  1  0
 11 21  1  0
 11 22  1  0
 12 23  1  0
 13 24  1  6
 14 25  1  0
 14 26  1  0
 14 27  1  0
 15 28  1  0
 15 29  1  0
M  END
>  <UniqueID>  (12) 
11

>  <SMILES>  (12) 
Cc1c2c(n3c1SCC3=O)CN[C@@H](C)C2

>  <Energy>  (12) 
79.41746622341361

>  <Genealogy>  (12) 
Cc1c2c(n3c1SCC3=O)CN[C@@H](C)C2 (chirality)
Cc1c2c(n3c1SCC3=O)CN[C@@H](C)C2 (3D coordinates assigned)
Cc1c2c(n3c1SCC3=O)CN[C@@H](C)C2 (nonaromatic ring conformer: 79.41746622341361 kcal/mol)

>  <smiles>  (12) 
Cc1c2c(n3c1SCC3=O)CNC(C)C2

>  <score_type>  (12) 
oracle

>  <origin>  (12) 
adg

>  <m_score__min__energy>  (12) 
-6.9199999999999999

>  <m_primary>  (12) 
energy

$$$$
12:0
     RDKit          3D

 50 53  0  0  0  0  0  0  0  0999 V2000
   -2.2810   24.7910  -28.5840 C   0  0  0  0  0  0  0  0  0  0  0  0
   -3.0790   25.1440  -29.7100 O   0  0  0  0  0  0  0  0  0  0  0  0
   -4.0850   24.3320  -30.2520 C   0  0  0  0  0  0  0  0  0  0  0  0
   -3.8060   23.1210  -30.9130 C   0  0  0  0  0  0  0  0  0  0  0  0
   -4.8440   22.3460  -31.4360 C   0  0  0  0  0  0  0  0  0  0  0  0
   -6.1800   22.7620  -31.3040 C   0  0  0  0  0  0  0  0  0  0  0  0
   -7.2500   21.9740  -31.8600 N   0  0  0  0  0  0  0  0  0  0  0  0
   -8.5670   21.9150  -31.2190 C   0  0  0  0  0  0  0  0  0  0  0  0
   -8.9650   20.4520  -30.9330 C   0  0  0  0  0  0  0  0  0  0  0  0
   -8.3350   19.4640  -31.8490 N   0  0  0  0  0  0  0  0  0  0  0  0
   -7.1640   18.8040  -31.2260 C   0  0  0  0  0  0  0  0  0  0  0  0
   -6.1120   18.4770  -32.2470 C   0  0  0  0  0  0  0  0  0  0  0  0
   -6.2810   17.4880  -33.2120 C   0  0  0  0  0  0  0  0  0  0  0  0
   -4.9120   17.4910  -34.1850 S   0  0  0  0  0  0  0  0  0  0  0  0
   -4.1530   18.7440  -33.3500 C   0  0  0  0  0  0  0  0  0  0  0  0
   -2.8250   19.3150  -33.6850 C   0  0  0  0  0  0  0  0  0  0  0  0
   -1.8050   18.5080  -34.2290 C   0  0  0  0  0  0  0  0  0  0  0  0
   -0.5590   19.0580  -34.5420 C   0  0  0  0  0  0  0  0  0  0  0  0
   -0.3130   20.4140  -34.3210 C   0  0  0  0  0  0  0  0  0  0  0  0
   -1.3160   21.2260  -33.7890 C   0  0  0  0  0  0  0  0  0  0  0  0
   -2.5660   20.6830  -33.4740 C   0  0  0  0  0  0  0  0  0  0  0  0
   -4.9410   19.1670  -32.3320 N   0  0  0  0  0  0  0  0  0  0  0  0
   -8.0420   20.0430  -33.1810 C   0  0  0  0  0  0  0  0  0  0  0  0
   -7.0420   21.2080  -33.0940 C   0  0  0  0  0  0  0  0  0  0  0  0
   -6.4550   23.9760  -30.6550 C   0  0  0  0  0  0  0  0  0  0  0  0
   -5.4150   24.7490  -30.1300 C   0  0  0  0  0  0  0  0  0  0  0  0
   -2.8253   25.0318  -27.6589 H   0  0  0  0  0  0  0  0  0  0  0  0
   -2.0641   23.7130  -28.6118 H   0  0  0  0  0  0  0  0  0  0  0  0
   -1.3374   25.3557  -28.6118 H   0  0  0  0  0  0  0  0  0  0  0  0
   -2.7646   22.7829  -31.0184 H   0  0  0  0  0  0  0  0  0  0  0  0
   -4.6141   21.4036  -31.9547 H   0  0  0  0  0  0  0  0  0  0  0  0
   -8.5335   22.4727  -30.2714 H   0  0  0  0  0  0  0  0  0  0  0  0
   -9.3116   22.3600  -31.8954 H   0  0  0  0  0  0  0  0  0  0  0  0
   -8.6672   20.2075  -29.9027 H   0  0  0  0  0  0  0  0  0  0  0  0
  -10.0518   20.3816  -31.0875 H   0  0  0  0  0  0  0  0  0  0  0  0
   -6.7329   19.4780  -30.4711 H   0  0  0  0  0  0  0  0  0  0  0  0
   -7.5014   17.8648  -30.7634 H   0  0  0  0  0  0  0  0  0  0  0  0
   -7.1525   16.8252  -33.3180 H   0  0  0  0  0  0  0  0  0  0  0  0
   -1.9911   17.4388  -34.4082 H   0  0  0  0  0  0  0  0  0  0  0  0
    0.2311   18.4197  -34.9643 H   0  0  0  0  0  0  0  0  0  0  0  0
    0.6702   20.8423  -34.5658 H   0  0  0  0  0  0  0  0  0  0  0  0
   -1.1230   22.2952  -33.6171 H   0  0  0  0  0  0  0  0  0  0  0  0
   -3.3528   21.3296  -33.0582 H   0  0  0  0  0  0  0  0  0  0  0  0
   -4.7040   19.9570  -31.6910 H   0  0  0  0  0  0  0  0  0  0  0  0
   -7.6179   19.2579  -33.8243 H   0  0  0  0  0  0  0  0  0  0  0  0
   -8.9828   20.4324  -33.5972 H   0  0  0  0  0  0  0  0  0  0  0  0
   -6.0177   20.8070  -33.1026 H   0  0  0  0  0  0  0  0  0  0  0  0
   -7.1964   21.8739  -33.9558 H   0  0  0  0  0  0  0  0  0  0  0  0
   -7.4950   24.3212  -30.5589 H   0  0  0  0  0  0  0  0  0  0  0  0
   -5.6446   25.6941  -29.6161 H   0  0  0  0  0  0  0  0  0  0  0  0
  1  2  1  0
  2  3  1  0
  3  4  2  0
  4  5  1  0
  5  6  2  0
  6  7  1  0
  7  8  1  0
  8  9  1  0
  9 10  1  0
 10 11  1  0
 11 12  1  0
 12 13  2  0
 13 14  1  0
 14 15  1  0
 15 16  1  0
 16 17  2  0
 17 18  1  0
 18 19  2  0
 19 20  1  0
 20 21  2  0
 15 22  2  0
 10 23  1  0
 23 24  1  0
  6 25  1  0
 25 26  2  0
 26  3  1  0
 24  7  1  0
 22 12  1  0
 21 16  1  0
  1 27  1  0
  1 28  1  0
  1 29  1  0
  4 30  1  0
  5 31  1  0
  8 32  1  0
  8 33  1  0
  9 34  1  0
  9 35  1  0
 11 36  1  0
 11 37  1  0
 13 38  1  0
 17 39  1  0
 18 40  1  0
 19 41  1  0
 20 42  1  0
 21 43  1  0
 22 44  1  0
 23 45  1  0
 23 46  1  0
 24 47  1  0
 24 48  1  0
 25 49  1  0
 26 50  1  0
M  CHG  1  22   1
M  END
>  <UniqueID>  (13) 
12

>  <SMILES>  (13) 
COc1ccc(N2CCN(Cc3csc(-c4ccccc4)[nH+]3)CC2)cc1

>  <Energy>  (13) 
95.72250009978477

>  <Genealogy>  (13) 
COc1ccc(N2CCN(Cc3csc(-c4ccccc4)[nH+]3)CC2)cc1 (protonated)
COc1ccc(N2CCN(Cc3csc(-c4ccccc4)[nH+]3)CC2)cc1 (3D coordinates assigned)
COc1ccc(N2CCN(Cc3csc(-c4ccccc4)[nH+]3)CC2)cc1 (nonaromatic ring conformer: 95.72250009978477 kcal/mol)

>  <smiles>  (13) 
COc1ccc(N2CCN(Cc3csc(-c4ccccc4)n3)CC2)cc1

>  <score_type>  (13) 
oracle

>  <origin>  (13) 
adg

>  <m_score__min__energy>  (13) 
-7.9500000000000002

>  <m_primary>  (13) 
energy

$$$$
13:0
     RDKit          3D

 23 25  0  0  0  0  0  0  0  0999 V2000
   -7.9910   18.1260  -32.4220 C   0  0  0  0  0  0  0  0  0  0  0  0
   -9.0870   18.8950  -32.0130 C   0  0  0  0  0  0  0  0  0  0  0  0
   -8.9380   20.2670  -31.7820 C   0  0  0  0  0  0  0  0  0  0  0  0
   -7.6870   20.8700  -31.9580 C   0  0  0  0  0  0  0  0  0  0  0  0
   -7.5220   22.2010  -31.7360 N   0  0  0  0  0  0  0  0  0  0  0  0
   -6.3110   22.7950  -31.9040 C   0  0  0  0  0  0  0  0  0  0  0  0
   -6.1270   24.5480  -31.5950 S   0  0  0  0  0  0  0  0  0  0  0  0
   -4.8380   24.2840  -30.3860 C   0  0  0  0  0  0  0  0  0  0  0  0
   -3.6340   24.8920  -30.4320 N   0  0  0  0  0  0  0  0  0  0  0  0
   -2.8440   24.5180  -29.3900 C   0  0  0  0  0  0  0  0  0  0  0  0
   -3.4190   23.6090  -28.5100 C   0  0  0  0  0  0  0  0  0  0  0  0
   -4.9710   23.2630  -29.0590 S   0  0  0  0  0  0  0  0  0  0  0  0
   -5.2150   22.0270  -32.3140 C   0  0  0  0  0  0  0  0  0  0  0  0
   -5.3740   20.6950  -32.5370 N   0  0  0  0  0  0  0  0  0  0  0  0
   -6.5830   20.0950  -32.3700 C   0  0  0  0  0  0  0  0  0  0  0  0
   -6.7390   18.7240  -32.6000 C   0  0  0  0  0  0  0  0  0  0  0  0
   -8.1147   17.0482  -32.6040 H   0  0  0  0  0  0  0  0  0  0  0  0
  -10.0687   18.4190  -31.8727 H   0  0  0  0  0  0  0  0  0  0  0  0
   -9.8011   20.8698  -31.4631 H   0  0  0  0  0  0  0  0  0  0  0  0
   -1.8241   24.9068  -29.2537 H   0  0  0  0  0  0  0  0  0  0  0  0
   -2.9427   23.1892  -27.6117 H   0  0  0  0  0  0  0  0  0  0  0  0
   -4.2310   22.4980  -32.4550 H   0  0  0  0  0  0  0  0  0  0  0  0
   -5.8790   18.1175  -32.9201 H   0  0  0  0  0  0  0  0  0  0  0  0
  1  2  2  0
  2  3  1  0
  3  4  2  0
  4  5  1  0
  5  6  2  0
  6  7  1  0
  7  8  1  0
  8  9  2  0
  9 10  1  0
 10 11  2  0
 11 12  1  0
  6 13  1  0
 13 14  2  0
 14 15  1  0
 15 16  2  0
 16  1  1  0
 15  4  1  0
 12  8  1  0
  1 17  1  0
  2 18  1  0
  3 19  1  0
 10 20  1  0
 11 21  1  0
 13 22  1  0
 16 23  1  0
M  END
>  <UniqueID>  (14) 
13

>  <SMILES>  (14) 
c1ccc2nc(Sc3nccs3)cnc2c1

>  <Energy>  (14) 
55.26785012434308

>  <Genealogy>  (14) 
c1ccc2nc(Sc3nccs3)cnc2c1 (3D coordinates assigned)
c1ccc2nc(Sc3nccs3)cnc2c1 (optimized conformer: 55.26785012434308 kcal/mol)

>  <smiles>  (14) 
c1ccc2nc(Sc3nccs3)cnc2c1

>  <score_type>  (14) 
oracle

>  <origin>  (14) 
adg

>  <m_score__min__energy>  (14) 
-6.8700000000000001

>  <m_primary>  (14) 
energy

$$$$
14:0
     RDKit          3D

 30 32  0  0  0  0  0  0  0  0999 V2000
   -1.5290   19.3100  -27.4620 C   0  0  0  0  0  0  0  0  0  0  0  0
   -2.2200   20.4120  -28.2090 C   0  0  0  0  0  0  0  0  0  0  0  0
   -3.0960   21.2790  -27.5400 C   0  0  0  0  0  0  0  0  0  0  0  0
   -3.7690   22.2820  -28.2440 C   0  0  0  0  0  0  0  0  0  0  0  0
   -3.5980   22.4140  -29.6300 C   0  0  0  0  0  0  0  0  0  0  0  0
   -4.3060   23.4900  -30.3560 C   0  0  0  0  0  0  0  0  0  0  0  0
   -3.8680   24.7630  -30.4030 N   0  0  0  0  0  0  0  0  0  0  0  0
   -4.7070   25.3910  -31.2150 N   0  0  0  0  0  0  0  0  0  0  0  0
   -5.6300   24.5480  -31.6540 N   0  0  0  0  0  0  0  0  0  0  0  0
   -5.4050   23.3560  -31.1320 N   0  0  0  0  0  0  0  0  0  0  0  0
   -6.2750   22.2270  -31.3130 C   0  0  0  0  0  0  0  0  0  0  0  0
   -5.8100   21.0890  -31.9890 C   0  0  0  0  0  0  0  0  0  0  0  0
   -6.6520   19.9900  -32.1860 C   0  0  0  0  0  0  0  0  0  0  0  0
   -7.9710   20.0260  -31.7200 C   0  0  0  0  0  0  0  0  0  0  0  0
   -9.0270   18.6470  -31.9670 Cl  0  0  0  0  0  0  0  0  0  0  0  0
   -8.4480   21.1650  -31.0640 C   0  0  0  0  0  0  0  0  0  0  0  0
   -7.6080   22.2640  -30.8680 C   0  0  0  0  0  0  0  0  0  0  0  0
   -2.7160   21.5490  -30.2980 C   0  0  0  0  0  0  0  0  0  0  0  0
   -2.0430   20.5450  -29.5940 C   0  0  0  0  0  0  0  0  0  0  0  0
   -1.6345   19.4782  -26.3801 H   0  0  0  0  0  0  0  0  0  0  0  0
   -1.9838   18.3447  -27.7291 H   0  0  0  0  0  0  0  0  0  0  0  0
   -0.4620   19.2990  -27.7291 H   0  0  0  0  0  0  0  0  0  0  0  0
   -3.2542   21.1695  -26.4570 H   0  0  0  0  0  0  0  0  0  0  0  0
   -4.4369   22.9721  -27.7076 H   0  0  0  0  0  0  0  0  0  0  0  0
   -4.7771   21.0610  -32.3663 H   0  0  0  0  0  0  0  0  0  0  0  0
   -6.2773   19.0969  -32.7075 H   0  0  0  0  0  0  0  0  0  0  0  0
   -9.4862   21.1958  -30.7017 H   0  0  0  0  0  0  0  0  0  0  0  0
   -7.9916   23.1628  -30.3629 H   0  0  0  0  0  0  0  0  0  0  0  0
   -2.5536   21.6616  -31.3801 H   0  0  0  0  0  0  0  0  0  0  0  0
   -1.3720   19.8568  -30.1289 H   0  0  0  0  0  0  0  0  0  0  0  0
  1  2  1  0
  2  3  2  0
  3  4  1  0
  4  5  2  0
  5  6  1  0
  6  7  2  0
  7  8  1  0
  8  9  2  0
  9 10  1  0
 10 11  1  0
 11 12  2  0
 12 13  1  0
 13 14  2  0
 14 15  1  0
 14 16  1  0
 16 17  2  0
  5 18  1  0
 18 19  2  0
 19  2  1  0
 10  6  1  0
 17 11  1  0
  1 20  1  0
  1 21  1  0
  1 22  1  0
  3 23  1  0
  4 24  1  0
 12 25  1  0
 13 26  1  0
 16 27  1  0
 17 28  1  0
 18 29  1  0
 19 30  1  0
M  END
>  <UniqueID>  (15) 
14

>  <SMILES>  (15) 
Cc1ccc(-c2nnnn2-c2ccc(Cl)cc2)cc1

>  <Energy>  (15) 
80.3482168888641

>  <Genealogy>  (15) 
Cc1ccc(-c2nnnn2-c2ccc(Cl)cc2)cc1 (3D coordinates assigned)
Cc1ccc(-c2nnnn2-c2ccc(Cl)cc2)cc1 (optimized conformer: 80.3482168888641 kcal/mol)

>  <smiles>  (15) 
Cc1ccc(-c2nnnn2-c2ccc(Cl)cc2)cc1

>  <score_type>  (15) 
oracle

>  <origin>  (15) 
adg

>  <m_score__min__energy>  (15) 
-8.3300000000000001

>  <m_primary>  (15) 
energy

$$$$
15:0
     RDKit          3D

 46 49  0  0  0  0  0  0  0  0999 V2000
   -3.9139   21.4526  -33.6565 H   0  0  0  0  0  0  0  0  0  0  0  0
   -4.6220   21.4300  -32.8150 C   0  0  0  0  0  0  0  0  0  0  0  0
   -5.8890   20.7080  -33.0250 C   0  0  0  0  0  0  0  0  0  0  0  0
   -6.0180   19.4180  -33.5290 C   0  0  0  0  0  0  0  0  0  0  0  0
   -5.1881   18.8124  -33.9221 H   0  0  0  0  0  0  0  0  0  0  0  0
   -7.3060   19.0130  -33.4680 N   0  0  0  0  0  0  0  0  0  0  0  0
   -7.6860   18.0890  -33.7710 H   0  0  0  0  0  0  0  0  0  0  0  0
   -7.9880   20.0240  -32.9010 C   0  0  0  0  0  0  0  0  0  0  0  0
   -9.3450   20.0550  -32.5850 C   0  0  0  0  0  0  0  0  0  0  0  0
  -10.0047   19.2102  -32.8321 H   0  0  0  0  0  0  0  0  0  0  0  0
   -9.8440   21.2010  -31.9400 C   0  0  0  0  0  0  0  0  0  0  0  0
  -10.9123   21.2624  -31.6853 H   0  0  0  0  0  0  0  0  0  0  0  0
   -8.9840   22.2730  -31.6170 C   0  0  0  0  0  0  0  0  0  0  0  0
   -9.3851   23.1611  -31.1067 H   0  0  0  0  0  0  0  0  0  0  0  0
   -7.6170   22.2120  -31.9440 C   0  0  0  0  0  0  0  0  0  0  0  0
   -6.9350   23.0362  -31.6882 H   0  0  0  0  0  0  0  0  0  0  0  0
   -7.1540   21.0730  -32.6030 C   0  0  0  0  0  0  0  0  0  0  0  0
   -4.2520   22.0650  -31.6860 C   0  0  0  0  0  0  0  0  0  0  0  0
   -4.2900   23.4250  -31.6880 N   0  0  0  0  0  0  0  0  0  0  0  0
   -3.9280   24.1710  -30.6130 C   0  0  0  0  0  0  0  0  0  0  0  0
   -3.9840   25.4290  -30.6910 O   0  0  0  0  0  0  0  0  0  0  0  0
   -3.4950   23.5270  -29.4360 C   0  0  0  0  0  0  0  0  0  0  0  0
   -3.1240   24.2250  -28.3440 C   0  0  0  0  0  0  0  0  0  0  0  0
   -3.8752   24.3954  -27.5587 H   0  0  0  0  0  0  0  0  0  0  0  0
   -1.7620   24.7770  -28.1390 C   0  0  0  0  0  0  0  0  0  0  0  0
   -1.5100   26.0980  -28.0630 N   0  0  0  0  0  0  0  0  0  0  0  0
   -0.1880   26.1800  -27.8280 C   0  0  0  0  0  0  0  0  0  0  0  0
    0.3473   27.1342  -27.7141 H   0  0  0  0  0  0  0  0  0  0  0  0
    0.4150   24.9800  -27.7460 N   0  0  0  0  0  0  0  0  0  0  0  0
   -0.5700   24.0790  -27.9440 C   0  0  0  0  0  0  0  0  0  0  0  0
   -0.3150   22.5690  -27.9390 C   0  0  0  0  0  0  0  0  0  0  0  0
   -1.2870   21.8710  -26.9670 C   0  0  0  0  0  0  0  0  0  0  0  0
   -0.9871   22.0864  -25.9308 H   0  0  0  0  0  0  0  0  0  0  0  0
   -2.3076   22.2438  -27.1383 H   0  0  0  0  0  0  0  0  0  0  0  0
   -1.2599   20.7848  -27.1383 H   0  0  0  0  0  0  0  0  0  0  0  0
   -0.4570   21.9840  -29.3600 C   0  0  0  0  0  0  0  0  0  0  0  0
   -0.7160   20.9170  -29.2931 H   0  0  0  0  0  0  0  0  0  0  0  0
   -1.2509   22.5209  -29.8999 H   0  0  0  0  0  0  0  0  0  0  0  0
    0.4947   22.0971  -29.8999 H   0  0  0  0  0  0  0  0  0  0  0  0
    1.1260   22.2830  -27.4570 C   0  0  0  0  0  0  0  0  0  0  0  0
    1.1506   22.2781  -26.3573 H   0  0  0  0  0  0  0  0  0  0  0  0
    1.4514   21.3027  -27.8354 H   0  0  0  0  0  0  0  0  0  0  0  0
    1.8011   23.0647  -27.8354 H   0  0  0  0  0  0  0  0  0  0  0  0
   -3.4850   22.1660  -29.4200 N   0  0  0  0  0  0  0  0  0  0  0  0
   -3.8550   21.4170  -30.4900 C   0  0  0  0  0  0  0  0  0  0  0  0
   -3.8650   20.1630  -30.3740 O   0  0  0  0  0  0  0  0  0  0  0  0
  1  2  1  0
  2  3  1  0
  3  4  2  0
  4  5  1  0
  4  6  1  0
  6  7  1  0
  6  8  1  0
  8  9  2  0
  9 10  1  0
  9 11  1  0
 11 12  1  0
 11 13  2  0
 13 14  1  0
 13 15  1  0
 15 16  1  0
 15 17  2  0
  2 18  2  3
 18 19  1  0
 19 20  1  0
 20 21  2  0
 20 22  1  0
 22 23  2  0
 23 24  1  0
 23 25  1  0
 25 26  1  0
 26 27  2  0
 27 28  1  0
 27 29  1  0
 29 30  1  0
 30 31  1  0
 31 32  1  0
 32 33  1  0
 32 34  1  0
 32 35  1  0
 31 36  1  0
 36 37  1  0
 36 38  1  0
 36 39  1  0
 31 40  1  0
 40 41  1  0
 40 42  1  0
 40 43  1  0
 22 44  1  0
 44 45  1  0
 45 46  2  0
 17  3  1  0
 45 18  1  0
 17  8  1  0
 30 25  2  0
M  CHG  3  19  -1  29  -1  44  -1
M  END
>  <UniqueID>  (16) 
15

>  <SMILES>  (16) 
CC(C)(C)c1[n-]cnc1/C=c1\[n-]c(=O)c(=Cc2c[nH]c3ccccc23)[n-]c1=O

>  <Energy>  (16) 
128.1191623500468

>  <Genealogy>  (16) 
CC(C)(C)c1[n-]cnc1C=c1[n-]c(=O)c(=Cc2c[nH]c3ccccc23)[n-]c1=O (protonated)
CC(C)(C)c1[n-]cnc1/C=c1\[n-]c(=O)c(=Cc2c[nH]c3ccccc23)[n-]c1=O (cis-trans isomerization)
CC(C)(C)c1[n-]cnc1/C=c1\[n-]c(=O)c(=Cc2c[nH]c3ccccc23)[n-]c1=O (3D coordinates assigned)
CC(C)(C)c1[n-]cnc1/C=c1\[n-]c(=O)c(=Cc2c[nH]c3ccccc23)[n-]c1=O (optimized conformer: 128.1191623500468 kcal/mol)

>  <smiles>  (16) 
CC(C)(C)c1[nH]cnc1C=c1[nH]c(=O)c(=Cc2c[nH]c3ccccc23)[nH]c1=O

>  <score_type>  (16) 
oracle

>  <origin>  (16) 
adg

>  <m_score__min__energy>  (16) 
-12.44

>  <m_primary>  (16) 
energy

$$$$
16:0
     RDKit          3D

 39 41  0  0  1  0  0  0  0  0999 V2000
   -1.5850   25.3930  -27.6320 C   0  0  0  0  0  0  0  0  0  0  0  0
   -1.9850   25.4110  -28.9700 O   0  0  0  0  0  0  0  0  0  0  0  0
   -2.4150   24.2380  -29.5740 C   0  0  0  0  0  0  0  0  0  0  0  0
   -1.8040   23.0160  -29.3560 C   0  0  0  0  0  0  0  0  0  0  0  0
   -2.2720   21.8610  -29.9870 C   0  0  0  0  0  0  0  0  0  0  0  0
   -3.3510   21.9240  -30.8350 C   0  0  0  0  0  0  0  0  0  0  0  0
   -3.8970   20.7180  -31.5400 C   0  0  0  0  0  0  0  0  0  0  0  0
   -5.0710   21.0970  -32.2720 N   0  0  0  0  0  0  0  0  0  0  0  0
   -6.0560   20.3130  -32.4360 C   0  0  0  0  0  0  0  0  0  0  0  0
   -5.8820   19.0020  -32.8660 C   0  0  0  0  0  0  0  0  0  0  0  0
   -7.0110   18.2210  -33.0180 C   0  0  0  0  0  0  0  0  0  0  0  0
   -6.8740   16.8150  -33.4740 C   0  0  0  0  0  0  0  0  0  0  0  0
   -8.2220   18.7150  -32.7590 N   0  0  0  0  0  0  0  0  0  0  0  0
   -8.4020   19.9930  -32.3400 C   0  0  0  0  0  0  0  0  0  0  0  0
   -9.4800   20.7360  -32.0150 N   0  0  0  0  0  0  0  0  0  0  0  0
   -9.0650   21.9840  -31.6540 C   0  0  0  0  0  0  0  0  0  0  0  0
   -7.7120   21.9650  -31.7750 N   0  0  0  0  0  0  0  0  0  0  0  0
   -7.3050   20.7590  -32.1900 N   0  0  0  0  0  0  0  0  0  0  0  0
   -3.9320   23.1710  -31.0240 C   0  0  0  0  0  0  0  0  0  0  0  0
   -3.5030   24.3130  -30.4270 C   0  0  0  0  0  0  0  0  0  0  0  0
   -4.1120   25.5410  -30.6430 O   0  0  0  0  0  0  0  0  0  0  0  0
   -5.5220   25.6500  -30.4490 C   0  0  0  0  0  0  0  0  0  0  0  0
   -2.4725   25.4329  -26.9834 H   0  0  0  0  0  0  0  0  0  0  0  0
   -1.0241   24.4687  -27.4294 H   0  0  0  0  0  0  0  0  0  0  0  0
   -0.9433   26.2632  -27.4294 H   0  0  0  0  0  0  0  0  0  0  0  0
   -0.9399   22.9533  -28.6782 H   0  0  0  0  0  0  0  0  0  0  0  0
   -1.7746   20.8971  -29.8042 H   0  0  0  0  0  0  0  0  0  0  0  0
   -3.1409   20.3229  -32.2344 H   0  0  0  0  0  0  0  0  0  0  0  0
   -4.1523   19.9411  -30.8043 H   0  0  0  0  0  0  0  0  0  0  0  0
   -4.8799   18.6009  -33.0778 H   0  0  0  0  0  0  0  0  0  0  0  0
   -6.8093   16.1506  -32.5997 H   0  0  0  0  0  0  0  0  0  0  0  0
   -7.7495   16.5391  -34.0801 H   0  0  0  0  0  0  0  0  0  0  0  0
   -5.9617   16.7133  -34.0801 H   0  0  0  0  0  0  0  0  0  0  0  0
   -9.0620   18.1120  -32.8800 H   0  0  0  0  0  0  0  0  0  0  0  0
   -9.6932   22.8279  -31.3327 H   0  0  0  0  0  0  0  0  0  0  0  0
   -4.7960   23.2383  -31.7014 H   0  0  0  0  0  0  0  0  0  0  0  0
   -5.7437   25.6671  -29.3717 H   0  0  0  0  0  0  0  0  0  0  0  0
   -5.8852   26.5789  -30.9129 H   0  0  0  0  0  0  0  0  0  0  0  0
   -6.0237   24.7880  -30.9129 H   0  0  0  0  0  0  0  0  0  0  0  0
  1  2  1  0
  2  3  1  0
  3  4  2  0
  4  5  1  0
  5  6  2  0
  6  7  1  0
  7  8  1  0
  8  9  2  0
  9 10  1  0
 10 11  2  0
 11 12  1  0
 11 13  1  0
 13 14  1  0
 14 15  2  0
 15 16  1  0
 16 17  2  0
 17 18  1  0
  6 19  1  0
 19 20  2  0
 20 21  1  0
 21 22  1  0
 20  3  1  0
 18  9  1  0
 18 14  1  0
  1 23  1  0
  1 24  1  0
  1 25  1  0
  4 26  1  0
  5 27  1  0
  7 28  1  0
  7 29  1  0
 10 30  1  0
 12 31  1  0
 12 32  1  0
 12 33  1  0
 13 34  1  0
 16 35  1  0
 19 36  1  0
 22 37  1  0
 22 38  1  0
 22 39  1  0
M  END
>  <smiles>  (17) 
COc1ccc(CN=c2cc(C)[nH]c3ncnn23)cc1OC

>  <score_type>  (17) 
oracle

>  <origin>  (17) 
adg

>  <m_score__min__energy>  (17) 
-8.1999999999999993

>  <m_primary>  (17) 
energy

$$$$
17:0
     RDKit          3D

100105  0  0  0  0  0  0  0  0999 V2000
    0.9210   18.6170  -38.5050 C   0  0  0  0  0  0  0  0  0  0  0  0
    1.4240   18.8560  -37.0670 C   0  0  0  0  0  0  0  0  0  0  0  0
    2.5940   19.8720  -37.1240 C   0  0  0  0  0  0  0  0  0  0  0  0
    1.9510   17.5110  -36.4670 C   0  0  0  0  0  0  0  0  0  0  0  0
    0.8460   16.7650  -35.6750 C   0  0  0  0  0  0  0  0  0  0  0  0
    0.3930   17.5750  -34.4410 C   0  0  2  0  0  0  0  0  0  0  0  0
    1.2940   17.2090  -33.2350 C   0  0  0  0  0  0  0  0  0  0  0  0
    1.9350   18.1060  -32.5990 O   0  0  0  0  0  0  0  0  0  0  0  0
    1.7660   15.9100  -33.1240 O   0  0  0  0  0  0  0  0  0  0  0  0
   -1.0660   17.2010  -34.1030 C   0  0  0  0  0  0  0  0  0  0  0  0
   -1.6290   18.0740  -32.9780 C   0  0  0  0  0  0  0  0  0  0  0  0
   -1.6470   19.6070  -33.3120 C   0  0  2  0  0  0  0  0  0  0  0  0
   -2.7230   19.8090  -34.4290 C   0  0  0  0  0  0  0  0  0  0  0  0
   -0.2540   20.0440  -33.8610 C   0  0  0  0  0  0  0  0  0  0  0  0
    0.4960   21.0450  -33.2590 C   0  0  0  0  0  0  0  0  0  0  0  0
    0.2660   21.5200  -31.8430 C   0  0  0  0  0  0  0  0  0  0  0  0
   -0.7140   20.5510  -31.1670 C   0  0  1  0  0  0  0  0  0  0  0  0
   -0.9100   20.5340  -29.5890 C   0  0  1  0  0  0  0  0  0  0  0  0
   -0.9610   19.0400  -29.0790 C   0  0  0  0  0  0  0  0  0  0  0  0
    0.3160   21.2500  -28.9250 C   0  0  0  0  0  0  0  0  0  0  0  0
    0.1100   21.5040  -27.4270 C   0  0  0  0  0  0  0  0  0  0  0  0
   -1.1690   22.3240  -27.2580 C   0  0  2  0  0  0  0  0  0  0  0  0
   -1.2620   22.8590  -25.9200 O   0  0  0  0  0  0  0  0  0  0  0  0
   -0.9200   24.2400  -25.8530 C   0  0  1  0  0  0  0  0  0  0  0  0
   -1.8560   25.0000  -26.8110 C   0  0  0  0  0  0  0  0  0  0  0  0
   -1.2110   26.3790  -26.9900 C   0  0  2  0  0  0  0  0  0  0  0  0
   -0.0590   26.3330  -27.8410 O   0  0  0  0  0  0  0  0  0  0  0  0
   -0.7940   26.9460  -25.6030 C   0  0  1  0  0  0  0  0  0  0  0  0
   -1.3620   28.2290  -25.4480 O   0  0  0  0  0  0  0  0  0  0  0  0
   -1.2380   26.0700  -24.3680 C   0  0  2  0  0  0  0  0  0  0  0  0
   -0.4730   26.5350  -23.1440 C   0  0  0  0  0  0  0  0  0  0  0  0
    0.2160   27.7400  -23.4230 O   0  0  0  0  0  0  0  0  0  0  0  0
   -1.0790   24.6500  -24.5230 O   0  0  0  0  0  0  0  0  0  0  0  0
   -2.4520   21.5720  -27.7000 C   0  0  0  0  0  0  0  0  0  0  0  0
   -3.6830   22.4810  -27.5390 C   0  0  0  0  0  0  0  0  0  0  0  0
   -2.7010   20.3290  -26.7920 C   0  0  0  0  0  0  0  0  0  0  0  0
   -2.2360   21.2630  -29.2400 C   0  0  2  0  0  0  0  0  0  0  0  0
   -3.5050   20.6950  -29.9410 C   0  0  0  0  0  0  0  0  0  0  0  0
   -3.1930   19.8740  -31.1880 C   0  0  0  0  0  0  0  0  0  0  0  0
   -2.0370   20.4730  -32.0320 C   0  0  2  0  0  0  0  0  0  0  0  0
   -2.4900   21.9100  -32.5170 C   0  0  0  0  0  0  0  0  0  0  0  0
    0.5240   19.1170  -34.7380 C   0  0  2  0  0  0  0  0  0  0  0  0
    0.2720   19.4600  -36.2240 C   0  0  0  0  0  0  0  0  0  0  0  0
   -0.0721   18.1451  -38.4724 H   0  0  0  0  0  0  0  0  0  0  0  0
    0.8527   19.5789  -39.0342 H   0  0  0  0  0  0  0  0  0  0  0  0
    1.6236   17.9565  -39.0342 H   0  0  0  0  0  0  0  0  0  0  0  0
    2.8994   20.1372  -36.1011 H   0  0  0  0  0  0  0  0  0  0  0  0
    3.4452   19.4216  -37.6557 H   0  0  0  0  0  0  0  0  0  0  0  0
    2.2674   20.7779  -37.6557 H   0  0  0  0  0  0  0  0  0  0  0  0
    2.2984   16.8663  -37.2878 H   0  0  0  0  0  0  0  0  0  0  0  0
    2.7728   17.7432  -35.7736 H   0  0  0  0  0  0  0  0  0  0  0  0
   -0.0195   16.6031  -36.3343 H   0  0  0  0  0  0  0  0  0  0  0  0
    1.2569   15.8056  -35.3276 H   0  0  0  0  0  0  0  0  0  0  0  0
   -1.6856   17.3348  -35.0020 H   0  0  0  0  0  0  0  0  0  0  0  0
   -1.0819   16.1543  -33.7651 H   0  0  0  0  0  0  0  0  0  0  0  0
   -2.6606   17.7520  -32.7728 H   0  0  0  0  0  0  0  0  0  0  0  0
   -0.9658   17.9438  -32.1102 H   0  0  0  0  0  0  0  0  0  0  0  0
   -3.7032   19.9930  -33.9649 H   0  0  0  0  0  0  0  0  0  0  0  0
   -2.4456   20.6708  -35.0538 H   0  0  0  0  0  0  0  0  0  0  0  0
   -2.7770   18.9053  -35.0538 H   0  0  0  0  0  0  0  0  0  0  0  0
    1.2997   21.5171  -33.8432 H   0  0  0  0  0  0  0  0  0  0  0  0
    1.2190   21.5297  -31.2938 H   0  0  0  0  0  0  0  0  0  0  0  0
   -0.1476   22.5393  -31.8459 H   0  0  0  0  0  0  0  0  0  0  0  0
   -0.1754   19.5919  -31.1760 H   0  0  0  0  0  0  0  0  0  0  0  0
   -0.9614   19.0279  -27.9791 H   0  0  0  0  0  0  0  0  0  0  0  0
   -1.8762   18.5565  -29.4514 H   0  0  0  0  0  0  0  0  0  0  0  0
   -0.0809   18.4952  -29.4514 H   0  0  0  0  0  0  0  0  0  0  0  0
    1.2066   20.6178  -29.0559 H   0  0  0  0  0  0  0  0  0  0  0  0
    0.4367   22.2273  -29.4152 H   0  0  0  0  0  0  0  0  0  0  0  0
    0.0118   20.5457  -26.8960 H   0  0  0  0  0  0  0  0  0  0  0  0
    0.9704   22.0479  -27.0100 H   0  0  0  0  0  0  0  0  0  0  0  0
   -1.0975   23.1743  -27.9522 H   0  0  0  0  0  0  0  0  0  0  0  0
    0.1188   24.4381  -26.1559 H   0  0  0  0  0  0  0  0  0  0  0  0
   -1.9262   24.4783  -27.7769 H   0  0  0  0  0  0  0  0  0  0  0  0
   -2.8799   25.0723  -26.4154 H   0  0  0  0  0  0  0  0  0  0  0  0
   -1.9588   27.0302  -27.4661 H   0  0  0  0  0  0  0  0  0  0  0  0
    0.6870   26.8480  -27.4180 H   0  0  0  0  0  0  0  0  0  0  0  0
    0.3059   26.9585  -25.6039 H   0  0  0  0  0  0  0  0  0  0  0  0
   -1.6170   28.2820  -24.4900 H   0  0  0  0  0  0  0  0  0  0  0  0
   -2.3227   26.2227  -24.2671 H   0  0  0  0  0  0  0  0  0  0  0  0
   -1.1789   26.7038  -22.3175 H   0  0  0  0  0  0  0  0  0  0  0  0
    0.2577   25.7619  -22.8640 H   0  0  0  0  0  0  0  0  0  0  0  0
   -0.4740   28.4400  -23.4220 H   0  0  0  0  0  0  0  0  0  0  0  0
   -3.8890   22.6332  -26.4692 H   0  0  0  0  0  0  0  0  0  0  0  0
   -3.4865   23.4524  -28.0163 H   0  0  0  0  0  0  0  0  0  0  0  0
   -4.5535   22.0073  -28.0163 H   0  0  0  0  0  0  0  0  0  0  0  0
   -2.6409   20.6289  -25.7354 H   0  0  0  0  0  0  0  0  0  0  0  0
   -3.6995   19.9171  -27.0001 H   0  0  0  0  0  0  0  0  0  0  0  0
   -1.9382   19.5642  -27.0001 H   0  0  0  0  0  0  0  0  0  0  0  0
   -2.0855   22.2516  -29.6983 H   0  0  0  0  0  0  0  0  0  0  0  0
   -4.0402   20.0530  -29.2259 H   0  0  0  0  0  0  0  0  0  0  0  0
   -4.1106   21.5553  -30.2622 H   0  0  0  0  0  0  0  0  0  0  0  0
   -2.9103   18.8574  -30.8772 H   0  0  0  0  0  0  0  0  0  0  0  0
   -4.0952   19.8739  -31.8173 H   0  0  0  0  0  0  0  0  0  0  0  0
   -2.6905   22.5459  -31.6421 H   0  0  0  0  0  0  0  0  0  0  0  0
   -1.6906   22.3614  -33.1230 H   0  0  0  0  0  0  0  0  0  0  0  0
   -3.4038   21.8213  -33.1230 H   0  0  0  0  0  0  0  0  0  0  0  0
    1.5773   19.3044  -34.4824 H   0  0  0  0  0  0  0  0  0  0  0  0
   -0.6885   19.0318  -36.5465 H   0  0  0  0  0  0  0  0  0  0  0  0
    0.2360   20.5510  -36.3595 H   0  0  0  0  0  0  0  0  0  0  0  0
  1  2  1  0
  2  3  1  0
  2  4  1  0
  4  5  1  0
  5  6  1  0
  6  7  1  1
  7  8  2  0
  7  9  1  0
  6 10  1  0
 10 11  1  0
 11 12  1  0
 12 13  1  6
 12 14  1  0
 14 15  2  0
 15 16  1  0
 16 17  1  0
 17 18  1  0
 18 19  1  1
 18 20  1  0
 20 21  1  0
 21 22  1  0
 22 23  1  0
 23 24  1  0
 24 25  1  0
 25 26  1  0
 26 27  1  0
 26 28  1  0
 28 29  1  0
 28 30  1  0
 30 31  1  0
 31 32  1  0
 30 33  1  0
 22 34  1  0
 34 35  1  0
 34 36  1  0
 34 37  1  0
 37 38  1  0
 38 39  1  0
 39 40  1  0
 40 41  1  6
 14 42  1  0
 42 43  1  0
 43  2  1  0
 42  6  1  0
 40 12  1  0
 40 17  1  0
 37 18  1  0
 33 24  1  0
  1 44  1  0
  1 45  1  0
  1 46  1  0
  3 47  1  0
  3 48  1  0
  3 49  1  0
  4 50  1  0
  4 51  1  0
  5 52  1  0
  5 53  1  0
 10 54  1  0
 10 55  1  0
 11 56  1  0
 11 57  1  0
 13 58  1  0
 13 59  1  0
 13 60  1  0
 15 61  1  0
 16 62  1  0
 16 63  1  0
 17 64  1  6
 19 65  1  0
 19 66  1  0
 19 67  1  0
 20 68  1  0
 20 69  1  0
 21 70  1  0
 21 71  1  0
 22 72  1  6
 24 73  1  6
 25 74  1  0
 25 75  1  0
 26 76  1  6
 27 77  1  0
 28 78  1  6
 29 79  1  0
 30 80  1  1
 31 81  1  0
 31 82  1  0
 32 83  1  0
 35 84  1  0
 35 85  1  0
 35 86  1  0
 36 87  1  0
 36 88  1  0
 36 89  1  0
 37 90  1  6
 38 91  1  0
 38 92  1  0
 39 93  1  0
 39 94  1  0
 41 95  1  0
 41 96  1  0
 41 97  1  0
 42 98  1  1
 43 99  1  0
 43100  1  0
M  CHG  1   9  -1
M  END
>  <UniqueID>  (18) 
16

>  <SMILES>  (18) 
CC1(C)CC[C@]2(C(=O)[O-])CC[C@]3(C)C(=CCC4C5(C)CCC(OC6CC(O)C(O)C(CO)O6)C(C)(C)C5CCC43C)C2C1

>  <Energy>  (18) 
228.28569373442727

>  <Genealogy>  (18) 
CC1(C)CCC2(C(=O)[O-])CCC3(C)C(=CCC4C5(C)CCC(OC6CC(O)C(O)C(CO)O6)C(C)(C)C5CCC43C)C2C1 (protonated)
CC1(C)CC[C@]2(C(=O)[O-])CC[C@]3(C)C(=CCC4C5(C)CCC(OC6CC(O)C(O)C(CO)O6)C(C)(C)C5CCC43C)C2C1 (chirality)
CC1(C)CC[C@]2(C(=O)[O-])CC[C@]3(C)C(=CCC4C5(C)CCC(OC6CC(O)C(O)C(CO)O6)C(C)(C)C5CCC43C)C2C1 (3D coordinates assigned)
CC1(C)CC[C@]2(C(=O)[O-])CC[C@]3(C)C(=CCC4C5(C)CCC(OC6CC(O)C(O)C(CO)O6)C(C)(C)C5CCC43C)C2C1 (nonaromatic ring conformer: 228.28569373442727 kcal/mol)

>  <smiles>  (18) 
CC1(C)CCC2(C(=O)O)CCC3(C)C(=CCC4C5(C)CCC(OC6CC(O)C(O)C(CO)O6)C(C)(C)C5CCC43C)C2C1

>  <score_type>  (18) 
oracle

>  <origin>  (18) 
adg

>  <m_score__min__energy>  (18) 
-8.4199999999999999

>  <m_primary>  (18) 
energy

$$$$
18:0
     RDKit          3D

 48 50  0  0  0  0  0  0  0  0999 V2000
   -0.8530   28.5000  -25.2120 C   0  0  0  0  0  0  0  0  0  0  0  0
   -0.6490   27.5530  -24.0360 C   0  0  0  0  0  0  0  0  0  0  0  0
   -0.5610   26.1740  -24.5090 N   0  0  0  0  0  0  0  0  0  0  0  0
   -1.0510   25.7030  -25.6710 C   0  0  0  0  0  0  0  0  0  0  0  0
   -0.6950   24.3680  -25.7680 C   0  0  0  0  0  0  0  0  0  0  0  0
   -1.0010   23.4640  -26.8460 N   0  0  0  0  0  0  0  0  0  0  0  0
   -1.1200   23.7620  -28.2300 C   0  0  0  0  0  0  0  0  0  0  0  0
   -0.9930   24.9180  -28.7090 O   0  0  0  0  0  0  0  0  0  0  0  0
   -1.4040   22.6100  -29.0240 N   0  0  0  0  0  0  0  0  0  0  0  0
   -1.6600   22.6210  -30.4680 C   0  0  0  0  0  0  0  0  0  0  0  0
   -3.1280   22.8060  -30.7470 C   0  0  0  0  0  0  0  0  0  0  0  0
   -3.8530   23.8260  -30.1080 C   0  0  0  0  0  0  0  0  0  0  0  0
   -5.2080   24.0140  -30.3930 C   0  0  0  0  0  0  0  0  0  0  0  0
   -5.8520   23.1890  -31.3220 C   0  0  0  0  0  0  0  0  0  0  0  0
   -7.5900   23.4330  -31.6890 S   0  0  0  0  0  0  0  0  0  0  0  0
   -7.9170   21.6570  -31.9100 C   0  0  0  0  0  0  0  0  0  0  0  0
   -5.1370   22.1680  -31.9590 C   0  0  0  0  0  0  0  0  0  0  0  0
   -3.7810   21.9790  -31.6760 C   0  0  0  0  0  0  0  0  0  0  0  0
   -1.5390   21.4550  -28.1220 C   0  0  0  0  0  0  0  0  0  0  0  0
   -0.5090   20.3700  -28.4590 C   0  0  0  0  0  0  0  0  0  0  0  0
   -2.9740   20.9030  -28.1540 C   0  0  0  0  0  0  0  0  0  0  0  0
   -1.2480   22.0610  -26.7730 C   0  0  0  0  0  0  0  0  0  0  0  0
   -1.2450   21.4090  -25.6940 O   0  0  0  0  0  0  0  0  0  0  0  0
    0.0280   24.0870  -24.6210 C   0  0  0  0  0  0  0  0  0  0  0  0
    0.0950   25.2100  -23.8830 N   0  0  0  0  0  0  0  0  0  0  0  0
   -1.0707   29.5104  -24.8356 H   0  0  0  0  0  0  0  0  0  0  0  0
    0.0602   28.5258  -25.8247 H   0  0  0  0  0  0  0  0  0  0  0  0
   -1.6958   28.1475  -25.8247 H   0  0  0  0  0  0  0  0  0  0  0  0
    0.2818   27.8180  -23.5132 H   0  0  0  0  0  0  0  0  0  0  0  0
   -1.5038   27.6434  -23.3496 H   0  0  0  0  0  0  0  0  0  0  0  0
   -1.6301   26.2755  -26.4106 H   0  0  0  0  0  0  0  0  0  0  0  0
   -1.0981   23.4472  -30.9280 H   0  0  0  0  0  0  0  0  0  0  0  0
   -1.3382   21.6581  -30.8915 H   0  0  0  0  0  0  0  0  0  0  0  0
   -3.3513   24.4800  -29.3796 H   0  0  0  0  0  0  0  0  0  0  0  0
   -5.7698   24.8123  -29.8859 H   0  0  0  0  0  0  0  0  0  0  0  0
   -8.0057   21.1752  -30.9251 H   0  0  0  0  0  0  0  0  0  0  0  0
   -8.8548   21.5236  -32.4692 H   0  0  0  0  0  0  0  0  0  0  0  0
   -7.0882   21.1984  -32.4692 H   0  0  0  0  0  0  0  0  0  0  0  0
   -5.6430   21.5131  -32.6836 H   0  0  0  0  0  0  0  0  0  0  0  0
   -3.2225   21.1786  -32.1834 H   0  0  0  0  0  0  0  0  0  0  0  0
   -0.1058   19.9453  -27.5278 H   0  0  0  0  0  0  0  0  0  0  0  0
   -0.9926   19.5749  -29.0454 H   0  0  0  0  0  0  0  0  0  0  0  0
    0.3102   20.8116  -29.0454 H   0  0  0  0  0  0  0  0  0  0  0  0
   -3.3363   20.7636  -27.1248 H   0  0  0  0  0  0  0  0  0  0  0  0
   -3.6285   21.6135  -28.6801 H   0  0  0  0  0  0  0  0  0  0  0  0
   -2.9836   19.9370  -28.6801 H   0  0  0  0  0  0  0  0  0  0  0  0
    0.4706   23.1147  -24.3588 H   0  0  0  0  0  0  0  0  0  0  0  0
    0.5920   25.3180  -22.9700 H   0  0  0  0  0  0  0  0  0  0  0  0
  1  2  1  0
  2  3  1  0
  3  4  1  0
  4  5  2  0
  5  6  1  0
  6  7  1  0
  7  8  2  0
  7  9  1  0
  9 10  1  0
 10 11  1  0
 11 12  2  0
 12 13  1  0
 13 14  2  0
 14 15  1  0
 15 16  1  0
 14 17  1  0
 17 18  2  0
  9 19  1  0
 19 20  1  0
 19 21  1  0
 19 22  1  0
 22 23  2  0
  5 24  1  0
 24 25  2  0
 25  3  1  0
 22  6  1  0
 18 11  1  0
  1 26  1  0
  1 27  1  0
  1 28  1  0
  2 29  1  0
  2 30  1  0
  4 31  1  0
 10 32  1  0
 10 33  1  0
 12 34  1  0
 13 35  1  0
 16 36  1  0
 16 37  1  0
 16 38  1  0
 17 39  1  0
 18 40  1  0
 20 41  1  0
 20 42  1  0
 20 43  1  0
 21 44  1  0
 21 45  1  0
 21 46  1  0
 24 47  1  0
 25 48  1  0
M  CHG  1  25   1
M  END
>  <UniqueID>  (19) 
17

>  <SMILES>  (19) 
CCn1cc(N2C(=O)N(Cc3ccc(SC)cc3)C(C)(C)C2=O)c[nH+]1

>  <Energy>  (19) 
88.17897417093856

>  <Genealogy>  (19) 
CCn1cc(N2C(=O)N(Cc3ccc(SC)cc3)C(C)(C)C2=O)c[nH+]1 (protonated)
CCn1cc(N2C(=O)N(Cc3ccc(SC)cc3)C(C)(C)C2=O)c[nH+]1 (3D coordinates assigned)
CCn1cc(N2C(=O)N(Cc3ccc(SC)cc3)C(C)(C)C2=O)c[nH+]1 (nonaromatic ring conformer: 88.17897417093856 kcal/mol)

>  <smiles>  (19) 
CCn1cc(N2C(=O)N(Cc3ccc(SC)cc3)C(C)(C)C2=O)cn1

>  <score_type>  (19) 
oracle

>  <origin>  (19) 
adg

>  <m_score__min__energy>  (19) 
-7.9900000000000002

>  <m_primary>  (19) 
energy

$$$$
19:0
     RDKit          3D

 38 40  0  0  0  0  0  0  0  0999 V2000
   -4.4170   13.7950  -34.0180 C   0  0  0  0  0  0  0  0  0  0  0  0
   -4.2620   15.0510  -34.8710 C   0  0  0  0  0  0  0  0  0  0  0  0
   -4.9420   16.2240  -34.2190 C   0  0  0  0  0  0  0  0  0  0  0  0
   -5.0660   17.4410  -34.9070 C   0  0  0  0  0  0  0  0  0  0  0  0
   -5.6690   18.5420  -34.2910 C   0  0  0  0  0  0  0  0  0  0  0  0
   -6.1580   18.4420  -32.9790 C   0  0  0  0  0  0  0  0  0  0  0  0
   -6.7830   19.6160  -32.3280 C   0  0  0  0  0  0  0  0  0  0  0  0
   -6.0450   20.7910  -32.0410 C   0  0  0  0  0  0  0  0  0  0  0  0
   -6.7980   21.7880  -31.4110 C   0  0  0  0  0  0  0  0  0  0  0  0
   -6.3470   23.1290  -30.9600 C   0  0  0  0  0  0  0  0  0  0  0  0
   -7.2480   24.0020  -30.3190 C   0  0  0  0  0  0  0  0  0  0  0  0
   -6.8310   25.2670  -29.8910 C   0  0  0  0  0  0  0  0  0  0  0  0
   -5.5130   25.6770  -30.0990 C   0  0  0  0  0  0  0  0  0  0  0  0
   -4.6090   24.8230  -30.7330 C   0  0  0  0  0  0  0  0  0  0  0  0
   -5.0200   23.5580  -31.1620 C   0  0  0  0  0  0  0  0  0  0  0  0
   -8.3380   21.1470  -31.2630 S   0  0  0  0  0  0  0  0  0  0  0  0
   -8.0950   19.6660  -31.9670 N   0  0  0  0  0  0  0  0  0  0  0  0
   -9.1270   18.6490  -32.1420 C   0  0  0  0  0  0  0  0  0  0  0  0
   -6.0090   17.2320  -32.2820 C   0  0  0  0  0  0  0  0  0  0  0  0
   -5.4040   16.1310  -32.8970 C   0  0  0  0  0  0  0  0  0  0  0  0
   -4.3832   14.0685  -32.9531 H   0  0  0  0  0  0  0  0  0  0  0  0
   -5.3811   13.3156  -34.2431 H   0  0  0  0  0  0  0  0  0  0  0  0
   -3.5984   13.0956  -34.2431 H   0  0  0  0  0  0  0  0  0  0  0  0
   -3.1920   15.2755  -34.9920 H   0  0  0  0  0  0  0  0  0  0  0  0
   -4.7278   14.8724  -35.8514 H   0  0  0  0  0  0  0  0  0  0  0  0
   -4.6870   17.5291  -35.9359 H   0  0  0  0  0  0  0  0  0  0  0  0
   -5.7607   19.4921  -34.8378 H   0  0  0  0  0  0  0  0  0  0  0  0
   -4.9800   20.9084  -32.2901 H   0  0  0  0  0  0  0  0  0  0  0  0
   -8.2886   23.6862  -30.1536 H   0  0  0  0  0  0  0  0  0  0  0  0
   -7.5428   25.9395  -29.3899 H   0  0  0  0  0  0  0  0  0  0  0  0
   -5.1869   26.6725  -29.7635 H   0  0  0  0  0  0  0  0  0  0  0  0
   -3.5703   25.1466  -30.8954 H   0  0  0  0  0  0  0  0  0  0  0  0
   -4.3015   22.8915  -31.6616 H   0  0  0  0  0  0  0  0  0  0  0  0
   -9.4749   18.3062  -31.1564 H   0  0  0  0  0  0  0  0  0  0  0  0
   -9.9724   19.0768  -32.7008 H   0  0  0  0  0  0  0  0  0  0  0  0
   -8.7116   17.7974  -32.7008 H   0  0  0  0  0  0  0  0  0  0  0  0
   -6.3702   17.1496  -31.2463 H   0  0  0  0  0  0  0  0  0  0  0  0
   -5.2898   15.1881  -32.3421 H   0  0  0  0  0  0  0  0  0  0  0  0
  1  2  1  0
  2  3  1  0
  3  4  2  0
  4  5  1  0
  5  6  2  0
  6  7  1  0
  7  8  1  0
  8  9  2  0
  9 10  1  0
 10 11  2  0
 11 12  1  0
 12 13  2  0
 13 14  1  0
 14 15  2  0
  9 16  1  0
 16 17  1  0
 17 18  1  0
  6 19  1  0
 19 20  2  0
 20  3  1  0
 17  7  2  0
 15 10  1  0
  1 21  1  0
  1 22  1  0
  1 23  1  0
  2 24  1  0
  2 25  1  0
  4 26  1  0
  5 27  1  0
  8 28  1  0
 11 29  1  0
 12 30  1  0
 13 31  1  0
 14 32  1  0
 15 33  1  0
 18 34  1  0
 18 35  1  0
 18 36  1  0
 19 37  1  0
 20 38  1  0
M  CHG  1  17   1
M  END
>  <UniqueID>  (20) 
18

>  <SMILES>  (20) 
CCc1ccc(-c2cc(-c3ccccc3)s[n+]2C)cc1

>  <Energy>  (20) 
76.77388344654491

>  <Genealogy>  (20) 
CCc1ccc(-c2cc(-c3ccccc3)s[n+]2C)cc1 (3D coordinates assigned)
CCc1ccc(-c2cc(-c3ccccc3)s[n+]2C)cc1 (optimized conformer: 76.77388344654491 kcal/mol)

>  <smiles>  (20) 
CCc1ccc(-c2cc(-c3ccccc3)s[n+]2C)cc1

>  <score_type>  (20) 
oracle

>  <origin>  (20) 
adg

>  <m_score__min__energy>  (20) 
-7.2599999999999998

>  <m_primary>  (20) 
energy

$$$$
20:0
     RDKit          3D

 56 59  0  0  0  0  0  0  0  0999 V2000
   -7.5920   22.3970  -29.7250 C   0  0  0  0  0  0  0  0  0  0  0  0
   -8.0520   21.5190  -30.8510 C   0  0  0  0  0  0  0  0  0  0  0  0
   -9.3670   21.6060  -31.3240 C   0  0  0  0  0  0  0  0  0  0  0  0
   -9.7890   20.7530  -32.3450 C   0  0  0  0  0  0  0  0  0  0  0  0
   -8.9330   19.8340  -32.8680 N   0  0  0  0  0  0  0  0  0  0  0  0
   -7.6480   19.7080  -32.4180 C   0  0  0  0  0  0  0  0  0  0  0  0
   -6.7700   18.7120  -32.9850 N   0  0  0  0  0  0  0  0  0  0  0  0
   -6.1150   18.9800  -34.2730 C   0  0  0  0  0  0  0  0  0  0  0  0
   -5.3200   17.7630  -34.7450 C   0  0  0  0  0  0  0  0  0  0  0  0
   -4.5090   17.2610  -33.6230 N   0  0  0  0  0  0  0  0  0  0  0  0
   -3.5160   16.2740  -34.0980 C   0  0  0  0  0  0  0  0  0  0  0  0
   -2.0970   16.8640  -34.1430 C   0  0  0  0  0  0  0  0  0  0  0  0
   -2.0900   18.3730  -34.4330 C   0  0  0  0  0  0  0  0  0  0  0  0
   -1.7180   19.1230  -33.2770 O   0  0  0  0  0  0  0  0  0  0  0  0
   -2.4570   20.1740  -32.7100 C   0  0  0  0  0  0  0  0  0  0  0  0
   -2.1050   20.6120  -31.4300 C   0  0  0  0  0  0  0  0  0  0  0  0
   -2.8040   21.6530  -30.8140 C   0  0  0  0  0  0  0  0  0  0  0  0
   -3.8750   22.2850  -31.4720 C   0  0  0  0  0  0  0  0  0  0  0  0
   -4.6290   23.3920  -30.8280 C   0  0  0  0  0  0  0  0  0  0  0  0
   -4.4920   23.8510  -29.5150 C   0  0  0  0  0  0  0  0  0  0  0  0
   -5.3480   24.9140  -29.1990 C   0  0  0  0  0  0  0  0  0  0  0  0
   -6.1650   25.3070  -30.2480 C   0  0  0  0  0  0  0  0  0  0  0  0
   -5.8210   24.3300  -31.5680 S   0  0  0  0  0  0  0  0  0  0  0  0
   -4.2260   21.8440  -32.7610 C   0  0  0  0  0  0  0  0  0  0  0  0
   -3.5250   20.8030  -33.3760 C   0  0  0  0  0  0  0  0  0  0  0  0
   -5.3530   16.7100  -32.5300 C   0  0  0  0  0  0  0  0  0  0  0  0
   -6.7550   17.3530  -32.4320 C   0  0  0  0  0  0  0  0  0  0  0  0
   -7.1930   20.5530  -31.3910 C   0  0  0  0  0  0  0  0  0  0  0  0
   -7.8408   21.9221  -28.7645 H   0  0  0  0  0  0  0  0  0  0  0  0
   -6.5034   22.5396  -29.7924 H   0  0  0  0  0  0  0  0  0  0  0  0
   -8.0945   23.3732  -29.7924 H   0  0  0  0  0  0  0  0  0  0  0  0
  -10.0627   22.3415  -30.8939 H   0  0  0  0  0  0  0  0  0  0  0  0
  -10.8176   20.8241  -32.7282 H   0  0  0  0  0  0  0  0  0  0  0  0
   -9.2790   19.2260  -33.6440 H   0  0  0  0  0  0  0  0  0  0  0  0
   -6.8820   19.2222  -35.0234 H   0  0  0  0  0  0  0  0  0  0  0  0
   -5.4217   19.8244  -34.1454 H   0  0  0  0  0  0  0  0  0  0  0  0
   -6.0122   16.9771  -35.0814 H   0  0  0  0  0  0  0  0  0  0  0  0
   -4.6649   18.0465  -35.5819 H   0  0  0  0  0  0  0  0  0  0  0  0
   -3.5203   15.4097  -33.4176 H   0  0  0  0  0  0  0  0  0  0  0  0
   -3.7937   15.9760  -35.1198 H   0  0  0  0  0  0  0  0  0  0  0  0
   -1.6129   16.6905  -33.1706 H   0  0  0  0  0  0  0  0  0  0  0  0
   -1.5565   16.3663  -34.9616 H   0  0  0  0  0  0  0  0  0  0  0  0
   -1.3715   18.5792  -35.2400 H   0  0  0  0  0  0  0  0  0  0  0  0
   -3.1058   18.6737  -34.7290 H   0  0  0  0  0  0  0  0  0  0  0  0
   -1.2682   20.1316  -30.9018 H   0  0  0  0  0  0  0  0  0  0  0  0
   -2.5143   21.9816  -29.8050 H   0  0  0  0  0  0  0  0  0  0  0  0
   -3.7793   23.4184  -28.7974 H   0  0  0  0  0  0  0  0  0  0  0  0
   -5.3699   25.3931  -28.2091 H   0  0  0  0  0  0  0  0  0  0  0  0
   -6.9084   26.1173  -30.2198 H   0  0  0  0  0  0  0  0  0  0  0  0
   -5.0619   22.3241  -33.2910 H   0  0  0  0  0  0  0  0  0  0  0  0
   -3.8097   20.4736  -34.3862 H   0  0  0  0  0  0  0  0  0  0  0  0
   -5.4789   15.6307  -32.7010 H   0  0  0  0  0  0  0  0  0  0  0  0
   -4.8347   16.9321  -31.5855 H   0  0  0  0  0  0  0  0  0  0  0  0
   -7.4712   16.7329  -32.9911 H   0  0  0  0  0  0  0  0  0  0  0  0
   -7.0306   17.4130  -31.3688 H   0  0  0  0  0  0  0  0  0  0  0  0
   -6.1649   20.4560  -31.0122 H   0  0  0  0  0  0  0  0  0  0  0  0
  1  2  1  0
  2  3  2  0
  3  4  1  0
  4  5  2  0
  5  6  1  0
  6  7  1  0
  7  8  1  0
  8  9  1  0
  9 10  1  0
 10 11  1  0
 11 12  1  0
 12 13  1  0
 13 14  1  0
 14 15  1  0
 15 16  2  0
 16 17  1  0
 17 18  2  0
 18 19  1  0
 19 20  2  0
 20 21  1  0
 21 22  2  0
 22 23  1  0
 18 24  1  0
 24 25  2  0
 10 26  1  0
 26 27  1  0
  6 28  2  0
 28  2  1  0
 27  7  1  0
 25 15  1  0
 23 19  1  0
  1 29  1  0
  1 30  1  0
  1 31  1  0
  3 32  1  0
  4 33  1  0
  5 34  1  0
  8 35  1  0
  8 36  1  0
  9 37  1  0
  9 38  1  0
 11 39  1  0
 11 40  1  0
 12 41  1  0
 12 42  1  0
 13 43  1  0
 13 44  1  0
 16 45  1  0
 17 46  1  0
 20 47  1  0
 21 48  1  0
 22 49  1  0
 24 50  1  0
 25 51  1  0
 26 52  1  0
 26 53  1  0
 27 54  1  0
 27 55  1  0
 28 56  1  0
M  CHG  1   5   1
M  END
>  <UniqueID>  (21) 
19

>  <SMILES>  (21) 
Cc1cc[nH+]c(N2CCN(CCCOc3ccc(-c4cccs4)cc3)CC2)c1

>  <Energy>  (21) 
93.34857163136247

>  <Genealogy>  (21) 
Cc1cc[nH+]c(N2CCN(CCCOc3ccc(-c4cccs4)cc3)CC2)c1 (protonated)
Cc1cc[nH+]c(N2CCN(CCCOc3ccc(-c4cccs4)cc3)CC2)c1 (3D coordinates assigned)
Cc1cc[nH+]c(N2CCN(CCCOc3ccc(-c4cccs4)cc3)CC2)c1 (nonaromatic ring conformer: 93.34857163136247 kcal/mol)

>  <smiles>  (21) 
Cc1ccnc(N2CCN(CCCOc3ccc(-c4cccs4)cc3)CC2)c1

>  <score_type>  (21) 
oracle

>  <origin>  (21) 
adg

>  <m_score__min__energy>  (21) 
-8.9000000000000004

>  <m_primary>  (21) 
energy

$$$$
21:0
     RDKit          3D

 52 54  0  0  0  0  0  0  0  0999 V2000
   -2.7540   22.1430  -32.0670 C   0  0  0  0  0  0  0  0  0  0  0  0
   -4.0070   23.0070  -31.9660 C   0  0  0  0  0  0  0  0  0  0  0  0
   -4.0130   23.7520  -30.6780 N   0  0  0  0  0  0  0  0  0  0  0  0
   -4.6080   25.1070  -30.8090 C   0  0  0  0  0  0  0  0  0  0  0  0
   -6.1080   25.1760  -30.4290 C   0  0  0  0  0  0  0  0  0  0  0  0
   -6.7690   23.8600  -30.4130 N   0  0  0  0  0  0  0  0  0  0  0  0
   -7.2280   23.4160  -31.7470 C   0  0  0  0  0  0  0  0  0  0  0  0
   -7.2900   21.9210  -31.7690 C   0  0  0  0  0  0  0  0  0  0  0  0
   -6.4490   21.0690  -32.4600 C   0  0  0  0  0  0  0  0  0  0  0  0
   -6.9200   19.8080  -32.3360 N   0  0  0  0  0  0  0  0  0  0  0  0
   -6.3540   18.6260  -32.9340 C   0  0  0  0  0  0  0  0  0  0  0  0
   -5.9500   18.6300  -34.2840 C   0  0  0  0  0  0  0  0  0  0  0  0
   -5.3900   17.4850  -34.8600 C   0  0  0  0  0  0  0  0  0  0  0  0
   -5.2260   16.3260  -34.0980 C   0  0  0  0  0  0  0  0  0  0  0  0
   -5.6230   16.3080  -32.7590 C   0  0  0  0  0  0  0  0  0  0  0  0
   -6.1840   17.4510  -32.1780 C   0  0  0  0  0  0  0  0  0  0  0  0
   -8.0280   19.8330  -31.6040 N   0  0  0  0  0  0  0  0  0  0  0  0
   -8.2770   21.1060  -31.2410 C   0  0  0  0  0  0  0  0  0  0  0  0
   -9.4980   21.5490  -30.5000 C   0  0  0  0  0  0  0  0  0  0  0  0
   -6.0900   22.8310  -29.5880 C   0  0  0  0  0  0  0  0  0  0  0  0
   -4.5380   23.0030  -29.4960 C   0  0  0  0  0  0  0  0  0  0  0  0
   -3.8640   21.6090  -29.3580 C   0  0  0  0  0  0  0  0  0  0  0  0
   -4.1600   23.7650  -28.1950 C   0  0  0  0  0  0  0  0  0  0  0  0
   -2.3963   21.8963  -31.0565 H   0  0  0  0  0  0  0  0  0  0  0  0
   -2.9909   21.2154  -32.6087 H   0  0  0  0  0  0  0  0  0  0  0  0
   -1.9712   22.6942  -32.6087 H   0  0  0  0  0  0  0  0  0  0  0  0
   -4.0230   23.7234  -32.8006 H   0  0  0  0  0  0  0  0  0  0  0  0
   -4.8950   22.3594  -32.0110 H   0  0  0  0  0  0  0  0  0  0  0  0
   -4.0530   25.7934  -30.1526 H   0  0  0  0  0  0  0  0  0  0  0  0
   -4.5357   25.3850  -31.8708 H   0  0  0  0  0  0  0  0  0  0  0  0
   -6.1936   25.6213  -29.4268 H   0  0  0  0  0  0  0  0  0  0  0  0
   -6.6099   25.7819  -31.1977 H   0  0  0  0  0  0  0  0  0  0  0  0
   -8.2270   23.8294  -31.9496 H   0  0  0  0  0  0  0  0  0  0  0  0
   -6.5274   23.7700  -32.5176 H   0  0  0  0  0  0  0  0  0  0  0  0
   -5.5484   21.3669  -33.0169 H   0  0  0  0  0  0  0  0  0  0  0  0
   -6.0759   19.5400  -34.8891 H   0  0  0  0  0  0  0  0  0  0  0  0
   -5.0782   17.4973  -35.9148 H   0  0  0  0  0  0  0  0  0  0  0  0
   -4.7840   15.4271  -34.5526 H   0  0  0  0  0  0  0  0  0  0  0  0
   -5.4946   15.3942  -32.1603 H   0  0  0  0  0  0  0  0  0  0  0  0
   -6.4943   17.4309  -31.1229 H   0  0  0  0  0  0  0  0  0  0  0  0
   -8.6080   19.0030  -31.3520 H   0  0  0  0  0  0  0  0  0  0  0  0
   -9.3143   21.4823  -29.4175 H   0  0  0  0  0  0  0  0  0  0  0  0
   -9.7326   22.5896  -30.7687 H   0  0  0  0  0  0  0  0  0  0  0  0
  -10.3453   20.9010  -30.7687 H   0  0  0  0  0  0  0  0  0  0  0  0
   -6.5031   22.8779  -28.5696 H   0  0  0  0  0  0  0  0  0  0  0  0
   -6.2718   21.8631  -30.0781 H   0  0  0  0  0  0  0  0  0  0  0  0
   -3.7451   21.3631  -28.2925 H   0  0  0  0  0  0  0  0  0  0  0  0
   -4.4936   20.8478  -29.8419 H   0  0  0  0  0  0  0  0  0  0  0  0
   -2.8764   21.6297  -29.8419 H   0  0  0  0  0  0  0  0  0  0  0  0
   -4.4566   23.1671  -27.3206 H   0  0  0  0  0  0  0  0  0  0  0  0
   -3.0734   23.9344  -28.1719 H   0  0  0  0  0  0  0  0  0  0  0  0
   -4.6825   24.7327  -28.1719 H   0  0  0  0  0  0  0  0  0  0  0  0
  1  2  1  0
  2  3  1  0
  3  4  1  0
  4  5  1  0
  5  6  1  0
  6  7  1  0
  7  8  1  0
  8  9  2  0
  9 10  1  0
 10 11  1  0
 11 12  2  0
 12 13  1  0
 13 14  2  0
 14 15  1  0
 15 16  2  0
 10 17  1  0
 17 18  2  0
 18 19  1  0
  6 20  1  0
 20 21  1  0
 21 22  1  0
 21 23  1  0
 21  3  1  0
 18  8  1  0
 16 11  1  0
  1 24  1  0
  1 25  1  0
  1 26  1  0
  2 27  1  0
  2 28  1  0
  4 29  1  0
  4 30  1  0
  5 31  1  0
  5 32  1  0
  7 33  1  0
  7 34  1  0
  9 35  1  0
 12 36  1  0
 13 37  1  0
 14 38  1  0
 15 39  1  0
 16 40  1  0
 17 41  1  0
 19 42  1  0
 19 43  1  0
 19 44  1  0
 20 45  1  0
 20 46  1  0
 22 47  1  0
 22 48  1  0
 22 49  1  0
 23 50  1  0
 23 51  1  0
 23 52  1  0
M  CHG  1  17   1
M  END
>  <UniqueID>  (22) 
20

>  <SMILES>  (22) 
CCN1CCN(Cc2cn(-c3ccccc3)[nH+]c2C)CC1(C)C

>  <Energy>  (22) 
108.55157804982252

>  <Genealogy>  (22) 
CCN1CCN(Cc2cn(-c3ccccc3)[nH+]c2C)CC1(C)C (protonated)
CCN1CCN(Cc2cn(-c3ccccc3)[nH+]c2C)CC1(C)C (3D coordinates assigned)
CCN1CCN(Cc2cn(-c3ccccc3)[nH+]c2C)CC1(C)C (nonaromatic ring conformer: 108.55157804982252 kcal/mol)

>  <smiles>  (22) 
CCN1CCN(Cc2cn(-c3ccccc3)nc2C)CC1(C)C

>  <score_type>  (22) 
oracle

>  <origin>  (22) 
adg

>  <m_score__min__energy>  (22) 
-7.3499999999999996

>  <m_primary>  (22) 
energy

$$$$
22:0
     RDKit          3D

 56 59  0  0  0  0  0  0  0  0999 V2000
   -6.8660   17.3620  -32.9540 C   0  0  0  0  0  0  0  0  0  0  0  0
   -6.6020   18.5870  -33.8160 C   0  0  0  0  0  0  0  0  0  0  0  0
   -6.5060   19.8240  -32.9740 C   0  0  0  0  0  0  0  0  0  0  0  0
   -7.5800   20.4510  -32.4350 N   0  0  0  0  0  0  0  0  0  0  0  0
   -7.0420   21.5410  -31.8410 C   0  0  0  0  0  0  0  0  0  0  0  0
   -7.7510   22.5500  -31.1990 C   0  0  0  0  0  0  0  0  0  0  0  0
   -7.0370   23.6710  -30.7460 C   0  0  0  0  0  0  0  0  0  0  0  0
   -5.6360   23.7620  -30.9410 C   0  0  0  0  0  0  0  0  0  0  0  0
   -4.8930   24.9890  -30.5780 C   0  0  0  0  0  0  0  0  0  0  0  0
   -5.5100   26.0740  -30.4030 O   0  0  0  0  0  0  0  0  0  0  0  0
   -3.4700   24.9330  -30.4100 N   0  0  0  0  0  0  0  0  0  0  0  0
   -2.7410   24.1190  -29.4780 C   0  0  0  0  0  0  0  0  0  0  0  0
   -3.0970   22.7800  -29.2370 C   0  0  0  0  0  0  0  0  0  0  0  0
   -2.3530   22.0090  -28.3360 C   0  0  0  0  0  0  0  0  0  0  0  0
   -2.7860   20.3340  -28.0490 Cl  0  0  0  0  0  0  0  0  0  0  0  0
   -1.2640   22.5720  -27.6650 C   0  0  0  0  0  0  0  0  0  0  0  0
   -0.9320   23.9140  -27.8700 C   0  0  0  0  0  0  0  0  0  0  0  0
   -1.6790   24.7010  -28.7660 C   0  0  0  0  0  0  0  0  0  0  0  0
   -1.3900   26.0580  -28.9710 O   0  0  0  0  0  0  0  0  0  0  0  0
   -0.8320   26.9260  -27.9940 C   0  0  0  0  0  0  0  0  0  0  0  0
   -4.9710   22.6790  -31.5500 C   0  0  0  0  0  0  0  0  0  0  0  0
   -5.7100   21.6230  -31.9820 N   0  0  0  0  0  0  0  0  0  0  0  0
   -5.3570   20.5430  -32.6910 C   0  0  0  0  0  0  0  0  0  0  0  0
   -4.0450   20.2980  -33.2160 N   0  0  0  0  0  0  0  0  0  0  0  0
   -3.5030   18.9360  -33.1800 C   0  0  0  0  0  0  0  0  0  0  0  0
   -3.1490   21.4360  -33.4610 C   0  0  0  0  0  0  0  0  0  0  0  0
   -1.7430   21.1110  -33.0110 C   0  0  0  0  0  0  0  0  0  0  0  0
   -0.7600   20.7600  -33.9520 C   0  0  0  0  0  0  0  0  0  0  0  0
    0.5270   20.4040  -33.5320 C   0  0  0  0  0  0  0  0  0  0  0  0
    0.8400   20.3830  -32.1700 C   0  0  0  0  0  0  0  0  0  0  0  0
   -0.1300   20.7250  -31.2260 C   0  0  0  0  0  0  0  0  0  0  0  0
   -1.4190   21.0910  -31.6440 C   0  0  0  0  0  0  0  0  0  0  0  0
   -6.8058   17.6413  -31.8917 H   0  0  0  0  0  0  0  0  0  0  0  0
   -7.8695   16.9686  -33.1734 H   0  0  0  0  0  0  0  0  0  0  0  0
   -6.1136   16.5902  -33.1734 H   0  0  0  0  0  0  0  0  0  0  0  0
   -5.6561   18.4474  -34.3599 H   0  0  0  0  0  0  0  0  0  0  0  0
   -7.4373   18.7065  -34.5216 H   0  0  0  0  0  0  0  0  0  0  0  0
   -8.8382   22.4725  -31.0505 H   0  0  0  0  0  0  0  0  0  0  0  0
   -7.5700   24.4863  -30.2349 H   0  0  0  0  0  0  0  0  0  0  0  0
   -3.9602   22.3384  -29.7565 H   0  0  0  0  0  0  0  0  0  0  0  0
   -0.6673   21.9579  -26.9745 H   0  0  0  0  0  0  0  0  0  0  0  0
   -0.0831   24.3570  -27.3286 H   0  0  0  0  0  0  0  0  0  0  0  0
   -1.0736   26.5502  -26.9888 H   0  0  0  0  0  0  0  0  0  0  0  0
    0.2603   26.9642  -28.1184 H   0  0  0  0  0  0  0  0  0  0  0  0
   -1.2507   27.9355  -28.1184 H   0  0  0  0  0  0  0  0  0  0  0  0
   -3.8779   22.6880  -31.6731 H   0  0  0  0  0  0  0  0  0  0  0  0
   -3.3769   18.6191  -32.1342 H   0  0  0  0  0  0  0  0  0  0  0  0
   -4.1973   18.2515  -33.6894 H   0  0  0  0  0  0  0  0  0  0  0  0
   -2.5283   18.9157  -33.6894 H   0  0  0  0  0  0  0  0  0  0  0  0
   -3.1407   21.6648  -34.5369 H   0  0  0  0  0  0  0  0  0  0  0  0
   -3.5128   22.3036  -32.8909 H   0  0  0  0  0  0  0  0  0  0  0  0
   -1.0033   20.7650  -35.0247 H   0  0  0  0  0  0  0  0  0  0  0  0
    1.2936   20.1402  -34.2755 H   0  0  0  0  0  0  0  0  0  0  0  0
    1.8503   20.0971  -31.8420 H   0  0  0  0  0  0  0  0  0  0  0  0
    0.1160   20.7076  -30.1540 H   0  0  0  0  0  0  0  0  0  0  0  0
   -2.1795   21.3636  -30.8974 H   0  0  0  0  0  0  0  0  0  0  0  0
  1  2  1  0
  2  3  1  0
  3  4  1  0
  4  5  2  0
  5  6  1  0
  6  7  2  0
  7  8  1  0
  8  9  1  0
  9 10  2  0
  9 11  1  0
 11 12  1  0
 12 13  2  0
 13 14  1  0
 14 15  1  0
 14 16  2  0
 16 17  1  0
 17 18  2  0
 18 19  1  0
 19 20  1  0
  8 21  2  0
 21 22  1  0
 22 23  1  0
 23 24  1  0
 24 25  1  0
 24 26  1  0
 26 27  1  0
 27 28  2  0
 28 29  1  0
 29 30  2  0
 30 31  1  0
 31 32  2  0
 23  3  2  0
 32 27  1  0
 22  5  1  0
 18 12  1  0
  1 33  1  0
  1 34  1  0
  1 35  1  0
  2 36  1  0
  2 37  1  0
  6 38  1  0
  7 39  1  0
 13 40  1  0
 16 41  1  0
 17 42  1  0
 20 43  1  0
 20 44  1  0
 20 45  1  0
 21 46  1  0
 25 47  1  0
 25 48  1  0
 25 49  1  0
 26 50  1  0
 26 51  1  0
 28 52  1  0
 29 53  1  0
 30 54  1  0
 31 55  1  0
 32 56  1  0
M  CHG  1  11  -1
M  END
>  <UniqueID>  (23) 
21

>  <SMILES>  (23) 
CCc1nc2ccc(C(=O)[N-]c3cc(Cl)ccc3OC)cn2c1N(C)Cc1ccccc1

>  <Energy>  (23) 
94.97812749631012

>  <Genealogy>  (23) 
CCc1nc2ccc(C(=O)[N-]c3cc(Cl)ccc3OC)cn2c1N(C)Cc1ccccc1 (protonated)
CCc1nc2ccc(C(=O)[N-]c3cc(Cl)ccc3OC)cn2c1N(C)Cc1ccccc1 (3D coordinates assigned)
CCc1nc2ccc(C(=O)[N-]c3cc(Cl)ccc3OC)cn2c1N(C)Cc1ccccc1 (optimized conformer: 94.97812749631012 kcal/mol)

>  <smiles>  (23) 
CCc1nc2ccc(C(=O)Nc3cc(Cl)ccc3OC)cn2c1N(C)Cc1ccccc1

>  <score_type>  (23) 
oracle

>  <origin>  (23) 
adg

>  <m_score__min__energy>  (23) 
-11.74

>  <m_primary>  (23) 
energy

$$$$
23:0
     RDKit          3D

 31 32  0  0  0  0  0  0  0  0999 V2000
    1.2380   24.1080  -27.7740 C   0  0  0  0  0  0  0  0  0  0  0  0
    0.2630   25.1420  -27.8540 O   0  0  0  0  0  0  0  0  0  0  0  0
   -1.1220   24.9440  -27.7360 C   0  0  0  0  0  0  0  0  0  0  0  0
   -1.9030   24.5160  -28.8290 C   0  0  0  0  0  0  0  0  0  0  0  0
   -3.2740   24.2960  -28.6760 C   0  0  0  0  0  0  0  0  0  0  0  0
   -3.8800   24.4970  -27.4370 C   0  0  0  0  0  0  0  0  0  0  0  0
   -3.1210   24.9260  -26.3480 C   0  0  0  0  0  0  0  0  0  0  0  0
   -1.7420   25.1620  -26.4860 C   0  0  0  0  0  0  0  0  0  0  0  0
   -0.9780   25.6160  -25.3500 N   0  0  0  0  0  0  0  0  0  0  0  0
   -1.2190   26.9500  -24.7880 C   0  0  0  0  0  0  0  0  0  0  0  0
   -0.6290   27.0480  -23.3760 C   0  0  0  0  0  0  0  0  0  0  0  0
    0.8100   26.7150  -23.3470 N   0  0  0  0  0  0  0  0  0  0  0  0
    1.2290   25.6460  -24.2840 C   0  0  0  0  0  0  0  0  0  0  0  0
    0.0640   24.7700  -24.7590 C   0  0  0  0  0  0  0  0  0  0  0  0
    1.4492   23.8841  -26.7179 H   0  0  0  0  0  0  0  0  0  0  0  0
    0.8557   23.2043  -28.2711 H   0  0  0  0  0  0  0  0  0  0  0  0
    2.1626   24.4366  -28.2711 H   0  0  0  0  0  0  0  0  0  0  0  0
   -1.4297   24.3542  -29.8087 H   0  0  0  0  0  0  0  0  0  0  0  0
   -3.8761   23.9637  -29.5345 H   0  0  0  0  0  0  0  0  0  0  0  0
   -4.9586   24.3170  -27.3177 H   0  0  0  0  0  0  0  0  0  0  0  0
   -3.6057   25.0810  -25.3728 H   0  0  0  0  0  0  0  0  0  0  0  0
   -0.7459   27.7059  -25.4321 H   0  0  0  0  0  0  0  0  0  0  0  0
   -2.3037   27.1250  -24.7352 H   0  0  0  0  0  0  0  0  0  0  0  0
   -0.7621   28.0758  -23.0072 H   0  0  0  0  0  0  0  0  0  0  0  0
   -1.1560   26.3222  -22.7392 H   0  0  0  0  0  0  0  0  0  0  0  0
    1.3580   27.5800  -23.5610 H   0  0  0  0  0  0  0  0  0  0  0  0
    1.0570   26.4280  -22.3700 H   0  0  0  0  0  0  0  0  0  0  0  0
    1.6955   26.1145  -25.1631 H   0  0  0  0  0  0  0  0  0  0  0  0
    1.9302   24.9932  -23.7435 H   0  0  0  0  0  0  0  0  0  0  0  0
    0.4267   24.0555  -25.5126 H   0  0  0  0  0  0  0  0  0  0  0  0
   -0.3534   24.2209  -23.9021 H   0  0  0  0  0  0  0  0  0  0  0  0
  1  2  1  0
  2  3  1  0
  3  4  2  0
  4  5  1  0
  5  6  2  0
  6  7  1  0
  7  8  2  0
  8  9  1  0
  9 10  1  0
 10 11  1  0
 11 12  1  0
 12 13  1  0
 13 14  1  0
  8  3  1  0
 14  9  1  0
  1 15  1  0
  1 16  1  0
  1 17  1  0
  4 18  1  0
  5 19  1  0
  6 20  1  0
  7 21  1  0
 10 22  1  0
 10 23  1  0
 11 24  1  0
 11 25  1  0
 12 26  1  0
 12 27  1  0
 13 28  1  0
 13 29  1  0
 14 30  1  0
 14 31  1  0
M  CHG  1  12   1
M  END
>  <UniqueID>  (24) 
22

>  <SMILES>  (24) 
COc1ccccc1N1CC[NH2+]CC1

>  <Energy>  (24) 
38.69739598299784

>  <Genealogy>  (24) 
COc1ccccc1N1CC[NH2+]CC1 (protonated)
COc1ccccc1N1CC[NH2+]CC1 (3D coordinates assigned)
COc1ccccc1N1CC[NH2+]CC1 (nonaromatic ring conformer: 38.69739598299784 kcal/mol)

>  <smiles>  (24) 
COc1ccccc1N1CCNCC1

>  <score_type>  (24) 
oracle

>  <origin>  (24) 
adg

>  <m_score__min__energy>  (24) 
-5.2000000000000002

>  <m_primary>  (24) 
energy

$$$$
24:0
     RDKit          3D

 46 49  0  0  0  0  0  0  0  0999 V2000
   -2.3010   24.8240  -28.5740 C   0  0  0  0  0  0  0  0  0  0  0  0
   -3.1460   25.2600  -29.6330 O   0  0  0  0  0  0  0  0  0  0  0  0
   -4.2260   24.5200  -30.1460 C   0  0  0  0  0  0  0  0  0  0  0  0
   -5.5570   24.8640  -29.8800 C   0  0  0  0  0  0  0  0  0  0  0  0
   -6.5950   24.1040  -30.4040 C   0  0  0  0  0  0  0  0  0  0  0  0
   -6.3110   22.9820  -31.1980 C   0  0  0  0  0  0  0  0  0  0  0  0
   -7.3740   22.1920  -31.7450 C   0  0  0  0  0  0  0  0  0  0  0  0
   -8.7490   22.5000  -31.4630 N   0  0  0  0  0  0  0  0  0  0  0  0
   -9.5320   21.5540  -30.6690 C   0  0  0  0  0  0  0  0  0  0  0  0
   -9.4590   23.4260  -32.3430 C   0  0  0  0  0  0  0  0  0  0  0  0
   -7.0810   21.1250  -32.5490 N   0  0  0  0  0  0  0  0  0  0  0  0
   -5.7830   20.8390  -32.7960 C   0  0  0  0  0  0  0  0  0  0  0  0
   -4.7690   21.5710  -32.2780 C   0  0  0  0  0  0  0  0  0  0  0  0
   -3.5840   21.0910  -32.7090 N   0  0  0  0  0  0  0  0  0  0  0  0
   -3.9450   20.0450  -33.5010 C   0  0  0  0  0  0  0  0  0  0  0  0
   -5.2870   19.8610  -33.5670 N   0  0  0  0  0  0  0  0  0  0  0  0
   -6.0080   18.8990  -34.3980 C   0  0  0  0  0  0  0  0  0  0  0  0
   -5.4230   17.5230  -34.2250 C   0  0  0  0  0  0  0  0  0  0  0  0
   -5.9190   16.6700  -33.2270 C   0  0  0  0  0  0  0  0  0  0  0  0
   -5.3580   15.4030  -33.0400 C   0  0  0  0  0  0  0  0  0  0  0  0
   -4.2960   14.9800  -33.8440 C   0  0  0  0  0  0  0  0  0  0  0  0
   -3.7940   15.8260  -34.8380 C   0  0  0  0  0  0  0  0  0  0  0  0
   -4.3530   17.0930  -35.0290 C   0  0  0  0  0  0  0  0  0  0  0  0
   -4.9900   22.6550  -31.4710 N   0  0  0  0  0  0  0  0  0  0  0  0
   -3.9600   23.4050  -30.9510 C   0  0  0  0  0  0  0  0  0  0  0  0
   -2.7570   23.1070  -31.1880 O   0  0  0  0  0  0  0  0  0  0  0  0
   -2.7691   25.0655  -27.6083 H   0  0  0  0  0  0  0  0  0  0  0  0
   -2.1522   23.7366  -28.6476 H   0  0  0  0  0  0  0  0  0  0  0  0
   -1.3286   25.3329  -28.6476 H   0  0  0  0  0  0  0  0  0  0  0  0
   -5.7816   25.7398  -29.2534 H   0  0  0  0  0  0  0  0  0  0  0  0
   -7.6391   24.3814  -30.1968 H   0  0  0  0  0  0  0  0  0  0  0  0
   -9.3693   21.7506  -29.5990 H   0  0  0  0  0  0  0  0  0  0  0  0
  -10.5997   21.6726  -30.9054 H   0  0  0  0  0  0  0  0  0  0  0  0
   -9.2160   20.5272  -30.9054 H   0  0  0  0  0  0  0  0  0  0  0  0
  -10.0171   24.1539  -31.7358 H   0  0  0  0  0  0  0  0  0  0  0  0
   -8.7344   23.9570  -32.9778 H   0  0  0  0  0  0  0  0  0  0  0  0
  -10.1599   22.8641  -32.9778 H   0  0  0  0  0  0  0  0  0  0  0  0
   -7.8440   20.5370  -32.9490 H   0  0  0  0  0  0  0  0  0  0  0  0
   -3.2207   19.4119  -34.0344 H   0  0  0  0  0  0  0  0  0  0  0  0
   -7.0670   18.8838  -34.1009 H   0  0  0  0  0  0  0  0  0  0  0  0
   -5.9187   19.1974  -35.4530 H   0  0  0  0  0  0  0  0  0  0  0  0
   -6.7525   16.9995  -32.5893 H   0  0  0  0  0  0  0  0  0  0  0  0
   -5.7534   14.7377  -32.2583 H   0  0  0  0  0  0  0  0  0  0  0  0
   -3.8556   13.9831  -33.6952 H   0  0  0  0  0  0  0  0  0  0  0  0
   -2.9577   15.4939  -35.4707 H   0  0  0  0  0  0  0  0  0  0  0  0
   -3.9542   17.7558  -35.8111 H   0  0  0  0  0  0  0  0  0  0  0  0
  1  2  1  0
  2  3  1  0
  3  4  2  0
  4  5  1  0
  5  6  2  0
  6  7  1  0
  7  8  1  0
  8  9  1  0
  8 10  1  0
  7 11  2  0
 11 12  1  0
 12 13  2  0
 13 14  1  0
 14 15  2  0
 15 16  1  0
 16 17  1  0
 17 18  1  0
 18 19  2  0
 19 20  1  0
 20 21  2  0
 21 22  1  0
 22 23  2  0
 13 24  1  0
 24 25  1  0
 25 26  2  0
 25  3  1  0
 24  6  1  0
 16 12  1  0
 23 18  1  0
  1 27  1  0
  1 28  1  0
  1 29  1  0
  4 30  1  0
  5 31  1  0
  9 32  1  0
  9 33  1  0
  9 34  1  0
 10 35  1  0
 10 36  1  0
 10 37  1  0
 11 38  1  0
 15 39  1  0
 17 40  1  0
 17 41  1  0
 19 42  1  0
 20 43  1  0
 21 44  1  0
 22 45  1  0
 23 46  1  0
M  CHG  1  11   1
M  END
>  <UniqueID>  (25) 
23

>  <SMILES>  (25) 
COc1ccc2c(N(C)C)[nH+]c3c(ncn3Cc3ccccc3)n2c1=O

>  <Energy>  (25) 
99.40661907013678

>  <Genealogy>  (25) 
COc1ccc2c(N(C)C)[nH+]c3c(ncn3Cc3ccccc3)n2c1=O (protonated)
COc1ccc2c(N(C)C)[nH+]c3c(ncn3Cc3ccccc3)n2c1=O (3D coordinates assigned)
COc1ccc2c(N(C)C)[nH+]c3c(ncn3Cc3ccccc3)n2c1=O (optimized conformer: 99.40661907013678 kcal/mol)

>  <smiles>  (25) 
COc1ccc2c(N(C)C)nc3c(ncn3Cc3ccccc3)n2c1=O

>  <score_type>  (25) 
oracle

>  <origin>  (25) 
adg

>  <m_score__min__energy>  (25) 
-7.5999999999999996

>  <m_primary>  (25) 
energy

$$$$
25:0
     RDKit          3D

 39 42  0  0  0  0  0  0  0  0999 V2000
   -0.3414   26.3107  -27.5674 H   0  0  0  0  0  0  0  0  0  0  0  0
   -0.7730   25.5460  -28.2300 C   0  0  0  0  0  0  0  0  0  0  0  0
   -1.9840   25.6730  -28.8270 N   0  0  0  0  0  0  0  0  0  0  0  0
   -2.1370   24.5650  -29.5240 N   0  0  0  0  0  0  0  0  0  0  0  0
   -3.1990   24.2140  -30.3100 C   0  0  0  0  0  0  0  0  0  0  0  0
   -4.2120   25.0300  -30.4350 N   0  0  0  0  0  0  0  0  0  0  0  0
   -5.5320   24.9470  -29.8030 C   0  0  0  0  0  0  0  0  0  0  0  0
   -5.4098   24.6239  -28.7586 H   0  0  0  0  0  0  0  0  0  0  0  0
   -6.0031   25.9399  -29.8499 H   0  0  0  0  0  0  0  0  0  0  0  0
   -6.4220   23.9620  -30.5220 C   0  0  0  0  0  0  0  0  0  0  0  0
   -6.4900   23.9580  -31.9260 C   0  0  0  0  0  0  0  0  0  0  0  0
   -5.9112   24.6941  -32.5032 H   0  0  0  0  0  0  0  0  0  0  0  0
   -7.2890   23.0240  -32.5940 C   0  0  0  0  0  0  0  0  0  0  0  0
   -7.3448   23.0343  -33.6925 H   0  0  0  0  0  0  0  0  0  0  0  0
   -8.0170   22.0770  -31.8660 C   0  0  0  0  0  0  0  0  0  0  0  0
   -8.6487   21.3456  -32.3913 H   0  0  0  0  0  0  0  0  0  0  0  0
   -7.9410   22.0610  -30.4700 C   0  0  0  0  0  0  0  0  0  0  0  0
   -8.5116   21.3147  -29.8977 H   0  0  0  0  0  0  0  0  0  0  0  0
   -7.1400   22.9930  -29.7990 C   0  0  0  0  0  0  0  0  0  0  0  0
   -7.0721   22.9670  -28.7014 H   0  0  0  0  0  0  0  0  0  0  0  0
   -3.0880   22.9570  -30.9490 C   0  0  0  0  0  0  0  0  0  0  0  0
   -3.9660   22.3590  -31.7790 N   0  0  0  0  0  0  0  0  0  0  0  0
   -3.4280   21.1950  -32.1290 N   0  0  0  0  0  0  0  0  0  0  0  0
   -2.2290   21.0980  -31.5090 C   0  0  0  0  0  0  0  0  0  0  0  0
   -1.2970   19.9320  -31.6870 C   0  0  0  0  0  0  0  0  0  0  0  0
   -1.8757   19.0613  -32.0289 H   0  0  0  0  0  0  0  0  0  0  0  0
   -0.8135   19.7271  -30.7204 H   0  0  0  0  0  0  0  0  0  0  0  0
   -0.1990   20.2380  -32.7190 C   0  0  0  0  0  0  0  0  0  0  0  0
    0.1140   19.2947  -33.1905 H   0  0  0  0  0  0  0  0  0  0  0  0
    0.6333   20.7213  -32.1863 H   0  0  0  0  0  0  0  0  0  0  0  0
   -0.6710   21.2020  -33.8150 C   0  0  0  0  0  0  0  0  0  0  0  0
   -1.1096   22.0979  -33.3513 H   0  0  0  0  0  0  0  0  0  0  0  0
    0.1857   21.4946  -34.4398 H   0  0  0  0  0  0  0  0  0  0  0  0
   -1.4275   20.7047  -34.4398 H   0  0  0  0  0  0  0  0  0  0  0  0
   -1.9890   22.1940  -30.7640 N   0  0  0  0  0  0  0  0  0  0  0  0
   -0.9340   22.5610  -29.9800 C   0  0  0  0  0  0  0  0  0  0  0  0
   -0.0488   21.9202  -29.8543 H   0  0  0  0  0  0  0  0  0  0  0  0
   -1.0480   23.7990  -29.3480 C   0  0  0  0  0  0  0  0  0  0  0  0
   -0.1460   24.3780  -28.5330 N   0  0  0  0  0  0  0  0  0  0  0  0
  1  2  1  0
  2  3  2  0
  3  4  1  0
  4  5  1  0
  5  6  2  0
  6  7  1  0
  7  8  1  0
  7  9  1  0
  7 10  1  0
 10 11  2  0
 11 12  1  0
 11 13  1  0
 13 14  1  0
 13 15  2  0
 15 16  1  0
 15 17  1  0
 17 18  1  0
 17 19  2  0
 19 20  1  0
  5 21  1  0
 21 22  2  0
 22 23  1  0
 23 24  2  0
 24 25  1  0
 25 26  1  0
 25 27  1  0
 25 28  1  0
 28 29  1  0
 28 30  1  0
 28 31  1  0
 31 32  1  0
 31 33  1  0
 31 34  1  0
 24 35  1  0
 35 36  1  0
 36 37  1  0
 36 38  2  0
 38 39  1  0
 39  2  1  0
 38  4  1  0
 19 10  1  0
 35 21  1  0
M  CHG  1  39  -1
M  END
>  <UniqueID>  (26) 
24

>  <SMILES>  (26) 
CCCc1nnc2/c(=N\Cc3ccccc3)n3nc[n-]c3cn12

>  <Energy>  (26) 
122.54663432896889

>  <Genealogy>  (26) 
CCCc1nnc2c(=NCc3ccccc3)n3nc[n-]c3cn12 (protonated)
CCCc1nnc2/c(=N\Cc3ccccc3)n3nc[n-]c3cn12 (cis-trans isomerization)
CCCc1nnc2/c(=N\Cc3ccccc3)n3nc[n-]c3cn12 (3D coordinates assigned)
CCCc1nnc2/c(=N\Cc3ccccc3)n3nc[n-]c3cn12 (optimized conformer: 122.54663432896889 kcal/mol)

>  <smiles>  (26) 
CCCc1nnc2c(=NCc3ccccc3)n3nc[nH]c3cn12

>  <score_type>  (26) 
oracle

>  <origin>  (26) 
adg

>  <m_score__min__energy>  (26) 
-8.6799999999999997

>  <m_primary>  (26) 
energy

$$$$
26:0
     RDKit          3D

 45 47  0  0  0  0  0  0  0  0999 V2000
   -2.5050   25.2730  -29.3510 O   0  0  0  0  0  0  0  0  0  0  0  0
   -2.7980   24.0590  -29.5250 C   0  0  0  0  0  0  0  0  0  0  0  0
   -1.9530   23.0300  -28.9890 N   0  0  0  0  0  0  0  0  0  0  0  0
   -0.6880   23.3270  -28.3220 C   0  0  0  0  0  0  0  0  0  0  0  0
   -0.8200   24.5650  -27.4850 C   0  0  0  0  0  0  0  0  0  0  0  0
   -1.6420   24.5720  -26.3480 C   0  0  0  0  0  0  0  0  0  0  0  0
   -1.7260   25.7310  -25.5720 C   0  0  0  0  0  0  0  0  0  0  0  0
   -0.9930   26.8630  -25.9320 C   0  0  0  0  0  0  0  0  0  0  0  0
   -0.1810   26.8180  -27.0680 C   0  0  0  0  0  0  0  0  0  0  0  0
   -0.1100   25.6810  -27.8110 N   0  0  0  0  0  0  0  0  0  0  0  0
   -4.0630   23.6930  -30.2610 C   0  0  0  0  0  0  0  0  0  0  0  0
   -4.9220   24.9380  -30.5350 C   0  0  0  0  0  0  0  0  0  0  0  0
   -6.1230   24.5630  -31.4160 C   0  0  0  0  0  0  0  0  0  0  0  0
   -6.6990   23.2680  -31.0230 N   0  0  0  0  0  0  0  0  0  0  0  0
   -7.7560   22.7090  -31.8240 C   0  0  0  0  0  0  0  0  0  0  0  0
   -8.6280   23.4740  -32.3180 O   0  0  0  0  0  0  0  0  0  0  0  0
   -7.8240   21.2540  -32.1000 C   0  0  0  0  0  0  0  0  0  0  0  0
   -6.7430   20.5980  -32.7160 C   0  0  0  0  0  0  0  0  0  0  0  0
   -6.8020   19.2240  -32.9680 C   0  0  0  0  0  0  0  0  0  0  0  0
   -7.9330   18.4910  -32.5990 C   0  0  0  0  0  0  0  0  0  0  0  0
   -9.0060   19.1300  -31.9730 C   0  0  0  0  0  0  0  0  0  0  0  0
   -8.9520   20.5040  -31.7190 C   0  0  0  0  0  0  0  0  0  0  0  0
   -6.3780   22.6940  -29.7090 C   0  0  0  0  0  0  0  0  0  0  0  0
   -4.8560   22.6130  -29.4860 C   0  0  0  0  0  0  0  0  0  0  0  0
   -2.2480   22.0310  -29.0710 H   0  0  0  0  0  0  0  0  0  0  0  0
   -0.4102   22.4805  -27.6768 H   0  0  0  0  0  0  0  0  0  0  0  0
    0.0888   23.4905  -29.0835 H   0  0  0  0  0  0  0  0  0  0  0  0
   -2.2143   23.6746  -26.0704 H   0  0  0  0  0  0  0  0  0  0  0  0
   -2.3684   25.7513  -24.6793 H   0  0  0  0  0  0  0  0  0  0  0  0
   -1.0540   27.7803  -25.3280 H   0  0  0  0  0  0  0  0  0  0  0  0
    0.4018   27.7034  -27.3619 H   0  0  0  0  0  0  0  0  0  0  0  0
   -3.7833   23.2663  -31.2355 H   0  0  0  0  0  0  0  0  0  0  0  0
   -5.2840   25.3482  -29.5807 H   0  0  0  0  0  0  0  0  0  0  0  0
   -4.3121   25.6903  -31.0565 H   0  0  0  0  0  0  0  0  0  0  0  0
   -6.8943   25.3412  -31.3183 H   0  0  0  0  0  0  0  0  0  0  0  0
   -5.7751   24.4834  -32.4565 H   0  0  0  0  0  0  0  0  0  0  0  0
   -5.8468   21.1687  -33.0009 H   0  0  0  0  0  0  0  0  0  0  0  0
   -5.9564   18.7190  -33.4577 H   0  0  0  0  0  0  0  0  0  0  0  0
   -7.9784   17.4107  -32.8015 H   0  0  0  0  0  0  0  0  0  0  0  0
   -9.8944   18.5516  -31.6795 H   0  0  0  0  0  0  0  0  0  0  0  0
   -9.7960   21.0013  -31.2186 H   0  0  0  0  0  0  0  0  0  0  0  0
   -6.8212   23.3255  -28.9249 H   0  0  0  0  0  0  0  0  0  0  0  0
   -6.7880   21.6741  -29.6680 H   0  0  0  0  0  0  0  0  0  0  0  0
   -4.6539   22.7358  -28.4117 H   0  0  0  0  0  0  0  0  0  0  0  0
   -4.5243   21.6340  -29.8622 H   0  0  0  0  0  0  0  0  0  0  0  0
  1  2  2  0
  2  3  1  0
  3  4  1  0
  4  5  1  0
  5  6  2  0
  6  7  1  0
  7  8  2  0
  8  9  1  0
  9 10  2  0
  2 11  1  0
 11 12  1  0
 12 13  1  0
 13 14  1  0
 14 15  1  0
 15 16  2  0
 15 17  1  0
 17 18  2  0
 18 19  1  0
 19 20  2  0
 20 21  1  0
 21 22  2  0
 14 23  1  0
 23 24  1  0
 10  5  1  0
 24 11  1  0
 22 17  1  0
  3 25  1  0
  4 26  1  0
  4 27  1  0
  6 28  1  0
  7 29  1  0
  8 30  1  0
  9 31  1  0
 11 32  1  0
 12 33  1  0
 12 34  1  0
 13 35  1  0
 13 36  1  0
 18 37  1  0
 19 38  1  0
 20 39  1  0
 21 40  1  0
 22 41  1  0
 23 42  1  0
 23 43  1  0
 24 44  1  0
 24 45  1  0
M  END
>  <UniqueID>  (27) 
25

>  <SMILES>  (27) 
O=C(NCc1ccccn1)C1CCN(C(=O)c2ccccc2)CC1

>  <Energy>  (27) 
50.08505651043998

>  <Genealogy>  (27) 
O=C(NCc1ccccn1)C1CCN(C(=O)c2ccccc2)CC1 (3D coordinates assigned)
O=C(NCc1ccccn1)C1CCN(C(=O)c2ccccc2)CC1 (nonaromatic ring conformer: 50.08505651043998 kcal/mol)

>  <smiles>  (27) 
O=C(NCc1ccccn1)C1CCN(C(=O)c2ccccc2)CC1

>  <score_type>  (27) 
oracle

>  <origin>  (27) 
adg

>  <m_score__min__energy>  (27) 
-8.8800000000000008

>  <m_primary>  (27) 
energy

$$$$
27:0
     RDKit          3D

 57 60  0  0  0  0  0  0  0  0999 V2000
   -8.3440   22.7530  -31.8620 C   0  0  0  0  0  0  0  0  0  0  0  0
   -9.3040   21.6160  -31.5140 C   0  0  0  0  0  0  0  0  0  0  0  0
   -8.6750   20.2290  -31.7140 C   0  0  0  0  0  0  0  0  0  0  0  0
   -7.9780   20.0870  -33.0840 C   0  0  0  0  0  0  0  0  0  0  0  0
   -7.0750   18.9070  -33.1580 N   0  0  0  0  0  0  0  0  0  0  0  0
   -6.7040   18.4360  -31.7920 C   0  0  0  0  0  0  0  0  0  0  0  0
   -5.3670   19.0100  -31.2700 C   0  0  0  0  0  0  0  0  0  0  0  0
   -5.0200   20.2570  -31.9620 N   0  0  0  0  0  0  0  0  0  0  0  0
   -4.5430   21.4140  -31.2500 C   0  0  0  0  0  0  0  0  0  0  0  0
   -5.0030   22.6970  -31.5510 C   0  0  0  0  0  0  0  0  0  0  0  0
   -4.4850   23.7860  -30.8480 C   0  0  0  0  0  0  0  0  0  0  0  0
   -4.9150   24.9410  -31.1200 O   0  0  0  0  0  0  0  0  0  0  0  0
   -3.5230   23.5980  -29.8840 N   0  0  0  0  0  0  0  0  0  0  0  0
   -3.0250   24.6650  -29.1800 C   0  0  0  0  0  0  0  0  0  0  0  0
   -2.0370   24.4870  -28.2040 C   0  0  0  0  0  0  0  0  0  0  0  0
   -1.5340   25.6580  -27.4120 C   0  0  0  0  0  0  0  0  0  0  0  0
   -1.5740   23.2000  -27.9340 C   0  0  0  0  0  0  0  0  0  0  0  0
   -2.0640   22.1040  -28.6530 C   0  0  0  0  0  0  0  0  0  0  0  0
   -1.5360   20.7460  -28.3680 C   0  0  0  0  0  0  0  0  0  0  0  0
   -0.4840   20.2180  -29.1380 C   0  0  0  0  0  0  0  0  0  0  0  0
    0.0150   18.9400  -28.8700 C   0  0  0  0  0  0  0  0  0  0  0  0
   -0.5340   18.1750  -27.8370 C   0  0  0  0  0  0  0  0  0  0  0  0
   -0.0470   16.9360  -27.5780 F   0  0  0  0  0  0  0  0  0  0  0  0
   -1.5860   18.6860  -27.0720 C   0  0  0  0  0  0  0  0  0  0  0  0
   -2.0890   19.9630  -27.3360 C   0  0  0  0  0  0  0  0  0  0  0  0
   -3.0580   22.3240  -29.6300 C   0  0  0  0  0  0  0  0  0  0  0  0
   -3.5790   21.2670  -30.3080 N   0  0  0  0  0  0  0  0  0  0  0  0
   -4.9870   20.2580  -33.4280 C   0  0  0  0  0  0  0  0  0  0  0  0
   -5.8670   19.1290  -33.9890 C   0  0  0  0  0  0  0  0  0  0  0  0
   -7.9613   23.2062  -30.9356 H   0  0  0  0  0  0  0  0  0  0  0  0
   -7.5036   22.3562  -32.4504 H   0  0  0  0  0  0  0  0  0  0  0  0
   -8.8761   23.5150  -32.4504 H   0  0  0  0  0  0  0  0  0  0  0  0
   -9.6038   21.7182  -30.4606 H   0  0  0  0  0  0  0  0  0  0  0  0
  -10.1677   21.6906  -32.1910 H   0  0  0  0  0  0  0  0  0  0  0  0
   -7.9313   20.0614  -30.9210 H   0  0  0  0  0  0  0  0  0  0  0  0
   -9.4851   19.4860  -31.6730 H   0  0  0  0  0  0  0  0  0  0  0  0
   -8.7500   19.9868  -33.8612 H   0  0  0  0  0  0  0  0  0  0  0  0
   -7.3593   20.9843  -33.2326 H   0  0  0  0  0  0  0  0  0  0  0  0
   -7.6200   18.1330  -33.6080 H   0  0  0  0  0  0  0  0  0  0  0  0
   -7.5026   18.7315  -31.0956 H   0  0  0  0  0  0  0  0  0  0  0  0
   -6.5787   17.3450  -31.8549 H   0  0  0  0  0  0  0  0  0  0  0  0
   -5.4589   19.2109  -30.1924 H   0  0  0  0  0  0  0  0  0  0  0  0
   -4.5729   18.2729  -31.4601 H   0  0  0  0  0  0  0  0  0  0  0  0
   -5.7633   22.8479  -32.3315 H   0  0  0  0  0  0  0  0  0  0  0  0
   -3.4077   25.6756  -29.3854 H   0  0  0  0  0  0  0  0  0  0  0  0
   -1.6271   25.4412  -26.3376 H   0  0  0  0  0  0  0  0  0  0  0  0
   -0.4778   25.8412  -27.6589 H   0  0  0  0  0  0  0  0  0  0  0  0
   -2.1283   26.5501  -27.6589 H   0  0  0  0  0  0  0  0  0  0  0  0
   -0.8180   23.0449  -27.1501 H   0  0  0  0  0  0  0  0  0  0  0  0
   -0.0517   20.8139  -29.9553 H   0  0  0  0  0  0  0  0  0  0  0  0
    0.8412   18.5356  -29.4732 H   0  0  0  0  0  0  0  0  0  0  0  0
   -2.0189   18.0822  -26.2608 H   0  0  0  0  0  0  0  0  0  0  0  0
   -2.9209   20.3585  -26.7348 H   0  0  0  0  0  0  0  0  0  0  0  0
   -5.3598   21.2247  -33.7975 H   0  0  0  0  0  0  0  0  0  0  0  0
   -3.9505   20.0984  -33.7599 H   0  0  0  0  0  0  0  0  0  0  0  0
   -6.1807   19.3957  -35.0090 H   0  0  0  0  0  0  0  0  0  0  0  0
   -5.2755   18.2015  -33.9867 H   0  0  0  0  0  0  0  0  0  0  0  0
  1  2  1  0
  2  3  1  0
  3  4  1  0
  4  5  1  0
  5  6  1  0
  6  7  1  0
  7  8  1  0
  8  9  1  0
  9 10  2  0
 10 11  1  0
 11 12  2  0
 11 13  1  0
 13 14  1  0
 14 15  2  0
 15 16  1  0
 15 17  1  0
 17 18  2  0
 18 19  1  0
 19 20  2  0
 20 21  1  0
 21 22  2  0
 22 23  1  0
 22 24  1  0
 24 25  2  0
 18 26  1  0
 26 27  2  0
  8 28  1  0
 28 29  1  0
 29  5  1  0
 27  9  1  0
 26 13  1  0
 25 19  1  0
  1 30  1  0
  1 31  1  0
  1 32  1  0
  2 33  1  0
  2 34  1  0
  3 35  1  0
  3 36  1  0
  4 37  1  0
  4 38  1  0
  5 39  1  0
  6 40  1  0
  6 41  1  0
  7 42  1  0
  7 43  1  0
 10 44  1  0
 14 45  1  0
 16 46  1  0
 16 47  1  0
 16 48  1  0
 17 49  1  0
 20 50  1  0
 21 51  1  0
 24 52  1  0
 25 53  1  0
 28 54  1  0
 28 55  1  0
 29 56  1  0
 29 57  1  0
M  CHG  1   5   1
M  END
>  <UniqueID>  (28) 
26

>  <SMILES>  (28) 
CCCC[NH+]1CCN(c2cc(=O)n3cc(C)cc(-c4ccc(F)cc4)c3n2)CC1

>  <Energy>  (28) 
78.32240962939926

>  <Genealogy>  (28) 
CCCC[NH+]1CCN(c2cc(=O)n3cc(C)cc(-c4ccc(F)cc4)c3n2)CC1 (protonated)
CCCC[NH+]1CCN(c2cc(=O)n3cc(C)cc(-c4ccc(F)cc4)c3n2)CC1 (3D coordinates assigned)
CCCC[NH+]1CCN(c2cc(=O)n3cc(C)cc(-c4ccc(F)cc4)c3n2)CC1 (nonaromatic ring conformer: 78.32240962939926 kcal/mol)

>  <smiles>  (28) 
CCCCN1CCN(c2cc(=O)n3cc(C)cc(-c4ccc(F)cc4)c3n2)CC1

>  <score_type>  (28) 
oracle

>  <origin>  (28) 
adg

>  <m_score__min__energy>  (28) 
-8.0099999999999998

>  <m_primary>  (28) 
energy

$$$$
28:0
     RDKit          3D

 52 55  0  0  1  0  0  0  0  0999 V2000
   -6.1400   25.7060  -29.7420 C   0  0  0  0  0  0  0  0  0  0  0  0
   -5.3400   25.2340  -30.9040 C   0  0  0  0  0  0  0  0  0  0  0  0
   -5.1340   23.8160  -31.0010 N   0  0  0  0  0  0  0  0  0  0  0  0
   -3.7920   23.4010  -30.8480 C   0  0  0  0  0  0  0  0  0  0  0  0
   -3.5250   22.1710  -30.0610 C   0  0  0  0  0  0  0  0  0  0  0  0
   -6.1740   23.0210  -30.5120 C   0  0  0  0  0  0  0  0  0  0  0  0
   -7.5220   23.1520  -31.1630 C   0  0  0  0  0  0  0  0  0  0  0  0
   -8.0830   21.7710  -31.4450 C   0  0  0  0  0  0  0  0  0  0  0  0
   -7.6440   21.0820  -32.5580 N   0  0  0  0  0  0  0  0  0  0  0  0
   -6.5500   20.5730  -32.8200 C   0  0  0  0  0  0  0  0  0  0  0  0
   -5.4720   21.3750  -32.9490 N   0  0  0  0  0  0  0  0  0  0  0  0
   -4.2470   20.9420  -33.2760 C   0  0  0  0  0  0  0  0  0  0  0  0
   -3.0390   21.5780  -33.4580 C   0  0  0  0  0  0  0  0  0  0  0  0
   -2.1490   20.5790  -33.7880 C   0  0  0  0  0  0  0  0  0  0  0  0
   -0.7530   20.7900  -34.0730 C   0  0  0  0  0  0  0  0  0  0  0  0
   -0.1170   21.5800  -35.0220 C   0  0  0  0  0  0  0  0  0  0  0  0
    1.2190   21.5580  -35.0370 C   0  0  0  0  0  0  0  0  0  0  0  0
    1.8910   20.7930  -34.1540 C   0  0  0  0  0  0  0  0  0  0  0  0
    0.6250   19.9750  -33.1510 S   0  0  0  0  0  0  0  0  0  0  0  0
   -2.8030   19.4260  -33.7950 N   0  0  0  0  0  0  0  0  0  0  0  0
   -4.0920   19.6280  -33.4840 N   0  0  0  0  0  0  0  0  0  0  0  0
   -5.1400   18.7960  -33.3630 C   0  0  0  0  0  0  0  0  0  0  0  0
   -4.8970   17.4580  -33.5890 C   0  0  0  0  0  0  0  0  0  0  0  0
   -5.9840   16.6200  -33.4530 C   0  0  0  0  0  0  0  0  0  0  0  0
   -7.2410   17.0200  -33.1180 C   0  0  0  0  0  0  0  0  0  0  0  0
   -7.4680   18.3960  -32.8910 C   0  0  0  0  0  0  0  0  0  0  0  0
   -6.4070   19.2320  -33.0250 C   0  0  0  0  0  0  0  0  0  0  0  0
   -5.6395   25.4107  -28.8080 H   0  0  0  0  0  0  0  0  0  0  0  0
   -6.2296   26.8017  -29.7794 H   0  0  0  0  0  0  0  0  0  0  0  0
   -7.1424   25.2546  -29.7794 H   0  0  0  0  0  0  0  0  0  0  0  0
   -5.8539   25.5614  -31.8198 H   0  0  0  0  0  0  0  0  0  0  0  0
   -4.3383   25.6670  -30.7657 H   0  0  0  0  0  0  0  0  0  0  0  0
   -3.3836   23.2384  -31.8564 H   0  0  0  0  0  0  0  0  0  0  0  0
   -3.3219   24.2062  -30.2644 H   0  0  0  0  0  0  0  0  0  0  0  0
   -3.5757   22.4045  -28.9873 H   0  0  0  0  0  0  0  0  0  0  0  0
   -4.2784   21.4080  -30.3063 H   0  0  0  0  0  0  0  0  0  0  0  0
   -2.5230   21.7890  -30.3063 H   0  0  0  0  0  0  0  0  0  0  0  0
   -5.8608   21.9715  -30.6146 H   0  0  0  0  0  0  0  0  0  0  0  0
   -6.3292   23.3715  -29.4810 H   0  0  0  0  0  0  0  0  0  0  0  0
   -8.2030   23.6942  -30.4905 H   0  0  0  0  0  0  0  0  0  0  0  0
   -7.4210   23.7069  -32.1074 H   0  0  0  0  0  0  0  0  0  0  0  0
   -7.8550   21.1460  -30.5690 H   0  0  0  0  0  0  0  0  0  0  0  0
   -9.1467   21.9574  -31.6543 H   0  0  0  0  0  0  0  0  0  0  0  0
   -5.5580   22.4180  -32.7910 H   0  0  0  0  0  0  0  0  0  0  0  0
   -2.8294   22.6535  -33.3607 H   0  0  0  0  0  0  0  0  0  0  0  0
   -0.6885   22.1972  -35.7308 H   0  0  0  0  0  0  0  0  0  0  0  0
    1.7706   22.1646  -35.7704 H   0  0  0  0  0  0  0  0  0  0  0  0
    2.9820   20.6875  -34.0619 H   0  0  0  0  0  0  0  0  0  0  0  0
   -3.8994   17.0825  -33.8606 H   0  0  0  0  0  0  0  0  0  0  0  0
   -5.8226   15.5462  -33.6287 H   0  0  0  0  0  0  0  0  0  0  0  0
   -8.0593   16.2907  -33.0263 H   0  0  0  0  0  0  0  0  0  0  0  0
   -8.4639   18.7743  -32.6169 H   0  0  0  0  0  0  0  0  0  0  0  0
  1  2  1  0
  2  3  1  0
  3  4  1  0
  4  5  1  0
  3  6  1  0
  6  7  1  0
  7  8  1  0
  8  9  1  0
  9 10  2  0
 10 11  1  0
 11 12  1  0
 12 13  2  0
 13 14  1  0
 14 15  1  0
 15 16  2  0
 16 17  1  0
 17 18  2  0
 18 19  1  0
 14 20  2  0
 20 21  1  0
 21 22  1  0
 22 23  2  0
 23 24  1  0
 24 25  2  0
 25 26  1  0
 26 27  2  0
 27 10  1  0
 21 12  1  0
 27 22  1  0
 19 15  1  0
  1 28  1  0
  1 29  1  0
  1 30  1  0
  2 31  1  0
  2 32  1  0
  4 33  1  0
  4 34  1  0
  5 35  1  0
  5 36  1  0
  5 37  1  0
  6 38  1  0
  6 39  1  0
  7 40  1  0
  7 41  1  0
  8 42  1  0
  8 43  1  0
 11 44  1  0
 13 45  1  0
 16 46  1  0
 17 47  1  0
 18 48  1  0
 23 49  1  0
 24 50  1  0
 25 51  1  0
 26 52  1  0
M  END
>  <smiles>  (29) 
CCN(CC)CCCN=c1[nH]c2cc(-c3cccs3)nn2c2ccccc12

>  <score_type>  (29) 
oracle

>  <origin>  (29) 
adg

>  <m_score__min__energy>  (29) 
-8.3900000000000006

>  <m_primary>  (29) 
energy

$$$$
29:0
     RDKit          3D

 32 33  0  0  0  0  0  0  0  0999 V2000
   -1.8430   24.1280  -28.2990 C   0  0  0  0  0  0  0  0  0  0  0  0
   -1.9890   23.8000  -29.6760 O   0  0  0  0  0  0  0  0  0  0  0  0
   -3.1860   23.3640  -30.2650 C   0  0  0  0  0  0  0  0  0  0  0  0
   -3.4710   22.0010  -30.4670 C   0  0  0  0  0  0  0  0  0  0  0  0
   -4.6760   21.6120  -31.0580 C   0  0  0  0  0  0  0  0  0  0  0  0
   -5.6190   22.5740  -31.4640 C   0  0  0  0  0  0  0  0  0  0  0  0
   -6.9350   22.1620  -32.0980 C   0  0  0  0  0  0  0  0  0  0  0  0
   -6.8290   20.7990  -32.8410 C   0  0  0  0  0  0  0  0  0  0  0  0
   -7.5910   19.6700  -32.1340 C   0  0  0  0  0  0  0  0  0  0  0  0
   -9.0780   20.0210  -31.9350 C   0  0  0  0  0  0  0  0  0  0  0  0
   -9.3290   21.5070  -31.6030 C   0  0  0  0  0  0  0  0  0  0  0  0
   -8.0770   22.1990  -31.0560 C   0  0  0  0  0  0  0  0  0  0  0  0
   -5.3310   23.9350  -31.2540 C   0  0  0  0  0  0  0  0  0  0  0  0
   -4.1260   24.3250  -30.6630 C   0  0  0  0  0  0  0  0  0  0  0  0
   -3.8630   25.6760  -30.4690 O   0  0  0  0  0  0  0  0  0  0  0  0
   -2.2135   23.2957  -27.6825 H   0  0  0  0  0  0  0  0  0  0  0  0
   -0.7808   24.3057  -28.0750 H   0  0  0  0  0  0  0  0  0  0  0  0
   -2.4219   25.0362  -28.0750 H   0  0  0  0  0  0  0  0  0  0  0  0
   -2.7415   21.2378  -30.1581 H   0  0  0  0  0  0  0  0  0  0  0  0
   -4.8894   20.5433  -31.2073 H   0  0  0  0  0  0  0  0  0  0  0  0
   -7.1844   22.8981  -32.8765 H   0  0  0  0  0  0  0  0  0  0  0  0
   -7.2406   20.9190  -33.8540 H   0  0  0  0  0  0  0  0  0  0  0  0
   -5.7660   20.5166  -32.8606 H   0  0  0  0  0  0  0  0  0  0  0  0
   -7.5191   18.7564  -32.7424 H   0  0  0  0  0  0  0  0  0  0  0  0
   -7.1390   19.5210  -31.1423 H   0  0  0  0  0  0  0  0  0  0  0  0
   -9.6188   19.7766  -32.8612 H   0  0  0  0  0  0  0  0  0  0  0  0
   -9.4323   19.4363  -31.0732 H   0  0  0  0  0  0  0  0  0  0  0  0
   -9.6481   22.0253  -32.5193 H   0  0  0  0  0  0  0  0  0  0  0  0
  -10.1057   21.5519  -30.8253 H   0  0  0  0  0  0  0  0  0  0  0  0
   -8.3169   23.2462  -30.8197 H   0  0  0  0  0  0  0  0  0  0  0  0
   -7.7471   21.6702  -30.1496 H   0  0  0  0  0  0  0  0  0  0  0  0
   -6.0612   24.6995  -31.5579 H   0  0  0  0  0  0  0  0  0  0  0  0
  1  2  1  0
  2  3  1  0
  3  4  2  0
  4  5  1  0
  5  6  2  0
  6  7  1  0
  7  8  1  0
  8  9  1  0
  9 10  1  0
 10 11  1  0
 11 12  1  0
  6 13  1  0
 13 14  2  0
 14 15  1  0
 14  3  1  0
 12  7  1  0
  1 16  1  0
  1 17  1  0
  1 18  1  0
  4 19  1  0
  5 20  1  0
  7 21  1  0
  8 22  1  0
  8 23  1  0
  9 24  1  0
  9 25  1  0
 10 26  1  0
 10 27  1  0
 11 28  1  0
 11 29  1  0
 12 30  1  0
 12 31  1  0
 13 32  1  0
M  CHG  1  15  -1
M  END
>  <UniqueID>  (30) 
27

>  <SMILES>  (30) 
COc1ccc(C2CCCCC2)cc1[O-]

>  <Energy>  (30) 
33.988079524503696

>  <Genealogy>  (30) 
COc1ccc(C2CCCCC2)cc1[O-] (protonated)
COc1ccc(C2CCCCC2)cc1[O-] (3D coordinates assigned)
COc1ccc(C2CCCCC2)cc1[O-] (nonaromatic ring conformer: 33.988079524503696 kcal/mol)

>  <smiles>  (30) 
COc1ccc(C2CCCCC2)cc1O

>  <score_type>  (30) 
oracle

>  <origin>  (30) 
adg

>  <m_score__min__energy>  (30) 
-9.8699999999999992

>  <m_primary>  (30) 
energy

$$$$
30:0
     RDKit          3D

 43 46  0  0  0  0  0  0  0  0999 V2000
   -3.2210   19.2170  -33.5680 C   0  0  0  0  0  0  0  0  0  0  0  0
   -4.5320   18.9450  -34.0540 O   0  0  0  0  0  0  0  0  0  0  0  0
   -5.7170   19.2370  -33.3590 C   0  0  0  0  0  0  0  0  0  0  0  0
   -6.1340   20.5740  -33.1440 C   0  0  0  0  0  0  0  0  0  0  0  0
   -7.3000   20.7980  -32.4130 C   0  0  0  0  0  0  0  0  0  0  0  0
   -8.0370   19.7620  -31.9100 C   0  0  0  0  0  0  0  0  0  0  0  0
   -9.1070   20.3000  -31.2280 C   0  0  0  0  0  0  0  0  0  0  0  0
   -8.9630   21.6760  -31.3480 C   0  0  0  0  0  0  0  0  0  0  0  0
   -7.8630   21.9780  -32.0790 N   0  0  0  0  0  0  0  0  0  0  0  0
   -7.3570   23.3240  -32.3530 C   0  0  0  0  0  0  0  0  0  0  0  0
   -6.3420   23.7200  -31.3130 C   0  0  0  0  0  0  0  0  0  0  0  0
   -6.6780   24.6280  -30.2940 C   0  0  0  0  0  0  0  0  0  0  0  0
   -5.7210   25.0090  -29.3480 C   0  0  0  0  0  0  0  0  0  0  0  0
   -4.4260   24.4880  -29.4120 C   0  0  0  0  0  0  0  0  0  0  0  0
   -4.0860   23.5840  -30.4220 C   0  0  0  0  0  0  0  0  0  0  0  0
   -5.0380   23.2000  -31.3710 C   0  0  0  0  0  0  0  0  0  0  0  0
   -7.6710   18.4340  -32.1020 C   0  0  0  0  0  0  0  0  0  0  0  0
   -6.5000   18.1620  -32.8450 C   0  0  0  0  0  0  0  0  0  0  0  0
   -6.1000   16.7520  -33.0710 C   0  0  0  0  0  0  0  0  0  0  0  0
   -5.0120   16.1960  -32.3750 C   0  0  0  0  0  0  0  0  0  0  0  0
   -4.6350   14.8670  -32.6000 C   0  0  0  0  0  0  0  0  0  0  0  0
   -5.3350   14.0870  -33.5240 C   0  0  0  0  0  0  0  0  0  0  0  0
   -6.4110   14.6340  -34.2260 C   0  0  0  0  0  0  0  0  0  0  0  0
   -6.7930   15.9610  -34.0050 C   0  0  0  0  0  0  0  0  0  0  0  0
   -3.2300   19.2151  -32.4680 H   0  0  0  0  0  0  0  0  0  0  0  0
   -2.5278   18.4435  -33.9303 H   0  0  0  0  0  0  0  0  0  0  0  0
   -2.8927   20.2024  -33.9303 H   0  0  0  0  0  0  0  0  0  0  0  0
   -5.5510   21.4163  -33.5448 H   0  0  0  0  0  0  0  0  0  0  0  0
   -9.9046   19.7557  -30.7012 H   0  0  0  0  0  0  0  0  0  0  0  0
   -9.6471   22.4178  -30.9103 H   0  0  0  0  0  0  0  0  0  0  0  0
   -6.8844   23.3393  -33.3462 H   0  0  0  0  0  0  0  0  0  0  0  0
   -8.1957   24.0352  -32.3251 H   0  0  0  0  0  0  0  0  0  0  0  0
   -7.6965   25.0401  -30.2405 H   0  0  0  0  0  0  0  0  0  0  0  0
   -5.9882   25.7200  -28.5523 H   0  0  0  0  0  0  0  0  0  0  0  0
   -3.6744   24.7894  -28.6675 H   0  0  0  0  0  0  0  0  0  0  0  0
   -3.0666   23.1735  -30.4704 H   0  0  0  0  0  0  0  0  0  0  0  0
   -4.7656   22.4891  -32.1650 H   0  0  0  0  0  0  0  0  0  0  0  0
   -8.2776   17.6161  -31.6861 H   0  0  0  0  0  0  0  0  0  0  0  0
   -4.4548   16.8082  -31.6506 H   0  0  0  0  0  0  0  0  0  0  0  0
   -3.7864   14.4360  -32.0486 H   0  0  0  0  0  0  0  0  0  0  0  0
   -5.0385   13.0422  -33.6984 H   0  0  0  0  0  0  0  0  0  0  0  0
   -6.9597   14.0194  -34.9549 H   0  0  0  0  0  0  0  0  0  0  0  0
   -7.6388   16.3879  -34.5639 H   0  0  0  0  0  0  0  0  0  0  0  0
  1  2  1  0
  2  3  1  0
  3  4  2  0
  4  5  1  0
  5  6  2  0
  6  7  1  0
  7  8  2  0
  8  9  1  0
  9 10  1  0
 10 11  1  0
 11 12  2  0
 12 13  1  0
 13 14  2  0
 14 15  1  0
 15 16  2  0
  6 17  1  0
 17 18  2  0
 18 19  1  0
 19 20  2  0
 20 21  1  0
 21 22  2  0
 22 23  1  0
 23 24  2  0
 18  3  1  0
 24 19  1  0
  9  5  1  0
 16 11  1  0
  1 25  1  0
  1 26  1  0
  1 27  1  0
  4 28  1  0
  7 29  1  0
  8 30  1  0
 10 31  1  0
 10 32  1  0
 12 33  1  0
 13 34  1  0
 14 35  1  0
 15 36  1  0
 16 37  1  0
 17 38  1  0
 20 39  1  0
 21 40  1  0
 22 41  1  0
 23 42  1  0
 24 43  1  0
M  END
>  <UniqueID>  (31) 
28

>  <SMILES>  (31) 
COc1cc2c(ccn2Cc2ccccc2)cc1-c1ccccc1

>  <Energy>  (31) 
84.63185867159177

>  <Genealogy>  (31) 
COc1cc2c(ccn2Cc2ccccc2)cc1-c1ccccc1 (3D coordinates assigned)
COc1cc2c(ccn2Cc2ccccc2)cc1-c1ccccc1 (optimized conformer: 84.63185867159177 kcal/mol)

>  <smiles>  (31) 
COc1cc2c(ccn2Cc2ccccc2)cc1-c1ccccc1

>  <score_type>  (31) 
oracle

>  <origin>  (31) 
adg

>  <m_score__min__energy>  (31) 
-8.5899999999999999

>  <m_primary>  (31) 
energy

$$$$
31:0
     RDKit          3D

 48 50  0  0  0  0  0  0  0  0999 V2000
   -4.8207   25.0922  -25.6530 H   0  0  0  0  0  0  0  0  0  0  0  0
   -3.9930   24.9430  -26.3620 C   0  0  0  0  0  0  0  0  0  0  0  0
   -4.1730   24.1240  -27.4780 C   0  0  0  0  0  0  0  0  0  0  0  0
   -5.1404   23.6269  -27.6423 H   0  0  0  0  0  0  0  0  0  0  0  0
   -3.1240   23.9320  -28.3920 C   0  0  0  0  0  0  0  0  0  0  0  0
   -3.3070   23.0560  -29.5740 C   0  0  0  0  0  0  0  0  0  0  0  0
   -2.8700   21.7220  -29.5170 C   0  0  0  0  0  0  0  0  0  0  0  0
   -2.3917   21.3440  -28.6014 H   0  0  0  0  0  0  0  0  0  0  0  0
   -3.0370   20.8720  -30.6110 C   0  0  0  0  0  0  0  0  0  0  0  0
   -2.6993   19.8270  -30.5483 H   0  0  0  0  0  0  0  0  0  0  0  0
   -3.6320   21.3420  -31.7880 C   0  0  0  0  0  0  0  0  0  0  0  0
   -3.8210   20.4220  -32.9680 C   0  0  0  0  0  0  0  0  0  0  0  0
   -3.0880   20.6798  -33.7466 H   0  0  0  0  0  0  0  0  0  0  0  0
   -3.6757   19.3848  -32.6317 H   0  0  0  0  0  0  0  0  0  0  0  0
   -5.1700   20.5500  -33.5190 N   0  0  0  0  0  0  0  0  0  0  0  0
   -6.2800   20.1240  -32.9850 C   0  0  0  0  0  0  0  0  0  0  0  0
   -7.1780   21.0400  -32.5350 N   0  0  0  0  0  0  0  0  0  0  0  0
   -8.3550   20.6610  -31.9730 C   0  0  0  0  0  0  0  0  0  0  0  0
   -9.4830   21.8770  -31.4100 Cl  0  0  0  0  0  0  0  0  0  0  0  0
   -8.6590   19.3070  -31.8490 C   0  0  0  0  0  0  0  0  0  0  0  0
   -9.6082   18.9821  -31.3979 H   0  0  0  0  0  0  0  0  0  0  0  0
   -7.7320   18.3740  -32.3100 C   0  0  0  0  0  0  0  0  0  0  0  0
   -7.9474   17.2987  -32.2247 H   0  0  0  0  0  0  0  0  0  0  0  0
   -6.5620   18.7890  -32.8650 N   0  0  0  0  0  0  0  0  0  0  0  0
   -5.8950   18.0560  -33.1870 H   0  0  0  0  0  0  0  0  0  0  0  0
   -4.0770   22.6710  -31.8510 C   0  0  0  0  0  0  0  0  0  0  0  0
   -4.5631   23.0382  -32.7669 H   0  0  0  0  0  0  0  0  0  0  0  0
   -3.9090   23.5410  -30.7560 C   0  0  0  0  0  0  0  0  0  0  0  0
   -4.3080   24.8860  -30.8160 O   0  0  0  0  0  0  0  0  0  0  0  0
   -5.5980   25.3680  -30.4540 C   0  0  0  0  0  0  0  0  0  0  0  0
   -5.6832   25.3998  -29.3578 H   0  0  0  0  0  0  0  0  0  0  0  0
   -5.7393   26.3796  -30.8623 H   0  0  0  0  0  0  0  0  0  0  0  0
   -6.3680   24.6969  -30.8623 H   0  0  0  0  0  0  0  0  0  0  0  0
   -1.8880   24.5620  -28.1630 C   0  0  0  0  0  0  0  0  0  0  0  0
   -1.0595   24.4073  -28.8699 H   0  0  0  0  0  0  0  0  0  0  0  0
   -1.6990   25.3880  -27.0400 C   0  0  0  0  0  0  0  0  0  0  0  0
   -0.3600   26.0650  -26.8130 C   0  0  0  0  0  0  0  0  0  0  0  0
   -0.2605   26.8701  -27.5559 H   0  0  0  0  0  0  0  0  0  0  0  0
    0.7980   25.0830  -27.0280 C   0  0  0  0  0  0  0  0  0  0  0  0
    1.1858   24.7542  -26.0526 H   0  0  0  0  0  0  0  0  0  0  0  0
    0.4385   24.2102  -27.5928 H   0  0  0  0  0  0  0  0  0  0  0  0
    1.6003   25.5802  -27.5928 H   0  0  0  0  0  0  0  0  0  0  0  0
   -0.2920   26.7030  -25.4220 C   0  0  0  0  0  0  0  0  0  0  0  0
   -0.3755   25.9193  -24.6547 H   0  0  0  0  0  0  0  0  0  0  0  0
    0.6673   27.2287  -25.3062 H   0  0  0  0  0  0  0  0  0  0  0  0
   -1.1189   27.4191  -25.3062 H   0  0  0  0  0  0  0  0  0  0  0  0
   -2.7680   25.5730  -26.1420 C   0  0  0  0  0  0  0  0  0  0  0  0
   -2.6361   26.2186  -25.2612 H   0  0  0  0  0  0  0  0  0  0  0  0
  1  2  1  0
  2  3  2  0
  3  4  1  0
  3  5  1  0
  5  6  1  0
  6  7  2  0
  7  8  1  0
  7  9  1  0
  9 10  1  0
  9 11  2  0
 11 12  1  0
 12 13  1  0
 12 14  1  0
 12 15  1  0
 15 16  2  0
 16 17  1  0
 17 18  2  0
 18 19  1  0
 18 20  1  0
 20 21  1  0
 20 22  2  0
 22 23  1  0
 22 24  1  0
 24 25  1  0
 11 26  1  0
 26 27  1  0
 26 28  2  0
 28 29  1  0
 29 30  1  0
 30 31  1  0
 30 32  1  0
 30 33  1  0
  5 34  2  0
 34 35  1  0
 34 36  1  0
 36 37  1  0
 37 38  1  0
 37 39  1  0
 39 40  1  0
 39 41  1  0
 39 42  1  0
 37 43  1  0
 43 44  1  0
 43 45  1  0
 43 46  1  0
 36 47  2  0
 47 48  1  0
 47  2  1  0
 28  6  1  0
 24 16  1  0
M  END
>  <UniqueID>  (32) 
29

>  <SMILES>  (32) 
COc1cc(C/N=c2/nc(Cl)cc[nH]2)ccc1-c1cccc(C(C)C)c1

>  <Energy>  (32) 
53.692217282026384

>  <Genealogy>  (32) 
COc1cc(C/N=c2/nc(Cl)cc[nH]2)ccc1-c1cccc(C(C)C)c1 (cis-trans isomerization)
COc1cc(C/N=c2/nc(Cl)cc[nH]2)ccc1-c1cccc(C(C)C)c1 (3D coordinates assigned)
COc1cc(C/N=c2/nc(Cl)cc[nH]2)ccc1-c1cccc(C(C)C)c1 (optimized conformer: 53.692217282026384 kcal/mol)

>  <smiles>  (32) 
COc1cc(CN=c2nc(Cl)cc[nH]2)ccc1-c1cccc(C(C)C)c1

>  <score_type>  (32) 
oracle

>  <origin>  (32) 
adg

>  <m_score__min__energy>  (32) 
-8.9900000000000002

>  <m_primary>  (32) 
energy

$$$$
32:0
     RDKit          3D

 55 57  0  0  0  0  0  0  0  0999 V2000
   -3.2150   24.0470  -29.7610 C   0  0  0  0  0  0  0  0  0  0  0  0
   -3.4920   25.2320  -30.4600 O   0  0  0  0  0  0  0  0  0  0  0  0
   -4.6230   24.9930  -31.1750 N   0  0  0  0  0  0  0  0  0  0  0  0
   -5.7430   25.6650  -30.5120 C   0  0  0  0  0  0  0  0  0  0  0  0
   -6.8200   24.6670  -30.0510 C   0  0  0  0  0  0  0  0  0  0  0  0
   -7.3430   23.8080  -31.2090 C   0  0  0  0  0  0  0  0  0  0  0  0
   -6.6860   22.5020  -31.2390 N   0  0  0  0  0  0  0  0  0  0  0  0
   -5.3900   22.3170  -31.0560 N   0  0  0  0  0  0  0  0  0  0  0  0
   -5.1310   21.0300  -31.2140 N   0  0  0  0  0  0  0  0  0  0  0  0
   -6.2330   20.3560  -31.5090 N   0  0  0  0  0  0  0  0  0  0  0  0
   -7.2080   21.2870  -31.5130 C   0  0  0  0  0  0  0  0  0  0  0  0
   -8.6400   20.9990  -31.8720 C   0  0  0  0  0  0  0  0  0  0  0  0
   -8.7300   19.9600  -32.9980 C   0  0  0  0  0  0  0  0  0  0  0  0
   -8.1210   18.6390  -32.5950 C   0  0  0  0  0  0  0  0  0  0  0  0
   -8.6200   18.0010  -31.6280 O   0  0  0  0  0  0  0  0  0  0  0  0
   -6.9510   18.1170  -33.2570 N   0  0  0  0  0  0  0  0  0  0  0  0
   -6.0250   19.0040  -33.9760 C   0  0  0  0  0  0  0  0  0  0  0  0
   -4.5830   18.5290  -33.7930 C   0  0  0  0  0  0  0  0  0  0  0  0
   -4.4900   17.0880  -34.0510 N   0  0  0  0  0  0  0  0  0  0  0  0
   -3.3590   16.5500  -34.7620 C   0  0  0  0  0  0  0  0  0  0  0  0
   -3.4940   15.3980  -35.5570 C   0  0  0  0  0  0  0  0  0  0  0  0
   -2.3920   14.8850  -36.2490 C   0  0  0  0  0  0  0  0  0  0  0  0
   -1.1490   15.5190  -36.1570 C   0  0  0  0  0  0  0  0  0  0  0  0
    0.2320   14.8750  -37.0280 Cl  0  0  0  0  0  0  0  0  0  0  0  0
   -1.0070   16.6670  -35.3710 C   0  0  0  0  0  0  0  0  0  0  0  0
   -2.1070   17.1810  -34.6770 C   0  0  0  0  0  0  0  0  0  0  0  0
   -5.3950   16.2060  -33.3080 C   0  0  0  0  0  0  0  0  0  0  0  0
   -6.8400   16.6700  -33.4890 C   0  0  0  0  0  0  0  0  0  0  0  0
   -3.2602   24.2404  -28.6791 H   0  0  0  0  0  0  0  0  0  0  0  0
   -3.9584   23.2815  -30.0280 H   0  0  0  0  0  0  0  0  0  0  0  0
   -2.2093   23.6903  -30.0280 H   0  0  0  0  0  0  0  0  0  0  0  0
   -4.7900   23.9600  -31.1670 H   0  0  0  0  0  0  0  0  0  0  0  0
   -5.3626   26.2081  -29.6343 H   0  0  0  0  0  0  0  0  0  0  0  0
   -6.2039   26.3535  -31.2356 H   0  0  0  0  0  0  0  0  0  0  0  0
   -6.3868   24.0057  -29.2861 H   0  0  0  0  0  0  0  0  0  0  0  0
   -7.6656   25.2432  -29.6474 H   0  0  0  0  0  0  0  0  0  0  0  0
   -8.4263   23.6617  -31.0861 H   0  0  0  0  0  0  0  0  0  0  0  0
   -7.1259   24.3283  -32.1536 H   0  0  0  0  0  0  0  0  0  0  0  0
   -4.1820   20.6040  -31.1300 H   0  0  0  0  0  0  0  0  0  0  0  0
   -9.1620   20.6126  -30.9842 H   0  0  0  0  0  0  0  0  0  0  0  0
   -9.1070   21.9322  -32.2200 H   0  0  0  0  0  0  0  0  0  0  0  0
   -9.7885   19.8010  -33.2514 H   0  0  0  0  0  0  0  0  0  0  0  0
   -8.1687   20.3446  -33.8623 H   0  0  0  0  0  0  0  0  0  0  0  0
   -6.2755   18.9983  -35.0471 H   0  0  0  0  0  0  0  0  0  0  0  0
   -6.1196   20.0226  -33.5716 H   0  0  0  0  0  0  0  0  0  0  0  0
   -3.9307   19.0673  -34.4963 H   0  0  0  0  0  0  0  0  0  0  0  0
   -4.2661   18.7307  -32.7591 H   0  0  0  0  0  0  0  0  0  0  0  0
   -4.4707   14.8980  -35.6350 H   0  0  0  0  0  0  0  0  0  0  0  0
   -2.5033   13.9815  -36.8665 H   0  0  0  0  0  0  0  0  0  0  0  0
   -0.0294   17.1660  -35.2986 H   0  0  0  0  0  0  0  0  0  0  0  0
   -1.9910   18.0849  -34.0609 H   0  0  0  0  0  0  0  0  0  0  0  0
   -5.2925   15.1776  -33.6846 H   0  0  0  0  0  0  0  0  0  0  0  0
   -5.1357   16.2388  -32.2395 H   0  0  0  0  0  0  0  0  0  0  0  0
   -7.1673   16.4420  -34.5141 H   0  0  0  0  0  0  0  0  0  0  0  0
   -7.4754   16.1441  -32.7611 H   0  0  0  0  0  0  0  0  0  0  0  0
  1  2  1  0
  2  3  1  0
  3  4  1  0
  4  5  1  0
  5  6  1  0
  6  7  1  0
  7  8  1  0
  8  9  2  0
  9 10  1  0
 10 11  2  0
 11 12  1  0
 12 13  1  0
 13 14  1  0
 14 15  2  0
 14 16  1  0
 16 17  1  0
 17 18  1  0
 18 19  1  0
 19 20  1  0
 20 21  2  0
 21 22  1  0
 22 23  2  0
 23 24  1  0
 23 25  1  0
 25 26  2  0
 19 27  1  0
 27 28  1  0
 11  7  1  0
 28 16  1  0
 26 20  1  0
  1 29  1  0
  1 30  1  0
  1 31  1  0
  3 32  1  0
  4 33  1  0
  4 34  1  0
  5 35  1  0
  5 36  1  0
  6 37  1  0
  6 38  1  0
  9 39  1  0
 12 40  1  0
 12 41  1  0
 13 42  1  0
 13 43  1  0
 17 44  1  0
 17 45  1  0
 18 46  1  0
 18 47  1  0
 21 48  1  0
 22 49  1  0
 25 50  1  0
 26 51  1  0
 27 52  1  0
 27 53  1  0
 28 54  1  0
 28 55  1  0
M  CHG  1   9   1
M  END
>  <UniqueID>  (33) 
30

>  <SMILES>  (33) 
CONCCCn1n[nH+]nc1CCC(=O)N1CCN(c2ccc(Cl)cc2)CC1

>  <Energy>  (33) 
91.56087117664613

>  <Genealogy>  (33) 
CONCCCn1n[nH+]nc1CCC(=O)N1CCN(c2ccc(Cl)cc2)CC1 (protonated)
CONCCCn1n[nH+]nc1CCC(=O)N1CCN(c2ccc(Cl)cc2)CC1 (3D coordinates assigned)
CONCCCn1n[nH+]nc1CCC(=O)N1CCN(c2ccc(Cl)cc2)CC1 (nonaromatic ring conformer: 91.56087117664613 kcal/mol)

>  <smiles>  (33) 
CONCCCn1nnnc1CCC(=O)N1CCN(c2ccc(Cl)cc2)CC1

>  <score_type>  (33) 
oracle

>  <origin>  (33) 
adg

>  <m_score__min__energy>  (33) 
-8.6899999999999995

>  <m_primary>  (33) 
energy

$$$$
33:0
     RDKit          3D

 48 52  0  0  0  0  0  0  0  0999 V2000
   -0.5100   23.3100  -25.2920 C   0  0  0  0  0  0  0  0  0  0  0  0
   -0.6390   24.2590  -26.4100 N   0  0  0  0  0  0  0  0  0  0  0  0
   -0.6780   23.5380  -27.7060 C   0  0  0  0  0  0  0  0  0  0  0  0
   -1.4490   24.3060  -28.7840 C   0  0  0  0  0  0  0  0  0  0  0  0
   -2.8170   24.5470  -28.3180 N   0  0  0  0  0  0  0  0  0  0  0  0
   -3.9080   24.5470  -29.2540 C   0  0  0  0  0  0  0  0  0  0  0  0
   -5.1750   24.2150  -28.9530 N   0  0  0  0  0  0  0  0  0  0  0  0
   -5.8000   24.3640  -30.1360 C   0  0  0  0  0  0  0  0  0  0  0  0
   -7.2410   24.0400  -30.3700 C   0  0  0  0  0  0  0  0  0  0  0  0
   -7.3600   22.7320  -31.1040 C   0  0  0  0  0  0  0  0  0  0  0  0
   -8.6120   22.1100  -31.2400 C   0  0  0  0  0  0  0  0  0  0  0  0
   -8.7280   20.9100  -31.9490 C   0  0  0  0  0  0  0  0  0  0  0  0
   -7.6000   20.3250  -32.5320 C   0  0  0  0  0  0  0  0  0  0  0  0
   -6.3600   20.9820  -32.4610 C   0  0  0  0  0  0  0  0  0  0  0  0
   -6.2390   22.1700  -31.7330 C   0  0  0  0  0  0  0  0  0  0  0  0
   -4.9840   20.4140  -33.4620 S   0  0  0  0  0  0  0  0  0  0  0  0
   -5.3020   18.6680  -33.2110 C   0  0  0  0  0  0  0  0  0  0  0  0
   -4.2280   17.7710  -33.1570 C   0  0  0  0  0  0  0  0  0  0  0  0
   -4.4670   16.3930  -33.1610 C   0  0  0  0  0  0  0  0  0  0  0  0
   -5.7780   15.9090  -33.2320 C   0  0  0  0  0  0  0  0  0  0  0  0
   -6.8530   16.8030  -33.2660 C   0  0  0  0  0  0  0  0  0  0  0  0
   -6.6230   18.1830  -33.2230 C   0  0  0  0  0  0  0  0  0  0  0  0
   -7.7130   19.0550  -33.1120 O   0  0  0  0  0  0  0  0  0  0  0  0
   -4.9500   24.7540  -31.1090 N   0  0  0  0  0  0  0  0  0  0  0  0
   -3.7920   24.8610  -30.5230 O   0  0  0  0  0  0  0  0  0  0  0  0
   -3.0560   24.7930  -26.8920 C   0  0  0  0  0  0  0  0  0  0  0  0
   -1.7570   25.2090  -26.1860 C   0  0  0  0  0  0  0  0  0  0  0  0
   -0.5840   23.8541  -24.3388 H   0  0  0  0  0  0  0  0  0  0  0  0
   -1.3148   22.5624  -25.3509 H   0  0  0  0  0  0  0  0  0  0  0  0
    0.4651   22.8044  -25.3509 H   0  0  0  0  0  0  0  0  0  0  0  0
    0.3539   23.3827  -28.0540 H   0  0  0  0  0  0  0  0  0  0  0  0
   -1.1983   22.5830  -27.5406 H   0  0  0  0  0  0  0  0  0  0  0  0
   -0.9514   25.2677  -28.9776 H   0  0  0  0  0  0  0  0  0  0  0  0
   -1.4731   23.7162  -29.7122 H   0  0  0  0  0  0  0  0  0  0  0  0
   -5.5790   23.8940  -28.0450 H   0  0  0  0  0  0  0  0  0  0  0  0
   -7.7593   23.9637  -29.4027 H   0  0  0  0  0  0  0  0  0  0  0  0
   -7.6974   24.8372  -30.9751 H   0  0  0  0  0  0  0  0  0  0  0  0
   -9.5039   22.5680  -30.7875 H   0  0  0  0  0  0  0  0  0  0  0  0
   -9.7102   20.4248  -32.0483 H   0  0  0  0  0  0  0  0  0  0  0  0
   -5.2604   22.6660  -31.6532 H   0  0  0  0  0  0  0  0  0  0  0  0
   -3.1964   18.1502  -33.1114 H   0  0  0  0  0  0  0  0  0  0  0  0
   -3.6235   15.6889  -33.1083 H   0  0  0  0  0  0  0  0  0  0  0  0
   -5.9631   14.8251  -33.2611 H   0  0  0  0  0  0  0  0  0  0  0  0
   -7.8825   16.4204  -33.3267 H   0  0  0  0  0  0  0  0  0  0  0  0
   -3.7987   25.5972  -26.7841 H   0  0  0  0  0  0  0  0  0  0  0  0
   -3.4268   23.8656  -26.4311 H   0  0  0  0  0  0  0  0  0  0  0  0
   -1.4560   26.1979  -26.5622 H   0  0  0  0  0  0  0  0  0  0  0  0
   -1.9625   25.2226  -25.1055 H   0  0  0  0  0  0  0  0  0  0  0  0
  1  2  1  0
  2  3  1  0
  3  4  1  0
  4  5  1  0
  5  6  1  0
  6  7  2  0
  7  8  1  0
  8  9  1  0
  9 10  1  0
 10 11  2  0
 11 12  1  0
 12 13  2  0
 13 14  1  0
 14 15  2  0
 14 16  1  0
 16 17  1  0
 17 18  2  0
 18 19  1  0
 19 20  2  0
 20 21  1  0
 21 22  2  0
 22 23  1  0
  8 24  2  0
 24 25  1  0
  5 26  1  0
 26 27  1  0
 27  2  1  0
 25  6  1  0
 15 10  1  0
 22 17  1  0
 23 13  1  0
  1 28  1  0
  1 29  1  0
  1 30  1  0
  3 31  1  0
  3 32  1  0
  4 33  1  0
  4 34  1  0
  7 35  1  0
  9 36  1  0
  9 37  1  0
 11 38  1  0
 12 39  1  0
 15 40  1  0
 18 41  1  0
 19 42  1  0
 20 43  1  0
 21 44  1  0
 26 45  1  0
 26 46  1  0
 27 47  1  0
 27 48  1  0
M  CHG  1   7   1
M  END
>  <UniqueID>  (34) 
31

>  <SMILES>  (34) 
CN1CCN(c2[nH+]c(Cc3ccc4c(c3)Sc3ccccc3O4)no2)CC1

>  <Energy>  (34) 
108.52016806838562

>  <Genealogy>  (34) 
CN1CCN(c2[nH+]c(Cc3ccc4c(c3)Sc3ccccc3O4)no2)CC1 (protonated)
CN1CCN(c2[nH+]c(Cc3ccc4c(c3)Sc3ccccc3O4)no2)CC1 (3D coordinates assigned)
CN1CCN(c2[nH+]c(Cc3ccc4c(c3)Sc3ccccc3O4)no2)CC1 (nonaromatic ring conformer: 108.52016806838562 kcal/mol)

>  <smiles>  (34) 
CN1CCN(c2nc(Cc3ccc4c(c3)Sc3ccccc3O4)no2)CC1

>  <score_type>  (34) 
oracle

>  <origin>  (34) 
adg

>  <m_score__min__energy>  (34) 
-9.6799999999999997

>  <m_primary>  (34) 
energy

$$$$
34:0
     RDKit          3D

 42 44  0  0  0  0  0  0  0  0999 V2000
   -6.3790   14.4250  -34.1990 C   0  0  0  0  0  0  0  0  0  0  0  0
   -7.0270   15.6520  -34.5210 O   0  0  0  0  0  0  0  0  0  0  0  0
   -6.6980   16.8920  -33.9550 C   0  0  0  0  0  0  0  0  0  0  0  0
   -7.2560   17.2270  -32.7160 C   0  0  0  0  0  0  0  0  0  0  0  0
   -6.9600   18.4500  -32.1100 C   0  0  0  0  0  0  0  0  0  0  0  0
   -6.0900   19.3630  -32.7330 C   0  0  0  0  0  0  0  0  0  0  0  0
   -5.7740   20.6630  -32.0900 C   0  0  0  0  0  0  0  0  0  0  0  0
   -4.4750   21.1990  -32.1630 C   0  0  0  0  0  0  0  0  0  0  0  0
   -4.1820   22.4280  -31.5680 C   0  0  0  0  0  0  0  0  0  0  0  0
   -5.1800   23.1420  -30.8940 C   0  0  0  0  0  0  0  0  0  0  0  0
   -4.8310   24.7100  -30.1720 S   0  0  0  0  0  0  0  0  0  0  0  0
   -5.0050   25.7750  -31.2180 O   0  0  0  0  0  0  0  0  0  0  0  0
   -5.7620   24.9930  -29.0250 O   0  0  0  0  0  0  0  0  0  0  0  0
   -3.1940   24.7400  -29.5960 N   0  0  0  0  0  0  0  0  0  0  0  0
   -2.6110   23.8070  -28.6720 C   0  0  0  0  0  0  0  0  0  0  0  0
   -3.2350   22.5700  -28.4100 C   0  0  0  0  0  0  0  0  0  0  0  0
   -2.6670   21.6620  -27.5170 C   0  0  0  0  0  0  0  0  0  0  0  0
   -1.4760   21.9720  -26.8680 C   0  0  0  0  0  0  0  0  0  0  0  0
   -0.8490   23.1950  -27.1040 C   0  0  0  0  0  0  0  0  0  0  0  0
   -1.4000   24.1290  -28.0050 C   0  0  0  0  0  0  0  0  0  0  0  0
   -0.6840   25.4140  -28.2360 C   0  0  0  0  0  0  0  0  0  0  0  0
    0.4770   25.5850  -27.7740 O   0  0  0  0  0  0  0  0  0  0  0  0
   -1.2620   26.4440  -28.9690 O   0  0  0  0  0  0  0  0  0  0  0  0
   -6.4740   22.6130  -30.8120 C   0  0  0  0  0  0  0  0  0  0  0  0
   -6.7700   21.3810  -31.4040 C   0  0  0  0  0  0  0  0  0  0  0  0
   -5.5290   19.0260  -33.9770 C   0  0  0  0  0  0  0  0  0  0  0  0
   -5.8300   17.8040  -34.5850 C   0  0  0  0  0  0  0  0  0  0  0  0
   -6.3217   14.3165  -33.1059 H   0  0  0  0  0  0  0  0  0  0  0  0
   -6.9517   13.5861  -34.6212 H   0  0  0  0  0  0  0  0  0  0  0  0
   -5.3633   14.4249  -34.6212 H   0  0  0  0  0  0  0  0  0  0  0  0
   -7.9340   16.5205  -32.2148 H   0  0  0  0  0  0  0  0  0  0  0  0
   -7.4105   18.7011  -31.1384 H   0  0  0  0  0  0  0  0  0  0  0  0
   -3.6849   20.6462  -32.6923 H   0  0  0  0  0  0  0  0  0  0  0  0
   -3.1626   22.8368  -31.6292 H   0  0  0  0  0  0  0  0  0  0  0  0
   -4.1793   22.3187  -28.9151 H   0  0  0  0  0  0  0  0  0  0  0  0
   -3.1617   20.6984  -27.3252 H   0  0  0  0  0  0  0  0  0  0  0  0
   -1.0284   21.2514  -26.1678 H   0  0  0  0  0  0  0  0  0  0  0  0
    0.0882   23.4343  -26.5801 H   0  0  0  0  0  0  0  0  0  0  0  0
   -7.2604   23.1685  -30.2801 H   0  0  0  0  0  0  0  0  0  0  0  0
   -7.7882   20.9709  -31.3327 H   0  0  0  0  0  0  0  0  0  0  0  0
   -4.8472   19.7301  -34.4763 H   0  0  0  0  0  0  0  0  0  0  0  0
   -5.3867   17.5537  -35.5601 H   0  0  0  0  0  0  0  0  0  0  0  0
  1  2  1  0
  2  3  1  0
  3  4  2  0
  4  5  1  0
  5  6  2  0
  6  7  1  0
  7  8  2  0
  8  9  1  0
  9 10  2  0
 10 11  1  0
 11 12  2  0
 11 13  2  0
 11 14  1  0
 14 15  1  0
 15 16  2  0
 16 17  1  0
 17 18  2  0
 18 19  1  0
 19 20  2  0
 20 21  1  0
 21 22  2  0
 21 23  1  0
 10 24  1  0
 24 25  2  0
  6 26  1  0
 26 27  2  0
 27  3  1  0
 25  7  1  0
 20 15  1  0
  1 28  1  0
  1 29  1  0
  1 30  1  0
  4 31  1  0
  5 32  1  0
  8 33  1  0
  9 34  1  0
 16 35  1  0
 17 36  1  0
 18 37  1  0
 19 38  1  0
 24 39  1  0
 25 40  1  0
 26 41  1  0
 27 42  1  0
M  CHG  2  14  -1  23  -1
M  END
>  <UniqueID>  (35) 
32

>  <SMILES>  (35) 
COc1ccc(-c2ccc(S(=O)(=O)[N-]c3ccccc3C(=O)[O-])cc2)cc1

>  <Energy>  (35) 
55.809400694371995

>  <Genealogy>  (35) 
COc1ccc(-c2ccc(S(=O)(=O)[N-]c3ccccc3C(=O)[O-])cc2)cc1 (protonated)
COc1ccc(-c2ccc(S(=O)(=O)[N-]c3ccccc3C(=O)[O-])cc2)cc1 (3D coordinates assigned)
COc1ccc(-c2ccc(S(=O)(=O)[N-]c3ccccc3C(=O)[O-])cc2)cc1 (optimized conformer: 55.809400694371995 kcal/mol)

>  <smiles>  (35) 
COc1ccc(-c2ccc(S(=O)(=O)Nc3ccccc3C(=O)O)cc2)cc1

>  <score_type>  (35) 
oracle

>  <origin>  (35) 
adg

>  <m_score__min__energy>  (35) 
-12.44

>  <m_primary>  (35) 
energy

$$$$
35:0
     RDKit          3D

 51 53  0  0  0  0  0  0  0  0999 V2000
   -2.2490   21.9080  -31.9040 C   0  0  0  0  0  0  0  0  0  0  0  0
   -3.5910   22.2360  -32.2480 O   0  0  0  0  0  0  0  0  0  0  0  0
   -4.6630   21.3270  -32.2630 C   0  0  0  0  0  0  0  0  0  0  0  0
   -4.4370   19.9400  -32.2410 C   0  0  0  0  0  0  0  0  0  0  0  0
   -5.5010   19.0460  -32.2540 C   0  0  0  0  0  0  0  0  0  0  0  0
   -6.8180   19.5100  -32.2870 C   0  0  0  0  0  0  0  0  0  0  0  0
   -7.8790   18.5900  -32.2990 C   0  0  0  0  0  0  0  0  0  0  0  0
   -9.1990   19.0370  -32.3320 C   0  0  0  0  0  0  0  0  0  0  0  0
   -9.4730   20.4020  -32.3540 C   0  0  0  0  0  0  0  0  0  0  0  0
   -8.4300   21.3320  -32.3430 C   0  0  0  0  0  0  0  0  0  0  0  0
   -7.0810   20.9070  -32.3110 C   0  0  0  0  0  0  0  0  0  0  0  0
   -5.9890   21.8250  -32.2990 C   0  0  0  0  0  0  0  0  0  0  0  0
   -6.2090   23.3310  -32.3520 C   0  0  0  0  0  0  0  0  0  0  0  0
   -7.0570   23.8410  -31.1730 C   0  0  0  0  0  0  0  0  0  0  0  0
   -6.3410   24.8990  -30.3190 C   0  0  0  0  0  0  0  0  0  0  0  0
   -5.4670   24.2810  -29.3220 N   0  0  0  0  0  0  0  0  0  0  0  0
   -4.0370   24.3000  -29.4250 C   0  0  0  0  0  0  0  0  0  0  0  0
   -3.4860   24.7630  -30.4620 O   0  0  0  0  0  0  0  0  0  0  0  0
   -3.1950   23.7040  -28.3200 C   0  0  0  0  0  0  0  0  0  0  0  0
   -1.7520   23.4710  -28.8060 C   0  0  0  0  0  0  0  0  0  0  0  0
   -0.9640   24.7850  -28.9830 C   0  0  0  0  0  0  0  0  0  0  0  0
   -1.2750   25.8470  -27.9080 C   0  0  0  0  0  0  0  0  0  0  0  0
   -1.9320   25.2460  -26.6620 C   0  0  0  0  0  0  0  0  0  0  0  0
   -3.2550   24.5420  -27.0100 C   0  0  0  0  0  0  0  0  0  0  0  0
   -2.1468   21.8830  -30.8090 H   0  0  0  0  0  0  0  0  0  0  0  0
   -1.9949   20.9213  -32.3186 H   0  0  0  0  0  0  0  0  0  0  0  0
   -1.5684   22.6662  -32.3186 H   0  0  0  0  0  0  0  0  0  0  0  0
   -3.4060   19.5576  -32.2132 H   0  0  0  0  0  0  0  0  0  0  0  0
   -5.3043   17.9638  -32.2382 H   0  0  0  0  0  0  0  0  0  0  0  0
   -7.6673   17.5107  -32.2823 H   0  0  0  0  0  0  0  0  0  0  0  0
  -10.0250   18.3106  -32.3407 H   0  0  0  0  0  0  0  0  0  0  0  0
  -10.5161   20.7502  -32.3802 H   0  0  0  0  0  0  0  0  0  0  0  0
   -8.6607   22.4074  -32.3594 H   0  0  0  0  0  0  0  0  0  0  0  0
   -5.2302   23.8323  -32.3263 H   0  0  0  0  0  0  0  0  0  0  0  0
   -6.7535   23.5584  -33.2804 H   0  0  0  0  0  0  0  0  0  0  0  0
   -7.9810   24.2833  -31.5737 H   0  0  0  0  0  0  0  0  0  0  0  0
   -7.2579   22.9786  -30.5204 H   0  0  0  0  0  0  0  0  0  0  0  0
   -5.7356   25.5397  -30.9770 H   0  0  0  0  0  0  0  0  0  0  0  0
   -7.1036   25.4901  -29.7907 H   0  0  0  0  0  0  0  0  0  0  0  0
   -5.9080   23.7480  -28.5390 H   0  0  0  0  0  0  0  0  0  0  0  0
   -3.6230   22.7238  -28.0632 H   0  0  0  0  0  0  0  0  0  0  0  0
   -1.2293   22.8438  -28.0688 H   0  0  0  0  0  0  0  0  0  0  0  0
   -1.8076   22.9819  -29.7897 H   0  0  0  0  0  0  0  0  0  0  0  0
    0.1105   24.5534  -28.9411 H   0  0  0  0  0  0  0  0  0  0  0  0
   -1.2652   25.2114  -29.9512 H   0  0  0  0  0  0  0  0  0  0  0  0
   -0.3345   26.3338  -27.6107 H   0  0  0  0  0  0  0  0  0  0  0  0
   -1.9829   26.5669  -28.3446 H   0  0  0  0  0  0  0  0  0  0  0  0
   -1.2446   24.5143  -26.2124 H   0  0  0  0  0  0  0  0  0  0  0  0
   -2.1488   26.0620  -25.9569 H   0  0  0  0  0  0  0  0  0  0  0  0
   -3.5189   23.8699  -26.1802 H   0  0  0  0  0  0  0  0  0  0  0  0
   -4.0055   25.3305  -27.1682 H   0  0  0  0  0  0  0  0  0  0  0  0
  1  2  1  0
  2  3  1  0
  3  4  2  0
  4  5  1  0
  5  6  2  0
  6  7  1  0
  7  8  2  0
  8  9  1  0
  9 10  2  0
 10 11  1  0
 11 12  2  0
 12 13  1  0
 13 14  1  0
 14 15  1  0
 15 16  1  0
 16 17  1  0
 17 18  2  0
 17 19  1  0
 19 20  1  0
 20 21  1  0
 21 22  1  0
 22 23  1  0
 23 24  1  0
 12  3  1  0
 24 19  1  0
 11  6  1  0
  1 25  1  0
  1 26  1  0
  1 27  1  0
  4 28  1  0
  5 29  1  0
  7 30  1  0
  8 31  1  0
  9 32  1  0
 10 33  1  0
 13 34  1  0
 13 35  1  0
 14 36  1  0
 14 37  1  0
 15 38  1  0
 15 39  1  0
 16 40  1  0
 19 41  1  0
 20 42  1  0
 20 43  1  0
 21 44  1  0
 21 45  1  0
 22 46  1  0
 22 47  1  0
 23 48  1  0
 23 49  1  0
 24 50  1  0
 24 51  1  0
M  END
>  <UniqueID>  (36) 
33

>  <SMILES>  (36) 
COc1ccc2ccccc2c1CCCNC(=O)C1CCCCC1

>  <Energy>  (36) 
54.70810551616616

>  <Genealogy>  (36) 
COc1ccc2ccccc2c1CCCNC(=O)C1CCCCC1 (3D coordinates assigned)
COc1ccc2ccccc2c1CCCNC(=O)C1CCCCC1 (nonaromatic ring conformer: 54.70810551616616 kcal/mol)

>  <smiles>  (36) 
COc1ccc2ccccc2c1CCCNC(=O)C1CCCCC1

>  <score_type>  (36) 
oracle

>  <origin>  (36) 
adg

>  <m_score__min__energy>  (36) 
-9.5999999999999996

>  <m_primary>  (36) 
energy

$$$$
36:0
     RDKit          3D

 91 95  0  0  0  0  0  0  0  0999 V2000
   -1.0440   14.3950  -32.0250 C   0  0  0  0  0  0  0  0  0  0  0  0
   -2.0830   13.6110  -32.8120 C   0  0  0  0  0  0  0  0  0  0  0  0
   -2.9860   14.5330  -33.4860 N   0  0  0  0  0  0  0  0  0  0  0  0
   -4.3630   14.6730  -33.1260 C   0  0  0  0  0  0  0  0  0  0  0  0
   -5.2430   13.9720  -33.6980 O   0  0  0  0  0  0  0  0  0  0  0  0
   -4.7320   15.6020  -32.0070 C   0  0  0  0  0  0  0  0  0  0  0  0
   -6.0990   16.3030  -32.1890 C   0  0  1  0  0  0  0  0  0  0  0  0
   -6.2590   17.4780  -31.2300 C   0  0  0  0  0  0  0  0  0  0  0  0
   -5.7510   18.8700  -31.7350 C   0  0  2  0  0  0  0  0  0  0  0  0
   -6.8890   19.8650  -31.5360 C   0  0  0  0  0  0  0  0  0  0  0  0
   -8.0590   19.4290  -31.3370 O   0  0  0  0  0  0  0  0  0  0  0  0
   -6.6600   21.2860  -31.5250 N   0  0  0  0  0  0  0  0  0  0  0  0
   -7.6430   22.1600  -32.1800 C   0  0  0  0  0  0  0  0  0  0  0  0
   -7.1610   23.6160  -32.2130 C   0  0  0  0  0  0  0  0  0  0  0  0
   -6.7540   24.1000  -30.8130 C   0  0  0  0  0  0  0  0  0  0  0  0
   -5.9080   23.0780  -30.0200 C   0  0  0  0  0  0  0  0  0  0  0  0
   -5.4870   21.8660  -30.8570 C   0  0  0  0  0  0  0  0  0  0  0  0
   -5.0880   18.9620  -33.1920 C   0  0  1  0  0  0  0  0  0  0  0  0
   -5.3220   20.3550  -33.8490 C   0  0  0  0  0  0  0  0  0  0  0  0
   -3.5530   18.7040  -33.1900 C   0  0  0  0  0  0  0  0  0  0  0  0
   -3.0120   17.8080  -34.1220 C   0  0  0  0  0  0  0  0  0  0  0  0
   -1.7020   17.6430  -33.7970 C   0  0  0  0  0  0  0  0  0  0  0  0
   -0.7240   16.8630  -34.4110 C   0  0  0  0  0  0  0  0  0  0  0  0
    0.5810   16.9280  -33.9070 C   0  0  0  0  0  0  0  0  0  0  0  0
    0.8840   17.7690  -32.8130 C   0  0  0  0  0  0  0  0  0  0  0  0
    2.3060   17.9050  -32.3410 C   0  0  0  0  0  0  0  0  0  0  0  0
    2.4090   17.5230  -30.8580 C   0  0  0  0  0  0  0  0  0  0  0  0
    2.2980   18.7060  -29.9250 C   0  0  0  0  0  0  0  0  0  0  0  0
    3.1840   19.6040  -29.9460 O   0  0  0  0  0  0  0  0  0  0  0  0
    1.1950   18.8220  -28.9990 N   0  0  0  0  0  0  0  0  0  0  0  0
    0.1960   17.7560  -28.8880 C   0  0  0  0  0  0  0  0  0  0  0  0
    1.0850   20.0240  -28.1640 C   0  0  0  0  0  0  0  0  0  0  0  0
   -0.1300   18.5600  -32.2310 C   0  0  0  0  0  0  0  0  0  0  0  0
   -1.4390   18.4800  -32.7450 C   0  0  0  0  0  0  0  0  0  0  0  0
   -2.5390   19.2170  -32.3920 N   0  0  0  0  0  0  0  0  0  0  0  0
   -2.3590   20.5870  -31.8240 C   0  0  0  0  0  0  0  0  0  0  0  0
   -1.4170   21.5200  -32.5790 C   0  0  0  0  0  0  0  0  0  0  0  0
   -2.0670   20.5440  -30.3180 C   0  0  0  0  0  0  0  0  0  0  0  0
   -3.7230   17.1920  -35.2960 C   0  0  0  0  0  0  0  0  0  0  0  0
   -5.1210   17.7880  -35.4410 C   0  0  0  0  0  0  0  0  0  0  0  0
   -5.7020   17.9450  -34.0980 N   0  0  0  0  0  0  0  0  0  0  0  0
   -6.3660   16.7780  -33.5800 C   0  0  0  0  0  0  0  0  0  0  0  0
   -7.1610   16.1270  -34.3120 O   0  0  0  0  0  0  0  0  0  0  0  0
   -1.2219   14.2608  -30.9478 H   0  0  0  0  0  0  0  0  0  0  0  0
   -0.0384   14.0287  -32.2790 H   0  0  0  0  0  0  0  0  0  0  0  0
   -1.1203   15.4625  -32.2790 H   0  0  0  0  0  0  0  0  0  0  0  0
   -1.5775   12.9820  -33.5596 H   0  0  0  0  0  0  0  0  0  0  0  0
   -2.6586   12.9753  -32.1231 H   0  0  0  0  0  0  0  0  0  0  0  0
   -4.7636   15.0216  -31.0731 H   0  0  0  0  0  0  0  0  0  0  0  0
   -3.9699   16.3951  -31.9905 H   0  0  0  0  0  0  0  0  0  0  0  0
   -6.8380   15.5206  -31.9616 H   0  0  0  0  0  0  0  0  0  0  0  0
   -7.3300   17.5772  -30.9998 H   0  0  0  0  0  0  0  0  0  0  0  0
   -5.6246   17.2345  -30.3650 H   0  0  0  0  0  0  0  0  0  0  0  0
   -4.8688   19.1105  -31.1236 H   0  0  0  0  0  0  0  0  0  0  0  0
   -7.8010   21.8116  -33.2113 H   0  0  0  0  0  0  0  0  0  0  0  0
   -8.5808   22.1180  -31.6066 H   0  0  0  0  0  0  0  0  0  0  0  0
   -6.2931   23.6912  -32.8847 H   0  0  0  0  0  0  0  0  0  0  0  0
   -7.9867   24.2475  -32.5727 H   0  0  0  0  0  0  0  0  0  0  0  0
   -6.1679   25.0244  -30.9226 H   0  0  0  0  0  0  0  0  0  0  0  0
   -7.6834   24.2550  -30.2453 H   0  0  0  0  0  0  0  0  0  0  0  0
   -5.0015   23.5828  -29.6547 H   0  0  0  0  0  0  0  0  0  0  0  0
   -6.5333   22.7051  -29.1954 H   0  0  0  0  0  0  0  0  0  0  0  0
   -4.7555   22.1829  -31.6150 H   0  0  0  0  0  0  0  0  0  0  0  0
   -5.0361   21.1101  -30.1973 H   0  0  0  0  0  0  0  0  0  0  0  0
   -5.4495   21.1142  -33.0633 H   0  0  0  0  0  0  0  0  0  0  0  0
   -4.4551   20.6160  -34.4738 H   0  0  0  0  0  0  0  0  0  0  0  0
   -6.2266   20.3184  -34.4738 H   0  0  0  0  0  0  0  0  0  0  0  0
   -0.9696   16.2157  -35.2658 H   0  0  0  0  0  0  0  0  0  0  0  0
    1.3750   16.3205  -34.3658 H   0  0  0  0  0  0  0  0  0  0  0  0
    2.9511   17.2397  -32.9336 H   0  0  0  0  0  0  0  0  0  0  0  0
    2.6285   18.9491  -32.4668 H   0  0  0  0  0  0  0  0  0  0  0  0
    1.5995   16.8163  -30.6229 H   0  0  0  0  0  0  0  0  0  0  0  0
    3.4044   17.0807  -30.7048 H   0  0  0  0  0  0  0  0  0  0  0  0
   -0.0003   17.5466  -27.8261 H   0  0  0  0  0  0  0  0  0  0  0  0
   -0.7362   18.0747  -29.3773 H   0  0  0  0  0  0  0  0  0  0  0  0
    0.5745   16.8464  -29.3773 H   0  0  0  0  0  0  0  0  0  0  0  0
    1.1113   19.7367  -27.1025 H   0  0  0  0  0  0  0  0  0  0  0  0
    1.9250   20.6999  -28.3818 H   0  0  0  0  0  0  0  0  0  0  0  0
    0.1362   20.5362  -28.3818 H   0  0  0  0  0  0  0  0  0  0  0  0
    0.0987   19.2291  -31.3884 H   0  0  0  0  0  0  0  0  0  0  0  0
   -3.3392   21.0627  -31.9756 H   0  0  0  0  0  0  0  0  0  0  0  0
   -0.8260   22.1054  -31.8592 H   0  0  0  0  0  0  0  0  0  0  0  0
   -0.7409   20.9255  -33.2110 H   0  0  0  0  0  0  0  0  0  0  0  0
   -2.0050   22.2018  -33.2110 H   0  0  0  0  0  0  0  0  0  0  0  0
   -3.0041   20.6820  -29.7587 H   0  0  0  0  0  0  0  0  0  0  0  0
   -1.6246   19.5710  -30.0579 H   0  0  0  0  0  0  0  0  0  0  0  0
   -1.3629   21.3482  -30.0579 H   0  0  0  0  0  0  0  0  0  0  0  0
   -3.1477   17.3888  -36.2127 H   0  0  0  0  0  0  0  0  0  0  0  0
   -3.8114   16.1079  -35.1321 H   0  0  0  0  0  0  0  0  0  0  0  0
   -5.0571   18.7688  -35.9348 H   0  0  0  0  0  0  0  0  0  0  0  0
   -5.7527   17.1249  -36.0503 H   0  0  0  0  0  0  0  0  0  0  0  0
  1  2  1  0
  2  3  1  0
  3  4  1  0
  4  5  2  0
  4  6  1  0
  6  7  1  0
  7  8  1  0
  8  9  1  0
  9 10  1  0
 10 11  2  0
 10 12  1  0
 12 13  1  0
 13 14  1  0
 14 15  1  0
 15 16  1  0
 16 17  1  0
  9 18  1  0
 18 19  1  6
 18 20  1  0
 20 21  2  0
 21 22  1  0
 22 23  2  0
 23 24  1  0
 24 25  2  0
 25 26  1  0
 26 27  1  0
 27 28  1  0
 28 29  2  0
 28 30  1  0
 30 31  1  0
 30 32  1  0
 25 33  1  0
 33 34  2  0
 34 35  1  0
 35 36  1  0
 36 37  1  0
 36 38  1  0
 21 39  1  0
 39 40  1  0
 40 41  1  0
 41 42  1  0
 42 43  2  0
 42  7  1  0
 17 12  1  0
 41 18  1  0
 35 20  1  0
 34 22  1  0
  1 44  1  0
  1 45  1  0
  1 46  1  0
  2 47  1  0
  2 48  1  0
  6 49  1  0
  6 50  1  0
  7 51  1  1
  8 52  1  0
  8 53  1  0
  9 54  1  1
 13 55  1  0
 13 56  1  0
 14 57  1  0
 14 58  1  0
 15 59  1  0
 15 60  1  0
 16 61  1  0
 16 62  1  0
 17 63  1  0
 17 64  1  0
 19 65  1  0
 19 66  1  0
 19 67  1  0
 23 68  1  0
 24 69  1  0
 26 70  1  0
 26 71  1  0
 27 72  1  0
 27 73  1  0
 31 74  1  0
 31 75  1  0
 31 76  1  0
 32 77  1  0
 32 78  1  0
 32 79  1  0
 33 80  1  0
 36 81  1  0
 37 82  1  0
 37 83  1  0
 37 84  1  0
 38 85  1  0
 38 86  1  0
 38 87  1  0
 39 88  1  0
 39 89  1  0
 40 90  1  0
 40 91  1  0
M  CHG  1   3  -1
M  END
>  <UniqueID>  (37) 
34

>  <SMILES>  (37) 
CC[N-]C(=O)C[C@H]1C[C@H](C(=O)N2CCCCC2)C2(C)c3c(c4ccc(CCC(=O)N(C)C)cc4n3C(C)C)CCN2C1=O

>  <Energy>  (37) 
160.3908166972282

>  <Genealogy>  (37) 
CC[N-]C(=O)CC1CC(C(=O)N2CCCCC2)C2(C)c3c(c4ccc(CCC(=O)N(C)C)cc4n3C(C)C)CCN2C1=O (protonated)
CC[N-]C(=O)C[C@H]1C[C@H](C(=O)N2CCCCC2)C2(C)c3c(c4ccc(CCC(=O)N(C)C)cc4n3C(C)C)CCN2C1=O (chirality)
CC[N-]C(=O)C[C@H]1C[C@H](C(=O)N2CCCCC2)C2(C)c3c(c4ccc(CCC(=O)N(C)C)cc4n3C(C)C)CCN2C1=O (3D coordinates assigned)
CC[N-]C(=O)C[C@H]1C[C@H](C(=O)N2CCCCC2)C2(C)c3c(c4ccc(CCC(=O)N(C)C)cc4n3C(C)C)CCN2C1=O (nonaromatic ring conformer: 160.3908166972282 kcal/mol)

>  <smiles>  (37) 
CCNC(=O)CC1CC(C(=O)N2CCCCC2)C2(C)c3c(c4ccc(CCC(=O)N(C)C)cc4n3C(C)C)CCN2C1=O

>  <score_type>  (37) 
oracle

>  <origin>  (37) 
adg

>  <m_score__min__energy>  (37) 
-9.6999999999999993

>  <m_primary>  (37) 
energy

$$$$
37:0
     RDKit          3D

 27 27  0  0  1  0  0  0  0  0999 V2000
   -1.4220   26.0190  -26.5860 C   0  0  0  0  0  0  0  0  0  0  0  0
   -0.9470   26.1700  -28.0070 C   0  0  0  0  0  0  0  0  0  0  0  0
   -1.6340   25.2630  -28.9040 N   0  0  0  0  0  0  0  0  0  0  0  0
   -1.7590   23.8940  -28.5600 C   0  0  0  0  0  0  0  0  0  0  0  0
   -0.6230   23.1280  -28.3710 C   0  0  0  0  0  0  0  0  0  0  0  0
   -0.6890   21.8310  -28.0680 N   0  0  0  0  0  0  0  0  0  0  0  0
   -1.8710   21.2340  -27.9390 C   0  0  0  0  0  0  0  0  0  0  0  0
   -3.0550   21.9080  -28.1050 C   0  0  0  0  0  0  0  0  0  0  0  0
   -2.9760   23.2670  -28.4220 C   0  0  0  0  0  0  0  0  0  0  0  0
   -4.2490   23.9940  -28.5750 C   0  0  0  0  0  0  0  0  0  0  0  0
   -4.5310   24.4240  -29.9690 C   0  0  0  0  0  0  0  0  0  0  0  0
   -3.8620   25.4380  -30.6220 O   0  0  0  0  0  0  0  0  0  0  0  0
   -5.4680   23.8320  -30.6570 N   0  0  0  0  0  0  0  0  0  0  0  0
   -5.6790   24.0840  -31.9980 O   0  0  0  0  0  0  0  0  0  0  0  0
   -0.6050   26.2787  -25.8967 H   0  0  0  0  0  0  0  0  0  0  0  0
   -2.2761   26.6899  -26.4116 H   0  0  0  0  0  0  0  0  0  0  0  0
   -1.7319   24.9781  -26.4116 H   0  0  0  0  0  0  0  0  0  0  0  0
   -1.1312   27.2034  -28.3359 H   0  0  0  0  0  0  0  0  0  0  0  0
    0.1263   25.9309  -28.0356 H   0  0  0  0  0  0  0  0  0  0  0  0
   -2.0030   25.6750  -29.7830 H   0  0  0  0  0  0  0  0  0  0  0  0
    0.3640   23.6026  -28.4736 H   0  0  0  0  0  0  0  0  0  0  0  0
   -1.9003   20.1628  -27.6906 H   0  0  0  0  0  0  0  0  0  0  0  0
   -4.0245   21.4005  -27.9934 H   0  0  0  0  0  0  0  0  0  0  0  0
   -5.0659   23.3363  -28.2431 H   0  0  0  0  0  0  0  0  0  0  0  0
   -4.1706   24.9079  -27.9678 H   0  0  0  0  0  0  0  0  0  0  0  0
   -4.0360   25.6400  -31.6000 H   0  0  0  0  0  0  0  0  0  0  0  0
   -4.9970   24.7190  -32.4250 H   0  0  0  0  0  0  0  0  0  0  0  0
  1  2  1  0
  2  3  1  0
  3  4  1  0
  4  5  2  0
  5  6  1  0
  6  7  2  0
  7  8  1  0
  8  9  2  0
  9 10  1  0
 10 11  1  0
 11 12  1  0
 11 13  2  0
 13 14  1  0
  9  4  1  0
  1 15  1  0
  1 16  1  0
  1 17  1  0
  2 18  1  0
  2 19  1  0
  3 20  1  0
  5 21  1  0
  7 22  1  0
  8 23  1  0
 10 24  1  0
 10 25  1  0
 12 26  1  0
 14 27  1  0
M  END
>  <smiles>  (38) 
CCNc1cnccc1CC(O)=NO

>  <score_type>  (38) 
oracle

>  <origin>  (38) 
adg

>  <m_score__min__energy>  (38) 
-6.1600000000000001

>  <m_primary>  (38) 
energy

$$$$
38:0
     RDKit          3D

 35 36  0  0  0  0  0  0  0  0999 V2000
   -3.3940   16.2860  -35.5860 C   0  0  0  0  0  0  0  0  0  0  0  0
   -4.6100   16.9600  -35.2760 O   0  0  0  0  0  0  0  0  0  0  0  0
   -4.6980   18.1040  -34.4700 C   0  0  0  0  0  0  0  0  0  0  0  0
   -3.5320   18.5810  -33.8620 C   0  0  0  0  0  0  0  0  0  0  0  0
   -3.5680   19.7170  -33.0480 C   0  0  0  0  0  0  0  0  0  0  0  0
   -4.7750   20.3970  -32.8240 C   0  0  0  0  0  0  0  0  0  0  0  0
   -4.7780   21.5610  -31.9740 N   0  0  0  0  0  0  0  0  0  0  0  0
   -4.5590   21.5330  -30.5250 C   0  0  0  0  0  0  0  0  0  0  0  0
   -3.6990   22.7040  -30.0640 C   0  0  0  0  0  0  0  0  0  0  0  0
   -2.6050   22.5270  -29.1710 C   0  0  0  0  0  0  0  0  0  0  0  0
   -2.3040   21.1620  -28.5850 C   0  0  0  0  0  0  0  0  0  0  0  0
   -1.7940   23.6440  -28.8460 C   0  0  0  0  0  0  0  0  0  0  0  0
   -0.6150   23.5000  -28.0200 C   0  0  0  0  0  0  0  0  0  0  0  0
    0.3270   23.3830  -27.3580 N   0  0  0  0  0  0  0  0  0  0  0  0
   -2.1390   24.9150  -29.3390 C   0  0  0  0  0  0  0  0  0  0  0  0
   -1.3850   26.0540  -29.0450 O   0  0  0  0  0  0  0  0  0  0  0  0
   -3.2390   25.0600  -30.1170 N   0  0  0  0  0  0  0  0  0  0  0  0
   -4.0210   24.0140  -30.4790 C   0  0  0  0  0  0  0  0  0  0  0  0
   -5.0380   24.2370  -31.1880 O   0  0  0  0  0  0  0  0  0  0  0  0
   -5.9470   19.9200  -33.4400 C   0  0  0  0  0  0  0  0  0  0  0  0
   -5.9100   18.7850  -34.2540 C   0  0  0  0  0  0  0  0  0  0  0  0
   -2.8836   16.0031  -34.6536 H   0  0  0  0  0  0  0  0  0  0  0  0
   -3.6151   15.3817  -36.1719 H   0  0  0  0  0  0  0  0  0  0  0  0
   -2.7443   16.9528  -36.1719 H   0  0  0  0  0  0  0  0  0  0  0  0
   -2.5784   18.0577  -34.0258 H   0  0  0  0  0  0  0  0  0  0  0  0
   -2.6420   20.0811  -32.5789 H   0  0  0  0  0  0  0  0  0  0  0  0
   -4.9370   22.4970  -32.4130 H   0  0  0  0  0  0  0  0  0  0  0  0
   -5.5328   21.5833  -30.0159 H   0  0  0  0  0  0  0  0  0  0  0  0
   -4.0322   20.6003  -30.2749 H   0  0  0  0  0  0  0  0  0  0  0  0
   -2.3175   21.2233  -27.4868 H   0  0  0  0  0  0  0  0  0  0  0  0
   -3.0651   20.4426  -28.9215 H   0  0  0  0  0  0  0  0  0  0  0  0
   -1.3109   20.8294  -28.9215 H   0  0  0  0  0  0  0  0  0  0  0  0
   -1.2440   26.8080  -29.7060 H   0  0  0  0  0  0  0  0  0  0  0  0
   -6.9001   20.4451  -33.2793 H   0  0  0  0  0  0  0  0  0  0  0  0
   -6.8335   18.4219  -34.7286 H   0  0  0  0  0  0  0  0  0  0  0  0
  1  2  1  0
  2  3  1  0
  3  4  2  0
  4  5  1  0
  5  6  2  0
  6  7  1  0
  7  8  1  0
  8  9  1  0
  9 10  2  0
 10 11  1  0
 10 12  1  0
 12 13  1  0
 13 14  3  0
 12 15  2  0
 15 16  1  0
 15 17  1  0
 17 18  1  0
 18 19  2  0
  6 20  1  0
 20 21  2  0
 21  3  1  0
 18  9  1  0
  1 22  1  0
  1 23  1  0
  1 24  1  0
  4 25  1  0
  5 26  1  0
  7 27  1  0
  8 28  1  0
  8 29  1  0
 11 30  1  0
 11 31  1  0
 11 32  1  0
 16 33  1  0
 20 34  1  0
 21 35  1  0
M  CHG  1  17  -1
M  END
>  <UniqueID>  (39) 
35

>  <SMILES>  (39) 
COc1ccc(NCc2c(C)c(C#N)c(O)[n-]c2=O)cc1

>  <Energy>  (39) 
41.57929368077941

>  <Genealogy>  (39) 
COc1ccc(NCc2c(C)c(C#N)c(O)[n-]c2=O)cc1 (protonated)
COc1ccc(NCc2c(C)c(C#N)c(O)[n-]c2=O)cc1 (3D coordinates assigned)
COc1ccc(NCc2c(C)c(C#N)c(O)[n-]c2=O)cc1 (optimized conformer: 41.57929368077941 kcal/mol)

>  <smiles>  (39) 
COc1ccc(NCc2c(C)c(C#N)c(O)[nH]c2=O)cc1

>  <score_type>  (39) 
oracle

>  <origin>  (39) 
adg

>  <m_score__min__energy>  (39) 
-8.6799999999999997

>  <m_primary>  (39) 
energy

$$$$
39:0
     RDKit          3D

 35 36  0  0  0  0  0  0  0  0999 V2000
   -2.4410   17.2540  -34.6830 C   0  0  0  0  0  0  0  0  0  0  0  0
   -3.7280   16.6490  -34.6080 O   0  0  0  0  0  0  0  0  0  0  0  0
   -4.8430   17.2330  -33.9890 C   0  0  0  0  0  0  0  0  0  0  0  0
   -6.0870   16.5820  -33.9060 C   0  0  0  0  0  0  0  0  0  0  0  0
   -7.1700   17.2050  -33.2790 C   0  0  0  0  0  0  0  0  0  0  0  0
   -7.0360   18.4930  -32.7240 C   0  0  0  0  0  0  0  0  0  0  0  0
   -8.1780   19.1770  -32.0600 C   0  0  0  0  0  0  0  0  0  0  0  0
   -8.7680   18.6140  -31.0980 O   0  0  0  0  0  0  0  0  0  0  0  0
   -8.6580   20.5370  -32.4880 C   0  0  0  0  0  0  0  0  0  0  0  0
   -7.5740   21.4650  -32.5250 O   0  0  0  0  0  0  0  0  0  0  0  0
   -7.6590   22.7680  -32.0210 C   0  0  0  0  0  0  0  0  0  0  0  0
   -8.7560   23.3900  -32.0520 O   0  0  0  0  0  0  0  0  0  0  0  0
   -6.4370   23.4260  -31.5090 C   0  0  0  0  0  0  0  0  0  0  0  0
   -6.5850   24.5600  -30.6910 C   0  0  0  0  0  0  0  0  0  0  0  0
   -5.4690   25.1820  -30.1260 C   0  0  0  0  0  0  0  0  0  0  0  0
   -4.1910   24.6810  -30.3720 C   0  0  0  0  0  0  0  0  0  0  0  0
   -3.0820   25.2940  -29.8000 O   0  0  0  0  0  0  0  0  0  0  0  0
   -4.0250   23.5680  -31.1990 C   0  0  0  0  0  0  0  0  0  0  0  0
   -5.1320   22.9460  -31.7890 C   0  0  0  0  0  0  0  0  0  0  0  0
   -4.8920   21.8880  -32.6690 O   0  0  0  0  0  0  0  0  0  0  0  0
   -5.7860   19.1350  -32.8100 C   0  0  0  0  0  0  0  0  0  0  0  0
   -4.7050   18.5090  -33.4360 C   0  0  0  0  0  0  0  0  0  0  0  0
   -2.0602   17.4330  -33.6667 H   0  0  0  0  0  0  0  0  0  0  0  0
   -1.7522   16.5853  -35.2201 H   0  0  0  0  0  0  0  0  0  0  0  0
   -2.5164   18.2110  -35.2201 H   0  0  0  0  0  0  0  0  0  0  0  0
   -6.2084   15.5772  -34.3368 H   0  0  0  0  0  0  0  0  0  0  0  0
   -8.1370   16.6841  -33.2183 H   0  0  0  0  0  0  0  0  0  0  0  0
   -9.1050   20.4634  -33.4904 H   0  0  0  0  0  0  0  0  0  0  0  0
   -9.4046   20.8933  -31.7630 H   0  0  0  0  0  0  0  0  0  0  0  0
   -7.5899   24.9616  -30.4939 H   0  0  0  0  0  0  0  0  0  0  0  0
   -5.5984   26.0676  -29.4866 H   0  0  0  0  0  0  0  0  0  0  0  0
   -3.0148   23.1762  -31.3887 H   0  0  0  0  0  0  0  0  0  0  0  0
   -5.5540   21.5820  -33.3680 H   0  0  0  0  0  0  0  0  0  0  0  0
   -5.6591   20.1395  -32.3801 H   0  0  0  0  0  0  0  0  0  0  0  0
   -3.7357   19.0257  -33.4941 H   0  0  0  0  0  0  0  0  0  0  0  0
  1  2  1  0
  2  3  1  0
  3  4  2  0
  4  5  1  0
  5  6  2  0
  6  7  1  0
  7  8  2  0
  7  9  1  0
  9 10  1  0
 10 11  1  0
 11 12  2  0
 11 13  1  0
 13 14  2  0
 14 15  1  0
 15 16  2  0
 16 17  1  0
 16 18  1  0
 18 19  2  0
 19 20  1  0
  6 21  1  0
 21 22  2  0
 22  3  1  0
 19 13  1  0
  1 23  1  0
  1 24  1  0
  1 25  1  0
  4 26  1  0
  5 27  1  0
  9 28  1  0
  9 29  1  0
 14 30  1  0
 15 31  1  0
 18 32  1  0
 20 33  1  0
 21 34  1  0
 22 35  1  0
M  CHG  1  17  -1
M  END
>  <UniqueID>  (40) 
36

>  <SMILES>  (40) 
COc1ccc(C(=O)COC(=O)c2ccc([O-])cc2O)cc1

>  <Energy>  (40) 
39.72554854730144

>  <Genealogy>  (40) 
COc1ccc(C(=O)COC(=O)c2ccc([O-])cc2O)cc1 (protonated)
COc1ccc(C(=O)COC(=O)c2ccc([O-])cc2O)cc1 (3D coordinates assigned)
COc1ccc(C(=O)COC(=O)c2ccc([O-])cc2O)cc1 (optimized conformer: 39.72554854730144 kcal/mol)

>  <smiles>  (40) 
COc1ccc(C(=O)COC(=O)c2ccc(O)cc2O)cc1

>  <score_type>  (40) 
oracle

>  <origin>  (40) 
adg

>  <m_score__min__energy>  (40) 
-10.16

>  <m_primary>  (40) 
energy

$$$$
40:0
     RDKit          3D

 43 46  0  0  0  0  0  0  0  0999 V2000
   -0.7600   20.9520  -28.9170 H   0  0  0  0  0  0  0  0  0  0  0  0
   -0.5070   21.8570  -29.3630 N   0  0  0  0  0  0  0  0  0  0  0  0
   -1.1960   22.9600  -29.3180 C   0  0  0  0  0  0  0  0  0  0  0  0
   -2.4110   23.0270  -30.0370 C   0  0  0  0  0  0  0  0  0  0  0  0
   -3.1490   24.2170  -30.0380 C   0  0  0  0  0  0  0  0  0  0  0  0
   -2.7140   25.2960  -29.3430 N   0  0  0  0  0  0  0  0  0  0  0  0
   -1.5670   25.2720  -28.6190 C   0  0  0  0  0  0  0  0  0  0  0  0
   -1.1840   26.4210  -27.9160 C   0  0  0  0  0  0  0  0  0  0  0  0
   -1.8114   27.3236  -27.9576 H   0  0  0  0  0  0  0  0  0  0  0  0
   -0.0110   26.4250  -27.1640 C   0  0  0  0  0  0  0  0  0  0  0  0
    0.2850   27.3298  -26.6129 H   0  0  0  0  0  0  0  0  0  0  0  0
    0.7880   25.2840  -27.1090 C   0  0  0  0  0  0  0  0  0  0  0  0
    1.7127   25.2917  -26.5133 H   0  0  0  0  0  0  0  0  0  0  0  0
    0.4200   24.1300  -27.8070 C   0  0  0  0  0  0  0  0  0  0  0  0
    1.0591   23.2361  -27.7563 H   0  0  0  0  0  0  0  0  0  0  0  0
   -0.7660   24.1000  -28.5780 C   0  0  0  0  0  0  0  0  0  0  0  0
   -4.4100   24.2980  -30.8460 C   0  0  0  0  0  0  0  0  0  0  0  0
   -4.9832   25.1846  -30.5371 H   0  0  0  0  0  0  0  0  0  0  0  0
   -4.1492   24.3722  -31.9121 H   0  0  0  0  0  0  0  0  0  0  0  0
   -5.2630   23.0400  -30.6250 C   0  0  0  0  0  0  0  0  0  0  0  0
   -5.7223   23.1045  -29.6275 H   0  0  0  0  0  0  0  0  0  0  0  0
   -6.0080   23.0148  -31.4339 H   0  0  0  0  0  0  0  0  0  0  0  0
   -4.4580   21.7020  -30.7100 C   0  0  1  0  0  0  0  0  0  0  0  0
   -4.6032   21.2293  -29.7274 H   0  0  0  0  0  0  0  0  0  0  0  0
   -5.0020   20.7850  -31.7960 C   0  0  0  0  0  0  0  0  0  0  0  0
   -4.1180   19.9510  -32.5060 C   0  0  0  0  0  0  0  0  0  0  0  0
   -3.0428   19.9819  -32.2756 H   0  0  0  0  0  0  0  0  0  0  0  0
   -4.5830   19.0850  -33.4980 C   0  0  0  0  0  0  0  0  0  0  0  0
   -3.3070   17.9910  -34.4200 Br  0  0  0  0  0  0  0  0  0  0  0  0
   -5.9560   19.0340  -33.7920 C   0  0  0  0  0  0  0  0  0  0  0  0
   -6.4670   18.1860  -34.7760 O   0  0  0  0  0  0  0  0  0  0  0  0
   -6.8600   18.5260  -35.6440 H   0  0  0  0  0  0  0  0  0  0  0  0
   -6.8440   19.8490  -33.0860 C   0  0  0  0  0  0  0  0  0  0  0  0
   -7.9187   19.8057  -33.3165 H   0  0  0  0  0  0  0  0  0  0  0  0
   -6.3850   20.7250  -32.0840 C   0  0  0  0  0  0  0  0  0  0  0  0
   -7.2730   21.5400  -31.3600 O   0  0  0  0  0  0  0  0  0  0  0  0
   -8.6920   21.4540  -31.4280 C   0  0  0  0  0  0  0  0  0  0  0  0
   -9.1070   21.4288  -30.4096 H   0  0  0  0  0  0  0  0  0  0  0  0
   -9.0872   22.3298  -31.9635 H   0  0  0  0  0  0  0  0  0  0  0  0
   -8.9785   20.5368  -31.9635 H   0  0  0  0  0  0  0  0  0  0  0  0
   -2.9290   21.8860  -30.8860 C   0  0  0  0  0  0  0  0  0  0  0  0
   -2.4197   20.9577  -30.5879 H   0  0  0  0  0  0  0  0  0  0  0  0
   -2.7266   22.1192  -31.9418 H   0  0  0  0  0  0  0  0  0  0  0  0
  1  2  1  0
  2  3  2  0
  3  4  1  0
  4  5  2  0
  5  6  1  0
  6  7  1  0
  7  8  2  0
  8  9  1  0
  8 10  1  0
 10 11  1  0
 10 12  2  0
 12 13  1  0
 12 14  1  0
 14 15  1  0
 14 16  2  0
  5 17  1  0
 17 18  1  0
 17 19  1  0
 17 20  1  0
 20 21  1  0
 20 22  1  0
 20 23  1  0
 23 24  1  1
 23 25  1  0
 25 26  2  0
 26 27  1  0
 26 28  1  0
 28 29  1  0
 28 30  2  0
 30 31  1  0
 31 32  1  0
 30 33  1  0
 33 34  1  0
 33 35  2  0
 35 36  1  0
 36 37  1  0
 37 38  1  0
 37 39  1  0
 37 40  1  0
 23 41  1  0
 41 42  1  0
 41 43  1  0
 16  3  1  0
 35 25  1  0
 41  4  1  0
 16  7  1  0
M  CHG  1   6  -1
M  END
>  <UniqueID>  (41) 
37

>  <SMILES>  (41) 
[H]/N=c1/c2c([n-]c3ccccc13)CC[C@@H](c1cc(Br)c(O)cc1OC)C2

>  <Energy>  (41) 
63.9902557042812

>  <Genealogy>  (41) 
COc1cc(O)c(Br)cc1C1CCc2[n-]c3ccccc3c(=N)c2C1 (protonated)
COc1cc(O)c(Br)cc1[C@@H]1CCc2[n-]c3ccccc3c(=N)c2C1 (chirality)
[H]/N=c1/c2c([n-]c3ccccc13)CC[C@@H](c1cc(Br)c(O)cc1OC)C2 (cis-trans isomerization)
[H]/N=c1/c2c([n-]c3ccccc13)CC[C@@H](c1cc(Br)c(O)cc1OC)C2 (3D coordinates assigned)
[H]/N=c1/c2c([n-]c3ccccc13)CC[C@@H](c1cc(Br)c(O)cc1OC)C2 (nonaromatic ring conformer: 63.9902557042812 kcal/mol)

>  <smiles>  (41) 
COc1cc(O)c(Br)cc1C1CCc2[nH]c3ccccc3c(=N)c2C1

>  <score_type>  (41) 
oracle

>  <origin>  (41) 
adg

>  <m_score__min__energy>  (41) 
-9.1099999999999994

>  <m_primary>  (41) 
energy

$$$$
41:0
     RDKit          3D

 32 32  0  0  0  0  0  0  0  0999 V2000
   -9.4560   21.6010  -31.1050 C   0  0  0  0  0  0  0  0  0  0  0  0
   -8.8480   22.7320  -31.9280 C   0  0  0  0  0  0  0  0  0  0  0  0
   -7.4130   22.8390  -31.6600 N   0  0  0  0  0  0  0  0  0  0  0  0
   -6.8060   23.8350  -30.9920 C   0  0  0  0  0  0  0  0  0  0  0  0
   -5.4450   23.6110  -31.0390 C   0  0  0  0  0  0  0  0  0  0  0  0
   -4.4150   24.4600  -30.4120 C   0  0  0  0  0  0  0  0  0  0  0  0
   -4.2600   25.6360  -30.8410 O   0  0  0  0  0  0  0  0  0  0  0  0
   -3.5950   23.9930  -29.3180 N   0  0  0  0  0  0  0  0  0  0  0  0
   -4.1020   24.1700  -27.9540 C   0  0  0  0  0  0  0  0  0  0  0  0
   -2.2370   23.4640  -29.5350 C   0  0  0  0  0  0  0  0  0  0  0  0
   -1.1860   24.3280  -28.8350 C   0  0  0  0  0  0  0  0  0  0  0  0
   -1.5220   25.6930  -28.9670 O   0  0  0  0  0  0  0  0  0  0  0  0
   -0.9140   26.4290  -27.9310 C   0  0  0  0  0  0  0  0  0  0  0  0
   -5.1900   22.4790  -31.7300 N   0  0  0  0  0  0  0  0  0  0  0  0
   -6.4130   22.0440  -32.1000 C   0  0  0  0  0  0  0  0  0  0  0  0
   -6.6300   20.6950  -33.0050 S   0  0  0  0  0  0  0  0  0  0  0  0
   -9.3372   21.8220  -30.0340 H   0  0  0  0  0  0  0  0  0  0  0  0
  -10.5257   21.5079  -31.3437 H   0  0  0  0  0  0  0  0  0  0  0  0
   -8.9436   20.6574  -31.3437 H   0  0  0  0  0  0  0  0  0  0  0  0
   -9.0033   22.5269  -32.9975 H   0  0  0  0  0  0  0  0  0  0  0  0
   -9.3357   23.6785  -31.6517 H   0  0  0  0  0  0  0  0  0  0  0  0
   -7.3059   24.6797  -30.4954 H   0  0  0  0  0  0  0  0  0  0  0  0
   -3.3177   23.8962  -27.2329 H   0  0  0  0  0  0  0  0  0  0  0  0
   -4.3883   25.2213  -27.8028 H   0  0  0  0  0  0  0  0  0  0  0  0
   -4.9804   23.5254  -27.8028 H   0  0  0  0  0  0  0  0  0  0  0  0
   -2.1831   22.4404  -29.1359 H   0  0  0  0  0  0  0  0  0  0  0  0
   -2.0296   23.4717  -30.6153 H   0  0  0  0  0  0  0  0  0  0  0  0
   -1.1476   24.0632  -27.7680 H   0  0  0  0  0  0  0  0  0  0  0  0
   -0.2039   24.1500  -29.2973 H   0  0  0  0  0  0  0  0  0  0  0  0
   -1.2415   26.0326  -26.9586 H   0  0  0  0  0  0  0  0  0  0  0  0
    0.1795   26.3425  -28.0127 H   0  0  0  0  0  0  0  0  0  0  0  0
   -1.2053   27.4866  -28.0127 H   0  0  0  0  0  0  0  0  0  0  0  0
  1  2  1  0
  2  3  1  0
  3  4  1  0
  4  5  2  0
  5  6  1  0
  6  7  2  0
  6  8  1  0
  8  9  1  0
  8 10  1  0
 10 11  1  0
 11 12  1  0
 12 13  1  0
  5 14  1  0
 14 15  1  0
 15 16  2  0
 15  3  1  0
  1 17  1  0
  1 18  1  0
  1 19  1  0
  2 20  1  0
  2 21  1  0
  4 22  1  0
  9 23  1  0
  9 24  1  0
  9 25  1  0
 10 26  1  0
 10 27  1  0
 11 28  1  0
 11 29  1  0
 13 30  1  0
 13 31  1  0
 13 32  1  0
M  CHG  1  14  -1
M  END
>  <UniqueID>  (42) 
38

>  <SMILES>  (42) 
CCn1cc(C(=O)N(C)CCOC)[n-]c1=S

>  <Energy>  (42) 
56.04980646658705

>  <Genealogy>  (42) 
CCn1cc(C(=O)N(C)CCOC)[n-]c1=S (protonated)
CCn1cc(C(=O)N(C)CCOC)[n-]c1=S (3D coordinates assigned)
CCn1cc(C(=O)N(C)CCOC)[n-]c1=S (optimized conformer: 56.04980646658705 kcal/mol)

>  <smiles>  (42) 
CCn1cc(C(=O)N(C)CCOC)[nH]c1=S

>  <score_type>  (42) 
oracle

>  <origin>  (42) 
adg

>  <m_score__min__energy>  (42) 
-6.4199999999999999

>  <m_primary>  (42) 
energy

$$$$
42:0
     RDKit          3D

 36 37  0  0  0  0  0  0  0  0999 V2000
   -9.1760   22.5980  -31.9670 C   0  0  0  0  0  0  0  0  0  0  0  0
   -8.8300   21.2780  -31.2760 C   0  0  0  0  0  0  0  0  0  0  0  0
   -8.6100   20.1740  -32.2400 N   0  0  0  0  0  0  0  0  0  0  0  0
   -8.7730   18.8640  -31.5650 C   0  0  0  0  0  0  0  0  0  0  0  0
   -7.7130   17.8490  -31.9930 C   0  0  0  0  0  0  0  0  0  0  0  0
   -7.3510   20.2980  -33.0250 C   0  0  0  0  0  0  0  0  0  0  0  0
   -6.1450   20.8500  -32.2370 C   0  0  0  0  0  0  0  0  0  0  0  0
   -6.0190   22.2960  -32.4340 N   0  0  0  0  0  0  0  0  0  0  0  0
   -5.1740   23.1310  -31.6210 C   0  0  0  0  0  0  0  0  0  0  0  0
   -5.6030   24.4100  -31.1640 C   0  0  0  0  0  0  0  0  0  0  0  0
   -4.7610   25.2100  -30.3700 C   0  0  0  0  0  0  0  0  0  0  0  0
   -3.5030   24.7090  -30.0510 C   0  0  0  0  0  0  0  0  0  0  0  0
   -2.5490   25.2970  -29.3130 N   0  0  0  0  0  0  0  0  0  0  0  0
   -1.5600   24.3680  -29.3380 C   0  0  0  0  0  0  0  0  0  0  0  0
   -0.4610   24.5380  -28.7480 O   0  0  0  0  0  0  0  0  0  0  0  0
   -1.8410   23.2420  -30.0410 N   0  0  0  0  0  0  0  0  0  0  0  0
   -3.0830   23.4890  -30.4820 C   0  0  0  0  0  0  0  0  0  0  0  0
   -3.8850   22.6680  -31.2690 C   0  0  0  0  0  0  0  0  0  0  0  0
   -9.3777   23.3676  -31.2074 H   0  0  0  0  0  0  0  0  0  0  0  0
   -8.3308   22.9156  -32.5953 H   0  0  0  0  0  0  0  0  0  0  0  0
  -10.0683   22.4601  -32.5953 H   0  0  0  0  0  0  0  0  0  0  0  0
   -7.9128   21.4187  -30.6853 H   0  0  0  0  0  0  0  0  0  0  0  0
   -9.6825   21.0006  -30.6386 H   0  0  0  0  0  0  0  0  0  0  0  0
   -8.6979   19.0155  -30.4781 H   0  0  0  0  0  0  0  0  0  0  0  0
   -9.7560   18.4611  -31.8502 H   0  0  0  0  0  0  0  0  0  0  0  0
   -7.2490   17.4047  -31.1000 H   0  0  0  0  0  0  0  0  0  0  0  0
   -8.1848   17.0573  -32.5935 H   0  0  0  0  0  0  0  0  0  0  0  0
   -6.9424   18.3547  -32.5935 H   0  0  0  0  0  0  0  0  0  0  0  0
   -7.0843   19.2999  -33.4027 H   0  0  0  0  0  0  0  0  0  0  0  0
   -7.5564   21.0258  -33.8239 H   0  0  0  0  0  0  0  0  0  0  0  0
   -6.2869   20.6420  -31.1662 H   0  0  0  0  0  0  0  0  0  0  0  0
   -5.2294   20.3612  -32.6013 H   0  0  0  0  0  0  0  0  0  0  0  0
   -6.5680   22.7520  -33.2000 H   0  0  0  0  0  0  0  0  0  0  0  0
   -6.6041   24.7765  -31.4350 H   0  0  0  0  0  0  0  0  0  0  0  0
   -5.0864   26.1984  -30.0134 H   0  0  0  0  0  0  0  0  0  0  0  0
   -3.5259   21.6852  -31.6082 H   0  0  0  0  0  0  0  0  0  0  0  0
  1  2  1  0
  2  3  1  0
  3  4  1  0
  4  5  1  0
  3  6  1  0
  6  7  1  0
  7  8  1  0
  8  9  1  0
  9 10  2  0
 10 11  1  0
 11 12  2  0
 12 13  1  0
 13 14  1  0
 14 15  2  0
 14 16  1  0
 16 17  1  0
 17 18  2  0
 18  9  1  0
 17 12  1  0
  1 19  1  0
  1 20  1  0
  1 21  1  0
  2 22  1  0
  2 23  1  0
  4 24  1  0
  4 25  1  0
  5 26  1  0
  5 27  1  0
  5 28  1  0
  6 29  1  0
  6 30  1  0
  7 31  1  0
  7 32  1  0
  8 33  1  0
 10 34  1  0
 11 35  1  0
 18 36  1  0
M  CHG  2  13  -1  16  -1
M  END
>  <UniqueID>  (43) 
39

>  <SMILES>  (43) 
CCN(CC)CCNc1ccc2[n-]c(=O)[n-]c2c1

>  <Energy>  (43) 
72.21469483805338

>  <Genealogy>  (43) 
CCN(CC)CCNc1ccc2[n-]c(=O)[n-]c2c1 (protonated)
CCN(CC)CCNc1ccc2[n-]c(=O)[n-]c2c1 (3D coordinates assigned)
CCN(CC)CCNc1ccc2[n-]c(=O)[n-]c2c1 (optimized conformer: 72.21469483805338 kcal/mol)

>  <smiles>  (43) 
CCN(CC)CCNc1ccc2[nH]c(=O)[nH]c2c1

>  <score_type>  (43) 
oracle

>  <origin>  (43) 
adg

>  <m_score__min__energy>  (43) 
-8.9900000000000002

>  <m_primary>  (43) 
energy

$$$$
43:0
     RDKit          3D

 49 52  0  0  0  0  0  0  0  0999 V2000
   -5.9820   25.9960  -29.7320 O   0  0  0  0  0  0  0  0  0  0  0  0
   -5.3200   25.2930  -30.5410 C   0  0  0  0  0  0  0  0  0  0  0  0
   -6.0340   24.4500  -31.5640 C   0  0  0  0  0  0  0  0  0  0  0  0
   -6.1700   23.0330  -31.1650 N   0  0  0  0  0  0  0  0  0  0  0  0
   -7.2350   22.7850  -30.1660 C   0  0  0  0  0  0  0  0  0  0  0  0
   -8.4240   22.0250  -30.7810 C   0  0  0  0  0  0  0  0  0  0  0  0
   -8.0680   20.7710  -31.3490 O   0  0  0  0  0  0  0  0  0  0  0  0
   -6.7490   20.7350  -31.8840 C   0  0  0  0  0  0  0  0  0  0  0  0
   -6.2120   22.1080  -32.3180 C   0  0  0  0  0  0  0  0  0  0  0  0
   -3.8920   25.2870  -30.4880 N   0  0  0  0  0  0  0  0  0  0  0  0
   -3.1380   24.5480  -29.4870 C   0  0  0  0  0  0  0  0  0  0  0  0
   -2.6050   23.2800  -30.0980 C   0  0  0  0  0  0  0  0  0  0  0  0
   -3.1130   22.8820  -31.2950 N   0  0  0  0  0  0  0  0  0  0  0  0
   -2.6690   21.7660  -31.9230 C   0  0  0  0  0  0  0  0  0  0  0  0
   -3.2200   21.3890  -33.1540 C   0  0  0  0  0  0  0  0  0  0  0  0
   -2.7630   20.2370  -33.8010 C   0  0  0  0  0  0  0  0  0  0  0  0
   -1.7540   19.4610  -33.2230 C   0  0  0  0  0  0  0  0  0  0  0  0
   -1.1980   19.8320  -31.9930 C   0  0  0  0  0  0  0  0  0  0  0  0
   -1.6520   20.9910  -31.3340 C   0  0  0  0  0  0  0  0  0  0  0  0
   -1.1260   21.4120  -30.1010 C   0  0  0  0  0  0  0  0  0  0  0  0
   -0.2100   20.7400  -29.5460 O   0  0  0  0  0  0  0  0  0  0  0  0
   -1.6040   22.5490  -29.5000 N   0  0  0  0  0  0  0  0  0  0  0  0
   -1.0350   22.9750  -28.2490 C   0  0  0  0  0  0  0  0  0  0  0  0
   -1.3170   22.2670  -27.0710 C   0  0  0  0  0  0  0  0  0  0  0  0
   -0.7480   22.6670  -25.8590 C   0  0  0  0  0  0  0  0  0  0  0  0
    0.0990   23.7800  -25.8150 C   0  0  0  0  0  0  0  0  0  0  0  0
    0.3740   24.4940  -26.9860 C   0  0  0  0  0  0  0  0  0  0  0  0
   -0.1930   24.0950  -28.2000 C   0  0  0  0  0  0  0  0  0  0  0  0
   -7.0401   24.8669  -31.7186 H   0  0  0  0  0  0  0  0  0  0  0  0
   -5.4293   24.4723  -32.4826 H   0  0  0  0  0  0  0  0  0  0  0  0
   -6.8185   22.1885  -29.3410 H   0  0  0  0  0  0  0  0  0  0  0  0
   -7.5992   23.7575  -29.8032 H   0  0  0  0  0  0  0  0  0  0  0  0
   -9.1699   21.8497  -29.9918 H   0  0  0  0  0  0  0  0  0  0  0  0
   -8.8164   22.6484  -31.5979 H   0  0  0  0  0  0  0  0  0  0  0  0
   -6.0753   20.3273  -31.1159 H   0  0  0  0  0  0  0  0  0  0  0  0
   -6.7895   20.1093  -32.7878 H   0  0  0  0  0  0  0  0  0  0  0  0
   -5.1966   21.9883  -32.7238 H   0  0  0  0  0  0  0  0  0  0  0  0
   -6.8793   22.5255  -33.0863 H   0  0  0  0  0  0  0  0  0  0  0  0
   -2.2995   25.1642  -29.1303 H   0  0  0  0  0  0  0  0  0  0  0  0
   -3.7956   24.2999  -28.6408 H   0  0  0  0  0  0  0  0  0  0  0  0
   -4.0124   21.9993  -33.6119 H   0  0  0  0  0  0  0  0  0  0  0  0
   -3.1982   19.9406  -34.7668 H   0  0  0  0  0  0  0  0  0  0  0  0
   -1.3959   18.5563  -33.7362 H   0  0  0  0  0  0  0  0  0  0  0  0
   -0.4056   19.2176  -31.5406 H   0  0  0  0  0  0  0  0  0  0  0  0
   -1.9873   21.3954  -27.1015 H   0  0  0  0  0  0  0  0  0  0  0  0
   -0.9662   22.1062  -24.9382 H   0  0  0  0  0  0  0  0  0  0  0  0
    0.5480   24.0930  -24.8608 H   0  0  0  0  0  0  0  0  0  0  0  0
    1.0374   25.3708  -26.9516 H   0  0  0  0  0  0  0  0  0  0  0  0
    0.0219   24.6608  -29.1185 H   0  0  0  0  0  0  0  0  0  0  0  0
  1  2  2  0
  2  3  1  0
  3  4  1  0
  4  5  1  0
  5  6  1  0
  6  7  1  0
  7  8  1  0
  8  9  1  0
  2 10  1  0
 10 11  1  0
 11 12  1  0
 12 13  2  0
 13 14  1  0
 14 15  2  0
 15 16  1  0
 16 17  2  0
 17 18  1  0
 18 19  2  0
 19 20  1  0
 20 21  2  0
 20 22  1  0
 22 23  1  0
 23 24  2  0
 24 25  1  0
 25 26  2  0
 26 27  1  0
 27 28  2  0
  9  4  1  0
 22 12  1  0
 28 23  1  0
 19 14  1  0
  3 29  1  0
  3 30  1  0
  5 31  1  0
  5 32  1  0
  6 33  1  0
  6 34  1  0
  8 35  1  0
  8 36  1  0
  9 37  1  0
  9 38  1  0
 11 39  1  0
 11 40  1  0
 15 41  1  0
 16 42  1  0
 17 43  1  0
 18 44  1  0
 24 45  1  0
 25 46  1  0
 26 47  1  0
 27 48  1  0
 28 49  1  0
M  CHG  1  10  -1
M  END
>  <UniqueID>  (44) 
40

>  <SMILES>  (44) 
O=C(CN1CCOCC1)[N-]Cc1nc2ccccc2c(=O)n1-c1ccccc1

>  <Energy>  (44) 
78.28205306896345

>  <Genealogy>  (44) 
O=C(CN1CCOCC1)[N-]Cc1nc2ccccc2c(=O)n1-c1ccccc1 (protonated)
O=C(CN1CCOCC1)[N-]Cc1nc2ccccc2c(=O)n1-c1ccccc1 (3D coordinates assigned)
O=C(CN1CCOCC1)[N-]Cc1nc2ccccc2c(=O)n1-c1ccccc1 (nonaromatic ring conformer: 78.28205306896345 kcal/mol)

>  <smiles>  (44) 
O=C(CN1CCOCC1)NCc1nc2ccccc2c(=O)n1-c1ccccc1

>  <score_type>  (44) 
oracle

>  <origin>  (44) 
adg

>  <m_score__min__energy>  (44) 
-10.32

>  <m_primary>  (44) 
energy

$$$$
44:0
     RDKit          3D

 32 34  0  0  0  0  0  0  0  0999 V2000
   -3.3590   24.5460  -29.7170 C   0  0  0  0  0  0  0  0  0  0  0  0
   -4.2350   24.6000  -30.8380 O   0  0  0  0  0  0  0  0  0  0  0  0
   -5.2500   23.6660  -31.0940 C   0  0  0  0  0  0  0  0  0  0  0  0
   -5.0490   22.2610  -30.9370 C   0  0  0  0  0  0  0  0  0  0  0  0
   -6.0900   21.3500  -31.2030 C   0  0  0  0  0  0  0  0  0  0  0  0
   -7.3100   21.8780  -31.6190 C   0  0  0  0  0  0  0  0  0  0  0  0
   -7.5060   23.2140  -31.7700 C   0  0  0  0  0  0  0  0  0  0  0  0
   -6.5060   24.1480  -31.5210 C   0  0  0  0  0  0  0  0  0  0  0  0
   -8.7640   23.4070  -32.1980 N   0  0  0  0  0  0  0  0  0  0  0  0
   -9.3250   22.2060  -32.3100 N   0  0  0  0  0  0  0  0  0  0  0  0
   -8.4600   21.2610  -31.9510 N   0  0  0  0  0  0  0  0  0  0  0  0
   -8.7260   19.8260  -32.0300 C   0  0  0  0  0  0  0  0  0  0  0  0
   -7.5450   19.1170  -32.6320 C   0  0  0  0  0  0  0  0  0  0  0  0
   -7.1430   17.8690  -32.1290 C   0  0  0  0  0  0  0  0  0  0  0  0
   -6.0660   17.1900  -32.7060 C   0  0  0  0  0  0  0  0  0  0  0  0
   -5.3870   17.7490  -33.7910 C   0  0  0  0  0  0  0  0  0  0  0  0
   -5.7850   18.9870  -34.3030 C   0  0  0  0  0  0  0  0  0  0  0  0
   -6.8620   19.6690  -33.7290 C   0  0  0  0  0  0  0  0  0  0  0  0
   -3.9484   24.5823  -28.7890 H   0  0  0  0  0  0  0  0  0  0  0  0
   -2.7811   23.6105  -29.7480 H   0  0  0  0  0  0  0  0  0  0  0  0
   -2.6706   25.4034  -29.7480 H   0  0  0  0  0  0  0  0  0  0  0  0
   -4.0699   21.8857  -30.6045 H   0  0  0  0  0  0  0  0  0  0  0  0
   -5.9453   20.2658  -31.0869 H   0  0  0  0  0  0  0  0  0  0  0  0
   -6.6876   25.2249  -31.6523 H   0  0  0  0  0  0  0  0  0  0  0  0
   -9.2320   24.3140  -32.4220 H   0  0  0  0  0  0  0  0  0  0  0  0
   -8.9102   19.4334  -31.0191 H   0  0  0  0  0  0  0  0  0  0  0  0
   -9.6099   19.6567  -32.6625 H   0  0  0  0  0  0  0  0  0  0  0  0
   -7.6780   17.4238  -31.2772 H   0  0  0  0  0  0  0  0  0  0  0  0
   -5.7530   16.2146  -32.3052 H   0  0  0  0  0  0  0  0  0  0  0  0
   -4.5384   17.2145  -34.2428 H   0  0  0  0  0  0  0  0  0  0  0  0
   -5.2503   19.4253  -35.1586 H   0  0  0  0  0  0  0  0  0  0  0  0
   -7.1758   20.6410  -34.1375 H   0  0  0  0  0  0  0  0  0  0  0  0
  1  2  1  0
  2  3  1  0
  3  4  2  0
  4  5  1  0
  5  6  2  0
  6  7  1  0
  7  8  2  0
  7  9  1  0
  9 10  2  0
 10 11  1  0
 11 12  1  0
 12 13  1  0
 13 14  2  0
 14 15  1  0
 15 16  2  0
 16 17  1  0
 17 18  2  0
  8  3  1  0
 18 13  1  0
 11  6  1  0
  1 19  1  0
  1 20  1  0
  1 21  1  0
  4 22  1  0
  5 23  1  0
  8 24  1  0
  9 25  1  0
 12 26  1  0
 12 27  1  0
 14 28  1  0
 15 29  1  0
 16 30  1  0
 17 31  1  0
 18 32  1  0
M  CHG  1   9   1
M  END
>  <UniqueID>  (45) 
41

>  <SMILES>  (45) 
COc1ccc2c(c1)[nH+]nn2Cc1ccccc1

>  <Energy>  (45) 
77.54292398722421

>  <Genealogy>  (45) 
COc1ccc2c(c1)[nH+]nn2Cc1ccccc1 (protonated)
COc1ccc2c(c1)[nH+]nn2Cc1ccccc1 (3D coordinates assigned)
COc1ccc2c(c1)[nH+]nn2Cc1ccccc1 (optimized conformer: 77.54292398722421 kcal/mol)

>  <smiles>  (45) 
COc1ccc2c(c1)nnn2Cc1ccccc1

>  <score_type>  (45) 
oracle

>  <origin>  (45) 
adg

>  <m_score__min__energy>  (45) 
-7.0199999999999996

>  <m_primary>  (45) 
energy

$$$$
45:0
     RDKit          3D

 43 45  0  0  0  0  0  0  0  0999 V2000
   -5.1510   22.5360  -31.1820 C   0  0  0  0  0  0  0  0  0  0  0  0
   -5.8040   21.4880  -32.0350 C   0  0  0  0  0  0  0  0  0  0  0  0
   -7.0560   21.2350  -31.8280 N   0  0  0  0  0  0  0  0  0  0  0  0
   -7.8200   20.3190  -32.6060 C   0  0  0  0  0  0  0  0  0  0  0  0
   -9.4110   20.1510  -32.2540 S   0  0  0  0  0  0  0  0  0  0  0  0
   -7.3110   19.7760  -33.8350 N   0  0  0  0  0  0  0  0  0  0  0  0
   -5.8310   19.7110  -33.9280 C   0  0  2  0  0  0  0  0  0  0  0  0
   -5.2410   18.2780  -33.7900 C   0  0  0  0  0  0  0  0  0  0  0  0
   -4.4030   17.8560  -34.8540 C   0  0  0  0  0  0  0  0  0  0  0  0
   -3.7990   16.6040  -34.8630 C   0  0  0  0  0  0  0  0  0  0  0  0
   -4.0060   15.7260  -33.8130 C   0  0  0  0  0  0  0  0  0  0  0  0
   -4.8090   16.0990  -32.7410 C   0  0  0  0  0  0  0  0  0  0  0  0
   -5.4200   17.3750  -32.6820 C   0  0  0  0  0  0  0  0  0  0  0  0
   -6.2680   17.6730  -31.4590 C   0  0  0  0  0  0  0  0  0  0  0  0
   -6.1090   16.7000  -30.5030 F   0  0  0  0  0  0  0  0  0  0  0  0
   -5.9320   18.9110  -30.9490 F   0  0  0  0  0  0  0  0  0  0  0  0
   -7.6180   17.7030  -31.7650 F   0  0  0  0  0  0  0  0  0  0  0  0
   -5.0590   20.8630  -33.1930 C   0  0  2  0  0  0  0  0  0  0  0  0
   -3.6660   20.4410  -32.7880 C   0  0  0  0  0  0  0  0  0  0  0  0
   -3.5160   19.5000  -31.9620 O   0  0  0  0  0  0  0  0  0  0  0  0
   -2.5580   21.0970  -33.3390 O   0  0  0  0  0  0  0  0  0  0  0  0
   -1.4810   20.4770  -33.9910 C   0  0  0  0  0  0  0  0  0  0  0  0
   -0.4740   21.2070  -34.6510 C   0  0  0  0  0  0  0  0  0  0  0  0
    0.5570   20.5380  -35.3180 C   0  0  0  0  0  0  0  0  0  0  0  0
    0.5900   19.1400  -35.3350 C   0  0  0  0  0  0  0  0  0  0  0  0
   -0.4120   18.4110  -34.6920 C   0  0  0  0  0  0  0  0  0  0  0  0
   -1.4470   19.0780  -34.0280 C   0  0  0  0  0  0  0  0  0  0  0  0
   -5.3032   22.2918  -30.1203 H   0  0  0  0  0  0  0  0  0  0  0  0
   -4.0733   22.5672  -31.4002 H   0  0  0  0  0  0  0  0  0  0  0  0
   -5.5979   23.5172  -31.4002 H   0  0  0  0  0  0  0  0  0  0  0  0
   -7.6730   20.3950  -34.5990 H   0  0  0  0  0  0  0  0  0  0  0  0
   -7.7210   18.8280  -33.9990 H   0  0  0  0  0  0  0  0  0  0  0  0
   -5.6173   19.9541  -34.9793 H   0  0  0  0  0  0  0  0  0  0  0  0
   -4.2259   18.5399  -35.6971 H   0  0  0  0  0  0  0  0  0  0  0  0
   -3.1557   16.3106  -35.7056 H   0  0  0  0  0  0  0  0  0  0  0  0
   -3.5347   14.7322  -33.8268 H   0  0  0  0  0  0  0  0  0  0  0  0
   -4.9735   15.3862  -31.9195 H   0  0  0  0  0  0  0  0  0  0  0  0
   -4.9758   21.6612  -33.9453 H   0  0  0  0  0  0  0  0  0  0  0  0
   -0.4984   22.3067  -34.6419 H   0  0  0  0  0  0  0  0  0  0  0  0
    1.3432   21.1122  -35.8301 H   0  0  0  0  0  0  0  0  0  0  0  0
    1.4051   18.6151  -35.8547 H   0  0  0  0  0  0  0  0  0  0  0  0
   -0.3877   17.3114  -34.7075 H   0  0  0  0  0  0  0  0  0  0  0  0
   -2.2397   18.4991  -33.5315 H   0  0  0  0  0  0  0  0  0  0  0  0
  1  2  1  0
  2  3  2  0
  3  4  1  0
  4  5  2  0
  4  6  1  0
  6  7  1  0
  7  8  1  0
  8  9  2  0
  9 10  1  0
 10 11  2  0
 11 12  1  0
 12 13  2  0
 13 14  1  0
 14 15  1  0
 14 16  1  0
 14 17  1  0
  7 18  1  0
 18 19  1  0
 19 20  2  0
 19 21  1  0
 21 22  1  0
 22 23  2  0
 23 24  1  0
 24 25  2  0
 25 26  1  0
 26 27  2  0
 18  2  1  0
 27 22  1  0
 13  8  1  0
  1 28  1  0
  1 29  1  0
  1 30  1  0
  6 31  1  0
  6 32  1  0
  7 33  1  6
  9 34  1  0
 10 35  1  0
 11 36  1  0
 12 37  1  0
 18 38  1  6
 23 39  1  0
 24 40  1  0
 25 41  1  0
 26 42  1  0
 27 43  1  0
M  CHG  1   6   1
M  END
>  <UniqueID>  (46) 
42

>  <SMILES>  (46) 
CC1=NC(=S)[NH2+][C@H](c2ccccc2C(F)(F)F)[C@@H]1C(=O)Oc1ccccc1

>  <Energy>  (46) 
72.06384992704422

>  <Genealogy>  (46) 
CC1=NC(=S)[NH2+]C(c2ccccc2C(F)(F)F)C1C(=O)Oc1ccccc1 (protonated)
CC1=NC(=S)[NH2+][C@H](c2ccccc2C(F)(F)F)[C@@H]1C(=O)Oc1ccccc1 (chirality)
CC1=NC(=S)[NH2+][C@H](c2ccccc2C(F)(F)F)[C@@H]1C(=O)Oc1ccccc1 (3D coordinates assigned)
CC1=NC(=S)[NH2+][C@H](c2ccccc2C(F)(F)F)[C@@H]1C(=O)Oc1ccccc1 (nonaromatic ring conformer: 72.06384992704422 kcal/mol)

>  <smiles>  (46) 
CC1=NC(=S)NC(c2ccccc2C(F)(F)F)C1C(=O)Oc1ccccc1

>  <score_type>  (46) 
oracle

>  <origin>  (46) 
adg

>  <m_score__min__energy>  (46) 
-7.2800000000000002

>  <m_primary>  (46) 
energy

$$$$
