0:0
     RDKit          3D

 38 40  0  0  0  0  0  0  0  0999 V2000
   -3.5030   25.6650  -29.6950 H   0  0  0  0  0  0  0  0  0  0  0  0
   -3.7780   25.2920  -30.6290 N   0  0  0  0  0  0  0  0  0  0  0  0
   -4.9790   24.5400  -30.7930 C   0  0  0  0  0  0  0  0  0  0  0  0
   -6.0900   25.1300  -30.7580 O   0  0  0  0  0  0  0  0  0  0  0  0
   -4.9280   23.0980  -31.0900 C   0  0  0  0  0  0  0  0  0  0  0  0
   -5.1800   22.5580  -32.3370 C   0  0  0  0  0  0  0  0  0  0  0  0
   -5.6206   23.0943  -33.1904 H   0  0  0  0  0  0  0  0  0  0  0  0
   -4.7960   21.2630  -32.3350 N   0  0  0  0  0  0  0  0  0  0  0  0
   -4.7890   20.3390  -33.4780 C   0  0  1  0  0  0  0  0  0  0  0  0
   -4.4815   20.9264  -34.3557 H   0  0  0  0  0  0  0  0  0  0  0  0
   -3.7430   19.2060  -33.3110 C   0  0  0  0  0  0  0  0  0  0  0  0
   -3.0124   19.4999  -32.5429 H   0  0  0  0  0  0  0  0  0  0  0  0
   -3.2400   19.0452  -34.2760 H   0  0  0  0  0  0  0  0  0  0  0  0
   -4.3680   18.0000  -32.9190 O   0  0  0  0  0  0  0  0  0  0  0  0
   -5.1320   17.4720  -33.9930 C   0  0  0  0  0  0  0  0  0  0  0  0
   -5.7324   16.6319  -33.6138 H   0  0  0  0  0  0  0  0  0  0  0  0
   -4.4223   17.1576  -34.7724 H   0  0  0  0  0  0  0  0  0  0  0  0
   -6.0880   18.5080  -34.6360 C   0  0  0  0  0  0  0  0  0  0  0  0
   -7.0847   18.0552  -34.7437 H   0  0  0  0  0  0  0  0  0  0  0  0
   -5.6777   18.7927  -35.6161 H   0  0  0  0  0  0  0  0  0  0  0  0
   -6.2070   19.7770  -33.7780 C   0  0  1  0  0  0  0  0  0  0  0  0
   -6.7548   20.5614  -34.3209 H   0  0  0  0  0  0  0  0  0  0  0  0
   -6.9800   19.4770  -32.5560 C   0  0  0  0  0  0  0  0  0  0  0  0
   -7.5840   19.2440  -31.5970 N   0  0  0  0  0  0  0  0  0  0  0  0
   -4.3010   20.9450  -31.1490 N   0  0  0  0  0  0  0  0  0  0  0  0
   -4.3920   22.0330  -30.3620 C   0  0  0  0  0  0  0  0  0  0  0  0
   -4.0390   21.9980  -29.1070 N   0  0  0  0  0  0  0  0  0  0  0  0
   -3.4160   23.0360  -28.3410 C   0  0  0  0  0  0  0  0  0  0  0  0
   -2.0190   23.1650  -28.2900 C   0  0  0  0  0  0  0  0  0  0  0  0
   -1.3786   22.4346  -28.8061 H   0  0  0  0  0  0  0  0  0  0  0  0
   -1.4450   24.2220  -27.5830 C   0  0  0  0  0  0  0  0  0  0  0  0
   -0.3511   24.3180  -27.5185 H   0  0  0  0  0  0  0  0  0  0  0  0
   -2.2730   25.1570  -26.9580 C   0  0  0  0  0  0  0  0  0  0  0  0
   -1.8308   25.9889  -26.3902 H   0  0  0  0  0  0  0  0  0  0  0  0
   -3.6260   25.0410  -27.0500 N   0  0  0  0  0  0  0  0  0  0  0  0
   -4.2320   25.7560  -26.5880 H   0  0  0  0  0  0  0  0  0  0  0  0
   -4.2070   24.0170  -27.7330 C   0  0  0  0  0  0  0  0  0  0  0  0
   -5.3030   23.9604  -27.8073 H   0  0  0  0  0  0  0  0  0  0  0  0
  1  2  1  0
  2  3  1  0
  3  4  2  0
  3  5  1  0
  5  6  2  0
  6  7  1  0
  6  8  1  0
  8  9  1  0
  9 10  1  6
  9 11  1  0
 11 12  1  0
 11 13  1  0
 11 14  1  0
 14 15  1  0
 15 16  1  0
 15 17  1  0
 15 18  1  0
 18 19  1  0
 18 20  1  0
 18 21  1  0
 21 22  1  6
 21 23  1  0
 23 24  3  0
  8 25  1  0
 25 26  1  0
 26 27  2  0
 27 28  1  0
 28 29  2  0
 29 30  1  0
 29 31  1  0
 31 32  1  0
 31 33  2  0
 33 34  1  0
 33 35  1  0
 35 36  1  0
 35 37  2  0
 37 38  1  0
 26  5  1  0
 37 28  1  0
 21  9  1  0
M  CHG  3   2  -1  25  -1  35   1
M  END
>  <UniqueID>  (1) 
1

>  <SMILES>  (1) 
N#C[C@@H]1CCOC[C@@H]1n1cc(C([NH-])=O)/c(=N\c2ccc[nH+]c2)[n-]1

>  <Energy>  (1) 
93.3521364789328

>  <Genealogy>  (1) 
N#CC1CCOCC1n1cc(C([NH-])=O)c(=Nc2ccc[nH+]c2)[n-]1 (protonated)
N#C[C@@H]1CCOC[C@@H]1n1cc(C([NH-])=O)c(=Nc2ccc[nH+]c2)[n-]1 (chirality)
N#C[C@@H]1CCOC[C@@H]1n1cc(C([NH-])=O)/c(=N\c2ccc[nH+]c2)[n-]1 (cis-trans isomerization)
N#C[C@@H]1CCOC[C@@H]1n1cc(C([NH-])=O)/c(=N\c2ccc[nH+]c2)[n-]1 (3D coordinates assigned)
N#C[C@@H]1CCOC[C@@H]1n1cc(C([NH-])=O)/c(=N\c2ccc[nH+]c2)[n-]1 (nonaromatic ring conformer: 93.3521364789328 kcal/mol)

>  <smiles>  (1) 
N#CC1CCOCC1n1cc(C(N)=O)c(=Nc2cccnc2)[nH]1

>  <score_type>  (1) 
oracle

>  <origin>  (1) 
adg

>  <m_score__min__energy>  (1) 
-9.8200000000000003

>  <m_primary>  (1) 
energy

$$$$
1:0
     RDKit          3D

 28 29  0  0  0  0  0  0  0  0999 V2000
   -8.8140   19.4880  -32.4330 C   0  0  0  0  0  0  0  0  0  0  0  0
   -7.8650   20.3960  -32.9830 O   0  0  0  0  0  0  0  0  0  0  0  0
   -6.5090   20.0990  -33.2010 C   0  0  0  0  0  0  0  0  0  0  0  0
   -6.1100   19.0210  -34.0170 C   0  0  0  0  0  0  0  0  0  0  0  0
   -4.7570   18.7260  -34.1900 C   0  0  0  0  0  0  0  0  0  0  0  0
   -3.7850   19.4980  -33.5540 C   0  0  0  0  0  0  0  0  0  0  0  0
   -4.1640   20.5720  -32.7470 C   0  0  0  0  0  0  0  0  0  0  0  0
   -5.5220   20.8890  -32.5690 C   0  0  0  0  0  0  0  0  0  0  0  0
   -5.8940   22.0440  -31.7170 C   0  0  0  0  0  0  0  0  0  0  0  0
   -7.0660   22.0050  -30.9440 C   0  0  0  0  0  0  0  0  0  0  0  0
   -7.4160   23.0900  -30.1350 C   0  0  0  0  0  0  0  0  0  0  0  0
   -6.5960   24.2210  -30.0850 C   0  0  0  0  0  0  0  0  0  0  0  0
   -5.4200   24.2720  -30.8440 C   0  0  0  0  0  0  0  0  0  0  0  0
   -4.5770   25.4260  -30.7860 N   0  0  0  0  0  0  0  0  0  0  0  0
   -5.0690   23.1820  -31.6550 C   0  0  0  0  0  0  0  0  0  0  0  0
   -8.7689   19.5311  -31.3348 H   0  0  0  0  0  0  0  0  0  0  0  0
   -9.8240   19.7647  -32.7697 H   0  0  0  0  0  0  0  0  0  0  0  0
   -8.5822   18.4668  -32.7697 H   0  0  0  0  0  0  0  0  0  0  0  0
   -6.8711   18.4075  -34.5213 H   0  0  0  0  0  0  0  0  0  0  0  0
   -4.4565   17.8828  -34.8293 H   0  0  0  0  0  0  0  0  0  0  0  0
   -2.7194   19.2604  -33.6884 H   0  0  0  0  0  0  0  0  0  0  0  0
   -3.3931   21.1758  -32.2458 H   0  0  0  0  0  0  0  0  0  0  0  0
   -7.7123   21.1154  -30.9754 H   0  0  0  0  0  0  0  0  0  0  0  0
   -8.3383   23.0537  -29.5367 H   0  0  0  0  0  0  0  0  0  0  0  0
   -6.8751   25.0732  -29.4479 H   0  0  0  0  0  0  0  0  0  0  0  0
   -3.9520   25.6720  -31.5860 H   0  0  0  0  0  0  0  0  0  0  0  0
   -4.5730   26.0440  -29.9440 H   0  0  0  0  0  0  0  0  0  0  0  0
   -4.1422   23.2175  -32.2465 H   0  0  0  0  0  0  0  0  0  0  0  0
  1  2  1  0
  2  3  1  0
  3  4  2  0
  4  5  1  0
  5  6  2  0
  6  7  1  0
  7  8  2  0
  8  9  1  0
  9 10  2  0
 10 11  1  0
 11 12  2  0
 12 13  1  0
 13 14  1  0
 13 15  2  0
  8  3  1  0
 15  9  1  0
  1 16  1  0
  1 17  1  0
  1 18  1  0
  4 19  1  0
  5 20  1  0
  6 21  1  0
  7 22  1  0
 10 23  1  0
 11 24  1  0
 12 25  1  0
 14 26  1  0
 14 27  1  0
 15 28  1  0
M  END
>  <UniqueID>  (2) 
2

>  <SMILES>  (2) 
COc1ccccc1-c1cccc(N)c1

>  <Energy>  (2) 
33.44752754447034

>  <Genealogy>  (2) 
COc1ccccc1-c1cccc(N)c1 (3D coordinates assigned)
COc1ccccc1-c1cccc(N)c1 (optimized conformer: 33.44752754447034 kcal/mol)

>  <smiles>  (2) 
COc1ccccc1-c1cccc(N)c1

>  <score_type>  (2) 
oracle

>  <origin>  (2) 
adg

>  <m_score__min__energy>  (2) 
-6.7699999999999996

>  <m_primary>  (2) 
energy

$$$$
2:0
     RDKit          3D

 38 40  0  0  0  0  0  0  0  0999 V2000
   -7.5139   23.6137  -33.1525 H   0  0  0  0  0  0  0  0  0  0  0  0
   -7.1190   23.0170  -32.3170 C   0  0  0  0  0  0  0  0  0  0  0  0
   -7.7180   21.8400  -32.0540 C   0  0  0  0  0  0  0  0  0  0  0  0
   -8.8780   21.8350  -31.1980 C   0  0  0  0  0  0  0  0  0  0  0  0
   -9.8100   21.8300  -30.5110 N   0  0  0  0  0  0  0  0  0  0  0  0
   -7.2480   20.5410  -32.5840 C   0  0  0  0  0  0  0  0  0  0  0  0
   -7.7360   19.3510  -32.1380 N   0  0  0  0  0  0  0  0  0  0  0  0
   -7.0520   18.4540  -32.8690 C   0  0  0  0  0  0  0  0  0  0  0  0
   -7.1570   17.0650  -32.8320 C   0  0  0  0  0  0  0  0  0  0  0  0
   -7.8614   16.5652  -32.1508 H   0  0  0  0  0  0  0  0  0  0  0  0
   -6.3300   16.3240  -33.6970 C   0  0  0  0  0  0  0  0  0  0  0  0
   -6.3850   15.2254  -33.6978 H   0  0  0  0  0  0  0  0  0  0  0  0
   -5.4290   16.9830  -34.5650 C   0  0  0  0  0  0  0  0  0  0  0  0
   -4.7878   16.3936  -35.2369 H   0  0  0  0  0  0  0  0  0  0  0  0
   -5.3470   18.3890  -34.5750 C   0  0  0  0  0  0  0  0  0  0  0  0
   -4.6492   18.9160  -35.2423 H   0  0  0  0  0  0  0  0  0  0  0  0
   -6.1840   19.0860  -33.7070 C   0  0  0  0  0  0  0  0  0  0  0  0
   -6.2870   20.4090  -33.5350 N   0  0  0  0  0  0  0  0  0  0  0  0
   -5.7310   21.1550  -34.0100 H   0  0  0  0  0  0  0  0  0  0  0  0
   -5.9680   23.5680  -31.5650 C   0  0  0  0  0  0  0  0  0  0  0  0
   -6.1530   24.7480  -30.8330 C   0  0  0  0  0  0  0  0  0  0  0  0
   -7.1345   25.2446  -30.8371 H   0  0  0  0  0  0  0  0  0  0  0  0
   -5.1020   25.2980  -30.0990 C   0  0  0  0  0  0  0  0  0  0  0  0
   -5.2646   26.2186  -29.5193 H   0  0  0  0  0  0  0  0  0  0  0  0
   -3.8440   24.6890  -30.0940 C   0  0  0  0  0  0  0  0  0  0  0  0
   -2.8260   25.2770  -29.3290 O   0  0  0  0  0  0  0  0  0  0  0  0
   -2.2320   24.6790  -28.1810 C   0  0  0  0  0  0  0  0  0  0  0  0
   -2.6682   25.1181  -27.2717 H   0  0  0  0  0  0  0  0  0  0  0  0
   -2.4217   23.5955  -28.1923 H   0  0  0  0  0  0  0  0  0  0  0  0
   -1.1473   24.8614  -28.1923 H   0  0  0  0  0  0  0  0  0  0  0  0
   -3.6410   23.5210  -30.8520 C   0  0  0  0  0  0  0  0  0  0  0  0
   -2.6520   23.0394  -30.8566 H   0  0  0  0  0  0  0  0  0  0  0  0
   -4.6940   22.9620  -31.6060 C   0  0  0  0  0  0  0  0  0  0  0  0
   -4.5050   21.8230  -32.4060 O   0  0  0  0  0  0  0  0  0  0  0  0
   -3.2810   21.1070  -32.5210 C   0  0  0  0  0  0  0  0  0  0  0  0
   -2.8932   20.8801  -31.5169 H   0  0  0  0  0  0  0  0  0  0  0  0
   -3.4552   20.1684  -33.0675 H   0  0  0  0  0  0  0  0  0  0  0  0
   -2.5482   21.7189  -33.0675 H   0  0  0  0  0  0  0  0  0  0  0  0
  1  2  1  0
  2  3  2  0
  3  4  1  0
  4  5  3  0
  3  6  1  0
  6  7  2  0
  7  8  1  0
  8  9  2  0
  9 10  1  0
  9 11  1  0
 11 12  1  0
 11 13  2  0
 13 14  1  0
 13 15  1  0
 15 16  1  0
 15 17  2  0
 17 18  1  0
 18 19  1  0
  2 20  1  0
 20 21  2  0
 21 22  1  0
 21 23  1  0
 23 24  1  0
 23 25  2  0
 25 26  1  0
 26 27  1  0
 27 28  1  0
 27 29  1  0
 27 30  1  0
 25 31  1  0
 31 32  1  0
 31 33  2  0
 33 34  1  0
 34 35  1  0
 35 36  1  0
 35 37  1  0
 35 38  1  0
 18  6  1  0
 33 20  1  0
 17  8  1  0
M  END
>  <UniqueID>  (3) 
3

>  <SMILES>  (3) 
COc1ccc(/C=C(/C#N)c2nc3ccccc3[nH]2)c(OC)c1

>  <Energy>  (3) 
83.31974748208265

>  <Genealogy>  (3) 
COc1ccc(/C=C(/C#N)c2nc3ccccc3[nH]2)c(OC)c1 (cis-trans isomerization)
COc1ccc(/C=C(/C#N)c2nc3ccccc3[nH]2)c(OC)c1 (3D coordinates assigned)
COc1ccc(/C=C(/C#N)c2nc3ccccc3[nH]2)c(OC)c1 (optimized conformer: 83.31974748208265 kcal/mol)

>  <smiles>  (3) 
COc1ccc(C=C(C#N)c2nc3ccccc3[nH]2)c(OC)c1

>  <score_type>  (3) 
oracle

>  <origin>  (3) 
adg

>  <m_score__min__energy>  (3) 
-8.25

>  <m_primary>  (3) 
energy

$$$$
3:0
     RDKit          3D

 35 37  0  0  0  0  0  0  0  0999 V2000
   -1.2390   26.3200  -29.7100 H   0  0  0  0  0  0  0  0  0  0  0  0
   -1.6760   25.6550  -29.0330 N   0  0  0  0  0  0  0  0  0  0  0  0
   -1.5070   24.2460  -29.1780 C   0  0  0  0  0  0  0  0  0  0  0  0
   -0.5150   23.6820  -28.6430 O   0  0  0  0  0  0  0  0  0  0  0  0
   -2.4420   23.4600  -30.0110 C   0  0  0  0  0  0  0  0  0  0  0  0
   -1.9490   22.3000  -30.6270 C   0  0  0  0  0  0  0  0  0  0  0  0
   -0.9184   21.9735  -30.4237 H   0  0  0  0  0  0  0  0  0  0  0  0
   -2.7470   21.5570  -31.4920 C   0  0  0  0  0  0  0  0  0  0  0  0
   -2.3425   20.6519  -31.9685 H   0  0  0  0  0  0  0  0  0  0  0  0
   -4.0550   21.9540  -31.7570 C   0  0  0  0  0  0  0  0  0  0  0  0
   -4.6702   21.3717  -32.4588 H   0  0  0  0  0  0  0  0  0  0  0  0
   -4.5970   23.0950  -31.1340 C   0  0  0  0  0  0  0  0  0  0  0  0
   -5.9320   23.4980  -31.3760 C   0  0  0  0  0  0  0  0  0  0  0  0
   -6.6700   22.8200  -32.2140 N   0  0  0  0  0  0  0  0  0  0  0  0
   -7.9530   22.1820  -31.9290 C   0  0  0  0  0  0  0  0  0  0  0  0
   -8.2054   22.3207  -30.8674 H   0  0  0  0  0  0  0  0  0  0  0  0
   -8.7385   22.6362  -32.5508 H   0  0  0  0  0  0  0  0  0  0  0  0
   -7.8520   20.7160  -32.2340 C   0  0  0  0  0  0  0  0  0  0  0  0
   -8.7440   19.8050  -31.6430 C   0  0  0  0  0  0  0  0  0  0  0  0
   -9.5399   20.1710  -30.9777 H   0  0  0  0  0  0  0  0  0  0  0  0
   -8.6240   18.4360  -31.8970 C   0  0  0  0  0  0  0  0  0  0  0  0
   -9.3302   17.7283  -31.4383 H   0  0  0  0  0  0  0  0  0  0  0  0
   -7.6080   17.9650  -32.7330 C   0  0  0  0  0  0  0  0  0  0  0  0
   -7.5178   16.8876  -32.9356 H   0  0  0  0  0  0  0  0  0  0  0  0
   -6.7060   18.8630  -33.3120 C   0  0  0  0  0  0  0  0  0  0  0  0
   -5.7150   18.4040  -34.1150 F   0  0  0  0  0  0  0  0  0  0  0  0
   -6.8230   20.2340  -33.0600 C   0  0  0  0  0  0  0  0  0  0  0  0
   -6.1068   20.9371  -33.5102 H   0  0  0  0  0  0  0  0  0  0  0  0
   -6.4350   24.6220  -30.6970 C   0  0  0  0  0  0  0  0  0  0  0  0
   -7.4661   24.9593  -30.8788 H   0  0  0  0  0  0  0  0  0  0  0  0
   -5.6270   25.3070  -29.7950 C   0  0  0  0  0  0  0  0  0  0  0  0
   -6.0301   26.1761  -29.2544 H   0  0  0  0  0  0  0  0  0  0  0  0
   -4.3460   24.9140  -29.5750 N   0  0  0  0  0  0  0  0  0  0  0  0
   -3.8120   25.4450  -28.8540 H   0  0  0  0  0  0  0  0  0  0  0  0
   -3.7920   23.8510  -30.2360 C   0  0  0  0  0  0  0  0  0  0  0  0
  1  2  1  0
  2  3  1  0
  3  4  2  0
  3  5  1  0
  5  6  2  0
  6  7  1  0
  6  8  1  0
  8  9  1  0
  8 10  2  0
 10 11  1  0
 10 12  1  0
 12 13  1  0
 13 14  2  0
 14 15  1  0
 15 16  1  0
 15 17  1  0
 15 18  1  0
 18 19  2  0
 19 20  1  0
 19 21  1  0
 21 22  1  0
 21 23  2  0
 23 24  1  0
 23 25  1  0
 25 26  1  0
 25 27  2  0
 27 28  1  0
 13 29  1  0
 29 30  1  0
 29 31  2  0
 31 32  1  0
 31 33  1  0
 33 34  1  0
 33 35  1  0
 35  5  1  0
 35 12  2  0
 27 18  1  0
M  CHG  1   2  -1
M  END
>  <UniqueID>  (4) 
4

>  <SMILES>  (4) 
[NH-]C(=O)c1cccc2/c(=N/Cc3cccc(F)c3)cc[nH]c12

>  <Energy>  (4) 
50.32333498906521

>  <Genealogy>  (4) 
[NH-]C(=O)c1cccc2c(=NCc3cccc(F)c3)cc[nH]c12 (protonated)
[NH-]C(=O)c1cccc2/c(=N/Cc3cccc(F)c3)cc[nH]c12 (cis-trans isomerization)
[NH-]C(=O)c1cccc2/c(=N/Cc3cccc(F)c3)cc[nH]c12 (3D coordinates assigned)
[NH-]C(=O)c1cccc2/c(=N/Cc3cccc(F)c3)cc[nH]c12 (optimized conformer: 50.32333498906521 kcal/mol)

>  <smiles>  (4) 
NC(=O)c1cccc2c(=NCc3cccc(F)c3)cc[nH]c12

>  <score_type>  (4) 
oracle

>  <origin>  (4) 
adg

>  <m_score__min__energy>  (4) 
-11.07

>  <m_primary>  (4) 
energy

$$$$
4:0
     RDKit          3D

 30 31  0  0  0  0  0  0  0  0999 V2000
   -3.0966   20.7707  -29.6912 H   0  0  0  0  0  0  0  0  0  0  0  0
   -2.7750   21.8120  -29.5420 C   0  0  0  0  0  0  0  0  0  0  0  0
   -1.6290   22.0870  -28.7970 C   0  0  0  0  0  0  0  0  0  0  0  0
   -1.0435   21.2616  -28.3659 H   0  0  0  0  0  0  0  0  0  0  0  0
   -1.2230   23.4080  -28.5970 C   0  0  0  0  0  0  0  0  0  0  0  0
   -0.3224   23.6199  -28.0021 H   0  0  0  0  0  0  0  0  0  0  0  0
   -1.9620   24.4710  -29.1540 C   0  0  0  0  0  0  0  0  0  0  0  0
   -1.5910   25.8130  -28.9680 O   0  0  0  0  0  0  0  0  0  0  0  0
   -0.8800   26.3040  -27.8360 C   0  0  0  0  0  0  0  0  0  0  0  0
   -1.3753   25.9620  -26.9153 H   0  0  0  0  0  0  0  0  0  0  0  0
    0.1526   25.9256  -27.8592 H   0  0  0  0  0  0  0  0  0  0  0  0
   -0.8681   27.4037  -27.8592 H   0  0  0  0  0  0  0  0  0  0  0  0
   -3.1020   24.1910  -29.9260 C   0  0  0  0  0  0  0  0  0  0  0  0
   -3.8590   25.2840  -30.4700 N   0  0  0  0  0  0  0  0  0  0  0  0
   -5.2650   25.2850  -30.7370 C   0  0  0  0  0  0  0  0  0  0  0  0
   -6.0040   26.0680  -30.0840 O   0  0  0  0  0  0  0  0  0  0  0  0
   -5.7930   24.5220  -31.8330 N   0  0  0  0  0  0  0  0  0  0  0  0
   -6.3590   23.3460  -31.8060 C   0  0  0  0  0  0  0  0  0  0  0  0
   -7.3940   23.1300  -30.8870 C   0  0  0  0  0  0  0  0  0  0  0  0
   -7.7082   23.9381  -30.2100 H   0  0  0  0  0  0  0  0  0  0  0  0
   -8.0250   21.8870  -30.8330 C   0  0  0  0  0  0  0  0  0  0  0  0
   -8.8319   21.7091  -30.1068 H   0  0  0  0  0  0  0  0  0  0  0  0
   -7.6300   20.8710  -31.7020 C   0  0  0  0  0  0  0  0  0  0  0  0
   -8.1152   19.8846  -31.6620 H   0  0  0  0  0  0  0  0  0  0  0  0
   -6.6120   21.1200  -32.6230 C   0  0  0  0  0  0  0  0  0  0  0  0
   -6.2981   20.3274  -33.3181 H   0  0  0  0  0  0  0  0  0  0  0  0
   -6.0040   22.3390  -32.6670 N   0  0  0  0  0  0  0  0  0  0  0  0
   -5.2880   22.4780  -33.4100 H   0  0  0  0  0  0  0  0  0  0  0  0
   -3.5150   22.8570  -30.0990 C   0  0  0  0  0  0  0  0  0  0  0  0
   -4.4252   22.6363  -30.6758 H   0  0  0  0  0  0  0  0  0  0  0  0
  1  2  1  0
  2  3  2  0
  3  4  1  0
  3  5  1  0
  5  6  1  0
  5  7  2  0
  7  8  1  0
  8  9  1  0
  9 10  1  0
  9 11  1  0
  9 12  1  0
  7 13  1  0
 13 14  1  0
 14 15  1  0
 15 16  2  0
 15 17  1  0
 17 18  2  0
 18 19  1  0
 19 20  1  0
 19 21  2  0
 21 22  1  0
 21 23  1  0
 23 24  1  0
 23 25  2  0
 25 26  1  0
 25 27  1  0
 27 28  1  0
 13 29  2  0
 29 30  1  0
 29  2  1  0
 27 18  1  0
M  CHG  1  14  -1
M  END
>  <UniqueID>  (5) 
5

>  <SMILES>  (5) 
COc1ccccc1[N-]C(=O)/N=c1/cccc[nH]1

>  <Energy>  (5) 
40.69047669747947

>  <Genealogy>  (5) 
COc1ccccc1[N-]C(=O)N=c1cccc[nH]1 (protonated)
COc1ccccc1[N-]C(=O)/N=c1/cccc[nH]1 (cis-trans isomerization)
COc1ccccc1[N-]C(=O)/N=c1/cccc[nH]1 (3D coordinates assigned)
COc1ccccc1[N-]C(=O)/N=c1/cccc[nH]1 (optimized conformer: 40.69047669747947 kcal/mol)

>  <smiles>  (5) 
COc1ccccc1NC(=O)N=c1cccc[nH]1

>  <score_type>  (5) 
oracle

>  <origin>  (5) 
adg

>  <m_score__min__energy>  (5) 
-8.3100000000000005

>  <m_primary>  (5) 
energy

$$$$
5:0
     RDKit          3D

 39 40  0  0  0  0  0  0  0  0999 V2000
   -2.2890   21.1620  -32.6690 C   0  0  0  0  0  0  0  0  0  0  0  0
   -3.0270   22.0410  -31.8760 O   0  0  0  0  0  0  0  0  0  0  0  0
   -4.3860   22.1630  -31.8490 C   0  0  0  0  0  0  0  0  0  0  0  0
   -5.1960   21.1440  -32.3040 C   0  0  0  0  0  0  0  0  0  0  0  0
   -6.5940   21.2450  -32.2880 C   0  0  0  0  0  0  0  0  0  0  0  0
   -7.3490   20.1000  -32.7770 C   0  0  0  0  0  0  0  0  0  0  0  0
   -6.7050   18.7820  -32.6160 C   0  0  0  0  0  0  0  0  0  0  0  0
   -6.7280   18.2330  -31.3300 C   0  0  0  0  0  0  0  0  0  0  0  0
   -6.1550   17.0470  -31.0520 N   0  0  0  0  0  0  0  0  0  0  0  0
   -5.5450   16.3780  -32.0490 C   0  0  0  0  0  0  0  0  0  0  0  0
   -4.9880   15.2370  -31.8000 N   0  0  0  0  0  0  0  0  0  0  0  0
   -5.5050   16.8750  -33.2970 N   0  0  0  0  0  0  0  0  0  0  0  0
   -6.0780   18.0720  -33.5990 C   0  0  0  0  0  0  0  0  0  0  0  0
   -6.0230   18.4760  -34.8120 N   0  0  0  0  0  0  0  0  0  0  0  0
   -7.1000   22.4160  -31.7910 C   0  0  0  0  0  0  0  0  0  0  0  0
   -6.3000   23.4430  -31.3340 C   0  0  0  0  0  0  0  0  0  0  0  0
   -6.8760   24.6210  -30.8380 O   0  0  0  0  0  0  0  0  0  0  0  0
   -6.5050   25.1860  -29.6150 C   0  0  0  0  0  0  0  0  0  0  0  0
   -4.9250   23.3360  -31.3550 C   0  0  0  0  0  0  0  0  0  0  0  0
   -4.1410   24.3850  -30.8880 O   0  0  0  0  0  0  0  0  0  0  0  0
   -3.3230   24.2240  -29.7250 C   0  0  0  0  0  0  0  0  0  0  0  0
   -1.7160   20.4795  -32.0242 H   0  0  0  0  0  0  0  0  0  0  0  0
   -2.9724   20.5792  -33.3040 H   0  0  0  0  0  0  0  0  0  0  0  0
   -1.5967   21.7342  -33.3040 H   0  0  0  0  0  0  0  0  0  0  0  0
   -4.7315   20.2250  -32.6908 H   0  0  0  0  0  0  0  0  0  0  0  0
   -8.3074   20.0741  -32.2377 H   0  0  0  0  0  0  0  0  0  0  0  0
   -7.4461   20.2513  -33.8622 H   0  0  0  0  0  0  0  0  0  0  0  0
   -7.2289   18.7864  -30.5220 H   0  0  0  0  0  0  0  0  0  0  0  0
   -6.1850   16.6500  -30.0660 H   0  0  0  0  0  0  0  0  0  0  0  0
   -5.1390   14.8410  -30.8480 H   0  0  0  0  0  0  0  0  0  0  0  0
   -5.0150   16.3180  -34.0570 H   0  0  0  0  0  0  0  0  0  0  0  0
   -6.8400   18.9260  -35.2550 H   0  0  0  0  0  0  0  0  0  0  0  0
   -8.1920   22.5436  -31.7544 H   0  0  0  0  0  0  0  0  0  0  0  0
   -6.9059   24.5755  -28.7924 H   0  0  0  0  0  0  0  0  0  0  0  0
   -5.4078   25.2207  -29.5449 H   0  0  0  0  0  0  0  0  0  0  0  0
   -6.9093   26.2066  -29.5449 H   0  0  0  0  0  0  0  0  0  0  0  0
   -3.9404   24.3455  -28.8228 H   0  0  0  0  0  0  0  0  0  0  0  0
   -2.8733   23.2201  -29.7291 H   0  0  0  0  0  0  0  0  0  0  0  0
   -2.5264   24.9826  -29.7291 H   0  0  0  0  0  0  0  0  0  0  0  0
  1  2  1  0
  2  3  1  0
  3  4  2  0
  4  5  1  0
  5  6  1  0
  6  7  1  0
  7  8  2  0
  8  9  1  0
  9 10  1  0
 10 11  2  3
 10 12  1  0
 12 13  1  0
 13 14  2  3
  5 15  2  0
 15 16  1  0
 16 17  1  0
 17 18  1  0
 16 19  2  0
 19 20  1  0
 20 21  1  0
 19  3  1  0
 13  7  1  0
  1 22  1  0
  1 23  1  0
  1 24  1  0
  4 25  1  0
  6 26  1  0
  6 27  1  0
  8 28  1  0
  9 29  1  0
 11 30  1  0
 12 31  1  0
 14 32  1  0
 15 33  1  0
 18 34  1  0
 18 35  1  0
 18 36  1  0
 21 37  1  0
 21 38  1  0
 21 39  1  0
M  END
>  <smiles>  (6) 
COc1cc(Cc2c[nH]c(=N)[nH]c2=N)cc(OC)c1OC

>  <score_type>  (6) 
oracle

>  <origin>  (6) 
adg

>  <m_score__min__energy>  (6) 
-6.8200000000000003

>  <m_primary>  (6) 
energy

$$$$
6:0
     RDKit          3D

 29 30  0  0  0  0  0  0  0  0999 V2000
   -2.5760   21.2610  -32.5610 C   0  0  0  0  0  0  0  0  0  0  0  0
   -3.9840   21.4460  -33.1230 C   0  0  0  0  0  0  0  0  0  0  0  0
   -4.8860   21.9970  -32.1030 N   0  0  0  0  0  0  0  0  0  0  0  0
   -4.3080   22.6150  -30.8970 C   0  0  0  0  0  0  0  0  0  0  0  0
   -4.9950   23.9040  -30.5640 C   0  0  0  0  0  0  0  0  0  0  0  0
   -6.1430   24.0390  -29.8110 C   0  0  0  0  0  0  0  0  0  0  0  0
   -6.3850   25.3940  -29.7450 C   0  0  0  0  0  0  0  0  0  0  0  0
   -5.3720   26.0000  -30.4610 C   0  0  0  0  0  0  0  0  0  0  0  0
   -4.5580   25.0850  -30.9360 O   0  0  0  0  0  0  0  0  0  0  0  0
   -6.3050   22.0450  -32.3730 C   0  0  0  0  0  0  0  0  0  0  0  0
   -6.8330   23.1410  -32.7090 O   0  0  0  0  0  0  0  0  0  0  0  0
   -7.1670   20.8510  -32.2710 C   0  0  0  0  0  0  0  0  0  0  0  0
   -8.5200   20.8630  -31.9520 C   0  0  0  0  0  0  0  0  0  0  0  0
   -9.1100   19.5930  -31.9800 C   0  0  0  0  0  0  0  0  0  0  0  0
   -8.2330   18.5790  -32.3370 C   0  0  0  0  0  0  0  0  0  0  0  0
   -6.7240   19.2640  -32.6170 S   0  0  0  0  0  0  0  0  0  0  0  0
   -2.6163   21.2663  -31.4618 H   0  0  0  0  0  0  0  0  0  0  0  0
   -2.1658   20.3012  -32.9082 H   0  0  0  0  0  0  0  0  0  0  0  0
   -1.9318   22.0822  -32.9082 H   0  0  0  0  0  0  0  0  0  0  0  0
   -3.9428   22.1363  -33.9784 H   0  0  0  0  0  0  0  0  0  0  0  0
   -4.3682   20.4652  -33.4398 H   0  0  0  0  0  0  0  0  0  0  0  0
   -4.4183   21.9210  -30.0507 H   0  0  0  0  0  0  0  0  0  0  0  0
   -3.2461   22.8271  -31.0902 H   0  0  0  0  0  0  0  0  0  0  0  0
   -6.7401   23.2338  -29.3582 H   0  0  0  0  0  0  0  0  0  0  0  0
   -7.2174   25.8923  -29.2265 H   0  0  0  0  0  0  0  0  0  0  0  0
   -5.2631   27.0843  -30.6109 H   0  0  0  0  0  0  0  0  0  0  0  0
   -9.0732   21.7803  -31.7020 H   0  0  0  0  0  0  0  0  0  0  0  0
  -10.1691   19.4162  -31.7414 H   0  0  0  0  0  0  0  0  0  0  0  0
   -8.4823   17.5110  -32.4221 H   0  0  0  0  0  0  0  0  0  0  0  0
  1  2  1  0
  2  3  1  0
  3  4  1  0
  4  5  1  0
  5  6  2  0
  6  7  1  0
  7  8  2  0
  8  9  1  0
  3 10  1  0
 10 11  2  0
 10 12  1  0
 12 13  2  0
 13 14  1  0
 14 15  2  0
 15 16  1  0
  9  5  1  0
 16 12  1  0
  1 17  1  0
  1 18  1  0
  1 19  1  0
  2 20  1  0
  2 21  1  0
  4 22  1  0
  4 23  1  0
  6 24  1  0
  7 25  1  0
  8 26  1  0
 13 27  1  0
 14 28  1  0
 15 29  1  0
M  END
>  <UniqueID>  (7) 
6

>  <SMILES>  (7) 
CCN(Cc1ccco1)C(=O)c1cccs1

>  <Energy>  (7) 
79.06908799526144

>  <Genealogy>  (7) 
CCN(Cc1ccco1)C(=O)c1cccs1 (3D coordinates assigned)
CCN(Cc1ccco1)C(=O)c1cccs1 (optimized conformer: 79.06908799526144 kcal/mol)

>  <smiles>  (7) 
CCN(Cc1ccco1)C(=O)c1cccs1

>  <score_type>  (7) 
oracle

>  <origin>  (7) 
adg

>  <m_score__min__energy>  (7) 
-6.3799999999999999

>  <m_primary>  (7) 
energy

$$$$
7:0
     RDKit          3D

 45 47  0  0  0  0  0  0  0  0999 V2000
   -6.1430   17.0470  -31.6120 C   0  0  0  0  0  0  0  0  0  0  0  0
   -7.2010   17.6100  -32.5570 C   0  0  0  0  0  0  0  0  0  0  0  0
   -6.7560   18.8880  -33.1280 N   0  0  0  0  0  0  0  0  0  0  0  0
   -6.0940   18.9380  -34.4390 C   0  0  0  0  0  0  0  0  0  0  0  0
   -4.6410   18.5690  -34.3200 C   0  0  0  0  0  0  0  0  0  0  0  0
   -4.1920   17.3190  -34.7770 C   0  0  0  0  0  0  0  0  0  0  0  0
   -2.8510   16.9540  -34.6240 C   0  0  0  0  0  0  0  0  0  0  0  0
   -1.9510   17.8310  -34.0110 C   0  0  0  0  0  0  0  0  0  0  0  0
   -2.3900   19.0750  -33.5530 C   0  0  0  0  0  0  0  0  0  0  0  0
   -3.7290   19.4470  -33.7070 C   0  0  0  0  0  0  0  0  0  0  0  0
   -7.1600   20.1120  -32.4930 C   0  0  0  0  0  0  0  0  0  0  0  0
   -6.2130   21.0790  -32.1490 C   0  0  0  0  0  0  0  0  0  0  0  0
   -6.6460   22.2660  -31.5450 C   0  0  0  0  0  0  0  0  0  0  0  0
   -5.7020   23.2990  -31.2010 N   0  0  0  0  0  0  0  0  0  0  0  0
   -4.2650   23.0090  -31.2150 C   0  0  0  0  0  0  0  0  0  0  0  0
   -3.5420   23.9360  -30.2330 C   0  0  0  0  0  0  0  0  0  0  0  0
   -3.8680   25.2900  -30.4880 O   0  0  0  0  0  0  0  0  0  0  0  0
   -5.2440   25.5060  -30.2330 C   0  0  0  0  0  0  0  0  0  0  0  0
   -6.1110   24.7080  -31.2120 C   0  0  0  0  0  0  0  0  0  0  0  0
   -7.9750   22.4390  -31.2920 N   0  0  0  0  0  0  0  0  0  0  0  0
   -8.8790   21.4730  -31.6100 C   0  0  0  0  0  0  0  0  0  0  0  0
   -8.4690   20.3240  -32.2040 N   0  0  0  0  0  0  0  0  0  0  0  0
   -6.4557   17.2134  -30.5706 H   0  0  0  0  0  0  0  0  0  0  0  0
   -6.0273   15.9680  -31.7922 H   0  0  0  0  0  0  0  0  0  0  0  0
   -5.1835   17.5538  -31.7922 H   0  0  0  0  0  0  0  0  0  0  0  0
   -7.3773   16.8919  -33.3714 H   0  0  0  0  0  0  0  0  0  0  0  0
   -8.1290   17.7783  -31.9909 H   0  0  0  0  0  0  0  0  0  0  0  0
   -6.5905   18.2316  -35.1205 H   0  0  0  0  0  0  0  0  0  0  0  0
   -6.1656   19.9635  -34.8304 H   0  0  0  0  0  0  0  0  0  0  0  0
   -4.8977   16.6250  -35.2568 H   0  0  0  0  0  0  0  0  0  0  0  0
   -2.5035   15.9753  -34.9865 H   0  0  0  0  0  0  0  0  0  0  0  0
   -0.8969   17.5410  -33.8895 H   0  0  0  0  0  0  0  0  0  0  0  0
   -1.6810   19.7636  -33.0701 H   0  0  0  0  0  0  0  0  0  0  0  0
   -4.0702   20.4291  -33.3477 H   0  0  0  0  0  0  0  0  0  0  0  0
   -5.1445   20.9111  -32.3492 H   0  0  0  0  0  0  0  0  0  0  0  0
   -4.1002   21.9625  -30.9189 H   0  0  0  0  0  0  0  0  0  0  0  0
   -3.8701   23.1725  -32.2286 H   0  0  0  0  0  0  0  0  0  0  0  0
   -3.8430   23.6796  -29.2065 H   0  0  0  0  0  0  0  0  0  0  0  0
   -2.4570   23.8048  -30.3575 H   0  0  0  0  0  0  0  0  0  0  0  0
   -5.4745   25.1881  -29.2055 H   0  0  0  0  0  0  0  0  0  0  0  0
   -5.4623   26.5765  -30.3609 H   0  0  0  0  0  0  0  0  0  0  0  0
   -7.1664   24.7845  -30.9116 H   0  0  0  0  0  0  0  0  0  0  0  0
   -5.9845   25.1157  -32.2258 H   0  0  0  0  0  0  0  0  0  0  0  0
   -8.3200   23.3280  -30.8670 H   0  0  0  0  0  0  0  0  0  0  0  0
   -9.9451   21.6240  -31.3849 H   0  0  0  0  0  0  0  0  0  0  0  0
  1  2  1  0
  2  3  1  0
  3  4  1  0
  4  5  1  0
  5  6  2  0
  6  7  1  0
  7  8  2  0
  8  9  1  0
  9 10  2  0
  3 11  1  0
 11 12  2  0
 12 13  1  0
 13 14  1  0
 14 15  1  0
 15 16  1  0
 16 17  1  0
 17 18  1  0
 18 19  1  0
 13 20  2  0
 20 21  1  0
 21 22  2  0
 10  5  1  0
 22 11  1  0
 19 14  1  0
  1 23  1  0
  1 24  1  0
  1 25  1  0
  2 26  1  0
  2 27  1  0
  4 28  1  0
  4 29  1  0
  6 30  1  0
  7 31  1  0
  8 32  1  0
  9 33  1  0
 10 34  1  0
 12 35  1  0
 15 36  1  0
 15 37  1  0
 16 38  1  0
 16 39  1  0
 18 40  1  0
 18 41  1  0
 19 42  1  0
 19 43  1  0
 20 44  1  0
 21 45  1  0
M  CHG  1  20   1
M  END
>  <UniqueID>  (8) 
7

>  <SMILES>  (8) 
CCN(Cc1ccccc1)c1cc(N2CCOCC2)[nH+]cn1

>  <Energy>  (8) 
49.94535848849734

>  <Genealogy>  (8) 
CCN(Cc1ccccc1)c1cc(N2CCOCC2)[nH+]cn1 (protonated)
CCN(Cc1ccccc1)c1cc(N2CCOCC2)[nH+]cn1 (3D coordinates assigned)
CCN(Cc1ccccc1)c1cc(N2CCOCC2)[nH+]cn1 (nonaromatic ring conformer: 49.94535848849734 kcal/mol)

>  <smiles>  (8) 
CCN(Cc1ccccc1)c1cc(N2CCOCC2)ncn1

>  <score_type>  (8) 
oracle

>  <origin>  (8) 
adg

>  <m_score__min__energy>  (8) 
-7

>  <m_primary>  (8) 
energy

$$$$
8:0
     RDKit          3D

 32 32  0  0  0  0  0  0  0  0999 V2000
   -5.4680   25.6530  -30.4790 C   0  0  0  0  0  0  0  0  0  0  0  0
   -5.7660   24.6070  -31.1950 C   0  0  0  0  0  0  0  0  0  0  0  0
   -6.0660   23.5600  -31.9160 C   0  0  0  0  0  0  0  0  0  0  0  0
   -7.4840   23.2880  -32.3440 C   0  0  0  0  0  0  0  0  0  0  0  0
   -8.3550   22.7780  -31.2600 N   0  0  0  0  0  0  0  0  0  0  0  0
   -7.6370   22.3180  -30.0610 C   0  0  0  0  0  0  0  0  0  0  0  0
   -9.4400   21.8730  -31.6970 C   0  0  0  0  0  0  0  0  0  0  0  0
   -8.9470   20.5950  -32.3230 C   0  0  0  0  0  0  0  0  0  0  0  0
   -9.7820   19.7360  -32.7160 O   0  0  0  0  0  0  0  0  0  0  0  0
   -7.5360   20.3520  -32.4430 N   0  0  0  0  0  0  0  0  0  0  0  0
   -6.9720   19.1880  -33.0710 C   0  0  0  0  0  0  0  0  0  0  0  0
   -7.2400   17.9190  -32.5340 C   0  0  0  0  0  0  0  0  0  0  0  0
   -6.6880   16.7740  -33.1160 C   0  0  0  0  0  0  0  0  0  0  0  0
   -5.8510   16.8880  -34.2290 C   0  0  0  0  0  0  0  0  0  0  0  0
   -5.5600   18.1490  -34.7580 C   0  0  0  0  0  0  0  0  0  0  0  0
   -6.1110   19.2970  -34.1790 C   0  0  0  0  0  0  0  0  0  0  0  0
   -5.4857   25.5910  -29.3809 H   0  0  0  0  0  0  0  0  0  0  0  0
   -5.1986   26.5986  -30.9723 H   0  0  0  0  0  0  0  0  0  0  0  0
   -5.2685   22.8643  -32.2160 H   0  0  0  0  0  0  0  0  0  0  0  0
   -7.9166   24.2258  -32.7225 H   0  0  0  0  0  0  0  0  0  0  0  0
   -7.4386   22.5012  -33.1114 H   0  0  0  0  0  0  0  0  0  0  0  0
   -8.1697   22.6593  -29.1611 H   0  0  0  0  0  0  0  0  0  0  0  0
   -7.5868   21.2192  -30.0627 H   0  0  0  0  0  0  0  0  0  0  0  0
   -6.6177   22.7317  -30.0627 H   0  0  0  0  0  0  0  0  0  0  0  0
  -10.0526   21.6164  -30.8201 H   0  0  0  0  0  0  0  0  0  0  0  0
  -10.0140   22.4080  -32.4679 H   0  0  0  0  0  0  0  0  0  0  0  0
   -6.8860   20.9950  -31.9380 H   0  0  0  0  0  0  0  0  0  0  0  0
   -7.8881   17.8250  -31.6502 H   0  0  0  0  0  0  0  0  0  0  0  0
   -6.9129   15.7820  -32.6972 H   0  0  0  0  0  0  0  0  0  0  0  0
   -5.4212   15.9859  -34.6889 H   0  0  0  0  0  0  0  0  0  0  0  0
   -4.8967   18.2385  -35.6309 H   0  0  0  0  0  0  0  0  0  0  0  0
   -5.8706   20.2882  -34.5910 H   0  0  0  0  0  0  0  0  0  0  0  0
  1  2  2  0
  2  3  2  0
  3  4  1  0
  4  5  1  0
  5  6  1  0
  5  7  1  0
  7  8  1  0
  8  9  2  0
  8 10  1  0
 10 11  1  0
 11 12  2  0
 12 13  1  0
 13 14  2  0
 14 15  1  0
 15 16  2  0
 16 11  1  0
  1 17  1  0
  1 18  1  0
  3 19  1  0
  4 20  1  0
  4 21  1  0
  6 22  1  0
  6 23  1  0
  6 24  1  0
  7 25  1  0
  7 26  1  0
 10 27  1  0
 12 28  1  0
 13 29  1  0
 14 30  1  0
 15 31  1  0
 16 32  1  0
M  END
>  <UniqueID>  (9) 
8

>  <SMILES>  (9) 
C=C=CCN(C)CC(=O)Nc1ccccc1

>  <Energy>  (9) 
34.46001502382378

>  <Genealogy>  (9) 
C=C=CCN(C)CC(=O)Nc1ccccc1 (3D coordinates assigned)
C=C=CCN(C)CC(=O)Nc1ccccc1 (optimized conformer: 34.46001502382378 kcal/mol)

>  <smiles>  (9) 
C=C=CCN(C)CC(=O)Nc1ccccc1

>  <score_type>  (9) 
oracle

>  <origin>  (9) 
adg

>  <m_score__min__energy>  (9) 
-6.2599999999999998

>  <m_primary>  (9) 
energy

$$$$
9:0
     RDKit          3D

 37 38  0  0  0  0  0  0  0  0999 V2000
   -6.3880   22.5300  -29.9980 C   0  0  0  0  0  0  0  0  0  0  0  0
   -6.2240   23.6000  -31.0050 N   0  0  2  0  0  0  0  0  0  0  0  0
   -6.5650   24.9280  -30.4330 C   0  0  0  0  0  0  0  0  0  0  0  0
   -5.3980   25.9370  -30.4650 C   0  0  0  0  0  0  0  0  0  0  0  0
   -4.1550   25.3060  -30.8990 N   0  0  0  0  0  0  0  0  0  0  0  0
   -3.4820   24.2830  -30.1600 C   0  0  0  0  0  0  0  0  0  0  0  0
   -3.5250   23.0830  -30.5450 O   0  0  0  0  0  0  0  0  0  0  0  0
   -2.7400   24.6390  -28.9470 C   0  0  0  0  0  0  0  0  0  0  0  0
   -2.8130   23.9930  -27.7280 C   0  0  0  0  0  0  0  0  0  0  0  0
   -1.9540   24.6740  -26.8920 C   0  0  0  0  0  0  0  0  0  0  0  0
   -1.4130   25.6890  -27.6550 C   0  0  0  0  0  0  0  0  0  0  0  0
   -0.1480   26.9790  -27.0500 Br  0  0  0  0  0  0  0  0  0  0  0  0
   -1.8980   25.6450  -28.8730 O   0  0  0  0  0  0  0  0  0  0  0  0
   -7.0850   23.3360  -32.1850 C   0  0  0  0  0  0  0  0  0  0  0  0
   -7.5040   21.8850  -32.2740 C   0  0  0  0  0  0  0  0  0  0  0  0
   -6.5910   20.9140  -32.7150 C   0  0  0  0  0  0  0  0  0  0  0  0
   -6.9710   19.5700  -32.7850 C   0  0  0  0  0  0  0  0  0  0  0  0
   -8.2640   19.1870  -32.4160 C   0  0  0  0  0  0  0  0  0  0  0  0
   -9.1780   20.1480  -31.9770 C   0  0  0  0  0  0  0  0  0  0  0  0
   -8.8020   21.4930  -31.9050 C   0  0  0  0  0  0  0  0  0  0  0  0
   -6.3217   22.9629  -28.9889 H   0  0  0  0  0  0  0  0  0  0  0  0
   -7.3700   22.0516  -30.1279 H   0  0  0  0  0  0  0  0  0  0  0  0
   -5.5944   21.7795  -30.1279 H   0  0  0  0  0  0  0  0  0  0  0  0
   -5.2260   23.6110  -31.3190 H   0  0  0  0  0  0  0  0  0  0  0  0
   -7.4032   25.3486  -31.0079 H   0  0  0  0  0  0  0  0  0  0  0  0
   -6.8200   24.7658  -29.3753 H   0  0  0  0  0  0  0  0  0  0  0  0
   -5.6481   26.7503  -31.1621 H   0  0  0  0  0  0  0  0  0  0  0  0
   -5.2500   26.3250  -29.4464 H   0  0  0  0  0  0  0  0  0  0  0  0
   -3.4288   23.1169  -27.4766 H   0  0  0  0  0  0  0  0  0  0  0  0
   -1.7433   24.4539  -25.8351 H   0  0  0  0  0  0  0  0  0  0  0  0
   -7.9871   23.9613  -32.1123 H   0  0  0  0  0  0  0  0  0  0  0  0
   -6.5034   23.5754  -33.0875 H   0  0  0  0  0  0  0  0  0  0  0  0
   -5.5729   21.2115  -33.0066 H   0  0  0  0  0  0  0  0  0  0  0  0
   -6.2516   18.8131  -33.1309 H   0  0  0  0  0  0  0  0  0  0  0  0
   -8.5615   18.1294  -32.4713 H   0  0  0  0  0  0  0  0  0  0  0  0
  -10.1954   19.8461  -31.6874 H   0  0  0  0  0  0  0  0  0  0  0  0
   -9.5246   22.2465  -31.5584 H   0  0  0  0  0  0  0  0  0  0  0  0
  1  2  1  0
  2  3  1  0
  3  4  1  0
  4  5  1  0
  5  6  1  0
  6  7  2  0
  6  8  1  0
  8  9  2  0
  9 10  1  0
 10 11  2  0
 11 12  1  0
 11 13  1  0
  2 14  1  0
 14 15  1  0
 15 16  2  0
 16 17  1  0
 17 18  2  0
 18 19  1  0
 19 20  2  0
 13  8  1  0
 20 15  1  0
  1 21  1  0
  1 22  1  0
  1 23  1  0
  2 24  1  6
  3 25  1  0
  3 26  1  0
  4 27  1  0
  4 28  1  0
  9 29  1  0
 10 30  1  0
 14 31  1  0
 14 32  1  0
 16 33  1  0
 17 34  1  0
 18 35  1  0
 19 36  1  0
 20 37  1  0
M  CHG  2   2   1   5  -1
M  END
>  <UniqueID>  (10) 
9

>  <SMILES>  (10) 
C[N@H+](CC[N-]C(=O)c1ccc(Br)o1)Cc1ccccc1

>  <Energy>  (10) 
61.61782629179503

>  <Genealogy>  (10) 
C[NH+](CC[N-]C(=O)c1ccc(Br)o1)Cc1ccccc1 (protonated)
C[N@H+](CC[N-]C(=O)c1ccc(Br)o1)Cc1ccccc1 (chirality)
C[N@H+](CC[N-]C(=O)c1ccc(Br)o1)Cc1ccccc1 (3D coordinates assigned)
C[N@H+](CC[N-]C(=O)c1ccc(Br)o1)Cc1ccccc1 (optimized conformer: 61.61782629179503 kcal/mol)

>  <smiles>  (10) 
CN(CCNC(=O)c1ccc(Br)o1)Cc1ccccc1

>  <score_type>  (10) 
oracle

>  <origin>  (10) 
adg

>  <m_score__min__energy>  (10) 
-8.4299999999999997

>  <m_primary>  (10) 
energy

$$$$
10:0
     RDKit          3D

 39 42  0  0  0  0  0  0  0  0999 V2000
   -4.5492   19.3115  -33.2943 H   0  0  0  0  0  0  0  0  0  0  0  0
   -5.4080   19.9110  -32.9580 C   0  0  0  0  0  0  0  0  0  0  0  0
   -5.2520   21.2790  -32.7250 C   0  0  0  0  0  0  0  0  0  0  0  0
   -4.2752   21.7557  -32.8938 H   0  0  0  0  0  0  0  0  0  0  0  0
   -6.3400   22.0500  -32.2750 C   0  0  0  0  0  0  0  0  0  0  0  0
   -6.2320   23.4640  -32.0460 N   0  0  0  0  0  0  0  0  0  0  0  0
   -5.2880   24.0760  -31.3940 C   0  0  0  0  0  0  0  0  0  0  0  0
   -4.2310   23.4560  -30.8200 N   0  0  0  0  0  0  0  0  0  0  0  0
   -3.5940   24.4940  -30.2480 C   0  0  0  0  0  0  0  0  0  0  0  0
   -2.4720   24.3570  -29.6020 N   0  0  0  0  0  0  0  0  0  0  0  0
   -2.1600   24.9090  -28.3150 C   0  0  0  0  0  0  0  0  0  0  0  0
   -3.0280   24.6640  -27.2400 C   0  0  0  0  0  0  0  0  0  0  0  0
   -3.9137   24.0284  -27.3866 H   0  0  0  0  0  0  0  0  0  0  0  0
   -2.7740   25.2230  -25.9830 C   0  0  0  0  0  0  0  0  0  0  0  0
   -3.4490   25.0131  -25.1402 H   0  0  0  0  0  0  0  0  0  0  0  0
   -1.6620   26.0480  -25.8000 C   0  0  0  0  0  0  0  0  0  0  0  0
   -0.8250   26.3480  -26.8840 C   0  0  0  0  0  0  0  0  0  0  0  0
   -1.0680   25.7790  -28.1370 C   0  0  0  0  0  0  0  0  0  0  0  0
   -0.4059   26.0110  -28.9842 H   0  0  0  0  0  0  0  0  0  0  0  0
    0.2470   27.2240  -26.6910 O   0  0  0  0  0  0  0  0  0  0  0  0
    0.3480   28.0190  -25.5060 C   0  0  0  0  0  0  0  0  0  0  0  0
    1.3939   28.3293  -25.3650 H   0  0  0  0  0  0  0  0  0  0  0  0
   -0.2961   28.9043  -25.6126 H   0  0  0  0  0  0  0  0  0  0  0  0
   -0.1100   27.2120  -24.2840 C   0  0  0  0  0  0  0  0  0  0  0  0
    0.6373   26.4364  -24.0602 H   0  0  0  0  0  0  0  0  0  0  0  0
   -0.2161   27.8913  -23.4253 H   0  0  0  0  0  0  0  0  0  0  0  0
   -1.3710   26.5910  -24.5450 O   0  0  0  0  0  0  0  0  0  0  0  0
   -4.2220   25.6670  -30.4680 N   0  0  0  0  0  0  0  0  0  0  0  0
   -3.9280   26.6260  -30.1820 H   0  0  0  0  0  0  0  0  0  0  0  0
   -5.3000   25.4080  -31.1870 N   0  0  0  0  0  0  0  0  0  0  0  0
   -7.5900   21.4390  -32.1140 C   0  0  0  0  0  0  0  0  0  0  0  0
   -8.4524   22.0416  -31.7929 H   0  0  0  0  0  0  0  0  0  0  0  0
   -7.7550   20.0650  -32.3580 C   0  0  0  0  0  0  0  0  0  0  0  0
   -9.0890   19.4100  -32.1430 C   0  0  0  0  0  0  0  0  0  0  0  0
   -9.2814   19.3155  -31.0641 H   0  0  0  0  0  0  0  0  0  0  0  0
   -9.8772   20.0235  -32.6037 H   0  0  0  0  0  0  0  0  0  0  0  0
   -9.0855   18.4111  -32.6037 H   0  0  0  0  0  0  0  0  0  0  0  0
   -6.6500   19.3000  -32.7660 C   0  0  0  0  0  0  0  0  0  0  0  0
   -6.7780   17.9670  -32.9900 F   0  0  0  0  0  0  0  0  0  0  0  0
  1  2  1  0
  2  3  2  0
  3  4  1  0
  3  5  1  0
  5  6  1  0
  6  7  2  0
  7  8  1  0
  8  9  1  0
  9 10  2  0
 10 11  1  0
 11 12  2  0
 12 13  1  0
 12 14  1  0
 14 15  1  0
 14 16  2  0
 16 17  1  0
 17 18  2  0
 18 19  1  0
 17 20  1  0
 20 21  1  0
 21 22  1  0
 21 23  1  0
 21 24  1  0
 24 25  1  0
 24 26  1  0
 24 27  1  0
  9 28  1  0
 28 29  1  0
 28 30  1  0
  5 31  2  0
 31 32  1  0
 31 33  1  0
 33 34  1  0
 34 35  1  0
 34 36  1  0
 34 37  1  0
 33 38  2  0
 38 39  1  0
 38  2  1  0
 30  7  1  0
 18 11  1  0
 27 16  1  0
M  CHG  2   8  -1  30  -1
M  END
>  <UniqueID>  (11) 
10

>  <SMILES>  (11) 
Cc1cc(/N=c2/[n-][nH]/c(=N\c3ccc4c(c3)OCCO4)[n-]2)ccc1F

>  <Energy>  (11) 
90.11909411242125

>  <Genealogy>  (11) 
Cc1cc(N=c2[n-][nH]c(=Nc3ccc4c(c3)OCCO4)[n-]2)ccc1F (protonated)
Cc1cc(/N=c2/[n-][nH]/c(=N\c3ccc4c(c3)OCCO4)[n-]2)ccc1F (cis-trans isomerization)
Cc1cc(/N=c2/[n-][nH]/c(=N\c3ccc4c(c3)OCCO4)[n-]2)ccc1F (3D coordinates assigned)
Cc1cc(/N=c2/[n-][nH]/c(=N\c3ccc4c(c3)OCCO4)[n-]2)ccc1F (nonaromatic ring conformer: 90.11909411242125 kcal/mol)

>  <smiles>  (11) 
Cc1cc(N=c2[nH][nH]c(=Nc3ccc4c(c3)OCCO4)[nH]2)ccc1F

>  <score_type>  (11) 
oracle

>  <origin>  (11) 
adg

>  <m_score__min__energy>  (11) 
-10.550000000000001

>  <m_primary>  (11) 
energy

$$$$
11:0
     RDKit          3D

 62 65  0  0  0  0  0  0  0  0999 V2000
   -1.4830   25.4700  -27.8550 C   0  0  0  0  0  0  0  0  0  0  0  0
   -2.1180   25.3260  -29.1210 O   0  0  0  0  0  0  0  0  0  0  0  0
   -2.4360   24.1000  -29.7250 C   0  0  0  0  0  0  0  0  0  0  0  0
   -1.6710   22.9450  -29.5040 C   0  0  0  0  0  0  0  0  0  0  0  0
   -2.0110   21.7240  -30.1050 C   0  0  0  0  0  0  0  0  0  0  0  0
   -3.1180   21.6660  -30.9780 C   0  0  0  0  0  0  0  0  0  0  0  0
   -3.8690   22.8440  -31.2340 C   0  0  0  0  0  0  0  0  0  0  0  0
   -4.9340   22.8080  -32.1410 O   0  0  0  0  0  0  0  0  0  0  0  0
   -6.2920   22.8670  -31.7200 C   0  0  0  0  0  0  0  0  0  0  0  0
   -3.5540   24.0490  -30.5630 C   0  0  0  0  0  0  0  0  0  0  0  0
   -4.3010   25.2350  -30.6870 O   0  0  0  0  0  0  0  0  0  0  0  0
   -5.5320   25.5470  -30.0380 C   0  0  0  0  0  0  0  0  0  0  0  0
   -3.5360   20.3890  -31.6230 C   0  0  0  0  0  0  0  0  0  0  0  0
   -4.8270   19.9610  -31.3060 C   0  0  0  0  0  0  0  0  0  0  0  0
   -5.6110   18.9960  -31.9270 C   0  0  0  0  0  0  0  0  0  0  0  0
   -5.4340   18.4060  -33.1770 C   0  0  0  0  0  0  0  0  0  0  0  0
   -6.8360   17.4420  -33.7810 S   0  0  0  0  0  0  0  0  0  0  0  0
   -5.9480   15.8540  -33.7070 C   0  0  0  0  0  0  0  0  0  0  0  0
   -4.3020   18.4950  -33.9980 C   0  0  0  0  0  0  0  0  0  0  0  0
   -4.3780   17.9770  -35.1460 O   0  0  0  0  0  0  0  0  0  0  0  0
   -3.0560   19.0120  -33.6440 C   0  0  0  0  0  0  0  0  0  0  0  0
   -2.6520   19.7330  -32.5070 C   0  0  0  0  0  0  0  0  0  0  0  0
   -1.1440   19.8970  -32.3380 C   0  0  1  0  0  0  0  0  0  0  0  0
   -0.6650   21.1800  -32.9070 N   0  0  0  0  0  0  0  0  0  0  0  0
   -0.7370   21.2190  -34.3780 C   0  0  0  0  0  0  0  0  0  0  0  0
    0.4580   21.9290  -34.9590 C   0  0  0  0  0  0  0  0  0  0  0  0
    0.2850   23.0820  -35.7480 C   0  0  0  0  0  0  0  0  0  0  0  0
    1.3980   23.7470  -36.2760 C   0  0  0  0  0  0  0  0  0  0  0  0
    2.6850   23.2630  -36.0190 C   0  0  0  0  0  0  0  0  0  0  0  0
    2.8640   22.1130  -35.2400 C   0  0  0  0  0  0  0  0  0  0  0  0
    1.7560   21.4440  -34.7150 C   0  0  0  0  0  0  0  0  0  0  0  0
   -0.6880   19.6090  -30.8860 C   0  0  0  0  0  0  0  0  0  0  0  0
   -1.2080   20.5000  -29.7280 C   0  0  0  0  0  0  0  0  0  0  0  0
   -2.2189   25.3031  -27.0546 H   0  0  0  0  0  0  0  0  0  0  0  0
   -0.6711   24.7332  -27.7661 H   0  0  0  0  0  0  0  0  0  0  0  0
   -1.0684   26.4850  -27.7661 H   0  0  0  0  0  0  0  0  0  0  0  0
   -0.7895   22.9978  -28.8482 H   0  0  0  0  0  0  0  0  0  0  0  0
   -6.3354   22.8689  -30.6209 H   0  0  0  0  0  0  0  0  0  0  0  0
   -6.7562   23.7862  -32.1068 H   0  0  0  0  0  0  0  0  0  0  0  0
   -6.8342   21.9916  -32.1068 H   0  0  0  0  0  0  0  0  0  0  0  0
   -5.3910   25.5113  -28.9477 H   0  0  0  0  0  0  0  0  0  0  0  0
   -5.8566   26.5558  -30.3329 H   0  0  0  0  0  0  0  0  0  0  0  0
   -6.2979   24.8146  -30.3329 H   0  0  0  0  0  0  0  0  0  0  0  0
   -5.2895   20.4589  -30.4410 H   0  0  0  0  0  0  0  0  0  0  0  0
   -6.4867   18.6527  -31.3566 H   0  0  0  0  0  0  0  0  0  0  0  0
   -5.7898   15.5710  -32.6559 H   0  0  0  0  0  0  0  0  0  0  0  0
   -6.5428   15.0775  -34.2102 H   0  0  0  0  0  0  0  0  0  0  0  0
   -4.9750   15.9542  -34.2102 H   0  0  0  0  0  0  0  0  0  0  0  0
   -2.2567   18.8244  -34.3761 H   0  0  0  0  0  0  0  0  0  0  0  0
   -0.6424   19.1232  -32.9376 H   0  0  0  0  0  0  0  0  0  0  0  0
    0.3270   21.3580  -32.6450 H   0  0  0  0  0  0  0  0  0  0  0  0
   -0.7663   20.1894  -34.7640 H   0  0  0  0  0  0  0  0  0  0  0  0
   -1.6455   21.7663  -34.6698 H   0  0  0  0  0  0  0  0  0  0  0  0
   -0.7275   23.4614  -35.9502 H   0  0  0  0  0  0  0  0  0  0  0  0
    1.2608   24.6482  -36.8917 H   0  0  0  0  0  0  0  0  0  0  0  0
    3.5599   23.7877  -36.4304 H   0  0  0  0  0  0  0  0  0  0  0  0
    3.8782   21.7362  -35.0414 H   0  0  0  0  0  0  0  0  0  0  0  0
    1.8984   20.5365  -34.1098 H   0  0  0  0  0  0  0  0  0  0  0  0
   -0.9902   18.5768  -30.6552 H   0  0  0  0  0  0  0  0  0  0  0  0
    0.3911   19.8212  -30.9088 H   0  0  0  0  0  0  0  0  0  0  0  0
   -1.8438   19.8717  -29.0869 H   0  0  0  0  0  0  0  0  0  0  0  0
   -0.3019   20.8934  -29.2441 H   0  0  0  0  0  0  0  0  0  0  0  0
  1  2  1  0
  2  3  1  0
  3  4  2  0
  4  5  1  0
  5  6  2  0
  6  7  1  0
  7  8  1  0
  8  9  1  0
  7 10  2  0
 10 11  1  0
 11 12  1  0
  6 13  1  0
 13 14  2  0
 14 15  1  0
 15 16  2  0
 16 17  1  0
 17 18  1  0
 16 19  1  0
 19 20  2  0
 19 21  1  0
 21 22  2  0
 22 23  1  0
 23 24  1  0
 24 25  1  0
 25 26  1  0
 26 27  2  0
 27 28  1  0
 28 29  2  0
 29 30  1  0
 30 31  2  0
 23 32  1  0
 32 33  1  0
 10  3  1  0
 22 13  1  0
 31 26  1  0
 33  5  1  0
  1 34  1  0
  1 35  1  0
  1 36  1  0
  4 37  1  0
  9 38  1  0
  9 39  1  0
  9 40  1  0
 12 41  1  0
 12 42  1  0
 12 43  1  0
 14 44  1  0
 15 45  1  0
 18 46  1  0
 18 47  1  0
 18 48  1  0
 21 49  1  0
 23 50  1  6
 24 51  1  0
 25 52  1  0
 25 53  1  0
 27 54  1  0
 28 55  1  0
 29 56  1  0
 30 57  1  0
 31 58  1  0
 32 59  1  0
 32 60  1  0
 33 61  1  0
 33 62  1  0
M  END
>  <UniqueID>  (12) 
11

>  <SMILES>  (12) 
COc1cc2c(c(OC)c1OC)-c1ccc(SC)c(=O)cc1[C@@H](NCc1ccccc1)CC2

>  <Energy>  (12) 
121.45394200527167

>  <Genealogy>  (12) 
COc1cc2c(c(OC)c1OC)-c1ccc(SC)c(=O)cc1[C@@H](NCc1ccccc1)CC2 (chirality)
COc1cc2c(c(OC)c1OC)-c1ccc(SC)c(=O)cc1[C@@H](NCc1ccccc1)CC2 (3D coordinates assigned)
COc1cc2c(c(OC)c1OC)-c1ccc(SC)c(=O)cc1[C@@H](NCc1ccccc1)CC2 (nonaromatic ring conformer: 121.45394200527167 kcal/mol)

>  <smiles>  (12) 
COc1cc2c(c(OC)c1OC)-c1ccc(SC)c(=O)cc1C(NCc1ccccc1)CC2

>  <score_type>  (12) 
oracle

>  <origin>  (12) 
adg

>  <m_score__min__energy>  (12) 
-7.71

>  <m_primary>  (12) 
energy

$$$$
12:0
     RDKit          3D

 29 30  0  0  0  0  0  0  0  0999 V2000
   -8.1320   18.5500  -31.6440 C   0  0  0  0  0  0  0  0  0  0  0  0
   -8.4730   19.4280  -32.7810 N   0  0  2  0  0  0  0  0  0  0  0  0
   -7.2660   19.9320  -33.4680 C   0  0  0  0  0  0  0  0  0  0  0  0
   -6.5760   21.0340  -32.7070 C   0  0  0  0  0  0  0  0  0  0  0  0
   -7.2230   21.8250  -31.8340 C   0  0  0  0  0  0  0  0  0  0  0  0
   -6.4900   22.9110  -31.1370 C   0  0  0  0  0  0  0  0  0  0  0  0
   -7.1900   23.9590  -30.5100 C   0  0  0  0  0  0  0  0  0  0  0  0
   -6.4960   24.9870  -29.8630 C   0  0  0  0  0  0  0  0  0  0  0  0
   -5.1000   24.9790  -29.8330 C   0  0  0  0  0  0  0  0  0  0  0  0
   -4.3950   23.9440  -30.4520 C   0  0  0  0  0  0  0  0  0  0  0  0
   -5.0840   22.9150  -31.1020 C   0  0  0  0  0  0  0  0  0  0  0  0
   -8.6530   21.5320  -31.4340 C   0  0  0  0  0  0  0  0  0  0  0  0
   -9.3530   20.5460  -32.3830 C   0  0  0  0  0  0  0  0  0  0  0  0
   -8.3365   19.0764  -30.7000 H   0  0  0  0  0  0  0  0  0  0  0  0
   -8.7400   17.6346  -31.6924 H   0  0  0  0  0  0  0  0  0  0  0  0
   -7.0655   18.2849  -31.6924 H   0  0  0  0  0  0  0  0  0  0  0  0
   -9.0050   18.8430  -33.4690 H   0  0  0  0  0  0  0  0  0  0  0  0
   -6.5602   19.0979  -33.5950 H   0  0  0  0  0  0  0  0  0  0  0  0
   -7.5857   20.3482  -34.4347 H   0  0  0  0  0  0  0  0  0  0  0  0
   -5.5009   21.1976  -32.8723 H   0  0  0  0  0  0  0  0  0  0  0  0
   -8.2898   23.9697  -30.5289 H   0  0  0  0  0  0  0  0  0  0  0  0
   -7.0510   25.8030  -29.3771 H   0  0  0  0  0  0  0  0  0  0  0  0
   -4.5558   25.7871  -29.3223 H   0  0  0  0  0  0  0  0  0  0  0  0
   -3.2953   23.9383  -30.4281 H   0  0  0  0  0  0  0  0  0  0  0  0
   -4.5228   22.1038  -31.5889 H   0  0  0  0  0  0  0  0  0  0  0  0
   -8.6526   21.1030  -30.4211 H   0  0  0  0  0  0  0  0  0  0  0  0
   -9.2077   22.4809  -31.4784 H   0  0  0  0  0  0  0  0  0  0  0  0
  -10.2386   20.1355  -31.8758 H   0  0  0  0  0  0  0  0  0  0  0  0
   -9.6301   21.0962  -33.2943 H   0  0  0  0  0  0  0  0  0  0  0  0
  1  2  1  0
  2  3  1  0
  3  4  1  0
  4  5  2  0
  5  6  1  0
  6  7  2  0
  7  8  1  0
  8  9  2  0
  9 10  1  0
 10 11  2  0
  5 12  1  0
 12 13  1  0
 13  2  1  0
 11  6  1  0
  1 14  1  0
  1 15  1  0
  1 16  1  0
  2 17  1  6
  3 18  1  0
  3 19  1  0
  4 20  1  0
  7 21  1  0
  8 22  1  0
  9 23  1  0
 10 24  1  0
 11 25  1  0
 12 26  1  0
 12 27  1  0
 13 28  1  0
 13 29  1  0
M  CHG  1   2   1
M  END
>  <UniqueID>  (13) 
12

>  <SMILES>  (13) 
C[N@@H+]1CC=C(c2ccccc2)CC1

>  <Energy>  (13) 
37.87900119387542

>  <Genealogy>  (13) 
C[NH+]1CC=C(c2ccccc2)CC1 (protonated)
C[N@@H+]1CC=C(c2ccccc2)CC1 (chirality)
C[N@@H+]1CC=C(c2ccccc2)CC1 (3D coordinates assigned)
C[N@@H+]1CC=C(c2ccccc2)CC1 (nonaromatic ring conformer: 37.87900119387542 kcal/mol)

>  <smiles>  (13) 
CN1CC=C(c2ccccc2)CC1

>  <score_type>  (13) 
oracle

>  <origin>  (13) 
adg

>  <m_score__min__energy>  (13) 
-5.8799999999999999

>  <m_primary>  (13) 
energy

$$$$
13:0
     RDKit          3D

 43 45  0  0  0  0  0  0  0  0999 V2000
   -6.9620   23.0820  -29.8130 C   0  0  0  0  0  0  0  0  0  0  0  0
   -6.4060   23.1170  -31.1690 N   0  0  0  0  0  0  0  0  0  0  0  0
   -7.2460   22.7670  -32.3240 C   0  0  0  0  0  0  0  0  0  0  0  0
   -7.5770   21.2990  -32.2990 C   0  0  0  0  0  0  0  0  0  0  0  0
   -6.7180   20.3680  -32.9080 C   0  0  0  0  0  0  0  0  0  0  0  0
   -7.0410   19.0070  -32.9080 C   0  0  0  0  0  0  0  0  0  0  0  0
   -8.2190   18.5670  -32.2990 C   0  0  0  0  0  0  0  0  0  0  0  0
   -9.0800   19.4870  -31.6930 C   0  0  0  0  0  0  0  0  0  0  0  0
   -8.7670   20.8510  -31.7020 C   0  0  0  0  0  0  0  0  0  0  0  0
   -4.9940   23.3280  -31.3540 C   0  0  0  0  0  0  0  0  0  0  0  0
   -4.5180   24.4860  -31.2020 O   0  0  0  0  0  0  0  0  0  0  0  0
   -4.0810   22.2230  -31.7270 C   0  0  0  0  0  0  0  0  0  0  0  0
   -3.8720   21.9280  -33.0820 C   0  0  0  0  0  0  0  0  0  0  0  0
   -2.9850   20.9170  -33.4520 C   0  0  0  0  0  0  0  0  0  0  0  0
   -2.3040   20.2100  -32.4640 C   0  0  0  0  0  0  0  0  0  0  0  0
   -2.4960   20.5120  -31.1520 N   0  0  0  0  0  0  0  0  0  0  0  0
   -3.3470   21.5060  -30.7590 C   0  0  0  0  0  0  0  0  0  0  0  0
   -3.5100   21.8060  -29.3990 O   0  0  0  0  0  0  0  0  0  0  0  0
   -2.9680   22.9250  -28.7560 C   0  0  0  0  0  0  0  0  0  0  0  0
   -3.6070   23.4230  -27.6130 C   0  0  0  0  0  0  0  0  0  0  0  0
   -3.1150   24.5630  -26.9700 C   0  0  0  0  0  0  0  0  0  0  0  0
   -1.9840   25.2150  -27.4700 C   0  0  0  0  0  0  0  0  0  0  0  0
   -1.3460   24.7280  -28.6130 C   0  0  0  0  0  0  0  0  0  0  0  0
   -1.8350   23.5880  -29.2580 C   0  0  0  0  0  0  0  0  0  0  0  0
   -6.1437   23.1335  -29.0797 H   0  0  0  0  0  0  0  0  0  0  0  0
   -7.6362   23.9395  -29.6709 H   0  0  0  0  0  0  0  0  0  0  0  0
   -7.5233   22.1467  -29.6709 H   0  0  0  0  0  0  0  0  0  0  0  0
   -8.1778   23.3504  -32.2859 H   0  0  0  0  0  0  0  0  0  0  0  0
   -6.6976   22.9960  -33.2497 H   0  0  0  0  0  0  0  0  0  0  0  0
   -5.7886   20.7108  -33.3862 H   0  0  0  0  0  0  0  0  0  0  0  0
   -6.3668   18.2823  -33.3880 H   0  0  0  0  0  0  0  0  0  0  0  0
   -8.4693   17.4959  -32.2963 H   0  0  0  0  0  0  0  0  0  0  0  0
  -10.0041   19.1384  -31.2088 H   0  0  0  0  0  0  0  0  0  0  0  0
   -9.4549   21.5745  -31.2402 H   0  0  0  0  0  0  0  0  0  0  0  0
   -4.4094   22.4959  -33.8558 H   0  0  0  0  0  0  0  0  0  0  0  0
   -2.8249   20.6803  -34.5142 H   0  0  0  0  0  0  0  0  0  0  0  0
   -1.6090   19.4052  -32.7456 H   0  0  0  0  0  0  0  0  0  0  0  0
   -1.9840   19.9470  -30.4370 H   0  0  0  0  0  0  0  0  0  0  0  0
   -4.4998   22.9149  -27.2196 H   0  0  0  0  0  0  0  0  0  0  0  0
   -3.6181   24.9470  -26.0703 H   0  0  0  0  0  0  0  0  0  0  0  0
   -1.5967   26.1113  -26.9634 H   0  0  0  0  0  0  0  0  0  0  0  0
   -0.4569   25.2424  -29.0066 H   0  0  0  0  0  0  0  0  0  0  0  0
   -1.3320   23.2093  -30.1600 H   0  0  0  0  0  0  0  0  0  0  0  0
  1  2  1  0
  2  3  1  0
  3  4  1  0
  4  5  2  0
  5  6  1  0
  6  7  2  0
  7  8  1  0
  8  9  2  0
  2 10  1  0
 10 11  2  0
 10 12  1  0
 12 13  2  0
 13 14  1  0
 14 15  2  0
 15 16  1  0
 16 17  2  0
 17 18  1  0
 18 19  1  0
 19 20  2  0
 20 21  1  0
 21 22  2  0
 22 23  1  0
 23 24  2  0
  9  4  1  0
 17 12  1  0
 24 19  1  0
  1 25  1  0
  1 26  1  0
  1 27  1  0
  3 28  1  0
  3 29  1  0
  5 30  1  0
  6 31  1  0
  7 32  1  0
  8 33  1  0
  9 34  1  0
 13 35  1  0
 14 36  1  0
 15 37  1  0
 16 38  1  0
 20 39  1  0
 21 40  1  0
 22 41  1  0
 23 42  1  0
 24 43  1  0
M  CHG  1  16   1
M  END
>  <UniqueID>  (14) 
13

>  <SMILES>  (14) 
CN(Cc1ccccc1)C(=O)c1ccc[nH+]c1Oc1ccccc1

>  <Energy>  (14) 
51.1415429213325

>  <Genealogy>  (14) 
CN(Cc1ccccc1)C(=O)c1ccc[nH+]c1Oc1ccccc1 (protonated)
CN(Cc1ccccc1)C(=O)c1ccc[nH+]c1Oc1ccccc1 (3D coordinates assigned)
CN(Cc1ccccc1)C(=O)c1ccc[nH+]c1Oc1ccccc1 (optimized conformer: 51.1415429213325 kcal/mol)

>  <smiles>  (14) 
CN(Cc1ccccc1)C(=O)c1cccnc1Oc1ccccc1

>  <score_type>  (14) 
oracle

>  <origin>  (14) 
adg

>  <m_score__min__energy>  (14) 
-7.6799999999999997

>  <m_primary>  (14) 
energy

$$$$
14:0
     RDKit          3D

 28 28  0  0  0  0  0  0  0  0999 V2000
   -6.0030   22.2580  -32.3010 C   0  0  0  0  0  0  0  0  0  0  0  0
   -7.0260   23.3580  -31.9950 C   0  0  0  0  0  0  0  0  0  0  0  0
   -6.6330   24.1360  -30.7300 C   0  0  0  0  0  0  0  0  0  0  0  0
   -8.4830   22.8340  -31.9410 C   0  0  0  0  0  0  0  0  0  0  0  0
   -8.6840   21.4710  -31.2500 C   0  0  0  0  0  0  0  0  0  0  0  0
   -9.4660   20.2280  -32.3430 S   0  0  0  0  0  0  0  0  0  0  0  0
   -7.9900   19.2280  -32.5540 C   0  0  0  0  0  0  0  0  0  0  0  0
   -7.6280   18.2980  -31.5730 C   0  0  0  0  0  0  0  0  0  0  0  0
   -6.4830   17.5210  -31.7550 C   0  0  0  0  0  0  0  0  0  0  0  0
   -5.7180   17.6750  -32.9120 C   0  0  0  0  0  0  0  0  0  0  0  0
   -6.1140   18.6060  -33.8760 C   0  0  0  0  0  0  0  0  0  0  0  0
   -7.2350   19.3550  -33.6830 N   0  0  0  0  0  0  0  0  0  0  0  0
   -5.6173   21.8433  -31.3580 H   0  0  0  0  0  0  0  0  0  0  0  0
   -6.4865   21.4590  -32.8823 H   0  0  0  0  0  0  0  0  0  0  0  0
   -5.1711   22.6823  -32.8823 H   0  0  0  0  0  0  0  0  0  0  0  0
   -7.0038   24.0624  -32.8396 H   0  0  0  0  0  0  0  0  0  0  0  0
   -6.9242   23.5594  -29.8396 H   0  0  0  0  0  0  0  0  0  0  0  0
   -5.5450   24.2979  -30.7223 H   0  0  0  0  0  0  0  0  0  0  0  0
   -7.1483   25.1078  -30.7223 H   0  0  0  0  0  0  0  0  0  0  0  0
   -9.0886   23.5775  -31.4020 H   0  0  0  0  0  0  0  0  0  0  0  0
   -8.7838   22.6835  -32.9883 H   0  0  0  0  0  0  0  0  0  0  0  0
   -7.7022   21.0905  -30.9316 H   0  0  0  0  0  0  0  0  0  0  0  0
   -9.3577   21.6300  -30.3951 H   0  0  0  0  0  0  0  0  0  0  0  0
   -8.2403   18.1804  -30.6667 H   0  0  0  0  0  0  0  0  0  0  0  0
   -6.1846   16.7899  -30.9892 H   0  0  0  0  0  0  0  0  0  0  0  0
   -4.8122   17.0695  -33.0637 H   0  0  0  0  0  0  0  0  0  0  0  0
   -5.5192   18.7341  -34.7924 H   0  0  0  0  0  0  0  0  0  0  0  0
   -7.5150   20.0440  -34.4170 H   0  0  0  0  0  0  0  0  0  0  0  0
  1  2  1  0
  2  3  1  0
  2  4  1  0
  4  5  1  0
  5  6  1  0
  6  7  1  0
  7  8  2  0
  8  9  1  0
  9 10  2  0
 10 11  1  0
 11 12  2  0
 12  7  1  0
  1 13  1  0
  1 14  1  0
  1 15  1  0
  2 16  1  0
  3 17  1  0
  3 18  1  0
  3 19  1  0
  4 20  1  0
  4 21  1  0
  5 22  1  0
  5 23  1  0
  8 24  1  0
  9 25  1  0
 10 26  1  0
 11 27  1  0
 12 28  1  0
M  CHG  1  12   1
M  END
>  <UniqueID>  (15) 
14

>  <SMILES>  (15) 
CC(C)CCSc1cccc[nH+]1

>  <Energy>  (15) 
18.651975379481904

>  <Genealogy>  (15) 
CC(C)CCSc1cccc[nH+]1 (protonated)
CC(C)CCSc1cccc[nH+]1 (3D coordinates assigned)
CC(C)CCSc1cccc[nH+]1 (optimized conformer: 18.651975379481904 kcal/mol)

>  <smiles>  (15) 
CC(C)CCSc1ccccn1

>  <score_type>  (15) 
oracle

>  <origin>  (15) 
adg

>  <m_score__min__energy>  (15) 
-5.0199999999999996

>  <m_primary>  (15) 
energy

$$$$
15:0
     RDKit          3D

 39 41  0  0  0  0  0  0  0  0999 V2000
   -3.9890   25.0270  -30.8280 N   0  0  0  0  0  0  0  0  0  0  0  0
   -5.2580   24.4150  -30.5990 C   0  0  0  0  0  0  0  0  0  0  0  0
   -6.0570   24.9470  -29.7800 O   0  0  0  0  0  0  0  0  0  0  0  0
   -5.6270   23.2090  -31.2940 N   0  0  0  0  0  0  0  0  0  0  0  0
   -4.6500   22.4950  -32.1290 C   0  0  0  0  0  0  0  0  0  0  0  0
   -4.8900   20.9850  -32.0300 C   0  0  0  0  0  0  0  0  0  0  0  0
   -6.3360   20.5580  -32.4660 C   0  0  0  0  0  0  0  0  0  0  0  0
   -7.3250   21.7660  -32.3690 C   0  0  0  0  0  0  0  0  0  0  0  0
   -7.0060   22.7080  -31.2020 C   0  0  0  0  0  0  0  0  0  0  0  0
   -6.8570   19.4140  -31.5520 C   0  0  0  0  0  0  0  0  0  0  0  0
   -6.0680   18.1160  -31.7350 C   0  0  0  0  0  0  0  0  0  0  0  0
   -6.0650   17.7110  -33.1480 N   0  0  0  0  0  0  0  0  0  0  0  0
   -6.1250   16.3110  -33.5040 C   0  0  0  0  0  0  0  0  0  0  0  0
   -5.1450   15.4540  -33.1110 N   0  0  0  0  0  0  0  0  0  0  0  0
   -5.1940   14.1390  -33.4430 C   0  0  0  0  0  0  0  0  0  0  0  0
   -6.2620   13.6660  -34.1980 C   0  0  0  0  0  0  0  0  0  0  0  0
   -7.2280   14.5380  -34.5800 N   0  0  0  0  0  0  0  0  0  0  0  0
   -7.1630   15.8280  -34.2440 N   0  0  0  0  0  0  0  0  0  0  0  0
   -5.6320   18.7060  -34.1420 C   0  0  0  0  0  0  0  0  0  0  0  0
   -6.3470   20.0520  -33.9370 C   0  0  0  0  0  0  0  0  0  0  0  0
   -3.8600   25.7230  -31.5950 H   0  0  0  0  0  0  0  0  0  0  0  0
   -4.7609   22.8148  -33.1756 H   0  0  0  0  0  0  0  0  0  0  0  0
   -3.6335   22.7256  -31.7774 H   0  0  0  0  0  0  0  0  0  0  0  0
   -4.1639   20.4725  -32.6782 H   0  0  0  0  0  0  0  0  0  0  0  0
   -4.7713   20.7041  -30.9731 H   0  0  0  0  0  0  0  0  0  0  0  0
   -7.2720   22.3388  -33.3066 H   0  0  0  0  0  0  0  0  0  0  0  0
   -8.3306   21.3554  -32.1955 H   0  0  0  0  0  0  0  0  0  0  0  0
   -7.7011   23.5602  -31.2267 H   0  0  0  0  0  0  0  0  0  0  0  0
   -7.1151   22.1502  -30.2602 H   0  0  0  0  0  0  0  0  0  0  0  0
   -6.7725   19.7338  -30.5029 H   0  0  0  0  0  0  0  0  0  0  0  0
   -7.9023   19.2130  -31.8292 H   0  0  0  0  0  0  0  0  0  0  0  0
   -5.0317   18.2720  -31.4008 H   0  0  0  0  0  0  0  0  0  0  0  0
   -6.5432   17.3234  -31.1384 H   0  0  0  0  0  0  0  0  0  0  0  0
   -4.3969   13.4540  -33.1182 H   0  0  0  0  0  0  0  0  0  0  0  0
   -6.3221   12.6045  -34.4801 H   0  0  0  0  0  0  0  0  0  0  0  0
   -4.5469   18.8589  -34.0461 H   0  0  0  0  0  0  0  0  0  0  0  0
   -5.8860   18.3281  -35.1433 H   0  0  0  0  0  0  0  0  0  0  0  0
   -5.8510   20.8062  -34.5657 H   0  0  0  0  0  0  0  0  0  0  0  0
   -7.4008   19.8971  -34.2119 H   0  0  0  0  0  0  0  0  0  0  0  0
  1  2  1  0
  2  3  2  0
  2  4  1  0
  4  5  1  0
  5  6  1  0
  6  7  1  0
  7  8  1  0
  8  9  1  0
  7 10  1  0
 10 11  1  0
 11 12  1  0
 12 13  1  0
 13 14  2  0
 14 15  1  0
 15 16  2  0
 16 17  1  0
 17 18  2  0
 12 19  1  0
 19 20  1  0
  9  4  1  0
 18 13  1  0
 20  7  1  0
  1 21  1  0
  5 22  1  0
  5 23  1  0
  6 24  1  0
  6 25  1  0
  8 26  1  0
  8 27  1  0
  9 28  1  0
  9 29  1  0
 10 30  1  0
 10 31  1  0
 11 32  1  0
 11 33  1  0
 15 34  1  0
 16 35  1  0
 19 36  1  0
 19 37  1  0
 20 38  1  0
 20 39  1  0
M  CHG  1   1  -1
M  END
>  <UniqueID>  (16) 
15

>  <SMILES>  (16) 
[NH-]C(=O)N1CCC2(CC1)CCN(c1nccnn1)CC2

>  <Energy>  (16) 
45.93892597142787

>  <Genealogy>  (16) 
[NH-]C(=O)N1CCC2(CC1)CCN(c1nccnn1)CC2 (protonated)
[NH-]C(=O)N1CCC2(CC1)CCN(c1nccnn1)CC2 (3D coordinates assigned)
[NH-]C(=O)N1CCC2(CC1)CCN(c1nccnn1)CC2 (nonaromatic ring conformer: 45.93892597142787 kcal/mol)

>  <smiles>  (16) 
NC(=O)N1CCC2(CC1)CCN(c1nccnn1)CC2

>  <score_type>  (16) 
oracle

>  <origin>  (16) 
adg

>  <m_score__min__energy>  (16) 
-8.8599999999999994

>  <m_primary>  (16) 
energy

$$$$
16:0
     RDKit          3D

 46 47  0  0  0  0  0  0  0  0999 V2000
   -6.4690   16.1950  -33.8420 C   0  0  0  0  0  0  0  0  0  0  0  0
   -7.0440   17.0890  -32.8950 O   0  0  0  0  0  0  0  0  0  0  0  0
   -6.6500   18.4250  -32.7220 C   0  0  0  0  0  0  0  0  0  0  0  0
   -5.4610   18.8460  -33.3230 C   0  0  0  0  0  0  0  0  0  0  0  0
   -5.0130   20.1720  -33.1850 C   0  0  0  0  0  0  0  0  0  0  0  0
   -3.8230   20.6220  -33.7790 O   0  0  0  0  0  0  0  0  0  0  0  0
   -2.5550   19.9960  -33.6220 C   0  0  0  0  0  0  0  0  0  0  0  0
   -5.7770   21.0810  -32.4350 C   0  0  0  0  0  0  0  0  0  0  0  0
   -5.3090   22.4280  -32.2530 N   0  0  0  0  0  0  0  0  0  0  0  0
   -6.2670   23.5340  -32.2550 C   0  0  0  0  0  0  0  0  0  0  0  0
   -3.9010   22.6750  -31.9150 C   0  0  0  0  0  0  0  0  0  0  0  0
   -3.7330   22.8190  -30.4220 C   0  0  0  0  0  0  0  0  0  0  0  0
   -3.4900   21.6760  -29.6410 C   0  0  0  0  0  0  0  0  0  0  0  0
   -3.4060   21.7740  -28.2510 C   0  0  0  0  0  0  0  0  0  0  0  0
   -3.5730   23.0100  -27.6260 C   0  0  0  0  0  0  0  0  0  0  0  0
   -3.8260   24.1530  -28.3890 C   0  0  0  0  0  0  0  0  0  0  0  0
   -3.9150   24.0680  -29.7930 C   0  0  0  0  0  0  0  0  0  0  0  0
   -4.1890   25.1950  -30.5850 O   0  0  0  0  0  0  0  0  0  0  0  0
   -5.3600   25.9960  -30.4730 C   0  0  0  0  0  0  0  0  0  0  0  0
   -6.9730   20.6700  -31.8210 C   0  0  0  0  0  0  0  0  0  0  0  0
   -7.6880   21.6070  -31.0570 O   0  0  0  0  0  0  0  0  0  0  0  0
   -9.0940   21.8130  -31.1380 C   0  0  0  0  0  0  0  0  0  0  0  0
   -7.4060   19.3410  -31.9710 C   0  0  0  0  0  0  0  0  0  0  0  0
   -5.9477   15.3845  -33.3116 H   0  0  0  0  0  0  0  0  0  0  0  0
   -7.2629   15.7690  -34.4731 H   0  0  0  0  0  0  0  0  0  0  0  0
   -5.7521   16.7407  -34.4731 H   0  0  0  0  0  0  0  0  0  0  0  0
   -4.8676   18.1310  -33.9118 H   0  0  0  0  0  0  0  0  0  0  0  0
   -2.3308   19.8853  -32.5508 H   0  0  0  0  0  0  0  0  0  0  0  0
   -2.5745   19.0040  -34.0969 H   0  0  0  0  0  0  0  0  0  0  0  0
   -1.7793   20.6147  -34.0969 H   0  0  0  0  0  0  0  0  0  0  0  0
   -6.5080   23.8122  -31.2184 H   0  0  0  0  0  0  0  0  0  0  0  0
   -5.8277   24.3987  -32.7740 H   0  0  0  0  0  0  0  0  0  0  0  0
   -7.1855   23.2226  -32.7740 H   0  0  0  0  0  0  0  0  0  0  0  0
   -3.2905   21.8309  -32.2682 H   0  0  0  0  0  0  0  0  0  0  0  0
   -3.5768   23.6071  -32.4009 H   0  0  0  0  0  0  0  0  0  0  0  0
   -3.3652   20.6977  -30.1283 H   0  0  0  0  0  0  0  0  0  0  0  0
   -3.2079   20.8757  -27.6479 H   0  0  0  0  0  0  0  0  0  0  0  0
   -3.5054   23.0849  -26.5306 H   0  0  0  0  0  0  0  0  0  0  0  0
   -3.9565   25.1250  -27.8908 H   0  0  0  0  0  0  0  0  0  0  0  0
   -5.5943   26.1563  -29.4103 H   0  0  0  0  0  0  0  0  0  0  0  0
   -5.1883   26.9667  -30.9611 H   0  0  0  0  0  0  0  0  0  0  0  0
   -6.2025   25.4841  -30.9611 H   0  0  0  0  0  0  0  0  0  0  0  0
   -9.5146   21.8746  -30.1235 H   0  0  0  0  0  0  0  0  0  0  0  0
   -9.2968   22.7504  -31.6766 H   0  0  0  0  0  0  0  0  0  0  0  0
   -9.5572   20.9731  -31.6766 H   0  0  0  0  0  0  0  0  0  0  0  0
   -8.3437   19.0157  -31.4969 H   0  0  0  0  0  0  0  0  0  0  0  0
  1  2  1  0
  2  3  1  0
  3  4  2  0
  4  5  1  0
  5  6  1  0
  6  7  1  0
  5  8  2  0
  8  9  1  0
  9 10  1  0
  9 11  1  0
 11 12  1  0
 12 13  2  0
 13 14  1  0
 14 15  2  0
 15 16  1  0
 16 17  2  0
 17 18  1  0
 18 19  1  0
  8 20  1  0
 20 21  1  0
 21 22  1  0
 20 23  2  0
 23  3  1  0
 17 12  1  0
  1 24  1  0
  1 25  1  0
  1 26  1  0
  4 27  1  0
  7 28  1  0
  7 29  1  0
  7 30  1  0
 10 31  1  0
 10 32  1  0
 10 33  1  0
 11 34  1  0
 11 35  1  0
 13 36  1  0
 14 37  1  0
 15 38  1  0
 16 39  1  0
 19 40  1  0
 19 41  1  0
 19 42  1  0
 22 43  1  0
 22 44  1  0
 22 45  1  0
 23 46  1  0
M  END
>  <UniqueID>  (17) 
16

>  <SMILES>  (17) 
COc1cc(OC)c(N(C)Cc2ccccc2OC)c(OC)c1

>  <Energy>  (17) 
45.10035200040925

>  <Genealogy>  (17) 
COc1cc(OC)c(N(C)Cc2ccccc2OC)c(OC)c1 (3D coordinates assigned)
COc1cc(OC)c(N(C)Cc2ccccc2OC)c(OC)c1 (optimized conformer: 45.10035200040925 kcal/mol)

>  <smiles>  (17) 
COc1cc(OC)c(N(C)Cc2ccccc2OC)c(OC)c1

>  <score_type>  (17) 
oracle

>  <origin>  (17) 
adg

>  <m_score__min__energy>  (17) 
-6.1100000000000003

>  <m_primary>  (17) 
energy

$$$$
17:0
     RDKit          3D

 33 37  0  0  0  0  0  0  0  0999 V2000
   -0.7800   25.4570  -29.7680 H   0  0  0  0  0  0  0  0  0  0  0  0
   -1.6680   25.2960  -29.2430 N   0  0  0  0  0  0  0  0  0  0  0  0
   -2.6080   24.5460  -29.7200 C   0  0  0  0  0  0  0  0  0  0  0  0
   -3.9320   24.8990  -29.6240 N   0  0  0  0  0  0  0  0  0  0  0  0
   -4.9270   24.0820  -30.1420 C   0  0  0  0  0  0  0  0  0  0  0  0
   -6.2850   24.4100  -30.0620 C   0  0  0  0  0  0  0  0  0  0  0  0
   -6.7410   25.6760  -29.4040 C   0  0  0  0  0  0  0  0  0  0  0  0
   -6.6982   25.5573  -28.3113 H   0  0  0  0  0  0  0  0  0  0  0  0
   -6.0848   26.5046  -29.7088 H   0  0  0  0  0  0  0  0  0  0  0  0
   -7.7748   25.8959  -29.7088 H   0  0  0  0  0  0  0  0  0  0  0  0
   -7.2070   23.5580  -30.5940 N   0  0  0  0  0  0  0  0  0  0  0  0
   -6.8490   22.3910  -31.2040 C   0  0  0  0  0  0  0  0  0  0  0  0
   -7.8840   21.5110  -31.7590 C   0  0  0  0  0  0  0  0  0  0  0  0
   -9.1660   21.7950  -31.7570 O   0  0  0  0  0  0  0  0  0  0  0  0
   -9.8150   20.8050  -32.3240 C   0  0  0  0  0  0  0  0  0  0  0  0
  -10.9051   20.7606  -32.4641 H   0  0  0  0  0  0  0  0  0  0  0  0
   -8.9230   19.8280  -32.7180 C   0  0  0  0  0  0  0  0  0  0  0  0
   -9.1613   18.8791  -33.2207 H   0  0  0  0  0  0  0  0  0  0  0  0
   -7.6730   20.2820  -32.3540 C   0  0  0  0  0  0  0  0  0  0  0  0
   -6.7099   19.7726  -32.5055 H   0  0  0  0  0  0  0  0  0  0  0  0
   -5.5360   22.0450  -31.2980 N   0  0  0  0  0  0  0  0  0  0  0  0
   -4.5890   22.8620  -30.7830 C   0  0  0  0  0  0  0  0  0  0  0  0
   -3.2750   22.5920  -30.8350 N   0  0  0  0  0  0  0  0  0  0  0  0
   -2.3330   21.7250  -31.2380 C   0  0  0  0  0  0  0  0  0  0  0  0
   -2.3270   20.4420  -31.9380 C   0  0  0  0  0  0  0  0  0  0  0  0
   -3.3810   19.9700  -32.6320 N   0  0  0  0  0  0  0  0  0  0  0  0
   -2.9370   18.7860  -33.0960 C   0  0  0  0  0  0  0  0  0  0  0  0
   -3.5167   18.0872  -33.7170 H   0  0  0  0  0  0  0  0  0  0  0  0
   -1.6430   18.5890  -32.6700 C   0  0  0  0  0  0  0  0  0  0  0  0
   -1.0140   17.7138  -32.8900 H   0  0  0  0  0  0  0  0  0  0  0  0
   -1.2950   19.6300  -31.9560 O   0  0  0  0  0  0  0  0  0  0  0  0
   -1.3950   22.5440  -30.7240 N   0  0  0  0  0  0  0  0  0  0  0  0
   -2.3520   23.3780  -30.3390 N   0  0  0  0  0  0  0  0  0  0  0  0
  1  2  1  0
  2  3  2  0
  3  4  1  0
  4  5  1  0
  5  6  2  0
  6  7  1  0
  7  8  1  0
  7  9  1  0
  7 10  1  0
  6 11  1  0
 11 12  2  0
 12 13  1  0
 13 14  1  0
 14 15  1  0
 15 16  1  0
 15 17  2  0
 17 18  1  0
 17 19  1  0
 19 20  1  0
 12 21  1  0
 21 22  2  0
 22 23  1  0
 23 24  1  0
 24 25  1  0
 25 26  2  0
 26 27  1  0
 27 28  1  0
 27 29  2  0
 29 30  1  0
 29 31  1  0
 24 32  2  0
 32 33  1  0
 33  3  1  0
 22  5  1  0
 33 23  1  0
 19 13  2  0
 31 25  1  0
M  CHG  1   4  -1
M  END
>  <UniqueID>  (18) 
17

>  <SMILES>  (18) 
[H]/N=c1/[n-]c2c(C)nc(-c3ccco3)nc2n2c(-c3ncco3)nn12

>  <Energy>  (18) 
111.39190381822553

>  <Genealogy>  (18) 
Cc1nc(-c2ccco2)nc2c1[n-]c(=N)n1nc(-c3ncco3)n21 (protonated)
[H]/N=c1/[n-]c2c(C)nc(-c3ccco3)nc2n2c(-c3ncco3)nn12 (cis-trans isomerization)
[H]/N=c1/[n-]c2c(C)nc(-c3ccco3)nc2n2c(-c3ncco3)nn12 (3D coordinates assigned)
[H]/N=c1/[n-]c2c(C)nc(-c3ccco3)nc2n2c(-c3ncco3)nn12 (optimized conformer: 111.39190381822553 kcal/mol)

>  <smiles>  (18) 
Cc1nc(-c2ccco2)nc2c1[nH]c(=N)n1nc(-c3ncco3)n21

>  <score_type>  (18) 
oracle

>  <origin>  (18) 
adg

>  <m_score__min__energy>  (18) 
-7.9500000000000002

>  <m_primary>  (18) 
energy

$$$$
18:0
     RDKit          3D

 30 31  0  0  0  0  0  0  0  0999 V2000
   -2.9190   25.6740  -30.7970 H   0  0  0  0  0  0  0  0  0  0  0  0
   -3.9010   25.4380  -30.8550 O   0  0  0  0  0  0  0  0  0  0  0  0
   -4.2820   24.1320  -31.0640 N   0  0  0  0  0  0  0  0  0  0  0  0
   -5.2070   23.5480  -30.3600 C   0  0  0  0  0  0  0  0  0  0  0  0
   -6.1890   22.6310  -30.9850 C   0  0  0  0  0  0  0  0  0  0  0  0
   -7.5460   22.7070  -30.6330 C   0  0  0  0  0  0  0  0  0  0  0  0
   -7.8772   23.4404  -29.8830 H   0  0  0  0  0  0  0  0  0  0  0  0
   -8.4530   21.8770  -31.2160 N   0  0  0  0  0  0  0  0  0  0  0  0
   -8.0870   20.9630  -32.1520 C   0  0  0  0  0  0  0  0  0  0  0  0
   -8.8442   20.3039  -32.6017 H   0  0  0  0  0  0  0  0  0  0  0  0
   -6.7510   20.8590  -32.5440 C   0  0  0  0  0  0  0  0  0  0  0  0
   -6.2730   19.6920  -33.7630 Cl  0  0  0  0  0  0  0  0  0  0  0  0
   -5.7990   21.6990  -31.9600 C   0  0  0  0  0  0  0  0  0  0  0  0
   -4.7441   21.6300  -32.2642 H   0  0  0  0  0  0  0  0  0  0  0  0
   -5.2680   23.7730  -28.9420 N   0  0  0  0  0  0  0  0  0  0  0  0
   -6.0810   23.3970  -28.4030 H   0  0  0  0  0  0  0  0  0  0  0  0
   -4.2380   24.5060  -28.2070 C   0  0  0  0  0  0  0  0  0  0  0  0
   -4.0898   25.4906  -28.6746 H   0  0  0  0  0  0  0  0  0  0  0  0
   -4.5627   24.6295  -27.1633 H   0  0  0  0  0  0  0  0  0  0  0  0
   -2.9370   23.7440  -28.2290 C   0  0  0  0  0  0  0  0  0  0  0  0
   -1.7490   24.3970  -28.6090 C   0  0  0  0  0  0  0  0  0  0  0  0
   -1.7660   25.7040  -28.9720 F   0  0  0  0  0  0  0  0  0  0  0  0
   -0.5340   23.7030  -28.6140 C   0  0  0  0  0  0  0  0  0  0  0  0
    0.3908   24.2176  -28.9139 H   0  0  0  0  0  0  0  0  0  0  0  0
   -0.4930   22.3580  -28.2390 C   0  0  0  0  0  0  0  0  0  0  0  0
    0.4638   21.8153  -28.2432 H   0  0  0  0  0  0  0  0  0  0  0  0
   -1.6650   21.7020  -27.8590 C   0  0  0  0  0  0  0  0  0  0  0  0
   -1.6292   20.6427  -27.5647 H   0  0  0  0  0  0  0  0  0  0  0  0
   -2.8840   22.3860  -27.8510 C   0  0  0  0  0  0  0  0  0  0  0  0
   -4.0090   21.7260  -27.4740 F   0  0  0  0  0  0  0  0  0  0  0  0
  1  2  1  0
  2  3  1  0
  3  4  2  0
  4  5  1  0
  5  6  2  0
  6  7  1  0
  6  8  1  0
  8  9  2  0
  9 10  1  0
  9 11  1  0
 11 12  1  0
 11 13  2  0
 13 14  1  0
  4 15  1  0
 15 16  1  0
 15 17  1  0
 17 18  1  0
 17 19  1  0
 17 20  1  0
 20 21  2  0
 21 22  1  0
 21 23  1  0
 23 24  1  0
 23 25  2  0
 25 26  1  0
 25 27  1  0
 27 28  1  0
 27 29  2  0
 29 30  1  0
 13  5  1  0
 29 20  1  0
M  END
>  <UniqueID>  (19) 
18

>  <SMILES>  (19) 
O/N=C(/NCc1c(F)cccc1F)c1cncc(Cl)c1

>  <Energy>  (19) 
34.48573069717328

>  <Genealogy>  (19) 
O/N=C(/NCc1c(F)cccc1F)c1cncc(Cl)c1 (cis-trans isomerization)
O/N=C(/NCc1c(F)cccc1F)c1cncc(Cl)c1 (3D coordinates assigned)
O/N=C(/NCc1c(F)cccc1F)c1cncc(Cl)c1 (optimized conformer: 34.48573069717328 kcal/mol)

>  <smiles>  (19) 
ON=C(NCc1c(F)cccc1F)c1cncc(Cl)c1

>  <score_type>  (19) 
oracle

>  <origin>  (19) 
adg

>  <m_score__min__energy>  (19) 
-8.3000000000000007

>  <m_primary>  (19) 
energy

$$$$
19:0
     RDKit          3D

 25 26  0  0  0  0  0  0  0  0999 V2000
   -5.8310   16.6840  -34.1980 C   0  0  0  0  0  0  0  0  0  0  0  0
   -6.8910   16.8040  -33.1090 C   0  0  0  0  0  0  0  0  0  0  0  0
   -7.1140   18.2380  -32.7450 C   0  0  0  0  0  0  0  0  0  0  0  0
   -8.3420   18.8040  -32.4060 C   0  0  0  0  0  0  0  0  0  0  0  0
   -8.2490   20.1820  -32.1800 C   0  0  0  0  0  0  0  0  0  0  0  0
   -9.3030   21.0210  -31.8140 C   0  0  0  0  0  0  0  0  0  0  0  0
   -9.0440   22.3860  -31.6150 C   0  0  0  0  0  0  0  0  0  0  0  0
   -7.7440   22.9010  -31.7890 C   0  0  0  0  0  0  0  0  0  0  0  0
   -6.6840   22.0560  -32.1750 C   0  0  0  0  0  0  0  0  0  0  0  0
   -5.2910   22.6010  -32.3340 C   0  0  0  0  0  0  0  0  0  0  0  0
   -5.1220   23.7970  -31.5020 C   0  0  0  0  0  0  0  0  0  0  0  0
   -4.9900   24.7400  -30.8450 N   0  0  0  0  0  0  0  0  0  0  0  0
   -6.9690   20.6950  -32.3540 C   0  0  0  0  0  0  0  0  0  0  0  0
   -5.9300   19.4430  -32.7890 S   0  0  0  0  0  0  0  0  0  0  0  0
   -4.8399   16.5718  -33.7342 H   0  0  0  0  0  0  0  0  0  0  0  0
   -6.0452   15.8044  -34.8228 H   0  0  0  0  0  0  0  0  0  0  0  0
   -5.8431   17.5893  -34.8228 H   0  0  0  0  0  0  0  0  0  0  0  0
   -7.8348   16.3731  -33.4745 H   0  0  0  0  0  0  0  0  0  0  0  0
   -6.5448   16.2619  -32.2166 H   0  0  0  0  0  0  0  0  0  0  0  0
   -9.2782   18.2322  -32.3253 H   0  0  0  0  0  0  0  0  0  0  0  0
  -10.3187   20.6193  -31.6838 H   0  0  0  0  0  0  0  0  0  0  0  0
   -9.8626   23.0593  -31.3208 H   0  0  0  0  0  0  0  0  0  0  0  0
   -7.5548   23.9717  -31.6222 H   0  0  0  0  0  0  0  0  0  0  0  0
   -4.5632   21.8364  -32.0247 H   0  0  0  0  0  0  0  0  0  0  0  0
   -5.1261   22.8684  -33.3882 H   0  0  0  0  0  0  0  0  0  0  0  0
  1  2  1  0
  2  3  1  0
  3  4  2  0
  4  5  1  0
  5  6  2  0
  6  7  1  0
  7  8  2  0
  8  9  1  0
  9 10  1  0
 10 11  1  0
 11 12  3  0
  9 13  2  0
 13 14  1  0
 14  3  1  0
 13  5  1  0
  1 15  1  0
  1 16  1  0
  1 17  1  0
  2 18  1  0
  2 19  1  0
  4 20  1  0
  6 21  1  0
  7 22  1  0
  8 23  1  0
 10 24  1  0
 10 25  1  0
M  END
>  <UniqueID>  (20) 
19

>  <SMILES>  (20) 
CCc1cc2cccc(CC#N)c2s1

>  <Energy>  (20) 
49.96623528265895

>  <Genealogy>  (20) 
CCc1cc2cccc(CC#N)c2s1 (3D coordinates assigned)
CCc1cc2cccc(CC#N)c2s1 (optimized conformer: 49.96623528265895 kcal/mol)

>  <smiles>  (20) 
CCc1cc2cccc(CC#N)c2s1

>  <score_type>  (20) 
oracle

>  <origin>  (20) 
adg

>  <m_score__min__energy>  (20) 
-6.7599999999999998

>  <m_primary>  (20) 
energy

$$$$
20:0
     RDKit          3D

 38 38  0  0  0  0  0  0  0  0999 V2000
   -2.4380   24.5570  -28.7970 C   0  0  0  0  0  0  0  0  0  0  0  0
   -3.2540   25.1260  -29.8150 O   0  0  0  0  0  0  0  0  0  0  0  0
   -4.4230   24.5340  -30.3160 C   0  0  0  0  0  0  0  0  0  0  0  0
   -4.3990   23.3840  -31.1290 C   0  0  0  0  0  0  0  0  0  0  0  0
   -5.5920   22.8330  -31.6040 C   0  0  0  0  0  0  0  0  0  0  0  0
   -6.8250   23.4160  -31.2760 C   0  0  0  0  0  0  0  0  0  0  0  0
   -8.1080   22.8310  -31.8090 C   0  0  0  0  0  0  0  0  0  0  0  0
   -8.3170   21.3800  -31.3520 C   0  0  0  0  0  0  0  0  0  0  0  0
   -9.3640   20.6410  -32.2080 C   0  0  0  0  0  0  0  0  0  0  0  0
   -8.7670   19.6160  -33.0860 N   0  0  0  0  0  0  0  0  0  0  0  0
   -7.6550   18.8420  -32.4960 C   0  0  0  0  0  0  0  0  0  0  0  0
   -6.3840   18.7590  -33.3780 C   0  0  1  0  0  0  0  0  0  0  0  0
   -6.1250   17.3450  -33.9180 C   0  0  0  0  0  0  0  0  0  0  0  0
   -6.4850   19.6680  -34.4450 O   0  0  0  0  0  0  0  0  0  0  0  0
   -6.8470   24.5650  -30.4690 C   0  0  0  0  0  0  0  0  0  0  0  0
   -5.6540   25.1160  -29.9930 C   0  0  0  0  0  0  0  0  0  0  0  0
   -2.8362   24.8347  -27.8099 H   0  0  0  0  0  0  0  0  0  0  0  0
   -2.4373   23.4616  -28.8972 H   0  0  0  0  0  0  0  0  0  0  0  0
   -1.4099   24.9350  -28.8972 H   0  0  0  0  0  0  0  0  0  0  0  0
   -3.4376   22.9180  -31.3909 H   0  0  0  0  0  0  0  0  0  0  0  0
   -5.5641   21.9357  -32.2397 H   0  0  0  0  0  0  0  0  0  0  0  0
   -8.9509   23.4402  -31.4508 H   0  0  0  0  0  0  0  0  0  0  0  0
   -8.0503   22.8344  -32.9075 H   0  0  0  0  0  0  0  0  0  0  0  0
   -7.3588   20.8447  -31.4254 H   0  0  0  0  0  0  0  0  0  0  0  0
   -8.6862   21.4039  -30.3161 H   0  0  0  0  0  0  0  0  0  0  0  0
  -10.0845   20.1515  -31.5363 H   0  0  0  0  0  0  0  0  0  0  0  0
   -9.8491   21.3875  -32.8540 H   0  0  0  0  0  0  0  0  0  0  0  0
   -8.4110   20.0880  -33.9490 H   0  0  0  0  0  0  0  0  0  0  0  0
   -9.5210   18.9590  -33.3950 H   0  0  0  0  0  0  0  0  0  0  0  0
   -7.3790   19.3126  -31.5408 H   0  0  0  0  0  0  0  0  0  0  0  0
   -8.0210   17.8111  -32.3810 H   0  0  0  0  0  0  0  0  0  0  0  0
   -5.5284   19.0196  -32.7376 H   0  0  0  0  0  0  0  0  0  0  0  0
   -5.9974   16.6486  -33.0761 H   0  0  0  0  0  0  0  0  0  0  0  0
   -6.9795   17.0249  -34.5324 H   0  0  0  0  0  0  0  0  0  0  0  0
   -5.2126   17.3486  -34.5324 H   0  0  0  0  0  0  0  0  0  0  0  0
   -6.8610   19.1800  -35.2240 H   0  0  0  0  0  0  0  0  0  0  0  0
   -7.8079   25.0337  -30.2102 H   0  0  0  0  0  0  0  0  0  0  0  0
   -5.6829   26.0146  -29.3592 H   0  0  0  0  0  0  0  0  0  0  0  0
  1  2  1  0
  2  3  1  0
  3  4  2  0
  4  5  1  0
  5  6  2  0
  6  7  1  0
  7  8  1  0
  8  9  1  0
  9 10  1  0
 10 11  1  0
 11 12  1  0
 12 13  1  0
 12 14  1  0
  6 15  1  0
 15 16  2  0
 16  3  1  0
  1 17  1  0
  1 18  1  0
  1 19  1  0
  4 20  1  0
  5 21  1  0
  7 22  1  0
  7 23  1  0
  8 24  1  0
  8 25  1  0
  9 26  1  0
  9 27  1  0
 10 28  1  0
 10 29  1  0
 11 30  1  0
 11 31  1  0
 12 32  1  1
 13 33  1  0
 13 34  1  0
 13 35  1  0
 14 36  1  0
 15 37  1  0
 16 38  1  0
M  CHG  1  10   1
M  END
>  <UniqueID>  (21) 
20

>  <SMILES>  (21) 
COc1ccc(CCC[NH2+]C[C@@H](C)O)cc1

>  <Energy>  (21) 
31.495173962372885

>  <Genealogy>  (21) 
COc1ccc(CCC[NH2+]CC(C)O)cc1 (protonated)
COc1ccc(CCC[NH2+]C[C@@H](C)O)cc1 (chirality)
COc1ccc(CCC[NH2+]C[C@@H](C)O)cc1 (3D coordinates assigned)
COc1ccc(CCC[NH2+]C[C@@H](C)O)cc1 (optimized conformer: 31.495173962372885 kcal/mol)

>  <smiles>  (21) 
COc1ccc(CCCNCC(C)O)cc1

>  <score_type>  (21) 
oracle

>  <origin>  (21) 
adg

>  <m_score__min__energy>  (21) 
-6.4100000000000001

>  <m_primary>  (21) 
energy

$$$$
21:0
     RDKit          3D

 35 37  0  0  0  0  0  0  0  0999 V2000
   -6.0440   18.8930  -35.1650 O   0  0  0  0  0  0  0  0  0  0  0  0
   -5.7490   18.6280  -33.8100 C   0  0  1  0  0  0  0  0  0  0  0  0
   -5.6550   17.1110  -33.6080 C   0  0  0  0  0  0  0  0  0  0  0  0
   -4.6710   16.5540  -32.7610 C   0  0  0  0  0  0  0  0  0  0  0  0
   -4.5480   15.1680  -32.6250 C   0  0  0  0  0  0  0  0  0  0  0  0
   -5.3870   14.3150  -33.3430 C   0  0  0  0  0  0  0  0  0  0  0  0
   -6.3440   14.8450  -34.2080 C   0  0  0  0  0  0  0  0  0  0  0  0
   -6.4720   16.2290  -34.3500 C   0  0  0  0  0  0  0  0  0  0  0  0
   -4.4130   19.3370  -33.5110 C   0  0  0  0  0  0  0  0  0  0  0  0
   -4.3700   20.4970  -32.7090 C   0  0  0  0  0  0  0  0  0  0  0  0
   -3.1690   21.1810  -32.5140 C   0  0  0  0  0  0  0  0  0  0  0  0
   -2.0180   20.7370  -33.1600 C   0  0  0  0  0  0  0  0  0  0  0  0
   -2.0760   19.6630  -33.9890 N   0  0  0  0  0  0  0  0  0  0  0  0
   -3.2310   18.9760  -34.1920 C   0  0  0  0  0  0  0  0  0  0  0  0
   -6.9030   19.1040  -32.9130 C   0  0  0  0  0  0  0  0  0  0  0  0
   -7.5920   18.1990  -32.0760 C   0  0  0  0  0  0  0  0  0  0  0  0
   -8.6820   18.6220  -31.3110 C   0  0  0  0  0  0  0  0  0  0  0  0
   -9.1210   19.9450  -31.3870 C   0  0  0  0  0  0  0  0  0  0  0  0
   -8.4780   20.8450  -32.2370 C   0  0  0  0  0  0  0  0  0  0  0  0
   -8.9180   22.1230  -32.3270 F   0  0  0  0  0  0  0  0  0  0  0  0
   -7.3850   20.4280  -33.0040 C   0  0  0  0  0  0  0  0  0  0  0  0
   -6.9480   19.3040  -35.2090 H   0  0  0  0  0  0  0  0  0  0  0  0
   -3.9945   17.2178  -32.2027 H   0  0  0  0  0  0  0  0  0  0  0  0
   -3.7875   14.7487  -31.9499 H   0  0  0  0  0  0  0  0  0  0  0  0
   -5.2936   13.2251  -33.2268 H   0  0  0  0  0  0  0  0  0  0  0  0
   -6.9996   14.1718  -34.7798 H   0  0  0  0  0  0  0  0  0  0  0  0
   -7.2180   16.6369  -35.0480 H   0  0  0  0  0  0  0  0  0  0  0  0
   -5.2908   20.8655  -32.2333 H   0  0  0  0  0  0  0  0  0  0  0  0
   -3.1321   22.0621  -31.8565 H   0  0  0  0  0  0  0  0  0  0  0  0
   -1.0618   21.2563  -32.9988 H   0  0  0  0  0  0  0  0  0  0  0  0
   -3.2445   18.1297  -34.8945 H   0  0  0  0  0  0  0  0  0  0  0  0
   -7.2669   17.1493  -32.0257 H   0  0  0  0  0  0  0  0  0  0  0  0
   -9.1955   17.9108  -30.6472 H   0  0  0  0  0  0  0  0  0  0  0  0
   -9.9737   20.2777  -30.7768 H   0  0  0  0  0  0  0  0  0  0  0  0
   -6.8957   21.1394  -33.6855 H   0  0  0  0  0  0  0  0  0  0  0  0
  2  1  1  6
  2  3  1  0
  3  4  2  0
  4  5  1  0
  5  6  2  0
  6  7  1  0
  7  8  2  0
  2  9  1  0
  9 10  2  0
 10 11  1  0
 11 12  2  0
 12 13  1  0
 13 14  2  0
  2 15  1  0
 15 16  2  0
 16 17  1  0
 17 18  2  0
 18 19  1  0
 19 20  1  0
 19 21  2  0
  8  3  1  0
 14  9  1  0
 21 15  1  0
  1 22  1  0
  4 23  1  0
  5 24  1  0
  6 25  1  0
  7 26  1  0
  8 27  1  0
 10 28  1  0
 11 29  1  0
 12 30  1  0
 14 31  1  0
 16 32  1  0
 17 33  1  0
 18 34  1  0
 21 35  1  0
M  END
>  <UniqueID>  (22) 
21

>  <SMILES>  (22) 
O[C@@](c1ccccc1)(c1cccnc1)c1cccc(F)c1

>  <Energy>  (22) 
50.56023985552009

>  <Genealogy>  (22) 
O[C@@](c1ccccc1)(c1cccnc1)c1cccc(F)c1 (chirality)
O[C@@](c1ccccc1)(c1cccnc1)c1cccc(F)c1 (3D coordinates assigned)
O[C@@](c1ccccc1)(c1cccnc1)c1cccc(F)c1 (optimized conformer: 50.56023985552009 kcal/mol)

>  <smiles>  (22) 
OC(c1ccccc1)(c1cccnc1)c1cccc(F)c1

>  <score_type>  (22) 
oracle

>  <origin>  (22) 
adg

>  <m_score__min__energy>  (22) 
-7.2000000000000002

>  <m_primary>  (22) 
energy

$$$$
22:0
     RDKit          3D

 47 50  0  0  0  0  0  0  0  0999 V2000
    0.2190   18.0690  -27.8230 C   0  0  0  0  0  0  0  0  0  0  0  0
    0.3030   19.4910  -27.8160 O   0  0  0  0  0  0  0  0  0  0  0  0
   -0.6700   20.3470  -28.3550 C   0  0  0  0  0  0  0  0  0  0  0  0
   -0.4710   21.0370  -29.5640 C   0  0  0  0  0  0  0  0  0  0  0  0
   -1.4590   21.8800  -30.0710 C   0  0  0  0  0  0  0  0  0  0  0  0
   -2.6710   22.0540  -29.3810 C   0  0  0  0  0  0  0  0  0  0  0  0
   -3.7310   22.9470  -29.9080 C   0  0  0  0  0  0  0  0  0  0  0  0
   -5.0980   22.7360  -29.8990 C   0  0  0  0  0  0  0  0  0  0  0  0
   -5.6470   23.8130  -30.4860 N   0  0  0  0  0  0  0  0  0  0  0  0
   -7.0650   24.0310  -30.7550 C   0  0  0  0  0  0  0  0  0  0  0  0
   -7.4980   23.2570  -31.9670 C   0  0  0  0  0  0  0  0  0  0  0  0
   -7.4530   23.8180  -33.0960 O   0  0  0  0  0  0  0  0  0  0  0  0
   -7.8190   21.8600  -31.8920 N   0  0  0  0  0  0  0  0  0  0  0  0
   -9.0640   21.3530  -31.3150 C   0  0  0  0  0  0  0  0  0  0  0  0
   -9.0940   19.8380  -31.6240 C   0  0  0  0  0  0  0  0  0  0  0  0
   -7.7860   19.5970  -32.2920 C   0  0  0  0  0  0  0  0  0  0  0  0
   -7.2470   18.3760  -32.7040 C   0  0  0  0  0  0  0  0  0  0  0  0
   -5.9540   18.3640  -33.2490 C   0  0  0  0  0  0  0  0  0  0  0  0
   -5.2180   19.5600  -33.3530 C   0  0  0  0  0  0  0  0  0  0  0  0
   -5.7790   20.7740  -32.9270 C   0  0  0  0  0  0  0  0  0  0  0  0
   -7.0870   20.7670  -32.4250 C   0  0  0  0  0  0  0  0  0  0  0  0
   -4.6770   24.6360  -30.8480 N   0  0  0  0  0  0  0  0  0  0  0  0
   -3.4990   24.1360  -30.5050 N   0  0  0  0  0  0  0  0  0  0  0  0
   -2.8700   21.3650  -28.1730 C   0  0  0  0  0  0  0  0  0  0  0  0
   -1.8750   20.5110  -27.6560 C   0  0  0  0  0  0  0  0  0  0  0  0
   -2.0460   19.8100  -26.4510 O   0  0  0  0  0  0  0  0  0  0  0  0
   -3.0840   18.8660  -26.2060 C   0  0  0  0  0  0  0  0  0  0  0  0
    0.1971   17.6979  -26.7877 H   0  0  0  0  0  0  0  0  0  0  0  0
   -0.6991   17.7585  -28.3433 H   0  0  0  0  0  0  0  0  0  0  0  0
    1.0941   17.6526  -28.3433 H   0  0  0  0  0  0  0  0  0  0  0  0
    0.4728   20.9105  -30.1147 H   0  0  0  0  0  0  0  0  0  0  0  0
   -1.2887   22.4129  -31.0181 H   0  0  0  0  0  0  0  0  0  0  0  0
   -5.6289   21.8623  -29.4930 H   0  0  0  0  0  0  0  0  0  0  0  0
   -7.6528   23.7005  -29.8859 H   0  0  0  0  0  0  0  0  0  0  0  0
   -7.2302   25.1025  -30.9408 H   0  0  0  0  0  0  0  0  0  0  0  0
   -9.0774   21.5213  -30.2280 H   0  0  0  0  0  0  0  0  0  0  0  0
   -9.9407   21.8666  -31.7364 H   0  0  0  0  0  0  0  0  0  0  0  0
   -9.1780   19.2490  -30.6988 H   0  0  0  0  0  0  0  0  0  0  0  0
   -9.9537   19.5427  -32.2434 H   0  0  0  0  0  0  0  0  0  0  0  0
   -7.8234   17.4445  -32.6034 H   0  0  0  0  0  0  0  0  0  0  0  0
   -5.5140   17.4175  -33.5960 H   0  0  0  0  0  0  0  0  0  0  0  0
   -4.2000   19.5428  -33.7695 H   0  0  0  0  0  0  0  0  0  0  0  0
   -5.2045   21.7102  -32.9860 H   0  0  0  0  0  0  0  0  0  0  0  0
   -3.8143   21.4936  -27.6237 H   0  0  0  0  0  0  0  0  0  0  0  0
   -3.2192   18.7430  -25.1213 H   0  0  0  0  0  0  0  0  0  0  0  0
   -4.0215   19.2274  -26.6537 H   0  0  0  0  0  0  0  0  0  0  0  0
   -2.8129   17.8985  -26.6537 H   0  0  0  0  0  0  0  0  0  0  0  0
  1  2  1  0
  2  3  1  0
  3  4  2  0
  4  5  1  0
  5  6  2  0
  6  7  1  0
  7  8  2  0
  8  9  1  0
  9 10  1  0
 10 11  1  0
 11 12  2  0
 11 13  1  0
 13 14  1  0
 14 15  1  0
 15 16  1  0
 16 17  2  0
 17 18  1  0
 18 19  2  0
 19 20  1  0
 20 21  2  0
  9 22  1  0
 22 23  2  0
  6 24  1  0
 24 25  2  0
 25 26  1  0
 26 27  1  0
 25  3  1  0
 23  7  1  0
 21 13  1  0
 21 16  1  0
  1 28  1  0
  1 29  1  0
  1 30  1  0
  4 31  1  0
  5 32  1  0
  8 33  1  0
 10 34  1  0
 10 35  1  0
 14 36  1  0
 14 37  1  0
 15 38  1  0
 15 39  1  0
 17 40  1  0
 18 41  1  0
 19 42  1  0
 20 43  1  0
 24 44  1  0
 27 45  1  0
 27 46  1  0
 27 47  1  0
M  END
>  <UniqueID>  (23) 
22

>  <SMILES>  (23) 
COc1ccc(-c2cn(CC(=O)N3CCc4ccccc43)nn2)cc1OC

>  <Energy>  (23) 
103.57651319412231

>  <Genealogy>  (23) 
COc1ccc(-c2cn(CC(=O)N3CCc4ccccc43)nn2)cc1OC (3D coordinates assigned)
COc1ccc(-c2cn(CC(=O)N3CCc4ccccc43)nn2)cc1OC (nonaromatic ring conformer: 103.57651319412231 kcal/mol)

>  <smiles>  (23) 
COc1ccc(-c2cn(CC(=O)N3CCc4ccccc43)nn2)cc1OC

>  <score_type>  (23) 
oracle

>  <origin>  (23) 
adg

>  <m_score__min__energy>  (23) 
-9.6099999999999994

>  <m_primary>  (23) 
energy

$$$$
23:0
     RDKit          3D

 35 38  0  0  0  0  0  0  0  0999 V2000
   -6.8560   15.9430  -34.5850 F   0  0  0  0  0  0  0  0  0  0  0  0
   -6.5620   17.1370  -34.0140 C   0  0  0  0  0  0  0  0  0  0  0  0
   -5.7410   18.0480  -34.6830 C   0  0  0  0  0  0  0  0  0  0  0  0
   -5.4370   19.2810  -34.0960 C   0  0  0  0  0  0  0  0  0  0  0  0
   -5.9520   19.6130  -32.8290 C   0  0  0  0  0  0  0  0  0  0  0  0
   -5.6310   20.9180  -32.1990 C   0  0  0  0  0  0  0  0  0  0  0  0
   -4.7410   20.9900  -31.1060 C   0  0  0  0  0  0  0  0  0  0  0  0
   -4.4830   22.2110  -30.5780 N   0  0  0  0  0  0  0  0  0  0  0  0
   -3.6800   22.4790  -29.5640 N   0  0  0  0  0  0  0  0  0  0  0  0
   -3.7200   23.8230  -29.3790 C   0  0  0  0  0  0  0  0  0  0  0  0
   -2.9480   24.5240  -28.3250 C   0  0  0  0  0  0  0  0  0  0  0  0
   -3.4750   24.6350  -27.0240 C   0  0  0  0  0  0  0  0  0  0  0  0
   -2.7570   25.2930  -26.0210 C   0  0  0  0  0  0  0  0  0  0  0  0
   -1.5090   25.8490  -26.3020 C   0  0  0  0  0  0  0  0  0  0  0  0
   -0.9740   25.7470  -27.5890 C   0  0  0  0  0  0  0  0  0  0  0  0
   -1.6860   25.0900  -28.5960 C   0  0  0  0  0  0  0  0  0  0  0  0
   -4.5790   24.4070  -30.3150 C   0  0  0  0  0  0  0  0  0  0  0  0
   -5.0310   23.3350  -31.0480 C   0  0  0  0  0  0  0  0  0  0  0  0
   -5.9110   23.2950  -32.1220 C   0  0  0  0  0  0  0  0  0  0  0  0
   -6.1930   22.0800  -32.6770 N   0  0  0  0  0  0  0  0  0  0  0  0
   -6.7760   18.6860  -32.1650 C   0  0  0  0  0  0  0  0  0  0  0  0
   -7.0790   17.4560  -32.7570 C   0  0  0  0  0  0  0  0  0  0  0  0
   -5.3329   17.7955  -35.6728 H   0  0  0  0  0  0  0  0  0  0  0  0
   -4.7915   19.9954  -34.6280 H   0  0  0  0  0  0  0  0  0  0  0  0
   -4.2717   20.0837  -30.6958 H   0  0  0  0  0  0  0  0  0  0  0  0
   -4.4593   24.2006  -26.7950 H   0  0  0  0  0  0  0  0  0  0  0  0
   -3.1773   25.3725  -25.0076 H   0  0  0  0  0  0  0  0  0  0  0  0
   -0.9465   26.3672  -25.5114 H   0  0  0  0  0  0  0  0  0  0  0  0
    0.0105   26.1852  -27.8100 H   0  0  0  0  0  0  0  0  0  0  0  0
   -1.2588   25.0141  -29.6068 H   0  0  0  0  0  0  0  0  0  0  0  0
   -4.8327   25.4705  -30.4361 H   0  0  0  0  0  0  0  0  0  0  0  0
   -6.3675   24.2158  -32.5140 H   0  0  0  0  0  0  0  0  0  0  0  0
   -6.8710   22.0490  -33.4710 H   0  0  0  0  0  0  0  0  0  0  0  0
   -7.1847   18.9305  -31.1734 H   0  0  0  0  0  0  0  0  0  0  0  0
   -7.7260   16.7383  -32.2313 H   0  0  0  0  0  0  0  0  0  0  0  0
  1  2  1  0
  2  3  2  0
  3  4  1  0
  4  5  2  0
  5  6  1  0
  6  7  2  0
  7  8  1  0
  8  9  1  0
  9 10  2  0
 10 11  1  0
 11 12  2  0
 12 13  1  0
 13 14  2  0
 14 15  1  0
 15 16  2  0
 10 17  1  0
 17 18  2  0
 18 19  1  0
 19 20  2  0
  5 21  1  0
 21 22  2  0
 22  2  1  0
 20  6  1  0
 18  8  1  0
 16 11  1  0
  3 23  1  0
  4 24  1  0
  7 25  1  0
 12 26  1  0
 13 27  1  0
 14 28  1  0
 15 29  1  0
 16 30  1  0
 17 31  1  0
 19 32  1  0
 20 33  1  0
 21 34  1  0
 22 35  1  0
M  CHG  1  20   1
M  END
>  <UniqueID>  (24) 
23

>  <SMILES>  (24) 
Fc1ccc(-c2cn3nc(-c4ccccc4)cc3c[nH+]2)cc1

>  <Energy>  (24) 
82.4316737709513

>  <Genealogy>  (24) 
Fc1ccc(-c2cn3nc(-c4ccccc4)cc3c[nH+]2)cc1 (protonated)
Fc1ccc(-c2cn3nc(-c4ccccc4)cc3c[nH+]2)cc1 (3D coordinates assigned)
Fc1ccc(-c2cn3nc(-c4ccccc4)cc3c[nH+]2)cc1 (optimized conformer: 82.4316737709513 kcal/mol)

>  <smiles>  (24) 
Fc1ccc(-c2cn3nc(-c4ccccc4)cc3cn2)cc1

>  <score_type>  (24) 
oracle

>  <origin>  (24) 
adg

>  <m_score__min__energy>  (24) 
-6.5899999999999999

>  <m_primary>  (24) 
energy

$$$$
24:0
     RDKit          3D

 41 43  0  0  0  0  0  0  0  0999 V2000
   -8.7950   22.0190  -31.5910 C   0  0  0  0  0  0  0  0  0  0  0  0
   -7.4410   22.5500  -31.5080 N   0  0  0  0  0  0  0  0  0  0  0  0
   -7.0890   23.7200  -30.9480 C   0  0  0  0  0  0  0  0  0  0  0  0
   -5.7140   23.8290  -31.0010 C   0  0  0  0  0  0  0  0  0  0  0  0
   -4.9270   24.9730  -30.5020 C   0  0  0  0  0  0  0  0  0  0  0  0
   -5.5290   26.0240  -30.1620 O   0  0  0  0  0  0  0  0  0  0  0  0
   -3.4980   24.9340  -30.4000 N   0  0  0  0  0  0  0  0  0  0  0  0
   -2.7450   24.6580  -29.2110 C   0  0  0  0  0  0  0  0  0  0  0  0
   -1.4920   25.2500  -28.9750 C   0  0  0  0  0  0  0  0  0  0  0  0
   -0.7920   24.9670  -27.7990 C   0  0  0  0  0  0  0  0  0  0  0  0
   -1.3190   24.0730  -26.8560 C   0  0  0  0  0  0  0  0  0  0  0  0
   -0.5970   23.8200  -25.5610 C   0  0  0  0  0  0  0  0  0  0  0  0
   -0.3570   25.1190  -24.8430 C   0  0  0  0  0  0  0  0  0  0  0  0
    0.9270   25.4530  -24.3900 C   0  0  0  0  0  0  0  0  0  0  0  0
    1.1210   26.6430  -23.6850 C   0  0  0  0  0  0  0  0  0  0  0  0
    0.0680   27.4690  -23.4330 N   0  0  0  0  0  0  0  0  0  0  0  0
   -1.1900   27.1610  -23.8510 C   0  0  0  0  0  0  0  0  0  0  0  0
   -1.4260   25.9800  -24.5590 C   0  0  0  0  0  0  0  0  0  0  0  0
   -2.5600   23.4650  -27.1050 C   0  0  0  0  0  0  0  0  0  0  0  0
   -3.2610   23.7480  -28.2810 C   0  0  0  0  0  0  0  0  0  0  0  0
   -5.2920   22.6650  -31.6440 C   0  0  0  0  0  0  0  0  0  0  0  0
   -3.8980   22.2640  -32.0260 C   0  0  0  0  0  0  0  0  0  0  0  0
   -3.3980   21.3110  -31.1570 F   0  0  0  0  0  0  0  0  0  0  0  0
   -3.8850   21.7750  -33.3180 F   0  0  0  0  0  0  0  0  0  0  0  0
   -6.3650   21.8980  -31.9220 N   0  0  0  0  0  0  0  0  0  0  0  0
   -9.1908   21.8638  -30.5765 H   0  0  0  0  0  0  0  0  0  0  0  0
   -9.4362   22.7323  -32.1296 H   0  0  0  0  0  0  0  0  0  0  0  0
   -8.7804   21.0600  -32.1296 H   0  0  0  0  0  0  0  0  0  0  0  0
   -7.7783   24.4632  -30.5208 H   0  0  0  0  0  0  0  0  0  0  0  0
   -1.0615   25.9377  -29.7178 H   0  0  0  0  0  0  0  0  0  0  0  0
    0.1790   25.4488  -27.6118 H   0  0  0  0  0  0  0  0  0  0  0  0
   -1.2075   23.1606  -24.9265 H   0  0  0  0  0  0  0  0  0  0  0  0
    0.3703   23.3418  -25.7747 H   0  0  0  0  0  0  0  0  0  0  0  0
    1.7760   24.7823  -24.5885 H   0  0  0  0  0  0  0  0  0  0  0  0
    2.1271   26.9138  -23.3323 H   0  0  0  0  0  0  0  0  0  0  0  0
    0.2280   28.3550  -22.9030 H   0  0  0  0  0  0  0  0  0  0  0  0
   -2.0236   27.8441  -23.6307 H   0  0  0  0  0  0  0  0  0  0  0  0
   -2.4438   25.7275  -24.8913 H   0  0  0  0  0  0  0  0  0  0  0  0
   -2.9826   22.7628  -26.3713 H   0  0  0  0  0  0  0  0  0  0  0  0
   -4.2235   23.2527  -28.4766 H   0  0  0  0  0  0  0  0  0  0  0  0
   -3.2562   23.1553  -31.9659 H   0  0  0  0  0  0  0  0  0  0  0  0
  1  2  1  0
  2  3  1  0
  3  4  2  0
  4  5  1  0
  5  6  2  0
  5  7  1  0
  7  8  1  0
  8  9  2  0
  9 10  1  0
 10 11  2  0
 11 12  1  0
 12 13  1  0
 13 14  2  0
 14 15  1  0
 15 16  2  0
 16 17  1  0
 17 18  2  0
 11 19  1  0
 19 20  2  0
  4 21  1  0
 21 22  1  0
 22 23  1  0
 22 24  1  0
 21 25  2  0
 25  2  1  0
 20  8  1  0
 18 13  1  0
  1 26  1  0
  1 27  1  0
  1 28  1  0
  3 29  1  0
  9 30  1  0
 10 31  1  0
 12 32  1  0
 12 33  1  0
 14 34  1  0
 15 35  1  0
 16 36  1  0
 17 37  1  0
 18 38  1  0
 19 39  1  0
 20 40  1  0
 22 41  1  0
M  CHG  2   7  -1  16   1
M  END
>  <UniqueID>  (25) 
24

>  <SMILES>  (25) 
Cn1cc(C(=O)[N-]c2ccc(Cc3cc[nH+]cc3)cc2)c(C(F)F)n1

>  <Energy>  (25) 
77.1616639456055

>  <Genealogy>  (25) 
Cn1cc(C(=O)[N-]c2ccc(Cc3cc[nH+]cc3)cc2)c(C(F)F)n1 (protonated)
Cn1cc(C(=O)[N-]c2ccc(Cc3cc[nH+]cc3)cc2)c(C(F)F)n1 (3D coordinates assigned)
Cn1cc(C(=O)[N-]c2ccc(Cc3cc[nH+]cc3)cc2)c(C(F)F)n1 (optimized conformer: 77.1616639456055 kcal/mol)

>  <smiles>  (25) 
Cn1cc(C(=O)Nc2ccc(Cc3ccncc3)cc2)c(C(F)F)n1

>  <score_type>  (25) 
oracle

>  <origin>  (25) 
adg

>  <m_score__min__energy>  (25) 
-9.0099999999999998

>  <m_primary>  (25) 
energy

$$$$
25:0
     RDKit          3D

 32 34  0  0  0  0  0  0  0  0999 V2000
   -9.4910   18.9310  -32.7170 C   0  0  0  0  0  0  0  0  0  0  0  0
   -8.9980   20.2050  -32.2040 N   0  0  0  0  0  0  0  0  0  0  0  0
   -9.7870   21.1960  -31.8240 N   0  0  0  0  0  0  0  0  0  0  0  0
   -9.0560   22.2280  -31.4340 N   0  0  0  0  0  0  0  0  0  0  0  0
   -7.7550   21.8970  -31.5560 C   0  0  0  0  0  0  0  0  0  0  0  0
   -6.6300   22.7800  -31.1800 C   0  0  0  0  0  0  0  0  0  0  0  0
   -5.4130   22.2450  -30.7200 C   0  0  0  0  0  0  0  0  0  0  0  0
   -4.3590   23.0910  -30.3640 C   0  0  0  0  0  0  0  0  0  0  0  0
   -4.5120   24.4780  -30.4520 C   0  0  0  0  0  0  0  0  0  0  0  0
   -3.4900   25.2980  -30.1040 F   0  0  0  0  0  0  0  0  0  0  0  0
   -5.7230   25.0190  -30.8930 C   0  0  0  0  0  0  0  0  0  0  0  0
   -6.7790   24.1750  -31.2510 C   0  0  0  0  0  0  0  0  0  0  0  0
   -7.7130   20.5960  -32.0450 C   0  0  0  0  0  0  0  0  0  0  0  0
   -6.5220   19.8170  -32.4460 C   0  0  0  0  0  0  0  0  0  0  0  0
   -5.5380   20.3940  -33.2650 C   0  0  0  0  0  0  0  0  0  0  0  0
   -4.4170   19.6510  -33.6470 C   0  0  0  0  0  0  0  0  0  0  0  0
   -4.2700   18.3290  -33.2160 C   0  0  0  0  0  0  0  0  0  0  0  0
   -5.2460   17.7490  -32.4020 C   0  0  0  0  0  0  0  0  0  0  0  0
   -6.3690   18.4870  -32.0170 C   0  0  0  0  0  0  0  0  0  0  0  0
   -9.7465   18.2708  -31.8750 H   0  0  0  0  0  0  0  0  0  0  0  0
  -10.3867   19.1050  -33.3313 H   0  0  0  0  0  0  0  0  0  0  0  0
   -8.7115   18.4568  -33.3313 H   0  0  0  0  0  0  0  0  0  0  0  0
   -9.4480   23.1280  -31.0760 H   0  0  0  0  0  0  0  0  0  0  0  0
   -5.2902   21.1548  -30.6400 H   0  0  0  0  0  0  0  0  0  0  0  0
   -3.4073   22.6648  -30.0139 H   0  0  0  0  0  0  0  0  0  0  0  0
   -5.8456   26.1102  -30.9586 H   0  0  0  0  0  0  0  0  0  0  0  0
   -7.7324   24.6062  -31.5903 H   0  0  0  0  0  0  0  0  0  0  0  0
   -5.6495   21.4335  -33.6070 H   0  0  0  0  0  0  0  0  0  0  0  0
   -3.6487   20.1076  -34.2883 H   0  0  0  0  0  0  0  0  0  0  0  0
   -3.3870   17.7464  -33.5175 H   0  0  0  0  0  0  0  0  0  0  0  0
   -5.1305   16.7089  -32.0631 H   0  0  0  0  0  0  0  0  0  0  0  0
   -7.1352   18.0258  -31.3765 H   0  0  0  0  0  0  0  0  0  0  0  0
  1  2  1  0
  2  3  1  0
  3  4  2  0
  4  5  1  0
  5  6  1  0
  6  7  2  0
  7  8  1  0
  8  9  2  0
  9 10  1  0
  9 11  1  0
 11 12  2  0
  5 13  2  0
 13 14  1  0
 14 15  2  0
 15 16  1  0
 16 17  2  0
 17 18  1  0
 18 19  2  0
 13  2  1  0
 19 14  1  0
 12  6  1  0
  1 20  1  0
  1 21  1  0
  1 22  1  0
  4 23  1  0
  7 24  1  0
  8 25  1  0
 11 26  1  0
 12 27  1  0
 15 28  1  0
 16 29  1  0
 17 30  1  0
 18 31  1  0
 19 32  1  0
M  CHG  1   4   1
M  END
>  <UniqueID>  (26) 
25

>  <SMILES>  (26) 
Cn1n[nH+]c(-c2ccc(F)cc2)c1-c1ccccc1

>  <Energy>  (26) 
78.60061313172007

>  <Genealogy>  (26) 
Cn1n[nH+]c(-c2ccc(F)cc2)c1-c1ccccc1 (protonated)
Cn1n[nH+]c(-c2ccc(F)cc2)c1-c1ccccc1 (3D coordinates assigned)
Cn1n[nH+]c(-c2ccc(F)cc2)c1-c1ccccc1 (optimized conformer: 78.60061313172007 kcal/mol)

>  <smiles>  (26) 
Cn1nnc(-c2ccc(F)cc2)c1-c1ccccc1

>  <score_type>  (26) 
oracle

>  <origin>  (26) 
adg

>  <m_score__min__energy>  (26) 
-7.1299999999999999

>  <m_primary>  (26) 
energy

$$$$
26:0
     RDKit          3D

 28 30  0  0  0  0  0  0  0  0999 V2000
   -9.8950   21.9130  -30.4510 O   0  0  0  0  0  0  0  0  0  0  0  0
   -9.1140   21.2010  -31.1340 C   0  0  0  0  0  0  0  0  0  0  0  0
   -9.0930   19.7780  -31.0920 N   0  0  0  0  0  0  0  0  0  0  0  0
   -8.1480   19.4730  -31.9240 C   0  0  0  0  0  0  0  0  0  0  0  0
   -7.7320   18.1740  -32.2200 C   0  0  0  0  0  0  0  0  0  0  0  0
   -6.6780   18.0010  -33.1330 C   0  0  0  0  0  0  0  0  0  0  0  0
   -6.0590   19.1180  -33.7300 C   0  0  0  0  0  0  0  0  0  0  0  0
   -6.4870   20.4200  -33.4230 C   0  0  0  0  0  0  0  0  0  0  0  0
   -7.5400   20.5740  -32.5150 C   0  0  0  0  0  0  0  0  0  0  0  0
   -8.1110   21.6870  -32.0690 C   0  0  0  0  0  0  0  0  0  0  0  0
   -7.7270   23.1120  -32.3430 C   0  0  0  0  0  0  0  0  0  0  0  0
   -6.5990   23.5320  -31.4390 C   0  0  0  0  0  0  0  0  0  0  0  0
   -5.3220   22.9670  -31.5940 C   0  0  0  0  0  0  0  0  0  0  0  0
   -4.2640   23.3790  -30.7770 C   0  0  0  0  0  0  0  0  0  0  0  0
   -4.4720   24.3630  -29.8060 C   0  0  0  0  0  0  0  0  0  0  0  0
   -5.7380   24.9350  -29.6510 C   0  0  0  0  0  0  0  0  0  0  0  0
   -6.7980   24.5260  -30.4660 C   0  0  0  0  0  0  0  0  0  0  0  0
   -8.2177   17.3063  -31.7497 H   0  0  0  0  0  0  0  0  0  0  0  0
   -6.3335   16.9869  -33.3836 H   0  0  0  0  0  0  0  0  0  0  0  0
   -5.2340   18.9687  -34.4421 H   0  0  0  0  0  0  0  0  0  0  0  0
   -6.0069   21.2956  -33.8844 H   0  0  0  0  0  0  0  0  0  0  0  0
   -7.4065   23.2064  -33.3910 H   0  0  0  0  0  0  0  0  0  0  0  0
   -8.5963   23.7594  -32.1551 H   0  0  0  0  0  0  0  0  0  0  0  0
   -5.1534   22.1971  -32.3614 H   0  0  0  0  0  0  0  0  0  0  0  0
   -3.2679   22.9285  -30.8986 H   0  0  0  0  0  0  0  0  0  0  0  0
   -3.6396   24.6871  -29.1641 H   0  0  0  0  0  0  0  0  0  0  0  0
   -5.9007   25.7086  -28.8861 H   0  0  0  0  0  0  0  0  0  0  0  0
   -7.7908   24.9839  -30.3451 H   0  0  0  0  0  0  0  0  0  0  0  0
  1  2  2  0
  2  3  1  0
  3  4  2  0
  4  5  1  0
  5  6  2  0
  6  7  1  0
  7  8  2  0
  8  9  1  0
  9 10  2  0
 10 11  1  0
 11 12  1  0
 12 13  2  0
 13 14  1  0
 14 15  2  0
 15 16  1  0
 16 17  2  0
 10  2  1  0
 17 12  1  0
  9  4  1  0
  5 18  1  0
  6 19  1  0
  7 20  1  0
  8 21  1  0
 11 22  1  0
 11 23  1  0
 13 24  1  0
 14 25  1  0
 15 26  1  0
 16 27  1  0
 17 28  1  0
M  END
>  <UniqueID>  (27) 
26

>  <SMILES>  (27) 
O=C1N=c2ccccc2=C1Cc1ccccc1

>  <Energy>  (27) 
61.13435161795188

>  <Genealogy>  (27) 
O=C1N=c2ccccc2=C1Cc1ccccc1 (3D coordinates assigned)
O=C1N=c2ccccc2=C1Cc1ccccc1 (nonaromatic ring conformer: 61.13435161795188 kcal/mol)

>  <smiles>  (27) 
O=C1N=c2ccccc2=C1Cc1ccccc1

>  <score_type>  (27) 
oracle

>  <origin>  (27) 
adg

>  <m_score__min__energy>  (27) 
-7.5700000000000003

>  <m_primary>  (27) 
energy

$$$$
27:0
     RDKit          3D

 39 41  0  0  0  0  0  0  0  0999 V2000
   -4.1600   18.9250  -34.1530 C   0  0  0  0  0  0  0  0  0  0  0  0
   -5.2380   18.1180  -33.5730 N   0  0  0  0  0  0  0  0  0  0  0  0
   -5.1480   16.6490  -33.5870 C   0  0  0  0  0  0  0  0  0  0  0  0
   -6.5070   16.0470  -33.9480 C   0  0  0  0  0  0  0  0  0  0  0  0
   -7.5240   16.5790  -33.0990 O   0  0  0  0  0  0  0  0  0  0  0  0
   -7.5360   17.9290  -32.7320 C   0  0  0  0  0  0  0  0  0  0  0  0
   -8.6660   18.4720  -32.1150 C   0  0  0  0  0  0  0  0  0  0  0  0
   -8.6910   19.8230  -31.7640 C   0  0  0  0  0  0  0  0  0  0  0  0
   -7.5850   20.6420  -32.0300 C   0  0  0  0  0  0  0  0  0  0  0  0
   -7.5980   22.3420  -31.5680 S   0  0  0  0  0  0  0  0  0  0  0  0
   -8.7230   23.0300  -32.2910 O   0  0  0  0  0  0  0  0  0  0  0  0
   -7.8310   22.4700  -30.0870 O   0  0  0  0  0  0  0  0  0  0  0  0
   -6.0770   23.0870  -31.9990 N   0  0  0  0  0  0  0  0  0  0  0  0
   -6.1130   24.5510  -31.7590 C   0  0  0  0  0  0  0  0  0  0  0  0
   -5.3590   24.9410  -30.4750 C   0  0  0  0  0  0  0  0  0  0  0  0
   -3.9920   24.5580  -30.4900 O   0  0  0  0  0  0  0  0  0  0  0  0
   -3.7430   23.3410  -31.1860 C   0  0  0  0  0  0  0  0  0  0  0  0
   -4.9680   22.4160  -31.2850 C   0  0  0  0  0  0  0  0  0  0  0  0
   -6.4440   20.0950  -32.6320 C   0  0  0  0  0  0  0  0  0  0  0  0
   -6.4070   18.7310  -32.9810 C   0  0  0  0  0  0  0  0  0  0  0  0
   -3.5620   19.3727  -33.3455 H   0  0  0  0  0  0  0  0  0  0  0  0
   -3.5164   18.2849  -34.7743 H   0  0  0  0  0  0  0  0  0  0  0  0
   -4.5929   19.7229  -34.7743 H   0  0  0  0  0  0  0  0  0  0  0  0
   -4.4013   16.3365  -34.3319 H   0  0  0  0  0  0  0  0  0  0  0  0
   -4.8490   16.2952  -32.5893 H   0  0  0  0  0  0  0  0  0  0  0  0
   -6.7446   16.2883  -34.9946 H   0  0  0  0  0  0  0  0  0  0  0  0
   -6.4628   14.9560  -33.8144 H   0  0  0  0  0  0  0  0  0  0  0  0
   -9.5372   17.8340  -31.9055 H   0  0  0  0  0  0  0  0  0  0  0  0
   -9.5818   20.2463  -31.2769 H   0  0  0  0  0  0  0  0  0  0  0  0
   -5.9450   22.9280  -33.0260 H   0  0  0  0  0  0  0  0  0  0  0  0
   -5.6476   25.0631  -32.6141 H   0  0  0  0  0  0  0  0  0  0  0  0
   -7.1646   24.8513  -31.6413 H   0  0  0  0  0  0  0  0  0  0  0  0
   -5.4146   26.0330  -30.3551 H   0  0  0  0  0  0  0  0  0  0  0  0
   -5.8382   24.4083  -29.6404 H   0  0  0  0  0  0  0  0  0  0  0  0
   -3.4118   23.5870  -32.2057 H   0  0  0  0  0  0  0  0  0  0  0  0
   -2.9782   22.7967  -30.6125 H   0  0  0  0  0  0  0  0  0  0  0  0
   -4.6875   21.5033  -31.8311 H   0  0  0  0  0  0  0  0  0  0  0  0
   -5.3039   22.1657  -30.2679 H   0  0  0  0  0  0  0  0  0  0  0  0
   -5.5720   20.7347  -32.8332 H   0  0  0  0  0  0  0  0  0  0  0  0
  1  2  1  0
  2  3  1  0
  3  4  1  0
  4  5  1  0
  5  6  1  0
  6  7  2  0
  7  8  1  0
  8  9  2  0
  9 10  1  0
 10 11  2  0
 10 12  2  0
 10 13  1  0
 13 14  1  0
 14 15  1  0
 15 16  1  0
 16 17  1  0
 17 18  1  0
  9 19  1  0
 19 20  2  0
 20  2  1  0
 20  6  1  0
 18 13  1  0
  1 21  1  0
  1 22  1  0
  1 23  1  0
  3 24  1  0
  3 25  1  0
  4 26  1  0
  4 27  1  0
  7 28  1  0
  8 29  1  0
 13 30  1  0
 14 31  1  0
 14 32  1  0
 15 33  1  0
 15 34  1  0
 17 35  1  0
 17 36  1  0
 18 37  1  0
 18 38  1  0
 19 39  1  0
M  CHG  1  13   1
M  END
>  <UniqueID>  (28) 
27

>  <SMILES>  (28) 
CN1CCOc2ccc(S(=O)(=O)[NH+]3CCOCC3)cc21

>  <Energy>  (28) 
51.87533110933717

>  <Genealogy>  (28) 
CN1CCOc2ccc(S(=O)(=O)[NH+]3CCOCC3)cc21 (protonated)
CN1CCOc2ccc(S(=O)(=O)[NH+]3CCOCC3)cc21 (3D coordinates assigned)
CN1CCOc2ccc(S(=O)(=O)[NH+]3CCOCC3)cc21 (nonaromatic ring conformer: 51.87533110933717 kcal/mol)

>  <smiles>  (28) 
CN1CCOc2ccc(S(=O)(=O)N3CCOCC3)cc21

>  <score_type>  (28) 
oracle

>  <origin>  (28) 
adg

>  <m_score__min__energy>  (28) 
-7.1799999999999997

>  <m_primary>  (28) 
energy

$$$$
28:0
     RDKit          3D

 40 42  0  0  0  0  0  0  0  0999 V2000
   -9.4800   21.6580  -31.7140 C   0  0  0  0  0  0  0  0  0  0  0  0
   -8.5520   22.6420  -31.3130 O   0  0  0  0  0  0  0  0  0  0  0  0
   -7.5630   22.8170  -32.3100 C   0  0  0  0  0  0  0  0  0  0  0  0
   -6.2060   22.3980  -31.7930 C   0  0  0  0  0  0  0  0  0  0  0  0
   -5.3250   23.3690  -31.2910 C   0  0  0  0  0  0  0  0  0  0  0  0
   -4.0680   22.9970  -30.7890 C   0  0  0  0  0  0  0  0  0  0  0  0
   -3.1590   23.9440  -30.2780 C   0  0  0  0  0  0  0  0  0  0  0  0
   -3.5010   25.2930  -30.2610 O   0  0  0  0  0  0  0  0  0  0  0  0
   -1.9090   23.5040  -29.7880 C   0  0  0  0  0  0  0  0  0  0  0  0
   -0.8960   24.4310  -29.2340 C   0  0  0  0  0  0  0  0  0  0  0  0
   -1.1400   25.6680  -29.2210 O   0  0  0  0  0  0  0  0  0  0  0  0
    0.3450   23.9470  -28.7080 N   0  0  0  0  0  0  0  0  0  0  0  0
    0.4940   23.3880  -27.3690 C   0  0  0  0  0  0  0  0  0  0  0  0
   -0.0680   21.9940  -27.3200 C   0  0  0  0  0  0  0  0  0  0  0  0
   -1.2900   21.7540  -26.6690 C   0  0  0  0  0  0  0  0  0  0  0  0
   -1.8290   20.4640  -26.6390 C   0  0  0  0  0  0  0  0  0  0  0  0
   -1.1570   19.4080  -27.2610 C   0  0  0  0  0  0  0  0  0  0  0  0
    0.0560   19.6410  -27.9160 C   0  0  0  0  0  0  0  0  0  0  0  0
    0.5990   20.9300  -27.9490 C   0  0  0  0  0  0  0  0  0  0  0  0
   -1.6140   22.1740  -29.8170 N   0  0  0  0  0  0  0  0  0  0  0  0
   -2.4740   21.2430  -30.3020 C   0  0  0  0  0  0  0  0  0  0  0  0
   -3.7180   21.6340  -30.7970 C   0  0  0  0  0  0  0  0  0  0  0  0
   -4.5840   20.7070  -31.2810 N   0  0  0  0  0  0  0  0  0  0  0  0
   -5.8060   21.0460  -31.7720 C   0  0  0  0  0  0  0  0  0  0  0  0
   -6.6660   19.9970  -32.2590 C   0  0  0  0  0  0  0  0  0  0  0  0
   -7.3560   19.1560  -32.6520 N   0  0  0  0  0  0  0  0  0  0  0  0
   -9.9234   21.1878  -30.8239 H   0  0  0  0  0  0  0  0  0  0  0  0
  -10.2735   22.1257  -32.3154 H   0  0  0  0  0  0  0  0  0  0  0  0
   -8.9667   20.8933  -32.3154 H   0  0  0  0  0  0  0  0  0  0  0  0
   -7.8209   22.2043  -33.1864 H   0  0  0  0  0  0  0  0  0  0  0  0
   -7.5237   23.8807  -32.5874 H   0  0  0  0  0  0  0  0  0  0  0  0
   -5.6217   24.4282  -31.2911 H   0  0  0  0  0  0  0  0  0  0  0  0
    1.5614   23.3584  -27.1048 H   0  0  0  0  0  0  0  0  0  0  0  0
   -0.0537   24.0200  -26.6544 H   0  0  0  0  0  0  0  0  0  0  0  0
   -1.8240   22.5831  -26.1817 H   0  0  0  0  0  0  0  0  0  0  0  0
   -2.7838   20.2800  -26.1248 H   0  0  0  0  0  0  0  0  0  0  0  0
   -1.5824   18.3939  -27.2352 H   0  0  0  0  0  0  0  0  0  0  0  0
    0.5841   18.8098  -28.4060 H   0  0  0  0  0  0  0  0  0  0  0  0
    1.5512   21.1107  -28.4692 H   0  0  0  0  0  0  0  0  0  0  0  0
   -2.1901   20.1803  -30.3048 H   0  0  0  0  0  0  0  0  0  0  0  0
  1  2  1  0
  2  3  1  0
  3  4  1  0
  4  5  2  0
  5  6  1  0
  6  7  2  0
  7  8  1  0
  7  9  1  0
  9 10  1  0
 10 11  2  0
 10 12  1  0
 12 13  1  0
 13 14  1  0
 14 15  2  0
 15 16  1  0
 16 17  2  0
 17 18  1  0
 18 19  2  0
  9 20  2  0
 20 21  1  0
 21 22  2  0
 22 23  1  0
 23 24  2  0
 24 25  1  0
 25 26  3  0
 24  4  1  0
 22  6  1  0
 19 14  1  0
  1 27  1  0
  1 28  1  0
  1 29  1  0
  3 30  1  0
  3 31  1  0
  5 32  1  0
 13 33  1  0
 13 34  1  0
 15 35  1  0
 16 36  1  0
 17 37  1  0
 18 38  1  0
 19 39  1  0
 21 40  1  0
M  CHG  2   8  -1  12  -1
M  END
>  <UniqueID>  (29) 
28

>  <SMILES>  (29) 
COCc1cc2c([O-])c(C(=O)[N-]Cc3ccccc3)ncc2nc1C#N

>  <Energy>  (29) 
48.44116413575983

>  <Genealogy>  (29) 
COCc1cc2c([O-])c(C(=O)[N-]Cc3ccccc3)ncc2nc1C#N (protonated)
COCc1cc2c([O-])c(C(=O)[N-]Cc3ccccc3)ncc2nc1C#N (3D coordinates assigned)
COCc1cc2c([O-])c(C(=O)[N-]Cc3ccccc3)ncc2nc1C#N (optimized conformer: 48.44116413575983 kcal/mol)

>  <smiles>  (29) 
COCc1cc2c(O)c(C(=O)NCc3ccccc3)ncc2nc1C#N

>  <score_type>  (29) 
oracle

>  <origin>  (29) 
adg

>  <m_score__min__energy>  (29) 
-11.619999999999999

>  <m_primary>  (29) 
energy

$$$$
29:0
     RDKit          3D

 25 26  0  0  0  0  0  0  0  0999 V2000
   -9.1130   22.8890  -31.8740 O   0  0  0  0  0  0  0  0  0  0  0  0
   -8.1560   22.2520  -31.3560 C   0  0  0  0  0  0  0  0  0  0  0  0
   -7.3660   22.8460  -30.3100 N   0  0  0  0  0  0  0  0  0  0  0  0
   -6.3070   23.6040  -30.4050 C   0  0  0  0  0  0  0  0  0  0  0  0
   -5.0590   22.9820  -30.5320 C   0  0  0  0  0  0  0  0  0  0  0  0
   -3.9000   23.7550  -30.6310 C   0  0  0  0  0  0  0  0  0  0  0  0
   -3.9770   25.1110  -30.5930 N   0  0  0  0  0  0  0  0  0  0  0  0
   -5.1700   25.7480  -30.4500 C   0  0  0  0  0  0  0  0  0  0  0  0
   -6.3550   25.0130  -30.3480 C   0  0  0  0  0  0  0  0  0  0  0  0
   -7.7880   20.9190  -31.8910 C   0  0  0  0  0  0  0  0  0  0  0  0
   -8.5700   19.7870  -31.5940 C   0  0  0  0  0  0  0  0  0  0  0  0
   -8.2220   18.5320  -32.1030 C   0  0  0  0  0  0  0  0  0  0  0  0
   -7.0910   18.3910  -32.9130 C   0  0  0  0  0  0  0  0  0  0  0  0
   -6.6560   16.8160  -33.5500 Cl  0  0  0  0  0  0  0  0  0  0  0  0
   -6.3090   19.5090  -33.2160 C   0  0  0  0  0  0  0  0  0  0  0  0
   -6.6530   20.7660  -32.7090 C   0  0  0  0  0  0  0  0  0  0  0  0
   -4.9914   21.8843  -30.5538 H   0  0  0  0  0  0  0  0  0  0  0  0
   -2.9215   23.2644  -30.7401 H   0  0  0  0  0  0  0  0  0  0  0  0
   -3.1010   25.6750  -30.6670 H   0  0  0  0  0  0  0  0  0  0  0  0
   -5.2028   26.8469  -30.4144 H   0  0  0  0  0  0  0  0  0  0  0  0
   -7.3182   25.5297  -30.2242 H   0  0  0  0  0  0  0  0  0  0  0  0
   -9.4609   19.8903  -30.9572 H   0  0  0  0  0  0  0  0  0  0  0  0
   -8.8396   17.6533  -31.8656 H   0  0  0  0  0  0  0  0  0  0  0  0
   -5.4204   19.3998  -33.8551 H   0  0  0  0  0  0  0  0  0  0  0  0
   -6.0322   21.6412  -32.9512 H   0  0  0  0  0  0  0  0  0  0  0  0
  1  2  2  0
  2  3  1  0
  3  4  2  3
  4  5  1  0
  5  6  2  0
  6  7  1  0
  7  8  1  0
  8  9  2  0
  2 10  1  0
 10 11  2  0
 11 12  1  0
 12 13  2  0
 13 14  1  0
 13 15  1  0
 15 16  2  0
  9  4  1  0
 16 10  1  0
  5 17  1  0
  6 18  1  0
  7 19  1  0
  8 20  1  0
  9 21  1  0
 11 22  1  0
 12 23  1  0
 15 24  1  0
 16 25  1  0
M  END
>  <UniqueID>  (30) 
29

>  <SMILES>  (30) 
O=C(N=c1cc[nH]cc1)c1ccc(Cl)cc1

>  <Energy>  (30) 
34.23564514943213

>  <Genealogy>  (30) 
O=C(N=c1cc[nH]cc1)c1ccc(Cl)cc1 (3D coordinates assigned)
O=C(N=c1cc[nH]cc1)c1ccc(Cl)cc1 (optimized conformer: 34.23564514943213 kcal/mol)

>  <smiles>  (30) 
O=C(N=c1cc[nH]cc1)c1ccc(Cl)cc1

>  <score_type>  (30) 
oracle

>  <origin>  (30) 
adg

>  <m_score__min__energy>  (30) 
-7.4699999999999998

>  <m_primary>  (30) 
energy

$$$$
30:0
     RDKit          3D

 33 34  0  0  0  0  0  0  0  0999 V2000
   -0.4064   21.9789  -28.9598 H   0  0  0  0  0  0  0  0  0  0  0  0
   -1.2700   22.5160  -29.3790 C   0  0  0  0  0  0  0  0  0  0  0  0
   -1.9610   21.9840  -30.4700 C   0  0  0  0  0  0  0  0  0  0  0  0
   -1.6352   21.0324  -30.9153 H   0  0  0  0  0  0  0  0  0  0  0  0
   -3.0660   22.6590  -30.9970 C   0  0  0  0  0  0  0  0  0  0  0  0
   -3.5956   22.2449  -31.8676 H   0  0  0  0  0  0  0  0  0  0  0  0
   -3.5030   23.8610  -30.4220 C   0  0  0  0  0  0  0  0  0  0  0  0
   -4.6150   24.5500  -31.0130 N   0  0  0  0  0  0  0  0  0  0  0  0
   -5.8250   24.0920  -31.1580 C   0  0  0  0  0  0  0  0  0  0  0  0
   -6.1990   23.3160  -32.3130 N   0  0  0  0  0  0  0  0  0  0  0  0
   -5.7510   23.5530  -33.2270 H   0  0  0  0  0  0  0  0  0  0  0  0
   -7.1840   22.2680  -32.2780 C   0  0  0  0  0  0  0  0  0  0  0  0
   -8.5210   22.5690  -31.9610 C   0  0  0  0  0  0  0  0  0  0  0  0
   -8.8135   23.6114  -31.7665 H   0  0  0  0  0  0  0  0  0  0  0  0
   -9.4800   21.5570  -31.8910 C   0  0  0  0  0  0  0  0  0  0  0  0
  -10.5247   21.8061  -31.6532 H   0  0  0  0  0  0  0  0  0  0  0  0
   -9.1160   20.2310  -32.1220 C   0  0  0  0  0  0  0  0  0  0  0  0
   -9.8732   19.4351  -32.0656 H   0  0  0  0  0  0  0  0  0  0  0  0
   -7.7900   19.9130  -32.4250 C   0  0  0  0  0  0  0  0  0  0  0  0
   -7.5067   18.8643  -32.5978 H   0  0  0  0  0  0  0  0  0  0  0  0
   -6.8150   20.9210  -32.5110 C   0  0  0  0  0  0  0  0  0  0  0  0
   -5.3940   20.5500  -32.8380 C   0  0  0  0  0  0  0  0  0  0  0  0
   -4.8296   20.4026  -31.9054 H   0  0  0  0  0  0  0  0  0  0  0  0
   -5.3836   19.6190  -33.4238 H   0  0  0  0  0  0  0  0  0  0  0  0
   -4.9299   21.3571  -33.4238 H   0  0  0  0  0  0  0  0  0  0  0  0
   -6.8580   24.4770  -30.1430 C   0  0  0  0  0  0  0  0  0  0  0  0
   -6.4525   24.3259  -29.1317 H   0  0  0  0  0  0  0  0  0  0  0  0
   -7.1262   25.5355  -30.2761 H   0  0  0  0  0  0  0  0  0  0  0  0
   -7.7535   23.8523  -30.2761 H   0  0  0  0  0  0  0  0  0  0  0  0
   -2.7810   24.4090  -29.3440 C   0  0  0  0  0  0  0  0  0  0  0  0
   -3.0874   25.3735  -28.9129 H   0  0  0  0  0  0  0  0  0  0  0  0
   -1.6760   23.7310  -28.8200 C   0  0  0  0  0  0  0  0  0  0  0  0
   -1.1256   24.1544  -27.9669 H   0  0  0  0  0  0  0  0  0  0  0  0
  1  2  1  0
  2  3  2  0
  3  4  1  0
  3  5  1  0
  5  6  1  0
  5  7  2  0
  7  8  1  0
  8  9  2  0
  9 10  1  0
 10 11  1  0
 10 12  1  0
 12 13  2  0
 13 14  1  0
 13 15  1  0
 15 16  1  0
 15 17  2  0
 17 18  1  0
 17 19  1  0
 19 20  1  0
 19 21  2  0
 21 22  1  0
 22 23  1  0
 22 24  1  0
 22 25  1  0
  9 26  1  0
 26 27  1  0
 26 28  1  0
 26 29  1  0
  7 30  1  0
 30 31  1  0
 30 32  2  0
 32 33  1  0
 32  2  1  0
 21 12  1  0
M  END
>  <UniqueID>  (31) 
30

>  <SMILES>  (31) 
C/C(=N/c1ccccc1)Nc1ccccc1C

>  <Energy>  (31) 
43.11951418112874

>  <Genealogy>  (31) 
C/C(=N/c1ccccc1)Nc1ccccc1C (cis-trans isomerization)
C/C(=N/c1ccccc1)Nc1ccccc1C (3D coordinates assigned)
C/C(=N/c1ccccc1)Nc1ccccc1C (optimized conformer: 43.11951418112874 kcal/mol)

>  <smiles>  (31) 
CC(=Nc1ccccc1)Nc1ccccc1C

>  <score_type>  (31) 
oracle

>  <origin>  (31) 
adg

>  <m_score__min__energy>  (31) 
-7.46

>  <m_primary>  (31) 
energy

$$$$
31:0
     RDKit          3D

 41 43  0  0  0  0  0  0  0  0999 V2000
   -4.5580   21.5460  -30.4590 C   0  0  0  0  0  0  0  0  0  0  0  0
   -5.0510   22.9690  -30.4330 C   0  0  0  0  0  0  0  0  0  0  0  0
   -4.1130   24.0170  -30.4670 C   0  0  0  0  0  0  0  0  0  0  0  0
   -4.5340   25.3480  -30.4430 C   0  0  0  0  0  0  0  0  0  0  0  0
   -5.8940   25.6510  -30.3840 C   0  0  0  0  0  0  0  0  0  0  0  0
   -6.8390   24.6230  -30.3590 C   0  0  0  0  0  0  0  0  0  0  0  0
   -6.4350   23.2760  -30.3990 C   0  0  0  0  0  0  0  0  0  0  0  0
   -7.4940   22.2040  -30.3450 C   0  0  0  0  0  0  0  0  0  0  0  0
   -8.3410   22.1000  -31.9550 S   0  0  0  0  0  0  0  0  0  0  0  0
   -7.2760   20.7860  -32.5530 C   0  0  0  0  0  0  0  0  0  0  0  0
   -5.9770   21.0030  -32.8850 N   0  0  0  0  0  0  0  0  0  0  0  0
   -5.5520   19.7740  -33.2360 C   0  0  0  0  0  0  0  0  0  0  0  0
   -6.5490   18.8660  -33.1200 C   0  0  0  0  0  0  0  0  0  0  0  0
   -6.3210   17.5300  -33.4210 C   0  0  0  0  0  0  0  0  0  0  0  0
   -7.2480   16.6810  -33.3170 O   0  0  0  0  0  0  0  0  0  0  0  0
   -5.0620   17.1620  -33.8400 N   0  0  0  0  0  0  0  0  0  0  0  0
   -4.7920   15.7620  -34.2100 C   0  0  0  0  0  0  0  0  0  0  0  0
   -4.0690   18.1170  -33.9860 C   0  0  0  0  0  0  0  0  0  0  0  0
   -2.9370   17.7800  -34.4350 O   0  0  0  0  0  0  0  0  0  0  0  0
   -4.3020   19.4330  -33.6510 N   0  0  0  0  0  0  0  0  0  0  0  0
   -3.2610   20.4560  -33.8140 C   0  0  0  0  0  0  0  0  0  0  0  0
   -7.6640   19.4910  -32.6970 N   0  0  0  0  0  0  0  0  0  0  0  0
   -8.9650   18.9000  -32.3860 C   0  0  0  0  0  0  0  0  0  0  0  0
   -4.4321   21.1827  -29.4284 H   0  0  0  0  0  0  0  0  0  0  0  0
   -5.2896   20.9140  -30.9838 H   0  0  0  0  0  0  0  0  0  0  0  0
   -3.5923   21.5021  -30.9838 H   0  0  0  0  0  0  0  0  0  0  0  0
   -3.0386   23.7858  -30.5129 H   0  0  0  0  0  0  0  0  0  0  0  0
   -3.7916   26.1592  -30.4707 H   0  0  0  0  0  0  0  0  0  0  0  0
   -6.2226   26.7004  -30.3571 H   0  0  0  0  0  0  0  0  0  0  0  0
   -7.9099   24.8690  -30.3075 H   0  0  0  0  0  0  0  0  0  0  0  0
   -7.0240   21.2363  -30.1154 H   0  0  0  0  0  0  0  0  0  0  0  0
   -8.2260   22.4527  -29.5625 H   0  0  0  0  0  0  0  0  0  0  0  0
   -4.6755   15.1577  -33.2983 H   0  0  0  0  0  0  0  0  0  0  0  0
   -5.6314   15.3713  -34.8040 H   0  0  0  0  0  0  0  0  0  0  0  0
   -3.8676   15.7115  -34.8040 H   0  0  0  0  0  0  0  0  0  0  0  0
   -2.9190   20.7921  -32.8240 H   0  0  0  0  0  0  0  0  0  0  0  0
   -2.4126   20.0305  -34.3700 H   0  0  0  0  0  0  0  0  0  0  0  0
   -3.6717   21.3117  -34.3700 H   0  0  0  0  0  0  0  0  0  0  0  0
   -9.0904   18.8430  -31.2947 H   0  0  0  0  0  0  0  0  0  0  0  0
   -9.7631   19.5239  -32.8147 H   0  0  0  0  0  0  0  0  0  0  0  0
   -9.0201   17.8885  -32.8147 H   0  0  0  0  0  0  0  0  0  0  0  0
  1  2  1  0
  2  3  2  0
  3  4  1  0
  4  5  2  0
  5  6  1  0
  6  7  2  0
  7  8  1  0
  8  9  1  0
  9 10  1  0
 10 11  2  0
 11 12  1  0
 12 13  2  0
 13 14  1  0
 14 15  2  0
 14 16  1  0
 16 17  1  0
 16 18  1  0
 18 19  2  0
 18 20  1  0
 20 21  1  0
 13 22  1  0
 22 23  1  0
  7  2  1  0
 22 10  1  0
 20 12  1  0
  1 24  1  0
  1 25  1  0
  1 26  1  0
  3 27  1  0
  4 28  1  0
  5 29  1  0
  6 30  1  0
  8 31  1  0
  8 32  1  0
 17 33  1  0
 17 34  1  0
 17 35  1  0
 21 36  1  0
 21 37  1  0
 21 38  1  0
 23 39  1  0
 23 40  1  0
 23 41  1  0
M  END
>  <UniqueID>  (32) 
31

>  <SMILES>  (32) 
Cc1ccccc1CSc1nc2c(c(=O)n(C)c(=O)n2C)n1C

>  <Energy>  (32) 
84.51253419025298

>  <Genealogy>  (32) 
Cc1ccccc1CSc1nc2c(c(=O)n(C)c(=O)n2C)n1C (3D coordinates assigned)
Cc1ccccc1CSc1nc2c(c(=O)n(C)c(=O)n2C)n1C (optimized conformer: 84.51253419025298 kcal/mol)

>  <smiles>  (32) 
Cc1ccccc1CSc1nc2c(c(=O)n(C)c(=O)n2C)n1C

>  <score_type>  (32) 
oracle

>  <origin>  (32) 
adg

>  <m_score__min__energy>  (32) 
-7.5999999999999996

>  <m_primary>  (32) 
energy

$$$$
32:0
     RDKit          3D

 24 25  0  0  0  0  0  0  0  0999 V2000
   -7.7920   21.2420  -31.0290 O   0  0  0  0  0  0  0  0  0  0  0  0
   -6.8080   21.7990  -31.5880 C   0  0  0  0  0  0  0  0  0  0  0  0
   -6.1740   21.1740  -32.7190 N   0  0  0  0  0  0  0  0  0  0  0  0
   -6.3730   19.7990  -33.0900 C   0  0  0  0  0  0  0  0  0  0  0  0
   -7.1700   18.9360  -32.3130 C   0  0  0  0  0  0  0  0  0  0  0  0
   -7.3250   17.5960  -32.6840 C   0  0  0  0  0  0  0  0  0  0  0  0
   -6.6790   17.1030  -33.8210 C   0  0  0  0  0  0  0  0  0  0  0  0
   -6.8300   15.8030  -34.1760 F   0  0  0  0  0  0  0  0  0  0  0  0
   -5.8690   17.9480  -34.5840 C   0  0  0  0  0  0  0  0  0  0  0  0
   -5.7100   19.2870  -34.2170 C   0  0  0  0  0  0  0  0  0  0  0  0
   -6.3350   23.1120  -31.1010 C   0  0  0  0  0  0  0  0  0  0  0  0
   -5.0130   23.5380  -31.3110 C   0  0  0  0  0  0  0  0  0  0  0  0
   -4.6190   24.7540  -30.8520 N   0  0  0  0  0  0  0  0  0  0  0  0
   -5.4790   25.5730  -30.1930 C   0  0  0  0  0  0  0  0  0  0  0  0
   -6.7950   25.1570  -29.9830 C   0  0  0  0  0  0  0  0  0  0  0  0
   -7.1910   23.9410  -30.4410 N   0  0  0  0  0  0  0  0  0  0  0  0
   -5.6090   21.7740  -33.3620 H   0  0  0  0  0  0  0  0  0  0  0  0
   -7.6722   19.3168  -31.4115 H   0  0  0  0  0  0  0  0  0  0  0  0
   -7.9569   16.9288  -32.0793 H   0  0  0  0  0  0  0  0  0  0  0  0
   -5.3554   17.5585  -35.4754 H   0  0  0  0  0  0  0  0  0  0  0  0
   -5.0613   19.9441  -34.8148 H   0  0  0  0  0  0  0  0  0  0  0  0
   -4.3011   22.8906  -31.8440 H   0  0  0  0  0  0  0  0  0  0  0  0
   -5.1419   26.5545  -29.8283 H   0  0  0  0  0  0  0  0  0  0  0  0
   -7.5048   25.8080  -29.4515 H   0  0  0  0  0  0  0  0  0  0  0  0
  1  2  2  0
  2  3  1  0
  3  4  1  0
  4  5  2  0
  5  6  1  0
  6  7  2  0
  7  8  1  0
  7  9  1  0
  9 10  2  0
  2 11  1  0
 11 12  2  0
 12 13  1  0
 13 14  2  0
 14 15  1  0
 15 16  2  0
 10  4  1  0
 16 11  1  0
  3 17  1  0
  5 18  1  0
  6 19  1  0
  9 20  1  0
 10 21  1  0
 12 22  1  0
 14 23  1  0
 15 24  1  0
M  END
>  <UniqueID>  (33) 
32

>  <SMILES>  (33) 
O=C(Nc1ccc(F)cc1)c1cnccn1

>  <Energy>  (33) 
30.618301812683306

>  <Genealogy>  (33) 
O=C(Nc1ccc(F)cc1)c1cnccn1 (3D coordinates assigned)
O=C(Nc1ccc(F)cc1)c1cnccn1 (optimized conformer: 30.618301812683306 kcal/mol)

>  <smiles>  (33) 
O=C(Nc1ccc(F)cc1)c1cnccn1

>  <score_type>  (33) 
oracle

>  <origin>  (33) 
adg

>  <m_score__min__energy>  (33) 
-6.2400000000000002

>  <m_primary>  (33) 
energy

$$$$
33:0
     RDKit          3D

 53 57  0  0  0  0  0  0  0  0999 V2000
    1.4410   22.8390  -36.0550 C   0  0  0  0  0  0  0  0  0  0  0  0
    0.7070   21.7530  -35.3450 C   0  0  0  0  0  0  0  0  0  0  0  0
    0.2480   21.8650  -34.0800 N   0  0  0  0  0  0  0  0  0  0  0  0
   -0.3230   20.7090  -33.6460 C   0  0  0  0  0  0  0  0  0  0  0  0
   -0.8940   20.5760  -32.2670 C   0  0  0  0  0  0  0  0  0  0  0  0
   -2.3660   20.6630  -32.3190 N   0  0  0  0  0  0  0  0  0  0  0  0
   -2.9670   20.5530  -30.9810 C   0  0  0  0  0  0  0  0  0  0  0  0
   -4.4690   20.2640  -31.1240 C   0  0  0  0  0  0  0  0  0  0  0  0
   -5.1680   20.9890  -32.3320 C   0  0  0  0  0  0  0  0  0  0  0  0
   -4.2890   22.2380  -32.7030 C   0  0  0  0  0  0  0  0  0  0  0  0
   -2.7960   21.9190  -32.9660 C   0  0  0  0  0  0  0  0  0  0  0  0
   -5.2470   20.0830  -33.6030 C   0  0  0  0  0  0  0  0  0  0  0  0
   -5.7900   18.6620  -33.5010 C   0  0  0  0  0  0  0  0  0  0  0  0
   -5.3480   17.7740  -34.5070 C   0  0  0  0  0  0  0  0  0  0  0  0
   -5.8230   16.4680  -34.5870 C   0  0  0  0  0  0  0  0  0  0  0  0
   -6.7620   16.0150  -33.6720 C   0  0  0  0  0  0  0  0  0  0  0  0
   -7.2330   16.8690  -32.6770 C   0  0  0  0  0  0  0  0  0  0  0  0
   -6.7810   18.2030  -32.5790 C   0  0  0  0  0  0  0  0  0  0  0  0
   -7.2910   18.9950  -31.3930 C   0  0  0  0  0  0  0  0  0  0  0  0
   -7.6220   20.4370  -31.6810 C   0  0  0  0  0  0  0  0  0  0  0  0
   -8.9700   20.8300  -31.5400 C   0  0  0  0  0  0  0  0  0  0  0  0
   -9.3480   22.1600  -31.6720 C   0  0  0  0  0  0  0  0  0  0  0  0
   -8.3910   23.1240  -31.9430 C   0  0  0  0  0  0  0  0  0  0  0  0
   -7.0560   22.7630  -32.1080 C   0  0  0  0  0  0  0  0  0  0  0  0
   -6.6260   21.4100  -31.9900 C   0  0  0  0  0  0  0  0  0  0  0  0
   -0.3060   19.6600  -34.5620 C   0  0  0  0  0  0  0  0  0  0  0  0
    0.4530   20.2090  -35.9580 S   0  0  0  0  0  0  0  0  0  0  0  0
    1.8981   23.5154  -35.3177 H   0  0  0  0  0  0  0  0  0  0  0  0
    2.2274   22.3986  -36.6856 H   0  0  0  0  0  0  0  0  0  0  0  0
    0.7391   23.4044  -36.6856 H   0  0  0  0  0  0  0  0  0  0  0  0
   -0.6014   19.6037  -31.8439 H   0  0  0  0  0  0  0  0  0  0  0  0
   -0.5066   21.3896  -31.6361 H   0  0  0  0  0  0  0  0  0  0  0  0
   -2.4856   19.7331  -30.4278 H   0  0  0  0  0  0  0  0  0  0  0  0
   -2.8226   21.4955  -30.4325 H   0  0  0  0  0  0  0  0  0  0  0  0
   -4.5979   19.1794  -31.2548 H   0  0  0  0  0  0  0  0  0  0  0  0
   -4.9470   20.6510  -30.2120 H   0  0  0  0  0  0  0  0  0  0  0  0
   -4.7078   22.6948  -33.6118 H   0  0  0  0  0  0  0  0  0  0  0  0
   -4.3163   22.9090  -31.8318 H   0  0  0  0  0  0  0  0  0  0  0  0
   -2.6399   21.8288  -34.0511 H   0  0  0  0  0  0  0  0  0  0  0  0
   -2.1980   22.7378  -32.5394 H   0  0  0  0  0  0  0  0  0  0  0  0
   -5.8806   20.6123  -34.3299 H   0  0  0  0  0  0  0  0  0  0  0  0
   -4.1901   19.9285  -33.8660 H   0  0  0  0  0  0  0  0  0  0  0  0
   -4.6107   18.1231  -35.2449 H   0  0  0  0  0  0  0  0  0  0  0  0
   -5.4539   15.7955  -35.3754 H   0  0  0  0  0  0  0  0  0  0  0  0
   -7.1347   14.9818  -33.7320 H   0  0  0  0  0  0  0  0  0  0  0  0
   -7.9723   16.4962  -31.9528 H   0  0  0  0  0  0  0  0  0  0  0  0
   -8.2026   18.5038  -31.0220 H   0  0  0  0  0  0  0  0  0  0  0  0
   -6.4714   19.0097  -30.6595 H   0  0  0  0  0  0  0  0  0  0  0  0
   -9.7346   20.0699  -31.3218 H   0  0  0  0  0  0  0  0  0  0  0  0
  -10.4042   22.4469  -31.5617 H   0  0  0  0  0  0  0  0  0  0  0  0
   -8.6869   24.1800  -32.0283 H   0  0  0  0  0  0  0  0  0  0  0  0
   -6.3143   23.5429  -32.3354 H   0  0  0  0  0  0  0  0  0  0  0  0
   -0.7160   18.6521  -34.4008 H   0  0  0  0  0  0  0  0  0  0  0  0
  1  2  1  0
  2  3  2  0
  3  4  1  0
  4  5  1  0
  5  6  1  0
  6  7  1  0
  7  8  1  0
  8  9  1  0
  9 10  1  0
 10 11  1  0
  9 12  1  0
 12 13  1  0
 13 14  2  0
 14 15  1  0
 15 16  2  0
 16 17  1  0
 17 18  2  0
 18 19  1  0
 19 20  1  0
 20 21  2  0
 21 22  1  0
 22 23  2  0
 23 24  1  0
 24 25  2  0
  4 26  2  0
 26 27  1  0
 27  2  1  0
 11  6  1  0
 18 13  1  0
 25 20  1  0
 25  9  1  0
  1 28  1  0
  1 29  1  0
  1 30  1  0
  5 31  1  0
  5 32  1  0
  7 33  1  0
  7 34  1  0
  8 35  1  0
  8 36  1  0
 10 37  1  0
 10 38  1  0
 11 39  1  0
 11 40  1  0
 12 41  1  0
 12 42  1  0
 14 43  1  0
 15 44  1  0
 16 45  1  0
 17 46  1  0
 19 47  1  0
 19 48  1  0
 21 49  1  0
 22 50  1  0
 23 51  1  0
 24 52  1  0
 26 53  1  0
M  END
>  <UniqueID>  (34) 
33

>  <SMILES>  (34) 
Cc1nc(CN2CCC3(CC2)Cc2ccccc2Cc2ccccc23)cs1

>  <Energy>  (34) 
120.44908135249528

>  <Genealogy>  (34) 
Cc1nc(CN2CCC3(CC2)Cc2ccccc2Cc2ccccc23)cs1 (3D coordinates assigned)
Cc1nc(CN2CCC3(CC2)Cc2ccccc2Cc2ccccc23)cs1 (nonaromatic ring conformer: 120.44908135249528 kcal/mol)

>  <smiles>  (34) 
Cc1nc(CN2CCC3(CC2)Cc2ccccc2Cc2ccccc23)cs1

>  <score_type>  (34) 
oracle

>  <origin>  (34) 
adg

>  <m_score__min__energy>  (34) 
-8.2100000000000009

>  <m_primary>  (34) 
energy

$$$$
34:0
     RDKit          3D

 37 39  0  0  1  0  0  0  0  0999 V2000
   -4.0640   25.8080  -30.4820 O   0  0  0  0  0  0  0  0  0  0  0  0
   -4.9260   24.7770  -30.7320 C   0  0  0  0  0  0  0  0  0  0  0  0
   -6.2960   24.8990  -30.6460 C   0  0  0  0  0  0  0  0  0  0  0  0
   -7.0650   23.8290  -30.9090 N   0  0  0  0  0  0  0  0  0  0  0  0
   -6.5790   22.6270  -31.2560 C   0  0  0  0  0  0  0  0  0  0  0  0
   -7.4110   21.4680  -31.5420 C   0  0  0  0  0  0  0  0  0  0  0  0
   -8.7810   21.6100  -31.7870 C   0  0  0  0  0  0  0  0  0  0  0  0
   -9.5940   20.5380  -32.0600 C   0  0  0  0  0  0  0  0  0  0  0  0
   -9.0870   19.2560  -32.1040 C   0  0  0  0  0  0  0  0  0  0  0  0
   -9.8430   18.1650  -32.3680 F   0  0  0  0  0  0  0  0  0  0  0  0
   -7.7400   19.0940  -31.8660 C   0  0  0  0  0  0  0  0  0  0  0  0
   -6.9320   20.1770  -31.5930 C   0  0  0  0  0  0  0  0  0  0  0  0
   -5.2500   22.5020  -31.3410 N   0  0  0  0  0  0  0  0  0  0  0  0
   -4.4320   23.5400  -31.0880 C   0  0  0  0  0  0  0  0  0  0  0  0
   -3.1720   23.4020  -31.1740 N   0  0  0  0  0  0  0  0  0  0  0  0
   -2.3540   22.4650  -30.4750 C   0  0  0  0  0  0  0  0  0  0  0  0
   -1.5060   23.3110  -29.5110 C   0  0  2  0  0  0  0  0  0  0  0  0
   -1.3260   22.6720  -28.1750 C   0  0  0  0  0  0  0  0  0  0  0  0
   -2.1550   23.4830  -27.2180 C   0  0  0  0  0  0  0  0  0  0  0  0
   -2.7360   24.5500  -28.0990 C   0  0  0  0  0  0  0  0  0  0  0  0
   -2.0920   24.5550  -29.3030 O   0  0  0  0  0  0  0  0  0  0  0  0
   -3.0830   25.6720  -30.7490 H   0  0  0  0  0  0  0  0  0  0  0  0
   -6.7537   25.8592  -30.3659 H   0  0  0  0  0  0  0  0  0  0  0  0
   -8.0950   23.9680  -30.8330 H   0  0  0  0  0  0  0  0  0  0  0  0
   -9.2228   22.6170  -31.7599 H   0  0  0  0  0  0  0  0  0  0  0  0
  -10.6653   20.7039  -32.2464 H   0  0  0  0  0  0  0  0  0  0  0  0
   -7.3024   18.0852  -31.8942 H   0  0  0  0  0  0  0  0  0  0  0  0
   -5.8616   20.0036  -31.4084 H   0  0  0  0  0  0  0  0  0  0  0  0
   -2.9767   21.7510  -29.9160 H   0  0  0  0  0  0  0  0  0  0  0  0
   -1.7298   21.8726  -31.1602 H   0  0  0  0  0  0  0  0  0  0  0  0
   -0.5223   23.4080  -29.9936 H   0  0  0  0  0  0  0  0  0  0  0  0
   -1.6776   21.6300  -28.1983 H   0  0  0  0  0  0  0  0  0  0  0  0
   -0.2677   22.6502  -27.8759 H   0  0  0  0  0  0  0  0  0  0  0  0
   -2.9474   22.8703  -26.7633 H   0  0  0  0  0  0  0  0  0  0  0  0
   -1.5754   23.8846  -26.3737 H   0  0  0  0  0  0  0  0  0  0  0  0
   -3.8060   24.3504  -28.2577 H   0  0  0  0  0  0  0  0  0  0  0  0
   -2.6104   25.5298  -27.6151 H   0  0  0  0  0  0  0  0  0  0  0  0
  1  2  1  0
  2  3  2  0
  3  4  1  0
  4  5  1  0
  5  6  1  0
  6  7  2  0
  7  8  1  0
  8  9  2  0
  9 10  1  0
  9 11  1  0
 11 12  2  0
  5 13  2  0
 13 14  1  0
 14 15  2  0
 15 16  1  0
 16 17  1  0
 17 18  1  0
 18 19  1  0
 19 20  1  0
 20 21  1  0
 14  2  1  0
 21 17  1  0
 12  6  1  0
  1 22  1  0
  3 23  1  0
  4 24  1  0
  7 25  1  0
  8 26  1  0
 11 27  1  0
 12 28  1  0
 16 29  1  0
 16 30  1  0
 17 31  1  6
 18 32  1  0
 18 33  1  0
 19 34  1  0
 19 35  1  0
 20 36  1  0
 20 37  1  0
M  END
>  <smiles>  (35) 
Oc1c[nH]c(-c2ccc(F)cc2)nc1=NCC1CCCO1

>  <score_type>  (35) 
oracle

>  <origin>  (35) 
adg

>  <m_score__min__energy>  (35) 
-8.3900000000000006

>  <m_primary>  (35) 
energy

$$$$
35:0
     RDKit          3D

 30 32  0  0  0  0  0  0  0  0999 V2000
   -5.0940   17.7680  -34.4730 C   0  0  0  0  0  0  0  0  0  0  0  0
   -5.7790   16.6760  -33.9040 C   0  0  0  0  0  0  0  0  0  0  0  0
   -6.8960   16.9100  -33.0890 C   0  0  0  0  0  0  0  0  0  0  0  0
   -7.2770   18.1960  -32.8820 N   0  0  0  0  0  0  0  0  0  0  0  0
   -8.2810   18.6880  -32.1450 C   0  0  0  0  0  0  0  0  0  0  0  0
   -8.2110   20.0700  -32.2480 C   0  0  0  0  0  0  0  0  0  0  0  0
   -9.1110   21.0470  -31.5550 C   0  0  0  0  0  0  0  0  0  0  0  0
   -8.3310   22.1620  -30.8400 C   0  0  0  0  0  0  0  0  0  0  0  0
   -7.8480   23.2780  -31.7830 C   0  0  0  0  0  0  0  0  0  0  0  0
   -6.6860   23.9800  -31.2430 N   0  0  0  0  0  0  0  0  0  0  0  0
   -5.3950   23.7680  -31.5500 C   0  0  0  0  0  0  0  0  0  0  0  0
   -4.5880   24.5850  -30.8460 N   0  0  0  0  0  0  0  0  0  0  0  0
   -5.4660   25.2890  -30.0980 C   0  0  0  0  0  0  0  0  0  0  0  0
   -6.7440   24.9270  -30.3250 N   0  0  0  0  0  0  0  0  0  0  0  0
   -7.1820   20.4360  -33.0510 N   0  0  0  0  0  0  0  0  0  0  0  0
   -6.6420   19.2540  -33.4110 C   0  0  0  0  0  0  0  0  0  0  0  0
   -5.5260   19.0820  -34.2280 C   0  0  0  0  0  0  0  0  0  0  0  0
   -4.2166   17.5906  -35.1123 H   0  0  0  0  0  0  0  0  0  0  0  0
   -5.4401   15.6476  -34.0976 H   0  0  0  0  0  0  0  0  0  0  0  0
   -7.4472   16.0756  -32.6309 H   0  0  0  0  0  0  0  0  0  0  0  0
   -9.0182   18.1089  -31.5696 H   0  0  0  0  0  0  0  0  0  0  0  0
   -9.7760   21.5050  -32.3020 H   0  0  0  0  0  0  0  0  0  0  0  0
   -9.6790   20.4946  -30.7920 H   0  0  0  0  0  0  0  0  0  0  0  0
   -8.9850   22.6099  -30.0774 H   0  0  0  0  0  0  0  0  0  0  0  0
   -7.4343   21.6989  -30.4024 H   0  0  0  0  0  0  0  0  0  0  0  0
   -7.5766   22.8329  -32.7516 H   0  0  0  0  0  0  0  0  0  0  0  0
   -8.6645   24.0062  -31.8972 H   0  0  0  0  0  0  0  0  0  0  0  0
   -5.0433   23.0246  -32.2805 H   0  0  0  0  0  0  0  0  0  0  0  0
   -5.1703   26.0709  -29.3830 H   0  0  0  0  0  0  0  0  0  0  0  0
   -5.0021   19.9446  -34.6655 H   0  0  0  0  0  0  0  0  0  0  0  0
  1  2  1  0
  2  3  2  0
  3  4  1  0
  4  5  1  0
  5  6  2  0
  6  7  1  0
  7  8  1  0
  8  9  1  0
  9 10  1  0
 10 11  1  0
 11 12  2  0
 12 13  1  0
 13 14  2  0
  6 15  1  0
 15 16  2  0
 16 17  1  0
 17  1  2  0
 16  4  1  0
 14 10  1  0
  1 18  1  0
  2 19  1  0
  3 20  1  0
  5 21  1  0
  7 22  1  0
  7 23  1  0
  8 24  1  0
  8 25  1  0
  9 26  1  0
  9 27  1  0
 11 28  1  0
 13 29  1  0
 17 30  1  0
M  END
>  <UniqueID>  (36) 
34

>  <SMILES>  (36) 
c1ccn2cc(CCCn3cncn3)nc2c1

>  <Energy>  (36) 
92.48058222983207

>  <Genealogy>  (36) 
c1ccn2cc(CCCn3cncn3)nc2c1 (3D coordinates assigned)
c1ccn2cc(CCCn3cncn3)nc2c1 (optimized conformer: 92.48058222983207 kcal/mol)

>  <smiles>  (36) 
c1ccn2cc(CCCn3cncn3)nc2c1

>  <score_type>  (36) 
oracle

>  <origin>  (36) 
adg

>  <m_score__min__energy>  (36) 
-6.8300000000000001

>  <m_primary>  (36) 
energy

$$$$
36:0
     RDKit          3D

 38 38  0  0  0  0  0  0  0  0999 V2000
   -3.9010   18.6860  -34.1420 C   0  0  0  0  0  0  0  0  0  0  0  0
   -5.0950   19.3040  -33.6720 O   0  0  0  0  0  0  0  0  0  0  0  0
   -5.1510   20.5530  -33.0340 C   0  0  0  0  0  0  0  0  0  0  0  0
   -3.9840   21.2210  -32.6190 C   0  0  0  0  0  0  0  0  0  0  0  0
   -4.0620   22.4610  -31.9840 C   0  0  0  0  0  0  0  0  0  0  0  0
   -5.3040   23.0650  -31.7490 C   0  0  0  0  0  0  0  0  0  0  0  0
   -5.3770   24.3460  -31.0940 N   0  0  0  0  0  0  0  0  0  0  0  0
   -6.4770   24.8210  -30.7440 O   0  0  0  0  0  0  0  0  0  0  0  0
   -4.2330   25.0680  -30.8440 O   0  0  0  0  0  0  0  0  0  0  0  0
   -6.4730   22.4020  -32.1630 C   0  0  0  0  0  0  0  0  0  0  0  0
   -6.4110   21.1480  -32.8040 C   0  0  0  0  0  0  0  0  0  0  0  0
   -7.6110   20.4680  -33.2310 N   0  0  0  0  0  0  0  0  0  0  0  0
   -8.7530   20.2190  -32.3450 C   0  0  0  0  0  0  0  0  0  0  0  0
   -8.8830   18.7310  -31.9890 C   0  0  0  0  0  0  0  0  0  0  0  0
   -7.6190   18.1960  -31.2840 C   0  0  0  0  0  0  0  0  0  0  0  0
   -6.6060   17.6920  -32.2420 N   0  0  0  0  0  0  0  0  0  0  0  0
   -7.2340   17.0780  -33.4280 C   0  0  0  0  0  0  0  0  0  0  0  0
   -5.7370   16.7040  -31.5790 C   0  0  0  0  0  0  0  0  0  0  0  0
   -3.2897   18.3696  -33.2840 H   0  0  0  0  0  0  0  0  0  0  0  0
   -4.1584   17.8079  -34.7525 H   0  0  0  0  0  0  0  0  0  0  0  0
   -3.3327   19.4032  -34.7525 H   0  0  0  0  0  0  0  0  0  0  0  0
   -3.0007   20.7611  -32.7969 H   0  0  0  0  0  0  0  0  0  0  0  0
   -3.1399   22.9689  -31.6650 H   0  0  0  0  0  0  0  0  0  0  0  0
   -7.4523   22.8698  -31.9836 H   0  0  0  0  0  0  0  0  0  0  0  0
   -7.6720   20.1370  -34.2210 H   0  0  0  0  0  0  0  0  0  0  0  0
   -8.6178   20.7965  -31.4186 H   0  0  0  0  0  0  0  0  0  0  0  0
   -9.6685   20.5264  -32.8717 H   0  0  0  0  0  0  0  0  0  0  0  0
   -9.7461   18.5994  -31.3199 H   0  0  0  0  0  0  0  0  0  0  0  0
   -9.0167   18.1670  -32.9239 H   0  0  0  0  0  0  0  0  0  0  0  0
   -7.1726   19.0101  -30.6941 H   0  0  0  0  0  0  0  0  0  0  0  0
   -7.9233   17.3540  -30.6450 H   0  0  0  0  0  0  0  0  0  0  0  0
   -6.0000   18.4870  -32.5580 H   0  0  0  0  0  0  0  0  0  0  0  0
   -7.9860   16.3428  -33.1055 H   0  0  0  0  0  0  0  0  0  0  0  0
   -7.7199   17.8590  -34.0313 H   0  0  0  0  0  0  0  0  0  0  0  0
   -6.4642   16.5746  -34.0313 H   0  0  0  0  0  0  0  0  0  0  0  0
   -5.8290   16.8085  -30.4878 H   0  0  0  0  0  0  0  0  0  0  0  0
   -6.0410   15.6897  -31.8771 H   0  0  0  0  0  0  0  0  0  0  0  0
   -4.6922   16.8761  -31.8771 H   0  0  0  0  0  0  0  0  0  0  0  0
  1  2  1  0
  2  3  1  0
  3  4  2  0
  4  5  1  0
  5  6  2  0
  6  7  1  0
  7  8  2  0
  7  9  1  0
  6 10  1  0
 10 11  2  0
 11 12  1  0
 12 13  1  0
 13 14  1  0
 14 15  1  0
 15 16  1  0
 16 17  1  0
 16 18  1  0
 11  3  1  0
  1 19  1  0
  1 20  1  0
  1 21  1  0
  4 22  1  0
  5 23  1  0
 10 24  1  0
 12 25  1  0
 13 26  1  0
 13 27  1  0
 14 28  1  0
 14 29  1  0
 15 30  1  0
 15 31  1  0
 16 32  1  0
 17 33  1  0
 17 34  1  0
 17 35  1  0
 18 36  1  0
 18 37  1  0
 18 38  1  0
M  CHG  3   7   1   9  -1  16   1
M  END
>  <UniqueID>  (37) 
35

>  <SMILES>  (37) 
COc1ccc([N+](=O)[O-])cc1NCCC[NH+](C)C

>  <Energy>  (37) 
34.64702739457394

>  <Genealogy>  (37) 
COc1ccc([N+](=O)[O-])cc1NCCC[NH+](C)C (protonated)
COc1ccc([N+](=O)[O-])cc1NCCC[NH+](C)C (3D coordinates assigned)
COc1ccc([N+](=O)[O-])cc1NCCC[NH+](C)C (optimized conformer: 34.64702739457394 kcal/mol)

>  <smiles>  (37) 
COc1ccc([N+](=O)[O-])cc1NCCCN(C)C

>  <score_type>  (37) 
oracle

>  <origin>  (37) 
adg

>  <m_score__min__energy>  (37) 
-6.2800000000000002

>  <m_primary>  (37) 
energy

$$$$
37:0
     RDKit          3D

 41 43  0  0  0  0  0  0  0  0999 V2000
   -3.7200   21.8210  -33.7070 O   0  0  0  0  0  0  0  0  0  0  0  0
   -4.0160   20.7070  -33.1970 C   0  0  0  0  0  0  0  0  0  0  0  0
   -3.4200   19.4550  -33.7630 C   0  0  0  0  0  0  0  0  0  0  0  0
   -4.4020   18.3670  -33.7160 N   0  0  0  0  0  0  0  0  0  0  0  0
   -5.5340   18.4340  -34.4830 C   0  0  0  0  0  0  0  0  0  0  0  0
   -6.4600   17.3890  -34.4730 C   0  0  0  0  0  0  0  0  0  0  0  0
   -6.2210   16.2680  -33.6800 C   0  0  0  0  0  0  0  0  0  0  0  0
   -5.0600   16.2030  -32.9110 C   0  0  0  0  0  0  0  0  0  0  0  0
   -4.1540   17.2650  -32.9430 C   0  0  0  0  0  0  0  0  0  0  0  0
   -4.9220   20.6300  -32.0860 N   0  0  0  0  0  0  0  0  0  0  0  0
   -5.6970   21.7450  -31.6160 C   0  0  0  0  0  0  0  0  0  0  0  0
   -5.0640   22.9520  -31.2690 C   0  0  0  0  0  0  0  0  0  0  0  0
   -5.8180   24.0650  -30.8900 C   0  0  0  0  0  0  0  0  0  0  0  0
   -5.0140   25.5650  -30.4620 Cl  0  0  0  0  0  0  0  0  0  0  0  0
   -7.2110   23.9890  -30.8670 C   0  0  0  0  0  0  0  0  0  0  0  0
   -7.8530   22.8010  -31.2210 C   0  0  0  0  0  0  0  0  0  0  0  0
   -7.1070   21.6720  -31.5950 C   0  0  0  0  0  0  0  0  0  0  0  0
   -7.7850   20.4490  -31.9180 N   0  0  0  0  0  0  0  0  0  0  0  0
   -9.1410   20.4020  -32.4340 C   0  0  0  0  0  0  0  0  0  0  0  0
   -9.4410   18.9240  -32.6410 C   0  0  0  0  0  0  0  0  0  0  0  0
   -8.4170   18.1700  -31.7950 C   0  0  0  0  0  0  0  0  0  0  0  0
   -7.2600   19.1360  -31.5820 C   0  0  0  0  0  0  0  0  0  0  0  0
   -3.1227   19.6326  -34.8071 H   0  0  0  0  0  0  0  0  0  0  0  0
   -2.5393   19.1728  -33.1674 H   0  0  0  0  0  0  0  0  0  0  0  0
   -5.7155   19.3180  -35.1120 H   0  0  0  0  0  0  0  0  0  0  0  0
   -7.3711   17.4500  -35.0863 H   0  0  0  0  0  0  0  0  0  0  0  0
   -6.9442   15.4394  -33.6610 H   0  0  0  0  0  0  0  0  0  0  0  0
   -4.8592   15.3219  -32.2839 H   0  0  0  0  0  0  0  0  0  0  0  0
   -3.2338   17.2156  -32.3423 H   0  0  0  0  0  0  0  0  0  0  0  0
   -4.9860   19.7260  -31.5650 H   0  0  0  0  0  0  0  0  0  0  0  0
   -3.9664   23.0200  -31.2963 H   0  0  0  0  0  0  0  0  0  0  0  0
   -7.8041   24.8663  -30.5695 H   0  0  0  0  0  0  0  0  0  0  0  0
   -8.9517   22.7491  -31.2068 H   0  0  0  0  0  0  0  0  0  0  0  0
   -9.8440   20.8402  -31.7103 H   0  0  0  0  0  0  0  0  0  0  0  0
   -9.2451   20.9761  -33.3665 H   0  0  0  0  0  0  0  0  0  0  0  0
  -10.4621   18.6896  -32.3057 H   0  0  0  0  0  0  0  0  0  0  0  0
   -9.3762   18.6421  -33.7023 H   0  0  0  0  0  0  0  0  0  0  0  0
   -8.8570   17.8810  -30.8291 H   0  0  0  0  0  0  0  0  0  0  0  0
   -8.0855   17.2456  -32.2906 H   0  0  0  0  0  0  0  0  0  0  0  0
   -6.9266   19.1117  -30.5340 H   0  0  0  0  0  0  0  0  0  0  0  0
   -6.3893   18.8735  -32.2009 H   0  0  0  0  0  0  0  0  0  0  0  0
  1  2  2  0
  2  3  1  0
  3  4  1  0
  4  5  2  0
  5  6  1  0
  6  7  2  0
  7  8  1  0
  8  9  2  0
  2 10  1  0
 10 11  1  0
 11 12  2  0
 12 13  1  0
 13 14  1  0
 13 15  2  0
 15 16  1  0
 16 17  2  0
 17 18  1  0
 18 19  1  0
 19 20  1  0
 20 21  1  0
 21 22  1  0
  9  4  1  0
 17 11  1  0
 22 18  1  0
  3 23  1  0
  3 24  1  0
  5 25  1  0
  6 26  1  0
  7 27  1  0
  8 28  1  0
  9 29  1  0
 10 30  1  0
 12 31  1  0
 15 32  1  0
 16 33  1  0
 19 34  1  0
 19 35  1  0
 20 36  1  0
 20 37  1  0
 21 38  1  0
 21 39  1  0
 22 40  1  0
 22 41  1  0
M  CHG  1   4   1
M  END
>  <UniqueID>  (38) 
36

>  <SMILES>  (38) 
O=C(C[n+]1ccccc1)Nc1cc(Cl)ccc1N1CCCC1

>  <Energy>  (38) 
49.32563813106757

>  <Genealogy>  (38) 
O=C(C[n+]1ccccc1)Nc1cc(Cl)ccc1N1CCCC1 (3D coordinates assigned)
O=C(C[n+]1ccccc1)Nc1cc(Cl)ccc1N1CCCC1 (nonaromatic ring conformer: 49.32563813106757 kcal/mol)

>  <smiles>  (38) 
O=C(C[n+]1ccccc1)Nc1cc(Cl)ccc1N1CCCC1

>  <score_type>  (38) 
oracle

>  <origin>  (38) 
adg

>  <m_score__min__energy>  (38) 
-6.9800000000000004

>  <m_primary>  (38) 
energy

$$$$
38:0
     RDKit          3D

 28 30  0  0  1  0  0  0  0  0999 V2000
   -3.4750   25.2690  -30.1080 F   0  0  0  0  0  0  0  0  0  0  0  0
   -4.7280   24.7830  -30.3340 C   0  0  0  0  0  0  0  0  0  0  0  0
   -5.7520   25.2920  -29.5610 C   0  0  0  0  0  0  0  0  0  0  0  0
   -7.0270   24.8030  -29.7850 C   0  0  0  0  0  0  0  0  0  0  0  0
   -7.3000   23.8390  -30.7420 C   0  0  0  0  0  0  0  0  0  0  0  0
   -6.2430   23.3180  -31.5360 C   0  0  0  0  0  0  0  0  0  0  0  0
   -6.5640   22.4490  -32.5370 N   0  0  0  0  0  0  0  0  0  0  0  0
   -6.3130   21.2770  -32.7720 C   0  0  0  0  0  0  0  0  0  0  0  0
   -5.1860   20.9600  -33.4490 N   0  0  0  0  0  0  0  0  0  0  0  0
   -4.8140   19.7180  -33.7600 C   0  0  0  0  0  0  0  0  0  0  0  0
   -5.6050   18.7120  -33.3780 N   0  0  0  0  0  0  0  0  0  0  0  0
   -6.7340   18.9850  -32.7030 C   0  0  0  0  0  0  0  0  0  0  0  0
   -7.5120   17.9150  -32.3340 C   0  0  0  0  0  0  0  0  0  0  0  0
   -8.6640   18.1830  -31.6450 C   0  0  0  0  0  0  0  0  0  0  0  0
   -9.1090   19.4220  -31.2930 C   0  0  0  0  0  0  0  0  0  0  0  0
   -8.2930   20.5020  -31.6830 C   0  0  0  0  0  0  0  0  0  0  0  0
   -7.1390   20.2670  -32.3710 C   0  0  0  0  0  0  0  0  0  0  0  0
   -4.9310   23.8210  -31.3060 C   0  0  0  0  0  0  0  0  0  0  0  0
   -5.5616   26.0582  -28.7951 H   0  0  0  0  0  0  0  0  0  0  0  0
   -7.8570   25.1953  -29.1790 H   0  0  0  0  0  0  0  0  0  0  0  0
   -8.3293   23.4790  -30.8863 H   0  0  0  0  0  0  0  0  0  0  0  0
   -4.5300   21.7290  -33.7720 H   0  0  0  0  0  0  0  0  0  0  0  0
   -3.8834   19.5276  -34.3147 H   0  0  0  0  0  0  0  0  0  0  0  0
   -7.2209   16.8837  -32.5823 H   0  0  0  0  0  0  0  0  0  0  0  0
   -9.2843   17.3238  -31.3499 H   0  0  0  0  0  0  0  0  0  0  0  0
  -10.0475   19.5697  -30.7385 H   0  0  0  0  0  0  0  0  0  0  0  0
   -8.5858   21.5325  -31.4333 H   0  0  0  0  0  0  0  0  0  0  0  0
   -4.0834   23.4462  -31.8985 H   0  0  0  0  0  0  0  0  0  0  0  0
  1  2  1  0
  2  3  2  0
  3  4  1  0
  4  5  2  0
  5  6  1  0
  6  7  1  0
  7  8  2  0
  8  9  1  0
  9 10  1  0
 10 11  2  0
 11 12  1  0
 12 13  2  0
 13 14  1  0
 14 15  2  0
 15 16  1  0
 16 17  2  0
  6 18  2  0
 18  2  1  0
 17  8  1  0
 17 12  1  0
  3 19  1  0
  4 20  1  0
  5 21  1  0
  9 22  1  0
 10 23  1  0
 13 24  1  0
 14 25  1  0
 15 26  1  0
 16 27  1  0
 18 28  1  0
M  END
>  <smiles>  (39) 
Fc1cccc(N=c2[nH]cnc3ccccc23)c1

>  <score_type>  (39) 
oracle

>  <origin>  (39) 
adg

>  <m_score__min__energy>  (39) 
-7.1799999999999997

>  <m_primary>  (39) 
energy

$$$$
39:0
     RDKit          3D

 41 43  0  0  0  0  0  0  0  0999 V2000
   -0.8850   26.7610  -27.8500 C   0  0  0  0  0  0  0  0  0  0  0  0
   -1.3210   25.7970  -28.8020 O   0  0  0  0  0  0  0  0  0  0  0  0
   -1.3080   24.4080  -28.5950 C   0  0  0  0  0  0  0  0  0  0  0  0
   -0.1250   23.6510  -28.7160 C   0  0  0  0  0  0  0  0  0  0  0  0
   -0.1450   22.2700  -28.5100 C   0  0  0  0  0  0  0  0  0  0  0  0
   -1.3400   21.6280  -28.1850 C   0  0  0  0  0  0  0  0  0  0  0  0
   -2.5190   22.3650  -28.0610 C   0  0  0  0  0  0  0  0  0  0  0  0
   -2.5150   23.7560  -28.2570 C   0  0  0  0  0  0  0  0  0  0  0  0
   -3.8050   24.5290  -28.1490 C   0  0  0  0  0  0  0  0  0  0  0  0
   -4.7550   24.1170  -29.2390 C   0  0  0  0  0  0  0  0  0  0  0  0
   -5.7170   23.1940  -28.9710 N   0  0  0  0  0  0  0  0  0  0  0  0
   -6.6220   22.8110  -29.9090 C   0  0  0  0  0  0  0  0  0  0  0  0
   -7.4890   21.9450  -29.6190 O   0  0  0  0  0  0  0  0  0  0  0  0
   -6.5740   23.3890  -31.1890 C   0  0  0  0  0  0  0  0  0  0  0  0
   -7.5210   22.9810  -32.2830 C   0  0  0  0  0  0  0  0  0  0  0  0
   -7.5510   21.4810  -32.4130 C   0  0  0  0  0  0  0  0  0  0  0  0
   -6.4040   20.7790  -32.8180 C   0  0  0  0  0  0  0  0  0  0  0  0
   -6.4450   19.3900  -32.9690 C   0  0  0  0  0  0  0  0  0  0  0  0
   -7.6350   18.6900  -32.7230 C   0  0  0  0  0  0  0  0  0  0  0  0
   -7.6870   17.3060  -32.8700 O   0  0  0  0  0  0  0  0  0  0  0  0
   -8.7810   19.3870  -32.3280 C   0  0  0  0  0  0  0  0  0  0  0  0
   -8.7420   20.7760  -32.1770 C   0  0  0  0  0  0  0  0  0  0  0  0
   -5.6100   24.3100  -31.4570 N   0  0  0  0  0  0  0  0  0  0  0  0
   -4.7050   24.6930  -30.5180 C   0  0  0  0  0  0  0  0  0  0  0  0
   -3.7470   25.6460  -30.8400 O   0  0  0  0  0  0  0  0  0  0  0  0
   -1.0585   26.3773  -26.8338 H   0  0  0  0  0  0  0  0  0  0  0  0
    0.1886   26.9553  -27.9902 H   0  0  0  0  0  0  0  0  0  0  0  0
   -1.4481   27.6955  -27.9902 H   0  0  0  0  0  0  0  0  0  0  0  0
    0.8199   24.1514  -28.9743 H   0  0  0  0  0  0  0  0  0  0  0  0
    0.7833   21.6874  -28.6042 H   0  0  0  0  0  0  0  0  0  0  0  0
   -1.3533   20.5396  -28.0262 H   0  0  0  0  0  0  0  0  0  0  0  0
   -3.4587   21.8524  -27.8078 H   0  0  0  0  0  0  0  0  0  0  0  0
   -4.2667   24.3289  -27.1709 H   0  0  0  0  0  0  0  0  0  0  0  0
   -3.5877   25.6024  -28.2516 H   0  0  0  0  0  0  0  0  0  0  0  0
   -8.5310   23.3451  -32.0437 H   0  0  0  0  0  0  0  0  0  0  0  0
   -7.1799   23.4167  -33.2337 H   0  0  0  0  0  0  0  0  0  0  0  0
   -5.4697   21.3244  -33.0172 H   0  0  0  0  0  0  0  0  0  0  0  0
   -5.5421   18.8449  -33.2814 H   0  0  0  0  0  0  0  0  0  0  0  0
   -6.9320   16.7910  -33.3060 H   0  0  0  0  0  0  0  0  0  0  0  0
   -9.7161   18.8405  -32.1355 H   0  0  0  0  0  0  0  0  0  0  0  0
   -9.6485   21.3192  -31.8719 H   0  0  0  0  0  0  0  0  0  0  0  0
  1  2  1  0
  2  3  1  0
  3  4  2  0
  4  5  1  0
  5  6  2  0
  6  7  1  0
  7  8  2  0
  8  9  1  0
  9 10  1  0
 10 11  1  0
 11 12  1  0
 12 13  2  0
 12 14  1  0
 14 15  1  0
 15 16  1  0
 16 17  2  0
 17 18  1  0
 18 19  2  0
 19 20  1  0
 19 21  1  0
 21 22  2  0
 14 23  2  0
 23 24  1  0
 24 25  1  0
  8  3  1  0
 24 10  2  0
 22 16  1  0
  1 26  1  0
  1 27  1  0
  1 28  1  0
  4 29  1  0
  5 30  1  0
  6 31  1  0
  7 32  1  0
  9 33  1  0
  9 34  1  0
 15 35  1  0
 15 36  1  0
 17 37  1  0
 18 38  1  0
 20 39  1  0
 21 40  1  0
 22 41  1  0
M  CHG  2  11  -1  25  -1
M  END
>  <UniqueID>  (40) 
37

>  <SMILES>  (40) 
COc1ccccc1Cc1[n-]c(=O)c(Cc2ccc(O)cc2)nc1[O-]

>  <Energy>  (40) 
43.14641626998552

>  <Genealogy>  (40) 
COc1ccccc1Cc1[n-]c(=O)c(Cc2ccc(O)cc2)nc1[O-] (protonated)
COc1ccccc1Cc1[n-]c(=O)c(Cc2ccc(O)cc2)nc1[O-] (3D coordinates assigned)
COc1ccccc1Cc1[n-]c(=O)c(Cc2ccc(O)cc2)nc1[O-] (optimized conformer: 43.14641626998552 kcal/mol)

>  <smiles>  (40) 
COc1ccccc1Cc1[nH]c(=O)c(Cc2ccc(O)cc2)nc1O

>  <score_type>  (40) 
oracle

>  <origin>  (40) 
adg

>  <m_score__min__energy>  (40) 
-11.35

>  <m_primary>  (40) 
energy

$$$$
40:0
     RDKit          3D

 18 19  0  0  0  0  0  0  0  0999 V2000
   -3.1440   20.8100  -33.4310 C   0  0  0  0  0  0  0  0  0  0  0  0
   -3.7880   21.1520  -32.4710 C   0  0  0  0  0  0  0  0  0  0  0  0
   -4.5720   21.5660  -31.3030 C   0  0  0  0  0  0  0  0  0  0  0  0
   -4.1790   22.9180  -30.8920 N   0  0  0  0  0  0  0  0  0  0  0  0
   -4.8940   24.0740  -31.0040 C   0  0  0  0  0  0  0  0  0  0  0  0
   -6.3760   24.1740  -31.6970 S   0  0  0  0  0  0  0  0  0  0  0  0
   -4.2770   25.1580  -30.4650 N   0  0  0  0  0  0  0  0  0  0  0  0
   -3.1350   24.6310  -29.9920 C   0  0  0  0  0  0  0  0  0  0  0  0
   -2.1580   25.2970  -29.3300 N   0  0  0  0  0  0  0  0  0  0  0  0
   -1.0720   24.5910  -28.8930 C   0  0  0  0  0  0  0  0  0  0  0  0
   -0.1480   25.1830  -28.2780 O   0  0  0  0  0  0  0  0  0  0  0  0
   -0.9860   23.2410  -29.1160 N   0  0  0  0  0  0  0  0  0  0  0  0
   -1.9710   22.5660  -29.7800 C   0  0  0  0  0  0  0  0  0  0  0  0
   -1.8750   21.3250  -29.9640 O   0  0  0  0  0  0  0  0  0  0  0  0
   -3.0680   23.2980  -30.2330 C   0  0  0  0  0  0  0  0  0  0  0  0
   -2.5564   20.4979  -34.3070 H   0  0  0  0  0  0  0  0  0  0  0  0
   -5.6414   21.5594  -31.5605 H   0  0  0  0  0  0  0  0  0  0  0  0
   -4.3848   20.8668  -30.4747 H   0  0  0  0  0  0  0  0  0  0  0  0
  1  2  3  0
  2  3  1  0
  3  4  1  0
  4  5  1  0
  5  6  2  0
  5  7  1  0
  7  8  1  0
  8  9  1  0
  9 10  1  0
 10 11  2  0
 10 12  1  0
 12 13  1  0
 13 14  2  0
 13 15  1  0
 15  4  1  0
 15  8  2  0
  1 16  1  0
  3 17  1  0
  3 18  1  0
M  CHG  3   7  -1   9  -1  12  -1
M  END
>  <UniqueID>  (41) 
38

>  <SMILES>  (41) 
C#CCn1c(=S)[n-]c2[n-]c(=O)[n-]c(=O)c21

>  <Energy>  (41) 
59.126844080407295

>  <Genealogy>  (41) 
C#CCn1c(=S)[n-]c2[n-]c(=O)[n-]c(=O)c21 (protonated)
C#CCn1c(=S)[n-]c2[n-]c(=O)[n-]c(=O)c21 (3D coordinates assigned)
C#CCn1c(=S)[n-]c2[n-]c(=O)[n-]c(=O)c21 (optimized conformer: 59.126844080407295 kcal/mol)

>  <smiles>  (41) 
C#CCn1c(=S)[nH]c2[nH]c(=O)[nH]c(=O)c21

>  <score_type>  (41) 
oracle

>  <origin>  (41) 
adg

>  <m_score__min__energy>  (41) 
-8.9600000000000009

>  <m_primary>  (41) 
energy

$$$$
41:0
     RDKit          3D

 35 36  0  0  0  0  0  0  0  0999 V2000
   -6.5300   21.3830  -32.2700 C   0  0  0  0  0  0  0  0  0  0  0  0
   -6.2800   22.6540  -31.5000 C   0  0  0  0  0  0  0  0  0  0  0  0
   -7.3760   23.3350  -30.9440 C   0  0  0  0  0  0  0  0  0  0  0  0
   -7.1880   24.5210  -30.2360 C   0  0  0  0  0  0  0  0  0  0  0  0
   -5.9080   25.0490  -30.0840 C   0  0  0  0  0  0  0  0  0  0  0  0
   -4.7980   24.3900  -30.6300 C   0  0  0  0  0  0  0  0  0  0  0  0
   -3.4900   24.9470  -30.4500 N   0  0  0  0  0  0  0  0  0  0  0  0
   -2.6480   24.6920  -29.3190 C   0  0  0  0  0  0  0  0  0  0  0  0
   -1.9230   25.6210  -28.8750 O   0  0  0  0  0  0  0  0  0  0  0  0
   -2.6960   23.3840  -28.5870 C   0  0  0  0  0  0  0  0  0  0  0  0
   -1.2180   22.4070  -29.0140 S   0  0  0  0  0  0  0  0  0  0  0  0
   -0.1530   23.2900  -27.8730 C   0  0  0  0  0  0  0  0  0  0  0  0
    0.6990   24.2590  -28.2670 N   0  0  0  0  0  0  0  0  0  0  0  0
    1.3120   24.6400  -27.1270 C   0  0  0  0  0  0  0  0  0  0  0  0
    0.8270   23.9010  -26.0700 C   0  0  0  0  0  0  0  0  0  0  0  0
   -0.1090   23.0640  -26.5440 N   0  0  0  0  0  0  0  0  0  0  0  0
   -0.8160   22.0360  -25.7870 C   0  0  0  0  0  0  0  0  0  0  0  0
   -4.9690   23.1600  -31.3070 C   0  0  0  0  0  0  0  0  0  0  0  0
   -3.7750   22.4530  -31.9030 C   0  0  0  0  0  0  0  0  0  0  0  0
   -6.6931   20.5538  -31.5659 H   0  0  0  0  0  0  0  0  0  0  0  0
   -7.4210   21.5071  -32.9031 H   0  0  0  0  0  0  0  0  0  0  0  0
   -5.6584   21.1604  -32.9031 H   0  0  0  0  0  0  0  0  0  0  0  0
   -8.3907   22.9290  -31.0684 H   0  0  0  0  0  0  0  0  0  0  0  0
   -8.0521   25.0409  -29.7965 H   0  0  0  0  0  0  0  0  0  0  0  0
   -5.7673   25.9898  -29.5316 H   0  0  0  0  0  0  0  0  0  0  0  0
   -2.7146   23.5691  -27.5028 H   0  0  0  0  0  0  0  0  0  0  0  0
   -3.6019   22.8309  -28.8756 H   0  0  0  0  0  0  0  0  0  0  0  0
    2.0821   25.4219  -27.0527 H   0  0  0  0  0  0  0  0  0  0  0  0
    1.1502   23.9827  -25.0217 H   0  0  0  0  0  0  0  0  0  0  0  0
   -0.6888   22.2210  -24.7102 H   0  0  0  0  0  0  0  0  0  0  0  0
   -1.8861   22.0650  -26.0401 H   0  0  0  0  0  0  0  0  0  0  0  0
   -0.4060   21.0471  -26.0401 H   0  0  0  0  0  0  0  0  0  0  0  0
   -3.1329   22.0728  -31.0948 H   0  0  0  0  0  0  0  0  0  0  0  0
   -4.1188   21.6128  -32.5242 H   0  0  0  0  0  0  0  0  0  0  0  0
   -3.2036   23.1584  -32.5242 H   0  0  0  0  0  0  0  0  0  0  0  0
  1  2  1  0
  2  3  2  0
  3  4  1  0
  4  5  2  0
  5  6  1  0
  6  7  1  0
  7  8  1  0
  8  9  2  0
  8 10  1  0
 10 11  1  0
 11 12  1  0
 12 13  2  0
 13 14  1  0
 14 15  2  0
 15 16  1  0
 16 17  1  0
  6 18  2  0
 18 19  1  0
 18  2  1  0
 16 12  1  0
  1 20  1  0
  1 21  1  0
  1 22  1  0
  3 23  1  0
  4 24  1  0
  5 25  1  0
 10 26  1  0
 10 27  1  0
 14 28  1  0
 15 29  1  0
 17 30  1  0
 17 31  1  0
 17 32  1  0
 19 33  1  0
 19 34  1  0
 19 35  1  0
M  CHG  1   7  -1
M  END
>  <UniqueID>  (42) 
39

>  <SMILES>  (42) 
Cc1cccc([N-]C(=O)CSc2nccn2C)c1C

>  <Energy>  (42) 
63.544134476890655

>  <Genealogy>  (42) 
Cc1cccc([N-]C(=O)CSc2nccn2C)c1C (protonated)
Cc1cccc([N-]C(=O)CSc2nccn2C)c1C (3D coordinates assigned)
Cc1cccc([N-]C(=O)CSc2nccn2C)c1C (optimized conformer: 63.544134476890655 kcal/mol)

>  <smiles>  (42) 
Cc1cccc(NC(=O)CSc2nccn2C)c1C

>  <score_type>  (42) 
oracle

>  <origin>  (42) 
adg

>  <m_score__min__energy>  (42) 
-8.3599999999999994

>  <m_primary>  (42) 
energy

$$$$
42:0
     RDKit          3D

 34 36  0  0  0  0  0  0  0  0999 V2000
   -1.5790   23.1430  -30.0920 S   0  0  0  0  0  0  0  0  0  0  0  0
   -3.1290   23.6220  -30.3070 C   0  0  0  0  0  0  0  0  0  0  0  0
   -3.4870   24.9080  -30.4750 N   0  0  0  0  0  0  0  0  0  0  0  0
   -4.7930   24.9170  -30.7080 N   0  0  0  0  0  0  0  0  0  0  0  0
   -5.2150   23.6370  -30.6700 C   0  0  0  0  0  0  0  0  0  0  0  0
   -6.6020   23.2360  -30.9720 C   0  0  0  0  0  0  0  0  0  0  0  0
   -7.2330   22.2620  -30.1810 C   0  0  0  0  0  0  0  0  0  0  0  0
   -8.5460   21.8720  -30.4600 C   0  0  0  0  0  0  0  0  0  0  0  0
   -9.2320   22.4410  -31.5360 C   0  0  0  0  0  0  0  0  0  0  0  0
   -8.6020   23.3930  -32.3420 C   0  0  0  0  0  0  0  0  0  0  0  0
   -7.2890   23.7860  -32.0670 C   0  0  0  0  0  0  0  0  0  0  0  0
   -4.1890   22.7940  -30.4100 N   0  0  0  0  0  0  0  0  0  0  0  0
   -4.1650   21.3870  -30.5530 N   0  0  0  0  0  0  0  0  0  0  0  0
   -4.2910   21.0380  -31.9750 C   0  0  0  0  0  0  0  0  0  0  0  0
   -5.4860   20.1490  -32.1940 C   0  0  0  0  0  0  0  0  0  0  0  0
   -6.5610   20.5930  -32.9820 C   0  0  0  0  0  0  0  0  0  0  0  0
   -7.6880   19.7830  -33.1540 C   0  0  0  0  0  0  0  0  0  0  0  0
   -7.7530   18.5320  -32.5360 C   0  0  0  0  0  0  0  0  0  0  0  0
   -6.6930   18.0910  -31.7370 C   0  0  0  0  0  0  0  0  0  0  0  0
   -5.5650   18.8990  -31.5610 C   0  0  0  0  0  0  0  0  0  0  0  0
   -6.6923   21.8046  -29.3393 H   0  0  0  0  0  0  0  0  0  0  0  0
   -9.0398   21.1162  -29.8316 H   0  0  0  0  0  0  0  0  0  0  0  0
  -10.2683   22.1395  -31.7487 H   0  0  0  0  0  0  0  0  0  0  0  0
   -9.1401   23.8338  -33.1941 H   0  0  0  0  0  0  0  0  0  0  0  0
   -6.7924   24.5279  -32.7097 H   0  0  0  0  0  0  0  0  0  0  0  0
   -3.2660   21.0140  -30.1690 H   0  0  0  0  0  0  0  0  0  0  0  0
   -4.9500   20.9670  -30.0080 H   0  0  0  0  0  0  0  0  0  0  0  0
   -4.4114   21.9587  -32.5647 H   0  0  0  0  0  0  0  0  0  0  0  0
   -3.3846   20.5014  -32.2921 H   0  0  0  0  0  0  0  0  0  0  0  0
   -6.5161   21.5803  -33.4649 H   0  0  0  0  0  0  0  0  0  0  0  0
   -8.5248   20.1317  -33.7771 H   0  0  0  0  0  0  0  0  0  0  0  0
   -8.6376   17.8938  -32.6777 H   0  0  0  0  0  0  0  0  0  0  0  0
   -6.7466   17.1078  -31.2466 H   0  0  0  0  0  0  0  0  0  0  0  0
   -4.7371   18.5536  -30.9244 H   0  0  0  0  0  0  0  0  0  0  0  0
  1  2  2  0
  2  3  1  0
  3  4  1  0
  4  5  2  0
  5  6  1  0
  6  7  2  0
  7  8  1  0
  8  9  2  0
  9 10  1  0
 10 11  2  0
  5 12  1  0
 12 13  1  0
 13 14  1  0
 14 15  1  0
 15 16  2  0
 16 17  1  0
 17 18  2  0
 18 19  1  0
 19 20  2  0
 12  2  1  0
 20 15  1  0
 11  6  1  0
  7 21  1  0
  8 22  1  0
  9 23  1  0
 10 24  1  0
 11 25  1  0
 13 26  1  0
 13 27  1  0
 14 28  1  0
 14 29  1  0
 16 30  1  0
 17 31  1  0
 18 32  1  0
 19 33  1  0
 20 34  1  0
M  CHG  2   3  -1  13   1
M  END
>  <UniqueID>  (43) 
40

>  <SMILES>  (43) 
S=c1[n-]nc(-c2ccccc2)n1[NH2+]Cc1ccccc1

>  <Energy>  (43) 
78.38991480078369

>  <Genealogy>  (43) 
S=c1[n-]nc(-c2ccccc2)n1[NH2+]Cc1ccccc1 (protonated)
S=c1[n-]nc(-c2ccccc2)n1[NH2+]Cc1ccccc1 (3D coordinates assigned)
S=c1[n-]nc(-c2ccccc2)n1[NH2+]Cc1ccccc1 (optimized conformer: 78.38991480078369 kcal/mol)

>  <smiles>  (43) 
S=c1[nH]nc(-c2ccccc2)n1NCc1ccccc1

>  <score_type>  (43) 
oracle

>  <origin>  (43) 
adg

>  <m_score__min__energy>  (43) 
-8.1899999999999995

>  <m_primary>  (43) 
energy

$$$$
43:0
     RDKit          3D

 48 52  0  0  0  0  0  0  0  0999 V2000
   -6.4360   19.0470  -33.4570 C   0  0  0  0  0  0  0  0  0  0  0  0
   -7.3620   18.1650  -32.8650 C   0  0  0  0  0  0  0  0  0  0  0  0
   -8.3160   18.6650  -31.9660 C   0  0  0  0  0  0  0  0  0  0  0  0
   -8.3130   19.9960  -31.7000 N   0  0  0  0  0  0  0  0  0  0  0  0
   -9.1210   20.6310  -30.8660 N   0  0  0  0  0  0  0  0  0  0  0  0
   -8.7630   21.9360  -30.8890 C   0  0  0  0  0  0  0  0  0  0  0  0
   -7.7020   22.1180  -31.7700 C   0  0  0  0  0  0  0  0  0  0  0  0
   -6.9500   23.3880  -32.0380 C   0  0  0  0  0  0  0  0  0  0  0  0
   -5.4760   23.1240  -32.3620 C   0  0  0  0  0  0  0  0  0  0  0  0
   -4.6160   23.5850  -31.2470 N   0  0  0  0  0  0  0  0  0  0  0  0
   -3.4190   22.7340  -31.0970 C   0  0  0  0  0  0  0  0  0  0  0  0
   -2.6080   23.0420  -29.8140 C   0  0  0  0  0  0  0  0  0  0  0  0
   -3.1180   24.2000  -29.0590 N   0  0  0  0  0  0  0  0  0  0  0  0
   -2.2190   24.9220  -28.1930 C   0  0  0  0  0  0  0  0  0  0  0  0
   -1.0120   25.3870  -28.5890 N   0  0  0  0  0  0  0  0  0  0  0  0
   -0.3410   26.0080  -27.6230 N   0  0  0  0  0  0  0  0  0  0  0  0
   -1.0080   26.0410  -26.4480 C   0  0  0  0  0  0  0  0  0  0  0  0
   -0.4890   26.6590  -25.2640 N   0  0  0  0  0  0  0  0  0  0  0  0
    0.3780   27.6900  -25.2090 C   0  0  0  0  0  0  0  0  0  0  0  0
    0.6400   28.0050  -23.8920 C   0  0  0  0  0  0  0  0  0  0  0  0
   -0.0910   27.1230  -23.1200 C   0  0  0  0  0  0  0  0  0  0  0  0
   -0.7780   26.3080  -23.9950 C   0  0  0  0  0  0  0  0  0  0  0  0
   -2.5070   25.2760  -26.5660 S   0  0  0  0  0  0  0  0  0  0  0  0
   -4.5550   24.5100  -29.0060 C   0  0  0  0  0  0  0  0  0  0  0  0
   -5.3490   23.6440  -29.9740 C   0  0  0  0  0  0  0  0  0  0  0  0
   -7.4430   20.8550  -32.2570 C   0  0  0  0  0  0  0  0  0  0  0  0
   -6.4690   20.4160  -33.1530 C   0  0  0  0  0  0  0  0  0  0  0  0
   -5.6840   18.6602  -34.1605 H   0  0  0  0  0  0  0  0  0  0  0  0
   -7.3370   17.0920  -33.1061 H   0  0  0  0  0  0  0  0  0  0  0  0
   -9.0473   17.9958  -31.4892 H   0  0  0  0  0  0  0  0  0  0  0  0
   -9.2395   22.7331  -30.2995 H   0  0  0  0  0  0  0  0  0  0  0  0
   -7.4148   23.9026  -32.8919 H   0  0  0  0  0  0  0  0  0  0  0  0
   -6.9929   24.0068  -31.1295 H   0  0  0  0  0  0  0  0  0  0  0  0
   -5.3253   22.0452  -32.5149 H   0  0  0  0  0  0  0  0  0  0  0  0
   -5.2053   23.6744  -33.2751 H   0  0  0  0  0  0  0  0  0  0  0  0
   -3.7397   21.6823  -31.0638 H   0  0  0  0  0  0  0  0  0  0  0  0
   -2.7626   22.9390  -31.9556 H   0  0  0  0  0  0  0  0  0  0  0  0
   -2.6420   22.1580  -29.1602 H   0  0  0  0  0  0  0  0  0  0  0  0
   -1.5837   23.2883  -30.1305 H   0  0  0  0  0  0  0  0  0  0  0  0
    0.8104   28.2019  -26.0814 H   0  0  0  0  0  0  0  0  0  0  0  0
    1.3026   28.8037  -23.5271 H   0  0  0  0  0  0  0  0  0  0  0  0
   -0.1196   27.0793  -22.0212 H   0  0  0  0  0  0  0  0  0  0  0  0
   -1.4585   25.4950  -23.7019 H   0  0  0  0  0  0  0  0  0  0  0  0
   -4.9215   24.3321  -27.9842 H   0  0  0  0  0  0  0  0  0  0  0  0
   -4.6916   25.5630  -29.2935 H   0  0  0  0  0  0  0  0  0  0  0  0
   -5.4601   22.6304  -29.5613 H   0  0  0  0  0  0  0  0  0  0  0  0
   -6.3500   24.0717  -30.1321 H   0  0  0  0  0  0  0  0  0  0  0  0
   -5.7526   21.1177  -33.6050 H   0  0  0  0  0  0  0  0  0  0  0  0
  1  2  1  0
  2  3  2  0
  3  4  1  0
  4  5  1  0
  5  6  2  0
  6  7  1  0
  7  8  1  0
  8  9  1  0
  9 10  1  0
 10 11  1  0
 11 12  1  0
 12 13  1  0
 13 14  1  0
 14 15  2  0
 15 16  1  0
 16 17  2  0
 17 18  1  0
 18 19  1  0
 19 20  2  0
 20 21  1  0
 21 22  2  0
 17 23  1  0
 13 24  1  0
 24 25  1  0
  7 26  2  0
 26 27  1  0
 27  1  2  0
 26  4  1  0
 25 10  1  0
 23 14  1  0
 22 18  1  0
  1 28  1  0
  2 29  1  0
  3 30  1  0
  6 31  1  0
  8 32  1  0
  8 33  1  0
  9 34  1  0
  9 35  1  0
 11 36  1  0
 11 37  1  0
 12 38  1  0
 12 39  1  0
 19 40  1  0
 20 41  1  0
 21 42  1  0
 22 43  1  0
 24 44  1  0
 24 45  1  0
 25 46  1  0
 25 47  1  0
 27 48  1  0
M  END
>  <UniqueID>  (44) 
41

>  <SMILES>  (44) 
c1ccn2ncc(CCN3CCN(c4nnc(-n5cccc5)s4)CC3)c2c1

>  <Energy>  (44) 
152.33021618554665

>  <Genealogy>  (44) 
c1ccn2ncc(CCN3CCN(c4nnc(-n5cccc5)s4)CC3)c2c1 (3D coordinates assigned)
c1ccn2ncc(CCN3CCN(c4nnc(-n5cccc5)s4)CC3)c2c1 (nonaromatic ring conformer: 152.33021618554665 kcal/mol)

>  <smiles>  (44) 
c1ccn2ncc(CCN3CCN(c4nnc(-n5cccc5)s4)CC3)c2c1

>  <score_type>  (44) 
oracle

>  <origin>  (44) 
adg

>  <m_score__min__energy>  (44) 
-9.5299999999999994

>  <m_primary>  (44) 
energy

$$$$
44:0
     RDKit          3D

 30 32  0  0  1  0  0  0  0  0999 V2000
   -6.0970   17.8340  -34.2990 C   0  0  0  0  0  0  0  0  0  0  0  0
   -6.5000   19.0240  -33.5300 C   0  0  0  0  0  0  0  0  0  0  0  0
   -7.5770   19.4120  -32.9940 N   0  0  0  0  0  0  0  0  0  0  0  0
   -7.7160   20.5340  -32.3410 C   0  0  0  0  0  0  0  0  0  0  0  0
   -9.0330   20.9560  -31.7150 C   0  0  0  0  0  0  0  0  0  0  0  0
   -6.6100   21.3280  -32.2430 C   0  0  0  0  0  0  0  0  0  0  0  0
   -6.3770   22.6180  -31.6100 C   0  0  0  0  0  0  0  0  0  0  0  0
   -7.4120   23.4510  -31.2350 C   0  0  0  0  0  0  0  0  0  0  0  0
   -6.5430   24.9220  -30.4950 S   0  0  0  0  0  0  0  0  0  0  0  0
   -4.8760   24.0900  -30.8520 C   0  0  0  0  0  0  0  0  0  0  0  0
   -3.6710   24.8920  -30.4280 N   0  0  0  0  0  0  0  0  0  0  0  0
   -3.0580   24.5490  -29.3550 C   0  0  0  0  0  0  0  0  0  0  0  0
   -3.4640   23.4770  -28.6110 C   0  0  0  0  0  0  0  0  0  0  0  0
   -2.7690   23.1500  -27.4610 C   0  0  0  0  0  0  0  0  0  0  0  0
   -1.7050   23.8850  -27.0890 N   0  0  0  0  0  0  0  0  0  0  0  0
   -1.3280   24.9350  -27.8400 C   0  0  0  0  0  0  0  0  0  0  0  0
   -1.9900   25.2780  -28.9700 N   0  0  0  0  0  0  0  0  0  0  0  0
   -5.1860   23.1070  -31.3390 N   0  0  0  0  0  0  0  0  0  0  0  0
   -5.3510   20.4050  -33.1250 S   0  0  0  0  0  0  0  0  0  0  0  0
   -5.8230   17.0250  -33.6059 H   0  0  0  0  0  0  0  0  0  0  0  0
   -6.9342   17.5061  -34.9327 H   0  0  0  0  0  0  0  0  0  0  0  0
   -5.2328   18.0823  -34.9327 H   0  0  0  0  0  0  0  0  0  0  0  0
   -8.9438   20.9274  -30.6190 H   0  0  0  0  0  0  0  0  0  0  0  0
   -9.2807   21.9785  -32.0362 H   0  0  0  0  0  0  0  0  0  0  0  0
   -9.8288   20.2679  -32.0362 H   0  0  0  0  0  0  0  0  0  0  0  0
   -8.4936   23.2850  -31.3469 H   0  0  0  0  0  0  0  0  0  0  0  0
   -4.3340   22.8808  -28.9234 H   0  0  0  0  0  0  0  0  0  0  0  0
   -3.0854   22.2907  -26.8515 H   0  0  0  0  0  0  0  0  0  0  0  0
   -1.1650   23.6570  -26.2240 H   0  0  0  0  0  0  0  0  0  0  0  0
   -0.4581   25.5314  -27.5276 H   0  0  0  0  0  0  0  0  0  0  0  0
  1  2  1  0
  2  3  2  0
  3  4  1  0
  4  5  1  0
  4  6  2  0
  6  7  1  0
  7  8  2  0
  8  9  1  0
  9 10  1  0
 10 11  1  0
 11 12  2  0
 12 13  1  0
 13 14  2  0
 14 15  1  0
 15 16  1  0
 16 17  2  0
 10 18  2  0
  6 19  1  0
 19  2  1  0
 18  7  1  0
 17 12  1  0
  1 20  1  0
  1 21  1  0
  1 22  1  0
  5 23  1  0
  5 24  1  0
  5 25  1  0
  8 26  1  0
 13 27  1  0
 14 28  1  0
 15 29  1  0
 16 30  1  0
M  END
>  <smiles>  (45) 
Cc1nc(C)c(-c2csc(N=c3cc[nH]cn3)n2)s1

>  <score_type>  (45) 
oracle

>  <origin>  (45) 
adg

>  <m_score__min__energy>  (45) 
-7.4699999999999998

>  <m_primary>  (45) 
energy

$$$$
45:0
     RDKit          3D

 42 43  0  0  0  0  0  0  0  0999 V2000
   -2.7680   21.2320  -33.4100 C   0  0  0  0  0  0  0  0  0  0  0  0
   -3.4910   20.3520  -32.3910 C   0  0  0  0  0  0  0  0  0  0  0  0
   -4.2090   21.1540  -31.3290 C   0  0  0  0  0  0  0  0  0  0  0  0
   -3.8220   21.0720  -30.1310 O   0  0  0  0  0  0  0  0  0  0  0  0
   -5.3650   21.9660  -31.6450 N   0  0  0  0  0  0  0  0  0  0  0  0
   -5.2600   23.4050  -31.9310 C   0  0  0  0  0  0  0  0  0  0  0  0
   -4.7330   24.1460  -30.7360 C   0  0  0  0  0  0  0  0  0  0  0  0
   -4.3470   25.3400  -30.8640 O   0  0  0  0  0  0  0  0  0  0  0  0
   -4.7140   23.5200  -29.4460 N   0  0  0  0  0  0  0  0  0  0  0  0
   -4.1090   24.1550  -28.2790 C   0  0  0  0  0  0  0  0  0  0  0  0
   -2.6260   23.9630  -28.2980 C   0  0  0  0  0  0  0  0  0  0  0  0
   -1.9590   22.7590  -28.0880 C   0  0  0  0  0  0  0  0  0  0  0  0
   -0.5670   22.8800  -28.1800 C   0  0  0  0  0  0  0  0  0  0  0  0
   -0.1380   24.1740  -28.4610 C   0  0  0  0  0  0  0  0  0  0  0  0
   -1.4900   25.1710  -28.5930 S   0  0  0  0  0  0  0  0  0  0  0  0
   -6.6410   21.3260  -31.8280 C   0  0  0  0  0  0  0  0  0  0  0  0
   -6.7930   20.3870  -32.8610 C   0  0  0  0  0  0  0  0  0  0  0  0
   -8.0290   19.7750  -33.0840 C   0  0  0  0  0  0  0  0  0  0  0  0
   -9.1230   20.0930  -32.2760 C   0  0  0  0  0  0  0  0  0  0  0  0
   -8.9860   21.0240  -31.2450 C   0  0  0  0  0  0  0  0  0  0  0  0
   -7.7440   21.6370  -30.9980 C   0  0  0  0  0  0  0  0  0  0  0  0
   -7.6420   22.6700  -29.9120 C   0  0  0  0  0  0  0  0  0  0  0  0
   -2.1555   21.9774  -32.8816 H   0  0  0  0  0  0  0  0  0  0  0  0
   -2.1201   20.6058  -34.0409 H   0  0  0  0  0  0  0  0  0  0  0  0
   -3.5080   21.7461  -34.0409 H   0  0  0  0  0  0  0  0  0  0  0  0
   -4.2286   19.7325  -32.9222 H   0  0  0  0  0  0  0  0  0  0  0  0
   -2.7311   19.7382  -31.8853 H   0  0  0  0  0  0  0  0  0  0  0  0
   -4.5766   23.5557  -32.7797 H   0  0  0  0  0  0  0  0  0  0  0  0
   -6.2608   23.7915  -32.1740 H   0  0  0  0  0  0  0  0  0  0  0  0
   -5.1670   22.5850  -29.3190 H   0  0  0  0  0  0  0  0  0  0  0  0
   -4.3364   25.2312  -28.2920 H   0  0  0  0  0  0  0  0  0  0  0  0
   -4.5190   23.6959  -27.3673 H   0  0  0  0  0  0  0  0  0  0  0  0
   -2.4726   21.8105  -27.8721 H   0  0  0  0  0  0  0  0  0  0  0  0
    0.1217   22.0333  -28.0433 H   0  0  0  0  0  0  0  0  0  0  0  0
    0.9084   24.4925  -28.5774 H   0  0  0  0  0  0  0  0  0  0  0  0
   -5.9337   20.1317  -33.4985 H   0  0  0  0  0  0  0  0  0  0  0  0
   -8.1406   19.0421  -33.8966 H   0  0  0  0  0  0  0  0  0  0  0  0
  -10.0947   19.6087  -32.4525 H   0  0  0  0  0  0  0  0  0  0  0  0
   -9.8552   21.2802  -30.6213 H   0  0  0  0  0  0  0  0  0  0  0  0
   -7.6908   22.1760  -28.9304 H   0  0  0  0  0  0  0  0  0  0  0  0
   -6.6865   23.2069  -30.0052 H   0  0  0  0  0  0  0  0  0  0  0  0
   -8.4741   23.3834  -30.0052 H   0  0  0  0  0  0  0  0  0  0  0  0
  1  2  1  0
  2  3  1  0
  3  4  2  0
  3  5  1  0
  5  6  1  0
  6  7  1  0
  7  8  2  0
  7  9  1  0
  9 10  1  0
 10 11  1  0
 11 12  2  0
 12 13  1  0
 13 14  2  0
 14 15  1  0
  5 16  1  0
 16 17  2  0
 17 18  1  0
 18 19  2  0
 19 20  1  0
 20 21  2  0
 21 22  1  0
 15 11  1  0
 21 16  1  0
  1 23  1  0
  1 24  1  0
  1 25  1  0
  2 26  1  0
  2 27  1  0
  6 28  1  0
  6 29  1  0
  9 30  1  0
 10 31  1  0
 10 32  1  0
 12 33  1  0
 13 34  1  0
 14 35  1  0
 17 36  1  0
 18 37  1  0
 19 38  1  0
 20 39  1  0
 22 40  1  0
 22 41  1  0
 22 42  1  0
M  END
>  <UniqueID>  (46) 
42

>  <SMILES>  (46) 
CCC(=O)N(CC(=O)NCc1cccs1)c1ccccc1C

>  <Energy>  (46) 
66.3187136251147

>  <Genealogy>  (46) 
CCC(=O)N(CC(=O)NCc1cccs1)c1ccccc1C (3D coordinates assigned)
CCC(=O)N(CC(=O)NCc1cccs1)c1ccccc1C (optimized conformer: 66.3187136251147 kcal/mol)

>  <smiles>  (46) 
CCC(=O)N(CC(=O)NCc1cccs1)c1ccccc1C

>  <score_type>  (46) 
oracle

>  <origin>  (46) 
adg

>  <m_score__min__energy>  (46) 
-7.6699999999999999

>  <m_primary>  (46) 
energy

$$$$
46:0
     RDKit          3D

 39 40  0  0  0  0  0  0  0  0999 V2000
   -1.1756   20.7877  -32.2020 H   0  0  0  0  0  0  0  0  0  0  0  0
   -2.2250   21.1140  -32.1550 C   0  0  0  0  0  0  0  0  0  0  0  0
   -3.2270   20.3200  -32.7160 C   0  0  0  0  0  0  0  0  0  0  0  0
   -2.9639   19.3704  -33.2049 H   0  0  0  0  0  0  0  0  0  0  0  0
   -4.5640   20.7270  -32.6590 C   0  0  0  0  0  0  0  0  0  0  0  0
   -5.3479   20.0955  -33.1026 H   0  0  0  0  0  0  0  0  0  0  0  0
   -4.9120   21.9440  -32.0350 C   0  0  0  0  0  0  0  0  0  0  0  0
   -6.2510   22.3900  -31.9530 C   0  0  0  0  0  0  0  0  0  0  0  0
   -7.2060   21.6590  -32.4610 N   0  0  0  0  0  0  0  0  0  0  0  0
   -8.4720   21.3080  -31.8200 C   0  0  0  0  0  0  0  0  0  0  0  0
   -8.2918   21.0808  -30.7589 H   0  0  0  0  0  0  0  0  0  0  0  0
   -9.1674   22.1557  -31.9086 H   0  0  0  0  0  0  0  0  0  0  0  0
   -9.0880   20.0790  -32.5050 C   0  0  0  0  0  0  0  0  0  0  0  0
  -10.1512   20.0297  -32.2273 H   0  0  0  0  0  0  0  0  0  0  0  0
   -8.9268   20.2135  -33.5848 H   0  0  0  0  0  0  0  0  0  0  0  0
   -8.4290   18.7270  -32.1310 C   0  0  0  0  0  0  0  0  0  0  0  0
   -8.6871   18.5091  -31.0842 H   0  0  0  0  0  0  0  0  0  0  0  0
   -8.8200   18.0038  -32.8618 H   0  0  0  0  0  0  0  0  0  0  0  0
   -6.9490   18.6460  -32.2560 N   0  0  0  0  0  0  0  0  0  0  0  0
   -6.5950   19.6200  -32.0970 H   0  0  0  0  0  0  0  0  0  0  0  0
   -6.3170   17.8030  -31.2270 C   0  0  0  0  0  0  0  0  0  0  0  0
   -6.5943   18.1729  -30.2289 H   0  0  0  0  0  0  0  0  0  0  0  0
   -6.6609   16.7645  -31.3418 H   0  0  0  0  0  0  0  0  0  0  0  0
   -5.2237   17.8420  -31.3418 H   0  0  0  0  0  0  0  0  0  0  0  0
   -6.4970   18.2670  -33.6060 C   0  0  0  0  0  0  0  0  0  0  0  0
   -5.6563   17.5621  -33.5267 H   0  0  0  0  0  0  0  0  0  0  0  0
   -7.3257   17.7898  -34.1496 H   0  0  0  0  0  0  0  0  0  0  0  0
   -6.1715   19.1662  -34.1496 H   0  0  0  0  0  0  0  0  0  0  0  0
   -6.5180   23.6180  -31.3130 C   0  0  0  0  0  0  0  0  0  0  0  0
   -7.5522   23.9852  -31.2381 H   0  0  0  0  0  0  0  0  0  0  0  0
   -5.4680   24.3700  -30.7730 C   0  0  0  0  0  0  0  0  0  0  0  0
   -5.7470   25.6730  -30.0920 C   0  0  0  0  0  0  0  0  0  0  0  0
   -5.7165   25.5308  -29.0017 H   0  0  0  0  0  0  0  0  0  0  0  0
   -4.9865   26.4111  -30.3869 H   0  0  0  0  0  0  0  0  0  0  0  0
   -6.7430   26.0350  -30.3869 H   0  0  0  0  0  0  0  0  0  0  0  0
   -4.1920   23.9170  -30.8640 N   0  0  0  0  0  0  0  0  0  0  0  0
   -3.8860   22.7410  -31.4700 C   0  0  0  0  0  0  0  0  0  0  0  0
   -2.5520   22.3220  -31.5340 C   0  0  0  0  0  0  0  0  0  0  0  0
   -1.7593   22.9452  -31.0944 H   0  0  0  0  0  0  0  0  0  0  0  0
  1  2  1  0
  2  3  2  0
  3  4  1  0
  3  5  1  0
  5  6  1  0
  5  7  2  0
  7  8  1  0
  8  9  2  0
  9 10  1  0
 10 11  1  0
 10 12  1  0
 10 13  1  0
 13 14  1  0
 13 15  1  0
 13 16  1  0
 16 17  1  0
 16 18  1  0
 16 19  1  0
 19 20  1  0
 19 21  1  0
 21 22  1  0
 21 23  1  0
 21 24  1  0
 19 25  1  0
 25 26  1  0
 25 27  1  0
 25 28  1  0
  8 29  1  0
 29 30  1  0
 29 31  2  0
 31 32  1  0
 32 33  1  0
 32 34  1  0
 32 35  1  0
 31 36  1  0
 36 37  1  0
 37 38  2  0
 38 39  1  0
 38  2  1  0
 37  7  1  0
M  CHG  2  19   1  36  -1
M  END
>  <UniqueID>  (47) 
43

>  <SMILES>  (47) 
Cc1c/c(=N\CCC[NH+](C)C)c2ccccc2[n-]1

>  <Energy>  (47) 
47.782223321648885

>  <Genealogy>  (47) 
Cc1cc(=NCCC[NH+](C)C)c2ccccc2[n-]1 (protonated)
Cc1c/c(=N\CCC[NH+](C)C)c2ccccc2[n-]1 (cis-trans isomerization)
Cc1c/c(=N\CCC[NH+](C)C)c2ccccc2[n-]1 (3D coordinates assigned)
Cc1c/c(=N\CCC[NH+](C)C)c2ccccc2[n-]1 (optimized conformer: 47.782223321648885 kcal/mol)

>  <smiles>  (47) 
Cc1cc(=NCCCN(C)C)c2ccccc2[nH]1

>  <score_type>  (47) 
oracle

>  <origin>  (47) 
adg

>  <m_score__min__energy>  (47) 
-6.4299999999999997

>  <m_primary>  (47) 
energy

$$$$
47:0
     RDKit          3D

 31 33  0  0  0  0  0  0  0  0999 V2000
   -3.7206   22.1556  -26.8163 H   0  0  0  0  0  0  0  0  0  0  0  0
   -3.7280   22.8480  -27.6710 C   0  0  0  0  0  0  0  0  0  0  0  0
   -4.7040   22.7230  -28.6650 C   0  0  0  0  0  0  0  0  0  0  0  0
   -5.4649   21.9324  -28.5880 H   0  0  0  0  0  0  0  0  0  0  0  0
   -4.7180   23.6030  -29.7630 C   0  0  0  0  0  0  0  0  0  0  0  0
   -5.7500   23.4800  -30.8120 C   0  0  0  0  0  0  0  0  0  0  0  0
   -5.5500   23.7720  -32.1170 N   0  0  0  0  0  0  0  0  0  0  0  0
   -6.7040   23.5330  -32.7170 N   0  0  0  0  0  0  0  0  0  0  0  0
   -6.8900   23.6590  -33.7370 H   0  0  0  0  0  0  0  0  0  0  0  0
   -7.5560   23.1100  -31.7730 C   0  0  0  0  0  0  0  0  0  0  0  0
   -8.7910   22.7810  -32.0090 N   0  0  0  0  0  0  0  0  0  0  0  0
   -9.4100   21.5550  -31.5110 C   0  0  0  0  0  0  0  0  0  0  0  0
  -10.4638   21.5296  -31.8253 H   0  0  0  0  0  0  0  0  0  0  0  0
   -9.3377   21.5439  -30.4134 H   0  0  0  0  0  0  0  0  0  0  0  0
   -8.6940   20.3250  -32.0610 C   0  0  0  0  0  0  0  0  0  0  0  0
   -8.3339   19.7063  -31.2258 H   0  0  0  0  0  0  0  0  0  0  0  0
   -9.3922   19.7391  -32.6769 H   0  0  0  0  0  0  0  0  0  0  0  0
   -7.8398   20.6428  -32.6769 H   0  0  0  0  0  0  0  0  0  0  0  0
   -6.9820   23.0710  -30.5950 O   0  0  0  0  0  0  0  0  0  0  0  0
   -3.7340   24.6030  -29.8580 C   0  0  0  0  0  0  0  0  0  0  0  0
   -3.7368   25.2976  -30.7109 H   0  0  0  0  0  0  0  0  0  0  0  0
   -2.7520   24.7150  -28.8690 C   0  0  0  0  0  0  0  0  0  0  0  0
   -2.7630   23.8530  -27.7650 C   0  0  0  0  0  0  0  0  0  0  0  0
   -1.7970   24.0150  -26.7670 O   0  0  0  0  0  0  0  0  0  0  0  0
   -0.9860   25.1920  -26.7080 C   0  0  0  0  0  0  0  0  0  0  0  0
   -0.0754   24.9770  -26.1296 H   0  0  0  0  0  0  0  0  0  0  0  0
   -1.5576   25.9974  -26.2237 H   0  0  0  0  0  0  0  0  0  0  0  0
   -0.5940   25.6380  -28.1230 C   0  0  0  0  0  0  0  0  0  0  0  0
    0.1313   24.9243  -28.5407 H   0  0  0  0  0  0  0  0  0  0  0  0
   -0.1473   26.6419  -28.0712 H   0  0  0  0  0  0  0  0  0  0  0  0
   -1.7480   25.6850  -28.9650 O   0  0  0  0  0  0  0  0  0  0  0  0
  1  2  1  0
  2  3  2  0
  3  4  1  0
  3  5  1  0
  5  6  1  0
  6  7  2  0
  7  8  1  0
  8  9  1  0
  8 10  1  0
 10 11  2  0
 11 12  1  0
 12 13  1  0
 12 14  1  0
 12 15  1  0
 15 16  1  0
 15 17  1  0
 15 18  1  0
 10 19  1  0
  5 20  2  0
 20 21  1  0
 20 22  1  0
 22 23  2  0
 23 24  1  0
 24 25  1  0
 25 26  1  0
 25 27  1  0
 25 28  1  0
 28 29  1  0
 28 30  1  0
 28 31  1  0
 23  2  1  0
 19  6  1  0
 31 22  1  0
M  END
>  <UniqueID>  (48) 
44

>  <SMILES>  (48) 
CC/N=c1/[nH]nc(-c2ccc3c(c2)OCCO3)o1

>  <Energy>  (48) 
66.02759389984622

>  <Genealogy>  (48) 
CC/N=c1/[nH]nc(-c2ccc3c(c2)OCCO3)o1 (cis-trans isomerization)
CC/N=c1/[nH]nc(-c2ccc3c(c2)OCCO3)o1 (3D coordinates assigned)
CC/N=c1/[nH]nc(-c2ccc3c(c2)OCCO3)o1 (nonaromatic ring conformer: 66.02759389984622 kcal/mol)

>  <smiles>  (48) 
CCN=c1[nH]nc(-c2ccc3c(c2)OCCO3)o1

>  <score_type>  (48) 
oracle

>  <origin>  (48) 
adg

>  <m_score__min__energy>  (48) 
-6.75

>  <m_primary>  (48) 
energy

$$$$
