0:0
     RDKit          3D

 79 84  0  0  0  0  0  0  0  0999 V2000
   -1.6890   25.9760  -25.2820 C   0  0  0  0  0  0  0  0  0  0  0  0
   -1.2390   25.5390  -26.5600 O   0  0  0  0  0  0  0  0  0  0  0  0
   -2.0300   24.8340  -27.4790 C   0  0  0  0  0  0  0  0  0  0  0  0
   -3.3530   24.5400  -27.1300 C   0  0  0  0  0  0  0  0  0  0  0  0
   -4.1820   23.8410  -28.0120 C   0  0  0  0  0  0  0  0  0  0  0  0
   -3.7000   23.4230  -29.2650 C   0  0  0  0  0  0  0  0  0  0  0  0
   -4.5810   22.6820  -30.2050 C   0  0  0  0  0  0  0  0  0  0  0  0
   -4.0340   21.9860  -31.2920 C   0  0  0  0  0  0  0  0  0  0  0  0
   -4.8430   21.2690  -32.1890 C   0  0  0  0  0  0  0  0  0  0  0  0
   -4.1260   20.5120  -33.2920 C   0  0  0  0  0  0  0  0  0  0  0  0
   -2.8170   21.1200  -33.5820 N   0  0  0  0  0  0  0  0  0  0  0  0
   -1.6870   20.2600  -33.1900 C   0  0  0  0  0  0  0  0  0  0  0  0
   -0.3610   21.0240  -33.3330 C   0  0  0  0  0  0  0  0  0  0  0  0
   -0.1530   21.5970  -34.7430 C   0  0  0  0  0  0  0  0  0  0  0  0
    1.2990   21.4550  -35.2280 C   0  0  0  0  0  0  0  0  0  0  0  0
    1.7650   22.6590  -36.0620 C   0  0  0  0  0  0  0  0  0  0  0  0
    0.7780   23.8370  -36.0070 C   0  0  0  0  0  0  0  0  0  0  0  0
    1.0170   24.7590  -37.0980 N   0  0  0  0  0  0  0  0  0  0  0  0
    0.5570   25.9660  -37.1840 C   0  0  0  0  0  0  0  0  0  0  0  0
   -0.8530   26.3950  -36.7970 C   0  0  1  0  0  0  0  0  0  0  0  0
   -0.7340   27.3870  -35.6190 C   0  0  0  0  0  0  0  0  0  0  0  0
    0.1540   28.5880  -36.0300 C   0  0  2  0  0  0  0  0  0  0  0  0
   -0.4830   29.3060  -37.2410 C   0  0  0  0  0  0  0  0  0  0  0  0
   -0.5940   28.3190  -38.4260 C   0  0  2  0  0  0  0  0  0  0  0  0
   -1.4800   27.1200  -38.0100 C   0  0  0  0  0  0  0  0  0  0  0  0
    0.8180   27.8130  -38.8090 C   0  0  0  0  0  0  0  0  0  0  0  0
    1.4640   27.0980  -37.6020 C   0  0  1  0  0  0  0  0  0  0  0  0
    1.5680   28.0850  -36.4190 C   0  0  0  0  0  0  0  0  0  0  0  0
   -6.2520   21.2380  -31.9840 C   0  0  0  0  0  0  0  0  0  0  0  0
   -7.1360   20.5240  -32.8250 C   0  0  0  0  0  0  0  0  0  0  0  0
   -8.5100   20.5130  -32.5730 C   0  0  0  0  0  0  0  0  0  0  0  0
   -9.0340   21.2130  -31.4900 C   0  0  0  0  0  0  0  0  0  0  0  0
   -8.1860   21.9290  -30.6470 C   0  0  0  0  0  0  0  0  0  0  0  0
   -6.8010   21.9480  -30.8800 C   0  0  0  0  0  0  0  0  0  0  0  0
   -5.9680   22.6590  -30.0090 C   0  0  0  0  0  0  0  0  0  0  0  0
   -2.3700   23.7170  -29.6130 C   0  0  0  0  0  0  0  0  0  0  0  0
   -1.5420   24.4170  -28.7310 C   0  0  0  0  0  0  0  0  0  0  0  0
   -1.1370   25.4400  -24.4959 H   0  0  0  0  0  0  0  0  0  0  0  0
   -1.5131   27.0572  -25.1813 H   0  0  0  0  0  0  0  0  0  0  0  0
   -2.7646   25.7685  -25.1813 H   0  0  0  0  0  0  0  0  0  0  0  0
   -3.7438   24.8617  -26.1534 H   0  0  0  0  0  0  0  0  0  0  0  0
   -5.2195   23.6162  -27.7236 H   0  0  0  0  0  0  0  0  0  0  0  0
   -2.9450   22.0017  -31.4462 H   0  0  0  0  0  0  0  0  0  0  0  0
   -3.9764   19.4694  -32.9747 H   0  0  0  0  0  0  0  0  0  0  0  0
   -4.7414   20.5521  -34.2029 H   0  0  0  0  0  0  0  0  0  0  0  0
   -2.7680   21.2610  -34.6180 H   0  0  0  0  0  0  0  0  0  0  0  0
   -1.8148   19.9476  -32.1431 H   0  0  0  0  0  0  0  0  0  0  0  0
   -1.6643   19.3775  -33.8463 H   0  0  0  0  0  0  0  0  0  0  0  0
   -0.3543   21.8545  -32.6117 H   0  0  0  0  0  0  0  0  0  0  0  0
    0.4543   20.3108  -33.1418 H   0  0  0  0  0  0  0  0  0  0  0  0
   -0.8124   21.0617  -35.4421 H   0  0  0  0  0  0  0  0  0  0  0  0
   -0.3894   22.6706  -34.7057 H   0  0  0  0  0  0  0  0  0  0  0  0
    1.9555   21.3591  -34.3506 H   0  0  0  0  0  0  0  0  0  0  0  0
    1.3491   20.5647  -35.8721 H   0  0  0  0  0  0  0  0  0  0  0  0
    2.7386   22.9975  -35.6779 H   0  0  0  0  0  0  0  0  0  0  0  0
    1.8327   22.3310  -37.1098 H   0  0  0  0  0  0  0  0  0  0  0  0
   -0.2493   23.4506  -36.0798 H   0  0  0  0  0  0  0  0  0  0  0  0
    0.9193   24.3715  -35.0560 H   0  0  0  0  0  0  0  0  0  0  0  0
   -1.4732   25.5329  -36.5103 H   0  0  0  0  0  0  0  0  0  0  0  0
   -1.7355   27.7504  -35.3454 H   0  0  0  0  0  0  0  0  0  0  0  0
   -0.2768   26.8756  -34.7591 H   0  0  0  0  0  0  0  0  0  0  0  0
    0.2347   29.2864  -35.1840 H   0  0  0  0  0  0  0  0  0  0  0  0
   -1.4862   29.6654  -36.9680 H   0  0  0  0  0  0  0  0  0  0  0  0
    0.1458   30.1600  -37.5330 H   0  0  0  0  0  0  0  0  0  0  0  0
   -1.0456   28.8274  -39.2906 H   0  0  0  0  0  0  0  0  0  0  0  0
   -2.4819   27.4842  -37.7387 H   0  0  0  0  0  0  0  0  0  0  0  0
   -1.5542   26.4165  -38.8523 H   0  0  0  0  0  0  0  0  0  0  0  0
    0.7376   27.1088  -39.6502 H   0  0  0  0  0  0  0  0  0  0  0  0
    1.4435   28.6696  -39.1005 H   0  0  0  0  0  0  0  0  0  0  0  0
    2.4630   26.7283  -37.8765 H   0  0  0  0  0  0  0  0  0  0  0  0
    2.0245   27.5758  -35.5574 H   0  0  0  0  0  0  0  0  0  0  0  0
    2.1904   28.9425  -36.7146 H   0  0  0  0  0  0  0  0  0  0  0  0
   -6.7372   19.9706  -33.6880 H   0  0  0  0  0  0  0  0  0  0  0  0
   -9.1823   19.9474  -33.2349 H   0  0  0  0  0  0  0  0  0  0  0  0
  -10.1173   21.2011  -31.2995 H   0  0  0  0  0  0  0  0  0  0  0  0
   -8.6041   22.4829  -29.7935 H   0  0  0  0  0  0  0  0  0  0  0  0
   -6.4069   23.2057  -29.1614 H   0  0  0  0  0  0  0  0  0  0  0  0
   -1.9775   23.3932  -30.5882 H   0  0  0  0  0  0  0  0  0  0  0  0
   -0.5041   24.6429  -29.0170 H   0  0  0  0  0  0  0  0  0  0  0  0
  1  2  1  0
  2  3  1  0
  3  4  2  0
  4  5  1  0
  5  6  2  0
  6  7  1  0
  7  8  2  0
  8  9  1  0
  9 10  1  0
 10 11  1  0
 11 12  1  0
 12 13  1  0
 13 14  1  0
 14 15  1  0
 15 16  1  0
 16 17  1  0
 17 18  1  0
 18 19  2  3
 19 20  1  0
 20 21  1  0
 21 22  1  0
 22 23  1  0
 23 24  1  0
 24 25  1  0
 24 26  1  0
 26 27  1  0
 27 28  1  0
  9 29  2  0
 29 30  1  0
 30 31  2  0
 31 32  1  0
 32 33  2  0
 33 34  1  0
 34 35  2  0
  6 36  1  0
 36 37  2  0
 37  3  1  0
 35  7  1  0
 27 19  1  0
 34 29  1  0
 25 20  1  0
 28 22  1  0
  1 38  1  0
  1 39  1  0
  1 40  1  0
  4 41  1  0
  5 42  1  0
  8 43  1  0
 10 44  1  0
 10 45  1  0
 11 46  1  0
 12 47  1  0
 12 48  1  0
 13 49  1  0
 13 50  1  0
 14 51  1  0
 14 52  1  0
 15 53  1  0
 15 54  1  0
 16 55  1  0
 16 56  1  0
 17 57  1  0
 17 58  1  0
 20 59  1  1
 21 60  1  0
 21 61  1  0
 22 62  1  1
 23 63  1  0
 23 64  1  0
 24 65  1  6
 25 66  1  0
 25 67  1  0
 26 68  1  0
 26 69  1  0
 27 70  1  6
 28 71  1  0
 28 72  1  0
 30 73  1  0
 31 74  1  0
 32 75  1  0
 33 76  1  0
 35 77  1  0
 36 78  1  0
 37 79  1  0
M  END
>  <UniqueID>  (1) 
1

>  <SMILES>  (1) 
COc1ccc(-c2cc(CNCCCCCCN=C3C4CC5CC(C4)CC3C5)c3ccccc3c2)cc1

>  <Energy>  (1) 
90.2526265874346

>  <Genealogy>  (1) 
COc1ccc(-c2cc(CNCCCCCCN=C3C4CC5CC(C4)CC3C5)c3ccccc3c2)cc1 (3D coordinates assigned)
COc1ccc(-c2cc(CNCCCCCCN=C3C4CC5CC(C4)CC3C5)c3ccccc3c2)cc1 (nonaromatic ring conformer: 90.2526265874346 kcal/mol)

>  <smiles>  (1) 
COc1ccc(-c2cc(CNCCCCCCN=C3C4CC5CC(C4)CC3C5)c3ccccc3c2)cc1

>  <score_type>  (1) 
oracle

>  <origin>  (1) 
adg

>  <m_score__min__energy>  (1) 
-12

>  <m_primary>  (1) 
energy

$$$$
1:0
     RDKit          3D

 40 42  0  0  0  0  0  0  0  0999 V2000
   -6.3830   15.1600  -34.2160 C   0  0  0  0  0  0  0  0  0  0  0  0
   -6.2400   16.2700  -33.1710 C   0  0  1  0  0  0  0  0  0  0  0  0
   -4.7880   16.4800  -32.8430 C   0  0  0  0  0  0  0  0  0  0  0  0
   -4.2230   15.6800  -32.0470 O   0  0  0  0  0  0  0  0  0  0  0  0
   -4.0310   17.5300  -33.4670 N   0  0  0  0  0  0  0  0  0  0  0  0
   -2.5910   17.6180  -33.2160 C   0  0  0  0  0  0  0  0  0  0  0  0
   -4.6920   18.6350  -34.1660 C   0  0  0  0  0  0  0  0  0  0  0  0
   -6.1120   18.2870  -34.6400 C   0  0  0  0  0  0  0  0  0  0  0  0
   -6.8880   17.5060  -33.6560 N   0  0  0  0  0  0  0  0  0  0  0  0
   -7.6320   18.2890  -32.6430 C   0  0  0  0  0  0  0  0  0  0  0  0
   -6.9680   19.5940  -32.2690 C   0  0  0  0  0  0  0  0  0  0  0  0
   -7.5580   20.8160  -32.6150 C   0  0  0  0  0  0  0  0  0  0  0  0
   -6.9360   22.0170  -32.2760 C   0  0  0  0  0  0  0  0  0  0  0  0
   -5.7200   21.9980  -31.5720 C   0  0  0  0  0  0  0  0  0  0  0  0
   -5.0370   23.2670  -31.2150 C   0  0  0  0  0  0  0  0  0  0  0  0
   -5.5610   24.5460  -31.2060 C   0  0  0  0  0  0  0  0  0  0  0  0
   -4.6040   25.4100  -30.8200 N   0  0  0  0  0  0  0  0  0  0  0  0
   -3.5260   24.7180  -30.5980 O   0  0  0  0  0  0  0  0  0  0  0  0
   -3.7240   23.4380  -30.8170 C   0  0  0  0  0  0  0  0  0  0  0  0
   -5.1760   20.7940  -31.2190 N   0  0  0  0  0  0  0  0  0  0  0  0
   -5.7710   19.6140  -31.5410 C   0  0  0  0  0  0  0  0  0  0  0  0
   -6.5077   14.1922  -33.7082 H   0  0  0  0  0  0  0  0  0  0  0  0
   -7.2628   15.3599  -34.8453 H   0  0  0  0  0  0  0  0  0  0  0  0
   -5.4812   15.1304  -34.8453 H   0  0  0  0  0  0  0  0  0  0  0  0
   -6.7489   15.9752  -32.2414 H   0  0  0  0  0  0  0  0  0  0  0  0
   -2.4079   17.6292  -32.1314 H   0  0  0  0  0  0  0  0  0  0  0  0
   -2.0869   16.7490  -33.6640 H   0  0  0  0  0  0  0  0  0  0  0  0
   -2.1965   18.5419  -33.6640 H   0  0  0  0  0  0  0  0  0  0  0  0
   -4.7522   19.4950  -33.4828 H   0  0  0  0  0  0  0  0  0  0  0  0
   -4.0940   18.8604  -35.0613 H   0  0  0  0  0  0  0  0  0  0  0  0
   -6.6506   19.2244  -34.8428 H   0  0  0  0  0  0  0  0  0  0  0  0
   -6.0082   17.6617  -35.5390 H   0  0  0  0  0  0  0  0  0  0  0  0
   -8.6321   18.5115  -33.0432 H   0  0  0  0  0  0  0  0  0  0  0  0
   -7.6692   17.6765  -31.7301 H   0  0  0  0  0  0  0  0  0  0  0  0
   -8.5156   20.8285  -33.1562 H   0  0  0  0  0  0  0  0  0  0  0  0
   -7.3954   22.9757  -32.5586 H   0  0  0  0  0  0  0  0  0  0  0  0
   -6.5941   24.8145  -31.4716 H   0  0  0  0  0  0  0  0  0  0  0  0
   -2.9750   22.6404  -30.7034 H   0  0  0  0  0  0  0  0  0  0  0  0
   -4.2850   20.7530  -30.6780 H   0  0  0  0  0  0  0  0  0  0  0  0
   -5.3082   18.6668  -31.2270 H   0  0  0  0  0  0  0  0  0  0  0  0
  1  2  1  0
  2  3  1  0
  3  4  2  0
  3  5  1  0
  5  6  1  0
  5  7  1  0
  7  8  1  0
  8  9  1  0
  9 10  1  0
 10 11  1  0
 11 12  2  0
 12 13  1  0
 13 14  2  0
 14 15  1  0
 15 16  1  0
 16 17  2  0
 17 18  1  0
 18 19  1  0
 14 20  1  0
 20 21  2  0
  9  2  1  0
 21 11  1  0
 19 15  2  0
  1 22  1  0
  1 23  1  0
  1 24  1  0
  2 25  1  1
  6 26  1  0
  6 27  1  0
  6 28  1  0
  7 29  1  0
  7 30  1  0
  8 31  1  0
  8 32  1  0
 10 33  1  0
 10 34  1  0
 12 35  1  0
 13 36  1  0
 16 37  1  0
 19 38  1  0
 20 39  1  0
 21 40  1  0
M  CHG  1  20   1
M  END
>  <UniqueID>  (2) 
2

>  <SMILES>  (2) 
C[C@H]1C(=O)N(C)CCN1Cc1ccc(-c2cnoc2)[nH+]c1

>  <Energy>  (2) 
79.23305423924394

>  <Genealogy>  (2) 
CC1C(=O)N(C)CCN1Cc1ccc(-c2cnoc2)[nH+]c1 (protonated)
C[C@H]1C(=O)N(C)CCN1Cc1ccc(-c2cnoc2)[nH+]c1 (chirality)
C[C@H]1C(=O)N(C)CCN1Cc1ccc(-c2cnoc2)[nH+]c1 (3D coordinates assigned)
C[C@H]1C(=O)N(C)CCN1Cc1ccc(-c2cnoc2)[nH+]c1 (nonaromatic ring conformer: 79.23305423924394 kcal/mol)

>  <smiles>  (2) 
CC1C(=O)N(C)CCN1Cc1ccc(-c2cnoc2)nc1

>  <score_type>  (2) 
oracle

>  <origin>  (2) 
adg

>  <m_score__min__energy>  (2) 
-7.2000000000000002

>  <m_primary>  (2) 
energy

$$$$
2:0
     RDKit          3D

 49 51  0  0  0  0  0  0  0  0999 V2000
   -2.7570   20.1930  -27.4400 C   0  0  0  0  0  0  0  0  0  0  0  0
   -2.7170   20.8290  -28.8420 C   0  0  0  0  0  0  0  0  0  0  0  0
   -2.1550   22.2020  -28.8800 N   0  0  0  0  0  0  0  0  0  0  0  0
   -1.3750   22.4710  -30.1070 C   0  0  0  0  0  0  0  0  0  0  0  0
   -1.5450   21.3380  -31.1190 C   0  0  0  0  0  0  0  0  0  0  0  0
   -3.1580   23.2530  -28.5830 C   0  0  0  0  0  0  0  0  0  0  0  0
   -2.8000   24.5690  -29.2820 C   0  0  0  0  0  0  0  0  0  0  0  0
   -3.5540   24.7360  -30.4860 O   0  0  0  0  0  0  0  0  0  0  0  0
   -4.6720   23.9790  -30.8730 C   0  0  0  0  0  0  0  0  0  0  0  0
   -4.5700   22.7920  -31.6250 C   0  0  0  0  0  0  0  0  0  0  0  0
   -5.7150   22.0580  -31.9420 C   0  0  0  0  0  0  0  0  0  0  0  0
   -6.9800   22.4980  -31.5240 C   0  0  0  0  0  0  0  0  0  0  0  0
   -8.1870   21.7030  -31.8260 C   0  0  0  0  0  0  0  0  0  0  0  0
   -9.4450   22.1420  -31.6560 N   0  0  0  0  0  0  0  0  0  0  0  0
  -10.2390   21.1980  -32.1410 N   0  0  0  0  0  0  0  0  0  0  0  0
   -9.4990   20.1940  -32.5910 N   0  0  0  0  0  0  0  0  0  0  0  0
   -8.2190   20.4820  -32.4050 N   0  0  0  0  0  0  0  0  0  0  0  0
   -7.1390   19.5800  -32.6920 C   0  0  0  0  0  0  0  0  0  0  0  0
   -6.4520   19.6750  -33.9120 C   0  0  0  0  0  0  0  0  0  0  0  0
   -5.3970   18.8030  -34.1950 C   0  0  0  0  0  0  0  0  0  0  0  0
   -5.0330   17.8190  -33.2710 C   0  0  0  0  0  0  0  0  0  0  0  0
   -5.7250   17.7030  -32.0650 C   0  0  0  0  0  0  0  0  0  0  0  0
   -6.7790   18.5720  -31.7790 C   0  0  0  0  0  0  0  0  0  0  0  0
   -7.0890   23.7040  -30.8170 C   0  0  0  0  0  0  0  0  0  0  0  0
   -5.9410   24.4350  -30.4910 C   0  0  0  0  0  0  0  0  0  0  0  0
   -2.7073   20.9839  -26.6771 H   0  0  0  0  0  0  0  0  0  0  0  0
   -3.6925   19.6268  -27.3208 H   0  0  0  0  0  0  0  0  0  0  0  0
   -1.8998   19.5141  -27.3208 H   0  0  0  0  0  0  0  0  0  0  0  0
   -2.1030   20.1885  -29.4923 H   0  0  0  0  0  0  0  0  0  0  0  0
   -3.7612   20.9093  -29.1786 H   0  0  0  0  0  0  0  0  0  0  0  0
   -1.7245   23.4118  -30.5572 H   0  0  0  0  0  0  0  0  0  0  0  0
   -0.3110   22.5464  -29.8384 H   0  0  0  0  0  0  0  0  0  0  0  0
   -1.6877   20.3873  -30.5845 H   0  0  0  0  0  0  0  0  0  0  0  0
   -2.4230   21.5390  -31.7504 H   0  0  0  0  0  0  0  0  0  0  0  0
   -0.6466   21.2725  -31.7504 H   0  0  0  0  0  0  0  0  0  0  0  0
   -4.1452   22.9170  -28.9331 H   0  0  0  0  0  0  0  0  0  0  0  0
   -3.1720   23.4263  -27.4968 H   0  0  0  0  0  0  0  0  0  0  0  0
   -3.0175   25.4068  -28.6031 H   0  0  0  0  0  0  0  0  0  0  0  0
   -1.7310   24.5471  -29.5402 H   0  0  0  0  0  0  0  0  0  0  0  0
   -3.5839   22.4417  -31.9640 H   0  0  0  0  0  0  0  0  0  0  0  0
   -5.6245   21.1286  -32.5234 H   0  0  0  0  0  0  0  0  0  0  0  0
   -9.7620   23.0550  -31.2610 H   0  0  0  0  0  0  0  0  0  0  0  0
   -6.7448   20.4383  -34.6480 H   0  0  0  0  0  0  0  0  0  0  0  0
   -4.8521   18.8911  -35.1465 H   0  0  0  0  0  0  0  0  0  0  0  0
   -4.2005   17.1358  -33.4949 H   0  0  0  0  0  0  0  0  0  0  0  0
   -5.4399   16.9267  -31.3397 H   0  0  0  0  0  0  0  0  0  0  0  0
   -7.3318   18.4681  -30.8337 H   0  0  0  0  0  0  0  0  0  0  0  0
   -8.0798   24.0766  -30.5177 H   0  0  0  0  0  0  0  0  0  0  0  0
   -6.0355   25.3763  -29.9297 H   0  0  0  0  0  0  0  0  0  0  0  0
  1  2  1  0
  2  3  1  0
  3  4  1  0
  4  5  1  0
  3  6  1  0
  6  7  1  0
  7  8  1  0
  8  9  1  0
  9 10  2  0
 10 11  1  0
 11 12  2  0
 12 13  1  0
 13 14  2  0
 14 15  1  0
 15 16  2  0
 16 17  1  0
 17 18  1  0
 18 19  2  0
 19 20  1  0
 20 21  2  0
 21 22  1  0
 22 23  2  0
 12 24  1  0
 24 25  2  0
 25  9  1  0
 17 13  1  0
 23 18  1  0
  1 26  1  0
  1 27  1  0
  1 28  1  0
  2 29  1  0
  2 30  1  0
  4 31  1  0
  4 32  1  0
  5 33  1  0
  5 34  1  0
  5 35  1  0
  6 36  1  0
  6 37  1  0
  7 38  1  0
  7 39  1  0
 10 40  1  0
 11 41  1  0
 14 42  1  0
 19 43  1  0
 20 44  1  0
 21 45  1  0
 22 46  1  0
 23 47  1  0
 24 48  1  0
 25 49  1  0
M  CHG  1  14   1
M  END
>  <UniqueID>  (3) 
3

>  <SMILES>  (3) 
CCN(CC)CCOc1ccc(-c2[nH+]nnn2-c2ccccc2)cc1

>  <Energy>  (3) 
98.65191647715366

>  <Genealogy>  (3) 
CCN(CC)CCOc1ccc(-c2[nH+]nnn2-c2ccccc2)cc1 (protonated)
CCN(CC)CCOc1ccc(-c2[nH+]nnn2-c2ccccc2)cc1 (3D coordinates assigned)
CCN(CC)CCOc1ccc(-c2[nH+]nnn2-c2ccccc2)cc1 (optimized conformer: 98.65191647715366 kcal/mol)

>  <smiles>  (3) 
CCN(CC)CCOc1ccc(-c2nnnn2-c2ccccc2)cc1

>  <score_type>  (3) 
oracle

>  <origin>  (3) 
adg

>  <m_score__min__energy>  (3) 
-8.2899999999999991

>  <m_primary>  (3) 
energy

$$$$
3:0
     RDKit          3D

 54 57  0  0  0  0  0  0  0  0999 V2000
   -9.4440   19.6590  -32.7020 C   0  0  0  0  0  0  0  0  0  0  0  0
   -8.4930   20.7200  -32.1480 C   0  0  0  0  0  0  0  0  0  0  0  0
   -7.1150   20.1910  -32.0290 N   0  0  0  0  0  0  0  0  0  0  0  0
   -7.1390   18.7660  -31.6290 C   0  0  0  0  0  0  0  0  0  0  0  0
   -6.5350   17.8810  -32.7180 C   0  0  0  0  0  0  0  0  0  0  0  0
   -6.3340   20.4010  -33.2760 C   0  0  0  0  0  0  0  0  0  0  0  0
   -5.0000   21.0640  -32.9350 C   0  0  0  0  0  0  0  0  0  0  0  0
   -5.2160   22.2210  -32.0660 N   0  0  0  0  0  0  0  0  0  0  0  0
   -6.2290   23.1150  -32.1770 C   0  0  0  0  0  0  0  0  0  0  0  0
   -6.0840   24.1350  -31.2420 C   0  0  0  0  0  0  0  0  0  0  0  0
   -4.9270   23.8380  -30.5560 C   0  0  0  0  0  0  0  0  0  0  0  0
   -4.2890   24.5240  -29.5250 C   0  0  0  0  0  0  0  0  0  0  0  0
   -3.0830   23.9920  -29.0240 C   0  0  0  0  0  0  0  0  0  0  0  0
   -2.3870   24.6680  -27.9610 N   0  0  0  0  0  0  0  0  0  0  0  0
   -3.0260   24.9390  -26.7580 C   0  0  0  0  0  0  0  0  0  0  0  0
   -4.4600   24.5530  -26.5260 C   0  0  0  0  0  0  0  0  0  0  0  0
   -2.3530   25.5640  -25.7430 N   0  0  0  0  0  0  0  0  0  0  0  0
   -1.0660   25.9190  -25.9480 C   0  0  0  0  0  0  0  0  0  0  0  0
   -0.1660   26.5330  -25.1170 C   0  0  0  0  0  0  0  0  0  0  0  0
    0.9860   26.6440  -25.8220 N   0  0  0  0  0  0  0  0  0  0  0  0
    2.2380   27.1830  -25.3100 C   0  0  0  0  0  0  0  0  0  0  0  0
    0.8510   26.1150  -27.0370 N   0  0  0  0  0  0  0  0  0  0  0  0
   -0.4180   25.6780  -27.1100 C   0  0  0  0  0  0  0  0  0  0  0  0
   -1.0740   25.0400  -28.1500 C   0  0  0  0  0  0  0  0  0  0  0  0
   -0.4720   24.8020  -29.2330 O   0  0  0  0  0  0  0  0  0  0  0  0
   -2.5590   22.7920  -29.5620 C   0  0  0  0  0  0  0  0  0  0  0  0
   -3.2270   22.1230  -30.6040 C   0  0  0  0  0  0  0  0  0  0  0  0
   -4.4190   22.6760  -31.0780 C   0  0  0  0  0  0  0  0  0  0  0  0
   -9.9229   19.1247  -31.8683 H   0  0  0  0  0  0  0  0  0  0  0  0
  -10.2155   20.1439  -33.3182 H   0  0  0  0  0  0  0  0  0  0  0  0
   -8.8779   18.9450  -33.3182 H   0  0  0  0  0  0  0  0  0  0  0  0
   -8.4878   21.5867  -32.8254 H   0  0  0  0  0  0  0  0  0  0  0  0
   -8.8421   21.0136  -31.1471 H   0  0  0  0  0  0  0  0  0  0  0  0
   -6.5589   18.6427  -30.7025 H   0  0  0  0  0  0  0  0  0  0  0  0
   -8.1850   18.4638  -31.4721 H   0  0  0  0  0  0  0  0  0  0  0  0
   -5.9733   17.0580  -32.2520 H   0  0  0  0  0  0  0  0  0  0  0  0
   -7.3402   17.4676  -33.3430 H   0  0  0  0  0  0  0  0  0  0  0  0
   -5.8566   18.4802  -33.3430 H   0  0  0  0  0  0  0  0  0  0  0  0
   -6.1483   19.4309  -33.7603 H   0  0  0  0  0  0  0  0  0  0  0  0
   -6.9017   21.0491  -33.9599 H   0  0  0  0  0  0  0  0  0  0  0  0
   -4.3552   20.3376  -32.4187 H   0  0  0  0  0  0  0  0  0  0  0  0
   -4.5190   21.3999  -33.8655 H   0  0  0  0  0  0  0  0  0  0  0  0
   -7.0508   23.0439  -32.9047 H   0  0  0  0  0  0  0  0  0  0  0  0
   -6.7511   24.9953  -31.0842 H   0  0  0  0  0  0  0  0  0  0  0  0
   -4.7130   25.4522  -29.1143 H   0  0  0  0  0  0  0  0  0  0  0  0
   -4.6552   24.5004  -25.4447 H   0  0  0  0  0  0  0  0  0  0  0  0
   -5.1206   25.3053  -26.9817 H   0  0  0  0  0  0  0  0  0  0  0  0
   -4.6537   23.5708  -26.9817 H   0  0  0  0  0  0  0  0  0  0  0  0
   -0.3431   26.8686  -24.0845 H   0  0  0  0  0  0  0  0  0  0  0  0
    2.2183   27.1745  -24.2102 H   0  0  0  0  0  0  0  0  0  0  0  0
    3.0759   26.5659  -25.6665 H   0  0  0  0  0  0  0  0  0  0  0  0
    2.3656   28.2158  -25.6665 H   0  0  0  0  0  0  0  0  0  0  0  0
   -1.6213   22.3790  -29.1619 H   0  0  0  0  0  0  0  0  0  0  0  0
   -2.8233   21.1936  -31.0320 H   0  0  0  0  0  0  0  0  0  0  0  0
  1  2  1  0
  2  3  1  0
  3  4  1  0
  4  5  1  0
  3  6  1  0
  6  7  1  0
  7  8  1  0
  8  9  1  0
  9 10  2  0
 10 11  1  0
 11 12  2  0
 12 13  1  0
 13 14  1  0
 14 15  1  0
 15 16  1  0
 15 17  2  0
 17 18  1  0
 18 19  2  0
 19 20  1  0
 20 21  1  0
 20 22  1  0
 22 23  2  0
 23 24  1  0
 24 25  2  0
 13 26  2  0
 26 27  1  0
 27 28  2  0
 28  8  1  0
 28 11  1  0
 24 14  1  0
 23 18  1  0
  1 29  1  0
  1 30  1  0
  1 31  1  0
  2 32  1  0
  2 33  1  0
  4 34  1  0
  4 35  1  0
  5 36  1  0
  5 37  1  0
  5 38  1  0
  6 39  1  0
  6 40  1  0
  7 41  1  0
  7 42  1  0
  9 43  1  0
 10 44  1  0
 12 45  1  0
 16 46  1  0
 16 47  1  0
 16 48  1  0
 19 49  1  0
 21 50  1  0
 21 51  1  0
 21 52  1  0
 26 53  1  0
 27 54  1  0
M  END
>  <UniqueID>  (4) 
4

>  <SMILES>  (4) 
CCN(CC)CCn1ccc2cc(-n3c(C)nc4cn(C)nc4c3=O)ccc21

>  <Energy>  (4) 
137.20573189777818

>  <Genealogy>  (4) 
CCN(CC)CCn1ccc2cc(-n3c(C)nc4cn(C)nc4c3=O)ccc21 (3D coordinates assigned)
CCN(CC)CCn1ccc2cc(-n3c(C)nc4cn(C)nc4c3=O)ccc21 (optimized conformer: 137.20573189777818 kcal/mol)

>  <smiles>  (4) 
CCN(CC)CCn1ccc2cc(-n3c(C)nc4cn(C)nc4c3=O)ccc21

>  <score_type>  (4) 
oracle

>  <origin>  (4) 
adg

>  <m_score__min__energy>  (4) 
-8.1999999999999993

>  <m_primary>  (4) 
energy

$$$$
4:0
     RDKit          3D

 32 34  0  0  0  0  0  0  0  0999 V2000
   -6.5437   19.5734  -33.5488 H   0  0  0  0  0  0  0  0  0  0  0  0
   -7.1370   20.2750  -32.9440 C   0  0  0  0  0  0  0  0  0  0  0  0
   -6.5420   21.3640  -32.3880 N   0  0  0  0  0  0  0  0  0  0  0  0
   -7.2350   22.2600  -31.6310 C   0  0  0  0  0  0  0  0  0  0  0  0
   -6.5360   23.4260  -31.0510 C   0  0  0  0  0  0  0  0  0  0  0  0
   -5.1770   23.5190  -31.0290 N   0  0  0  0  0  0  0  0  0  0  0  0
   -4.7570   24.6670  -30.4600 C   0  0  0  0  0  0  0  0  0  0  0  0
   -3.4950   24.9370  -30.3000 N   0  0  0  0  0  0  0  0  0  0  0  0
   -2.5100   24.0850  -29.6920 C   0  0  0  0  0  0  0  0  0  0  0  0
   -2.6500   22.6850  -29.7080 C   0  0  0  0  0  0  0  0  0  0  0  0
   -3.5083   22.2266  -30.2210 H   0  0  0  0  0  0  0  0  0  0  0  0
   -1.7050   21.8750  -29.0760 C   0  0  0  0  0  0  0  0  0  0  0  0
   -1.8116   20.7806  -29.1060 H   0  0  0  0  0  0  0  0  0  0  0  0
   -0.6250   22.4520  -28.4060 C   0  0  0  0  0  0  0  0  0  0  0  0
    0.1238   21.8116  -27.9168 H   0  0  0  0  0  0  0  0  0  0  0  0
   -0.4940   23.8420  -28.3560 C   0  0  0  0  0  0  0  0  0  0  0  0
    0.3532   24.2927  -27.8184 H   0  0  0  0  0  0  0  0  0  0  0  0
   -1.4420   24.6700  -28.9910 C   0  0  0  0  0  0  0  0  0  0  0  0
   -1.3520   26.0710  -28.9510 O   0  0  0  0  0  0  0  0  0  0  0  0
   -0.8670   26.8160  -27.8400 C   0  0  0  0  0  0  0  0  0  0  0  0
   -1.1838   26.3293  -26.9058 H   0  0  0  0  0  0  0  0  0  0  0  0
    0.2316   26.8573  -27.8777 H   0  0  0  0  0  0  0  0  0  0  0  0
   -1.2738   27.8373  -27.8777 H   0  0  0  0  0  0  0  0  0  0  0  0
   -6.0550   25.6090  -29.9340 S   0  0  0  0  0  0  0  0  0  0  0  0
   -7.2050   24.5100  -30.4800 C   0  0  0  0  0  0  0  0  0  0  0  0
   -8.2961   24.6254  -30.4008 H   0  0  0  0  0  0  0  0  0  0  0  0
   -8.6090   22.0590  -31.4140 C   0  0  0  0  0  0  0  0  0  0  0  0
   -9.1849   22.7724  -30.8063 H   0  0  0  0  0  0  0  0  0  0  0  0
   -9.2370   20.9450  -31.9770 C   0  0  0  0  0  0  0  0  0  0  0  0
  -10.3115   20.7765  -31.8125 H   0  0  0  0  0  0  0  0  0  0  0  0
   -8.4990   20.0470  -32.7480 C   0  0  0  0  0  0  0  0  0  0  0  0
   -8.9858   19.1685  -33.1966 H   0  0  0  0  0  0  0  0  0  0  0  0
  1  2  1  0
  2  3  2  0
  3  4  1  0
  4  5  1  0
  5  6  1  0
  6  7  1  0
  7  8  2  0
  8  9  1  0
  9 10  2  0
 10 11  1  0
 10 12  1  0
 12 13  1  0
 12 14  2  0
 14 15  1  0
 14 16  1  0
 16 17  1  0
 16 18  2  0
 18 19  1  0
 19 20  1  0
 20 21  1  0
 20 22  1  0
 20 23  1  0
  7 24  1  0
 24 25  1  0
 25 26  1  0
  4 27  2  0
 27 28  1  0
 27 29  1  0
 29 30  1  0
 29 31  2  0
 31 32  1  0
 31  2  1  0
 25  5  2  0
 18  9  1  0
M  CHG  1   6  -1
M  END
>  <UniqueID>  (5) 
5

>  <SMILES>  (5) 
COc1ccccc1/N=c1/[n-]c(-c2ccccn2)cs1

>  <Energy>  (5) 
72.70498766771104

>  <Genealogy>  (5) 
COc1ccccc1N=c1[n-]c(-c2ccccn2)cs1 (protonated)
COc1ccccc1/N=c1/[n-]c(-c2ccccn2)cs1 (cis-trans isomerization)
COc1ccccc1/N=c1/[n-]c(-c2ccccn2)cs1 (3D coordinates assigned)
COc1ccccc1/N=c1/[n-]c(-c2ccccn2)cs1 (optimized conformer: 72.70498766771104 kcal/mol)

>  <smiles>  (5) 
COc1ccccc1N=c1[nH]c(-c2ccccn2)cs1

>  <score_type>  (5) 
oracle

>  <origin>  (5) 
adg

>  <m_score__min__energy>  (5) 
-9.3599999999999994

>  <m_primary>  (5) 
energy

$$$$
5:0
     RDKit          3D

 47 48  0  0  0  0  0  0  0  0999 V2000
    1.1110   28.6670  -24.9520 C   0  0  0  0  0  0  0  0  0  0  0  0
    1.0590   27.6380  -25.9350 O   0  0  0  0  0  0  0  0  0  0  0  0
   -0.0260   26.7720  -26.1490 C   0  0  0  0  0  0  0  0  0  0  0  0
   -0.4280   26.5940  -27.4100 C   0  0  0  0  0  0  0  0  0  0  0  0
   -1.5680   25.7330  -27.7600 C   0  0  0  0  0  0  0  0  0  0  0  0
   -1.9170   25.6550  -28.9690 O   0  0  0  0  0  0  0  0  0  0  0  0
   -2.3690   25.0120  -26.6970 C   0  0  1  0  0  0  0  0  0  0  0  0
   -2.7710   23.6350  -27.1930 C   0  0  0  0  0  0  0  0  0  0  0  0
   -4.1620   23.4390  -27.7670 C   0  0  0  0  0  0  0  0  0  0  0  0
   -4.5010   24.5430  -28.6560 N   0  0  0  0  0  0  0  0  0  0  0  0
   -4.5920   24.4140  -30.0790 C   0  0  0  0  0  0  0  0  0  0  0  0
   -3.8100   25.0610  -30.8280 O   0  0  0  0  0  0  0  0  0  0  0  0
   -5.5870   23.4550  -30.6720 C   0  0  0  0  0  0  0  0  0  0  0  0
   -6.9430   24.1350  -30.8880 C   0  0  0  0  0  0  0  0  0  0  0  0
   -5.0440   22.8810  -31.9830 C   0  0  0  0  0  0  0  0  0  0  0  0
   -1.8500   22.6480  -27.0920 C   0  0  0  0  0  0  0  0  0  0  0  0
   -2.0730   21.2390  -27.5970 C   0  0  0  0  0  0  0  0  0  0  0  0
   -1.9770   21.1940  -29.0200 O   0  0  0  0  0  0  0  0  0  0  0  0
   -1.2620   22.1330  -29.7710 C   0  0  0  0  0  0  0  0  0  0  0  0
   -1.7970   23.4410  -29.9530 N   0  0  0  0  0  0  0  0  0  0  0  0
   -0.1510   21.8350  -30.2880 O   0  0  0  0  0  0  0  0  0  0  0  0
   -0.5600   23.0010  -26.3880 C   0  0  0  0  0  0  0  0  0  0  0  0
   -0.8350   23.6730  -25.1730 O   0  0  0  0  0  0  0  0  0  0  0  0
   -1.5980   24.8690  -25.3430 C   0  0  1  0  0  0  0  0  0  0  0  0
   -0.7250   26.0580  -25.0500 C   0  0  0  0  0  0  0  0  0  0  0  0
   -0.5680   26.4110  -23.8510 O   0  0  0  0  0  0  0  0  0  0  0  0
    1.0883   28.2170  -23.9485 H   0  0  0  0  0  0  0  0  0  0  0  0
    2.0395   29.2441  -25.0741 H   0  0  0  0  0  0  0  0  0  0  0  0
    0.2455   29.3348  -25.0741 H   0  0  0  0  0  0  0  0  0  0  0  0
    0.1133   27.1102  -28.2165 H   0  0  0  0  0  0  0  0  0  0  0  0
   -3.2604   25.6270  -26.5043 H   0  0  0  0  0  0  0  0  0  0  0  0
   -4.1922   22.4955  -28.3318 H   0  0  0  0  0  0  0  0  0  0  0  0
   -4.8889   23.4069  -26.9420 H   0  0  0  0  0  0  0  0  0  0  0  0
   -5.7411   22.6266  -29.9649 H   0  0  0  0  0  0  0  0  0  0  0  0
   -7.3982   24.3633  -29.9130 H   0  0  0  0  0  0  0  0  0  0  0  0
   -6.7995   25.0678  -31.4531 H   0  0  0  0  0  0  0  0  0  0  0  0
   -7.6048   23.4621  -31.4531 H   0  0  0  0  0  0  0  0  0  0  0  0
   -4.3035   22.0982  -31.7617 H   0  0  0  0  0  0  0  0  0  0  0  0
   -5.8716   22.4489  -32.5647 H   0  0  0  0  0  0  0  0  0  0  0  0
   -4.5667   23.6834  -32.5647 H   0  0  0  0  0  0  0  0  0  0  0  0
   -1.3118   20.5745  -27.1622 H   0  0  0  0  0  0  0  0  0  0  0  0
   -3.0798   20.9109  -27.2991 H   0  0  0  0  0  0  0  0  0  0  0  0
   -2.7150   23.6950  -29.5270 H   0  0  0  0  0  0  0  0  0  0  0  0
   -1.2760   24.1540  -30.5100 H   0  0  0  0  0  0  0  0  0  0  0  0
    0.0016   22.0795  -26.1747 H   0  0  0  0  0  0  0  0  0  0  0  0
    0.0344   23.6609  -27.0369 H   0  0  0  0  0  0  0  0  0  0  0  0
   -2.4197   24.8096  -24.6141 H   0  0  0  0  0  0  0  0  0  0  0  0
  1  2  1  0
  2  3  1  0
  3  4  2  0
  4  5  1  0
  5  6  2  0
  5  7  1  0
  7  8  1  0
  8  9  1  0
  9 10  1  0
 10 11  1  0
 11 12  2  0
 11 13  1  0
 13 14  1  0
 13 15  1  0
  8 16  2  0
 16 17  1  0
 17 18  1  0
 18 19  1  0
 19 20  1  0
 19 21  2  0
 16 22  1  0
 22 23  1  0
 23 24  1  0
 24 25  1  0
 25 26  2  0
 25  3  1  0
 24  7  1  0
  1 27  1  0
  1 28  1  0
  1 29  1  0
  4 30  1  0
  7 31  1  1
  9 32  1  0
  9 33  1  0
 13 34  1  0
 14 35  1  0
 14 36  1  0
 14 37  1  0
 15 38  1  0
 15 39  1  0
 15 40  1  0
 17 41  1  0
 17 42  1  0
 20 43  1  0
 20 44  1  0
 22 45  1  0
 22 46  1  0
 24 47  1  1
M  CHG  1  10  -1
M  END
>  <UniqueID>  (6) 
6

>  <SMILES>  (6) 
COC1=CC(=O)[C@H]2C(C[N-]C(=O)C(C)C)=C(COC(N)=O)CO[C@H]2C1=O

>  <Energy>  (6) 
46.9191183683475

>  <Genealogy>  (6) 
COC1=CC(=O)C2C(C[N-]C(=O)C(C)C)=C(COC(N)=O)COC2C1=O (protonated)
COC1=CC(=O)[C@H]2C(C[N-]C(=O)C(C)C)=C(COC(N)=O)CO[C@H]2C1=O (chirality)
COC1=CC(=O)[C@H]2C(C[N-]C(=O)C(C)C)=C(COC(N)=O)CO[C@H]2C1=O (3D coordinates assigned)
COC1=CC(=O)[C@H]2C(C[N-]C(=O)C(C)C)=C(COC(N)=O)CO[C@H]2C1=O (nonaromatic ring conformer: 46.9191183683475 kcal/mol)

>  <smiles>  (6) 
COC1=CC(=O)C2C(CNC(=O)C(C)C)=C(COC(N)=O)COC2C1=O

>  <score_type>  (6) 
oracle

>  <origin>  (6) 
adg

>  <m_score__min__energy>  (6) 
-8.2599999999999998

>  <m_primary>  (6) 
energy

$$$$
6:0
     RDKit          3D

 40 43  0  0  1  0  0  0  0  0999 V2000
    0.7200   24.1250  -28.2040 C   0  0  0  0  0  0  0  0  0  0  0  0
   -0.3650   24.9280  -28.6280 O   0  0  0  0  0  0  0  0  0  0  0  0
   -1.5030   24.9620  -27.8360 C   0  0  0  0  0  0  0  0  0  0  0  0
   -1.5990   25.7010  -26.6740 C   0  0  0  0  0  0  0  0  0  0  0  0
   -2.7890   25.6390  -25.9930 C   0  0  0  0  0  0  0  0  0  0  0  0
   -3.8800   24.9040  -26.3750 C   0  0  0  0  0  0  0  0  0  0  0  0
   -3.7730   24.1710  -27.5360 C   0  0  0  0  0  0  0  0  0  0  0  0
   -2.6030   24.2000  -28.2560 C   0  0  0  0  0  0  0  0  0  0  0  0
   -2.4560   23.4030  -29.5560 C   0  0  0  0  0  0  0  0  0  0  0  0
   -3.2820   24.1720  -30.4080 N   0  0  0  0  0  0  0  0  0  0  0  0
   -4.5140   24.1670  -30.4490 C   0  0  0  0  0  0  0  0  0  0  0  0
   -5.1760   25.2350  -29.9370 N   0  0  0  0  0  0  0  0  0  0  0  0
   -6.5060   25.3560  -29.9160 C   0  0  0  0  0  0  0  0  0  0  0  0
   -7.2370   24.3620  -30.4310 N   0  0  0  0  0  0  0  0  0  0  0  0
   -6.6190   23.2930  -30.9450 C   0  0  0  0  0  0  0  0  0  0  0  0
   -5.2380   23.1390  -30.9810 C   0  0  0  0  0  0  0  0  0  0  0  0
   -4.6060   22.0620  -31.4990 C   0  0  0  0  0  0  0  0  0  0  0  0
   -5.4360   21.0750  -32.0150 N   0  0  0  0  0  0  0  0  0  0  0  0
   -6.7510   21.2060  -31.9880 C   0  0  0  0  0  0  0  0  0  0  0  0
   -7.3960   22.2990  -31.4630 C   0  0  0  0  0  0  0  0  0  0  0  0
   -8.7500   22.0900  -31.6060 C   0  0  0  0  0  0  0  0  0  0  0  0
   -8.8600   20.8940  -32.2040 N   0  0  0  0  0  0  0  0  0  0  0  0
   -7.6930   20.3620  -32.4350 N   0  0  0  0  0  0  0  0  0  0  0  0
   -7.4630   19.0630  -33.0740 C   0  0  0  0  0  0  0  0  0  0  0  0
    0.7514   24.1018  -27.1047 H   0  0  0  0  0  0  0  0  0  0  0  0
    0.5918   23.1025  -28.5888 H   0  0  0  0  0  0  0  0  0  0  0  0
    1.6604   24.5464  -28.5888 H   0  0  0  0  0  0  0  0  0  0  0  0
   -0.7597   26.3120  -26.3103 H   0  0  0  0  0  0  0  0  0  0  0  0
   -2.8734   26.2263  -25.0667 H   0  0  0  0  0  0  0  0  0  0  0  0
   -4.8042   24.8994  -25.7785 H   0  0  0  0  0  0  0  0  0  0  0  0
   -4.6213   23.5643  -27.8858 H   0  0  0  0  0  0  0  0  0  0  0  0
   -1.4137   23.3824  -29.9070 H   0  0  0  0  0  0  0  0  0  0  0  0
   -2.7280   22.3398  -29.4818 H   0  0  0  0  0  0  0  0  0  0  0  0
   -4.6250   26.0200  -29.5300 H   0  0  0  0  0  0  0  0  0  0  0  0
   -6.9862   26.2480  -29.4873 H   0  0  0  0  0  0  0  0  0  0  0  0
   -3.5096   21.9734  -31.5110 H   0  0  0  0  0  0  0  0  0  0  0  0
   -9.5658   22.7598  -31.2964 H   0  0  0  0  0  0  0  0  0  0  0  0
   -7.3266   18.2929  -32.3005 H   0  0  0  0  0  0  0  0  0  0  0  0
   -8.3293   18.8041  -33.7005 H   0  0  0  0  0  0  0  0  0  0  0  0
   -6.5605   19.1172  -33.7005 H   0  0  0  0  0  0  0  0  0  0  0  0
  1  2  1  0
  2  3  1  0
  3  4  2  0
  4  5  1  0
  5  6  2  0
  6  7  1  0
  7  8  2  0
  8  9  1  0
  9 10  1  0
 10 11  2  0
 11 12  1  0
 12 13  1  0
 13 14  2  0
 14 15  1  0
 15 16  2  0
 16 17  1  0
 17 18  2  0
 18 19  1  0
 19 20  2  0
 20 21  1  0
 21 22  2  0
 22 23  1  0
 23 24  1  0
  8  3  1  0
 16 11  1  0
 23 19  1  0
 20 15  1  0
  1 25  1  0
  1 26  1  0
  1 27  1  0
  4 28  1  0
  5 29  1  0
  6 30  1  0
  7 31  1  0
  9 32  1  0
  9 33  1  0
 12 34  1  0
 13 35  1  0
 17 36  1  0
 21 37  1  0
 24 38  1  0
 24 39  1  0
 24 40  1  0
M  END
>  <smiles>  (7) 
COc1ccccc1CN=c1[nH]cnc2c1cnc1c2cnn1C

>  <score_type>  (7) 
oracle

>  <origin>  (7) 
adg

>  <m_score__min__energy>  (7) 
-8.4499999999999993

>  <m_primary>  (7) 
energy

$$$$
7:0
     RDKit          3D

 54 56  0  0  0  0  0  0  0  0999 V2000
   -6.5250   16.6580  -33.8550 C   0  0  0  0  0  0  0  0  0  0  0  0
   -7.2450   17.4370  -32.7550 C   0  0  0  0  0  0  0  0  0  0  0  0
   -6.3990   17.5400  -31.4840 C   0  0  0  0  0  0  0  0  0  0  0  0
   -5.3970   18.6080  -31.6330 N   0  0  0  0  0  0  0  0  0  0  0  0
   -5.6820   19.6780  -32.6190 C   0  0  2  0  0  0  0  0  0  0  0  0
   -4.5200   20.0460  -33.5630 C   0  0  0  0  0  0  0  0  0  0  0  0
   -3.1970   20.3820  -32.8890 C   0  0  0  0  0  0  0  0  0  0  0  0
   -3.1960   21.3800  -31.7490 C   0  0  0  0  0  0  0  0  0  0  0  0
   -1.9440   21.5580  -31.1370 C   0  0  0  0  0  0  0  0  0  0  0  0
   -1.7770   22.3630  -30.0000 C   0  0  0  0  0  0  0  0  0  0  0  0
   -0.5110   22.5380  -29.4180 O   0  0  0  0  0  0  0  0  0  0  0  0
   -0.0570   21.8940  -28.2320 C   0  0  0  0  0  0  0  0  0  0  0  0
   -2.9050   22.9930  -29.4370 C   0  0  0  0  0  0  0  0  0  0  0  0
   -2.8580   23.7870  -28.2750 O   0  0  0  0  0  0  0  0  0  0  0  0
   -1.8930   24.7850  -27.9650 C   0  0  0  0  0  0  0  0  0  0  0  0
   -4.1590   22.8330  -30.0390 C   0  0  0  0  0  0  0  0  0  0  0  0
   -5.2540   23.4570  -29.4300 O   0  0  0  0  0  0  0  0  0  0  0  0
   -5.3990   24.8730  -29.4160 C   0  0  0  0  0  0  0  0  0  0  0  0
   -4.3240   22.0750  -31.2290 C   0  0  0  0  0  0  0  0  0  0  0  0
   -5.6820   22.0970  -31.8630 C   0  0  0  0  0  0  0  0  0  0  0  0
   -6.1810   23.3720  -32.1600 C   0  0  0  0  0  0  0  0  0  0  0  0
   -7.4980   23.7700  -32.3320 C   0  0  0  0  0  0  0  0  0  0  0  0
   -8.6460   23.0600  -32.0110 C   0  0  0  0  0  0  0  0  0  0  0  0
   -8.7700   21.7070  -31.7100 C   0  0  0  0  0  0  0  0  0  0  0  0
   -9.9160   21.3020  -31.3740 O   0  0  0  0  0  0  0  0  0  0  0  0
   -7.7740   20.7410  -31.8440 C   0  0  0  0  0  0  0  0  0  0  0  0
   -6.4000   20.9020  -32.0750 C   0  0  0  0  0  0  0  0  0  0  0  0
   -5.8455   15.9229  -33.3990 H   0  0  0  0  0  0  0  0  0  0  0  0
   -7.2652   16.1356  -34.4789 H   0  0  0  0  0  0  0  0  0  0  0  0
   -5.9460   17.3548  -34.4789 H   0  0  0  0  0  0  0  0  0  0  0  0
   -7.4624   18.4513  -33.1211 H   0  0  0  0  0  0  0  0  0  0  0  0
   -8.1717   16.8992  -32.5060 H   0  0  0  0  0  0  0  0  0  0  0  0
   -7.0520   17.7695  -30.6291 H   0  0  0  0  0  0  0  0  0  0  0  0
   -5.8847   16.5828  -31.3133 H   0  0  0  0  0  0  0  0  0  0  0  0
   -5.2060   19.0330  -30.6950 H   0  0  0  0  0  0  0  0  0  0  0  0
   -6.4210   19.1748  -33.2599 H   0  0  0  0  0  0  0  0  0  0  0  0
   -4.3486   19.1924  -34.2353 H   0  0  0  0  0  0  0  0  0  0  0  0
   -4.8342   20.9661  -34.0774 H   0  0  0  0  0  0  0  0  0  0  0  0
   -2.7852   19.4407  -32.4961 H   0  0  0  0  0  0  0  0  0  0  0  0
   -2.6121   20.8766  -33.6785 H   0  0  0  0  0  0  0  0  0  0  0  0
   -1.0663   21.0499  -31.5630 H   0  0  0  0  0  0  0  0  0  0  0  0
   -0.4378   22.4342  -27.3527 H   0  0  0  0  0  0  0  0  0  0  0  0
   -0.4253   20.8577  -28.2135 H   0  0  0  0  0  0  0  0  0  0  0  0
    1.0428   21.8926  -28.2135 H   0  0  0  0  0  0  0  0  0  0  0  0
   -1.8014   24.8798  -26.8729 H   0  0  0  0  0  0  0  0  0  0  0  0
   -0.9200   24.4992  -28.3912 H   0  0  0  0  0  0  0  0  0  0  0  0
   -2.2114   25.7478  -28.3912 H   0  0  0  0  0  0  0  0  0  0  0  0
   -5.4353   25.2276  -28.3754 H   0  0  0  0  0  0  0  0  0  0  0  0
   -4.5434   25.3343  -29.9309 H   0  0  0  0  0  0  0  0  0  0  0  0
   -6.3303   25.1513  -29.9309 H   0  0  0  0  0  0  0  0  0  0  0  0
   -5.4261   24.1642  -32.2718 H   0  0  0  0  0  0  0  0  0  0  0  0
   -7.6506   24.7653  -32.7748 H   0  0  0  0  0  0  0  0  0  0  0  0
   -9.5792   23.6421  -31.9920 H   0  0  0  0  0  0  0  0  0  0  0  0
   -8.1159   19.6992  -31.7556 H   0  0  0  0  0  0  0  0  0  0  0  0
  1  2  1  0
  2  3  1  0
  3  4  1  0
  4  5  1  0
  5  6  1  0
  6  7  1  0
  7  8  1  0
  8  9  2  0
  9 10  1  0
 10 11  1  0
 11 12  1  0
 10 13  2  0
 13 14  1  0
 14 15  1  0
 13 16  1  0
 16 17  1  0
 17 18  1  0
 16 19  2  0
 19 20  1  0
 20 21  2  0
 21 22  1  0
 22 23  2  0
 23 24  1  0
 24 25  2  0
 24 26  1  0
 26 27  2  0
 27  5  1  0
 19  8  1  0
 27 20  1  0
  1 28  1  0
  1 29  1  0
  1 30  1  0
  2 31  1  0
  2 32  1  0
  3 33  1  0
  3 34  1  0
  4 35  1  0
  5 36  1  6
  6 37  1  0
  6 38  1  0
  7 39  1  0
  7 40  1  0
  9 41  1  0
 12 42  1  0
 12 43  1  0
 12 44  1  0
 15 45  1  0
 15 46  1  0
 15 47  1  0
 18 48  1  0
 18 49  1  0
 18 50  1  0
 21 51  1  0
 22 52  1  0
 23 53  1  0
 26 54  1  0
M  END
>  <UniqueID>  (8) 
7

>  <SMILES>  (8) 
CCCN[C@@H]1CCc2cc(OC)c(OC)c(OC)c2-c2cccc(=O)cc21

>  <Energy>  (8) 
117.23357291786417

>  <Genealogy>  (8) 
CCCN[C@@H]1CCc2cc(OC)c(OC)c(OC)c2-c2cccc(=O)cc21 (chirality)
CCCN[C@@H]1CCc2cc(OC)c(OC)c(OC)c2-c2cccc(=O)cc21 (3D coordinates assigned)
CCCN[C@@H]1CCc2cc(OC)c(OC)c(OC)c2-c2cccc(=O)cc21 (nonaromatic ring conformer: 117.23357291786417 kcal/mol)

>  <smiles>  (8) 
CCCNC1CCc2cc(OC)c(OC)c(OC)c2-c2cccc(=O)cc21

>  <score_type>  (8) 
oracle

>  <origin>  (8) 
adg

>  <m_score__min__energy>  (8) 
-6.3700000000000001

>  <m_primary>  (8) 
energy

$$$$
8:0
     RDKit          3D

 32 34  0  0  0  0  0  0  0  0999 V2000
   -8.1966   17.0185  -31.7691 H   0  0  0  0  0  0  0  0  0  0  0  0
   -7.6260   17.7620  -32.3450 C   0  0  0  0  0  0  0  0  0  0  0  0
   -6.8330   17.3510  -33.4190 C   0  0  0  0  0  0  0  0  0  0  0  0
   -6.7818   16.2847  -33.6841 H   0  0  0  0  0  0  0  0  0  0  0  0
   -6.1030   18.2880  -34.1600 C   0  0  0  0  0  0  0  0  0  0  0  0
   -5.3220   17.8260  -35.2290 O   0  0  0  0  0  0  0  0  0  0  0  0
   -4.1210   17.0760  -35.0830 C   0  0  0  0  0  0  0  0  0  0  0  0
   -3.9019   16.9392  -34.0138 H   0  0  0  0  0  0  0  0  0  0  0  0
   -4.2423   16.0928  -35.5612 H   0  0  0  0  0  0  0  0  0  0  0  0
   -3.2908   17.6164  -35.5612 H   0  0  0  0  0  0  0  0  0  0  0  0
   -6.1760   19.6510  -33.8100 C   0  0  0  0  0  0  0  0  0  0  0  0
   -5.6049   20.3937  -34.3863 H   0  0  0  0  0  0  0  0  0  0  0  0
   -6.9730   20.0690  -32.7300 C   0  0  0  0  0  0  0  0  0  0  0  0
   -7.0430   21.4990  -32.3710 C   0  0  0  0  0  0  0  0  0  0  0  0
   -8.1930   22.1990  -32.2430 N   0  0  0  0  0  0  0  0  0  0  0  0
   -7.8280   23.4270  -31.9160 N   0  0  0  0  0  0  0  0  0  0  0  0
   -8.4810   24.2230  -31.7430 H   0  0  0  0  0  0  0  0  0  0  0  0
   -6.4870   23.4370  -31.8560 C   0  0  0  0  0  0  0  0  0  0  0  0
   -5.7890   24.4920  -31.5590 N   0  0  0  0  0  0  0  0  0  0  0  0
   -4.8800   24.5990  -30.4510 C   0  0  0  0  0  0  0  0  0  0  0  0
   -3.8400   25.3060  -30.5400 O   0  0  0  0  0  0  0  0  0  0  0  0
   -5.1500   23.8850  -29.1540 C   0  0  0  0  0  0  0  0  0  0  0  0
   -6.2447   23.9093  -29.2587 H   0  0  0  0  0  0  0  0  0  0  0  0
   -4.1840   24.1570  -28.0100 C   0  0  0  0  0  0  0  0  0  0  0  0
   -3.3862   24.9048  -28.1298 H   0  0  0  0  0  0  0  0  0  0  0  0
   -4.2907   24.4403  -26.9525 H   0  0  0  0  0  0  0  0  0  0  0  0
   -4.1130   22.8410  -28.7690 C   0  0  0  0  0  0  0  0  0  0  0  0
   -3.2637   22.6369  -29.4376 H   0  0  0  0  0  0  0  0  0  0  0  0
   -4.1470   21.7782  -28.4875 H   0  0  0  0  0  0  0  0  0  0  0  0
   -5.9910   22.2550  -32.1330 O   0  0  0  0  0  0  0  0  0  0  0  0
   -7.6970   19.1120  -32.0000 C   0  0  0  0  0  0  0  0  0  0  0  0
   -8.3228   19.4283  -31.1525 H   0  0  0  0  0  0  0  0  0  0  0  0
  1  2  1  0
  2  3  2  0
  3  4  1  0
  3  5  1  0
  5  6  1  0
  6  7  1  0
  7  8  1  0
  7  9  1  0
  7 10  1  0
  5 11  2  0
 11 12  1  0
 11 13  1  0
 13 14  1  0
 14 15  2  0
 15 16  1  0
 16 17  1  0
 16 18  1  0
 18 19  2  0
 19 20  1  0
 20 21  2  0
 20 22  1  0
 22 23  1  0
 22 24  1  0
 24 25  1  0
 24 26  1  0
 24 27  1  0
 27 28  1  0
 27 29  1  0
 18 30  1  0
 13 31  2  0
 31 32  1  0
 31  2  1  0
 30 14  1  0
 27 22  1  0
M  END
>  <UniqueID>  (9) 
8

>  <SMILES>  (9) 
COc1cccc(-c2n[nH]/c(=N/C(=O)C3CC3)o2)c1

>  <Energy>  (9) 
334.4079738792835

>  <Genealogy>  (9) 
COc1cccc(-c2n[nH]/c(=N/C(=O)C3CC3)o2)c1 (cis-trans isomerization)
COc1cccc(-c2n[nH]/c(=N/C(=O)C3CC3)o2)c1 (3D coordinates assigned)
COc1cccc(-c2n[nH]/c(=N/C(=O)C3CC3)o2)c1 (nonaromatic ring conformer: 334.4079738792835 kcal/mol)

>  <smiles>  (9) 
COc1cccc(-c2n[nH]c(=NC(=O)C3CC3)o2)c1

>  <score_type>  (9) 
oracle

>  <origin>  (9) 
adg

>  <m_score__min__energy>  (9) 
-7.29

>  <m_primary>  (9) 
energy

$$$$
9:0
     RDKit          3D

 62 64  0  0  0  0  0  0  0  0999 V2000
    1.5630   15.7100  -27.1210 C   0  0  0  0  0  0  0  0  0  0  0  0
    0.5760   16.3720  -27.9040 O   0  0  0  0  0  0  0  0  0  0  0  0
    0.3050   17.7480  -27.8380 C   0  0  0  0  0  0  0  0  0  0  0  0
   -0.8380   18.2640  -27.1980 C   0  0  0  0  0  0  0  0  0  0  0  0
   -1.0610   19.6440  -27.1580 C   0  0  0  0  0  0  0  0  0  0  0  0
   -0.1510   20.5230  -27.7570 C   0  0  0  0  0  0  0  0  0  0  0  0
   -0.4290   22.2620  -27.6700 S   0  0  0  0  0  0  0  0  0  0  0  0
   -0.9450   22.6290  -26.3070 O   0  0  0  0  0  0  0  0  0  0  0  0
    0.8860   22.9600  -27.8810 O   0  0  0  0  0  0  0  0  0  0  0  0
   -1.5580   22.7660  -28.9100 N   0  0  0  0  0  0  0  0  0  0  0  0
   -2.7300   21.8730  -28.9950 C   0  0  0  0  0  0  0  0  0  0  0  0
   -3.7370   22.0770  -27.8520 C   0  0  0  0  0  0  0  0  0  0  0  0
   -3.8600   23.5390  -27.3900 C   0  0  0  0  0  0  0  0  0  0  0  0
   -3.3380   24.5450  -28.4250 C   0  0  2  0  0  0  0  0  0  0  0  0
   -4.2830   24.6830  -29.6030 C   0  0  0  0  0  0  0  0  0  0  0  0
   -3.8990   25.2210  -30.6770 O   0  0  0  0  0  0  0  0  0  0  0  0
   -5.6330   24.2110  -29.4840 N   0  0  0  0  0  0  0  0  0  0  0  0
   -6.6360   24.4190  -30.5280 C   0  0  0  0  0  0  0  0  0  0  0  0
   -6.0840   24.0490  -31.9100 C   0  0  0  0  0  0  0  0  0  0  0  0
   -6.1100   22.5580  -32.1290 C   0  0  0  0  0  0  0  0  0  0  0  0
   -4.9180   21.8570  -32.3600 C   0  0  0  0  0  0  0  0  0  0  0  0
   -4.9440   20.4840  -32.6060 C   0  0  0  0  0  0  0  0  0  0  0  0
   -6.1670   19.7870  -32.6320 C   0  0  0  0  0  0  0  0  0  0  0  0
   -6.2330   18.4060  -32.8770 O   0  0  0  0  0  0  0  0  0  0  0  0
   -6.1030   17.8090  -34.1640 C   0  0  0  0  0  0  0  0  0  0  0  0
   -7.3660   20.4830  -32.4120 C   0  0  0  0  0  0  0  0  0  0  0  0
   -8.5710   19.7630  -32.4500 O   0  0  0  0  0  0  0  0  0  0  0  0
   -8.8910   18.6800  -31.5820 C   0  0  0  0  0  0  0  0  0  0  0  0
   -7.3320   21.8700  -32.1650 C   0  0  0  0  0  0  0  0  0  0  0  0
   -1.8740   24.2150  -28.8260 C   0  0  0  0  0  0  0  0  0  0  0  0
    0.9910   20.0130  -28.3890 C   0  0  0  0  0  0  0  0  0  0  0  0
    1.2140   18.6330  -28.4310 C   0  0  0  0  0  0  0  0  0  0  0  0
    1.3434   15.8573  -26.0532 H   0  0  0  0  0  0  0  0  0  0  0  0
    1.5539   14.6346  -27.3523 H   0  0  0  0  0  0  0  0  0  0  0  0
    2.5545   16.1264  -27.3523 H   0  0  0  0  0  0  0  0  0  0  0  0
   -1.5586   17.5789  -26.7275 H   0  0  0  0  0  0  0  0  0  0  0  0
   -1.9548   20.0402  -26.6540 H   0  0  0  0  0  0  0  0  0  0  0  0
   -3.2432   22.0612  -29.9496 H   0  0  0  0  0  0  0  0  0  0  0  0
   -2.3578   20.8406  -28.9195 H   0  0  0  0  0  0  0  0  0  0  0  0
   -4.7253   21.7368  -28.1950 H   0  0  0  0  0  0  0  0  0  0  0  0
   -3.3690   21.4980  -26.9922 H   0  0  0  0  0  0  0  0  0  0  0  0
   -4.9206   23.7562  -27.1950 H   0  0  0  0  0  0  0  0  0  0  0  0
   -3.2432   23.6496  -26.4860 H   0  0  0  0  0  0  0  0  0  0  0  0
   -3.3113   25.5425  -27.9620 H   0  0  0  0  0  0  0  0  0  0  0  0
   -5.9220   23.7060  -28.6170 H   0  0  0  0  0  0  0  0  0  0  0  0
   -7.5134   23.7916  -30.3125 H   0  0  0  0  0  0  0  0  0  0  0  0
   -6.9128   25.4836  -30.5375 H   0  0  0  0  0  0  0  0  0  0  0  0
   -6.6974   24.5354  -32.6828 H   0  0  0  0  0  0  0  0  0  0  0  0
   -5.0400   24.3905  -31.9696 H   0  0  0  0  0  0  0  0  0  0  0  0
   -3.9572   22.3924  -32.3472 H   0  0  0  0  0  0  0  0  0  0  0  0
   -4.0027   19.9424  -32.7808 H   0  0  0  0  0  0  0  0  0  0  0  0
   -5.8702   16.7399  -34.0505 H   0  0  0  0  0  0  0  0  0  0  0  0
   -7.0468   17.9220  -34.7176 H   0  0  0  0  0  0  0  0  0  0  0  0
   -5.2916   18.3042  -34.7176 H   0  0  0  0  0  0  0  0  0  0  0  0
   -8.7943   19.0073  -30.5363 H   0  0  0  0  0  0  0  0  0  0  0  0
   -9.9243   18.3526  -31.7697 H   0  0  0  0  0  0  0  0  0  0  0  0
   -8.2016   17.8436  -31.7697 H   0  0  0  0  0  0  0  0  0  0  0  0
   -8.2714   22.4177  -31.9991 H   0  0  0  0  0  0  0  0  0  0  0  0
   -1.6804   24.6642  -29.8113 H   0  0  0  0  0  0  0  0  0  0  0  0
   -1.2369   24.6230  -28.0275 H   0  0  0  0  0  0  0  0  0  0  0  0
    1.7139   20.6999  -28.8533 H   0  0  0  0  0  0  0  0  0  0  0  0
    2.1100   18.2398  -28.9335 H   0  0  0  0  0  0  0  0  0  0  0  0
  1  2  1  0
  2  3  1  0
  3  4  2  0
  4  5  1  0
  5  6  2  0
  6  7  1  0
  7  8  2  0
  7  9  2  0
  7 10  1  0
 10 11  1  0
 11 12  1  0
 12 13  1  0
 13 14  1  0
 14 15  1  0
 15 16  2  0
 15 17  1  0
 17 18  1  0
 18 19  1  0
 19 20  1  0
 20 21  2  0
 21 22  1  0
 22 23  2  0
 23 24  1  0
 24 25  1  0
 23 26  1  0
 26 27  1  0
 27 28  1  0
 26 29  2  0
 14 30  1  0
  6 31  1  0
 31 32  2  0
 32  3  1  0
 30 10  1  0
 29 20  1  0
  1 33  1  0
  1 34  1  0
  1 35  1  0
  4 36  1  0
  5 37  1  0
 11 38  1  0
 11 39  1  0
 12 40  1  0
 12 41  1  0
 13 42  1  0
 13 43  1  0
 14 44  1  1
 17 45  1  0
 18 46  1  0
 18 47  1  0
 19 48  1  0
 19 49  1  0
 21 50  1  0
 22 51  1  0
 25 52  1  0
 25 53  1  0
 25 54  1  0
 28 55  1  0
 28 56  1  0
 28 57  1  0
 29 58  1  0
 30 59  1  0
 30 60  1  0
 31 61  1  0
 32 62  1  0
M  END
>  <UniqueID>  (10) 
9

>  <SMILES>  (10) 
COc1ccc(S(=O)(=O)N2CCC[C@H](C(=O)NCCc3ccc(OC)c(OC)c3)C2)cc1

>  <Energy>  (10) 
66.34844405389163

>  <Genealogy>  (10) 
COc1ccc(S(=O)(=O)N2CCC[C@H](C(=O)NCCc3ccc(OC)c(OC)c3)C2)cc1 (chirality)
COc1ccc(S(=O)(=O)N2CCC[C@H](C(=O)NCCc3ccc(OC)c(OC)c3)C2)cc1 (3D coordinates assigned)
COc1ccc(S(=O)(=O)N2CCC[C@H](C(=O)NCCc3ccc(OC)c(OC)c3)C2)cc1 (nonaromatic ring conformer: 66.34844405389163 kcal/mol)

>  <smiles>  (10) 
COc1ccc(S(=O)(=O)N2CCCC(C(=O)NCCc3ccc(OC)c(OC)c3)C2)cc1

>  <score_type>  (10) 
oracle

>  <origin>  (10) 
adg

>  <m_score__min__energy>  (10) 
-9.9000000000000004

>  <m_primary>  (10) 
energy

$$$$
10:0
     RDKit          3D

 31 33  0  0  0  0  0  0  0  0999 V2000
   -9.4590   20.0900  -32.7120 C   0  0  0  0  0  0  0  0  0  0  0  0
   -8.1050   20.4950  -32.1990 C   0  0  0  0  0  0  0  0  0  0  0  0
   -8.0020   21.6880  -31.5570 N   0  0  0  0  0  0  0  0  0  0  0  0
   -6.8230   22.1370  -31.0680 C   0  0  0  0  0  0  0  0  0  0  0  0
   -6.7630   23.3680  -30.4100 C   0  0  0  0  0  0  0  0  0  0  0  0
   -5.5470   23.8390  -29.9110 C   0  0  0  0  0  0  0  0  0  0  0  0
   -4.3680   23.0890  -30.0710 C   0  0  0  0  0  0  0  0  0  0  0  0
   -3.0860   23.6080  -29.5290 C   0  0  0  0  0  0  0  0  0  0  0  0
   -2.1740   22.7790  -28.8540 C   0  0  0  0  0  0  0  0  0  0  0  0
   -0.9860   23.3210  -28.3710 C   0  0  0  0  0  0  0  0  0  0  0  0
   -0.7230   24.6740  -28.5760 C   0  0  0  0  0  0  0  0  0  0  0  0
    0.3450   25.1880  -28.1500 O   0  0  0  0  0  0  0  0  0  0  0  0
   -1.6250   25.4370  -29.2420 N   0  0  0  0  0  0  0  0  0  0  0  0
   -2.7660   24.9210  -29.7040 N   0  0  0  0  0  0  0  0  0  0  0  0
   -4.4370   21.8420  -30.7250 C   0  0  0  0  0  0  0  0  0  0  0  0
   -5.6630   21.3630  -31.2280 C   0  0  0  0  0  0  0  0  0  0  0  0
   -5.7740   20.1260  -31.8870 C   0  0  0  0  0  0  0  0  0  0  0  0
   -4.7410   19.4180  -32.0580 O   0  0  0  0  0  0  0  0  0  0  0  0
   -6.9970   19.6910  -32.3470 N   0  0  0  0  0  0  0  0  0  0  0  0
   -7.1080   18.3980  -33.0470 C   0  0  0  0  0  0  0  0  0  0  0  0
  -10.1282   19.8898  -31.8623 H   0  0  0  0  0  0  0  0  0  0  0  0
   -9.8771   20.9024  -33.3245 H   0  0  0  0  0  0  0  0  0  0  0  0
   -9.3623   19.1815  -33.3245 H   0  0  0  0  0  0  0  0  0  0  0  0
   -7.6765   23.9679  -30.2847 H   0  0  0  0  0  0  0  0  0  0  0  0
   -5.5108   24.8059  -29.3877 H   0  0  0  0  0  0  0  0  0  0  0  0
   -2.3967   21.7116  -28.7086 H   0  0  0  0  0  0  0  0  0  0  0  0
   -0.2636   22.6887  -27.8340 H   0  0  0  0  0  0  0  0  0  0  0  0
   -3.5256   21.2376  -30.8437 H   0  0  0  0  0  0  0  0  0  0  0  0
   -7.1777   17.5859  -32.3083 H   0  0  0  0  0  0  0  0  0  0  0  0
   -8.0094   18.3986  -33.6775 H   0  0  0  0  0  0  0  0  0  0  0  0
   -6.2197   18.2449  -33.6775 H   0  0  0  0  0  0  0  0  0  0  0  0
  1  2  1  0
  2  3  2  0
  3  4  1  0
  4  5  2  0
  5  6  1  0
  6  7  2  0
  7  8  1  0
  8  9  1  0
  9 10  2  0
 10 11  1  0
 11 12  2  0
 11 13  1  0
 13 14  1  0
  7 15  1  0
 15 16  2  0
 16 17  1  0
 17 18  2  0
 17 19  1  0
 19 20  1  0
 19  2  1  0
 16  4  1  0
 14  8  2  0
  1 21  1  0
  1 22  1  0
  1 23  1  0
  5 24  1  0
  6 25  1  0
  9 26  1  0
 10 27  1  0
 15 28  1  0
 20 29  1  0
 20 30  1  0
 20 31  1  0
M  CHG  1  13  -1
M  END
>  <UniqueID>  (11) 
10

>  <SMILES>  (11) 
Cc1nc2ccc(-c3ccc(=O)[n-]n3)cc2c(=O)n1C

>  <Energy>  (11) 
46.91239929135809

>  <Genealogy>  (11) 
Cc1nc2ccc(-c3ccc(=O)[n-]n3)cc2c(=O)n1C (protonated)
Cc1nc2ccc(-c3ccc(=O)[n-]n3)cc2c(=O)n1C (3D coordinates assigned)
Cc1nc2ccc(-c3ccc(=O)[n-]n3)cc2c(=O)n1C (optimized conformer: 46.91239929135809 kcal/mol)

>  <smiles>  (11) 
Cc1nc2ccc(-c3ccc(=O)[nH]n3)cc2c(=O)n1C

>  <score_type>  (11) 
oracle

>  <origin>  (11) 
adg

>  <m_score__min__energy>  (11) 
-9.3599999999999994

>  <m_primary>  (11) 
energy

$$$$
11:0
     RDKit          3D

 32 34  0  0  0  0  0  0  0  0999 V2000
   -2.2870   24.2610  -29.1890 C   0  0  0  0  0  0  0  0  0  0  0  0
   -3.1790   24.9130  -30.0890 O   0  0  0  0  0  0  0  0  0  0  0  0
   -4.4720   24.4620  -30.3900 C   0  0  0  0  0  0  0  0  0  0  0  0
   -5.5540   25.3050  -30.1000 C   0  0  0  0  0  0  0  0  0  0  0  0
   -6.8630   24.9050  -30.3790 C   0  0  0  0  0  0  0  0  0  0  0  0
   -7.1090   23.6550  -30.9530 C   0  0  0  0  0  0  0  0  0  0  0  0
   -8.3560   23.2780  -31.2140 O   0  0  0  0  0  0  0  0  0  0  0  0
   -8.6540   22.1020  -31.7610 C   0  0  0  0  0  0  0  0  0  0  0  0
   -9.8630   21.8230  -31.9840 O   0  0  0  0  0  0  0  0  0  0  0  0
   -7.6330   21.1890  -32.0970 C   0  0  0  0  0  0  0  0  0  0  0  0
   -7.9420   19.8610  -32.6850 C   0  0  0  0  0  0  0  0  0  0  0  0
   -9.1470   19.5500  -32.8890 O   0  0  0  0  0  0  0  0  0  0  0  0
   -6.8800   18.8830  -33.0290 C   0  0  0  0  0  0  0  0  0  0  0  0
   -6.1120   19.0190  -34.1990 C   0  0  0  0  0  0  0  0  0  0  0  0
   -5.1290   18.0770  -34.5070 C   0  0  0  0  0  0  0  0  0  0  0  0
   -4.9250   16.9970  -33.6480 C   0  0  0  0  0  0  0  0  0  0  0  0
   -5.6830   16.8650  -32.5280 N   0  0  0  0  0  0  0  0  0  0  0  0
   -6.6460   17.7690  -32.2040 C   0  0  0  0  0  0  0  0  0  0  0  0
   -6.3070   21.5540  -31.8220 C   0  0  0  0  0  0  0  0  0  0  0  0
   -6.0300   22.7980  -31.2500 C   0  0  0  0  0  0  0  0  0  0  0  0
   -4.7160   23.2000  -30.9680 C   0  0  0  0  0  0  0  0  0  0  0  0
   -2.5863   24.4798  -28.1533 H   0  0  0  0  0  0  0  0  0  0  0  0
   -2.3231   23.1749  -29.3595 H   0  0  0  0  0  0  0  0  0  0  0  0
   -1.2631   24.6251  -29.3595 H   0  0  0  0  0  0  0  0  0  0  0  0
   -5.3704   26.2911  -29.6483 H   0  0  0  0  0  0  0  0  0  0  0  0
   -7.7028   25.5762  -30.1461 H   0  0  0  0  0  0  0  0  0  0  0  0
   -6.2863   19.8702  -34.8736 H   0  0  0  0  0  0  0  0  0  0  0  0
   -4.5215   18.1852  -35.4176 H   0  0  0  0  0  0  0  0  0  0  0  0
   -4.1496   16.2513  -33.8776 H   0  0  0  0  0  0  0  0  0  0  0  0
   -7.2447   17.6279  -31.2920 H   0  0  0  0  0  0  0  0  0  0  0  0
   -5.4856   20.8610  -32.0566 H   0  0  0  0  0  0  0  0  0  0  0  0
   -3.8750   22.5294  -31.1983 H   0  0  0  0  0  0  0  0  0  0  0  0
  1  2  1  0
  2  3  1  0
  3  4  2  0
  4  5  1  0
  5  6  2  0
  6  7  1  0
  7  8  1  0
  8  9  2  0
  8 10  1  0
 10 11  1  0
 11 12  2  0
 11 13  1  0
 13 14  2  0
 14 15  1  0
 15 16  2  0
 16 17  1  0
 17 18  2  0
 10 19  2  0
 19 20  1  0
 20 21  2  0
 21  3  1  0
 20  6  1  0
 18 13  1  0
  1 22  1  0
  1 23  1  0
  1 24  1  0
  4 25  1  0
  5 26  1  0
 14 27  1  0
 15 28  1  0
 16 29  1  0
 18 30  1  0
 19 31  1  0
 21 32  1  0
M  END
>  <UniqueID>  (12) 
11

>  <SMILES>  (12) 
COc1ccc2oc(=O)c(C(=O)c3cccnc3)cc2c1

>  <Energy>  (12) 
46.41658217086123

>  <Genealogy>  (12) 
COc1ccc2oc(=O)c(C(=O)c3cccnc3)cc2c1 (3D coordinates assigned)
COc1ccc2oc(=O)c(C(=O)c3cccnc3)cc2c1 (optimized conformer: 46.41658217086123 kcal/mol)

>  <smiles>  (12) 
COc1ccc2oc(=O)c(C(=O)c3cccnc3)cc2c1

>  <score_type>  (12) 
oracle

>  <origin>  (12) 
adg

>  <m_score__min__energy>  (12) 
-8.3599999999999994

>  <m_primary>  (12) 
energy

$$$$
12:0
     RDKit          3D

 42 44  0  0  0  0  0  0  0  0999 V2000
   -0.7060   23.3700  -28.9540 C   0  0  0  0  0  0  0  0  0  0  0  0
   -1.3140   23.1320  -30.2200 O   0  0  0  0  0  0  0  0  0  0  0  0
   -2.6970   22.9950  -30.4210 C   0  0  0  0  0  0  0  0  0  0  0  0
   -3.2770   21.7920  -30.8630 C   0  0  0  0  0  0  0  0  0  0  0  0
   -4.6590   21.6980  -31.0470 C   0  0  0  0  0  0  0  0  0  0  0  0
   -5.4920   22.8040  -30.8020 C   0  0  0  0  0  0  0  0  0  0  0  0
   -6.9690   22.6930  -30.9680 C   0  0  0  0  0  0  0  0  0  0  0  0
   -7.6820   21.9140  -30.1400 C   0  0  0  0  0  0  0  0  0  0  0  0
   -9.1580   21.7110  -30.3050 C   0  0  0  0  0  0  0  0  0  0  0  0
   -9.5820   21.8530  -31.7080 N   0  0  0  0  0  0  0  0  0  0  0  0
   -9.4720   20.6390  -32.5480 C   0  0  0  0  0  0  0  0  0  0  0  0
   -8.1840   19.8710  -32.3630 C   0  0  0  0  0  0  0  0  0  0  0  0
   -7.0560   20.1700  -33.1390 C   0  0  0  0  0  0  0  0  0  0  0  0
   -5.8700   19.4580  -32.9540 C   0  0  0  0  0  0  0  0  0  0  0  0
   -5.8280   18.4350  -32.0050 C   0  0  0  0  0  0  0  0  0  0  0  0
   -6.9360   18.1340  -31.2760 N   0  0  0  0  0  0  0  0  0  0  0  0
   -8.1010   18.8220  -31.4350 C   0  0  0  0  0  0  0  0  0  0  0  0
   -9.1330   23.1140  -32.3250 C   0  0  0  0  0  0  0  0  0  0  0  0
   -7.6320   23.4130  -32.1270 C   0  0  0  0  0  0  0  0  0  0  0  0
   -4.9050   24.0050  -30.3590 C   0  0  0  0  0  0  0  0  0  0  0  0
   -3.5230   24.0970  -30.1700 C   0  0  0  0  0  0  0  0  0  0  0  0
   -2.9700   25.2930  -29.7270 O   0  0  0  0  0  0  0  0  0  0  0  0
   -1.4078   23.0953  -28.1528 H   0  0  0  0  0  0  0  0  0  0  0  0
    0.2070   22.7629  -28.8658 H   0  0  0  0  0  0  0  0  0  0  0  0
   -0.4477   24.4356  -28.8658 H   0  0  0  0  0  0  0  0  0  0  0  0
   -2.6383   20.9195  -31.0651 H   0  0  0  0  0  0  0  0  0  0  0  0
   -5.0997   20.7492  -31.3869 H   0  0  0  0  0  0  0  0  0  0  0  0
   -7.1655   21.4069  -29.3117 H   0  0  0  0  0  0  0  0  0  0  0  0
   -9.4186   20.7009  -29.9560 H   0  0  0  0  0  0  0  0  0  0  0  0
   -9.6746   22.4822  -29.7147 H   0  0  0  0  0  0  0  0  0  0  0  0
  -10.3102   19.9712  -32.3002 H   0  0  0  0  0  0  0  0  0  0  0  0
   -9.4904   20.9768  -33.5947 H   0  0  0  0  0  0  0  0  0  0  0  0
   -7.1055   20.9673  -33.8952 H   0  0  0  0  0  0  0  0  0  0  0  0
   -4.9776   19.7004  -33.5497 H   0  0  0  0  0  0  0  0  0  0  0  0
   -4.8969   17.8712  -31.8465 H   0  0  0  0  0  0  0  0  0  0  0  0
   -6.8910   17.3620  -30.5740 H   0  0  0  0  0  0  0  0  0  0  0  0
   -8.9814   18.5536  -30.8326 H   0  0  0  0  0  0  0  0  0  0  0  0
   -9.3352   23.0613  -33.4050 H   0  0  0  0  0  0  0  0  0  0  0  0
   -9.6861   23.9247  -31.8282 H   0  0  0  0  0  0  0  0  0  0  0  0
   -7.1051   23.1271  -33.0493 H   0  0  0  0  0  0  0  0  0  0  0  0
   -7.5666   24.4858  -31.8927 H   0  0  0  0  0  0  0  0  0  0  0  0
   -5.5409   24.8802  -30.1595 H   0  0  0  0  0  0  0  0  0  0  0  0
  1  2  1  0
  2  3  1  0
  3  4  2  0
  4  5  1  0
  5  6  2  0
  6  7  1  0
  7  8  2  0
  8  9  1  0
  9 10  1  0
 10 11  1  0
 11 12  1  0
 12 13  2  0
 13 14  1  0
 14 15  2  0
 15 16  1  0
 16 17  2  0
 10 18  1  0
 18 19  1  0
  6 20  1  0
 20 21  2  0
 21 22  1  0
 21  3  1  0
 19  7  1  0
 17 12  1  0
  1 23  1  0
  1 24  1  0
  1 25  1  0
  4 26  1  0
  5 27  1  0
  8 28  1  0
  9 29  1  0
  9 30  1  0
 11 31  1  0
 11 32  1  0
 13 33  1  0
 14 34  1  0
 15 35  1  0
 16 36  1  0
 17 37  1  0
 18 38  1  0
 18 39  1  0
 19 40  1  0
 19 41  1  0
 20 42  1  0
M  CHG  2  16   1  22  -1
M  END
>  <UniqueID>  (13) 
12

>  <SMILES>  (13) 
COc1ccc(C2=CCN(Cc3ccc[nH+]c3)CC2)cc1[O-]

>  <Energy>  (13) 
56.49155393873697

>  <Genealogy>  (13) 
COc1ccc(C2=CCN(Cc3ccc[nH+]c3)CC2)cc1[O-] (protonated)
COc1ccc(C2=CCN(Cc3ccc[nH+]c3)CC2)cc1[O-] (3D coordinates assigned)
COc1ccc(C2=CCN(Cc3ccc[nH+]c3)CC2)cc1[O-] (nonaromatic ring conformer: 56.49155393873697 kcal/mol)

>  <smiles>  (13) 
COc1ccc(C2=CCN(Cc3cccnc3)CC2)cc1O

>  <score_type>  (13) 
oracle

>  <origin>  (13) 
adg

>  <m_score__min__energy>  (13) 
-10.59

>  <m_primary>  (13) 
energy

$$$$
13:0
     RDKit          3D

 76 79  0  0  0  0  0  0  0  0999 V2000
   -2.1605   23.0397  -31.9796 H   0  0  0  0  0  0  0  0  0  0  0  0
   -2.8780   22.2190  -31.8320 C   0  0  0  0  0  0  0  0  0  0  0  0
   -2.8900   21.4780  -30.5560 C   0  0  0  0  0  0  0  0  0  0  0  0
   -3.8170   21.5130  -29.9649 H   0  0  0  0  0  0  0  0  0  0  0  0
   -1.8630   20.7600  -30.0490 C   0  0  0  0  0  0  0  0  0  0  0  0
   -1.1780   19.7640  -30.8310 N   0  0  0  0  0  0  0  0  0  0  0  0
   -1.4390   19.4180  -32.2310 C   0  0  0  0  0  0  0  0  0  0  0  0
   -2.1009   18.5405  -32.2746 H   0  0  0  0  0  0  0  0  0  0  0  0
   -1.9230   20.2678  -32.7346 H   0  0  0  0  0  0  0  0  0  0  0  0
   -0.4890   19.1860  -32.7346 H   0  0  0  0  0  0  0  0  0  0  0  0
   -0.0900   19.3100  -30.0390 C   0  0  0  0  0  0  0  0  0  0  0  0
    0.8900   18.3750  -30.3990 C   0  0  0  0  0  0  0  0  0  0  0  0
    0.8807   17.9061  -31.3940 H   0  0  0  0  0  0  0  0  0  0  0  0
    1.8830   18.0500  -29.4630 C   0  0  0  0  0  0  0  0  0  0  0  0
    2.6620   17.3184  -29.7237 H   0  0  0  0  0  0  0  0  0  0  0  0
    1.8880   18.6540  -28.1940 C   0  0  0  0  0  0  0  0  0  0  0  0
    2.6667   18.3884  -27.4639 H   0  0  0  0  0  0  0  0  0  0  0  0
    0.9040   19.5940  -27.8550 C   0  0  0  0  0  0  0  0  0  0  0  0
    0.9042   20.0719  -26.8642 H   0  0  0  0  0  0  0  0  0  0  0  0
   -0.0800   19.9140  -28.8010 C   0  0  0  0  0  0  0  0  0  0  0  0
   -1.2220   20.8900  -28.6610 C   0  0  0  0  0  0  0  0  0  0  0  0
   -0.6530   22.2980  -28.3970 C   0  0  0  0  0  0  0  0  0  0  0  0
   -0.5842   22.4682  -27.3124 H   0  0  0  0  0  0  0  0  0  0  0  0
    0.3483   22.3788  -28.8451 H   0  0  0  0  0  0  0  0  0  0  0  0
   -1.3171   23.0518  -28.8451 H   0  0  0  0  0  0  0  0  0  0  0  0
   -2.1580   20.4090  -27.5350 C   0  0  0  0  0  0  0  0  0  0  0  0
   -1.7068   20.6409  -26.5590 H   0  0  0  0  0  0  0  0  0  0  0  0
   -3.1282   20.9202  -27.6212 H   0  0  0  0  0  0  0  0  0  0  0  0
   -2.3071   19.3226  -27.6212 H   0  0  0  0  0  0  0  0  0  0  0  0
   -3.7320   21.9010  -32.8100 C   0  0  0  0  0  0  0  0  0  0  0  0
   -3.4022   21.9825  -33.8562 H   0  0  0  0  0  0  0  0  0  0  0  0
   -5.1070   21.4430  -32.5230 C   0  0  0  0  0  0  0  0  0  0  0  0
   -6.1280   22.2730  -32.1700 N   0  0  0  0  0  0  0  0  0  0  0  0
   -6.1310   23.7400  -32.1370 C   0  0  0  0  0  0  0  0  0  0  0  0
   -6.7485   24.1209  -32.9638 H   0  0  0  0  0  0  0  0  0  0  0  0
   -5.0982   24.1038  -32.2416 H   0  0  0  0  0  0  0  0  0  0  0  0
   -6.7040   24.2370  -30.8070 C   0  0  0  0  0  0  0  0  0  0  0  0
   -6.9765   23.3703  -30.1868 H   0  0  0  0  0  0  0  0  0  0  0  0
   -7.5892   24.8554  -31.0169 H   0  0  0  0  0  0  0  0  0  0  0  0
   -5.6790   25.0930  -30.0500 C   0  0  0  0  0  0  0  0  0  0  0  0
   -6.1371   25.4433  -29.1133 H   0  0  0  0  0  0  0  0  0  0  0  0
   -5.3987   25.9307  -30.7055 H   0  0  0  0  0  0  0  0  0  0  0  0
   -4.3910   24.3200  -29.7090 C   0  0  0  0  0  0  0  0  0  0  0  0
   -3.5326   24.9293  -30.0283 H   0  0  0  0  0  0  0  0  0  0  0  0
   -4.4620   23.3565  -30.2350 H   0  0  0  0  0  0  0  0  0  0  0  0
   -4.2100   23.9840  -28.2170 C   0  0  0  0  0  0  0  0  0  0  0  0
   -4.2212   22.8892  -28.1105 H   0  0  0  0  0  0  0  0  0  0  0  0
   -5.0347   24.4842  -27.6882 H   0  0  0  0  0  0  0  0  0  0  0  0
   -2.9100   24.5120  -27.5810 C   0  0  0  0  0  0  0  0  0  0  0  0
   -2.4402   25.2153  -28.2843 H   0  0  0  0  0  0  0  0  0  0  0  0
   -2.2753   23.6377  -27.3745 H   0  0  0  0  0  0  0  0  0  0  0  0
   -3.1270   25.2390  -26.2370 C   0  0  0  0  0  0  0  0  0  0  0  0
   -3.6003   24.5404  -25.5314 H   0  0  0  0  0  0  0  0  0  0  0  0
   -3.7641   26.1143  -26.4317 H   0  0  0  0  0  0  0  0  0  0  0  0
   -1.8220   25.7450  -25.6230 C   0  0  0  0  0  0  0  0  0  0  0  0
   -1.8974   25.7158  -24.5260 H   0  0  0  0  0  0  0  0  0  0  0  0
   -0.9900   25.1043  -25.9506 H   0  0  0  0  0  0  0  0  0  0  0  0
   -1.6394   26.7791  -25.9506 H   0  0  0  0  0  0  0  0  0  0  0  0
   -7.2100   21.4700  -32.1230 C   0  0  0  0  0  0  0  0  0  0  0  0
   -8.5350   21.8180  -31.8810 C   0  0  0  0  0  0  0  0  0  0  0  0
   -8.8211   22.8558  -31.6551 H   0  0  0  0  0  0  0  0  0  0  0  0
   -9.4880   20.7980  -31.9360 C   0  0  0  0  0  0  0  0  0  0  0  0
  -10.5462   21.0233  -31.7371 H   0  0  0  0  0  0  0  0  0  0  0  0
   -9.0950   19.4810  -32.2460 C   0  0  0  0  0  0  0  0  0  0  0  0
   -9.8542   18.6857  -32.2801 H   0  0  0  0  0  0  0  0  0  0  0  0
   -7.7800   19.1700  -32.5070 N   0  0  0  0  0  0  0  0  0  0  0  0
   -7.4430   17.7830  -32.8420 C   0  0  0  0  0  0  0  0  0  0  0  0
   -7.3028   17.2059  -31.9161 H   0  0  0  0  0  0  0  0  0  0  0  0
   -8.2594   17.3392  -33.4306 H   0  0  0  0  0  0  0  0  0  0  0  0
   -6.5139   17.7633  -33.4306 H   0  0  0  0  0  0  0  0  0  0  0  0
   -6.8500   20.1830  -32.4290 C   0  0  0  0  0  0  0  0  0  0  0  0
   -5.5140   20.1500  -32.6820 N   0  0  0  0  0  0  0  0  0  0  0  0
   -4.6660   19.0250  -33.0870 C   0  0  0  0  0  0  0  0  0  0  0  0
   -4.2814   18.5148  -32.1916 H   0  0  0  0  0  0  0  0  0  0  0  0
   -5.2573   18.3174  -33.6867 H   0  0  0  0  0  0  0  0  0  0  0  0
   -3.8229   19.3986  -33.6867 H   0  0  0  0  0  0  0  0  0  0  0  0
  1  2  1  0
  2  3  1  0
  3  4  1  0
  3  5  2  0
  5  6  1  0
  6  7  1  0
  7  8  1  0
  7  9  1  0
  7 10  1  0
  6 11  1  0
 11 12  2  0
 12 13  1  0
 12 14  1  0
 14 15  1  0
 14 16  2  0
 16 17  1  0
 16 18  1  0
 18 19  1  0
 18 20  2  0
 20 21  1  0
 21 22  1  0
 22 23  1  0
 22 24  1  0
 22 25  1  0
 21 26  1  0
 26 27  1  0
 26 28  1  0
 26 29  1  0
  2 30  2  0
 30 31  1  0
 30 32  1  0
 32 33  1  0
 33 34  1  0
 34 35  1  0
 34 36  1  0
 34 37  1  0
 37 38  1  0
 37 39  1  0
 37 40  1  0
 40 41  1  0
 40 42  1  0
 40 43  1  0
 43 44  1  0
 43 45  1  0
 43 46  1  0
 46 47  1  0
 46 48  1  0
 46 49  1  0
 49 50  1  0
 49 51  1  0
 49 52  1  0
 52 53  1  0
 52 54  1  0
 52 55  1  0
 55 56  1  0
 55 57  1  0
 55 58  1  0
 33 59  1  0
 59 60  2  0
 60 61  1  0
 60 62  1  0
 62 63  1  0
 62 64  2  0
 64 65  1  0
 64 66  1  0
 66 67  1  0
 67 68  1  0
 67 69  1  0
 67 70  1  0
 66 71  2  0
 71 72  1  0
 72 73  1  0
 73 74  1  0
 73 75  1  0
 73 76  1  0
 21  5  1  0
 72 32  2  0
 20 11  1  0
 71 59  1  0
M  CHG  2  66   1  72   1
M  END
>  <UniqueID>  (14) 
13

>  <SMILES>  (14) 
CCCCCCCCn1c(/C=C/C=C2/N(C)c3ccccc3C2(C)C)[n+](C)c2c1ccc[n+]2C

>  <Energy>  (14) 
138.83747988818308

>  <Genealogy>  (14) 
CCCCCCCCn1c(/C=C/C=C2/N(C)c3ccccc3C2(C)C)[n+](C)c2c1ccc[n+]2C (cis-trans isomerization)
CCCCCCCCn1c(/C=C/C=C2/N(C)c3ccccc3C2(C)C)[n+](C)c2c1ccc[n+]2C (3D coordinates assigned)
CCCCCCCCn1c(/C=C/C=C2/N(C)c3ccccc3C2(C)C)[n+](C)c2c1ccc[n+]2C (nonaromatic ring conformer: 138.83747988818308 kcal/mol)

>  <smiles>  (14) 
CCCCCCCCn1c(C=CC=C2N(C)c3ccccc3C2(C)C)[n+](C)c2c1ccc[n+]2C

>  <score_type>  (14) 
oracle

>  <origin>  (14) 
adg

>  <m_score__min__energy>  (14) 
-8.5899999999999999

>  <m_primary>  (14) 
energy

$$$$
14:0
     RDKit          3D

 34 36  0  0  0  0  0  0  0  0999 V2000
   -5.8610   25.5620  -29.4710 O   0  0  0  0  0  0  0  0  0  0  0  0
   -5.2870   25.0600  -30.4720 C   0  0  0  0  0  0  0  0  0  0  0  0
   -6.1350   24.5390  -31.6050 C   0  0  0  0  0  0  0  0  0  0  0  0
   -5.9830   23.1310  -31.7830 O   0  0  0  0  0  0  0  0  0  0  0  0
   -7.0300   22.1960  -31.8560 C   0  0  0  0  0  0  0  0  0  0  0  0
   -8.3320   22.4980  -31.4110 C   0  0  0  0  0  0  0  0  0  0  0  0
   -9.3560   21.5520  -31.5180 C   0  0  0  0  0  0  0  0  0  0  0  0
   -9.1010   20.2960  -32.0690 C   0  0  0  0  0  0  0  0  0  0  0  0
   -7.8160   19.9740  -32.5130 C   0  0  0  0  0  0  0  0  0  0  0  0
   -7.5720   18.7510  -33.0550 N   0  0  0  0  0  0  0  0  0  0  0  0
   -6.3390   18.3990  -33.5050 C   0  0  0  0  0  0  0  0  0  0  0  0
   -5.2780   19.3010  -33.4170 C   0  0  0  0  0  0  0  0  0  0  0  0
   -5.4920   20.5640  -32.8620 C   0  0  0  0  0  0  0  0  0  0  0  0
   -6.7710   20.9220  -32.4030 C   0  0  0  0  0  0  0  0  0  0  0  0
   -3.8530   25.0060  -30.4870 N   0  0  0  0  0  0  0  0  0  0  0  0
   -3.0600   23.8390  -30.2430 C   0  0  0  0  0  0  0  0  0  0  0  0
   -3.3040   22.6860  -31.0020 C   0  0  0  0  0  0  0  0  0  0  0  0
   -2.5610   21.5240  -30.7790 C   0  0  0  0  0  0  0  0  0  0  0  0
   -1.5570   21.5110  -29.8090 C   0  0  0  0  0  0  0  0  0  0  0  0
   -1.2820   22.6660  -29.0720 C   0  0  0  0  0  0  0  0  0  0  0  0
   -2.0210   23.8370  -29.2900 C   0  0  0  0  0  0  0  0  0  0  0  0
   -1.5690   25.2970  -28.4210 Cl  0  0  0  0  0  0  0  0  0  0  0  0
   -7.1910   24.7576  -31.3878 H   0  0  0  0  0  0  0  0  0  0  0  0
   -5.8080   25.0357  -32.5304 H   0  0  0  0  0  0  0  0  0  0  0  0
   -8.5447   23.4857  -30.9760 H   0  0  0  0  0  0  0  0  0  0  0  0
  -10.3683   21.7995  -31.1658 H   0  0  0  0  0  0  0  0  0  0  0  0
   -9.9125   19.5583  -32.1540 H   0  0  0  0  0  0  0  0  0  0  0  0
   -6.1771   17.4014  -33.9393 H   0  0  0  0  0  0  0  0  0  0  0  0
   -4.2796   19.0188  -33.7825 H   0  0  0  0  0  0  0  0  0  0  0  0
   -4.6596   21.2788  -32.7840 H   0  0  0  0  0  0  0  0  0  0  0  0
   -4.0844   22.6961  -31.7771 H   0  0  0  0  0  0  0  0  0  0  0  0
   -2.7673   20.6184  -31.3683 H   0  0  0  0  0  0  0  0  0  0  0  0
   -0.9823   20.5914  -29.6248 H   0  0  0  0  0  0  0  0  0  0  0  0
   -0.4818   22.6562  -28.3172 H   0  0  0  0  0  0  0  0  0  0  0  0
  1  2  2  0
  2  3  1  0
  3  4  1  0
  4  5  1  0
  5  6  2  0
  6  7  1  0
  7  8  2  0
  8  9  1  0
  9 10  2  0
 10 11  1  0
 11 12  2  0
 12 13  1  0
 13 14  2  0
  2 15  1  0
 15 16  1  0
 16 17  2  0
 17 18  1  0
 18 19  2  0
 19 20  1  0
 20 21  2  0
 21 22  1  0
 14  5  1  0
 21 16  1  0
 14  9  1  0
  3 23  1  0
  3 24  1  0
  6 25  1  0
  7 26  1  0
  8 27  1  0
 11 28  1  0
 12 29  1  0
 13 30  1  0
 17 31  1  0
 18 32  1  0
 19 33  1  0
 20 34  1  0
M  CHG  1  15  -1
M  END
>  <UniqueID>  (15) 
14

>  <SMILES>  (15) 
O=C(COc1cccc2ncccc12)[N-]c1ccccc1Cl

>  <Energy>  (15) 
45.30636637321021

>  <Genealogy>  (15) 
O=C(COc1cccc2ncccc12)[N-]c1ccccc1Cl (protonated)
O=C(COc1cccc2ncccc12)[N-]c1ccccc1Cl (3D coordinates assigned)
O=C(COc1cccc2ncccc12)[N-]c1ccccc1Cl (optimized conformer: 45.30636637321021 kcal/mol)

>  <smiles>  (15) 
O=C(COc1cccc2ncccc12)Nc1ccccc1Cl

>  <score_type>  (15) 
oracle

>  <origin>  (15) 
adg

>  <m_score__min__energy>  (15) 
-9.7200000000000006

>  <m_primary>  (15) 
energy

$$$$
15:0
     RDKit          3D

 33 33  0  0  0  0  0  0  0  0999 V2000
   -4.6874   19.1229  -34.6341 H   0  0  0  0  0  0  0  0  0  0  0  0
   -5.4490   19.2090  -33.8450 C   0  0  0  0  0  0  0  0  0  0  0  0
   -5.4420   20.3140  -32.9880 C   0  0  0  0  0  0  0  0  0  0  0  0
   -4.6697   21.0891  -33.1008 H   0  0  0  0  0  0  0  0  0  0  0  0
   -6.4150   20.4390  -31.9850 C   0  0  0  0  0  0  0  0  0  0  0  0
   -6.3780   21.6060  -31.0360 C   0  0  0  0  0  0  0  0  0  0  0  0
   -5.5471   21.4726  -30.3276 H   0  0  0  0  0  0  0  0  0  0  0  0
   -7.3314   21.6561  -30.4896 H   0  0  0  0  0  0  0  0  0  0  0  0
   -6.1800   22.8880  -31.8000 C   0  0  0  0  0  0  0  0  0  0  0  0
   -5.0130   23.4520  -31.7510 N   0  0  0  0  0  0  0  0  0  0  0  0
   -4.0320   23.2960  -30.6970 C   0  0  0  0  0  0  0  0  0  0  0  0
   -4.5091   22.8233  -29.8259 H   0  0  0  0  0  0  0  0  0  0  0  0
   -3.2095   22.6667  -31.0678 H   0  0  0  0  0  0  0  0  0  0  0  0
   -3.4780   24.6270  -30.2930 C   0  0  0  0  0  0  0  0  0  0  0  0
   -3.8850   25.6770  -30.8540 O   0  0  0  0  0  0  0  0  0  0  0  0
   -2.5470   24.7120  -29.2650 O   0  0  0  0  0  0  0  0  0  0  0  0
   -7.3540   23.4810  -32.5550 C   0  0  0  0  0  0  0  0  0  0  0  0
   -7.2937   23.1780  -33.6107 H   0  0  0  0  0  0  0  0  0  0  0  0
   -7.3117   24.5767  -32.4676 H   0  0  0  0  0  0  0  0  0  0  0  0
   -8.6770   22.9950  -31.9700 C   0  0  0  0  0  0  0  0  0  0  0  0
   -8.6217   23.0153  -30.8716 H   0  0  0  0  0  0  0  0  0  0  0  0
   -9.4912   23.6527  -32.3084 H   0  0  0  0  0  0  0  0  0  0  0  0
   -8.8718   21.9666  -32.3084 H   0  0  0  0  0  0  0  0  0  0  0  0
   -7.3820   19.4330  -31.8350 C   0  0  0  0  0  0  0  0  0  0  0  0
   -8.1380   19.5137  -31.0400 H   0  0  0  0  0  0  0  0  0  0  0  0
   -7.3880   18.3290  -32.6920 C   0  0  0  0  0  0  0  0  0  0  0  0
   -8.1550   17.5497  -32.5716 H   0  0  0  0  0  0  0  0  0  0  0  0
   -6.4270   18.2060  -33.7020 C   0  0  0  0  0  0  0  0  0  0  0  0
   -6.4770   17.0790  -34.5360 O   0  0  0  0  0  0  0  0  0  0  0  0
   -6.4330   15.7340  -34.0700 C   0  0  0  0  0  0  0  0  0  0  0  0
   -6.4328   15.7269  -32.9700 H   0  0  0  0  0  0  0  0  0  0  0  0
   -7.3138   15.1887  -34.4400 H   0  0  0  0  0  0  0  0  0  0  0  0
   -5.5185   15.2475  -34.4400 H   0  0  0  0  0  0  0  0  0  0  0  0
  1  2  1  0
  2  3  2  0
  3  4  1  0
  3  5  1  0
  5  6  1  0
  6  7  1  0
  6  8  1  0
  6  9  1  0
  9 10  2  0
 10 11  1  0
 11 12  1  0
 11 13  1  0
 11 14  1  0
 14 15  2  0
 14 16  1  0
  9 17  1  0
 17 18  1  0
 17 19  1  0
 17 20  1  0
 20 21  1  0
 20 22  1  0
 20 23  1  0
  5 24  2  0
 24 25  1  0
 24 26  1  0
 26 27  1  0
 26 28  2  0
 28 29  1  0
 29 30  1  0
 30 31  1  0
 30 32  1  0
 30 33  1  0
 28  2  1  0
M  CHG  1  16  -1
M  END
>  <UniqueID>  (16) 
15

>  <SMILES>  (16) 
CC/C(Cc1ccc(OC)cc1)=N\CC(=O)[O-]

>  <Energy>  (16) 
24.486465556130874

>  <Genealogy>  (16) 
CCC(Cc1ccc(OC)cc1)=NCC(=O)[O-] (protonated)
CC/C(Cc1ccc(OC)cc1)=N\CC(=O)[O-] (cis-trans isomerization)
CC/C(Cc1ccc(OC)cc1)=N\CC(=O)[O-] (3D coordinates assigned)
CC/C(Cc1ccc(OC)cc1)=N\CC(=O)[O-] (optimized conformer: 24.486465556130874 kcal/mol)

>  <smiles>  (16) 
CCC(Cc1ccc(OC)cc1)=NCC(=O)O

>  <score_type>  (16) 
oracle

>  <origin>  (16) 
adg

>  <m_score__min__energy>  (16) 
-8.8200000000000003

>  <m_primary>  (16) 
energy

$$$$
16:0
     RDKit          3D

 41 43  0  0  0  0  0  0  0  0999 V2000
   -0.4053   20.5201  -30.3298 H   0  0  0  0  0  0  0  0  0  0  0  0
   -1.1650   21.0550  -29.7410 C   0  0  0  0  0  0  0  0  0  0  0  0
   -1.8720   20.3850  -28.7440 C   0  0  0  0  0  0  0  0  0  0  0  0
   -1.6587   19.3260  -28.5364 H   0  0  0  0  0  0  0  0  0  0  0  0
   -2.8500   21.0560  -28.0090 C   0  0  0  0  0  0  0  0  0  0  0  0
   -3.4039   20.5203  -27.2240 H   0  0  0  0  0  0  0  0  0  0  0  0
   -3.1350   22.4090  -28.2610 C   0  0  0  0  0  0  0  0  0  0  0  0
   -4.2340   23.0620  -27.4640 C   0  0  0  0  0  0  0  0  0  0  0  0
   -4.0298   22.9407  -26.3900 H   0  0  0  0  0  0  0  0  0  0  0  0
   -4.2786   24.1332  -27.7100 H   0  0  0  0  0  0  0  0  0  0  0  0
   -5.1961   22.5889  -27.7100 H   0  0  0  0  0  0  0  0  0  0  0  0
   -2.3810   23.1040  -29.2440 C   0  0  0  0  0  0  0  0  0  0  0  0
   -2.5630   24.5500  -29.5200 C   0  0  0  0  0  0  0  0  0  0  0  0
   -1.8660   25.3850  -28.8860 O   0  0  0  0  0  0  0  0  0  0  0  0
   -3.5000   25.0320  -30.4930 N   0  0  0  0  0  0  0  0  0  0  0  0
   -4.7690   24.4390  -30.8050 C   0  0  0  0  0  0  0  0  0  0  0  0
   -4.8080   23.3420  -31.6720 C   0  0  0  0  0  0  0  0  0  0  0  0
   -3.8831   22.9905  -32.1526 H   0  0  0  0  0  0  0  0  0  0  0  0
   -6.0170   22.6910  -31.9300 C   0  0  0  0  0  0  0  0  0  0  0  0
   -6.0379   21.8177  -32.5986 H   0  0  0  0  0  0  0  0  0  0  0  0
   -7.2020   23.1470  -31.3400 C   0  0  0  0  0  0  0  0  0  0  0  0
   -8.6910   22.2330  -31.5580 S   0  0  0  0  0  0  0  0  0  0  0  0
   -9.1370   21.6180  -30.2600 O   0  0  0  0  0  0  0  0  0  0  0  0
   -9.7640   23.1600  -32.0540 O   0  0  0  0  0  0  0  0  0  0  0  0
   -8.4340   20.9740  -32.7250 N   0  0  0  0  0  0  0  0  0  0  0  0
   -8.0260   19.7750  -32.4330 C   0  0  0  0  0  0  0  0  0  0  0  0
   -8.8720   18.7630  -32.1660 N   0  0  0  0  0  0  0  0  0  0  0  0
   -8.1340   17.7150  -31.9430 O   0  0  0  0  0  0  0  0  0  0  0  0
   -6.8560   18.0020  -32.0490 C   0  0  0  0  0  0  0  0  0  0  0  0
   -5.7500   17.0140  -31.8920 C   0  0  0  0  0  0  0  0  0  0  0  0
   -5.5595   16.8438  -30.8221 H   0  0  0  0  0  0  0  0  0  0  0  0
   -6.0357   16.0649  -32.3691 H   0  0  0  0  0  0  0  0  0  0  0  0
   -4.8390   17.4045  -32.3691 H   0  0  0  0  0  0  0  0  0  0  0  0
   -6.7150   19.3350  -32.3700 C   0  0  0  0  0  0  0  0  0  0  0  0
   -5.7902   19.9072  -32.5351 H   0  0  0  0  0  0  0  0  0  0  0  0
   -7.1770   24.2850  -30.5240 C   0  0  0  0  0  0  0  0  0  0  0  0
   -8.1114   24.6699  -30.0896 H   0  0  0  0  0  0  0  0  0  0  0  0
   -5.9670   24.9320  -30.2610 C   0  0  0  0  0  0  0  0  0  0  0  0
   -5.9522   25.8301  -29.6261 H   0  0  0  0  0  0  0  0  0  0  0  0
   -1.4200   22.4040  -29.9930 C   0  0  0  0  0  0  0  0  0  0  0  0
   -0.8630   22.9244  -30.7860 H   0  0  0  0  0  0  0  0  0  0  0  0
  1  2  1  0
  2  3  2  0
  3  4  1  0
  3  5  1  0
  5  6  1  0
  5  7  2  0
  7  8  1  0
  8  9  1  0
  8 10  1  0
  8 11  1  0
  7 12  1  0
 12 13  1  0
 13 14  2  0
 13 15  1  0
 15 16  1  0
 16 17  2  0
 17 18  1  0
 17 19  1  0
 19 20  1  0
 19 21  2  0
 21 22  1  0
 22 23  2  0
 22 24  2  0
 22 25  1  0
 25 26  2  0
 26 27  1  0
 27 28  1  0
 28 29  1  0
 29 30  1  0
 30 31  1  0
 30 32  1  0
 30 33  1  0
 29 34  2  0
 34 35  1  0
 21 36  1  0
 36 37  1  0
 36 38  2  0
 38 39  1  0
 12 40  2  0
 40 41  1  0
 40  2  1  0
 38 16  1  0
 34 26  1  0
M  CHG  2  15  -1  27  -1
M  END
>  <UniqueID>  (17) 
16

>  <SMILES>  (17) 
Cc1c/c(=N\S(=O)(=O)c2ccc([N-]C(=O)c3ccccc3C)cc2)[n-]o1

>  <Energy>  (17) 
84.09475710794435

>  <Genealogy>  (17) 
Cc1cc(=NS(=O)(=O)c2ccc([N-]C(=O)c3ccccc3C)cc2)[n-]o1 (protonated)
Cc1c/c(=N\S(=O)(=O)c2ccc([N-]C(=O)c3ccccc3C)cc2)[n-]o1 (cis-trans isomerization)
Cc1c/c(=N\S(=O)(=O)c2ccc([N-]C(=O)c3ccccc3C)cc2)[n-]o1 (3D coordinates assigned)
Cc1c/c(=N\S(=O)(=O)c2ccc([N-]C(=O)c3ccccc3C)cc2)[n-]o1 (optimized conformer: 84.09475710794435 kcal/mol)

>  <smiles>  (17) 
Cc1cc(=NS(=O)(=O)c2ccc(NC(=O)c3ccccc3C)cc2)[nH]o1

>  <score_type>  (17) 
oracle

>  <origin>  (17) 
adg

>  <m_score__min__energy>  (17) 
-10.82

>  <m_primary>  (17) 
energy

$$$$
17:0
     RDKit          3D

 51 53  0  0  0  0  0  0  0  0999 V2000
    2.4080   18.8570  -30.5220 C   0  0  0  0  0  0  0  0  0  0  0  0
    2.4110   18.6940  -32.0390 C   0  0  0  0  0  0  0  0  0  0  0  0
    1.9880   19.8980  -32.6780 O   0  0  0  0  0  0  0  0  0  0  0  0
    0.6580   20.3320  -32.8040 C   0  0  0  0  0  0  0  0  0  0  0  0
    0.0960   20.3780  -34.0980 C   0  0  0  0  0  0  0  0  0  0  0  0
   -1.2290   20.8020  -34.2970 C   0  0  0  0  0  0  0  0  0  0  0  0
   -1.9840   21.1810  -33.1890 C   0  0  0  0  0  0  0  0  0  0  0  0
   -3.2710   21.6120  -33.2490 N   0  0  0  0  0  0  0  0  0  0  0  0
   -3.7570   21.9100  -32.0150 C   0  0  0  0  0  0  0  0  0  0  0  0
   -5.1290   22.4400  -31.8000 C   0  0  0  0  0  0  0  0  0  0  0  0
   -6.2250   21.6290  -32.1510 C   0  0  0  0  0  0  0  0  0  0  0  0
   -7.5400   22.0790  -31.9800 C   0  0  0  0  0  0  0  0  0  0  0  0
   -8.7070   21.1860  -32.3360 C   0  0  0  0  0  0  0  0  0  0  0  0
   -8.2800   19.9830  -33.0670 N   0  0  0  0  0  0  0  0  0  0  0  0
   -8.2180   18.8020  -32.1920 C   0  0  0  0  0  0  0  0  0  0  0  0
   -7.0640   17.8840  -32.6040 C   0  0  0  0  0  0  0  0  0  0  0  0
   -6.5330   18.2740  -33.9180 N   0  0  0  0  0  0  0  0  0  0  0  0
   -5.1830   18.8210  -33.7760 C   0  0  0  0  0  0  0  0  0  0  0  0
   -7.7680   23.3480  -31.4390 C   0  0  0  0  0  0  0  0  0  0  0  0
   -6.6950   24.1620  -31.0770 C   0  0  0  0  0  0  0  0  0  0  0  0
   -5.3670   23.7200  -31.2440 C   0  0  0  0  0  0  0  0  0  0  0  0
   -4.2810   24.5190  -30.8490 O   0  0  0  0  0  0  0  0  0  0  0  0
   -3.7130   24.5310  -29.5430 C   0  0  0  0  0  0  0  0  0  0  0  0
   -2.5790   21.6590  -30.8150 S   0  0  0  0  0  0  0  0  0  0  0  0
   -1.4340   21.1400  -31.9220 C   0  0  0  0  0  0  0  0  0  0  0  0
   -0.1250   20.7250  -31.6930 C   0  0  0  0  0  0  0  0  0  0  0  0
    2.4263   17.8652  -30.0466 H   0  0  0  0  0  0  0  0  0  0  0  0
    3.2958   19.4282  -30.2128 H   0  0  0  0  0  0  0  0  0  0  0  0
    1.4998   19.3951  -30.2128 H   0  0  0  0  0  0  0  0  0  0  0  0
    3.4294   18.4467  -32.3733 H   0  0  0  0  0  0  0  0  0  0  0  0
    1.7135   17.8873  -32.3087 H   0  0  0  0  0  0  0  0  0  0  0  0
    0.7044   20.0774  -34.9638 H   0  0  0  0  0  0  0  0  0  0  0  0
   -1.6616   20.8340  -35.3078 H   0  0  0  0  0  0  0  0  0  0  0  0
   -6.0456   20.6262  -32.5660 H   0  0  0  0  0  0  0  0  0  0  0  0
   -9.2129   20.8771  -31.4094 H   0  0  0  0  0  0  0  0  0  0  0  0
   -9.3837   21.7569  -32.9888 H   0  0  0  0  0  0  0  0  0  0  0  0
   -8.9640   19.8010  -33.8390 H   0  0  0  0  0  0  0  0  0  0  0  0
   -8.0656   19.1298  -31.1531 H   0  0  0  0  0  0  0  0  0  0  0  0
   -9.1624   18.2452  -32.2815 H   0  0  0  0  0  0  0  0  0  0  0  0
   -6.2615   17.9545  -31.8549 H   0  0  0  0  0  0  0  0  0  0  0  0
   -7.4386   16.8516  -32.6664 H   0  0  0  0  0  0  0  0  0  0  0  0
   -7.1340   19.0420  -34.2990 H   0  0  0  0  0  0  0  0  0  0  0  0
   -4.9380   18.9203  -32.7082 H   0  0  0  0  0  0  0  0  0  0  0  0
   -4.4609   18.1445  -34.2565 H   0  0  0  0  0  0  0  0  0  0  0  0
   -5.1354   19.8093  -34.2565 H   0  0  0  0  0  0  0  0  0  0  0  0
   -8.7986   23.7060  -31.2982 H   0  0  0  0  0  0  0  0  0  0  0  0
   -6.8872   25.1601  -30.6565 H   0  0  0  0  0  0  0  0  0  0  0  0
   -4.5176   24.5140  -28.7931 H   0  0  0  0  0  0  0  0  0  0  0  0
   -3.0724   23.6462  -29.4136 H   0  0  0  0  0  0  0  0  0  0  0  0
   -3.1103   25.4421  -29.4136 H   0  0  0  0  0  0  0  0  0  0  0  0
    0.2899   20.7032  -30.6745 H   0  0  0  0  0  0  0  0  0  0  0  0
  1  2  1  0
  2  3  1  0
  3  4  1  0
  4  5  2  0
  5  6  1  0
  6  7  2  0
  7  8  1  0
  8  9  2  0
  9 10  1  0
 10 11  2  0
 11 12  1  0
 12 13  1  0
 13 14  1  0
 14 15  1  0
 15 16  1  0
 16 17  1  0
 17 18  1  0
 12 19  2  0
 19 20  1  0
 20 21  2  0
 21 22  1  0
 22 23  1  0
  9 24  1  0
 24 25  1  0
 25 26  2  0
 26  4  1  0
 25  7  1  0
 21 10  1  0
  1 27  1  0
  1 28  1  0
  1 29  1  0
  2 30  1  0
  2 31  1  0
  5 32  1  0
  6 33  1  0
 11 34  1  0
 13 35  1  0
 13 36  1  0
 14 37  1  0
 15 38  1  0
 15 39  1  0
 16 40  1  0
 16 41  1  0
 17 42  1  0
 18 43  1  0
 18 44  1  0
 18 45  1  0
 19 46  1  0
 20 47  1  0
 23 48  1  0
 23 49  1  0
 23 50  1  0
 26 51  1  0
M  END
>  <UniqueID>  (18) 
17

>  <SMILES>  (18) 
CCOc1ccc2nc(-c3cc(CNCCNC)ccc3OC)sc2c1

>  <Energy>  (18) 
83.72993673245914

>  <Genealogy>  (18) 
CCOc1ccc2nc(-c3cc(CNCCNC)ccc3OC)sc2c1 (3D coordinates assigned)
CCOc1ccc2nc(-c3cc(CNCCNC)ccc3OC)sc2c1 (optimized conformer: 83.72993673245914 kcal/mol)

>  <smiles>  (18) 
CCOc1ccc2nc(-c3cc(CNCCNC)ccc3OC)sc2c1

>  <score_type>  (18) 
oracle

>  <origin>  (18) 
adg

>  <m_score__min__energy>  (18) 
-7.5499999999999998

>  <m_primary>  (18) 
energy

$$$$
18:0
     RDKit          3D

 32 34  0  0  0  0  0  0  0  0999 V2000
   -2.9140   19.0300  -33.2310 Br  0  0  0  0  0  0  0  0  0  0  0  0
   -3.7150   20.7770  -33.4550 C   0  0  0  0  0  0  0  0  0  0  0  0
   -5.1050   20.7700  -32.9020 C   0  0  0  0  0  0  0  0  0  0  0  0
   -6.0500   19.8590  -33.2290 N   0  0  0  0  0  0  0  0  0  0  0  0
   -7.1740   20.2970  -32.6260 C   0  0  0  0  0  0  0  0  0  0  0  0
   -8.4280   19.6910  -32.6760 C   0  0  0  0  0  0  0  0  0  0  0  0
   -9.4800   20.3130  -31.9830 C   0  0  0  0  0  0  0  0  0  0  0  0
   -9.2550   21.5070  -31.2700 C   0  0  0  0  0  0  0  0  0  0  0  0
   -7.9730   22.0750  -31.2570 C   0  0  0  0  0  0  0  0  0  0  0  0
   -6.9860   21.4440  -31.9450 N   0  0  0  0  0  0  0  0  0  0  0  0
   -5.6860   21.7490  -32.1100 C   0  0  0  0  0  0  0  0  0  0  0  0
   -5.0560   22.9540  -31.6570 N   0  0  0  0  0  0  0  0  0  0  0  0
   -5.7360   24.2380  -31.8050 C   0  0  0  0  0  0  0  0  0  0  0  0
   -5.3720   25.1400  -30.6220 C   0  0  0  0  0  0  0  0  0  0  0  0
   -3.9670   25.2220  -30.4630 O   0  0  0  0  0  0  0  0  0  0  0  0
   -3.4440   23.9500  -30.1210 C   0  0  0  0  0  0  0  0  0  0  0  0
   -3.6470   22.9530  -31.2650 C   0  0  0  0  0  0  0  0  0  0  0  0
   -3.1128   21.5264  -32.9205 H   0  0  0  0  0  0  0  0  0  0  0  0
   -3.7506   21.0264  -34.5258 H   0  0  0  0  0  0  0  0  0  0  0  0
   -5.9410   19.0180  -33.8400 H   0  0  0  0  0  0  0  0  0  0  0  0
   -8.5884   18.7591  -33.2379 H   0  0  0  0  0  0  0  0  0  0  0  0
  -10.4847   19.8653  -31.9972 H   0  0  0  0  0  0  0  0  0  0  0  0
  -10.0801   21.9908  -30.7267 H   0  0  0  0  0  0  0  0  0  0  0  0
   -7.7722   23.0052  -30.7053 H   0  0  0  0  0  0  0  0  0  0  0  0
   -5.4189   24.7162  -32.7435 H   0  0  0  0  0  0  0  0  0  0  0  0
   -6.8243   24.0794  -31.8276 H   0  0  0  0  0  0  0  0  0  0  0  0
   -5.7737   26.1483  -30.8008 H   0  0  0  0  0  0  0  0  0  0  0  0
   -5.8050   24.7109  -29.7064 H   0  0  0  0  0  0  0  0  0  0  0  0
   -2.3681   24.0464  -29.9134 H   0  0  0  0  0  0  0  0  0  0  0  0
   -3.9739   23.5785  -29.2315 H   0  0  0  0  0  0  0  0  0  0  0  0
   -3.0256   23.2465  -32.1239 H   0  0  0  0  0  0  0  0  0  0  0  0
   -3.3553   21.9453  -30.9342 H   0  0  0  0  0  0  0  0  0  0  0  0
  1  2  1  0
  2  3  1  0
  3  4  1  0
  4  5  2  0
  5  6  1  0
  6  7  2  0
  7  8  1  0
  8  9  2  0
  9 10  1  0
 10 11  1  0
 11 12  1  0
 12 13  1  0
 13 14  1  0
 14 15  1  0
 15 16  1  0
 16 17  1  0
 11  3  2  0
 17 12  1  0
 10  5  1  0
  2 18  1  0
  2 19  1  0
  4 20  1  0
  6 21  1  0
  7 22  1  0
  8 23  1  0
  9 24  1  0
 13 25  1  0
 13 26  1  0
 14 27  1  0
 14 28  1  0
 16 29  1  0
 16 30  1  0
 17 31  1  0
 17 32  1  0
M  CHG  1   4   1
M  END
>  <UniqueID>  (19) 
18

>  <SMILES>  (19) 
BrCc1[nH+]c2ccccn2c1N1CCOCC1

>  <Energy>  (19) 
74.16522839595898

>  <Genealogy>  (19) 
BrCc1[nH+]c2ccccn2c1N1CCOCC1 (protonated)
BrCc1[nH+]c2ccccn2c1N1CCOCC1 (3D coordinates assigned)
BrCc1[nH+]c2ccccn2c1N1CCOCC1 (nonaromatic ring conformer: 74.16522839595898 kcal/mol)

>  <smiles>  (19) 
BrCc1nc2ccccn2c1N1CCOCC1

>  <score_type>  (19) 
oracle

>  <origin>  (19) 
adg

>  <m_score__min__energy>  (19) 
-6.6299999999999999

>  <m_primary>  (19) 
energy

$$$$
19:0
     RDKit          3D

 30 32  0  0  0  0  0  0  0  0999 V2000
   -6.5950   15.5740  -34.1980 C   0  0  0  0  0  0  0  0  0  0  0  0
   -7.2490   16.7780  -33.8130 O   0  0  0  0  0  0  0  0  0  0  0  0
   -6.5860   17.9440  -33.4010 C   0  0  0  0  0  0  0  0  0  0  0  0
   -5.2250   18.0730  -33.7020 C   0  0  0  0  0  0  0  0  0  0  0  0
   -4.5150   19.2120  -33.3160 C   0  0  0  0  0  0  0  0  0  0  0  0
   -5.1570   20.2410  -32.6210 C   0  0  0  0  0  0  0  0  0  0  0  0
   -4.4670   21.3180  -32.2610 O   0  0  0  0  0  0  0  0  0  0  0  0
   -5.0130   22.3330  -31.5990 C   0  0  0  0  0  0  0  0  0  0  0  0
   -4.2250   23.4320  -31.2540 C   0  0  0  0  0  0  0  0  0  0  0  0
   -4.7700   24.5170  -30.5590 C   0  0  0  0  0  0  0  0  0  0  0  0
   -3.9200   25.5860  -30.2610 O   0  0  0  0  0  0  0  0  0  0  0  0
   -6.1390   24.4990  -30.1920 C   0  0  0  0  0  0  0  0  0  0  0  0
   -6.7490   25.5750  -29.4650 N   0  0  0  0  0  0  0  0  0  0  0  0
   -6.9290   23.3910  -30.5420 C   0  0  0  0  0  0  0  0  0  0  0  0
   -6.3780   22.3050  -31.2430 C   0  0  0  0  0  0  0  0  0  0  0  0
   -7.1440   21.1820  -31.6060 C   0  0  0  0  0  0  0  0  0  0  0  0
   -8.3690   21.1220  -31.3060 O   0  0  0  0  0  0  0  0  0  0  0  0
   -6.5300   20.1290  -32.3070 C   0  0  0  0  0  0  0  0  0  0  0  0
   -7.2390   18.9770  -32.7000 C   0  0  0  0  0  0  0  0  0  0  0  0
   -6.2926   15.0173  -33.2988 H   0  0  0  0  0  0  0  0  0  0  0  0
   -7.2827   14.9584  -34.7964 H   0  0  0  0  0  0  0  0  0  0  0  0
   -5.7042   15.8158  -34.7964 H   0  0  0  0  0  0  0  0  0  0  0  0
   -4.7096   17.2692  -34.2480 H   0  0  0  0  0  0  0  0  0  0  0  0
   -3.4460   19.2998  -33.5599 H   0  0  0  0  0  0  0  0  0  0  0  0
   -3.1609   23.4453  -31.5323 H   0  0  0  0  0  0  0  0  0  0  0  0
   -3.8680   26.4380  -30.7990 H   0  0  0  0  0  0  0  0  0  0  0  0
   -6.2060   26.2820  -28.9280 H   0  0  0  0  0  0  0  0  0  0  0  0
   -7.7890   25.6630  -29.4330 H   0  0  0  0  0  0  0  0  0  0  0  0
   -7.9930   23.3735  -30.2635 H   0  0  0  0  0  0  0  0  0  0  0  0
   -8.3080   18.8835  -32.4583 H   0  0  0  0  0  0  0  0  0  0  0  0
  1  2  1  0
  2  3  1  0
  3  4  2  0
  4  5  1  0
  5  6  2  0
  6  7  1  0
  7  8  1  0
  8  9  2  0
  9 10  1  0
 10 11  1  0
 10 12  2  0
 12 13  1  0
 12 14  1  0
 14 15  2  0
 15 16  1  0
 16 17  2  0
 16 18  1  0
 18 19  2  0
 19  3  1  0
 18  6  1  0
 15  8  1  0
  1 20  1  0
  1 21  1  0
  1 22  1  0
  4 23  1  0
  5 24  1  0
  9 25  1  0
 11 26  1  0
 13 27  1  0
 13 28  1  0
 14 29  1  0
 19 30  1  0
M  END
>  <UniqueID>  (20) 
19

>  <SMILES>  (20) 
COc1ccc2oc3cc(O)c(N)cc3c(=O)c2c1

>  <Energy>  (20) 
42.60026960139678

>  <Genealogy>  (20) 
COc1ccc2oc3cc(O)c(N)cc3c(=O)c2c1 (3D coordinates assigned)
COc1ccc2oc3cc(O)c(N)cc3c(=O)c2c1 (optimized conformer: 42.60026960139678 kcal/mol)

>  <smiles>  (20) 
COc1ccc2oc3cc(O)c(N)cc3c(=O)c2c1

>  <score_type>  (20) 
oracle

>  <origin>  (20) 
adg

>  <m_score__min__energy>  (20) 
-7.6299999999999999

>  <m_primary>  (20) 
energy

$$$$
20:0
     RDKit          3D

 52 53  0  0  0  0  0  0  0  0999 V2000
   -2.9560   20.9460  -29.2340 C   0  0  0  0  0  0  0  0  0  0  0  0
   -3.0480   21.5870  -27.8490 C   0  0  0  0  0  0  0  0  0  0  0  0
   -3.8960   22.8710  -27.8550 C   0  0  0  0  0  0  0  0  0  0  0  0
   -3.0640   24.1520  -27.6810 C   0  0  0  0  0  0  0  0  0  0  0  0
   -2.3060   24.7230  -29.2040 S   0  0  0  0  0  0  0  0  0  0  0  0
   -1.4510   25.9340  -28.9500 O   0  0  0  0  0  0  0  0  0  0  0  0
   -1.4110   23.6260  -29.7080 O   0  0  0  0  0  0  0  0  0  0  0  0
   -3.4880   25.0500  -30.4340 N   0  0  0  0  0  0  0  0  0  0  0  0
   -4.6760   24.3020  -30.7320 C   0  0  0  0  0  0  0  0  0  0  0  0
   -4.6420   23.0480  -31.3660 C   0  0  0  0  0  0  0  0  0  0  0  0
   -5.8280   22.3650  -31.6510 C   0  0  0  0  0  0  0  0  0  0  0  0
   -5.7590   21.1520  -32.2560 F   0  0  0  0  0  0  0  0  0  0  0  0
   -7.0700   22.9210  -31.2970 C   0  0  0  0  0  0  0  0  0  0  0  0
   -8.3620   22.1870  -31.5760 C   0  0  0  0  0  0  0  0  0  0  0  0
   -8.2790   20.7510  -31.2450 N   0  0  0  0  0  0  0  0  0  0  0  0
   -9.1630   19.8960  -32.0690 C   0  0  0  0  0  0  0  0  0  0  0  0
   -8.4990   18.5840  -32.5330 C   0  0  0  0  0  0  0  0  0  0  0  0
   -7.0260   18.6740  -32.5020 N   0  0  0  0  0  0  0  0  0  0  0  0
   -6.4780   18.9820  -33.8240 C   0  0  0  0  0  0  0  0  0  0  0  0
   -5.0510   18.4610  -33.8320 C   0  0  0  0  0  0  0  0  0  0  0  0
   -5.0070   17.3980  -32.7460 C   0  0  0  0  0  0  0  0  0  0  0  0
   -6.3850   17.4170  -32.1000 C   0  0  0  0  0  0  0  0  0  0  0  0
   -7.1020   24.1810  -30.6820 C   0  0  0  0  0  0  0  0  0  0  0  0
   -5.9150   24.8650  -30.4030 C   0  0  0  0  0  0  0  0  0  0  0  0
   -5.9730   26.0810  -29.8040 F   0  0  0  0  0  0  0  0  0  0  0  0
   -2.8005   19.8623  -29.1269 H   0  0  0  0  0  0  0  0  0  0  0  0
   -3.8897   21.1296  -29.7858 H   0  0  0  0  0  0  0  0  0  0  0  0
   -2.1116   21.3848  -29.7858 H   0  0  0  0  0  0  0  0  0  0  0  0
   -3.5035   20.8655  -27.1548 H   0  0  0  0  0  0  0  0  0  0  0  0
   -2.0291   21.8580  -27.5353 H   0  0  0  0  0  0  0  0  0  0  0  0
   -4.4319   22.9306  -28.8138 H   0  0  0  0  0  0  0  0  0  0  0  0
   -4.5832   22.8108  -26.9981 H   0  0  0  0  0  0  0  0  0  0  0  0
   -3.7228   24.9464  -27.3004 H   0  0  0  0  0  0  0  0  0  0  0  0
   -2.2486   23.9166  -26.9812 H   0  0  0  0  0  0  0  0  0  0  0  0
   -3.6751   22.6008  -31.6399 H   0  0  0  0  0  0  0  0  0  0  0  0
   -9.1631   22.6419  -30.9748 H   0  0  0  0  0  0  0  0  0  0  0  0
   -8.5679   22.2704  -32.6533 H   0  0  0  0  0  0  0  0  0  0  0  0
   -8.5940   20.6520  -30.2510 H   0  0  0  0  0  0  0  0  0  0  0  0
   -7.2880   20.4210  -31.2700 H   0  0  0  0  0  0  0  0  0  0  0  0
  -10.0538   19.6434  -31.4752 H   0  0  0  0  0  0  0  0  0  0  0  0
   -9.4112   20.4687  -32.9748 H   0  0  0  0  0  0  0  0  0  0  0  0
   -8.8199   17.7682  -31.8685 H   0  0  0  0  0  0  0  0  0  0  0  0
   -8.8080   18.3931  -33.5713 H   0  0  0  0  0  0  0  0  0  0  0  0
   -7.0691   18.4829  -34.6060 H   0  0  0  0  0  0  0  0  0  0  0  0
   -6.5077   20.0631  -34.0247 H   0  0  0  0  0  0  0  0  0  0  0  0
   -4.8062   18.0226  -34.8107 H   0  0  0  0  0  0  0  0  0  0  0  0
   -4.3202   19.2630  -33.6513 H   0  0  0  0  0  0  0  0  0  0  0  0
   -4.8015   16.4100  -33.1837 H   0  0  0  0  0  0  0  0  0  0  0  0
   -4.2108   17.5967  -32.0134 H   0  0  0  0  0  0  0  0  0  0  0  0
   -6.9791   16.5602  -32.4506 H   0  0  0  0  0  0  0  0  0  0  0  0
   -6.3079   17.3466  -31.0050 H   0  0  0  0  0  0  0  0  0  0  0  0
   -8.0685   24.6346  -30.4171 H   0  0  0  0  0  0  0  0  0  0  0  0
  1  2  1  0
  2  3  1  0
  3  4  1  0
  4  5  1  0
  5  6  2  0
  5  7  2  0
  5  8  1  0
  8  9  1  0
  9 10  2  0
 10 11  1  0
 11 12  1  0
 11 13  2  0
 13 14  1  0
 14 15  1  0
 15 16  1  0
 16 17  1  0
 17 18  1  0
 18 19  1  0
 19 20  1  0
 20 21  1  0
 21 22  1  0
 13 23  1  0
 23 24  2  0
 24 25  1  0
 24  9  1  0
 22 18  1  0
  1 26  1  0
  1 27  1  0
  1 28  1  0
  2 29  1  0
  2 30  1  0
  3 31  1  0
  3 32  1  0
  4 33  1  0
  4 34  1  0
 10 35  1  0
 14 36  1  0
 14 37  1  0
 15 38  1  0
 15 39  1  0
 16 40  1  0
 16 41  1  0
 17 42  1  0
 17 43  1  0
 19 44  1  0
 19 45  1  0
 20 46  1  0
 20 47  1  0
 21 48  1  0
 21 49  1  0
 22 50  1  0
 22 51  1  0
 23 52  1  0
M  CHG  2   8  -1  15   1
M  END
>  <UniqueID>  (21) 
20

>  <SMILES>  (21) 
CCCCS(=O)(=O)[N-]c1cc(F)c(C[NH2+]CCN2CCCC2)cc1F

>  <Energy>  (21) 
49.401075861270364

>  <Genealogy>  (21) 
CCCCS(=O)(=O)[N-]c1cc(F)c(C[NH2+]CCN2CCCC2)cc1F (protonated)
CCCCS(=O)(=O)[N-]c1cc(F)c(C[NH2+]CCN2CCCC2)cc1F (3D coordinates assigned)
CCCCS(=O)(=O)[N-]c1cc(F)c(C[NH2+]CCN2CCCC2)cc1F (nonaromatic ring conformer: 49.401075861270364 kcal/mol)

>  <smiles>  (21) 
CCCCS(=O)(=O)Nc1cc(F)c(CNCCN2CCCC2)cc1F

>  <score_type>  (21) 
oracle

>  <origin>  (21) 
adg

>  <m_score__min__energy>  (21) 
-9.0099999999999998

>  <m_primary>  (21) 
energy

$$$$
21:0
     RDKit          3D

 33 34  0  0  0  0  0  0  0  0999 V2000
   -6.8760   24.5300  -30.8180 C   0  0  0  0  0  0  0  0  0  0  0  0
   -6.2650   23.3850  -31.1580 C   0  0  0  0  0  0  0  0  0  0  0  0
   -4.9200   23.0640  -30.9480 C   0  0  0  0  0  0  0  0  0  0  0  0
   -3.8860   23.8700  -30.2580 C   0  0  0  0  0  0  0  0  0  0  0  0
   -3.8010   25.2770  -30.4660 N   0  0  0  0  0  0  0  0  0  0  0  0
   -3.0890   23.3180  -29.4550 O   0  0  0  0  0  0  0  0  0  0  0  0
   -4.7270   21.8080  -31.5170 C   0  0  0  0  0  0  0  0  0  0  0  0
   -3.4300   21.0480  -31.5430 C   0  0  0  0  0  0  0  0  0  0  0  0
   -5.8830   21.3600  -32.0570 N   0  0  0  0  0  0  0  0  0  0  0  0
   -6.0570   20.1130  -32.7520 C   0  0  0  0  0  0  0  0  0  0  0  0
   -5.2040   19.7980  -33.8180 C   0  0  0  0  0  0  0  0  0  0  0  0
   -5.3600   18.5980  -34.5150 C   0  0  0  0  0  0  0  0  0  0  0  0
   -6.3700   17.7050  -34.1520 C   0  0  0  0  0  0  0  0  0  0  0  0
   -7.2230   18.0060  -33.0860 C   0  0  0  0  0  0  0  0  0  0  0  0
   -7.0670   19.2050  -32.3690 C   0  0  0  0  0  0  0  0  0  0  0  0
   -7.9940   19.5200  -31.2290 C   0  0  0  0  0  0  0  0  0  0  0  0
   -6.8280   22.3070  -31.8440 C   0  0  0  0  0  0  0  0  0  0  0  0
   -8.0980   22.2010  -32.2640 C   0  0  0  0  0  0  0  0  0  0  0  0
   -7.9453   24.6685  -31.0358 H   0  0  0  0  0  0  0  0  0  0  0  0
   -6.3077   25.3303  -30.3214 H   0  0  0  0  0  0  0  0  0  0  0  0
   -3.1970   25.6730  -31.2200 H   0  0  0  0  0  0  0  0  0  0  0  0
   -3.0982   20.8536  -30.5124 H   0  0  0  0  0  0  0  0  0  0  0  0
   -3.5755   20.0923  -32.0678 H   0  0  0  0  0  0  0  0  0  0  0  0
   -2.6674   21.6421  -32.0678 H   0  0  0  0  0  0  0  0  0  0  0  0
   -4.4075   20.4994  -34.1073 H   0  0  0  0  0  0  0  0  0  0  0  0
   -4.6867   18.3562  -35.3506 H   0  0  0  0  0  0  0  0  0  0  0  0
   -6.4948   16.7628  -34.7058 H   0  0  0  0  0  0  0  0  0  0  0  0
   -8.0201   17.3012  -32.8070 H   0  0  0  0  0  0  0  0  0  0  0  0
   -7.4753   19.3437  -30.2751 H   0  0  0  0  0  0  0  0  0  0  0  0
   -8.3037   20.5738  -31.2887 H   0  0  0  0  0  0  0  0  0  0  0  0
   -8.8816   18.8730  -31.2887 H   0  0  0  0  0  0  0  0  0  0  0  0
   -8.8151   23.0089  -32.0566 H   0  0  0  0  0  0  0  0  0  0  0  0
   -8.4220   21.3062  -32.8157 H   0  0  0  0  0  0  0  0  0  0  0  0
  1  2  2  0
  2  3  1  0
  3  4  1  0
  4  5  1  0
  4  6  2  0
  3  7  2  0
  7  8  1  0
  7  9  1  0
  9 10  1  0
 10 11  2  0
 11 12  1  0
 12 13  2  0
 13 14  1  0
 14 15  2  0
 15 16  1  0
  9 17  1  0
 17 18  2  0
 17  2  1  0
 15 10  1  0
  1 19  1  0
  1 20  1  0
  5 21  1  0
  8 22  1  0
  8 23  1  0
  8 24  1  0
 11 25  1  0
 12 26  1  0
 13 27  1  0
 14 28  1  0
 16 29  1  0
 16 30  1  0
 16 31  1  0
 18 32  1  0
 18 33  1  0
M  CHG  1   5  -1
M  END
>  <UniqueID>  (22) 
21

>  <SMILES>  (22) 
C=c1c(C([NH-])=O)c(C)n(-c2ccccc2C)c1=C

>  <Energy>  (22) 
72.75471431774467

>  <Genealogy>  (22) 
C=c1c(C([NH-])=O)c(C)n(-c2ccccc2C)c1=C (protonated)
C=c1c(C([NH-])=O)c(C)n(-c2ccccc2C)c1=C (3D coordinates assigned)
C=c1c(C([NH-])=O)c(C)n(-c2ccccc2C)c1=C (optimized conformer: 72.75471431774467 kcal/mol)

>  <smiles>  (22) 
C=c1c(C(N)=O)c(C)n(-c2ccccc2C)c1=C

>  <score_type>  (22) 
oracle

>  <origin>  (22) 
adg

>  <m_score__min__energy>  (22) 
-10.06

>  <m_primary>  (22) 
energy

$$$$
22:0
     RDKit          3D

 49 51  0  0  0  0  0  0  0  0999 V2000
   -1.4020   21.3080  -31.8290 C   0  0  0  0  0  0  0  0  0  0  0  0
   -0.2630   21.3100  -30.9740 O   0  0  0  0  0  0  0  0  0  0  0  0
   -0.0290   20.3730  -29.9540 C   0  0  0  0  0  0  0  0  0  0  0  0
    0.9110   19.3310  -30.0990 C   0  0  0  0  0  0  0  0  0  0  0  0
    1.1020   18.4050  -29.0700 C   0  0  0  0  0  0  0  0  0  0  0  0
    0.3620   18.5070  -27.8900 C   0  0  0  0  0  0  0  0  0  0  0  0
   -0.5730   19.5400  -27.7340 C   0  0  0  0  0  0  0  0  0  0  0  0
   -0.7690   20.4750  -28.7590 C   0  0  0  0  0  0  0  0  0  0  0  0
   -1.7320   21.5270  -28.5870 N   0  0  0  0  0  0  0  0  0  0  0  0
   -3.1630   21.2210  -28.7060 C   0  0  0  0  0  0  0  0  0  0  0  0
   -4.0310   22.4690  -28.5150 C   0  0  0  0  0  0  0  0  0  0  0  0
   -3.4690   23.6170  -29.2480 N   0  0  0  0  0  0  0  0  0  0  0  0
   -4.3240   24.5720  -29.9100 C   0  0  0  0  0  0  0  0  0  0  0  0
   -3.8470   25.2980  -30.8280 O   0  0  0  0  0  0  0  0  0  0  0  0
   -5.7870   24.6930  -29.5600 C   0  0  0  0  0  0  0  0  0  0  0  0
   -6.6990   24.6290  -30.7890 C   0  0  0  0  0  0  0  0  0  0  0  0
   -6.8380   23.2560  -31.2790 N   0  0  0  0  0  0  0  0  0  0  0  0
   -7.9100   22.3510  -30.9010 C   0  0  0  0  0  0  0  0  0  0  0  0
   -7.6070   21.0170  -31.6100 C   0  0  0  0  0  0  0  0  0  0  0  0
   -6.1640   21.1000  -32.1280 C   0  0  0  0  0  0  0  0  0  0  0  0
   -5.8310   22.5310  -31.9600 C   0  0  0  0  0  0  0  0  0  0  0  0
   -4.7560   23.0470  -32.3570 O   0  0  0  0  0  0  0  0  0  0  0  0
   -2.0200   23.8670  -29.2390 C   0  0  0  0  0  0  0  0  0  0  0  0
   -1.2870   22.8950  -28.3120 C   0  0  0  0  0  0  0  0  0  0  0  0
   -2.3178   21.3064  -31.2197 H   0  0  0  0  0  0  0  0  0  0  0  0
   -1.3855   22.2062  -32.4638 H   0  0  0  0  0  0  0  0  0  0  0  0
   -1.3824   20.4099  -32.4638 H   0  0  0  0  0  0  0  0  0  0  0  0
    1.4964   19.2471  -31.0265 H   0  0  0  0  0  0  0  0  0  0  0  0
    1.8362   17.5947  -29.1896 H   0  0  0  0  0  0  0  0  0  0  0  0
    0.5129   17.7760  -27.0820 H   0  0  0  0  0  0  0  0  0  0  0  0
   -1.1548   19.6167  -26.8036 H   0  0  0  0  0  0  0  0  0  0  0  0
   -3.3556   20.8032  -29.7052 H   0  0  0  0  0  0  0  0  0  0  0  0
   -3.4244   20.4996  -27.9178 H   0  0  0  0  0  0  0  0  0  0  0  0
   -5.0446   22.2636  -28.8897 H   0  0  0  0  0  0  0  0  0  0  0  0
   -4.0605   22.7162  -27.4435 H   0  0  0  0  0  0  0  0  0  0  0  0
   -6.0549   23.8706  -28.8804 H   0  0  0  0  0  0  0  0  0  0  0  0
   -5.9345   25.6761  -29.0892 H   0  0  0  0  0  0  0  0  0  0  0  0
   -7.6928   25.0148  -30.5179 H   0  0  0  0  0  0  0  0  0  0  0  0
   -6.2488   25.2379  -31.5868 H   0  0  0  0  0  0  0  0  0  0  0  0
   -7.9246   22.2098  -29.8102 H   0  0  0  0  0  0  0  0  0  0  0  0
   -8.8942   22.7477  -31.1909 H   0  0  0  0  0  0  0  0  0  0  0  0
   -7.7062   20.1817  -30.9012 H   0  0  0  0  0  0  0  0  0  0  0  0
   -8.3111   20.8440  -32.4372 H   0  0  0  0  0  0  0  0  0  0  0  0
   -5.4927   20.4653  -31.5309 H   0  0  0  0  0  0  0  0  0  0  0  0
   -6.0551   20.7488  -33.1647 H   0  0  0  0  0  0  0  0  0  0  0  0
   -1.6308   23.7480  -30.2609 H   0  0  0  0  0  0  0  0  0  0  0  0
   -1.8493   24.8893  -28.8704 H   0  0  0  0  0  0  0  0  0  0  0  0
   -0.2034   22.9697  -28.4856 H   0  0  0  0  0  0  0  0  0  0  0  0
   -1.5096   23.1490  -27.2651 H   0  0  0  0  0  0  0  0  0  0  0  0
  1  2  1  0
  2  3  1  0
  3  4  2  0
  4  5  1  0
  5  6  2  0
  6  7  1  0
  7  8  2  0
  8  9  1  0
  9 10  1  0
 10 11  1  0
 11 12  1  0
 12 13  1  0
 13 14  2  0
 13 15  1  0
 15 16  1  0
 16 17  1  0
 17 18  1  0
 18 19  1  0
 19 20  1  0
 20 21  1  0
 21 22  2  0
 12 23  1  0
 23 24  1  0
  8  3  1  0
 24  9  1  0
 21 17  1  0
  1 25  1  0
  1 26  1  0
  1 27  1  0
  4 28  1  0
  5 29  1  0
  6 30  1  0
  7 31  1  0
 10 32  1  0
 10 33  1  0
 11 34  1  0
 11 35  1  0
 15 36  1  0
 15 37  1  0
 16 38  1  0
 16 39  1  0
 18 40  1  0
 18 41  1  0
 19 42  1  0
 19 43  1  0
 20 44  1  0
 20 45  1  0
 23 46  1  0
 23 47  1  0
 24 48  1  0
 24 49  1  0
M  END
>  <UniqueID>  (23) 
22

>  <SMILES>  (23) 
COc1ccccc1N1CCN(C(=O)CCN2CCCC2=O)CC1

>  <Energy>  (23) 
57.58779959281858

>  <Genealogy>  (23) 
COc1ccccc1N1CCN(C(=O)CCN2CCCC2=O)CC1 (3D coordinates assigned)
COc1ccccc1N1CCN(C(=O)CCN2CCCC2=O)CC1 (nonaromatic ring conformer: 57.58779959281858 kcal/mol)

>  <smiles>  (23) 
COc1ccccc1N1CCN(C(=O)CCN2CCCC2=O)CC1

>  <score_type>  (23) 
oracle

>  <origin>  (23) 
adg

>  <m_score__min__energy>  (23) 
-7.6100000000000003

>  <m_primary>  (23) 
energy

$$$$
23:0
     RDKit          3D

 60 63  0  0  0  0  0  0  0  0999 V2000
   -8.3900   19.0080  -32.4080 C   0  0  0  0  0  0  0  0  0  0  0  0
   -8.1890   20.4430  -32.6580 N   0  0  0  0  0  0  0  0  0  0  0  0
   -6.7980   20.8300  -32.3320 C   0  0  0  0  0  0  0  0  0  0  0  0
   -6.6650   22.3530  -32.1930 C   0  0  0  0  0  0  0  0  0  0  0  0
   -7.5530   22.9140  -31.1400 N   0  0  0  0  0  0  0  0  0  0  0  0
   -6.8030   23.3780  -29.9530 C   0  0  0  0  0  0  0  0  0  0  0  0
   -5.9840   24.6390  -30.2740 C   0  0  0  0  0  0  0  0  0  0  0  0
   -4.5920   24.3180  -30.8410 C   0  0  0  0  0  0  0  0  0  0  0  0
   -3.5580   25.1650  -30.2470 N   0  0  0  0  0  0  0  0  0  0  0  0
   -2.5210   24.7780  -29.3310 C   0  0  0  0  0  0  0  0  0  0  0  0
   -1.7260   25.6700  -28.9320 O   0  0  0  0  0  0  0  0  0  0  0  0
   -2.3380   23.3870  -28.8510 C   0  0  0  0  0  0  0  0  0  0  0  0
   -3.4240   22.6660  -28.3210 C   0  0  0  0  0  0  0  0  0  0  0  0
   -3.2310   21.3680  -27.8470 C   0  0  0  0  0  0  0  0  0  0  0  0
   -1.9570   20.7890  -27.8960 C   0  0  0  0  0  0  0  0  0  0  0  0
   -1.7290   19.4880  -27.4250 C   0  0  0  0  0  0  0  0  0  0  0  0
   -0.4400   18.9270  -27.4980 C   0  0  0  0  0  0  0  0  0  0  0  0
   -0.1650   17.6350  -27.0260 O   0  0  0  0  0  0  0  0  0  0  0  0
    0.5830   16.6670  -27.7110 C   0  0  0  0  0  0  0  0  0  0  0  0
    0.9350   16.9070  -29.0420 C   0  0  0  0  0  0  0  0  0  0  0  0
    1.6740   15.9530  -29.7410 C   0  0  0  0  0  0  0  0  0  0  0  0
    2.0370   14.7490  -29.1210 C   0  0  0  0  0  0  0  0  0  0  0  0
    2.8850   13.7380  -29.8510 C   0  0  0  0  0  0  0  0  0  0  0  0
    2.8680   12.5170  -29.2000 F   0  0  0  0  0  0  0  0  0  0  0  0
    2.4100   13.5510  -31.1380 F   0  0  0  0  0  0  0  0  0  0  0  0
    4.1870   14.1980  -29.9130 F   0  0  0  0  0  0  0  0  0  0  0  0
    1.6650   14.5490  -27.7810 C   0  0  0  0  0  0  0  0  0  0  0  0
    0.9400   15.4910  -27.1170 N   0  0  0  0  0  0  0  0  0  0  0  0
    0.6170   19.6910  -28.0100 C   0  0  0  0  0  0  0  0  0  0  0  0
    0.3940   20.9900  -28.4780 C   0  0  0  0  0  0  0  0  0  0  0  0
   -0.8900   21.5420  -28.4260 C   0  0  0  0  0  0  0  0  0  0  0  0
   -1.1080   22.8050  -28.8760 N   0  0  0  0  0  0  0  0  0  0  0  0
   -8.6510   22.0040  -30.7450 C   0  0  0  0  0  0  0  0  0  0  0  0
   -9.2150   21.2640  -31.9660 C   0  0  0  0  0  0  0  0  0  0  0  0
   -8.4157   18.8248  -31.3237 H   0  0  0  0  0  0  0  0  0  0  0  0
   -9.3418   18.6874  -32.8567 H   0  0  0  0  0  0  0  0  0  0  0  0
   -7.5629   18.4383  -32.8567 H   0  0  0  0  0  0  0  0  0  0  0  0
   -6.5065   20.3560  -31.3831 H   0  0  0  0  0  0  0  0  0  0  0  0
   -6.1422   20.4957  -33.1494 H   0  0  0  0  0  0  0  0  0  0  0  0
   -5.6222   22.5932  -31.9383 H   0  0  0  0  0  0  0  0  0  0  0  0
   -6.9636   22.8011  -33.1522 H   0  0  0  0  0  0  0  0  0  0  0  0
   -7.5141   23.6073  -29.1457 H   0  0  0  0  0  0  0  0  0  0  0  0
   -6.1107   22.5811  -29.6436 H   0  0  0  0  0  0  0  0  0  0  0  0
   -6.5355   25.2370  -31.0144 H   0  0  0  0  0  0  0  0  0  0  0  0
   -5.8388   25.1878  -29.3318 H   0  0  0  0  0  0  0  0  0  0  0  0
   -4.3551   23.2648  -30.6297 H   0  0  0  0  0  0  0  0  0  0  0  0
   -4.6106   24.5079  -31.9243 H   0  0  0  0  0  0  0  0  0  0  0  0
   -4.4230   23.1247  -28.2805 H   0  0  0  0  0  0  0  0  0  0  0  0
   -4.0785   20.8003  -27.4354 H   0  0  0  0  0  0  0  0  0  0  0  0
   -2.5584   18.9051  -26.9980 H   0  0  0  0  0  0  0  0  0  0  0  0
    0.6312   17.8422  -29.5350 H   0  0  0  0  0  0  0  0  0  0  0  0
    1.9730   16.1457  -30.7819 H   0  0  0  0  0  0  0  0  0  0  0  0
    1.9617   13.6243  -27.2644 H   0  0  0  0  0  0  0  0  0  0  0  0
    0.6430   15.2860  -26.1380 H   0  0  0  0  0  0  0  0  0  0  0  0
    1.6308   19.2656  -28.0442 H   0  0  0  0  0  0  0  0  0  0  0  0
    1.2289   21.5778  -28.8872 H   0  0  0  0  0  0  0  0  0  0  0  0
   -8.2668   21.2679  -30.0235 H   0  0  0  0  0  0  0  0  0  0  0  0
   -9.4567   22.6009  -30.2926 H   0  0  0  0  0  0  0  0  0  0  0  0
  -10.0293   20.6037  -31.6330 H   0  0  0  0  0  0  0  0  0  0  0  0
   -9.5737   22.0209  -32.6790 H   0  0  0  0  0  0  0  0  0  0  0  0
  1  2  1  0
  2  3  1  0
  3  4  1  0
  4  5  1  0
  5  6  1  0
  6  7  1  0
  7  8  1  0
  8  9  1  0
  9 10  1  0
 10 11  2  0
 10 12  1  0
 12 13  2  0
 13 14  1  0
 14 15  2  0
 15 16  1  0
 16 17  2  0
 17 18  1  0
 18 19  1  0
 19 20  2  0
 20 21  1  0
 21 22  2  0
 22 23  1  0
 23 24  1  0
 23 25  1  0
 23 26  1  0
 22 27  1  0
 27 28  2  0
 17 29  1  0
 29 30  2  0
 30 31  1  0
 31 32  2  0
  5 33  1  0
 33 34  1  0
 34  2  1  0
 32 12  1  0
 31 15  1  0
 28 19  1  0
  1 35  1  0
  1 36  1  0
  1 37  1  0
  3 38  1  0
  3 39  1  0
  4 40  1  0
  4 41  1  0
  6 42  1  0
  6 43  1  0
  7 44  1  0
  7 45  1  0
  8 46  1  0
  8 47  1  0
 13 48  1  0
 14 49  1  0
 16 50  1  0
 20 51  1  0
 21 52  1  0
 27 53  1  0
 28 54  1  0
 29 55  1  0
 30 56  1  0
 33 57  1  0
 33 58  1  0
 34 59  1  0
 34 60  1  0
M  CHG  2   9  -1  28   1
M  END
>  <UniqueID>  (24) 
23

>  <SMILES>  (24) 
CN1CCN(CCC[N-]C(=O)c2ccc3cc(Oc4ccc(C(F)(F)F)c[nH+]4)ccc3n2)CC1

>  <Energy>  (24) 
83.27915885282718

>  <Genealogy>  (24) 
CN1CCN(CCC[N-]C(=O)c2ccc3cc(Oc4ccc(C(F)(F)F)c[nH+]4)ccc3n2)CC1 (protonated)
CN1CCN(CCC[N-]C(=O)c2ccc3cc(Oc4ccc(C(F)(F)F)c[nH+]4)ccc3n2)CC1 (3D coordinates assigned)
CN1CCN(CCC[N-]C(=O)c2ccc3cc(Oc4ccc(C(F)(F)F)c[nH+]4)ccc3n2)CC1 (nonaromatic ring conformer: 83.27915885282718 kcal/mol)

>  <smiles>  (24) 
CN1CCN(CCCNC(=O)c2ccc3cc(Oc4ccc(C(F)(F)F)cn4)ccc3n2)CC1

>  <score_type>  (24) 
oracle

>  <origin>  (24) 
adg

>  <m_score__min__energy>  (24) 
-10.210000000000001

>  <m_primary>  (24) 
energy

$$$$
24:0
     RDKit          3D

 56 61  0  0  0  0  0  0  0  0999 V2000
   -2.3360   14.8200  -36.9370 C   0  0  0  0  0  0  0  0  0  0  0  0
   -2.7800   15.0220  -35.6000 O   0  0  0  0  0  0  0  0  0  0  0  0
   -3.0950   16.2720  -35.0450 C   0  0  0  0  0  0  0  0  0  0  0  0
   -2.1650   17.3260  -35.0050 C   0  0  0  0  0  0  0  0  0  0  0  0
   -2.5130   18.5560  -34.4450 C   0  0  0  0  0  0  0  0  0  0  0  0
   -3.7930   18.7510  -33.9090 C   0  0  0  0  0  0  0  0  0  0  0  0
   -4.1410   19.9780  -33.3330 C   0  0  0  0  0  0  0  0  0  0  0  0
   -5.4220   20.1590  -32.7820 C   0  0  0  0  0  0  0  0  0  0  0  0
   -6.3410   19.1370  -32.8550 N   0  0  0  0  0  0  0  0  0  0  0  0
   -6.0070   17.9260  -33.3960 C   0  0  0  0  0  0  0  0  0  0  0  0
   -4.7360   17.7060  -33.9450 C   0  0  0  0  0  0  0  0  0  0  0  0
   -4.3860   16.4700  -34.5290 C   0  0  0  0  0  0  0  0  0  0  0  0
   -5.3160   15.4270  -34.6100 O   0  0  0  0  0  0  0  0  0  0  0  0
   -5.7340   14.6980  -33.4570 C   0  0  0  0  0  0  0  0  0  0  0  0
   -4.5550   14.0240  -32.8110 C   0  0  0  0  0  0  0  0  0  0  0  0
   -4.6120   13.6470  -31.4610 C   0  0  0  0  0  0  0  0  0  0  0  0
   -3.5490   12.9420  -30.8990 C   0  0  0  0  0  0  0  0  0  0  0  0
   -2.4450   12.5950  -31.6870 C   0  0  0  0  0  0  0  0  0  0  0  0
   -1.2820   11.8600  -31.0900 C   0  0  0  0  0  0  0  0  0  0  0  0
   -2.4180   13.0000  -33.0280 C   0  0  0  0  0  0  0  0  0  0  0  0
   -3.4660   13.6860  -33.5600 N   0  0  0  0  0  0  0  0  0  0  0  0
   -7.6830   19.2990  -32.2650 C   0  0  0  0  0  0  0  0  0  0  0  0
   -8.2180   20.7160  -32.4900 C   0  0  0  0  0  0  0  0  0  0  0  0
   -7.2140   21.7270  -32.0130 C   0  0  0  0  0  0  0  0  0  0  0  0
   -7.6490   22.9520  -31.4620 C   0  0  0  0  0  0  0  0  0  0  0  0
   -6.6830   23.8590  -31.0490 C   0  0  0  0  0  0  0  0  0  0  0  0
   -5.3570   23.6000  -31.1640 C   0  0  0  0  0  0  0  0  0  0  0  0
   -4.8800   22.4160  -31.7140 C   0  0  0  0  0  0  0  0  0  0  0  0
   -5.8250   21.4610  -32.1710 C   0  0  0  0  0  0  0  0  0  0  0  0
   -4.6350   24.6660  -30.6640 O   0  0  0  0  0  0  0  0  0  0  0  0
   -5.5660   25.6580  -30.2090 C   0  0  0  0  0  0  0  0  0  0  0  0
   -6.8610   25.1020  -30.4730 O   0  0  0  0  0  0  0  0  0  0  0  0
   -1.3348   14.3645  -36.9260 H   0  0  0  0  0  0  0  0  0  0  0  0
   -3.0369   14.1522  -37.4592 H   0  0  0  0  0  0  0  0  0  0  0  0
   -2.2931   15.7872  -37.4592 H   0  0  0  0  0  0  0  0  0  0  0  0
   -1.1560   17.1799  -35.4181 H   0  0  0  0  0  0  0  0  0  0  0  0
   -1.7797   19.3756  -34.4243 H   0  0  0  0  0  0  0  0  0  0  0  0
   -3.4120   20.8014  -33.3113 H   0  0  0  0  0  0  0  0  0  0  0  0
   -6.7471   17.1122  -33.4004 H   0  0  0  0  0  0  0  0  0  0  0  0
   -6.1956   15.3902  -32.7375 H   0  0  0  0  0  0  0  0  0  0  0  0
   -6.4618   13.9317  -33.7621 H   0  0  0  0  0  0  0  0  0  0  0  0
   -5.4894   13.9059  -30.8502 H   0  0  0  0  0  0  0  0  0  0  0  0
   -3.5775   12.6583  -29.8366 H   0  0  0  0  0  0  0  0  0  0  0  0
   -1.3466   11.9009  -29.9927 H   0  0  0  0  0  0  0  0  0  0  0  0
   -1.3030   10.8108  -31.4197 H   0  0  0  0  0  0  0  0  0  0  0  0
   -0.3433   12.3293  -31.4197 H   0  0  0  0  0  0  0  0  0  0  0  0
   -1.5453   12.7623  -33.6540 H   0  0  0  0  0  0  0  0  0  0  0  0
   -3.4310   13.9490  -34.5720 H   0  0  0  0  0  0  0  0  0  0  0  0
   -8.3699   18.5776  -32.7317 H   0  0  0  0  0  0  0  0  0  0  0  0
   -7.6117   19.1209  -31.1819 H   0  0  0  0  0  0  0  0  0  0  0  0
   -8.4062   20.8680  -33.5631 H   0  0  0  0  0  0  0  0  0  0  0  0
   -9.1534   20.8423  -31.9252 H   0  0  0  0  0  0  0  0  0  0  0  0
   -8.7204   23.1805  -31.3631 H   0  0  0  0  0  0  0  0  0  0  0  0
   -3.7997   22.2245  -31.7929 H   0  0  0  0  0  0  0  0  0  0  0  0
   -5.4374   25.8437  -29.1324 H   0  0  0  0  0  0  0  0  0  0  0  0
   -5.4204   26.6236  -30.7153 H   0  0  0  0  0  0  0  0  0  0  0  0
  1  2  1  0
  2  3  1  0
  3  4  2  0
  4  5  1  0
  5  6  2  0
  6  7  1  0
  7  8  2  0
  8  9  1  0
  9 10  2  0
 10 11  1  0
 11 12  2  0
 12 13  1  0
 13 14  1  0
 14 15  1  0
 15 16  2  0
 16 17  1  0
 17 18  2  0
 18 19  1  0
 18 20  1  0
 20 21  2  0
  9 22  1  0
 22 23  1  0
 23 24  1  0
 24 25  2  0
 25 26  1  0
 26 27  2  0
 27 28  1  0
 28 29  2  0
 27 30  1  0
 30 31  1  0
 31 32  1  0
 12  3  1  0
 21 15  1  0
 29 24  1  0
 11  6  1  0
 32 26  1  0
 29  8  1  0
  1 33  1  0
  1 34  1  0
  1 35  1  0
  4 36  1  0
  5 37  1  0
  7 38  1  0
 10 39  1  0
 14 40  1  0
 14 41  1  0
 16 42  1  0
 17 43  1  0
 19 44  1  0
 19 45  1  0
 19 46  1  0
 20 47  1  0
 21 48  1  0
 22 49  1  0
 22 50  1  0
 23 51  1  0
 23 52  1  0
 25 53  1  0
 28 54  1  0
 31 55  1  0
 31 56  1  0
M  CHG  2   9   1  21   1
M  END
>  <UniqueID>  (25) 
24

>  <SMILES>  (25) 
COc1ccc2cc3[n+](cc2c1OCc1ccc(C)c[nH+]1)CCc1cc2c(cc1-3)OCO2

>  <Energy>  (25) 
104.03265465138425

>  <Genealogy>  (25) 
COc1ccc2cc3[n+](cc2c1OCc1ccc(C)c[nH+]1)CCc1cc2c(cc1-3)OCO2 (protonated)
COc1ccc2cc3[n+](cc2c1OCc1ccc(C)c[nH+]1)CCc1cc2c(cc1-3)OCO2 (3D coordinates assigned)
COc1ccc2cc3[n+](cc2c1OCc1ccc(C)c[nH+]1)CCc1cc2c(cc1-3)OCO2 (nonaromatic ring conformer: 104.03265465138425 kcal/mol)

>  <smiles>  (25) 
COc1ccc2cc3[n+](cc2c1OCc1ccc(C)cn1)CCc1cc2c(cc1-3)OCO2

>  <score_type>  (25) 
oracle

>  <origin>  (25) 
adg

>  <m_score__min__energy>  (25) 
-9.0800000000000001

>  <m_primary>  (25) 
energy

$$$$
25:0
     RDKit          3D

 45 48  0  0  0  0  0  0  0  0999 V2000
   -6.6190   25.0720  -29.3710 N   0  0  0  0  0  0  0  0  0  0  0  0
   -5.8610   24.4100  -29.9410 C   0  0  0  0  0  0  0  0  0  0  0  0
   -4.9140   23.5810  -30.6520 C   0  0  0  0  0  0  0  0  0  0  0  0
   -5.3350   22.4780  -31.4260 C   0  0  0  0  0  0  0  0  0  0  0  0
   -6.7690   22.1400  -31.5980 C   0  0  0  0  0  0  0  0  0  0  0  0
   -7.7220   23.1520  -31.8090 C   0  0  0  0  0  0  0  0  0  0  0  0
   -9.0700   22.8250  -31.9840 C   0  0  0  0  0  0  0  0  0  0  0  0
   -9.4780   21.4890  -31.9560 C   0  0  0  0  0  0  0  0  0  0  0  0
  -10.7860   21.1740  -32.1260 F   0  0  0  0  0  0  0  0  0  0  0  0
   -8.5350   20.4750  -31.7560 C   0  0  0  0  0  0  0  0  0  0  0  0
   -7.1860   20.7970  -31.5810 C   0  0  0  0  0  0  0  0  0  0  0  0
   -4.3680   21.6680  -32.0420 C   0  0  0  0  0  0  0  0  0  0  0  0
   -3.0040   21.9720  -31.9040 C   0  0  0  0  0  0  0  0  0  0  0  0
   -1.9500   21.1400  -32.5350 C   0  0  0  0  0  0  0  0  0  0  0  0
   -2.2430   20.2860  -33.6140 C   0  0  0  0  0  0  0  0  0  0  0  0
   -1.2230   19.5280  -34.1910 C   0  0  0  0  0  0  0  0  0  0  0  0
    0.0780   19.6260  -33.7010 C   0  0  0  0  0  0  0  0  0  0  0  0
    0.3420   20.4880  -32.6380 C   0  0  0  0  0  0  0  0  0  0  0  0
   -0.6620   21.2220  -32.0830 N   0  0  0  0  0  0  0  0  0  0  0  0
   -2.6380   23.0430  -31.1510 N   0  0  0  0  0  0  0  0  0  0  0  0
   -3.5420   23.8470  -30.5270 C   0  0  0  0  0  0  0  0  0  0  0  0
   -3.1080   24.9330  -29.7550 O   0  0  0  0  0  0  0  0  0  0  0  0
   -2.0480   24.8540  -28.8040 C   0  0  0  0  0  0  0  0  0  0  0  0
   -1.7040   23.4240  -28.5080 C   0  0  0  0  0  0  0  0  0  0  0  0
   -2.3550   22.7320  -27.4760 C   0  0  0  0  0  0  0  0  0  0  0  0
   -2.0200   21.3990  -27.2280 C   0  0  0  0  0  0  0  0  0  0  0  0
   -1.0400   20.7740  -28.0020 C   0  0  0  0  0  0  0  0  0  0  0  0
   -0.4060   21.4960  -29.0150 C   0  0  0  0  0  0  0  0  0  0  0  0
   -0.7480   22.7920  -29.2430 N   0  0  0  0  0  0  0  0  0  0  0  0
   -7.4057   24.2052  -31.8365 H   0  0  0  0  0  0  0  0  0  0  0  0
   -9.8114   23.6217  -32.1442 H   0  0  0  0  0  0  0  0  0  0  0  0
   -8.8556   19.4229  -31.7364 H   0  0  0  0  0  0  0  0  0  0  0  0
   -6.4472   19.9962  -31.4293 H   0  0  0  0  0  0  0  0  0  0  0  0
   -4.6791   20.7942  -32.6334 H   0  0  0  0  0  0  0  0  0  0  0  0
   -3.2704   20.2161  -34.0007 H   0  0  0  0  0  0  0  0  0  0  0  0
   -1.4457   18.8541  -35.0314 H   0  0  0  0  0  0  0  0  0  0  0  0
    0.8872   19.0299  -34.1480 H   0  0  0  0  0  0  0  0  0  0  0  0
    1.3659   20.5758  -32.2456 H   0  0  0  0  0  0  0  0  0  0  0  0
   -0.4250   21.8490  -31.2820 H   0  0  0  0  0  0  0  0  0  0  0  0
   -1.1607   25.3619  -29.2098 H   0  0  0  0  0  0  0  0  0  0  0  0
   -2.3735   25.3388  -27.8718 H   0  0  0  0  0  0  0  0  0  0  0  0
   -3.1218   23.2343  -26.8680 H   0  0  0  0  0  0  0  0  0  0  0  0
   -2.5266   20.8431  -26.4253 H   0  0  0  0  0  0  0  0  0  0  0  0
   -0.7704   19.7240  -27.8156 H   0  0  0  0  0  0  0  0  0  0  0  0
    0.3705   21.0161  -29.6288 H   0  0  0  0  0  0  0  0  0  0  0  0
  1  2  3  0
  2  3  1  0
  3  4  2  0
  4  5  1  0
  5  6  2  0
  6  7  1  0
  7  8  2  0
  8  9  1  0
  8 10  1  0
 10 11  2  0
  4 12  1  0
 12 13  2  0
 13 14  1  0
 14 15  2  0
 15 16  1  0
 16 17  2  0
 17 18  1  0
 18 19  2  0
 13 20  1  0
 20 21  2  0
 21 22  1  0
 22 23  1  0
 23 24  1  0
 24 25  2  0
 25 26  1  0
 26 27  2  0
 27 28  1  0
 28 29  2  0
 21  3  1  0
 29 24  1  0
 11  5  1  0
 19 14  1  0
  6 30  1  0
  7 31  1  0
 10 32  1  0
 11 33  1  0
 12 34  1  0
 15 35  1  0
 16 36  1  0
 17 37  1  0
 18 38  1  0
 19 39  1  0
 23 40  1  0
 23 41  1  0
 25 42  1  0
 26 43  1  0
 27 44  1  0
 28 45  1  0
M  CHG  1  19   1
M  END
>  <UniqueID>  (26) 
25

>  <SMILES>  (26) 
N#Cc1c(-c2ccc(F)cc2)cc(-c2cccc[nH+]2)nc1OCc1ccccn1

>  <Energy>  (26) 
59.135301947761384

>  <Genealogy>  (26) 
N#Cc1c(-c2ccc(F)cc2)cc(-c2cccc[nH+]2)nc1OCc1ccccn1 (protonated)
N#Cc1c(-c2ccc(F)cc2)cc(-c2cccc[nH+]2)nc1OCc1ccccn1 (3D coordinates assigned)
N#Cc1c(-c2ccc(F)cc2)cc(-c2cccc[nH+]2)nc1OCc1ccccn1 (optimized conformer: 59.135301947761384 kcal/mol)

>  <smiles>  (26) 
N#Cc1c(-c2ccc(F)cc2)cc(-c2ccccn2)nc1OCc1ccccn1

>  <score_type>  (26) 
oracle

>  <origin>  (26) 
adg

>  <m_score__min__energy>  (26) 
-8.5299999999999994

>  <m_primary>  (26) 
energy

$$$$
26:0
     RDKit          3D

 41 41  0  0  0  0  0  0  0  0999 V2000
   -6.8810   21.5260  -32.6370 C   0  0  0  0  0  0  0  0  0  0  0  0
   -7.7700   22.0080  -31.5510 N   0  0  0  0  0  0  0  0  0  0  0  0
   -8.8780   22.8040  -32.1320 C   0  0  0  0  0  0  0  0  0  0  0  0
   -8.3520   20.8270  -30.8710 C   0  0  0  0  0  0  0  0  0  0  0  0
   -7.0060   22.7980  -30.5350 C   0  0  0  0  0  0  0  0  0  0  0  0
   -7.1120   24.3370  -30.6820 C   0  0  0  0  0  0  0  0  0  0  0  0
   -6.1140   25.0720  -29.7760 C   0  0  0  0  0  0  0  0  0  0  0  0
   -4.6910   24.6820  -30.0820 C   0  0  0  0  0  0  0  0  0  0  0  0
   -3.9340   25.5240  -30.6320 O   0  0  0  0  0  0  0  0  0  0  0  0
   -4.1350   23.4350  -29.6450 N   0  0  0  0  0  0  0  0  0  0  0  0
   -3.1770   22.6400  -30.3570 C   0  0  0  0  0  0  0  0  0  0  0  0
   -3.5840   21.8220  -31.4250 C   0  0  0  0  0  0  0  0  0  0  0  0
   -2.6500   21.0560  -32.1270 C   0  0  0  0  0  0  0  0  0  0  0  0
   -1.3000   21.1170  -31.7830 C   0  0  0  0  0  0  0  0  0  0  0  0
   -0.8780   21.9540  -30.7480 C   0  0  0  0  0  0  0  0  0  0  0  0
   -1.8060   22.7360  -30.0410 C   0  0  0  0  0  0  0  0  0  0  0  0
   -1.2360   23.7940  -28.7440 S   0  0  0  0  0  0  0  0  0  0  0  0
   -2.0880   25.2980  -28.7790 N   0  0  0  0  0  0  0  0  0  0  0  0
   -1.4730   23.1440  -27.4080 O   0  0  0  0  0  0  0  0  0  0  0  0
    0.2320   24.0540  -28.9230 O   0  0  0  0  0  0  0  0  0  0  0  0
   -5.9941   21.0451  -32.1986 H   0  0  0  0  0  0  0  0  0  0  0  0
   -7.4230   20.7982  -33.2587 H   0  0  0  0  0  0  0  0  0  0  0  0
   -6.5669   22.3773  -33.2587 H   0  0  0  0  0  0  0  0  0  0  0  0
   -9.4820   23.2379  -31.3215 H   0  0  0  0  0  0  0  0  0  0  0  0
   -8.4629   23.6117  -32.7528 H   0  0  0  0  0  0  0  0  0  0  0  0
   -9.5110   22.1529  -32.7528 H   0  0  0  0  0  0  0  0  0  0  0  0
   -8.2856   20.9617  -29.7813 H   0  0  0  0  0  0  0  0  0  0  0  0
   -9.4068   20.7183  -31.1635 H   0  0  0  0  0  0  0  0  0  0  0  0
   -7.7956   19.9243  -31.1635 H   0  0  0  0  0  0  0  0  0  0  0  0
   -7.3818   22.5244  -29.5380 H   0  0  0  0  0  0  0  0  0  0  0  0
   -5.9456   22.5485  -30.6878 H   0  0  0  0  0  0  0  0  0  0  0  0
   -6.9083   24.6086  -31.7283 H   0  0  0  0  0  0  0  0  0  0  0  0
   -8.1270   24.6375  -30.3830 H   0  0  0  0  0  0  0  0  0  0  0  0
   -6.2268   26.1557  -29.9269 H   0  0  0  0  0  0  0  0  0  0  0  0
   -6.3288   24.7945  -28.7335 H   0  0  0  0  0  0  0  0  0  0  0  0
   -4.6457   21.7846  -31.7102 H   0  0  0  0  0  0  0  0  0  0  0  0
   -2.9793   20.4053  -32.9505 H   0  0  0  0  0  0  0  0  0  0  0  0
   -0.5663   20.5048  -32.3279 H   0  0  0  0  0  0  0  0  0  0  0  0
    0.1889   22.0012  -30.4845 H   0  0  0  0  0  0  0  0  0  0  0  0
   -2.0040   25.6750  -29.7500 H   0  0  0  0  0  0  0  0  0  0  0  0
   -3.0970   25.0800  -28.6280 H   0  0  0  0  0  0  0  0  0  0  0  0
  1  2  1  0
  2  3  1  0
  2  4  1  0
  2  5  1  0
  5  6  1  0
  6  7  1  0
  7  8  1  0
  8  9  2  0
  8 10  1  0
 10 11  1  0
 11 12  2  0
 12 13  1  0
 13 14  2  0
 14 15  1  0
 15 16  2  0
 16 17  1  0
 17 18  1  0
 17 19  2  0
 17 20  2  0
 16 11  1  0
  1 21  1  0
  1 22  1  0
  1 23  1  0
  3 24  1  0
  3 25  1  0
  3 26  1  0
  4 27  1  0
  4 28  1  0
  4 29  1  0
  5 30  1  0
  5 31  1  0
  6 32  1  0
  6 33  1  0
  7 34  1  0
  7 35  1  0
 12 36  1  0
 13 37  1  0
 14 38  1  0
 15 39  1  0
 18 40  1  0
 18 41  1  0
M  CHG  2   2   1  10  -1
M  END
>  <UniqueID>  (27) 
26

>  <SMILES>  (27) 
C[N+](C)(C)CCCC(=O)[N-]c1ccccc1S(N)(=O)=O

>  <Energy>  (27) 
45.11321035953116

>  <Genealogy>  (27) 
C[N+](C)(C)CCCC(=O)[N-]c1ccccc1S(N)(=O)=O (protonated)
C[N+](C)(C)CCCC(=O)[N-]c1ccccc1S(N)(=O)=O (3D coordinates assigned)
C[N+](C)(C)CCCC(=O)[N-]c1ccccc1S(N)(=O)=O (optimized conformer: 45.11321035953116 kcal/mol)

>  <smiles>  (27) 
C[N+](C)(C)CCCC(=O)Nc1ccccc1S(N)(=O)=O

>  <score_type>  (27) 
oracle

>  <origin>  (27) 
adg

>  <m_score__min__energy>  (27) 
-7.71

>  <m_primary>  (27) 
energy

$$$$
27:0
     RDKit          3D

 39 41  0  0  0  0  0  0  0  0999 V2000
   -0.4200   23.7200  -25.7780 C   0  0  0  0  0  0  0  0  0  0  0  0
   -0.3670   23.6040  -27.1960 O   0  0  0  0  0  0  0  0  0  0  0  0
   -1.4870   23.3960  -28.0160 C   0  0  0  0  0  0  0  0  0  0  0  0
   -1.2760   23.1370  -29.3760 C   0  0  0  0  0  0  0  0  0  0  0  0
   -2.3590   22.9250  -30.2330 C   0  0  0  0  0  0  0  0  0  0  0  0
   -3.6700   22.9760  -29.7410 C   0  0  0  0  0  0  0  0  0  0  0  0
   -4.8190   22.7430  -30.6440 C   0  0  0  0  0  0  0  0  0  0  0  0
   -5.6940   23.7930  -30.9980 C   0  0  0  0  0  0  0  0  0  0  0  0
   -5.5340   25.1880  -30.4390 C   0  0  0  0  0  0  0  0  0  0  0  0
   -4.2340   25.6560  -30.6670 O   0  0  0  0  0  0  0  0  0  0  0  0
   -6.7720   23.5180  -31.8460 C   0  0  0  0  0  0  0  0  0  0  0  0
   -6.9680   22.2270  -32.3310 C   0  0  0  0  0  0  0  0  0  0  0  0
   -6.1220   21.2130  -31.9820 N   0  0  0  0  0  0  0  0  0  0  0  0
   -6.3770   19.8910  -32.4990 C   0  0  0  0  0  0  0  0  0  0  0  0
   -5.7270   19.4390  -33.6580 C   0  0  0  0  0  0  0  0  0  0  0  0
   -5.9910   18.1600  -34.1530 C   0  0  0  0  0  0  0  0  0  0  0  0
   -6.9070   17.3440  -33.4870 C   0  0  0  0  0  0  0  0  0  0  0  0
   -7.5350   17.7960  -32.3700 N   0  0  0  0  0  0  0  0  0  0  0  0
   -7.2950   19.0370  -31.8670 C   0  0  0  0  0  0  0  0  0  0  0  0
   -5.0530   21.4510  -31.1560 C   0  0  0  0  0  0  0  0  0  0  0  0
   -4.2570   20.5130  -30.8620 O   0  0  0  0  0  0  0  0  0  0  0  0
   -3.8870   23.2280  -28.3790 C   0  0  0  0  0  0  0  0  0  0  0  0
   -2.8050   23.4400  -27.5200 C   0  0  0  0  0  0  0  0  0  0  0  0
   -0.0044   22.8104  -25.3199 H   0  0  0  0  0  0  0  0  0  0  0  0
    0.1686   24.5929  -25.4593 H   0  0  0  0  0  0  0  0  0  0  0  0
   -1.4652   23.8464  -25.4593 H   0  0  0  0  0  0  0  0  0  0  0  0
   -0.2505   23.1002  -29.7723 H   0  0  0  0  0  0  0  0  0  0  0  0
   -2.1817   22.7172  -31.2985 H   0  0  0  0  0  0  0  0  0  0  0  0
   -6.2532   25.8604  -30.9296 H   0  0  0  0  0  0  0  0  0  0  0  0
   -5.7208   25.1632  -29.3553 H   0  0  0  0  0  0  0  0  0  0  0  0
   -4.1090   25.6780  -31.6520 H   0  0  0  0  0  0  0  0  0  0  0  0
   -7.4661   24.3226  -32.1303 H   0  0  0  0  0  0  0  0  0  0  0  0
   -7.8142   22.0216  -33.0031 H   0  0  0  0  0  0  0  0  0  0  0  0
   -5.0096   20.0921  -34.1765 H   0  0  0  0  0  0  0  0  0  0  0  0
   -5.4820   17.7992  -35.0589 H   0  0  0  0  0  0  0  0  0  0  0  0
   -7.1207   16.3340  -33.8668 H   0  0  0  0  0  0  0  0  0  0  0  0
   -7.8221   19.3727  -30.9617 H   0  0  0  0  0  0  0  0  0  0  0  0
   -4.9134   23.2590  -27.9847 H   0  0  0  0  0  0  0  0  0  0  0  0
   -2.9830   23.6418  -26.4534 H   0  0  0  0  0  0  0  0  0  0  0  0
  1  2  1  0
  2  3  1  0
  3  4  2  0
  4  5  1  0
  5  6  2  0
  6  7  1  0
  7  8  2  0
  8  9  1  0
  9 10  1  0
  8 11  1  0
 11 12  2  0
 12 13  1  0
 13 14  1  0
 14 15  2  0
 15 16  1  0
 16 17  2  0
 17 18  1  0
 18 19  2  0
 13 20  1  0
 20 21  2  0
  6 22  1  0
 22 23  2  0
 23  3  1  0
 20  7  1  0
 19 14  1  0
  1 24  1  0
  1 25  1  0
  1 26  1  0
  4 27  1  0
  5 28  1  0
  9 29  1  0
  9 30  1  0
 10 31  1  0
 11 32  1  0
 12 33  1  0
 15 34  1  0
 16 35  1  0
 17 36  1  0
 19 37  1  0
 22 38  1  0
 23 39  1  0
M  END
>  <UniqueID>  (28) 
27

>  <SMILES>  (28) 
COc1ccc(-c2c(CO)ccn(-c3cccnc3)c2=O)cc1

>  <Energy>  (28) 
59.562878671710415

>  <Genealogy>  (28) 
COc1ccc(-c2c(CO)ccn(-c3cccnc3)c2=O)cc1 (3D coordinates assigned)
COc1ccc(-c2c(CO)ccn(-c3cccnc3)c2=O)cc1 (optimized conformer: 59.562878671710415 kcal/mol)

>  <smiles>  (28) 
COc1ccc(-c2c(CO)ccn(-c3cccnc3)c2=O)cc1

>  <score_type>  (28) 
oracle

>  <origin>  (28) 
adg

>  <m_score__min__energy>  (28) 
-8.0500000000000007

>  <m_primary>  (28) 
energy

$$$$
28:0
     RDKit          3D

 44 46  0  0  0  0  0  0  0  0999 V2000
   -0.3280   23.3570  -28.7300 C   0  0  0  0  0  0  0  0  0  0  0  0
   -1.6560   23.4980  -29.4430 C   0  0  0  0  0  0  0  0  0  0  0  0
   -2.2360   22.4710  -30.2370 C   0  0  0  0  0  0  0  0  0  0  0  0
   -1.2780   20.9510  -30.5280 S   0  0  0  0  0  0  0  0  0  0  0  0
   -1.5550   20.1950  -28.9210 C   0  0  0  0  0  0  0  0  0  0  0  0
   -0.6460   19.2680  -28.3930 C   0  0  0  0  0  0  0  0  0  0  0  0
   -0.9130   18.6350  -27.1740 C   0  0  0  0  0  0  0  0  0  0  0  0
   -2.1050   18.9000  -26.4950 C   0  0  0  0  0  0  0  0  0  0  0  0
   -3.0330   19.7930  -27.0380 C   0  0  0  0  0  0  0  0  0  0  0  0
   -2.7580   20.4410  -28.2460 C   0  0  0  0  0  0  0  0  0  0  0  0
   -3.4310   22.7100  -30.8940 N   0  0  0  0  0  0  0  0  0  0  0  0
   -4.1040   21.6750  -31.7160 C   0  0  0  0  0  0  0  0  0  0  0  0
   -5.5620   21.4210  -31.2810 C   0  0  0  0  0  0  0  0  0  0  0  0
   -6.5140   21.6720  -32.3900 N   0  0  0  0  0  0  0  0  0  0  0  0
   -7.6440   22.5230  -31.9640 C   0  0  0  0  0  0  0  0  0  0  0  0
   -8.5860   21.7750  -30.9910 C   0  0  0  0  0  0  0  0  0  0  0  0
   -8.4140   20.3680  -31.0220 O   0  0  0  0  0  0  0  0  0  0  0  0
   -8.3220   19.9180  -32.3560 C   0  0  0  0  0  0  0  0  0  0  0  0
   -7.0180   20.4230  -33.0120 C   0  0  0  0  0  0  0  0  0  0  0  0
   -3.9980   23.9630  -30.8340 C   0  0  0  0  0  0  0  0  0  0  0  0
   -5.0190   24.2480  -31.5170 O   0  0  0  0  0  0  0  0  0  0  0  0
   -3.4660   24.9230  -30.0430 N   0  0  0  0  0  0  0  0  0  0  0  0
   -2.3370   24.7160  -29.3350 C   0  0  0  0  0  0  0  0  0  0  0  0
   -1.8940   25.6420  -28.6040 O   0  0  0  0  0  0  0  0  0  0  0  0
   -0.4921   23.3744  -27.6424 H   0  0  0  0  0  0  0  0  0  0  0  0
    0.1417   22.4039  -29.0147 H   0  0  0  0  0  0  0  0  0  0  0  0
    0.3313   24.1902  -29.0147 H   0  0  0  0  0  0  0  0  0  0  0  0
    0.2807   19.0372  -28.9389 H   0  0  0  0  0  0  0  0  0  0  0  0
   -0.1842   17.9285  -26.7501 H   0  0  0  0  0  0  0  0  0  0  0  0
   -2.3129   18.4064  -25.5342 H   0  0  0  0  0  0  0  0  0  0  0  0
   -3.9809   19.9862  -26.5143 H   0  0  0  0  0  0  0  0  0  0  0  0
   -3.4888   21.1466  -28.6681 H   0  0  0  0  0  0  0  0  0  0  0  0
   -4.1026   22.0041  -32.7656 H   0  0  0  0  0  0  0  0  0  0  0  0
   -3.5499   20.7342  -31.5826 H   0  0  0  0  0  0  0  0  0  0  0  0
   -5.6604   20.3748  -30.9559 H   0  0  0  0  0  0  0  0  0  0  0  0
   -5.8012   22.1119  -30.4591 H   0  0  0  0  0  0  0  0  0  0  0  0
   -7.2475   23.4169  -31.4603 H   0  0  0  0  0  0  0  0  0  0  0  0
   -8.2223   22.7994  -32.8580 H   0  0  0  0  0  0  0  0  0  0  0  0
   -8.3869   22.1296  -29.9689 H   0  0  0  0  0  0  0  0  0  0  0  0
   -9.6184   21.9863  -31.3064 H   0  0  0  0  0  0  0  0  0  0  0  0
   -8.3300   18.8181  -32.3677 H   0  0  0  0  0  0  0  0  0  0  0  0
   -9.1790   20.3111  -32.9225 H   0  0  0  0  0  0  0  0  0  0  0  0
   -6.2482   19.6437  -32.9116 H   0  0  0  0  0  0  0  0  0  0  0  0
   -7.2384   20.6413  -34.0673 H   0  0  0  0  0  0  0  0  0  0  0  0
  1  2  1  0
  2  3  2  0
  3  4  1  0
  4  5  1  0
  5  6  2  0
  6  7  1  0
  7  8  2  0
  8  9  1  0
  9 10  2  0
  3 11  1  0
 11 12  1  0
 12 13  1  0
 13 14  1  0
 14 15  1  0
 15 16  1  0
 16 17  1  0
 17 18  1  0
 18 19  1  0
 11 20  1  0
 20 21  2  0
 20 22  1  0
 22 23  1  0
 23 24  2  0
 23  2  1  0
 10  5  1  0
 19 14  1  0
  1 25  1  0
  1 26  1  0
  1 27  1  0
  6 28  1  0
  7 29  1  0
  8 30  1  0
  9 31  1  0
 10 32  1  0
 12 33  1  0
 12 34  1  0
 13 35  1  0
 13 36  1  0
 15 37  1  0
 15 38  1  0
 16 39  1  0
 16 40  1  0
 18 41  1  0
 18 42  1  0
 19 43  1  0
 19 44  1  0
M  CHG  1  22  -1
M  END
>  <UniqueID>  (29) 
28

>  <SMILES>  (29) 
Cc1c(Sc2ccccc2)n(CCN2CCOCC2)c(=O)[n-]c1=O

>  <Energy>  (29) 
63.23194370411371

>  <Genealogy>  (29) 
Cc1c(Sc2ccccc2)n(CCN2CCOCC2)c(=O)[n-]c1=O (protonated)
Cc1c(Sc2ccccc2)n(CCN2CCOCC2)c(=O)[n-]c1=O (3D coordinates assigned)
Cc1c(Sc2ccccc2)n(CCN2CCOCC2)c(=O)[n-]c1=O (nonaromatic ring conformer: 63.23194370411371 kcal/mol)

>  <smiles>  (29) 
Cc1c(Sc2ccccc2)n(CCN2CCOCC2)c(=O)[nH]c1=O

>  <score_type>  (29) 
oracle

>  <origin>  (29) 
adg

>  <m_score__min__energy>  (29) 
-8.6999999999999993

>  <m_primary>  (29) 
energy

$$$$
29:0
     RDKit          3D

 47 49  0  0  0  0  0  0  0  0999 V2000
   -2.7400   19.3090  -26.8150 C   0  0  0  0  0  0  0  0  0  0  0  0
   -2.5570   20.3830  -27.8840 C   0  0  0  0  0  0  0  0  0  0  0  0
   -1.7410   21.5360  -27.3520 C   0  0  0  0  0  0  0  0  0  0  0  0
   -1.2250   21.4650  -26.0460 C   0  0  0  0  0  0  0  0  0  0  0  0
   -0.5180   22.5400  -25.5040 C   0  0  0  0  0  0  0  0  0  0  0  0
   -0.3300   23.7030  -26.2530 C   0  0  0  0  0  0  0  0  0  0  0  0
   -0.8470   23.7940  -27.5450 C   0  0  0  0  0  0  0  0  0  0  0  0
   -1.5550   22.7190  -28.1040 C   0  0  0  0  0  0  0  0  0  0  0  0
   -2.0810   22.8380  -29.4340 N   0  0  0  0  0  0  0  0  0  0  0  0
   -3.4900   23.1730  -29.6390 C   0  0  0  0  0  0  0  0  0  0  0  0
   -4.2190   21.9550  -30.2030 C   0  0  0  0  0  0  0  0  0  0  0  0
   -3.4810   21.4150  -31.3520 N   0  0  0  0  0  0  0  0  0  0  0  0
   -4.2190   20.7800  -32.4110 C   0  0  0  0  0  0  0  0  0  0  0  0
   -4.0620   19.1590  -32.6500 S   0  0  0  0  0  0  0  0  0  0  0  0
   -5.1720   21.5380  -33.1810 N   0  0  0  0  0  0  0  0  0  0  0  0
   -6.5090   21.2710  -32.7140 C   0  0  0  0  0  0  0  0  0  0  0  0
   -7.2040   22.2340  -31.9570 C   0  0  0  0  0  0  0  0  0  0  0  0
   -8.5070   21.9790  -31.5160 C   0  0  0  0  0  0  0  0  0  0  0  0
   -9.1300   20.7680  -31.8360 C   0  0  0  0  0  0  0  0  0  0  0  0
   -8.4520   19.8120  -32.5950 C   0  0  0  0  0  0  0  0  0  0  0  0
   -7.1470   20.0580  -33.0320 C   0  0  0  0  0  0  0  0  0  0  0  0
   -2.0470   21.1300  -31.1960 C   0  0  0  0  0  0  0  0  0  0  0  0
   -1.3230   22.3340  -30.5820 C   0  0  0  0  0  0  0  0  0  0  0  0
   -2.6620   19.7670  -25.8179 H   0  0  0  0  0  0  0  0  0  0  0  0
   -3.7303   18.8438  -26.9283 H   0  0  0  0  0  0  0  0  0  0  0  0
   -1.9596   18.5421  -26.9283 H   0  0  0  0  0  0  0  0  0  0  0  0
   -2.0399   19.9449  -28.7504 H   0  0  0  0  0  0  0  0  0  0  0  0
   -3.5478   20.7590  -28.1789 H   0  0  0  0  0  0  0  0  0  0  0  0
   -1.3795   20.5556  -25.4467 H   0  0  0  0  0  0  0  0  0  0  0  0
   -0.1085   22.4705  -24.4854 H   0  0  0  0  0  0  0  0  0  0  0  0
    0.2268   24.5489  -25.8234 H   0  0  0  0  0  0  0  0  0  0  0  0
   -0.6989   24.7140  -28.1295 H   0  0  0  0  0  0  0  0  0  0  0  0
   -3.9431   23.4610  -28.6789 H   0  0  0  0  0  0  0  0  0  0  0  0
   -3.5713   24.0122  -30.3455 H   0  0  0  0  0  0  0  0  0  0  0  0
   -4.2949   21.1827  -29.4234 H   0  0  0  0  0  0  0  0  0  0  0  0
   -5.2254   22.2560  -30.5296 H   0  0  0  0  0  0  0  0  0  0  0  0
   -5.1090   21.2750  -34.1920 H   0  0  0  0  0  0  0  0  0  0  0  0
   -4.9470   22.5580  -33.1040 H   0  0  0  0  0  0  0  0  0  0  0  0
   -6.7202   23.1909  -31.7114 H   0  0  0  0  0  0  0  0  0  0  0  0
   -9.0419   22.7311  -30.9174 H   0  0  0  0  0  0  0  0  0  0  0  0
  -10.1548   20.5688  -31.4894 H   0  0  0  0  0  0  0  0  0  0  0  0
   -8.9460   18.8628  -32.8498 H   0  0  0  0  0  0  0  0  0  0  0  0
   -6.6167   19.2999  -33.6270 H   0  0  0  0  0  0  0  0  0  0  0  0
   -1.9210   20.2578  -30.5377 H   0  0  0  0  0  0  0  0  0  0  0  0
   -1.6159   20.9234  -32.1867 H   0  0  0  0  0  0  0  0  0  0  0  0
   -0.3201   22.0267  -30.2506 H   0  0  0  0  0  0  0  0  0  0  0  0
   -1.2371   23.1292  -31.3372 H   0  0  0  0  0  0  0  0  0  0  0  0
  1  2  1  0
  2  3  1  0
  3  4  2  0
  4  5  1  0
  5  6  2  0
  6  7  1  0
  7  8  2  0
  8  9  1  0
  9 10  1  0
 10 11  1  0
 11 12  1  0
 12 13  1  0
 13 14  2  0
 13 15  1  0
 15 16  1  0
 16 17  2  0
 17 18  1  0
 18 19  2  0
 19 20  1  0
 20 21  2  0
 12 22  1  0
 22 23  1  0
  8  3  1  0
 23  9  1  0
 21 16  1  0
  1 24  1  0
  1 25  1  0
  1 26  1  0
  2 27  1  0
  2 28  1  0
  4 29  1  0
  5 30  1  0
  6 31  1  0
  7 32  1  0
 10 33  1  0
 10 34  1  0
 11 35  1  0
 11 36  1  0
 15 37  1  0
 15 38  1  0
 17 39  1  0
 18 40  1  0
 19 41  1  0
 20 42  1  0
 21 43  1  0
 22 44  1  0
 22 45  1  0
 23 46  1  0
 23 47  1  0
M  CHG  1  15   1
M  END
>  <UniqueID>  (30) 
29

>  <SMILES>  (30) 
CCc1ccccc1N1CCN(C(=S)[NH2+]c2ccccc2)CC1

>  <Energy>  (30) 
55.0527186800244

>  <Genealogy>  (30) 
CCc1ccccc1N1CCN(C(=S)[NH2+]c2ccccc2)CC1 (protonated)
CCc1ccccc1N1CCN(C(=S)[NH2+]c2ccccc2)CC1 (3D coordinates assigned)
CCc1ccccc1N1CCN(C(=S)[NH2+]c2ccccc2)CC1 (nonaromatic ring conformer: 55.0527186800244 kcal/mol)

>  <smiles>  (30) 
CCc1ccccc1N1CCN(C(=S)Nc2ccccc2)CC1

>  <score_type>  (30) 
oracle

>  <origin>  (30) 
adg

>  <m_score__min__energy>  (30) 
-7.0700000000000003

>  <m_primary>  (30) 
energy

$$$$
30:0
     RDKit          3D

 44 47  0  0  0  0  0  0  0  0999 V2000
   -0.9910   20.2450  -33.8480 C   0  0  0  0  0  0  0  0  0  0  0  0
   -1.9530   21.1800  -33.5710 C   0  0  0  0  0  0  0  0  0  0  0  0
   -3.2730   20.8040  -33.3830 C   0  0  0  0  0  0  0  0  0  0  0  0
   -3.7040   19.4990  -33.4580 C   0  0  0  0  0  0  0  0  0  0  0  0
   -5.0240   19.0740  -33.2710 N   0  0  0  0  0  0  0  0  0  0  0  0
   -6.1140   19.2910  -34.2170 C   0  0  0  0  0  0  0  0  0  0  0  0
   -7.1690   20.0610  -33.4950 C   0  0  0  0  0  0  0  0  0  0  0  0
   -7.6060   19.4010  -32.3300 N   0  0  0  0  0  0  0  0  0  0  0  0
   -7.8350   20.2830  -31.2040 C   0  0  0  0  0  0  0  0  0  0  0  0
   -8.2930   21.6240  -31.6230 C   0  0  0  0  0  0  0  0  0  0  0  0
   -9.5320   22.0280  -32.0760 C   0  0  0  0  0  0  0  0  0  0  0  0
   -9.4440   23.3670  -32.3340 N   0  0  0  0  0  0  0  0  0  0  0  0
   -8.2080   23.7650  -32.0510 N   0  0  0  0  0  0  0  0  0  0  0  0
   -7.4540   22.7430  -31.6120 C   0  0  0  0  0  0  0  0  0  0  0  0
   -6.0500   22.7780  -31.2070 C   0  0  0  0  0  0  0  0  0  0  0  0
   -5.4270   24.0260  -31.2030 C   0  0  0  0  0  0  0  0  0  0  0  0
   -4.1370   24.1590  -30.8450 N   0  0  0  0  0  0  0  0  0  0  0  0
   -3.4520   23.0420  -30.4850 C   0  0  0  0  0  0  0  0  0  0  0  0
   -4.0530   21.7990  -30.4840 C   0  0  0  0  0  0  0  0  0  0  0  0
   -5.3640   21.6750  -30.8480 N   0  0  0  0  0  0  0  0  0  0  0  0
   -6.9040   18.2070  -31.9730 C   0  0  0  0  0  0  0  0  0  0  0  0
   -5.4030   18.3510  -32.0570 C   0  0  0  0  0  0  0  0  0  0  0  0
   -2.7250   18.5510  -33.7390 C   0  0  0  0  0  0  0  0  0  0  0  0
   -1.3900   18.9280  -33.9290 C   0  0  0  0  0  0  0  0  0  0  0  0
    0.0594   20.5340  -33.9999 H   0  0  0  0  0  0  0  0  0  0  0  0
   -1.6742   22.2415  -33.4970 H   0  0  0  0  0  0  0  0  0  0  0  0
   -4.0134   21.5872  -33.1629 H   0  0  0  0  0  0  0  0  0  0  0  0
   -5.7538   19.8645  -35.0838 H   0  0  0  0  0  0  0  0  0  0  0  0
   -6.5097   18.3338  -34.5875 H   0  0  0  0  0  0  0  0  0  0  0  0
   -6.7609   21.0431  -33.2139 H   0  0  0  0  0  0  0  0  0  0  0  0
   -8.0324   20.1642  -34.1687 H   0  0  0  0  0  0  0  0  0  0  0  0
   -8.6013   19.8349  -30.5544 H   0  0  0  0  0  0  0  0  0  0  0  0
   -6.8789   20.4055  -30.6740 H   0  0  0  0  0  0  0  0  0  0  0  0
  -10.4211   21.3933  -32.2049 H   0  0  0  0  0  0  0  0  0  0  0  0
  -10.2070   23.9790  -32.6890 H   0  0  0  0  0  0  0  0  0  0  0  0
   -6.0006   24.9171  -31.4978 H   0  0  0  0  0  0  0  0  0  0  0  0
   -2.3965   23.1300  -30.1881 H   0  0  0  0  0  0  0  0  0  0  0  0
   -3.4767   20.9092  -30.1904 H   0  0  0  0  0  0  0  0  0  0  0  0
   -7.1722   17.9394  -30.9403 H   0  0  0  0  0  0  0  0  0  0  0  0
   -7.1981   17.4279  -32.6917 H   0  0  0  0  0  0  0  0  0  0  0  0
   -5.0430   18.9059  -31.1781 H   0  0  0  0  0  0  0  0  0  0  0  0
   -4.9508   17.3486  -32.0845 H   0  0  0  0  0  0  0  0  0  0  0  0
   -3.0040   17.4896  -33.8130 H   0  0  0  0  0  0  0  0  0  0  0  0
   -0.6404   18.1534  -34.1485 H   0  0  0  0  0  0  0  0  0  0  0  0
  1  2  2  0
  2  3  1  0
  3  4  2  0
  4  5  1  0
  5  6  1  0
  6  7  1  0
  7  8  1  0
  8  9  1  0
  9 10  1  0
 10 11  2  0
 11 12  1  0
 12 13  1  0
 13 14  2  0
 14 15  1  0
 15 16  2  0
 16 17  1  0
 17 18  2  0
 18 19  1  0
 19 20  2  0
  8 21  1  0
 21 22  1  0
  4 23  1  0
 23 24  2  0
 24  1  1  0
 22  5  1  0
 14 10  1  0
 20 15  1  0
  1 25  1  0
  2 26  1  0
  3 27  1  0
  6 28  1  0
  6 29  1  0
  7 30  1  0
  7 31  1  0
  9 32  1  0
  9 33  1  0
 11 34  1  0
 12 35  1  0
 16 36  1  0
 18 37  1  0
 19 38  1  0
 21 39  1  0
 21 40  1  0
 22 41  1  0
 22 42  1  0
 23 43  1  0
 24 44  1  0
M  END
>  <smiles>  (31) 
c1ccc(N2CCN(Cc3c[nH]nc3-c3cnccn3)CC2)cc1

>  <score_type>  (31) 
oracle

>  <origin>  (31) 
adg

>  <m_score__min__energy>  (31) 
-8.3000000000000007

>  <m_primary>  (31) 
energy

$$$$
31:0
     RDKit          3D

 44 46  0  0  0  0  0  0  0  0999 V2000
   -9.0670   23.3530  -32.0200 C   0  0  0  0  0  0  0  0  0  0  0  0
   -8.4960   21.9740  -31.9720 C   0  0  0  0  0  0  0  0  0  0  0  0
   -9.2300   20.8040  -32.0150 C   0  0  0  0  0  0  0  0  0  0  0  0
   -8.3160   19.7720  -31.9400 C   0  0  0  0  0  0  0  0  0  0  0  0
   -7.0670   20.3620  -31.8750 C   0  0  0  0  0  0  0  0  0  0  0  0
   -5.7750   19.6390  -31.6440 C   0  0  0  0  0  0  0  0  0  0  0  0
   -4.6790   20.6020  -31.5820 N   0  0  0  0  0  0  0  0  0  0  0  0
   -3.7110   20.7110  -32.6340 C   0  0  0  0  0  0  0  0  0  0  0  0
   -4.0090   20.3540  -33.8050 O   0  0  0  0  0  0  0  0  0  0  0  0
   -2.3200   21.1990  -32.3450 C   0  0  0  0  0  0  0  0  0  0  0  0
   -1.9270   20.8970  -30.8800 C   0  0  1  0  0  0  0  0  0  0  0  0
   -0.4470   20.8810  -30.6470 C   0  0  0  0  0  0  0  0  0  0  0  0
    0.3840   20.8520  -31.5940 O   0  0  0  0  0  0  0  0  0  0  0  0
    0.0020   20.9020  -29.2970 N   0  0  0  0  0  0  0  0  0  0  0  0
   -0.9610   20.6820  -28.2220 C   0  0  0  0  0  0  0  0  0  0  0  0
   -2.3150   21.4040  -28.4710 C   0  0  0  0  0  0  0  0  0  0  0  0
   -2.5740   21.7970  -29.8840 N   0  0  0  0  0  0  0  0  0  0  0  0
   -2.4480   23.2600  -30.1110 C   0  0  0  0  0  0  0  0  0  0  0  0
   -3.7560   23.9510  -30.3700 C   0  0  0  0  0  0  0  0  0  0  0  0
   -4.9210   23.2870  -30.5200 N   0  0  0  0  0  0  0  0  0  0  0  0
   -5.8190   24.2630  -30.7390 C   0  0  0  0  0  0  0  0  0  0  0  0
   -5.1830   25.4790  -30.7160 C   0  0  0  0  0  0  0  0  0  0  0  0
   -3.8730   25.2910  -30.4820 N   0  0  0  0  0  0  0  0  0  0  0  0
   -7.1790   21.7030  -31.8930 N   0  0  0  0  0  0  0  0  0  0  0  0
   -9.2200   23.7224  -30.9952 H   0  0  0  0  0  0  0  0  0  0  0  0
   -8.3710   24.0198  -32.5501 H   0  0  0  0  0  0  0  0  0  0  0  0
  -10.0306   23.3326  -32.5501 H   0  0  0  0  0  0  0  0  0  0  0  0
  -10.3234   20.7131  -32.0933 H   0  0  0  0  0  0  0  0  0  0  0  0
   -8.5373   18.6945  -31.9333 H   0  0  0  0  0  0  0  0  0  0  0  0
   -5.8299   19.0853  -30.6951 H   0  0  0  0  0  0  0  0  0  0  0  0
   -5.5970   18.9358  -32.4709 H   0  0  0  0  0  0  0  0  0  0  0  0
   -4.5410   21.1450  -30.6990 H   0  0  0  0  0  0  0  0  0  0  0  0
   -1.6130   20.6942  -33.0197 H   0  0  0  0  0  0  0  0  0  0  0  0
   -2.2876   22.2872  -32.5023 H   0  0  0  0  0  0  0  0  0  0  0  0
   -2.3134   19.8795  -30.7208 H   0  0  0  0  0  0  0  0  0  0  0  0
   -1.1493   19.6018  -28.1341 H   0  0  0  0  0  0  0  0  0  0  0  0
   -0.5287   21.0965  -27.2993 H   0  0  0  0  0  0  0  0  0  0  0  0
   -3.1237   20.7302  -28.1516 H   0  0  0  0  0  0  0  0  0  0  0  0
   -2.2711   22.3412  -27.8968 H   0  0  0  0  0  0  0  0  0  0  0  0
   -1.9891   23.7106  -29.2186 H   0  0  0  0  0  0  0  0  0  0  0  0
   -1.8336   23.3910  -31.0140 H   0  0  0  0  0  0  0  0  0  0  0  0
   -6.8950   24.1109  -30.9099 H   0  0  0  0  0  0  0  0  0  0  0  0
   -5.6691   26.4543  -30.8656 H   0  0  0  0  0  0  0  0  0  0  0  0
   -6.4010   22.3960  -31.8240 H   0  0  0  0  0  0  0  0  0  0  0  0
  1  2  1  0
  2  3  2  0
  3  4  1  0
  4  5  2  0
  5  6  1  0
  6  7  1  0
  7  8  1  0
  8  9  2  0
  8 10  1  0
 10 11  1  0
 11 12  1  0
 12 13  2  0
 12 14  1  0
 14 15  1  0
 15 16  1  0
 16 17  1  0
 17 18  1  0
 18 19  1  0
 19 20  2  0
 20 21  1  0
 21 22  2  0
 22 23  1  0
  5 24  1  0
 24  2  1  0
 17 11  1  0
 23 19  1  0
  1 25  1  0
  1 26  1  0
  1 27  1  0
  3 28  1  0
  4 29  1  0
  6 30  1  0
  6 31  1  0
  7 32  1  0
 10 33  1  0
 10 34  1  0
 11 35  1  1
 15 36  1  0
 15 37  1  0
 16 38  1  0
 16 39  1  0
 18 40  1  0
 18 41  1  0
 21 42  1  0
 22 43  1  0
 24 44  1  0
M  CHG  2  14  -1  23  -1
M  END
>  <UniqueID>  (32) 
30

>  <SMILES>  (32) 
Cc1ccc(CNC(=O)C[C@H]2C(=O)[N-]CCN2Cc2ncc[n-]2)[nH]1

>  <Energy>  (32) 
102.86759902109232

>  <Genealogy>  (32) 
Cc1ccc(CNC(=O)CC2C(=O)[N-]CCN2Cc2ncc[n-]2)[nH]1 (protonated)
Cc1ccc(CNC(=O)C[C@H]2C(=O)[N-]CCN2Cc2ncc[n-]2)[nH]1 (chirality)
Cc1ccc(CNC(=O)C[C@H]2C(=O)[N-]CCN2Cc2ncc[n-]2)[nH]1 (3D coordinates assigned)
Cc1ccc(CNC(=O)C[C@H]2C(=O)[N-]CCN2Cc2ncc[n-]2)[nH]1 (nonaromatic ring conformer: 102.86759902109232 kcal/mol)

>  <smiles>  (32) 
Cc1ccc(CNC(=O)CC2C(=O)NCCN2Cc2ncc[nH]2)[nH]1

>  <score_type>  (32) 
oracle

>  <origin>  (32) 
adg

>  <m_score__min__energy>  (32) 
-8.7100000000000009

>  <m_primary>  (32) 
energy

$$$$
32:0
     RDKit          3D

 39 42  0  0  0  0  0  0  0  0999 V2000
   -5.3980   25.3420  -30.0790 C   0  0  0  0  0  0  0  0  0  0  0  0
   -4.3000   24.6730  -30.6910 O   0  0  0  0  0  0  0  0  0  0  0  0
   -4.3330   23.3470  -31.1460 C   0  0  0  0  0  0  0  0  0  0  0  0
   -3.6120   22.3140  -30.5180 C   0  0  0  0  0  0  0  0  0  0  0  0
   -3.6800   21.0080  -31.0090 C   0  0  0  0  0  0  0  0  0  0  0  0
   -4.4780   20.7050  -32.1230 C   0  0  0  0  0  0  0  0  0  0  0  0
   -4.5460   19.3350  -32.6740 C   0  0  0  0  0  0  0  0  0  0  0  0
   -3.7690   18.9290  -33.7090 N   0  0  0  0  0  0  0  0  0  0  0  0
   -4.1480   17.6530  -33.9140 C   0  0  0  0  0  0  0  0  0  0  0  0
   -3.6310   16.7990  -34.8870 C   0  0  0  0  0  0  0  0  0  0  0  0
   -4.1610   15.5020  -34.9650 C   0  0  0  0  0  0  0  0  0  0  0  0
   -5.1830   15.0960  -34.0840 C   0  0  0  0  0  0  0  0  0  0  0  0
   -5.9060   13.3330  -34.1930 Br  0  0  0  0  0  0  0  0  0  0  0  0
   -5.6660   16.0000  -33.1260 C   0  0  0  0  0  0  0  0  0  0  0  0
   -5.1190   17.2440  -33.0800 N   0  0  0  0  0  0  0  0  0  0  0  0
   -5.3930   18.2940  -32.2840 C   0  0  0  0  0  0  0  0  0  0  0  0
   -6.4900   18.3200  -31.2510 C   0  0  0  0  0  0  0  0  0  0  0  0
   -7.5890   19.2730  -31.6300 C   0  0  0  0  0  0  0  0  0  0  0  0
   -7.6130   20.6100  -31.2000 C   0  0  0  0  0  0  0  0  0  0  0  0
   -8.7300   21.3130  -31.6240 C   0  0  0  0  0  0  0  0  0  0  0  0
   -9.6960   20.2700  -32.5190 S   0  0  0  0  0  0  0  0  0  0  0  0
   -8.7090   18.9170  -32.3800 C   0  0  0  0  0  0  0  0  0  0  0  0
   -5.1790   21.7420  -32.7610 C   0  0  0  0  0  0  0  0  0  0  0  0
   -5.1110   23.0480  -32.2690 C   0  0  0  0  0  0  0  0  0  0  0  0
   -5.3001   25.2823  -28.9850 H   0  0  0  0  0  0  0  0  0  0  0  0
   -5.4037   26.3972  -30.3896 H   0  0  0  0  0  0  0  0  0  0  0  0
   -6.3384   24.8632  -30.3896 H   0  0  0  0  0  0  0  0  0  0  0  0
   -2.9923   22.5361  -29.6367 H   0  0  0  0  0  0  0  0  0  0  0  0
   -3.1031   20.2102  -30.5183 H   0  0  0  0  0  0  0  0  0  0  0  0
   -2.8350   17.1304  -35.5701 H   0  0  0  0  0  0  0  0  0  0  0  0
   -3.7765   14.7984  -35.7180 H   0  0  0  0  0  0  0  0  0  0  0  0
   -6.4668   15.7098  -32.4299 H   0  0  0  0  0  0  0  0  0  0  0  0
   -6.9126   17.3090  -31.1544 H   0  0  0  0  0  0  0  0  0  0  0  0
   -6.0559   18.6588  -30.2987 H   0  0  0  0  0  0  0  0  0  0  0  0
   -6.8192   21.0576  -30.5840 H   0  0  0  0  0  0  0  0  0  0  0  0
   -8.9463   22.3703  -31.4113 H   0  0  0  0  0  0  0  0  0  0  0  0
   -8.9114   17.9235  -32.8065 H   0  0  0  0  0  0  0  0  0  0  0  0
   -5.7849   21.5245  -33.6530 H   0  0  0  0  0  0  0  0  0  0  0  0
   -5.6749   23.8488  -32.7698 H   0  0  0  0  0  0  0  0  0  0  0  0
  1  2  1  0
  2  3  1  0
  3  4  2  0
  4  5  1  0
  5  6  2  0
  6  7  1  0
  7  8  1  0
  8  9  2  0
  9 10  1  0
 10 11  2  0
 11 12  1  0
 12 13  1  0
 12 14  2  0
 14 15  1  0
 15 16  1  0
 16 17  1  0
 17 18  1  0
 18 19  1  0
 19 20  2  0
 20 21  1  0
 21 22  1  0
  6 23  1  0
 23 24  2  0
 24  3  1  0
 16  7  2  0
 22 18  2  0
 15  9  1  0
  1 25  1  0
  1 26  1  0
  1 27  1  0
  4 28  1  0
  5 29  1  0
 10 30  1  0
 11 31  1  0
 14 32  1  0
 17 33  1  0
 17 34  1  0
 19 35  1  0
 20 36  1  0
 22 37  1  0
 23 38  1  0
 24 39  1  0
M  END
>  <UniqueID>  (33) 
31

>  <SMILES>  (33) 
COc1ccc(-c2nc3ccc(Br)cn3c2Cc2ccsc2)cc1

>  <Energy>  (33) 
106.45169634682154

>  <Genealogy>  (33) 
COc1ccc(-c2nc3ccc(Br)cn3c2Cc2ccsc2)cc1 (3D coordinates assigned)
COc1ccc(-c2nc3ccc(Br)cn3c2Cc2ccsc2)cc1 (optimized conformer: 106.45169634682154 kcal/mol)

>  <smiles>  (33) 
COc1ccc(-c2nc3ccc(Br)cn3c2Cc2ccsc2)cc1

>  <score_type>  (33) 
oracle

>  <origin>  (33) 
adg

>  <m_score__min__energy>  (33) 
-8.1199999999999992

>  <m_primary>  (33) 
energy

$$$$
33:0
     RDKit          3D

 61 62  0  0  0  0  0  0  0  0999 V2000
   -6.4870   25.6170  -29.3940 C   0  0  0  0  0  0  0  0  0  0  0  0
   -5.4660   25.3640  -30.5030 C   0  0  0  0  0  0  0  0  0  0  0  0
   -4.8320   23.9680  -30.4230 C   0  0  0  0  0  0  0  0  0  0  0  0
   -5.7120   22.8830  -31.0600 C   0  0  0  0  0  0  0  0  0  0  0  0
   -6.5710   23.4680  -32.1930 C   0  0  0  0  0  0  0  0  0  0  0  0
   -8.0790   23.2250  -31.9680 C   0  0  0  0  0  0  0  0  0  0  0  0
   -8.3790   22.1830  -30.8750 C   0  0  0  0  0  0  0  0  0  0  0  0
   -9.4690   21.1840  -31.2870 C   0  0  0  0  0  0  0  0  0  0  0  0
   -9.0400   20.3850  -32.5250 C   0  0  0  0  0  0  0  0  0  0  0  0
   -7.6320   19.7770  -32.3790 C   0  0  0  0  0  0  0  0  0  0  0  0
   -7.6070   18.4400  -31.6150 C   0  0  0  0  0  0  0  0  0  0  0  0
   -6.5460   17.4560  -32.1590 C   0  0  0  0  0  0  0  0  0  0  0  0
   -6.8140   17.0510  -33.6160 C   0  0  0  0  0  0  0  0  0  0  0  0
   -6.1090   17.9850  -34.6100 C   0  0  0  0  0  0  0  0  0  0  0  0
   -4.6670   17.9930  -34.3610 N   0  0  0  0  0  0  0  0  0  0  0  0
   -3.7800   17.0570  -34.7740 C   0  0  0  0  0  0  0  0  0  0  0  0
   -2.4880   17.4050  -34.3900 C   0  0  0  0  0  0  0  0  0  0  0  0
   -2.6230   18.6070  -33.7250 C   0  0  0  0  0  0  0  0  0  0  0  0
   -1.6740   19.4320  -33.1300 C   0  0  0  0  0  0  0  0  0  0  0  0
   -2.0960   20.5940  -32.5330 N   0  0  0  0  0  0  0  0  0  0  0  0
   -1.1140   21.5000  -31.9340 C   0  0  0  0  0  0  0  0  0  0  0  0
   -3.4240   20.9540  -32.5480 C   0  0  0  0  0  0  0  0  0  0  0  0
   -4.3920   20.1270  -33.1470 C   0  0  0  0  0  0  0  0  0  0  0  0
   -3.9470   18.9410  -33.7280 C   0  0  0  0  0  0  0  0  0  0  0  0
   -6.0016   25.4967  -28.4143 H   0  0  0  0  0  0  0  0  0  0  0  0
   -6.8811   26.6400  -29.4848 H   0  0  0  0  0  0  0  0  0  0  0  0
   -7.3131   24.8964  -29.4848 H   0  0  0  0  0  0  0  0  0  0  0  0
   -5.9710   25.4652  -31.4750 H   0  0  0  0  0  0  0  0  0  0  0  0
   -4.6584   26.1011  -30.3832 H   0  0  0  0  0  0  0  0  0  0  0  0
   -3.8649   23.9897  -30.9466 H   0  0  0  0  0  0  0  0  0  0  0  0
   -4.7114   23.7171  -29.3588 H   0  0  0  0  0  0  0  0  0  0  0  0
   -5.0676   22.0909  -31.4690 H   0  0  0  0  0  0  0  0  0  0  0  0
   -6.3802   22.4744  -30.2876 H   0  0  0  0  0  0  0  0  0  0  0  0
   -6.3916   24.5518  -32.2498 H   0  0  0  0  0  0  0  0  0  0  0  0
   -6.2841   22.9646  -33.1280 H   0  0  0  0  0  0  0  0  0  0  0  0
   -8.5452   24.1780  -31.6773 H   0  0  0  0  0  0  0  0  0  0  0  0
   -8.4863   22.8303  -32.9105 H   0  0  0  0  0  0  0  0  0  0  0  0
   -7.4557   21.6258  -30.6581 H   0  0  0  0  0  0  0  0  0  0  0  0
   -8.7454   22.7265  -29.9917 H   0  0  0  0  0  0  0  0  0  0  0  0
   -9.6528   20.4881  -30.4551 H   0  0  0  0  0  0  0  0  0  0  0  0
  -10.3847   21.7432  -31.5296 H   0  0  0  0  0  0  0  0  0  0  0  0
   -9.7609   19.5698  -32.6854 H   0  0  0  0  0  0  0  0  0  0  0  0
   -9.0163   21.0793  -33.3779 H   0  0  0  0  0  0  0  0  0  0  0  0
   -7.2211   19.6088  -33.3854 H   0  0  0  0  0  0  0  0  0  0  0  0
   -7.0344   20.4912  -31.7934 H   0  0  0  0  0  0  0  0  0  0  0  0
   -7.3863   18.6444  -30.5569 H   0  0  0  0  0  0  0  0  0  0  0  0
   -8.5921   17.9677  -31.7439 H   0  0  0  0  0  0  0  0  0  0  0  0
   -5.5576   17.9355  -32.1019 H   0  0  0  0  0  0  0  0  0  0  0  0
   -6.5885   16.5444  -31.5448 H   0  0  0  0  0  0  0  0  0  0  0  0
   -6.4495   16.0250  -33.7725 H   0  0  0  0  0  0  0  0  0  0  0  0
   -7.8973   17.1191  -33.7945 H   0  0  0  0  0  0  0  0  0  0  0  0
   -6.2987   17.6343  -35.6352 H   0  0  0  0  0  0  0  0  0  0  0  0
   -6.5006   19.0051  -34.4833 H   0  0  0  0  0  0  0  0  0  0  0  0
   -4.0436   16.1482  -35.3348 H   0  0  0  0  0  0  0  0  0  0  0  0
   -1.5605   16.8437  -34.5762 H   0  0  0  0  0  0  0  0  0  0  0  0
   -0.6084   19.1592  -33.1377 H   0  0  0  0  0  0  0  0  0  0  0  0
   -1.1799   21.4392  -30.8377 H   0  0  0  0  0  0  0  0  0  0  0  0
   -0.1032   21.2106  -32.2572 H   0  0  0  0  0  0  0  0  0  0  0  0
   -1.3212   22.5308  -32.2572 H   0  0  0  0  0  0  0  0  0  0  0  0
   -3.7335   21.9025  -32.0848 H   0  0  0  0  0  0  0  0  0  0  0  0
   -5.4562   20.4051  -33.1563 H   0  0  0  0  0  0  0  0  0  0  0  0
  1  2  1  0
  2  3  1  0
  3  4  1  0
  4  5  1  0
  5  6  1  0
  6  7  1  0
  7  8  1  0
  8  9  1  0
  9 10  1  0
 10 11  1  0
 11 12  1  0
 12 13  1  0
 13 14  1  0
 14 15  1  0
 15 16  1  0
 16 17  2  0
 17 18  1  0
 18 19  2  0
 19 20  1  0
 20 21  1  0
 20 22  2  0
 22 23  1  0
 23 24  2  0
 24 15  1  0
 24 18  1  0
  1 25  1  0
  1 26  1  0
  1 27  1  0
  2 28  1  0
  2 29  1  0
  3 30  1  0
  3 31  1  0
  4 32  1  0
  4 33  1  0
  5 34  1  0
  5 35  1  0
  6 36  1  0
  6 37  1  0
  7 38  1  0
  7 39  1  0
  8 40  1  0
  8 41  1  0
  9 42  1  0
  9 43  1  0
 10 44  1  0
 10 45  1  0
 11 46  1  0
 11 47  1  0
 12 48  1  0
 12 49  1  0
 13 50  1  0
 13 51  1  0
 14 52  1  0
 14 53  1  0
 16 54  1  0
 17 55  1  0
 19 56  1  0
 21 57  1  0
 21 58  1  0
 21 59  1  0
 22 60  1  0
 23 61  1  0
M  CHG  1  20   1
M  END
>  <UniqueID>  (34) 
32

>  <SMILES>  (34) 
CCCCCCCCCCCCCCn1ccc2c[n+](C)ccc21

>  <Energy>  (34) 
71.06171741719601

>  <Genealogy>  (34) 
CCCCCCCCCCCCCCn1ccc2c[n+](C)ccc21 (3D coordinates assigned)
CCCCCCCCCCCCCCn1ccc2c[n+](C)ccc21 (optimized conformer: 71.06171741719601 kcal/mol)

>  <smiles>  (34) 
CCCCCCCCCCCCCCn1ccc2c[n+](C)ccc21

>  <score_type>  (34) 
oracle

>  <origin>  (34) 
adg

>  <m_score__min__energy>  (34) 
-6.8300000000000001

>  <m_primary>  (34) 
energy

$$$$
34:0
     RDKit          3D

 49 50  0  0  0  0  0  0  0  0999 V2000
   -4.1540   24.1260  -27.9080 C   0  0  0  0  0  0  0  0  0  0  0  0
   -2.8360   24.4860  -27.2090 C   0  0  0  0  0  0  0  0  0  0  0  0
   -1.6900   24.6710  -28.1340 N   0  0  0  0  0  0  0  0  0  0  0  0
   -1.1860   26.0630  -28.2030 C   0  0  0  0  0  0  0  0  0  0  0  0
   -0.8430   26.6150  -26.8190 C   0  0  0  0  0  0  0  0  0  0  0  0
   -0.5950   23.7100  -27.8680 C   0  0  0  0  0  0  0  0  0  0  0  0
   -0.6970   22.5070  -28.8070 C   0  0  0  0  0  0  0  0  0  0  0  0
   -1.6080   22.8000  -29.9150 N   0  0  0  0  0  0  0  0  0  0  0  0
   -1.6530   22.0330  -31.1350 C   0  0  0  0  0  0  0  0  0  0  0  0
   -0.4910   21.3970  -31.6100 C   0  0  0  0  0  0  0  0  0  0  0  0
   -0.5150   20.6590  -32.7930 C   0  0  0  0  0  0  0  0  0  0  0  0
   -1.6960   20.5450  -33.5200 C   0  0  0  0  0  0  0  0  0  0  0  0
   -2.8580   21.1740  -33.0720 C   0  0  0  0  0  0  0  0  0  0  0  0
   -2.8510   21.9330  -31.8880 C   0  0  0  0  0  0  0  0  0  0  0  0
   -4.3530   22.6910  -31.3280 S   0  0  0  0  0  0  0  0  0  0  0  0
   -4.0990   24.1270  -30.9650 O   0  0  0  0  0  0  0  0  0  0  0  0
   -4.8270   21.9410  -30.1140 O   0  0  0  0  0  0  0  0  0  0  0  0
   -5.5840   22.6460  -32.5540 N   0  0  0  0  0  0  0  0  0  0  0  0
   -6.8860   22.0870  -32.3320 C   0  0  0  0  0  0  0  0  0  0  0  0
   -7.9160   22.8740  -31.7880 C   0  0  0  0  0  0  0  0  0  0  0  0
   -9.1920   22.3350  -31.5970 C   0  0  0  0  0  0  0  0  0  0  0  0
   -9.4540   21.0120  -31.9560 C   0  0  0  0  0  0  0  0  0  0  0  0
   -8.4420   20.2250  -32.5110 C   0  0  0  0  0  0  0  0  0  0  0  0
   -7.1620   20.7570  -32.7060 C   0  0  0  0  0  0  0  0  0  0  0  0
   -5.8030   19.6230  -33.4450 Br  0  0  0  0  0  0  0  0  0  0  0  0
   -4.9246   23.9155  -27.1517 H   0  0  0  0  0  0  0  0  0  0  0  0
   -4.4777   24.9686  -28.5366 H   0  0  0  0  0  0  0  0  0  0  0  0
   -4.0044   23.2358  -28.5366 H   0  0  0  0  0  0  0  0  0  0  0  0
   -2.9851   25.4228  -26.6521 H   0  0  0  0  0  0  0  0  0  0  0  0
   -2.5821   23.6387  -26.5551 H   0  0  0  0  0  0  0  0  0  0  0  0
   -0.2810   26.0829  -28.8280 H   0  0  0  0  0  0  0  0  0  0  0  0
   -1.9794   26.6916  -28.6335 H   0  0  0  0  0  0  0  0  0  0  0  0
   -1.2562   25.9500  -26.0463 H   0  0  0  0  0  0  0  0  0  0  0  0
    0.2498   26.6720  -26.7075 H   0  0  0  0  0  0  0  0  0  0  0  0
   -1.2759   27.6201  -26.7075 H   0  0  0  0  0  0  0  0  0  0  0  0
    0.3718   24.2106  -28.0250 H   0  0  0  0  0  0  0  0  0  0  0  0
   -0.6759   23.3578  -26.8291 H   0  0  0  0  0  0  0  0  0  0  0  0
    0.3003   22.2757  -29.2093 H   0  0  0  0  0  0  0  0  0  0  0  0
   -1.0862   21.6464  -28.2432 H   0  0  0  0  0  0  0  0  0  0  0  0
   -2.3110   23.5530  -29.7550 H   0  0  0  0  0  0  0  0  0  0  0  0
    0.4469   21.4830  -31.0417 H   0  0  0  0  0  0  0  0  0  0  0  0
    0.4007   20.1664  -33.1519 H   0  0  0  0  0  0  0  0  0  0  0  0
   -1.7135   19.9577  -34.4499 H   0  0  0  0  0  0  0  0  0  0  0  0
   -3.7885   21.0753  -33.6503 H   0  0  0  0  0  0  0  0  0  0  0  0
   -5.3600   23.0500  -33.4900 H   0  0  0  0  0  0  0  0  0  0  0  0
   -7.7170   23.9198  -31.5110 H   0  0  0  0  0  0  0  0  0  0  0  0
   -9.9906   22.9547  -31.1631 H   0  0  0  0  0  0  0  0  0  0  0  0
  -10.4576   20.5889  -31.8019 H   0  0  0  0  0  0  0  0  0  0  0  0
   -8.6518   19.1834  -32.7958 H   0  0  0  0  0  0  0  0  0  0  0  0
  1  2  1  0
  2  3  1  0
  3  4  1  0
  4  5  1  0
  3  6  1  0
  6  7  1  0
  7  8  1  0
  8  9  1  0
  9 10  2  0
 10 11  1  0
 11 12  2  0
 12 13  1  0
 13 14  2  0
 14 15  1  0
 15 16  2  0
 15 17  2  0
 15 18  1  0
 18 19  1  0
 19 20  2  0
 20 21  1  0
 21 22  2  0
 22 23  1  0
 23 24  2  0
 24 25  1  0
 14  9  1  0
 24 19  1  0
  1 26  1  0
  1 27  1  0
  1 28  1  0
  2 29  1  0
  2 30  1  0
  4 31  1  0
  4 32  1  0
  5 33  1  0
  5 34  1  0
  5 35  1  0
  6 36  1  0
  6 37  1  0
  7 38  1  0
  7 39  1  0
  8 40  1  0
 10 41  1  0
 11 42  1  0
 12 43  1  0
 13 44  1  0
 18 45  1  0
 20 46  1  0
 21 47  1  0
 22 48  1  0
 23 49  1  0
M  END
>  <UniqueID>  (35) 
33

>  <SMILES>  (35) 
CCN(CC)CCNc1ccccc1S(=O)(=O)Nc1ccccc1Br

>  <Energy>  (35) 
58.830989004713

>  <Genealogy>  (35) 
CCN(CC)CCNc1ccccc1S(=O)(=O)Nc1ccccc1Br (3D coordinates assigned)
CCN(CC)CCNc1ccccc1S(=O)(=O)Nc1ccccc1Br (optimized conformer: 58.830989004713 kcal/mol)

>  <smiles>  (35) 
CCN(CC)CCNc1ccccc1S(=O)(=O)Nc1ccccc1Br

>  <score_type>  (35) 
oracle

>  <origin>  (35) 
adg

>  <m_score__min__energy>  (35) 
-9.1500000000000004

>  <m_primary>  (35) 
energy

$$$$
35:0
     RDKit          3D

 43 44  0  0  0  0  0  0  0  0999 V2000
   -5.4110   25.8340  -30.3330 C   0  0  0  0  0  0  0  0  0  0  0  0
   -4.1710   25.2060  -30.6280 O   0  0  0  0  0  0  0  0  0  0  0  0
   -4.0080   23.8220  -30.5130 C   0  0  0  0  0  0  0  0  0  0  0  0
   -4.7410   22.9400  -31.3390 C   0  0  0  0  0  0  0  0  0  0  0  0
   -5.7280   23.4960  -32.3400 C   0  0  0  0  0  0  0  0  0  0  0  0
   -4.4950   21.5450  -31.2530 C   0  0  0  0  0  0  0  0  0  0  0  0
   -5.1830   20.5480  -32.1660 C   0  0  0  0  0  0  0  0  0  0  0  0
   -6.4470   20.0640  -31.5720 N   0  0  0  0  0  0  0  0  0  0  0  0
   -6.5330   18.5830  -31.6000 C   0  0  0  0  0  0  0  0  0  0  0  0
   -7.4700   18.0830  -32.7160 C   0  0  0  0  0  0  0  0  0  0  0  0
   -8.8000   18.5700  -32.5990 O   0  0  0  0  0  0  0  0  0  0  0  0
   -8.8870   19.8610  -32.0110 C   0  0  0  0  0  0  0  0  0  0  0  0
   -7.6220   20.7140  -32.1960 C   0  0  0  0  0  0  0  0  0  0  0  0
   -3.5730   21.0640  -30.3120 C   0  0  0  0  0  0  0  0  0  0  0  0
   -2.8900   21.9360  -29.4660 C   0  0  0  0  0  0  0  0  0  0  0  0
   -1.6850   21.2040  -28.1670 Br  0  0  0  0  0  0  0  0  0  0  0  0
   -3.1010   23.3200  -29.5620 C   0  0  0  0  0  0  0  0  0  0  0  0
   -2.3860   24.2170  -28.6980 N   0  0  0  0  0  0  0  0  0  0  0  0
   -2.9450   24.5650  -27.3930 C   0  0  0  0  0  0  0  0  0  0  0  0
   -0.9820   24.5250  -28.9700 C   0  0  0  0  0  0  0  0  0  0  0  0
   -5.5389   25.8988  -29.2424 H   0  0  0  0  0  0  0  0  0  0  0  0
   -5.4212   26.8459  -30.7641 H   0  0  0  0  0  0  0  0  0  0  0  0
   -6.2328   25.2434  -30.7641 H   0  0  0  0  0  0  0  0  0  0  0  0
   -6.5657   23.9679  -31.8056 H   0  0  0  0  0  0  0  0  0  0  0  0
   -5.2274   24.2449  -32.9714 H   0  0  0  0  0  0  0  0  0  0  0  0
   -6.1091   22.6798  -32.9714 H   0  0  0  0  0  0  0  0  0  0  0  0
   -5.4016   21.0340  -33.1283 H   0  0  0  0  0  0  0  0  0  0  0  0
   -4.5134   19.6872  -32.3098 H   0  0  0  0  0  0  0  0  0  0  0  0
   -5.5270   18.1715  -31.7693 H   0  0  0  0  0  0  0  0  0  0  0  0
   -6.9417   18.2470  -30.6356 H   0  0  0  0  0  0  0  0  0  0  0  0
   -7.0634   18.4095  -33.6845 H   0  0  0  0  0  0  0  0  0  0  0  0
   -7.5177   16.9872  -32.6322 H   0  0  0  0  0  0  0  0  0  0  0  0
   -9.7342   20.3936  -32.4677 H   0  0  0  0  0  0  0  0  0  0  0  0
   -9.0171   19.7118  -30.9290 H   0  0  0  0  0  0  0  0  0  0  0  0
   -7.4312   20.8458  -33.2713 H   0  0  0  0  0  0  0  0  0  0  0  0
   -7.7823   21.6880  -31.7105 H   0  0  0  0  0  0  0  0  0  0  0  0
   -3.3861   19.9824  -30.2406 H   0  0  0  0  0  0  0  0  0  0  0  0
   -2.2992   24.1630  -26.5985 H   0  0  0  0  0  0  0  0  0  0  0  0
   -3.0036   25.6594  -27.2992 H   0  0  0  0  0  0  0  0  0  0  0  0
   -3.9529   24.1345  -27.2992 H   0  0  0  0  0  0  0  0  0  0  0  0
   -0.4417   24.6435  -28.0192 H   0  0  0  0  0  0  0  0  0  0  0  0
   -0.5318   23.7043  -29.5477 H   0  0  0  0  0  0  0  0  0  0  0  0
   -0.9167   25.4588  -29.5477 H   0  0  0  0  0  0  0  0  0  0  0  0
  1  2  1  0
  2  3  1  0
  3  4  2  0
  4  5  1  0
  4  6  1  0
  6  7  1  0
  7  8  1  0
  8  9  1  0
  9 10  1  0
 10 11  1  0
 11 12  1  0
 12 13  1  0
  6 14  2  0
 14 15  1  0
 15 16  1  0
 15 17  2  0
 17 18  1  0
 18 19  1  0
 18 20  1  0
 17  3  1  0
 13  8  1  0
  1 21  1  0
  1 22  1  0
  1 23  1  0
  5 24  1  0
  5 25  1  0
  5 26  1  0
  7 27  1  0
  7 28  1  0
  9 29  1  0
  9 30  1  0
 10 31  1  0
 10 32  1  0
 12 33  1  0
 12 34  1  0
 13 35  1  0
 13 36  1  0
 14 37  1  0
 19 38  1  0
 19 39  1  0
 19 40  1  0
 20 41  1  0
 20 42  1  0
 20 43  1  0
M  END
>  <UniqueID>  (36) 
34

>  <SMILES>  (36) 
COc1c(C)c(CN2CCOCC2)cc(Br)c1N(C)C

>  <Energy>  (36) 
67.80560818868085

>  <Genealogy>  (36) 
COc1c(C)c(CN2CCOCC2)cc(Br)c1N(C)C (3D coordinates assigned)
COc1c(C)c(CN2CCOCC2)cc(Br)c1N(C)C (nonaromatic ring conformer: 67.80560818868085 kcal/mol)

>  <smiles>  (36) 
COc1c(C)c(CN2CCOCC2)cc(Br)c1N(C)C

>  <score_type>  (36) 
oracle

>  <origin>  (36) 
adg

>  <m_score__min__energy>  (36) 
-7.5199999999999996

>  <m_primary>  (36) 
energy

$$$$
36:0
     RDKit          3D

 61 64  0  0  0  0  0  0  0  0999 V2000
    1.1010   17.7310  -28.0010 C   0  0  0  0  0  0  0  0  0  0  0  0
    1.8240   18.6850  -28.8480 N   0  0  0  0  0  0  0  0  0  0  0  0
    3.2180   19.0120  -28.5250 C   0  0  0  0  0  0  0  0  0  0  0  0
    1.1700   19.2990  -29.9910 C   0  0  0  0  0  0  0  0  0  0  0  0
   -0.0770   19.9510  -29.8460 C   0  0  0  0  0  0  0  0  0  0  0  0
   -0.7240   20.5110  -30.9520 C   0  0  0  0  0  0  0  0  0  0  0  0
   -0.1300   20.4490  -32.2250 C   0  0  0  0  0  0  0  0  0  0  0  0
   -0.8580   20.9930  -33.4280 C   0  0  0  0  0  0  0  0  0  0  0  0
   -2.3140   20.5890  -33.3870 C   0  0  0  0  0  0  0  0  0  0  0  0
   -3.2600   21.5050  -32.9010 C   0  0  0  0  0  0  0  0  0  0  0  0
   -4.6220   21.1650  -32.8210 C   0  0  0  0  0  0  0  0  0  0  0  0
   -5.0430   19.8870  -33.2320 C   0  0  0  0  0  0  0  0  0  0  0  0
   -4.0990   18.9750  -33.7320 C   0  0  0  0  0  0  0  0  0  0  0  0
   -2.7370   19.3180  -33.8290 C   0  0  0  0  0  0  0  0  0  0  0  0
   -1.7880   18.4250  -34.3640 O   0  0  0  0  0  0  0  0  0  0  0  0
   -2.0250   17.0550  -34.6960 C   0  0  0  0  0  0  0  0  0  0  0  0
   -1.2210   16.1000  -33.7820 C   0  0  0  0  0  0  0  0  0  0  0  0
   -0.1350   16.7420  -32.9970 N   0  0  0  0  0  0  0  0  0  0  0  0
   -0.0960   16.3000  -31.5920 C   0  0  0  0  0  0  0  0  0  0  0  0
    1.1840   16.5910  -33.6350 C   0  0  0  0  0  0  0  0  0  0  0  0
   -6.4790   19.5200  -33.1550 C   0  0  0  0  0  0  0  0  0  0  0  0
   -6.8660   18.3900  -33.5640 O   0  0  0  0  0  0  0  0  0  0  0  0
   -7.4660   20.4820  -32.6100 C   0  0  0  0  0  0  0  0  0  0  0  0
   -8.8230   20.1330  -32.4990 C   0  0  0  0  0  0  0  0  0  0  0  0
   -9.7480   21.0520  -31.9940 C   0  0  0  0  0  0  0  0  0  0  0  0
   -9.3310   22.3240  -31.5950 C   0  0  0  0  0  0  0  0  0  0  0  0
   -7.9870   22.6790  -31.6950 C   0  0  0  0  0  0  0  0  0  0  0  0
   -7.0430   21.7650  -32.2010 C   0  0  0  0  0  0  0  0  0  0  0  0
   -5.6140   22.1410  -32.3110 C   0  0  0  0  0  0  0  0  0  0  0  0
   -5.2420   23.2980  -31.9790 O   0  0  0  0  0  0  0  0  0  0  0  0
    1.1170   19.8120  -32.3770 C   0  0  0  0  0  0  0  0  0  0  0  0
    1.7580   19.2440  -31.2720 C   0  0  0  0  0  0  0  0  0  0  0  0
    1.2820   17.9699  -26.9426 H   0  0  0  0  0  0  0  0  0  0  0  0
    0.0235   17.7962  -28.2125 H   0  0  0  0  0  0  0  0  0  0  0  0
    1.4551   16.7113  -28.2125 H   0  0  0  0  0  0  0  0  0  0  0  0
    3.3440   19.0416  -27.4326 H   0  0  0  0  0  0  0  0  0  0  0  0
    3.8824   18.2453  -28.9501 H   0  0  0  0  0  0  0  0  0  0  0  0
    3.4722   19.9942  -28.9501 H   0  0  0  0  0  0  0  0  0  0  0  0
   -0.5430   20.0182  -28.8519 H   0  0  0  0  0  0  0  0  0  0  0  0
   -1.7005   21.0015  -30.8258 H   0  0  0  0  0  0  0  0  0  0  0  0
   -0.7859   22.0906  -33.4301 H   0  0  0  0  0  0  0  0  0  0  0  0
   -0.3985   20.5835  -34.3397 H   0  0  0  0  0  0  0  0  0  0  0  0
   -2.9310   22.5037  -32.5779 H   0  0  0  0  0  0  0  0  0  0  0  0
   -4.4294   17.9761  -34.0531 H   0  0  0  0  0  0  0  0  0  0  0  0
   -3.0977   16.8403  -34.5810 H   0  0  0  0  0  0  0  0  0  0  0  0
   -1.7007   16.8916  -35.7343 H   0  0  0  0  0  0  0  0  0  0  0  0
   -1.9230   15.6345  -33.0745 H   0  0  0  0  0  0  0  0  0  0  0  0
   -0.7291   15.3786  -34.4511 H   0  0  0  0  0  0  0  0  0  0  0  0
   -0.3460   17.7690  -32.9830 H   0  0  0  0  0  0  0  0  0  0  0  0
   -0.1732   17.1751  -30.9300 H   0  0  0  0  0  0  0  0  0  0  0  0
   -0.9375   15.6185  -31.3985 H   0  0  0  0  0  0  0  0  0  0  0  0
    0.8518   15.7764  -31.3985 H   0  0  0  0  0  0  0  0  0  0  0  0
    1.9586   16.5023  -32.8591 H   0  0  0  0  0  0  0  0  0  0  0  0
    1.1870   15.6866  -34.2612 H   0  0  0  0  0  0  0  0  0  0  0  0
    1.3914   17.4713  -34.2612 H   0  0  0  0  0  0  0  0  0  0  0  0
   -9.1587   19.1329  -32.8107 H   0  0  0  0  0  0  0  0  0  0  0  0
  -10.8085   20.7721  -31.9106 H   0  0  0  0  0  0  0  0  0  0  0  0
  -10.0629   23.0451  -31.2021 H   0  0  0  0  0  0  0  0  0  0  0  0
   -7.6614   23.6802  -31.3764 H   0  0  0  0  0  0  0  0  0  0  0  0
    1.5886   19.7612  -33.3695 H   0  0  0  0  0  0  0  0  0  0  0  0
    2.7315   18.7488  -31.4029 H   0  0  0  0  0  0  0  0  0  0  0  0
  1  2  1  0
  2  3  1  0
  2  4  1  0
  4  5  2  0
  5  6  1  0
  6  7  2  0
  7  8  1  0
  8  9  1  0
  9 10  2  0
 10 11  1  0
 11 12  2  0
 12 13  1  0
 13 14  2  0
 14 15  1  0
 15 16  1  0
 16 17  1  0
 17 18  1  0
 18 19  1  0
 18 20  1  0
 12 21  1  0
 21 22  2  0
 21 23  1  0
 23 24  2  0
 24 25  1  0
 25 26  2  0
 26 27  1  0
 27 28  2  0
 28 29  1  0
 29 30  2  0
  7 31  1  0
 31 32  2  0
 32  4  1  0
 14  9  1  0
 28 23  1  0
 29 11  1  0
  1 33  1  0
  1 34  1  0
  1 35  1  0
  3 36  1  0
  3 37  1  0
  3 38  1  0
  5 39  1  0
  6 40  1  0
  8 41  1  0
  8 42  1  0
 10 43  1  0
 13 44  1  0
 16 45  1  0
 16 46  1  0
 17 47  1  0
 17 48  1  0
 18 49  1  0
 19 50  1  0
 19 51  1  0
 19 52  1  0
 20 53  1  0
 20 54  1  0
 20 55  1  0
 24 56  1  0
 25 57  1  0
 26 58  1  0
 27 59  1  0
 31 60  1  0
 32 61  1  0
M  CHG  1  18   1
M  END
>  <UniqueID>  (37) 
35

>  <SMILES>  (37) 
CN(C)c1ccc(Cc2cc3c(cc2OCC[NH+](C)C)C(=O)c2ccccc2C3=O)cc1

>  <Energy>  (37) 
73.59072088654355

>  <Genealogy>  (37) 
CN(C)c1ccc(Cc2cc3c(cc2OCC[NH+](C)C)C(=O)c2ccccc2C3=O)cc1 (protonated)
CN(C)c1ccc(Cc2cc3c(cc2OCC[NH+](C)C)C(=O)c2ccccc2C3=O)cc1 (3D coordinates assigned)
CN(C)c1ccc(Cc2cc3c(cc2OCC[NH+](C)C)C(=O)c2ccccc2C3=O)cc1 (nonaromatic ring conformer: 73.59072088654355 kcal/mol)

>  <smiles>  (37) 
CN(C)CCOc1cc2c(cc1Cc1ccc(N(C)C)cc1)C(=O)c1ccccc1C2=O

>  <score_type>  (37) 
oracle

>  <origin>  (37) 
adg

>  <m_score__min__energy>  (37) 
-7.5300000000000002

>  <m_primary>  (37) 
energy

$$$$
37:0
     RDKit          3D

 48 49  0  0  0  0  0  0  0  0999 V2000
   -6.1080   17.9000  -34.0670 C   0  0  0  0  0  0  0  0  0  0  0  0
   -7.2520   18.1320  -33.0710 C   0  0  0  0  0  0  0  0  0  0  0  0
   -7.7040   19.5470  -33.0510 N   0  0  0  0  0  0  0  0  0  0  0  0
   -8.6030   19.7690  -31.8910 C   0  0  0  0  0  0  0  0  0  0  0  0
   -8.7310   21.2640  -31.5680 C   0  0  0  0  0  0  0  0  0  0  0  0
   -7.4310   21.8580  -31.1610 N   0  0  0  0  0  0  0  0  0  0  0  0
   -7.3610   23.3010  -31.4850 C   0  0  0  0  0  0  0  0  0  0  0  0
   -6.4740   24.0570  -30.4790 C   0  0  0  0  0  0  0  0  0  0  0  0
   -5.5940   25.1200  -31.1530 C   0  0  0  0  0  0  0  0  0  0  0  0
   -4.2990   25.2440  -30.4660 N   0  0  0  0  0  0  0  0  0  0  0  0
   -3.6980   23.9280  -30.2000 C   0  0  0  0  0  0  0  0  0  0  0  0
   -2.6740   23.9860  -29.0930 C   0  0  0  0  0  0  0  0  0  0  0  0
   -1.3160   23.7930  -29.2670 C   0  0  0  0  0  0  0  0  0  0  0  0
   -0.7340   23.9630  -28.0260 C   0  0  0  0  0  0  0  0  0  0  0  0
   -1.7550   24.2540  -27.1440 C   0  0  0  0  0  0  0  0  0  0  0  0
   -2.9340   24.2700  -27.7970 N   0  0  0  0  0  0  0  0  0  0  0  0
   -4.2360   24.5340  -27.1920 C   0  0  0  0  0  0  0  0  0  0  0  0
   -6.2610   21.1200  -31.7040 C   0  0  0  0  0  0  0  0  0  0  0  0
   -6.5560   20.5000  -33.0820 C   0  0  0  0  0  0  0  0  0  0  0  0
   -5.1749   17.7108  -33.5161 H   0  0  0  0  0  0  0  0  0  0  0  0
   -6.3430   17.0312  -34.6995 H   0  0  0  0  0  0  0  0  0  0  0  0
   -5.9860   18.7917  -34.6995 H   0  0  0  0  0  0  0  0  0  0  0  0
   -8.1018   17.4932  -33.3533 H   0  0  0  0  0  0  0  0  0  0  0  0
   -6.8790   17.8837  -32.0664 H   0  0  0  0  0  0  0  0  0  0  0  0
   -8.2800   19.7150  -33.9100 H   0  0  0  0  0  0  0  0  0  0  0  0
   -9.5991   19.3659  -32.1264 H   0  0  0  0  0  0  0  0  0  0  0  0
   -8.1756   19.2582  -31.0155 H   0  0  0  0  0  0  0  0  0  0  0  0
   -9.0980   21.7904  -32.4615 H   0  0  0  0  0  0  0  0  0  0  0  0
   -9.4322   21.3716  -30.7273 H   0  0  0  0  0  0  0  0  0  0  0  0
   -6.9412   23.4218  -32.4945 H   0  0  0  0  0  0  0  0  0  0  0  0
   -8.3775   23.7183  -31.4342 H   0  0  0  0  0  0  0  0  0  0  0  0
   -7.1215   24.5519  -29.7403 H   0  0  0  0  0  0  0  0  0  0  0  0
   -5.8065   23.3227  -30.0045 H   0  0  0  0  0  0  0  0  0  0  0  0
   -5.4197   24.8317  -32.2002 H   0  0  0  0  0  0  0  0  0  0  0  0
   -6.1126   26.0887  -31.1016 H   0  0  0  0  0  0  0  0  0  0  0  0
   -4.4360   25.7370  -29.5530 H   0  0  0  0  0  0  0  0  0  0  0  0
   -4.4941   23.2262  -29.9106 H   0  0  0  0  0  0  0  0  0  0  0  0
   -3.1882   23.5964  -31.1166 H   0  0  0  0  0  0  0  0  0  0  0  0
   -0.8006   23.5516  -30.2083 H   0  0  0  0  0  0  0  0  0  0  0  0
    0.3366   23.8821  -27.7867 H   0  0  0  0  0  0  0  0  0  0  0  0
   -1.6258   24.4445  -26.0684 H   0  0  0  0  0  0  0  0  0  0  0  0
   -4.1418   24.5149  -26.0962 H   0  0  0  0  0  0  0  0  0  0  0  0
   -4.5952   25.5233  -27.5119 H   0  0  0  0  0  0  0  0  0  0  0  0
   -4.9521   23.7628  -27.5119 H   0  0  0  0  0  0  0  0  0  0  0  0
   -5.4162   21.8176  -31.8024 H   0  0  0  0  0  0  0  0  0  0  0  0
   -6.0240   20.3017  -31.0081 H   0  0  0  0  0  0  0  0  0  0  0  0
   -6.7896   21.3094  -33.7893 H   0  0  0  0  0  0  0  0  0  0  0  0
   -5.6637   19.9353  -33.3901 H   0  0  0  0  0  0  0  0  0  0  0  0
  1  2  1  0
  2  3  1  0
  3  4  1  0
  4  5  1  0
  5  6  1  0
  6  7  1  0
  7  8  1  0
  8  9  1  0
  9 10  1  0
 10 11  1  0
 11 12  1  0
 12 13  2  0
 13 14  1  0
 14 15  2  0
 15 16  1  0
 16 17  1  0
  6 18  1  0
 18 19  1  0
 19  3  1  0
 16 12  1  0
  1 20  1  0
  1 21  1  0
  1 22  1  0
  2 23  1  0
  2 24  1  0
  3 25  1  0
  4 26  1  0
  4 27  1  0
  5 28  1  0
  5 29  1  0
  7 30  1  0
  7 31  1  0
  8 32  1  0
  8 33  1  0
  9 34  1  0
  9 35  1  0
 10 36  1  0
 11 37  1  0
 11 38  1  0
 13 39  1  0
 14 40  1  0
 15 41  1  0
 17 42  1  0
 17 43  1  0
 17 44  1  0
 18 45  1  0
 18 46  1  0
 19 47  1  0
 19 48  1  0
M  CHG  1   3   1
M  END
>  <UniqueID>  (38) 
36

>  <SMILES>  (38) 
CC[NH+]1CCN(CCCNCc2cccn2C)CC1

>  <Energy>  (38) 
80.93886593641734

>  <Genealogy>  (38) 
CC[NH+]1CCN(CCCNCc2cccn2C)CC1 (protonated)
CC[NH+]1CCN(CCCNCc2cccn2C)CC1 (3D coordinates assigned)
CC[NH+]1CCN(CCCNCc2cccn2C)CC1 (nonaromatic ring conformer: 80.93886593641734 kcal/mol)

>  <smiles>  (38) 
CCN1CCN(CCCNCc2cccn2C)CC1

>  <score_type>  (38) 
oracle

>  <origin>  (38) 
adg

>  <m_score__min__energy>  (38) 
-6.79

>  <m_primary>  (38) 
energy

$$$$
38:0
     RDKit          3D

 43 45  0  0  0  0  0  0  0  0999 V2000
   -3.4910   23.6390  -31.2910 H   0  0  0  0  0  0  0  0  0  0  0  0
   -2.8490   22.8830  -31.2460 O   0  0  0  0  0  0  0  0  0  0  0  0
   -3.6170   21.7150  -31.3420 C   0  0  0  0  0  0  0  0  0  0  0  0
   -4.2337   21.6091  -30.4373 H   0  0  0  0  0  0  0  0  0  0  0  0
   -2.9463   20.8486  -31.4395 H   0  0  0  0  0  0  0  0  0  0  0  0
   -4.5260   21.7870  -32.5690 C   0  0  0  0  0  0  0  0  0  0  0  0
   -4.5131   20.8157  -33.0851 H   0  0  0  0  0  0  0  0  0  0  0  0
   -4.1562   22.5795  -33.2363 H   0  0  0  0  0  0  0  0  0  0  0  0
   -5.9090   22.1070  -32.1760 N   0  0  0  0  0  0  0  0  0  0  0  0
   -6.9700   21.2430  -32.2810 C   0  0  0  0  0  0  0  0  0  0  0  0
   -6.8450   19.8330  -32.7010 C   0  0  0  0  0  0  0  0  0  0  0  0
   -7.5290   18.8330  -32.0020 C   0  0  0  0  0  0  0  0  0  0  0  0
   -8.1623   19.1001  -31.1432 H   0  0  0  0  0  0  0  0  0  0  0  0
   -7.4110   17.4980  -32.3900 C   0  0  0  0  0  0  0  0  0  0  0  0
   -7.9592   16.7200  -31.8385 H   0  0  0  0  0  0  0  0  0  0  0  0
   -6.5990   17.1380  -33.4780 C   0  0  0  0  0  0  0  0  0  0  0  0
   -6.4890   15.6870  -33.8680 C   0  0  0  0  0  0  0  0  0  0  0  0
   -6.4419   15.0661  -32.9612 H   0  0  0  0  0  0  0  0  0  0  0  0
   -7.3679   15.3998  -34.4638 H   0  0  0  0  0  0  0  0  0  0  0  0
   -5.5768   15.5356  -34.4638 H   0  0  0  0  0  0  0  0  0  0  0  0
   -5.8750   18.1410  -34.1650 C   0  0  0  0  0  0  0  0  0  0  0  0
   -4.9850   17.8030  -35.3330 C   0  0  0  0  0  0  0  0  0  0  0  0
   -4.0169   17.4353  -34.9620 H   0  0  0  0  0  0  0  0  0  0  0  0
   -5.4631   17.0238  -35.9448 H   0  0  0  0  0  0  0  0  0  0  0  0
   -4.8253   18.7031  -35.9448 H   0  0  0  0  0  0  0  0  0  0  0  0
   -6.0120   19.4830  -33.7710 C   0  0  0  0  0  0  0  0  0  0  0  0
   -5.4589   20.2671  -34.3089 H   0  0  0  0  0  0  0  0  0  0  0  0
   -8.2120   21.8000  -31.9800 C   0  0  0  0  0  0  0  0  0  0  0  0
   -9.1775   21.2737  -32.0071 H   0  0  0  0  0  0  0  0  0  0  0  0
   -7.9820   23.4120  -31.5690 S   0  0  0  0  0  0  0  0  0  0  0  0
   -6.3130   23.3460  -31.7960 C   0  0  0  0  0  0  0  0  0  0  0  0
   -5.4950   24.3500  -31.6560 N   0  0  0  0  0  0  0  0  0  0  0  0
   -5.4650   25.2590  -30.5130 C   0  0  0  0  0  0  0  0  0  0  0  0
   -5.2731   26.2823  -30.8681 H   0  0  0  0  0  0  0  0  0  0  0  0
   -6.4347   25.2154  -29.9956 H   0  0  0  0  0  0  0  0  0  0  0  0
   -4.3850   24.8570  -29.5580 C   0  0  0  0  0  0  0  0  0  0  0  0
   -3.1090   25.1070  -29.7470 O   0  0  0  0  0  0  0  0  0  0  0  0
   -2.4350   24.6250  -28.7270 C   0  0  0  0  0  0  0  0  0  0  0  0
   -1.3434   24.6842  -28.6047 H   0  0  0  0  0  0  0  0  0  0  0  0
   -3.3040   24.0330  -27.8320 C   0  0  0  0  0  0  0  0  0  0  0  0
   -3.0427   23.5436  -26.8821 H   0  0  0  0  0  0  0  0  0  0  0  0
   -4.5650   24.1790  -28.3690 C   0  0  0  0  0  0  0  0  0  0  0  0
   -5.5155   23.8287  -27.9401 H   0  0  0  0  0  0  0  0  0  0  0  0
  1  2  1  0
  2  3  1  0
  3  4  1  0
  3  5  1  0
  3  6  1  0
  6  7  1  0
  6  8  1  0
  6  9  1  0
  9 10  1  0
 10 11  1  0
 11 12  2  0
 12 13  1  0
 12 14  1  0
 14 15  1  0
 14 16  2  0
 16 17  1  0
 17 18  1  0
 17 19  1  0
 17 20  1  0
 16 21  1  0
 21 22  1  0
 22 23  1  0
 22 24  1  0
 22 25  1  0
 21 26  2  0
 26 27  1  0
 10 28  2  0
 28 29  1  0
 28 30  1  0
 30 31  1  0
 31 32  2  0
 32 33  1  0
 33 34  1  0
 33 35  1  0
 33 36  1  0
 36 37  1  0
 37 38  1  0
 38 39  1  0
 38 40  2  0
 40 41  1  0
 40 42  1  0
 42 43  1  0
 31  9  1  0
 42 36  2  0
 26 11  1  0
M  END
>  <UniqueID>  (39) 
37

>  <SMILES>  (39) 
Cc1ccc(-c2cs/c(=N\Cc3ccco3)n2CCO)cc1C

>  <Energy>  (39) 
103.72848312729157

>  <Genealogy>  (39) 
Cc1ccc(-c2cs/c(=N\Cc3ccco3)n2CCO)cc1C (cis-trans isomerization)
Cc1ccc(-c2cs/c(=N\Cc3ccco3)n2CCO)cc1C (3D coordinates assigned)
Cc1ccc(-c2cs/c(=N\Cc3ccco3)n2CCO)cc1C (optimized conformer: 103.72848312729157 kcal/mol)

>  <smiles>  (39) 
Cc1ccc(-c2csc(=NCc3ccco3)n2CCO)cc1C

>  <score_type>  (39) 
oracle

>  <origin>  (39) 
adg

>  <m_score__min__energy>  (39) 
-8.2899999999999991

>  <m_primary>  (39) 
energy

$$$$
39:0
     RDKit          3D

 41 43  0  0  0  0  0  0  0  0999 V2000
   -1.7080   19.8570  -27.7640 C   0  0  0  0  0  0  0  0  0  0  0  0
   -2.4080   21.0020  -28.4360 C   0  0  0  0  0  0  0  0  0  0  0  0
   -2.5480   21.0240  -29.8240 C   0  0  0  0  0  0  0  0  0  0  0  0
   -3.2360   22.0660  -30.4680 C   0  0  0  0  0  0  0  0  0  0  0  0
   -3.2990   22.0350  -31.9730 C   0  0  0  0  0  0  0  0  0  0  0  0
   -3.8530   23.0890  -29.6920 C   0  0  0  0  0  0  0  0  0  0  0  0
   -4.8510   24.3680  -30.4500 S   0  0  0  0  0  0  0  0  0  0  0  0
   -4.0560   25.5810  -30.8440 O   0  0  0  0  0  0  0  0  0  0  0  0
   -5.9060   24.7920  -29.4680 O   0  0  0  0  0  0  0  0  0  0  0  0
   -5.6170   23.7650  -31.8860 N   0  0  0  0  0  0  0  0  0  0  0  0
   -6.6000   22.7170  -31.8940 C   0  0  0  0  0  0  0  0  0  0  0  0
   -7.9810   22.9890  -31.8890 C   0  0  0  0  0  0  0  0  0  0  0  0
   -8.8930   21.9330  -31.9110 C   0  0  0  0  0  0  0  0  0  0  0  0
   -8.4330   20.6110  -31.9360 C   0  0  0  0  0  0  0  0  0  0  0  0
   -9.3240   19.5290  -31.9580 C   0  0  0  0  0  0  0  0  0  0  0  0
   -8.8310   18.2200  -31.9820 C   0  0  0  0  0  0  0  0  0  0  0  0
   -7.4510   17.9880  -31.9820 C   0  0  0  0  0  0  0  0  0  0  0  0
   -6.5560   19.0630  -31.9590 C   0  0  0  0  0  0  0  0  0  0  0  0
   -7.0410   20.3750  -31.9360 C   0  0  0  0  0  0  0  0  0  0  0  0
   -6.1750   21.4240  -31.9150 N   0  0  0  0  0  0  0  0  0  0  0  0
   -3.6620   23.0840  -28.2810 C   0  0  0  0  0  0  0  0  0  0  0  0
   -4.2120   24.1640  -27.3830 C   0  0  0  0  0  0  0  0  0  0  0  0
   -2.9730   22.0240  -27.6730 C   0  0  0  0  0  0  0  0  0  0  0  0
   -1.7792   19.9735  -26.6725 H   0  0  0  0  0  0  0  0  0  0  0  0
   -2.1822   18.9107  -28.0635 H   0  0  0  0  0  0  0  0  0  0  0  0
   -0.6496   19.8477  -28.0635 H   0  0  0  0  0  0  0  0  0  0  0  0
   -2.1123   20.2117  -30.4243 H   0  0  0  0  0  0  0  0  0  0  0  0
   -4.2439   21.5701  -32.2909 H   0  0  0  0  0  0  0  0  0  0  0  0
   -3.2461   23.0620  -32.3634 H   0  0  0  0  0  0  0  0  0  0  0  0
   -2.4530   21.4503  -32.3634 H   0  0  0  0  0  0  0  0  0  0  0  0
   -5.3760   24.2280  -32.7900 H   0  0  0  0  0  0  0  0  0  0  0  0
   -8.3396   24.0287  -31.8679 H   0  0  0  0  0  0  0  0  0  0  0  0
   -9.9735   22.1394  -31.9087 H   0  0  0  0  0  0  0  0  0  0  0  0
  -10.4092   19.7089  -31.9564 H   0  0  0  0  0  0  0  0  0  0  0  0
   -9.5300   17.3709  -32.0009 H   0  0  0  0  0  0  0  0  0  0  0  0
   -7.0686   16.9568  -32.0001 H   0  0  0  0  0  0  0  0  0  0  0  0
   -5.4719   18.8768  -31.9590 H   0  0  0  0  0  0  0  0  0  0  0  0
   -4.0655   23.8763  -26.3314 H   0  0  0  0  0  0  0  0  0  0  0  0
   -3.6854   25.1092  -27.5814 H   0  0  0  0  0  0  0  0  0  0  0  0
   -5.2861   24.2940  -27.5814 H   0  0  0  0  0  0  0  0  0  0  0  0
   -2.8768   21.9983  -26.5775 H   0  0  0  0  0  0  0  0  0  0  0  0
  1  2  1  0
  2  3  2  0
  3  4  1  0
  4  5  1  0
  4  6  2  0
  6  7  1  0
  7  8  2  0
  7  9  2  0
  7 10  1  0
 10 11  1  0
 11 12  2  0
 12 13  1  0
 13 14  2  0
 14 15  1  0
 15 16  2  0
 16 17  1  0
 17 18  2  0
 18 19  1  0
 19 20  2  0
  6 21  1  0
 21 22  1  0
 21 23  2  0
 23  2  1  0
 20 11  1  0
 19 14  1  0
  1 24  1  0
  1 25  1  0
  1 26  1  0
  3 27  1  0
  5 28  1  0
  5 29  1  0
  5 30  1  0
 10 31  1  0
 12 32  1  0
 13 33  1  0
 15 34  1  0
 16 35  1  0
 17 36  1  0
 18 37  1  0
 22 38  1  0
 22 39  1  0
 22 40  1  0
 23 41  1  0
M  END
>  <UniqueID>  (40) 
38

>  <SMILES>  (40) 
Cc1cc(C)c(S(=O)(=O)Nc2ccc3ccccc3n2)c(C)c1

>  <Energy>  (40) 
53.39779040527672

>  <Genealogy>  (40) 
Cc1cc(C)c(S(=O)(=O)Nc2ccc3ccccc3n2)c(C)c1 (3D coordinates assigned)
Cc1cc(C)c(S(=O)(=O)Nc2ccc3ccccc3n2)c(C)c1 (optimized conformer: 53.39779040527672 kcal/mol)

>  <smiles>  (40) 
Cc1cc(C)c(S(=O)(=O)Nc2ccc3ccccc3n2)c(C)c1

>  <score_type>  (40) 
oracle

>  <origin>  (40) 
adg

>  <m_score__min__energy>  (40) 
-9.3699999999999992

>  <m_primary>  (40) 
energy

$$$$
40:0
     RDKit          3D

 65 67  0  0  0  0  0  0  0  0999 V2000
   -0.3750   22.8360  -24.8360 C   0  0  0  0  0  0  0  0  0  0  0  0
    0.9830   23.4720  -24.4850 C   0  0  0  0  0  0  0  0  0  0  0  0
    1.2180   24.8140  -25.0860 N   0  0  0  0  0  0  0  0  0  0  0  0
    2.4760   24.8530  -25.8750 C   0  0  0  0  0  0  0  0  0  0  0  0
    2.2210   24.7140  -27.3820 C   0  0  0  0  0  0  0  0  0  0  0  0
    1.1610   25.8980  -24.0620 C   0  0  0  0  0  0  0  0  0  0  0  0
    0.0010   26.8840  -24.3040 C   0  0  0  0  0  0  0  0  0  0  0  0
   -1.2480   26.1890  -24.8650 C   0  0  0  0  0  0  0  0  0  0  0  0
   -0.9770   25.6370  -26.1540 O   0  0  0  0  0  0  0  0  0  0  0  0
   -1.9430   25.1740  -27.0630 C   0  0  0  0  0  0  0  0  0  0  0  0
   -1.6710   24.9710  -28.4300 C   0  0  0  0  0  0  0  0  0  0  0  0
   -2.6710   24.5020  -29.2870 C   0  0  0  0  0  0  0  0  0  0  0  0
   -3.9600   24.2270  -28.7990 C   0  0  0  0  0  0  0  0  0  0  0  0
   -5.0200   23.7240  -29.7100 C   0  0  0  0  0  0  0  0  0  0  0  0
   -6.1720   24.4900  -29.9590 C   0  0  0  0  0  0  0  0  0  0  0  0
   -7.1710   24.0160  -30.8140 C   0  0  0  0  0  0  0  0  0  0  0  0
   -7.0350   22.7630  -31.4410 C   0  0  0  0  0  0  0  0  0  0  0  0
   -8.0060   22.2340  -32.3060 O   0  0  0  0  0  0  0  0  0  0  0  0
   -9.3200   21.8210  -31.9300 C   0  0  0  0  0  0  0  0  0  0  0  0
   -9.4680   20.3070  -32.0570 C   0  0  0  0  0  0  0  0  0  0  0  0
   -8.3010   19.6740  -31.5400 O   0  0  0  0  0  0  0  0  0  0  0  0
   -7.3430   19.0140  -32.3230 C   0  0  0  0  0  0  0  0  0  0  0  0
   -6.8350   19.6760  -33.4490 C   0  0  0  0  0  0  0  0  0  0  0  0
   -5.8780   19.0610  -34.2610 C   0  0  0  0  0  0  0  0  0  0  0  0
   -5.4190   17.7760  -33.9550 C   0  0  0  0  0  0  0  0  0  0  0  0
   -4.2180   17.0060  -34.9740 Cl  0  0  0  0  0  0  0  0  0  0  0  0
   -5.9200   17.1070  -32.8330 C   0  0  0  0  0  0  0  0  0  0  0  0
   -6.8770   17.7190  -32.0180 C   0  0  0  0  0  0  0  0  0  0  0  0
   -5.8900   21.9990  -31.1900 C   0  0  0  0  0  0  0  0  0  0  0  0
   -4.8900   22.4720  -30.3360 C   0  0  0  0  0  0  0  0  0  0  0  0
   -4.2270   24.4280  -27.4340 C   0  0  0  0  0  0  0  0  0  0  0  0
   -3.2250   24.8960  -26.5780 C   0  0  0  0  0  0  0  0  0  0  0  0
   -0.9124   22.5843  -23.9098 H   0  0  0  0  0  0  0  0  0  0  0  0
   -0.9722   23.5481  -25.4245 H   0  0  0  0  0  0  0  0  0  0  0  0
   -0.2104   21.9213  -25.4245 H   0  0  0  0  0  0  0  0  0  0  0  0
    1.0415   23.5719  -23.3911 H   0  0  0  0  0  0  0  0  0  0  0  0
    1.7535   22.8068  -24.9019 H   0  0  0  0  0  0  0  0  0  0  0  0
    0.4320   24.9450  -25.7660 H   0  0  0  0  0  0  0  0  0  0  0  0
    2.9813   25.8121  -25.6884 H   0  0  0  0  0  0  0  0  0  0  0  0
    3.0990   24.0034  -25.5586 H   0  0  0  0  0  0  0  0  0  0  0  0
    1.2659   24.1934  -27.5458 H   0  0  0  0  0  0  0  0  0  0  0  0
    2.1773   25.7131  -27.8402 H   0  0  0  0  0  0  0  0  0  0  0  0
    3.0370   24.1359  -27.8402 H   0  0  0  0  0  0  0  0  0  0  0  0
    1.0320   25.4392  -23.0706 H   0  0  0  0  0  0  0  0  0  0  0  0
    2.1001   26.4670  -24.1276 H   0  0  0  0  0  0  0  0  0  0  0  0
   -0.2601   27.3639  -23.3493 H   0  0  0  0  0  0  0  0  0  0  0  0
    0.3369   27.6226  -25.0467 H   0  0  0  0  0  0  0  0  0  0  0  0
   -1.5506   25.3817  -24.1819 H   0  0  0  0  0  0  0  0  0  0  0  0
   -2.0557   26.9299  -24.9580 H   0  0  0  0  0  0  0  0  0  0  0  0
   -0.6665   25.1826  -28.8253 H   0  0  0  0  0  0  0  0  0  0  0  0
   -2.4470   24.3468  -30.3527 H   0  0  0  0  0  0  0  0  0  0  0  0
   -6.2884   25.4716  -29.4765 H   0  0  0  0  0  0  0  0  0  0  0  0
   -8.0682   24.6253  -30.9979 H   0  0  0  0  0  0  0  0  0  0  0  0
   -9.5061   22.1155  -30.8866 H   0  0  0  0  0  0  0  0  0  0  0  0
  -10.0471   22.3043  -32.5991 H   0  0  0  0  0  0  0  0  0  0  0  0
  -10.3487   19.9750  -31.4877 H   0  0  0  0  0  0  0  0  0  0  0  0
   -9.5948   20.0370  -33.1158 H   0  0  0  0  0  0  0  0  0  0  0  0
   -7.1920   20.6868  -33.6955 H   0  0  0  0  0  0  0  0  0  0  0  0
   -5.4851   19.5888  -35.1425 H   0  0  0  0  0  0  0  0  0  0  0  0
   -5.5597   16.0962  -32.5913 H   0  0  0  0  0  0  0  0  0  0  0  0
   -7.2672   17.1888  -31.1368 H   0  0  0  0  0  0  0  0  0  0  0  0
   -5.7758   21.0158  -31.6699 H   0  0  0  0  0  0  0  0  0  0  0  0
   -3.9945   21.8601  -30.1523 H   0  0  0  0  0  0  0  0  0  0  0  0
   -5.2304   24.2159  -27.0364 H   0  0  0  0  0  0  0  0  0  0  0  0
   -3.4476   25.0471  -25.5114 H   0  0  0  0  0  0  0  0  0  0  0  0
  1  2  1  0
  2  3  1  0
  3  4  1  0
  4  5  1  0
  3  6  1  0
  6  7  1  0
  7  8  1  0
  8  9  1  0
  9 10  1  0
 10 11  2  0
 11 12  1  0
 12 13  2  0
 13 14  1  0
 14 15  2  0
 15 16  1  0
 16 17  2  0
 17 18  1  0
 18 19  1  0
 19 20  1  0
 20 21  1  0
 21 22  1  0
 22 23  2  0
 23 24  1  0
 24 25  2  0
 25 26  1  0
 25 27  1  0
 27 28  2  0
 17 29  1  0
 29 30  2  0
 13 31  1  0
 31 32  2  0
 32 10  1  0
 30 14  1  0
 28 22  1  0
  1 33  1  0
  1 34  1  0
  1 35  1  0
  2 36  1  0
  2 37  1  0
  3 38  1  0
  4 39  1  0
  4 40  1  0
  5 41  1  0
  5 42  1  0
  5 43  1  0
  6 44  1  0
  6 45  1  0
  7 46  1  0
  7 47  1  0
  8 48  1  0
  8 49  1  0
 11 50  1  0
 12 51  1  0
 15 52  1  0
 16 53  1  0
 19 54  1  0
 19 55  1  0
 20 56  1  0
 20 57  1  0
 23 58  1  0
 24 59  1  0
 27 60  1  0
 28 61  1  0
 29 62  1  0
 30 63  1  0
 31 64  1  0
 32 65  1  0
M  CHG  1   3   1
M  END
>  <UniqueID>  (41) 
39

>  <SMILES>  (41) 
CC[NH+](CC)CCCOc1ccc(-c2ccc(OCCOc3ccc(Cl)cc3)cc2)cc1

>  <Energy>  (41) 
72.30369180042207

>  <Genealogy>  (41) 
CC[NH+](CC)CCCOc1ccc(-c2ccc(OCCOc3ccc(Cl)cc3)cc2)cc1 (protonated)
CC[NH+](CC)CCCOc1ccc(-c2ccc(OCCOc3ccc(Cl)cc3)cc2)cc1 (3D coordinates assigned)
CC[NH+](CC)CCCOc1ccc(-c2ccc(OCCOc3ccc(Cl)cc3)cc2)cc1 (optimized conformer: 72.30369180042207 kcal/mol)

>  <smiles>  (41) 
CCN(CC)CCCOc1ccc(-c2ccc(OCCOc3ccc(Cl)cc3)cc2)cc1

>  <score_type>  (41) 
oracle

>  <origin>  (41) 
adg

>  <m_score__min__energy>  (41) 
-8.7599999999999998

>  <m_primary>  (41) 
energy

$$$$
41:0
     RDKit          3D

 46 48  0  0  0  0  0  0  0  0999 V2000
   -2.2730   24.5190  -28.7100 C   0  0  0  0  0  0  0  0  0  0  0  0
   -3.1220   25.0500  -29.7230 O   0  0  0  0  0  0  0  0  0  0  0  0
   -4.3170   24.4500  -30.1490 C   0  0  0  0  0  0  0  0  0  0  0  0
   -5.3460   25.1770  -30.7750 C   0  0  0  0  0  0  0  0  0  0  0  0
   -6.5190   24.5330  -31.1780 C   0  0  0  0  0  0  0  0  0  0  0  0
   -6.6850   23.1600  -30.9560 C   0  0  0  0  0  0  0  0  0  0  0  0
   -8.1800   22.3530  -31.4380 S   0  0  0  0  0  0  0  0  0  0  0  0
   -8.7630   21.6400  -30.2490 O   0  0  0  0  0  0  0  0  0  0  0  0
   -9.1760   23.3830  -31.8950 O   0  0  0  0  0  0  0  0  0  0  0  0
   -7.9000   21.2000  -32.7230 N   0  0  0  0  0  0  0  0  0  0  0  0
   -6.4530   20.9270  -32.8610 C   0  0  0  0  0  0  0  0  0  0  0  0
   -6.1840   19.6080  -33.5910 C   0  0  0  0  0  0  0  0  0  0  0  0
   -6.8220   18.4980  -32.8700 N   0  0  0  0  0  0  0  0  0  0  0  0
   -6.2790   17.1630  -32.9650 C   0  0  0  0  0  0  0  0  0  0  0  0
   -5.4660   16.6490  -31.9420 C   0  0  0  0  0  0  0  0  0  0  0  0
   -4.9450   15.3600  -32.0530 C   0  0  0  0  0  0  0  0  0  0  0  0
   -5.2130   14.5860  -33.1900 C   0  0  0  0  0  0  0  0  0  0  0  0
   -4.6990   13.1730  -33.2990 C   0  0  0  0  0  0  0  0  0  0  0  0
   -4.5540   12.6080  -32.0440 F   0  0  0  0  0  0  0  0  0  0  0  0
   -5.5760   12.3890  -34.0280 F   0  0  0  0  0  0  0  0  0  0  0  0
   -3.4700   13.1830  -33.9330 F   0  0  0  0  0  0  0  0  0  0  0  0
   -6.0510   15.1230  -34.1790 C   0  0  0  0  0  0  0  0  0  0  0  0
   -6.5510   16.3830  -34.0530 N   0  0  0  0  0  0  0  0  0  0  0  0
   -7.9940   18.7770  -32.0320 C   0  0  0  0  0  0  0  0  0  0  0  0
   -8.7540   19.9970  -32.5690 C   0  0  0  0  0  0  0  0  0  0  0  0
   -5.6570   22.4330  -30.3420 C   0  0  0  0  0  0  0  0  0  0  0  0
   -4.4820   23.0760  -29.9400 C   0  0  0  0  0  0  0  0  0  0  0  0
   -2.6798   24.7734  -27.7201 H   0  0  0  0  0  0  0  0  0  0  0  0
   -2.2180   23.4253  -28.8138 H   0  0  0  0  0  0  0  0  0  0  0  0
   -1.2655   24.9482  -28.8138 H   0  0  0  0  0  0  0  0  0  0  0  0
   -5.2268   26.2568  -30.9480 H   0  0  0  0  0  0  0  0  0  0  0  0
   -7.3163   25.1075  -31.6723 H   0  0  0  0  0  0  0  0  0  0  0  0
   -5.9895   21.7476  -33.4283 H   0  0  0  0  0  0  0  0  0  0  0  0
   -6.0246   20.8492  -31.8509 H   0  0  0  0  0  0  0  0  0  0  0  0
   -6.5945   19.6648  -34.6100 H   0  0  0  0  0  0  0  0  0  0  0  0
   -5.0988   19.4341  -33.6363 H   0  0  0  0  0  0  0  0  0  0  0  0
   -5.2408   17.2609  -31.0561 H   0  0  0  0  0  0  0  0  0  0  0  0
   -4.3215   14.9495  -31.2451 H   0  0  0  0  0  0  0  0  0  0  0  0
   -6.3061   14.5209  -35.0635 H   0  0  0  0  0  0  0  0  0  0  0  0
   -7.1760   16.7390  -34.8100 H   0  0  0  0  0  0  0  0  0  0  0  0
   -8.6610   17.9023  -32.0381 H   0  0  0  0  0  0  0  0  0  0  0  0
   -7.6583   18.9876  -31.0059 H   0  0  0  0  0  0  0  0  0  0  0  0
   -9.1760   19.7404  -33.5519 H   0  0  0  0  0  0  0  0  0  0  0  0
   -9.5344   20.2437  -31.8341 H   0  0  0  0  0  0  0  0  0  0  0  0
   -5.7745   21.3521  -30.1754 H   0  0  0  0  0  0  0  0  0  0  0  0
   -3.6814   22.4975  -29.4559 H   0  0  0  0  0  0  0  0  0  0  0  0
  1  2  1  0
  2  3  1  0
  3  4  2  0
  4  5  1  0
  5  6  2  0
  6  7  1  0
  7  8  2  0
  7  9  2  0
  7 10  1  0
 10 11  1  0
 11 12  1  0
 12 13  1  0
 13 14  1  0
 14 15  2  0
 15 16  1  0
 16 17  2  0
 17 18  1  0
 18 19  1  0
 18 20  1  0
 18 21  1  0
 17 22  1  0
 22 23  2  0
 13 24  1  0
 24 25  1  0
  6 26  1  0
 26 27  2  0
 27  3  1  0
 25 10  1  0
 23 14  1  0
  1 28  1  0
  1 29  1  0
  1 30  1  0
  4 31  1  0
  5 32  1  0
 11 33  1  0
 11 34  1  0
 12 35  1  0
 12 36  1  0
 15 37  1  0
 16 38  1  0
 22 39  1  0
 23 40  1  0
 24 41  1  0
 24 42  1  0
 25 43  1  0
 25 44  1  0
 26 45  1  0
 27 46  1  0
M  CHG  1  23   1
M  END
>  <UniqueID>  (42) 
40

>  <SMILES>  (42) 
COc1ccc(S(=O)(=O)N2CCN(c3ccc(C(F)(F)F)c[nH+]3)CC2)cc1

>  <Energy>  (42) 
54.467107428846006

>  <Genealogy>  (42) 
COc1ccc(S(=O)(=O)N2CCN(c3ccc(C(F)(F)F)c[nH+]3)CC2)cc1 (protonated)
COc1ccc(S(=O)(=O)N2CCN(c3ccc(C(F)(F)F)c[nH+]3)CC2)cc1 (3D coordinates assigned)
COc1ccc(S(=O)(=O)N2CCN(c3ccc(C(F)(F)F)c[nH+]3)CC2)cc1 (nonaromatic ring conformer: 54.467107428846006 kcal/mol)

>  <smiles>  (42) 
COc1ccc(S(=O)(=O)N2CCN(c3ccc(C(F)(F)F)cn3)CC2)cc1

>  <score_type>  (42) 
oracle

>  <origin>  (42) 
adg

>  <m_score__min__energy>  (42) 
-7.9299999999999997

>  <m_primary>  (42) 
energy

$$$$
42:0
     RDKit          3D

 65 67  0  0  0  0  0  0  0  0999 V2000
   -2.5180   18.0880  -33.9010 C   0  0  0  0  0  0  0  0  0  0  0  0
   -3.2510   16.8640  -34.2710 N   0  0  0  0  0  0  0  0  0  0  0  0
   -2.5300   16.1660  -35.3480 C   0  0  0  0  0  0  0  0  0  0  0  0
   -3.4280   15.9730  -33.1030 C   0  0  0  0  0  0  0  0  0  0  0  0
   -4.8730   15.4450  -33.0140 C   0  0  0  0  0  0  0  0  0  0  0  0
   -5.5850   15.4790  -34.3020 N   0  0  0  0  0  0  0  0  0  0  0  0
   -6.8940   16.1380  -34.2120 C   0  0  0  0  0  0  0  0  0  0  0  0
   -6.7200   17.5110  -33.6260 C   0  0  0  0  0  0  0  0  0  0  0  0
   -7.3460   17.8500  -32.4180 C   0  0  0  0  0  0  0  0  0  0  0  0
   -7.1580   19.1160  -31.8560 C   0  0  0  0  0  0  0  0  0  0  0  0
   -6.3280   20.0610  -32.4850 C   0  0  0  0  0  0  0  0  0  0  0  0
   -6.1270   21.4060  -31.8880 C   0  0  0  0  0  0  0  0  0  0  0  0
   -7.1620   22.3550  -31.8870 C   0  0  0  0  0  0  0  0  0  0  0  0
   -6.9670   23.5820  -31.3400 N   0  0  0  0  0  0  0  0  0  0  0  0
   -5.7850   23.9380  -30.7730 C   0  0  0  0  0  0  0  0  0  0  0  0
   -4.7120   23.0330  -30.7440 C   0  0  0  0  0  0  0  0  0  0  0  0
   -3.4140   23.4100  -30.1270 C   0  0  0  0  0  0  0  0  0  0  0  0
   -2.2630   22.6350  -30.3510 C   0  0  0  0  0  0  0  0  0  0  0  0
   -1.0420   22.9910  -29.7730 C   0  0  0  0  0  0  0  0  0  0  0  0
   -0.9480   24.1360  -28.9580 C   0  0  0  0  0  0  0  0  0  0  0  0
    0.2520   24.5410  -28.3500 O   0  0  0  0  0  0  0  0  0  0  0  0
    0.5140   24.5300  -26.9460 C   0  0  0  0  0  0  0  0  0  0  0  0
    0.1960   25.8970  -26.3280 C   0  0  0  0  0  0  0  0  0  0  0  0
   -0.6260   25.7380  -25.1090 N   0  0  0  0  0  0  0  0  0  0  0  0
   -0.5050   24.3670  -24.5880 C   0  0  0  0  0  0  0  0  0  0  0  0
   -2.0440   26.0300  -25.3880 C   0  0  0  0  0  0  0  0  0  0  0  0
   -2.0940   24.9040  -28.7320 C   0  0  0  0  0  0  0  0  0  0  0  0
   -3.3160   24.5490  -29.3100 C   0  0  0  0  0  0  0  0  0  0  0  0
   -4.8980   21.7600  -31.3080 C   0  0  0  0  0  0  0  0  0  0  0  0
   -5.6870   19.7090  -33.6870 C   0  0  0  0  0  0  0  0  0  0  0  0
   -5.8780   18.4430  -34.2490 C   0  0  0  0  0  0  0  0  0  0  0  0
   -2.4694   18.1691  -32.8051 H   0  0  0  0  0  0  0  0  0  0  0  0
   -1.4982   18.0427  -34.3109 H   0  0  0  0  0  0  0  0  0  0  0  0
   -3.0393   18.9656  -34.3109 H   0  0  0  0  0  0  0  0  0  0  0  0
   -1.8053   15.4644  -34.9093 H   0  0  0  0  0  0  0  0  0  0  0  0
   -3.2477   15.6107  -35.9698 H   0  0  0  0  0  0  0  0  0  0  0  0
   -1.9983   16.9013  -35.9698 H   0  0  0  0  0  0  0  0  0  0  0  0
   -2.7400   15.1197  -33.1960 H   0  0  0  0  0  0  0  0  0  0  0  0
   -3.2128   16.5496  -32.1913 H   0  0  0  0  0  0  0  0  0  0  0  0
   -4.8434   14.4044  -32.6587 H   0  0  0  0  0  0  0  0  0  0  0  0
   -5.4188   16.1034  -32.3222 H   0  0  0  0  0  0  0  0  0  0  0  0
   -5.0000   15.9700  -35.0180 H   0  0  0  0  0  0  0  0  0  0  0  0
   -7.3337   16.2205  -35.2169 H   0  0  0  0  0  0  0  0  0  0  0  0
   -7.5615   15.5451  -33.5694 H   0  0  0  0  0  0  0  0  0  0  0  0
   -7.9885   17.1158  -31.9099 H   0  0  0  0  0  0  0  0  0  0  0  0
   -7.6634   19.3752  -30.9140 H   0  0  0  0  0  0  0  0  0  0  0  0
   -8.1359   22.1028  -32.3318 H   0  0  0  0  0  0  0  0  0  0  0  0
   -5.6680   24.9400  -30.3345 H   0  0  0  0  0  0  0  0  0  0  0  0
   -2.3242   21.7398  -30.9873 H   0  0  0  0  0  0  0  0  0  0  0  0
   -0.1497   22.3741  -29.9552 H   0  0  0  0  0  0  0  0  0  0  0  0
   -0.1116   23.7623  -26.4673 H   0  0  0  0  0  0  0  0  0  0  0  0
    1.5790   24.3067  -26.7853 H   0  0  0  0  0  0  0  0  0  0  0  0
    1.1369   26.4032  -26.0662 H   0  0  0  0  0  0  0  0  0  0  0  0
   -0.3667   26.4951  -27.0599 H   0  0  0  0  0  0  0  0  0  0  0  0
   -0.5071   24.3911  -23.4883 H   0  0  0  0  0  0  0  0  0  0  0  0
   -1.3534   23.7636  -24.9432 H   0  0  0  0  0  0  0  0  0  0  0  0
    0.4360   23.9215  -24.9432 H   0  0  0  0  0  0  0  0  0  0  0  0
   -2.5889   26.1422  -24.4390 H   0  0  0  0  0  0  0  0  0  0  0  0
   -2.1194   26.9625  -25.9666 H   0  0  0  0  0  0  0  0  0  0  0  0
   -2.4817   25.2031  -25.9666 H   0  0  0  0  0  0  0  0  0  0  0  0
   -2.0334   25.7970  -28.0926 H   0  0  0  0  0  0  0  0  0  0  0  0
   -4.2076   25.1658  -29.1240 H   0  0  0  0  0  0  0  0  0  0  0  0
   -4.0726   21.0330  -31.2952 H   0  0  0  0  0  0  0  0  0  0  0  0
   -5.0305   20.4354  -34.1885 H   0  0  0  0  0  0  0  0  0  0  0  0
   -5.3649   18.1768  -35.1849 H   0  0  0  0  0  0  0  0  0  0  0  0
  1  2  1  0
  2  3  1  0
  2  4  1  0
  4  5  1  0
  5  6  1  0
  6  7  1  0
  7  8  1  0
  8  9  2  0
  9 10  1  0
 10 11  2  0
 11 12  1  0
 12 13  2  0
 13 14  1  0
 14 15  2  0
 15 16  1  0
 16 17  1  0
 17 18  2  0
 18 19  1  0
 19 20  2  0
 20 21  1  0
 21 22  1  0
 22 23  1  0
 23 24  1  0
 24 25  1  0
 24 26  1  0
 20 27  1  0
 27 28  2  0
 16 29  2  0
 11 30  1  0
 30 31  2  0
 31  8  1  0
 29 12  1  0
 28 17  1  0
  1 32  1  0
  1 33  1  0
  1 34  1  0
  3 35  1  0
  3 36  1  0
  3 37  1  0
  4 38  1  0
  4 39  1  0
  5 40  1  0
  5 41  1  0
  6 42  1  0
  7 43  1  0
  7 44  1  0
  9 45  1  0
 10 46  1  0
 13 47  1  0
 15 48  1  0
 18 49  1  0
 19 50  1  0
 22 51  1  0
 22 52  1  0
 23 53  1  0
 23 54  1  0
 25 55  1  0
 25 56  1  0
 25 57  1  0
 26 58  1  0
 26 59  1  0
 26 60  1  0
 27 61  1  0
 28 62  1  0
 29 63  1  0
 30 64  1  0
 31 65  1  0
M  END
>  <UniqueID>  (43) 
41

>  <SMILES>  (43) 
CN(C)CCNCc1ccc(-c2cncc(-c3ccc(OCCN(C)C)cc3)c2)cc1

>  <Energy>  (43) 
76.52612738638959

>  <Genealogy>  (43) 
CN(C)CCNCc1ccc(-c2cncc(-c3ccc(OCCN(C)C)cc3)c2)cc1 (3D coordinates assigned)
CN(C)CCNCc1ccc(-c2cncc(-c3ccc(OCCN(C)C)cc3)c2)cc1 (optimized conformer: 76.52612738638959 kcal/mol)

>  <smiles>  (43) 
CN(C)CCNCc1ccc(-c2cncc(-c3ccc(OCCN(C)C)cc3)c2)cc1

>  <score_type>  (43) 
oracle

>  <origin>  (43) 
adg

>  <m_score__min__energy>  (43) 
-8.1500000000000004

>  <m_primary>  (43) 
energy

$$$$
43:0
     RDKit          3D

 27 29  0  0  1  0  0  0  0  0999 V2000
   -2.2180   24.9200  -26.0610 C   0  0  0  0  0  0  0  0  0  0  0  0
   -2.8990   24.6940  -27.3320 C   0  0  0  0  0  0  0  0  0  0  0  0
   -4.2110   24.4710  -27.5870 C   0  0  0  0  0  0  0  0  0  0  0  0
   -4.6070   24.2870  -28.8580 C   0  0  0  0  0  0  0  0  0  0  0  0
   -5.8780   24.0480  -29.3390 N   0  0  0  0  0  0  0  0  0  0  0  0
   -6.0780   23.8920  -30.6400 C   0  0  0  0  0  0  0  0  0  0  0  0
   -7.2890   23.6670  -31.0630 N   0  0  0  0  0  0  0  0  0  0  0  0
   -7.6890   22.4060  -31.5870 C   0  0  0  0  0  0  0  0  0  0  0  0
   -6.7990   21.5140  -32.1570 C   0  0  0  0  0  0  0  0  0  0  0  0
   -7.2750   20.2960  -32.6480 C   0  0  0  0  0  0  0  0  0  0  0  0
   -8.6240   19.9670  -32.5740 C   0  0  0  0  0  0  0  0  0  0  0  0
   -9.4890   20.8810  -31.9990 C   0  0  0  0  0  0  0  0  0  0  0  0
   -9.0310   22.0870  -31.5110 C   0  0  0  0  0  0  0  0  0  0  0  0
   -5.1270   23.9420  -31.5900 N   0  0  0  0  0  0  0  0  0  0  0  0
   -3.8750   24.1740  -31.1560 N   0  0  0  0  0  0  0  0  0  0  0  0
   -3.6480   24.3380  -29.8290 C   0  0  0  0  0  0  0  0  0  0  0  0
   -2.1020   24.6580  -28.9370 S   0  0  0  0  0  0  0  0  0  0  0  0
   -2.9041   24.6923  -25.2319 H   0  0  0  0  0  0  0  0  0  0  0  0
   -1.3355   24.2666  -25.9966 H   0  0  0  0  0  0  0  0  0  0  0  0
   -1.9012   25.9714  -25.9966 H   0  0  0  0  0  0  0  0  0  0  0  0
   -4.9417   24.4410  -26.7653 H   0  0  0  0  0  0  0  0  0  0  0  0
   -6.7000   23.9860  -28.7070 H   0  0  0  0  0  0  0  0  0  0  0  0
   -5.7291   21.7607  -32.2229 H   0  0  0  0  0  0  0  0  0  0  0  0
   -6.5697   19.5840  -33.1015 H   0  0  0  0  0  0  0  0  0  0  0  0
   -8.9934   19.0063  -32.9620 H   0  0  0  0  0  0  0  0  0  0  0  0
  -10.5604   20.6417  -31.9299 H   0  0  0  0  0  0  0  0  0  0  0  0
   -9.7378   22.7984  -31.0590 H   0  0  0  0  0  0  0  0  0  0  0  0
  1  2  1  0
  2  3  2  0
  3  4  1  0
  4  5  1  0
  5  6  1  0
  6  7  2  0
  7  8  1  0
  8  9  2  0
  9 10  1  0
 10 11  2  0
 11 12  1  0
 12 13  2  0
  6 14  1  0
 14 15  2  0
 15 16  1  0
 16 17  1  0
 17  2  1  0
 16  4  2  0
 13  8  1  0
  1 18  1  0
  1 19  1  0
  1 20  1  0
  3 21  1  0
  5 22  1  0
  9 23  1  0
 10 24  1  0
 11 25  1  0
 12 26  1  0
 13 27  1  0
M  END
>  <smiles>  (44) 
Cc1cc2[nH]c(=Nc3ccccc3)nnc2s1

>  <score_type>  (44) 
oracle

>  <origin>  (44) 
adg

>  <m_score__min__energy>  (44) 
-7.79

>  <m_primary>  (44) 
energy

$$$$
44:0
     RDKit          3D

 34 35  0  0  0  0  0  0  0  0999 V2000
   -8.8040   23.3670  -32.0900 C   0  0  0  0  0  0  0  0  0  0  0  0
   -7.6070   23.7270  -31.2170 C   0  0  0  0  0  0  0  0  0  0  0  0
   -6.7000   22.5800  -31.0910 N   0  0  0  0  0  0  0  0  0  0  0  0
   -5.6240   22.5860  -30.0930 C   0  0  0  0  0  0  0  0  0  0  0  0
   -4.9970   23.9710  -29.9660 C   0  0  0  0  0  0  0  0  0  0  0  0
   -7.0430   21.3500  -31.7420 C   0  0  0  0  0  0  0  0  0  0  0  0
   -7.9700   20.5930  -31.2300 N   0  0  0  0  0  0  0  0  0  0  0  0
   -8.5090   19.1150  -31.9610 S   0  0  0  0  0  0  0  0  0  0  0  0
   -8.9440   18.1750  -30.8720 O   0  0  0  0  0  0  0  0  0  0  0  0
   -9.6650   19.3990  -32.8760 O   0  0  0  0  0  0  0  0  0  0  0  0
   -7.2010   18.3750  -32.8740 C   0  0  0  0  0  0  0  0  0  0  0  0
   -7.1780   16.9850  -33.0630 C   0  0  0  0  0  0  0  0  0  0  0  0
   -6.1560   16.3940  -33.8120 C   0  0  0  0  0  0  0  0  0  0  0  0
   -6.1370   15.0490  -33.9890 F   0  0  0  0  0  0  0  0  0  0  0  0
   -5.1580   17.1870  -34.3810 C   0  0  0  0  0  0  0  0  0  0  0  0
   -5.1800   18.5730  -34.2030 C   0  0  0  0  0  0  0  0  0  0  0  0
   -6.1970   19.1720  -33.4460 C   0  0  0  0  0  0  0  0  0  0  0  0
   -6.2180   20.9180  -33.2400 S   0  0  0  0  0  0  0  0  0  0  0  0
   -4.6300   21.4650  -33.1530 O   0  0  0  0  0  0  0  0  0  0  0  0
   -9.6605   23.1094  -31.4497 H   0  0  0  0  0  0  0  0  0  0  0  0
   -9.0662   24.2260  -32.7251 H   0  0  0  0  0  0  0  0  0  0  0  0
   -8.5489   22.5058  -32.7251 H   0  0  0  0  0  0  0  0  0  0  0  0
   -7.0655   24.5684  -31.6740 H   0  0  0  0  0  0  0  0  0  0  0  0
   -7.9676   24.0073  -30.2163 H   0  0  0  0  0  0  0  0  0  0  0  0
   -6.0373   22.2885  -29.1180 H   0  0  0  0  0  0  0  0  0  0  0  0
   -4.8453   21.8794  -30.4161 H   0  0  0  0  0  0  0  0  0  0  0  0
   -4.8819   24.2252  -28.9020 H   0  0  0  0  0  0  0  0  0  0  0  0
   -4.0103   23.9728  -30.4522 H   0  0  0  0  0  0  0  0  0  0  0  0
   -5.6467   24.7136  -30.4522 H   0  0  0  0  0  0  0  0  0  0  0  0
   -8.4360   20.8840  -30.3420 H   0  0  0  0  0  0  0  0  0  0  0  0
   -7.9664   16.3583  -32.6206 H   0  0  0  0  0  0  0  0  0  0  0  0
   -4.3541   16.7209  -34.9696 H   0  0  0  0  0  0  0  0  0  0  0  0
   -4.3965   19.1964  -34.6585 H   0  0  0  0  0  0  0  0  0  0  0  0
   -4.5630   22.1700  -33.8450 H   0  0  0  0  0  0  0  0  0  0  0  0
  1  2  1  0
  2  3  1  0
  3  4  1  0
  4  5  1  0
  3  6  1  0
  6  7  2  0
  7  8  1  0
  8  9  2  0
  8 10  2  0
  8 11  1  0
 11 12  2  0
 12 13  1  0
 13 14  1  0
 13 15  2  0
 15 16  1  0
 16 17  2  0
 17 18  1  0
 18 19  1  1
 18  6  1  0
 17 11  1  0
  1 20  1  0
  1 21  1  0
  1 22  1  0
  2 23  1  0
  2 24  1  0
  4 25  1  0
  4 26  1  0
  5 27  1  0
  5 28  1  0
  5 29  1  0
  7 30  1  0
 12 31  1  0
 15 32  1  0
 16 33  1  0
 19 34  1  0
M  CHG  2   7   1  18   1
M  END
>  <UniqueID>  (45) 
42

>  <SMILES>  (45) 
CCN(CC)C1=[NH+]S(=O)(=O)c2cc(F)ccc2[S@+]1O

>  <Energy>  (45) 
45.33654907352404

>  <Genealogy>  (45) 
CCN(CC)C1=[NH+]S(=O)(=O)c2cc(F)ccc2[S+]1O (protonated)
CCN(CC)C1=[NH+]S(=O)(=O)c2cc(F)ccc2[S@+]1O (chirality)
CCN(CC)C1=[NH+]S(=O)(=O)c2cc(F)ccc2[S@+]1O (3D coordinates assigned)
CCN(CC)C1=[NH+]S(=O)(=O)c2cc(F)ccc2[S@+]1O (nonaromatic ring conformer: 45.33654907352404 kcal/mol)

>  <smiles>  (45) 
CCN(CC)C1=NS(=O)(=O)c2cc(F)ccc2[S+]1[O-]

>  <score_type>  (45) 
oracle

>  <origin>  (45) 
adg

>  <m_score__min__energy>  (45) 
-6.1500000000000004

>  <m_primary>  (45) 
energy

$$$$
45:0
     RDKit          3D

 60 64  0  0  0  0  0  0  0  0999 V2000
   -9.5370   20.7990  -32.0950 C   0  0  0  0  0  0  0  0  0  0  0  0
   -8.2070   21.4600  -31.8890 C   0  0  0  0  0  0  0  0  0  0  0  0
   -7.0760   20.9630  -32.5380 C   0  0  0  0  0  0  0  0  0  0  0  0
   -5.8330   21.6000  -32.4040 C   0  0  0  0  0  0  0  0  0  0  0  0
   -4.6670   21.0460  -33.2180 C   0  0  0  0  0  0  0  0  0  0  0  0
   -4.7210   19.5780  -33.4300 N   0  0  0  0  0  0  0  0  0  0  0  0
   -5.7130   19.1730  -34.4450 C   0  0  0  0  0  0  0  0  0  0  0  0
   -5.2070   18.0020  -35.3140 C   0  0  0  0  0  0  0  0  0  0  0  0
   -5.3800   16.6160  -34.6510 C   0  0  0  0  0  0  0  0  0  0  0  0
   -5.0220   16.5330  -33.2000 N   0  0  0  0  0  0  0  0  0  0  0  0
   -5.2150   15.1630  -32.6730 C   0  0  0  0  0  0  0  0  0  0  0  0
   -3.8840   14.5200  -32.3830 C   0  0  0  0  0  0  0  0  0  0  0  0
   -3.8050   13.3450  -31.6130 C   0  0  0  0  0  0  0  0  0  0  0  0
   -2.5640   12.7500  -31.3580 C   0  0  0  0  0  0  0  0  0  0  0  0
   -1.3980   13.3250  -31.8690 C   0  0  0  0  0  0  0  0  0  0  0  0
   -1.4680   14.5090  -32.6130 C   0  0  0  0  0  0  0  0  0  0  0  0
   -2.7070   15.0960  -32.8860 C   0  0  0  0  0  0  0  0  0  0  0  0
   -0.2850   15.0930  -33.0730 O   0  0  0  0  0  0  0  0  0  0  0  0
    0.9850   14.6760  -32.5670 C   0  0  0  0  0  0  0  0  0  0  0  0
    1.0080   13.1540  -32.3740 C   0  0  0  0  0  0  0  0  0  0  0  0
   -0.1500   12.7330  -31.6460 O   0  0  0  0  0  0  0  0  0  0  0  0
   -5.6710   17.5270  -32.3120 C   0  0  0  0  0  0  0  0  0  0  0  0
   -4.8520   18.8240  -32.1670 C   0  0  0  0  0  0  0  0  0  0  0  0
   -5.7380   22.7300  -31.5460 C   0  0  0  0  0  0  0  0  0  0  0  0
   -4.5160   23.3750  -31.2530 C   0  0  0  0  0  0  0  0  0  0  0  0
   -4.4830   24.5030  -30.4290 C   0  0  0  0  0  0  0  0  0  0  0  0
   -5.6590   25.0010  -29.8710 C   0  0  0  0  0  0  0  0  0  0  0  0
   -6.8720   24.3620  -30.1170 C   0  0  0  0  0  0  0  0  0  0  0  0
   -6.9240   23.2230  -30.9350 C   0  0  0  0  0  0  0  0  0  0  0  0
   -8.1150   22.5890  -31.1340 N   0  0  0  0  0  0  0  0  0  0  0  0
   -9.9898   20.5739  -31.1181 H   0  0  0  0  0  0  0  0  0  0  0  0
  -10.1982   21.4734  -32.6590 H   0  0  0  0  0  0  0  0  0  0  0  0
   -9.3987   19.8648  -32.6590 H   0  0  0  0  0  0  0  0  0  0  0  0
   -7.1599   20.0611  -33.1621 H   0  0  0  0  0  0  0  0  0  0  0  0
   -4.6679   21.5376  -34.2020 H   0  0  0  0  0  0  0  0  0  0  0  0
   -3.7521   21.2505  -32.6425 H   0  0  0  0  0  0  0  0  0  0  0  0
   -6.6368   18.8630  -33.9347 H   0  0  0  0  0  0  0  0  0  0  0  0
   -5.8928   20.0335  -35.1062 H   0  0  0  0  0  0  0  0  0  0  0  0
   -5.7658   18.0059  -36.2615 H   0  0  0  0  0  0  0  0  0  0  0  0
   -4.1278   18.1548  -35.4626 H   0  0  0  0  0  0  0  0  0  0  0  0
   -6.4352   16.3228  -34.7545 H   0  0  0  0  0  0  0  0  0  0  0  0
   -4.6745   15.9496  -35.1689 H   0  0  0  0  0  0  0  0  0  0  0  0
   -5.8042   15.2111  -31.7453 H   0  0  0  0  0  0  0  0  0  0  0  0
   -5.7451   14.5621  -33.4265 H   0  0  0  0  0  0  0  0  0  0  0  0
   -4.7226   12.8920  -31.2096 H   0  0  0  0  0  0  0  0  0  0  0  0
   -2.5070   11.8310  -30.7561 H   0  0  0  0  0  0  0  0  0  0  0  0
   -2.7596   16.0101  -33.4956 H   0  0  0  0  0  0  0  0  0  0  0  0
    1.7718   14.9632  -33.2801 H   0  0  0  0  0  0  0  0  0  0  0  0
    1.1604   15.1624  -31.5961 H   0  0  0  0  0  0  0  0  0  0  0  0
    1.0176   12.6626  -33.3581 H   0  0  0  0  0  0  0  0  0  0  0  0
    1.9096   12.8764  -31.8082 H   0  0  0  0  0  0  0  0  0  0  0  0
   -6.6574   17.7791  -32.7286 H   0  0  0  0  0  0  0  0  0  0  0  0
   -5.7531   17.0742  -31.3129 H   0  0  0  0  0  0  0  0  0  0  0  0
   -5.3473   19.4684  -31.4258 H   0  0  0  0  0  0  0  0  0  0  0  0
   -3.8378   18.5349  -31.8542 H   0  0  0  0  0  0  0  0  0  0  0  0
   -3.5796   22.9848  -31.6784 H   0  0  0  0  0  0  0  0  0  0  0  0
   -3.5244   25.0003  -30.2198 H   0  0  0  0  0  0  0  0  0  0  0  0
   -5.6293   25.8989  -29.2362 H   0  0  0  0  0  0  0  0  0  0  0  0
   -7.7962   24.7532  -29.6666 H   0  0  0  0  0  0  0  0  0  0  0  0
   -8.9800   22.9680  -30.6860 H   0  0  0  0  0  0  0  0  0  0  0  0
  1  2  1  0
  2  3  2  0
  3  4  1  0
  4  5  1  0
  5  6  1  0
  6  7  1  0
  7  8  1  0
  8  9  1  0
  9 10  1  0
 10 11  1  0
 11 12  1  0
 12 13  2  0
 13 14  1  0
 14 15  2  0
 15 16  1  0
 16 17  2  0
 16 18  1  0
 18 19  1  0
 19 20  1  0
 20 21  1  0
 10 22  1  0
 22 23  1  0
  4 24  2  0
 24 25  1  0
 25 26  2  0
 26 27  1  0
 27 28  2  0
 28 29  1  0
 29 30  2  0
 30  2  1  0
 23  6  1  0
 29 24  1  0
 17 12  1  0
 21 15  1  0
  1 31  1  0
  1 32  1  0
  1 33  1  0
  3 34  1  0
  5 35  1  0
  5 36  1  0
  7 37  1  0
  7 38  1  0
  8 39  1  0
  8 40  1  0
  9 41  1  0
  9 42  1  0
 11 43  1  0
 11 44  1  0
 13 45  1  0
 14 46  1  0
 17 47  1  0
 19 48  1  0
 19 49  1  0
 20 50  1  0
 20 51  1  0
 22 52  1  0
 22 53  1  0
 23 54  1  0
 23 55  1  0
 25 56  1  0
 26 57  1  0
 27 58  1  0
 28 59  1  0
 30 60  1  0
M  CHG  1  30   1
M  END
>  <UniqueID>  (46) 
43

>  <SMILES>  (46) 
Cc1cc(CN2CCCN(Cc3ccc4c(c3)OCCO4)CC2)c2ccccc2[nH+]1

>  <Energy>  (46) 
92.66704439973805

>  <Genealogy>  (46) 
Cc1cc(CN2CCCN(Cc3ccc4c(c3)OCCO4)CC2)c2ccccc2[nH+]1 (protonated)
Cc1cc(CN2CCCN(Cc3ccc4c(c3)OCCO4)CC2)c2ccccc2[nH+]1 (3D coordinates assigned)
Cc1cc(CN2CCCN(Cc3ccc4c(c3)OCCO4)CC2)c2ccccc2[nH+]1 (nonaromatic ring conformer: 92.66704439973805 kcal/mol)

>  <smiles>  (46) 
Cc1cc(CN2CCCN(Cc3ccc4c(c3)OCCO4)CC2)c2ccccc2n1

>  <score_type>  (46) 
oracle

>  <origin>  (46) 
adg

>  <m_score__min__energy>  (46) 
-7.4199999999999999

>  <m_primary>  (46) 
energy

$$$$
46:0
     RDKit          3D

 33 35  0  0  0  0  0  0  0  0999 V2000
   -2.7210   24.5010  -29.3450 C   0  0  0  0  0  0  0  0  0  0  0  0
   -3.5640   24.8140  -30.4490 O   0  0  0  0  0  0  0  0  0  0  0  0
   -4.8010   24.2010  -30.7060 C   0  0  0  0  0  0  0  0  0  0  0  0
   -6.0170   24.7880  -30.3080 C   0  0  0  0  0  0  0  0  0  0  0  0
   -7.2290   24.1620  -30.5970 C   0  0  0  0  0  0  0  0  0  0  0  0
   -7.2460   22.9430  -31.2730 C   0  0  0  0  0  0  0  0  0  0  0  0
   -6.0460   22.3270  -31.6630 C   0  0  0  0  0  0  0  0  0  0  0  0
   -6.1090   21.0210  -32.3560 C   0  0  0  0  0  0  0  0  0  0  0  0
   -6.7230   19.8710  -31.8720 C   0  0  0  0  0  0  0  0  0  0  0  0
   -6.5070   18.8970  -32.7700 N   0  0  0  0  0  0  0  0  0  0  0  0
   -6.8940   17.5970  -32.7540 C   0  0  0  0  0  0  0  0  0  0  0  0
   -6.5170   16.7760  -33.8360 C   0  0  0  0  0  0  0  0  0  0  0  0
   -6.8830   15.3230  -33.8490 C   0  0  0  0  0  0  0  0  0  0  0  0
   -5.7310   17.3280  -34.8740 C   0  0  0  0  0  0  0  0  0  0  0  0
   -5.3550   18.6810  -34.8420 C   0  0  0  0  0  0  0  0  0  0  0  0
   -5.7750   19.4420  -33.7560 C   0  0  0  0  0  0  0  0  0  0  0  0
   -5.5060   20.7430  -33.5370 N   0  0  0  0  0  0  0  0  0  0  0  0
   -4.8180   22.9710  -31.3880 C   0  0  0  0  0  0  0  0  0  0  0  0
   -3.2850   22.3070  -31.9590 Cl  0  0  0  0  0  0  0  0  0  0  0  0
   -3.2577   24.7003  -28.4057 H   0  0  0  0  0  0  0  0  0  0  0  0
   -2.4396   23.4385  -29.3882 H   0  0  0  0  0  0  0  0  0  0  0  0
   -1.8144   25.1224  -29.3882 H   0  0  0  0  0  0  0  0  0  0  0  0
   -6.0111   25.7453  -29.7663 H   0  0  0  0  0  0  0  0  0  0  0  0
   -8.1752   24.6318  -30.2904 H   0  0  0  0  0  0  0  0  0  0  0  0
   -8.2071   22.4598  -31.5027 H   0  0  0  0  0  0  0  0  0  0  0  0
   -7.2816   19.7770  -30.9290 H   0  0  0  0  0  0  0  0  0  0  0  0
   -7.4862   17.1943  -31.9190 H   0  0  0  0  0  0  0  0  0  0  0  0
   -6.9748   14.9587  -32.8151 H   0  0  0  0  0  0  0  0  0  0  0  0
   -7.8424   15.1912  -34.3707 H   0  0  0  0  0  0  0  0  0  0  0  0
   -6.1005   14.7524  -34.3707 H   0  0  0  0  0  0  0  0  0  0  0  0
   -5.4115   16.6927  -35.7132 H   0  0  0  0  0  0  0  0  0  0  0  0
   -4.7499   19.1231  -35.6472 H   0  0  0  0  0  0  0  0  0  0  0  0
   -4.9200   21.3740  -34.1270 H   0  0  0  0  0  0  0  0  0  0  0  0
  1  2  1  0
  2  3  1  0
  3  4  2  0
  4  5  1  0
  5  6  2  0
  6  7  1  0
  7  8  1  0
  8  9  2  0
  9 10  1  0
 10 11  1  0
 11 12  2  0
 12 13  1  0
 12 14  1  0
 14 15  2  0
 15 16  1  0
 16 17  2  0
  7 18  2  0
 18 19  1  0
 18  3  1  0
 17  8  1  0
 16 10  1  0
  1 20  1  0
  1 21  1  0
  1 22  1  0
  4 23  1  0
  5 24  1  0
  6 25  1  0
  9 26  1  0
 11 27  1  0
 13 28  1  0
 13 29  1  0
 13 30  1  0
 14 31  1  0
 15 32  1  0
 17 33  1  0
M  CHG  1  17   1
M  END
>  <UniqueID>  (47) 
44

>  <SMILES>  (47) 
COc1cccc(-c2cn3cc(C)ccc3[nH+]2)c1Cl

>  <Energy>  (47) 
76.14750609238327

>  <Genealogy>  (47) 
COc1cccc(-c2cn3cc(C)ccc3[nH+]2)c1Cl (protonated)
COc1cccc(-c2cn3cc(C)ccc3[nH+]2)c1Cl (3D coordinates assigned)
COc1cccc(-c2cn3cc(C)ccc3[nH+]2)c1Cl (optimized conformer: 76.14750609238327 kcal/mol)

>  <smiles>  (47) 
COc1cccc(-c2cn3cc(C)ccc3n2)c1Cl

>  <score_type>  (47) 
oracle

>  <origin>  (47) 
adg

>  <m_score__min__energy>  (47) 
-7.2800000000000002

>  <m_primary>  (47) 
energy

$$$$
47:0
     RDKit          3D

 34 34  0  0  0  0  0  0  0  0999 V2000
    0.8610   23.9780  -27.2840 C   0  0  0  0  0  0  0  0  0  0  0  0
    0.4690   25.1580  -27.9770 O   0  0  0  0  0  0  0  0  0  0  0  0
   -0.8650   25.5580  -28.0860 C   0  0  0  0  0  0  0  0  0  0  0  0
   -1.2170   26.3910  -28.9650 O   0  0  0  0  0  0  0  0  0  0  0  0
   -1.8770   25.0080  -27.1330 C   0  0  0  0  0  0  0  0  0  0  0  0
   -3.0530   24.5420  -27.8620 N   0  0  0  0  0  0  0  0  0  0  0  0
   -3.4100   23.1540  -27.9380 C   0  0  0  0  0  0  0  0  0  0  0  0
   -2.7280   22.2860  -27.3280 O   0  0  0  0  0  0  0  0  0  0  0  0
   -4.6230   22.7350  -28.7020 C   0  0  0  0  0  0  0  0  0  0  0  0
   -5.3230   23.9190  -29.1810 N   0  0  0  0  0  0  0  0  0  0  0  0
   -5.0250   24.6070  -30.4020 C   0  0  0  0  0  0  0  0  0  0  0  0
   -3.9660   25.2860  -30.4710 O   0  0  0  0  0  0  0  0  0  0  0  0
   -5.9470   24.5670  -31.5900 C   0  0  0  0  0  0  0  0  0  0  0  0
   -6.5870   23.2110  -31.7320 C   0  0  0  0  0  0  0  0  0  0  0  0
   -7.9700   23.0570  -31.5300 C   0  0  0  0  0  0  0  0  0  0  0  0
   -8.5670   21.8000  -31.6630 C   0  0  0  0  0  0  0  0  0  0  0  0
   -7.7910   20.6880  -32.0030 C   0  0  0  0  0  0  0  0  0  0  0  0
   -6.4170   20.8330  -32.2140 C   0  0  0  0  0  0  0  0  0  0  0  0
   -5.8160   22.0890  -32.0820 C   0  0  0  0  0  0  0  0  0  0  0  0
    0.8028   24.1532  -26.1996 H   0  0  0  0  0  0  0  0  0  0  0  0
    0.1892   23.1513  -27.5584 H   0  0  0  0  0  0  0  0  0  0  0  0
    1.8939   23.7176  -27.5584 H   0  0  0  0  0  0  0  0  0  0  0  0
   -1.4353   24.1664  -26.5793 H   0  0  0  0  0  0  0  0  0  0  0  0
   -2.1790   25.8004  -26.4323 H   0  0  0  0  0  0  0  0  0  0  0  0
   -3.6650   25.2480  -28.3290 H   0  0  0  0  0  0  0  0  0  0  0  0
   -4.3214   22.1146  -29.5589 H   0  0  0  0  0  0  0  0  0  0  0  0
   -5.2883   22.1534  -28.0470 H   0  0  0  0  0  0  0  0  0  0  0  0
   -6.7341   25.3243  -31.4599 H   0  0  0  0  0  0  0  0  0  0  0  0
   -5.3592   24.7734  -32.4966 H   0  0  0  0  0  0  0  0  0  0  0  0
   -8.5851   23.9299  -31.2660 H   0  0  0  0  0  0  0  0  0  0  0  0
   -9.6488   21.6857  -31.4999 H   0  0  0  0  0  0  0  0  0  0  0  0
   -8.2617   19.6990  -32.1045 H   0  0  0  0  0  0  0  0  0  0  0  0
   -5.8075   19.9581  -32.4842 H   0  0  0  0  0  0  0  0  0  0  0  0
   -4.7350   22.1993  -32.2529 H   0  0  0  0  0  0  0  0  0  0  0  0
  1  2  1  0
  2  3  1  0
  3  4  2  0
  3  5  1  0
  5  6  1  0
  6  7  1  0
  7  8  2  0
  7  9  1  0
  9 10  1  0
 10 11  1  0
 11 12  2  0
 11 13  1  0
 13 14  1  0
 14 15  2  0
 15 16  1  0
 16 17  2  0
 17 18  1  0
 18 19  2  0
 19 14  1  0
  1 20  1  0
  1 21  1  0
  1 22  1  0
  5 23  1  0
  5 24  1  0
  6 25  1  0
  9 26  1  0
  9 27  1  0
 13 28  1  0
 13 29  1  0
 15 30  1  0
 16 31  1  0
 17 32  1  0
 18 33  1  0
 19 34  1  0
M  CHG  1  10  -1
M  END
>  <UniqueID>  (48) 
45

>  <SMILES>  (48) 
COC(=O)CNC(=O)C[N-]C(=O)Cc1ccccc1

>  <Energy>  (48) 
21.42575891959984

>  <Genealogy>  (48) 
COC(=O)CNC(=O)C[N-]C(=O)Cc1ccccc1 (protonated)
COC(=O)CNC(=O)C[N-]C(=O)Cc1ccccc1 (3D coordinates assigned)
COC(=O)CNC(=O)C[N-]C(=O)Cc1ccccc1 (optimized conformer: 21.42575891959984 kcal/mol)

>  <smiles>  (48) 
COC(=O)CNC(=O)CNC(=O)Cc1ccccc1

>  <score_type>  (48) 
oracle

>  <origin>  (48) 
adg

>  <m_score__min__energy>  (48) 
-7.54

>  <m_primary>  (48) 
energy

$$$$
48:0
     RDKit          3D

 50 53  0  0  0  0  0  0  0  0999 V2000
    1.2060   23.7640  -26.9780 C   0  0  0  0  0  0  0  0  0  0  0  0
    0.6670   24.2770  -28.1920 O   0  0  0  0  0  0  0  0  0  0  0  0
   -0.3260   23.6390  -28.9540 C   0  0  0  0  0  0  0  0  0  0  0  0
   -0.2190   22.2910  -29.3440 C   0  0  0  0  0  0  0  0  0  0  0  0
   -1.2330   21.6880  -30.0890 C   0  0  0  0  0  0  0  0  0  0  0  0
   -2.3740   22.4140  -30.4540 C   0  0  0  0  0  0  0  0  0  0  0  0
   -3.4450   21.7570  -31.2400 C   0  0  0  0  0  0  0  0  0  0  0  0
   -4.7360   22.0940  -30.9720 N   0  0  0  0  0  0  0  0  0  0  0  0
   -5.7800   21.4920  -31.5980 C   0  0  0  0  0  0  0  0  0  0  0  0
   -7.0960   21.8550  -31.2980 C   0  0  0  0  0  0  0  0  0  0  0  0
   -8.1720   21.2060  -31.9320 C   0  0  0  0  0  0  0  0  0  0  0  0
   -9.5920   21.6280  -31.6480 C   0  0  0  0  0  0  0  0  0  0  0  0
   -9.8050   22.9330  -32.0590 F   0  0  0  0  0  0  0  0  0  0  0  0
  -10.4580   20.7940  -32.3290 F   0  0  0  0  0  0  0  0  0  0  0  0
   -9.8640   21.5520  -30.2940 F   0  0  0  0  0  0  0  0  0  0  0  0
   -7.9040   20.2200  -32.9010 C   0  0  0  0  0  0  0  0  0  0  0  0
   -6.5860   19.8580  -33.2010 C   0  0  0  0  0  0  0  0  0  0  0  0
   -5.5230   20.4890  -32.5480 C   0  0  0  0  0  0  0  0  0  0  0  0
   -4.2400   20.1600  -32.8380 N   0  0  0  0  0  0  0  0  0  0  0  0
   -3.1870   20.7710  -32.2280 C   0  0  0  0  0  0  0  0  0  0  0  0
   -1.8200   20.3960  -32.6560 C   0  0  0  0  0  0  0  0  0  0  0  0
   -1.2530   19.1950  -32.2050 C   0  0  0  0  0  0  0  0  0  0  0  0
    0.0450   18.8400  -32.5850 C   0  0  0  0  0  0  0  0  0  0  0  0
    0.7840   19.6700  -33.4410 C   0  0  0  0  0  0  0  0  0  0  0  0
    2.1940   19.3150  -33.8070 C   0  0  0  0  0  0  0  0  0  0  0  0
    0.2150   20.8680  -33.8990 C   0  0  0  0  0  0  0  0  0  0  0  0
   -1.0840   21.2220  -33.5220 C   0  0  0  0  0  0  0  0  0  0  0  0
   -2.4660   23.7690  -30.0970 C   0  0  0  0  0  0  0  0  0  0  0  0
   -1.4570   24.3800  -29.3280 C   0  0  0  0  0  0  0  0  0  0  0  0
   -1.5450   25.7200  -28.9170 O   0  0  0  0  0  0  0  0  0  0  0  0
   -1.2360   26.1810  -27.6050 C   0  0  0  0  0  0  0  0  0  0  0  0
    0.7043   24.2415  -26.1234 H   0  0  0  0  0  0  0  0  0  0  0  0
    1.0458   22.6765  -26.9364 H   0  0  0  0  0  0  0  0  0  0  0  0
    2.2842   23.9777  -26.9364 H   0  0  0  0  0  0  0  0  0  0  0  0
    0.6700   21.7089  -29.0596 H   0  0  0  0  0  0  0  0  0  0  0  0
   -1.1357   20.6350  -30.3919 H   0  0  0  0  0  0  0  0  0  0  0  0
   -7.2914   22.6506  -30.5639 H   0  0  0  0  0  0  0  0  0  0  0  0
   -8.7373   19.7305  -33.4263 H   0  0  0  0  0  0  0  0  0  0  0  0
   -6.3865   19.0775  -33.9501 H   0  0  0  0  0  0  0  0  0  0  0  0
   -1.8325   18.5289  -31.5489 H   0  0  0  0  0  0  0  0  0  0  0  0
    0.4887   17.9055  -32.2109 H   0  0  0  0  0  0  0  0  0  0  0  0
    2.7843   19.1664  -32.8908 H   0  0  0  0  0  0  0  0  0  0  0  0
    2.1968   18.3881  -34.3994 H   0  0  0  0  0  0  0  0  0  0  0  0
    2.6354   20.1301  -34.3994 H   0  0  0  0  0  0  0  0  0  0  0  0
    0.7938   21.5320  -34.5579 H   0  0  0  0  0  0  0  0  0  0  0  0
   -1.5316   22.1510  -33.9050 H   0  0  0  0  0  0  0  0  0  0  0  0
   -3.3355   24.3594  -30.4215 H   0  0  0  0  0  0  0  0  0  0  0  0
   -1.6883   25.5062  -26.8633 H   0  0  0  0  0  0  0  0  0  0  0  0
   -0.1445   26.1963  -27.4693 H   0  0  0  0  0  0  0  0  0  0  0  0
   -1.6366   27.1964  -27.4693 H   0  0  0  0  0  0  0  0  0  0  0  0
  1  2  1  0
  2  3  1  0
  3  4  2  0
  4  5  1  0
  5  6  2  0
  6  7  1  0
  7  8  2  0
  8  9  1  0
  9 10  2  0
 10 11  1  0
 11 12  1  0
 12 13  1  0
 12 14  1  0
 12 15  1  0
 11 16  2  0
 16 17  1  0
 17 18  2  0
 18 19  1  0
 19 20  2  0
 20 21  1  0
 21 22  2  0
 22 23  1  0
 23 24  2  0
 24 25  1  0
 24 26  1  0
 26 27  2  0
  6 28  1  0
 28 29  2  0
 29 30  1  0
 30 31  1  0
 29  3  1  0
 20  7  1  0
 27 21  1  0
 18  9  1  0
  1 32  1  0
  1 33  1  0
  1 34  1  0
  4 35  1  0
  5 36  1  0
 10 37  1  0
 16 38  1  0
 17 39  1  0
 22 40  1  0
 23 41  1  0
 25 42  1  0
 25 43  1  0
 25 44  1  0
 26 45  1  0
 27 46  1  0
 28 47  1  0
 31 48  1  0
 31 49  1  0
 31 50  1  0
M  END
>  <UniqueID>  (49) 
46

>  <SMILES>  (49) 
COc1ccc(-c2nc3cc(C(F)(F)F)ccc3nc2-c2ccc(C)cc2)cc1OC

>  <Energy>  (49) 
67.29471926095857

>  <Genealogy>  (49) 
COc1ccc(-c2nc3cc(C(F)(F)F)ccc3nc2-c2ccc(C)cc2)cc1OC (3D coordinates assigned)
COc1ccc(-c2nc3cc(C(F)(F)F)ccc3nc2-c2ccc(C)cc2)cc1OC (optimized conformer: 67.29471926095857 kcal/mol)

>  <smiles>  (49) 
COc1ccc(-c2nc3cc(C(F)(F)F)ccc3nc2-c2ccc(C)cc2)cc1OC

>  <score_type>  (49) 
oracle

>  <origin>  (49) 
adg

>  <m_score__min__energy>  (49) 
-8.2200000000000006

>  <m_primary>  (49) 
energy

$$$$
