0:0
     RDKit          3D

 61 62  0  0  1  0  0  0  0  0999 V2000
   -0.8240   23.0490  -28.0560 C   0  0  0  0  0  0  0  0  0  0  0  0
   -0.7130   24.1330  -29.0750 C   0  0  0  0  0  0  0  0  0  0  0  0
   -1.7030   25.2390  -28.7800 N   0  0  0  0  0  0  0  0  0  0  0  0
   -1.3170   25.5930  -27.4150 C   0  0  0  0  0  0  0  0  0  0  0  0
   -2.3440   25.4870  -26.3680 C   0  0  0  0  0  0  0  0  0  0  0  0
   -2.9600   24.5630  -28.8290 C   0  0  0  0  0  0  0  0  0  0  0  0
   -3.5210   24.2960  -30.1790 C   0  0  0  0  0  0  0  0  0  0  0  0
   -4.2370   25.3080  -30.7590 O   0  0  0  0  0  0  0  0  0  0  0  0
   -5.4530   25.6270  -30.2540 C   0  0  0  0  0  0  0  0  0  0  0  0
   -6.1320   24.3640  -29.6930 C   0  0  0  0  0  0  0  0  0  0  0  0
   -6.6550   23.5680  -30.7040 O   0  0  0  0  0  0  0  0  0  0  0  0
   -5.9480   22.9540  -31.7280 C   0  0  0  0  0  0  0  0  0  0  0  0
   -5.6010   23.6200  -32.7360 O   0  0  0  0  0  0  0  0  0  0  0  0
   -5.6420   21.5100  -31.5590 C   0  0  2  0  0  0  0  0  0  0  0  0
   -4.2440   21.2820  -31.9500 C   0  0  0  0  0  0  0  0  0  0  0  0
   -3.9070   21.2050  -33.3060 C   0  0  0  0  0  0  0  0  0  0  0  0
   -2.6230   20.9910  -33.7360 C   0  0  0  0  0  0  0  0  0  0  0  0
   -1.5930   20.8400  -32.8310 C   0  0  0  0  0  0  0  0  0  0  0  0
    0.0460   20.5690  -33.3740 Cl  0  0  0  0  0  0  0  0  0  0  0  0
   -1.8890   20.9110  -31.4890 C   0  0  0  0  0  0  0  0  0  0  0  0
   -3.1980   21.1270  -31.0670 C   0  0  0  0  0  0  0  0  0  0  0  0
   -3.4890   21.2050  -29.3500 Cl  0  0  0  0  0  0  0  0  0  0  0  0
   -6.6130   20.6280  -32.2890 C   0  0  0  0  0  0  0  0  0  0  0  0
   -6.4150   19.2200  -31.7800 C   0  0  0  0  0  0  0  0  0  0  0  0
   -7.3660   18.3730  -32.6390 C   0  0  0  0  0  0  0  0  0  0  0  0
   -8.7480   18.6980  -32.1870 C   0  0  0  0  0  0  0  0  0  0  0  0
   -9.0830   20.1160  -31.9810 C   0  0  0  0  0  0  0  0  0  0  0  0
   -8.0050   21.1300  -32.1160 C   0  0  0  0  0  0  0  0  0  0  0  0
   -0.7791   23.4873  -27.0481 H   0  0  0  0  0  0  0  0  0  0  0  0
   -1.7808   22.5217  -28.1843 H   0  0  0  0  0  0  0  0  0  0  0  0
    0.0061   22.3388  -28.1843 H   0  0  0  0  0  0  0  0  0  0  0  0
    0.3067   24.5450  -29.0560 H   0  0  0  0  0  0  0  0  0  0  0  0
   -0.9331   23.7130  -30.0676 H   0  0  0  0  0  0  0  0  0  0  0  0
   -0.4843   24.9343  -27.1271 H   0  0  0  0  0  0  0  0  0  0  0  0
   -1.0757   26.6652  -27.4621 H   0  0  0  0  0  0  0  0  0  0  0  0
   -1.8655   25.5364  -25.3787 H   0  0  0  0  0  0  0  0  0  0  0  0
   -3.0596   26.3161  -26.4710 H   0  0  0  0  0  0  0  0  0  0  0  0
   -2.8752   24.5293  -26.4710 H   0  0  0  0  0  0  0  0  0  0  0  0
   -2.8381   23.5949  -28.3211 H   0  0  0  0  0  0  0  0  0  0  0  0
   -3.6753   25.2466  -28.3483 H   0  0  0  0  0  0  0  0  0  0  0  0
   -2.6809   24.0567  -30.8475 H   0  0  0  0  0  0  0  0  0  0  0  0
   -4.2420   23.4777  -30.0354 H   0  0  0  0  0  0  0  0  0  0  0  0
   -5.3314   26.3651  -29.4475 H   0  0  0  0  0  0  0  0  0  0  0  0
   -6.0785   26.0512  -31.0533 H   0  0  0  0  0  0  0  0  0  0  0  0
   -5.3891   23.7810  -29.1289 H   0  0  0  0  0  0  0  0  0  0  0  0
   -6.9612   24.6811  -29.0435 H   0  0  0  0  0  0  0  0  0  0  0  0
   -5.7623   21.2302  -30.5020 H   0  0  0  0  0  0  0  0  0  0  0  0
   -4.7033   21.3207  -34.0560 H   0  0  0  0  0  0  0  0  0  0  0  0
   -2.4118   20.9391  -34.8143 H   0  0  0  0  0  0  0  0  0  0  0  0
   -1.0866   20.7964  -30.7453 H   0  0  0  0  0  0  0  0  0  0  0  0
   -6.4323   20.6371  -33.3740 H   0  0  0  0  0  0  0  0  0  0  0  0
   -5.3724   18.8978  -31.9186 H   0  0  0  0  0  0  0  0  0  0  0  0
   -6.6231   19.1273  -30.7038 H   0  0  0  0  0  0  0  0  0  0  0  0
   -7.2447   18.6264  -33.7025 H   0  0  0  0  0  0  0  0  0  0  0  0
   -7.1532   17.2996  -32.5271 H   0  0  0  0  0  0  0  0  0  0  0  0
   -9.4427   18.3024  -32.9426 H   0  0  0  0  0  0  0  0  0  0  0  0
   -8.8284   18.2446  -31.1880 H   0  0  0  0  0  0  0  0  0  0  0  0
   -9.8637   20.3739  -32.7118 H   0  0  0  0  0  0  0  0  0  0  0  0
   -9.3712   20.1715  -30.9209 H   0  0  0  0  0  0  0  0  0  0  0  0
   -8.2435   21.7513  -32.9918 H   0  0  0  0  0  0  0  0  0  0  0  0
   -7.9958   21.6624  -31.1535 H   0  0  0  0  0  0  0  0  0  0  0  0
  1  2  1  0
  2  3  1  0
  3  4  1  0
  4  5  1  0
  3  6  1  0
  6  7  1  0
  7  8  1  0
  8  9  1  0
  9 10  1  0
 10 11  1  0
 11 12  1  0
 12 13  2  0
 12 14  1  0
 14 15  1  0
 15 16  2  0
 16 17  1  0
 17 18  2  0
 18 19  1  0
 18 20  1  0
 20 21  2  0
 21 22  1  0
 14 23  1  0
 23 24  1  0
 24 25  1  0
 25 26  1  0
 26 27  1  0
 27 28  1  0
 21 15  1  0
 28 23  1  0
  1 29  1  0
  1 30  1  0
  1 31  1  0
  2 32  1  0
  2 33  1  0
  4 34  1  0
  4 35  1  0
  5 36  1  0
  5 37  1  0
  5 38  1  0
  6 39  1  0
  6 40  1  0
  7 41  1  0
  7 42  1  0
  9 43  1  0
  9 44  1  0
 10 45  1  0
 10 46  1  0
 14 47  1  1
 16 48  1  0
 17 49  1  0
 20 50  1  0
 23 51  1  0
 24 52  1  0
 24 53  1  0
 25 54  1  0
 25 55  1  0
 26 56  1  0
 26 57  1  0
 27 58  1  0
 27 59  1  0
 28 60  1  0
 28 61  1  0
M  END
>  <smiles>  (1) 
CCN(CC)CCOCCOC(=O)C(c1ccc(Cl)cc1Cl)C1CCCCC1

>  <score_type>  (1) 
oracle

>  <origin>  (1) 
adg

>  <m_score__min__energy>  (1) 
-8.9000000000000004

>  <m_primary>  (1) 
energy

$$$$
1:0
     RDKit          3D

 38 39  0  0  0  0  0  0  0  0999 V2000
   -5.6610   17.4670  -34.6430 C   0  0  0  0  0  0  0  0  0  0  0  0
   -6.0320   18.9020  -34.5010 C   0  0  0  0  0  0  0  0  0  0  0  0
   -6.2270   19.3330  -33.0920 N   0  0  0  0  0  0  0  0  0  0  0  0
   -7.2430   20.3110  -33.0940 C   0  0  0  0  0  0  0  0  0  0  0  0
   -8.4590   19.6940  -32.3470 C   0  0  0  0  0  0  0  0  0  0  0  0
   -4.9670   19.5250  -32.5400 C   0  0  0  0  0  0  0  0  0  0  0  0
   -4.0650   20.6500  -32.9230 C   0  0  0  0  0  0  0  0  0  0  0  0
   -4.6430   21.9280  -32.9690 N   0  0  0  0  0  0  0  0  0  0  0  0
   -4.7510   22.8350  -31.8370 C   0  0  0  0  0  0  0  0  0  0  0  0
   -3.7400   23.1360  -31.0930 O   0  0  0  0  0  0  0  0  0  0  0  0
   -4.0980   23.9710  -30.1290 C   0  0  0  0  0  0  0  0  0  0  0  0
   -3.1690   24.4870  -29.1290 C   0  0  0  0  0  0  0  0  0  0  0  0
   -3.2530   24.1780  -27.7720 C   0  0  0  0  0  0  0  0  0  0  0  0
   -2.1950   24.8730  -27.1780 C   0  0  0  0  0  0  0  0  0  0  0  0
   -1.5370   25.5570  -28.2000 C   0  0  0  0  0  0  0  0  0  0  0  0
   -2.1490   25.2930  -29.3170 O   0  0  0  0  0  0  0  0  0  0  0  0
   -5.4110   24.1980  -30.2970 N   0  0  0  0  0  0  0  0  0  0  0  0
   -5.8510   23.4950  -31.3650 C   0  0  0  0  0  0  0  0  0  0  0  0
   -7.1800   23.4320  -31.9160 C   0  0  0  0  0  0  0  0  0  0  0  0
   -8.2390   23.3970  -32.3450 N   0  0  0  0  0  0  0  0  0  0  0  0
   -5.5449   17.0179  -33.6456 H   0  0  0  0  0  0  0  0  0  0  0  0
   -6.4516   16.9367  -35.1942 H   0  0  0  0  0  0  0  0  0  0  0  0
   -4.7125   17.3863  -35.1942 H   0  0  0  0  0  0  0  0  0  0  0  0
   -5.2312   19.5129  -34.9432 H   0  0  0  0  0  0  0  0  0  0  0  0
   -6.9955   19.0368  -35.0143 H   0  0  0  0  0  0  0  0  0  0  0  0
   -6.8983   21.2168  -32.5736 H   0  0  0  0  0  0  0  0  0  0  0  0
   -7.5137   20.5980  -34.1208 H   0  0  0  0  0  0  0  0  0  0  0  0
   -8.3014   19.7740  -31.2613 H   0  0  0  0  0  0  0  0  0  0  0  0
   -9.3743   20.2367  -32.6256 H   0  0  0  0  0  0  0  0  0  0  0  0
   -8.5615   18.6348  -32.6256 H   0  0  0  0  0  0  0  0  0  0  0  0
   -5.1249   19.6215  -31.4557 H   0  0  0  0  0  0  0  0  0  0  0  0
   -4.4197   18.6619  -32.9468 H   0  0  0  0  0  0  0  0  0  0  0  0
   -3.2419   20.6815  -32.1940 H   0  0  0  0  0  0  0  0  0  0  0  0
   -3.7528   20.4343  -33.9555 H   0  0  0  0  0  0  0  0  0  0  0  0
   -5.0950   22.3550  -33.8190 H   0  0  0  0  0  0  0  0  0  0  0  0
   -3.9905   23.5292  -27.2768 H   0  0  0  0  0  0  0  0  0  0  0  0
   -1.9321   24.8791  -26.1099 H   0  0  0  0  0  0  0  0  0  0  0  0
   -0.6561   26.2052  -28.0822 H   0  0  0  0  0  0  0  0  0  0  0  0
  1  2  1  0
  2  3  1  0
  3  4  1  0
  4  5  1  0
  3  6  1  0
  6  7  1  0
  7  8  1  0
  8  9  1  0
  9 10  1  0
 10 11  1  0
 11 12  1  0
 12 13  2  0
 13 14  1  0
 14 15  2  0
 15 16  1  0
 11 17  2  0
 17 18  1  0
 18 19  1  0
 19 20  3  0
 18  9  2  0
 16 12  1  0
  1 21  1  0
  1 22  1  0
  1 23  1  0
  2 24  1  0
  2 25  1  0
  4 26  1  0
  4 27  1  0
  5 28  1  0
  5 29  1  0
  5 30  1  0
  6 31  1  0
  6 32  1  0
  7 33  1  0
  7 34  1  0
  8 35  1  0
 13 36  1  0
 14 37  1  0
 15 38  1  0
M  END
>  <smiles>  (2) 
CCN(CC)CCNc1oc(-c2ccco2)nc1C#N

>  <score_type>  (2) 
oracle

>  <origin>  (2) 
adg

>  <m_score__min__energy>  (2) 
-6.8399999999999999

>  <m_primary>  (2) 
energy

$$$$
2:0
     RDKit          3D

 74 77  0  0  0  0  0  0  0  0999 V2000
   -0.2560   19.3170  -29.7620 C   0  0  0  0  0  0  0  0  0  0  0  0
   -0.7280   20.3030  -28.7520 C   0  0  0  0  0  0  0  0  0  0  0  0
   -2.1000   20.4780  -28.5720 N   0  0  0  0  0  0  0  0  0  0  0  0
   -2.6570   20.3060  -27.2790 C   0  0  0  0  0  0  0  0  0  0  0  0
   -2.3790   18.9380  -26.6880 C   0  0  0  0  0  0  0  0  0  0  0  0
   -2.8860   21.2240  -29.4500 C   0  0  0  0  0  0  0  0  0  0  0  0
   -2.1450   22.2960  -30.2660 C   0  0  0  0  0  0  0  0  0  0  0  0
   -2.6320   22.2840  -31.6140 N   0  0  0  0  0  0  0  0  0  0  0  0
   -3.7570   21.6050  -32.0960 C   0  0  0  0  0  0  0  0  0  0  0  0
   -4.9920   22.1940  -31.7480 C   0  0  0  0  0  0  0  0  0  0  0  0
   -4.9950   23.3830  -31.0460 C   0  0  0  0  0  0  0  0  0  0  0  0
   -6.1410   24.0530  -30.6800 C   0  0  0  0  0  0  0  0  0  0  0  0
   -6.1340   25.6760  -29.7180 Br  0  0  0  0  0  0  0  0  0  0  0  0
   -7.3430   23.4960  -31.0400 C   0  0  0  0  0  0  0  0  0  0  0  0
   -7.3380   22.2990  -31.7470 C   0  0  0  0  0  0  0  0  0  0  0  0
   -6.1930   21.6340  -32.1080 C   0  0  0  0  0  0  0  0  0  0  0  0
   -6.1770   20.4880  -32.8140 N   0  0  0  0  0  0  0  0  0  0  0  0
   -7.4240   19.8420  -33.0780 C   0  0  0  0  0  0  0  0  0  0  0  0
   -5.0050   19.8920  -33.1750 C   0  0  0  0  0  0  0  0  0  0  0  0
   -4.9690   18.7340  -33.8870 C   0  0  0  0  0  0  0  0  0  0  0  0
   -6.1470   18.1040  -34.4650 N   0  0  0  0  0  0  0  0  0  0  0  0
   -6.6680   17.0300  -33.6390 C   0  0  0  0  0  0  0  0  0  0  0  0
   -6.8400   15.7070  -34.2350 C   0  0  0  0  0  0  0  0  0  0  0  0
   -5.7820   14.7570  -34.1690 N   0  0  0  0  0  0  0  0  0  0  0  0
   -6.4180   13.4150  -34.2240 C   0  0  0  0  0  0  0  0  0  0  0  0
   -5.0940   14.8060  -32.8770 C   0  0  0  0  0  0  0  0  0  0  0  0
   -3.7810   18.0920  -34.2510 C   0  0  0  0  0  0  0  0  0  0  0  0
   -3.8030   16.9060  -34.9460 C   0  0  0  0  0  0  0  0  0  0  0  0
   -2.6260   16.2720  -35.2730 C   0  0  0  0  0  0  0  0  0  0  0  0
   -1.4350   16.8360  -34.8980 C   0  0  0  0  0  0  0  0  0  0  0  0
   -1.4370   18.0440  -34.1940 C   0  0  0  0  0  0  0  0  0  0  0  0
   -2.6070   18.6960  -33.8580 C   0  0  0  0  0  0  0  0  0  0  0  0
   -2.5920   19.8690  -33.1470 N   0  0  0  0  0  0  0  0  0  0  0  0
   -1.3030   20.4220  -32.8780 C   0  0  0  0  0  0  0  0  0  0  0  0
   -3.7680   20.4400  -32.8200 C   0  0  0  0  0  0  0  0  0  0  0  0
    0.1642   18.4393  -29.2491 H   0  0  0  0  0  0  0  0  0  0  0  0
   -1.1018   19.0037  -30.3917 H   0  0  0  0  0  0  0  0  0  0  0  0
    0.5185   19.7793  -30.3917 H   0  0  0  0  0  0  0  0  0  0  0  0
   -0.3115   19.9957  -27.7814 H   0  0  0  0  0  0  0  0  0  0  0  0
   -0.3865   21.2713  -29.1467 H   0  0  0  0  0  0  0  0  0  0  0  0
   -2.2317   21.0690  -26.6105 H   0  0  0  0  0  0  0  0  0  0  0  0
   -3.7482   20.4052  -27.3765 H   0  0  0  0  0  0  0  0  0  0  0  0
   -2.3923   19.0033  -25.5900 H   0  0  0  0  0  0  0  0  0  0  0  0
   -3.1517   18.2301  -27.0226 H   0  0  0  0  0  0  0  0  0  0  0  0
   -1.3913   18.5879  -27.0226 H   0  0  0  0  0  0  0  0  0  0  0  0
   -3.3562   20.5259  -30.1582 H   0  0  0  0  0  0  0  0  0  0  0  0
   -3.6018   21.7710  -28.8188 H   0  0  0  0  0  0  0  0  0  0  0  0
   -2.3223   23.2857  -29.8198 H   0  0  0  0  0  0  0  0  0  0  0  0
   -1.0659   22.0829  -30.2615 H   0  0  0  0  0  0  0  0  0  0  0  0
   -2.1220   22.8990  -32.3470 H   0  0  0  0  0  0  0  0  0  0  0  0
   -4.0261   23.8202  -30.7628 H   0  0  0  0  0  0  0  0  0  0  0  0
   -8.2909   23.9869  -30.7744 H   0  0  0  0  0  0  0  0  0  0  0  0
   -8.3055   21.8605  -32.0329 H   0  0  0  0  0  0  0  0  0  0  0  0
   -7.9141   19.5881  -32.1265 H   0  0  0  0  0  0  0  0  0  0  0  0
   -8.0720   20.5178  -33.6554 H   0  0  0  0  0  0  0  0  0  0  0  0
   -7.2458   18.9228  -33.6554 H   0  0  0  0  0  0  0  0  0  0  0  0
   -6.5670   18.4390  -35.3430 H   0  0  0  0  0  0  0  0  0  0  0  0
   -5.9818   16.9146  -32.7871 H   0  0  0  0  0  0  0  0  0  0  0  0
   -7.6927   17.3503  -33.3992 H   0  0  0  0  0  0  0  0  0  0  0  0
   -7.7110   15.2478  -33.7446 H   0  0  0  0  0  0  0  0  0  0  0  0
   -6.9226   15.9214  -35.3107 H   0  0  0  0  0  0  0  0  0  0  0  0
   -6.5914   13.0492  -33.2012 H   0  0  0  0  0  0  0  0  0  0  0  0
   -7.3783   13.4859  -34.7558 H   0  0  0  0  0  0  0  0  0  0  0  0
   -5.7551   12.7166  -34.7558 H   0  0  0  0  0  0  0  0  0  0  0  0
   -5.8343   14.7533  -32.0651 H   0  0  0  0  0  0  0  0  0  0  0  0
   -4.4017   13.9549  -32.7977 H   0  0  0  0  0  0  0  0  0  0  0  0
   -4.5293   15.7466  -32.7977 H   0  0  0  0  0  0  0  0  0  0  0  0
   -4.7650   16.4621  -35.2419 H   0  0  0  0  0  0  0  0  0  0  0  0
   -2.6413   15.3231  -35.8292 H   0  0  0  0  0  0  0  0  0  0  0  0
   -0.4846   16.3423  -35.1489 H   0  0  0  0  0  0  0  0  0  0  0  0
   -0.4756   18.4893  -33.8983 H   0  0  0  0  0  0  0  0  0  0  0  0
   -1.1516   20.4870  -31.7904 H   0  0  0  0  0  0  0  0  0  0  0  0
   -0.5282   19.7771  -33.3182 H   0  0  0  0  0  0  0  0  0  0  0  0
   -1.2364   21.4279  -33.3182 H   0  0  0  0  0  0  0  0  0  0  0  0
  1  2  1  0
  2  3  1  0
  3  4  1  0
  4  5  1  0
  3  6  1  0
  6  7  1  0
  7  8  1  0
  8  9  1  0
  9 10  2  0
 10 11  1  0
 11 12  2  0
 12 13  1  0
 12 14  1  0
 14 15  2  0
 15 16  1  0
 16 17  2  0
 17 18  1  0
 17 19  1  0
 19 20  2  0
 20 21  1  0
 21 22  1  0
 22 23  1  0
 23 24  1  0
 24 25  1  0
 24 26  1  0
 20 27  1  0
 27 28  2  0
 28 29  1  0
 29 30  2  0
 30 31  1  0
 31 32  2  0
 32 33  1  0
 33 34  1  0
 33 35  2  0
 35  9  1  0
 16 10  1  0
 35 19  1  0
 32 27  1  0
  1 36  1  0
  1 37  1  0
  1 38  1  0
  2 39  1  0
  2 40  1  0
  4 41  1  0
  4 42  1  0
  5 43  1  0
  5 44  1  0
  5 45  1  0
  6 46  1  0
  6 47  1  0
  7 48  1  0
  7 49  1  0
  8 50  1  0
 11 51  1  0
 14 52  1  0
 15 53  1  0
 18 54  1  0
 18 55  1  0
 18 56  1  0
 21 57  1  0
 22 58  1  0
 22 59  1  0
 23 60  1  0
 23 61  1  0
 25 62  1  0
 25 63  1  0
 25 64  1  0
 26 65  1  0
 26 66  1  0
 26 67  1  0
 28 68  1  0
 29 69  1  0
 30 70  1  0
 31 71  1  0
 34 72  1  0
 34 73  1  0
 34 74  1  0
M  CHG  2  17   1  33   1
M  END
>  <smiles>  (3) 
CCN(CC)CCNc1c2cc(Br)ccc2[n+](C)c2c(NCCN(C)C)c3ccccc3[n+](C)c12

>  <score_type>  (3) 
oracle

>  <origin>  (3) 
adg

>  <m_score__min__energy>  (3) 
-8.8499999999999996

>  <m_primary>  (3) 
energy

$$$$
3:0
     RDKit          3D

 46 48  0  0  0  0  0  0  0  0999 V2000
   -6.7340   24.6990  -30.1040 C   0  0  0  0  0  0  0  0  0  0  0  0
   -5.6750   25.6990  -30.5430 C   0  0  0  0  0  0  0  0  0  0  0  0
   -4.4890   25.0120  -30.9650 N   0  0  0  0  0  0  0  0  0  0  0  0
   -3.6940   24.5940  -29.8640 C   0  0  0  0  0  0  0  0  0  0  0  0
   -3.1950   23.1630  -30.0210 C   0  0  0  0  0  0  0  0  0  0  0  0
   -4.3760   22.2800  -30.2920 C   0  0  0  0  0  0  0  0  0  0  0  0
   -4.8120   22.3980  -31.6940 N   0  0  0  0  0  0  0  0  0  0  0  0
   -5.2800   21.1890  -32.2840 C   0  0  0  0  0  0  0  0  0  0  0  0
   -6.5850   20.7610  -32.2090 C   0  0  0  0  0  0  0  0  0  0  0  0
   -7.5090   21.5530  -31.5620 C   0  0  0  0  0  0  0  0  0  0  0  0
   -8.8200   21.0980  -31.5110 C   0  0  0  0  0  0  0  0  0  0  0  0
   -9.1840   19.9000  -32.0860 C   0  0  0  0  0  0  0  0  0  0  0  0
   -8.2160   19.1490  -32.7210 C   0  0  0  0  0  0  0  0  0  0  0  0
   -6.8890   19.5530  -32.8040 C   0  0  0  0  0  0  0  0  0  0  0  0
   -5.9530   18.7940  -33.4440 N   0  0  0  0  0  0  0  0  0  0  0  0
   -6.4030   17.5670  -34.0140 C   0  0  0  0  0  0  0  0  0  0  0  0
   -4.6840   19.2060  -33.5190 C   0  0  0  0  0  0  0  0  0  0  0  0
   -3.6960   18.4930  -34.1510 C   0  0  0  0  0  0  0  0  0  0  0  0
   -2.4000   18.9470  -34.2120 C   0  0  0  0  0  0  0  0  0  0  0  0
   -2.0050   20.1380  -33.6500 C   0  0  0  0  0  0  0  0  0  0  0  0
   -0.2160   20.7420  -33.7570 Br  0  0  0  0  0  0  0  0  0  0  0  0
   -3.0110   20.8630  -33.0080 C   0  0  0  0  0  0  0  0  0  0  0  0
   -4.3140   20.4230  -32.9370 C   0  0  0  0  0  0  0  0  0  0  0  0
   -6.7716   24.6634  -29.0052 H   0  0  0  0  0  0  0  0  0  0  0  0
   -7.7147   25.0082  -30.4947 H   0  0  0  0  0  0  0  0  0  0  0  0
   -6.4814   23.7022  -30.4947 H   0  0  0  0  0  0  0  0  0  0  0  0
   -6.0651   26.2976  -31.3794 H   0  0  0  0  0  0  0  0  0  0  0  0
   -5.4273   26.3545  -29.6951 H   0  0  0  0  0  0  0  0  0  0  0  0
   -3.9360   25.6770  -31.5800 H   0  0  0  0  0  0  0  0  0  0  0  0
   -2.8257   25.2641  -29.7801 H   0  0  0  0  0  0  0  0  0  0  0  0
   -4.3215   24.6343  -28.9614 H   0  0  0  0  0  0  0  0  0  0  0  0
   -2.4873   23.1059  -30.8611 H   0  0  0  0  0  0  0  0  0  0  0  0
   -2.6810   22.8380  -29.1044 H   0  0  0  0  0  0  0  0  0  0  0  0
   -4.0984   21.2353  -30.0882 H   0  0  0  0  0  0  0  0  0  0  0  0
   -5.2046   22.5926  -29.6396 H   0  0  0  0  0  0  0  0  0  0  0  0
   -4.7850   23.2780  -32.2180 H   0  0  0  0  0  0  0  0  0  0  0  0
   -7.2188   22.5097  -31.1032 H   0  0  0  0  0  0  0  0  0  0  0  0
   -9.5825   21.7057  -31.0018 H   0  0  0  0  0  0  0  0  0  0  0  0
  -10.2255   19.5492  -32.0398 H   0  0  0  0  0  0  0  0  0  0  0  0
   -8.5064   18.1924  -33.1798 H   0  0  0  0  0  0  0  0  0  0  0  0
   -6.6615   16.8622  -33.2100 H   0  0  0  0  0  0  0  0  0  0  0  0
   -7.2906   17.7553  -34.6359 H   0  0  0  0  0  0  0  0  0  0  0  0
   -5.6041   17.1368  -34.6359 H   0  0  0  0  0  0  0  0  0  0  0  0
   -3.9484   17.5314  -34.6218 H   0  0  0  0  0  0  0  0  0  0  0  0
   -1.6492   18.3331  -34.7310 H   0  0  0  0  0  0  0  0  0  0  0  0
   -2.7523   21.8243  -32.5401 H   0  0  0  0  0  0  0  0  0  0  0  0
  1  2  1  0
  2  3  1  0
  3  4  1  0
  4  5  1  0
  5  6  1  0
  6  7  1  0
  7  8  1  0
  8  9  2  0
  9 10  1  0
 10 11  2  0
 11 12  1  0
 12 13  2  0
 13 14  1  0
 14 15  2  0
 15 16  1  0
 15 17  1  0
 17 18  2  0
 18 19  1  0
 19 20  2  0
 20 21  1  0
 20 22  1  0
 22 23  2  0
 23  8  1  0
 14  9  1  0
 23 17  1  0
  1 24  1  0
  1 25  1  0
  1 26  1  0
  2 27  1  0
  2 28  1  0
  3 29  1  0
  4 30  1  0
  4 31  1  0
  5 32  1  0
  5 33  1  0
  6 34  1  0
  6 35  1  0
  7 36  1  0
 10 37  1  0
 11 38  1  0
 12 39  1  0
 13 40  1  0
 16 41  1  0
 16 42  1  0
 16 43  1  0
 18 44  1  0
 19 45  1  0
 22 46  1  0
M  CHG  1  15   1
M  END
>  <smiles>  (4) 
CCNCCCNc1c2ccccc2[n+](C)c2ccc(Br)cc12

>  <score_type>  (4) 
oracle

>  <origin>  (4) 
adg

>  <m_score__min__energy>  (4) 
-9.2300000000000004

>  <m_primary>  (4) 
energy

$$$$
4:0
     RDKit          3D

 55 58  0  0  0  0  0  0  0  0999 V2000
   -6.1080   24.9130  -29.7120 C   0  0  0  0  0  0  0  0  0  0  0  0
   -5.0550   25.2700  -30.7370 C   0  0  0  0  0  0  0  0  0  0  0  0
   -3.8670   24.4100  -30.5720 N   0  0  0  0  0  0  0  0  0  0  0  0
   -3.4880   24.5440  -29.1770 C   0  0  0  0  0  0  0  0  0  0  0  0
   -4.2920   23.0890  -30.8650 C   0  0  0  0  0  0  0  0  0  0  0  0
   -3.6710   22.3970  -32.0220 C   0  0  0  0  0  0  0  0  0  0  0  0
   -4.6160   22.0440  -33.0810 N   0  0  0  0  0  0  0  0  0  0  0  0
   -5.5920   21.0310  -32.9520 C   0  0  0  0  0  0  0  0  0  0  0  0
   -6.8590   21.5030  -32.5400 C   0  0  0  0  0  0  0  0  0  0  0  0
   -7.0460   22.8600  -32.3350 C   0  0  0  0  0  0  0  0  0  0  0  0
   -8.2410   23.4130  -31.9370 C   0  0  0  0  0  0  0  0  0  0  0  0
   -9.2940   22.5520  -31.7380 C   0  0  0  0  0  0  0  0  0  0  0  0
   -9.1150   21.1910  -31.9420 C   0  0  0  0  0  0  0  0  0  0  0  0
   -7.9140   20.6420  -32.3410 C   0  0  0  0  0  0  0  0  0  0  0  0
   -7.7440   19.3240  -32.5390 N   0  0  0  0  0  0  0  0  0  0  0  0
   -8.8000   18.3760  -32.3440 C   0  0  0  0  0  0  0  0  0  0  0  0
   -6.5290   18.8630  -32.9350 C   0  0  0  0  0  0  0  0  0  0  0  0
   -6.3090   17.4950  -33.1350 C   0  0  0  0  0  0  0  0  0  0  0  0
   -7.2310   16.6460  -32.9690 O   0  0  0  0  0  0  0  0  0  0  0  0
   -5.1170   17.0070  -33.5100 N   0  0  0  0  0  0  0  0  0  0  0  0
   -4.9920   15.6640  -33.6620 C   0  0  0  0  0  0  0  0  0  0  0  0
   -3.8040   15.0670  -34.0260 C   0  0  0  0  0  0  0  0  0  0  0  0
   -2.7270   15.8890  -34.2360 C   0  0  0  0  0  0  0  0  0  0  0  0
   -2.8820   17.2620  -34.0750 C   0  0  0  0  0  0  0  0  0  0  0  0
   -4.0850   17.8400  -33.7090 C   0  0  0  0  0  0  0  0  0  0  0  0
   -4.2030   19.2300  -33.5380 C   0  0  0  0  0  0  0  0  0  0  0  0
   -3.0280   20.0310  -33.8430 C   0  0  0  0  0  0  0  0  0  0  0  0
   -5.4380   19.6960  -33.1490 C   0  0  0  0  0  0  0  0  0  0  0  0
   -5.6976   25.0521  -28.7010 H   0  0  0  0  0  0  0  0  0  0  0  0
   -6.9846   25.5642  -29.8447 H   0  0  0  0  0  0  0  0  0  0  0  0
   -6.4078   23.8630  -29.8447 H   0  0  0  0  0  0  0  0  0  0  0  0
   -5.4684   25.1280  -31.7464 H   0  0  0  0  0  0  0  0  0  0  0  0
   -4.7591   26.3199  -30.5951 H   0  0  0  0  0  0  0  0  0  0  0  0
   -4.3318   24.2457  -28.5375 H   0  0  0  0  0  0  0  0  0  0  0  0
   -2.6231   23.8972  -28.9683 H   0  0  0  0  0  0  0  0  0  0  0  0
   -3.2219   25.5907  -28.9683 H   0  0  0  0  0  0  0  0  0  0  0  0
   -4.0942   22.4765  -29.9730 H   0  0  0  0  0  0  0  0  0  0  0  0
   -5.3501   23.1970  -31.1455 H   0  0  0  0  0  0  0  0  0  0  0  0
   -2.9035   23.0588  -32.4497 H   0  0  0  0  0  0  0  0  0  0  0  0
   -3.2524   21.4536  -31.6415 H   0  0  0  0  0  0  0  0  0  0  0  0
   -4.5390   22.6630  -33.9500 H   0  0  0  0  0  0  0  0  0  0  0  0
   -6.1915   23.5328  -32.4996 H   0  0  0  0  0  0  0  0  0  0  0  0
   -8.3493   24.4970  -31.7846 H   0  0  0  0  0  0  0  0  0  0  0  0
  -10.2728   22.9395  -31.4189 H   0  0  0  0  0  0  0  0  0  0  0  0
   -9.9703   20.5190  -31.7780 H   0  0  0  0  0  0  0  0  0  0  0  0
   -8.9652   18.2277  -31.2667 H   0  0  0  0  0  0  0  0  0  0  0  0
   -9.7228   18.7545  -32.8078 H   0  0  0  0  0  0  0  0  0  0  0  0
   -8.5229   17.4178  -32.8078 H   0  0  0  0  0  0  0  0  0  0  0  0
   -5.8723   15.0277  -33.4881 H   0  0  0  0  0  0  0  0  0  0  0  0
   -3.7234   13.9762  -34.1431 H   0  0  0  0  0  0  0  0  0  0  0  0
   -1.7534   15.4684  -34.5279 H   0  0  0  0  0  0  0  0  0  0  0  0
   -2.0132   17.9147  -34.2455 H   0  0  0  0  0  0  0  0  0  0  0  0
   -2.5521   20.3554  -32.9059 H   0  0  0  0  0  0  0  0  0  0  0  0
   -2.3157   19.4296  -34.4269 H   0  0  0  0  0  0  0  0  0  0  0  0
   -3.3275   20.9138  -34.4269 H   0  0  0  0  0  0  0  0  0  0  0  0
  1  2  1  0
  2  3  1  0
  3  4  1  0
  3  5  1  0
  5  6  1  0
  6  7  1  0
  7  8  1  0
  8  9  2  0
  9 10  1  0
 10 11  2  0
 11 12  1  0
 12 13  2  0
 13 14  1  0
 14 15  2  0
 15 16  1  0
 15 17  1  0
 17 18  1  0
 18 19  2  0
 18 20  1  0
 20 21  1  0
 21 22  2  0
 22 23  1  0
 23 24  2  0
 24 25  1  0
 25 26  2  0
 26 27  1  0
 26 28  1  0
 28  8  1  0
 14  9  1  0
 28 17  2  0
 25 20  1  0
  1 29  1  0
  1 30  1  0
  1 31  1  0
  2 32  1  0
  2 33  1  0
  4 34  1  0
  4 35  1  0
  4 36  1  0
  5 37  1  0
  5 38  1  0
  6 39  1  0
  6 40  1  0
  7 41  1  0
 10 42  1  0
 11 43  1  0
 12 44  1  0
 13 45  1  0
 16 46  1  0
 16 47  1  0
 16 48  1  0
 21 49  1  0
 22 50  1  0
 23 51  1  0
 24 52  1  0
 27 53  1  0
 27 54  1  0
 27 55  1  0
M  CHG  1  15   1
M  END
>  <smiles>  (5) 
CCN(C)CCNc1c2ccccc2[n+](C)c2c(=O)n3ccccc3c(C)c12

>  <score_type>  (5) 
oracle

>  <origin>  (5) 
adg

>  <m_score__min__energy>  (5) 
-9.4600000000000009

>  <m_primary>  (5) 
energy

$$$$
5:0
     RDKit          3D

 91 93  0  0  0  0  0  0  0  0999 V2000
   -4.6190   25.3400  -30.4330 C   0  0  0  0  0  0  0  0  0  0  0  0
   -5.8900   24.9110  -31.1280 C   0  0  0  0  0  0  0  0  0  0  0  0
   -6.8570   24.3310  -30.0760 C   0  0  0  0  0  0  0  0  0  0  0  0
   -7.2920   22.9810  -30.5200 C   0  0  0  0  0  0  0  0  0  0  0  0
   -7.8710   23.0050  -31.9440 C   0  0  0  0  0  0  0  0  0  0  0  0
   -9.2330   22.4280  -31.9880 C   0  0  0  0  0  0  0  0  0  0  0  0
   -9.4590   21.0690  -31.4630 C   0  0  0  0  0  0  0  0  0  0  0  0
   -9.4630   19.8940  -32.3270 C   0  0  0  0  0  0  0  0  0  0  0  0
   -9.2270   18.5400  -31.7930 C   0  0  0  0  0  0  0  0  0  0  0  0
   -7.8800   17.9360  -32.1550 C   0  0  0  0  0  0  0  0  0  0  0  0
   -6.7460   18.8410  -31.7230 C   0  0  0  0  0  0  0  0  0  0  0  0
   -5.5360   18.6250  -32.5950 C   0  0  0  0  0  0  0  0  0  0  0  0
   -5.1830   19.8140  -33.4500 C   0  0  0  0  0  0  0  0  0  0  0  0
   -5.3090   21.1020  -32.7070 C   0  0  0  0  0  0  0  0  0  0  0  0
   -4.2500   22.1000  -33.0650 C   0  0  0  0  0  0  0  0  0  0  0  0
   -2.8970   21.5100  -33.0370 C   0  0  0  0  0  0  0  0  0  0  0  0
   -2.4390   20.6890  -33.8420 O   0  0  0  0  0  0  0  0  0  0  0  0
   -2.0570   21.9220  -31.9990 O   0  0  0  0  0  0  0  0  0  0  0  0
   -2.3510   21.6450  -30.6710 C   0  0  0  0  0  0  0  0  0  0  0  0
   -3.3340   22.4660  -30.1040 C   0  0  0  0  0  0  0  0  0  0  0  0
   -3.7160   22.3080  -28.7980 C   0  0  0  0  0  0  0  0  0  0  0  0
   -3.0960   21.3160  -28.0710 C   0  0  0  0  0  0  0  0  0  0  0  0
   -2.1120   20.4870  -28.6220 C   0  0  0  0  0  0  0  0  0  0  0  0
   -1.7360   20.6530  -29.9400 C   0  0  0  0  0  0  0  0  0  0  0  0
   -0.7310   19.8760  -30.5260 C   0  0  0  0  0  0  0  0  0  0  0  0
   -0.3710   20.0010  -31.8850 N   0  0  0  0  0  0  0  0  0  0  0  0
    0.9490   20.0350  -32.4320 C   0  0  0  0  0  0  0  0  0  0  0  0
    1.1570   20.7580  -33.7200 C   0  0  0  0  0  0  0  0  0  0  0  0
    0.0010   21.3730  -34.2870 N   0  0  0  0  0  0  0  0  0  0  0  0
    0.3130   22.2140  -35.4280 C   0  0  0  0  0  0  0  0  0  0  0  0
    1.7640   22.5800  -35.5000 C   0  0  0  0  0  0  0  0  0  0  0  0
   -0.1470   18.9440  -29.6760 C   0  0  0  0  0  0  0  0  0  0  0  0
    0.8830   18.1400  -30.1060 C   0  0  0  0  0  0  0  0  0  0  0  0
    1.5310   17.2170  -29.3310 C   0  0  0  0  0  0  0  0  0  0  0  0
    1.1290   17.0800  -28.0270 C   0  0  0  0  0  0  0  0  0  0  0  0
    0.0870   17.8800  -27.5530 C   0  0  0  0  0  0  0  0  0  0  0  0
   -0.5520   18.8040  -28.3510 C   0  0  0  0  0  0  0  0  0  0  0  0
   -1.5210   19.5560  -27.8140 N   0  0  0  0  0  0  0  0  0  0  0  0
   -2.0060   19.4780  -26.4740 C   0  0  0  0  0  0  0  0  0  0  0  0
   -4.7626   25.2915  -29.3435 H   0  0  0  0  0  0  0  0  0  0  0  0
   -3.7973   24.6694  -30.7247 H   0  0  0  0  0  0  0  0  0  0  0  0
   -4.3717   26.3714  -30.7247 H   0  0  0  0  0  0  0  0  0  0  0  0
   -6.3544   25.7788  -31.6191 H   0  0  0  0  0  0  0  0  0  0  0  0
   -5.6627   24.1494  -31.8885 H   0  0  0  0  0  0  0  0  0  0  0  0
   -6.3450   24.2541  -29.1055 H   0  0  0  0  0  0  0  0  0  0  0  0
   -7.7316   24.9894  -29.9682 H   0  0  0  0  0  0  0  0  0  0  0  0
   -6.4256   22.3036  -30.4997 H   0  0  0  0  0  0  0  0  0  0  0  0
   -8.0816   22.6353  -29.8366 H   0  0  0  0  0  0  0  0  0  0  0  0
   -7.9131   24.0467  -32.2947 H   0  0  0  0  0  0  0  0  0  0  0  0
   -7.2195   22.3989  -32.5906 H   0  0  0  0  0  0  0  0  0  0  0  0
   -9.8866   23.1048  -31.4181 H   0  0  0  0  0  0  0  0  0  0  0  0
   -9.4388   22.3287  -33.0640 H   0  0  0  0  0  0  0  0  0  0  0  0
   -8.6743   20.8954  -30.7120 H   0  0  0  0  0  0  0  0  0  0  0  0
  -10.5093   21.1197  -31.1399 H   0  0  0  0  0  0  0  0  0  0  0  0
  -10.4509   19.8684  -32.8101 H   0  0  0  0  0  0  0  0  0  0  0  0
   -8.5724   20.0586  -32.9512 H   0  0  0  0  0  0  0  0  0  0  0  0
   -9.2964   18.5882  -30.6962 H   0  0  0  0  0  0  0  0  0  0  0  0
   -9.9891   17.8910  -32.2490 H   0  0  0  0  0  0  0  0  0  0  0  0
   -7.7753   16.9631  -31.6524 H   0  0  0  0  0  0  0  0  0  0  0  0
   -7.8333   17.8126  -33.2471 H   0  0  0  0  0  0  0  0  0  0  0  0
   -7.0685   19.8895  -31.8048 H   0  0  0  0  0  0  0  0  0  0  0  0
   -6.4804   18.6058  -30.6818 H   0  0  0  0  0  0  0  0  0  0  0  0
   -4.6773   18.3970  -31.9464 H   0  0  0  0  0  0  0  0  0  0  0  0
   -5.7776   17.7985  -33.2795 H   0  0  0  0  0  0  0  0  0  0  0  0
   -4.1446   19.7052  -33.7961 H   0  0  0  0  0  0  0  0  0  0  0  0
   -5.8867   19.8422  -34.2950 H   0  0  0  0  0  0  0  0  0  0  0  0
   -6.2923   21.5404  -32.9328 H   0  0  0  0  0  0  0  0  0  0  0  0
   -5.1923   20.8733  -31.6374 H   0  0  0  0  0  0  0  0  0  0  0  0
   -4.4497   22.4810  -34.0774 H   0  0  0  0  0  0  0  0  0  0  0  0
   -4.2818   22.9088  -32.3201 H   0  0  0  0  0  0  0  0  0  0  0  0
   -3.8059   23.2487  -30.7161 H   0  0  0  0  0  0  0  0  0  0  0  0
   -4.4882   22.9487  -28.3473 H   0  0  0  0  0  0  0  0  0  0  0  0
   -3.3845   21.1700  -27.0196 H   0  0  0  0  0  0  0  0  0  0  0  0
   -1.1810   20.0760  -32.5630 H   0  0  0  0  0  0  0  0  0  0  0  0
    1.6010   20.5080  -31.6829 H   0  0  0  0  0  0  0  0  0  0  0  0
    1.1747   18.9846  -32.6681 H   0  0  0  0  0  0  0  0  0  0  0  0
    1.9059   21.5449  -33.5469 H   0  0  0  0  0  0  0  0  0  0  0  0
    1.4689   19.9903  -34.4434 H   0  0  0  0  0  0  0  0  0  0  0  0
   -0.6180   21.8340  -33.6070 H   0  0  0  0  0  0  0  0  0  0  0  0
    0.0406   21.6746  -36.3471 H   0  0  0  0  0  0  0  0  0  0  0  0
   -0.2589   23.1472  -35.3178 H   0  0  0  0  0  0  0  0  0  0  0  0
    2.1674   22.6818  -34.4817 H   0  0  0  0  0  0  0  0  0  0  0  0
    2.3146   21.7926  -36.0356 H   0  0  0  0  0  0  0  0  0  0  0  0
    1.8753   23.5343  -36.0356 H   0  0  0  0  0  0  0  0  0  0  0  0
    1.2101   18.2470  -31.1508 H   0  0  0  0  0  0  0  0  0  0  0  0
    2.3479   16.6047  -29.7407 H   0  0  0  0  0  0  0  0  0  0  0  0
    1.6196   16.3514  -27.3648 H   0  0  0  0  0  0  0  0  0  0  0  0
   -0.2346   17.7687  -26.5070 H   0  0  0  0  0  0  0  0  0  0  0  0
   -1.1692   19.6126  -25.7728 H   0  0  0  0  0  0  0  0  0  0  0  0
   -2.7539   20.2674  -26.3082 H   0  0  0  0  0  0  0  0  0  0  0  0
   -2.4687   18.4939  -26.3082 H   0  0  0  0  0  0  0  0  0  0  0  0
  1  2  1  0
  2  3  1  0
  3  4  1  0
  4  5  1  0
  5  6  1  0
  6  7  1  0
  7  8  1  0
  8  9  1  0
  9 10  1  0
 10 11  1  0
 11 12  1  0
 12 13  1  0
 13 14  1  0
 14 15  1  0
 15 16  1  0
 16 17  2  0
 16 18  1  0
 18 19  1  0
 19 20  2  0
 20 21  1  0
 21 22  2  0
 22 23  1  0
 23 24  2  0
 24 25  1  0
 25 26  1  0
 26 27  1  0
 27 28  1  0
 28 29  1  0
 29 30  1  0
 30 31  1  0
 25 32  2  0
 32 33  1  0
 33 34  2  0
 34 35  1  0
 35 36  2  0
 36 37  1  0
 37 38  2  0
 38 39  1  0
 24 19  1  0
 37 32  1  0
 38 23  1  0
  1 40  1  0
  1 41  1  0
  1 42  1  0
  2 43  1  0
  2 44  1  0
  3 45  1  0
  3 46  1  0
  4 47  1  0
  4 48  1  0
  5 49  1  0
  5 50  1  0
  6 51  1  0
  6 52  1  0
  7 53  1  0
  7 54  1  0
  8 55  1  0
  8 56  1  0
  9 57  1  0
  9 58  1  0
 10 59  1  0
 10 60  1  0
 11 61  1  0
 11 62  1  0
 12 63  1  0
 12 64  1  0
 13 65  1  0
 13 66  1  0
 14 67  1  0
 14 68  1  0
 15 69  1  0
 15 70  1  0
 20 71  1  0
 21 72  1  0
 22 73  1  0
 26 74  1  0
 27 75  1  0
 27 76  1  0
 28 77  1  0
 28 78  1  0
 29 79  1  0
 30 80  1  0
 30 81  1  0
 31 82  1  0
 31 83  1  0
 31 84  1  0
 33 85  1  0
 34 86  1  0
 35 87  1  0
 36 88  1  0
 39 89  1  0
 39 90  1  0
 39 91  1  0
M  CHG  1  38   1
M  END
>  <smiles>  (6) 
CCCCCCCCCCCCCCCC(=O)Oc1cccc2c1c(NCCNCC)c1ccccc1[n+]2C

>  <score_type>  (6) 
oracle

>  <origin>  (6) 
adg

>  <m_score__min__energy>  (6) 
-10.93

>  <m_primary>  (6) 
energy

$$$$
6:0
     RDKit          3D

 27 28  0  0  0  0  0  0  0  0999 V2000
   -3.4510   24.2010  -28.0180 C   0  0  0  0  0  0  0  0  0  0  0  0
   -4.1250   24.5030  -29.3000 C   0  0  0  0  0  0  0  0  0  0  0  0
   -5.2960   23.9400  -29.6630 N   0  0  0  0  0  0  0  0  0  0  0  0
   -5.6630   24.4020  -30.8730 C   0  0  0  0  0  0  0  0  0  0  0  0
   -6.8760   24.0350  -31.6200 C   0  0  0  0  0  0  0  0  0  0  0  0
   -6.7490   22.7940  -32.3440 N   0  0  0  0  0  0  0  0  0  0  0  0
   -7.0650   21.5760  -31.6860 C   0  0  0  0  0  0  0  0  0  0  0  0
   -7.4470   21.6890  -30.4730 O   0  0  0  0  0  0  0  0  0  0  0  0
   -6.9690   20.2710  -32.3300 C   0  0  0  0  0  0  0  0  0  0  0  0
   -6.1520   20.0220  -33.4160 C   0  0  0  0  0  0  0  0  0  0  0  0
   -6.0820   18.7730  -34.0070 C   0  0  0  0  0  0  0  0  0  0  0  0
   -6.8430   17.7280  -33.5100 C   0  0  0  0  0  0  0  0  0  0  0  0
   -6.7650   16.5130  -34.0950 F   0  0  0  0  0  0  0  0  0  0  0  0
   -7.6490   17.9990  -32.4280 C   0  0  0  0  0  0  0  0  0  0  0  0
   -7.7310   19.2390  -31.8280 C   0  0  0  0  0  0  0  0  0  0  0  0
   -4.6660   25.2640  -31.2170 N   0  0  0  0  0  0  0  0  0  0  0  0
   -3.7940   25.2920  -30.2770 O   0  0  0  0  0  0  0  0  0  0  0  0
   -4.1040   24.4936  -27.1826 H   0  0  0  0  0  0  0  0  0  0  0  0
   -3.2412   23.1228  -27.9591 H   0  0  0  0  0  0  0  0  0  0  0  0
   -2.5067   24.7621  -27.9591 H   0  0  0  0  0  0  0  0  0  0  0  0
   -7.7087   23.9395  -30.9077 H   0  0  0  0  0  0  0  0  0  0  0  0
   -7.0527   24.8275  -32.3621 H   0  0  0  0  0  0  0  0  0  0  0  0
   -6.4310   22.7850  -33.3370 H   0  0  0  0  0  0  0  0  0  0  0  0
   -5.5396   20.8404  -33.8225 H   0  0  0  0  0  0  0  0  0  0  0  0
   -5.4219   18.6099  -34.8717 H   0  0  0  0  0  0  0  0  0  0  0  0
   -8.2617   17.1822  -32.0188 H   0  0  0  0  0  0  0  0  0  0  0  0
   -8.3929   19.4005  -30.9644 H   0  0  0  0  0  0  0  0  0  0  0  0
  1  2  1  0
  2  3  2  0
  3  4  1  0
  4  5  1  0
  5  6  1  0
  6  7  1  0
  7  8  2  0
  7  9  1  0
  9 10  2  0
 10 11  1  0
 11 12  2  0
 12 13  1  0
 12 14  1  0
 14 15  2  0
  4 16  2  0
 16 17  1  0
 17  2  1  0
 15  9  1  0
  1 18  1  0
  1 19  1  0
  1 20  1  0
  5 21  1  0
  5 22  1  0
  6 23  1  0
 10 24  1  0
 11 25  1  0
 14 26  1  0
 15 27  1  0
M  END
>  <smiles>  (7) 
Cc1nc(CNC(=O)c2ccc(F)cc2)no1

>  <score_type>  (7) 
oracle

>  <origin>  (7) 
adg

>  <m_score__min__energy>  (7) 
-7.5899999999999999

>  <m_primary>  (7) 
energy

$$$$
7:0
     RDKit          3D

 62 64  0  0  0  0  0  0  0  0999 V2000
   -0.8540   24.8140  -28.9720 C   0  0  0  0  0  0  0  0  0  0  0  0
   -1.7700   24.6950  -27.7760 C   0  0  0  0  0  0  0  0  0  0  0  0
   -2.7920   23.7540  -27.9350 N   0  0  0  0  0  0  0  0  0  0  0  0
   -4.1330   24.1550  -27.6800 C   0  0  0  0  0  0  0  0  0  0  0  0
   -4.3340   24.9400  -26.4090 C   0  0  0  0  0  0  0  0  0  0  0  0
   -2.5250   22.3910  -27.8160 C   0  0  0  0  0  0  0  0  0  0  0  0
   -3.3810   21.4160  -28.5500 C   0  0  0  0  0  0  0  0  0  0  0  0
   -2.6180   20.9000  -29.7900 C   0  0  0  0  0  0  0  0  0  0  0  0
   -2.1290   22.0670  -30.4440 N   0  0  0  0  0  0  0  0  0  0  0  0
   -1.7500   21.9330  -31.8100 C   0  0  0  0  0  0  0  0  0  0  0  0
   -2.3260   20.7190  -32.5110 C   0  0  0  0  0  0  0  0  0  0  0  0
   -3.4970   21.1090  -33.3160 N   0  0  0  0  0  0  0  0  0  0  0  0
   -4.8090   20.8860  -32.8280 C   0  0  0  0  0  0  0  0  0  0  0  0
   -5.3910   19.6640  -33.1850 C   0  0  0  0  0  0  0  0  0  0  0  0
   -4.6840   18.7660  -33.9760 C   0  0  0  0  0  0  0  0  0  0  0  0
   -5.2650   17.5670  -34.3220 C   0  0  0  0  0  0  0  0  0  0  0  0
   -6.5350   17.2620  -33.8870 C   0  0  0  0  0  0  0  0  0  0  0  0
   -7.2230   18.1800  -33.0950 C   0  0  0  0  0  0  0  0  0  0  0  0
   -6.6680   19.3960  -32.7290 C   0  0  0  0  0  0  0  0  0  0  0  0
   -7.3560   20.2830  -31.9540 N   0  0  0  0  0  0  0  0  0  0  0  0
   -8.6800   19.8850  -31.5480 C   0  0  0  0  0  0  0  0  0  0  0  0
   -6.7710   21.4410  -31.6310 C   0  0  0  0  0  0  0  0  0  0  0  0
   -7.4410   22.3510  -30.8490 C   0  0  0  0  0  0  0  0  0  0  0  0
   -6.8370   23.5530  -30.5090 C   0  0  0  0  0  0  0  0  0  0  0  0
   -5.5720   23.9020  -30.9210 C   0  0  0  0  0  0  0  0  0  0  0  0
   -4.9850   25.1500  -30.5540 N   0  0  0  0  0  0  0  0  0  0  0  0
   -3.7610   25.2650  -30.6090 O   0  0  0  0  0  0  0  0  0  0  0  0
   -5.8320   26.1740  -30.1550 O   0  0  0  0  0  0  0  0  0  0  0  0
   -4.8990   22.9810  -31.7090 C   0  0  0  0  0  0  0  0  0  0  0  0
   -5.4980   21.7850  -32.0470 C   0  0  0  0  0  0  0  0  0  0  0  0
    0.1822   24.9486  -28.6283 H   0  0  0  0  0  0  0  0  0  0  0  0
   -0.9230   23.8993  -29.5792 H   0  0  0  0  0  0  0  0  0  0  0  0
   -1.1544   25.6807  -29.5792 H   0  0  0  0  0  0  0  0  0  0  0  0
   -1.1651   24.4050  -26.9042 H   0  0  0  0  0  0  0  0  0  0  0  0
   -2.2552   25.6738  -27.6475 H   0  0  0  0  0  0  0  0  0  0  0  0
   -4.4686   24.7780  -28.5222 H   0  0  0  0  0  0  0  0  0  0  0  0
   -4.7134   23.2279  -27.5630 H   0  0  0  0  0  0  0  0  0  0  0  0
   -4.1660   24.2838  -25.5423 H   0  0  0  0  0  0  0  0  0  0  0  0
   -3.6213   25.7773  -26.3786 H   0  0  0  0  0  0  0  0  0  0  0  0
   -5.3614   25.3317  -26.3786 H   0  0  0  0  0  0  0  0  0  0  0  0
   -1.4920   22.2345  -28.1600 H   0  0  0  0  0  0  0  0  0  0  0  0
   -2.7311   22.1753  -26.7572 H   0  0  0  0  0  0  0  0  0  0  0  0
   -3.6240   20.5704  -27.8898 H   0  0  0  0  0  0  0  0  0  0  0  0
   -4.3115   21.9088  -28.8683 H   0  0  0  0  0  0  0  0  0  0  0  0
   -1.7837   20.2506  -29.4862 H   0  0  0  0  0  0  0  0  0  0  0  0
   -3.2642   20.3014  -30.4489 H   0  0  0  0  0  0  0  0  0  0  0  0
   -2.7120   22.8890  -30.2850 H   0  0  0  0  0  0  0  0  0  0  0  0
   -2.0863   22.8313  -32.3486 H   0  0  0  0  0  0  0  0  0  0  0  0
   -0.6573   21.8071  -31.8183 H   0  0  0  0  0  0  0  0  0  0  0  0
   -1.5609   20.2816  -33.1693 H   0  0  0  0  0  0  0  0  0  0  0  0
   -2.6364   19.9807  -31.7570 H   0  0  0  0  0  0  0  0  0  0  0  0
   -3.3250   21.5500  -34.2440 H   0  0  0  0  0  0  0  0  0  0  0  0
   -3.6692   19.0113  -34.3224 H   0  0  0  0  0  0  0  0  0  0  0  0
   -4.7129   16.8505  -34.9479 H   0  0  0  0  0  0  0  0  0  0  0  0
   -7.0018   16.3045  -34.1613 H   0  0  0  0  0  0  0  0  0  0  0  0
   -8.2375   17.9316  -32.7500 H   0  0  0  0  0  0  0  0  0  0  0  0
   -8.7371   19.8678  -30.4496 H   0  0  0  0  0  0  0  0  0  0  0  0
   -9.4154   20.6018  -31.9422 H   0  0  0  0  0  0  0  0  0  0  0  0
   -8.8983   18.8815  -31.9422 H   0  0  0  0  0  0  0  0  0  0  0  0
   -8.4570   22.1263  -30.4923 H   0  0  0  0  0  0  0  0  0  0  0  0
   -7.3967   24.2607  -29.8798 H   0  0  0  0  0  0  0  0  0  0  0  0
   -3.8830   23.2048  -32.0663 H   0  0  0  0  0  0  0  0  0  0  0  0
  1  2  1  0
  2  3  1  0
  3  4  1  0
  4  5  1  0
  3  6  1  0
  6  7  1  0
  7  8  1  0
  8  9  1  0
  9 10  1  0
 10 11  1  0
 11 12  1  0
 12 13  1  0
 13 14  2  0
 14 15  1  0
 15 16  2  0
 16 17  1  0
 17 18  2  0
 18 19  1  0
 19 20  2  0
 20 21  1  0
 20 22  1  0
 22 23  2  0
 23 24  1  0
 24 25  2  0
 25 26  1  0
 26 27  2  0
 26 28  1  0
 25 29  1  0
 29 30  2  0
 30 13  1  0
 19 14  1  0
 30 22  1  0
  1 31  1  0
  1 32  1  0
  1 33  1  0
  2 34  1  0
  2 35  1  0
  4 36  1  0
  4 37  1  0
  5 38  1  0
  5 39  1  0
  5 40  1  0
  6 41  1  0
  6 42  1  0
  7 43  1  0
  7 44  1  0
  8 45  1  0
  8 46  1  0
  9 47  1  0
 10 48  1  0
 10 49  1  0
 11 50  1  0
 11 51  1  0
 12 52  1  0
 15 53  1  0
 16 54  1  0
 17 55  1  0
 18 56  1  0
 21 57  1  0
 21 58  1  0
 21 59  1  0
 23 60  1  0
 24 61  1  0
 29 62  1  0
M  CHG  3  20   1  26   1  28  -1
M  END
>  <smiles>  (8) 
CCN(CC)CCCNCCNc1c2ccccc2[n+](C)c2ccc([N+](=O)[O-])cc12

>  <score_type>  (8) 
oracle

>  <origin>  (8) 
adg

>  <m_score__min__energy>  (8) 
-10.17

>  <m_primary>  (8) 
energy

$$$$
8:0
     RDKit          3D

 41 43  0  0  0  0  0  0  0  0999 V2000
    0.2210   27.1800  -22.8410 C   0  0  0  0  0  0  0  0  0  0  0  0
   -0.3970   26.4970  -24.0250 C   0  0  0  0  0  0  0  0  0  0  0  0
   -1.1450   27.1920  -24.9520 C   0  0  0  0  0  0  0  0  0  0  0  0
   -1.7030   26.5500  -26.0310 C   0  0  0  0  0  0  0  0  0  0  0  0
   -1.4870   25.1850  -26.1500 C   0  0  0  0  0  0  0  0  0  0  0  0
   -2.0200   24.4260  -27.2280 N   0  0  0  0  0  0  0  0  0  0  0  0
   -1.2910   24.3130  -28.4410 C   0  0  0  0  0  0  0  0  0  0  0  0
   -0.1630   24.8760  -28.5900 O   0  0  0  0  0  0  0  0  0  0  0  0
   -1.8850   23.5130  -29.5390 C   0  0  0  0  0  0  0  0  0  0  0  0
   -3.3340   23.5490  -29.5440 N   0  0  0  0  0  0  0  0  0  0  0  0
   -4.2020   22.8120  -28.6600 C   0  0  0  0  0  0  0  0  0  0  0  0
   -3.8290   22.0160  -27.7370 O   0  0  0  0  0  0  0  0  0  0  0  0
   -5.5610   23.1420  -29.0120 N   0  0  0  0  0  0  0  0  0  0  0  0
   -5.4880   23.5510  -30.3960 C   0  0  0  0  0  0  0  0  0  0  0  0
   -6.6620   24.3570  -30.8630 C   0  0  0  0  0  0  0  0  0  0  0  0
   -7.6330   23.3520  -31.4140 C   0  0  0  0  0  0  0  0  0  0  0  0
   -6.8300   22.1620  -31.8480 C   0  0  0  0  0  0  0  0  0  0  0  0
   -5.4130   22.3690  -31.3370 C   0  0  0  0  0  0  0  0  0  0  0  0
   -4.2030   24.3030  -30.4070 C   0  0  0  0  0  0  0  0  0  0  0  0
   -3.8770   25.3490  -30.9960 O   0  0  0  0  0  0  0  0  0  0  0  0
   -0.7350   24.4950  -25.2150 C   0  0  0  0  0  0  0  0  0  0  0  0
   -0.4530   22.6120  -25.4040 Br  0  0  0  0  0  0  0  0  0  0  0  0
   -0.1680   25.1380  -24.1230 C   0  0  0  0  0  0  0  0  0  0  0  0
   -0.1772   26.7400  -21.9148 H   0  0  0  0  0  0  0  0  0  0  0  0
    1.3126   27.0478  -22.8700 H   0  0  0  0  0  0  0  0  0  0  0  0
   -0.0193   28.2530  -22.8700 H   0  0  0  0  0  0  0  0  0  0  0  0
   -1.2968   28.2742  -24.8259 H   0  0  0  0  0  0  0  0  0  0  0  0
   -2.2999   27.0990  -26.7742 H   0  0  0  0  0  0  0  0  0  0  0  0
   -2.9570   23.9570  -27.1060 H   0  0  0  0  0  0  0  0  0  0  0  0
   -1.5209   23.9092  -30.4984 H   0  0  0  0  0  0  0  0  0  0  0  0
   -1.5817   22.4668  -29.3861 H   0  0  0  0  0  0  0  0  0  0  0  0
   -6.3800   23.0800  -28.3640 H   0  0  0  0  0  0  0  0  0  0  0  0
   -7.1110   24.9075  -30.0231 H   0  0  0  0  0  0  0  0  0  0  0  0
   -6.3741   25.1067  -31.6147 H   0  0  0  0  0  0  0  0  0  0  0  0
   -8.3547   23.0584  -30.6375 H   0  0  0  0  0  0  0  0  0  0  0  0
   -8.1992   23.7735  -32.2577 H   0  0  0  0  0  0  0  0  0  0  0  0
   -7.2554   21.2428  -31.4189 H   0  0  0  0  0  0  0  0  0  0  0  0
   -6.8405   22.0607  -32.9433 H   0  0  0  0  0  0  0  0  0  0  0  0
   -5.0633   21.4738  -30.8018 H   0  0  0  0  0  0  0  0  0  0  0  0
   -4.7058   22.5486  -32.1602 H   0  0  0  0  0  0  0  0  0  0  0  0
    0.4307   24.5953  -23.3767 H   0  0  0  0  0  0  0  0  0  0  0  0
  1  2  1  0
  2  3  2  0
  3  4  1  0
  4  5  2  0
  5  6  1  0
  6  7  1  0
  7  8  2  0
  7  9  1  0
  9 10  1  0
 10 11  1  0
 11 12  2  0
 11 13  1  0
 13 14  1  0
 14 15  1  0
 15 16  1  0
 16 17  1  0
 17 18  1  0
 14 19  1  0
 19 20  2  0
  5 21  1  0
 21 22  1  0
 21 23  2  0
 23  2  1  0
 19 10  1  0
 18 14  1  0
  1 24  1  0
  1 25  1  0
  1 26  1  0
  3 27  1  0
  4 28  1  0
  6 29  1  0
  9 30  1  0
  9 31  1  0
 13 32  1  0
 15 33  1  0
 15 34  1  0
 16 35  1  0
 16 36  1  0
 17 37  1  0
 17 38  1  0
 18 39  1  0
 18 40  1  0
 23 41  1  0
M  END
>  <smiles>  (9) 
Cc1ccc(NC(=O)CN2C(=O)NC3(CCCC3)C2=O)c(Br)c1

>  <score_type>  (9) 
oracle

>  <origin>  (9) 
adg

>  <m_score__min__energy>  (9) 
-8.3599999999999994

>  <m_primary>  (9) 
energy

$$$$
9:0
     RDKit          3D

 60 63  0  0  0  0  0  0  0  0999 V2000
   -0.8900   21.6100  -30.6390 C   0  0  0  0  0  0  0  0  0  0  0  0
   -2.1290   21.1120  -29.9680 C   0  0  0  0  0  0  0  0  0  0  0  0
   -3.1400   22.0930  -29.6980 N   0  0  0  0  0  0  0  0  0  0  0  0
   -3.4840   21.8590  -28.2560 C   0  0  0  0  0  0  0  0  0  0  0  0
   -2.7910   20.6450  -27.7370 C   0  0  0  0  0  0  0  0  0  0  0  0
   -2.6300   23.4430  -29.7400 C   0  0  0  0  0  0  0  0  0  0  0  0
   -3.6610   24.4940  -29.7140 C   0  0  0  0  0  0  0  0  0  0  0  0
   -4.3080   24.6960  -30.9570 O   0  0  0  0  0  0  0  0  0  0  0  0
   -5.6730   24.6230  -30.8850 C   0  0  0  0  0  0  0  0  0  0  0  0
   -6.1990   23.1820  -30.9360 C   0  0  0  0  0  0  0  0  0  0  0  0
   -5.9340   22.6900  -32.2710 N   0  0  0  0  0  0  0  0  0  0  0  0
   -5.8970   21.2990  -32.5780 C   0  0  0  0  0  0  0  0  0  0  0  0
   -4.7360   20.6390  -32.9330 C   0  0  0  0  0  0  0  0  0  0  0  0
   -4.7880   19.2880  -33.2040 C   0  0  0  0  0  0  0  0  0  0  0  0
   -5.9480   18.5770  -33.1340 N   0  0  0  0  0  0  0  0  0  0  0  0
   -5.9480   17.1430  -33.4300 C   0  0  0  0  0  0  0  0  0  0  0  0
   -7.0930   19.2000  -32.7900 C   0  0  0  0  0  0  0  0  0  0  0  0
   -8.2940   18.5210  -32.7050 C   0  0  0  0  0  0  0  0  0  0  0  0
   -9.4820   19.1500  -32.3500 C   0  0  0  0  0  0  0  0  0  0  0  0
   -9.4070   20.5090  -32.0800 C   0  0  0  0  0  0  0  0  0  0  0  0
   -8.2200   21.2100  -32.1580 C   0  0  0  0  0  0  0  0  0  0  0  0
   -7.0620   20.5640  -32.5120 C   0  0  0  0  0  0  0  0  0  0  0  0
   -3.4460   18.8410  -33.5590 C   0  0  0  0  0  0  0  0  0  0  0  0
   -2.7370   17.7960  -33.9150 O   0  0  0  0  0  0  0  0  0  0  0  0
   -1.4780   18.1280  -34.0920 C   0  0  0  0  0  0  0  0  0  0  0  0
   -1.3050   19.4830  -33.8430 C   0  0  0  0  0  0  0  0  0  0  0  0
   -0.0820   20.2880  -33.9150 C   0  0  0  0  0  0  0  0  0  0  0  0
   -2.5800   19.9420  -33.4980 C   0  0  0  0  0  0  0  0  0  0  0  0
   -3.3720   21.1210  -33.0980 C   0  0  0  0  0  0  0  0  0  0  0  0
   -2.9490   22.2970  -32.9350 O   0  0  0  0  0  0  0  0  0  0  0  0
   -0.1540   21.9058  -29.8770 H   0  0  0  0  0  0  0  0  0  0  0  0
   -0.4671   20.8120  -31.2670 H   0  0  0  0  0  0  0  0  0  0  0  0
   -1.1370   22.4787  -31.2670 H   0  0  0  0  0  0  0  0  0  0  0  0
   -2.5737   20.3405  -30.6138 H   0  0  0  0  0  0  0  0  0  0  0  0
   -1.8038   20.7452  -28.9833 H   0  0  0  0  0  0  0  0  0  0  0  0
   -3.1726   22.7326  -27.6645 H   0  0  0  0  0  0  0  0  0  0  0  0
   -4.5704   21.7078  -28.1725 H   0  0  0  0  0  0  0  0  0  0  0  0
   -2.7995   20.6600  -26.6371 H   0  0  0  0  0  0  0  0  0  0  0  0
   -3.3111   19.7445  -28.0955 H   0  0  0  0  0  0  0  0  0  0  0  0
   -1.7511   20.6350  -28.0955 H   0  0  0  0  0  0  0  0  0  0  0  0
   -1.9722   23.5874  -28.8703 H   0  0  0  0  0  0  0  0  0  0  0  0
   -2.1068   23.5464  -30.7021 H   0  0  0  0  0  0  0  0  0  0  0  0
   -4.4212   24.2147  -28.9696 H   0  0  0  0  0  0  0  0  0  0  0  0
   -3.1499   25.4355  -29.4642 H   0  0  0  0  0  0  0  0  0  0  0  0
   -5.9994   25.0823  -29.9403 H   0  0  0  0  0  0  0  0  0  0  0  0
   -6.0779   25.1527  -31.7599 H   0  0  0  0  0  0  0  0  0  0  0  0
   -5.6772   22.5614  -30.1926 H   0  0  0  0  0  0  0  0  0  0  0  0
   -7.2742   23.1447  -30.7066 H   0  0  0  0  0  0  0  0  0  0  0  0
   -5.7530   23.3350  -33.0910 H   0  0  0  0  0  0  0  0  0  0  0  0
   -4.9109   16.7839  -33.5041 H   0  0  0  0  0  0  0  0  0  0  0  0
   -6.4665   16.6023  -32.6245 H   0  0  0  0  0  0  0  0  0  0  0  0
   -6.4665   16.9655  -34.3837 H   0  0  0  0  0  0  0  0  0  0  0  0
   -8.3104   17.4436  -32.9263 H   0  0  0  0  0  0  0  0  0  0  0  0
  -10.4319   18.5990  -32.2865 H   0  0  0  0  0  0  0  0  0  0  0  0
  -10.3237   21.0457  -31.7943 H   0  0  0  0  0  0  0  0  0  0  0  0
   -8.2025   22.2873  -31.9362 H   0  0  0  0  0  0  0  0  0  0  0  0
   -0.6789   17.4346  -34.3931 H   0  0  0  0  0  0  0  0  0  0  0  0
    0.2665   20.5174  -32.8972 H   0  0  0  0  0  0  0  0  0  0  0  0
    0.6964   19.7251  -34.4509 H   0  0  0  0  0  0  0  0  0  0  0  0
   -0.2912   21.2256  -34.4509 H   0  0  0  0  0  0  0  0  0  0  0  0
  1  2  1  0
  2  3  1  0
  3  4  1  0
  4  5  1  0
  3  6  1  0
  6  7  1  0
  7  8  1  0
  8  9  1  0
  9 10  1  0
 10 11  1  0
 11 12  1  0
 12 13  2  0
 13 14  1  0
 14 15  2  0
 15 16  1  0
 15 17  1  0
 17 18  2  0
 18 19  1  0
 19 20  2  0
 20 21  1  0
 21 22  2  0
 14 23  1  0
 23 24  1  0
 24 25  1  0
 25 26  2  0
 26 27  1  0
 26 28  1  0
 28 29  1  0
 29 30  2  0
 22 12  1  0
 28 23  2  0
 29 13  1  0
 22 17  1  0
  1 31  1  0
  1 32  1  0
  1 33  1  0
  2 34  1  0
  2 35  1  0
  4 36  1  0
  4 37  1  0
  5 38  1  0
  5 39  1  0
  5 40  1  0
  6 41  1  0
  6 42  1  0
  7 43  1  0
  7 44  1  0
  9 45  1  0
  9 46  1  0
 10 47  1  0
 10 48  1  0
 11 49  1  0
 16 50  1  0
 16 51  1  0
 16 52  1  0
 18 53  1  0
 19 54  1  0
 20 55  1  0
 21 56  1  0
 25 57  1  0
 27 58  1  0
 27 59  1  0
 27 60  1  0
M  CHG  1  15   1
M  END
>  <smiles>  (10) 
CCN(CC)CCOCCNc1c2c([n+](C)c3ccccc13)-c1occ(C)c1C2=O

>  <score_type>  (10) 
oracle

>  <origin>  (10) 
adg

>  <m_score__min__energy>  (10) 
-9.1300000000000008

>  <m_primary>  (10) 
energy

$$$$
10:0
     RDKit          3D

 55 57  0  0  0  0  0  0  0  0999 V2000
   -6.1370   25.2770  -29.5470 C   0  0  0  0  0  0  0  0  0  0  0  0
   -5.3690   25.5570  -30.8350 C   0  0  0  0  0  0  0  0  0  0  0  0
   -3.9900   25.2110  -30.7160 N   0  0  0  0  0  0  0  0  0  0  0  0
   -3.7140   24.0130  -29.9640 C   0  0  0  0  0  0  0  0  0  0  0  0
   -4.1670   22.7630  -30.6520 C   0  0  0  0  0  0  0  0  0  0  0  0
   -3.4690   22.6330  -31.9770 C   0  0  0  0  0  0  0  0  0  0  0  0
   -4.4500   22.3310  -33.0050 N   0  0  0  0  0  0  0  0  0  0  0  0
   -5.2710   21.1790  -32.9320 C   0  0  0  0  0  0  0  0  0  0  0  0
   -6.5660   21.4340  -32.4410 C   0  0  0  0  0  0  0  0  0  0  0  0
   -6.9450   22.7110  -32.0760 C   0  0  0  0  0  0  0  0  0  0  0  0
   -8.1930   23.0340  -31.5970 C   0  0  0  0  0  0  0  0  0  0  0  0
   -9.1130   22.0210  -31.4780 C   0  0  0  0  0  0  0  0  0  0  0  0
   -8.7380   20.7430  -31.8410 C   0  0  0  0  0  0  0  0  0  0  0  0
   -7.4910   20.4270  -32.3180 C   0  0  0  0  0  0  0  0  0  0  0  0
   -7.1480   19.1490  -32.6810 N   0  0  0  0  0  0  0  0  0  0  0  0
   -8.2060   18.1830  -32.4950 C   0  0  0  0  0  0  0  0  0  0  0  0
   -5.9280   18.9090  -33.1440 C   0  0  0  0  0  0  0  0  0  0  0  0
   -5.6380   17.6060  -33.5090 C   0  0  0  0  0  0  0  0  0  0  0  0
   -4.3860   17.3250  -34.0020 C   0  0  0  0  0  0  0  0  0  0  0  0
   -3.4490   18.3220  -34.1260 C   0  0  0  0  0  0  0  0  0  0  0  0
   -3.6930   19.6480  -33.7740 C   0  0  0  0  0  0  0  0  0  0  0  0
   -2.6270   20.5620  -33.8510 N   0  0  0  0  0  0  0  0  0  0  0  0
   -1.3350   20.1450  -33.2580 C   0  0  0  0  0  0  0  0  0  0  0  0
   -0.3640   21.2950  -33.2680 C   0  0  0  0  0  0  0  0  0  0  0  0
   -0.4700   21.9190  -34.5460 O   0  0  0  0  0  0  0  0  0  0  0  0
   -4.9510   19.9110  -33.2840 C   0  0  0  0  0  0  0  0  0  0  0  0
   -5.4989   25.5096  -28.6817 H   0  0  0  0  0  0  0  0  0  0  0  0
   -7.0406   25.9036  -29.5153 H   0  0  0  0  0  0  0  0  0  0  0  0
   -6.4253   24.2159  -29.5153 H   0  0  0  0  0  0  0  0  0  0  0  0
   -5.8147   24.9682  -31.6503 H   0  0  0  0  0  0  0  0  0  0  0  0
   -5.4340   26.6350  -31.0441 H   0  0  0  0  0  0  0  0  0  0  0  0
   -3.4450   25.3030  -31.5870 H   0  0  0  0  0  0  0  0  0  0  0  0
   -2.6284   23.9468  -29.7993 H   0  0  0  0  0  0  0  0  0  0  0  0
   -4.2735   24.0856  -29.0197 H   0  0  0  0  0  0  0  0  0  0  0  0
   -3.9258   21.8923  -30.0246 H   0  0  0  0  0  0  0  0  0  0  0  0
   -5.2537   22.8104  -30.8157 H   0  0  0  0  0  0  0  0  0  0  0  0
   -2.9607   23.5779  -32.2195 H   0  0  0  0  0  0  0  0  0  0  0  0
   -2.7257   21.8238  -31.9258 H   0  0  0  0  0  0  0  0  0  0  0  0
   -4.5840   22.9250  -33.8760 H   0  0  0  0  0  0  0  0  0  0  0  0
   -6.2042   23.5181  -32.1743 H   0  0  0  0  0  0  0  0  0  0  0  0
   -8.4457   24.0678  -31.3188 H   0  0  0  0  0  0  0  0  0  0  0  0
  -10.1265   22.2237  -31.1016 H   0  0  0  0  0  0  0  0  0  0  0  0
   -9.4782   19.9352  -31.7426 H   0  0  0  0  0  0  0  0  0  0  0  0
   -8.3759   18.0279  -31.4193 H   0  0  0  0  0  0  0  0  0  0  0  0
   -9.1294   18.5561  -32.9620 H   0  0  0  0  0  0  0  0  0  0  0  0
   -7.9182   17.2295  -32.9620 H   0  0  0  0  0  0  0  0  0  0  0  0
   -6.3929   16.8125  -33.4068 H   0  0  0  0  0  0  0  0  0  0  0  0
   -4.1330   16.2964  -34.2988 H   0  0  0  0  0  0  0  0  0  0  0  0
   -2.4569   18.0606  -34.5228 H   0  0  0  0  0  0  0  0  0  0  0  0
   -2.5820   21.5070  -34.2270 H   0  0  0  0  0  0  0  0  0  0  0  0
   -1.4999   19.8175  -32.2209 H   0  0  0  0  0  0  0  0  0  0  0  0
   -0.9180   19.3176  -33.8509 H   0  0  0  0  0  0  0  0  0  0  0  0
   -0.6202   22.0127  -32.4747 H   0  0  0  0  0  0  0  0  0  0  0  0
    0.6625   20.9437  -33.0866 H   0  0  0  0  0  0  0  0  0  0  0  0
   -1.4120   22.2460  -34.6840 H   0  0  0  0  0  0  0  0  0  0  0  0
  1  2  1  0
  2  3  1  0
  3  4  1  0
  4  5  1  0
  5  6  1  0
  6  7  1  0
  7  8  1  0
  8  9  2  0
  9 10  1  0
 10 11  2  0
 11 12  1  0
 12 13  2  0
 13 14  1  0
 14 15  2  0
 15 16  1  0
 15 17  1  0
 17 18  2  0
 18 19  1  0
 19 20  2  0
 20 21  1  0
 21 22  1  0
 22 23  1  0
 23 24  1  0
 24 25  1  0
 21 26  2  0
 26  8  1  0
 14  9  1  0
 26 17  1  0
  1 27  1  0
  1 28  1  0
  1 29  1  0
  2 30  1  0
  2 31  1  0
  3 32  1  0
  4 33  1  0
  4 34  1  0
  5 35  1  0
  5 36  1  0
  6 37  1  0
  6 38  1  0
  7 39  1  0
 10 40  1  0
 11 41  1  0
 12 42  1  0
 13 43  1  0
 16 44  1  0
 16 45  1  0
 16 46  1  0
 18 47  1  0
 19 48  1  0
 20 49  1  0
 22 50  1  0
 23 51  1  0
 23 52  1  0
 24 53  1  0
 24 54  1  0
 25 55  1  0
M  CHG  1  15   1
M  END
>  <smiles>  (11) 
CCNCCCNc1c2ccccc2[n+](C)c2cccc(NCCO)c12

>  <score_type>  (11) 
oracle

>  <origin>  (11) 
adg

>  <m_score__min__energy>  (11) 
-9.9100000000000001

>  <m_primary>  (11) 
energy

$$$$
11:0
     RDKit          3D

 60 62  0  0  0  0  0  0  0  0999 V2000
   -6.7360   24.9490  -30.0680 C   0  0  0  0  0  0  0  0  0  0  0  0
   -5.2290   24.8570  -29.9100 C   0  0  0  0  0  0  0  0  0  0  0  0
   -4.6970   24.4800  -31.1500 O   0  0  0  0  0  0  0  0  0  0  0  0
   -4.3880   23.1360  -31.3940 C   0  0  0  0  0  0  0  0  0  0  0  0
   -3.9330   22.3800  -30.4930 O   0  0  0  0  0  0  0  0  0  0  0  0
   -4.6100   22.6400  -32.7150 N   0  0  0  0  0  0  0  0  0  0  0  0
   -4.3350   21.2930  -33.0760 C   0  0  0  0  0  0  0  0  0  0  0  0
   -3.0210   21.0010  -33.4010 C   0  0  0  0  0  0  0  0  0  0  0  0
   -2.6620   19.7180  -33.7660 C   0  0  0  0  0  0  0  0  0  0  0  0
   -3.5830   18.6850  -33.8230 C   0  0  0  0  0  0  0  0  0  0  0  0
   -4.8820   19.0100  -33.4930 C   0  0  0  0  0  0  0  0  0  0  0  0
   -5.2620   20.2950  -33.1230 C   0  0  0  0  0  0  0  0  0  0  0  0
   -5.8740   18.0580  -33.5080 C   0  0  0  0  0  0  0  0  0  0  0  0
   -7.2310   18.3200  -33.1770 N   0  0  0  0  0  0  0  0  0  0  0  0
   -7.6040   18.1060  -31.7790 C   0  0  0  0  0  0  0  0  0  0  0  0
   -8.7580   19.0190  -31.3960 C   0  0  0  0  0  0  0  0  0  0  0  0
   -8.6100   20.2950  -32.2310 C   0  0  0  0  0  0  0  0  0  0  0  0
   -8.2840   21.3730  -31.3110 N   0  0  0  0  0  0  0  0  0  0  0  0
   -9.4400   21.6780  -30.4860 C   0  0  0  0  0  0  0  0  0  0  0  0
   -7.8450   22.5410  -32.0560 C   0  0  0  0  0  0  0  0  0  0  0  0
   -9.0640   23.4000  -32.3050 C   0  0  0  0  0  0  0  0  0  0  0  0
   -5.5040   16.7780  -33.8650 C   0  0  0  0  0  0  0  0  0  0  0  0
   -6.4900   15.8170  -33.8760 C   0  0  0  0  0  0  0  0  0  0  0  0
   -6.2170   14.5080  -34.2140 C   0  0  0  0  0  0  0  0  0  0  0  0
   -4.9170   14.1900  -34.5430 C   0  0  0  0  0  0  0  0  0  0  0  0
   -3.9340   15.1640  -34.5280 C   0  0  0  0  0  0  0  0  0  0  0  0
   -4.1930   16.4790  -34.1930 C   0  0  0  0  0  0  0  0  0  0  0  0
   -3.2120   17.4240  -34.1790 N   0  0  0  0  0  0  0  0  0  0  0  0
   -1.8650   17.1090  -34.5380 C   0  0  0  0  0  0  0  0  0  0  0  0
   -7.2077   24.9778  -29.0747 H   0  0  0  0  0  0  0  0  0  0  0  0
   -6.9914   25.8644  -30.6219 H   0  0  0  0  0  0  0  0  0  0  0  0
   -7.1009   24.0715  -30.6219 H   0  0  0  0  0  0  0  0  0  0  0  0
   -4.8228   25.8338  -29.6086 H   0  0  0  0  0  0  0  0  0  0  0  0
   -4.9652   24.1214  -29.1358 H   0  0  0  0  0  0  0  0  0  0  0  0
   -4.9860   23.2610  -33.4740 H   0  0  0  0  0  0  0  0  0  0  0  0
   -2.2596   21.7943  -33.3684 H   0  0  0  0  0  0  0  0  0  0  0  0
   -1.6119   19.5102  -34.0193 H   0  0  0  0  0  0  0  0  0  0  0  0
   -6.3110   20.5063  -32.8681 H   0  0  0  0  0  0  0  0  0  0  0  0
   -7.8870   18.6400  -33.9040 H   0  0  0  0  0  0  0  0  0  0  0  0
   -7.9088   17.0581  -31.6409 H   0  0  0  0  0  0  0  0  0  0  0  0
   -6.7392   18.3339  -31.1386 H   0  0  0  0  0  0  0  0  0  0  0  0
   -9.7177   18.5299  -31.6190 H   0  0  0  0  0  0  0  0  0  0  0  0
   -8.7398   19.2474  -30.3201 H   0  0  0  0  0  0  0  0  0  0  0  0
   -7.8034   20.1717  -32.9687 H   0  0  0  0  0  0  0  0  0  0  0  0
   -9.5387   20.5147  -32.7780 H   0  0  0  0  0  0  0  0  0  0  0  0
   -9.1623   21.6047  -29.4242 H   0  0  0  0  0  0  0  0  0  0  0  0
   -9.7874   22.6985  -30.7045 H   0  0  0  0  0  0  0  0  0  0  0  0
  -10.2457   20.9617  -30.7045 H   0  0  0  0  0  0  0  0  0  0  0  0
   -7.1017   23.1028  -31.4714 H   0  0  0  0  0  0  0  0  0  0  0  0
   -7.3775   22.2436  -33.0063 H   0  0  0  0  0  0  0  0  0  0  0  0
   -9.4992   23.7067  -31.3425 H   0  0  0  0  0  0  0  0  0  0  0  0
   -8.7725   24.2933  -32.8769 H   0  0  0  0  0  0  0  0  0  0  0  0
   -9.8072   22.8250  -32.8769 H   0  0  0  0  0  0  0  0  0  0  0  0
   -7.5190   16.0997  -33.6091 H   0  0  0  0  0  0  0  0  0  0  0  0
   -7.0090   13.7447  -34.2207 H   0  0  0  0  0  0  0  0  0  0  0  0
   -4.6594   13.1568  -34.8189 H   0  0  0  0  0  0  0  0  0  0  0  0
   -2.9051   14.8797  -34.7935 H   0  0  0  0  0  0  0  0  0  0  0  0
   -1.2658   16.9689  -33.6263 H   0  0  0  0  0  0  0  0  0  0  0  0
   -1.8508   16.1833  -35.1320 H   0  0  0  0  0  0  0  0  0  0  0  0
   -1.4417   17.9324  -35.1320 H   0  0  0  0  0  0  0  0  0  0  0  0
  1  2  1  0
  2  3  1  0
  3  4  1  0
  4  5  2  0
  4  6  1  0
  6  7  1  0
  7  8  2  0
  8  9  1  0
  9 10  2  0
 10 11  1  0
 11 12  2  0
 11 13  1  0
 13 14  1  0
 14 15  1  0
 15 16  1  0
 16 17  1  0
 17 18  1  0
 18 19  1  0
 18 20  1  0
 20 21  1  0
 13 22  2  0
 22 23  1  0
 23 24  2  0
 24 25  1  0
 25 26  2  0
 26 27  1  0
 27 28  2  0
 28 29  1  0
 12  7  1  0
 27 22  1  0
 28 10  1  0
  1 30  1  0
  1 31  1  0
  1 32  1  0
  2 33  1  0
  2 34  1  0
  6 35  1  0
  8 36  1  0
  9 37  1  0
 12 38  1  0
 14 39  1  0
 15 40  1  0
 15 41  1  0
 16 42  1  0
 16 43  1  0
 17 44  1  0
 17 45  1  0
 19 46  1  0
 19 47  1  0
 19 48  1  0
 20 49  1  0
 20 50  1  0
 21 51  1  0
 21 52  1  0
 21 53  1  0
 23 54  1  0
 24 55  1  0
 25 56  1  0
 26 57  1  0
 29 58  1  0
 29 59  1  0
 29 60  1  0
M  CHG  1  28   1
M  END
>  <smiles>  (12) 
CCOC(=O)Nc1ccc2c(c1)c(NCCCN(C)CC)c1ccccc1[n+]2C

>  <score_type>  (12) 
oracle

>  <origin>  (12) 
adg

>  <m_score__min__energy>  (12) 
-8.9900000000000002

>  <m_primary>  (12) 
energy

$$$$
12:0
     RDKit          3D

 95 98  0  0  0  0  0  0  0  0999 V2000
   -9.2850   20.8070  -32.1430 C   0  0  0  0  0  0  0  0  0  0  0  0
   -8.0380   20.6290  -31.2770 C   0  0  0  0  0  0  0  0  0  0  0  0
   -7.1110   19.8060  -31.9930 N   0  0  0  0  0  0  0  0  0  0  0  0
   -7.4960   18.4060  -31.9150 C   0  0  0  0  0  0  0  0  0  0  0  0
   -6.4810   17.5310  -31.2570 C   0  0  0  0  0  0  0  0  0  0  0  0
   -6.9830   20.1610  -33.4130 C   0  0  0  0  0  0  0  0  0  0  0  0
   -6.0280   19.2450  -34.0930 C   0  0  0  0  0  0  0  0  0  0  0  0
   -4.8410   19.0970  -33.5100 O   0  0  0  0  0  0  0  0  0  0  0  0
   -4.0360   18.0540  -33.5310 C   0  0  0  0  0  0  0  0  0  0  0  0
   -2.6690   18.1120  -34.1090 C   0  0  0  0  0  0  0  0  0  0  0  0
   -1.8550   18.9910  -33.3830 O   0  0  0  0  0  0  0  0  0  0  0  0
   -1.7910   20.2630  -33.9050 C   0  0  0  0  0  0  0  0  0  0  0  0
   -2.4620   21.2840  -33.0790 C   0  0  0  0  0  0  0  0  0  0  0  0
   -3.2730   20.9670  -31.9780 N   0  0  0  0  0  0  0  0  0  0  0  0
   -3.6390   21.7870  -30.8910 C   0  0  0  0  0  0  0  0  0  0  0  0
   -4.6290   22.7250  -30.8580 C   0  0  0  0  0  0  0  0  0  0  0  0
   -5.4390   22.8440  -31.9650 C   0  0  0  0  0  0  0  0  0  0  0  0
   -6.4660   23.7570  -31.9310 C   0  0  0  0  0  0  0  0  0  0  0  0
   -6.7090   24.5510  -30.8330 C   0  0  0  0  0  0  0  0  0  0  0  0
   -5.8810   24.4200  -29.7160 C   0  0  0  0  0  0  0  0  0  0  0  0
   -4.8470   23.5150  -29.7180 C   0  0  0  0  0  0  0  0  0  0  0  0
   -4.1020   23.3950  -28.6110 N   0  0  0  0  0  0  0  0  0  0  0  0
   -4.2410   24.1650  -27.4160 C   0  0  0  0  0  0  0  0  0  0  0  0
   -3.1040   22.4590  -28.6160 C   0  0  0  0  0  0  0  0  0  0  0  0
   -2.3200   22.2930  -27.4680 C   0  0  0  0  0  0  0  0  0  0  0  0
   -1.3100   21.3570  -27.4010 C   0  0  0  0  0  0  0  0  0  0  0  0
   -1.0910   20.5760  -28.5120 C   0  0  0  0  0  0  0  0  0  0  0  0
   -0.0660   19.6150  -28.4570 O   0  0  0  0  0  0  0  0  0  0  0  0
   -0.3600   18.3110  -27.9210 C   0  0  0  0  0  0  0  0  0  0  0  0
    0.8340   17.4110  -27.8940 C   0  0  0  0  0  0  0  0  0  0  0  0
    1.2370   16.9070  -29.1610 N   0  0  0  0  0  0  0  0  0  0  0  0
    1.7290   15.5260  -28.9860 C   0  0  0  0  0  0  0  0  0  0  0  0
    0.2560   16.8480  -30.1870 C   0  0  0  0  0  0  0  0  0  0  0  0
    0.0380   18.0890  -30.9790 C   0  0  0  0  0  0  0  0  0  0  0  0
    1.2590   18.7030  -31.4480 N   0  0  0  0  0  0  0  0  0  0  0  0
    2.0100   17.9100  -32.3740 C   0  0  0  0  0  0  0  0  0  0  0  0
    0.8860   19.9890  -32.0020 C   0  0  0  0  0  0  0  0  0  0  0  0
    2.0860   18.9450  -30.2820 C   0  0  0  0  0  0  0  0  0  0  0  0
    2.3960   17.6530  -29.6050 C   0  0  0  0  0  0  0  0  0  0  0  0
   -1.8420   20.7120  -29.6560 C   0  0  0  0  0  0  0  0  0  0  0  0
   -2.8660   21.6620  -29.7290 C   0  0  0  0  0  0  0  0  0  0  0  0
  -10.1658   20.9327  -31.4961 H   0  0  0  0  0  0  0  0  0  0  0  0
   -9.1664   21.6973  -32.7780 H   0  0  0  0  0  0  0  0  0  0  0  0
   -9.4202   19.9191  -32.7780 H   0  0  0  0  0  0  0  0  0  0  0  0
   -7.5840   21.6097  -31.0716 H   0  0  0  0  0  0  0  0  0  0  0  0
   -8.3041   20.1577  -30.3194 H   0  0  0  0  0  0  0  0  0  0  0  0
   -8.4338   18.3368  -31.3443 H   0  0  0  0  0  0  0  0  0  0  0  0
   -7.6011   18.0476  -32.9496 H   0  0  0  0  0  0  0  0  0  0  0  0
   -6.5779   17.6146  -30.1645 H   0  0  0  0  0  0  0  0  0  0  0  0
   -6.6450   16.4866  -31.5609 H   0  0  0  0  0  0  0  0  0  0  0  0
   -5.4722   17.8471  -31.5609 H   0  0  0  0  0  0  0  0  0  0  0  0
   -7.9678   20.0817  -33.8965 H   0  0  0  0  0  0  0  0  0  0  0  0
   -6.6055   21.1913  -33.4904 H   0  0  0  0  0  0  0  0  0  0  0  0
   -6.4990   18.2527  -34.1525 H   0  0  0  0  0  0  0  0  0  0  0  0
   -5.8212   19.7068  -35.0697 H   0  0  0  0  0  0  0  0  0  0  0  0
   -3.9116   17.7431  -32.4832 H   0  0  0  0  0  0  0  0  0  0  0  0
   -4.5510   17.3861  -34.2371 H   0  0  0  0  0  0  0  0  0  0  0  0
   -2.2246   17.1061  -34.0838 H   0  0  0  0  0  0  0  0  0  0  0  0
   -2.7411   18.4750  -35.1449 H   0  0  0  0  0  0  0  0  0  0  0  0
   -0.7319   20.5421  -34.0075 H   0  0  0  0  0  0  0  0  0  0  0  0
   -2.3174   20.2380  -34.8705 H   0  0  0  0  0  0  0  0  0  0  0  0
   -1.6626   21.9315  -32.6896 H   0  0  0  0  0  0  0  0  0  0  0  0
   -3.2012   21.6873  -33.7868 H   0  0  0  0  0  0  0  0  0  0  0  0
   -3.6840   19.9730  -31.9330 H   0  0  0  0  0  0  0  0  0  0  0  0
   -5.2682   22.2225  -32.8564 H   0  0  0  0  0  0  0  0  0  0  0  0
   -7.1167   23.8567  -32.8123 H   0  0  0  0  0  0  0  0  0  0  0  0
   -7.5382   25.2737  -30.8354 H   0  0  0  0  0  0  0  0  0  0  0  0
   -6.0578   25.0455  -28.8286 H   0  0  0  0  0  0  0  0  0  0  0  0
   -4.1225   23.5088  -26.5411 H   0  0  0  0  0  0  0  0  0  0  0  0
   -3.4699   24.9491  -27.3933 H   0  0  0  0  0  0  0  0  0  0  0  0
   -5.2376   24.6300  -27.3933 H   0  0  0  0  0  0  0  0  0  0  0  0
   -2.5160   22.9292  -26.5923 H   0  0  0  0  0  0  0  0  0  0  0  0
   -0.7015   21.2390  -26.4923 H   0  0  0  0  0  0  0  0  0  0  0  0
   -0.7334   18.4299  -26.8932 H   0  0  0  0  0  0  0  0  0  0  0  0
   -1.1100   17.8454  -28.5773 H   0  0  0  0  0  0  0  0  0  0  0  0
    1.6766   17.9751  -27.4678 H   0  0  0  0  0  0  0  0  0  0  0  0
    0.5450   16.5358  -27.2935 H   0  0  0  0  0  0  0  0  0  0  0  0
    1.8099   15.2988  -27.9128 H   0  0  0  0  0  0  0  0  0  0  0  0
    1.0258   14.8237  -29.4574 H   0  0  0  0  0  0  0  0  0  0  0  0
    2.7179   15.4266  -29.4574 H   0  0  0  0  0  0  0  0  0  0  0  0
    0.5545   16.0542  -30.8876 H   0  0  0  0  0  0  0  0  0  0  0  0
   -0.6957   16.6685  -29.6654 H   0  0  0  0  0  0  0  0  0  0  0  0
   -0.5821   17.8387  -31.8524 H   0  0  0  0  0  0  0  0  0  0  0  0
   -0.4494   18.8142  -30.3108 H   0  0  0  0  0  0  0  0  0  0  0  0
    2.6635   17.2200  -31.8201 H   0  0  0  0  0  0  0  0  0  0  0  0
    1.3196   17.3328  -33.0066 H   0  0  0  0  0  0  0  0  0  0  0  0
    2.6238   18.5680  -33.0066 H   0  0  0  0  0  0  0  0  0  0  0  0
    0.6812   20.6952  -31.1839 H   0  0  0  0  0  0  0  0  0  0  0  0
    1.7094   20.3742  -32.6213 H   0  0  0  0  0  0  0  0  0  0  0  0
   -0.0158   19.8738  -32.6213 H   0  0  0  0  0  0  0  0  0  0  0  0
    3.0238   19.4282  -30.5935 H   0  0  0  0  0  0  0  0  0  0  0  0
    1.5454   19.6004  -29.5833 H   0  0  0  0  0  0  0  0  0  0  0  0
    2.9587   17.0235  -30.3101 H   0  0  0  0  0  0  0  0  0  0  0  0
    2.9666   17.9069  -28.6995 H   0  0  0  0  0  0  0  0  0  0  0  0
   -1.6352   20.0669  -30.5227 H   0  0  0  0  0  0  0  0  0  0  0  0
  1  2  1  0
  2  3  1  0
  3  4  1  0
  4  5  1  0
  3  6  1  0
  6  7  1  0
  7  8  1  0
  8  9  1  0
  9 10  1  0
 10 11  1  0
 11 12  1  0
 12 13  1  0
 13 14  1  0
 14 15  1  0
 15 16  2  0
 16 17  1  0
 17 18  2  0
 18 19  1  0
 19 20  2  0
 20 21  1  0
 21 22  2  0
 22 23  1  0
 22 24  1  0
 24 25  2  0
 25 26  1  0
 26 27  2  0
 27 28  1  0
 28 29  1  0
 29 30  1  0
 30 31  1  0
 31 32  1  0
 31 33  1  0
 33 34  1  0
 34 35  1  0
 35 36  1  0
 35 37  1  0
 35 38  1  0
 38 39  1  0
 27 40  1  0
 40 41  2  0
 41 15  1  0
 21 16  1  0
 41 24  1  0
 39 31  1  0
  1 42  1  0
  1 43  1  0
  1 44  1  0
  2 45  1  0
  2 46  1  0
  4 47  1  0
  4 48  1  0
  5 49  1  0
  5 50  1  0
  5 51  1  0
  6 52  1  0
  6 53  1  0
  7 54  1  0
  7 55  1  0
  9 56  1  0
  9 57  1  0
 10 58  1  0
 10 59  1  0
 12 60  1  0
 12 61  1  0
 13 62  1  0
 13 63  1  0
 14 64  1  0
 17 65  1  0
 18 66  1  0
 19 67  1  0
 20 68  1  0
 23 69  1  0
 23 70  1  0
 23 71  1  0
 25 72  1  0
 26 73  1  0
 29 74  1  0
 29 75  1  0
 30 76  1  0
 30 77  1  0
 32 78  1  0
 32 79  1  0
 32 80  1  0
 33 81  1  0
 33 82  1  0
 34 83  1  0
 34 84  1  0
 36 85  1  0
 36 86  1  0
 36 87  1  0
 37 88  1  0
 37 89  1  0
 37 90  1  0
 38 91  1  0
 38 92  1  0
 39 93  1  0
 39 94  1  0
 40 95  1  0
M  CHG  3  22   1  31   1  35   1
M  END
>  <smiles>  (13) 
CCN(CC)CCOCCOCCNc1c2ccccc2[n+](C)c2ccc(OCC[N+]3(C)CC[N+](C)(C)CC3)cc12

>  <score_type>  (13) 
oracle

>  <origin>  (13) 
adg

>  <m_score__min__energy>  (13) 
-9.8200000000000003

>  <m_primary>  (13) 
energy

$$$$
13:0
     RDKit          3D

 42 43  0  0  0  0  0  0  0  0999 V2000
   -8.7480   18.6270  -31.3080 C   0  0  0  0  0  0  0  0  0  0  0  0
   -9.4430   19.0500  -32.5880 C   0  0  0  0  0  0  0  0  0  0  0  0
   -9.3010   20.4410  -32.7240 O   0  0  0  0  0  0  0  0  0  0  0  0
   -8.2630   21.1700  -32.1610 C   0  0  0  0  0  0  0  0  0  0  0  0
   -8.5890   22.1070  -31.2180 C   0  0  0  0  0  0  0  0  0  0  0  0
   -7.6440   22.8920  -30.5880 C   0  0  0  0  0  0  0  0  0  0  0  0
   -6.3290   22.6820  -30.9640 C   0  0  0  0  0  0  0  0  0  0  0  0
   -5.0830   23.6460  -30.2020 S   0  0  0  0  0  0  0  0  0  0  0  0
   -4.2390   24.3300  -31.2170 O   0  0  0  0  0  0  0  0  0  0  0  0
   -5.7700   24.7160  -29.3950 O   0  0  0  0  0  0  0  0  0  0  0  0
   -4.1460   22.7030  -29.1050 N   0  0  0  0  0  0  0  0  0  0  0  0
   -3.9460   23.4620  -27.9050 C   0  0  0  0  0  0  0  0  0  0  0  0
   -2.9610   24.5530  -27.9790 C   0  0  0  0  0  0  0  0  0  0  0  0
   -1.9380   24.4730  -28.8550 O   0  0  0  0  0  0  0  0  0  0  0  0
   -1.8710   23.4520  -29.7250 C   0  0  0  0  0  0  0  0  0  0  0  0
   -2.8610   22.3660  -29.6240 C   0  0  0  0  0  0  0  0  0  0  0  0
   -6.0020   21.7310  -31.9190 C   0  0  0  0  0  0  0  0  0  0  0  0
   -6.9530   20.9560  -32.5380 C   0  0  0  0  0  0  0  0  0  0  0  0
   -6.6950   19.9720  -33.5170 N   0  0  0  0  0  0  0  0  0  0  0  0
   -5.4840   19.3060  -33.7370 C   0  0  0  0  0  0  0  0  0  0  0  0
   -5.3660   18.2750  -34.8300 C   0  0  0  0  0  0  0  0  0  0  0  0
   -4.4470   19.5090  -33.0700 O   0  0  0  0  0  0  0  0  0  0  0  0
   -9.3276   18.9798  -30.4422 H   0  0  0  0  0  0  0  0  0  0  0  0
   -8.6731   17.5300  -31.2767 H   0  0  0  0  0  0  0  0  0  0  0  0
   -7.7392   19.0644  -31.2767 H   0  0  0  0  0  0  0  0  0  0  0  0
   -8.9814   18.5425  -33.4479 H   0  0  0  0  0  0  0  0  0  0  0  0
  -10.5082   18.7781  -32.5504 H   0  0  0  0  0  0  0  0  0  0  0  0
   -9.6478   22.2401  -30.9510 H   0  0  0  0  0  0  0  0  0  0  0  0
   -7.9204   23.6409  -29.8311 H   0  0  0  0  0  0  0  0  0  0  0  0
   -4.9134   23.9027  -27.6223 H   0  0  0  0  0  0  0  0  0  0  0  0
   -3.5394   22.7495  -27.1722 H   0  0  0  0  0  0  0  0  0  0  0  0
   -3.5183   25.4696  -28.2225 H   0  0  0  0  0  0  0  0  0  0  0  0
   -2.4623   24.5140  -26.9993 H   0  0  0  0  0  0  0  0  0  0  0  0
   -1.9635   23.8806  -30.7338 H   0  0  0  0  0  0  0  0  0  0  0  0
   -0.9150   22.9627  -29.4869 H   0  0  0  0  0  0  0  0  0  0  0  0
   -3.0088   21.9576  -30.6346 H   0  0  0  0  0  0  0  0  0  0  0  0
   -2.4359   21.6611  -28.8943 H   0  0  0  0  0  0  0  0  0  0  0  0
   -4.9450   21.5923  -32.1903 H   0  0  0  0  0  0  0  0  0  0  0  0
   -7.4960   19.6950  -34.1660 H   0  0  0  0  0  0  0  0  0  0  0  0
   -5.2518   17.2770  -34.3818 H   0  0  0  0  0  0  0  0  0  0  0  0
   -6.2724   18.2957  -35.4529 H   0  0  0  0  0  0  0  0  0  0  0  0
   -4.4877   18.4999  -35.4529 H   0  0  0  0  0  0  0  0  0  0  0  0
  1  2  1  0
  2  3  1  0
  3  4  1  0
  4  5  2  0
  5  6  1  0
  6  7  2  0
  7  8  1  0
  8  9  2  0
  8 10  2  0
  8 11  1  0
 11 12  1  0
 12 13  1  0
 13 14  1  0
 14 15  1  0
 15 16  1  0
  7 17  1  0
 17 18  2  0
 18 19  1  0
 19 20  1  0
 20 21  1  0
 20 22  2  0
 18  4  1  0
 16 11  1  0
  1 23  1  0
  1 24  1  0
  1 25  1  0
  2 26  1  0
  2 27  1  0
  5 28  1  0
  6 29  1  0
 12 30  1  0
 12 31  1  0
 13 32  1  0
 13 33  1  0
 15 34  1  0
 15 35  1  0
 16 36  1  0
 16 37  1  0
 17 38  1  0
 19 39  1  0
 21 40  1  0
 21 41  1  0
 21 42  1  0
M  END
>  <smiles>  (14) 
CCOc1ccc(S(=O)(=O)N2CCOCC2)cc1NC(C)=O

>  <score_type>  (14) 
oracle

>  <origin>  (14) 
adg

>  <m_score__min__energy>  (14) 
-8

>  <m_primary>  (14) 
energy

$$$$
14:0
     RDKit          3D

 63 65  0  0  0  0  0  0  0  0999 V2000
   -0.9340   26.9460  -24.4240 C   0  0  0  0  0  0  0  0  0  0  0  0
   -0.9150   25.4610  -24.4250 C   0  0  0  0  0  0  0  0  0  0  0  0
   -1.2100   24.8630  -25.6860 N   0  0  0  0  0  0  0  0  0  0  0  0
   -2.6230   25.3100  -25.9620 C   0  0  0  0  0  0  0  0  0  0  0  0
   -0.4470   25.4850  -26.7930 C   0  0  0  0  0  0  0  0  0  0  0  0
   -1.2230   26.0600  -27.8870 C   0  0  0  0  0  0  0  0  0  0  0  0
   -1.5370   25.3720  -28.9850 O   0  0  0  0  0  0  0  0  0  0  0  0
   -2.1500   24.2200  -29.1050 C   0  0  0  0  0  0  0  0  0  0  0  0
   -3.2240   24.0280  -30.1290 C   0  0  0  0  0  0  0  0  0  0  0  0
   -3.9190   25.1520  -30.4610 O   0  0  0  0  0  0  0  0  0  0  0  0
   -5.1980   25.3020  -30.0370 C   0  0  0  0  0  0  0  0  0  0  0  0
   -6.1130   24.7420  -31.1290 C   0  0  0  0  0  0  0  0  0  0  0  0
   -6.2820   23.2470  -31.0180 C   0  0  0  0  0  0  0  0  0  0  0  0
   -5.9920   22.6730  -32.3200 N   0  0  0  0  0  0  0  0  0  0  0  0
   -5.9140   21.2730  -32.5340 C   0  0  0  0  0  0  0  0  0  0  0  0
   -6.9600   20.3980  -32.4150 C   0  0  0  0  0  0  0  0  0  0  0  0
   -8.2040   20.8910  -32.0520 C   0  0  0  0  0  0  0  0  0  0  0  0
   -9.2200   19.9830  -31.9440 C   0  0  0  0  0  0  0  0  0  0  0  0
   -9.1090   18.6400  -32.1640 C   0  0  0  0  0  0  0  0  0  0  0  0
   -7.8480   18.1690  -32.5280 C   0  0  0  0  0  0  0  0  0  0  0  0
   -6.7770   19.0440  -32.6530 C   0  0  0  0  0  0  0  0  0  0  0  0
   -5.5450   18.5480  -33.0140 N   0  0  0  0  0  0  0  0  0  0  0  0
   -5.4440   17.1670  -33.2300 C   0  0  0  0  0  0  0  0  0  0  0  0
   -4.5140   19.4170  -33.1290 C   0  0  0  0  0  0  0  0  0  0  0  0
   -3.2720   18.9840  -33.4830 C   0  0  0  0  0  0  0  0  0  0  0  0
   -2.1610   19.7940  -33.6260 C   0  0  0  0  0  0  0  0  0  0  0  0
   -2.3460   21.1620  -33.3860 C   0  0  0  0  0  0  0  0  0  0  0  0
   -3.5940   21.6590  -33.0210 C   0  0  0  0  0  0  0  0  0  0  0  0
   -4.6700   20.7740  -32.8970 C   0  0  0  0  0  0  0  0  0  0  0  0
   -0.9387   27.3119  -23.3867 H   0  0  0  0  0  0  0  0  0  0  0  0
   -0.0406   27.3245  -24.9423 H   0  0  0  0  0  0  0  0  0  0  0  0
   -1.8368   27.3015  -24.9423 H   0  0  0  0  0  0  0  0  0  0  0  0
    0.0874   25.1307  -24.1151 H   0  0  0  0  0  0  0  0  0  0  0  0
   -1.7087   25.1392  -23.7347 H   0  0  0  0  0  0  0  0  0  0  0  0
   -3.1477   25.4760  -25.0096 H   0  0  0  0  0  0  0  0  0  0  0  0
   -2.6053   26.2464  -26.5389 H   0  0  0  0  0  0  0  0  0  0  0  0
   -3.1471   24.5338  -26.5389 H   0  0  0  0  0  0  0  0  0  0  0  0
    0.1674   26.2894  -26.3625 H   0  0  0  0  0  0  0  0  0  0  0  0
    0.1231   24.6612  -27.2472 H   0  0  0  0  0  0  0  0  0  0  0  0
   -2.1777   26.3833  -27.4465 H   0  0  0  0  0  0  0  0  0  0  0  0
   -0.5256   26.8116  -28.2854 H   0  0  0  0  0  0  0  0  0  0  0  0
   -1.3730   23.4719  -29.3209 H   0  0  0  0  0  0  0  0  0  0  0  0
   -2.6991   24.1350  -28.1556 H   0  0  0  0  0  0  0  0  0  0  0  0
   -2.7555   23.6355  -31.0436 H   0  0  0  0  0  0  0  0  0  0  0  0
   -3.9547   23.3402  -29.6784 H   0  0  0  0  0  0  0  0  0  0  0  0
   -5.3502   24.7481  -29.0989 H   0  0  0  0  0  0  0  0  0  0  0  0
   -5.4223   26.3624  -29.8495 H   0  0  0  0  0  0  0  0  0  0  0  0
   -7.1009   25.2178  -31.0421 H   0  0  0  0  0  0  0  0  0  0  0  0
   -5.6493   24.9585  -32.1027 H   0  0  0  0  0  0  0  0  0  0  0  0
   -5.5848   22.8457  -30.2677 H   0  0  0  0  0  0  0  0  0  0  0  0
   -7.3067   22.9968  -30.7058 H   0  0  0  0  0  0  0  0  0  0  0  0
   -5.8240   23.2830  -33.1730 H   0  0  0  0  0  0  0  0  0  0  0  0
   -8.3657   21.9620  -31.8600 H   0  0  0  0  0  0  0  0  0  0  0  0
  -10.2099   20.3663  -31.6557 H   0  0  0  0  0  0  0  0  0  0  0  0
   -9.9705   17.9640  -32.0594 H   0  0  0  0  0  0  0  0  0  0  0  0
   -7.7004   17.0956  -32.7177 H   0  0  0  0  0  0  0  0  0  0  0  0
   -5.4059   16.6463  -32.2618 H   0  0  0  0  0  0  0  0  0  0  0  0
   -6.3192   16.8199  -33.7989 H   0  0  0  0  0  0  0  0  0  0  0  0
   -4.5277   16.9509  -33.7989 H   0  0  0  0  0  0  0  0  0  0  0  0
   -3.1433   17.9076  -33.6693 H   0  0  0  0  0  0  0  0  0  0  0  0
   -1.1811   19.3852  -33.9137 H   0  0  0  0  0  0  0  0  0  0  0  0
   -1.4949   21.8515  -33.4872 H   0  0  0  0  0  0  0  0  0  0  0  0
   -3.7322   22.7339  -32.8325 H   0  0  0  0  0  0  0  0  0  0  0  0
  1  2  1  0
  2  3  1  0
  3  4  1  0
  3  5  1  0
  5  6  1  0
  6  7  1  0
  7  8  1  0
  8  9  1  0
  9 10  1  0
 10 11  1  0
 11 12  1  0
 12 13  1  0
 13 14  1  0
 14 15  1  0
 15 16  2  0
 16 17  1  0
 17 18  2  0
 18 19  1  0
 19 20  2  0
 20 21  1  0
 21 22  2  0
 22 23  1  0
 22 24  1  0
 24 25  2  0
 25 26  1  0
 26 27  2  0
 27 28  1  0
 28 29  2  0
 29 15  1  0
 21 16  1  0
 29 24  1  0
  1 30  1  0
  1 31  1  0
  1 32  1  0
  2 33  1  0
  2 34  1  0
  4 35  1  0
  4 36  1  0
  4 37  1  0
  5 38  1  0
  5 39  1  0
  6 40  1  0
  6 41  1  0
  8 42  1  0
  8 43  1  0
  9 44  1  0
  9 45  1  0
 11 46  1  0
 11 47  1  0
 12 48  1  0
 12 49  1  0
 13 50  1  0
 13 51  1  0
 14 52  1  0
 17 53  1  0
 18 54  1  0
 19 55  1  0
 20 56  1  0
 23 57  1  0
 23 58  1  0
 23 59  1  0
 25 60  1  0
 26 61  1  0
 27 62  1  0
 28 63  1  0
M  CHG  1  22   1
M  END
>  <smiles>  (15) 
CCN(C)CCOCCOCCCNc1c2ccccc2[n+](C)c2ccccc12

>  <score_type>  (15) 
oracle

>  <origin>  (15) 
adg

>  <m_score__min__energy>  (15) 
-9.4399999999999995

>  <m_primary>  (15) 
energy

$$$$
15:0
     RDKit          3D

 45 47  0  0  0  0  0  0  0  0999 V2000
   -5.5910   18.3650  -34.2140 C   0  0  0  0  0  0  0  0  0  0  0  0
   -6.1280   17.7750  -33.0240 N   0  0  0  0  0  0  0  0  0  0  0  0
   -5.7050   18.3780  -31.8030 C   0  0  0  0  0  0  0  0  0  0  0  0
   -6.2970   19.7880  -31.6000 C   0  0  0  0  0  0  0  0  0  0  0  0
   -7.7080   19.7120  -31.6240 N   0  0  0  0  0  0  0  0  0  0  0  0
   -8.4400   20.5870  -32.4500 C   0  0  0  0  0  0  0  0  0  0  0  0
   -8.9480   21.8500  -31.8500 C   0  0  0  0  0  0  0  0  0  0  0  0
   -8.0060   22.5940  -30.9720 C   0  0  0  0  0  0  0  0  0  0  0  0
   -7.0390   23.4850  -31.7650 C   0  0  0  0  0  0  0  0  0  0  0  0
   -5.8350   23.7390  -31.0170 N   0  0  0  0  0  0  0  0  0  0  0  0
   -5.6040   24.6280  -30.0250 C   0  0  0  0  0  0  0  0  0  0  0  0
   -6.7020   25.6700  -29.3690 S   0  0  0  0  0  0  0  0  0  0  0  0
   -4.3210   24.5350  -29.6190 N   0  0  0  0  0  0  0  0  0  0  0  0
   -3.7090   23.5870  -30.3420 C   0  0  0  0  0  0  0  0  0  0  0  0
   -2.4260   23.0910  -30.3450 C   0  0  0  0  0  0  0  0  0  0  0  0
   -2.0820   22.0900  -31.2280 C   0  0  0  0  0  0  0  0  0  0  0  0
   -3.0080   21.5670  -32.1190 C   0  0  0  0  0  0  0  0  0  0  0  0
   -4.2860   22.0930  -32.0830 C   0  0  0  0  0  0  0  0  0  0  0  0
   -4.6700   23.0930  -31.2180 C   0  0  0  0  0  0  0  0  0  0  0  0
   -8.1540   18.3560  -31.8000 C   0  0  0  0  0  0  0  0  0  0  0  0
   -7.5650   17.7250  -33.0530 C   0  0  0  0  0  0  0  0  0  0  0  0
   -4.8737   19.1531  -33.9410 H   0  0  0  0  0  0  0  0  0  0  0  0
   -5.0793   17.5929  -34.8073 H   0  0  0  0  0  0  0  0  0  0  0  0
   -6.4077   18.8020  -34.8073 H   0  0  0  0  0  0  0  0  0  0  0  0
   -6.0229   17.7389  -30.9661 H   0  0  0  0  0  0  0  0  0  0  0  0
   -4.6105   18.4795  -31.8439 H   0  0  0  0  0  0  0  0  0  0  0  0
   -5.9674   20.1884  -30.6299 H   0  0  0  0  0  0  0  0  0  0  0  0
   -5.9508   20.4517  -32.4060 H   0  0  0  0  0  0  0  0  0  0  0  0
   -7.7890   20.8634  -33.2925 H   0  0  0  0  0  0  0  0  0  0  0  0
   -9.3468   20.0230  -32.7136 H   0  0  0  0  0  0  0  0  0  0  0  0
   -9.2359   22.5193  -32.6741 H   0  0  0  0  0  0  0  0  0  0  0  0
   -9.7786   21.5475  -31.1953 H   0  0  0  0  0  0  0  0  0  0  0  0
   -8.5885   23.2281  -30.2875 H   0  0  0  0  0  0  0  0  0  0  0  0
   -7.4043   21.8531  -30.4252 H   0  0  0  0  0  0  0  0  0  0  0  0
   -6.7769   22.9810  -32.7070 H   0  0  0  0  0  0  0  0  0  0  0  0
   -7.5348   24.4463  -31.9652 H   0  0  0  0  0  0  0  0  0  0  0  0
   -3.9090   25.1250  -28.8610 H   0  0  0  0  0  0  0  0  0  0  0  0
   -1.6775   23.4916  -29.6455 H   0  0  0  0  0  0  0  0  0  0  0  0
   -1.0540   21.6985  -31.2262 H   0  0  0  0  0  0  0  0  0  0  0  0
   -2.7368   20.7676  -32.8243 H   0  0  0  0  0  0  0  0  0  0  0  0
   -5.0349   21.6918  -32.7817 H   0  0  0  0  0  0  0  0  0  0  0  0
   -7.8470   17.7639  -30.9253 H   0  0  0  0  0  0  0  0  0  0  0  0
   -9.2489   18.3674  -31.9055 H   0  0  0  0  0  0  0  0  0  0  0  0
   -7.8880   16.6752  -33.1139 H   0  0  0  0  0  0  0  0  0  0  0  0
   -7.9193   18.2866  -33.9300 H   0  0  0  0  0  0  0  0  0  0  0  0
  1  2  1  0
  2  3  1  0
  3  4  1  0
  4  5  1  0
  5  6  1  0
  6  7  1  0
  7  8  1  0
  8  9  1  0
  9 10  1  0
 10 11  1  0
 11 12  2  0
 11 13  1  0
 13 14  1  0
 14 15  2  0
 15 16  1  0
 16 17  2  0
 17 18  1  0
 18 19  2  0
  5 20  1  0
 20 21  1  0
 21  2  1  0
 19 10  1  0
 19 14  1  0
  1 22  1  0
  1 23  1  0
  1 24  1  0
  3 25  1  0
  3 26  1  0
  4 27  1  0
  4 28  1  0
  6 29  1  0
  6 30  1  0
  7 31  1  0
  7 32  1  0
  8 33  1  0
  8 34  1  0
  9 35  1  0
  9 36  1  0
 13 37  1  0
 15 38  1  0
 16 39  1  0
 17 40  1  0
 18 41  1  0
 20 42  1  0
 20 43  1  0
 21 44  1  0
 21 45  1  0
M  END
>  <smiles>  (16) 
CN1CCN(CCCCn2c(=S)[nH]c3ccccc32)CC1

>  <score_type>  (16) 
oracle

>  <origin>  (16) 
adg

>  <m_score__min__energy>  (16) 
-7.4800000000000004

>  <m_primary>  (16) 
energy

$$$$
16:0
     RDKit          3D

 25 27  0  0  0  0  0  0  0  0999 V2000
   -5.7410   17.7700  -34.8090 Br  0  0  0  0  0  0  0  0  0  0  0  0
   -5.6490   19.3370  -33.7390 C   0  0  0  0  0  0  0  0  0  0  0  0
   -4.4130   19.8550  -33.4320 C   0  0  0  0  0  0  0  0  0  0  0  0
   -4.3550   20.9920  -32.6540 C   0  0  0  0  0  0  0  0  0  0  0  0
   -5.4720   21.6370  -32.1680 C   0  0  0  0  0  0  0  0  0  0  0  0
   -5.3720   22.8540  -31.3370 C   0  0  0  0  0  0  0  0  0  0  0  0
   -6.1570   23.9790  -31.5860 C   0  0  0  0  0  0  0  0  0  0  0  0
   -5.6550   25.1810  -30.2980 S   0  0  0  0  0  0  0  0  0  0  0  0
   -4.4180   23.9220  -29.6050 C   0  0  0  0  0  0  0  0  0  0  0  0
   -3.6530   24.3740  -28.4560 C   0  0  0  0  0  0  0  0  0  0  0  0
   -3.8880   24.5000  -27.1640 C   0  0  0  0  0  0  0  0  0  0  0  0
   -2.9300   24.9650  -26.3410 C   0  0  0  0  0  0  0  0  0  0  0  0
   -1.7130   25.2910  -26.9470 C   0  0  0  0  0  0  0  0  0  0  0  0
   -1.9670   24.9210  -28.6990 S   0  0  0  0  0  0  0  0  0  0  0  0
   -4.5630   22.9810  -30.3260 N   0  0  0  0  0  0  0  0  0  0  0  0
   -6.6920   21.1110  -32.4790 C   0  0  0  0  0  0  0  0  0  0  0  0
   -6.7940   19.9610  -33.2640 C   0  0  0  0  0  0  0  0  0  0  0  0
   -3.4936   19.3745  -33.7978 H   0  0  0  0  0  0  0  0  0  0  0  0
   -3.3658   21.4058  -32.4084 H   0  0  0  0  0  0  0  0  0  0  0  0
   -6.9086   24.1144  -32.3777 H   0  0  0  0  0  0  0  0  0  0  0  0
   -4.8720   24.2236  -26.7573 H   0  0  0  0  0  0  0  0  0  0  0  0
   -3.0942   25.0812  -25.2596 H   0  0  0  0  0  0  0  0  0  0  0  0
   -0.8051   25.6842  -26.4663 H   0  0  0  0  0  0  0  0  0  0  0  0
   -7.6053   21.5984  -32.1071 H   0  0  0  0  0  0  0  0  0  0  0  0
   -7.7844   19.5485  -33.5066 H   0  0  0  0  0  0  0  0  0  0  0  0
  1  2  1  0
  2  3  2  0
  3  4  1  0
  4  5  2  0
  5  6  1  0
  6  7  2  0
  7  8  1  0
  8  9  1  0
  9 10  1  0
 10 11  2  0
 11 12  1  0
 12 13  2  0
 13 14  1  0
  9 15  2  0
  5 16  1  0
 16 17  2  0
 17  2  1  0
 15  6  1  0
 14 10  1  0
  3 18  1  0
  4 19  1  0
  7 20  1  0
 11 21  1  0
 12 22  1  0
 13 23  1  0
 16 24  1  0
 17 25  1  0
M  END
>  <smiles>  (17) 
Brc1ccc(-c2csc(-c3cccs3)n2)cc1

>  <score_type>  (17) 
oracle

>  <origin>  (17) 
adg

>  <m_score__min__energy>  (17) 
-7.25

>  <m_primary>  (17) 
energy

$$$$
17:0
     RDKit          3D

 51 53  0  0  0  0  0  0  0  0999 V2000
   -5.7800   19.1630  -34.1560 C   0  0  0  0  0  0  0  0  0  0  0  0
   -7.0180   19.3430  -33.2770 C   0  0  0  0  0  0  0  0  0  0  0  0
   -7.8210   20.1370  -33.0050 N   0  0  0  0  0  0  0  0  0  0  0  0
   -8.8420   20.0610  -32.1780 C   0  0  0  0  0  0  0  0  0  0  0  0
   -9.8030   21.1610  -31.9190 C   0  0  0  0  0  0  0  0  0  0  0  0
   -9.1420   22.4960  -31.9790 C   0  0  0  0  0  0  0  0  0  0  0  0
   -7.8050   22.4860  -31.4870 N   0  0  0  0  0  0  0  0  0  0  0  0
   -6.8220   23.1060  -32.3190 C   0  0  0  0  0  0  0  0  0  0  0  0
   -5.4250   22.7730  -31.8690 C   0  0  0  0  0  0  0  0  0  0  0  0
   -4.7630   21.6420  -32.2860 C   0  0  0  0  0  0  0  0  0  0  0  0
   -3.5290   21.6890  -31.6770 C   0  0  0  0  0  0  0  0  0  0  0  0
   -3.4600   22.8430  -30.9050 C   0  0  0  0  0  0  0  0  0  0  0  0
   -2.2650   23.2050  -30.1050 C   0  0  0  0  0  0  0  0  0  0  0  0
   -2.4830   22.8370  -28.7330 N   0  0  0  0  0  0  0  0  0  0  0  0
   -1.4760   22.0420  -28.1260 C   0  0  0  0  0  0  0  0  0  0  0  0
   -3.0090   23.8790  -27.8980 C   0  0  0  0  0  0  0  0  0  0  0  0
   -2.1010   25.0070  -27.6590 C   0  0  0  0  0  0  0  0  0  0  0  0
   -1.5960   25.4360  -26.4580 C   0  0  0  0  0  0  0  0  0  0  0  0
   -0.7880   26.5300  -26.7270 C   0  0  0  0  0  0  0  0  0  0  0  0
   -0.8580   26.6960  -28.0930 C   0  0  0  0  0  0  0  0  0  0  0  0
   -1.6280   25.8000  -28.6210 O   0  0  0  0  0  0  0  0  0  0  0  0
   -4.6390   23.5030  -31.0320 N   0  0  0  0  0  0  0  0  0  0  0  0
   -5.0830   24.7300  -30.4430 C   0  0  0  0  0  0  0  0  0  0  0  0
   -5.5230   24.5800  -29.1660 F   0  0  0  0  0  0  0  0  0  0  0  0
   -4.0560   25.6740  -30.4610 F   0  0  0  0  0  0  0  0  0  0  0  0
   -8.9280   18.8120  -31.5600 C   0  0  0  0  0  0  0  0  0  0  0  0
   -7.5020   17.8550  -32.2440 S   0  0  0  0  0  0  0  0  0  0  0  0
   -4.8931   19.0340  -33.5182 H   0  0  0  0  0  0  0  0  0  0  0  0
   -5.9073   18.2739  -34.7911 H   0  0  0  0  0  0  0  0  0  0  0  0
   -5.6489   20.0515  -34.7911 H   0  0  0  0  0  0  0  0  0  0  0  0
  -10.6002   21.1236  -32.6760 H   0  0  0  0  0  0  0  0  0  0  0  0
  -10.2135   21.0267  -30.9074 H   0  0  0  0  0  0  0  0  0  0  0  0
   -9.1259   22.8307  -33.0267 H   0  0  0  0  0  0  0  0  0  0  0  0
   -9.7206   23.1750  -31.3355 H   0  0  0  0  0  0  0  0  0  0  0  0
   -7.4930   21.5000  -31.3320 H   0  0  0  0  0  0  0  0  0  0  0  0
   -6.9570   22.7555  -33.3529 H   0  0  0  0  0  0  0  0  0  0  0  0
   -6.9538   24.1961  -32.2532 H   0  0  0  0  0  0  0  0  0  0  0  0
   -5.1405   20.8627  -32.9643 H   0  0  0  0  0  0  0  0  0  0  0  0
   -2.7314   20.9390  -31.7835 H   0  0  0  0  0  0  0  0  0  0  0  0
   -1.3864   22.6696  -30.4940 H   0  0  0  0  0  0  0  0  0  0  0  0
   -2.0906   24.2890  -30.1727 H   0  0  0  0  0  0  0  0  0  0  0  0
   -1.5640   22.1115  -27.0317 H   0  0  0  0  0  0  0  0  0  0  0  0
   -1.5983   20.9943  -28.4379 H   0  0  0  0  0  0  0  0  0  0  0  0
   -0.4853   22.4041  -28.4379 H   0  0  0  0  0  0  0  0  0  0  0  0
   -3.9195   24.2704  -28.3752 H   0  0  0  0  0  0  0  0  0  0  0  0
   -3.1905   23.4199  -26.9150 H   0  0  0  0  0  0  0  0  0  0  0  0
   -1.7943   24.9958  -25.4696 H   0  0  0  0  0  0  0  0  0  0  0  0
   -0.2159   27.1337  -26.0071 H   0  0  0  0  0  0  0  0  0  0  0  0
   -0.3324   27.4811  -28.6564 H   0  0  0  0  0  0  0  0  0  0  0  0
   -5.9340   25.0725  -31.0500 H   0  0  0  0  0  0  0  0  0  0  0  0
   -9.6771   18.4731  -30.8292 H   0  0  0  0  0  0  0  0  0  0  0  0
  1  2  1  0
  2  3  2  0
  3  4  1  0
  4  5  1  0
  5  6  1  0
  6  7  1  0
  7  8  1  0
  8  9  1  0
  9 10  2  0
 10 11  1  0
 11 12  2  0
 12 13  1  0
 13 14  1  0
 14 15  1  0
 14 16  1  0
 16 17  1  0
 17 18  2  0
 18 19  1  0
 19 20  2  0
 20 21  1  0
 12 22  1  0
 22 23  1  0
 23 24  1  0
 23 25  1  0
  4 26  2  0
 26 27  1  0
 27  2  1  0
 22  9  1  0
 21 17  1  0
  1 28  1  0
  1 29  1  0
  1 30  1  0
  5 31  1  0
  5 32  1  0
  6 33  1  0
  6 34  1  0
  7 35  1  0
  8 36  1  0
  8 37  1  0
 10 38  1  0
 11 39  1  0
 13 40  1  0
 13 41  1  0
 15 42  1  0
 15 43  1  0
 15 44  1  0
 16 45  1  0
 16 46  1  0
 18 47  1  0
 19 48  1  0
 20 49  1  0
 23 50  1  0
 26 51  1  0
M  END
>  <smiles>  (18) 
Cc1nc(CCNCc2ccc(CN(C)Cc3ccco3)n2C(F)F)cs1

>  <score_type>  (18) 
oracle

>  <origin>  (18) 
adg

>  <m_score__min__energy>  (18) 
-7.7300000000000004

>  <m_primary>  (18) 
energy

$$$$
18:0
     RDKit          3D

 30 32  0  0  0  0  0  0  0  0999 V2000
   -2.1140   21.7600  -31.0900 C   0  0  0  0  0  0  0  0  0  0  0  0
   -2.7380   22.9390  -30.5250 N   0  0  0  0  0  0  0  0  0  0  0  0
   -2.1740   23.7970  -29.6280 C   0  0  0  0  0  0  0  0  0  0  0  0
   -3.0740   24.7740  -29.3430 N   0  0  0  0  0  0  0  0  0  0  0  0
   -4.1980   24.5440  -30.0480 C   0  0  0  0  0  0  0  0  0  0  0  0
   -5.3710   25.2660  -30.0820 C   0  0  0  0  0  0  0  0  0  0  0  0
   -6.3830   24.7970  -30.9100 C   0  0  0  0  0  0  0  0  0  0  0  0
   -6.1810   23.6420  -31.6580 C   0  0  0  0  0  0  0  0  0  0  0  0
   -7.2380   23.1870  -32.4970 N   0  0  0  0  0  0  0  0  0  0  0  0
   -8.3120   22.4300  -31.9350 C   0  0  0  0  0  0  0  0  0  0  0  0
   -8.2700   21.0050  -32.0670 C   0  0  0  0  0  0  0  0  0  0  0  0
   -9.0620   19.9710  -31.6820 C   0  0  0  0  0  0  0  0  0  0  0  0
   -8.7580   18.7120  -31.9530 C   0  0  0  0  0  0  0  0  0  0  0  0
   -7.5850   18.4640  -32.6560 C   0  0  0  0  0  0  0  0  0  0  0  0
   -6.8570   20.1270  -32.9580 S   0  0  0  0  0  0  0  0  0  0  0  0
   -4.9800   22.9510  -31.5890 C   0  0  0  0  0  0  0  0  0  0  0  0
   -3.9710   23.4140  -30.7680 C   0  0  0  0  0  0  0  0  0  0  0  0
   -1.7669   21.1041  -30.2780 H   0  0  0  0  0  0  0  0  0  0  0  0
   -2.8445   21.2202  -31.7105 H   0  0  0  0  0  0  0  0  0  0  0  0
   -1.2568   22.0605  -31.7105 H   0  0  0  0  0  0  0  0  0  0  0  0
   -1.1615   23.7125  -29.2064 H   0  0  0  0  0  0  0  0  0  0  0  0
   -5.5008   26.1763  -29.4783 H   0  0  0  0  0  0  0  0  0  0  0  0
   -7.3395   25.3365  -30.9738 H   0  0  0  0  0  0  0  0  0  0  0  0
   -7.2260   23.4080  -33.5130 H   0  0  0  0  0  0  0  0  0  0  0  0
   -8.3455   22.6582  -30.8595 H   0  0  0  0  0  0  0  0  0  0  0  0
   -9.1959   22.7341  -32.5149 H   0  0  0  0  0  0  0  0  0  0  0  0
   -9.9866   20.1873  -31.1266 H   0  0  0  0  0  0  0  0  0  0  0  0
   -9.4126   17.8882  -31.6322 H   0  0  0  0  0  0  0  0  0  0  0  0
   -7.1808   17.4885  -32.9641 H   0  0  0  0  0  0  0  0  0  0  0  0
   -4.8323   22.0386  -32.1855 H   0  0  0  0  0  0  0  0  0  0  0  0
  1  2  1  0
  2  3  1  0
  3  4  2  0
  4  5  1  0
  5  6  2  0
  6  7  1  0
  7  8  2  0
  8  9  1  0
  9 10  1  0
 10 11  1  0
 11 12  2  0
 12 13  1  0
 13 14  2  0
 14 15  1  0
  8 16  1  0
 16 17  2  0
 17  2  1  0
 17  5  1  0
 15 11  1  0
  1 18  1  0
  1 19  1  0
  1 20  1  0
  3 21  1  0
  6 22  1  0
  7 23  1  0
  9 24  1  0
 10 25  1  0
 10 26  1  0
 12 27  1  0
 13 28  1  0
 14 29  1  0
 16 30  1  0
M  END
>  <smiles>  (19) 
Cn1cnc2ccc(NCc3cccs3)cc21

>  <score_type>  (19) 
oracle

>  <origin>  (19) 
adg

>  <m_score__min__energy>  (19) 
-6.8300000000000001

>  <m_primary>  (19) 
energy

$$$$
19:0
     RDKit          3D

 33 35  0  0  0  0  0  0  0  0999 V2000
   -5.9060   18.5250  -32.3410 C   0  0  0  0  0  0  0  0  0  0  0  0
   -7.2110   19.1890  -32.3410 N   0  0  0  0  0  0  0  0  0  0  0  0
   -8.4030   18.5630  -32.2830 C   0  0  0  0  0  0  0  0  0  0  0  0
   -9.4250   19.5160  -32.3040 C   0  0  0  0  0  0  0  0  0  0  0  0
   -8.8060   20.7640  -32.3780 C   0  0  0  0  0  0  0  0  0  0  0  0
   -7.4420   20.5240  -32.4000 C   0  0  0  0  0  0  0  0  0  0  0  0
   -6.3300   21.5100  -32.4730 C   0  0  0  0  0  0  0  0  0  0  0  0
   -6.8040   22.8630  -32.7000 N   0  0  0  0  0  0  0  0  0  0  0  0
   -6.9710   23.5060  -31.4350 C   0  0  0  0  0  0  0  0  0  0  0  0
   -5.6770   23.9780  -30.8620 C   0  0  0  0  0  0  0  0  0  0  0  0
   -5.1070   23.3750  -29.7810 N   0  0  0  0  0  0  0  0  0  0  0  0
   -3.9550   24.0190  -29.5000 C   0  0  0  0  0  0  0  0  0  0  0  0
   -2.9750   23.7280  -28.4030 C   0  0  0  0  0  0  0  0  0  0  0  0
   -2.0080   24.8800  -28.0640 C   0  0  0  0  0  0  0  0  0  0  0  0
   -3.0980   24.5390  -27.1120 C   0  0  0  0  0  0  0  0  0  0  0  0
   -3.8580   24.9970  -30.4180 N   0  0  0  0  0  0  0  0  0  0  0  0
   -4.9020   24.9530  -31.2240 O   0  0  0  0  0  0  0  0  0  0  0  0
   -5.5792   18.3587  -31.3039 H   0  0  0  0  0  0  0  0  0  0  0  0
   -5.9865   17.5582  -32.8595 H   0  0  0  0  0  0  0  0  0  0  0  0
   -5.1719   19.1592  -32.8595 H   0  0  0  0  0  0  0  0  0  0  0  0
   -8.5485   17.4741  -32.2278 H   0  0  0  0  0  0  0  0  0  0  0  0
  -10.5069   19.3202  -32.2690 H   0  0  0  0  0  0  0  0  0  0  0  0
   -9.3029   21.7448  -32.4121 H   0  0  0  0  0  0  0  0  0  0  0  0
   -5.7731   21.4852  -31.5247 H   0  0  0  0  0  0  0  0  0  0  0  0
   -5.6903   21.2317  -33.3235 H   0  0  0  0  0  0  0  0  0  0  0  0
   -6.2010   23.3530  -33.3740 H   0  0  0  0  0  0  0  0  0  0  0  0
   -7.6370   24.3719  -31.5640 H   0  0  0  0  0  0  0  0  0  0  0  0
   -7.3978   22.7697  -30.7381 H   0  0  0  0  0  0  0  0  0  0  0  0
   -2.8973   22.6577  -28.6447 H   0  0  0  0  0  0  0  0  0  0  0  0
   -0.9626   24.6592  -27.8024 H   0  0  0  0  0  0  0  0  0  0  0  0
   -1.6881   25.7986  -28.5776 H   0  0  0  0  0  0  0  0  0  0  0  0
   -2.8535   24.0702  -26.1474 H   0  0  0  0  0  0  0  0  0  0  0  0
   -3.9097   25.1088  -26.6360 H   0  0  0  0  0  0  0  0  0  0  0  0
  1  2  1  0
  2  3  1  0
  3  4  2  0
  4  5  1  0
  5  6  2  0
  6  7  1  0
  7  8  1  0
  8  9  1  0
  9 10  1  0
 10 11  2  0
 11 12  1  0
 12 13  1  0
 13 14  1  0
 14 15  1  0
 12 16  2  0
 16 17  1  0
  6  2  1  0
 17 10  1  0
 15 13  1  0
  1 18  1  0
  1 19  1  0
  1 20  1  0
  3 21  1  0
  4 22  1  0
  5 23  1  0
  7 24  1  0
  7 25  1  0
  8 26  1  0
  9 27  1  0
  9 28  1  0
 13 29  1  0
 14 30  1  0
 14 31  1  0
 15 32  1  0
 15 33  1  0
M  END
>  <smiles>  (20) 
Cn1cccc1CNCc1nc(C2CC2)no1

>  <score_type>  (20) 
oracle

>  <origin>  (20) 
adg

>  <m_score__min__energy>  (20) 
-7.2699999999999996

>  <m_primary>  (20) 
energy

$$$$
20:0
     RDKit          3D

 45 47  0  0  0  0  0  0  0  0999 V2000
   -4.2250   23.7350  -28.5110 C   0  0  0  0  0  0  0  0  0  0  0  0
   -3.2270   24.5420  -29.3140 C   0  0  0  0  0  0  0  0  0  0  0  0
   -3.8570   25.2720  -30.3830 N   0  0  0  0  0  0  0  0  0  0  0  0
   -5.2420   25.5570  -30.1840 C   0  0  0  0  0  0  0  0  0  0  0  0
   -6.1860   24.8260  -31.0880 C   0  0  0  0  0  0  0  0  0  0  0  0
   -5.5470   23.8510  -31.8920 O   0  0  0  0  0  0  0  0  0  0  0  0
   -6.1440   22.5990  -31.9680 C   0  0  0  0  0  0  0  0  0  0  0  0
   -7.3300   22.2850  -31.3380 C   0  0  0  0  0  0  0  0  0  0  0  0
   -7.8980   21.0320  -31.4320 C   0  0  0  0  0  0  0  0  0  0  0  0
   -7.3030   20.0270  -32.1650 C   0  0  0  0  0  0  0  0  0  0  0  0
   -7.8810   18.7770  -32.2510 C   0  0  0  0  0  0  0  0  0  0  0  0
   -7.2300   17.8060  -33.0060 C   0  0  0  0  0  0  0  0  0  0  0  0
   -6.0480   18.0550  -33.6550 C   0  0  0  0  0  0  0  0  0  0  0  0
   -5.5110   19.3140  -33.5400 C   0  0  0  0  0  0  0  0  0  0  0  0
   -6.1160   20.3270  -32.8000 C   0  0  0  0  0  0  0  0  0  0  0  0
   -5.5440   21.5800  -32.7080 C   0  0  0  0  0  0  0  0  0  0  0  0
   -4.3180   21.7810  -33.3980 N   0  0  0  0  0  0  0  0  0  0  0  0
   -3.1200   21.5610  -32.6450 C   0  0  0  0  0  0  0  0  0  0  0  0
   -1.9750   21.1540  -33.3230 C   0  0  0  0  0  0  0  0  0  0  0  0
   -0.7900   20.9270  -32.6300 C   0  0  0  0  0  0  0  0  0  0  0  0
   -0.7370   21.1010  -31.2650 C   0  0  0  0  0  0  0  0  0  0  0  0
   -1.8680   21.5040  -30.5800 C   0  0  0  0  0  0  0  0  0  0  0  0
   -3.0560   21.7320  -31.2790 C   0  0  0  0  0  0  0  0  0  0  0  0
   -4.0390   23.8854  -27.4373 H   0  0  0  0  0  0  0  0  0  0  0  0
   -5.2453   24.0650  -28.7561 H   0  0  0  0  0  0  0  0  0  0  0  0
   -4.1158   22.6682  -28.7561 H   0  0  0  0  0  0  0  0  0  0  0  0
   -2.7266   25.2561  -28.6434 H   0  0  0  0  0  0  0  0  0  0  0  0
   -2.5058   23.8418  -29.7606 H   0  0  0  0  0  0  0  0  0  0  0  0
   -3.5940   24.9350  -31.3140 H   0  0  0  0  0  0  0  0  0  0  0  0
   -5.4961   25.2962  -29.1460 H   0  0  0  0  0  0  0  0  0  0  0  0
   -5.3673   26.6250  -30.4157 H   0  0  0  0  0  0  0  0  0  0  0  0
   -6.9455   24.3256  -30.4693 H   0  0  0  0  0  0  0  0  0  0  0  0
   -6.6297   25.5693  -31.7667 H   0  0  0  0  0  0  0  0  0  0  0  0
   -7.8383   23.0576  -30.7424 H   0  0  0  0  0  0  0  0  0  0  0  0
   -8.8457   20.8300  -30.9113 H   0  0  0  0  0  0  0  0  0  0  0  0
   -8.8283   18.5546  -31.7380 H   0  0  0  0  0  0  0  0  0  0  0  0
   -7.6788   16.8048  -33.0848 H   0  0  0  0  0  0  0  0  0  0  0  0
   -5.5477   17.2743  -34.2467 H   0  0  0  0  0  0  0  0  0  0  0  0
   -4.5631   19.5314  -34.0541 H   0  0  0  0  0  0  0  0  0  0  0  0
   -4.2630   22.0710  -34.3970 H   0  0  0  0  0  0  0  0  0  0  0  0
   -2.0069   21.0109  -34.4132 H   0  0  0  0  0  0  0  0  0  0  0  0
    0.1098   20.6067  -33.1757 H   0  0  0  0  0  0  0  0  0  0  0  0
    0.2021   20.9199  -30.7216 H   0  0  0  0  0  0  0  0  0  0  0  0
   -1.8328   21.6445  -29.4896 H   0  0  0  0  0  0  0  0  0  0  0  0
   -3.9540   22.0529  -30.7307 H   0  0  0  0  0  0  0  0  0  0  0  0
  1  2  1  0
  2  3  1  0
  3  4  1  0
  4  5  1  0
  5  6  1  0
  6  7  1  0
  7  8  2  0
  8  9  1  0
  9 10  2  0
 10 11  1  0
 11 12  2  0
 12 13  1  0
 13 14  2  0
 14 15  1  0
 15 16  2  0
 16 17  1  0
 17 18  1  0
 18 19  2  0
 19 20  1  0
 20 21  2  0
 21 22  1  0
 22 23  2  0
 16  7  1  0
 23 18  1  0
 15 10  1  0
  1 24  1  0
  1 25  1  0
  1 26  1  0
  2 27  1  0
  2 28  1  0
  3 29  1  0
  4 30  1  0
  4 31  1  0
  5 32  1  0
  5 33  1  0
  8 34  1  0
  9 35  1  0
 11 36  1  0
 12 37  1  0
 13 38  1  0
 14 39  1  0
 17 40  1  0
 19 41  1  0
 20 42  1  0
 21 43  1  0
 22 44  1  0
 23 45  1  0
M  END
>  <smiles>  (21) 
CCNCCOc1ccc2ccccc2c1Nc1ccccc1

>  <score_type>  (21) 
oracle

>  <origin>  (21) 
adg

>  <m_score__min__energy>  (21) 
-8.8599999999999994

>  <m_primary>  (21) 
energy

$$$$
21:0
     RDKit          3D

 59 63  0  0  0  0  0  0  0  0999 V2000
   -8.8860   21.5080  -31.9650 C   0  0  0  0  0  0  0  0  0  0  0  0
   -8.7960   19.9920  -31.8230 C   0  0  0  0  0  0  0  0  0  0  0  0
   -8.3290   19.4660  -33.0910 N   0  0  0  0  0  0  0  0  0  0  0  0
   -6.9520   19.1400  -33.1160 C   0  0  0  0  0  0  0  0  0  0  0  0
   -6.2060   19.1950  -31.8220 C   0  0  0  0  0  0  0  0  0  0  0  0
   -5.0300   20.0350  -31.8660 N   0  0  0  0  0  0  0  0  0  0  0  0
   -4.9050   21.0980  -31.0070 C   0  0  0  0  0  0  0  0  0  0  0  0
   -3.6940   21.7270  -31.2270 C   0  0  0  0  0  0  0  0  0  0  0  0
   -3.2650   22.8900  -30.4700 C   0  0  0  0  0  0  0  0  0  0  0  0
   -2.2510   22.8240  -29.5830 C   0  0  0  0  0  0  0  0  0  0  0  0
   -1.4800   21.6230  -29.2690 C   0  0  0  0  0  0  0  0  0  0  0  0
   -0.2370   21.2410  -29.7780 C   0  0  0  0  0  0  0  0  0  0  0  0
    0.1080   20.0760  -29.1790 N   0  0  0  0  0  0  0  0  0  0  0  0
    1.3400   19.3090  -29.4130 C   0  0  0  0  0  0  0  0  0  0  0  0
   -0.8860   19.7250  -28.3100 C   0  0  0  0  0  0  0  0  0  0  0  0
   -0.9810   18.6290  -27.4710 C   0  0  0  0  0  0  0  0  0  0  0  0
   -2.1070   18.5120  -26.6730 C   0  0  0  0  0  0  0  0  0  0  0  0
   -3.1300   19.4350  -26.6780 C   0  0  0  0  0  0  0  0  0  0  0  0
   -2.9880   20.5210  -27.5410 C   0  0  0  0  0  0  0  0  0  0  0  0
   -1.8720   20.6680  -28.3540 C   0  0  0  0  0  0  0  0  0  0  0  0
   -2.0530   24.1460  -28.9880 C   0  0  0  0  0  0  0  0  0  0  0  0
   -1.2260   24.5270  -28.1230 O   0  0  0  0  0  0  0  0  0  0  0  0
   -3.0080   25.0290  -29.5680 N   0  0  0  0  0  0  0  0  0  0  0  0
   -3.7670   24.2600  -30.4920 C   0  0  0  0  0  0  0  0  0  0  0  0
   -4.7030   24.7220  -31.1910 O   0  0  0  0  0  0  0  0  0  0  0  0
   -3.0940   21.0230  -32.2340 C   0  0  0  0  0  0  0  0  0  0  0  0
   -1.8930   21.1830  -32.8610 C   0  0  0  0  0  0  0  0  0  0  0  0
   -1.4540   20.3340  -33.8910 C   0  0  0  0  0  0  0  0  0  0  0  0
   -0.3400   20.4810  -34.4730 O   0  0  0  0  0  0  0  0  0  0  0  0
    0.7930   20.6160  -35.0730 C   0  0  0  0  0  0  0  0  0  0  0  0
   -2.3460   19.3020  -34.2340 C   0  0  0  0  0  0  0  0  0  0  0  0
   -3.5520   19.1320  -33.6110 C   0  0  0  0  0  0  0  0  0  0  0  0
   -3.9250   19.9930  -32.6120 C   0  0  0  0  0  0  0  0  0  0  0  0
   -8.9134   21.9688  -30.9665 H   0  0  0  0  0  0  0  0  0  0  0  0
   -8.0082   21.8775  -32.5154 H   0  0  0  0  0  0  0  0  0  0  0  0
   -9.8013   21.7710  -32.5154 H   0  0  0  0  0  0  0  0  0  0  0  0
   -8.0874   19.7304  -31.0233 H   0  0  0  0  0  0  0  0  0  0  0  0
   -9.7766   19.5668  -31.5630 H   0  0  0  0  0  0  0  0  0  0  0  0
   -8.6730   20.0210  -33.8840 H   0  0  0  0  0  0  0  0  0  0  0  0
   -6.8632   18.1146  -33.5041 H   0  0  0  0  0  0  0  0  0  0  0  0
   -6.4906   19.9206  -33.7387 H   0  0  0  0  0  0  0  0  0  0  0  0
   -6.8826   19.5845  -31.0471 H   0  0  0  0  0  0  0  0  0  0  0  0
   -5.8636   18.1727  -31.6038 H   0  0  0  0  0  0  0  0  0  0  0  0
   -5.6525   21.4022  -30.2595 H   0  0  0  0  0  0  0  0  0  0  0  0
    0.3541   21.7865  -30.5284 H   0  0  0  0  0  0  0  0  0  0  0  0
    1.7874   19.0304  -28.4475 H   0  0  0  0  0  0  0  0  0  0  0  0
    1.1026   18.3988  -29.9833 H   0  0  0  0  0  0  0  0  0  0  0  0
    2.0519   19.9238  -29.9833 H   0  0  0  0  0  0  0  0  0  0  0  0
   -0.1842   17.8714  -27.4386 H   0  0  0  0  0  0  0  0  0  0  0  0
   -2.1883   17.6422  -26.0045 H   0  0  0  0  0  0  0  0  0  0  0  0
   -4.0142   19.3209  -26.0336 H   0  0  0  0  0  0  0  0  0  0  0  0
   -3.7815   21.2818  -27.5788 H   0  0  0  0  0  0  0  0  0  0  0  0
   -3.1260   26.0420  -29.3530 H   0  0  0  0  0  0  0  0  0  0  0  0
   -1.2409   22.0114  -32.5471 H   0  0  0  0  0  0  0  0  0  0  0  0
    1.5945   20.7115  -34.3257 H   0  0  0  0  0  0  0  0  0  0  0  0
    0.9819   19.7340  -35.7026 H   0  0  0  0  0  0  0  0  0  0  0  0
    0.7693   21.5177  -35.7026 H   0  0  0  0  0  0  0  0  0  0  0  0
   -2.0625   18.6037  -35.0352 H   0  0  0  0  0  0  0  0  0  0  0  0
   -4.2182   18.3094  -33.9100 H   0  0  0  0  0  0  0  0  0  0  0  0
  1  2  1  0
  2  3  1  0
  3  4  1  0
  4  5  1  0
  5  6  1  0
  6  7  1  0
  7  8  2  0
  8  9  1  0
  9 10  2  0
 10 11  1  0
 11 12  2  0
 12 13  1  0
 13 14  1  0
 13 15  1  0
 15 16  2  0
 16 17  1  0
 17 18  2  0
 18 19  1  0
 19 20  2  0
 10 21  1  0
 21 22  2  0
 21 23  1  0
 23 24  1  0
 24 25  2  0
  8 26  1  0
 26 27  2  0
 27 28  1  0
 28 29  1  0
 29 30  1  0
 28 31  2  0
 31 32  1  0
 32 33  2  0
 33  6  1  0
 24  9  1  0
 33 26  1  0
 20 11  1  0
 20 15  1  0
  1 34  1  0
  1 35  1  0
  1 36  1  0
  2 37  1  0
  2 38  1  0
  3 39  1  0
  4 40  1  0
  4 41  1  0
  5 42  1  0
  5 43  1  0
  7 44  1  0
 12 45  1  0
 14 46  1  0
 14 47  1  0
 14 48  1  0
 16 49  1  0
 17 50  1  0
 18 51  1  0
 19 52  1  0
 23 53  1  0
 27 54  1  0
 30 55  1  0
 30 56  1  0
 30 57  1  0
 31 58  1  0
 32 59  1  0
M  END
>  <smiles>  (22) 
CCNCCn1cc(C2=C(c3cn(C)c4ccccc34)C(=O)NC2=O)c2cc(OC)ccc21

>  <score_type>  (22) 
oracle

>  <origin>  (22) 
adg

>  <m_score__min__energy>  (22) 
-10.1

>  <m_primary>  (22) 
energy

$$$$
22:0
     RDKit          3D

 49 51  0  0  0  0  0  0  0  0999 V2000
    1.3140   21.7860  -35.6100 C   0  0  0  0  0  0  0  0  0  0  0  0
   -0.0600   21.9170  -35.0030 C   0  0  0  0  0  0  0  0  0  0  0  0
   -0.4790   20.8040  -34.2550 N   0  0  0  0  0  0  0  0  0  0  0  0
   -0.5330   19.5360  -34.8670 C   0  0  0  0  0  0  0  0  0  0  0  0
   -0.7220   18.3450  -33.9970 C   0  0  0  0  0  0  0  0  0  0  0  0
   -0.4120   20.8470  -32.8520 C   0  0  0  0  0  0  0  0  0  0  0  0
   -1.7720   21.0670  -32.2420 C   0  0  0  0  0  0  0  0  0  0  0  0
   -2.8280   21.1910  -33.2340 N   0  0  0  0  0  0  0  0  0  0  0  0
   -4.1510   20.8580  -32.8600 C   0  0  0  0  0  0  0  0  0  0  0  0
   -4.8050   19.6950  -33.1700 C   0  0  0  0  0  0  0  0  0  0  0  0
   -4.1260   18.7600  -33.9090 C   0  0  0  0  0  0  0  0  0  0  0  0
   -4.7560   17.5720  -34.2450 C   0  0  0  0  0  0  0  0  0  0  0  0
   -6.0600   17.3490  -33.8300 C   0  0  0  0  0  0  0  0  0  0  0  0
   -6.8740   15.8570  -34.2390 Cl  0  0  0  0  0  0  0  0  0  0  0  0
   -6.7070   18.3210  -33.0880 C   0  0  0  0  0  0  0  0  0  0  0  0
   -6.1180   19.5160  -32.7310 C   0  0  0  0  0  0  0  0  0  0  0  0
   -6.7710   20.4550  -32.0040 N   0  0  0  0  0  0  0  0  0  0  0  0
   -8.1150   20.2290  -31.5440 C   0  0  0  0  0  0  0  0  0  0  0  0
   -6.1360   21.6140  -31.6900 C   0  0  0  0  0  0  0  0  0  0  0  0
   -6.7190   22.6220  -30.9690 C   0  0  0  0  0  0  0  0  0  0  0  0
   -6.0790   23.8120  -30.6490 C   0  0  0  0  0  0  0  0  0  0  0  0
   -6.8950   25.0600  -29.7220 Cl  0  0  0  0  0  0  0  0  0  0  0  0
   -4.7860   24.0230  -31.0670 C   0  0  0  0  0  0  0  0  0  0  0  0
   -4.1910   23.0120  -31.7940 C   0  0  0  0  0  0  0  0  0  0  0  0
   -4.8220   21.8370  -32.1090 C   0  0  0  0  0  0  0  0  0  0  0  0
    2.0637   21.7145  -34.8083 H   0  0  0  0  0  0  0  0  0  0  0  0
    1.3551   20.8799  -36.2323 H   0  0  0  0  0  0  0  0  0  0  0  0
    1.5256   22.6680  -36.2323 H   0  0  0  0  0  0  0  0  0  0  0  0
   -0.0597   22.7950  -34.3403 H   0  0  0  0  0  0  0  0  0  0  0  0
   -0.7637   22.0099  -35.8433 H   0  0  0  0  0  0  0  0  0  0  0  0
   -1.3687   19.5539  -35.5820 H   0  0  0  0  0  0  0  0  0  0  0  0
    0.4678   19.4000  -35.3027 H   0  0  0  0  0  0  0  0  0  0  0  0
   -0.6735   18.6506  -32.9414 H   0  0  0  0  0  0  0  0  0  0  0  0
   -1.7032   17.8924  -34.2030 H   0  0  0  0  0  0  0  0  0  0  0  0
    0.0709   17.6109  -34.2030 H   0  0  0  0  0  0  0  0  0  0  0  0
   -0.0049   19.8937  -32.4840 H   0  0  0  0  0  0  0  0  0  0  0  0
    0.2367   21.6869  -32.5625 H   0  0  0  0  0  0  0  0  0  0  0  0
   -2.0045   20.2139  -31.5877 H   0  0  0  0  0  0  0  0  0  0  0  0
   -1.7324   22.0144  -31.6844 H   0  0  0  0  0  0  0  0  0  0  0  0
   -2.6340   21.5270  -34.2240 H   0  0  0  0  0  0  0  0  0  0  0  0
   -3.0919   18.9511  -34.2317 H   0  0  0  0  0  0  0  0  0  0  0  0
   -4.2252   16.8116  -34.8366 H   0  0  0  0  0  0  0  0  0  0  0  0
   -7.7419   18.1315  -32.7670 H   0  0  0  0  0  0  0  0  0  0  0  0
   -8.1305   20.2264  -30.4441 H   0  0  0  0  0  0  0  0  0  0  0  0
   -8.7701   21.0296  -31.9181 H   0  0  0  0  0  0  0  0  0  0  0  0
   -8.4722   19.2582  -31.9181 H   0  0  0  0  0  0  0  0  0  0  0  0
   -7.7538   22.4808  -30.6236 H   0  0  0  0  0  0  0  0  0  0  0  0
   -4.2505   24.9549  -30.8327 H   0  0  0  0  0  0  0  0  0  0  0  0
   -3.1564   23.1569  -32.1385 H   0  0  0  0  0  0  0  0  0  0  0  0
  1  2  1  0
  2  3  1  0
  3  4  1  0
  4  5  1  0
  3  6  1  0
  6  7  1  0
  7  8  1  0
  8  9  1  0
  9 10  2  0
 10 11  1  0
 11 12  2  0
 12 13  1  0
 13 14  1  0
 13 15  2  0
 15 16  1  0
 16 17  2  0
 17 18  1  0
 17 19  1  0
 19 20  2  0
 20 21  1  0
 21 22  1  0
 21 23  2  0
 23 24  1  0
 24 25  2  0
 25  9  1  0
 16 10  1  0
 25 19  1  0
  1 26  1  0
  1 27  1  0
  1 28  1  0
  2 29  1  0
  2 30  1  0
  4 31  1  0
  4 32  1  0
  5 33  1  0
  5 34  1  0
  5 35  1  0
  6 36  1  0
  6 37  1  0
  7 38  1  0
  7 39  1  0
  8 40  1  0
 11 41  1  0
 12 42  1  0
 15 43  1  0
 18 44  1  0
 18 45  1  0
 18 46  1  0
 20 47  1  0
 23 48  1  0
 24 49  1  0
M  CHG  1  17   1
M  END
>  <smiles>  (23) 
CCN(CC)CCNc1c2ccc(Cl)cc2[n+](C)c2cc(Cl)ccc12

>  <score_type>  (23) 
oracle

>  <origin>  (23) 
adg

>  <m_score__min__energy>  (23) 
-7.3799999999999999

>  <m_primary>  (23) 
energy

$$$$
23:0
     RDKit          3D

 69 71  0  0  0  0  0  0  0  0999 V2000
   -2.8160   18.9280  -26.2430 C   0  0  0  0  0  0  0  0  0  0  0  0
   -2.7390   19.8170  -27.4360 C   0  0  0  0  0  0  0  0  0  0  0  0
   -2.0540   21.1320  -27.3170 C   0  0  0  0  0  0  0  0  0  0  0  0
   -2.4320   22.2040  -28.1070 N   0  0  0  0  0  0  0  0  0  0  0  0
   -3.7600   22.6950  -27.9100 C   0  0  0  0  0  0  0  0  0  0  0  0
   -3.9650   24.1160  -27.6210 C   0  0  0  0  0  0  0  0  0  0  0  0
   -2.9380   24.7720  -26.7510 C   0  0  0  0  0  0  0  0  0  0  0  0
   -1.6360   22.7850  -29.0800 C   0  0  0  0  0  0  0  0  0  0  0  0
   -1.3890   22.1360  -30.3960 C   0  0  0  0  0  0  0  0  0  0  0  0
   -1.6760   20.7930  -30.2710 O   0  0  0  0  0  0  0  0  0  0  0  0
   -0.4770   20.0480  -30.2140 C   0  0  0  0  0  0  0  0  0  0  0  0
   -0.2260   19.6790  -31.7240 C   0  0  0  0  0  0  0  0  0  0  0  0
   -1.3720   19.8130  -32.3720 O   0  0  0  0  0  0  0  0  0  0  0  0
   -1.6990   20.4430  -33.4630 C   0  0  0  0  0  0  0  0  0  0  0  0
   -2.9870   21.2620  -33.4790 C   0  0  0  0  0  0  0  0  0  0  0  0
   -3.7020   21.0380  -32.2510 N   0  0  0  0  0  0  0  0  0  0  0  0
   -5.0600   21.2230  -31.9570 C   0  0  0  0  0  0  0  0  0  0  0  0
   -5.4750   22.4510  -31.4700 C   0  0  0  0  0  0  0  0  0  0  0  0
   -4.5010   23.4060  -31.2300 C   0  0  0  0  0  0  0  0  0  0  0  0
   -4.8900   24.6260  -30.7390 C   0  0  0  0  0  0  0  0  0  0  0  0
   -6.2010   24.9520  -30.4770 C   0  0  0  0  0  0  0  0  0  0  0  0
   -7.1670   23.9670  -30.7300 C   0  0  0  0  0  0  0  0  0  0  0  0
   -6.8020   22.7370  -31.2180 C   0  0  0  0  0  0  0  0  0  0  0  0
   -7.7240   21.7900  -31.4550 N   0  0  0  0  0  0  0  0  0  0  0  0
   -9.1420   21.9630  -31.2590 C   0  0  0  0  0  0  0  0  0  0  0  0
   -7.3450   20.5690  -31.9320 C   0  0  0  0  0  0  0  0  0  0  0  0
   -8.2960   19.5820  -32.1870 C   0  0  0  0  0  0  0  0  0  0  0  0
   -7.9340   18.3490  -32.6760 C   0  0  0  0  0  0  0  0  0  0  0  0
   -6.6020   18.0950  -32.9140 C   0  0  0  0  0  0  0  0  0  0  0  0
   -5.6180   19.0360  -32.6820 C   0  0  0  0  0  0  0  0  0  0  0  0
   -6.0320   20.2520  -32.1940 C   0  0  0  0  0  0  0  0  0  0  0  0
   -2.7633   19.5366  -25.3282 H   0  0  0  0  0  0  0  0  0  0  0  0
   -3.7656   18.3730  -26.2600 H   0  0  0  0  0  0  0  0  0  0  0  0
   -1.9760   18.2180  -26.2600 H   0  0  0  0  0  0  0  0  0  0  0  0
   -2.2182   19.2533  -28.2240 H   0  0  0  0  0  0  0  0  0  0  0  0
   -3.7879   20.0847  -27.6314 H   0  0  0  0  0  0  0  0  0  0  0  0
   -2.1746   21.4547  -26.2723 H   0  0  0  0  0  0  0  0  0  0  0  0
   -1.0384   20.9107  -27.6771 H   0  0  0  0  0  0  0  0  0  0  0  0
   -4.3244   22.4697  -28.8269 H   0  0  0  0  0  0  0  0  0  0  0  0
   -4.0886   22.1925  -26.9883 H   0  0  0  0  0  0  0  0  0  0  0  0
   -3.9839   24.6536  -28.5805 H   0  0  0  0  0  0  0  0  0  0  0  0
   -4.9055   24.1665  -27.0528 H   0  0  0  0  0  0  0  0  0  0  0  0
   -3.1943   24.6083  -25.6939 H   0  0  0  0  0  0  0  0  0  0  0  0
   -1.9491   24.3379  -26.9600 H   0  0  0  0  0  0  0  0  0  0  0  0
   -2.9161   25.8517  -26.9600 H   0  0  0  0  0  0  0  0  0  0  0  0
   -2.0867   23.7639  -29.3006 H   0  0  0  0  0  0  0  0  0  0  0  0
   -0.6401   22.7434  -28.6147 H   0  0  0  0  0  0  0  0  0  0  0  0
   -2.0378   22.5864  -31.1616 H   0  0  0  0  0  0  0  0  0  0  0  0
   -0.3409   22.2755  -30.6994 H   0  0  0  0  0  0  0  0  0  0  0  0
    0.3479   20.6543  -29.8115 H   0  0  0  0  0  0  0  0  0  0  0  0
   -0.5400   19.1696  -29.5549 H   0  0  0  0  0  0  0  0  0  0  0  0
    0.5275   20.3555  -32.1537 H   0  0  0  0  0  0  0  0  0  0  0  0
    0.1437   18.6465  -31.8095 H   0  0  0  0  0  0  0  0  0  0  0  0
   -0.8744   21.1319  -33.6985 H   0  0  0  0  0  0  0  0  0  0  0  0
   -1.8851   19.6388  -34.1900 H   0  0  0  0  0  0  0  0  0  0  0  0
   -2.7431   22.3304  -33.5737 H   0  0  0  0  0  0  0  0  0  0  0  0
   -3.6104   20.9560  -34.3321 H   0  0  0  0  0  0  0  0  0  0  0  0
   -3.1160   20.6770  -31.4370 H   0  0  0  0  0  0  0  0  0  0  0  0
   -3.4406   23.1910  -31.4285 H   0  0  0  0  0  0  0  0  0  0  0  0
   -4.1150   25.3821  -30.5448 H   0  0  0  0  0  0  0  0  0  0  0  0
   -6.4793   25.9419  -30.0862 H   0  0  0  0  0  0  0  0  0  0  0  0
   -8.2280   24.1824  -30.5353 H   0  0  0  0  0  0  0  0  0  0  0  0
   -9.3627   21.9899  -30.1817 H   0  0  0  0  0  0  0  0  0  0  0  0
   -9.4638   22.9071  -31.7229 H   0  0  0  0  0  0  0  0  0  0  0  0
   -9.6813   21.1240  -31.7229 H   0  0  0  0  0  0  0  0  0  0  0  0
   -9.3578   19.7940  -31.9930 H   0  0  0  0  0  0  0  0  0  0  0  0
   -8.6948   17.5795  -32.8735 H   0  0  0  0  0  0  0  0  0  0  0  0
   -6.3112   17.1079  -33.3026 H   0  0  0  0  0  0  0  0  0  0  0  0
   -4.5568   18.8228  -32.8779 H   0  0  0  0  0  0  0  0  0  0  0  0
  1  2  1  0
  2  3  1  0
  3  4  1  0
  4  5  1  0
  5  6  1  0
  6  7  1  0
  4  8  1  0
  8  9  1  0
  9 10  1  0
 10 11  1  0
 11 12  1  0
 12 13  1  0
 13 14  1  0
 14 15  1  0
 15 16  1  0
 16 17  1  0
 17 18  2  0
 18 19  1  0
 19 20  2  0
 20 21  1  0
 21 22  2  0
 22 23  1  0
 23 24  2  0
 24 25  1  0
 24 26  1  0
 26 27  2  0
 27 28  1  0
 28 29  2  0
 29 30  1  0
 30 31  2  0
 31 17  1  0
 23 18  1  0
 31 26  1  0
  1 32  1  0
  1 33  1  0
  1 34  1  0
  2 35  1  0
  2 36  1  0
  3 37  1  0
  3 38  1  0
  5 39  1  0
  5 40  1  0
  6 41  1  0
  6 42  1  0
  7 43  1  0
  7 44  1  0
  7 45  1  0
  8 46  1  0
  8 47  1  0
  9 48  1  0
  9 49  1  0
 11 50  1  0
 11 51  1  0
 12 52  1  0
 12 53  1  0
 14 54  1  0
 14 55  1  0
 15 56  1  0
 15 57  1  0
 16 58  1  0
 19 59  1  0
 20 60  1  0
 21 61  1  0
 22 62  1  0
 25 63  1  0
 25 64  1  0
 25 65  1  0
 27 66  1  0
 28 67  1  0
 29 68  1  0
 30 69  1  0
M  CHG  1  24   1
M  END
>  <smiles>  (24) 
CCCN(CCC)CCOCCOCCNc1c2ccccc2[n+](C)c2ccccc12

>  <score_type>  (24) 
oracle

>  <origin>  (24) 
adg

>  <m_score__min__energy>  (24) 
-9.0899999999999999

>  <m_primary>  (24) 
energy

$$$$
24:0
     RDKit          3D

 66 68  0  0  0  0  0  0  0  0999 V2000
   -2.4020   19.5880  -27.2500 C   0  0  0  0  0  0  0  0  0  0  0  0
   -3.0960   20.7580  -27.8710 C   0  0  0  0  0  0  0  0  0  0  0  0
   -2.8220   20.9780  -29.2590 N   0  0  0  0  0  0  0  0  0  0  0  0
   -1.4830   20.6700  -29.6430 C   0  0  0  0  0  0  0  0  0  0  0  0
   -1.0310   21.5610  -30.8300 C   0  0  0  0  0  0  0  0  0  0  0  0
   -2.1140   22.1590  -31.4070 O   0  0  0  0  0  0  0  0  0  0  0  0
   -2.2940   21.8730  -32.7580 C   0  0  0  0  0  0  0  0  0  0  0  0
   -3.3880   20.9160  -32.9710 C   0  0  0  0  0  0  0  0  0  0  0  0
   -4.0420   20.3150  -31.8150 N   0  0  0  0  0  0  0  0  0  0  0  0
   -5.4220   20.0130  -31.9640 C   0  0  0  0  0  0  0  0  0  0  0  0
   -5.6530   18.7660  -32.5780 C   0  0  0  0  0  0  0  0  0  0  0  0
   -4.6190   18.0120  -33.0780 C   0  0  0  0  0  0  0  0  0  0  0  0
   -4.7690   16.7910  -33.6970 C   0  0  0  0  0  0  0  0  0  0  0  0
   -6.0510   16.3040  -33.8170 C   0  0  0  0  0  0  0  0  0  0  0  0
   -7.1200   17.0450  -33.3220 C   0  0  0  0  0  0  0  0  0  0  0  0
   -6.9370   18.2610  -32.7100 C   0  0  0  0  0  0  0  0  0  0  0  0
   -7.9680   18.9820  -32.2470 N   0  0  0  0  0  0  0  0  0  0  0  0
   -9.3260   18.5410  -32.3450 C   0  0  0  0  0  0  0  0  0  0  0  0
   -7.7690   20.1960  -31.6540 C   0  0  0  0  0  0  0  0  0  0  0  0
   -8.8670   20.9030  -31.2230 C   0  0  0  0  0  0  0  0  0  0  0  0
   -8.6890   22.1400  -30.6540 C   0  0  0  0  0  0  0  0  0  0  0  0
   -7.4140   22.6450  -30.5300 C   0  0  0  0  0  0  0  0  0  0  0  0
   -6.2720   21.9680  -30.9500 C   0  0  0  0  0  0  0  0  0  0  0  0
   -5.0440   22.6270  -30.8330 N   0  0  0  0  0  0  0  0  0  0  0  0
   -4.9510   24.0480  -31.2070 C   0  0  0  0  0  0  0  0  0  0  0  0
   -4.2630   24.8270  -30.1430 C   0  0  0  0  0  0  0  0  0  0  0  0
   -3.5900   23.9790  -29.2080 N   0  0  0  0  0  0  0  0  0  0  0  0
   -4.2490   23.7700  -27.9630 C   0  0  0  0  0  0  0  0  0  0  0  0
   -2.1760   24.1790  -29.1010 C   0  0  0  0  0  0  0  0  0  0  0  0
   -6.4760   20.7310  -31.5080 C   0  0  0  0  0  0  0  0  0  0  0  0
   -2.4516   19.6715  -26.1543 H   0  0  0  0  0  0  0  0  0  0  0  0
   -2.8944   18.6577  -27.5694 H   0  0  0  0  0  0  0  0  0  0  0  0
   -1.3495   19.5741  -27.5694 H   0  0  0  0  0  0  0  0  0  0  0  0
   -4.1798   20.6056  -27.7606 H   0  0  0  0  0  0  0  0  0  0  0  0
   -2.7143   21.6460  -27.3459 H   0  0  0  0  0  0  0  0  0  0  0  0
   -3.1410   21.9190  -29.5290 H   0  0  0  0  0  0  0  0  0  0  0  0
   -0.8137   20.8427  -28.7873 H   0  0  0  0  0  0  0  0  0  0  0  0
   -1.4398   19.6166  -29.9567 H   0  0  0  0  0  0  0  0  0  0  0  0
   -0.3413   22.3348  -30.4620 H   0  0  0  0  0  0  0  0  0  0  0  0
   -0.5249   20.9337  -31.5786 H   0  0  0  0  0  0  0  0  0  0  0  0
   -2.5279   22.8060  -33.2916 H   0  0  0  0  0  0  0  0  0  0  0  0
   -1.3658   21.4223  -33.1391 H   0  0  0  0  0  0  0  0  0  0  0  0
   -4.1667   21.4404  -33.5443 H   0  0  0  0  0  0  0  0  0  0  0  0
   -2.8983   20.0648  -33.4666 H   0  0  0  0  0  0  0  0  0  0  0  0
   -3.5210   20.1600  -30.8950 H   0  0  0  0  0  0  0  0  0  0  0  0
   -3.5993   18.4119  -32.9767 H   0  0  0  0  0  0  0  0  0  0  0  0
   -3.9032   16.2299  -34.0785 H   0  0  0  0  0  0  0  0  0  0  0  0
   -6.2297   15.3331  -34.3022 H   0  0  0  0  0  0  0  0  0  0  0  0
   -8.1399   16.6457  -33.4237 H   0  0  0  0  0  0  0  0  0  0  0  0
   -9.7415   18.4061  -31.3355 H   0  0  0  0  0  0  0  0  0  0  0  0
   -9.9176   19.2932  -32.8874 H   0  0  0  0  0  0  0  0  0  0  0  0
   -9.3627   17.5848  -32.8874 H   0  0  0  0  0  0  0  0  0  0  0  0
   -9.8773   20.4820  -31.3329 H   0  0  0  0  0  0  0  0  0  0  0  0
   -9.5544   22.7204  -30.3016 H   0  0  0  0  0  0  0  0  0  0  0  0
   -7.2908   23.6383  -30.0738 H   0  0  0  0  0  0  0  0  0  0  0  0
   -4.1320   22.2630  -30.5200 H   0  0  0  0  0  0  0  0  0  0  0  0
   -4.3835   24.1383  -32.1450 H   0  0  0  0  0  0  0  0  0  0  0  0
   -5.9678   24.4472  -31.3366 H   0  0  0  0  0  0  0  0  0  0  0  0
   -3.5251   25.4942  -30.6123 H   0  0  0  0  0  0  0  0  0  0  0  0
   -5.0253   25.3997  -29.5945 H   0  0  0  0  0  0  0  0  0  0  0  0
   -3.5544   23.9903  -27.1390 H   0  0  0  0  0  0  0  0  0  0  0  0
   -5.1223   24.4353  -27.8942 H   0  0  0  0  0  0  0  0  0  0  0  0
   -4.5793   22.7230  -27.8942 H   0  0  0  0  0  0  0  0  0  0  0  0
   -1.8907   24.2194  -28.0394 H   0  0  0  0  0  0  0  0  0  0  0  0
   -1.6498   23.3463  -29.5907 H   0  0  0  0  0  0  0  0  0  0  0  0
   -1.9014   25.1249  -29.5907 H   0  0  0  0  0  0  0  0  0  0  0  0
  1  2  1  0
  2  3  1  0
  3  4  1  0
  4  5  1  0
  5  6  1  0
  6  7  1  0
  7  8  1  0
  8  9  1  0
  9 10  1  0
 10 11  2  0
 11 12  1  0
 12 13  2  0
 13 14  1  0
 14 15  2  0
 15 16  1  0
 16 17  2  0
 17 18  1  0
 17 19  1  0
 19 20  2  0
 20 21  1  0
 21 22  2  0
 22 23  1  0
 23 24  1  0
 24 25  1  0
 25 26  1  0
 26 27  1  0
 27 28  1  0
 27 29  1  0
 23 30  2  0
 30 10  1  0
 16 11  1  0
 30 19  1  0
  1 31  1  0
  1 32  1  0
  1 33  1  0
  2 34  1  0
  2 35  1  0
  3 36  1  0
  4 37  1  0
  4 38  1  0
  5 39  1  0
  5 40  1  0
  7 41  1  0
  7 42  1  0
  8 43  1  0
  8 44  1  0
  9 45  1  0
 12 46  1  0
 13 47  1  0
 14 48  1  0
 15 49  1  0
 18 50  1  0
 18 51  1  0
 18 52  1  0
 20 53  1  0
 21 54  1  0
 22 55  1  0
 24 56  1  0
 25 57  1  0
 25 58  1  0
 26 59  1  0
 26 60  1  0
 28 61  1  0
 28 62  1  0
 28 63  1  0
 29 64  1  0
 29 65  1  0
 29 66  1  0
M  CHG  1  17   1
M  END
>  <smiles>  (25) 
CCNCCOCCNc1c2ccccc2[n+](C)c2cccc(NCCN(C)C)c12

>  <score_type>  (25) 
oracle

>  <origin>  (25) 
adg

>  <m_score__min__energy>  (25) 
-9.1799999999999997

>  <m_primary>  (25) 
energy

$$$$
25:0
     RDKit          3D

 44 46  0  0  0  0  0  0  0  0999 V2000
   -2.5590   21.7620  -29.6880 C   0  0  0  0  0  0  0  0  0  0  0  0
   -1.9690   22.5920  -30.8040 C   0  0  0  0  0  0  0  0  0  0  0  0
   -2.7530   22.5350  -31.9780 O   0  0  0  0  0  0  0  0  0  0  0  0
   -3.1580   21.3070  -32.4780 C   0  0  0  0  0  0  0  0  0  0  0  0
   -2.2080   20.4130  -32.9260 C   0  0  0  0  0  0  0  0  0  0  0  0
   -2.5520   19.1820  -33.4330 C   0  0  0  0  0  0  0  0  0  0  0  0
   -3.8830   18.8570  -33.4860 C   0  0  0  0  0  0  0  0  0  0  0  0
   -4.8940   19.7060  -33.0540 C   0  0  0  0  0  0  0  0  0  0  0  0
   -4.5020   20.9500  -32.5440 C   0  0  0  0  0  0  0  0  0  0  0  0
   -5.4280   21.8610  -32.0910 C   0  0  0  0  0  0  0  0  0  0  0  0
   -5.1390   23.1170  -31.5440 N   0  0  0  0  0  0  0  0  0  0  0  0
   -5.5230   23.5260  -30.2300 C   0  0  0  0  0  0  0  0  0  0  0  0
   -4.9920   24.9130  -29.9280 C   0  0  0  0  0  0  0  0  0  0  0  0
   -3.8600   25.2360  -30.7950 N   0  0  0  0  0  0  0  0  0  0  0  0
   -6.7610   21.4820  -32.1690 C   0  0  0  0  0  0  0  0  0  0  0  0
   -7.7310   22.3700  -31.7200 C   0  0  0  0  0  0  0  0  0  0  0  0
   -9.0730   22.0520  -31.7680 C   0  0  0  0  0  0  0  0  0  0  0  0
   -9.3930   20.8120  -32.2830 C   0  0  0  0  0  0  0  0  0  0  0  0
   -8.4390   19.9170  -32.7330 C   0  0  0  0  0  0  0  0  0  0  0  0
   -7.1060   20.2310  -32.6870 C   0  0  0  0  0  0  0  0  0  0  0  0
   -6.1980   19.3530  -33.1230 N   0  0  0  0  0  0  0  0  0  0  0  0
   -6.4980   18.0570  -33.6740 C   0  0  0  0  0  0  0  0  0  0  0  0
   -2.2583   22.1850  -28.7181 H   0  0  0  0  0  0  0  0  0  0  0  0
   -3.6562   21.7687  -29.7667 H   0  0  0  0  0  0  0  0  0  0  0  0
   -2.1921   20.7280  -29.7667 H   0  0  0  0  0  0  0  0  0  0  0  0
   -1.9031   23.6385  -30.4715 H   0  0  0  0  0  0  0  0  0  0  0  0
   -0.9743   22.1858  -31.0399 H   0  0  0  0  0  0  0  0  0  0  0  0
   -1.1453   20.6927  -32.8763 H   0  0  0  0  0  0  0  0  0  0  0  0
   -1.7826   18.4792  -33.7854 H   0  0  0  0  0  0  0  0  0  0  0  0
   -4.1645   17.8739  -33.8913 H   0  0  0  0  0  0  0  0  0  0  0  0
   -4.6000   23.7930  -32.1640 H   0  0  0  0  0  0  0  0  0  0  0  0
   -6.6208   23.5359  -30.1605 H   0  0  0  0  0  0  0  0  0  0  0  0
   -5.1026   22.8181  -29.5006 H   0  0  0  0  0  0  0  0  0  0  0  0
   -5.7929   25.6492  -30.0914 H   0  0  0  0  0  0  0  0  0  0  0  0
   -4.6537   24.9408  -28.8817 H   0  0  0  0  0  0  0  0  0  0  0  0
   -4.2380   25.6800  -31.6550 H   0  0  0  0  0  0  0  0  0  0  0  0
   -3.2980   24.3710  -31.0180 H   0  0  0  0  0  0  0  0  0  0  0  0
   -7.4228   23.3465  -31.3181 H   0  0  0  0  0  0  0  0  0  0  0  0
   -9.8466   22.7496  -31.4146 H   0  0  0  0  0  0  0  0  0  0  0  0
  -10.4529   20.5229  -32.3380 H   0  0  0  0  0  0  0  0  0  0  0  0
   -8.7542   18.9418  -33.1325 H   0  0  0  0  0  0  0  0  0  0  0  0
   -6.6639   17.3403  -32.8562 H   0  0  0  0  0  0  0  0  0  0  0  0
   -7.4047   18.1228  -34.2934 H   0  0  0  0  0  0  0  0  0  0  0  0
   -5.6546   17.7177  -34.2934 H   0  0  0  0  0  0  0  0  0  0  0  0
  1  2  1  0
  2  3  1  0
  3  4  1  0
  4  5  2  0
  5  6  1  0
  6  7  2  0
  7  8  1  0
  8  9  2  0
  9 10  1  0
 10 11  1  0
 11 12  1  0
 12 13  1  0
 13 14  1  0
 10 15  2  0
 15 16  1  0
 16 17  2  0
 17 18  1  0
 18 19  2  0
 19 20  1  0
 20 21  2  0
 21 22  1  0
  9  4  1  0
 20 15  1  0
 21  8  1  0
  1 23  1  0
  1 24  1  0
  1 25  1  0
  2 26  1  0
  2 27  1  0
  5 28  1  0
  6 29  1  0
  7 30  1  0
 11 31  1  0
 12 32  1  0
 12 33  1  0
 13 34  1  0
 13 35  1  0
 14 36  1  0
 14 37  1  0
 16 38  1  0
 17 39  1  0
 18 40  1  0
 19 41  1  0
 22 42  1  0
 22 43  1  0
 22 44  1  0
M  CHG  1  21   1
M  END
>  <smiles>  (26) 
CCOc1cccc2c1c(NCCN)c1ccccc1[n+]2C

>  <score_type>  (26) 
oracle

>  <origin>  (26) 
adg

>  <m_score__min__energy>  (26) 
-7.79

>  <m_primary>  (26) 
energy

$$$$
26:0
     RDKit          3D

 53 55  0  0  0  0  0  0  0  0999 V2000
   -3.8010   23.6510  -27.5120 C   0  0  0  0  0  0  0  0  0  0  0  0
   -4.6350   23.0110  -28.6020 C   0  0  0  0  0  0  0  0  0  0  0  0
   -4.0420   23.1840  -29.9100 N   0  0  0  0  0  0  0  0  0  0  0  0
   -2.6320   23.4780  -29.7110 C   0  0  0  0  0  0  0  0  0  0  0  0
   -4.6330   24.2960  -30.5870 C   0  0  0  0  0  0  0  0  0  0  0  0
   -5.8240   24.8940  -29.8820 C   0  0  0  0  0  0  0  0  0  0  0  0
   -4.0910   21.9460  -30.6830 C   0  0  0  0  0  0  0  0  0  0  0  0
   -3.6920   22.1430  -32.1010 C   0  0  0  0  0  0  0  0  0  0  0  0
   -4.6660   21.6920  -33.0620 N   0  0  0  0  0  0  0  0  0  0  0  0
   -5.7100   20.7980  -32.8310 C   0  0  0  0  0  0  0  0  0  0  0  0
   -6.9400   21.3400  -32.4310 C   0  0  0  0  0  0  0  0  0  0  0  0
   -7.0520   22.7120  -32.3170 C   0  0  0  0  0  0  0  0  0  0  0  0
   -8.2410   23.3320  -31.9370 C   0  0  0  0  0  0  0  0  0  0  0  0
   -9.3240   22.5310  -31.6740 C   0  0  0  0  0  0  0  0  0  0  0  0
   -9.1980   21.1450  -31.7930 C   0  0  0  0  0  0  0  0  0  0  0  0
   -8.0320   20.5310  -32.1650 C   0  0  0  0  0  0  0  0  0  0  0  0
   -7.9620   19.1720  -32.2810 N   0  0  0  0  0  0  0  0  0  0  0  0
   -9.1030   18.3300  -31.9790 C   0  0  0  0  0  0  0  0  0  0  0  0
   -6.7830   18.6320  -32.6690 C   0  0  0  0  0  0  0  0  0  0  0  0
   -6.6340   17.2710  -32.8340 C   0  0  0  0  0  0  0  0  0  0  0  0
   -5.4420   16.6890  -33.2530 C   0  0  0  0  0  0  0  0  0  0  0  0
   -4.3530   17.4730  -33.5210 C   0  0  0  0  0  0  0  0  0  0  0  0
   -4.5140   18.8460  -33.3510 C   0  0  0  0  0  0  0  0  0  0  0  0
   -5.6680   19.4320  -32.9430 C   0  0  0  0  0  0  0  0  0  0  0  0
   -4.1913   23.3515  -26.5281 H   0  0  0  0  0  0  0  0  0  0  0  0
   -2.7562   23.3207  -27.6081 H   0  0  0  0  0  0  0  0  0  0  0  0
   -3.8497   24.7457  -27.6081 H   0  0  0  0  0  0  0  0  0  0  0  0
   -4.7269   21.9349  -28.3932 H   0  0  0  0  0  0  0  0  0  0  0  0
   -5.6200   23.5007  -28.6080 H   0  0  0  0  0  0  0  0  0  0  0  0
   -2.4154   23.5232  -28.6335 H   0  0  0  0  0  0  0  0  0  0  0  0
   -2.0236   22.6874  -30.1745 H   0  0  0  0  0  0  0  0  0  0  0  0
   -2.3903   24.4459  -30.1745 H   0  0  0  0  0  0  0  0  0  0  0  0
   -3.8681   25.0792  -30.6946 H   0  0  0  0  0  0  0  0  0  0  0  0
   -4.9981   23.9170  -31.5530 H   0  0  0  0  0  0  0  0  0  0  0  0
   -5.6803   24.8218  -28.7938 H   0  0  0  0  0  0  0  0  0  0  0  0
   -5.9273   25.9509  -30.1689 H   0  0  0  0  0  0  0  0  0  0  0  0
   -6.7334   24.3456  -30.1689 H   0  0  0  0  0  0  0  0  0  0  0  0
   -3.4088   21.2159  -30.2230 H   0  0  0  0  0  0  0  0  0  0  0  0
   -5.1314   21.5888  -30.6756 H   0  0  0  0  0  0  0  0  0  0  0  0
   -3.5200   23.2172  -32.2638 H   0  0  0  0  0  0  0  0  0  0  0  0
   -2.7893   21.5349  -32.2603 H   0  0  0  0  0  0  0  0  0  0  0  0
   -4.5760   22.0830  -34.0480 H   0  0  0  0  0  0  0  0  0  0  0  0
   -6.1728   23.3366  -32.5335 H   0  0  0  0  0  0  0  0  0  0  0  0
   -8.3091   24.4265  -31.8508 H   0  0  0  0  0  0  0  0  0  0  0  0
  -10.2832   22.9768  -31.3720 H   0  0  0  0  0  0  0  0  0  0  0  0
  -10.0758   20.5179  -31.5780 H   0  0  0  0  0  0  0  0  0  0  0  0
   -9.2177   18.2453  -30.8883 H   0  0  0  0  0  0  0  0  0  0  0  0
  -10.0118   18.7756  -32.4098 H   0  0  0  0  0  0  0  0  0  0  0  0
   -8.9452   17.3302  -32.4098 H   0  0  0  0  0  0  0  0  0  0  0  0
   -7.4942   16.6179  -32.6254 H   0  0  0  0  0  0  0  0  0  0  0  0
   -5.3748   15.5972  -33.3690 H   0  0  0  0  0  0  0  0  0  0  0  0
   -3.3980   17.0405  -33.8541 H   0  0  0  0  0  0  0  0  0  0  0  0
   -3.6517   19.4961  -33.5606 H   0  0  0  0  0  0  0  0  0  0  0  0
  1  2  1  0
  2  3  1  0
  3  4  1  0
  3  5  1  0
  5  6  1  0
  3  7  1  0
  7  8  1  0
  8  9  1  0
  9 10  1  0
 10 11  2  0
 11 12  1  0
 12 13  2  0
 13 14  1  0
 14 15  2  0
 15 16  1  0
 16 17  2  0
 17 18  1  0
 17 19  1  0
 19 20  2  0
 20 21  1  0
 21 22  2  0
 22 23  1  0
 23 24  2  0
 24 10  1  0
 16 11  1  0
 24 19  1  0
  1 25  1  0
  1 26  1  0
  1 27  1  0
  2 28  1  0
  2 29  1  0
  4 30  1  0
  4 31  1  0
  4 32  1  0
  5 33  1  0
  5 34  1  0
  6 35  1  0
  6 36  1  0
  6 37  1  0
  7 38  1  0
  7 39  1  0
  8 40  1  0
  8 41  1  0
  9 42  1  0
 12 43  1  0
 13 44  1  0
 14 45  1  0
 15 46  1  0
 18 47  1  0
 18 48  1  0
 18 49  1  0
 20 50  1  0
 21 51  1  0
 22 52  1  0
 23 53  1  0
M  CHG  2   3   1  17   1
M  END
>  <smiles>  (27) 
CC[N+](C)(CC)CCNc1c2ccccc2[n+](C)c2ccccc12

>  <score_type>  (27) 
oracle

>  <origin>  (27) 
adg

>  <m_score__min__energy>  (27) 
-6.8200000000000003

>  <m_primary>  (27) 
energy

$$$$
27:0
     RDKit          3D

 91 95  0  0  1  0  0  0  0  0999 V2000
   -6.7350   25.2750  -29.7460 C   0  0  0  0  0  0  0  0  0  0  0  0
   -5.2640   24.8910  -29.9460 C   0  0  0  0  0  0  0  0  0  0  0  0
   -5.1180   23.5880  -29.3640 N   0  0  0  0  0  0  0  0  0  0  0  0
   -4.2040   23.7520  -28.2200 C   0  0  0  0  0  0  0  0  0  0  0  0
   -2.8620   24.2550  -28.6990 C   0  0  0  0  0  0  0  0  0  0  0  0
   -4.5350   22.6080  -30.2080 C   0  0  0  0  0  0  0  0  0  0  0  0
   -4.0160   23.0540  -31.5260 C   0  0  0  0  0  0  0  0  0  0  0  0
   -4.8740   22.6760  -32.6390 N   0  0  0  0  0  0  0  0  0  0  0  0
   -5.6350   21.4800  -32.5830 C   0  0  0  0  0  0  0  0  0  0  0  0
   -6.9860   21.4310  -32.3410 C   0  0  0  0  0  0  0  0  0  0  0  0
   -7.6390   22.6270  -32.1390 C   0  0  0  0  0  0  0  0  0  0  0  0
   -8.9840   22.6190  -31.8920 C   0  0  0  0  0  0  0  0  0  0  0  0
   -9.6220   21.4030  -31.8560 C   0  0  0  0  0  0  0  0  0  0  0  0
   -8.9680   20.1940  -32.0590 C   0  0  0  0  0  0  0  0  0  0  0  0
   -7.6130   20.2050  -32.3090 C   0  0  0  0  0  0  0  0  0  0  0  0
   -6.9880   19.0340  -32.5010 N   0  0  0  0  0  0  0  0  0  0  0  0
   -7.5960   17.7460  -32.4880 C   0  0  0  0  0  0  0  0  0  0  0  0
   -5.6420   19.0760  -32.7420 C   0  0  0  0  0  0  0  0  0  0  0  0
   -4.9200   17.8990  -32.9470 C   0  0  0  0  0  0  0  0  0  0  0  0
   -3.5570   17.9580  -33.1870 C   0  0  0  0  0  0  0  0  0  0  0  0
   -2.7780   16.8260  -33.4000 O   0  0  0  0  0  0  0  0  0  0  0  0
   -1.4110   16.8540  -33.7610 C   0  0  0  0  0  0  0  0  0  0  0  0
   -0.5850   16.3900  -32.5900 C   0  0  0  0  0  0  0  0  0  0  0  0
    0.4880   17.3100  -32.2720 N   0  0  2  0  0  0  0  0  0  0  0  0
    1.2300   17.6900  -33.4780 C   0  0  0  0  0  0  0  0  0  0  0  0
    1.4490   16.5940  -31.4560 C   0  0  0  0  0  0  0  0  0  0  0  0
    1.0420   16.5370  -30.0210 C   0  0  0  0  0  0  0  0  0  0  0  0
    0.9320   17.8850  -29.5050 N   0  0  2  0  0  0  0  0  0  0  0  0
    2.1240   18.6820  -29.6960 C   0  0  0  0  0  0  0  0  0  0  0  0
    0.5720   17.8530  -28.0930 C   0  0  0  0  0  0  0  0  0  0  0  0
   -0.2900   19.0060  -27.7550 C   0  0  0  0  0  0  0  0  0  0  0  0
   -1.6210   18.8350  -27.3720 C   0  0  0  0  0  0  0  0  0  0  0  0
   -2.4240   19.9230  -27.0540 C   0  0  0  0  0  0  0  0  0  0  0  0
   -1.9580   21.2120  -27.0980 C   0  0  0  0  0  0  0  0  0  0  0  0
   -0.6420   21.3920  -27.4760 C   0  0  0  0  0  0  0  0  0  0  0  0
    0.1560   20.3230  -27.7910 C   0  0  0  0  0  0  0  0  0  0  0  0
   -0.2010   18.4780  -30.2040 C   0  0  0  0  0  0  0  0  0  0  0  0
    0.0360   18.5430  -31.6880 C   0  0  0  0  0  0  0  0  0  0  0  0
   -2.8690   19.1720  -33.2310 C   0  0  0  0  0  0  0  0  0  0  0  0
   -3.6090   20.3140  -33.0240 C   0  0  0  0  0  0  0  0  0  0  0  0
   -4.9790   20.2860  -32.7810 C   0  0  0  0  0  0  0  0  0  0  0  0
   -6.9559   25.3327  -28.6699 H   0  0  0  0  0  0  0  0  0  0  0  0
   -6.9253   26.2529  -30.2123 H   0  0  0  0  0  0  0  0  0  0  0  0
   -7.3790   24.5149  -30.2123 H   0  0  0  0  0  0  0  0  0  0  0  0
   -5.0180   24.8616  -31.0177 H   0  0  0  0  0  0  0  0  0  0  0  0
   -4.5875   25.6216  -29.4784 H   0  0  0  0  0  0  0  0  0  0  0  0
   -4.6329   24.4763  -27.5119 H   0  0  0  0  0  0  0  0  0  0  0  0
   -4.0690   22.7799  -27.7233 H   0  0  0  0  0  0  0  0  0  0  0  0
   -2.2285   24.4924  -27.8316 H   0  0  0  0  0  0  0  0  0  0  0  0
   -2.3751   23.4784  -29.3070 H   0  0  0  0  0  0  0  0  0  0  0  0
   -3.0055   25.1604  -29.3070 H   0  0  0  0  0  0  0  0  0  0  0  0
   -3.6945   22.1590  -29.6586 H   0  0  0  0  0  0  0  0  0  0  0  0
   -5.3607   21.9230  -30.4511 H   0  0  0  0  0  0  0  0  0  0  0  0
   -3.9238   24.1500  -31.5125 H   0  0  0  0  0  0  0  0  0  0  0  0
   -3.0457   22.5590  -31.6792 H   0  0  0  0  0  0  0  0  0  0  0  0
   -4.9240   23.2910  -33.4710 H   0  0  0  0  0  0  0  0  0  0  0  0
   -7.0854   23.5768  -32.1759 H   0  0  0  0  0  0  0  0  0  0  0  0
   -9.5369   23.5556  -31.7275 H   0  0  0  0  0  0  0  0  0  0  0  0
  -10.7037   21.3855  -31.6567 H   0  0  0  0  0  0  0  0  0  0  0  0
   -9.5223   19.2446  -32.0208 H   0  0  0  0  0  0  0  0  0  0  0  0
   -7.7485   17.4230  -31.4476 H   0  0  0  0  0  0  0  0  0  0  0  0
   -8.5667   17.7936  -33.0032 H   0  0  0  0  0  0  0  0  0  0  0  0
   -6.9423   17.0268  -33.0032 H   0  0  0  0  0  0  0  0  0  0  0  0
   -5.4326   16.9262  -32.9180 H   0  0  0  0  0  0  0  0  0  0  0  0
   -1.2424   16.1865  -34.6189 H   0  0  0  0  0  0  0  0  0  0  0  0
   -1.1207   17.8782  -34.0380 H   0  0  0  0  0  0  0  0  0  0  0  0
   -1.2401   16.2941  -31.7115 H   0  0  0  0  0  0  0  0  0  0  0  0
   -0.1306   15.4256  -32.8612 H   0  0  0  0  0  0  0  0  0  0  0  0
    2.1749   18.1739  -33.1899 H   0  0  0  0  0  0  0  0  0  0  0  0
    1.4453   16.7912  -34.0745 H   0  0  0  0  0  0  0  0  0  0  0  0
    0.6265   18.3900  -34.0745 H   0  0  0  0  0  0  0  0  0  0  0  0
    2.4222   17.1018  -31.5279 H   0  0  0  0  0  0  0  0  0  0  0  0
    1.5062   15.5615  -31.8311 H   0  0  0  0  0  0  0  0  0  0  0  0
    1.7983   15.9831  -29.4455 H   0  0  0  0  0  0  0  0  0  0  0  0
    0.0720   16.0260  -29.9313 H   0  0  0  0  0  0  0  0  0  0  0  0
    2.5400   18.9601  -28.7164 H   0  0  0  0  0  0  0  0  0  0  0  0
    2.8684   18.0993  -30.2584 H   0  0  0  0  0  0  0  0  0  0  0  0
    1.8700   19.5926  -30.2584 H   0  0  0  0  0  0  0  0  0  0  0  0
    0.0303   16.9201  -27.8780 H   0  0  0  0  0  0  0  0  0  0  0  0
    1.4901   17.9045  -27.4892 H   0  0  0  0  0  0  0  0  0  0  0  0
   -2.0420   17.8200  -27.3210 H   0  0  0  0  0  0  0  0  0  0  0  0
   -3.4681   19.7447  -26.7571 H   0  0  0  0  0  0  0  0  0  0  0  0
   -2.6041   22.0651  -26.8434 H   0  0  0  0  0  0  0  0  0  0  0  0
   -0.2275   22.4097  -27.5251 H   0  0  0  0  0  0  0  0  0  0  0  0
    1.1980   20.5157  -28.0861 H   0  0  0  0  0  0  0  0  0  0  0  0
   -0.3615   19.4974  -29.8232 H   0  0  0  0  0  0  0  0  0  0  0  0
   -1.0843   17.8477  -30.0241 H   0  0  0  0  0  0  0  0  0  0  0  0
    0.7961   19.3142  -31.8815 H   0  0  0  0  0  0  0  0  0  0  0  0
   -0.9351   18.7721  -32.1511 H   0  0  0  0  0  0  0  0  0  0  0  0
   -1.7865   19.2139  -33.4221 H   0  0  0  0  0  0  0  0  0  0  0  0
   -3.0972   21.2873  -33.0517 H   0  0  0  0  0  0  0  0  0  0  0  0
  1  2  1  0
  2  3  1  0
  3  4  1  0
  4  5  1  0
  3  6  1  0
  6  7  1  0
  7  8  1  0
  8  9  1  0
  9 10  2  0
 10 11  1  0
 11 12  2  0
 12 13  1  0
 13 14  2  0
 14 15  1  0
 15 16  2  0
 16 17  1  0
 16 18  1  0
 18 19  2  0
 19 20  1  0
 20 21  1  0
 21 22  1  0
 22 23  1  0
 24 23  1  6
 24 25  1  0
 24 26  1  0
 26 27  1  0
 27 28  1  0
 28 29  1  1
 28 30  1  0
 30 31  1  0
 31 32  2  0
 32 33  1  0
 33 34  2  0
 34 35  1  0
 35 36  2  0
 28 37  1  0
 37 38  1  0
 20 39  2  0
 39 40  1  0
 40 41  2  0
 41  9  1  0
 15 10  1  0
 41 18  1  0
 38 24  1  0
 36 31  1  0
  1 42  1  0
  1 43  1  0
  1 44  1  0
  2 45  1  0
  2 46  1  0
  4 47  1  0
  4 48  1  0
  5 49  1  0
  5 50  1  0
  5 51  1  0
  6 52  1  0
  6 53  1  0
  7 54  1  0
  7 55  1  0
  8 56  1  0
 11 57  1  0
 12 58  1  0
 13 59  1  0
 14 60  1  0
 17 61  1  0
 17 62  1  0
 17 63  1  0
 19 64  1  0
 22 65  1  0
 22 66  1  0
 23 67  1  0
 23 68  1  0
 25 69  1  0
 25 70  1  0
 25 71  1  0
 26 72  1  0
 26 73  1  0
 27 74  1  0
 27 75  1  0
 29 76  1  0
 29 77  1  0
 29 78  1  0
 30 79  1  0
 30 80  1  0
 32 81  1  0
 33 82  1  0
 34 83  1  0
 35 84  1  0
 36 85  1  0
 37 86  1  0
 37 87  1  0
 38 88  1  0
 38 89  1  0
 39 90  1  0
 40 91  1  0
M  CHG  3  16   1  24   1  28   1
M  END
>  <smiles>  (28) 
CCN(CC)CCNc1c2ccccc2[n+](C)c2cc(OCC[N+]3(C)CC[N+](C)(Cc4ccccc4)CC3)ccc12

>  <score_type>  (28) 
oracle

>  <origin>  (28) 
adg

>  <m_score__min__energy>  (28) 
-9.4600000000000009

>  <m_primary>  (28) 
energy

$$$$
28:0
     RDKit          2D

 59 61  0  0  0  0  0  0  0  0999 V2000
    3.7500   -6.4952    0.0000 C   0  0  0  0  0  0  0  0  0  0  0  0
    4.5000   -5.1962    0.0000 C   0  0  0  0  0  0  0  0  0  0  0  0
    5.2500   -3.8971    0.0000 N   0  0  0  0  0  0  0  0  0  0  0  0
    4.5000   -2.5981    0.0000 C   0  0  0  0  0  0  0  0  0  0  0  0
    3.7500   -1.2990    0.0000 C   0  0  0  0  0  0  0  0  0  0  0  0
    3.0000    0.0000    0.0000 N   0  0  0  0  0  0  0  0  0  0  0  0
    1.5000    0.0000    0.0000 C   0  0  0  0  0  0  0  0  0  0  0  0
    0.7500   -1.2990    0.0000 C   0  0  0  0  0  0  0  0  0  0  0  0
   -0.7500   -1.2990    0.0000 C   0  0  0  0  0  0  0  0  0  0  0  0
   -1.5000   -2.5981    0.0000 C   0  0  0  0  0  0  0  0  0  0  0  0
   -3.0000   -2.5981    0.0000 C   0  0  0  0  0  0  0  0  0  0  0  0
   -3.7500   -3.8971    0.0000 N   0  0  0  0  0  0  0  0  0  0  0  0
   -5.2054   -4.2601    0.0000 O   0  0  0  0  0  0  0  0  0  0  0  0
   -3.0000   -5.1962    0.0000 O   0  0  0  0  0  0  0  0  0  0  0  0
   -3.7500   -1.2990    0.0000 C   0  0  0  0  0  0  0  0  0  0  0  0
   -5.2500   -1.2990    0.0000 N   0  0  0  0  0  0  0  0  0  0  0  0
   -6.0000    0.0000    0.0000 C   0  0  0  0  0  0  0  0  0  0  0  0
   -6.7500    1.2990    0.0000 C   0  0  0  0  0  0  0  0  0  0  0  0
   -6.0000   -2.5981    0.0000 C   0  0  0  0  0  0  0  0  0  0  0  0
   -6.7500   -3.8971    0.0000 C   0  0  0  0  0  0  0  0  0  0  0  0
   -3.0000    0.0000    0.0000 C   0  0  0  0  0  0  0  0  0  0  0  0
   -1.5000    0.0000    0.0000 C   0  0  0  0  0  0  0  0  0  0  0  0
   -0.7500    1.2990    0.0000 N   0  0  0  0  0  0  0  0  0  0  0  0
   -1.5000    2.5981    0.0000 C   0  0  0  0  0  0  0  0  0  0  0  0
    0.7500    1.2990    0.0000 C   0  0  0  0  0  0  0  0  0  0  0  0
    2.2124    1.6328    0.0000 C   0  0  0  0  0  0  0  0  0  0  0  0
    3.3851    0.6976    0.0000 C   0  0  0  0  0  0  0  0  0  0  0  0
    3.3851   -0.8024    0.0000 C   0  0  0  0  0  0  0  0  0  0  0  0
    2.2124   -1.7376    0.0000 C   0  0  0  0  0  0  0  0  0  0  0  0
    3.0000   -7.7942    0.0000 H   0  0  0  0  0  0  0  0  0  0  0  0
    2.4510   -5.7452    0.0000 H   0  0  0  0  0  0  0  0  0  0  0  0
    5.0490   -7.2452    0.0000 H   0  0  0  0  0  0  0  0  0  0  0  0
    3.2010   -4.4462    0.0000 H   0  0  0  0  0  0  0  0  0  0  0  0
    5.7990   -5.9462    0.0000 H   0  0  0  0  0  0  0  0  0  0  0  0
    6.7500   -3.8971    0.0000 H   0  0  0  0  0  0  0  0  0  0  0  0
    5.7990   -1.8481    0.0000 H   0  0  0  0  0  0  0  0  0  0  0  0
    3.3021   -3.5008    0.0000 H   0  0  0  0  0  0  0  0  0  0  0  0
    2.6710   -2.3411    0.0000 H   0  0  0  0  0  0  0  0  0  0  0  0
    5.0490   -0.5490    0.0000 H   0  0  0  0  0  0  0  0  0  0  0  0
    4.0420    1.0790    0.0000 H   0  0  0  0  0  0  0  0  0  0  0  0
   -0.7500   -3.8971    0.0000 H   0  0  0  0  0  0  0  0  0  0  0  0
   -4.7010    0.7500    0.0000 H   0  0  0  0  0  0  0  0  0  0  0  0
   -7.2990   -0.7500    0.0000 H   0  0  0  0  0  0  0  0  0  0  0  0
   -7.5000    2.5981    0.0000 H   0  0  0  0  0  0  0  0  0  0  0  0
   -5.4510    2.0490    0.0000 H   0  0  0  0  0  0  0  0  0  0  0  0
   -8.0490    0.5490    0.0000 H   0  0  0  0  0  0  0  0  0  0  0  0
   -4.8021   -3.5008    0.0000 H   0  0  0  0  0  0  0  0  0  0  0  0
   -7.2990   -1.8481    0.0000 H   0  0  0  0  0  0  0  0  0  0  0  0
   -7.5000   -5.1962    0.0000 H   0  0  0  0  0  0  0  0  0  0  0  0
   -8.0490   -3.1471    0.0000 H   0  0  0  0  0  0  0  0  0  0  0  0
   -5.5521   -4.7999    0.0000 H   0  0  0  0  0  0  0  0  0  0  0  0
   -3.7500    1.2990    0.0000 H   0  0  0  0  0  0  0  0  0  0  0  0
   -2.2500    3.8971    0.0000 H   0  0  0  0  0  0  0  0  0  0  0  0
   -0.2010    3.3481    0.0000 H   0  0  0  0  0  0  0  0  0  0  0  0
   -2.7990    1.8481    0.0000 H   0  0  0  0  0  0  0  0  0  0  0  0
    2.5462    3.0952    0.0000 H   0  0  0  0  0  0  0  0  0  0  0  0
    4.7366    1.3484    0.0000 H   0  0  0  0  0  0  0  0  0  0  0  0
    4.7366   -1.4532    0.0000 H   0  0  0  0  0  0  0  0  0  0  0  0
    2.3654   -3.2298    0.0000 H   0  0  0  0  0  0  0  0  0  0  0  0
  1  2  1  0
  2  3  1  0
  3  4  1  0
  4  5  1  0
  5  6  1  0
  6  7  1  0
  7  8  2  0
  8  9  1  0
  9 10  2  0
 10 11  1  0
 11 12  1  0
 12 13  2  0
 12 14  1  0
 11 15  2  0
 15 16  1  0
 16 17  1  0
 17 18  1  0
 16 19  1  0
 19 20  1  0
 15 21  1  0
 21 22  2  0
 22 23  1  0
 23 24  1  0
 23 25  2  0
 25 26  1  0
 26 27  2  0
 27 28  1  0
 28 29  2  0
 25  7  1  0
 29  8  1  0
 22  9  1  0
  1 30  1  0
  1 31  1  0
  1 32  1  0
  2 33  1  0
  2 34  1  0
  3 35  1  0
  4 36  1  0
  4 37  1  0
  5 38  1  0
  5 39  1  0
  6 40  1  0
 10 41  1  0
 17 42  1  0
 17 43  1  0
 18 44  1  0
 18 45  1  0
 18 46  1  0
 19 47  1  0
 19 48  1  0
 20 49  1  0
 20 50  1  0
 20 51  1  0
 21 52  1  0
 24 53  1  0
 24 54  1  0
 24 55  1  0
 26 56  1  0
 27 57  1  0
 28 58  1  0
 29 59  1  0
M  CHG  3  12   1  14  -1  23   1
M  END
>  <smiles>  (29) 
CCNCCNc1c2c3cc([N+](=O)[O-])c(N(CC)CC)cc3[n+](C)c1C=CC=C2

>  <m_score__min__energy>  (29) 
nan

>  <m_primary>  (29) 
energy

$$$$
30:0
     RDKit          3D

 85 88  0  0  0  0  0  0  0  0999 V2000
   -2.8760   20.6320  -27.5670 C   0  0  0  0  0  0  0  0  0  0  0  0
   -3.2310   21.8930  -28.2660 C   0  0  0  0  0  0  0  0  0  0  0  0
   -2.4120   22.3140  -29.3360 N   0  0  0  0  0  0  0  0  0  0  0  0
   -1.3640   21.4230  -29.7060 C   0  0  0  0  0  0  0  0  0  0  0  0
   -2.2520   23.6810  -29.6060 C   0  0  0  0  0  0  0  0  0  0  0  0
   -3.4590   24.5680  -29.3280 C   0  0  0  0  0  0  0  0  0  0  0  0
   -3.8480   25.2580  -30.4410 O   0  0  0  0  0  0  0  0  0  0  0  0
   -5.1240   25.1590  -30.8490 C   0  0  0  0  0  0  0  0  0  0  0  0
   -5.6490   23.8790  -31.4030 C   0  0  0  0  0  0  0  0  0  0  0  0
   -5.0360   22.6780  -30.9900 N   0  0  0  0  0  0  0  0  0  0  0  0
   -5.2990   21.5070  -31.7910 C   0  0  0  0  0  0  0  0  0  0  0  0
   -6.5550   20.9500  -31.8940 C   0  0  0  0  0  0  0  0  0  0  0  0
   -7.6280   21.4860  -31.2280 C   0  0  0  0  0  0  0  0  0  0  0  0
   -8.9090   20.9710  -31.2850 C   0  0  0  0  0  0  0  0  0  0  0  0
   -9.1370   19.8600  -32.0470 C   0  0  0  0  0  0  0  0  0  0  0  0
   -8.0790   19.2930  -32.7310 C   0  0  0  0  0  0  0  0  0  0  0  0
   -6.7890   19.8180  -32.6700 C   0  0  0  0  0  0  0  0  0  0  0  0
   -5.7900   19.2080  -33.3610 N   0  0  0  0  0  0  0  0  0  0  0  0
   -6.1420   18.0610  -34.1280 C   0  0  0  0  0  0  0  0  0  0  0  0
   -4.5610   19.7390  -33.2690 C   0  0  0  0  0  0  0  0  0  0  0  0
   -3.5080   19.1700  -33.9260 C   0  0  0  0  0  0  0  0  0  0  0  0
   -2.2180   19.6730  -33.8530 C   0  0  0  0  0  0  0  0  0  0  0  0
   -1.1520   19.0590  -34.5420 O   0  0  0  0  0  0  0  0  0  0  0  0
   -0.9230   17.7020  -34.2160 C   0  0  0  0  0  0  0  0  0  0  0  0
   -1.0690   17.5690  -32.7120 C   0  0  0  0  0  0  0  0  0  0  0  0
    0.2080   17.7190  -32.0580 N   0  0  0  0  0  0  0  0  0  0  0  0
    1.3360   17.5640  -32.9420 C   0  0  0  0  0  0  0  0  0  0  0  0
    0.2760   19.0580  -31.5080 C   0  0  0  0  0  0  0  0  0  0  0  0
    1.2960   19.2350  -30.4340 C   0  0  0  0  0  0  0  0  0  0  0  0
    1.2600   18.2080  -29.4200 N   0  0  0  0  0  0  0  0  0  0  0  0
    0.0610   18.2510  -28.6350 C   0  0  0  0  0  0  0  0  0  0  0  0
    2.4500   18.4300  -28.5860 C   0  0  0  0  0  0  0  0  0  0  0  0
    1.4010   16.9290  -30.0420 C   0  0  0  0  0  0  0  0  0  0  0  0
    0.3050   16.7050  -31.0290 C   0  0  0  0  0  0  0  0  0  0  0  0
   -1.9350   20.7900  -33.1040 C   0  0  0  0  0  0  0  0  0  0  0  0
   -2.9860   21.3800  -32.4330 C   0  0  0  0  0  0  0  0  0  0  0  0
   -4.2890   20.8760  -32.5000 C   0  0  0  0  0  0  0  0  0  0  0  0
   -2.9206   20.7906  -26.4794 H   0  0  0  0  0  0  0  0  0  0  0  0
   -3.5867   19.8422  -27.8519 H   0  0  0  0  0  0  0  0  0  0  0  0
   -1.8576   20.3290  -27.8519 H   0  0  0  0  0  0  0  0  0  0  0  0
   -4.2496   21.7707  -28.6630 H   0  0  0  0  0  0  0  0  0  0  0  0
   -3.1051   22.6740  -27.5017 H   0  0  0  0  0  0  0  0  0  0  0  0
   -0.8890   21.0192  -28.7997 H   0  0  0  0  0  0  0  0  0  0  0  0
   -1.7786   20.5966  -30.3020 H   0  0  0  0  0  0  0  0  0  0  0  0
   -0.6151   21.9652  -30.3020 H   0  0  0  0  0  0  0  0  0  0  0  0
   -1.4168   24.0488  -28.9918 H   0  0  0  0  0  0  0  0  0  0  0  0
   -2.0810   23.7485  -30.6905 H   0  0  0  0  0  0  0  0  0  0  0  0
   -4.2943   23.9371  -28.9900 H   0  0  0  0  0  0  0  0  0  0  0  0
   -3.1767   25.2974  -28.5545 H   0  0  0  0  0  0  0  0  0  0  0  0
   -5.7517   25.4060  -29.9801 H   0  0  0  0  0  0  0  0  0  0  0  0
   -5.1565   25.8334  -31.7174 H   0  0  0  0  0  0  0  0  0  0  0  0
   -6.7121   23.8151  -31.1278 H   0  0  0  0  0  0  0  0  0  0  0  0
   -5.4375   23.9389  -32.4808 H   0  0  0  0  0  0  0  0  0  0  0  0
   -4.4300   22.5040  -30.1630 H   0  0  0  0  0  0  0  0  0  0  0  0
   -7.4582   22.3806  -30.6108 H   0  0  0  0  0  0  0  0  0  0  0  0
   -9.7295   21.4464  -30.7276 H   0  0  0  0  0  0  0  0  0  0  0  0
  -10.1450   19.4248  -32.1146 H   0  0  0  0  0  0  0  0  0  0  0  0
   -8.2605   18.3978  -33.3439 H   0  0  0  0  0  0  0  0  0  0  0  0
   -6.3965   17.2316  -33.4517 H   0  0  0  0  0  0  0  0  0  0  0  0
   -7.0093   18.2962  -34.7624 H   0  0  0  0  0  0  0  0  0  0  0  0
   -5.2921   17.7692  -34.7624 H   0  0  0  0  0  0  0  0  0  0  0  0
   -3.6907   18.2750  -34.5389 H   0  0  0  0  0  0  0  0  0  0  0  0
   -1.6605   17.0631  -34.7238 H   0  0  0  0  0  0  0  0  0  0  0  0
    0.0803   17.3876  -34.5394 H   0  0  0  0  0  0  0  0  0  0  0  0
   -1.7551   18.3470  -32.3461 H   0  0  0  0  0  0  0  0  0  0  0  0
   -1.4668   16.5692  -32.4835 H   0  0  0  0  0  0  0  0  0  0  0  0
    2.2530   17.4380  -32.3477 H   0  0  0  0  0  0  0  0  0  0  0  0
    1.1856   16.6781  -33.5765 H   0  0  0  0  0  0  0  0  0  0  0  0
    1.4302   18.4576  -33.5765 H   0  0  0  0  0  0  0  0  0  0  0  0
    0.5143   19.7537  -32.3261 H   0  0  0  0  0  0  0  0  0  0  0  0
   -0.7023   19.2562  -31.0458 H   0  0  0  0  0  0  0  0  0  0  0  0
    2.2931   19.2287  -30.8985 H   0  0  0  0  0  0  0  0  0  0  0  0
    1.0706   20.1878  -29.9326 H   0  0  0  0  0  0  0  0  0  0  0  0
    0.3218   18.2416  -27.5664 H   0  0  0  0  0  0  0  0  0  0  0  0
   -0.4972   19.1697  -28.8682 H   0  0  0  0  0  0  0  0  0  0  0  0
   -0.5615   17.3746  -28.8682 H   0  0  0  0  0  0  0  0  0  0  0  0
    2.1684   18.3775  -27.5240 H   0  0  0  0  0  0  0  0  0  0  0  0
    3.2007   17.6564  -28.8050 H   0  0  0  0  0  0  0  0  0  0  0  0
    2.8713   19.4222  -28.8050 H   0  0  0  0  0  0  0  0  0  0  0  0
    2.3701   16.8833  -30.5604 H   0  0  0  0  0  0  0  0  0  0  0  0
    1.3481   16.1490  -29.2682 H   0  0  0  0  0  0  0  0  0  0  0  0
    0.4757   15.7345  -31.5178 H   0  0  0  0  0  0  0  0  0  0  0  0
   -0.6379   16.7414  -30.4636 H   0  0  0  0  0  0  0  0  0  0  0  0
   -0.9145   21.1960  -33.0422 H   0  0  0  0  0  0  0  0  0  0  0  0
   -2.7930   22.2763  -31.8253 H   0  0  0  0  0  0  0  0  0  0  0  0
  1  2  1  0
  2  3  1  0
  3  4  1  0
  3  5  1  0
  5  6  1  0
  6  7  1  0
  7  8  1  0
  8  9  1  0
  9 10  1  0
 10 11  1  0
 11 12  2  0
 12 13  1  0
 13 14  2  0
 14 15  1  0
 15 16  2  0
 16 17  1  0
 17 18  2  0
 18 19  1  0
 18 20  1  0
 20 21  2  0
 21 22  1  0
 22 23  1  0
 23 24  1  0
 24 25  1  0
 25 26  1  0
 26 27  1  0
 26 28  1  0
 28 29  1  0
 29 30  1  0
 30 31  1  0
 30 32  1  0
 30 33  1  0
 33 34  1  0
 22 35  2  0
 35 36  1  0
 36 37  2  0
 37 11  1  0
 17 12  1  0
 37 20  1  0
 34 26  1  0
  1 38  1  0
  1 39  1  0
  1 40  1  0
  2 41  1  0
  2 42  1  0
  4 43  1  0
  4 44  1  0
  4 45  1  0
  5 46  1  0
  5 47  1  0
  6 48  1  0
  6 49  1  0
  8 50  1  0
  8 51  1  0
  9 52  1  0
  9 53  1  0
 10 54  1  0
 13 55  1  0
 14 56  1  0
 15 57  1  0
 16 58  1  0
 19 59  1  0
 19 60  1  0
 19 61  1  0
 21 62  1  0
 24 63  1  0
 24 64  1  0
 25 65  1  0
 25 66  1  0
 27 67  1  0
 27 68  1  0
 27 69  1  0
 28 70  1  0
 28 71  1  0
 29 72  1  0
 29 73  1  0
 31 74  1  0
 31 75  1  0
 31 76  1  0
 32 77  1  0
 32 78  1  0
 32 79  1  0
 33 80  1  0
 33 81  1  0
 34 82  1  0
 34 83  1  0
 35 84  1  0
 36 85  1  0
M  CHG  3  18   1  26   1  30   1
M  END
>  <smiles>  (30) 
CCN(C)CCOCCNc1c2ccccc2[n+](C)c2cc(OCC[N+]3(C)CC[N+](C)(C)CC3)ccc12

>  <score_type>  (30) 
oracle

>  <origin>  (30) 
adg

>  <m_score__min__energy>  (30) 
-8.4100000000000001

>  <m_primary>  (30) 
energy

$$$$
31:0
     RDKit          3D

 83 87  0  0  0  0  0  0  0  0999 V2000
   -3.6670   24.1370  -28.0100 C   0  0  0  0  0  0  0  0  0  0  0  0
   -3.1250   24.5630  -29.3690 C   0  0  0  0  0  0  0  0  0  0  0  0
   -4.0750   24.5610  -30.3880 N   0  0  0  0  0  0  0  0  0  0  0  0
   -5.0550   25.5400  -30.5060 C   0  0  0  0  0  0  0  0  0  0  0  0
   -6.4320   25.1670  -30.0310 C   0  0  0  0  0  0  0  0  0  0  0  0
   -4.4890   23.2830  -30.8410 C   0  0  0  0  0  0  0  0  0  0  0  0
   -3.6330   22.6860  -31.9040 C   0  0  0  0  0  0  0  0  0  0  0  0
   -4.4130   22.1190  -32.9640 N   0  0  0  0  0  0  0  0  0  0  0  0
   -5.3500   21.0660  -32.8580 C   0  0  0  0  0  0  0  0  0  0  0  0
   -6.6520   21.1980  -32.4640 C   0  0  0  0  0  0  0  0  0  0  0  0
   -7.1880   22.4260  -32.2320 C   0  0  0  0  0  0  0  0  0  0  0  0
   -8.4920   22.6670  -31.8500 C   0  0  0  0  0  0  0  0  0  0  0  0
   -9.3300   21.5910  -31.6830 C   0  0  0  0  0  0  0  0  0  0  0  0
   -8.8370   20.3220  -31.9090 C   0  0  0  0  0  0  0  0  0  0  0  0
   -7.5100   20.1030  -32.2990 C   0  0  0  0  0  0  0  0  0  0  0  0
   -7.0650   18.8340  -32.5370 N   0  0  0  0  0  0  0  0  0  0  0  0
   -8.0240   17.7820  -32.3530 C   0  0  0  0  0  0  0  0  0  0  0  0
   -5.7940   18.6750  -32.9290 C   0  0  0  0  0  0  0  0  0  0  0  0
   -5.3310   17.3840  -33.1970 C   0  0  0  0  0  0  0  0  0  0  0  0
   -4.0310   17.1580  -33.6310 C   0  0  0  0  0  0  0  0  0  0  0  0
   -3.1710   18.2130  -33.8060 C   0  0  0  0  0  0  0  0  0  0  0  0
   -1.8790   17.9540  -34.2690 C   0  0  0  0  0  0  0  0  0  0  0  0
   -1.5000   16.5640  -34.5130 C   0  0  0  0  0  0  0  0  0  0  0  0
   -0.4500   16.2130  -33.6150 N   0  0  0  0  0  0  0  0  0  0  0  0
   -0.8190   15.6500  -32.3670 C   0  0  0  0  0  0  0  0  0  0  0  0
    0.0640   16.1620  -31.2750 C   0  0  0  0  0  0  0  0  0  0  0  0
    0.6330   17.4360  -31.5320 N   0  0  0  0  0  0  0  0  0  0  0  0
    2.0440   17.5250  -31.5920 C   0  0  0  0  0  0  0  0  0  0  0  0
   -0.0960   18.5820  -31.1460 C   0  0  0  0  0  0  0  0  0  0  0  0
   -1.0420   19.0270  -34.4600 C   0  0  0  0  0  0  0  0  0  0  0  0
    0.2400   18.8700  -34.9040 C   0  0  0  0  0  0  0  0  0  0  0  0
    1.0300   19.9860  -35.0700 C   0  0  0  0  0  0  0  0  0  0  0  0
    0.5920   21.2660  -34.8100 C   0  0  0  0  0  0  0  0  0  0  0  0
    1.3850   22.3960  -34.9770 O   0  0  0  0  0  0  0  0  0  0  0  0
    0.8670   23.3970  -35.8360 C   0  0  0  0  0  0  0  0  0  0  0  0
   -0.6940   21.4220  -34.3650 C   0  0  0  0  0  0  0  0  0  0  0  0
   -1.4830   20.3010  -34.1980 C   0  0  0  0  0  0  0  0  0  0  0  0
   -2.7310   20.4830  -33.7570 N   0  0  0  0  0  0  0  0  0  0  0  0
   -3.6140   19.4970  -33.5420 C   0  0  0  0  0  0  0  0  0  0  0  0
   -4.9180   19.7520  -33.1010 C   0  0  0  0  0  0  0  0  0  0  0  0
   -3.0702   24.6060  -27.2138 H   0  0  0  0  0  0  0  0  0  0  0  0
   -4.7160   24.4549  -27.9176 H   0  0  0  0  0  0  0  0  0  0  0  0
   -3.6060   23.0426  -27.9176 H   0  0  0  0  0  0  0  0  0  0  0  0
   -2.7213   25.5819  -29.2756 H   0  0  0  0  0  0  0  0  0  0  0  0
   -2.3586   23.8254  -29.6494 H   0  0  0  0  0  0  0  0  0  0  0  0
   -4.7261   26.4147  -29.9257 H   0  0  0  0  0  0  0  0  0  0  0  0
   -5.1575   25.7228  -31.5859 H   0  0  0  0  0  0  0  0  0  0  0  0
   -6.4516   25.1617  -28.9312 H   0  0  0  0  0  0  0  0  0  0  0  0
   -7.1607   25.9001  -30.4072 H   0  0  0  0  0  0  0  0  0  0  0  0
   -6.6911   24.1663  -30.4072 H   0  0  0  0  0  0  0  0  0  0  0  0
   -4.4904   22.5991  -29.9794 H   0  0  0  0  0  0  0  0  0  0  0  0
   -5.4841   23.4221  -31.2886 H   0  0  0  0  0  0  0  0  0  0  0  0
   -2.9844   23.4708  -32.3205 H   0  0  0  0  0  0  0  0  0  0  0  0
   -3.0388   21.8795  -31.4496 H   0  0  0  0  0  0  0  0  0  0  0  0
   -4.2820   22.5250  -33.9240 H   0  0  0  0  0  0  0  0  0  0  0  0
   -6.5290   23.2976  -32.3591 H   0  0  0  0  0  0  0  0  0  0  0  0
   -8.8510   23.6934  -31.6836 H   0  0  0  0  0  0  0  0  0  0  0  0
  -10.3755   21.7385  -31.3746 H   0  0  0  0  0  0  0  0  0  0  0  0
   -9.5054   19.4580  -31.7791 H   0  0  0  0  0  0  0  0  0  0  0  0
   -8.1794   17.6115  -31.2775 H   0  0  0  0  0  0  0  0  0  0  0  0
   -8.9775   18.0692  -32.8203 H   0  0  0  0  0  0  0  0  0  0  0  0
   -7.6500   16.8591  -32.8203 H   0  0  0  0  0  0  0  0  0  0  0  0
   -6.0100   16.5292  -33.0615 H   0  0  0  0  0  0  0  0  0  0  0  0
   -3.6904   16.1321  -33.8347 H   0  0  0  0  0  0  0  0  0  0  0  0
   -2.3669   15.9086  -34.3433 H   0  0  0  0  0  0  0  0  0  0  0  0
   -1.1602   16.4447  -35.5524 H   0  0  0  0  0  0  0  0  0  0  0  0
    0.3790   16.8190  -33.6050 H   0  0  0  0  0  0  0  0  0  0  0  0
   -1.8621   15.9187  -32.1439 H   0  0  0  0  0  0  0  0  0  0  0  0
   -0.7109   14.5569  -32.4262 H   0  0  0  0  0  0  0  0  0  0  0  0
   -0.5327   16.2310  -30.3535 H   0  0  0  0  0  0  0  0  0  0  0  0
    0.9020   15.4545  -31.1903 H   0  0  0  0  0  0  0  0  0  0  0  0
    2.4535   17.5508  -30.5714 H   0  0  0  0  0  0  0  0  0  0  0  0
    2.4442   16.6503  -32.1256 H   0  0  0  0  0  0  0  0  0  0  0  0
    2.3311   18.4430  -32.1256 H   0  0  0  0  0  0  0  0  0  0  0  0
   -0.1331   18.6404  -30.0482 H   0  0  0  0  0  0  0  0  0  0  0  0
    0.3964   19.4813  -31.5446 H   0  0  0  0  0  0  0  0  0  0  0  0
   -1.1192   18.5171  -31.5446 H   0  0  0  0  0  0  0  0  0  0  0  0
    0.6355   17.8678  -35.1256 H   0  0  0  0  0  0  0  0  0  0  0  0
    2.0611   19.8485  -35.4277 H   0  0  0  0  0  0  0  0  0  0  0  0
    0.4441   24.2143  -35.2334 H   0  0  0  0  0  0  0  0  0  0  0  0
    1.6751   23.7896  -36.4707 H   0  0  0  0  0  0  0  0  0  0  0  0
    0.0798   22.9641  -36.4707 H   0  0  0  0  0  0  0  0  0  0  0  0
   -1.0917   22.4236  -34.1443 H   0  0  0  0  0  0  0  0  0  0  0  0
  1  2  1  0
  2  3  1  0
  3  4  1  0
  4  5  1  0
  3  6  1  0
  6  7  1  0
  7  8  1  0
  8  9  1  0
  9 10  2  0
 10 11  1  0
 11 12  2  0
 12 13  1  0
 13 14  2  0
 14 15  1  0
 15 16  2  0
 16 17  1  0
 16 18  1  0
 18 19  2  0
 19 20  1  0
 20 21  2  0
 21 22  1  0
 22 23  1  0
 23 24  1  0
 24 25  1  0
 25 26  1  0
 26 27  1  0
 27 28  1  0
 27 29  1  0
 22 30  2  0
 30 31  1  0
 31 32  2  0
 32 33  1  0
 33 34  1  0
 34 35  1  0
 33 36  2  0
 36 37  1  0
 37 38  2  0
 38 39  1  0
 39 40  2  0
 40  9  1  0
 15 10  1  0
 40 18  1  0
 39 21  1  0
 37 30  1  0
  1 41  1  0
  1 42  1  0
  1 43  1  0
  2 44  1  0
  2 45  1  0
  4 46  1  0
  4 47  1  0
  5 48  1  0
  5 49  1  0
  5 50  1  0
  6 51  1  0
  6 52  1  0
  7 53  1  0
  7 54  1  0
  8 55  1  0
 11 56  1  0
 12 57  1  0
 13 58  1  0
 14 59  1  0
 17 60  1  0
 17 61  1  0
 17 62  1  0
 19 63  1  0
 20 64  1  0
 23 65  1  0
 23 66  1  0
 24 67  1  0
 25 68  1  0
 25 69  1  0
 26 70  1  0
 26 71  1  0
 28 72  1  0
 28 73  1  0
 28 74  1  0
 29 75  1  0
 29 76  1  0
 29 77  1  0
 31 78  1  0
 32 79  1  0
 35 80  1  0
 35 81  1  0
 35 82  1  0
 36 83  1  0
M  CHG  1  16   1
M  END
>  <smiles>  (31) 
CCN(CC)CCNc1c2ccccc2[n+](C)c2ccc3c(CNCCN(C)C)c4ccc(OC)cc4nc3c12

>  <score_type>  (31) 
oracle

>  <origin>  (31) 
adg

>  <m_score__min__energy>  (31) 
-9.9900000000000002

>  <m_primary>  (31) 
energy

$$$$
32:0
     RDKit          3D

 68 70  0  0  0  0  0  0  0  0999 V2000
   -4.1660   24.0960  -28.3370 C   0  0  0  0  0  0  0  0  0  0  0  0
   -3.2560   24.4910  -29.4560 C   0  0  0  0  0  0  0  0  0  0  0  0
   -3.9110   24.3270  -30.7650 N   0  0  0  0  0  0  0  0  0  0  0  0
   -5.2010   25.0240  -30.7050 C   0  0  0  0  0  0  0  0  0  0  0  0
   -4.1740   22.9280  -30.8990 C   0  0  0  0  0  0  0  0  0  0  0  0
   -3.4890   22.2670  -32.0830 C   0  0  0  0  0  0  0  0  0  0  0  0
   -4.4840   22.1020  -33.1460 N   0  0  0  0  0  0  0  0  0  0  0  0
   -5.3720   21.0290  -33.0260 C   0  0  0  0  0  0  0  0  0  0  0  0
   -6.6350   21.3540  -32.4990 C   0  0  0  0  0  0  0  0  0  0  0  0
   -6.9260   22.6590  -32.1730 C   0  0  0  0  0  0  0  0  0  0  0  0
   -8.1280   23.0780  -31.6490 C   0  0  0  0  0  0  0  0  0  0  0  0
   -9.0930   22.1220  -31.4420 C   0  0  0  0  0  0  0  0  0  0  0  0
   -8.8200   20.8050  -31.7620 C   0  0  0  0  0  0  0  0  0  0  0  0
   -7.5990   20.4040  -32.2910 C   0  0  0  0  0  0  0  0  0  0  0  0
   -7.3650   19.0960  -32.5920 N   0  0  0  0  0  0  0  0  0  0  0  0
   -8.4590   18.2000  -32.3400 C   0  0  0  0  0  0  0  0  0  0  0  0
   -6.1760   18.7690  -33.0920 C   0  0  0  0  0  0  0  0  0  0  0  0
   -5.9520   17.4350  -33.3750 C   0  0  0  0  0  0  0  0  0  0  0  0
   -4.7450   17.0600  -33.8760 C   0  0  0  0  0  0  0  0  0  0  0  0
   -3.7680   17.9890  -34.0980 C   0  0  0  0  0  0  0  0  0  0  0  0
   -3.9400   19.3580  -33.8280 C   0  0  0  0  0  0  0  0  0  0  0  0
   -2.8850   20.2100  -34.1780 N   0  0  0  0  0  0  0  0  0  0  0  0
   -1.5010   19.6760  -34.0280 C   0  0  0  0  0  0  0  0  0  0  0  0
   -0.8950   20.0460  -32.7130 C   0  0  0  0  0  0  0  0  0  0  0  0
    0.0520   21.1920  -32.9190 C   0  0  0  0  0  0  0  0  0  0  0  0
    0.8510   21.0230  -34.1680 C   0  0  0  0  0  0  0  0  0  0  0  0
    1.2370   22.3050  -34.7510 N   0  0  0  0  0  0  0  0  0  0  0  0
    2.5500   22.2180  -35.3620 C   0  0  0  0  0  0  0  0  0  0  0  0
    0.2810   22.7000  -35.7820 C   0  0  0  0  0  0  0  0  0  0  0  0
   -5.1550   19.7140  -33.3230 C   0  0  0  0  0  0  0  0  0  0  0  0
   -3.6773   24.3081  -27.3746 H   0  0  0  0  0  0  0  0  0  0  0  0
   -5.1027   24.6685  -28.4066 H   0  0  0  0  0  0  0  0  0  0  0  0
   -4.3874   23.0208  -28.4066 H   0  0  0  0  0  0  0  0  0  0  0  0
   -2.9693   25.5453  -29.3289 H   0  0  0  0  0  0  0  0  0  0  0  0
   -2.3702   23.8394  -29.4282 H   0  0  0  0  0  0  0  0  0  0  0  0
   -5.4860   25.1780  -29.6538 H   0  0  0  0  0  0  0  0  0  0  0  0
   -5.1150   25.9984  -31.2081 H   0  0  0  0  0  0  0  0  0  0  0  0
   -5.9689   24.4181  -31.2081 H   0  0  0  0  0  0  0  0  0  0  0  0
   -3.8342   22.4254  -29.9814 H   0  0  0  0  0  0  0  0  0  0  0  0
   -5.2562   22.8288  -31.0693 H   0  0  0  0  0  0  0  0  0  0  0  0
   -2.6638   22.9013  -32.4390 H   0  0  0  0  0  0  0  0  0  0  0  0
   -3.0765   21.2903  -31.7900 H   0  0  0  0  0  0  0  0  0  0  0  0
   -4.5440   22.7960  -33.9550 H   0  0  0  0  0  0  0  0  0  0  0  0
   -6.1470   23.4170  -32.3423 H   0  0  0  0  0  0  0  0  0  0  0  0
   -8.3087   24.1355  -31.4058 H   0  0  0  0  0  0  0  0  0  0  0  0
  -10.0722   22.4015  -31.0261 H   0  0  0  0  0  0  0  0  0  0  0  0
   -9.5981   20.0464  -31.5916 H   0  0  0  0  0  0  0  0  0  0  0  0
   -8.5975   18.0866  -31.2547 H   0  0  0  0  0  0  0  0  0  0  0  0
   -9.3777   18.6085  -32.7862 H   0  0  0  0  0  0  0  0  0  0  0  0
   -8.2396   17.2188  -32.7862 H   0  0  0  0  0  0  0  0  0  0  0  0
   -6.7390   16.6873  -33.1975 H   0  0  0  0  0  0  0  0  0  0  0  0
   -4.5536   16.0011  -34.1043 H   0  0  0  0  0  0  0  0  0  0  0  0
   -2.8041   17.6508  -34.5061 H   0  0  0  0  0  0  0  0  0  0  0  0
   -2.8720   21.1560  -34.5540 H   0  0  0  0  0  0  0  0  0  0  0  0
   -1.5334   18.5794  -34.1076 H   0  0  0  0  0  0  0  0  0  0  0  0
   -0.8804   20.1157  -34.8226 H   0  0  0  0  0  0  0  0  0  0  0  0
   -1.6883   20.3441  -32.0117 H   0  0  0  0  0  0  0  0  0  0  0  0
   -0.3522   19.1843  -32.2973 H   0  0  0  0  0  0  0  0  0  0  0  0
   -0.5259   22.1254  -32.9879 H   0  0  0  0  0  0  0  0  0  0  0  0
    0.7464   21.2236  -32.0665 H   0  0  0  0  0  0  0  0  0  0  0  0
    1.7613   20.4522  -33.9322 H   0  0  0  0  0  0  0  0  0  0  0  0
    0.2256   20.4922  -34.9009 H   0  0  0  0  0  0  0  0  0  0  0  0
    3.3176   22.1671  -34.5758 H   0  0  0  0  0  0  0  0  0  0  0  0
    2.6046   21.3143  -35.9867 H   0  0  0  0  0  0  0  0  0  0  0  0
    2.7233   23.1066  -35.9867 H   0  0  0  0  0  0  0  0  0  0  0  0
   -0.6357   23.0787  -35.3063 H   0  0  0  0  0  0  0  0  0  0  0  0
    0.7223   23.4895  -36.4081 H   0  0  0  0  0  0  0  0  0  0  0  0
    0.0363   21.8293  -36.4081 H   0  0  0  0  0  0  0  0  0  0  0  0
  1  2  1  0
  2  3  1  0
  3  4  1  0
  3  5  1  0
  5  6  1  0
  6  7  1  0
  7  8  1  0
  8  9  2  0
  9 10  1  0
 10 11  2  0
 11 12  1  0
 12 13  2  0
 13 14  1  0
 14 15  2  0
 15 16  1  0
 15 17  1  0
 17 18  2  0
 18 19  1  0
 19 20  2  0
 20 21  1  0
 21 22  1  0
 22 23  1  0
 23 24  1  0
 24 25  1  0
 25 26  1  0
 26 27  1  0
 27 28  1  0
 27 29  1  0
 21 30  2  0
 30  8  1  0
 14  9  1  0
 30 17  1  0
  1 31  1  0
  1 32  1  0
  1 33  1  0
  2 34  1  0
  2 35  1  0
  4 36  1  0
  4 37  1  0
  4 38  1  0
  5 39  1  0
  5 40  1  0
  6 41  1  0
  6 42  1  0
  7 43  1  0
 10 44  1  0
 11 45  1  0
 12 46  1  0
 13 47  1  0
 16 48  1  0
 16 49  1  0
 16 50  1  0
 18 51  1  0
 19 52  1  0
 20 53  1  0
 22 54  1  0
 23 55  1  0
 23 56  1  0
 24 57  1  0
 24 58  1  0
 25 59  1  0
 25 60  1  0
 26 61  1  0
 26 62  1  0
 28 63  1  0
 28 64  1  0
 28 65  1  0
 29 66  1  0
 29 67  1  0
 29 68  1  0
M  CHG  1  15   1
M  END
>  <smiles>  (32) 
CCN(C)CCNc1c2ccccc2[n+](C)c2cccc(NCCCCN(C)C)c12

>  <score_type>  (32) 
oracle

>  <origin>  (32) 
adg

>  <m_score__min__energy>  (32) 
-9.9499999999999993

>  <m_primary>  (32) 
energy

$$$$
33:0
     RDKit          3D

 64 67  0  0  0  0  0  0  0  0999 V2000
   -3.4550   24.5130  -29.7520 C   0  0  0  0  0  0  0  0  0  0  0  0
   -4.4670   24.5610  -30.7870 N   0  0  0  0  0  0  0  0  0  0  0  0
   -5.3700   25.6480  -30.5500 C   0  0  0  0  0  0  0  0  0  0  0  0
   -5.1060   23.2960  -31.0040 C   0  0  0  0  0  0  0  0  0  0  0  0
   -4.1650   22.3720  -31.7070 C   0  0  0  0  0  0  0  0  0  0  0  0
   -4.6830   21.9500  -33.0340 N   0  0  0  0  0  0  0  0  0  0  0  0
   -5.1700   20.6230  -33.0830 C   0  0  0  0  0  0  0  0  0  0  0  0
   -6.5160   20.4850  -32.7310 C   0  0  0  0  0  0  0  0  0  0  0  0
   -7.2380   21.6090  -32.3320 C   0  0  0  0  0  0  0  0  0  0  0  0
   -8.5570   21.5670  -31.9690 C   0  0  0  0  0  0  0  0  0  0  0  0
   -9.2010   20.3670  -31.9980 C   0  0  0  0  0  0  0  0  0  0  0  0
   -8.4980   19.2320  -32.3940 C   0  0  0  0  0  0  0  0  0  0  0  0
   -7.1700   19.2770  -32.7580 C   0  0  0  0  0  0  0  0  0  0  0  0
   -6.4970   18.2020  -33.1320 N   0  0  0  0  0  0  0  0  0  0  0  0
   -7.0980   16.8890  -33.1900 C   0  0  0  0  0  0  0  0  0  0  0  0
   -5.1950   18.2930  -33.4790 C   0  0  0  0  0  0  0  0  0  0  0  0
   -4.5580   17.1210  -33.8600 C   0  0  0  0  0  0  0  0  0  0  0  0
   -3.2350   17.1900  -34.2150 C   0  0  0  0  0  0  0  0  0  0  0  0
   -2.5690   18.3980  -34.1860 C   0  0  0  0  0  0  0  0  0  0  0  0
   -3.1690   19.5920  -33.8100 C   0  0  0  0  0  0  0  0  0  0  0  0
   -2.3870   20.7590  -33.7800 N   0  0  0  0  0  0  0  0  0  0  0  0
   -1.3830   20.9290  -32.6990 C   0  0  0  0  0  0  0  0  0  0  0  0
   -0.0910   21.1900  -33.3810 C   0  0  0  0  0  0  0  0  0  0  0  0
   -0.1890   21.2810  -34.8390 N   0  0  0  0  0  0  0  0  0  0  0  0
    0.2090   19.9750  -35.3240 C   0  0  0  0  0  0  0  0  0  0  0  0
    0.8030   20.0100  -36.7000 C   0  0  0  0  0  0  0  0  0  0  0  0
    1.8360   20.9270  -36.8270 O   0  0  0  0  0  0  0  0  0  0  0  0
    2.0050   21.6980  -35.6840 C   0  0  0  0  0  0  0  0  0  0  0  0
    0.6430   22.3300  -35.3900 C   0  0  0  0  0  0  0  0  0  0  0  0
   -4.5000   19.5090  -33.4610 C   0  0  0  0  0  0  0  0  0  0  0  0
   -3.9391   24.5360  -28.7645 H   0  0  0  0  0  0  0  0  0  0  0  0
   -2.8712   23.5862  -29.8527 H   0  0  0  0  0  0  0  0  0  0  0  0
   -2.7861   25.3804  -29.8527 H   0  0  0  0  0  0  0  0  0  0  0  0
   -5.4915   25.7942  -29.4665 H   0  0  0  0  0  0  0  0  0  0  0  0
   -4.9650   26.5660  -31.0008 H   0  0  0  0  0  0  0  0  0  0  0  0
   -6.3467   25.4182  -31.0008 H   0  0  0  0  0  0  0  0  0  0  0  0
   -5.3921   22.8597  -30.0356 H   0  0  0  0  0  0  0  0  0  0  0  0
   -6.0040   23.4421  -31.6223 H   0  0  0  0  0  0  0  0  0  0  0  0
   -3.2029   22.8861  -31.8489 H   0  0  0  0  0  0  0  0  0  0  0  0
   -4.0484   21.4710  -31.0868 H   0  0  0  0  0  0  0  0  0  0  0  0
   -4.6440   22.5980  -33.8580 H   0  0  0  0  0  0  0  0  0  0  0  0
   -6.7209   22.5796  -32.3077 H   0  0  0  0  0  0  0  0  0  0  0  0
   -9.0850   22.4815  -31.6609 H   0  0  0  0  0  0  0  0  0  0  0  0
  -10.2610   20.2956  -31.7128 H   0  0  0  0  0  0  0  0  0  0  0  0
   -9.0217   18.2650  -32.4170 H   0  0  0  0  0  0  0  0  0  0  0  0
   -7.2678   16.5180  -32.1685 H   0  0  0  0  0  0  0  0  0  0  0  0
   -8.0585   16.9486  -33.7228 H   0  0  0  0  0  0  0  0  0  0  0  0
   -6.4252   16.2010  -33.7228 H   0  0  0  0  0  0  0  0  0  0  0  0
   -5.0988   16.1633  -33.8769 H   0  0  0  0  0  0  0  0  0  0  0  0
   -2.7026   16.2784  -34.5241 H   0  0  0  0  0  0  0  0  0  0  0  0
   -1.5080   18.4159  -34.4757 H   0  0  0  0  0  0  0  0  0  0  0  0
   -2.4000   21.5790  -34.3920 H   0  0  0  0  0  0  0  0  0  0  0  0
   -1.6542   21.7786  -32.0551 H   0  0  0  0  0  0  0  0  0  0  0  0
   -1.3274   20.0384  -32.0558 H   0  0  0  0  0  0  0  0  0  0  0  0
    0.3129   22.1406  -33.0025 H   0  0  0  0  0  0  0  0  0  0  0  0
    0.5612   20.3319  -33.1612 H   0  0  0  0  0  0  0  0  0  0  0  0
    0.9553   19.5579  -34.6319 H   0  0  0  0  0  0  0  0  0  0  0  0
   -0.6988   19.3560  -35.3763 H   0  0  0  0  0  0  0  0  0  0  0  0
    1.1929   19.0093  -36.9379 H   0  0  0  0  0  0  0  0  0  0  0  0
    0.0056   20.3186  -37.3921 H   0  0  0  0  0  0  0  0  0  0  0  0
    2.3220   21.0661  -34.8413 H   0  0  0  0  0  0  0  0  0  0  0  0
    2.7799   22.4652  -35.8290 H   0  0  0  0  0  0  0  0  0  0  0  0
    0.7532   23.1483  -34.6632 H   0  0  0  0  0  0  0  0  0  0  0  0
    0.1965   22.7528  -36.3021 H   0  0  0  0  0  0  0  0  0  0  0  0
  1  2  1  0
  2  3  1  0
  2  4  1  0
  4  5  1  0
  5  6  1  0
  6  7  1  0
  7  8  2  0
  8  9  1  0
  9 10  2  0
 10 11  1  0
 11 12  2  0
 12 13  1  0
 13 14  2  0
 14 15  1  0
 14 16  1  0
 16 17  2  0
 17 18  1  0
 18 19  2  0
 19 20  1  0
 20 21  1  0
 21 22  1  0
 22 23  1  0
 23 24  1  0
 24 25  1  0
 25 26  1  0
 26 27  1  0
 27 28  1  0
 28 29  1  0
 20 30  2  0
 30  7  1  0
 13  8  1  0
 30 16  1  0
 29 24  1  0
  1 31  1  0
  1 32  1  0
  1 33  1  0
  3 34  1  0
  3 35  1  0
  3 36  1  0
  4 37  1  0
  4 38  1  0
  5 39  1  0
  5 40  1  0
  6 41  1  0
  9 42  1  0
 10 43  1  0
 11 44  1  0
 12 45  1  0
 15 46  1  0
 15 47  1  0
 15 48  1  0
 17 49  1  0
 18 50  1  0
 19 51  1  0
 21 52  1  0
 22 53  1  0
 22 54  1  0
 23 55  1  0
 23 56  1  0
 25 57  1  0
 25 58  1  0
 26 59  1  0
 26 60  1  0
 28 61  1  0
 28 62  1  0
 29 63  1  0
 29 64  1  0
M  CHG  1  14   1
M  END
>  <smiles>  (33) 
CN(C)CCNc1c2ccccc2[n+](C)c2cccc(NCCN3CCOCC3)c12

>  <score_type>  (33) 
oracle

>  <origin>  (33) 
adg

>  <m_score__min__energy>  (33) 
-9.9000000000000004

>  <m_primary>  (33) 
energy

$$$$
34:0
     RDKit          3D

 37 39  0  0  0  0  0  0  0  0999 V2000
   -3.9840   24.0540  -28.1860 C   0  0  0  0  0  0  0  0  0  0  0  0
   -4.9030   23.8530  -29.3360 C   0  0  0  0  0  0  0  0  0  0  0  0
   -6.0080   23.0360  -29.1740 C   0  0  0  0  0  0  0  0  0  0  0  0
   -6.8790   22.8230  -30.2520 C   0  0  0  0  0  0  0  0  0  0  0  0
   -6.5690   23.4550  -31.4310 C   0  0  0  0  0  0  0  0  0  0  0  0
   -5.4750   24.2660  -31.5980 C   0  0  0  0  0  0  0  0  0  0  0  0
   -4.6100   24.4800  -30.5280 C   0  0  0  0  0  0  0  0  0  0  0  0
   -3.4860   25.2980  -30.6620 O   0  0  0  0  0  0  0  0  0  0  0  0
   -7.4650   23.1640  -32.6580 C   0  0  0  0  0  0  0  0  0  0  0  0
   -7.7210   21.7100  -32.3360 N   0  0  0  0  0  0  0  0  0  0  0  0
   -6.9400   20.8030  -33.0100 C   0  0  0  0  0  0  0  0  0  0  0  0
   -7.5860   20.0230  -33.8240 O   0  0  0  0  0  0  0  0  0  0  0  0
   -5.5210   20.5770  -32.9680 C   0  0  0  0  0  0  0  0  0  0  0  0
   -5.0790   19.2600  -32.8870 C   0  0  0  0  0  0  0  0  0  0  0  0
   -3.7300   18.9250  -32.8900 C   0  0  0  0  0  0  0  0  0  0  0  0
   -2.7840   19.9360  -32.9770 C   0  0  0  0  0  0  0  0  0  0  0  0
   -3.1840   21.2510  -33.0570 C   0  0  0  0  0  0  0  0  0  0  0  0
   -4.5480   21.5440  -33.0530 C   0  0  0  0  0  0  0  0  0  0  0  0
   -8.7250   21.5780  -31.3200 C   0  0  0  0  0  0  0  0  0  0  0  0
   -8.0390   21.9400  -29.9840 C   0  0  0  0  0  0  0  0  0  0  0  0
   -4.5414   23.9321  -27.2455 H   0  0  0  0  0  0  0  0  0  0  0  0
   -3.1732   23.3120  -28.2305 H   0  0  0  0  0  0  0  0  0  0  0  0
   -3.5570   25.0668  -28.2305 H   0  0  0  0  0  0  0  0  0  0  0  0
   -6.2023   22.5557  -28.2037 H   0  0  0  0  0  0  0  0  0  0  0  0
   -5.2826   24.7437  -32.5700 H   0  0  0  0  0  0  0  0  0  0  0  0
   -3.2380   25.6220  -31.6010 H   0  0  0  0  0  0  0  0  0  0  0  0
   -8.3860   23.7655  -32.6622 H   0  0  0  0  0  0  0  0  0  0  0  0
   -7.0426   23.3886  -33.6485 H   0  0  0  0  0  0  0  0  0  0  0  0
   -5.8247   18.4543  -32.8181 H   0  0  0  0  0  0  0  0  0  0  0  0
   -3.4168   17.8726  -32.8243 H   0  0  0  0  0  0  0  0  0  0  0  0
   -1.7127   19.6866  -32.9821 H   0  0  0  0  0  0  0  0  0  0  0  0
   -2.4396   22.0581  -33.1230 H   0  0  0  0  0  0  0  0  0  0  0  0
   -4.8589   22.5970  -33.1210 H   0  0  0  0  0  0  0  0  0  0  0  0
   -9.5602   22.2658  -31.5181 H   0  0  0  0  0  0  0  0  0  0  0  0
   -9.1371   20.5584  -31.2948 H   0  0  0  0  0  0  0  0  0  0  0  0
   -8.7554   22.4621  -29.3328 H   0  0  0  0  0  0  0  0  0  0  0  0
   -7.6954   21.0215  -29.4857 H   0  0  0  0  0  0  0  0  0  0  0  0
  1  2  1  0
  2  3  2  0
  3  4  1  0
  4  5  2  0
  5  6  1  0
  6  7  2  0
  7  8  1  0
  5  9  1  0
  9 10  1  0
 10 11  1  0
 11 12  2  0
 11 13  1  0
 13 14  2  0
 14 15  1  0
 15 16  2  0
 16 17  1  0
 17 18  2  0
 10 19  1  0
 19 20  1  0
  7  2  1  0
 18 13  1  0
 20  4  1  0
  1 21  1  0
  1 22  1  0
  1 23  1  0
  3 24  1  0
  6 25  1  0
  8 26  1  0
  9 27  1  0
  9 28  1  0
 14 29  1  0
 15 30  1  0
 16 31  1  0
 17 32  1  0
 18 33  1  0
 19 34  1  0
 19 35  1  0
 20 36  1  0
 20 37  1  0
M  END
>  <smiles>  (34) 
Cc1cc2c(cc1O)CN(C(=O)c1ccccc1)CC2

>  <score_type>  (34) 
oracle

>  <origin>  (34) 
adg

>  <m_score__min__energy>  (34) 
-8.3000000000000007

>  <m_primary>  (34) 
energy

$$$$
35:0
     RDKit          3D

 52 54  0  0  0  0  0  0  0  0999 V2000
   -1.3910   20.8350  -29.9580 C   0  0  0  0  0  0  0  0  0  0  0  0
   -1.1700   22.2640  -30.4030 C   0  0  0  0  0  0  0  0  0  0  0  0
   -2.3630   22.9680  -30.4990 O   0  0  0  0  0  0  0  0  0  0  0  0
   -3.0070   23.1210  -29.2760 C   0  0  0  0  0  0  0  0  0  0  0  0
   -3.6180   24.4990  -29.2120 C   0  0  0  0  0  0  0  0  0  0  0  0
   -3.9300   25.0090  -30.4540 O   0  0  0  0  0  0  0  0  0  0  0  0
   -5.2170   25.4600  -30.5710 C   0  0  0  0  0  0  0  0  0  0  0  0
   -6.0210   24.5330  -31.5640 C   0  0  0  0  0  0  0  0  0  0  0  0
   -5.3140   23.3180  -31.7390 N   0  0  0  0  0  0  0  0  0  0  0  0
   -5.6340   22.0460  -32.1970 C   0  0  0  0  0  0  0  0  0  0  0  0
   -6.8680   21.4500  -32.1660 C   0  0  0  0  0  0  0  0  0  0  0  0
   -7.9540   22.1070  -31.6740 C   0  0  0  0  0  0  0  0  0  0  0  0
   -9.2360   21.5860  -31.6280 C   0  0  0  0  0  0  0  0  0  0  0  0
   -9.4780   20.3290  -32.0970 C   0  0  0  0  0  0  0  0  0  0  0  0
   -8.3860   19.6190  -32.6110 C   0  0  0  0  0  0  0  0  0  0  0  0
   -7.1090   20.1580  -32.6460 C   0  0  0  0  0  0  0  0  0  0  0  0
   -6.0860   19.4230  -33.1790 N   0  0  0  0  0  0  0  0  0  0  0  0
   -6.3760   18.0730  -33.5390 C   0  0  0  0  0  0  0  0  0  0  0  0
   -4.8500   19.9760  -33.2370 C   0  0  0  0  0  0  0  0  0  0  0  0
   -3.8070   19.2310  -33.8190 C   0  0  0  0  0  0  0  0  0  0  0  0
   -3.9660   17.9130  -34.4220 C   0  0  0  0  0  0  0  0  0  0  0  0
   -2.5250   19.8000  -33.9020 C   0  0  0  0  0  0  0  0  0  0  0  0
   -2.2590   21.0520  -33.4370 C   0  0  0  0  0  0  0  0  0  0  0  0
   -3.3160   21.7570  -32.8730 C   0  0  0  0  0  0  0  0  0  0  0  0
   -4.5970   21.2610  -32.7600 C   0  0  0  0  0  0  0  0  0  0  0  0
   -1.3979   20.7901  -28.8589 H   0  0  0  0  0  0  0  0  0  0  0  0
   -2.3555   20.4752  -30.3458 H   0  0  0  0  0  0  0  0  0  0  0  0
   -0.5803   20.2007  -30.3458 H   0  0  0  0  0  0  0  0  0  0  0  0
   -0.5184   22.7668  -29.6732 H   0  0  0  0  0  0  0  0  0  0  0  0
   -0.7065   22.2421  -31.4004 H   0  0  0  0  0  0  0  0  0  0  0  0
   -3.7973   22.3622  -29.1778 H   0  0  0  0  0  0  0  0  0  0  0  0
   -2.2836   22.9967  -28.4568 H   0  0  0  0  0  0  0  0  0  0  0  0
   -4.5393   24.4463  -28.6134 H   0  0  0  0  0  0  0  0  0  0  0  0
   -2.8717   25.1687  -28.7598 H   0  0  0  0  0  0  0  0  0  0  0  0
   -5.7009   25.4433  -29.5833 H   0  0  0  0  0  0  0  0  0  0  0  0
   -5.2071   26.4881  -30.9619 H   0  0  0  0  0  0  0  0  0  0  0  0
   -7.0170   24.3229  -31.1470 H   0  0  0  0  0  0  0  0  0  0  0  0
   -6.1340   25.0391  -32.5341 H   0  0  0  0  0  0  0  0  0  0  0  0
   -4.2840   23.4370  -31.4330 H   0  0  0  0  0  0  0  0  0  0  0  0
   -7.8022   23.1247  -31.2851 H   0  0  0  0  0  0  0  0  0  0  0  0
  -10.0591   22.1862  -31.2131 H   0  0  0  0  0  0  0  0  0  0  0  0
  -10.4870   19.8916  -32.0727 H   0  0  0  0  0  0  0  0  0  0  0  0
   -8.5462   18.6022  -32.9990 H   0  0  0  0  0  0  0  0  0  0  0  0
   -6.5055   17.4703  -32.6280 H   0  0  0  0  0  0  0  0  0  0  0  0
   -7.3012   18.0426  -34.1333 H   0  0  0  0  0  0  0  0  0  0  0  0
   -5.5449   17.6654  -34.1333 H   0  0  0  0  0  0  0  0  0  0  0  0
   -4.0574   17.1558  -33.6294 H   0  0  0  0  0  0  0  0  0  0  0  0
   -4.8720   17.9020  -35.0458 H   0  0  0  0  0  0  0  0  0  0  0  0
   -3.0886   17.6869  -35.0458 H   0  0  0  0  0  0  0  0  0  0  0  0
   -1.7111   19.2161  -34.3566 H   0  0  0  0  0  0  0  0  0  0  0  0
   -1.2509   21.4868  -33.5048 H   0  0  0  0  0  0  0  0  0  0  0  0
   -3.1184   22.7707  -32.4945 H   0  0  0  0  0  0  0  0  0  0  0  0
  1  2  1  0
  2  3  1  0
  3  4  1  0
  4  5  1  0
  5  6  1  0
  6  7  1  0
  7  8  1  0
  8  9  1  0
  9 10  1  0
 10 11  2  0
 11 12  1  0
 12 13  2  0
 13 14  1  0
 14 15  2  0
 15 16  1  0
 16 17  2  0
 17 18  1  0
 17 19  1  0
 19 20  2  0
 20 21  1  0
 20 22  1  0
 22 23  2  0
 23 24  1  0
 24 25  2  0
 25 10  1  0
 16 11  1  0
 25 19  1  0
  1 26  1  0
  1 27  1  0
  1 28  1  0
  2 29  1  0
  2 30  1  0
  4 31  1  0
  4 32  1  0
  5 33  1  0
  5 34  1  0
  7 35  1  0
  7 36  1  0
  8 37  1  0
  8 38  1  0
  9 39  1  0
 12 40  1  0
 13 41  1  0
 14 42  1  0
 15 43  1  0
 18 44  1  0
 18 45  1  0
 18 46  1  0
 21 47  1  0
 21 48  1  0
 21 49  1  0
 22 50  1  0
 23 51  1  0
 24 52  1  0
M  CHG  1  17   1
M  END
>  <smiles>  (35) 
CCOCCOCCNc1c2ccccc2[n+](C)c2c(C)cccc12

>  <score_type>  (35) 
oracle

>  <origin>  (35) 
adg

>  <m_score__min__energy>  (35) 
-9.1500000000000004

>  <m_primary>  (35) 
energy

$$$$
