0:0
     RDKit          3D

 53 56  0  0  0  0  0  0  0  0999 V2000
   -6.1200   25.0890  -29.7010 C   0  0  0  0  0  0  0  0  0  0  0  0
   -4.9790   25.2490  -30.7050 C   0  0  0  0  0  0  0  0  0  0  0  0
   -3.9250   24.2380  -30.4820 N   0  0  0  0  0  0  0  0  0  0  0  0
   -3.1140   24.5360  -29.2900 C   0  0  0  0  0  0  0  0  0  0  0  0
   -4.3410   22.8150  -30.5870 C   0  0  0  0  0  0  0  0  0  0  0  0
   -3.2740   21.8020  -31.0710 C   0  0  0  0  0  0  0  0  0  0  0  0
   -3.1540   21.6260  -32.5900 C   0  0  0  0  0  0  0  0  0  0  0  0
   -4.4450   21.8090  -33.2530 N   0  0  0  0  0  0  0  0  0  0  0  0
   -5.5560   20.9380  -32.9890 C   0  0  0  0  0  0  0  0  0  0  0  0
   -6.8080   21.4320  -32.5500 C   0  0  0  0  0  0  0  0  0  0  0  0
   -7.0060   22.8110  -32.3410 C   0  0  0  0  0  0  0  0  0  0  0  0
   -8.2500   23.2980  -31.9460 C   0  0  0  0  0  0  0  0  0  0  0  0
   -9.3180   22.4260  -31.7630 C   0  0  0  0  0  0  0  0  0  0  0  0
   -9.1470   21.0540  -31.9430 C   0  0  0  0  0  0  0  0  0  0  0  0
   -7.8880   20.5160  -32.3050 C   0  0  0  0  0  0  0  0  0  0  0  0
   -7.6920   19.1500  -32.4420 N   0  0  0  0  0  0  0  0  0  0  0  0
   -8.6760   18.1720  -31.9470 C   0  0  0  0  0  0  0  0  0  0  0  0
   -6.5130   18.7200  -32.9960 C   0  0  0  0  0  0  0  0  0  0  0  0
   -5.4560   19.5720  -33.2330 C   0  0  0  0  0  0  0  0  0  0  0  0
   -4.4040   18.9200  -33.7760 N   0  0  0  0  0  0  0  0  0  0  0  0
   -4.8070   17.6410  -33.8990 C   0  0  0  0  0  0  0  0  0  0  0  0
   -4.0780   16.5970  -34.4680 C   0  0  0  0  0  0  0  0  0  0  0  0
   -4.7000   15.3440  -34.5870 C   0  0  0  0  0  0  0  0  0  0  0  0
   -6.0330   15.1660  -34.1650 C   0  0  0  0  0  0  0  0  0  0  0  0
   -6.7550   16.2340  -33.6030 C   0  0  0  0  0  0  0  0  0  0  0  0
   -6.1030   17.4650  -33.4470 C   0  0  0  0  0  0  0  0  0  0  0  0
   -5.7190   25.1452  -28.6782 H   0  0  0  0  0  0  0  0  0  0  0  0
   -6.8559   25.8927  -29.8511 H   0  0  0  0  0  0  0  0  0  0  0  0
   -6.6064   24.1139  -29.8511 H   0  0  0  0  0  0  0  0  0  0  0  0
   -5.3782   25.1324  -31.7233 H   0  0  0  0  0  0  0  0  0  0  0  0
   -4.5370   26.2477  -30.5735 H   0  0  0  0  0  0  0  0  0  0  0  0
   -3.7002   24.3206  -28.3845 H   0  0  0  0  0  0  0  0  0  0  0  0
   -2.2082   23.9120  -29.2974 H   0  0  0  0  0  0  0  0  0  0  0  0
   -2.8277   25.5981  -29.2974 H   0  0  0  0  0  0  0  0  0  0  0  0
   -4.6753   22.4930  -29.5897 H   0  0  0  0  0  0  0  0  0  0  0  0
   -5.1188   22.8025  -31.3647 H   0  0  0  0  0  0  0  0  0  0  0  0
   -2.2966   22.1361  -30.6927 H   0  0  0  0  0  0  0  0  0  0  0  0
   -3.5963   20.8242  -30.6837 H   0  0  0  0  0  0  0  0  0  0  0  0
   -2.4426   22.3683  -32.9810 H   0  0  0  0  0  0  0  0  0  0  0  0
   -2.8029   20.6035  -32.7930 H   0  0  0  0  0  0  0  0  0  0  0  0
   -4.6000   22.6610  -33.8350 H   0  0  0  0  0  0  0  0  0  0  0  0
   -6.1701   23.5101  -32.4912 H   0  0  0  0  0  0  0  0  0  0  0  0
   -8.3881   24.3763  -31.7782 H   0  0  0  0  0  0  0  0  0  0  0  0
  -10.3033   22.8211  -31.4746 H   0  0  0  0  0  0  0  0  0  0  0  0
  -10.0037   20.3787  -31.8016 H   0  0  0  0  0  0  0  0  0  0  0  0
   -8.6738   18.1742  -30.8470 H   0  0  0  0  0  0  0  0  0  0  0  0
   -9.6777   18.4427  -32.3122 H   0  0  0  0  0  0  0  0  0  0  0  0
   -8.4114   17.1687  -32.3122 H   0  0  0  0  0  0  0  0  0  0  0  0
   -3.4930   19.3220  -34.0900 H   0  0  0  0  0  0  0  0  0  0  0  0
   -3.0451   16.7509  -34.8137 H   0  0  0  0  0  0  0  0  0  0  0  0
   -4.1435   14.4958  -35.0123 H   0  0  0  0  0  0  0  0  0  0  0  0
   -6.5130   14.1826  -34.2763 H   0  0  0  0  0  0  0  0  0  0  0  0
   -7.8031   16.1068  -33.2942 H   0  0  0  0  0  0  0  0  0  0  0  0
  1  2  1  0
  2  3  1  0
  3  4  1  0
  3  5  1  0
  5  6  1  0
  6  7  1  0
  7  8  1  0
  8  9  1  0
  9 10  2  0
 10 11  1  0
 11 12  2  0
 12 13  1  0
 13 14  2  0
 14 15  1  0
 15 16  2  0
 16 17  1  0
 16 18  1  0
 18 19  2  0
 19 20  1  0
 20 21  1  0
 21 22  2  0
 22 23  1  0
 23 24  2  0
 24 25  1  0
 25 26  2  0
 19  9  1  0
 26 21  1  0
 15 10  1  0
 26 18  1  0
  1 27  1  0
  1 28  1  0
  1 29  1  0
  2 30  1  0
  2 31  1  0
  4 32  1  0
  4 33  1  0
  4 34  1  0
  5 35  1  0
  5 36  1  0
  6 37  1  0
  6 38  1  0
  7 39  1  0
  7 40  1  0
  8 41  1  0
 11 42  1  0
 12 43  1  0
 13 44  1  0
 14 45  1  0
 17 46  1  0
 17 47  1  0
 17 48  1  0
 20 49  1  0
 22 50  1  0
 23 51  1  0
 24 52  1  0
 25 53  1  0
M  CHG  1  16   1
M  END
>  <UniqueID>  (1) 
1

>  <SMILES>  (1) 
CCN(C)CCCNc1c2ccccc2[n+](C)c2c1[nH]c1ccccc12

>  <Energy>  (1) 
120.71600627865634

>  <Genealogy>  (1) 
CCN(C)CCCNc1c2ccccc2[n+](C)c2c1[nH]c1ccccc12 (3D coordinates assigned)
CCN(C)CCCNc1c2ccccc2[n+](C)c2c1[nH]c1ccccc12 (optimized conformer: 120.71600627865634 kcal/mol)

>  <smiles>  (1) 
CCN(C)CCCNc1c2ccccc2[n+](C)c2c1[nH]c1ccccc12

>  <score_type>  (1) 
oracle

>  <origin>  (1) 
adg

>  <m_score__min__energy>  (1) 
-9.0700000000000003

>  <m_primary>  (1) 
energy

$$$$
1:0
     RDKit          3D

 40 41  0  0  0  0  0  0  0  0999 V2000
   -6.1120   17.4720  -31.2470 C   0  0  0  0  0  0  0  0  0  0  0  0
   -7.0080   18.5730  -31.5870 N   0  0  0  0  0  0  0  0  0  0  0  0
   -7.1500   19.0810  -32.9260 C   0  0  0  0  0  0  0  0  0  0  0  0
   -6.1130   18.6120  -34.1110 S   0  0  0  0  0  0  0  0  0  0  0  0
   -8.1940   20.0100  -33.2550 N   0  0  0  0  0  0  0  0  0  0  0  0
   -9.2900   20.3350  -32.3400 C   0  0  0  0  0  0  0  0  0  0  0  0
   -8.8640   21.3830  -31.2940 C   0  0  0  0  0  0  0  0  0  0  0  0
   -8.4830   22.7380  -31.9150 C   0  0  0  0  0  0  0  0  0  0  0  0
   -7.0020   22.9710  -31.9150 C   0  0  0  0  0  0  0  0  0  0  0  0
   -6.3230   24.0480  -31.3840 C   0  0  0  0  0  0  0  0  0  0  0  0
   -5.0000   23.8140  -31.4590 N   0  0  0  0  0  0  0  0  0  0  0  0
   -4.8240   22.6210  -32.0120 N   0  0  0  0  0  0  0  0  0  0  0  0
   -3.5300   22.0160  -32.2070 C   0  0  0  0  0  0  0  0  0  0  0  0
   -2.5240   22.1110  -31.2260 C   0  0  0  0  0  0  0  0  0  0  0  0
   -1.2670   21.5380  -31.4400 C   0  0  0  0  0  0  0  0  0  0  0  0
   -0.9950   20.8490  -32.6290 C   0  0  0  0  0  0  0  0  0  0  0  0
    0.3660   20.2690  -32.8730 C   0  0  0  0  0  0  0  0  0  0  0  0
   -1.9850   20.7710  -33.6190 C   0  0  0  0  0  0  0  0  0  0  0  0
   -3.2410   21.3460  -33.4100 C   0  0  0  0  0  0  0  0  0  0  0  0
   -6.0250   22.0820  -32.3060 C   0  0  0  0  0  0  0  0  0  0  0  0
   -6.0394   17.3828  -30.1530 H   0  0  0  0  0  0  0  0  0  0  0  0
   -6.5073   16.5348  -31.6659 H   0  0  0  0  0  0  0  0  0  0  0  0
   -5.1141   17.6687  -31.6659 H   0  0  0  0  0  0  0  0  0  0  0  0
   -7.5730   18.9890  -30.8130 H   0  0  0  0  0  0  0  0  0  0  0  0
   -8.1950   20.4200  -34.2170 H   0  0  0  0  0  0  0  0  0  0  0  0
  -10.1342   20.7339  -32.9216 H   0  0  0  0  0  0  0  0  0  0  0  0
   -9.5783   19.4161  -31.8085 H   0  0  0  0  0  0  0  0  0  0  0  0
   -9.6998   21.5406  -30.5964 H   0  0  0  0  0  0  0  0  0  0  0  0
   -7.9698   20.9931  -30.7856 H   0  0  0  0  0  0  0  0  0  0  0  0
   -8.8447   22.7648  -32.9535 H   0  0  0  0  0  0  0  0  0  0  0  0
   -8.9466   23.5280  -31.3060 H   0  0  0  0  0  0  0  0  0  0  0  0
   -6.7884   24.9529  -30.9663 H   0  0  0  0  0  0  0  0  0  0  0  0
   -2.7290   22.6404  -30.2838 H   0  0  0  0  0  0  0  0  0  0  0  0
   -0.4867   21.6287  -30.6700 H   0  0  0  0  0  0  0  0  0  0  0  0
    0.8541   20.0610  -31.9094 H   0  0  0  0  0  0  0  0  0  0  0  0
    0.2691   19.3340  -33.4443 H   0  0  0  0  0  0  0  0  0  0  0  0
    0.9733   20.9865  -33.4443 H   0  0  0  0  0  0  0  0  0  0  0  0
   -1.7714   20.2539  -34.5661 H   0  0  0  0  0  0  0  0  0  0  0  0
   -4.0106   21.2743  -34.1927 H   0  0  0  0  0  0  0  0  0  0  0  0
   -6.1949   21.1023  -32.7765 H   0  0  0  0  0  0  0  0  0  0  0  0
  1  2  1  0
  2  3  1  0
  3  4  2  0
  3  5  1  0
  5  6  1  0
  6  7  1  0
  7  8  1  0
  8  9  1  0
  9 10  1  0
 10 11  2  0
 11 12  1  0
 12 13  1  0
 13 14  2  0
 14 15  1  0
 15 16  2  0
 16 17  1  0
 16 18  1  0
 18 19  2  0
 12 20  1  0
 20  9  2  0
 19 13  1  0
  1 21  1  0
  1 22  1  0
  1 23  1  0
  2 24  1  0
  5 25  1  0
  6 26  1  0
  6 27  1  0
  7 28  1  0
  7 29  1  0
  8 30  1  0
  8 31  1  0
 10 32  1  0
 14 33  1  0
 15 34  1  0
 17 35  1  0
 17 36  1  0
 17 37  1  0
 18 38  1  0
 19 39  1  0
 20 40  1  0
M  END
>  <UniqueID>  (2) 
2

>  <SMILES>  (2) 
CNC(=S)NCCCc1cnn(-c2ccc(C)cc2)c1

>  <Energy>  (2) 
61.98624170607176

>  <Genealogy>  (2) 
CNC(=S)NCCCc1cnn(-c2ccc(C)cc2)c1 (3D coordinates assigned)
CNC(=S)NCCCc1cnn(-c2ccc(C)cc2)c1 (optimized conformer: 61.98624170607176 kcal/mol)

>  <smiles>  (2) 
CNC(=S)NCCCc1cnn(-c2ccc(C)cc2)c1

>  <score_type>  (2) 
oracle

>  <origin>  (2) 
adg

>  <m_score__min__energy>  (2) 
-7.3399999999999999

>  <m_primary>  (2) 
energy

$$$$
2:0
     RDKit          3D

 46 49  0  0  1  0  0  0  0  0999 V2000
   -3.0010   19.6710  -27.1240 C   0  0  0  0  0  0  0  0  0  0  0  0
   -1.7320   18.9570  -26.7880 C   0  0  0  0  0  0  0  0  0  0  0  0
   -0.6330   19.5390  -27.4930 N   0  0  0  0  0  0  0  0  0  0  0  0
   -0.8140   19.6970  -28.9040 C   0  0  0  0  0  0  0  0  0  0  0  0
   -0.2160   21.0040  -29.4410 C   0  0  0  0  0  0  0  0  0  0  0  0
   -1.1850   22.0940  -29.3590 N   0  0  0  0  0  0  0  0  0  0  0  0
   -1.0290   23.0980  -28.4630 C   0  0  0  0  0  0  0  0  0  0  0  0
   -2.0910   23.9650  -28.6180 C   0  0  0  0  0  0  0  0  0  0  0  0
   -2.8620   23.4520  -29.6120 C   0  0  0  0  0  0  0  0  0  0  0  0
   -4.0260   23.9040  -30.1670 C   0  0  0  0  0  0  0  0  0  0  0  0
   -4.5920   25.0520  -29.7220 N   0  0  0  0  0  0  0  0  0  0  0  0
   -5.7390   25.5300  -30.2460 C   0  0  0  0  0  0  0  0  0  0  0  0
   -6.3190   24.8200  -31.2470 N   0  0  0  0  0  0  0  0  0  0  0  0
   -5.7830   23.6810  -31.7080 C   0  0  0  0  0  0  0  0  0  0  0  0
   -6.4260   23.0810  -32.6780 N   0  0  0  0  0  0  0  0  0  0  0  0
   -7.2310   21.9270  -32.3620 C   0  0  0  0  0  0  0  0  0  0  0  0
   -8.4390   22.2210  -31.7240 C   0  0  0  0  0  0  0  0  0  0  0  0
   -9.2830   21.1840  -31.3810 C   0  0  0  0  0  0  0  0  0  0  0  0
   -8.9020   19.8880  -31.6810 C   0  0  0  0  0  0  0  0  0  0  0  0
   -7.7020   19.6070  -32.3140 C   0  0  0  0  0  0  0  0  0  0  0  0
   -7.2300   17.8040  -32.7030 Br  0  0  0  0  0  0  0  0  0  0  0  0
   -6.8530   20.6510  -32.6590 C   0  0  0  0  0  0  0  0  0  0  0  0
   -4.6090   23.1730  -31.1850 C   0  0  0  0  0  0  0  0  0  0  0  0
   -4.0760   22.0040  -31.6740 C   0  0  0  0  0  0  0  0  0  0  0  0
   -2.8920   21.5690  -31.0890 C   0  0  0  0  0  0  0  0  0  0  0  0
   -2.3040   22.2860  -30.0770 C   0  0  0  0  0  0  0  0  0  0  0  0
   -3.5156   19.9605  -26.1959 H   0  0  0  0  0  0  0  0  0  0  0  0
   -2.7703   20.5718  -27.7117 H   0  0  0  0  0  0  0  0  0  0  0  0
   -3.6512   19.0063  -27.7117 H   0  0  0  0  0  0  0  0  0  0  0  0
   -1.5493   19.0318  -25.7059 H   0  0  0  0  0  0  0  0  0  0  0  0
   -1.8269   17.9014  -27.0824 H   0  0  0  0  0  0  0  0  0  0  0  0
   -0.3360   20.4370  -27.0870 H   0  0  0  0  0  0  0  0  0  0  0  0
   -0.3294   18.8529  -29.4165 H   0  0  0  0  0  0  0  0  0  0  0  0
   -1.8967   19.7263  -29.0963 H   0  0  0  0  0  0  0  0  0  0  0  0
    0.6711   21.2654  -28.8454 H   0  0  0  0  0  0  0  0  0  0  0  0
    0.0586   20.8570  -30.4960 H   0  0  0  0  0  0  0  0  0  0  0  0
   -0.2047   23.2030  -27.7422 H   0  0  0  0  0  0  0  0  0  0  0  0
   -2.2766   24.8883  -28.0496 H   0  0  0  0  0  0  0  0  0  0  0  0
   -4.1280   25.5850  -28.9490 H   0  0  0  0  0  0  0  0  0  0  0  0
   -6.1889   26.4628  -29.8751 H   0  0  0  0  0  0  0  0  0  0  0  0
   -8.7130   23.2622  -31.4987 H   0  0  0  0  0  0  0  0  0  0  0  0
  -10.2408   21.3842  -30.8784 H   0  0  0  0  0  0  0  0  0  0  0  0
   -9.5705   19.0577  -31.4094 H   0  0  0  0  0  0  0  0  0  0  0  0
   -5.8950   20.4523  -33.1617 H   0  0  0  0  0  0  0  0  0  0  0  0
   -4.5609   21.4420  -32.4858 H   0  0  0  0  0  0  0  0  0  0  0  0
   -2.4211   20.6394  -31.4413 H   0  0  0  0  0  0  0  0  0  0  0  0
  1  2  1  0
  2  3  1  0
  3  4  1  0
  4  5  1  0
  5  6  1  0
  6  7  1  0
  7  8  2  0
  8  9  1  0
  9 10  2  0
 10 11  1  0
 11 12  1  0
 12 13  2  0
 13 14  1  0
 14 15  2  0
 15 16  1  0
 16 17  2  0
 17 18  1  0
 18 19  2  0
 19 20  1  0
 20 21  1  0
 20 22  2  0
 14 23  1  0
 23 24  2  0
 24 25  1  0
 25 26  2  0
 26  6  1  0
 26  9  1  0
 23 10  1  0
 22 16  1  0
  1 27  1  0
  1 28  1  0
  1 29  1  0
  2 30  1  0
  2 31  1  0
  3 32  1  0
  4 33  1  0
  4 34  1  0
  5 35  1  0
  5 36  1  0
  7 37  1  0
  8 38  1  0
 11 39  1  0
 12 40  1  0
 17 41  1  0
 18 42  1  0
 19 43  1  0
 22 44  1  0
 24 45  1  0
 25 46  1  0
M  END
>  <smiles>  (3) 
CCNCCn1ccc2c3[nH]cnc(=Nc4cccc(Br)c4)c3ccc21

>  <score_type>  (3) 
oracle

>  <origin>  (3) 
adg

>  <m_score__min__energy>  (3) 
-9.2899999999999991

>  <m_primary>  (3) 
energy

$$$$
3:0
     RDKit          3D

 53 55  0  0  0  0  0  0  0  0999 V2000
   -5.9070   24.5100  -30.5920 C   0  0  0  0  0  0  0  0  0  0  0  0
   -5.7280   23.7660  -31.9060 C   0  0  0  0  0  0  0  0  0  0  0  0
   -5.9940   22.3820  -31.7050 O   0  0  0  0  0  0  0  0  0  0  0  0
   -7.2400   21.7660  -31.9170 C   0  0  0  0  0  0  0  0  0  0  0  0
   -8.4420   22.3630  -31.4860 C   0  0  0  0  0  0  0  0  0  0  0  0
   -9.6630   21.7140  -31.6810 C   0  0  0  0  0  0  0  0  0  0  0  0
   -9.7030   20.4670  -32.3060 C   0  0  0  0  0  0  0  0  0  0  0  0
   -8.5200   19.8670  -32.7420 C   0  0  0  0  0  0  0  0  0  0  0  0
   -7.2830   20.5090  -32.5610 C   0  0  0  0  0  0  0  0  0  0  0  0
   -6.0430   19.8560  -33.0450 C   0  0  0  0  0  0  0  0  0  0  0  0
   -6.0750   18.5450  -33.5400 C   0  0  0  0  0  0  0  0  0  0  0  0
   -4.9060   17.9350  -33.9900 C   0  0  0  0  0  0  0  0  0  0  0  0
   -3.6880   18.6220  -33.9610 C   0  0  0  0  0  0  0  0  0  0  0  0
   -3.6240   19.9320  -33.4420 C   0  0  0  0  0  0  0  0  0  0  0  0
   -4.8150   20.5350  -32.9880 C   0  0  0  0  0  0  0  0  0  0  0  0
   -2.3390   20.6820  -33.2980 C   0  0  0  0  0  0  0  0  0  0  0  0
   -2.3980   21.9100  -33.0040 O   0  0  0  0  0  0  0  0  0  0  0  0
   -1.0250   20.0860  -33.4730 N   0  0  1  0  0  0  0  0  0  0  0  0
    0.0410   21.0760  -33.1790 C   0  0  0  0  0  0  0  0  0  0  0  0
    1.1530   21.0820  -34.2470 C   0  0  0  0  0  0  0  0  0  0  0  0
    0.7300   20.3210  -35.4440 N   0  0  0  0  0  0  0  0  0  0  0  0
    1.8860   19.6430  -36.0520 C   0  0  0  0  0  0  0  0  0  0  0  0
    0.1060   21.2100  -36.4410 C   0  0  0  0  0  0  0  0  0  0  0  0
   -0.8880   18.7760  -32.7890 C   0  0  0  0  0  0  0  0  0  0  0  0
   -1.4790   17.5840  -33.5620 C   0  0  0  0  0  0  0  0  0  0  0  0
   -2.5510   17.9610  -34.4170 O   0  0  0  0  0  0  0  0  0  0  0  0
   -5.7405   23.8181  -29.7532 H   0  0  0  0  0  0  0  0  0  0  0  0
   -5.1818   25.3352  -30.5361 H   0  0  0  0  0  0  0  0  0  0  0  0
   -6.9282   24.9150  -30.5361 H   0  0  0  0  0  0  0  0  0  0  0  0
   -6.4263   24.1692  -32.6542 H   0  0  0  0  0  0  0  0  0  0  0  0
   -4.6956   23.8939  -32.2633 H   0  0  0  0  0  0  0  0  0  0  0  0
   -8.4181   23.3461  -30.9931 H   0  0  0  0  0  0  0  0  0  0  0  0
  -10.5960   22.1872  -31.3409 H   0  0  0  0  0  0  0  0  0  0  0  0
  -10.6661   19.9569  -32.4551 H   0  0  0  0  0  0  0  0  0  0  0  0
   -8.5566   18.8827  -33.2317 H   0  0  0  0  0  0  0  0  0  0  0  0
   -7.0273   17.9954  -33.5733 H   0  0  0  0  0  0  0  0  0  0  0  0
   -4.9413   16.9039  -34.3715 H   0  0  0  0  0  0  0  0  0  0  0  0
   -4.7816   21.5566  -32.5815 H   0  0  0  0  0  0  0  0  0  0  0  0
   -0.9560   19.8690  -34.4970 H   0  0  0  0  0  0  0  0  0  0  0  0
   -0.4108   22.0780  -33.1347 H   0  0  0  0  0  0  0  0  0  0  0  0
    0.5009   20.7965  -32.2196 H   0  0  0  0  0  0  0  0  0  0  0  0
    1.3700   22.1206  -34.5370 H   0  0  0  0  0  0  0  0  0  0  0  0
    2.0521   20.6088  -33.8254 H   0  0  0  0  0  0  0  0  0  0  0  0
    2.5436   19.2573  -35.2590 H   0  0  0  0  0  0  0  0  0  0  0  0
    1.5348   18.8077  -36.6757 H   0  0  0  0  0  0  0  0  0  0  0  0
    2.4436   20.3572  -36.6757 H   0  0  0  0  0  0  0  0  0  0  0  0
   -0.4521   22.0051  -35.9249 H   0  0  0  0  0  0  0  0  0  0  0  0
    0.8874   21.6601  -37.0710 H   0  0  0  0  0  0  0  0  0  0  0  0
   -0.5829   20.6281  -37.0710 H   0  0  0  0  0  0  0  0  0  0  0  0
    0.1830   18.5834  -32.6282 H   0  0  0  0  0  0  0  0  0  0  0  0
   -1.4585   18.8530  -31.8516 H   0  0  0  0  0  0  0  0  0  0  0  0
   -0.6839   17.1319  -34.1731 H   0  0  0  0  0  0  0  0  0  0  0  0
   -1.8779   16.8737  -32.8228 H   0  0  0  0  0  0  0  0  0  0  0  0
  1  2  1  0
  2  3  1  0
  3  4  1  0
  4  5  2  0
  5  6  1  0
  6  7  2  0
  7  8  1  0
  8  9  2  0
  9 10  1  0
 10 11  2  0
 11 12  1  0
 12 13  2  0
 13 14  1  0
 14 15  2  0
 14 16  1  0
 16 17  2  0
 16 18  1  0
 18 19  1  0
 19 20  1  0
 20 21  1  0
 21 22  1  0
 21 23  1  0
 18 24  1  0
 24 25  1  0
 25 26  1  0
  9  4  1  0
 15 10  1  0
 26 13  1  0
  1 27  1  0
  1 28  1  0
  1 29  1  0
  2 30  1  0
  2 31  1  0
  5 32  1  0
  6 33  1  0
  7 34  1  0
  8 35  1  0
 11 36  1  0
 12 37  1  0
 15 38  1  0
 18 39  1  6
 19 40  1  0
 19 41  1  0
 20 42  1  0
 20 43  1  0
 22 44  1  0
 22 45  1  0
 22 46  1  0
 23 47  1  0
 23 48  1  0
 23 49  1  0
 24 50  1  0
 24 51  1  0
 25 52  1  0
 25 53  1  0
M  CHG  1  18   1
M  END
>  <UniqueID>  (4) 
3

>  <SMILES>  (4) 
CCOc1ccccc1-c1ccc2c(c1)C(=O)[N@@H+](CCN(C)C)CCO2

>  <Energy>  (4) 
76.88906728145584

>  <Genealogy>  (4) 
CCOc1ccccc1-c1ccc2c(c1)C(=O)[NH+](CCN(C)C)CCO2 (protonated)
CCOc1ccccc1-c1ccc2c(c1)C(=O)[N@@H+](CCN(C)C)CCO2 (chirality)
CCOc1ccccc1-c1ccc2c(c1)C(=O)[N@@H+](CCN(C)C)CCO2 (3D coordinates assigned)
CCOc1ccccc1-c1ccc2c(c1)C(=O)[N@@H+](CCN(C)C)CCO2 (nonaromatic ring conformer: 76.88906728145584 kcal/mol)

>  <smiles>  (4) 
CCOc1ccccc1-c1ccc2c(c1)C(=O)N(CCN(C)C)CCO2

>  <score_type>  (4) 
oracle

>  <origin>  (4) 
adg

>  <m_score__min__energy>  (4) 
-5.4900000000000002

>  <m_primary>  (4) 
energy

$$$$
4:0
     RDKit          3D

 62 65  0  0  0  0  0  0  0  0999 V2000
   -6.0930   16.8180  -32.0600 C   0  0  0  0  0  0  0  0  0  0  0  0
   -6.7630   17.6450  -33.1540 C   0  0  0  0  0  0  0  0  0  0  0  0
   -6.4440   19.0790  -32.9890 N   0  0  0  0  0  0  0  0  0  0  0  0
   -7.4280   19.9720  -32.6150 C   0  0  0  0  0  0  0  0  0  0  0  0
   -8.6070   19.5560  -32.4200 O   0  0  0  0  0  0  0  0  0  0  0  0
   -7.1480   21.3180  -32.4540 N   0  0  0  0  0  0  0  0  0  0  0  0
   -8.2110   22.2430  -32.0040 C   0  0  0  0  0  0  0  0  0  0  0  0
   -8.3260   22.2750  -30.4710 C   0  0  0  0  0  0  0  0  0  0  0  0
   -7.1050   22.9290  -29.8040 C   0  0  0  0  0  0  0  0  0  0  0  0
   -6.9980   24.4380  -30.0920 C   0  0  0  0  0  0  0  0  0  0  0  0
   -5.7660   25.1070  -29.4540 C   0  0  0  0  0  0  0  0  0  0  0  0
   -4.4660   24.5840  -30.0190 C   0  0  0  0  0  0  0  0  0  0  0  0
   -3.8220   25.3110  -30.8270 O   0  0  0  0  0  0  0  0  0  0  0  0
   -3.9380   23.2890  -29.6590 N   0  0  0  0  0  0  0  0  0  0  0  0
   -4.3010   22.6450  -28.3850 C   0  0  0  0  0  0  0  0  0  0  0  0
   -3.1310   21.8210  -27.8280 C   0  0  0  0  0  0  0  0  0  0  0  0
   -2.4960   21.0010  -28.8700 N   0  0  0  0  0  0  0  0  0  0  0  0
   -1.3590   20.1900  -28.5310 C   0  0  0  0  0  0  0  0  0  0  0  0
   -0.1100   20.4550  -29.1150 C   0  0  0  0  0  0  0  0  0  0  0  0
    1.0070   19.6850  -28.7720 C   0  0  0  0  0  0  0  0  0  0  0  0
    0.8820   18.6440  -27.8460 C   0  0  0  0  0  0  0  0  0  0  0  0
   -0.3590   18.3700  -27.2660 C   0  0  0  0  0  0  0  0  0  0  0  0
   -1.4800   19.1370  -27.6060 C   0  0  0  0  0  0  0  0  0  0  0  0
   -2.6850   18.8360  -27.0570 F   0  0  0  0  0  0  0  0  0  0  0  0
   -2.9350   21.1050  -30.2660 C   0  0  0  0  0  0  0  0  0  0  0  0
   -3.1050   22.5770  -30.6420 C   0  0  0  0  0  0  0  0  0  0  0  0
   -5.8790   21.7890  -32.6920 C   0  0  0  0  0  0  0  0  0  0  0  0
   -5.5930   23.0110  -32.5510 O   0  0  0  0  0  0  0  0  0  0  0  0
   -4.9000   20.8980  -33.0920 C   0  0  0  0  0  0  0  0  0  0  0  0
   -3.2890   21.1970  -33.4640 S   0  0  0  0  0  0  0  0  0  0  0  0
   -2.9220   19.5900  -33.8310 C   0  0  0  0  0  0  0  0  0  0  0  0
   -4.0660   18.8100  -33.6660 C   0  0  0  0  0  0  0  0  0  0  0  0
   -5.1830   19.5580  -33.2410 C   0  0  0  0  0  0  0  0  0  0  0  0
   -6.4000   17.1969  -31.0740 H   0  0  0  0  0  0  0  0  0  0  0  0
   -6.3959   15.7652  -32.1588 H   0  0  0  0  0  0  0  0  0  0  0  0
   -5.0002   16.8959  -32.1588 H   0  0  0  0  0  0  0  0  0  0  0  0
   -6.4031   17.3050  -34.1363 H   0  0  0  0  0  0  0  0  0  0  0  0
   -7.8527   17.5128  -33.0823 H   0  0  0  0  0  0  0  0  0  0  0  0
   -7.9787   23.2557  -32.3652 H   0  0  0  0  0  0  0  0  0  0  0  0
   -9.1690   21.8888  -32.4123 H   0  0  0  0  0  0  0  0  0  0  0  0
   -9.2258   22.8449  -30.1963 H   0  0  0  0  0  0  0  0  0  0  0  0
   -8.3835   21.2349  -30.1177 H   0  0  0  0  0  0  0  0  0  0  0  0
   -7.1805   22.7843  -28.7162 H   0  0  0  0  0  0  0  0  0  0  0  0
   -6.2067   22.4501  -30.2208 H   0  0  0  0  0  0  0  0  0  0  0  0
   -6.9446   24.5802  -31.1815 H   0  0  0  0  0  0  0  0  0  0  0  0
   -7.8858   24.9125  -29.6484 H   0  0  0  0  0  0  0  0  0  0  0  0
   -5.8191   26.1905  -29.6360 H   0  0  0  0  0  0  0  0  0  0  0  0
   -5.7798   24.8763  -28.3785 H   0  0  0  0  0  0  0  0  0  0  0  0
   -4.5731   23.4214  -27.6549 H   0  0  0  0  0  0  0  0  0  0  0  0
   -5.1496   21.9687  -28.5652 H   0  0  0  0  0  0  0  0  0  0  0  0
   -2.3805   22.5069  -27.4080 H   0  0  0  0  0  0  0  0  0  0  0  0
   -3.5259   21.1457  -27.0547 H   0  0  0  0  0  0  0  0  0  0  0  0
   -0.0091   21.2714  -29.8453 H   0  0  0  0  0  0  0  0  0  0  0  0
    1.9837   19.8984  -29.2307 H   0  0  0  0  0  0  0  0  0  0  0  0
    1.7610   18.0410  -27.5745 H   0  0  0  0  0  0  0  0  0  0  0  0
   -0.4558   17.5493  -26.5400 H   0  0  0  0  0  0  0  0  0  0  0  0
   -2.1817   20.6443  -30.9219 H   0  0  0  0  0  0  0  0  0  0  0  0
   -3.8962   20.5839  -30.3864 H   0  0  0  0  0  0  0  0  0  0  0  0
   -2.1141   23.0528  -30.6831 H   0  0  0  0  0  0  0  0  0  0  0  0
   -3.6035   22.6292  -31.6212 H   0  0  0  0  0  0  0  0  0  0  0  0
   -1.9371   19.2178  -34.1496 H   0  0  0  0  0  0  0  0  0  0  0  0
   -4.0940   17.7256  -33.8482 H   0  0  0  0  0  0  0  0  0  0  0  0
  1  2  1  0
  2  3  1  0
  3  4  1  0
  4  5  2  0
  4  6  1  0
  6  7  1  0
  7  8  1  0
  8  9  1  0
  9 10  1  0
 10 11  1  0
 11 12  1  0
 12 13  2  0
 12 14  1  0
 14 15  1  0
 15 16  1  0
 16 17  1  0
 17 18  1  0
 18 19  2  0
 19 20  1  0
 20 21  2  0
 21 22  1  0
 22 23  2  0
 23 24  1  0
 17 25  1  0
 25 26  1  0
  6 27  1  0
 27 28  2  0
 27 29  1  0
 29 30  1  0
 30 31  1  0
 31 32  2  0
 32 33  1  0
 33  3  1  0
 26 14  1  0
 33 29  2  0
 23 18  1  0
  1 34  1  0
  1 35  1  0
  1 36  1  0
  2 37  1  0
  2 38  1  0
  7 39  1  0
  7 40  1  0
  8 41  1  0
  8 42  1  0
  9 43  1  0
  9 44  1  0
 10 45  1  0
 10 46  1  0
 11 47  1  0
 11 48  1  0
 15 49  1  0
 15 50  1  0
 16 51  1  0
 16 52  1  0
 19 53  1  0
 20 54  1  0
 21 55  1  0
 22 56  1  0
 25 57  1  0
 25 58  1  0
 26 59  1  0
 26 60  1  0
 31 61  1  0
 32 62  1  0
M  END
>  <UniqueID>  (5) 
4

>  <SMILES>  (5) 
CCn1c(=O)n(CCCCCC(=O)N2CCN(c3ccccc3F)CC2)c(=O)c2sccc21

>  <Energy>  (5) 
102.52073494671214

>  <Genealogy>  (5) 
CCn1c(=O)n(CCCCCC(=O)N2CCN(c3ccccc3F)CC2)c(=O)c2sccc21 (3D coordinates assigned)
CCn1c(=O)n(CCCCCC(=O)N2CCN(c3ccccc3F)CC2)c(=O)c2sccc21 (nonaromatic ring conformer: 102.52073494671214 kcal/mol)

>  <smiles>  (5) 
CCn1c(=O)n(CCCCCC(=O)N2CCN(c3ccccc3F)CC2)c(=O)c2sccc21

>  <score_type>  (5) 
oracle

>  <origin>  (5) 
adg

>  <m_score__min__energy>  (5) 
-10.140000000000001

>  <m_primary>  (5) 
energy

$$$$
5:0
     RDKit          3D

 51 54  0  0  0  0  0  0  0  0999 V2000
   -9.8390   19.7030  -31.6691 H   0  0  0  0  0  0  0  0  0  0  0  0
   -8.7660   19.7360  -31.9090 C   0  0  0  0  0  0  0  0  0  0  0  0
   -8.2050   18.7550  -32.7310 C   0  0  0  0  0  0  0  0  0  0  0  0
   -8.8358   17.9502  -33.1364 H   0  0  0  0  0  0  0  0  0  0  0  0
   -6.8410   18.7970  -33.0380 C   0  0  0  0  0  0  0  0  0  0  0  0
   -6.0760   17.4630  -34.1700 Br  0  0  0  0  0  0  0  0  0  0  0  0
   -6.0390   19.8200  -32.5200 C   0  0  0  0  0  0  0  0  0  0  0  0
   -4.9675   19.8524  -32.7667 H   0  0  0  0  0  0  0  0  0  0  0  0
   -6.5940   20.8070  -31.6860 C   0  0  0  0  0  0  0  0  0  0  0  0
   -5.7480   21.9000  -31.1420 C   0  0  0  0  0  0  0  0  0  0  0  0
   -4.4090   21.6430  -30.8270 C   0  0  0  0  0  0  0  0  0  0  0  0
   -3.9918   20.6364  -30.9775 H   0  0  0  0  0  0  0  0  0  0  0  0
   -3.6050   22.6620  -30.3230 C   0  0  0  0  0  0  0  0  0  0  0  0
   -2.2580   22.4460  -30.0150 C   0  0  0  0  0  0  0  0  0  0  0  0
   -1.8118   21.4512  -30.1612 H   0  0  0  0  0  0  0  0  0  0  0  0
   -1.5020   23.4670  -29.5350 N   0  0  0  0  0  0  0  0  0  0  0  0
   -2.0330   24.7060  -29.3460 C   0  0  0  0  0  0  0  0  0  0  0  0
   -1.3050   25.6810  -28.8920 N   0  0  0  0  0  0  0  0  0  0  0  0
   -0.9220   25.8330  -27.4900 C   0  0  0  0  0  0  0  0  0  0  0  0
    0.0729   26.2991  -27.4360 H   0  0  0  0  0  0  0  0  0  0  0  0
   -1.6677   26.4656  -26.9863 H   0  0  0  0  0  0  0  0  0  0  0  0
   -0.8780   24.4710  -26.7900 C   0  0  0  0  0  0  0  0  0  0  0  0
   -0.9200   24.6469  -25.7050 H   0  0  0  0  0  0  0  0  0  0  0  0
   -1.7346   23.9037  -27.1829 H   0  0  0  0  0  0  0  0  0  0  0  0
    0.3770   23.6030  -27.0850 C   0  0  0  0  0  0  0  0  0  0  0  0
    0.5678   23.6515  -28.1672 H   0  0  0  0  0  0  0  0  0  0  0  0
    1.1735   24.0270  -26.4559 H   0  0  0  0  0  0  0  0  0  0  0  0
    0.3060   22.1700  -26.7060 N   0  0  0  0  0  0  0  0  0  0  0  0
    0.4920   21.2220  -27.8140 C   0  0  0  0  0  0  0  0  0  0  0  0
    0.6278   21.7721  -28.7568 H   0  0  0  0  0  0  0  0  0  0  0  0
    1.3833   20.6014  -27.6396 H   0  0  0  0  0  0  0  0  0  0  0  0
   -0.7540   20.3460  -27.9010 C   0  0  0  0  0  0  0  0  0  0  0  0
   -1.1623   20.3608  -28.9223 H   0  0  0  0  0  0  0  0  0  0  0  0
   -0.5298   19.2970  -27.6574 H   0  0  0  0  0  0  0  0  0  0  0  0
   -1.7470   20.9450  -26.9270 C   0  0  0  0  0  0  0  0  0  0  0  0
   -2.4719   21.5823  -27.4546 H   0  0  0  0  0  0  0  0  0  0  0  0
   -2.3327   20.1753  -26.4031 H   0  0  0  0  0  0  0  0  0  0  0  0
   -0.9020   21.7700  -25.9760 C   0  0  0  0  0  0  0  0  0  0  0  0
   -1.4596   22.6614  -25.6527 H   0  0  0  0  0  0  0  0  0  0  0  0
   -0.6421   21.1884  -25.0792 H   0  0  0  0  0  0  0  0  0  0  0  0
   -3.3400   24.9320  -29.6370 N   0  0  0  0  0  0  0  0  0  0  0  0
   -4.1480   23.9440  -30.1190 C   0  0  0  0  0  0  0  0  0  0  0  0
   -5.4680   24.1910  -30.4060 N   0  0  0  0  0  0  0  0  0  0  0  0
   -6.0130   25.5470  -30.2130 C   0  0  0  0  0  0  0  0  0  0  0  0
   -6.0979   25.7583  -29.1368 H   0  0  0  0  0  0  0  0  0  0  0  0
   -5.3405   26.2822  -30.6791 H   0  0  0  0  0  0  0  0  0  0  0  0
   -7.0072   25.6123  -30.6791 H   0  0  0  0  0  0  0  0  0  0  0  0
   -6.2590   23.2010  -30.9410 C   0  0  0  0  0  0  0  0  0  0  0  0
   -7.4490   23.4550  -31.2790 O   0  0  0  0  0  0  0  0  0  0  0  0
   -7.9670   20.7590  -31.3910 C   0  0  0  0  0  0  0  0  0  0  0  0
   -8.4156   21.5311  -30.7486 H   0  0  0  0  0  0  0  0  0  0  0  0
  1  2  1  0
  2  3  2  0
  3  4  1  0
  3  5  1  0
  5  6  1  0
  5  7  2  0
  7  8  1  0
  7  9  1  0
  9 10  1  0
 10 11  2  0
 11 12  1  0
 11 13  1  0
 13 14  2  0
 14 15  1  0
 14 16  1  0
 16 17  1  0
 17 18  2  0
 18 19  1  0
 19 20  1  0
 19 21  1  0
 19 22  1  0
 22 23  1  0
 22 24  1  0
 22 25  1  0
 25 26  1  0
 25 27  1  0
 25 28  1  0
 28 29  1  0
 29 30  1  0
 29 31  1  0
 29 32  1  0
 32 33  1  0
 32 34  1  0
 32 35  1  0
 35 36  1  0
 35 37  1  0
 35 38  1  0
 38 39  1  0
 38 40  1  0
 17 41  1  0
 41 42  2  0
 42 43  1  0
 43 44  1  0
 44 45  1  0
 44 46  1  0
 44 47  1  0
 43 48  1  0
 48 49  2  0
  9 50  2  0
 50 51  1  0
 50  2  1  0
 48 10  1  0
 42 13  1  0
 38 28  1  0
M  CHG  1  16  -1
M  END
>  <UniqueID>  (6) 
5

>  <SMILES>  (6) 
Cn1c(=O)c(-c2cccc(Br)c2)cc2c[n-]/c(=N\CCCN3CCCC3)nc21

>  <Energy>  (6) 
74.03341802249788

>  <Genealogy>  (6) 
Cn1c(=O)c(-c2cccc(Br)c2)cc2c[n-]c(=NCCCN3CCCC3)nc21 (protonated)
Cn1c(=O)c(-c2cccc(Br)c2)cc2c[n-]/c(=N\CCCN3CCCC3)nc21 (cis-trans isomerization)
Cn1c(=O)c(-c2cccc(Br)c2)cc2c[n-]/c(=N\CCCN3CCCC3)nc21 (3D coordinates assigned)
Cn1c(=O)c(-c2cccc(Br)c2)cc2c[n-]/c(=N\CCCN3CCCC3)nc21 (nonaromatic ring conformer: 74.03341802249788 kcal/mol)

>  <smiles>  (6) 
Cn1c(=O)c(-c2cccc(Br)c2)cc2c[nH]c(=NCCCN3CCCC3)nc21

>  <score_type>  (6) 
oracle

>  <origin>  (6) 
adg

>  <m_score__min__energy>  (6) 
-10.949999999999999

>  <m_primary>  (6) 
energy

$$$$
6:0
     RDKit          3D

 58 60  0  0  0  0  0  0  0  0999 V2000
    1.7430   27.2140  -24.0860 C   0  0  0  0  0  0  0  0  0  0  0  0
    0.8220   26.4320  -23.2550 N   0  0  0  0  0  0  0  0  0  0  0  0
   -0.5820   26.5790  -23.6770 C   0  0  0  0  0  0  0  0  0  0  0  0
   -0.9730   25.6500  -24.8420 C   0  0  0  0  0  0  0  0  0  0  0  0
    0.1240   24.7010  -25.1670 N   0  0  0  0  0  0  0  0  0  0  0  0
   -0.1850   23.3570  -24.6480 C   0  0  0  0  0  0  0  0  0  0  0  0
    0.3880   24.6240  -26.6210 C   0  0  0  0  0  0  0  0  0  0  0  0
   -0.8200   24.1180  -27.3620 C   0  0  0  0  0  0  0  0  0  0  0  0
   -0.9970   22.7400  -27.5530 C   0  0  0  0  0  0  0  0  0  0  0  0
   -2.0950   22.2620  -28.2740 C   0  0  0  0  0  0  0  0  0  0  0  0
   -3.0390   23.1560  -28.8130 C   0  0  0  0  0  0  0  0  0  0  0  0
   -4.2000   22.6500  -29.5850 C   0  0  0  0  0  0  0  0  0  0  0  0
   -4.0270   21.6660  -30.5750 C   0  0  0  0  0  0  0  0  0  0  0  0
   -5.1210   21.2010  -31.3120 C   0  0  0  0  0  0  0  0  0  0  0  0
   -6.4000   21.7110  -31.0680 C   0  0  0  0  0  0  0  0  0  0  0  0
   -7.7620   21.1760  -32.0330 S   0  0  0  0  0  0  0  0  0  0  0  0
   -8.7720   20.1730  -31.1420 O   0  0  0  0  0  0  0  0  0  0  0  0
   -7.2310   20.3950  -33.5450 C   0  0  0  0  0  0  0  0  0  0  0  0
   -6.5540   19.0900  -33.2330 C   0  0  0  0  0  0  0  0  0  0  0  0
   -6.8030   18.4370  -32.0150 C   0  0  0  0  0  0  0  0  0  0  0  0
   -6.2240   17.1920  -31.7530 C   0  0  0  0  0  0  0  0  0  0  0  0
   -5.4000   16.5860  -32.7070 C   0  0  0  0  0  0  0  0  0  0  0  0
   -4.6190   14.8800  -32.3490 Br  0  0  0  0  0  0  0  0  0  0  0  0
   -5.1560   17.2260  -33.9250 C   0  0  0  0  0  0  0  0  0  0  0  0
   -5.7310   18.4710  -34.1900 C   0  0  0  0  0  0  0  0  0  0  0  0
   -6.5840   22.6880  -30.0840 C   0  0  0  0  0  0  0  0  0  0  0  0
   -5.4930   23.1550  -29.3470 C   0  0  0  0  0  0  0  0  0  0  0  0
   -2.8590   24.5370  -28.6140 C   0  0  0  0  0  0  0  0  0  0  0  0
   -1.7580   25.0130  -27.8960 C   0  0  0  0  0  0  0  0  0  0  0  0
    2.4213   27.7899  -23.4393 H   0  0  0  0  0  0  0  0  0  0  0  0
    2.3306   26.5347  -24.7210 H   0  0  0  0  0  0  0  0  0  0  0  0
    1.1680   27.9040  -24.7210 H   0  0  0  0  0  0  0  0  0  0  0  0
    0.9400   26.7030  -22.2500 H   0  0  0  0  0  0  0  0  0  0  0  0
    1.0850   25.4220  -23.3430 H   0  0  0  0  0  0  0  0  0  0  0  0
   -1.2297   26.3515  -22.8175 H   0  0  0  0  0  0  0  0  0  0  0  0
   -0.7073   27.6129  -24.0310 H   0  0  0  0  0  0  0  0  0  0  0  0
   -1.8693   25.0785  -24.5593 H   0  0  0  0  0  0  0  0  0  0  0  0
   -1.1706   26.2696  -25.7292 H   0  0  0  0  0  0  0  0  0  0  0  0
   -0.1800   23.3786  -23.5482 H   0  0  0  0  0  0  0  0  0  0  0  0
   -1.1781   23.0458  -25.0042 H   0  0  0  0  0  0  0  0  0  0  0  0
    0.5725   22.6433  -25.0042 H   0  0  0  0  0  0  0  0  0  0  0  0
    0.6448   25.6266  -26.9936 H   0  0  0  0  0  0  0  0  0  0  0  0
    1.2208   23.9254  -26.7896 H   0  0  0  0  0  0  0  0  0  0  0  0
   -0.2678   22.0314  -27.1332 H   0  0  0  0  0  0  0  0  0  0  0  0
   -2.2222   21.1793  -28.4212 H   0  0  0  0  0  0  0  0  0  0  0  0
   -3.0240   21.2592  -30.7711 H   0  0  0  0  0  0  0  0  0  0  0  0
   -4.9750   20.4324  -32.0853 H   0  0  0  0  0  0  0  0  0  0  0  0
   -9.4760   20.7760  -30.7960 H   0  0  0  0  0  0  0  0  0  0  0  0
   -8.1050   20.2089  -34.1864 H   0  0  0  0  0  0  0  0  0  0  0  0
   -6.5230   21.0561  -34.0662 H   0  0  0  0  0  0  0  0  0  0  0  0
   -7.4558   18.9068  -31.2646 H   0  0  0  0  0  0  0  0  0  0  0  0
   -6.4168   16.6878  -30.7946 H   0  0  0  0  0  0  0  0  0  0  0  0
   -4.5100   16.7485  -34.6764 H   0  0  0  0  0  0  0  0  0  0  0  0
   -5.5390   18.9693  -35.1517 H   0  0  0  0  0  0  0  0  0  0  0  0
   -7.5897   23.0893  -29.8902 H   0  0  0  0  0  0  0  0  0  0  0  0
   -5.6450   23.9233  -28.5746 H   0  0  0  0  0  0  0  0  0  0  0  0
   -3.5902   25.2477  -29.0265 H   0  0  0  0  0  0  0  0  0  0  0  0
   -1.6269   26.0952  -27.7492 H   0  0  0  0  0  0  0  0  0  0  0  0
  1  2  1  0
  2  3  1  0
  3  4  1  0
  4  5  1  0
  5  6  1  0
  5  7  1  0
  7  8  1  0
  8  9  2  0
  9 10  1  0
 10 11  2  0
 11 12  1  0
 12 13  2  0
 13 14  1  0
 14 15  2  0
 15 16  1  0
 16 17  1  1
 16 18  1  0
 18 19  1  0
 19 20  2  0
 20 21  1  0
 21 22  2  0
 22 23  1  0
 22 24  1  0
 24 25  2  0
 15 26  1  0
 26 27  2  0
 11 28  1  0
 28 29  2  0
 29  8  1  0
 27 12  1  0
 25 19  1  0
  1 30  1  0
  1 31  1  0
  1 32  1  0
  2 33  1  0
  2 34  1  0
  3 35  1  0
  3 36  1  0
  4 37  1  0
  4 38  1  0
  6 39  1  0
  6 40  1  0
  6 41  1  0
  7 42  1  0
  7 43  1  0
  9 44  1  0
 10 45  1  0
 13 46  1  0
 14 47  1  0
 17 48  1  0
 18 49  1  0
 18 50  1  0
 20 51  1  0
 21 52  1  0
 24 53  1  0
 25 54  1  0
 26 55  1  0
 27 56  1  0
 28 57  1  0
 29 58  1  0
M  CHG  2   2   1  16   1
M  END
>  <UniqueID>  (7) 
6

>  <SMILES>  (7) 
C[NH2+]CCN(C)Cc1ccc(-c2ccc([S@+](O)Cc3ccc(Br)cc3)cc2)cc1

>  <Energy>  (7) 
57.94605951613821

>  <Genealogy>  (7) 
C[NH2+]CCN(C)Cc1ccc(-c2ccc([S+](O)Cc3ccc(Br)cc3)cc2)cc1 (protonated)
C[NH2+]CCN(C)Cc1ccc(-c2ccc([S@+](O)Cc3ccc(Br)cc3)cc2)cc1 (chirality)
C[NH2+]CCN(C)Cc1ccc(-c2ccc([S@+](O)Cc3ccc(Br)cc3)cc2)cc1 (3D coordinates assigned)
C[NH2+]CCN(C)Cc1ccc(-c2ccc([S@+](O)Cc3ccc(Br)cc3)cc2)cc1 (optimized conformer: 57.94605951613821 kcal/mol)

>  <smiles>  (7) 
CNCCN(C)Cc1ccc(-c2ccc([S+]([O-])Cc3ccc(Br)cc3)cc2)cc1

>  <score_type>  (7) 
oracle

>  <origin>  (7) 
adg

>  <m_score__min__energy>  (7) 
-10.35

>  <m_primary>  (7) 
energy

$$$$
7:0
     RDKit          3D

 60 62  0  0  0  0  0  0  0  0999 V2000
   -3.0250   19.2760  -26.9890 C   0  0  0  0  0  0  0  0  0  0  0  0
   -2.0630   20.4570  -26.8610 C   0  0  0  0  0  0  0  0  0  0  0  0
   -2.3040   21.4440  -27.9220 N   0  0  0  0  0  0  0  0  0  0  0  0
   -1.1170   22.2920  -28.1290 C   0  0  0  0  0  0  0  0  0  0  0  0
   -1.1640   23.0440  -29.4790 C   0  0  0  0  0  0  0  0  0  0  0  0
   -0.8700   22.1530  -30.6940 C   0  0  0  0  0  0  0  0  0  0  0  0
   -1.5230   20.8460  -30.5370 N   0  0  0  0  0  0  0  0  0  0  0  0
   -1.2460   19.9450  -31.6710 C   0  0  0  0  0  0  0  0  0  0  0  0
   -1.2740   20.7250  -32.9880 C   0  0  0  0  0  0  0  0  0  0  0  0
   -2.7000   21.0630  -33.4510 C   0  0  0  0  0  0  0  0  0  0  0  0
   -3.5890   21.3690  -32.3220 N   0  0  0  0  0  0  0  0  0  0  0  0
   -4.8690   20.7220  -32.2150 C   0  0  0  0  0  0  0  0  0  0  0  0
   -5.0430   19.4590  -32.8080 C   0  0  0  0  0  0  0  0  0  0  0  0
   -3.9260   18.6870  -33.1940 C   0  0  0  0  0  0  0  0  0  0  0  0
   -4.0880   17.5070  -33.9150 C   0  0  0  0  0  0  0  0  0  0  0  0
   -2.5540   16.5140  -34.4710 Br  0  0  0  0  0  0  0  0  0  0  0  0
   -5.3610   17.0700  -34.2550 C   0  0  0  0  0  0  0  0  0  0  0  0
   -6.4830   17.7900  -33.8400 C   0  0  0  0  0  0  0  0  0  0  0  0
   -6.3500   18.9770  -33.0710 C   0  0  0  0  0  0  0  0  0  0  0  0
   -7.4520   19.6820  -32.6290 N   0  0  0  0  0  0  0  0  0  0  0  0
   -8.7970   19.0590  -32.6930 C   0  0  0  0  0  0  0  0  0  0  0  0
   -7.2980   20.9460  -32.0870 C   0  0  0  0  0  0  0  0  0  0  0  0
   -8.4140   21.7890  -31.8620 C   0  0  0  0  0  0  0  0  0  0  0  0
   -8.2740   23.0170  -31.2280 C   0  0  0  0  0  0  0  0  0  0  0  0
   -7.0310   23.4280  -30.7740 C   0  0  0  0  0  0  0  0  0  0  0  0
   -5.8900   22.6600  -31.0250 C   0  0  0  0  0  0  0  0  0  0  0  0
   -4.6790   23.0440  -30.3610 N   0  0  0  0  0  0  0  0  0  0  0  0
   -4.1330   22.2430  -29.5780 O   0  0  0  0  0  0  0  0  0  0  0  0
   -3.8860   23.9920  -30.9640 O   0  0  0  0  0  0  0  0  0  0  0  0
   -5.9990   21.4480  -31.7780 C   0  0  0  0  0  0  0  0  0  0  0  0
   -3.3106   18.9254  -25.9863 H   0  0  0  0  0  0  0  0  0  0  0  0
   -3.9247   19.5936  -27.5364 H   0  0  0  0  0  0  0  0  0  0  0  0
   -2.5320   18.4591  -27.5364 H   0  0  0  0  0  0  0  0  0  0  0  0
   -2.2095   20.9369  -25.8821 H   0  0  0  0  0  0  0  0  0  0  0  0
   -1.0325   20.0838  -26.9543 H   0  0  0  0  0  0  0  0  0  0  0  0
   -2.5390   20.9440  -28.8110 H   0  0  0  0  0  0  0  0  0  0  0  0
   -3.1120   22.0430  -27.6330 H   0  0  0  0  0  0  0  0  0  0  0  0
   -1.0622   23.0294  -27.3146 H   0  0  0  0  0  0  0  0  0  0  0  0
   -0.2325   21.6381  -28.1376 H   0  0  0  0  0  0  0  0  0  0  0  0
   -2.1682   23.4763  -29.6006 H   0  0  0  0  0  0  0  0  0  0  0  0
   -0.3768   23.8117  -29.4462 H   0  0  0  0  0  0  0  0  0  0  0  0
   -1.2502   22.6419  -31.6031 H   0  0  0  0  0  0  0  0  0  0  0  0
    0.2168   22.0031  -30.7736 H   0  0  0  0  0  0  0  0  0  0  0  0
   -2.5590   20.9940  -30.4810 H   0  0  0  0  0  0  0  0  0  0  0  0
   -0.2529   19.4906  -31.5393 H   0  0  0  0  0  0  0  0  0  0  0  0
   -2.0175   19.1616  -31.7025 H   0  0  0  0  0  0  0  0  0  0  0  0
   -0.7170   21.6638  -32.8522 H   0  0  0  0  0  0  0  0  0  0  0  0
   -0.8181   20.0874  -33.7598 H   0  0  0  0  0  0  0  0  0  0  0  0
   -2.6589   21.9373  -34.1173 H   0  0  0  0  0  0  0  0  0  0  0  0
   -3.1047   20.1830  -33.9723 H   0  0  0  0  0  0  0  0  0  0  0  0
   -3.1880   21.8390  -31.4820 H   0  0  0  0  0  0  0  0  0  0  0  0
   -2.9143   19.0221  -32.9216 H   0  0  0  0  0  0  0  0  0  0  0  0
   -5.4860   16.1549  -34.8524 H   0  0  0  0  0  0  0  0  0  0  0  0
   -7.4867   17.4321  -34.1131 H   0  0  0  0  0  0  0  0  0  0  0  0
   -9.1700   18.8862  -31.6727 H   0  0  0  0  0  0  0  0  0  0  0  0
   -9.4866   19.7294  -33.2269 H   0  0  0  0  0  0  0  0  0  0  0  0
   -8.7316   18.0995  -33.2269 H   0  0  0  0  0  0  0  0  0  0  0  0
   -9.4108   21.4649  -32.1958 H   0  0  0  0  0  0  0  0  0  0  0  0
   -9.1518   23.6646  -31.0860 H   0  0  0  0  0  0  0  0  0  0  0  0
   -6.9410   24.3683  -30.2103 H   0  0  0  0  0  0  0  0  0  0  0  0
  1  2  1  0
  2  3  1  0
  3  4  1  0
  4  5  1  0
  5  6  1  0
  6  7  1  0
  7  8  1  0
  8  9  1  0
  9 10  1  0
 10 11  1  0
 11 12  1  0
 12 13  2  0
 13 14  1  0
 14 15  2  0
 15 16  1  0
 15 17  1  0
 17 18  2  0
 18 19  1  0
 19 20  2  0
 20 21  1  0
 20 22  1  0
 22 23  2  0
 23 24  1  0
 24 25  2  0
 25 26  1  0
 26 27  1  0
 27 28  2  0
 27 29  1  0
 26 30  2  0
 30 12  1  0
 19 13  1  0
 30 22  1  0
  1 31  1  0
  1 32  1  0
  1 33  1  0
  2 34  1  0
  2 35  1  0
  3 36  1  0
  3 37  1  0
  4 38  1  0
  4 39  1  0
  5 40  1  0
  5 41  1  0
  6 42  1  0
  6 43  1  0
  7 44  1  0
  8 45  1  0
  8 46  1  0
  9 47  1  0
  9 48  1  0
 10 49  1  0
 10 50  1  0
 11 51  1  0
 14 52  1  0
 17 53  1  0
 18 54  1  0
 21 55  1  0
 21 56  1  0
 21 57  1  0
 23 58  1  0
 24 59  1  0
 25 60  1  0
M  CHG  4   3   1  20   1  27   1  29  -1
M  END
>  <UniqueID>  (8) 
7

>  <SMILES>  (8) 
CC[NH2+]CCCNCCCNc1c2cc(Br)ccc2[n+](C)c2cccc([N+](=O)[O-])c12

>  <Energy>  (8) 
95.25644847653948

>  <Genealogy>  (8) 
CC[NH2+]CCCNCCCNc1c2cc(Br)ccc2[n+](C)c2cccc([N+](=O)[O-])c12 (protonated)
CC[NH2+]CCCNCCCNc1c2cc(Br)ccc2[n+](C)c2cccc([N+](=O)[O-])c12 (3D coordinates assigned)
CC[NH2+]CCCNCCCNc1c2cc(Br)ccc2[n+](C)c2cccc([N+](=O)[O-])c12 (optimized conformer: 95.25644847653948 kcal/mol)

>  <smiles>  (8) 
CCNCCCNCCCNc1c2cc(Br)ccc2[n+](C)c2cccc([N+](=O)[O-])c12

>  <score_type>  (8) 
oracle

>  <origin>  (8) 
adg

>  <m_score__min__energy>  (8) 
-8.5500000000000007

>  <m_primary>  (8) 
energy

$$$$
8:0
     RDKit          3D

 32 33  0  0  0  0  0  0  0  0999 V2000
   -6.4820   17.4400  -31.2410 C   0  0  0  0  0  0  0  0  0  0  0  0
   -5.9590   16.8170  -32.5300 C   0  0  0  0  0  0  0  0  0  0  0  0
   -6.4890   17.7700  -33.9950 S   0  0  0  0  0  0  0  0  0  0  0  0
   -6.2880   19.3780  -33.2180 C   0  0  0  0  0  0  0  0  0  0  0  0
   -5.0800   19.9760  -33.0760 N   0  0  0  0  0  0  0  0  0  0  0  0
   -5.3630   21.1370  -32.4560 C   0  0  0  0  0  0  0  0  0  0  0  0
   -6.6970   21.2320  -32.2390 C   0  0  0  0  0  0  0  0  0  0  0  0
   -7.2220   22.3430  -31.5910 C   0  0  0  0  0  0  0  0  0  0  0  0
   -8.4600   22.4280  -31.3670 O   0  0  0  0  0  0  0  0  0  0  0  0
   -6.3560   23.3380  -31.1970 N   0  0  0  0  0  0  0  0  0  0  0  0
   -6.8720   24.5140  -30.4780 C   0  0  0  0  0  0  0  0  0  0  0  0
   -4.9930   23.2020  -31.4050 C   0  0  0  0  0  0  0  0  0  0  0  0
   -4.2040   24.0940  -30.9830 O   0  0  0  0  0  0  0  0  0  0  0  0
   -4.4850   22.0990  -32.0620 N   0  0  0  0  0  0  0  0  0  0  0  0
   -3.0460   21.9230  -32.3000 C   0  0  0  0  0  0  0  0  0  0  0  0
   -7.3070   20.1280  -32.7170 N   0  0  0  0  0  0  0  0  0  0  0  0
   -8.7370   19.8220  -32.7100 C   0  0  0  0  0  0  0  0  0  0  0  0
   -6.0439   16.9181  -30.3774 H   0  0  0  0  0  0  0  0  0  0  0  0
   -6.2019   18.5032  -31.2076 H   0  0  0  0  0  0  0  0  0  0  0  0
   -7.5777   17.3483  -31.2076 H   0  0  0  0  0  0  0  0  0  0  0  0
   -4.8597   16.7948  -32.4962 H   0  0  0  0  0  0  0  0  0  0  0  0
   -6.3681   15.7993  -32.6130 H   0  0  0  0  0  0  0  0  0  0  0  0
   -4.1510   19.6030  -33.3700 H   0  0  0  0  0  0  0  0  0  0  0  0
   -6.7970   24.3430  -29.3940 H   0  0  0  0  0  0  0  0  0  0  0  0
   -6.2799   25.3998  -30.7513 H   0  0  0  0  0  0  0  0  0  0  0  0
   -7.9248   24.6781  -30.7513 H   0  0  0  0  0  0  0  0  0  0  0  0
   -2.5201   21.8587  -31.3360 H   0  0  0  0  0  0  0  0  0  0  0  0
   -2.8793   20.9978  -32.8711 H   0  0  0  0  0  0  0  0  0  0  0  0
   -2.6612   22.7808  -32.8711 H   0  0  0  0  0  0  0  0  0  0  0  0
   -9.0907   19.7463  -31.6712 H   0  0  0  0  0  0  0  0  0  0  0  0
   -9.2859   20.6230  -33.2268 H   0  0  0  0  0  0  0  0  0  0  0  0
   -8.9100   18.8665  -33.2268 H   0  0  0  0  0  0  0  0  0  0  0  0
  1  2  1  0
  2  3  1  0
  3  4  1  0
  4  5  2  0
  5  6  1  0
  6  7  2  0
  7  8  1  0
  8  9  2  0
  8 10  1  0
 10 11  1  0
 10 12  1  0
 12 13  2  0
 12 14  1  0
 14 15  1  0
  7 16  1  0
 16 17  1  0
 16  4  1  0
 14  6  1  0
  1 18  1  0
  1 19  1  0
  1 20  1  0
  2 21  1  0
  2 22  1  0
  5 23  1  0
 11 24  1  0
 11 25  1  0
 11 26  1  0
 15 27  1  0
 15 28  1  0
 15 29  1  0
 17 30  1  0
 17 31  1  0
 17 32  1  0
M  CHG  1   5   1
M  END
>  <UniqueID>  (9) 
8

>  <SMILES>  (9) 
CCSc1[nH+]c2c(c(=O)n(C)c(=O)n2C)n1C

>  <Energy>  (9) 
72.79823602860503

>  <Genealogy>  (9) 
CCSc1[nH+]c2c(c(=O)n(C)c(=O)n2C)n1C (protonated)
CCSc1[nH+]c2c(c(=O)n(C)c(=O)n2C)n1C (3D coordinates assigned)
CCSc1[nH+]c2c(c(=O)n(C)c(=O)n2C)n1C (optimized conformer: 72.79823602860503 kcal/mol)

>  <smiles>  (9) 
CCSc1nc2c(c(=O)n(C)c(=O)n2C)n1C

>  <score_type>  (9) 
oracle

>  <origin>  (9) 
adg

>  <m_score__min__energy>  (9) 
-5.6399999999999997

>  <m_primary>  (9) 
energy

$$$$
9:0
     RDKit          3D

 51 52  0  0  0  0  0  0  0  0999 V2000
   -8.0950   23.4220  -31.7440 C   0  0  0  0  0  0  0  0  0  0  0  0
   -6.6570   23.9370  -31.7810 C   0  0  0  0  0  0  0  0  0  0  0  0
   -6.1440   24.3990  -30.4060 C   0  0  0  0  0  0  0  0  0  0  0  0
   -5.2650   25.6520  -30.4720 C   0  0  0  0  0  0  0  0  0  0  0  0
   -3.8680   25.2860  -30.6830 N   0  0  0  0  0  0  0  0  0  0  0  0
   -3.0640   24.5650  -29.7400 C   0  0  0  0  0  0  0  0  0  0  0  0
   -2.1420   25.1800  -29.1430 O   0  0  0  0  0  0  0  0  0  0  0  0
   -3.2400   23.0790  -29.5320 C   0  0  0  0  0  0  0  0  0  0  0  0
   -2.2100   22.2030  -30.2860 C   0  0  0  0  0  0  0  0  0  0  0  0
   -2.5760   21.9090  -31.6880 N   0  0  0  0  0  0  0  0  0  0  0  0
   -2.3270   20.5230  -32.1440 C   0  0  0  0  0  0  0  0  0  0  0  0
   -3.5770   19.6320  -32.0790 C   0  0  0  0  0  0  0  0  0  0  0  0
   -4.7790   20.3500  -32.5070 N   0  0  0  0  0  0  0  0  0  0  0  0
   -6.0630   19.7280  -32.3560 C   0  0  0  0  0  0  0  0  0  0  0  0
   -7.1020   20.4210  -31.7160 C   0  0  0  0  0  0  0  0  0  0  0  0
   -8.3630   19.8380  -31.5860 C   0  0  0  0  0  0  0  0  0  0  0  0
   -8.6000   18.5620  -32.0990 C   0  0  0  0  0  0  0  0  0  0  0  0
   -7.5770   17.8670  -32.7490 C   0  0  0  0  0  0  0  0  0  0  0  0
   -6.2990   18.4450  -32.8870 C   0  0  0  0  0  0  0  0  0  0  0  0
   -5.2550   17.7900  -33.5560 O   0  0  0  0  0  0  0  0  0  0  0  0
   -5.1050   17.7430  -34.9700 C   0  0  0  0  0  0  0  0  0  0  0  0
   -4.6600   21.6900  -33.0820 C   0  0  0  0  0  0  0  0  0  0  0  0
   -3.8200   22.5700  -32.1540 C   0  0  0  0  0  0  0  0  0  0  0  0
   -8.4164   23.3069  -30.6983 H   0  0  0  0  0  0  0  0  0  0  0  0
   -8.7547   24.1397  -32.2535 H   0  0  0  0  0  0  0  0  0  0  0  0
   -8.1491   22.4486  -32.2535 H   0  0  0  0  0  0  0  0  0  0  0  0
   -6.0052   23.1286  -32.1439 H   0  0  0  0  0  0  0  0  0  0  0  0
   -6.6398   24.8119  -32.4476 H   0  0  0  0  0  0  0  0  0  0  0  0
   -7.0116   24.6155  -29.7653 H   0  0  0  0  0  0  0  0  0  0  0  0
   -5.5207   23.5870  -30.0033 H   0  0  0  0  0  0  0  0  0  0  0  0
   -5.6024   26.2874  -31.3041 H   0  0  0  0  0  0  0  0  0  0  0  0
   -5.3501   26.1967  -29.5202 H   0  0  0  0  0  0  0  0  0  0  0  0
   -3.1489   22.8687  -28.4561 H   0  0  0  0  0  0  0  0  0  0  0  0
   -4.2296   22.8197  -29.9364 H   0  0  0  0  0  0  0  0  0  0  0  0
   -1.2436   22.7283  -30.2846 H   0  0  0  0  0  0  0  0  0  0  0  0
   -2.1708   21.2376  -29.7602 H   0  0  0  0  0  0  0  0  0  0  0  0
   -1.9742   20.5554  -33.1854 H   0  0  0  0  0  0  0  0  0  0  0  0
   -1.5776   20.0855  -31.4680 H   0  0  0  0  0  0  0  0  0  0  0  0
   -3.4289   18.7622  -32.7359 H   0  0  0  0  0  0  0  0  0  0  0  0
   -3.7196   19.3185  -31.0343 H   0  0  0  0  0  0  0  0  0  0  0  0
   -6.9213   21.4291  -31.3147 H   0  0  0  0  0  0  0  0  0  0  0  0
   -9.1713   20.3849  -31.0785 H   0  0  0  0  0  0  0  0  0  0  0  0
   -9.5937   18.1027  -31.9914 H   0  0  0  0  0  0  0  0  0  0  0  0
   -7.7701   16.8632  -33.1553 H   0  0  0  0  0  0  0  0  0  0  0  0
   -4.0828   17.4227  -35.2198 H   0  0  0  0  0  0  0  0  0  0  0  0
   -5.8267   17.0279  -35.3917 H   0  0  0  0  0  0  0  0  0  0  0  0
   -5.2896   18.7420  -35.3917 H   0  0  0  0  0  0  0  0  0  0  0  0
   -4.1727   21.6249  -34.0660 H   0  0  0  0  0  0  0  0  0  0  0  0
   -5.6616   22.1299  -33.1974 H   0  0  0  0  0  0  0  0  0  0  0  0
   -3.5464   23.4875  -32.6956 H   0  0  0  0  0  0  0  0  0  0  0  0
   -4.4305   22.7816  -31.2637 H   0  0  0  0  0  0  0  0  0  0  0  0
  1  2  1  0
  2  3  1  0
  3  4  1  0
  4  5  1  0
  5  6  1  0
  6  7  2  0
  6  8  1  0
  8  9  1  0
  9 10  1  0
 10 11  1  0
 11 12  1  0
 12 13  1  0
 13 14  1  0
 14 15  2  0
 15 16  1  0
 16 17  2  0
 17 18  1  0
 18 19  2  0
 19 20  1  0
 20 21  1  0
 13 22  1  0
 22 23  1  0
 23 10  1  0
 19 14  1  0
  1 24  1  0
  1 25  1  0
  1 26  1  0
  2 27  1  0
  2 28  1  0
  3 29  1  0
  3 30  1  0
  4 31  1  0
  4 32  1  0
  8 33  1  0
  8 34  1  0
  9 35  1  0
  9 36  1  0
 11 37  1  0
 11 38  1  0
 12 39  1  0
 12 40  1  0
 15 41  1  0
 16 42  1  0
 17 43  1  0
 18 44  1  0
 21 45  1  0
 21 46  1  0
 21 47  1  0
 22 48  1  0
 22 49  1  0
 23 50  1  0
 23 51  1  0
M  CHG  1   5  -1
M  END
>  <UniqueID>  (10) 
9

>  <SMILES>  (10) 
CCCC[N-]C(=O)CCN1CCN(c2ccccc2OC)CC1

>  <Energy>  (10) 
55.985885200454554

>  <Genealogy>  (10) 
CCCC[N-]C(=O)CCN1CCN(c2ccccc2OC)CC1 (protonated)
CCCC[N-]C(=O)CCN1CCN(c2ccccc2OC)CC1 (3D coordinates assigned)
CCCC[N-]C(=O)CCN1CCN(c2ccccc2OC)CC1 (nonaromatic ring conformer: 55.985885200454554 kcal/mol)

>  <smiles>  (10) 
CCCCNC(=O)CCN1CCN(c2ccccc2OC)CC1

>  <score_type>  (10) 
oracle

>  <origin>  (10) 
adg

>  <m_score__min__energy>  (10) 
-9.3399999999999999

>  <m_primary>  (10) 
energy

$$$$
10:0
     RDKit          3D

 66 68  0  0  0  0  0  0  0  0999 V2000
   -6.4080   18.0450  -31.6020 C   0  0  0  0  0  0  0  0  0  0  0  0
   -7.5700   18.1820  -32.5960 C   0  0  0  0  0  0  0  0  0  0  0  0
   -8.0450   19.5790  -32.7950 N   0  0  0  0  0  0  0  0  0  0  0  0
   -8.7480   20.1300  -31.6060 C   0  0  0  0  0  0  0  0  0  0  0  0
   -9.8150   21.1730  -31.9640 C   0  0  0  0  0  0  0  0  0  0  0  0
   -6.9240   20.4710  -33.2190 C   0  0  0  0  0  0  0  0  0  0  0  0
   -6.7350   21.6980  -32.2990 C   0  0  0  0  0  0  0  0  0  0  0  0
   -5.5970   22.5250  -32.7020 N   0  0  0  0  0  0  0  0  0  0  0  0
   -4.3420   22.4080  -32.0140 C   0  0  0  0  0  0  0  0  0  0  0  0
   -3.9450   23.4270  -31.1330 C   0  0  0  0  0  0  0  0  0  0  0  0
   -4.7800   24.5220  -30.9050 O   0  0  0  0  0  0  0  0  0  0  0  0
   -5.9090   24.4220  -30.0470 C   0  0  0  0  0  0  0  0  0  0  0  0
   -2.7260   23.3500  -30.4580 C   0  0  0  0  0  0  0  0  0  0  0  0
   -2.3870   24.3930  -29.5800 O   0  0  0  0  0  0  0  0  0  0  0  0
   -2.7230   24.4320  -28.1950 C   0  0  0  0  0  0  0  0  0  0  0  0
   -1.8870   22.2440  -30.6650 C   0  0  0  0  0  0  0  0  0  0  0  0
   -2.2390   21.2110  -31.5670 C   0  0  0  0  0  0  0  0  0  0  0  0
   -3.5030   21.2830  -32.2100 C   0  0  0  0  0  0  0  0  0  0  0  0
   -3.8920   20.2340  -33.0510 C   0  0  0  0  0  0  0  0  0  0  0  0
   -3.1030   19.0930  -33.1680 C   0  0  0  0  0  0  0  0  0  0  0  0
   -3.5590   18.0030  -33.9310 C   0  0  0  0  0  0  0  0  0  0  0  0
   -2.8080   16.8180  -34.0230 C   0  0  0  0  0  0  0  0  0  0  0  0
   -3.2860   15.6900  -34.7980 N   0  0  0  0  0  0  0  0  0  0  0  0
   -4.4720   14.9390  -34.3670 C   0  0  0  0  0  0  0  0  0  0  0  0
   -2.5910   15.2800  -36.0220 C   0  0  0  0  0  0  0  0  0  0  0  0
   -1.5910   16.7450  -33.3250 C   0  0  0  0  0  0  0  0  0  0  0  0
   -1.1250   17.8300  -32.5780 C   0  0  0  0  0  0  0  0  0  0  0  0
   -1.8530   19.0400  -32.5110 C   0  0  0  0  0  0  0  0  0  0  0  0
   -1.3890   20.1460  -31.8200 N   0  0  0  0  0  0  0  0  0  0  0  0
    0.0260   20.2050  -31.3920 C   0  0  0  0  0  0  0  0  0  0  0  0
   -6.7973   18.0909  -30.5742 H   0  0  0  0  0  0  0  0  0  0  0  0
   -5.9022   17.0810  -31.7598 H   0  0  0  0  0  0  0  0  0  0  0  0
   -5.6919   18.8649  -31.7598 H   0  0  0  0  0  0  0  0  0  0  0  0
   -7.2394   17.7888  -33.5687 H   0  0  0  0  0  0  0  0  0  0  0  0
   -8.4149   17.6195  -32.1721 H   0  0  0  0  0  0  0  0  0  0  0  0
   -8.7440   19.5310  -33.5740 H   0  0  0  0  0  0  0  0  0  0  0  0
   -9.2351   19.3005  -31.0724 H   0  0  0  0  0  0  0  0  0  0  0  0
   -7.9933   20.6345  -30.9848 H   0  0  0  0  0  0  0  0  0  0  0  0
  -10.2430   21.5914  -31.0411 H   0  0  0  0  0  0  0  0  0  0  0  0
   -9.3556   21.9799  -32.5538 H   0  0  0  0  0  0  0  0  0  0  0  0
  -10.6113   20.6954  -32.5538 H   0  0  0  0  0  0  0  0  0  0  0  0
   -5.9925   19.8860  -33.2159 H   0  0  0  0  0  0  0  0  0  0  0  0
   -7.1725   20.8513  -34.2208 H   0  0  0  0  0  0  0  0  0  0  0  0
   -7.6478   22.3108  -32.3349 H   0  0  0  0  0  0  0  0  0  0  0  0
   -6.5386   21.3284  -31.2817 H   0  0  0  0  0  0  0  0  0  0  0  0
   -5.7540   23.3630  -33.3050 H   0  0  0  0  0  0  0  0  0  0  0  0
   -5.5767   24.4514  -28.9988 H   0  0  0  0  0  0  0  0  0  0  0  0
   -6.5912   25.2632  -30.2391 H   0  0  0  0  0  0  0  0  0  0  0  0
   -6.4327   23.4740  -30.2391 H   0  0  0  0  0  0  0  0  0  0  0  0
   -1.8087   24.3259  -27.5928 H   0  0  0  0  0  0  0  0  0  0  0  0
   -3.2062   25.3923  -27.9618 H   0  0  0  0  0  0  0  0  0  0  0  0
   -3.4133   23.6080  -27.9618 H   0  0  0  0  0  0  0  0  0  0  0  0
   -0.9365   22.1784  -30.1152 H   0  0  0  0  0  0  0  0  0  0  0  0
   -4.8280   20.3117  -33.6237 H   0  0  0  0  0  0  0  0  0  0  0  0
   -4.5182   18.0788  -34.4641 H   0  0  0  0  0  0  0  0  0  0  0  0
   -4.5110   14.9143  -33.2680 H   0  0  0  0  0  0  0  0  0  0  0  0
   -5.3772   15.4289  -34.7551 H   0  0  0  0  0  0  0  0  0  0  0  0
   -4.4162   13.9112  -34.7551 H   0  0  0  0  0  0  0  0  0  0  0  0
   -1.6714   14.7375  -35.7573 H   0  0  0  0  0  0  0  0  0  0  0  0
   -3.2464   14.6239  -36.6135 H   0  0  0  0  0  0  0  0  0  0  0  0
   -2.3337   16.1710  -36.6135 H   0  0  0  0  0  0  0  0  0  0  0  0
   -0.9965   15.8205  -33.3671 H   0  0  0  0  0  0  0  0  0  0  0  0
   -0.1742   17.7410  -32.0320 H   0  0  0  0  0  0  0  0  0  0  0  0
    0.0769   20.2071  -30.2932 H   0  0  0  0  0  0  0  0  0  0  0  0
    0.5640   19.3285  -31.7823 H   0  0  0  0  0  0  0  0  0  0  0  0
    0.4891   21.1232  -31.7823 H   0  0  0  0  0  0  0  0  0  0  0  0
  1  2  1  0
  2  3  1  0
  3  4  1  0
  4  5  1  0
  3  6  1  0
  6  7  1  0
  7  8  1  0
  8  9  1  0
  9 10  2  0
 10 11  1  0
 11 12  1  0
 10 13  1  0
 13 14  1  0
 14 15  1  0
 13 16  2  0
 16 17  1  0
 17 18  2  0
 18 19  1  0
 19 20  2  0
 20 21  1  0
 21 22  2  0
 22 23  1  0
 23 24  1  0
 23 25  1  0
 22 26  1  0
 26 27  2  0
 27 28  1  0
 28 29  2  0
 29 30  1  0
 18  9  1  0
 28 20  1  0
 29 17  1  0
  1 31  1  0
  1 32  1  0
  1 33  1  0
  2 34  1  0
  2 35  1  0
  3 36  1  0
  4 37  1  0
  4 38  1  0
  5 39  1  0
  5 40  1  0
  5 41  1  0
  6 42  1  0
  6 43  1  0
  7 44  1  0
  7 45  1  0
  8 46  1  0
 12 47  1  0
 12 48  1  0
 12 49  1  0
 15 50  1  0
 15 51  1  0
 15 52  1  0
 16 53  1  0
 19 54  1  0
 21 55  1  0
 24 56  1  0
 24 57  1  0
 24 58  1  0
 25 59  1  0
 25 60  1  0
 25 61  1  0
 26 62  1  0
 27 63  1  0
 30 64  1  0
 30 65  1  0
 30 66  1  0
M  CHG  2   3   1  29   1
M  END
>  <UniqueID>  (11) 
10

>  <SMILES>  (11) 
CC[NH+](CC)CCNc1c(OC)c(OC)cc2c1cc1cc(N(C)C)ccc1[n+]2C

>  <Energy>  (11) 
101.5218788998367

>  <Genealogy>  (11) 
CC[NH+](CC)CCNc1c(OC)c(OC)cc2c1cc1cc(N(C)C)ccc1[n+]2C (protonated)
CC[NH+](CC)CCNc1c(OC)c(OC)cc2c1cc1cc(N(C)C)ccc1[n+]2C (3D coordinates assigned)
CC[NH+](CC)CCNc1c(OC)c(OC)cc2c1cc1cc(N(C)C)ccc1[n+]2C (optimized conformer: 101.5218788998367 kcal/mol)

>  <smiles>  (11) 
CCN(CC)CCNc1c(OC)c(OC)cc2c1cc1cc(N(C)C)ccc1[n+]2C

>  <score_type>  (11) 
oracle

>  <origin>  (11) 
adg

>  <m_score__min__energy>  (11) 
-6.8700000000000001

>  <m_primary>  (11) 
energy

$$$$
11:0
     RDKit          3D

 55 55  0  0  0  0  0  0  0  0999 V2000
   -5.5490   17.4520  -34.6640 C   0  0  0  0  0  0  0  0  0  0  0  0
   -6.6180   17.4450  -33.5750 C   0  0  0  0  0  0  0  0  0  0  0  0
   -6.7630   18.7960  -32.9880 N   0  0  0  0  0  0  0  0  0  0  0  0
   -8.1850   19.1140  -32.7270 C   0  0  0  0  0  0  0  0  0  0  0  0
   -8.7360   18.2130  -31.6230 C   0  0  0  0  0  0  0  0  0  0  0  0
   -5.9480   18.9340  -31.7580 C   0  0  0  0  0  0  0  0  0  0  0  0
   -4.8590   19.9950  -31.9660 C   0  0  0  0  0  0  0  0  0  0  0  0
   -5.4140   21.2200  -32.7070 C   0  0  0  0  0  0  0  0  0  0  0  0
   -4.7760   22.5440  -32.2080 C   0  0  2  0  0  0  0  0  0  0  0  0
   -3.3280   22.3350  -31.7390 C   0  0  0  0  0  0  0  0  0  0  0  0
   -5.5830   23.2430  -31.1730 N   0  0  0  0  0  0  0  0  0  0  0  0
   -6.5470   22.3640  -30.4760 C   0  0  0  0  0  0  0  0  0  0  0  0
   -7.9890   22.7470  -30.8570 C   0  0  0  0  0  0  0  0  0  0  0  0
   -8.9080   21.5220  -30.7760 C   0  0  0  0  0  0  0  0  0  0  0  0
   -8.0440   23.3610  -32.2620 C   0  0  0  0  0  0  0  0  0  0  0  0
   -4.7040   24.2880  -30.0630 S   0  0  0  0  0  0  0  0  0  0  0  0
   -3.9350   25.3110  -30.8480 O   0  0  0  0  0  0  0  0  0  0  0  0
   -5.6790   25.0260  -29.1880 O   0  0  0  0  0  0  0  0  0  0  0  0
   -3.5920   23.4260  -29.0100 C   0  0  0  0  0  0  0  0  0  0  0  0
   -3.8980   22.3180  -28.2350 C   0  0  0  0  0  0  0  0  0  0  0  0
   -2.8160   21.8720  -27.4670 C   0  0  0  0  0  0  0  0  0  0  0  0
   -1.6680   22.6380  -27.6240 C   0  0  0  0  0  0  0  0  0  0  0  0
   -1.9990   23.8740  -28.7160 S   0  0  0  0  0  0  0  0  0  0  0  0
   -4.5521   17.4585  -34.1991 H   0  0  0  0  0  0  0  0  0  0  0  0
   -5.6563   16.5531  -35.2889 H   0  0  0  0  0  0  0  0  0  0  0  0
   -5.6681   18.3494  -35.2889 H   0  0  0  0  0  0  0  0  0  0  0  0
   -7.5786   17.1342  -34.0116 H   0  0  0  0  0  0  0  0  0  0  0  0
   -6.3181   16.7418  -32.7841 H   0  0  0  0  0  0  0  0  0  0  0  0
   -8.2702   20.1650  -32.4139 H   0  0  0  0  0  0  0  0  0  0  0  0
   -8.7637   18.9468  -33.6474 H   0  0  0  0  0  0  0  0  0  0  0  0
   -8.4773   18.6361  -30.6411 H   0  0  0  0  0  0  0  0  0  0  0  0
   -9.8299   18.1457  -31.7165 H   0  0  0  0  0  0  0  0  0  0  0  0
   -8.2975   17.2085  -31.7165 H   0  0  0  0  0  0  0  0  0  0  0  0
   -6.5970   19.2370  -30.9231 H   0  0  0  0  0  0  0  0  0  0  0  0
   -5.4726   17.9687  -31.5298 H   0  0  0  0  0  0  0  0  0  0  0  0
   -4.4747   20.3122  -30.9853 H   0  0  0  0  0  0  0  0  0  0  0  0
   -4.0542   19.5548  -32.5731 H   0  0  0  0  0  0  0  0  0  0  0  0
   -5.2056   21.1089  -33.7814 H   0  0  0  0  0  0  0  0  0  0  0  0
   -6.4955   21.2714  -32.5129 H   0  0  0  0  0  0  0  0  0  0  0  0
   -4.7615   23.2114  -33.0823 H   0  0  0  0  0  0  0  0  0  0  0  0
   -3.2958   22.3303  -30.6395 H   0  0  0  0  0  0  0  0  0  0  0  0
   -2.9540   21.3736  -32.1209 H   0  0  0  0  0  0  0  0  0  0  0  0
   -2.6974   23.1514  -32.1209 H   0  0  0  0  0  0  0  0  0  0  0  0
   -6.3604   21.3191  -30.7648 H   0  0  0  0  0  0  0  0  0  0  0  0
   -6.4197   22.4823  -29.3898 H   0  0  0  0  0  0  0  0  0  0  0  0
   -8.3406   23.5024  -30.1388 H   0  0  0  0  0  0  0  0  0  0  0  0
   -9.0949   21.2729  -29.7210 H   0  0  0  0  0  0  0  0  0  0  0  0
   -9.8626   21.7462  -31.2745 H   0  0  0  0  0  0  0  0  0  0  0  0
   -8.4257   20.6682  -31.2745 H   0  0  0  0  0  0  0  0  0  0  0  0
   -8.1419   24.4536  -32.1811 H   0  0  0  0  0  0  0  0  0  0  0  0
   -7.1202   23.1149  -32.8061 H   0  0  0  0  0  0  0  0  0  0  0  0
   -8.9093   22.9546  -32.8061 H   0  0  0  0  0  0  0  0  0  0  0  0
   -4.8882   21.8391  -28.2247 H   0  0  0  0  0  0  0  0  0  0  0  0
   -2.8698   20.9975  -26.8019 H   0  0  0  0  0  0  0  0  0  0  0  0
   -0.7057   22.4656  -27.1198 H   0  0  0  0  0  0  0  0  0  0  0  0
  1  2  1  0
  2  3  1  0
  3  4  1  0
  4  5  1  0
  3  6  1  0
  6  7  1  0
  7  8  1  0
  8  9  1  0
  9 10  1  0
  9 11  1  0
 11 12  1  0
 12 13  1  0
 13 14  1  0
 13 15  1  0
 11 16  1  0
 16 17  2  0
 16 18  2  0
 16 19  1  0
 19 20  2  0
 20 21  1  0
 21 22  2  0
 22 23  1  0
 23 19  1  0
  1 24  1  0
  1 25  1  0
  1 26  1  0
  2 27  1  0
  2 28  1  0
  4 29  1  0
  4 30  1  0
  5 31  1  0
  5 32  1  0
  5 33  1  0
  6 34  1  0
  6 35  1  0
  7 36  1  0
  7 37  1  0
  8 38  1  0
  8 39  1  0
  9 40  1  6
 10 41  1  0
 10 42  1  0
 10 43  1  0
 12 44  1  0
 12 45  1  0
 13 46  1  0
 14 47  1  0
 14 48  1  0
 14 49  1  0
 15 50  1  0
 15 51  1  0
 15 52  1  0
 20 53  1  0
 21 54  1  0
 22 55  1  0
M  END
>  <UniqueID>  (12) 
11

>  <SMILES>  (12) 
CCN(CC)CCC[C@H](C)N(CC(C)C)S(=O)(=O)c1cccs1

>  <Energy>  (12) 
72.12740991459447

>  <Genealogy>  (12) 
CCN(CC)CCC[C@H](C)N(CC(C)C)S(=O)(=O)c1cccs1 (chirality)
CCN(CC)CCC[C@H](C)N(CC(C)C)S(=O)(=O)c1cccs1 (3D coordinates assigned)
CCN(CC)CCC[C@H](C)N(CC(C)C)S(=O)(=O)c1cccs1 (optimized conformer: 72.12740991459447 kcal/mol)

>  <smiles>  (12) 
CCN(CC)CCCC(C)N(CC(C)C)S(=O)(=O)c1cccs1

>  <score_type>  (12) 
oracle

>  <origin>  (12) 
adg

>  <m_score__min__energy>  (12) 
-7.7300000000000004

>  <m_primary>  (12) 
energy

$$$$
12:0
     RDKit          3D

 34 36  0  0  0  0  0  0  0  0999 V2000
   -8.8920   18.9330  -31.2350 C   0  0  0  0  0  0  0  0  0  0  0  0
   -7.7690   19.2860  -32.1020 N   0  0  0  0  0  0  0  0  0  0  0  0
   -7.3050   20.5260  -32.4280 C   0  0  0  0  0  0  0  0  0  0  0  0
   -7.8800   21.8190  -31.9090 C   0  0  0  0  0  0  0  0  0  0  0  0
   -7.2310   22.9920  -32.5160 N   0  0  0  0  0  0  0  0  0  0  0  0
   -6.1720   23.5040  -31.6780 C   0  0  0  0  0  0  0  0  0  0  0  0
   -4.9100   22.8840  -31.6690 C   0  0  0  0  0  0  0  0  0  0  0  0
   -3.8740   23.4020  -30.8850 C   0  0  0  0  0  0  0  0  0  0  0  0
   -4.0870   24.5450  -30.1090 C   0  0  0  0  0  0  0  0  0  0  0  0
   -3.0800   25.0470  -29.3520 F   0  0  0  0  0  0  0  0  0  0  0  0
   -5.3350   25.1720  -30.1160 C   0  0  0  0  0  0  0  0  0  0  0  0
   -6.3750   24.6560  -30.8970 C   0  0  0  0  0  0  0  0  0  0  0  0
   -6.3200   20.5030  -33.3640 N   0  0  0  0  0  0  0  0  0  0  0  0
   -6.1770   19.1910  -33.6240 C   0  0  0  0  0  0  0  0  0  0  0  0
   -5.3130   18.5990  -34.5420 C   0  0  0  0  0  0  0  0  0  0  0  0
   -5.3660   17.2000  -34.6830 C   0  0  0  0  0  0  0  0  0  0  0  0
   -6.2770   16.4380  -33.9170 C   0  0  0  0  0  0  0  0  0  0  0  0
   -7.1400   17.0680  -33.0010 C   0  0  0  0  0  0  0  0  0  0  0  0
   -7.0530   18.4560  -32.8790 C   0  0  0  0  0  0  0  0  0  0  0  0
   -8.5869   19.0289  -30.1825 H   0  0  0  0  0  0  0  0  0  0  0  0
   -9.7363   19.6091  -31.4351 H   0  0  0  0  0  0  0  0  0  0  0  0
   -9.1977   17.8954  -31.4351 H   0  0  0  0  0  0  0  0  0  0  0  0
   -8.9550   21.8481  -32.1403 H   0  0  0  0  0  0  0  0  0  0  0  0
   -7.7063   21.8574  -30.8235 H   0  0  0  0  0  0  0  0  0  0  0  0
   -7.9520   23.7400  -32.6520 H   0  0  0  0  0  0  0  0  0  0  0  0
   -6.8610   22.7490  -33.4650 H   0  0  0  0  0  0  0  0  0  0  0  0
   -4.7366   21.9870  -32.2817 H   0  0  0  0  0  0  0  0  0  0  0  0
   -2.8905   22.9094  -30.8791 H   0  0  0  0  0  0  0  0  0  0  0  0
   -5.5005   26.0727  -29.5067 H   0  0  0  0  0  0  0  0  0  0  0  0
   -7.3560   25.1536  -30.9002 H   0  0  0  0  0  0  0  0  0  0  0  0
   -4.6130   19.2045  -35.1365 H   0  0  0  0  0  0  0  0  0  0  0  0
   -4.6943   16.6964  -35.3937 H   0  0  0  0  0  0  0  0  0  0  0  0
   -6.3118   15.3452  -34.0375 H   0  0  0  0  0  0  0  0  0  0  0  0
   -7.8575   16.4875  -32.4025 H   0  0  0  0  0  0  0  0  0  0  0  0
  1  2  1  0
  2  3  1  0
  3  4  1  0
  4  5  1  0
  5  6  1  0
  6  7  2  0
  7  8  1  0
  8  9  2  0
  9 10  1  0
  9 11  1  0
 11 12  2  0
  3 13  2  0
 13 14  1  0
 14 15  2  0
 15 16  1  0
 16 17  2  0
 17 18  1  0
 18 19  2  0
 19  2  1  0
 12  6  1  0
 19 14  1  0
  1 20  1  0
  1 21  1  0
  1 22  1  0
  4 23  1  0
  4 24  1  0
  5 25  1  0
  5 26  1  0
  7 27  1  0
  8 28  1  0
 11 29  1  0
 12 30  1  0
 15 31  1  0
 16 32  1  0
 17 33  1  0
 18 34  1  0
M  CHG  1   5   1
M  END
>  <UniqueID>  (13) 
12

>  <SMILES>  (13) 
Cn1c(C[NH2+]c2ccc(F)cc2)nc2ccccc21

>  <Energy>  (13) 
73.23100288244335

>  <Genealogy>  (13) 
Cn1c(C[NH2+]c2ccc(F)cc2)nc2ccccc21 (protonated)
Cn1c(C[NH2+]c2ccc(F)cc2)nc2ccccc21 (3D coordinates assigned)
Cn1c(C[NH2+]c2ccc(F)cc2)nc2ccccc21 (optimized conformer: 73.23100288244335 kcal/mol)

>  <smiles>  (13) 
Cn1c(CNc2ccc(F)cc2)nc2ccccc21

>  <score_type>  (13) 
oracle

>  <origin>  (13) 
adg

>  <m_score__min__energy>  (13) 
-6.6200000000000001

>  <m_primary>  (13) 
energy

$$$$
13:0
     RDKit          3D

 52 54  0  0  0  0  0  0  0  0999 V2000
   -0.2990   27.5320  -24.0900 C   0  0  0  0  0  0  0  0  0  0  0  0
   -0.5630   26.0850  -23.6600 C   0  0  0  0  0  0  0  0  0  0  0  0
    0.4980   25.1560  -24.1200 N   0  0  0  0  0  0  0  0  0  0  0  0
    1.7610   25.8720  -24.4190 C   0  0  0  0  0  0  0  0  0  0  0  0
    2.9820   25.2070  -23.7680 C   0  0  0  0  0  0  0  0  0  0  0  0
    0.0680   24.4070  -25.2910 C   0  0  0  0  0  0  0  0  0  0  0  0
    0.0260   23.1850  -25.2350 O   0  0  0  0  0  0  0  0  0  0  0  0
   -0.3970   25.1000  -26.5550 C   0  0  0  0  0  0  0  0  0  0  0  0
   -1.8410   24.9500  -26.7390 N   0  0  0  0  0  0  0  0  0  0  0  0
   -2.8470   25.3620  -25.7620 C   0  0  0  0  0  0  0  0  0  0  0  0
   -4.2120   24.9160  -26.3440 C   0  0  0  0  0  0  0  0  0  0  0  0
   -3.8450   24.2970  -27.6480 C   0  0  0  0  0  0  0  0  0  0  0  0
   -4.6950   23.7220  -28.5930 C   0  0  0  0  0  0  0  0  0  0  0  0
   -4.1370   23.1750  -29.7690 C   0  0  0  0  0  0  0  0  0  0  0  0
   -5.0140   22.5560  -30.7960 C   0  0  0  0  0  0  0  0  0  0  0  0
   -6.3580   22.9510  -30.9170 C   0  0  0  0  0  0  0  0  0  0  0  0
   -7.1850   22.3620  -31.8760 C   0  0  0  0  0  0  0  0  0  0  0  0
   -6.6810   21.3810  -32.7300 C   0  0  0  0  0  0  0  0  0  0  0  0
   -5.3450   20.9740  -32.6330 C   0  0  0  0  0  0  0  0  0  0  0  0
   -4.8900   19.9820  -33.5120 O   0  0  0  0  0  0  0  0  0  0  0  0
   -5.7070   18.9510  -34.0560 C   0  0  0  0  0  0  0  0  0  0  0  0
   -4.5130   21.5660  -31.6630 C   0  0  0  0  0  0  0  0  0  0  0  0
   -2.7320   23.2240  -29.9560 C   0  0  0  0  0  0  0  0  0  0  0  0
   -1.9030   23.8090  -28.9870 C   0  0  0  0  0  0  0  0  0  0  0  0
   -2.4940   24.3330  -27.8350 C   0  0  0  0  0  0  0  0  0  0  0  0
   -0.1836   28.1645  -23.1975 H   0  0  0  0  0  0  0  0  0  0  0  0
    0.6216   27.5739  -24.6906 H   0  0  0  0  0  0  0  0  0  0  0  0
   -1.1455   27.8963  -24.6906 H   0  0  0  0  0  0  0  0  0  0  0  0
   -0.6145   26.0466  -22.5619 H   0  0  0  0  0  0  0  0  0  0  0  0
   -1.5103   25.7661  -24.1192 H   0  0  0  0  0  0  0  0  0  0  0  0
    0.6880   24.4710  -23.3480 H   0  0  0  0  0  0  0  0  0  0  0  0
    1.9076   25.8885  -25.5091 H   0  0  0  0  0  0  0  0  0  0  0  0
    1.6747   26.8883  -24.0071 H   0  0  0  0  0  0  0  0  0  0  0  0
    2.8874   25.2585  -22.6733 H   0  0  0  0  0  0  0  0  0  0  0  0
    3.0371   24.1543  -24.0821 H   0  0  0  0  0  0  0  0  0  0  0  0
    3.8963   25.7318  -24.0821 H   0  0  0  0  0  0  0  0  0  0  0  0
   -0.1529   26.1705  -26.4881 H   0  0  0  0  0  0  0  0  0  0  0  0
    0.1137   24.6392  -27.4134 H   0  0  0  0  0  0  0  0  0  0  0  0
   -2.6646   24.8709  -24.7948 H   0  0  0  0  0  0  0  0  0  0  0  0
   -2.8183   26.4475  -25.5860 H   0  0  0  0  0  0  0  0  0  0  0  0
   -4.7009   24.1839  -25.6844 H   0  0  0  0  0  0  0  0  0  0  0  0
   -4.9264   25.7459  -26.4483 H   0  0  0  0  0  0  0  0  0  0  0  0
   -5.7817   23.6952  -28.4248 H   0  0  0  0  0  0  0  0  0  0  0  0
   -6.7608   23.7291  -30.2519 H   0  0  0  0  0  0  0  0  0  0  0  0
   -8.2370   22.6727  -31.9581 H   0  0  0  0  0  0  0  0  0  0  0  0
   -7.3378   20.9240  -33.4849 H   0  0  0  0  0  0  0  0  0  0  0  0
   -6.1636   18.3748  -33.2377 H   0  0  0  0  0  0  0  0  0  0  0  0
   -6.4983   19.3986  -34.6753 H   0  0  0  0  0  0  0  0  0  0  0  0
   -5.0904   18.2829  -34.6753 H   0  0  0  0  0  0  0  0  0  0  0  0
   -3.4619   21.2520  -31.5819 H   0  0  0  0  0  0  0  0  0  0  0  0
   -2.2884   22.7996  -30.8687 H   0  0  0  0  0  0  0  0  0  0  0  0
   -0.8134   23.8539  -29.1311 H   0  0  0  0  0  0  0  0  0  0  0  0
  1  2  1  0
  2  3  1  0
  3  4  1  0
  4  5  1  0
  3  6  1  0
  6  7  2  0
  6  8  1  0
  8  9  1  0
  9 10  1  0
 10 11  1  0
 11 12  1  0
 12 13  2  0
 13 14  1  0
 14 15  1  0
 15 16  2  0
 16 17  1  0
 17 18  2  0
 18 19  1  0
 19 20  1  0
 20 21  1  0
 19 22  2  0
 14 23  2  0
 23 24  1  0
 24 25  2  0
 25  9  1  0
 25 12  1  0
 22 15  1  0
  1 26  1  0
  1 27  1  0
  1 28  1  0
  2 29  1  0
  2 30  1  0
  3 31  1  0
  4 32  1  0
  4 33  1  0
  5 34  1  0
  5 35  1  0
  5 36  1  0
  8 37  1  0
  8 38  1  0
 10 39  1  0
 10 40  1  0
 11 41  1  0
 11 42  1  0
 13 43  1  0
 16 44  1  0
 17 45  1  0
 18 46  1  0
 21 47  1  0
 21 48  1  0
 21 49  1  0
 22 50  1  0
 23 51  1  0
 24 52  1  0
M  CHG  1   3   1
M  END
>  <UniqueID>  (14) 
13

>  <SMILES>  (14) 
CC[NH+](CC)C(=O)CN1CCc2cc(-c3cccc(OC)c3)ccc21

>  <Energy>  (14) 
70.43262876628002

>  <Genealogy>  (14) 
CC[NH+](CC)C(=O)CN1CCc2cc(-c3cccc(OC)c3)ccc21 (protonated)
CC[NH+](CC)C(=O)CN1CCc2cc(-c3cccc(OC)c3)ccc21 (3D coordinates assigned)
CC[NH+](CC)C(=O)CN1CCc2cc(-c3cccc(OC)c3)ccc21 (nonaromatic ring conformer: 70.43262876628002 kcal/mol)

>  <smiles>  (14) 
CCN(CC)C(=O)CN1CCc2cc(-c3cccc(OC)c3)ccc21

>  <score_type>  (14) 
oracle

>  <origin>  (14) 
adg

>  <m_score__min__energy>  (14) 
-7.54

>  <m_primary>  (14) 
energy

$$$$
14:0
     RDKit          3D

 47 49  0  0  0  0  0  0  0  0999 V2000
   -1.9840   25.4620  -26.5770 C   0  0  0  0  0  0  0  0  0  0  0  0
   -1.1840   25.8170  -27.8190 C   0  0  0  0  0  0  0  0  0  0  0  0
   -1.9890   25.6150  -28.9620 O   0  0  0  0  0  0  0  0  0  0  0  0
   -2.9180   24.5690  -28.7390 C   0  0  0  0  0  0  0  0  0  0  0  0
   -3.3300   23.9100  -30.0610 C   0  0  0  0  0  0  0  0  0  0  0  0
   -4.5630   24.6060  -30.6830 C   0  0  0  0  0  0  0  0  0  0  0  0
   -5.7230   23.7110  -30.8820 N   0  0  0  0  0  0  0  0  0  0  0  0
   -6.7150   23.7660  -29.7970 C   0  0  0  0  0  0  0  0  0  0  0  0
   -7.6210   22.5250  -29.8450 C   0  0  0  0  0  0  0  0  0  0  0  0
   -7.9840   22.0840  -31.2990 C   0  0  0  0  0  0  0  0  0  0  0  0
   -9.4690   21.6130  -31.3910 C   0  0  0  0  0  0  0  0  0  0  0  0
   -9.4990   20.4000  -32.3320 C   0  0  0  0  0  0  0  0  0  0  0  0
   -8.0970   19.9320  -32.3240 C   0  0  0  0  0  0  0  0  0  0  0  0
   -7.6260   18.7240  -32.8430 C   0  0  0  0  0  0  0  0  0  0  0  0
   -6.2580   18.4330  -32.7440 C   0  0  0  0  0  0  0  0  0  0  0  0
   -5.3870   19.3470  -32.1310 C   0  0  0  0  0  0  0  0  0  0  0  0
   -5.8770   20.5600  -31.6230 C   0  0  0  0  0  0  0  0  0  0  0  0
   -7.2470   20.8430  -31.7340 C   0  0  0  0  0  0  0  0  0  0  0  0
   -7.7430   23.2340  -32.3120 C   0  0  0  0  0  0  0  0  0  0  0  0
   -6.3190   23.8230  -32.2330 C   0  0  0  0  0  0  0  0  0  0  0  0
   -1.4022   25.7202  -25.6799 H   0  0  0  0  0  0  0  0  0  0  0  0
   -2.9288   26.0254  -26.5760 H   0  0  0  0  0  0  0  0  0  0  0  0
   -2.2002   24.3835  -26.5760 H   0  0  0  0  0  0  0  0  0  0  0  0
   -0.8743   26.8713  -27.7685 H   0  0  0  0  0  0  0  0  0  0  0  0
   -0.2901   25.1787  -27.8784 H   0  0  0  0  0  0  0  0  0  0  0  0
   -2.4577   23.8116  -28.0875 H   0  0  0  0  0  0  0  0  0  0  0  0
   -3.8151   24.9920  -28.2633 H   0  0  0  0  0  0  0  0  0  0  0  0
   -2.4899   23.9726  -30.7683 H   0  0  0  0  0  0  0  0  0  0  0  0
   -3.5931   22.8618  -29.8560 H   0  0  0  0  0  0  0  0  0  0  0  0
   -4.8694   25.4263  -30.0173 H   0  0  0  0  0  0  0  0  0  0  0  0
   -4.2595   24.9595  -31.6795 H   0  0  0  0  0  0  0  0  0  0  0  0
   -6.1937   23.7985  -28.8289 H   0  0  0  0  0  0  0  0  0  0  0  0
   -7.3331   24.6675  -29.9201 H   0  0  0  0  0  0  0  0  0  0  0  0
   -7.1013   21.6933  -29.3468 H   0  0  0  0  0  0  0  0  0  0  0  0
   -8.5616   22.7871  -29.3385 H   0  0  0  0  0  0  0  0  0  0  0  0
   -9.8368   21.3270  -30.3945 H   0  0  0  0  0  0  0  0  0  0  0  0
  -10.1134   22.4197  -31.7705 H   0  0  0  0  0  0  0  0  0  0  0  0
  -10.1768   19.6219  -31.9511 H   0  0  0  0  0  0  0  0  0  0  0  0
   -9.8666   20.6445  -33.3395 H   0  0  0  0  0  0  0  0  0  0  0  0
   -8.3162   18.0133  -33.3211 H   0  0  0  0  0  0  0  0  0  0  0  0
   -5.8670   17.4872  -33.1472 H   0  0  0  0  0  0  0  0  0  0  0  0
   -4.3157   19.1116  -32.0484 H   0  0  0  0  0  0  0  0  0  0  0  0
   -5.1963   21.2793  -31.1442 H   0  0  0  0  0  0  0  0  0  0  0  0
   -7.9048   22.8449  -33.3281 H   0  0  0  0  0  0  0  0  0  0  0  0
   -8.4462   24.0425  -32.0632 H   0  0  0  0  0  0  0  0  0  0  0  0
   -5.6766   23.2850  -32.9457 H   0  0  0  0  0  0  0  0  0  0  0  0
   -6.3909   24.8938  -32.4742 H   0  0  0  0  0  0  0  0  0  0  0  0
  1  2  1  0
  2  3  1  0
  3  4  1  0
  4  5  1  0
  5  6  1  0
  6  7  1  0
  7  8  1  0
  8  9  1  0
  9 10  1  0
 10 11  1  0
 11 12  1  0
 12 13  1  0
 13 14  2  0
 14 15  1  0
 15 16  2  0
 16 17  1  0
 17 18  2  0
 10 19  1  0
 19 20  1  0
 20  7  1  0
 18 10  1  0
 18 13  1  0
  1 21  1  0
  1 22  1  0
  1 23  1  0
  2 24  1  0
  2 25  1  0
  4 26  1  0
  4 27  1  0
  5 28  1  0
  5 29  1  0
  6 30  1  0
  6 31  1  0
  8 32  1  0
  8 33  1  0
  9 34  1  0
  9 35  1  0
 11 36  1  0
 11 37  1  0
 12 38  1  0
 12 39  1  0
 14 40  1  0
 15 41  1  0
 16 42  1  0
 17 43  1  0
 19 44  1  0
 19 45  1  0
 20 46  1  0
 20 47  1  0
M  END
>  <UniqueID>  (15) 
14

>  <SMILES>  (15) 
CCOCCCN1CCC2(CCc3ccccc32)CC1

>  <Energy>  (15) 
64.33188171476188

>  <Genealogy>  (15) 
CCOCCCN1CCC2(CCc3ccccc32)CC1 (3D coordinates assigned)
CCOCCCN1CCC2(CCc3ccccc32)CC1 (nonaromatic ring conformer: 64.33188171476188 kcal/mol)

>  <smiles>  (15) 
CCOCCCN1CCC2(CCc3ccccc32)CC1

>  <score_type>  (15) 
oracle

>  <origin>  (15) 
adg

>  <m_score__min__energy>  (15) 
-8.3599999999999994

>  <m_primary>  (15) 
energy

$$$$
15:0
     RDKit          3D

 47 50  0  0  0  0  0  0  0  0999 V2000
   -3.1910   22.6680  -29.5340 C   0  0  0  0  0  0  0  0  0  0  0  0
   -3.0600   24.1840  -29.6970 C   0  0  0  0  0  0  0  0  0  0  0  0
   -3.9830   24.7170  -30.7150 N   0  0  0  0  0  0  0  0  0  0  0  0
   -5.3840   24.7330  -30.2710 C   0  0  0  0  0  0  0  0  0  0  0  0
   -6.2740   23.8370  -31.1510 C   0  0  0  0  0  0  0  0  0  0  0  0
   -5.7310   23.6190  -32.5060 N   0  0  0  0  0  0  0  0  0  0  0  0
   -5.0710   22.3410  -32.6220 C   0  0  0  0  0  0  0  0  0  0  0  0
   -3.7170   22.3280  -32.7730 N   0  0  0  0  0  0  0  0  0  0  0  0
   -2.9690   21.1970  -32.9120 C   0  0  0  0  0  0  0  0  0  0  0  0
   -1.5780   21.3180  -33.0110 C   0  0  0  0  0  0  0  0  0  0  0  0
   -0.7750   20.1830  -33.0920 C   0  0  0  0  0  0  0  0  0  0  0  0
   -1.3530   18.9160  -33.0520 C   0  0  0  0  0  0  0  0  0  0  0  0
   -2.7410   18.7740  -32.9620 C   0  0  0  0  0  0  0  0  0  0  0  0
   -3.5770   19.9100  -32.9350 C   0  0  0  0  0  0  0  0  0  0  0  0
   -4.9890   19.8720  -32.8680 C   0  0  0  0  0  0  0  0  0  0  0  0
   -5.8480   18.8190  -32.9780 N   0  0  0  0  0  0  0  0  0  0  0  0
   -5.5560   17.4480  -33.4080 C   0  0  0  0  0  0  0  0  0  0  0  0
   -7.0850   19.3160  -32.7170 C   0  0  0  0  0  0  0  0  0  0  0  0
   -8.2820   18.5870  -32.6340 C   0  0  0  0  0  0  0  0  0  0  0  0
   -9.4660   19.2700  -32.3300 C   0  0  0  0  0  0  0  0  0  0  0  0
   -9.4490   20.6550  -32.0990 C   0  0  0  0  0  0  0  0  0  0  0  0
   -8.2480   21.3750  -32.1750 C   0  0  0  0  0  0  0  0  0  0  0  0
   -7.0670   20.6890  -32.5010 C   0  0  0  0  0  0  0  0  0  0  0  0
   -5.7420   21.1010  -32.6330 C   0  0  0  0  0  0  0  0  0  0  0  0
   -3.2129   22.4148  -28.4638 H   0  0  0  0  0  0  0  0  0  0  0  0
   -4.1220   22.3271  -30.0105 H   0  0  0  0  0  0  0  0  0  0  0  0
   -2.3323   22.1724  -30.0105 H   0  0  0  0  0  0  0  0  0  0  0  0
   -3.2811   24.6643  -28.7324 H   0  0  0  0  0  0  0  0  0  0  0  0
   -2.0330   24.4004  -30.0263 H   0  0  0  0  0  0  0  0  0  0  0  0
   -3.9060   24.1530  -31.5930 H   0  0  0  0  0  0  0  0  0  0  0  0
   -5.4324   24.3727  -29.2328 H   0  0  0  0  0  0  0  0  0  0  0  0
   -5.7553   25.7655  -30.3495 H   0  0  0  0  0  0  0  0  0  0  0  0
   -6.3811   22.8599  -30.6572 H   0  0  0  0  0  0  0  0  0  0  0  0
   -7.2386   24.3528  -31.2675 H   0  0  0  0  0  0  0  0  0  0  0  0
   -5.0020   24.3510  -32.6710 H   0  0  0  0  0  0  0  0  0  0  0  0
   -6.4450   23.7790  -33.2430 H   0  0  0  0  0  0  0  0  0  0  0  0
   -1.1160   22.3162  -33.0249 H   0  0  0  0  0  0  0  0  0  0  0  0
    0.3159   20.2869  -33.1876 H   0  0  0  0  0  0  0  0  0  0  0  0
   -0.7134   18.0219  -33.0915 H   0  0  0  0  0  0  0  0  0  0  0  0
   -3.1846   17.7687  -32.9119 H   0  0  0  0  0  0  0  0  0  0  0  0
   -5.4196   16.8077  -32.5240 H   0  0  0  0  0  0  0  0  0  0  0  0
   -6.3931   17.0668  -34.0113 H   0  0  0  0  0  0  0  0  0  0  0  0
   -4.6362   17.4410  -34.0113 H   0  0  0  0  0  0  0  0  0  0  0  0
   -8.2896   17.5003  -32.8045 H   0  0  0  0  0  0  0  0  0  0  0  0
  -10.4157   18.7180  -32.2718 H   0  0  0  0  0  0  0  0  0  0  0  0
  -10.3851   21.1793  -31.8565 H   0  0  0  0  0  0  0  0  0  0  0  0
   -8.2314   22.4579  -31.9826 H   0  0  0  0  0  0  0  0  0  0  0  0
  1  2  1  0
  2  3  1  0
  3  4  1  0
  4  5  1  0
  5  6  1  0
  6  7  1  0
  7  8  1  0
  8  9  1  0
  9 10  2  0
 10 11  1  0
 11 12  2  0
 12 13  1  0
 13 14  2  0
 14 15  1  0
 15 16  2  0
 16 17  1  0
 16 18  1  0
 18 19  2  0
 19 20  1  0
 20 21  2  0
 21 22  1  0
 22 23  2  0
 23 24  1  0
 24  7  2  0
 14  9  1  0
 24 15  1  0
 23 18  1  0
  1 25  1  0
  1 26  1  0
  1 27  1  0
  2 28  1  0
  2 29  1  0
  3 30  1  0
  4 31  1  0
  4 32  1  0
  5 33  1  0
  5 34  1  0
  6 35  1  0
  6 36  1  0
 10 37  1  0
 11 38  1  0
 12 39  1  0
 13 40  1  0
 17 41  1  0
 17 42  1  0
 17 43  1  0
 19 44  1  0
 20 45  1  0
 21 46  1  0
 22 47  1  0
M  CHG  3   6   1   8  -1  16   1
M  END
>  <UniqueID>  (16) 
15

>  <SMILES>  (16) 
CCNCC[NH2+]c1[n-]c2ccccc2c2[n+](C)c3ccccc3c1-2

>  <Energy>  (16) 
105.90286718473845

>  <Genealogy>  (16) 
CCNCC[NH2+]c1[n-]c2ccccc2c2[n+](C)c3ccccc3c1-2 (protonated)
CCNCC[NH2+]c1[n-]c2ccccc2c2[n+](C)c3ccccc3c1-2 (3D coordinates assigned)
CCNCC[NH2+]c1[n-]c2ccccc2c2[n+](C)c3ccccc3c1-2 (optimized conformer: 105.90286718473845 kcal/mol)

>  <smiles>  (16) 
CCNCCNc1[nH]c2ccccc2c2[n+](C)c3ccccc3c1-2

>  <score_type>  (16) 
oracle

>  <origin>  (16) 
adg

>  <m_score__min__energy>  (16) 
-8.2200000000000006

>  <m_primary>  (16) 
energy

$$$$
16:0
     RDKit          3D

 32 32  0  0  0  0  0  0  0  0999 V2000
   -7.7990   18.3990  -31.9730 C   0  0  0  0  0  0  0  0  0  0  0  0
   -9.0950   19.1120  -32.3340 C   0  0  0  0  0  0  0  0  0  0  0  0
   -8.8420   20.9250  -32.3430 S   0  0  0  0  0  0  0  0  0  0  0  0
   -7.0220   20.9070  -32.5190 C   0  0  0  0  0  0  0  0  0  0  0  0
   -6.4150   22.1770  -32.0000 C   0  0  0  0  0  0  0  0  0  0  0  0
   -5.4320   22.8490  -32.6270 N   0  0  0  0  0  0  0  0  0  0  0  0
   -5.0750   23.8690  -31.8620 N   0  0  0  0  0  0  0  0  0  0  0  0
   -5.8580   23.8070  -30.7680 C   0  0  0  0  0  0  0  0  0  0  0  0
   -5.7160   24.9460  -29.3880 S   0  0  0  0  0  0  0  0  0  0  0  0
   -4.3780   24.0170  -28.5510 C   0  0  0  0  0  0  0  0  0  0  0  0
   -3.0720   24.2240  -29.3160 C   0  0  0  0  0  0  0  0  0  0  0  0
   -4.2330   24.4870  -27.1020 C   0  0  0  0  0  0  0  0  0  0  0  0
   -6.7170   22.7670  -30.8250 N   0  0  0  0  0  0  0  0  0  0  0  0
   -7.6270   22.3000  -29.7790 C   0  0  0  0  0  0  0  0  0  0  0  0
   -7.7023   18.3458  -30.8785 H   0  0  0  0  0  0  0  0  0  0  0  0
   -7.8121   17.3811  -32.3898 H   0  0  0  0  0  0  0  0  0  0  0  0
   -6.9463   18.9550  -32.3898 H   0  0  0  0  0  0  0  0  0  0  0  0
   -9.4223   18.7864  -33.3324 H   0  0  0  0  0  0  0  0  0  0  0  0
   -9.8614   18.8615  -31.5857 H   0  0  0  0  0  0  0  0  0  0  0  0
   -6.6149   20.0567  -31.9521 H   0  0  0  0  0  0  0  0  0  0  0  0
   -6.7759   20.8140  -33.5871 H   0  0  0  0  0  0  0  0  0  0  0  0
   -4.9930   22.6120  -33.5430 H   0  0  0  0  0  0  0  0  0  0  0  0
   -4.6252   22.9452  -28.5387 H   0  0  0  0  0  0  0  0  0  0  0  0
   -2.2456   24.3550  -28.6019 H   0  0  0  0  0  0  0  0  0  0  0  0
   -2.8744   23.3460  -29.9485 H   0  0  0  0  0  0  0  0  0  0  0  0
   -3.1556   25.1201  -29.9485 H   0  0  0  0  0  0  0  0  0  0  0  0
   -4.4878   23.6612  -26.4214 H   0  0  0  0  0  0  0  0  0  0  0  0
   -3.1953   24.8041  -26.9215 H   0  0  0  0  0  0  0  0  0  0  0  0
   -4.9117   25.3336  -26.9215 H   0  0  0  0  0  0  0  0  0  0  0  0
   -7.1954   22.5215  -28.7918 H   0  0  0  0  0  0  0  0  0  0  0  0
   -8.5950   22.8127  -29.8794 H   0  0  0  0  0  0  0  0  0  0  0  0
   -7.7749   21.2146  -29.8794 H   0  0  0  0  0  0  0  0  0  0  0  0
  1  2  1  0
  2  3  1  0
  3  4  1  0
  4  5  1  0
  5  6  2  0
  6  7  1  0
  7  8  2  0
  8  9  1  0
  9 10  1  0
 10 11  1  0
 10 12  1  0
  8 13  1  0
 13 14  1  0
 13  5  1  0
  1 15  1  0
  1 16  1  0
  1 17  1  0
  2 18  1  0
  2 19  1  0
  4 20  1  0
  4 21  1  0
  6 22  1  0
 10 23  1  0
 11 24  1  0
 11 25  1  0
 11 26  1  0
 12 27  1  0
 12 28  1  0
 12 29  1  0
 14 30  1  0
 14 31  1  0
 14 32  1  0
M  CHG  1   6   1
M  END
>  <UniqueID>  (17) 
16

>  <SMILES>  (17) 
CCSCc1[nH+]nc(SC(C)C)n1C

>  <Energy>  (17) 
49.22926053102306

>  <Genealogy>  (17) 
CCSCc1[nH+]nc(SC(C)C)n1C (protonated)
CCSCc1[nH+]nc(SC(C)C)n1C (3D coordinates assigned)
CCSCc1[nH+]nc(SC(C)C)n1C (optimized conformer: 49.22926053102306 kcal/mol)

>  <smiles>  (17) 
CCSCc1nnc(SC(C)C)n1C

>  <score_type>  (17) 
oracle

>  <origin>  (17) 
adg

>  <m_score__min__energy>  (17) 
-5.4900000000000002

>  <m_primary>  (17) 
energy

$$$$
17:0
     RDKit          3D

 57 58  0  0  0  0  0  0  0  0999 V2000
   -0.4980   29.7280  -26.5850 C   0  0  0  0  0  0  0  0  0  0  0  0
   -0.5670   28.6620  -25.4810 C   0  0  0  0  0  0  0  0  0  0  0  0
   -1.2510   27.4090  -25.8870 N   0  0  0  0  0  0  0  0  0  0  0  0
   -1.4130   26.4670  -24.7570 C   0  0  0  0  0  0  0  0  0  0  0  0
   -0.6130   26.9470  -23.5500 C   0  0  0  0  0  0  0  0  0  0  0  0
   -0.6490   26.7490  -27.0700 C   0  0  0  0  0  0  0  0  0  0  0  0
   -1.4420   25.5060  -27.4920 C   0  0  0  0  0  0  0  0  0  0  0  0
   -1.5950   25.4810  -28.8990 O   0  0  0  0  0  0  0  0  0  0  0  0
   -2.1620   24.2580  -29.3160 C   0  0  0  0  0  0  0  0  0  0  0  0
   -3.6800   24.3790  -29.3000 C   0  0  0  0  0  0  0  0  0  0  0  0
   -4.1070   25.0300  -30.4790 O   0  0  0  0  0  0  0  0  0  0  0  0
   -5.3520   25.6720  -30.2690 C   0  0  0  0  0  0  0  0  0  0  0  0
   -6.4860   24.8060  -30.8220 C   0  0  0  0  0  0  0  0  0  0  0  0
   -5.9540   23.6180  -31.4910 N   0  0  0  0  0  0  0  0  0  0  0  0
   -6.7120   22.4060  -31.6830 C   0  0  0  0  0  0  0  0  0  0  0  0
   -8.0430   22.3480  -31.2620 C   0  0  0  0  0  0  0  0  0  0  0  0
   -8.8000   21.2040  -31.4870 C   0  0  0  0  0  0  0  0  0  0  0  0
   -8.2700   20.1160  -32.1230 N   0  0  0  0  0  0  0  0  0  0  0  0
   -9.1390   18.9470  -32.3330 C   0  0  0  0  0  0  0  0  0  0  0  0
   -6.9560   20.1280  -32.5460 C   0  0  0  0  0  0  0  0  0  0  0  0
   -6.3780   19.0110  -33.1960 C   0  0  0  0  0  0  0  0  0  0  0  0
   -5.0420   19.0280  -33.5960 C   0  0  0  0  0  0  0  0  0  0  0  0
   -4.2510   20.1460  -33.3530 C   0  0  0  0  0  0  0  0  0  0  0  0
   -4.7920   21.2630  -32.7170 C   0  0  0  0  0  0  0  0  0  0  0  0
   -6.1470   21.2800  -32.3220 C   0  0  0  0  0  0  0  0  0  0  0  0
   -0.4334   30.7262  -26.1273 H   0  0  0  0  0  0  0  0  0  0  0  0
    0.3907   29.5525  -27.2091 H   0  0  0  0  0  0  0  0  0  0  0  0
   -1.4019   29.6686  -27.2091 H   0  0  0  0  0  0  0  0  0  0  0  0
    0.4605   28.4117  -25.1785 H   0  0  0  0  0  0  0  0  0  0  0  0
   -1.1594   29.0941  -24.6610 H   0  0  0  0  0  0  0  0  0  0  0  0
   -2.4772   26.4049  -24.4858 H   0  0  0  0  0  0  0  0  0  0  0  0
   -1.0436   25.4764  -25.0607 H   0  0  0  0  0  0  0  0  0  0  0  0
   -1.1243   26.6402  -22.6257 H   0  0  0  0  0  0  0  0  0  0  0  0
    0.3932   26.5033  -23.5770 H   0  0  0  0  0  0  0  0  0  0  0  0
   -0.5310   28.0436  -23.5770 H   0  0  0  0  0  0  0  0  0  0  0  0
   -0.6335   27.4628  -27.9068 H   0  0  0  0  0  0  0  0  0  0  0  0
    0.3698   26.4311  -26.8034 H   0  0  0  0  0  0  0  0  0  0  0  0
   -0.9029   24.6034  -27.1686 H   0  0  0  0  0  0  0  0  0  0  0  0
   -2.4362   25.5367  -27.0223 H   0  0  0  0  0  0  0  0  0  0  0  0
   -1.8223   24.0236  -30.3356 H   0  0  0  0  0  0  0  0  0  0  0  0
   -1.8480   23.4535  -28.6346 H   0  0  0  0  0  0  0  0  0  0  0  0
   -4.1285   23.3758  -29.2507 H   0  0  0  0  0  0  0  0  0  0  0  0
   -3.9949   24.9615  -28.4217 H   0  0  0  0  0  0  0  0  0  0  0  0
   -5.5046   25.8274  -29.1908 H   0  0  0  0  0  0  0  0  0  0  0  0
   -5.3511   26.6415  -30.7887 H   0  0  0  0  0  0  0  0  0  0  0  0
   -7.1370   24.4918  -29.9929 H   0  0  0  0  0  0  0  0  0  0  0  0
   -7.0562   25.3970  -31.5538 H   0  0  0  0  0  0  0  0  0  0  0  0
   -4.9690   23.6620  -31.8350 H   0  0  0  0  0  0  0  0  0  0  0  0
   -8.4937   23.2112  -30.7504 H   0  0  0  0  0  0  0  0  0  0  0  0
   -9.8456   21.1736  -31.1468 H   0  0  0  0  0  0  0  0  0  0  0  0
   -9.4438   18.5370  -31.3588 H   0  0  0  0  0  0  0  0  0  0  0  0
  -10.0322   19.2510  -32.8986 H   0  0  0  0  0  0  0  0  0  0  0  0
   -8.5906   18.1793  -32.8986 H   0  0  0  0  0  0  0  0  0  0  0  0
   -6.9907   18.1179  -33.3881 H   0  0  0  0  0  0  0  0  0  0  0  0
   -4.6119   18.1533  -34.1059 H   0  0  0  0  0  0  0  0  0  0  0  0
   -3.1957   20.1491  -33.6634 H   0  0  0  0  0  0  0  0  0  0  0  0
   -4.1566   22.1393  -32.5213 H   0  0  0  0  0  0  0  0  0  0  0  0
  1  2  1  0
  2  3  1  0
  3  4  1  0
  4  5  1  0
  3  6  1  0
  6  7  1  0
  7  8  1  0
  8  9  1  0
  9 10  1  0
 10 11  1  0
 11 12  1  0
 12 13  1  0
 13 14  1  0
 14 15  1  0
 15 16  2  0
 16 17  1  0
 17 18  2  0
 18 19  1  0
 18 20  1  0
 20 21  2  0
 21 22  1  0
 22 23  2  0
 23 24  1  0
 24 25  2  0
 25 15  1  0
 25 20  1  0
  1 26  1  0
  1 27  1  0
  1 28  1  0
  2 29  1  0
  2 30  1  0
  4 31  1  0
  4 32  1  0
  5 33  1  0
  5 34  1  0
  5 35  1  0
  6 36  1  0
  6 37  1  0
  7 38  1  0
  7 39  1  0
  9 40  1  0
  9 41  1  0
 10 42  1  0
 10 43  1  0
 12 44  1  0
 12 45  1  0
 13 46  1  0
 13 47  1  0
 14 48  1  0
 16 49  1  0
 17 50  1  0
 19 51  1  0
 19 52  1  0
 19 53  1  0
 21 54  1  0
 22 55  1  0
 23 56  1  0
 24 57  1  0
M  CHG  1  18   1
M  END
>  <UniqueID>  (18) 
17

>  <SMILES>  (18) 
CCN(CC)CCOCCOCCNc1cc[n+](C)c2ccccc12

>  <Energy>  (18) 
67.20186658543805

>  <Genealogy>  (18) 
CCN(CC)CCOCCOCCNc1cc[n+](C)c2ccccc12 (3D coordinates assigned)
CCN(CC)CCOCCOCCNc1cc[n+](C)c2ccccc12 (optimized conformer: 67.20186658543805 kcal/mol)

>  <smiles>  (18) 
CCN(CC)CCOCCOCCNc1cc[n+](C)c2ccccc12

>  <score_type>  (18) 
oracle

>  <origin>  (18) 
adg

>  <m_score__min__energy>  (18) 
-7.9299999999999997

>  <m_primary>  (18) 
energy

$$$$
18:0
     RDKit          3D

 52 54  0  0  0  0  0  0  0  0999 V2000
   -3.7030   24.1010  -28.0710 C   0  0  0  0  0  0  0  0  0  0  0  0
   -3.0180   24.5940  -29.3430 C   0  0  0  0  0  0  0  0  0  0  0  0
   -3.9430   24.4880  -30.4960 N   0  0  0  0  0  0  0  0  0  0  0  0
   -4.9680   25.5550  -30.4590 C   0  0  0  0  0  0  0  0  0  0  0  0
   -6.3150   24.9820  -30.0270 C   0  0  0  0  0  0  0  0  0  0  0  0
   -4.5660   23.1450  -30.5620 C   0  0  0  0  0  0  0  0  0  0  0  0
   -3.4990   22.0890  -30.8680 C   0  0  0  0  0  0  0  0  0  0  0  0
   -3.2980   21.9220  -32.3780 C   0  0  0  0  0  0  0  0  0  0  0  0
   -4.5790   21.9890  -33.0840 N   0  0  0  0  0  0  0  0  0  0  0  0
   -5.6340   21.0410  -32.8390 C   0  0  0  0  0  0  0  0  0  0  0  0
   -6.9090   21.4940  -32.4590 C   0  0  0  0  0  0  0  0  0  0  0  0
   -7.1550   22.8680  -32.2570 C   0  0  0  0  0  0  0  0  0  0  0  0
   -8.4360   23.3280  -31.9640 C   0  0  0  0  0  0  0  0  0  0  0  0
   -9.4940   22.4300  -31.8750 C   0  0  0  0  0  0  0  0  0  0  0  0
   -9.2700   21.0640  -32.0450 C   0  0  0  0  0  0  0  0  0  0  0  0
   -7.9670   20.5590  -32.2980 C   0  0  0  0  0  0  0  0  0  0  0  0
   -7.7210   19.2030  -32.4110 N   0  0  0  0  0  0  0  0  0  0  0  0
   -8.7460   18.2270  -31.9800 C   0  0  0  0  0  0  0  0  0  0  0  0
   -6.5000   18.7570  -32.8870 C   0  0  0  0  0  0  0  0  0  0  0  0
   -6.2850   17.3980  -33.2350 C   0  0  0  0  0  0  0  0  0  0  0  0
   -5.0260   16.9470  -33.6290 C   0  0  0  0  0  0  0  0  0  0  0  0
   -4.8440   15.6410  -33.9460 F   0  0  0  0  0  0  0  0  0  0  0  0
   -3.9550   17.8300  -33.6930 C   0  0  0  0  0  0  0  0  0  0  0  0
   -4.1470   19.1790  -33.4080 C   0  0  0  0  0  0  0  0  0  0  0  0
   -5.4210   19.6670  -33.0510 C   0  0  0  0  0  0  0  0  0  0  0  0
   -3.1661   24.4874  -27.1921 H   0  0  0  0  0  0  0  0  0  0  0  0
   -4.7429   24.4592  -28.0522 H   0  0  0  0  0  0  0  0  0  0  0  0
   -3.6936   23.0012  -28.0522 H   0  0  0  0  0  0  0  0  0  0  0  0
   -2.7201   25.6447  -29.2115 H   0  0  0  0  0  0  0  0  0  0  0  0
   -2.1305   23.9736  -29.5364 H   0  0  0  0  0  0  0  0  0  0  0  0
   -4.6579   26.3312  -29.7439 H   0  0  0  0  0  0  0  0  0  0  0  0
   -5.0698   25.9879  -31.4651 H   0  0  0  0  0  0  0  0  0  0  0  0
   -6.3685   24.9593  -28.9285 H   0  0  0  0  0  0  0  0  0  0  0  0
   -7.1252   25.6134  -30.4206 H   0  0  0  0  0  0  0  0  0  0  0  0
   -6.4221   23.9604  -30.4206 H   0  0  0  0  0  0  0  0  0  0  0  0
   -5.0401   22.9151  -29.5964 H   0  0  0  0  0  0  0  0  0  0  0  0
   -5.3232   23.1361  -31.3598 H   0  0  0  0  0  0  0  0  0  0  0  0
   -2.5471   22.3987  -30.4119 H   0  0  0  0  0  0  0  0  0  0  0  0
   -3.8340   21.1266  -30.4538 H   0  0  0  0  0  0  0  0  0  0  0  0
   -2.6415   22.7246  -32.7453 H   0  0  0  0  0  0  0  0  0  0  0  0
   -2.8429   20.9384  -32.5663 H   0  0  0  0  0  0  0  0  0  0  0  0
   -4.7050   22.6940  -33.8450 H   0  0  0  0  0  0  0  0  0  0  0  0
   -6.3243   23.5852  -32.3319 H   0  0  0  0  0  0  0  0  0  0  0  0
   -8.6112   24.4019  -31.8029 H   0  0  0  0  0  0  0  0  0  0  0  0
  -10.5102   22.7980  -31.6700 H   0  0  0  0  0  0  0  0  0  0  0  0
  -10.1174   20.3655  -31.9820 H   0  0  0  0  0  0  0  0  0  0  0  0
   -8.7812   18.1935  -30.8811 H   0  0  0  0  0  0  0  0  0  0  0  0
   -9.7288   18.5314  -32.3692 H   0  0  0  0  0  0  0  0  0  0  0  0
   -8.4901   17.2305  -32.3692 H   0  0  0  0  0  0  0  0  0  0  0  0
   -7.1251   16.6892  -33.1932 H   0  0  0  0  0  0  0  0  0  0  0  0
   -2.9554   17.4630  -33.9689 H   0  0  0  0  0  0  0  0  0  0  0  0
   -3.2949   19.8725  -33.4619 H   0  0  0  0  0  0  0  0  0  0  0  0
  1  2  1  0
  2  3  1  0
  3  4  1  0
  4  5  1  0
  3  6  1  0
  6  7  1  0
  7  8  1  0
  8  9  1  0
  9 10  1  0
 10 11  2  0
 11 12  1  0
 12 13  2  0
 13 14  1  0
 14 15  2  0
 15 16  1  0
 16 17  2  0
 17 18  1  0
 17 19  1  0
 19 20  2  0
 20 21  1  0
 21 22  1  0
 21 23  2  0
 23 24  1  0
 24 25  2  0
 25 10  1  0
 16 11  1  0
 25 19  1  0
  1 26  1  0
  1 27  1  0
  1 28  1  0
  2 29  1  0
  2 30  1  0
  4 31  1  0
  4 32  1  0
  5 33  1  0
  5 34  1  0
  5 35  1  0
  6 36  1  0
  6 37  1  0
  7 38  1  0
  7 39  1  0
  8 40  1  0
  8 41  1  0
  9 42  1  0
 12 43  1  0
 13 44  1  0
 14 45  1  0
 15 46  1  0
 18 47  1  0
 18 48  1  0
 18 49  1  0
 20 50  1  0
 23 51  1  0
 24 52  1  0
M  CHG  1  17   1
M  END
>  <UniqueID>  (19) 
18

>  <SMILES>  (19) 
CCN(CC)CCCNc1c2ccccc2[n+](C)c2cc(F)ccc12

>  <Energy>  (19) 
74.558146194036

>  <Genealogy>  (19) 
CCN(CC)CCCNc1c2ccccc2[n+](C)c2cc(F)ccc12 (3D coordinates assigned)
CCN(CC)CCCNc1c2ccccc2[n+](C)c2cc(F)ccc12 (optimized conformer: 74.558146194036 kcal/mol)

>  <smiles>  (19) 
CCN(CC)CCCNc1c2ccccc2[n+](C)c2cc(F)ccc12

>  <score_type>  (19) 
oracle

>  <origin>  (19) 
adg

>  <m_score__min__energy>  (19) 
-8.5800000000000001

>  <m_primary>  (19) 
energy

$$$$
19:0
     RDKit          3D

 59 62  0  0  0  0  0  0  0  0999 V2000
   -3.0830   18.8390  -26.4210 C   0  0  0  0  0  0  0  0  0  0  0  0
   -2.0660   19.9790  -26.4730 C   0  0  0  0  0  0  0  0  0  0  0  0
   -1.0610   19.7520  -27.5390 N   0  0  0  0  0  0  0  0  0  0  0  0
   -0.4080   18.4200  -27.5740 C   0  0  0  0  0  0  0  0  0  0  0  0
    0.2880   18.0690  -28.8980 C   0  0  0  0  0  0  0  0  0  0  0  0
   -1.4330   20.3210  -28.8560 C   0  0  0  0  0  0  0  0  0  0  0  0
   -2.0030   21.7470  -28.7760 C   0  0  0  0  0  0  0  0  0  0  0  0
   -2.2280   22.3070  -30.1090 N   0  0  0  0  0  0  0  0  0  0  0  0
   -3.4600   22.0960  -30.8190 C   0  0  0  0  0  0  0  0  0  0  0  0
   -3.6550   20.9320  -31.5860 C   0  0  0  0  0  0  0  0  0  0  0  0
   -4.9600   20.6130  -32.0190 C   0  0  0  0  0  0  0  0  0  0  0  0
   -5.9630   21.5590  -31.9640 N   0  0  0  0  0  0  0  0  0  0  0  0
   -7.2280   21.3360  -32.7030 C   0  0  0  0  0  0  0  0  0  0  0  0
   -5.7740   22.7340  -31.2610 C   0  0  0  0  0  0  0  0  0  0  0  0
   -6.8260   23.6720  -31.0770 C   0  0  0  0  0  0  0  0  0  0  0  0
   -6.6280   24.8350  -30.3310 C   0  0  0  0  0  0  0  0  0  0  0  0
   -5.3960   25.0840  -29.7370 C   0  0  0  0  0  0  0  0  0  0  0  0
   -4.3470   24.1810  -29.8910 C   0  0  0  0  0  0  0  0  0  0  0  0
   -4.5180   23.0090  -30.6600 C   0  0  0  0  0  0  0  0  0  0  0  0
   -5.2500   19.1990  -32.3890 C   0  0  0  0  0  0  0  0  0  0  0  0
   -6.2360   18.4920  -31.6810 C   0  0  0  0  0  0  0  0  0  0  0  0
   -6.4290   17.1340  -31.9180 C   0  0  0  0  0  0  0  0  0  0  0  0
   -5.6400   16.4860  -32.8730 C   0  0  0  0  0  0  0  0  0  0  0  0
   -4.6910   17.1800  -33.5590 N   0  0  0  0  0  0  0  0  0  0  0  0
   -4.4910   18.5130  -33.3610 C   0  0  0  0  0  0  0  0  0  0  0  0
   -3.4800   19.2400  -34.2040 C   0  0  0  0  0  0  0  0  0  0  0  0
   -2.2780   19.8020  -33.4090 C   0  0  0  0  0  0  0  0  0  0  0  0
   -2.4930   19.9970  -31.8960 C   0  0  0  0  0  0  0  0  0  0  0  0
   -3.3035   18.5919  -25.3720 H   0  0  0  0  0  0  0  0  0  0  0  0
   -4.0089   19.1503  -26.9268 H   0  0  0  0  0  0  0  0  0  0  0  0
   -2.6685   17.9545  -26.9268 H   0  0  0  0  0  0  0  0  0  0  0  0
   -2.5946   20.9227  -26.6732 H   0  0  0  0  0  0  0  0  0  0  0  0
   -1.5440   20.0248  -25.5058 H   0  0  0  0  0  0  0  0  0  0  0  0
    0.3464   18.3894  -26.7741 H   0  0  0  0  0  0  0  0  0  0  0  0
   -1.2129   17.6812  -27.4462 H   0  0  0  0  0  0  0  0  0  0  0  0
    1.2521   17.5828  -28.6878 H   0  0  0  0  0  0  0  0  0  0  0  0
   -0.3493   17.3845  -29.4771 H   0  0  0  0  0  0  0  0  0  0  0  0
    0.4595   18.9884  -29.4771 H   0  0  0  0  0  0  0  0  0  0  0  0
   -0.5353   20.3412  -29.4914 H   0  0  0  0  0  0  0  0  0  0  0  0
   -2.2264   19.6810  -29.2695 H   0  0  0  0  0  0  0  0  0  0  0  0
   -2.9592   21.7204  -28.2328 H   0  0  0  0  0  0  0  0  0  0  0  0
   -1.2741   22.3825  -28.2517 H   0  0  0  0  0  0  0  0  0  0  0  0
   -1.5050   22.9400  -30.5230 H   0  0  0  0  0  0  0  0  0  0  0  0
   -8.0503   21.1910  -31.9869 H   0  0  0  0  0  0  0  0  0  0  0  0
   -7.4423   22.2102  -33.3353 H   0  0  0  0  0  0  0  0  0  0  0  0
   -7.1304   20.4412  -33.3353 H   0  0  0  0  0  0  0  0  0  0  0  0
   -7.8101   23.4786  -31.5289 H   0  0  0  0  0  0  0  0  0  0  0  0
   -7.4495   25.5569  -30.2127 H   0  0  0  0  0  0  0  0  0  0  0  0
   -5.2491   25.9980  -29.1429 H   0  0  0  0  0  0  0  0  0  0  0  0
   -3.3783   24.3821  -29.4102 H   0  0  0  0  0  0  0  0  0  0  0  0
   -6.8571   19.0128  -30.9374 H   0  0  0  0  0  0  0  0  0  0  0  0
   -7.1949   16.5761  -31.3593 H   0  0  0  0  0  0  0  0  0  0  0  0
   -5.7863   15.4138  -33.0703 H   0  0  0  0  0  0  0  0  0  0  0  0
   -3.0960   18.5410  -34.9616 H   0  0  0  0  0  0  0  0  0  0  0  0
   -3.9989   20.1038  -34.6451 H   0  0  0  0  0  0  0  0  0  0  0  0
   -1.4346   19.1083  -33.5412 H   0  0  0  0  0  0  0  0  0  0  0  0
   -2.1038   20.8100  -33.8133 H   0  0  0  0  0  0  0  0  0  0  0  0
   -2.6977   19.0172  -31.4399 H   0  0  0  0  0  0  0  0  0  0  0  0
   -1.5798   20.4524  -31.4853 H   0  0  0  0  0  0  0  0  0  0  0  0
  1  2  1  0
  2  3  1  0
  3  4  1  0
  4  5  1  0
  3  6  1  0
  6  7  1  0
  7  8  1  0
  8  9  1  0
  9 10  2  0
 10 11  1  0
 11 12  2  0
 12 13  1  0
 12 14  1  0
 14 15  2  0
 15 16  1  0
 16 17  2  0
 17 18  1  0
 18 19  2  0
 11 20  1  0
 20 21  2  0
 21 22  1  0
 22 23  2  0
 23 24  1  0
 24 25  2  0
 25 26  1  0
 26 27  1  0
 27 28  1  0
 19  9  1  0
 25 20  1  0
 28 10  1  0
 19 14  1  0
  1 29  1  0
  1 30  1  0
  1 31  1  0
  2 32  1  0
  2 33  1  0
  4 34  1  0
  4 35  1  0
  5 36  1  0
  5 37  1  0
  5 38  1  0
  6 39  1  0
  6 40  1  0
  7 41  1  0
  7 42  1  0
  8 43  1  0
 13 44  1  0
 13 45  1  0
 13 46  1  0
 15 47  1  0
 16 48  1  0
 17 49  1  0
 18 50  1  0
 21 51  1  0
 22 52  1  0
 23 53  1  0
 26 54  1  0
 26 55  1  0
 27 56  1  0
 27 57  1  0
 28 58  1  0
 28 59  1  0
M  CHG  1  12   1
M  END
>  <UniqueID>  (20) 
19

>  <SMILES>  (20) 
CCN(CC)CCNc1c2c([n+](C)c3ccccc13)-c1cccnc1CCC2

>  <Energy>  (20) 
103.04267231989132

>  <Genealogy>  (20) 
CCN(CC)CCNc1c2c([n+](C)c3ccccc13)-c1cccnc1CCC2 (3D coordinates assigned)
CCN(CC)CCNc1c2c([n+](C)c3ccccc13)-c1cccnc1CCC2 (nonaromatic ring conformer: 103.04267231989132 kcal/mol)

>  <smiles>  (20) 
CCN(CC)CCNc1c2c([n+](C)c3ccccc13)-c1cccnc1CCC2

>  <score_type>  (20) 
oracle

>  <origin>  (20) 
adg

>  <m_score__min__energy>  (20) 
-5.9199999999999999

>  <m_primary>  (20) 
energy

$$$$
20:0
     RDKit          3D

 51 54  0  0  0  0  0  0  0  0999 V2000
    0.5410   21.3000  -34.5590 C   0  0  0  0  0  0  0  0  0  0  0  0
   -0.5300   20.2620  -34.3960 C   0  0  0  0  0  0  0  0  0  0  0  0
   -0.2610   18.9150  -34.7190 C   0  0  0  0  0  0  0  0  0  0  0  0
   -1.2570   17.9410  -34.5860 C   0  0  0  0  0  0  0  0  0  0  0  0
   -2.5170   18.3390  -34.1460 C   0  0  0  0  0  0  0  0  0  0  0  0
   -3.5700   17.5300  -33.9540 N   0  0  0  0  0  0  0  0  0  0  0  0
   -4.5700   18.3330  -33.5220 C   0  0  0  0  0  0  0  0  0  0  0  0
   -4.1720   19.6640  -33.4650 C   0  0  0  0  0  0  0  0  0  0  0  0
   -5.0940   20.6720  -33.0920 C   0  0  0  0  0  0  0  0  0  0  0  0
   -4.7260   22.0750  -33.0460 N   0  0  0  0  0  0  0  0  0  0  0  0
   -3.7850   22.3710  -31.9460 C   0  0  0  0  0  0  0  0  0  0  0  0
   -4.4350   23.1750  -30.8080 C   0  0  0  0  0  0  0  0  0  0  0  0
   -5.3720   24.1850  -31.3470 N   0  0  0  0  0  0  0  0  0  0  0  0
   -6.7580   23.8180  -31.0140 C   0  0  0  0  0  0  0  0  0  0  0  0
   -5.0790   25.5260  -30.8080 C   0  0  0  0  0  0  0  0  0  0  0  0
   -6.4330   20.2560  -32.8050 C   0  0  0  0  0  0  0  0  0  0  0  0
   -7.4360   21.1880  -32.4440 C   0  0  0  0  0  0  0  0  0  0  0  0
   -8.7500   20.7840  -32.2210 C   0  0  0  0  0  0  0  0  0  0  0  0
   -9.1040   19.4510  -32.3600 C   0  0  0  0  0  0  0  0  0  0  0  0
   -8.1430   18.5020  -32.6950 C   0  0  0  0  0  0  0  0  0  0  0  0
   -6.7870   18.8680  -32.8930 C   0  0  0  0  0  0  0  0  0  0  0  0
   -5.8270   17.9150  -33.1810 N   0  0  0  0  0  0  0  0  0  0  0  0
   -6.1350   16.4720  -33.1260 C   0  0  0  0  0  0  0  0  0  0  0  0
   -2.8190   19.6570  -33.8560 C   0  0  0  0  0  0  0  0  0  0  0  0
   -1.8230   20.6430  -33.9740 C   0  0  0  0  0  0  0  0  0  0  0  0
    0.8836   21.6321  -33.5679 H   0  0  0  0  0  0  0  0  0  0  0  0
    1.3874   20.8695  -35.1143 H   0  0  0  0  0  0  0  0  0  0  0  0
    0.1372   22.1594  -35.1143 H   0  0  0  0  0  0  0  0  0  0  0  0
    0.7386   18.6285  -35.0779 H   0  0  0  0  0  0  0  0  0  0  0  0
   -1.0498   16.8870  -34.8231 H   0  0  0  0  0  0  0  0  0  0  0  0
   -3.5820   16.5040  -34.1430 H   0  0  0  0  0  0  0  0  0  0  0  0
   -4.3620   22.4150  -33.9540 H   0  0  0  0  0  0  0  0  0  0  0  0
   -5.5860   22.6560  -32.9260 H   0  0  0  0  0  0  0  0  0  0  0  0
   -3.4122   21.4205  -31.5367 H   0  0  0  0  0  0  0  0  0  0  0  0
   -2.9707   22.9828  -32.3615 H   0  0  0  0  0  0  0  0  0  0  0  0
   -4.9858   22.4873  -30.1495 H   0  0  0  0  0  0  0  0  0  0  0  0
   -3.6440   23.6926  -30.2455 H   0  0  0  0  0  0  0  0  0  0  0  0
   -6.8764   23.7866  -29.9208 H   0  0  0  0  0  0  0  0  0  0  0  0
   -7.4466   24.5648  -31.4361 H   0  0  0  0  0  0  0  0  0  0  0  0
   -6.9868   22.8283  -31.4361 H   0  0  0  0  0  0  0  0  0  0  0  0
   -5.0871   25.4891  -29.7086 H   0  0  0  0  0  0  0  0  0  0  0  0
   -4.0882   25.8529  -31.1566 H   0  0  0  0  0  0  0  0  0  0  0  0
   -5.8431   26.2363  -31.1566 H   0  0  0  0  0  0  0  0  0  0  0  0
   -7.1725   22.2507  -32.3377 H   0  0  0  0  0  0  0  0  0  0  0  0
   -9.5099   21.5256  -31.9335 H   0  0  0  0  0  0  0  0  0  0  0  0
  -10.1483   19.1423  -32.2049 H   0  0  0  0  0  0  0  0  0  0  0  0
   -8.4403   17.4490  -32.8083 H   0  0  0  0  0  0  0  0  0  0  0  0
   -6.2034   16.1514  -32.0760 H   0  0  0  0  0  0  0  0  0  0  0  0
   -7.0939   16.2822  -33.6305 H   0  0  0  0  0  0  0  0  0  0  0  0
   -5.3372   15.9073  -33.6305 H   0  0  0  0  0  0  0  0  0  0  0  0
   -2.0475   21.6944  -33.7413 H   0  0  0  0  0  0  0  0  0  0  0  0
  1  2  1  0
  2  3  2  0
  3  4  1  0
  4  5  2  0
  5  6  1  0
  6  7  1  0
  7  8  2  0
  8  9  1  0
  9 10  1  0
 10 11  1  0
 11 12  1  0
 12 13  1  0
 13 14  1  0
 13 15  1  0
  9 16  2  0
 16 17  1  0
 17 18  2  0
 18 19  1  0
 19 20  2  0
 20 21  1  0
 21 22  2  0
 22 23  1  0
  8 24  1  0
 24 25  2  0
 25  2  1  0
 24  5  1  0
 22  7  1  0
 21 16  1  0
  1 26  1  0
  1 27  1  0
  1 28  1  0
  3 29  1  0
  4 30  1  0
  6 31  1  0
 10 32  1  0
 10 33  1  0
 11 34  1  0
 11 35  1  0
 12 36  1  0
 12 37  1  0
 14 38  1  0
 14 39  1  0
 14 40  1  0
 15 41  1  0
 15 42  1  0
 15 43  1  0
 17 44  1  0
 18 45  1  0
 19 46  1  0
 20 47  1  0
 23 48  1  0
 23 49  1  0
 23 50  1  0
 25 51  1  0
M  CHG  2  10   1  22   1
M  END
>  <UniqueID>  (21) 
20

>  <SMILES>  (21) 
Cc1ccc2[nH]c3c(c([NH2+]CCN(C)C)c4ccccc4[n+]3C)c2c1

>  <Energy>  (21) 
114.64914026453978

>  <Genealogy>  (21) 
Cc1ccc2[nH]c3c(c([NH2+]CCN(C)C)c4ccccc4[n+]3C)c2c1 (protonated)
Cc1ccc2[nH]c3c(c([NH2+]CCN(C)C)c4ccccc4[n+]3C)c2c1 (3D coordinates assigned)
Cc1ccc2[nH]c3c(c([NH2+]CCN(C)C)c4ccccc4[n+]3C)c2c1 (optimized conformer: 114.64914026453978 kcal/mol)

>  <smiles>  (21) 
Cc1ccc2[nH]c3c(c(NCCN(C)C)c4ccccc4[n+]3C)c2c1

>  <score_type>  (21) 
oracle

>  <origin>  (21) 
adg

>  <m_score__min__energy>  (21) 
-8.4000000000000004

>  <m_primary>  (21) 
energy

$$$$
21:0
     RDKit          3D

 32 33  0  0  0  0  0  0  0  0999 V2000
   -5.2540   17.5850  -34.9430 C   0  0  0  0  0  0  0  0  0  0  0  0
   -5.2070   18.9010  -34.1740 C   0  0  0  0  0  0  0  0  0  0  0  0
   -6.5700   19.3750  -33.8920 N   0  0  0  0  0  0  0  0  0  0  0  0
   -7.3530   18.4120  -33.0970 C   0  0  0  0  0  0  0  0  0  0  0  0
   -7.6360   18.9260  -31.6770 C   0  0  0  0  0  0  0  0  0  0  0  0
   -7.9720   20.3500  -31.7140 N   0  0  0  0  0  0  0  0  0  0  0  0
   -9.2020   20.8690  -31.9390 C   0  0  0  0  0  0  0  0  0  0  0  0
   -9.1720   22.2560  -31.8340 C   0  0  0  0  0  0  0  0  0  0  0  0
   -7.8660   22.5700  -31.5200 C   0  0  0  0  0  0  0  0  0  0  0  0
   -7.2700   23.8050  -31.2830 C   0  0  0  0  0  0  0  0  0  0  0  0
   -5.8930   23.8330  -30.9560 C   0  0  0  0  0  0  0  0  0  0  0  0
   -5.2290   25.0850  -30.7010 N   0  0  0  0  0  0  0  0  0  0  0  0
   -5.8820   26.0930  -30.3630 O   0  0  0  0  0  0  0  0  0  0  0  0
   -3.8630   25.1890  -30.8250 O   0  0  0  0  0  0  0  0  0  0  0  0
   -5.1720   22.6130  -30.8790 C   0  0  0  0  0  0  0  0  0  0  0  0
   -5.8060   21.3820  -31.1240 C   0  0  0  0  0  0  0  0  0  0  0  0
   -7.1630   21.3970  -31.4480 C   0  0  0  0  0  0  0  0  0  0  0  0
   -5.2840   16.7459  -34.2323 H   0  0  0  0  0  0  0  0  0  0  0  0
   -6.1535   17.5620  -35.5757 H   0  0  0  0  0  0  0  0  0  0  0  0
   -4.3584   17.4978  -35.5757 H   0  0  0  0  0  0  0  0  0  0  0  0
   -4.6722   18.7481  -33.2250 H   0  0  0  0  0  0  0  0  0  0  0  0
   -4.6849   19.6535  -34.7832 H   0  0  0  0  0  0  0  0  0  0  0  0
   -7.0620   19.5690  -34.7950 H   0  0  0  0  0  0  0  0  0  0  0  0
   -8.3113   18.2295  -33.6052 H   0  0  0  0  0  0  0  0  0  0  0  0
   -6.7634   17.4874  -33.0102 H   0  0  0  0  0  0  0  0  0  0  0  0
   -8.4792   18.3645  -31.2484 H   0  0  0  0  0  0  0  0  0  0  0  0
   -6.7379   18.7845  -31.0578 H   0  0  0  0  0  0  0  0  0  0  0  0
  -10.0993   20.2770  -32.1722 H   0  0  0  0  0  0  0  0  0  0  0  0
  -10.0111   22.9537  -31.9720 H   0  0  0  0  0  0  0  0  0  0  0  0
   -7.8537   24.7351  -31.3481 H   0  0  0  0  0  0  0  0  0  0  0  0
   -4.1021   22.6306  -30.6241 H   0  0  0  0  0  0  0  0  0  0  0  0
   -5.2488   20.4356  -31.0621 H   0  0  0  0  0  0  0  0  0  0  0  0
  1  2  1  0
  2  3  1  0
  3  4  1  0
  4  5  1  0
  5  6  1  0
  6  7  1  0
  7  8  2  0
  8  9  1  0
  9 10  2  0
 10 11  1  0
 11 12  1  0
 12 13  2  0
 12 14  1  0
 11 15  2  0
 15 16  1  0
 16 17  2  0
 17  6  1  0
 17  9  1  0
  1 18  1  0
  1 19  1  0
  1 20  1  0
  2 21  1  0
  2 22  1  0
  3 23  1  0
  4 24  1  0
  4 25  1  0
  5 26  1  0
  5 27  1  0
  7 28  1  0
  8 29  1  0
 10 30  1  0
 15 31  1  0
 16 32  1  0
M  CHG  2  12   1  14  -1
M  END
>  <UniqueID>  (22) 
21

>  <SMILES>  (22) 
CCNCCn1ccc2cc([N+](=O)[O-])ccc21

>  <Energy>  (22) 
62.53403442838312

>  <Genealogy>  (22) 
CCNCCn1ccc2cc([N+](=O)[O-])ccc21 (3D coordinates assigned)
CCNCCn1ccc2cc([N+](=O)[O-])ccc21 (optimized conformer: 62.53403442838312 kcal/mol)

>  <smiles>  (22) 
CCNCCn1ccc2cc([N+](=O)[O-])ccc21

>  <score_type>  (22) 
oracle

>  <origin>  (22) 
adg

>  <m_score__min__energy>  (22) 
-7.7000000000000002

>  <m_primary>  (22) 
energy

$$$$
22:0
     RDKit          3D

 46 48  0  0  0  0  0  0  0  0999 V2000
    0.8150   18.7830  -28.0550 C   0  0  0  0  0  0  0  0  0  0  0  0
    0.6670   20.1970  -27.9710 O   0  0  0  0  0  0  0  0  0  0  0  0
   -0.4420   20.9100  -28.4530 C   0  0  0  0  0  0  0  0  0  0  0  0
   -1.3910   21.4880  -27.5890 C   0  0  0  0  0  0  0  0  0  0  0  0
   -2.4810   22.1900  -28.1060 C   0  0  0  0  0  0  0  0  0  0  0  0
   -2.6490   22.3270  -29.4910 C   0  0  0  0  0  0  0  0  0  0  0  0
   -3.8060   23.0720  -30.0350 C   0  0  0  0  0  0  0  0  0  0  0  0
   -3.6960   24.1720  -30.8090 N   0  0  0  0  0  0  0  0  0  0  0  0
   -4.9170   24.5230  -31.0700 O   0  0  0  0  0  0  0  0  0  0  0  0
   -5.7460   23.6890  -30.4920 C   0  0  0  0  0  0  0  0  0  0  0  0
   -7.2370   23.8020  -30.5620 C   0  0  0  0  0  0  0  0  0  0  0  0
   -7.7710   23.0090  -31.6900 N   0  0  0  0  0  0  0  0  0  0  0  0
   -8.8730   22.1250  -31.2350 C   0  0  0  0  0  0  0  0  0  0  0  0
   -9.2990   21.0720  -32.2750 C   0  0  0  0  0  0  0  0  0  0  0  0
   -8.6240   19.7000  -32.0980 C   0  0  0  0  0  0  0  0  0  0  0  0
   -7.0860   19.6900  -32.2540 C   0  0  0  0  0  0  0  0  0  0  0  0
   -6.3820   20.9140  -31.6390 C   0  0  0  0  0  0  0  0  0  0  0  0
   -6.6870   22.2520  -32.3600 C   0  0  0  0  0  0  0  0  0  0  0  0
   -5.0930   22.7310  -29.8080 N   0  0  0  0  0  0  0  0  0  0  0  0
   -1.7030   21.7500  -30.3550 C   0  0  0  0  0  0  0  0  0  0  0  0
   -0.5990   21.0400  -29.8410 C   0  0  0  0  0  0  0  0  0  0  0  0
    0.3630   20.4520  -30.6780 O   0  0  0  0  0  0  0  0  0  0  0  0
    0.1280   20.0530  -32.0250 C   0  0  0  0  0  0  0  0  0  0  0  0
    0.8595   18.3581  -27.0413 H   0  0  0  0  0  0  0  0  0  0  0  0
   -0.0433   18.3559  -28.5943 H   0  0  0  0  0  0  0  0  0  0  0  0
    1.7432   18.5429  -28.5943 H   0  0  0  0  0  0  0  0  0  0  0  0
   -1.2730   21.3859  -26.5001 H   0  0  0  0  0  0  0  0  0  0  0  0
   -3.2146   22.6397  -27.4207 H   0  0  0  0  0  0  0  0  0  0  0  0
   -7.6714   23.4303  -29.6222 H   0  0  0  0  0  0  0  0  0  0  0  0
   -7.5039   24.8580  -30.7157 H   0  0  0  0  0  0  0  0  0  0  0  0
   -8.5432   21.6003  -30.3262 H   0  0  0  0  0  0  0  0  0  0  0  0
   -9.7465   22.7696  -31.0575 H   0  0  0  0  0  0  0  0  0  0  0  0
  -10.3875   20.9331  -32.1991 H   0  0  0  0  0  0  0  0  0  0  0  0
   -8.9851   21.4538  -33.2577 H   0  0  0  0  0  0  0  0  0  0  0  0
   -8.8648   19.3313  -31.0900 H   0  0  0  0  0  0  0  0  0  0  0  0
   -9.0138   19.0650  -32.9072 H   0  0  0  0  0  0  0  0  0  0  0  0
   -6.6954   18.7854  -31.7651 H   0  0  0  0  0  0  0  0  0  0  0  0
   -6.8772   19.7142  -33.3337 H   0  0  0  0  0  0  0  0  0  0  0  0
   -6.7031   21.0060  -30.5909 H   0  0  0  0  0  0  0  0  0  0  0  0
   -5.3005   20.7402  -31.7400 H   0  0  0  0  0  0  0  0  0  0  0  0
   -5.7755   22.8677  -32.3667 H   0  0  0  0  0  0  0  0  0  0  0  0
   -7.0172   22.0192  -33.3831 H   0  0  0  0  0  0  0  0  0  0  0  0
   -1.8251   21.8534  -31.4433 H   0  0  0  0  0  0  0  0  0  0  0  0
   -0.4302   19.1052  -32.0346 H   0  0  0  0  0  0  0  0  0  0  0  0
   -0.4575   20.8286  -32.5403 H   0  0  0  0  0  0  0  0  0  0  0  0
    1.0903   19.9170  -32.5403 H   0  0  0  0  0  0  0  0  0  0  0  0
  1  2  1  0
  2  3  1  0
  3  4  2  0
  4  5  1  0
  5  6  2  0
  6  7  1  0
  7  8  2  0
  8  9  1  0
  9 10  1  0
 10 11  1  0
 11 12  1  0
 12 13  1  0
 13 14  1  0
 14 15  1  0
 15 16  1  0
 16 17  1  0
 17 18  1  0
 10 19  2  0
  6 20  1  0
 20 21  2  0
 21 22  1  0
 22 23  1  0
 21  3  1  0
 19  7  1  0
 18 12  1  0
  1 24  1  0
  1 25  1  0
  1 26  1  0
  4 27  1  0
  5 28  1  0
 11 29  1  0
 11 30  1  0
 13 31  1  0
 13 32  1  0
 14 33  1  0
 14 34  1  0
 15 35  1  0
 15 36  1  0
 16 37  1  0
 16 38  1  0
 17 39  1  0
 17 40  1  0
 18 41  1  0
 18 42  1  0
 20 43  1  0
 23 44  1  0
 23 45  1  0
 23 46  1  0
M  END
>  <UniqueID>  (23) 
22

>  <SMILES>  (23) 
COc1ccc(-c2noc(CN3CCCCCC3)n2)cc1OC

>  <Energy>  (23) 
88.30529879262818

>  <Genealogy>  (23) 
COc1ccc(-c2noc(CN3CCCCCC3)n2)cc1OC (3D coordinates assigned)
COc1ccc(-c2noc(CN3CCCCCC3)n2)cc1OC (nonaromatic ring conformer: 88.30529879262818 kcal/mol)

>  <smiles>  (23) 
COc1ccc(-c2noc(CN3CCCCCC3)n2)cc1OC

>  <score_type>  (23) 
oracle

>  <origin>  (23) 
adg

>  <m_score__min__energy>  (23) 
-6.25

>  <m_primary>  (23) 
energy

$$$$
23:0
     RDKit          3D

 54 56  0  0  0  0  0  0  0  0999 V2000
   -0.7880   22.8540  -28.5890 C   0  0  0  0  0  0  0  0  0  0  0  0
   -1.0310   22.6020  -30.0730 C   0  0  0  0  0  0  0  0  0  0  0  0
   -2.4240   22.1920  -30.3000 N   0  0  0  0  0  0  0  0  0  0  0  0
   -3.3350   22.6630  -29.2410 C   0  0  0  0  0  0  0  0  0  0  0  0
   -3.8020   24.1040  -29.4730 C   0  0  0  0  0  0  0  0  0  0  0  0
   -3.9630   24.3150  -30.8600 O   0  0  0  0  0  0  0  0  0  0  0  0
   -5.3140   24.1310  -31.2420 C   0  0  0  0  0  0  0  0  0  0  0  0
   -5.4310   23.0690  -32.3370 C   0  0  0  0  0  0  0  0  0  0  0  0
   -4.8570   21.7950  -31.8960 N   0  0  0  0  0  0  0  0  0  0  0  0
   -5.3430   20.5420  -32.4100 C   0  0  0  0  0  0  0  0  0  0  0  0
   -6.7210   20.2610  -32.3500 C   0  0  0  0  0  0  0  0  0  0  0  0
   -7.6400   21.2290  -31.8860 C   0  0  0  0  0  0  0  0  0  0  0  0
   -8.9930   20.9290  -31.7590 C   0  0  0  0  0  0  0  0  0  0  0  0
   -9.4550   19.6590  -32.0790 C   0  0  0  0  0  0  0  0  0  0  0  0
   -8.5730   18.6910  -32.5560 C   0  0  0  0  0  0  0  0  0  0  0  0
   -7.1950   18.9810  -32.7390 C   0  0  0  0  0  0  0  0  0  0  0  0
   -6.3210   18.0440  -33.2540 N   0  0  0  0  0  0  0  0  0  0  0  0
   -6.8490   16.8250  -33.9070 C   0  0  0  0  0  0  0  0  0  0  0  0
   -4.9560   18.2620  -33.2010 C   0  0  0  0  0  0  0  0  0  0  0  0
   -4.0370   17.2190  -33.4640 C   0  0  0  0  0  0  0  0  0  0  0  0
   -2.6700   17.4580  -33.5090 C   0  0  0  0  0  0  0  0  0  0  0  0
   -2.1770   18.7390  -33.3130 C   0  0  0  0  0  0  0  0  0  0  0  0
   -3.0460   19.8000  -33.0070 C   0  0  0  0  0  0  0  0  0  0  0  0
   -2.5470   21.1080  -32.8710 O   0  0  0  0  0  0  0  0  0  0  0  0
   -1.2210   21.5190  -33.1900 C   0  0  0  0  0  0  0  0  0  0  0  0
   -4.4420   19.5490  -32.8650 C   0  0  0  0  0  0  0  0  0  0  0  0
   -1.4302   22.1880  -27.9940 H   0  0  0  0  0  0  0  0  0  0  0  0
    0.2673   22.6545  -28.3512 H   0  0  0  0  0  0  0  0  0  0  0  0
   -1.0258   23.9013  -28.3512 H   0  0  0  0  0  0  0  0  0  0  0  0
   -0.8283   23.5252  -30.6357 H   0  0  0  0  0  0  0  0  0  0  0  0
   -0.3617   21.7982  -30.4134 H   0  0  0  0  0  0  0  0  0  0  0  0
   -2.7440   22.5570  -31.2270 H   0  0  0  0  0  0  0  0  0  0  0  0
   -4.2165   22.0055  -29.2146 H   0  0  0  0  0  0  0  0  0  0  0  0
   -2.7853   22.6370  -28.2885 H   0  0  0  0  0  0  0  0  0  0  0  0
   -4.7615   24.2682  -28.9607 H   0  0  0  0  0  0  0  0  0  0  0  0
   -3.0558   24.8065  -29.0733 H   0  0  0  0  0  0  0  0  0  0  0  0
   -5.8958   23.8102  -30.3653 H   0  0  0  0  0  0  0  0  0  0  0  0
   -5.7020   25.0833  -31.6326 H   0  0  0  0  0  0  0  0  0  0  0  0
   -6.4931   22.9197  -32.5814 H   0  0  0  0  0  0  0  0  0  0  0  0
   -4.8771   23.4154  -33.2220 H   0  0  0  0  0  0  0  0  0  0  0  0
   -3.9430   21.8110  -31.3900 H   0  0  0  0  0  0  0  0  0  0  0  0
   -7.2807   22.2344  -31.6213 H   0  0  0  0  0  0  0  0  0  0  0  0
   -9.6962   21.6974  -31.4053 H   0  0  0  0  0  0  0  0  0  0  0  0
  -10.5208   19.4162  -31.9556 H   0  0  0  0  0  0  0  0  0  0  0  0
   -8.9506   17.6858  -32.7947 H   0  0  0  0  0  0  0  0  0  0  0  0
   -7.1616   16.1032  -33.1380 H   0  0  0  0  0  0  0  0  0  0  0  0
   -7.7130   17.0899  -34.5341 H   0  0  0  0  0  0  0  0  0  0  0  0
   -6.0647   16.3760  -34.5341 H   0  0  0  0  0  0  0  0  0  0  0  0
   -4.4125   16.1995  -33.6361 H   0  0  0  0  0  0  0  0  0  0  0  0
   -1.9750   16.6273  -33.7010 H   0  0  0  0  0  0  0  0  0  0  0  0
   -1.0964   18.9263  -33.3978 H   0  0  0  0  0  0  0  0  0  0  0  0
   -0.6578   21.6936  -32.2614 H   0  0  0  0  0  0  0  0  0  0  0  0
   -0.7247   20.7325  -33.7775 H   0  0  0  0  0  0  0  0  0  0  0  0
   -1.2565   22.4483  -33.7775 H   0  0  0  0  0  0  0  0  0  0  0  0
  1  2  1  0
  2  3  1  0
  3  4  1  0
  4  5  1  0
  5  6  1  0
  6  7  1  0
  7  8  1  0
  8  9  1  0
  9 10  1  0
 10 11  2  0
 11 12  1  0
 12 13  2  0
 13 14  1  0
 14 15  2  0
 15 16  1  0
 16 17  2  0
 17 18  1  0
 17 19  1  0
 19 20  2  0
 20 21  1  0
 21 22  2  0
 22 23  1  0
 23 24  1  0
 24 25  1  0
 23 26  2  0
 26 10  1  0
 16 11  1  0
 26 19  1  0
  1 27  1  0
  1 28  1  0
  1 29  1  0
  2 30  1  0
  2 31  1  0
  3 32  1  0
  4 33  1  0
  4 34  1  0
  5 35  1  0
  5 36  1  0
  7 37  1  0
  7 38  1  0
  8 39  1  0
  8 40  1  0
  9 41  1  0
 12 42  1  0
 13 43  1  0
 14 44  1  0
 15 45  1  0
 18 46  1  0
 18 47  1  0
 18 48  1  0
 20 49  1  0
 21 50  1  0
 22 51  1  0
 25 52  1  0
 25 53  1  0
 25 54  1  0
M  CHG  1  17   1
M  END
>  <UniqueID>  (24) 
23

>  <SMILES>  (24) 
CCNCCOCCNc1c2ccccc2[n+](C)c2cccc(OC)c12

>  <Energy>  (24) 
81.94925769149346

>  <Genealogy>  (24) 
CCNCCOCCNc1c2ccccc2[n+](C)c2cccc(OC)c12 (3D coordinates assigned)
CCNCCOCCNc1c2ccccc2[n+](C)c2cccc(OC)c12 (optimized conformer: 81.94925769149346 kcal/mol)

>  <smiles>  (24) 
CCNCCOCCNc1c2ccccc2[n+](C)c2cccc(OC)c12

>  <score_type>  (24) 
oracle

>  <origin>  (24) 
adg

>  <m_score__min__energy>  (24) 
-8.4199999999999999

>  <m_primary>  (24) 
energy

$$$$
24:0
     RDKit          3D

 36 38  0  0  0  0  0  0  0  0999 V2000
   -5.7360   18.1330  -34.9690 C   0  0  0  0  0  0  0  0  0  0  0  0
   -5.3930   17.5790  -33.5860 C   0  0  0  0  0  0  0  0  0  0  0  0
   -6.6170   16.8740  -32.9780 C   0  0  0  0  0  0  0  0  0  0  0  0
   -4.9200   18.6860  -32.7340 N   0  0  0  0  0  0  0  0  0  0  0  0
   -4.8180   19.9630  -33.4560 C   0  0  0  0  0  0  0  0  0  0  0  0
   -5.4340   21.0850  -32.6450 C   0  0  0  0  0  0  0  0  0  0  0  0
   -4.6070   22.1430  -32.2330 C   0  0  0  0  0  0  0  0  0  0  0  0
   -5.1210   23.2150  -31.5020 C   0  0  0  0  0  0  0  0  0  0  0  0
   -4.2940   24.2240  -31.1180 N   0  0  0  0  0  0  0  0  0  0  0  0
   -4.7450   25.2900  -30.4060 C   0  0  0  0  0  0  0  0  0  0  0  0
   -6.0900   25.3720  -30.0460 C   0  0  0  0  0  0  0  0  0  0  0  0
   -6.9660   24.3530  -30.4240 C   0  0  0  0  0  0  0  0  0  0  0  0
   -6.4900   23.2530  -31.1620 C   0  0  0  0  0  0  0  0  0  0  0  0
   -7.3370   22.2020  -31.5670 C   0  0  0  0  0  0  0  0  0  0  0  0
   -8.6630   22.2270  -31.2490 N   0  0  0  0  0  0  0  0  0  0  0  0
   -9.5180   21.2390  -31.6180 C   0  0  0  0  0  0  0  0  0  0  0  0
   -9.0500   20.1500  -32.3490 C   0  0  0  0  0  0  0  0  0  0  0  0
   -7.7010   20.0840  -32.6960 C   0  0  0  0  0  0  0  0  0  0  0  0
   -6.8140   21.1110  -32.3120 C   0  0  0  0  0  0  0  0  0  0  0  0
   -6.3121   19.0635  -34.8587 H   0  0  0  0  0  0  0  0  0  0  0  0
   -4.8077   18.3398  -35.5217 H   0  0  0  0  0  0  0  0  0  0  0  0
   -6.3350   17.3942  -35.5217 H   0  0  0  0  0  0  0  0  0  0  0  0
   -4.5918   16.8294  -33.6644 H   0  0  0  0  0  0  0  0  0  0  0  0
   -6.5535   16.9106  -31.8804 H   0  0  0  0  0  0  0  0  0  0  0  0
   -7.5348   17.3819  -33.3093 H   0  0  0  0  0  0  0  0  0  0  0  0
   -6.6382   15.8253  -33.3093 H   0  0  0  0  0  0  0  0  0  0  0  0
   -3.9830   18.4520  -32.3280 H   0  0  0  0  0  0  0  0  0  0  0  0
   -3.7577   20.1903  -33.6405 H   0  0  0  0  0  0  0  0  0  0  0  0
   -5.3599   19.8756  -34.4093 H   0  0  0  0  0  0  0  0  0  0  0  0
   -3.5377   22.1263  -32.4905 H   0  0  0  0  0  0  0  0  0  0  0  0
   -4.0483   26.0893  -30.1132 H   0  0  0  0  0  0  0  0  0  0  0  0
   -6.4577   26.2331  -29.4686 H   0  0  0  0  0  0  0  0  0  0  0  0
   -8.0285   24.4097  -30.1451 H   0  0  0  0  0  0  0  0  0  0  0  0
  -10.5805   21.2987  -31.3395 H   0  0  0  0  0  0  0  0  0  0  0  0
   -9.7395   19.3477  -32.6505 H   0  0  0  0  0  0  0  0  0  0  0  0
   -7.3264   19.2256  -33.2728 H   0  0  0  0  0  0  0  0  0  0  0  0
  1  2  1  0
  2  3  1  0
  2  4  1  0
  4  5  1  0
  5  6  1  0
  6  7  2  0
  7  8  1  0
  8  9  2  0
  9 10  1  0
 10 11  2  0
 11 12  1  0
 12 13  2  0
 13 14  1  0
 14 15  2  0
 15 16  1  0
 16 17  2  0
 17 18  1  0
 18 19  2  0
 19  6  1  0
 13  8  1  0
 19 14  1  0
  1 20  1  0
  1 21  1  0
  1 22  1  0
  2 23  1  0
  3 24  1  0
  3 25  1  0
  3 26  1  0
  4 27  1  0
  5 28  1  0
  5 29  1  0
  7 30  1  0
 10 31  1  0
 11 32  1  0
 12 33  1  0
 16 34  1  0
 17 35  1  0
 18 36  1  0
M  END
>  <UniqueID>  (25) 
24

>  <SMILES>  (25) 
CC(C)NCc1cc2ncccc2c2ncccc12

>  <Energy>  (25) 
44.5826317441672

>  <Genealogy>  (25) 
CC(C)NCc1cc2ncccc2c2ncccc12 (3D coordinates assigned)
CC(C)NCc1cc2ncccc2c2ncccc12 (optimized conformer: 44.5826317441672 kcal/mol)

>  <smiles>  (25) 
CC(C)NCc1cc2ncccc2c2ncccc12

>  <score_type>  (25) 
oracle

>  <origin>  (25) 
adg

>  <m_score__min__energy>  (25) 
-8.2400000000000002

>  <m_primary>  (25) 
energy

$$$$
