0:0
     RDKit          3D

 42 44  0  0  1  0  0  0  0  0999 V2000
   -2.1990   19.3240  -33.8910 C   0  0  0  0  0  0  0  0  0  0  0  0
   -2.0460   20.3250  -32.7850 C   0  0  0  0  0  0  0  0  0  0  0  0
   -0.9680   20.2150  -31.9150 C   0  0  0  0  0  0  0  0  0  0  0  0
   -0.8430   21.1480  -30.8990 C   0  0  0  0  0  0  0  0  0  0  0  0
   -1.7690   22.1810  -30.7440 C   0  0  0  0  0  0  0  0  0  0  0  0
   -1.6170   23.1600  -29.6580 C   0  0  0  0  0  0  0  0  0  0  0  0
   -2.8430   22.2940  -31.6080 C   0  0  0  0  0  0  0  0  0  0  0  0
   -3.7990   23.2780  -31.5260 O   0  0  0  0  0  0  0  0  0  0  0  0
   -5.1520   23.0880  -31.4270 C   0  0  0  0  0  0  0  0  0  0  0  0
   -5.8500   22.1670  -32.1160 N   0  0  0  0  0  0  0  0  0  0  0  0
   -7.1770   22.0480  -31.9580 C   0  0  0  0  0  0  0  0  0  0  0  0
   -7.7860   21.1520  -32.6420 N   0  0  0  0  0  0  0  0  0  0  0  0
   -7.2950   19.8250  -32.8300 C   0  0  0  0  0  0  0  0  0  0  0  0
   -7.7100   18.7650  -32.0520 C   0  0  0  0  0  0  0  0  0  0  0  0
   -7.1830   17.4960  -32.2970 C   0  0  0  0  0  0  0  0  0  0  0  0
   -6.2560   17.3190  -33.3120 C   0  0  0  0  0  0  0  0  0  0  0  0
   -5.8300   18.3640  -34.0990 C   0  0  0  0  0  0  0  0  0  0  0  0
   -4.9150   18.1790  -35.0970 F   0  0  0  0  0  0  0  0  0  0  0  0
   -6.3600   19.6150  -33.8440 C   0  0  0  0  0  0  0  0  0  0  0  0
   -7.8940   22.8180  -31.1220 N   0  0  0  0  0  0  0  0  0  0  0  0
   -7.2380   23.7510  -30.4130 C   0  0  0  0  0  0  0  0  0  0  0  0
   -5.8560   23.8980  -30.5570 C   0  0  0  0  0  0  0  0  0  0  0  0
   -5.1530   24.9420  -29.7590 C   0  0  0  0  0  0  0  0  0  0  0  0
   -4.2620   25.6250  -30.5390 F   0  0  0  0  0  0  0  0  0  0  0  0
   -6.1010   25.8140  -29.2800 F   0  0  0  0  0  0  0  0  0  0  0  0
   -4.4300   24.3140  -28.7760 F   0  0  0  0  0  0  0  0  0  0  0  0
   -2.9620   21.3560  -32.6220 C   0  0  0  0  0  0  0  0  0  0  0  0
   -2.3520   18.3231  -33.4611 H   0  0  0  0  0  0  0  0  0  0  0  0
   -3.0665   19.5930  -34.5116 H   0  0  0  0  0  0  0  0  0  0  0  0
   -1.2908   19.3216  -34.5116 H   0  0  0  0  0  0  0  0  0  0  0  0
   -0.2315   19.4062  -32.0305 H   0  0  0  0  0  0  0  0  0  0  0  0
    0.0031   21.0735  -30.2001 H   0  0  0  0  0  0  0  0  0  0  0  0
   -1.6966   22.6471  -28.6882 H   0  0  0  0  0  0  0  0  0  0  0  0
   -0.6328   23.6449  -29.7366 H   0  0  0  0  0  0  0  0  0  0  0  0
   -2.4078   23.9205  -29.7366 H   0  0  0  0  0  0  0  0  0  0  0  0
   -8.4464   18.9174  -31.2492 H   0  0  0  0  0  0  0  0  0  0  0  0
   -7.5025   16.6388  -31.6862 H   0  0  0  0  0  0  0  0  0  0  0  0
   -5.8489   16.3134  -33.4937 H   0  0  0  0  0  0  0  0  0  0  0  0
   -6.0356   20.4685  -34.4575 H   0  0  0  0  0  0  0  0  0  0  0  0
   -8.9350   22.6820  -31.0360 H   0  0  0  0  0  0  0  0  0  0  0  0
   -7.7897   24.4007  -29.7176 H   0  0  0  0  0  0  0  0  0  0  0  0
   -3.8091   21.4308  -33.3197 H   0  0  0  0  0  0  0  0  0  0  0  0
  1  2  1  0
  2  3  2  0
  3  4  1  0
  4  5  2  0
  5  6  1  0
  5  7  1  0
  7  8  1  0
  8  9  1  0
  9 10  2  0
 10 11  1  0
 11 12  2  0
 12 13  1  0
 13 14  2  0
 14 15  1  0
 15 16  2  0
 16 17  1  0
 17 18  1  0
 17 19  2  0
 11 20  1  0
 20 21  1  0
 21 22  2  0
 22 23  1  0
 23 24  1  0
 23 25  1  0
 23 26  1  0
  7 27  2  0
 27  2  1  0
 22  9  1  0
 19 13  1  0
  1 28  1  0
  1 29  1  0
  1 30  1  0
  3 31  1  0
  4 32  1  0
  6 33  1  0
  6 34  1  0
  6 35  1  0
 14 36  1  0
 15 37  1  0
 16 38  1  0
 19 39  1  0
 20 40  1  0
 21 41  1  0
 27 42  1  0
M  END
>  <smiles>  (1) 
Cc1ccc(C)c(Oc2nc(=Nc3cccc(F)c3)[nH]cc2C(F)(F)F)c1

>  <score_type>  (1) 
oracle

>  <origin>  (1) 
adg

>  <m_score__min__energy>  (1) 
-7.79

>  <m_primary>  (1) 
energy

$$$$
1:0
     RDKit          3D

 58 60  0  0  0  0  0  0  0  0999 V2000
    0.3030   24.8770  -36.3220 C   0  0  0  0  0  0  0  0  0  0  0  0
    1.3280   23.9220  -35.7190 C   0  0  0  0  0  0  0  0  0  0  0  0
    0.7160   22.6950  -35.3690 O   0  0  0  0  0  0  0  0  0  0  0  0
    0.8740   21.7240  -36.3900 C   0  0  0  0  0  0  0  0  0  0  0  0
    1.8050   20.6090  -35.9200 C   0  0  0  0  0  0  0  0  0  0  0  0
    1.4240   20.1880  -34.6270 O   0  0  0  0  0  0  0  0  0  0  0  0
    0.4400   19.1750  -34.7030 C   0  0  0  0  0  0  0  0  0  0  0  0
   -0.9570   19.7380  -34.3900 C   0  0  0  0  0  0  0  0  0  0  0  0
   -0.9200   21.1670  -34.0060 N   0  0  0  0  0  0  0  0  0  0  0  0
   -1.8320   21.4940  -32.8910 C   0  0  0  0  0  0  0  0  0  0  0  0
   -3.1290   20.6650  -32.9190 C   0  0  0  0  0  0  0  0  0  0  0  0
   -4.2770   21.4740  -33.3250 N   0  0  0  0  0  0  0  0  0  0  0  0
   -5.4940   21.4420  -32.5630 C   0  0  0  0  0  0  0  0  0  0  0  0
   -5.8100   22.4990  -31.6950 C   0  0  0  0  0  0  0  0  0  0  0  0
   -4.9270   23.5880  -31.5330 C   0  0  0  0  0  0  0  0  0  0  0  0
   -5.2180   24.6100  -30.6320 C   0  0  0  0  0  0  0  0  0  0  0  0
   -6.3820   24.5590  -29.8740 C   0  0  0  0  0  0  0  0  0  0  0  0
   -7.2780   23.5020  -30.0340 C   0  0  0  0  0  0  0  0  0  0  0  0
   -7.0330   22.4700  -30.9740 C   0  0  0  0  0  0  0  0  0  0  0  0
   -7.9400   21.4480  -31.1880 N   0  0  0  0  0  0  0  0  0  0  0  0
   -9.3240   21.5660  -30.6740 C   0  0  0  0  0  0  0  0  0  0  0  0
   -7.5630   20.3280  -31.9060 C   0  0  0  0  0  0  0  0  0  0  0  0
   -8.3560   19.1510  -31.9260 C   0  0  0  0  0  0  0  0  0  0  0  0
   -7.9790   18.0420  -32.6810 C   0  0  0  0  0  0  0  0  0  0  0  0
   -6.8000   18.0640  -33.4170 C   0  0  0  0  0  0  0  0  0  0  0  0
   -5.9800   19.1880  -33.3860 C   0  0  0  0  0  0  0  0  0  0  0  0
   -6.3420   20.3230  -32.6300 C   0  0  0  0  0  0  0  0  0  0  0  0
   -0.2434   25.3861  -35.5144 H   0  0  0  0  0  0  0  0  0  0  0  0
    0.8188   25.6240  -36.9433 H   0  0  0  0  0  0  0  0  0  0  0  0
   -0.4057   24.3097  -36.9433 H   0  0  0  0  0  0  0  0  0  0  0  0
    2.1234   23.7329  -36.4549 H   0  0  0  0  0  0  0  0  0  0  0  0
    1.7511   24.3799  -34.8127 H   0  0  0  0  0  0  0  0  0  0  0  0
   -0.1082   21.2960  -36.6391 H   0  0  0  0  0  0  0  0  0  0  0  0
    1.3109   22.2052  -37.2775 H   0  0  0  0  0  0  0  0  0  0  0  0
    1.7395   19.7596  -36.6158 H   0  0  0  0  0  0  0  0  0  0  0  0
    2.8390   20.9833  -35.8927 H   0  0  0  0  0  0  0  0  0  0  0  0
    0.4378   18.7512  -35.7181 H   0  0  0  0  0  0  0  0  0  0  0  0
    0.6788   18.3985  -33.9614 H   0  0  0  0  0  0  0  0  0  0  0  0
   -1.5893   19.6292  -35.2835 H   0  0  0  0  0  0  0  0  0  0  0  0
   -1.3611   19.1733  -33.5369 H   0  0  0  0  0  0  0  0  0  0  0  0
    0.0600   21.4240  -33.7490 H   0  0  0  0  0  0  0  0  0  0  0  0
   -1.1720   21.7680  -34.8260 H   0  0  0  0  0  0  0  0  0  0  0  0
   -1.3109   21.2995  -31.9420 H   0  0  0  0  0  0  0  0  0  0  0  0
   -2.1131   22.5526  -32.9924 H   0  0  0  0  0  0  0  0  0  0  0  0
   -3.0071   19.8357  -33.6313 H   0  0  0  0  0  0  0  0  0  0  0  0
   -3.3171   20.2867  -31.9034 H   0  0  0  0  0  0  0  0  0  0  0  0
   -4.2910   21.9360  -34.2610 H   0  0  0  0  0  0  0  0  0  0  0  0
   -4.0001   23.6303  -32.1238 H   0  0  0  0  0  0  0  0  0  0  0  0
   -4.5261   25.4579  -30.5204 H   0  0  0  0  0  0  0  0  0  0  0  0
   -6.5973   25.3547  -29.1456 H   0  0  0  0  0  0  0  0  0  0  0  0
   -8.1902   23.4689  -29.4202 H   0  0  0  0  0  0  0  0  0  0  0  0
   -9.3080   21.5646  -29.5741 H   0  0  0  0  0  0  0  0  0  0  0  0
   -9.7696   22.5054  -31.0331 H   0  0  0  0  0  0  0  0  0  0  0  0
   -9.9222   20.7156  -31.0331 H   0  0  0  0  0  0  0  0  0  0  0  0
   -9.2835   19.1136  -31.3358 H   0  0  0  0  0  0  0  0  0  0  0  0
   -8.6168   17.1459  -32.6946 H   0  0  0  0  0  0  0  0  0  0  0  0
   -6.5149   17.1923  -34.0244 H   0  0  0  0  0  0  0  0  0  0  0  0
   -5.0397   19.1916  -33.9569 H   0  0  0  0  0  0  0  0  0  0  0  0
  1  2  1  0
  2  3  1  0
  3  4  1  0
  4  5  1  0
  5  6  1  0
  6  7  1  0
  7  8  1  0
  8  9  1  0
  9 10  1  0
 10 11  1  0
 11 12  1  0
 12 13  1  0
 13 14  2  0
 14 15  1  0
 15 16  2  0
 16 17  1  0
 17 18  2  0
 18 19  1  0
 19 20  2  0
 20 21  1  0
 20 22  1  0
 22 23  2  0
 23 24  1  0
 24 25  2  0
 25 26  1  0
 26 27  2  0
 27 13  1  0
 19 14  1  0
 27 22  1  0
  1 28  1  0
  1 29  1  0
  1 30  1  0
  2 31  1  0
  2 32  1  0
  4 33  1  0
  4 34  1  0
  5 35  1  0
  5 36  1  0
  7 37  1  0
  7 38  1  0
  8 39  1  0
  8 40  1  0
  9 41  1  0
  9 42  1  0
 10 43  1  0
 10 44  1  0
 11 45  1  0
 11 46  1  0
 12 47  1  0
 15 48  1  0
 16 49  1  0
 17 50  1  0
 18 51  1  0
 21 52  1  0
 21 53  1  0
 21 54  1  0
 23 55  1  0
 24 56  1  0
 25 57  1  0
 26 58  1  0
M  CHG  2   9   1  20   1
M  END
>  <UniqueID>  (2) 
1

>  <SMILES>  (2) 
CCOCCOCC[NH2+]CCNc1c2ccccc2[n+](C)c2ccccc12

>  <Energy>  (2) 
85.23794177324645

>  <Genealogy>  (2) 
CCOCCOCC[NH2+]CCNc1c2ccccc2[n+](C)c2ccccc12 (protonated)
CCOCCOCC[NH2+]CCNc1c2ccccc2[n+](C)c2ccccc12 (3D coordinates assigned)
CCOCCOCC[NH2+]CCNc1c2ccccc2[n+](C)c2ccccc12 (optimized conformer: 85.23794177324645 kcal/mol)

>  <smiles>  (2) 
CCOCCOCCNCCNc1c2ccccc2[n+](C)c2ccccc12

>  <score_type>  (2) 
oracle

>  <origin>  (2) 
adg

>  <m_score__min__energy>  (2) 
-7.6600000000000001

>  <m_primary>  (2) 
energy

$$$$
2:0
     RDKit          3D

 34 35  0  0  0  0  0  0  0  0999 V2000
   -9.7279   20.3218  -31.9181 H   0  0  0  0  0  0  0  0  0  0  0  0
   -8.8090   20.9190  -32.0130 C   0  0  0  0  0  0  0  0  0  0  0  0
   -7.6560   20.3460  -32.5590 C   0  0  0  0  0  0  0  0  0  0  0  0
   -7.6676   19.2978  -32.8925 H   0  0  0  0  0  0  0  0  0  0  0  0
   -6.4880   21.1060  -32.6810 C   0  0  0  0  0  0  0  0  0  0  0  0
   -5.5831   20.6526  -33.1119 H   0  0  0  0  0  0  0  0  0  0  0  0
   -6.4640   22.4400  -32.2580 C   0  0  0  0  0  0  0  0  0  0  0  0
   -5.2800   23.1680  -32.3940 O   0  0  0  0  0  0  0  0  0  0  0  0
   -4.0790   22.7080  -31.8950 N   0  0  0  0  0  0  0  0  0  0  0  0
   -3.6940   22.9640  -30.6810 C   0  0  0  0  0  0  0  0  0  0  0  0
   -2.3500   22.4730  -30.2220 C   0  0  0  0  0  0  0  0  0  0  0  0
   -1.7252   22.2610  -31.1021 H   0  0  0  0  0  0  0  0  0  0  0  0
   -2.4967   21.5618  -29.6234 H   0  0  0  0  0  0  0  0  0  0  0  0
   -1.6470   23.5220  -29.3490 C   0  0  0  0  0  0  0  0  0  0  0  0
   -1.2702   24.3195  -30.0062 H   0  0  0  0  0  0  0  0  0  0  0  0
   -0.8458   22.9951  -28.8101 H   0  0  0  0  0  0  0  0  0  0  0  0
   -2.5520   24.1700  -28.2710 C   0  0  0  0  0  0  0  0  0  0  0  0
   -2.5723   25.2561  -28.4441 H   0  0  0  0  0  0  0  0  0  0  0  0
   -2.1224   23.9040  -27.2939 H   0  0  0  0  0  0  0  0  0  0  0  0
   -4.0000   23.6530  -28.2750 C   0  0  0  0  0  0  0  0  0  0  0  0
   -4.6084   24.3021  -27.6281 H   0  0  0  0  0  0  0  0  0  0  0  0
   -3.9864   22.6161  -27.9081 H   0  0  0  0  0  0  0  0  0  0  0  0
   -4.6180   23.6430  -29.6880 C   0  0  1  0  0  0  0  0  0  0  0  0
   -5.5419   23.0465  -29.6627 H   0  0  0  0  0  0  0  0  0  0  0  0
   -5.0200   25.0430  -30.1160 C   0  0  0  0  0  0  0  0  0  0  0  0
   -4.2620   25.6780  -30.8330 O   0  0  0  0  0  0  0  0  0  0  0  0
   -6.3310   25.6720  -29.7300 C   0  0  0  0  0  0  0  0  0  0  0  0
   -6.4106   25.7102  -28.6335 H   0  0  0  0  0  0  0  0  0  0  0  0
   -6.3820   26.6926  -30.1371 H   0  0  0  0  0  0  0  0  0  0  0  0
   -7.1590   25.0731  -30.1371 H   0  0  0  0  0  0  0  0  0  0  0  0
   -7.6260   23.0110  -31.7080 C   0  0  0  0  0  0  0  0  0  0  0  0
   -7.6164   24.0582  -31.3715 H   0  0  0  0  0  0  0  0  0  0  0  0
   -8.7940   22.2500  -31.5880 C   0  0  0  0  0  0  0  0  0  0  0  0
   -9.7013   22.7000  -31.1587 H   0  0  0  0  0  0  0  0  0  0  0  0
  1  2  1  0
  2  3  2  0
  3  4  1  0
  3  5  1  0
  5  6  1  0
  5  7  2  0
  7  8  1  0
  8  9  1  0
  9 10  2  0
 10 11  1  0
 11 12  1  0
 11 13  1  0
 11 14  1  0
 14 15  1  0
 14 16  1  0
 14 17  1  0
 17 18  1  0
 17 19  1  0
 17 20  1  0
 20 21  1  0
 20 22  1  0
 20 23  1  0
 23 24  1  1
 23 25  1  0
 25 26  2  0
 25 27  1  0
 27 28  1  0
 27 29  1  0
 27 30  1  0
  7 31  1  0
 31 32  1  0
 31 33  2  0
 33 34  1  0
 33  2  1  0
 23 10  1  0
M  END
>  <UniqueID>  (3) 
2

>  <SMILES>  (3) 
CC(=O)[C@@H]1CCCC/C1=N/Oc1ccccc1

>  <Energy>  (3) 
31.39218667471056

>  <Genealogy>  (3) 
CC(=O)[C@@H]1CCCCC1=NOc1ccccc1 (chirality)
CC(=O)[C@@H]1CCCC/C1=N/Oc1ccccc1 (cis-trans isomerization)
CC(=O)[C@@H]1CCCC/C1=N/Oc1ccccc1 (3D coordinates assigned)
CC(=O)[C@@H]1CCCC/C1=N/Oc1ccccc1 (nonaromatic ring conformer: 31.39218667471056 kcal/mol)

>  <smiles>  (3) 
CC(=O)C1CCCCC1=NOc1ccccc1

>  <score_type>  (3) 
oracle

>  <origin>  (3) 
adg

>  <m_score__min__energy>  (3) 
-7.71

>  <m_primary>  (3) 
energy

$$$$
3:0
     RDKit          3D

 50 52  0  0  0  0  0  0  0  0999 V2000
   -6.1160   17.3860  -31.2620 C   0  0  0  0  0  0  0  0  0  0  0  0
   -5.2390   16.7620  -32.3530 C   0  0  0  0  0  0  0  0  0  0  0  0
   -4.5210   17.7420  -33.2090 N   0  0  0  0  0  0  0  0  0  0  0  0
   -4.9930   17.7450  -34.6250 C   0  0  0  0  0  0  0  0  0  0  0  0
   -6.0800   18.7800  -34.9680 C   0  0  0  0  0  0  0  0  0  0  0  0
   -3.0460   17.6800  -33.0230 C   0  0  0  0  0  0  0  0  0  0  0  0
   -2.3990   19.0860  -33.0420 C   0  0  0  0  0  0  0  0  0  0  0  0
   -3.3480   20.1670  -33.3600 N   0  0  0  0  0  0  0  0  0  0  0  0
   -2.8350   21.5350  -33.1640 C   0  0  0  0  0  0  0  0  0  0  0  0
   -2.9060   22.0110  -31.6960 C   0  0  0  0  0  0  0  0  0  0  0  0
   -4.1840   22.7460  -31.3820 C   0  0  0  0  0  0  0  0  0  0  0  0
   -4.1350   24.0310  -30.9160 N   0  0  0  0  0  0  0  0  0  0  0  0
   -5.2620   24.7670  -30.6620 C   0  0  0  0  0  0  0  0  0  0  0  0
   -6.5360   24.2170  -30.8770 C   0  0  0  0  0  0  0  0  0  0  0  0
   -6.5870   22.9040  -31.3320 C   0  0  0  0  0  0  0  0  0  0  0  0
   -5.4470   22.1700  -31.5730 C   0  0  0  0  0  0  0  0  0  0  0  0
   -5.7420   20.9220  -32.0020 N   0  0  0  0  0  0  0  0  0  0  0  0
   -7.0920   20.8810  -32.0360 C   0  0  0  0  0  0  0  0  0  0  0  0
   -7.8930   19.8060  -32.4200 C   0  0  0  0  0  0  0  0  0  0  0  0
   -9.2890   19.9790  -32.3850 C   0  0  0  0  0  0  0  0  0  0  0  0
   -9.8510   21.2070  -31.9720 C   0  0  0  0  0  0  0  0  0  0  0  0
   -9.0240   22.2790  -31.5880 C   0  0  0  0  0  0  0  0  0  0  0  0
   -7.6460   22.0790  -31.6330 C   0  0  0  0  0  0  0  0  0  0  0  0
   -5.7243   17.1073  -30.2726 H   0  0  0  0  0  0  0  0  0  0  0  0
   -6.1059   18.4811  -31.3652 H   0  0  0  0  0  0  0  0  0  0  0  0
   -7.1473   17.0175  -31.3652 H   0  0  0  0  0  0  0  0  0  0  0  0
   -4.4906   16.1200  -31.8654 H   0  0  0  0  0  0  0  0  0  0  0  0
   -5.9177   16.2076  -33.0178 H   0  0  0  0  0  0  0  0  0  0  0  0
   -4.8180   18.6690  -32.8170 H   0  0  0  0  0  0  0  0  0  0  0  0
   -4.1239   17.9424  -35.2698 H   0  0  0  0  0  0  0  0  0  0  0  0
   -5.4567   16.7607  -34.7869 H   0  0  0  0  0  0  0  0  0  0  0  0
   -6.5062   19.1858  -34.0387 H   0  0  0  0  0  0  0  0  0  0  0  0
   -5.6359   19.5973  -35.5552 H   0  0  0  0  0  0  0  0  0  0  0  0
   -6.8745   18.2964  -35.5552 H   0  0  0  0  0  0  0  0  0  0  0  0
   -2.8299   17.2028  -32.0558 H   0  0  0  0  0  0  0  0  0  0  0  0
   -2.6228   17.1002  -33.8565 H   0  0  0  0  0  0  0  0  0  0  0  0
   -1.9666   19.2834  -32.0500 H   0  0  0  0  0  0  0  0  0  0  0  0
   -1.6380   19.0805  -33.8362 H   0  0  0  0  0  0  0  0  0  0  0  0
   -3.6270   20.0680  -34.3640 H   0  0  0  0  0  0  0  0  0  0  0  0
   -1.7847   21.5638  -33.4897 H   0  0  0  0  0  0  0  0  0  0  0  0
   -3.4718   22.2091  -33.7557 H   0  0  0  0  0  0  0  0  0  0  0  0
   -2.8348   21.1326  -31.0378 H   0  0  0  0  0  0  0  0  0  0  0  0
   -2.0728   22.7107  -31.5338 H   0  0  0  0  0  0  0  0  0  0  0  0
   -5.1683   25.7968  -30.2867 H   0  0  0  0  0  0  0  0  0  0  0  0
   -7.4518   24.7982  -30.6939 H   0  0  0  0  0  0  0  0  0  0  0  0
   -5.0810   20.1520  -32.2510 H   0  0  0  0  0  0  0  0  0  0  0  0
   -7.4475   18.8526  -32.7402 H   0  0  0  0  0  0  0  0  0  0  0  0
   -9.9485   19.1503  -32.6820 H   0  0  0  0  0  0  0  0  0  0  0  0
  -10.9443   21.3266  -31.9503 H   0  0  0  0  0  0  0  0  0  0  0  0
   -9.4502   23.2400  -31.2641 H   0  0  0  0  0  0  0  0  0  0  0  0
  1  2  1  0
  2  3  1  0
  3  4  1  0
  4  5  1  0
  3  6  1  0
  6  7  1  0
  7  8  1  0
  8  9  1  0
  9 10  1  0
 10 11  1  0
 11 12  2  0
 12 13  1  0
 13 14  2  0
 14 15  1  0
 15 16  2  0
 16 17  1  0
 17 18  1  0
 18 19  2  0
 19 20  1  0
 20 21  2  0
 21 22  1  0
 22 23  2  0
 16 11  1  0
 23 18  1  0
 23 15  1  0
  1 24  1  0
  1 25  1  0
  1 26  1  0
  2 27  1  0
  2 28  1  0
  3 29  1  0
  4 30  1  0
  4 31  1  0
  5 32  1  0
  5 33  1  0
  5 34  1  0
  6 35  1  0
  6 36  1  0
  7 37  1  0
  7 38  1  0
  8 39  1  0
  9 40  1  0
  9 41  1  0
 10 42  1  0
 10 43  1  0
 13 44  1  0
 14 45  1  0
 17 46  1  0
 19 47  1  0
 20 48  1  0
 21 49  1  0
 22 50  1  0
M  CHG  1   3   1
M  END
>  <UniqueID>  (4) 
3

>  <SMILES>  (4) 
CC[NH+](CC)CCNCCc1nccc2c1[nH]c1ccccc12

>  <Energy>  (4) 
99.71447772987052

>  <Genealogy>  (4) 
CC[NH+](CC)CCNCCc1nccc2c1[nH]c1ccccc12 (protonated)
CC[NH+](CC)CCNCCc1nccc2c1[nH]c1ccccc12 (3D coordinates assigned)
CC[NH+](CC)CCNCCc1nccc2c1[nH]c1ccccc12 (optimized conformer: 99.71447772987052 kcal/mol)

>  <smiles>  (4) 
CCN(CC)CCNCCc1nccc2c1[nH]c1ccccc12

>  <score_type>  (4) 
oracle

>  <origin>  (4) 
adg

>  <m_score__min__energy>  (4) 
-7.2199999999999998

>  <m_primary>  (4) 
energy

$$$$
4:0
     RDKit          3D

 37 39  0  0  0  0  0  0  0  0999 V2000
   -6.4850   25.6670  -29.3830 C   0  0  0  0  0  0  0  0  0  0  0  0
   -5.3150   25.3680  -30.3120 C   0  0  0  0  0  0  0  0  0  0  0  0
   -4.9370   23.9530  -30.2400 N   0  0  0  0  0  0  0  0  0  0  0  0
   -5.6880   22.8700  -30.5840 C   0  0  0  0  0  0  0  0  0  0  0  0
   -7.4020   22.9540  -31.1200 S   0  0  0  0  0  0  0  0  0  0  0  0
   -7.1330   22.0780  -32.7030 C   0  0  0  0  0  0  0  0  0  0  0  0
   -7.3420   20.5930  -32.5590 C   0  0  0  0  0  0  0  0  0  0  0  0
   -8.5650   20.0800  -32.0820 C   0  0  0  0  0  0  0  0  0  0  0  0
   -9.5850   20.9120  -31.7470 F   0  0  0  0  0  0  0  0  0  0  0  0
   -8.7430   18.7000  -31.9430 C   0  0  0  0  0  0  0  0  0  0  0  0
   -7.7090   17.8220  -32.2770 C   0  0  0  0  0  0  0  0  0  0  0  0
   -6.4960   18.3200  -32.7560 C   0  0  0  0  0  0  0  0  0  0  0  0
   -6.3090   19.6980  -32.9010 C   0  0  0  0  0  0  0  0  0  0  0  0
   -5.1250   20.1610  -33.3740 F   0  0  0  0  0  0  0  0  0  0  0  0
   -5.0110   21.6950  -30.5140 N   0  0  0  0  0  0  0  0  0  0  0  0
   -3.7970   22.0780  -30.0830 C   0  0  0  0  0  0  0  0  0  0  0  0
   -2.6940   21.2810  -29.8330 C   0  0  0  0  0  0  0  0  0  0  0  0
   -1.5500   21.8970  -29.4160 N   0  0  0  0  0  0  0  0  0  0  0  0
   -1.4710   23.2280  -29.2480 N   0  0  0  0  0  0  0  0  0  0  0  0
   -0.2040   23.8040  -28.7990 C   0  0  0  0  0  0  0  0  0  0  0  0
   -2.5570   24.0350  -29.4950 C   0  0  0  0  0  0  0  0  0  0  0  0
   -2.4840   25.2850  -29.3420 O   0  0  0  0  0  0  0  0  0  0  0  0
   -3.7410   23.4230  -29.9170 C   0  0  0  0  0  0  0  0  0  0  0  0
   -6.1539   25.5824  -28.3374 H   0  0  0  0  0  0  0  0  0  0  0  0
   -6.8505   26.6874  -29.5704 H   0  0  0  0  0  0  0  0  0  0  0  0
   -7.2953   24.9471  -29.5704 H   0  0  0  0  0  0  0  0  0  0  0  0
   -5.6043   25.6112  -31.3450 H   0  0  0  0  0  0  0  0  0  0  0  0
   -4.4542   25.9777  -30.0000 H   0  0  0  0  0  0  0  0  0  0  0  0
   -7.8400   22.4669  -33.4506 H   0  0  0  0  0  0  0  0  0  0  0  0
   -6.0932   22.2496  -33.0182 H   0  0  0  0  0  0  0  0  0  0  0  0
   -9.6994   18.3049  -31.5698 H   0  0  0  0  0  0  0  0  0  0  0  0
   -7.8508   16.7372  -32.1624 H   0  0  0  0  0  0  0  0  0  0  0  0
   -5.6846   17.6259  -33.0203 H   0  0  0  0  0  0  0  0  0  0  0  0
   -2.7377   20.1899  -29.9656 H   0  0  0  0  0  0  0  0  0  0  0  0
   -0.1762   23.8166  -27.6994 H   0  0  0  0  0  0  0  0  0  0  0  0
    0.6303   23.1967  -29.1799 H   0  0  0  0  0  0  0  0  0  0  0  0
   -0.1131   24.8319  -29.1799 H   0  0  0  0  0  0  0  0  0  0  0  0
  1  2  1  0
  2  3  1  0
  3  4  1  0
  4  5  1  0
  5  6  1  0
  6  7  1  0
  7  8  2  0
  8  9  1  0
  8 10  1  0
 10 11  2  0
 11 12  1  0
 12 13  2  0
 13 14  1  0
  4 15  2  0
 15 16  1  0
 16 17  1  0
 17 18  2  0
 18 19  1  0
 19 20  1  0
 19 21  1  0
 21 22  2  0
 21 23  1  0
 23  3  1  0
 13  7  1  0
 23 16  2  0
  1 24  1  0
  1 25  1  0
  1 26  1  0
  2 27  1  0
  2 28  1  0
  6 29  1  0
  6 30  1  0
 10 31  1  0
 11 32  1  0
 12 33  1  0
 17 34  1  0
 20 35  1  0
 20 36  1  0
 20 37  1  0
M  END
>  <UniqueID>  (5) 
4

>  <SMILES>  (5) 
CCn1c(SCc2c(F)cccc2F)nc2cnn(C)c(=O)c21

>  <Energy>  (5) 
73.71769883012206

>  <Genealogy>  (5) 
CCn1c(SCc2c(F)cccc2F)nc2cnn(C)c(=O)c21 (3D coordinates assigned)
CCn1c(SCc2c(F)cccc2F)nc2cnn(C)c(=O)c21 (optimized conformer: 73.71769883012206 kcal/mol)

>  <smiles>  (5) 
CCn1c(SCc2c(F)cccc2F)nc2cnn(C)c(=O)c21

>  <score_type>  (5) 
oracle

>  <origin>  (5) 
adg

>  <m_score__min__energy>  (5) 
-7.1500000000000004

>  <m_primary>  (5) 
energy

$$$$
5:0
     RDKit          3D

 43 45  0  0  0  0  0  0  0  0999 V2000
   -9.8590   21.5750  -30.9070 C   0  0  0  0  0  0  0  0  0  0  0  0
   -9.1970   20.6680  -31.9370 C   0  0  0  0  0  0  0  0  0  0  0  0
   -7.7880   21.0350  -32.1190 N   0  0  0  0  0  0  0  0  0  0  0  0
   -7.2570   22.2480  -31.4840 C   0  0  0  0  0  0  0  0  0  0  0  0
   -6.8480   23.2890  -32.5300 C   0  0  0  0  0  0  0  0  0  0  0  0
   -5.4290   23.4420  -32.5590 O   0  0  0  0  0  0  0  0  0  0  0  0
   -4.5400   23.0420  -31.5450 C   0  0  0  0  0  0  0  0  0  0  0  0
   -3.6840   21.9350  -31.6970 C   0  0  0  0  0  0  0  0  0  0  0  0
   -2.8090   21.5670  -30.6770 C   0  0  0  0  0  0  0  0  0  0  0  0
   -2.7660   22.2980  -29.4840 C   0  0  0  0  0  0  0  0  0  0  0  0
   -1.8830   21.9200  -28.4600 C   0  0  0  0  0  0  0  0  0  0  0  0
   -1.8450   22.6400  -27.2660 C   0  0  0  0  0  0  0  0  0  0  0  0
   -2.6820   23.7420  -27.0820 C   0  0  0  0  0  0  0  0  0  0  0  0
   -3.5590   24.1360  -28.0960 C   0  0  0  0  0  0  0  0  0  0  0  0
   -3.6170   23.4210  -29.3110 C   0  0  0  0  0  0  0  0  0  0  0  0
   -4.5030   23.7880  -30.3530 C   0  0  0  0  0  0  0  0  0  0  0  0
   -5.7090   25.2840  -30.1860 Br  0  0  0  0  0  0  0  0  0  0  0  0
   -6.8790   20.0650  -32.6580 C   0  0  0  0  0  0  0  0  0  0  0  0
   -7.0900   18.6960  -32.4350 C   0  0  0  0  0  0  0  0  0  0  0  0
   -6.1770   17.7710  -32.9410 C   0  0  0  0  0  0  0  0  0  0  0  0
   -5.0660   18.2160  -33.6650 C   0  0  0  0  0  0  0  0  0  0  0  0
   -4.8770   19.5870  -33.8580 C   0  0  0  0  0  0  0  0  0  0  0  0
   -5.7740   20.4780  -33.3500 N   0  0  0  0  0  0  0  0  0  0  0  0
   -9.6050   21.2270  -29.8949 H   0  0  0  0  0  0  0  0  0  0  0  0
   -9.4995   22.6059  -31.0413 H   0  0  0  0  0  0  0  0  0  0  0  0
  -10.9504   21.5469  -31.0413 H   0  0  0  0  0  0  0  0  0  0  0  0
   -9.2573   19.6252  -31.5922 H   0  0  0  0  0  0  0  0  0  0  0  0
   -9.7200   20.7820  -32.8980 H   0  0  0  0  0  0  0  0  0  0  0  0
   -8.0309   22.6796  -30.8322 H   0  0  0  0  0  0  0  0  0  0  0  0
   -6.3661   21.9732  -30.9002 H   0  0  0  0  0  0  0  0  0  0  0  0
   -7.1966   22.9621  -33.5208 H   0  0  0  0  0  0  0  0  0  0  0  0
   -7.3033   24.2548  -32.2657 H   0  0  0  0  0  0  0  0  0  0  0  0
   -3.7061   21.3543  -32.6309 H   0  0  0  0  0  0  0  0  0  0  0  0
   -2.1485   20.6975  -30.8099 H   0  0  0  0  0  0  0  0  0  0  0  0
   -1.2195   21.0538  -28.5997 H   0  0  0  0  0  0  0  0  0  0  0  0
   -1.1527   22.3383  -26.4662 H   0  0  0  0  0  0  0  0  0  0  0  0
   -2.6510   24.3020  -26.1357 H   0  0  0  0  0  0  0  0  0  0  0  0
   -4.2093   25.0104  -27.9458 H   0  0  0  0  0  0  0  0  0  0  0  0
   -7.9677   18.3552  -31.8662 H   0  0  0  0  0  0  0  0  0  0  0  0
   -6.3301   16.6950  -32.7713 H   0  0  0  0  0  0  0  0  0  0  0  0
   -4.3475   17.4931  -34.0787 H   0  0  0  0  0  0  0  0  0  0  0  0
   -4.0031   19.9473  -34.4206 H   0  0  0  0  0  0  0  0  0  0  0  0
   -5.6070   21.5010  -33.4930 H   0  0  0  0  0  0  0  0  0  0  0  0
  1  2  1  0
  2  3  1  0
  3  4  1  0
  4  5  1  0
  5  6  1  0
  6  7  1  0
  7  8  2  0
  8  9  1  0
  9 10  2  0
 10 11  1  0
 11 12  2  0
 12 13  1  0
 13 14  2  0
 14 15  1  0
 15 16  2  0
 16 17  1  0
  3 18  1  0
 18 19  2  0
 19 20  1  0
 20 21  2  0
 21 22  1  0
 22 23  2  0
 16  7  1  0
 23 18  1  0
 15 10  1  0
  1 24  1  0
  1 25  1  0
  1 26  1  0
  2 27  1  0
  2 28  1  0
  4 29  1  0
  4 30  1  0
  5 31  1  0
  5 32  1  0
  8 33  1  0
  9 34  1  0
 11 35  1  0
 12 36  1  0
 13 37  1  0
 14 38  1  0
 19 39  1  0
 20 40  1  0
 21 41  1  0
 22 42  1  0
 23 43  1  0
M  CHG  1  23   1
M  END
>  <UniqueID>  (6) 
5

>  <SMILES>  (6) 
CCN(CCOc1ccc2ccccc2c1Br)c1cccc[nH+]1

>  <Energy>  (6) 
51.62983655648922

>  <Genealogy>  (6) 
CCN(CCOc1ccc2ccccc2c1Br)c1cccc[nH+]1 (protonated)
CCN(CCOc1ccc2ccccc2c1Br)c1cccc[nH+]1 (3D coordinates assigned)
CCN(CCOc1ccc2ccccc2c1Br)c1cccc[nH+]1 (optimized conformer: 51.62983655648922 kcal/mol)

>  <smiles>  (6) 
CCN(CCOc1ccc2ccccc2c1Br)c1ccccn1

>  <score_type>  (6) 
oracle

>  <origin>  (6) 
adg

>  <m_score__min__energy>  (6) 
-7.75

>  <m_primary>  (6) 
energy

$$$$
6:0
     RDKit          3D

 55 58  0  0  0  0  0  0  0  0999 V2000
   -3.1180   19.7840  -27.1810 C   0  0  0  0  0  0  0  0  0  0  0  0
   -2.0630   20.5910  -27.8450 N   0  0  0  0  0  0  0  0  0  0  0  0
   -0.7510   19.9840  -27.5060 C   0  0  0  0  0  0  0  0  0  0  0  0
   -2.2190   20.5730  -29.3220 C   0  0  0  0  0  0  0  0  0  0  0  0
   -3.4730   21.3200  -29.8130 C   0  0  0  0  0  0  0  0  0  0  0  0
   -3.6210   22.6620  -29.2190 N   0  0  0  0  0  0  0  0  0  0  0  0
   -3.2590   23.8110  -30.0750 C   0  0  0  0  0  0  0  0  0  0  0  0
   -4.3210   24.9190  -30.1010 C   0  0  0  0  0  0  0  0  0  0  0  0
   -5.7320   24.3210  -30.1130 C   0  0  0  0  0  0  0  0  0  0  0  0
   -6.2670   24.1980  -31.5430 C   0  0  0  0  0  0  0  0  0  0  0  0
   -6.4110   22.7820  -31.9130 N   0  0  0  0  0  0  0  0  0  0  0  0
   -5.3110   22.0700  -32.5090 C   0  0  0  0  0  0  0  0  0  0  0  0
   -4.2240   22.6660  -32.7450 O   0  0  0  0  0  0  0  0  0  0  0  0
   -5.4540   20.6340  -32.8430 C   0  0  0  0  0  0  0  0  0  0  0  0
   -4.3980   19.9350  -33.4540 C   0  0  0  0  0  0  0  0  0  0  0  0
   -4.5310   18.5820  -33.7680 C   0  0  0  0  0  0  0  0  0  0  0  0
   -5.7160   17.9050  -33.4790 C   0  0  0  0  0  0  0  0  0  0  0  0
   -6.7830   18.5800  -32.8700 C   0  0  0  0  0  0  0  0  0  0  0  0
   -7.9730   17.8990  -32.5780 C   0  0  0  0  0  0  0  0  0  0  0  0
   -9.0340   18.5690  -31.9690 C   0  0  0  0  0  0  0  0  0  0  0  0
   -8.9190   19.9220  -31.6450 C   0  0  0  0  0  0  0  0  0  0  0  0
   -7.7370   20.6280  -31.9300 C   0  0  0  0  0  0  0  0  0  0  0  0
   -6.6570   19.9560  -32.5460 C   0  0  0  0  0  0  0  0  0  0  0  0
   -7.6160   22.0640  -31.5870 C   0  0  0  0  0  0  0  0  0  0  0  0
   -8.5690   22.6540  -31.0080 O   0  0  0  0  0  0  0  0  0  0  0  0
   -3.3190   22.7850  -27.7810 C   0  0  0  0  0  0  0  0  0  0  0  0
   -2.0690   21.9940  -27.3520 C   0  0  0  0  0  0  0  0  0  0  0  0
   -3.0102   19.8665  -26.0894 H   0  0  0  0  0  0  0  0  0  0  0  0
   -4.1083   20.1572  -27.4809 H   0  0  0  0  0  0  0  0  0  0  0  0
   -3.0170   18.7305  -27.4809 H   0  0  0  0  0  0  0  0  0  0  0  0
   -0.6419   19.9335  -26.4126 H   0  0  0  0  0  0  0  0  0  0  0  0
   -0.6967   18.9693  -27.9271 H   0  0  0  0  0  0  0  0  0  0  0  0
    0.0576   20.5995  -27.9271 H   0  0  0  0  0  0  0  0  0  0  0  0
   -1.3332   21.0450  -29.7721 H   0  0  0  0  0  0  0  0  0  0  0  0
   -2.3280   19.5211  -29.6245 H   0  0  0  0  0  0  0  0  0  0  0  0
   -3.4106   21.4266  -30.9060 H   0  0  0  0  0  0  0  0  0  0  0  0
   -4.3473   20.7282  -29.5043 H   0  0  0  0  0  0  0  0  0  0  0  0
   -2.3181   24.2404  -29.7005 H   0  0  0  0  0  0  0  0  0  0  0  0
   -3.1663   23.4300  -31.1027 H   0  0  0  0  0  0  0  0  0  0  0  0
   -4.2048   25.5508  -29.2081 H   0  0  0  0  0  0  0  0  0  0  0  0
   -4.1840   25.5170  -31.0140 H   0  0  0  0  0  0  0  0  0  0  0  0
   -5.7027   23.3221  -29.6533 H   0  0  0  0  0  0  0  0  0  0  0  0
   -6.3988   24.9879  -29.5468 H   0  0  0  0  0  0  0  0  0  0  0  0
   -7.2479   24.6916  -31.6074 H   0  0  0  0  0  0  0  0  0  0  0  0
   -5.5580   24.6783  -32.2333 H   0  0  0  0  0  0  0  0  0  0  0  0
   -3.4592   20.4591  -33.6864 H   0  0  0  0  0  0  0  0  0  0  0  0
   -3.6973   18.0465  -34.2458 H   0  0  0  0  0  0  0  0  0  0  0  0
   -5.8134   16.8384  -33.7297 H   0  0  0  0  0  0  0  0  0  0  0  0
   -8.0704   16.8327  -32.8300 H   0  0  0  0  0  0  0  0  0  0  0  0
   -9.9653   18.0290  -31.7431 H   0  0  0  0  0  0  0  0  0  0  0  0
   -9.7607   20.4404  -31.1624 H   0  0  0  0  0  0  0  0  0  0  0  0
   -3.1569   23.8477  -27.5478 H   0  0  0  0  0  0  0  0  0  0  0  0
   -4.1746   22.3662  -27.2310 H   0  0  0  0  0  0  0  0  0  0  0  0
   -1.1791   22.5065  -27.7463 H   0  0  0  0  0  0  0  0  0  0  0  0
   -2.0706   21.9531  -26.2528 H   0  0  0  0  0  0  0  0  0  0  0  0
  1  2  1  0
  2  3  1  0
  2  4  1  0
  4  5  1  0
  5  6  1  0
  6  7  1  0
  7  8  1  0
  8  9  1  0
  9 10  1  0
 10 11  1  0
 11 12  1  0
 12 13  2  0
 12 14  1  0
 14 15  2  0
 15 16  1  0
 16 17  2  0
 17 18  1  0
 18 19  2  0
 19 20  1  0
 20 21  2  0
 21 22  1  0
 22 23  2  0
 22 24  1  0
 24 25  2  0
  6 26  1  0
 26 27  1  0
 27  2  1  0
 24 11  1  0
 23 14  1  0
 23 18  1  0
  1 28  1  0
  1 29  1  0
  1 30  1  0
  3 31  1  0
  3 32  1  0
  3 33  1  0
  4 34  1  0
  4 35  1  0
  5 36  1  0
  5 37  1  0
  7 38  1  0
  7 39  1  0
  8 40  1  0
  8 41  1  0
  9 42  1  0
  9 43  1  0
 10 44  1  0
 10 45  1  0
 15 46  1  0
 16 47  1  0
 17 48  1  0
 19 49  1  0
 20 50  1  0
 21 51  1  0
 26 52  1  0
 26 53  1  0
 27 54  1  0
 27 55  1  0
M  CHG  1   2   1
M  END
>  <UniqueID>  (7) 
6

>  <SMILES>  (7) 
C[N+]1(C)CCN(CCCCN2C(=O)c3cccc4cccc(c34)C2=O)CC1

>  <Energy>  (7) 
74.58308799763957

>  <Genealogy>  (7) 
C[N+]1(C)CCN(CCCCN2C(=O)c3cccc4cccc(c34)C2=O)CC1 (3D coordinates assigned)
C[N+]1(C)CCN(CCCCN2C(=O)c3cccc4cccc(c34)C2=O)CC1 (nonaromatic ring conformer: 74.58308799763957 kcal/mol)

>  <smiles>  (7) 
C[N+]1(C)CCN(CCCCN2C(=O)c3cccc4cccc(c34)C2=O)CC1

>  <score_type>  (7) 
oracle

>  <origin>  (7) 
adg

>  <m_score__min__energy>  (7) 
-8.9299999999999997

>  <m_primary>  (7) 
energy

$$$$
7:0
     RDKit          3D

 46 47  0  0  0  0  0  0  0  0999 V2000
   -5.7050   16.6920  -32.2870 C   0  0  0  0  0  0  0  0  0  0  0  0
   -6.1600   17.6180  -31.1440 C   0  0  0  0  0  0  0  0  0  0  0  0
   -6.9530   18.8000  -31.5780 N   0  0  2  0  0  0  0  0  0  0  0  0
   -8.4160   18.5020  -31.5550 C   0  0  0  0  0  0  0  0  0  0  0  0
   -9.3060   19.4640  -32.3700 C   0  0  0  0  0  0  0  0  0  0  0  0
   -9.1120   20.9510  -32.0250 C   0  0  0  0  0  0  0  0  0  0  0  0
   -7.6950   21.3700  -31.9970 N   0  0  0  0  0  0  0  0  0  0  0  0
   -7.5960   22.8430  -31.9390 C   0  0  0  0  0  0  0  0  0  0  0  0
   -6.5510   23.2550  -30.9360 C   0  0  0  0  0  0  0  0  0  0  0  0
   -5.4900   22.3880  -30.6340 C   0  0  0  0  0  0  0  0  0  0  0  0
   -4.5080   22.7670  -29.7150 C   0  0  0  0  0  0  0  0  0  0  0  0
   -4.5730   24.0190  -29.0850 C   0  0  0  0  0  0  0  0  0  0  0  0
   -3.5230   24.4160  -28.0840 C   0  0  0  0  0  0  0  0  0  0  0  0
   -1.9780   24.9160  -28.9230 S   0  0  0  0  0  0  0  0  0  0  0  0
   -1.1300   23.3140  -28.7270 C   0  0  0  0  0  0  0  0  0  0  0  0
   -5.6370   24.8840  -29.3830 C   0  0  0  0  0  0  0  0  0  0  0  0
   -6.6190   24.5060  -30.3030 C   0  0  0  0  0  0  0  0  0  0  0  0
   -6.9220   20.8170  -33.1320 C   0  0  0  0  0  0  0  0  0  0  0  0
   -6.4560   19.3600  -32.8640 C   0  0  0  0  0  0  0  0  0  0  0  0
   -5.2572   15.7806  -31.8643 H   0  0  0  0  0  0  0  0  0  0  0  0
   -6.5725   16.4209  -32.9066 H   0  0  0  0  0  0  0  0  0  0  0  0
   -4.9603   17.2130  -32.9066 H   0  0  0  0  0  0  0  0  0  0  0  0
   -6.7768   17.0279  -30.4502 H   0  0  0  0  0  0  0  0  0  0  0  0
   -5.2435   18.0125  -30.6810 H   0  0  0  0  0  0  0  0  0  0  0  0
   -6.7720   19.5100  -30.8290 H   0  0  0  0  0  0  0  0  0  0  0  0
   -8.5609   17.4872  -31.9540 H   0  0  0  0  0  0  0  0  0  0  0  0
   -8.7298   18.6172  -30.5070 H   0  0  0  0  0  0  0  0  0  0  0  0
   -9.0768   19.3250  -33.4368 H   0  0  0  0  0  0  0  0  0  0  0  0
  -10.3484   19.2161  -32.1211 H   0  0  0  0  0  0  0  0  0  0  0  0
   -9.6387   21.5548  -32.7786 H   0  0  0  0  0  0  0  0  0  0  0  0
   -9.5144   21.1033  -31.0126 H   0  0  0  0  0  0  0  0  0  0  0  0
   -7.3187   23.2279  -32.9315 H   0  0  0  0  0  0  0  0  0  0  0  0
   -8.5687   23.2563  -31.6342 H   0  0  0  0  0  0  0  0  0  0  0  0
   -5.4309   21.4046  -31.1233 H   0  0  0  0  0  0  0  0  0  0  0  0
   -3.6800   22.0805  -29.4844 H   0  0  0  0  0  0  0  0  0  0  0  0
   -3.8969   25.2596  -27.4852 H   0  0  0  0  0  0  0  0  0  0  0  0
   -3.3084   23.5518  -27.4382 H   0  0  0  0  0  0  0  0  0  0  0  0
   -1.0116   23.0904  -27.6565 H   0  0  0  0  0  0  0  0  0  0  0  0
   -1.7272   22.5224  -29.2031 H   0  0  0  0  0  0  0  0  0  0  0  0
   -0.1396   23.3627  -29.2031 H   0  0  0  0  0  0  0  0  0  0  0  0
   -5.6986   25.8653  -28.8897 H   0  0  0  0  0  0  0  0  0  0  0  0
   -7.4483   25.1915  -30.5319 H   0  0  0  0  0  0  0  0  0  0  0  0
   -7.5551   20.8275  -34.0315 H   0  0  0  0  0  0  0  0  0  0  0  0
   -6.0261   21.4404  -33.2685 H   0  0  0  0  0  0  0  0  0  0  0  0
   -6.8194   18.7228  -33.6837 H   0  0  0  0  0  0  0  0  0  0  0  0
   -5.3579   19.3798  -32.8030 H   0  0  0  0  0  0  0  0  0  0  0  0
  1  2  1  0
  2  3  1  0
  3  4  1  0
  4  5  1  0
  5  6  1  0
  6  7  1  0
  7  8  1  0
  8  9  1  0
  9 10  2  0
 10 11  1  0
 11 12  2  0
 12 13  1  0
 13 14  1  0
 14 15  1  0
 12 16  1  0
 16 17  2  0
  7 18  1  0
 18 19  1  0
 19  3  1  0
 17  9  1  0
  1 20  1  0
  1 21  1  0
  1 22  1  0
  2 23  1  0
  2 24  1  0
  3 25  1  1
  4 26  1  0
  4 27  1  0
  5 28  1  0
  5 29  1  0
  6 30  1  0
  6 31  1  0
  8 32  1  0
  8 33  1  0
 10 34  1  0
 11 35  1  0
 13 36  1  0
 13 37  1  0
 15 38  1  0
 15 39  1  0
 15 40  1  0
 16 41  1  0
 17 42  1  0
 18 43  1  0
 18 44  1  0
 19 45  1  0
 19 46  1  0
M  CHG  1   3   1
M  END
>  <UniqueID>  (8) 
7

>  <SMILES>  (8) 
CC[N@@H+]1CCCN(Cc2ccc(CSC)cc2)CC1

>  <Energy>  (8) 
57.51054869174503

>  <Genealogy>  (8) 
CC[NH+]1CCCN(Cc2ccc(CSC)cc2)CC1 (protonated)
CC[N@@H+]1CCCN(Cc2ccc(CSC)cc2)CC1 (chirality)
CC[N@@H+]1CCCN(Cc2ccc(CSC)cc2)CC1 (3D coordinates assigned)
CC[N@@H+]1CCCN(Cc2ccc(CSC)cc2)CC1 (nonaromatic ring conformer: 57.51054869174503 kcal/mol)

>  <smiles>  (8) 
CCN1CCCN(Cc2ccc(CSC)cc2)CC1

>  <score_type>  (8) 
oracle

>  <origin>  (8) 
adg

>  <m_score__min__energy>  (8) 
-4.5899999999999999

>  <m_primary>  (8) 
energy

$$$$
8:0
     RDKit          3D

 43 43  0  0  0  0  0  0  0  0999 V2000
   -6.1340   18.7950  -33.6910 C   0  0  0  0  0  0  0  0  0  0  0  0
   -6.5900   17.9730  -32.4910 C   0  0  0  0  0  0  0  0  0  0  0  0
   -8.0060   18.0440  -32.3430 O   0  0  0  0  0  0  0  0  0  0  0  0
   -8.7120   19.2490  -32.2570 C   0  0  0  0  0  0  0  0  0  0  0  0
   -9.7300   19.4530  -32.9730 O   0  0  0  0  0  0  0  0  0  0  0  0
   -8.2700   20.2930  -31.2800 C   0  0  0  0  0  0  0  0  0  0  0  0
   -7.5800   21.4750  -31.9790 C   0  0  1  0  0  0  0  0  0  0  0  0
   -8.4230   22.7540  -31.8830 C   0  0  0  0  0  0  0  0  0  0  0  0
   -6.3120   21.6870  -31.3590 O   0  0  0  0  0  0  0  0  0  0  0  0
   -5.6490   22.9200  -31.3540 C   0  0  0  0  0  0  0  0  0  0  0  0
   -4.9160   23.2660  -32.3200 O   0  0  0  0  0  0  0  0  0  0  0  0
   -5.7650   23.8100  -30.1550 C   0  0  0  0  0  0  0  0  0  0  0  0
   -5.3050   25.2300  -30.4780 C   0  0  0  0  0  0  0  0  0  0  0  0
   -3.8550   25.2550  -30.6710 N   0  0  0  0  0  0  0  0  0  0  0  0
   -3.0640   24.5520  -29.2940 S   0  0  0  0  0  0  0  0  0  0  0  0
   -1.8530   25.3730  -28.9500 O   0  0  0  0  0  0  0  0  0  0  0  0
   -3.9950   24.5610  -28.1130 O   0  0  0  0  0  0  0  0  0  0  0  0
   -2.5580   22.9030  -29.6550 C   0  0  0  0  0  0  0  0  0  0  0  0
   -2.0860   22.5650  -30.9330 C   0  0  0  0  0  0  0  0  0  0  0  0
   -1.6710   21.2580  -31.2050 C   0  0  0  0  0  0  0  0  0  0  0  0
   -1.7200   20.2850  -30.2030 C   0  0  0  0  0  0  0  0  0  0  0  0
   -2.1830   20.6180  -28.9270 C   0  0  0  0  0  0  0  0  0  0  0  0
   -2.5990   21.9240  -28.6510 C   0  0  0  0  0  0  0  0  0  0  0  0
   -5.6283   19.7067  -33.3401 H   0  0  0  0  0  0  0  0  0  0  0  0
   -5.4369   18.2001  -34.2994 H   0  0  0  0  0  0  0  0  0  0  0  0
   -7.0077   19.0715  -34.2994 H   0  0  0  0  0  0  0  0  0  0  0  0
   -6.2941   16.9238  -32.6380 H   0  0  0  0  0  0  0  0  0  0  0  0
   -6.1179   18.3780  -31.5838 H   0  0  0  0  0  0  0  0  0  0  0  0
   -9.1500   20.6661  -30.7355 H   0  0  0  0  0  0  0  0  0  0  0  0
   -7.5450   19.8323  -30.5928 H   0  0  0  0  0  0  0  0  0  0  0  0
   -7.4569   21.2366  -33.0458 H   0  0  0  0  0  0  0  0  0  0  0  0
   -8.5887   23.0054  -30.8250 H   0  0  0  0  0  0  0  0  0  0  0  0
   -7.8923   23.5809  -32.3776 H   0  0  0  0  0  0  0  0  0  0  0  0
   -9.3921   22.5924  -32.3776 H   0  0  0  0  0  0  0  0  0  0  0  0
   -6.8151   23.8380  -29.8286 H   0  0  0  0  0  0  0  0  0  0  0  0
   -5.1230   23.4075  -29.3576 H   0  0  0  0  0  0  0  0  0  0  0  0
   -5.8008   25.5730  -31.3980 H   0  0  0  0  0  0  0  0  0  0  0  0
   -5.5693   25.8939  -29.6417 H   0  0  0  0  0  0  0  0  0  0  0  0
   -2.0426   23.3301  -31.7221 H   0  0  0  0  0  0  0  0  0  0  0  0
   -1.3055   20.9952  -32.2087 H   0  0  0  0  0  0  0  0  0  0  0  0
   -1.3941   19.2568  -30.4187 H   0  0  0  0  0  0  0  0  0  0  0  0
   -2.2202   19.8516  -28.1388 H   0  0  0  0  0  0  0  0  0  0  0  0
   -2.9591   22.1844  -27.6447 H   0  0  0  0  0  0  0  0  0  0  0  0
  1  2  1  0
  2  3  1  0
  3  4  1  0
  4  5  2  0
  4  6  1  0
  6  7  1  0
  7  8  1  0
  7  9  1  0
  9 10  1  0
 10 11  2  0
 10 12  1  0
 12 13  1  0
 13 14  1  0
 14 15  1  0
 15 16  2  0
 15 17  2  0
 15 18  1  0
 18 19  2  0
 19 20  1  0
 20 21  2  0
 21 22  1  0
 22 23  2  0
 23 18  1  0
  1 24  1  0
  1 25  1  0
  1 26  1  0
  2 27  1  0
  2 28  1  0
  6 29  1  0
  6 30  1  0
  7 31  1  6
  8 32  1  0
  8 33  1  0
  8 34  1  0
 12 35  1  0
 12 36  1  0
 13 37  1  0
 13 38  1  0
 19 39  1  0
 20 40  1  0
 21 41  1  0
 22 42  1  0
 23 43  1  0
M  CHG  1  14  -1
M  END
>  <UniqueID>  (9) 
8

>  <SMILES>  (9) 
CCOC(=O)C[C@@H](C)OC(=O)CC[N-]S(=O)(=O)c1ccccc1

>  <Energy>  (9) 
24.976202321147476

>  <Genealogy>  (9) 
CCOC(=O)CC(C)OC(=O)CC[N-]S(=O)(=O)c1ccccc1 (protonated)
CCOC(=O)C[C@@H](C)OC(=O)CC[N-]S(=O)(=O)c1ccccc1 (chirality)
CCOC(=O)C[C@@H](C)OC(=O)CC[N-]S(=O)(=O)c1ccccc1 (3D coordinates assigned)
CCOC(=O)C[C@@H](C)OC(=O)CC[N-]S(=O)(=O)c1ccccc1 (optimized conformer: 24.976202321147476 kcal/mol)

>  <smiles>  (9) 
CCOC(=O)CC(C)OC(=O)CCNS(=O)(=O)c1ccccc1

>  <score_type>  (9) 
oracle

>  <origin>  (9) 
adg

>  <m_score__min__energy>  (9) 
-8.3900000000000006

>  <m_primary>  (9) 
energy

$$$$
9:0
     RDKit          3D

 45 47  0  0  0  0  0  0  0  0999 V2000
    1.2430   25.1880  -26.6640 C   0  0  0  0  0  0  0  0  0  0  0  0
    0.7050   24.6540  -27.8700 O   0  0  0  0  0  0  0  0  0  0  0  0
   -0.6340   24.2680  -28.0370 C   0  0  0  0  0  0  0  0  0  0  0  0
   -1.2220   23.2340  -27.2830 C   0  0  0  0  0  0  0  0  0  0  0  0
   -2.5600   22.8830  -27.4840 C   0  0  0  0  0  0  0  0  0  0  0  0
   -3.3280   23.5610  -28.4410 C   0  0  0  0  0  0  0  0  0  0  0  0
   -4.6700   23.2310  -28.6630 C   0  0  0  0  0  0  0  0  0  0  0  0
   -5.4180   23.9240  -29.6270 C   0  0  0  0  0  0  0  0  0  0  0  0
   -6.8740   23.5630  -29.8440 C   0  0  0  0  0  0  0  0  0  0  0  0
   -7.0320   22.3130  -30.6310 N   0  0  1  0  0  0  0  0  0  0  0  0
   -8.4040   21.7810  -30.4870 C   0  0  0  0  0  0  0  0  0  0  0  0
   -6.7140   22.5820  -32.0570 C   0  0  0  0  0  0  0  0  0  0  0  0
   -5.9500   21.4230  -32.7260 C   0  0  0  0  0  0  0  0  0  0  0  0
   -4.5590   21.3180  -32.1680 C   0  0  0  0  0  0  0  0  0  0  0  0
   -3.4460   21.6580  -32.9520 C   0  0  0  0  0  0  0  0  0  0  0  0
   -2.1680   21.5820  -32.3940 C   0  0  0  0  0  0  0  0  0  0  0  0
   -2.0120   21.1780  -31.0680 C   0  0  0  0  0  0  0  0  0  0  0  0
   -3.1430   20.8580  -30.3130 C   0  0  0  0  0  0  0  0  0  0  0  0
   -4.3800   20.9380  -30.8730 N   0  0  0  0  0  0  0  0  0  0  0  0
   -4.7900   24.9540  -30.3590 C   0  0  0  0  0  0  0  0  0  0  0  0
   -5.4260   25.6060  -31.2290 O   0  0  0  0  0  0  0  0  0  0  0  0
   -3.4850   25.2580  -30.1260 N   0  0  0  0  0  0  0  0  0  0  0  0
   -2.7440   24.5970  -29.1990 C   0  0  0  0  0  0  0  0  0  0  0  0
   -1.4050   24.9440  -28.9930 C   0  0  0  0  0  0  0  0  0  0  0  0
    0.7583   24.7069  -25.8017 H   0  0  0  0  0  0  0  0  0  0  0  0
    2.3258   24.9973  -26.6295 H   0  0  0  0  0  0  0  0  0  0  0  0
    1.0604   26.2722  -26.6295 H   0  0  0  0  0  0  0  0  0  0  0  0
   -0.6241   22.6988  -26.5306 H   0  0  0  0  0  0  0  0  0  0  0  0
   -3.0108   22.0739  -26.8906 H   0  0  0  0  0  0  0  0  0  0  0  0
   -5.1400   22.4255  -28.0797 H   0  0  0  0  0  0  0  0  0  0  0  0
   -7.3550   23.4276  -28.8641 H   0  0  0  0  0  0  0  0  0  0  0  0
   -7.3431   24.3803  -30.4114 H   0  0  0  0  0  0  0  0  0  0  0  0
   -6.3560   21.6000  -30.2670 H   0  0  0  0  0  0  0  0  0  0  0  0
   -8.6501   21.6856  -29.4191 H   0  0  0  0  0  0  0  0  0  0  0  0
   -9.1160   22.4682  -30.9674 H   0  0  0  0  0  0  0  0  0  0  0  0
   -8.4666   20.7934  -30.9674 H   0  0  0  0  0  0  0  0  0  0  0  0
   -7.6552   22.7441  -32.6027 H   0  0  0  0  0  0  0  0  0  0  0  0
   -6.0655   23.4699  -32.0905 H   0  0  0  0  0  0  0  0  0  0  0  0
   -6.4866   20.4809  -32.5403 H   0  0  0  0  0  0  0  0  0  0  0  0
   -5.8859   21.6163  -33.8070 H   0  0  0  0  0  0  0  0  0  0  0  0
   -3.5787   21.9810  -33.9951 H   0  0  0  0  0  0  0  0  0  0  0  0
   -1.2863   21.8402  -32.9989 H   0  0  0  0  0  0  0  0  0  0  0  0
   -1.0089   21.1121  -30.6215 H   0  0  0  0  0  0  0  0  0  0  0  0
   -3.0332   20.5412  -29.2653 H   0  0  0  0  0  0  0  0  0  0  0  0
   -0.9534   25.7533  -29.5855 H   0  0  0  0  0  0  0  0  0  0  0  0
  1  2  1  0
  2  3  1  0
  3  4  2  0
  4  5  1  0
  5  6  2  0
  6  7  1  0
  7  8  2  0
  8  9  1  0
  9 10  1  0
 10 11  1  0
 10 12  1  0
 12 13  1  0
 13 14  1  0
 14 15  2  0
 15 16  1  0
 16 17  2  0
 17 18  1  0
 18 19  2  0
  8 20  1  0
 20 21  2  0
 20 22  1  0
 22 23  1  0
 23 24  2  0
 24  3  1  0
 23  6  1  0
 19 14  1  0
  1 25  1  0
  1 26  1  0
  1 27  1  0
  4 28  1  0
  5 29  1  0
  7 30  1  0
  9 31  1  0
  9 32  1  0
 10 33  1  1
 11 34  1  0
 11 35  1  0
 11 36  1  0
 12 37  1  0
 12 38  1  0
 13 39  1  0
 13 40  1  0
 15 41  1  0
 16 42  1  0
 17 43  1  0
 18 44  1  0
 24 45  1  0
M  CHG  2  10   1  22  -1
M  END
>  <UniqueID>  (10) 
9

>  <SMILES>  (10) 
COc1ccc2cc(C[N@@H+](C)CCc3ccccn3)c(=O)[n-]c2c1

>  <Energy>  (10) 
52.29547071353753

>  <Genealogy>  (10) 
COc1ccc2cc(C[NH+](C)CCc3ccccn3)c(=O)[n-]c2c1 (protonated)
COc1ccc2cc(C[N@@H+](C)CCc3ccccn3)c(=O)[n-]c2c1 (chirality)
COc1ccc2cc(C[N@@H+](C)CCc3ccccn3)c(=O)[n-]c2c1 (3D coordinates assigned)
COc1ccc2cc(C[N@@H+](C)CCc3ccccn3)c(=O)[n-]c2c1 (optimized conformer: 52.29547071353753 kcal/mol)

>  <smiles>  (10) 
COc1ccc2cc(CN(C)CCc3ccccn3)c(=O)[nH]c2c1

>  <score_type>  (10) 
oracle

>  <origin>  (10) 
adg

>  <m_score__min__energy>  (10) 
-9.5899999999999999

>  <m_primary>  (10) 
energy

$$$$
10:0
     RDKit          3D

 41 43  0  0  0  0  0  0  0  0999 V2000
   -2.0000   21.1580  -32.9630 C   0  0  0  0  0  0  0  0  0  0  0  0
   -2.7700   20.1640  -33.8390 C   0  0  0  0  0  0  0  0  0  0  0  0
   -4.2230   20.1350  -33.5410 N   0  0  1  0  0  0  0  0  0  0  0  0
   -4.8720   18.9230  -34.0770 C   0  0  0  0  0  0  0  0  0  0  0  0
   -4.5000   20.3080  -32.0890 C   0  0  0  0  0  0  0  0  0  0  0  0
   -5.6270   21.2750  -31.7750 C   0  0  0  0  0  0  0  0  0  0  0  0
   -5.5250   22.5600  -31.2300 C   0  0  0  0  0  0  0  0  0  0  0  0
   -6.7550   23.1020  -31.0570 N   0  0  0  0  0  0  0  0  0  0  0  0
   -7.6410   22.1920  -31.5010 C   0  0  0  0  0  0  0  0  0  0  0  0
   -9.0340   22.2900  -31.5230 C   0  0  0  0  0  0  0  0  0  0  0  0
   -9.7680   21.1800  -31.9700 C   0  0  0  0  0  0  0  0  0  0  0  0
   -9.1070   19.9990  -32.3670 C   0  0  0  0  0  0  0  0  0  0  0  0
   -7.7030   19.9240  -32.3360 C   0  0  0  0  0  0  0  0  0  0  0  0
   -6.9920   21.0530  -31.9210 C   0  0  0  0  0  0  0  0  0  0  0  0
   -7.0300   24.4460  -30.5400 C   0  0  0  0  0  0  0  0  0  0  0  0
   -5.8390   24.9740  -29.7280 C   0  0  0  0  0  0  0  0  0  0  0  0
   -4.5170   24.7140  -30.4630 C   0  0  0  0  0  0  0  0  0  0  0  0
   -4.2880   23.2110  -30.6740 C   0  0  0  0  0  0  0  0  0  0  0  0
   -2.1788   20.9272  -31.9025 H   0  0  0  0  0  0  0  0  0  0  0  0
   -0.9242   21.0802  -33.1789 H   0  0  0  0  0  0  0  0  0  0  0  0
   -2.3443   22.1802  -33.1789 H   0  0  0  0  0  0  0  0  0  0  0  0
   -2.6338   20.4468  -34.8933 H   0  0  0  0  0  0  0  0  0  0  0  0
   -2.3704   19.1610  -33.6286 H   0  0  0  0  0  0  0  0  0  0  0  0
   -4.6640   20.9560  -34.0210 H   0  0  0  0  0  0  0  0  0  0  0  0
   -5.2111   18.2897  -33.2439 H   0  0  0  0  0  0  0  0  0  0  0  0
   -5.7361   19.2119  -34.6933 H   0  0  0  0  0  0  0  0  0  0  0  0
   -4.1526   18.3639  -34.6933 H   0  0  0  0  0  0  0  0  0  0  0  0
   -4.7632   19.3256  -31.6698 H   0  0  0  0  0  0  0  0  0  0  0  0
   -3.5885   20.7344  -31.6448 H   0  0  0  0  0  0  0  0  0  0  0  0
   -9.5415   23.2107  -31.1993 H   0  0  0  0  0  0  0  0  0  0  0  0
  -10.8660   21.2316  -32.0109 H   0  0  0  0  0  0  0  0  0  0  0  0
   -9.6934   19.1311  -32.7030 H   0  0  0  0  0  0  0  0  0  0  0  0
   -7.1793   19.0025  -32.6302 H   0  0  0  0  0  0  0  0  0  0  0  0
   -7.2197   25.1250  -31.3844 H   0  0  0  0  0  0  0  0  0  0  0  0
   -7.9101   24.3965  -29.8820 H   0  0  0  0  0  0  0  0  0  0  0  0
   -5.9591   26.0567  -29.5749 H   0  0  0  0  0  0  0  0  0  0  0  0
   -5.8127   24.4499  -28.7612 H   0  0  0  0  0  0  0  0  0  0  0  0
   -4.5462   25.2139  -31.4424 H   0  0  0  0  0  0  0  0  0  0  0  0
   -3.6933   25.1102  -29.8509 H   0  0  0  0  0  0  0  0  0  0  0  0
   -3.4559   23.0675  -31.3790 H   0  0  0  0  0  0  0  0  0  0  0  0
   -4.0492   22.7491  -29.7047 H   0  0  0  0  0  0  0  0  0  0  0  0
  1  2  1  0
  2  3  1  0
  3  4  1  0
  3  5  1  0
  5  6  1  0
  6  7  2  0
  7  8  1  0
  8  9  1  0
  9 10  2  0
 10 11  1  0
 11 12  2  0
 12 13  1  0
 13 14  2  0
  8 15  1  0
 15 16  1  0
 16 17  1  0
 17 18  1  0
 14  6  1  0
 18  7  1  0
 14  9  1  0
  1 19  1  0
  1 20  1  0
  1 21  1  0
  2 22  1  0
  2 23  1  0
  3 24  1  6
  4 25  1  0
  4 26  1  0
  4 27  1  0
  5 28  1  0
  5 29  1  0
 10 30  1  0
 11 31  1  0
 12 32  1  0
 13 33  1  0
 15 34  1  0
 15 35  1  0
 16 36  1  0
 16 37  1  0
 17 38  1  0
 17 39  1  0
 18 40  1  0
 18 41  1  0
M  CHG  1   3   1
M  END
>  <UniqueID>  (11) 
10

>  <SMILES>  (11) 
CC[N@@H+](C)Cc1c2n(c3ccccc13)CCCC2

>  <Energy>  (11) 
76.5399061473341

>  <Genealogy>  (11) 
CC[NH+](C)Cc1c2n(c3ccccc13)CCCC2 (protonated)
CC[N@@H+](C)Cc1c2n(c3ccccc13)CCCC2 (chirality)
CC[N@@H+](C)Cc1c2n(c3ccccc13)CCCC2 (3D coordinates assigned)
CC[N@@H+](C)Cc1c2n(c3ccccc13)CCCC2 (nonaromatic ring conformer: 76.5399061473341 kcal/mol)

>  <smiles>  (11) 
CCN(C)Cc1c2n(c3ccccc13)CCCC2

>  <score_type>  (11) 
oracle

>  <origin>  (11) 
adg

>  <m_score__min__energy>  (11) 
-6.3899999999999997

>  <m_primary>  (11) 
energy

$$$$
11:0
     RDKit          3D

 34 35  0  0  0  0  0  0  0  0999 V2000
   -3.1760   24.4110  -27.4440 C   0  0  0  0  0  0  0  0  0  0  0  0
   -2.3450   24.9290  -28.6140 C   0  0  0  0  0  0  0  0  0  0  0  0
   -3.1720   25.1710  -29.7510 O   0  0  0  0  0  0  0  0  0  0  0  0
   -3.8050   24.1500  -30.4710 C   0  0  0  0  0  0  0  0  0  0  0  0
   -3.0800   23.2450  -31.1260 O   0  0  0  0  0  0  0  0  0  0  0  0
   -3.6200   22.2560  -31.8270 C   0  0  0  0  0  0  0  0  0  0  0  0
   -2.8590   21.4430  -32.4140 O   0  0  0  0  0  0  0  0  0  0  0  0
   -5.0160   22.1180  -31.9060 C   0  0  0  0  0  0  0  0  0  0  0  0
   -5.6170   21.0710  -32.6270 C   0  0  0  0  0  0  0  0  0  0  0  0
   -7.0150   20.9470  -32.6850 C   0  0  0  0  0  0  0  0  0  0  0  0
   -7.5940   19.8460  -33.4110 N   0  0  0  0  0  0  0  0  0  0  0  0
   -7.4920   18.4510  -32.9710 C   0  0  0  0  0  0  0  0  0  0  0  0
   -6.4870   17.6770  -33.8380 C   0  0  0  0  0  0  0  0  0  0  0  0
   -6.0140   18.4910  -34.9550 N   0  0  0  0  0  0  0  0  0  0  0  0
   -7.8110   21.8920  -32.0170 C   0  0  0  0  0  0  0  0  0  0  0  0
   -7.2240   22.9320  -31.2940 C   0  0  0  0  0  0  0  0  0  0  0  0
   -5.8250   23.0590  -31.2280 C   0  0  0  0  0  0  0  0  0  0  0  0
   -5.2050   24.0920  -30.4970 C   0  0  0  0  0  0  0  0  0  0  0  0
   -6.1320   25.3010  -29.6030 Cl  0  0  0  0  0  0  0  0  0  0  0  0
   -2.7008   24.7072  -26.4972 H   0  0  0  0  0  0  0  0  0  0  0  0
   -4.1883   24.8383  -27.4956 H   0  0  0  0  0  0  0  0  0  0  0  0
   -3.2381   23.3140  -27.4956 H   0  0  0  0  0  0  0  0  0  0  0  0
   -1.8521   25.8673  -28.3196 H   0  0  0  0  0  0  0  0  0  0  0  0
   -1.5937   24.1701  -28.8779 H   0  0  0  0  0  0  0  0  0  0  0  0
   -4.9846   20.3400  -33.1521 H   0  0  0  0  0  0  0  0  0  0  0  0
   -8.0710   20.0530  -34.3180 H   0  0  0  0  0  0  0  0  0  0  0  0
   -7.1579   18.4269  -31.9233 H   0  0  0  0  0  0  0  0  0  0  0  0
   -8.4800   17.9775  -33.0690 H   0  0  0  0  0  0  0  0  0  0  0  0
   -5.6270   17.3862  -33.2169 H   0  0  0  0  0  0  0  0  0  0  0  0
   -6.9910   16.7878  -34.2447 H   0  0  0  0  0  0  0  0  0  0  0  0
   -6.8380   18.9240  -35.4290 H   0  0  0  0  0  0  0  0  0  0  0  0
   -5.4180   19.2660  -34.5800 H   0  0  0  0  0  0  0  0  0  0  0  0
   -8.9071   21.8119  -32.0640 H   0  0  0  0  0  0  0  0  0  0  0  0
   -7.8621   23.6593  -30.7707 H   0  0  0  0  0  0  0  0  0  0  0  0
  1  2  1  0
  2  3  1  0
  3  4  1  0
  4  5  1  0
  5  6  1  0
  6  7  2  0
  6  8  1  0
  8  9  2  0
  9 10  1  0
 10 11  1  0
 11 12  1  0
 12 13  1  0
 13 14  1  0
 10 15  2  0
 15 16  1  0
 16 17  2  0
 17 18  1  0
 18 19  1  0
 18  4  2  0
 17  8  1  0
  1 20  1  0
  1 21  1  0
  1 22  1  0
  2 23  1  0
  2 24  1  0
  9 25  1  0
 11 26  1  0
 12 27  1  0
 12 28  1  0
 13 29  1  0
 13 30  1  0
 14 31  1  0
 14 32  1  0
 15 33  1  0
 16 34  1  0
M  END
>  <UniqueID>  (12) 
11

>  <SMILES>  (12) 
CCOc1oc(=O)c2cc(NCCN)ccc2c1Cl

>  <Energy>  (12) 
34.15589253837608

>  <Genealogy>  (12) 
CCOc1oc(=O)c2cc(NCCN)ccc2c1Cl (3D coordinates assigned)
CCOc1oc(=O)c2cc(NCCN)ccc2c1Cl (optimized conformer: 34.15589253837608 kcal/mol)

>  <smiles>  (12) 
CCOc1oc(=O)c2cc(NCCN)ccc2c1Cl

>  <score_type>  (12) 
oracle

>  <origin>  (12) 
adg

>  <m_score__min__energy>  (12) 
-7.5800000000000001

>  <m_primary>  (12) 
energy

$$$$
12:0
     RDKit          3D

 46 47  0  0  0  0  0  0  0  0999 V2000
   -2.3540   25.1940  -26.7570 C   0  0  0  0  0  0  0  0  0  0  0  0
   -1.6670   25.2910  -28.1150 C   0  0  0  0  0  0  0  0  0  0  0  0
   -2.4730   24.5970  -29.1470 N   0  0  0  0  0  0  0  0  0  0  0  0
   -1.7430   23.4340  -29.6990 C   0  0  0  0  0  0  0  0  0  0  0  0
   -2.3080   22.1370  -29.1290 C   0  0  0  0  0  0  0  0  0  0  0  0
   -3.8090   24.2120  -28.6300 C   0  0  0  0  0  0  0  0  0  0  0  0
   -4.9150   24.8230  -29.4930 C   0  0  0  0  0  0  0  0  0  0  0  0
   -4.6930   24.5190  -30.8640 O   0  0  0  0  0  0  0  0  0  0  0  0
   -5.4350   23.5650  -31.5640 C   0  0  0  0  0  0  0  0  0  0  0  0
   -5.9040   23.8250  -32.7060 O   0  0  0  0  0  0  0  0  0  0  0  0
   -5.6490   22.2180  -30.9470 C   0  0  0  0  0  0  0  0  0  0  0  0
   -5.8010   21.1420  -32.0060 C   0  0  0  0  0  0  0  0  0  0  0  0
   -7.0960   20.7720  -32.4930 C   0  0  0  0  0  0  0  0  0  0  0  0
   -8.3530   21.4130  -31.9770 C   0  0  0  0  0  0  0  0  0  0  0  0
   -7.2250   19.7950  -33.4400 N   0  0  0  0  0  0  0  0  0  0  0  0
   -6.1140   19.1950  -33.9200 C   0  0  0  0  0  0  0  0  0  0  0  0
   -6.0790   18.2230  -34.8380 N   0  0  0  0  0  0  0  0  0  0  0  0
   -4.7510   17.9780  -34.9490 C   0  0  0  0  0  0  0  0  0  0  0  0
   -4.0130   18.7740  -34.1330 N   0  0  0  0  0  0  0  0  0  0  0  0
   -4.8950   19.5290  -33.5000 N   0  0  0  0  0  0  0  0  0  0  0  0
   -4.6670   20.4910  -32.5700 C   0  0  0  0  0  0  0  0  0  0  0  0
   -3.2560   20.8260  -32.1520 C   0  0  0  0  0  0  0  0  0  0  0  0
   -1.6047   25.2998  -25.9586 H   0  0  0  0  0  0  0  0  0  0  0  0
   -3.1020   25.9954  -26.6664 H   0  0  0  0  0  0  0  0  0  0  0  0
   -2.8509   24.2168  -26.6664 H   0  0  0  0  0  0  0  0  0  0  0  0
   -1.5566   26.3499  -28.3915 H   0  0  0  0  0  0  0  0  0  0  0  0
   -0.6777   24.8143  -28.0516 H   0  0  0  0  0  0  0  0  0  0  0  0
   -1.8481   23.4256  -30.7939 H   0  0  0  0  0  0  0  0  0  0  0  0
   -0.6810   23.5138  -29.4237 H   0  0  0  0  0  0  0  0  0  0  0  0
   -2.2890   22.1805  -28.0300 H   0  0  0  0  0  0  0  0  0  0  0  0
   -3.3446   22.0062  -29.4729 H   0  0  0  0  0  0  0  0  0  0  0  0
   -1.6978   21.2888  -29.4729 H   0  0  0  0  0  0  0  0  0  0  0  0
   -3.9012   23.1160  -28.6463 H   0  0  0  0  0  0  0  0  0  0  0  0
   -3.9133   24.5865  -27.6010 H   0  0  0  0  0  0  0  0  0  0  0  0
   -5.8869   24.4120  -29.1825 H   0  0  0  0  0  0  0  0  0  0  0  0
   -4.9099   25.9152  -29.3623 H   0  0  0  0  0  0  0  0  0  0  0  0
   -4.7854   21.9745  -30.3107 H   0  0  0  0  0  0  0  0  0  0  0  0
   -6.5741   22.2523  -30.3529 H   0  0  0  0  0  0  0  0  0  0  0  0
   -8.3425   21.4076  -30.8771 H   0  0  0  0  0  0  0  0  0  0  0  0
   -8.4104   22.4505  -32.3381 H   0  0  0  0  0  0  0  0  0  0  0  0
   -9.2265   20.8502  -32.3381 H   0  0  0  0  0  0  0  0  0  0  0  0
   -6.8700   17.7670  -35.3420 H   0  0  0  0  0  0  0  0  0  0  0  0
   -4.3206   17.2219  -35.6221 H   0  0  0  0  0  0  0  0  0  0  0  0
   -3.1927   20.8410  -31.0539 H   0  0  0  0  0  0  0  0  0  0  0  0
   -2.5660   20.0667  -32.5487 H   0  0  0  0  0  0  0  0  0  0  0  0
   -2.9809   21.8144  -32.5487 H   0  0  0  0  0  0  0  0  0  0  0  0
  1  2  1  0
  2  3  1  0
  3  4  1  0
  4  5  1  0
  3  6  1  0
  6  7  1  0
  7  8  1  0
  8  9  1  0
  9 10  2  0
  9 11  1  0
 11 12  1  0
 12 13  1  0
 13 14  1  0
 13 15  2  0
 15 16  1  0
 16 17  2  0
 17 18  1  0
 18 19  2  0
 19 20  1  0
 20 21  1  0
 21 22  1  0
 21 12  2  0
 20 16  1  0
  1 23  1  0
  1 24  1  0
  1 25  1  0
  2 26  1  0
  2 27  1  0
  4 28  1  0
  4 29  1  0
  5 30  1  0
  5 31  1  0
  5 32  1  0
  6 33  1  0
  6 34  1  0
  7 35  1  0
  7 36  1  0
 11 37  1  0
 11 38  1  0
 14 39  1  0
 14 40  1  0
 14 41  1  0
 17 42  1  0
 18 43  1  0
 22 44  1  0
 22 45  1  0
 22 46  1  0
M  CHG  1  17   1
M  END
>  <UniqueID>  (13) 
12

>  <SMILES>  (13) 
CCN(CC)CCOC(=O)Cc1c(C)nc2[nH+]cnn2c1C

>  <Energy>  (13) 
82.47871453117608

>  <Genealogy>  (13) 
CCN(CC)CCOC(=O)Cc1c(C)nc2[nH+]cnn2c1C (protonated)
CCN(CC)CCOC(=O)Cc1c(C)nc2[nH+]cnn2c1C (3D coordinates assigned)
CCN(CC)CCOC(=O)Cc1c(C)nc2[nH+]cnn2c1C (optimized conformer: 82.47871453117608 kcal/mol)

>  <smiles>  (13) 
CCN(CC)CCOC(=O)Cc1c(C)nc2ncnn2c1C

>  <score_type>  (13) 
oracle

>  <origin>  (13) 
adg

>  <m_score__min__energy>  (13) 
-6.9299999999999997

>  <m_primary>  (13) 
energy

$$$$
13:0
     RDKit          3D

 56 57  0  0  0  0  0  0  0  0999 V2000
   -6.1020   17.0800  -34.2190 C   0  0  0  0  0  0  0  0  0  0  0  0
   -5.3970   18.4080  -34.5060 C   0  0  0  0  0  0  0  0  0  0  0  0
   -4.9310   19.1110  -33.2910 N   0  0  0  0  0  0  0  0  0  0  0  0
   -3.6450   19.8240  -33.4590 C   0  0  0  0  0  0  0  0  0  0  0  0
   -3.7920   21.3030  -33.1100 C   0  0  0  0  0  0  0  0  0  0  0  0
   -5.9950   19.8130  -32.5280 C   0  0  0  0  0  0  0  0  0  0  0  0
   -7.1400   20.3900  -33.3850 C   0  0  0  0  0  0  0  0  0  0  0  0
   -8.3890   20.0610  -32.8050 O   0  0  0  0  0  0  0  0  0  0  0  0
   -8.3870   20.3570  -31.4240 C   0  0  0  0  0  0  0  0  0  0  0  0
   -9.2100   21.6170  -31.1640 C   0  0  0  0  0  0  0  0  0  0  0  0
   -8.8380   22.6580  -32.0650 O   0  0  0  0  0  0  0  0  0  0  0  0
   -7.6080   23.3250  -32.0160 C   0  0  0  0  0  0  0  0  0  0  0  0
   -7.0800   23.7800  -33.0670 O   0  0  0  0  0  0  0  0  0  0  0  0
   -6.9070   23.4940  -30.6980 C   0  0  0  0  0  0  0  0  0  0  0  0
   -6.4820   24.9590  -30.5020 C   0  0  0  0  0  0  0  0  0  0  0  0
   -5.7370   25.1410  -29.1760 C   0  0  0  0  0  0  0  0  0  0  0  0
   -4.6390   24.1680  -29.0650 N   0  0  0  0  0  0  0  0  0  0  0  0
   -3.3710   24.5370  -28.4890 C   0  0  0  0  0  0  0  0  0  0  0  0
   -3.1730   24.5390  -27.0970 C   0  0  0  0  0  0  0  0  0  0  0  0
   -1.9270   24.9040  -26.5790 C   0  0  0  0  0  0  0  0  0  0  0  0
   -0.8900   25.2560  -27.4440 C   0  0  0  0  0  0  0  0  0  0  0  0
    0.8180   25.7540  -26.7510 Br  0  0  0  0  0  0  0  0  0  0  0  0
   -1.1160   25.2360  -28.8220 C   0  0  0  0  0  0  0  0  0  0  0  0
   -2.3340   24.8790  -29.3070 N   0  0  0  0  0  0  0  0  0  0  0  0
   -4.9470   22.7490  -29.2950 C   0  0  0  0  0  0  0  0  0  0  0  0
   -5.6810   22.5690  -30.6270 C   0  0  0  0  0  0  0  0  0  0  0  0
   -6.1797   16.9336  -33.1316 H   0  0  0  0  0  0  0  0  0  0  0  0
   -7.1098   17.0971  -34.6596 H   0  0  0  0  0  0  0  0  0  0  0  0
   -5.5232   16.2549  -34.6596 H   0  0  0  0  0  0  0  0  0  0  0  0
   -4.5253   18.2067  -35.1461 H   0  0  0  0  0  0  0  0  0  0  0  0
   -6.1342   19.0635  -34.9927 H   0  0  0  0  0  0  0  0  0  0  0  0
   -2.8928   19.3708  -32.7966 H   0  0  0  0  0  0  0  0  0  0  0  0
   -3.3318   19.7406  -34.5102 H   0  0  0  0  0  0  0  0  0  0  0  0
   -3.8039   21.4223  -32.0166 H   0  0  0  0  0  0  0  0  0  0  0  0
   -2.9453   21.8650  -33.5310 H   0  0  0  0  0  0  0  0  0  0  0  0
   -4.7328   21.6873  -33.5310 H   0  0  0  0  0  0  0  0  0  0  0  0
   -6.4302   19.0987  -31.8136 H   0  0  0  0  0  0  0  0  0  0  0  0
   -5.5094   20.6736  -32.0448 H   0  0  0  0  0  0  0  0  0  0  0  0
   -7.0397   21.4841  -33.4387 H   0  0  0  0  0  0  0  0  0  0  0  0
   -7.0864   19.9616  -34.3967 H   0  0  0  0  0  0  0  0  0  0  0  0
   -8.8246   19.5140  -30.8692 H   0  0  0  0  0  0  0  0  0  0  0  0
   -7.3524   20.5235  -31.0896 H   0  0  0  0  0  0  0  0  0  0  0  0
  -10.2768   21.3858  -31.3003 H   0  0  0  0  0  0  0  0  0  0  0  0
   -9.0210   21.9563  -30.1348 H   0  0  0  0  0  0  0  0  0  0  0  0
   -7.6031   23.2207  -29.8913 H   0  0  0  0  0  0  0  0  0  0  0  0
   -5.8211   25.2558  -31.3297 H   0  0  0  0  0  0  0  0  0  0  0  0
   -7.3849   25.5870  -30.4861 H   0  0  0  0  0  0  0  0  0  0  0  0
   -5.3243   26.1596  -29.1293 H   0  0  0  0  0  0  0  0  0  0  0  0
   -6.4413   24.9792  -28.3467 H   0  0  0  0  0  0  0  0  0  0  0  0
   -3.9927   24.2554  -26.4205 H   0  0  0  0  0  0  0  0  0  0  0  0
   -1.7642   24.9137  -25.4912 H   0  0  0  0  0  0  0  0  0  0  0  0
   -0.3071   25.5095  -29.5155 H   0  0  0  0  0  0  0  0  0  0  0  0
   -4.0095   22.1741  -29.3176 H   0  0  0  0  0  0  0  0  0  0  0  0
   -5.5931   22.3885  -28.4810 H   0  0  0  0  0  0  0  0  0  0  0  0
   -4.9963   22.8121  -31.4529 H   0  0  0  0  0  0  0  0  0  0  0  0
   -6.0188   21.5253  -30.7078 H   0  0  0  0  0  0  0  0  0  0  0  0
  1  2  1  0
  2  3  1  0
  3  4  1  0
  4  5  1  0
  3  6  1  0
  6  7  1  0
  7  8  1  0
  8  9  1  0
  9 10  1  0
 10 11  1  0
 11 12  1  0
 12 13  2  0
 12 14  1  0
 14 15  1  0
 15 16  1  0
 16 17  1  0
 17 18  1  0
 18 19  2  0
 19 20  1  0
 20 21  2  0
 21 22  1  0
 21 23  1  0
 23 24  2  0
 17 25  1  0
 25 26  1  0
 26 14  1  0
 24 18  1  0
  1 27  1  0
  1 28  1  0
  1 29  1  0
  2 30  1  0
  2 31  1  0
  4 32  1  0
  4 33  1  0
  5 34  1  0
  5 35  1  0
  5 36  1  0
  6 37  1  0
  6 38  1  0
  7 39  1  0
  7 40  1  0
  9 41  1  0
  9 42  1  0
 10 43  1  0
 10 44  1  0
 14 45  1  0
 15 46  1  0
 15 47  1  0
 16 48  1  0
 16 49  1  0
 19 50  1  0
 20 51  1  0
 23 52  1  0
 25 53  1  0
 25 54  1  0
 26 55  1  0
 26 56  1  0
M  END
>  <UniqueID>  (14) 
13

>  <SMILES>  (14) 
CCN(CC)CCOCCOC(=O)C1CCN(c2ccc(Br)cn2)CC1

>  <Energy>  (14) 
56.52133731184987

>  <Genealogy>  (14) 
CCN(CC)CCOCCOC(=O)C1CCN(c2ccc(Br)cn2)CC1 (3D coordinates assigned)
CCN(CC)CCOCCOC(=O)C1CCN(c2ccc(Br)cn2)CC1 (nonaromatic ring conformer: 56.52133731184987 kcal/mol)

>  <smiles>  (14) 
CCN(CC)CCOCCOC(=O)C1CCN(c2ccc(Br)cn2)CC1

>  <score_type>  (14) 
oracle

>  <origin>  (14) 
adg

>  <m_score__min__energy>  (14) 
-7.4100000000000001

>  <m_primary>  (14) 
energy

$$$$
14:0
     RDKit          3D

 73 75  0  0  0  0  0  0  0  0999 V2000
   -4.2260   24.9140  -26.3700 C   0  0  0  0  0  0  0  0  0  0  0  0
   -3.2720   24.1280  -27.2790 C   0  0  0  0  0  0  0  0  0  0  0  0
   -2.7950   24.9020  -28.4480 N   0  0  0  0  0  0  0  0  0  0  0  0
   -3.0950   24.2200  -29.7270 C   0  0  0  0  0  0  0  0  0  0  0  0
   -4.5160   24.5180  -30.1940 C   0  0  0  0  0  0  0  0  0  0  0  0
   -1.3730   25.3140  -28.3170 C   0  0  0  0  0  0  0  0  0  0  0  0
   -1.0790   25.7420  -26.8750 C   0  0  0  0  0  0  0  0  0  0  0  0
   -0.1580   26.8180  -26.8470 O   0  0  0  0  0  0  0  0  0  0  0  0
    0.4950   26.8890  -25.5950 C   0  0  0  0  0  0  0  0  0  0  0  0
   -0.4990   26.4970  -24.4970 C   0  0  0  0  0  0  0  0  0  0  0  0
   -0.0090   25.3460  -23.7100 N   0  0  0  0  0  0  0  0  0  0  0  0
   -0.5640   24.0690  -24.1930 C   0  0  0  0  0  0  0  0  0  0  0  0
    0.4240   23.3380  -25.1090 C   0  0  0  0  0  0  0  0  0  0  0  0
   -0.0930   22.0530  -25.4490 O   0  0  0  0  0  0  0  0  0  0  0  0
   -0.6640   21.7380  -26.6910 C   0  0  0  0  0  0  0  0  0  0  0  0
   -0.1300   22.2060  -27.9070 C   0  0  0  0  0  0  0  0  0  0  0  0
   -0.7380   21.8730  -29.1210 C   0  0  0  0  0  0  0  0  0  0  0  0
   -1.8860   21.0590  -29.1480 C   0  0  0  0  0  0  0  0  0  0  0  0
   -2.5390   20.7120  -30.4400 C   0  0  0  0  0  0  0  0  0  0  0  0
   -3.8280   21.1890  -30.7450 C   0  0  0  0  0  0  0  0  0  0  0  0
   -4.4470   20.8450  -31.9510 C   0  0  0  0  0  0  0  0  0  0  0  0
   -3.7870   20.0250  -32.8810 C   0  0  0  0  0  0  0  0  0  0  0  0
   -4.3700   19.6380  -34.0980 O   0  0  0  0  0  0  0  0  0  0  0  0
   -5.3600   18.6200  -34.2520 C   0  0  0  0  0  0  0  0  0  0  0  0
   -6.5410   18.8730  -33.3520 C   0  0  0  0  0  0  0  0  0  0  0  0
   -7.1960   20.1140  -33.3720 C   0  0  0  0  0  0  0  0  0  0  0  0
   -8.2830   20.3500  -32.5240 C   0  0  0  0  0  0  0  0  0  0  0  0
   -8.7140   19.3550  -31.6430 C   0  0  0  0  0  0  0  0  0  0  0  0
   -8.0540   18.1260  -31.6010 C   0  0  0  0  0  0  0  0  0  0  0  0
   -6.9680   17.8850  -32.4480 C   0  0  0  0  0  0  0  0  0  0  0  0
   -2.5000   19.5630  -32.5870 C   0  0  0  0  0  0  0  0  0  0  0  0
   -1.8840   19.8940  -31.3770 C   0  0  0  0  0  0  0  0  0  0  0  0
   -2.4100   20.5890  -27.9280 C   0  0  0  0  0  0  0  0  0  0  0  0
   -1.8060   20.9300  -26.7150 C   0  0  0  0  0  0  0  0  0  0  0  0
   -3.9798   24.7111  -25.3173 H   0  0  0  0  0  0  0  0  0  0  0  0
   -4.1200   25.9904  -26.5705 H   0  0  0  0  0  0  0  0  0  0  0  0
   -5.2622   24.6040  -26.5705 H   0  0  0  0  0  0  0  0  0  0  0  0
   -2.3985   23.8219  -26.6846 H   0  0  0  0  0  0  0  0  0  0  0  0
   -3.8345   23.2672  -27.6697 H   0  0  0  0  0  0  0  0  0  0  0  0
   -2.3859   24.5670  -30.4930 H   0  0  0  0  0  0  0  0  0  0  0  0
   -3.0008   23.1350  -29.5723 H   0  0  0  0  0  0  0  0  0  0  0  0
   -5.1684   24.6548  -29.3190 H   0  0  0  0  0  0  0  0  0  0  0  0
   -4.5179   25.4361  -30.7999 H   0  0  0  0  0  0  0  0  0  0  0  0
   -4.8866   23.6780  -30.7999 H   0  0  0  0  0  0  0  0  0  0  0  0
   -0.7230   24.4680  -28.5851 H   0  0  0  0  0  0  0  0  0  0  0  0
   -1.1806   26.1622  -28.9905 H   0  0  0  0  0  0  0  0  0  0  0  0
   -2.0167   26.0575  -26.3942 H   0  0  0  0  0  0  0  0  0  0  0  0
   -0.6406   24.8888  -26.3366 H   0  0  0  0  0  0  0  0  0  0  0  0
    1.3499   26.1969  -25.5841 H   0  0  0  0  0  0  0  0  0  0  0  0
    0.8598   27.9121  -25.4211 H   0  0  0  0  0  0  0  0  0  0  0  0
   -0.6447   27.3546  -23.8237 H   0  0  0  0  0  0  0  0  0  0  0  0
   -1.4470   26.2100  -24.9755 H   0  0  0  0  0  0  0  0  0  0  0  0
   -0.3070   25.4770  -22.7140 H   0  0  0  0  0  0  0  0  0  0  0  0
    1.0370   25.2990  -23.7170 H   0  0  0  0  0  0  0  0  0  0  0  0
   -0.7911   23.4281  -23.3283 H   0  0  0  0  0  0  0  0  0  0  0  0
   -1.4751   24.2849  -24.7703 H   0  0  0  0  0  0  0  0  0  0  0  0
    0.5746   23.9256  -26.0266 H   0  0  0  0  0  0  0  0  0  0  0  0
    1.3836   23.2166  -24.5851 H   0  0  0  0  0  0  0  0  0  0  0  0
    0.7708   22.8373  -27.9016 H   0  0  0  0  0  0  0  0  0  0  0  0
   -0.3154   22.2506  -30.0638 H   0  0  0  0  0  0  0  0  0  0  0  0
   -4.3529   21.8379  -30.0285 H   0  0  0  0  0  0  0  0  0  0  0  0
   -5.4574   21.2191  -32.1727 H   0  0  0  0  0  0  0  0  0  0  0  0
   -5.7014   18.6058  -35.2976 H   0  0  0  0  0  0  0  0  0  0  0  0
   -4.9128   17.6529  -33.9787 H   0  0  0  0  0  0  0  0  0  0  0  0
   -6.8534   20.9037  -34.0568 H   0  0  0  0  0  0  0  0  0  0  0  0
   -8.7995   21.3208  -32.5508 H   0  0  0  0  0  0  0  0  0  0  0  0
   -9.5737   19.5403  -30.9823 H   0  0  0  0  0  0  0  0  0  0  0  0
   -8.3885   17.3463  -30.9009 H   0  0  0  0  0  0  0  0  0  0  0  0
   -6.4455   16.9179  -32.4067 H   0  0  0  0  0  0  0  0  0  0  0  0
   -1.9677   18.9332  -33.3150 H   0  0  0  0  0  0  0  0  0  0  0  0
   -0.8769   19.5108  -31.1557 H   0  0  0  0  0  0  0  0  0  0  0  0
   -3.3034   19.9473  -27.9301 H   0  0  0  0  0  0  0  0  0  0  0  0
   -2.2320   20.5600  -25.7708 H   0  0  0  0  0  0  0  0  0  0  0  0
  1  2  1  0
  2  3  1  0
  3  4  1  0
  4  5  1  0
  3  6  1  0
  6  7  1  0
  7  8  1  0
  8  9  1  0
  9 10  1  0
 10 11  1  0
 11 12  1  0
 12 13  1  0
 13 14  1  0
 14 15  1  0
 15 16  2  0
 16 17  1  0
 17 18  2  0
 18 19  1  0
 19 20  2  0
 20 21  1  0
 21 22  2  0
 22 23  1  0
 23 24  1  0
 24 25  1  0
 25 26  2  0
 26 27  1  0
 27 28  2  0
 28 29  1  0
 29 30  2  0
 22 31  1  0
 31 32  2  0
 18 33  1  0
 33 34  2  0
 34 15  1  0
 32 19  1  0
 30 25  1  0
  1 35  1  0
  1 36  1  0
  1 37  1  0
  2 38  1  0
  2 39  1  0
  4 40  1  0
  4 41  1  0
  5 42  1  0
  5 43  1  0
  5 44  1  0
  6 45  1  0
  6 46  1  0
  7 47  1  0
  7 48  1  0
  9 49  1  0
  9 50  1  0
 10 51  1  0
 10 52  1  0
 11 53  1  0
 11 54  1  0
 12 55  1  0
 12 56  1  0
 13 57  1  0
 13 58  1  0
 16 59  1  0
 17 60  1  0
 20 61  1  0
 21 62  1  0
 24 63  1  0
 24 64  1  0
 26 65  1  0
 27 66  1  0
 28 67  1  0
 29 68  1  0
 30 69  1  0
 31 70  1  0
 32 71  1  0
 33 72  1  0
 34 73  1  0
M  CHG  1  11   1
M  END
>  <UniqueID>  (15) 
14

>  <SMILES>  (15) 
CCN(CC)CCOCC[NH2+]CCOc1ccc(-c2ccc(OCc3ccccc3)cc2)cc1

>  <Energy>  (15) 
78.36409478831976

>  <Genealogy>  (15) 
CCN(CC)CCOCC[NH2+]CCOc1ccc(-c2ccc(OCc3ccccc3)cc2)cc1 (protonated)
CCN(CC)CCOCC[NH2+]CCOc1ccc(-c2ccc(OCc3ccccc3)cc2)cc1 (3D coordinates assigned)
CCN(CC)CCOCC[NH2+]CCOc1ccc(-c2ccc(OCc3ccccc3)cc2)cc1 (optimized conformer: 78.36409478831976 kcal/mol)

>  <smiles>  (15) 
CCN(CC)CCOCCNCCOc1ccc(-c2ccc(OCc3ccccc3)cc2)cc1

>  <score_type>  (15) 
oracle

>  <origin>  (15) 
adg

>  <m_score__min__energy>  (15) 
-8.3100000000000005

>  <m_primary>  (15) 
energy

$$$$
15:0
     RDKit          3D

 60 63  0  0  0  0  0  0  0  0999 V2000
   -2.7180   20.5700  -27.8600 C   0  0  0  0  0  0  0  0  0  0  0  0
   -3.2660   21.6710  -28.7630 C   0  0  0  0  0  0  0  0  0  0  0  0
   -2.2010   22.1930  -29.6480 N   0  0  0  0  0  0  0  0  0  0  0  0
   -1.8220   23.5850  -29.3190 C   0  0  0  0  0  0  0  0  0  0  0  0
   -2.7820   24.2100  -28.3080 C   0  0  0  0  0  0  0  0  0  0  0  0
   -1.0640   21.2500  -29.8200 C   0  0  0  0  0  0  0  0  0  0  0  0
   -0.3820   21.2560  -31.2040 C   0  0  0  0  0  0  0  0  0  0  0  0
   -1.0030   20.3390  -32.0800 O   0  0  0  0  0  0  0  0  0  0  0  0
   -1.1750   20.9400  -33.3470 C   0  0  0  0  0  0  0  0  0  0  0  0
   -2.5750   21.5470  -33.4520 C   0  0  0  0  0  0  0  0  0  0  0  0
   -3.3690   21.3080  -32.2440 N   0  0  0  0  0  0  0  0  0  0  0  0
   -4.8020   21.3740  -32.2200 C   0  0  0  0  0  0  0  0  0  0  0  0
   -5.4960   22.4650  -31.6410 C   0  0  0  0  0  0  0  0  0  0  0  0
   -4.8010   23.5930  -31.1610 C   0  0  0  0  0  0  0  0  0  0  0  0
   -5.4790   24.6310  -30.5260 C   0  0  0  0  0  0  0  0  0  0  0  0
   -6.8590   24.5700  -30.3680 C   0  0  0  0  0  0  0  0  0  0  0  0
   -7.5810   23.4950  -30.8830 C   0  0  0  0  0  0  0  0  0  0  0  0
   -6.9300   22.4400  -31.5690 C   0  0  0  0  0  0  0  0  0  0  0  0
   -7.6460   21.4080  -32.1580 N   0  0  0  0  0  0  0  0  0  0  0  0
   -9.1210   21.4160  -32.1800 C   0  0  0  0  0  0  0  0  0  0  0  0
   -6.9480   20.3690  -32.7200 C   0  0  0  0  0  0  0  0  0  0  0  0
   -7.4750   19.2360  -33.2480 N   0  0  0  0  0  0  0  0  0  0  0  0
   -6.4150   18.5110  -33.6540 C   0  0  0  0  0  0  0  0  0  0  0  0
   -6.4470   17.2460  -34.2380 C   0  0  0  0  0  0  0  0  0  0  0  0
   -5.2230   16.6430  -34.5750 C   0  0  0  0  0  0  0  0  0  0  0  0
   -4.0060   17.3090  -34.3240 C   0  0  0  0  0  0  0  0  0  0  0  0
   -3.9970   18.5830  -33.7280 C   0  0  0  0  0  0  0  0  0  0  0  0
   -5.2250   19.1580  -33.3930 C   0  0  0  0  0  0  0  0  0  0  0  0
   -5.5680   20.3500  -32.7740 C   0  0  0  0  0  0  0  0  0  0  0  0
   -2.8598   20.8549  -26.8070 H   0  0  0  0  0  0  0  0  0  0  0  0
   -3.2536   19.6305  -28.0610 H   0  0  0  0  0  0  0  0  0  0  0  0
   -1.6455   20.4309  -28.0610 H   0  0  0  0  0  0  0  0  0  0  0  0
   -4.0805   21.2621  -29.3789 H   0  0  0  0  0  0  0  0  0  0  0  0
   -3.6413   22.4924  -28.1350 H   0  0  0  0  0  0  0  0  0  0  0  0
   -0.8071   23.5870  -28.8948 H   0  0  0  0  0  0  0  0  0  0  0  0
   -1.8648   24.1789  -30.2439 H   0  0  0  0  0  0  0  0  0  0  0  0
   -2.4373   23.9856  -27.2878 H   0  0  0  0  0  0  0  0  0  0  0  0
   -2.8099   25.2999  -28.4542 H   0  0  0  0  0  0  0  0  0  0  0  0
   -3.7900   23.7945  -28.4542 H   0  0  0  0  0  0  0  0  0  0  0  0
   -0.3015   21.5019  -29.0683 H   0  0  0  0  0  0  0  0  0  0  0  0
   -1.4941   20.2440  -29.7064 H   0  0  0  0  0  0  0  0  0  0  0  0
   -0.4502   22.2662  -31.6339 H   0  0  0  0  0  0  0  0  0  0  0  0
    0.6699   20.9605  -31.0768 H   0  0  0  0  0  0  0  0  0  0  0  0
   -0.4235   21.7323  -33.4795 H   0  0  0  0  0  0  0  0  0  0  0  0
   -1.0530   20.1759  -34.1288 H   0  0  0  0  0  0  0  0  0  0  0  0
   -2.4810   22.6321  -33.6062 H   0  0  0  0  0  0  0  0  0  0  0  0
   -3.0904   21.0681  -34.2976 H   0  0  0  0  0  0  0  0  0  0  0  0
   -2.8720   21.0640  -31.3570 H   0  0  0  0  0  0  0  0  0  0  0  0
   -3.7102   23.6545  -31.2893 H   0  0  0  0  0  0  0  0  0  0  0  0
   -4.9214   25.5009  -30.1487 H   0  0  0  0  0  0  0  0  0  0  0  0
   -7.3841   25.3752  -29.8332 H   0  0  0  0  0  0  0  0  0  0  0  0
   -8.6731   23.4651  -30.7549 H   0  0  0  0  0  0  0  0  0  0  0  0
   -9.5031   21.4181  -31.1485 H   0  0  0  0  0  0  0  0  0  0  0  0
   -9.4750   22.3161  -32.7040 H   0  0  0  0  0  0  0  0  0  0  0  0
   -9.4848   20.5198  -32.7040 H   0  0  0  0  0  0  0  0  0  0  0  0
   -8.4710   18.9310  -33.3010 H   0  0  0  0  0  0  0  0  0  0  0  0
   -7.4019   16.7347  -34.4295 H   0  0  0  0  0  0  0  0  0  0  0  0
   -5.2145   15.6450  -35.0376 H   0  0  0  0  0  0  0  0  0  0  0  0
   -3.0551   16.8280  -34.5967 H   0  0  0  0  0  0  0  0  0  0  0  0
   -3.0518   19.1103  -33.5317 H   0  0  0  0  0  0  0  0  0  0  0  0
  1  2  1  0
  2  3  1  0
  3  4  1  0
  4  5  1  0
  3  6  1  0
  6  7  1  0
  7  8  1  0
  8  9  1  0
  9 10  1  0
 10 11  1  0
 11 12  1  0
 12 13  2  0
 13 14  1  0
 14 15  2  0
 15 16  1  0
 16 17  2  0
 17 18  1  0
 18 19  2  0
 19 20  1  0
 19 21  1  0
 21 22  1  0
 22 23  1  0
 23 24  2  0
 24 25  1  0
 25 26  2  0
 26 27  1  0
 27 28  2  0
 28 29  1  0
 29 12  1  0
 18 13  1  0
 29 21  2  0
 28 23  1  0
  1 30  1  0
  1 31  1  0
  1 32  1  0
  2 33  1  0
  2 34  1  0
  4 35  1  0
  4 36  1  0
  5 37  1  0
  5 38  1  0
  5 39  1  0
  6 40  1  0
  6 41  1  0
  7 42  1  0
  7 43  1  0
  9 44  1  0
  9 45  1  0
 10 46  1  0
 10 47  1  0
 11 48  1  0
 14 49  1  0
 15 50  1  0
 16 51  1  0
 17 52  1  0
 20 53  1  0
 20 54  1  0
 20 55  1  0
 22 56  1  0
 24 57  1  0
 25 58  1  0
 26 59  1  0
 27 60  1  0
M  CHG  1  19   1
M  END
>  <UniqueID>  (16) 
15

>  <SMILES>  (16) 
CCN(CC)CCOCCNc1c2ccccc2[n+](C)c2[nH]c3ccccc3c12

>  <Energy>  (16) 
115.71795656266318

>  <Genealogy>  (16) 
CCN(CC)CCOCCNc1c2ccccc2[n+](C)c2[nH]c3ccccc3c12 (3D coordinates assigned)
CCN(CC)CCOCCNc1c2ccccc2[n+](C)c2[nH]c3ccccc3c12 (optimized conformer: 115.71795656266318 kcal/mol)

>  <smiles>  (16) 
CCN(CC)CCOCCNc1c2ccccc2[n+](C)c2[nH]c3ccccc3c12

>  <score_type>  (16) 
oracle

>  <origin>  (16) 
adg

>  <m_score__min__energy>  (16) 
-8.8399999999999999

>  <m_primary>  (16) 
energy

$$$$
16:0
     RDKit          3D

 48 51  0  0  0  0  0  0  0  0999 V2000
    0.7910   23.4370  -24.4820 C   0  0  0  0  0  0  0  0  0  0  0  0
    0.9710   23.0900  -25.8510 O   0  0  0  0  0  0  0  0  0  0  0  0
   -0.0380   23.1510  -26.8230 C   0  0  0  0  0  0  0  0  0  0  0  0
    0.1640   23.7410  -28.0850 C   0  0  0  0  0  0  0  0  0  0  0  0
   -0.8740   23.7740  -29.0220 C   0  0  0  0  0  0  0  0  0  0  0  0
   -2.1170   23.1990  -28.7200 C   0  0  0  0  0  0  0  0  0  0  0  0
   -3.2260   23.2840  -29.6900 C   0  0  0  0  0  0  0  0  0  0  0  0
   -4.0020   24.4480  -29.6370 C   0  0  0  0  0  0  0  0  0  0  0  0
   -4.9620   24.6800  -30.6150 C   0  0  0  0  0  0  0  0  0  0  0  0
   -5.6580   25.7280  -30.5770 O   0  0  0  0  0  0  0  0  0  0  0  0
   -5.1380   23.8130  -31.5970 O   0  0  0  0  0  0  0  0  0  0  0  0
   -4.4480   22.6810  -31.6960 C   0  0  0  0  0  0  0  0  0  0  0  0
   -4.7080   21.8470  -32.7840 C   0  0  0  0  0  0  0  0  0  0  0  0
   -4.0200   20.6380  -32.9380 C   0  0  0  0  0  0  0  0  0  0  0  0
   -4.2260   19.7830  -34.0330 O   0  0  0  0  0  0  0  0  0  0  0  0
   -5.1550   18.6970  -34.0690 C   0  0  0  0  0  0  0  0  0  0  0  0
   -6.3470   18.9750  -33.1810 C   0  0  0  0  0  0  0  0  0  0  0  0
   -7.1700   20.0780  -33.4740 C   0  0  0  0  0  0  0  0  0  0  0  0
   -8.2870   20.3630  -32.6860 C   0  0  0  0  0  0  0  0  0  0  0  0
   -8.6060   19.5410  -31.6040 C   0  0  0  0  0  0  0  0  0  0  0  0
   -7.8140   18.4290  -31.3130 C   0  0  0  0  0  0  0  0  0  0  0  0
   -6.6910   18.1340  -32.0960 C   0  0  0  0  0  0  0  0  0  0  0  0
   -5.7550   16.7010  -31.6850 Cl  0  0  0  0  0  0  0  0  0  0  0  0
   -3.1010   20.2500  -31.9650 C   0  0  0  0  0  0  0  0  0  0  0  0
   -2.8350   21.0500  -30.8390 C   0  0  0  0  0  0  0  0  0  0  0  0
   -1.9190   20.4650  -29.7920 C   0  0  0  0  0  0  0  0  0  0  0  0
   -3.4720   22.3280  -30.7220 C   0  0  0  0  0  0  0  0  0  0  0  0
   -2.3290   22.6390  -27.4520 C   0  0  0  0  0  0  0  0  0  0  0  0
   -1.2910   22.6050  -26.5160 C   0  0  0  0  0  0  0  0  0  0  0  0
    1.2038   22.6411  -23.8447 H   0  0  0  0  0  0  0  0  0  0  0  0
    1.3123   24.3825  -24.2718 H   0  0  0  0  0  0  0  0  0  0  0  0
   -0.2822   23.5554  -24.2718 H   0  0  0  0  0  0  0  0  0  0  0  0
    1.1420   24.1778  -28.3353 H   0  0  0  0  0  0  0  0  0  0  0  0
   -0.7148   24.2528  -29.9995 H   0  0  0  0  0  0  0  0  0  0  0  0
   -3.8527   25.1754  -28.8254 H   0  0  0  0  0  0  0  0  0  0  0  0
   -5.4617   22.1429  -33.5286 H   0  0  0  0  0  0  0  0  0  0  0  0
   -5.5020   18.5544  -35.1030 H   0  0  0  0  0  0  0  0  0  0  0  0
   -4.6495   17.7907  -33.7042 H   0  0  0  0  0  0  0  0  0  0  0  0
   -6.9310   20.7225  -34.3328 H   0  0  0  0  0  0  0  0  0  0  0  0
   -8.9156   21.2354  -32.9180 H   0  0  0  0  0  0  0  0  0  0  0  0
   -9.4825   19.7697  -30.9799 H   0  0  0  0  0  0  0  0  0  0  0  0
   -8.0736   17.7804  -30.4634 H   0  0  0  0  0  0  0  0  0  0  0  0
   -2.5700   19.2936  -32.0804 H   0  0  0  0  0  0  0  0  0  0  0  0
   -2.3028   20.7101  -28.7907 H   0  0  0  0  0  0  0  0  0  0  0  0
   -1.8767   19.3723  -29.9111 H   0  0  0  0  0  0  0  0  0  0  0  0
   -0.9098   20.8862  -29.9111 H   0  0  0  0  0  0  0  0  0  0  0  0
   -3.3148   22.2253  -27.1930 H   0  0  0  0  0  0  0  0  0  0  0  0
   -1.4596   22.1459  -25.5307 H   0  0  0  0  0  0  0  0  0  0  0  0
  1  2  1  0
  2  3  1  0
  3  4  2  0
  4  5  1  0
  5  6  2  0
  6  7  1  0
  7  8  2  0
  8  9  1  0
  9 10  2  0
  9 11  1  0
 11 12  1  0
 12 13  2  0
 13 14  1  0
 14 15  1  0
 15 16  1  0
 16 17  1  0
 17 18  2  0
 18 19  1  0
 19 20  2  0
 20 21  1  0
 21 22  2  0
 22 23  1  0
 14 24  2  0
 24 25  1  0
 25 26  1  0
 25 27  2  0
  6 28  1  0
 28 29  2  0
 29  3  1  0
 27  7  1  0
 27 12  1  0
 22 17  1  0
  1 30  1  0
  1 31  1  0
  1 32  1  0
  4 33  1  0
  5 34  1  0
  8 35  1  0
 13 36  1  0
 16 37  1  0
 16 38  1  0
 18 39  1  0
 19 40  1  0
 20 41  1  0
 21 42  1  0
 24 43  1  0
 26 44  1  0
 26 45  1  0
 26 46  1  0
 28 47  1  0
 29 48  1  0
M  END
>  <UniqueID>  (17) 
16

>  <SMILES>  (17) 
COc1ccc(-c2cc(=O)oc3cc(OCc4ccccc4Cl)cc(C)c23)cc1

>  <Energy>  (17) 
73.375549378226

>  <Genealogy>  (17) 
COc1ccc(-c2cc(=O)oc3cc(OCc4ccccc4Cl)cc(C)c23)cc1 (3D coordinates assigned)
COc1ccc(-c2cc(=O)oc3cc(OCc4ccccc4Cl)cc(C)c23)cc1 (optimized conformer: 73.375549378226 kcal/mol)

>  <smiles>  (17) 
COc1ccc(-c2cc(=O)oc3cc(OCc4ccccc4Cl)cc(C)c23)cc1

>  <score_type>  (17) 
oracle

>  <origin>  (17) 
adg

>  <m_score__min__energy>  (17) 
-9.6799999999999997

>  <m_primary>  (17) 
energy

$$$$
17:0
     RDKit          3D

 64 65  0  0  0  0  0  0  0  0999 V2000
   -1.4230   21.7560  -28.9040 C   0  0  0  0  0  0  0  0  0  0  0  0
   -1.1110   22.9010  -29.8630 C   0  0  0  0  0  0  0  0  0  0  0  0
   -1.3510   24.2050  -29.2050 N   0  0  0  0  0  0  0  0  0  0  0  0
   -0.3280   24.4800  -28.1720 C   0  0  0  0  0  0  0  0  0  0  0  0
   -0.9230   25.3260  -27.0490 C   0  0  0  0  0  0  0  0  0  0  0  0
   -2.7240   24.2900  -28.6490 C   0  0  0  0  0  0  0  0  0  0  0  0
   -3.7560   24.0980  -29.7590 C   0  0  0  0  0  0  0  0  0  0  0  0
   -3.9370   25.3090  -30.4610 O   0  0  0  0  0  0  0  0  0  0  0  0
   -5.3180   25.5620  -30.6150 C   0  0  0  0  0  0  0  0  0  0  0  0
   -6.0610   24.2410  -30.7950 C   0  0  0  0  0  0  0  0  0  0  0  0
   -6.1750   23.9120  -32.2280 N   0  0  0  0  0  0  0  0  0  0  0  0
   -5.8360   22.5100  -32.5240 C   0  0  0  0  0  0  0  0  0  0  0  0
   -4.3180   22.2890  -32.5740 C   0  0  0  0  0  0  0  0  0  0  0  0
   -3.9310   20.8600  -32.9890 C   0  0  0  0  0  0  0  0  0  0  0  0
   -5.0720   20.0970  -33.3860 O   0  0  0  0  0  0  0  0  0  0  0  0
   -5.1150   18.7010  -33.5550 C   0  0  0  0  0  0  0  0  0  0  0  0
   -4.5750   18.0690  -34.6930 C   0  0  0  0  0  0  0  0  0  0  0  0
   -4.6470   16.6820  -34.8330 C   0  0  0  0  0  0  0  0  0  0  0  0
   -5.2500   15.9070  -33.8420 C   0  0  0  0  0  0  0  0  0  0  0  0
   -5.7780   16.5170  -32.7050 C   0  0  0  0  0  0  0  0  0  0  0  0
   -5.7080   17.9120  -32.5440 C   0  0  0  0  0  0  0  0  0  0  0  0
   -6.2990   18.5430  -31.3070 C   0  0  0  0  0  0  0  0  0  0  0  0
   -7.5150   19.3590  -31.6530 C   0  0  0  0  0  0  0  0  0  0  0  0
   -7.7080   20.6280  -31.0840 C   0  0  0  0  0  0  0  0  0  0  0  0
   -8.8260   21.3940  -31.4290 C   0  0  0  0  0  0  0  0  0  0  0  0
   -9.7580   20.9000  -32.3450 C   0  0  0  0  0  0  0  0  0  0  0  0
   -9.5720   19.6390  -32.9190 C   0  0  0  0  0  0  0  0  0  0  0  0
   -8.4550   18.8710  -32.5770 C   0  0  0  0  0  0  0  0  0  0  0  0
   -1.3266   22.1098  -27.8669 H   0  0  0  0  0  0  0  0  0  0  0  0
   -2.4502   21.4025  -29.0769 H   0  0  0  0  0  0  0  0  0  0  0  0
   -0.7171   20.9303  -29.0769 H   0  0  0  0  0  0  0  0  0  0  0  0
   -0.0568   22.8389  -30.1708 H   0  0  0  0  0  0  0  0  0  0  0  0
   -1.7669   22.8189  -30.7422 H   0  0  0  0  0  0  0  0  0  0  0  0
    0.0333   23.5277  -27.7565 H   0  0  0  0  0  0  0  0  0  0  0  0
    0.5057   25.0310  -28.6318 H   0  0  0  0  0  0  0  0  0  0  0  0
   -0.6270   24.9052  -26.0767 H   0  0  0  0  0  0  0  0  0  0  0  0
   -0.5507   26.3579  -27.1306 H   0  0  0  0  0  0  0  0  0  0  0  0
   -2.0200   25.3245  -27.1306 H   0  0  0  0  0  0  0  0  0  0  0  0
   -2.8575   23.5058  -27.8893 H   0  0  0  0  0  0  0  0  0  0  0  0
   -2.8662   25.2816  -28.1945 H   0  0  0  0  0  0  0  0  0  0  0  0
   -3.4034   23.3223  -30.4547 H   0  0  0  0  0  0  0  0  0  0  0  0
   -4.7138   23.7906  -29.3139 H   0  0  0  0  0  0  0  0  0  0  0  0
   -5.6982   26.0775  -29.7207 H   0  0  0  0  0  0  0  0  0  0  0  0
   -5.4779   26.1958  -31.4997 H   0  0  0  0  0  0  0  0  0  0  0  0
   -5.5086   23.4405  -30.2812 H   0  0  0  0  0  0  0  0  0  0  0  0
   -7.0699   24.3354  -30.3670 H   0  0  0  0  0  0  0  0  0  0  0  0
   -5.5010   24.5150  -32.7560 H   0  0  0  0  0  0  0  0  0  0  0  0
   -6.2638   21.8672  -31.7405 H   0  0  0  0  0  0  0  0  0  0  0  0
   -6.2508   22.2591  -33.5114 H   0  0  0  0  0  0  0  0  0  0  0  0
   -3.8851   22.9937  -33.2992 H   0  0  0  0  0  0  0  0  0  0  0  0
   -3.9286   22.4529  -31.5584 H   0  0  0  0  0  0  0  0  0  0  0  0
   -3.2263   20.9122  -33.8320 H   0  0  0  0  0  0  0  0  0  0  0  0
   -3.4720   20.3637  -32.1213 H   0  0  0  0  0  0  0  0  0  0  0  0
   -4.0935   18.6728  -35.4763 H   0  0  0  0  0  0  0  0  0  0  0  0
   -4.2270   16.1986  -35.7274 H   0  0  0  0  0  0  0  0  0  0  0  0
   -5.3088   14.8147  -33.9577 H   0  0  0  0  0  0  0  0  0  0  0  0
   -6.2535   15.9016  -31.9271 H   0  0  0  0  0  0  0  0  0  0  0  0
   -6.5855   17.7508  -30.5997 H   0  0  0  0  0  0  0  0  0  0  0  0
   -5.5463   19.2057  -30.8550 H   0  0  0  0  0  0  0  0  0  0  0  0
   -6.9762   21.0216  -30.3633 H   0  0  0  0  0  0  0  0  0  0  0  0
   -8.9718   22.3869  -30.9785 H   0  0  0  0  0  0  0  0  0  0  0  0
  -10.6377   21.5029  -32.6144 H   0  0  0  0  0  0  0  0  0  0  0  0
  -10.3055   19.2505  -33.6408 H   0  0  0  0  0  0  0  0  0  0  0  0
   -8.3111   17.8804  -33.0331 H   0  0  0  0  0  0  0  0  0  0  0  0
  1  2  1  0
  2  3  1  0
  3  4  1  0
  4  5  1  0
  3  6  1  0
  6  7  1  0
  7  8  1  0
  8  9  1  0
  9 10  1  0
 10 11  1  0
 11 12  1  0
 12 13  1  0
 13 14  1  0
 14 15  1  0
 15 16  1  0
 16 17  2  0
 17 18  1  0
 18 19  2  0
 19 20  1  0
 20 21  2  0
 21 22  1  0
 22 23  1  0
 23 24  2  0
 24 25  1  0
 25 26  2  0
 26 27  1  0
 27 28  2  0
 21 16  1  0
 28 23  1  0
  1 29  1  0
  1 30  1  0
  1 31  1  0
  2 32  1  0
  2 33  1  0
  4 34  1  0
  4 35  1  0
  5 36  1  0
  5 37  1  0
  5 38  1  0
  6 39  1  0
  6 40  1  0
  7 41  1  0
  7 42  1  0
  9 43  1  0
  9 44  1  0
 10 45  1  0
 10 46  1  0
 11 47  1  0
 12 48  1  0
 12 49  1  0
 13 50  1  0
 13 51  1  0
 14 52  1  0
 14 53  1  0
 17 54  1  0
 18 55  1  0
 19 56  1  0
 20 57  1  0
 22 58  1  0
 22 59  1  0
 24 60  1  0
 25 61  1  0
 26 62  1  0
 27 63  1  0
 28 64  1  0
M  END
>  <UniqueID>  (18) 
17

>  <SMILES>  (18) 
CCN(CC)CCOCCNCCCOc1ccccc1Cc1ccccc1

>  <Energy>  (18) 
51.9091847816806

>  <Genealogy>  (18) 
CCN(CC)CCOCCNCCCOc1ccccc1Cc1ccccc1 (3D coordinates assigned)
CCN(CC)CCOCCNCCCOc1ccccc1Cc1ccccc1 (optimized conformer: 51.9091847816806 kcal/mol)

>  <smiles>  (18) 
CCN(CC)CCOCCNCCCOc1ccccc1Cc1ccccc1

>  <score_type>  (18) 
oracle

>  <origin>  (18) 
adg

>  <m_score__min__energy>  (18) 
-7.3099999999999996

>  <m_primary>  (18) 
energy

$$$$
18:0
     RDKit          3D

 28 28  0  0  0  0  0  0  0  0999 V2000
   -3.2640   21.9180  -28.9000 C   0  0  0  0  0  0  0  0  0  0  0  0
   -4.3940   22.6960  -28.2290 C   0  0  0  0  0  0  0  0  0  0  0  0
   -4.2410   24.1520  -28.4270 N   0  0  0  0  0  0  0  0  0  0  0  0
   -2.8170   24.5400  -28.5220 C   0  0  0  0  0  0  0  0  0  0  0  0
   -2.2800   24.8930  -27.1390 C   0  0  0  0  0  0  0  0  0  0  0  0
   -5.1290   24.7110  -29.8400 S   0  0  0  0  0  0  0  0  0  0  0  0
   -6.0860   25.7950  -29.4310 O   0  0  0  0  0  0  0  0  0  0  0  0
   -4.1780   25.3030  -30.8430 O   0  0  0  0  0  0  0  0  0  0  0  0
   -6.0240   23.4050  -30.6240 C   0  0  0  0  0  0  0  0  0  0  0  0
   -7.2620   22.9880  -30.1200 C   0  0  0  0  0  0  0  0  0  0  0  0
   -7.9630   21.9590  -30.7510 C   0  0  0  0  0  0  0  0  0  0  0  0
   -7.4140   21.3510  -31.8820 C   0  0  0  0  0  0  0  0  0  0  0  0
   -8.2700   20.0570  -32.6950 Cl  0  0  0  0  0  0  0  0  0  0  0  0
   -6.2060   21.7610  -32.3550 N   0  0  0  0  0  0  0  0  0  0  0  0
   -5.5050   22.7610  -31.7560 C   0  0  0  0  0  0  0  0  0  0  0  0
   -2.6174   21.4728  -28.1295 H   0  0  0  0  0  0  0  0  0  0  0  0
   -3.6897   21.1206  -29.5269 H   0  0  0  0  0  0  0  0  0  0  0  0
   -2.6710   22.6002  -29.5269 H   0  0  0  0  0  0  0  0  0  0  0  0
   -5.3538   22.3755  -28.6603 H   0  0  0  0  0  0  0  0  0  0  0  0
   -4.3615   22.4893  -27.1491 H   0  0  0  0  0  0  0  0  0  0  0  0
   -2.2375   23.7011  -28.9347 H   0  0  0  0  0  0  0  0  0  0  0  0
   -2.7244   25.4165  -29.1802 H   0  0  0  0  0  0  0  0  0  0  0  0
   -2.9368   24.4612  -26.3695 H   0  0  0  0  0  0  0  0  0  0  0  0
   -1.2646   24.4857  -27.0250 H   0  0  0  0  0  0  0  0  0  0  0  0
   -2.2513   25.9867  -27.0250 H   0  0  0  0  0  0  0  0  0  0  0  0
   -7.6825   23.4717  -29.2260 H   0  0  0  0  0  0  0  0  0  0  0  0
   -8.9378   21.6304  -30.3614 H   0  0  0  0  0  0  0  0  0  0  0  0
   -4.5285   23.0652  -32.1608 H   0  0  0  0  0  0  0  0  0  0  0  0
  1  2  1  0
  2  3  1  0
  3  4  1  0
  4  5  1  0
  3  6  1  0
  6  7  2  0
  6  8  2  0
  6  9  1  0
  9 10  2  0
 10 11  1  0
 11 12  2  0
 12 13  1  0
 12 14  1  0
 14 15  2  0
 15  9  1  0
  1 16  1  0
  1 17  1  0
  1 18  1  0
  2 19  1  0
  2 20  1  0
  4 21  1  0
  4 22  1  0
  5 23  1  0
  5 24  1  0
  5 25  1  0
 10 26  1  0
 11 27  1  0
 15 28  1  0
M  END
>  <UniqueID>  (19) 
18

>  <SMILES>  (19) 
CCN(CC)S(=O)(=O)c1ccc(Cl)nc1

>  <Energy>  (19) 
25.223727897835165

>  <Genealogy>  (19) 
CCN(CC)S(=O)(=O)c1ccc(Cl)nc1 (3D coordinates assigned)
CCN(CC)S(=O)(=O)c1ccc(Cl)nc1 (optimized conformer: 25.223727897835165 kcal/mol)

>  <smiles>  (19) 
CCN(CC)S(=O)(=O)c1ccc(Cl)nc1

>  <score_type>  (19) 
oracle

>  <origin>  (19) 
adg

>  <m_score__min__energy>  (19) 
-6.29

>  <m_primary>  (19) 
energy

$$$$
19:0
     RDKit          3D

 58 61  0  0  0  0  0  0  0  0999 V2000
   -8.7130   21.0400  -31.0820 C   0  0  0  0  0  0  0  0  0  0  0  0
   -9.5480   20.8240  -32.3460 C   0  0  0  0  0  0  0  0  0  0  0  0
   -9.0730   19.6840  -33.1510 N   0  0  0  0  0  0  0  0  0  0  0  0
   -8.3970   18.6430  -32.3450 C   0  0  0  0  0  0  0  0  0  0  0  0
   -7.3580   17.8650  -33.1690 C   0  0  0  0  0  0  0  0  0  0  0  0
   -6.4740   18.7800  -33.8910 N   0  0  0  0  0  0  0  0  0  0  0  0
   -5.1350   19.0440  -33.4410 C   0  0  0  0  0  0  0  0  0  0  0  0
   -4.1440   18.0570  -33.5700 C   0  0  0  0  0  0  0  0  0  0  0  0
   -4.4640   16.7600  -34.0210 C   0  0  0  0  0  0  0  0  0  0  0  0
   -3.4650   15.8040  -34.1910 C   0  0  0  0  0  0  0  0  0  0  0  0
   -2.1390   16.1220  -33.9180 C   0  0  0  0  0  0  0  0  0  0  0  0
   -1.8020   17.4030  -33.4780 C   0  0  0  0  0  0  0  0  0  0  0  0
   -2.7970   18.3950  -33.2970 C   0  0  0  0  0  0  0  0  0  0  0  0
   -2.4730   19.6730  -32.8910 N   0  0  0  0  0  0  0  0  0  0  0  0
   -1.1100   20.1740  -33.1750 C   0  0  0  0  0  0  0  0  0  0  0  0
   -3.4670   20.5300  -32.4510 C   0  0  0  0  0  0  0  0  0  0  0  0
   -4.8090   20.2770  -32.8430 C   0  0  0  0  0  0  0  0  0  0  0  0
   -5.7990   21.2480  -32.6150 C   0  0  0  0  0  0  0  0  0  0  0  0
   -5.4860   22.4540  -32.0040 C   0  0  0  0  0  0  0  0  0  0  0  0
   -4.2070   22.6760  -31.4820 C   0  0  0  0  0  0  0  0  0  0  0  0
   -3.9330   23.8530  -30.7490 C   0  0  0  0  0  0  0  0  0  0  0  0
   -4.8750   24.8820  -30.6700 O   0  0  0  0  0  0  0  0  0  0  0  0
   -5.8030   24.9510  -29.5960 C   0  0  0  0  0  0  0  0  0  0  0  0
   -2.7200   23.9960  -30.0680 C   0  0  0  0  0  0  0  0  0  0  0  0
   -2.4900   25.1800  -29.3500 O   0  0  0  0  0  0  0  0  0  0  0  0
   -1.9150   25.2350  -28.0480 C   0  0  0  0  0  0  0  0  0  0  0  0
   -1.7850   22.9510  -30.1030 C   0  0  0  0  0  0  0  0  0  0  0  0
   -2.0360   21.8020  -30.8520 C   0  0  0  0  0  0  0  0  0  0  0  0
   -3.2080   21.6770  -31.6300 C   0  0  0  0  0  0  0  0  0  0  0  0
   -9.3423   20.8772  -30.1946 H   0  0  0  0  0  0  0  0  0  0  0  0
   -7.8733   20.3295  -31.0714 H   0  0  0  0  0  0  0  0  0  0  0  0
   -8.3232   22.0686  -31.0714 H   0  0  0  0  0  0  0  0  0  0  0  0
  -10.5912   20.6370  -32.0515 H   0  0  0  0  0  0  0  0  0  0  0  0
   -9.4572   21.7293  -32.9642 H   0  0  0  0  0  0  0  0  0  0  0  0
   -9.8690   19.2890  -33.7060 H   0  0  0  0  0  0  0  0  0  0  0  0
   -8.3840   20.0610  -33.8420 H   0  0  0  0  0  0  0  0  0  0  0  0
   -7.8896   19.1243  -31.4959 H   0  0  0  0  0  0  0  0  0  0  0  0
   -9.1603   17.9307  -31.9987 H   0  0  0  0  0  0  0  0  0  0  0  0
   -6.7557   17.2409  -32.4925 H   0  0  0  0  0  0  0  0  0  0  0  0
   -7.8878   17.2372  -33.9006 H   0  0  0  0  0  0  0  0  0  0  0  0
   -6.8330   19.2780  -34.7360 H   0  0  0  0  0  0  0  0  0  0  0  0
   -5.5103   16.5010  -34.2403 H   0  0  0  0  0  0  0  0  0  0  0  0
   -3.7258   14.7947  -34.5422 H   0  0  0  0  0  0  0  0  0  0  0  0
   -1.3542   15.3625  -34.0491 H   0  0  0  0  0  0  0  0  0  0  0  0
   -0.7496   17.6456  -33.2690 H   0  0  0  0  0  0  0  0  0  0  0  0
   -0.5854   20.3668  -32.2276 H   0  0  0  0  0  0  0  0  0  0  0  0
   -0.5558   19.4208  -33.7543 H   0  0  0  0  0  0  0  0  0  0  0  0
   -1.1755   21.1068  -33.7543 H   0  0  0  0  0  0  0  0  0  0  0  0
   -6.8356   21.0495  -32.9249 H   0  0  0  0  0  0  0  0  0  0  0  0
   -6.2498   23.2420  -31.9294 H   0  0  0  0  0  0  0  0  0  0  0  0
   -5.2608   24.9107  -28.6398 H   0  0  0  0  0  0  0  0  0  0  0  0
   -6.3667   25.8935  -29.6584 H   0  0  0  0  0  0  0  0  0  0  0  0
   -6.4999   24.1022  -29.6584 H   0  0  0  0  0  0  0  0  0  0  0  0
   -2.7107   25.1589  -27.2923 H   0  0  0  0  0  0  0  0  0  0  0  0
   -1.2096   24.4002  -27.9231 H   0  0  0  0  0  0  0  0  0  0  0  0
   -1.3807   26.1884  -27.9231 H   0  0  0  0  0  0  0  0  0  0  0  0
   -0.8468   23.0386  -29.5354 H   0  0  0  0  0  0  0  0  0  0  0  0
   -1.3077   20.9777  -30.8366 H   0  0  0  0  0  0  0  0  0  0  0  0
  1  2  1  0
  2  3  1  0
  3  4  1  0
  4  5  1  0
  5  6  1  0
  6  7  1  0
  7  8  2  0
  8  9  1  0
  9 10  2  0
 10 11  1  0
 11 12  2  0
 12 13  1  0
 13 14  2  0
 14 15  1  0
 14 16  1  0
 16 17  2  0
 17 18  1  0
 18 19  2  0
 19 20  1  0
 20 21  2  0
 21 22  1  0
 22 23  1  0
 21 24  1  0
 24 25  1  0
 25 26  1  0
 24 27  2  0
 27 28  1  0
 28 29  2  0
 17  7  1  0
 29 20  1  0
 13  8  1  0
 29 16  1  0
  1 30  1  0
  1 31  1  0
  1 32  1  0
  2 33  1  0
  2 34  1  0
  3 35  1  0
  3 36  1  0
  4 37  1  0
  4 38  1  0
  5 39  1  0
  5 40  1  0
  6 41  1  0
  9 42  1  0
 10 43  1  0
 11 44  1  0
 12 45  1  0
 15 46  1  0
 15 47  1  0
 15 48  1  0
 18 49  1  0
 19 50  1  0
 23 51  1  0
 23 52  1  0
 23 53  1  0
 26 54  1  0
 26 55  1  0
 26 56  1  0
 27 57  1  0
 28 58  1  0
M  CHG  2   3   1  14   1
M  END
>  <UniqueID>  (20) 
19

>  <SMILES>  (20) 
CC[NH2+]CCNc1c2ccccc2[n+](C)c2c1ccc1c(OC)c(OC)ccc12

>  <Energy>  (20) 
107.33794451870014

>  <Genealogy>  (20) 
CC[NH2+]CCNc1c2ccccc2[n+](C)c2c1ccc1c(OC)c(OC)ccc12 (protonated)
CC[NH2+]CCNc1c2ccccc2[n+](C)c2c1ccc1c(OC)c(OC)ccc12 (3D coordinates assigned)
CC[NH2+]CCNc1c2ccccc2[n+](C)c2c1ccc1c(OC)c(OC)ccc12 (optimized conformer: 107.33794451870014 kcal/mol)

>  <smiles>  (20) 
CCNCCNc1c2ccccc2[n+](C)c2c1ccc1c(OC)c(OC)ccc12

>  <score_type>  (20) 
oracle

>  <origin>  (20) 
adg

>  <m_score__min__energy>  (20) 
-8.6300000000000008

>  <m_primary>  (20) 
energy

$$$$
20:0
     RDKit          3D

 48 50  0  0  0  0  0  0  0  0999 V2000
   -0.8280   26.0070  -24.8160 C   0  0  0  0  0  0  0  0  0  0  0  0
   -0.5070   24.8710  -25.7790 C   0  0  0  0  0  0  0  0  0  0  0  0
   -1.6650   24.6200  -26.6680 N   0  0  0  0  0  0  0  0  0  0  0  0
   -2.7610   25.5730  -26.3940 C   0  0  0  0  0  0  0  0  0  0  0  0
   -4.1320   24.9010  -26.4700 C   0  0  0  0  0  0  0  0  0  0  0  0
   -1.1690   24.7020  -28.3520 S   0  0  0  0  0  0  0  0  0  0  0  0
   -1.3360   26.1000  -28.8750 O   0  0  0  0  0  0  0  0  0  0  0  0
    0.2780   24.3110  -28.4840 O   0  0  0  0  0  0  0  0  0  0  0  0
   -2.1590   23.6360  -29.3500 C   0  0  0  0  0  0  0  0  0  0  0  0
   -1.6470   22.3980  -29.7620 C   0  0  0  0  0  0  0  0  0  0  0  0
   -2.4110   21.5520  -30.5700 C   0  0  0  0  0  0  0  0  0  0  0  0
   -3.6970   21.9350  -30.9780 C   0  0  0  0  0  0  0  0  0  0  0  0
   -4.4480   21.1120  -31.7670 N   0  0  0  0  0  0  0  0  0  0  0  0
   -5.7000   21.4640  -32.1850 C   0  0  0  0  0  0  0  0  0  0  0  0
   -6.2520   22.7030  -31.7910 C   0  0  0  0  0  0  0  0  0  0  0  0
   -5.4990   23.5550  -30.9740 C   0  0  0  0  0  0  0  0  0  0  0  0
   -4.2150   23.1810  -30.5640 C   0  0  0  0  0  0  0  0  0  0  0  0
   -3.4440   24.0250  -29.7500 C   0  0  0  0  0  0  0  0  0  0  0  0
   -7.6550   23.0860  -32.2070 C   0  0  0  0  0  0  0  0  0  0  0  0
   -8.7530   22.2040  -31.5720 C   0  0  0  0  0  0  0  0  0  0  0  0
   -8.9840   20.8300  -32.2340 C   0  0  0  0  0  0  0  0  0  0  0  0
   -7.7360   19.9230  -32.2900 C   0  0  0  0  0  0  0  0  0  0  0  0
   -6.5120   20.5070  -33.0290 C   0  0  0  0  0  0  0  0  0  0  0  0
   -0.7270   25.6496  -23.7806 H   0  0  0  0  0  0  0  0  0  0  0  0
   -0.1301   26.8401  -24.9860 H   0  0  0  0  0  0  0  0  0  0  0  0
   -1.8587   26.3516  -24.9860 H   0  0  0  0  0  0  0  0  0  0  0  0
    0.3672   25.1452  -26.3877 H   0  0  0  0  0  0  0  0  0  0  0  0
   -0.2887   23.9595  -25.2032 H   0  0  0  0  0  0  0  0  0  0  0  0
   -2.6251   25.9911  -25.3857 H   0  0  0  0  0  0  0  0  0  0  0  0
   -2.7254   26.3630  -27.1586 H   0  0  0  0  0  0  0  0  0  0  0  0
   -4.5071   24.7171  -25.4524 H   0  0  0  0  0  0  0  0  0  0  0  0
   -4.8330   25.5576  -27.0061 H   0  0  0  0  0  0  0  0  0  0  0  0
   -4.0424   23.9447  -27.0061 H   0  0  0  0  0  0  0  0  0  0  0  0
   -0.6386   22.0909  -29.4476 H   0  0  0  0  0  0  0  0  0  0  0  0
   -2.0021   20.5814  -30.8875 H   0  0  0  0  0  0  0  0  0  0  0  0
   -4.0560   20.1880  -32.0570 H   0  0  0  0  0  0  0  0  0  0  0  0
   -5.9180   24.5204  -30.6539 H   0  0  0  0  0  0  0  0  0  0  0  0
   -3.8497   24.9945  -29.4252 H   0  0  0  0  0  0  0  0  0  0  0  0
   -7.8328   24.1300  -31.9095 H   0  0  0  0  0  0  0  0  0  0  0  0
   -7.7178   22.9437  -33.2960 H   0  0  0  0  0  0  0  0  0  0  0  0
   -8.4785   22.0293  -30.5212 H   0  0  0  0  0  0  0  0  0  0  0  0
   -9.6932   22.7592  -31.7055 H   0  0  0  0  0  0  0  0  0  0  0  0
   -9.7652   20.3032  -31.6664 H   0  0  0  0  0  0  0  0  0  0  0  0
   -9.2686   21.0317  -33.2772 H   0  0  0  0  0  0  0  0  0  0  0  0
   -7.4323   19.7030  -31.2559 H   0  0  0  0  0  0  0  0  0  0  0  0
   -8.0374   19.0361  -32.8667 H   0  0  0  0  0  0  0  0  0  0  0  0
   -5.8611   19.6753  -33.3366 H   0  0  0  0  0  0  0  0  0  0  0  0
   -6.8938   21.0768  -33.8890 H   0  0  0  0  0  0  0  0  0  0  0  0
  1  2  1  0
  2  3  1  0
  3  4  1  0
  4  5  1  0
  3  6  1  0
  6  7  2  0
  6  8  2  0
  6  9  1  0
  9 10  2  0
 10 11  1  0
 11 12  2  0
 12 13  1  0
 13 14  2  0
 14 15  1  0
 15 16  2  0
 16 17  1  0
 17 18  2  0
 15 19  1  0
 19 20  1  0
 20 21  1  0
 21 22  1  0
 22 23  1  0
 18  9  1  0
 17 12  1  0
 23 14  1  0
  1 24  1  0
  1 25  1  0
  1 26  1  0
  2 27  1  0
  2 28  1  0
  4 29  1  0
  4 30  1  0
  5 31  1  0
  5 32  1  0
  5 33  1  0
 10 34  1  0
 11 35  1  0
 13 36  1  0
 16 37  1  0
 18 38  1  0
 19 39  1  0
 19 40  1  0
 20 41  1  0
 20 42  1  0
 21 43  1  0
 21 44  1  0
 22 45  1  0
 22 46  1  0
 23 47  1  0
 23 48  1  0
M  CHG  1  13   1
M  END
>  <UniqueID>  (21) 
20

>  <SMILES>  (21) 
CCN(CC)S(=O)(=O)c1ccc2[nH+]c3c(cc2c1)CCCCC3

>  <Energy>  (21) 
57.05539865742778

>  <Genealogy>  (21) 
CCN(CC)S(=O)(=O)c1ccc2[nH+]c3c(cc2c1)CCCCC3 (protonated)
CCN(CC)S(=O)(=O)c1ccc2[nH+]c3c(cc2c1)CCCCC3 (3D coordinates assigned)
CCN(CC)S(=O)(=O)c1ccc2[nH+]c3c(cc2c1)CCCCC3 (nonaromatic ring conformer: 57.05539865742778 kcal/mol)

>  <smiles>  (21) 
CCN(CC)S(=O)(=O)c1ccc2nc3c(cc2c1)CCCCC3

>  <score_type>  (21) 
oracle

>  <origin>  (21) 
adg

>  <m_score__min__energy>  (21) 
-6.7800000000000002

>  <m_primary>  (21) 
energy

$$$$
21:0
     RDKit          3D

 46 49  0  0  0  0  0  0  0  0999 V2000
   -5.7460   16.7240  -34.2180 C   0  0  0  0  0  0  0  0  0  0  0  0
   -5.3380   17.3660  -32.8970 C   0  0  0  0  0  0  0  0  0  0  0  0
   -5.9120   18.7240  -32.7800 N   0  0  0  0  0  0  0  0  0  0  0  0
   -5.1370   19.8420  -33.0030 C   0  0  0  0  0  0  0  0  0  0  0  0
   -3.4030   19.7370  -33.4910 S   0  0  0  0  0  0  0  0  0  0  0  0
   -2.9970   21.4520  -33.0080 C   0  0  0  0  0  0  0  0  0  0  0  0
   -2.1920   21.4800  -31.7120 C   0  0  0  0  0  0  0  0  0  0  0  0
   -3.3220   21.5250  -30.2830 S   0  0  0  0  0  0  0  0  0  0  0  0
   -3.8770   23.1950  -30.6350 C   0  0  0  0  0  0  0  0  0  0  0  0
   -4.7800   23.4920  -31.5870 N   0  0  0  0  0  0  0  0  0  0  0  0
   -5.0020   24.7930  -31.4580 N   0  0  0  0  0  0  0  0  0  0  0  0
   -4.2760   25.2820  -30.4630 N   0  0  0  0  0  0  0  0  0  0  0  0
   -3.5570   24.3030  -29.9380 N   0  0  0  0  0  0  0  0  0  0  0  0
   -2.6840   24.4570  -28.8050 C   0  0  0  0  0  0  0  0  0  0  0  0
   -3.2260   24.5300  -27.5110 C   0  0  0  0  0  0  0  0  0  0  0  0
   -2.3890   24.7010  -26.4030 C   0  0  0  0  0  0  0  0  0  0  0  0
   -1.0060   24.8140  -26.5770 C   0  0  0  0  0  0  0  0  0  0  0  0
   -0.4590   24.7580  -27.8620 C   0  0  0  0  0  0  0  0  0  0  0  0
   -1.2930   24.5870  -28.9730 C   0  0  0  0  0  0  0  0  0  0  0  0
   -5.6640   21.0840  -32.8430 N   0  0  0  0  0  0  0  0  0  0  0  0
   -6.9540   21.2710  -32.4760 C   0  0  0  0  0  0  0  0  0  0  0  0
   -7.4600   22.5690  -32.3360 C   0  0  0  0  0  0  0  0  0  0  0  0
   -8.7890   22.7640  -31.9470 C   0  0  0  0  0  0  0  0  0  0  0  0
   -9.6150   21.6630  -31.6990 C   0  0  0  0  0  0  0  0  0  0  0  0
   -9.1170   20.3630  -31.8390 C   0  0  0  0  0  0  0  0  0  0  0  0
   -7.7780   20.1590  -32.2310 C   0  0  0  0  0  0  0  0  0  0  0  0
   -7.2220   18.8740  -32.3820 C   0  0  0  0  0  0  0  0  0  0  0  0
   -7.9360   17.8580  -32.1430 O   0  0  0  0  0  0  0  0  0  0  0  0
   -6.3262   15.8111  -34.0182 H   0  0  0  0  0  0  0  0  0  0  0  0
   -6.3611   17.4306  -34.7945 H   0  0  0  0  0  0  0  0  0  0  0  0
   -4.8451   16.4671  -34.7945 H   0  0  0  0  0  0  0  0  0  0  0  0
   -5.7037   16.7459  -32.0653 H   0  0  0  0  0  0  0  0  0  0  0  0
   -4.2410   17.4400  -32.8621 H   0  0  0  0  0  0  0  0  0  0  0  0
   -2.4059   21.9207  -33.8086 H   0  0  0  0  0  0  0  0  0  0  0  0
   -3.9360   22.0025  -32.8489 H   0  0  0  0  0  0  0  0  0  0  0  0
   -1.5642   20.5787  -31.6527 H   0  0  0  0  0  0  0  0  0  0  0  0
   -1.5555   22.3770  -31.6996 H   0  0  0  0  0  0  0  0  0  0  0  0
   -4.3139   24.4523  -27.3682 H   0  0  0  0  0  0  0  0  0  0  0  0
   -2.8200   24.7467  -25.3920 H   0  0  0  0  0  0  0  0  0  0  0  0
   -0.3499   24.9467  -25.7041 H   0  0  0  0  0  0  0  0  0  0  0  0
    0.6285   24.8484  -28.0004 H   0  0  0  0  0  0  0  0  0  0  0  0
   -0.8586   24.5541  -29.9831 H   0  0  0  0  0  0  0  0  0  0  0  0
   -6.8118   23.4358  -32.5321 H   0  0  0  0  0  0  0  0  0  0  0  0
   -9.1851   23.7842  -31.8360 H   0  0  0  0  0  0  0  0  0  0  0  0
  -10.6598   21.8196  -31.3928 H   0  0  0  0  0  0  0  0  0  0  0  0
   -9.7702   19.4999  -31.6432 H   0  0  0  0  0  0  0  0  0  0  0  0
  1  2  1  0
  2  3  1  0
  3  4  1  0
  4  5  1  0
  5  6  1  0
  6  7  1  0
  7  8  1  0
  8  9  1  0
  9 10  2  0
 10 11  1  0
 11 12  2  0
 12 13  1  0
 13 14  1  0
 14 15  2  0
 15 16  1  0
 16 17  2  0
 17 18  1  0
 18 19  2  0
  4 20  2  0
 20 21  1  0
 21 22  2  0
 22 23  1  0
 23 24  2  0
 24 25  1  0
 25 26  2  0
 26 27  1  0
 27 28  2  0
 27  3  1  0
 13  9  1  0
 19 14  1  0
 26 21  1  0
  1 29  1  0
  1 30  1  0
  1 31  1  0
  2 32  1  0
  2 33  1  0
  6 34  1  0
  6 35  1  0
  7 36  1  0
  7 37  1  0
 15 38  1  0
 16 39  1  0
 17 40  1  0
 18 41  1  0
 19 42  1  0
 22 43  1  0
 23 44  1  0
 24 45  1  0
 25 46  1  0
M  END
>  <UniqueID>  (22) 
21

>  <SMILES>  (22) 
CCn1c(SCCSc2nnnn2-c2ccccc2)nc2ccccc2c1=O

>  <Energy>  (22) 
91.25359854273668

>  <Genealogy>  (22) 
CCn1c(SCCSc2nnnn2-c2ccccc2)nc2ccccc2c1=O (3D coordinates assigned)
CCn1c(SCCSc2nnnn2-c2ccccc2)nc2ccccc2c1=O (optimized conformer: 91.25359854273668 kcal/mol)

>  <smiles>  (22) 
CCn1c(SCCSc2nnnn2-c2ccccc2)nc2ccccc2c1=O

>  <score_type>  (22) 
oracle

>  <origin>  (22) 
adg

>  <m_score__min__energy>  (22) 
-10.18

>  <m_primary>  (22) 
energy

$$$$
22:0
     RDKit          3D

 39 41  0  0  0  0  0  0  0  0999 V2000
   -2.3680   20.6460  -27.6070 C   0  0  0  0  0  0  0  0  0  0  0  0
   -2.7330   21.8700  -28.3930 C   0  0  0  0  0  0  0  0  0  0  0  0
   -2.7150   21.8400  -29.7960 C   0  0  0  0  0  0  0  0  0  0  0  0
   -3.0910   22.9690  -30.5300 C   0  0  0  0  0  0  0  0  0  0  0  0
   -3.5030   24.1420  -29.8690 C   0  0  0  0  0  0  0  0  0  0  0  0
   -3.8880   25.3000  -30.5600 O   0  0  0  0  0  0  0  0  0  0  0  0
   -5.2390   25.6640  -30.8320 C   0  0  0  0  0  0  0  0  0  0  0  0
   -6.1100   24.4650  -30.6710 C   0  0  0  0  0  0  0  0  0  0  0  0
   -6.6610   23.8010  -31.7080 N   0  0  0  0  0  0  0  0  0  0  0  0
   -7.3640   22.8230  -31.1040 C   0  0  0  0  0  0  0  0  0  0  0  0
   -8.1970   21.8540  -31.8340 C   0  0  0  0  0  0  0  0  0  0  0  0
   -9.2730   22.2530  -32.3540 O   0  0  0  0  0  0  0  0  0  0  0  0
   -7.8140   20.4730  -31.9680 N   0  0  0  0  0  0  0  0  0  0  0  0
   -6.4470   20.0420  -32.2190 C   0  0  0  0  0  0  0  0  0  0  0  0
   -6.5230   18.5350  -32.4250 C   0  0  0  0  0  0  0  0  0  0  0  0
   -7.9880   18.2250  -32.7170 C   0  0  0  0  0  0  0  0  0  0  0  0
   -8.7830   19.4130  -32.1900 C   0  0  0  0  0  0  0  0  0  0  0  0
   -7.2430   22.9490  -29.7370 C   0  0  0  0  0  0  0  0  0  0  0  0
   -6.4560   23.9690  -29.5040 O   0  0  0  0  0  0  0  0  0  0  0  0
   -3.5350   24.1610  -28.4700 C   0  0  0  0  0  0  0  0  0  0  0  0
   -3.1590   23.0320  -27.7350 C   0  0  0  0  0  0  0  0  0  0  0  0
   -2.4341   20.8676  -26.5316 H   0  0  0  0  0  0  0  0  0  0  0  0
   -3.0618   19.8297  -27.8565 H   0  0  0  0  0  0  0  0  0  0  0  0
   -1.3404   20.3430  -27.8565 H   0  0  0  0  0  0  0  0  0  0  0  0
   -2.4038   20.9245  -30.3203 H   0  0  0  0  0  0  0  0  0  0  0  0
   -3.0648   22.9407  -31.6293 H   0  0  0  0  0  0  0  0  0  0  0  0
   -5.5578   26.4477  -30.1291 H   0  0  0  0  0  0  0  0  0  0  0  0
   -5.3198   26.0449  -31.8608 H   0  0  0  0  0  0  0  0  0  0  0  0
   -6.0490   20.5329  -33.1194 H   0  0  0  0  0  0  0  0  0  0  0  0
   -5.7782   20.3054  -31.3863 H   0  0  0  0  0  0  0  0  0  0  0  0
   -5.8917   18.2327  -33.2736 H   0  0  0  0  0  0  0  0  0  0  0  0
   -6.1635   17.9884  -31.5407 H   0  0  0  0  0  0  0  0  0  0  0  0
   -8.1457   18.1098  -33.7995 H   0  0  0  0  0  0  0  0  0  0  0  0
   -8.3036   17.2858  -32.2392 H   0  0  0  0  0  0  0  0  0  0  0  0
   -9.5337   19.7294  -32.9292 H   0  0  0  0  0  0  0  0  0  0  0  0
   -9.3236   19.1596  -31.2661 H   0  0  0  0  0  0  0  0  0  0  0  0
   -7.7204   22.3095  -28.9800 H   0  0  0  0  0  0  0  0  0  0  0  0
   -3.8585   25.0714  -27.9441 H   0  0  0  0  0  0  0  0  0  0  0  0
   -3.1978   23.0561  -26.6359 H   0  0  0  0  0  0  0  0  0  0  0  0
  1  2  1  0
  2  3  2  0
  3  4  1  0
  4  5  2  0
  5  6  1  0
  6  7  1  0
  7  8  1  0
  8  9  2  0
  9 10  1  0
 10 11  1  0
 11 12  2  0
 11 13  1  0
 13 14  1  0
 14 15  1  0
 15 16  1  0
 16 17  1  0
 10 18  2  0
 18 19  1  0
  5 20  1  0
 20 21  2  0
 21  2  1  0
 19  8  1  0
 17 13  1  0
  1 22  1  0
  1 23  1  0
  1 24  1  0
  3 25  1  0
  4 26  1  0
  7 27  1  0
  7 28  1  0
 14 29  1  0
 14 30  1  0
 15 31  1  0
 15 32  1  0
 16 33  1  0
 16 34  1  0
 17 35  1  0
 17 36  1  0
 18 37  1  0
 20 38  1  0
 21 39  1  0
M  END
>  <UniqueID>  (23) 
22

>  <SMILES>  (23) 
Cc1ccc(OCc2nc(C(=O)N3CCCC3)co2)cc1

>  <Energy>  (23) 
70.13404393285109

>  <Genealogy>  (23) 
Cc1ccc(OCc2nc(C(=O)N3CCCC3)co2)cc1 (3D coordinates assigned)
Cc1ccc(OCc2nc(C(=O)N3CCCC3)co2)cc1 (nonaromatic ring conformer: 70.13404393285109 kcal/mol)

>  <smiles>  (23) 
Cc1ccc(OCc2nc(C(=O)N3CCCC3)co2)cc1

>  <score_type>  (23) 
oracle

>  <origin>  (23) 
adg

>  <m_score__min__energy>  (23) 
-8.2599999999999998

>  <m_primary>  (23) 
energy

$$$$
23:0
     RDKit          3D

 53 56  0  0  0  0  0  0  0  0999 V2000
   -9.4630   21.7760  -31.6380 C   0  0  0  0  0  0  0  0  0  0  0  0
   -8.5020   20.5930  -31.7950 C   0  0  0  0  0  0  0  0  0  0  0  0
   -7.4240   20.9350  -32.6650 O   0  0  0  0  0  0  0  0  0  0  0  0
   -6.0750   20.8250  -32.3010 C   0  0  0  0  0  0  0  0  0  0  0  0
   -5.5810   19.7090  -31.9550 O   0  0  0  0  0  0  0  0  0  0  0  0
   -5.2070   22.0470  -32.3410 C   0  0  0  0  0  0  0  0  0  0  0  0
   -6.0200   23.3350  -32.1300 C   0  0  0  0  0  0  0  0  0  0  0  0
   -5.5360   24.1590  -30.9330 C   0  0  0  0  0  0  0  0  0  0  0  0
   -4.1200   24.3100  -30.9940 O   0  0  0  0  0  0  0  0  0  0  0  0
   -3.1930   23.6850  -30.1400 C   0  0  0  0  0  0  0  0  0  0  0  0
   -2.9800   24.2580  -28.9410 C   0  0  0  0  0  0  0  0  0  0  0  0
   -4.2180   24.4400  -28.1200 C   0  0  0  0  0  0  0  0  0  0  0  0
   -4.2170   23.1730  -27.2540 C   0  0  0  0  0  0  0  0  0  0  0  0
   -2.7450   22.6940  -27.2140 C   0  0  2  0  0  0  0  0  0  0  0  0
   -1.9490   23.7830  -27.9490 C   0  0  1  0  0  0  0  0  0  0  0  0
   -0.4910   23.4430  -28.4720 C   0  0  0  0  0  0  0  0  0  0  0  0
   -0.0600   21.9380  -28.5580 C   0  0  0  0  0  0  0  0  0  0  0  0
   -0.9520   21.0860  -27.6730 C   0  0  2  0  0  0  0  0  0  0  0  0
   -0.8780   19.6080  -27.6790 C   0  0  0  0  0  0  0  0  0  0  0  0
    0.1620   18.9150  -27.8190 O   0  0  0  0  0  0  0  0  0  0  0  0
   -2.1740   19.1110  -27.2430 C   0  0  0  0  0  0  0  0  0  0  0  0
   -3.0380   20.1240  -27.2300 C   0  0  0  0  0  0  0  0  0  0  0  0
   -2.4550   21.3410  -27.9130 C   0  0  1  0  0  0  0  0  0  0  0  0
   -2.9100   21.2390  -29.4350 C   0  0  0  0  0  0  0  0  0  0  0  0
   -2.5780   22.3500  -30.4780 C   0  0  0  0  0  0  0  0  0  0  0  0
   -9.6260   21.9766  -30.5688 H   0  0  0  0  0  0  0  0  0  0  0  0
   -9.0294   22.6666  -32.1162 H   0  0  0  0  0  0  0  0  0  0  0  0
  -10.4236   21.5340  -32.1162 H   0  0  0  0  0  0  0  0  0  0  0  0
   -8.0984   20.3215  -30.8084 H   0  0  0  0  0  0  0  0  0  0  0  0
   -9.0517   19.7440  -32.2275 H   0  0  0  0  0  0  0  0  0  0  0  0
   -4.4490   21.9709  -31.5475 H   0  0  0  0  0  0  0  0  0  0  0  0
   -4.7374   22.0992  -33.3343 H   0  0  0  0  0  0  0  0  0  0  0  0
   -5.9393   23.9529  -33.0365 H   0  0  0  0  0  0  0  0  0  0  0  0
   -7.0595   23.0383  -31.9264 H   0  0  0  0  0  0  0  0  0  0  0  0
   -6.0107   25.1510  -30.9562 H   0  0  0  0  0  0  0  0  0  0  0  0
   -5.8070   23.6411  -30.0011 H   0  0  0  0  0  0  0  0  0  0  0  0
   -4.1570   25.3471  -27.5008 H   0  0  0  0  0  0  0  0  0  0  0  0
   -5.1320   24.5668  -28.7187 H   0  0  0  0  0  0  0  0  0  0  0  0
   -4.5735   23.4020  -26.2389 H   0  0  0  0  0  0  0  0  0  0  0  0
   -4.8843   22.4005  -27.6639 H   0  0  0  0  0  0  0  0  0  0  0  0
   -2.4743   22.5335  -26.1600 H   0  0  0  0  0  0  0  0  0  0  0  0
   -1.5798   24.5774  -27.2837 H   0  0  0  0  0  0  0  0  0  0  0  0
   -0.4024   23.8647  -29.4841 H   0  0  0  0  0  0  0  0  0  0  0  0
    0.1758   23.8713  -27.7091 H   0  0  0  0  0  0  0  0  0  0  0  0
   -0.1463   21.5942  -29.5993 H   0  0  0  0  0  0  0  0  0  0  0  0
    0.9812   21.8426  -28.2162 H   0  0  0  0  0  0  0  0  0  0  0  0
   -0.5215   21.4345  -26.7226 H   0  0  0  0  0  0  0  0  0  0  0  0
   -2.4023   18.0703  -26.9693 H   0  0  0  0  0  0  0  0  0  0  0  0
   -4.0419   20.0814  -26.7823 H   0  0  0  0  0  0  0  0  0  0  0  0
   -2.4693   20.3099  -29.8255 H   0  0  0  0  0  0  0  0  0  0  0  0
   -4.0038   21.3220  -29.3528 H   0  0  0  0  0  0  0  0  0  0  0  0
   -1.4856   22.4702  -30.5251 H   0  0  0  0  0  0  0  0  0  0  0  0
   -3.0004   22.0302  -31.4420 H   0  0  0  0  0  0  0  0  0  0  0  0
  1  2  1  0
  2  3  1  0
  3  4  1  0
  4  5  2  0
  4  6  1  0
  6  7  1  0
  7  8  1  0
  8  9  1  0
  9 10  1  0
 10 11  2  0
 11 12  1  0
 12 13  1  0
 13 14  1  0
 14 15  1  0
 15 16  1  0
 16 17  1  0
 17 18  1  0
 18 19  1  0
 19 20  2  0
 19 21  1  0
 21 22  2  0
 22 23  1  0
 23 24  1  6
 24 25  1  0
 25 10  1  0
 15 11  1  0
 23 18  1  0
 23 14  1  0
  1 26  1  0
  1 27  1  0
  1 28  1  0
  2 29  1  0
  2 30  1  0
  6 31  1  0
  6 32  1  0
  7 33  1  0
  7 34  1  0
  8 35  1  0
  8 36  1  0
 12 37  1  0
 12 38  1  0
 13 39  1  0
 13 40  1  0
 14 41  1  1
 15 42  1  1
 16 43  1  0
 16 44  1  0
 17 45  1  0
 17 46  1  0
 18 47  1  1
 21 48  1  0
 22 49  1  0
 24 50  1  0
 24 51  1  0
 25 52  1  0
 25 53  1  0
M  END
>  <UniqueID>  (24) 
23

>  <SMILES>  (24) 
CCOC(=O)CCCOC1=C2CC[C@@H]3[C@H]2CCC2C(=O)C=CC23CC1

>  <Energy>  (24) 
129.84740950607954

>  <Genealogy>  (24) 
CCOC(=O)CCCOC1=C2CC[C@@H]3[C@H]2CCC2C(=O)C=CC23CC1 (chirality)
CCOC(=O)CCCOC1=C2CC[C@@H]3[C@H]2CCC2C(=O)C=CC23CC1 (3D coordinates assigned)
CCOC(=O)CCCOC1=C2CC[C@@H]3[C@H]2CCC2C(=O)C=CC23CC1 (nonaromatic ring conformer: 129.84740950607954 kcal/mol)

>  <smiles>  (24) 
CCOC(=O)CCCOC1=C2CCC3C2CCC2C(=O)C=CC23CC1

>  <score_type>  (24) 
oracle

>  <origin>  (24) 
adg

>  <m_score__min__energy>  (24) 
-7

>  <m_primary>  (24) 
energy

$$$$
24:0
     RDKit          3D

 73 77  0  0  0  0  0  0  0  0999 V2000
   -8.8020   20.5990  -31.2190 C   0  0  0  0  0  0  0  0  0  0  0  0
   -9.1290   19.5220  -32.2550 C   0  0  0  0  0  0  0  0  0  0  0  0
   -8.3050   18.2290  -32.0610 C   0  0  0  0  0  0  0  0  0  0  0  0
   -6.8430   18.4750  -31.8990 N   0  0  1  0  0  0  0  0  0  0  0  0
   -6.1260   17.3100  -31.3120 C   0  0  0  0  0  0  0  0  0  0  0  0
   -5.3610   16.4360  -32.3240 C   0  0  0  0  0  0  0  0  0  0  0  0
   -6.2190   18.9200  -33.1750 C   0  0  0  0  0  0  0  0  0  0  0  0
   -6.3920   20.4340  -33.4380 C   0  0  0  0  0  0  0  0  0  0  0  0
   -5.1090   21.1440  -33.4160 N   0  0  0  0  0  0  0  0  0  0  0  0
   -4.1780   21.0080  -32.3290 C   0  0  0  0  0  0  0  0  0  0  0  0
   -2.9940   20.2650  -32.4910 C   0  0  0  0  0  0  0  0  0  0  0  0
   -2.7670   19.5060  -33.6590 C   0  0  0  0  0  0  0  0  0  0  0  0
   -1.5950   18.7690  -33.8120 C   0  0  0  0  0  0  0  0  0  0  0  0
   -0.6400   18.7590  -32.8020 C   0  0  0  0  0  0  0  0  0  0  0  0
   -0.8580   19.4740  -31.6230 C   0  0  0  0  0  0  0  0  0  0  0  0
   -2.0390   20.2350  -31.4390 C   0  0  0  0  0  0  0  0  0  0  0  0
   -2.2730   20.9250  -30.2670 N   0  0  0  0  0  0  0  0  0  0  0  0
   -1.5840   20.4810  -29.0350 C   0  0  0  0  0  0  0  0  0  0  0  0
   -3.3290   21.8110  -30.1930 C   0  0  0  0  0  0  0  0  0  0  0  0
   -4.3860   21.7270  -31.1420 C   0  0  0  0  0  0  0  0  0  0  0  0
   -5.6160   22.3930  -30.8980 C   0  0  0  0  0  0  0  0  0  0  0  0
   -5.7880   23.1970  -29.7660 C   0  0  0  0  0  0  0  0  0  0  0  0
   -4.6960   23.4020  -28.9350 C   0  0  0  0  0  0  0  0  0  0  0  0
   -4.6250   24.3090  -27.9410 N   0  0  0  0  0  0  0  0  0  0  0  0
   -3.3260   24.3380  -27.5900 C   0  0  0  0  0  0  0  0  0  0  0  0
   -2.7340   25.2360  -26.7020 C   0  0  0  0  0  0  0  0  0  0  0  0
   -1.3230   25.2500  -26.6040 C   0  0  0  0  0  0  0  0  0  0  0  0
   -0.6330   26.1070  -25.7310 O   0  0  0  0  0  0  0  0  0  0  0  0
   -1.2330   27.0020  -24.7910 C   0  0  0  0  0  0  0  0  0  0  0  0
   -0.8290   26.6210  -23.3620 C   0  0  0  0  0  0  0  0  0  0  0  0
   -0.7770   28.4250  -25.1080 C   0  0  0  0  0  0  0  0  0  0  0  0
   -0.5610   24.4000  -27.4350 C   0  0  0  0  0  0  0  0  0  0  0  0
   -1.1840   23.5190  -28.3350 C   0  0  0  0  0  0  0  0  0  0  0  0
   -2.5790   23.4560  -28.3440 C   0  0  0  0  0  0  0  0  0  0  0  0
   -3.4770   22.7850  -29.1720 C   0  0  0  0  0  0  0  0  0  0  0  0
   -8.9277   20.1851  -30.2076 H   0  0  0  0  0  0  0  0  0  0  0  0
   -7.7622   20.9322  -31.3522 H   0  0  0  0  0  0  0  0  0  0  0  0
   -9.4810   21.4541  -31.3522 H   0  0  0  0  0  0  0  0  0  0  0  0
  -10.1973   19.2722  -32.1760 H   0  0  0  0  0  0  0  0  0  0  0  0
   -8.8751   19.9291  -33.2449 H   0  0  0  0  0  0  0  0  0  0  0  0
   -8.6731   17.7129  -31.1620 H   0  0  0  0  0  0  0  0  0  0  0  0
   -8.4328   17.6239  -32.9706 H   0  0  0  0  0  0  0  0  0  0  0  0
   -6.7230   19.2450  -31.2050 H   0  0  0  0  0  0  0  0  0  0  0  0
   -5.4031   17.6906  -30.5755 H   0  0  0  0  0  0  0  0  0  0  0  0
   -6.9000   16.6636  -30.8725 H   0  0  0  0  0  0  0  0  0  0  0  0
   -4.7302   15.7153  -31.7829 H   0  0  0  0  0  0  0  0  0  0  0  0
   -6.0791   15.8928  -32.9558 H   0  0  0  0  0  0  0  0  0  0  0  0
   -4.7274   17.0758  -32.9558 H   0  0  0  0  0  0  0  0  0  0  0  0
   -5.1436   18.6917  -33.1374 H   0  0  0  0  0  0  0  0  0  0  0  0
   -6.7248   18.3848  -33.9921 H   0  0  0  0  0  0  0  0  0  0  0  0
   -6.8579   20.5724  -34.4248 H   0  0  0  0  0  0  0  0  0  0  0  0
   -7.0241   20.8483  -32.6388 H   0  0  0  0  0  0  0  0  0  0  0  0
   -4.8410   21.7330  -34.2360 H   0  0  0  0  0  0  0  0  0  0  0  0
   -3.5238   19.4963  -34.4572 H   0  0  0  0  0  0  0  0  0  0  0  0
   -1.4248   18.1937  -34.7340 H   0  0  0  0  0  0  0  0  0  0  0  0
    0.2900   18.1861  -32.9321 H   0  0  0  0  0  0  0  0  0  0  0  0
   -0.1016   19.4462  -30.8248 H   0  0  0  0  0  0  0  0  0  0  0  0
   -2.1391   20.8387  -28.1553 H   0  0  0  0  0  0  0  0  0  0  0  0
   -1.5369   19.3822  -29.0170 H   0  0  0  0  0  0  0  0  0  0  0  0
   -0.5639   20.8921  -29.0170 H   0  0  0  0  0  0  0  0  0  0  0  0
   -6.4463   22.2750  -31.6098 H   0  0  0  0  0  0  0  0  0  0  0  0
   -6.7628   23.6543  -29.5409 H   0  0  0  0  0  0  0  0  0  0  0  0
   -5.3850   24.9390  -27.6020 H   0  0  0  0  0  0  0  0  0  0  0  0
   -3.3486   25.9158  -26.0936 H   0  0  0  0  0  0  0  0  0  0  0  0
   -2.3286   26.9382  -24.8660 H   0  0  0  0  0  0  0  0  0  0  0  0
   -1.4356   27.1931  -22.6446 H   0  0  0  0  0  0  0  0  0  0  0  0
   -0.9970   25.5449  -23.2081 H   0  0  0  0  0  0  0  0  0  0  0  0
    0.2355   26.8517  -23.2081 H   0  0  0  0  0  0  0  0  0  0  0  0
   -0.6019   28.9715  -24.1696 H   0  0  0  0  0  0  0  0  0  0  0  0
    0.1549   28.3900  -25.6913 H   0  0  0  0  0  0  0  0  0  0  0  0
   -1.5557   28.9382  -25.6913 H   0  0  0  0  0  0  0  0  0  0  0  0
    0.5371   24.4279  -27.3769 H   0  0  0  0  0  0  0  0  0  0  0  0
   -0.5874   22.8941  -29.0159 H   0  0  0  0  0  0  0  0  0  0  0  0
  1  2  1  0
  2  3  1  0
  3  4  1  0
  4  5  1  0
  5  6  1  0
  4  7  1  0
  7  8  1  0
  8  9  1  0
  9 10  1  0
 10 11  2  0
 11 12  1  0
 12 13  2  0
 13 14  1  0
 14 15  2  0
 15 16  1  0
 16 17  2  0
 17 18  1  0
 17 19  1  0
 19 20  2  0
 20 21  1  0
 21 22  2  0
 22 23  1  0
 23 24  1  0
 24 25  1  0
 25 26  2  0
 26 27  1  0
 27 28  1  0
 28 29  1  0
 29 30  1  0
 29 31  1  0
 27 32  2  0
 32 33  1  0
 33 34  2  0
 34 35  1  0
 20 10  1  0
 35 23  2  0
 16 11  1  0
 35 19  1  0
 34 25  1  0
  1 36  1  0
  1 37  1  0
  1 38  1  0
  2 39  1  0
  2 40  1  0
  3 41  1  0
  3 42  1  0
  4 43  1  1
  5 44  1  0
  5 45  1  0
  6 46  1  0
  6 47  1  0
  6 48  1  0
  7 49  1  0
  7 50  1  0
  8 51  1  0
  8 52  1  0
  9 53  1  0
 12 54  1  0
 13 55  1  0
 14 56  1  0
 15 57  1  0
 18 58  1  0
 18 59  1  0
 18 60  1  0
 21 61  1  0
 22 62  1  0
 24 63  1  0
 26 64  1  0
 29 65  1  0
 30 66  1  0
 30 67  1  0
 30 68  1  0
 31 69  1  0
 31 70  1  0
 31 71  1  0
 32 72  1  0
 33 73  1  0
M  CHG  2   4   1  17   1
M  END
>  <UniqueID>  (25) 
24

>  <SMILES>  (25) 
CCC[N@@H+](CC)CCNc1c2ccccc2[n+](C)c2c1ccc1[nH]c3cc(OC(C)C)ccc3c12

>  <Energy>  (25) 
150.92769597257913

>  <Genealogy>  (25) 
CCC[NH+](CC)CCNc1c2ccccc2[n+](C)c2c1ccc1[nH]c3cc(OC(C)C)ccc3c12 (protonated)
CCC[N@@H+](CC)CCNc1c2ccccc2[n+](C)c2c1ccc1[nH]c3cc(OC(C)C)ccc3c12 (chirality)
CCC[N@@H+](CC)CCNc1c2ccccc2[n+](C)c2c1ccc1[nH]c3cc(OC(C)C)ccc3c12 (3D coordinates assigned)
CCC[N@@H+](CC)CCNc1c2ccccc2[n+](C)c2c1ccc1[nH]c3cc(OC(C)C)ccc3c12 (optimized conformer: 150.92769597257913 kcal/mol)

>  <smiles>  (25) 
CCCN(CC)CCNc1c2ccccc2[n+](C)c2c1ccc1[nH]c3cc(OC(C)C)ccc3c12

>  <score_type>  (25) 
oracle

>  <origin>  (25) 
adg

>  <m_score__min__energy>  (25) 
-8.6400000000000006

>  <m_primary>  (25) 
energy

$$$$
25:0
     RDKit          3D

 57 59  0  0  0  0  0  0  0  0999 V2000
   -0.7682   22.6558  -28.6857 H   0  0  0  0  0  0  0  0  0  0  0  0
   -1.5970   23.2480  -29.1010 C   0  0  0  0  0  0  0  0  0  0  0  0
   -2.5520   22.8190  -30.4170 S   0  0  0  0  0  0  0  0  0  0  0  0
   -3.4750   24.2260  -30.3400 C   0  0  0  0  0  0  0  0  0  0  0  0
   -4.4880   24.5270  -31.0970 N   0  0  0  0  0  0  0  0  0  0  0  0
   -5.7610   23.8620  -31.1290 C   0  0  0  0  0  0  0  0  0  0  0  0
   -6.3550   23.3490  -29.9630 C   0  0  0  0  0  0  0  0  0  0  0  0
   -5.8661   23.4968  -28.9888 H   0  0  0  0  0  0  0  0  0  0  0  0
   -7.5640   22.6520  -30.0360 C   0  0  0  0  0  0  0  0  0  0  0  0
   -8.0315   22.2698  -29.1165 H   0  0  0  0  0  0  0  0  0  0  0  0
   -8.1850   22.4370  -31.2760 C   0  0  0  0  0  0  0  0  0  0  0  0
   -9.4440   21.6120  -31.3660 C   0  0  0  0  0  0  0  0  0  0  0  0
  -10.0391   21.9593  -32.2235 H   0  0  0  0  0  0  0  0  0  0  0  0
  -10.0051   21.7325  -30.4275 H   0  0  0  0  0  0  0  0  0  0  0  0
   -9.1250   20.1250  -31.5500 C   0  0  0  0  0  0  0  0  0  0  0  0
   -9.5557   19.7772  -32.5005 H   0  0  0  0  0  0  0  0  0  0  0  0
   -9.5568   19.5616  -30.7097 H   0  0  0  0  0  0  0  0  0  0  0  0
   -7.6730   19.9100  -31.5700 N   0  0  0  0  0  0  0  0  0  0  0  0
   -7.3900   19.5090  -30.6440 H   0  0  0  0  0  0  0  0  0  0  0  0
   -7.3060   18.9460  -32.6140 C   0  0  0  0  0  0  0  0  0  0  0  0
   -8.2029   18.3859  -32.9169 H   0  0  0  0  0  0  0  0  0  0  0  0
   -6.5433   18.2653  -32.2079 H   0  0  0  0  0  0  0  0  0  0  0  0
   -6.7190   19.6580  -33.8450 C   0  0  0  0  0  0  0  0  0  0  0  0
   -7.1433   20.6719  -33.8894 H   0  0  0  0  0  0  0  0  0  0  0  0
   -6.9825   19.0409  -34.7167 H   0  0  0  0  0  0  0  0  0  0  0  0
   -5.2410   19.7750  -33.8450 N   0  0  0  0  0  0  0  0  0  0  0  0
   -4.5150   18.5260  -34.1590 C   0  0  0  0  0  0  0  0  0  0  0  0
   -4.2342   18.0269  -33.2198 H   0  0  0  0  0  0  0  0  0  0  0  0
   -3.6179   18.7785  -34.7433 H   0  0  0  0  0  0  0  0  0  0  0  0
   -5.3850   17.5830  -34.9850 C   0  0  0  0  0  0  0  0  0  0  0  0
   -5.9747   16.9438  -34.3115 H   0  0  0  0  0  0  0  0  0  0  0  0
   -6.0638   18.1717  -35.6195 H   0  0  0  0  0  0  0  0  0  0  0  0
   -4.7436   16.9537  -35.6195 H   0  0  0  0  0  0  0  0  0  0  0  0
   -4.6680   20.6470  -32.7880 C   0  0  0  0  0  0  0  0  0  0  0  0
   -5.4747   21.2832  -32.3949 H   0  0  0  0  0  0  0  0  0  0  0  0
   -4.2377   19.9742  -32.0316 H   0  0  0  0  0  0  0  0  0  0  0  0
   -3.5240   21.5600  -33.2550 C   0  0  0  0  0  0  0  0  0  0  0  0
   -3.0046   21.9745  -32.3784 H   0  0  0  0  0  0  0  0  0  0  0  0
   -2.8139   20.9776  -33.8605 H   0  0  0  0  0  0  0  0  0  0  0  0
   -3.9344   22.3816  -33.8605 H   0  0  0  0  0  0  0  0  0  0  0  0
   -7.5770   22.9270  -32.4420 C   0  0  0  0  0  0  0  0  0  0  0  0
   -8.0541   22.7610  -33.4191 H   0  0  0  0  0  0  0  0  0  0  0  0
   -6.3680   23.6250  -32.3680 C   0  0  0  0  0  0  0  0  0  0  0  0
   -5.8906   23.9903  -33.2892 H   0  0  0  0  0  0  0  0  0  0  0  0
   -3.0870   25.0160  -29.3180 N   0  0  0  0  0  0  0  0  0  0  0  0
   -2.0380   24.4880  -28.6250 C   0  0  0  0  0  0  0  0  0  0  0  0
   -1.4520   25.1950  -27.4550 C   0  0  0  0  0  0  0  0  0  0  0  0
   -2.2390   25.4200  -26.3080 C   0  0  0  0  0  0  0  0  0  0  0  0
   -3.2819   25.0710  -26.2855 H   0  0  0  0  0  0  0  0  0  0  0  0
   -1.7060   26.0830  -25.1980 C   0  0  0  0  0  0  0  0  0  0  0  0
   -2.3293   26.2504  -24.3072 H   0  0  0  0  0  0  0  0  0  0  0  0
   -0.3840   26.5330  -25.2180 C   0  0  0  0  0  0  0  0  0  0  0  0
    0.3410   27.4390  -23.7000 Br  0  0  0  0  0  0  0  0  0  0  0  0
    0.4050   26.3230  -26.3500 C   0  0  0  0  0  0  0  0  0  0  0  0
    1.4452   26.6803  -26.3668 H   0  0  0  0  0  0  0  0  0  0  0  0
   -0.1220   25.6600  -27.4630 C   0  0  0  0  0  0  0  0  0  0  0  0
    0.5067   25.5004  -28.3514 H   0  0  0  0  0  0  0  0  0  0  0  0
  1  2  1  0
  2  3  1  0
  3  4  1  0
  4  5  2  0
  5  6  1  0
  6  7  2  0
  7  8  1  0
  7  9  1  0
  9 10  1  0
  9 11  2  0
 11 12  1  0
 12 13  1  0
 12 14  1  0
 12 15  1  0
 15 16  1  0
 15 17  1  0
 15 18  1  0
 18 19  1  0
 18 20  1  0
 20 21  1  0
 20 22  1  0
 20 23  1  0
 23 24  1  0
 23 25  1  0
 23 26  1  0
 26 27  1  0
 27 28  1  0
 27 29  1  0
 27 30  1  0
 30 31  1  0
 30 32  1  0
 30 33  1  0
 26 34  1  0
 34 35  1  0
 34 36  1  0
 34 37  1  0
 37 38  1  0
 37 39  1  0
 37 40  1  0
 11 41  1  0
 41 42  1  0
 41 43  2  0
 43 44  1  0
  4 45  1  0
 45 46  1  0
 46 47  1  0
 47 48  2  0
 48 49  1  0
 48 50  1  0
 50 51  1  0
 50 52  2  0
 52 53  1  0
 52 54  1  0
 54 55  1  0
 54 56  2  0
 56 57  1  0
 46  2  2  0
 56 47  1  0
 43  6  1  0
M  CHG  1  45  -1
M  END
>  <UniqueID>  (26) 
25

>  <SMILES>  (26) 
CCN(CC)CCNCCc1ccc(/N=c2/[n-]c(-c3ccc(Br)cc3)cs2)cc1

>  <Energy>  (26) 
95.63016478016397

>  <Genealogy>  (26) 
CCN(CC)CCNCCc1ccc(N=c2[n-]c(-c3ccc(Br)cc3)cs2)cc1 (protonated)
CCN(CC)CCNCCc1ccc(/N=c2/[n-]c(-c3ccc(Br)cc3)cs2)cc1 (cis-trans isomerization)
CCN(CC)CCNCCc1ccc(/N=c2/[n-]c(-c3ccc(Br)cc3)cs2)cc1 (3D coordinates assigned)
CCN(CC)CCNCCc1ccc(/N=c2/[n-]c(-c3ccc(Br)cc3)cs2)cc1 (optimized conformer: 95.63016478016397 kcal/mol)

>  <smiles>  (26) 
CCN(CC)CCNCCc1ccc(N=c2[nH]c(-c3ccc(Br)cc3)cs2)cc1

>  <score_type>  (26) 
oracle

>  <origin>  (26) 
adg

>  <m_score__min__energy>  (26) 
-10.69

>  <m_primary>  (26) 
energy

$$$$
26:0
     RDKit          3D

 36 37  0  0  0  0  0  0  0  0999 V2000
   -4.0700   18.9820  -33.8530 C   0  0  0  0  0  0  0  0  0  0  0  0
   -5.2120   19.7610  -33.2540 C   0  0  0  0  0  0  0  0  0  0  0  0
   -6.4600   19.1340  -33.0930 C   0  0  0  0  0  0  0  0  0  0  0  0
   -7.5380   19.8280  -32.5360 C   0  0  0  0  0  0  0  0  0  0  0  0
   -9.0880   19.0280  -32.3370 Cl  0  0  0  0  0  0  0  0  0  0  0  0
   -7.3820   21.1550  -32.1340 C   0  0  0  0  0  0  0  0  0  0  0  0
   -6.1510   21.7940  -32.2930 C   0  0  0  0  0  0  0  0  0  0  0  0
   -5.0610   21.1170  -32.8670 C   0  0  0  0  0  0  0  0  0  0  0  0
   -3.7420   21.8410  -33.0000 C   0  0  0  0  0  0  0  0  0  0  0  0
   -3.4100   22.4980  -31.7290 N   0  0  0  0  0  0  0  0  0  0  0  0
   -2.0030   22.2810  -31.3650 C   0  0  0  0  0  0  0  0  0  0  0  0
   -1.8490   22.2590  -29.8420 C   0  0  0  0  0  0  0  0  0  0  0  0
   -1.9550   23.9470  -29.1520 S   0  0  0  0  0  0  0  0  0  0  0  0
   -3.6820   24.1830  -29.5810 C   0  0  0  0  0  0  0  0  0  0  0  0
   -4.0240   25.1450  -30.4810 N   0  0  0  0  0  0  0  0  0  0  0  0
   -5.3180   25.3620  -30.8400 C   0  0  0  0  0  0  0  0  0  0  0  0
   -6.3370   24.5850  -30.2850 C   0  0  0  0  0  0  0  0  0  0  0  0
   -6.0110   23.5860  -29.3660 C   0  0  0  0  0  0  0  0  0  0  0  0
   -4.6760   23.3770  -29.0110 C   0  0  0  0  0  0  0  0  0  0  0  0
   -4.3550   22.4080  -28.1180 F   0  0  0  0  0  0  0  0  0  0  0  0
   -3.4514   18.5601  -33.0472 H   0  0  0  0  0  0  0  0  0  0  0  0
   -4.4685   18.1666  -34.4746 H   0  0  0  0  0  0  0  0  0  0  0  0
   -3.4563   19.6506  -34.4746 H   0  0  0  0  0  0  0  0  0  0  0  0
   -6.5893   18.0881  -33.4081 H   0  0  0  0  0  0  0  0  0  0  0  0
   -8.2299   21.6983  -31.6913 H   0  0  0  0  0  0  0  0  0  0  0  0
   -6.0329   22.8376  -31.9659 H   0  0  0  0  0  0  0  0  0  0  0  0
   -2.9524   21.1192  -33.2561 H   0  0  0  0  0  0  0  0  0  0  0  0
   -3.8197   22.5988  -33.7935 H   0  0  0  0  0  0  0  0  0  0  0  0
   -3.5530   23.5270  -31.8610 H   0  0  0  0  0  0  0  0  0  0  0  0
   -1.6647   21.3194  -31.7785 H   0  0  0  0  0  0  0  0  0  0  0  0
   -1.3952   23.1007  -31.7757 H   0  0  0  0  0  0  0  0  0  0  0  0
   -2.6492   21.6415  -29.4079 H   0  0  0  0  0  0  0  0  0  0  0  0
   -0.8628   21.8393  -29.5944 H   0  0  0  0  0  0  0  0  0  0  0  0
   -5.5618   26.1499  -31.5678 H   0  0  0  0  0  0  0  0  0  0  0  0
   -7.3855   24.7583  -30.5690 H   0  0  0  0  0  0  0  0  0  0  0  0
   -6.8032   22.9650  -28.9225 H   0  0  0  0  0  0  0  0  0  0  0  0
  1  2  1  0
  2  3  2  0
  3  4  1  0
  4  5  1  0
  4  6  2  0
  6  7  1  0
  7  8  2  0
  8  9  1  0
  9 10  1  0
 10 11  1  0
 11 12  1  0
 12 13  1  0
 13 14  1  0
 14 15  2  0
 15 16  1  0
 16 17  2  0
 17 18  1  0
 18 19  2  0
 19 20  1  0
  8  2  1  0
 19 14  1  0
  1 21  1  0
  1 22  1  0
  1 23  1  0
  3 24  1  0
  6 25  1  0
  7 26  1  0
  9 27  1  0
  9 28  1  0
 10 29  1  0
 11 30  1  0
 11 31  1  0
 12 32  1  0
 12 33  1  0
 16 34  1  0
 17 35  1  0
 18 36  1  0
M  END
>  <UniqueID>  (27) 
26

>  <SMILES>  (27) 
Cc1cc(Cl)ccc1CNCCSc1ncccc1F

>  <Energy>  (27) 
30.96970557599147

>  <Genealogy>  (27) 
Cc1cc(Cl)ccc1CNCCSc1ncccc1F (3D coordinates assigned)
Cc1cc(Cl)ccc1CNCCSc1ncccc1F (optimized conformer: 30.96970557599147 kcal/mol)

>  <smiles>  (27) 
Cc1cc(Cl)ccc1CNCCSc1ncccc1F

>  <score_type>  (27) 
oracle

>  <origin>  (27) 
adg

>  <m_score__min__energy>  (27) 
-7.3899999999999997

>  <m_primary>  (27) 
energy

$$$$
27:0
     RDKit          3D

 29 30  0  0  0  0  0  0  0  0999 V2000
   -3.6640   23.6920  -28.3290 C   0  0  0  0  0  0  0  0  0  0  0  0
   -2.9230   24.5060  -29.3870 C   0  0  0  0  0  0  0  0  0  0  0  0
   -3.8650   25.1300  -30.3260 N   0  0  0  0  0  0  0  0  0  0  0  0
   -5.2380   24.6050  -30.1940 C   0  0  0  0  0  0  0  0  0  0  0  0
   -5.8870   24.4880  -31.5740 C   0  0  0  0  0  0  0  0  0  0  0  0
   -5.9880   23.0860  -31.9830 N   0  0  0  0  0  0  0  0  0  0  0  0
   -4.9710   22.2760  -32.3690 C   0  0  0  0  0  0  0  0  0  0  0  0
   -5.3690   21.0030  -32.6260 N   0  0  0  0  0  0  0  0  0  0  0  0
   -6.6920   21.0410  -32.3770 C   0  0  0  0  0  0  0  0  0  0  0  0
   -7.6050   19.9930  -32.4680 C   0  0  0  0  0  0  0  0  0  0  0  0
   -8.9470   20.2630  -32.1380 C   0  0  0  0  0  0  0  0  0  0  0  0
   -9.3370   21.5580  -31.7270 C   0  0  0  0  0  0  0  0  0  0  0  0
   -8.3890   22.5950  -31.6440 C   0  0  0  0  0  0  0  0  0  0  0  0
   -7.0700   22.2920  -31.9840 C   0  0  0  0  0  0  0  0  0  0  0  0
   -3.3582   24.0280  -27.3272 H   0  0  0  0  0  0  0  0  0  0  0  0
   -4.7480   23.8354  -28.4488 H   0  0  0  0  0  0  0  0  0  0  0  0
   -3.4197   22.6262  -28.4488 H   0  0  0  0  0  0  0  0  0  0  0  0
   -2.3362   25.2926  -28.8900 H   0  0  0  0  0  0  0  0  0  0  0  0
   -2.2624   23.8303  -29.9501 H   0  0  0  0  0  0  0  0  0  0  0  0
   -3.5270   24.9240  -31.2960 H   0  0  0  0  0  0  0  0  0  0  0  0
   -5.2047   23.6122  -29.7215 H   0  0  0  0  0  0  0  0  0  0  0  0
   -5.8302   25.2934  -29.5731 H   0  0  0  0  0  0  0  0  0  0  0  0
   -6.8951   24.9265  -31.5369 H   0  0  0  0  0  0  0  0  0  0  0  0
   -5.2631   25.0245  -32.3040 H   0  0  0  0  0  0  0  0  0  0  0  0
   -3.9291   22.6156  -32.4643 H   0  0  0  0  0  0  0  0  0  0  0  0
   -7.2885   18.9889  -32.7867 H   0  0  0  0  0  0  0  0  0  0  0  0
   -9.6970   19.4607  -32.2005 H   0  0  0  0  0  0  0  0  0  0  0  0
  -10.3881   21.7566  -31.4704 H   0  0  0  0  0  0  0  0  0  0  0  0
   -8.6772   23.6069  -31.3230 H   0  0  0  0  0  0  0  0  0  0  0  0
  1  2  1  0
  2  3  1  0
  3  4  1  0
  4  5  1  0
  5  6  1  0
  6  7  1  0
  7  8  2  0
  8  9  1  0
  9 10  2  0
 10 11  1  0
 11 12  2  0
 12 13  1  0
 13 14  2  0
 14  6  1  0
 14  9  1  0
  1 15  1  0
  1 16  1  0
  1 17  1  0
  2 18  1  0
  2 19  1  0
  3 20  1  0
  4 21  1  0
  4 22  1  0
  5 23  1  0
  5 24  1  0
  7 25  1  0
 10 26  1  0
 11 27  1  0
 12 28  1  0
 13 29  1  0
M  END
>  <UniqueID>  (28) 
27

>  <SMILES>  (28) 
CCNCCn1cnc2ccccc21

>  <Energy>  (28) 
61.98088834531775

>  <Genealogy>  (28) 
CCNCCn1cnc2ccccc21 (3D coordinates assigned)
CCNCCn1cnc2ccccc21 (optimized conformer: 61.98088834531775 kcal/mol)

>  <smiles>  (28) 
CCNCCn1cnc2ccccc21

>  <score_type>  (28) 
oracle

>  <origin>  (28) 
adg

>  <m_score__min__energy>  (28) 
-6.25

>  <m_primary>  (28) 
energy

$$$$
28:0
     RDKit          3D

 38 39  0  0  0  0  0  0  0  0999 V2000
   -3.2920   16.3050  -35.2670 C   0  0  0  0  0  0  0  0  0  0  0  0
   -3.2260   17.7860  -34.8760 C   0  0  0  0  0  0  0  0  0  0  0  0
   -3.8910   18.0840  -33.5810 N   0  0  0  0  0  0  0  0  0  0  0  0
   -3.1030   19.0040  -32.7120 C   0  0  0  0  0  0  0  0  0  0  0  0
   -2.8360   20.3910  -33.3150 C   0  0  0  0  0  0  0  0  0  0  0  0
   -4.2560   16.8040  -32.9150 C   0  0  0  0  0  0  0  0  0  0  0  0
   -5.7700   16.5780  -32.7310 C   0  0  0  0  0  0  0  0  0  0  0  0
   -6.7510   17.6570  -33.7620 S   0  0  0  0  0  0  0  0  0  0  0  0
   -6.1010   17.7910  -35.3040 O   0  0  0  0  0  0  0  0  0  0  0  0
   -6.9660   19.2360  -33.0410 C   0  0  0  0  0  0  0  0  0  0  0  0
   -6.0100   20.1960  -33.0660 N   0  0  0  0  0  0  0  0  0  0  0  0
   -6.4550   21.3290  -32.4670 C   0  0  0  0  0  0  0  0  0  0  0  0
   -5.7040   22.4980  -32.3350 C   0  0  0  0  0  0  0  0  0  0  0  0
   -6.2860   23.6050  -31.6950 C   0  0  0  0  0  0  0  0  0  0  0  0
   -7.6040   23.5330  -31.2000 C   0  0  0  0  0  0  0  0  0  0  0  0
   -8.3500   22.3530  -31.3390 C   0  0  0  0  0  0  0  0  0  0  0  0
   -7.7510   21.2690  -31.9770 C   0  0  0  0  0  0  0  0  0  0  0  0
   -8.3920   19.7500  -32.2890 S   0  0  0  0  0  0  0  0  0  0  0  0
   -3.3196   15.6866  -34.3577 H   0  0  0  0  0  0  0  0  0  0  0  0
   -4.1992   16.1229  -35.8619 H   0  0  0  0  0  0  0  0  0  0  0  0
   -2.4046   16.0429  -35.8619 H   0  0  0  0  0  0  0  0  0  0  0  0
   -2.1687   18.0802  -34.8010 H   0  0  0  0  0  0  0  0  0  0  0  0
   -3.7604   18.3516  -35.6535 H   0  0  0  0  0  0  0  0  0  0  0  0
   -4.7830   18.5800  -33.8140 H   0  0  0  0  0  0  0  0  0  0  0  0
   -3.6547   19.1410  -31.7703 H   0  0  0  0  0  0  0  0  0  0  0  0
   -2.1189   18.5321  -32.5748 H   0  0  0  0  0  0  0  0  0  0  0  0
   -2.6953   21.1220  -32.5052 H   0  0  0  0  0  0  0  0  0  0  0  0
   -1.9288   20.3524  -33.9359 H   0  0  0  0  0  0  0  0  0  0  0  0
   -3.6927   20.6920  -33.9359 H   0  0  0  0  0  0  0  0  0  0  0  0
   -3.8581   15.9773  -33.5218 H   0  0  0  0  0  0  0  0  0  0  0  0
   -3.8250   16.8479  -31.9039 H   0  0  0  0  0  0  0  0  0  0  0  0
   -6.0050   15.5345  -32.9879 H   0  0  0  0  0  0  0  0  0  0  0  0
   -6.0169   16.8010  -31.6825 H   0  0  0  0  0  0  0  0  0  0  0  0
   -6.5760   18.5590  -35.7070 H   0  0  0  0  0  0  0  0  0  0  0  0
   -4.6766   22.5515  -32.7244 H   0  0  0  0  0  0  0  0  0  0  0  0
   -5.7092   24.5345  -31.5793 H   0  0  0  0  0  0  0  0  0  0  0  0
   -8.0499   24.4067  -30.7021 H   0  0  0  0  0  0  0  0  0  0  0  0
   -9.3786   22.2856  -30.9551 H   0  0  0  0  0  0  0  0  0  0  0  0
  1  2  1  0
  2  3  1  0
  3  4  1  0
  4  5  1  0
  3  6  1  0
  6  7  1  0
  7  8  1  0
  8  9  1  6
  8 10  1  0
 10 11  2  0
 11 12  1  0
 12 13  2  0
 13 14  1  0
 14 15  2  0
 15 16  1  0
 16 17  2  0
 17 18  1  0
 18 10  1  0
 17 12  1  0
  1 19  1  0
  1 20  1  0
  1 21  1  0
  2 22  1  0
  2 23  1  0
  3 24  1  0
  4 25  1  0
  4 26  1  0
  5 27  1  0
  5 28  1  0
  5 29  1  0
  6 30  1  0
  6 31  1  0
  7 32  1  0
  7 33  1  0
  9 34  1  0
 13 35  1  0
 14 36  1  0
 15 37  1  0
 16 38  1  0
M  CHG  2   3   1   8   1
M  END
>  <UniqueID>  (29) 
28

>  <SMILES>  (29) 
CC[NH+](CC)CC[S@+](O)c1nc2ccccc2s1

>  <Energy>  (29) 
70.21631251527381

>  <Genealogy>  (29) 
CC[NH+](CC)CC[S+](O)c1nc2ccccc2s1 (protonated)
CC[NH+](CC)CC[S@+](O)c1nc2ccccc2s1 (chirality)
CC[NH+](CC)CC[S@+](O)c1nc2ccccc2s1 (3D coordinates assigned)
CC[NH+](CC)CC[S@+](O)c1nc2ccccc2s1 (optimized conformer: 70.21631251527381 kcal/mol)

>  <smiles>  (29) 
CCN(CC)CC[S+]([O-])c1nc2ccccc2s1

>  <score_type>  (29) 
oracle

>  <origin>  (29) 
adg

>  <m_score__min__energy>  (29) 
-5.6200000000000001

>  <m_primary>  (29) 
energy

$$$$
29:0
     RDKit          3D

 53 55  0  0  0  0  0  0  0  0999 V2000
   -9.1170   18.3900  -31.5430 C   0  0  0  0  0  0  0  0  0  0  0  0
   -8.9100   19.5160  -32.5530 C   0  0  0  0  0  0  0  0  0  0  0  0
   -7.4760   19.6910  -32.8590 N   0  0  0  0  0  0  0  0  0  0  0  0
   -6.8650   18.6480  -33.4990 C   0  0  0  0  0  0  0  0  0  0  0  0
   -5.5020   18.6520  -33.7470 C   0  0  0  0  0  0  0  0  0  0  0  0
   -4.7200   19.7350  -33.3470 C   0  0  0  0  0  0  0  0  0  0  0  0
   -3.2910   19.6600  -33.4890 N   0  0  0  0  0  0  0  0  0  0  0  0
   -2.5050   18.5240  -33.0120 C   0  0  0  0  0  0  0  0  0  0  0  0
   -1.1140   19.0060  -32.5530 C   0  0  0  0  0  0  0  0  0  0  0  0
   -1.0400   20.4590  -32.2340 N   0  0  0  0  0  0  0  0  0  0  0  0
   -0.7580   20.7360  -30.8000 C   0  0  0  0  0  0  0  0  0  0  0  0
   -1.5680   21.9130  -30.2440 C   0  0  0  0  0  0  0  0  0  0  0  0
   -0.0560   21.1500  -33.1130 C   0  0  0  0  0  0  0  0  0  0  0  0
   -0.4760   21.1410  -34.5880 C   0  0  0  0  0  0  0  0  0  0  0  0
   -5.3440   20.8500  -32.7420 C   0  0  0  0  0  0  0  0  0  0  0  0
   -6.7510   20.8220  -32.5170 C   0  0  0  0  0  0  0  0  0  0  0  0
   -7.3850   22.0400  -31.9130 C   0  0  0  0  0  0  0  0  0  0  0  0
   -8.6190   22.2620  -32.0310 O   0  0  0  0  0  0  0  0  0  0  0  0
   -6.5490   23.0520  -31.2320 C   0  0  0  0  0  0  0  0  0  0  0  0
   -7.1280   24.0230  -30.3960 C   0  0  0  0  0  0  0  0  0  0  0  0
   -6.3310   24.9940  -29.7840 C   0  0  0  0  0  0  0  0  0  0  0  0
   -4.9530   25.0080  -30.0060 C   0  0  0  0  0  0  0  0  0  0  0  0
   -4.3690   24.0530  -30.8420 C   0  0  0  0  0  0  0  0  0  0  0  0
   -5.1620   23.0670  -31.4550 C   0  0  0  0  0  0  0  0  0  0  0  0
   -4.5640   22.0620  -32.3550 C   0  0  0  0  0  0  0  0  0  0  0  0
   -3.4070   22.2620  -32.8170 O   0  0  0  0  0  0  0  0  0  0  0  0
   -9.0427   18.7944  -30.5227 H   0  0  0  0  0  0  0  0  0  0  0  0
  -10.1121   17.9446  -31.6893 H   0  0  0  0  0  0  0  0  0  0  0  0
   -8.3454   17.6198  -31.6893 H   0  0  0  0  0  0  0  0  0  0  0  0
   -9.4491   19.2720  -33.4802 H   0  0  0  0  0  0  0  0  0  0  0  0
   -9.2943   20.4516  -32.1206 H   0  0  0  0  0  0  0  0  0  0  0  0
   -7.4687   17.7877  -33.8237 H   0  0  0  0  0  0  0  0  0  0  0  0
   -5.0354   17.7986  -34.2608 H   0  0  0  0  0  0  0  0  0  0  0  0
   -2.7780   20.5250  -33.7760 H   0  0  0  0  0  0  0  0  0  0  0  0
   -3.0246   18.0501  -32.1661 H   0  0  0  0  0  0  0  0  0  0  0  0
   -2.3857   17.7968  -33.8287 H   0  0  0  0  0  0  0  0  0  0  0  0
   -0.8346   18.4413  -31.6513 H   0  0  0  0  0  0  0  0  0  0  0  0
   -0.4287   18.8347  -33.3962 H   0  0  0  0  0  0  0  0  0  0  0  0
   -1.9900   20.8470  -32.4480 H   0  0  0  0  0  0  0  0  0  0  0  0
   -1.0011   19.8365  -30.2153 H   0  0  0  0  0  0  0  0  0  0  0  0
    0.3060   21.0037  -30.7208 H   0  0  0  0  0  0  0  0  0  0  0  0
   -1.5485   21.8847  -29.1445 H   0  0  0  0  0  0  0  0  0  0  0  0
   -1.1285   22.8586  -30.5943 H   0  0  0  0  0  0  0  0  0  0  0  0
   -2.6082   21.8402  -30.5943 H   0  0  0  0  0  0  0  0  0  0  0  0
    0.0413   22.1940  -32.7806 H   0  0  0  0  0  0  0  0  0  0  0  0
    0.8986   20.6092  -33.0347 H   0  0  0  0  0  0  0  0  0  0  0  0
   -1.5736   21.1175  -34.6566 H   0  0  0  0  0  0  0  0  0  0  0  0
   -0.0971   22.0475  -35.0827 H   0  0  0  0  0  0  0  0  0  0  0  0
   -0.0586   20.2516  -35.0827 H   0  0  0  0  0  0  0  0  0  0  0  0
   -8.2143   24.0182  -30.2228 H   0  0  0  0  0  0  0  0  0  0  0  0
   -6.7897   25.7476  -29.1270 H   0  0  0  0  0  0  0  0  0  0  0  0
   -4.3262   25.7717  -29.5223 H   0  0  0  0  0  0  0  0  0  0  0  0
   -3.2839   24.0726  -31.0214 H   0  0  0  0  0  0  0  0  0  0  0  0
  1  2  1  0
  2  3  1  0
  3  4  2  0
  4  5  1  0
  5  6  2  0
  6  7  1  0
  7  8  1  0
  8  9  1  0
  9 10  1  0
 10 11  1  0
 11 12  1  0
 10 13  1  0
 13 14  1  0
  6 15  1  0
 15 16  2  0
 16 17  1  0
 17 18  2  0
 17 19  1  0
 19 20  2  0
 20 21  1  0
 21 22  2  0
 22 23  1  0
 23 24  2  0
 24 25  1  0
 25 26  2  0
 16  3  1  0
 24 19  1  0
 25 15  1  0
  1 27  1  0
  1 28  1  0
  1 29  1  0
  2 30  1  0
  2 31  1  0
  4 32  1  0
  5 33  1  0
  7 34  1  0
  8 35  1  0
  8 36  1  0
  9 37  1  0
  9 38  1  0
 10 39  1  0
 11 40  1  0
 11 41  1  0
 12 42  1  0
 12 43  1  0
 12 44  1  0
 13 45  1  0
 13 46  1  0
 14 47  1  0
 14 48  1  0
 14 49  1  0
 20 50  1  0
 21 51  1  0
 22 52  1  0
 23 53  1  0
M  CHG  2   3   1  10   1
M  END
>  <UniqueID>  (30) 
29

>  <SMILES>  (30) 
CC[n+]1ccc(NCC[NH+](CC)CC)c2c1C(=O)c1ccccc1C2=O

>  <Energy>  (30) 
73.40411920275957

>  <Genealogy>  (30) 
CC[n+]1ccc(NCC[NH+](CC)CC)c2c1C(=O)c1ccccc1C2=O (protonated)
CC[n+]1ccc(NCC[NH+](CC)CC)c2c1C(=O)c1ccccc1C2=O (3D coordinates assigned)
CC[n+]1ccc(NCC[NH+](CC)CC)c2c1C(=O)c1ccccc1C2=O (nonaromatic ring conformer: 73.40411920275957 kcal/mol)

>  <smiles>  (30) 
CCN(CC)CCNc1cc[n+](CC)c2c1C(=O)c1ccccc1C2=O

>  <score_type>  (30) 
oracle

>  <origin>  (30) 
adg

>  <m_score__min__energy>  (30) 
-7.0899999999999999

>  <m_primary>  (30) 
energy

$$$$
30:0
     RDKit          3D

 51 53  0  0  0  0  0  0  0  0999 V2000
   -8.7450   18.6710  -31.7570 C   0  0  0  0  0  0  0  0  0  0  0  0
   -7.4960   18.9860  -32.3610 O   0  0  0  0  0  0  0  0  0  0  0  0
   -6.6960   18.0710  -33.0660 C   0  0  0  0  0  0  0  0  0  0  0  0
   -6.9700   16.6890  -33.0550 C   0  0  0  0  0  0  0  0  0  0  0  0
   -6.1590   15.7990  -33.7630 C   0  0  0  0  0  0  0  0  0  0  0  0
   -5.0670   16.2740  -34.4890 C   0  0  0  0  0  0  0  0  0  0  0  0
   -4.7820   17.6410  -34.5100 C   0  0  0  0  0  0  0  0  0  0  0  0
   -5.5890   18.5500  -33.8040 C   0  0  0  0  0  0  0  0  0  0  0  0
   -5.2320   20.0230  -33.8280 C   0  0  0  0  0  0  0  0  0  0  0  0
   -5.5250   20.6890  -32.5340 N   0  0  0  0  0  0  0  0  0  0  0  0
   -4.2690   21.1660  -31.8880 C   0  0  0  0  0  0  0  0  0  0  0  0
   -3.9940   22.6540  -32.1640 C   0  0  0  0  0  0  0  0  0  0  0  0
   -5.1020   23.5310  -31.7130 N   0  0  0  0  0  0  0  0  0  0  0  0
   -4.7180   24.3080  -30.1950 S   0  0  0  0  0  0  0  0  0  0  0  0
   -5.9730   24.4360  -29.3750 O   0  0  0  0  0  0  0  0  0  0  0  0
   -4.1520   25.6770  -30.4540 O   0  0  0  0  0  0  0  0  0  0  0  0
   -3.5150   23.3620  -29.3110 C   0  0  0  0  0  0  0  0  0  0  0  0
   -3.7910   22.0240  -28.9890 C   0  0  0  0  0  0  0  0  0  0  0  0
   -2.8540   21.2570  -28.2940 C   0  0  0  0  0  0  0  0  0  0  0  0
   -3.1320   19.9670  -27.9810 F   0  0  0  0  0  0  0  0  0  0  0  0
   -1.6300   21.8150  -27.9250 C   0  0  0  0  0  0  0  0  0  0  0  0
   -1.3360   23.1400  -28.2530 C   0  0  0  0  0  0  0  0  0  0  0  0
   -2.2720   23.9260  -28.9560 C   0  0  0  0  0  0  0  0  0  0  0  0
   -1.9980   25.2550  -29.3160 O   0  0  0  0  0  0  0  0  0  0  0  0
   -1.2220   26.1610  -28.5380 C   0  0  0  0  0  0  0  0  0  0  0  0
   -6.4030   22.8380  -31.6100 C   0  0  0  0  0  0  0  0  0  0  0  0
   -6.5350   21.7700  -32.7000 C   0  0  0  0  0  0  0  0  0  0  0  0
   -8.6400   18.6975  -30.6623 H   0  0  0  0  0  0  0  0  0  0  0  0
   -9.5000   19.4069  -32.0708 H   0  0  0  0  0  0  0  0  0  0  0  0
   -9.0607   17.6651  -32.0708 H   0  0  0  0  0  0  0  0  0  0  0  0
   -7.8296   16.3078  -32.4842 H   0  0  0  0  0  0  0  0  0  0  0  0
   -6.3819   14.7219  -33.7479 H   0  0  0  0  0  0  0  0  0  0  0  0
   -4.4296   15.5712  -35.0456 H   0  0  0  0  0  0  0  0  0  0  0  0
   -3.9189   18.0095  -35.0838 H   0  0  0  0  0  0  0  0  0  0  0  0
   -4.1582   20.1244  -34.0441 H   0  0  0  0  0  0  0  0  0  0  0  0
   -5.8425   20.5072  -34.6044 H   0  0  0  0  0  0  0  0  0  0  0  0
   -5.9360   19.9680  -31.8940 H   0  0  0  0  0  0  0  0  0  0  0  0
   -4.3530   21.0183  -30.8012 H   0  0  0  0  0  0  0  0  0  0  0  0
   -3.4346   20.5874  -32.3111 H   0  0  0  0  0  0  0  0  0  0  0  0
   -3.0751   22.9467  -31.6349 H   0  0  0  0  0  0  0  0  0  0  0  0
   -3.8920   22.7782  -33.2522 H   0  0  0  0  0  0  0  0  0  0  0  0
   -4.7512   21.5771  -29.2860 H   0  0  0  0  0  0  0  0  0  0  0  0
   -0.8947   21.2099  -27.3744 H   0  0  0  0  0  0  0  0  0  0  0  0
   -0.3680   23.5734  -27.9611 H   0  0  0  0  0  0  0  0  0  0  0  0
   -1.3908   25.9640  -27.4690 H   0  0  0  0  0  0  0  0  0  0  0  0
   -0.1558   26.0251  -28.7720 H   0  0  0  0  0  0  0  0  0  0  0  0
   -1.5201   27.1937  -28.7720 H   0  0  0  0  0  0  0  0  0  0  0  0
   -6.4795   22.3582  -30.6231 H   0  0  0  0  0  0  0  0  0  0  0  0
   -7.2082   23.5763  -31.7387 H   0  0  0  0  0  0  0  0  0  0  0  0
   -7.5414   21.3292  -32.6477 H   0  0  0  0  0  0  0  0  0  0  0  0
   -6.3667   22.2510  -33.6748 H   0  0  0  0  0  0  0  0  0  0  0  0
  1  2  1  0
  2  3  1  0
  3  4  2  0
  4  5  1  0
  5  6  2  0
  6  7  1  0
  7  8  2  0
  8  9  1  0
  9 10  1  0
 10 11  1  0
 11 12  1  0
 12 13  1  0
 13 14  1  0
 14 15  2  0
 14 16  2  0
 14 17  1  0
 17 18  2  0
 18 19  1  0
 19 20  1  0
 19 21  2  0
 21 22  1  0
 22 23  2  0
 23 24  1  0
 24 25  1  0
 13 26  1  0
 26 27  1  0
  8  3  1  0
 27 10  1  0
 23 17  1  0
  1 28  1  0
  1 29  1  0
  1 30  1  0
  4 31  1  0
  5 32  1  0
  6 33  1  0
  7 34  1  0
  9 35  1  0
  9 36  1  0
 10 37  1  0
 11 38  1  0
 11 39  1  0
 12 40  1  0
 12 41  1  0
 18 42  1  0
 21 43  1  0
 22 44  1  0
 25 45  1  0
 25 46  1  0
 25 47  1  0
 26 48  1  0
 26 49  1  0
 27 50  1  0
 27 51  1  0
M  CHG  1  10   1
M  END
>  <UniqueID>  (31) 
30

>  <SMILES>  (31) 
COc1ccccc1C[NH+]1CCN(S(=O)(=O)c2cc(F)ccc2OC)CC1

>  <Energy>  (31) 
64.49696316966907

>  <Genealogy>  (31) 
COc1ccccc1C[NH+]1CCN(S(=O)(=O)c2cc(F)ccc2OC)CC1 (protonated)
COc1ccccc1C[NH+]1CCN(S(=O)(=O)c2cc(F)ccc2OC)CC1 (3D coordinates assigned)
COc1ccccc1C[NH+]1CCN(S(=O)(=O)c2cc(F)ccc2OC)CC1 (nonaromatic ring conformer: 64.49696316966907 kcal/mol)

>  <smiles>  (31) 
COc1ccccc1CN1CCN(S(=O)(=O)c2cc(F)ccc2OC)CC1

>  <score_type>  (31) 
oracle

>  <origin>  (31) 
adg

>  <m_score__min__energy>  (31) 
-8.1199999999999992

>  <m_primary>  (31) 
energy

$$$$
31:0
     RDKit          3D

 40 40  0  0  0  0  0  0  0  0999 V2000
   -8.7220   18.6480  -31.6940 C   0  0  0  0  0  0  0  0  0  0  0  0
   -8.8300   19.8600  -32.6140 C   0  0  0  0  0  0  0  0  0  0  0  0
   -7.8120   20.8600  -32.2640 N   0  0  0  0  0  0  0  0  0  0  0  0
   -6.4290   20.6860  -32.7240 C   0  0  0  0  0  0  0  0  0  0  0  0
   -8.1780   22.0030  -31.4600 C   0  0  0  0  0  0  0  0  0  0  0  0
   -8.7150   21.8290  -30.3310 O   0  0  0  0  0  0  0  0  0  0  0  0
   -7.9920   23.4120  -31.9550 C   0  0  0  0  0  0  0  0  0  0  0  0
   -6.9240   24.0790  -31.2140 N   0  0  0  0  0  0  0  0  0  0  0  0
   -5.6090   24.0400  -31.5060 C   0  0  0  0  0  0  0  0  0  0  0  0
   -4.9580   24.8270  -30.5790 C   0  0  0  0  0  0  0  0  0  0  0  0
   -3.5590   25.1140  -30.4690 N   0  0  0  0  0  0  0  0  0  0  0  0
   -2.7130   24.8290  -29.3450 C   0  0  0  0  0  0  0  0  0  0  0  0
   -1.8560   25.6720  -28.9660 O   0  0  0  0  0  0  0  0  0  0  0  0
   -2.9040   23.5350  -28.5720 C   0  0  0  0  0  0  0  0  0  0  0  0
   -1.6180   23.1920  -27.7910 C   0  0  0  0  0  0  0  0  0  0  0  0
   -4.0700   23.6630  -27.5680 C   0  0  0  0  0  0  0  0  0  0  0  0
   -3.2140   22.4050  -29.5710 C   0  0  0  0  0  0  0  0  0  0  0  0
   -5.9430   25.3370  -29.7590 C   0  0  0  0  0  0  0  0  0  0  0  0
   -7.1370   24.8670  -30.1700 N   0  0  0  0  0  0  0  0  0  0  0  0
   -8.7516   18.9797  -30.6456 H   0  0  0  0  0  0  0  0  0  0  0  0
   -9.5629   17.9655  -31.8865 H   0  0  0  0  0  0  0  0  0  0  0  0
   -7.7737   18.1249  -31.8865 H   0  0  0  0  0  0  0  0  0  0  0  0
   -8.6802   19.5392  -33.6555 H   0  0  0  0  0  0  0  0  0  0  0  0
   -9.8272   20.3094  -32.4971 H   0  0  0  0  0  0  0  0  0  0  0  0
   -5.7611   20.6020  -31.8541 H   0  0  0  0  0  0  0  0  0  0  0  0
   -6.3569   19.7717  -33.3313 H   0  0  0  0  0  0  0  0  0  0  0  0
   -6.1326   21.5539  -33.3313 H   0  0  0  0  0  0  0  0  0  0  0  0
   -7.7311   23.3887  -33.0234 H   0  0  0  0  0  0  0  0  0  0  0  0
   -8.9293   23.9679  -31.8050 H   0  0  0  0  0  0  0  0  0  0  0  0
   -5.1411   23.4833  -32.3313 H   0  0  0  0  0  0  0  0  0  0  0  0
   -1.8196   23.2458  -26.7110 H   0  0  0  0  0  0  0  0  0  0  0  0
   -1.2903   22.1751  -28.0527 H   0  0  0  0  0  0  0  0  0  0  0  0
   -0.8274   23.9107  -28.0527 H   0  0  0  0  0  0  0  0  0  0  0  0
   -3.6765   23.6198  -26.5417 H   0  0  0  0  0  0  0  0  0  0  0  0
   -4.5841   24.6230  -27.7235 H   0  0  0  0  0  0  0  0  0  0  0  0
   -4.7801   22.8374  -27.7235 H   0  0  0  0  0  0  0  0  0  0  0  0
   -3.4658   21.4870  -29.0197 H   0  0  0  0  0  0  0  0  0  0  0  0
   -4.0650   22.6980  -30.2035 H   0  0  0  0  0  0  0  0  0  0  0  0
   -2.3327   22.2227  -30.2035 H   0  0  0  0  0  0  0  0  0  0  0  0
   -5.7804   26.0160  -28.9090 H   0  0  0  0  0  0  0  0  0  0  0  0
  1  2  1  0
  2  3  1  0
  3  4  1  0
  3  5  1  0
  5  6  2  0
  5  7  1  0
  7  8  1  0
  8  9  1  0
  9 10  2  0
 10 11  1  0
 11 12  1  0
 12 13  2  0
 12 14  1  0
 14 15  1  0
 14 16  1  0
 14 17  1  0
 10 18  1  0
 18 19  2  0
 19  8  1  0
  1 20  1  0
  1 21  1  0
  1 22  1  0
  2 23  1  0
  2 24  1  0
  4 25  1  0
  4 26  1  0
  4 27  1  0
  7 28  1  0
  7 29  1  0
  9 30  1  0
 15 31  1  0
 15 32  1  0
 15 33  1  0
 16 34  1  0
 16 35  1  0
 16 36  1  0
 17 37  1  0
 17 38  1  0
 17 39  1  0
 18 40  1  0
M  CHG  1  11  -1
M  END
>  <UniqueID>  (32) 
31

>  <SMILES>  (32) 
CCN(C)C(=O)Cn1cc([N-]C(=O)C(C)(C)C)cn1

>  <Energy>  (32) 
59.34723007506334

>  <Genealogy>  (32) 
CCN(C)C(=O)Cn1cc([N-]C(=O)C(C)(C)C)cn1 (protonated)
CCN(C)C(=O)Cn1cc([N-]C(=O)C(C)(C)C)cn1 (3D coordinates assigned)
CCN(C)C(=O)Cn1cc([N-]C(=O)C(C)(C)C)cn1 (optimized conformer: 59.34723007506334 kcal/mol)

>  <smiles>  (32) 
CCN(C)C(=O)Cn1cc(NC(=O)C(C)(C)C)cn1

>  <score_type>  (32) 
oracle

>  <origin>  (32) 
adg

>  <m_score__min__energy>  (32) 
-8.6300000000000008

>  <m_primary>  (32) 
energy

$$$$
32:0
     RDKit          3D

 54 57  0  0  0  0  0  0  0  0999 V2000
   -4.0800   21.6790  -32.7110 C   0  0  0  0  0  0  0  0  0  0  0  0
   -4.1710   22.5920  -31.5170 C   0  0  0  0  0  0  0  0  0  0  0  0
   -3.1280   22.6040  -30.5790 C   0  0  0  0  0  0  0  0  0  0  0  0
   -3.1790   23.4420  -29.4590 C   0  0  0  0  0  0  0  0  0  0  0  0
   -2.1160   23.4250  -28.4890 N   0  0  0  0  0  0  0  0  0  0  0  0
   -2.4210   23.1000  -27.0860 C   0  0  0  0  0  0  0  0  0  0  0  0
   -1.2210   23.3880  -26.1760 C   0  0  0  0  0  0  0  0  0  0  0  0
   -0.6170   24.6750  -26.5490 N   0  0  0  0  0  0  0  0  0  0  0  0
   -0.4650   25.7310  -25.5810 C   0  0  0  0  0  0  0  0  0  0  0  0
   -0.7430   27.0630  -25.9320 C   0  0  0  0  0  0  0  0  0  0  0  0
   -0.5650   28.0760  -24.9900 C   0  0  0  0  0  0  0  0  0  0  0  0
   -0.1070   27.7620  -23.7110 C   0  0  0  0  0  0  0  0  0  0  0  0
    0.1690   26.4310  -23.3940 C   0  0  0  0  0  0  0  0  0  0  0  0
   -0.0070   25.4520  -24.3250 N   0  0  0  0  0  0  0  0  0  0  0  0
   -0.2440   24.9220  -27.9510 C   0  0  0  0  0  0  0  0  0  0  0  0
   -0.7490   23.8040  -28.8710 C   0  0  0  0  0  0  0  0  0  0  0  0
   -4.2800   24.2890  -29.2880 C   0  0  0  0  0  0  0  0  0  0  0  0
   -5.3210   24.3200  -30.2280 C   0  0  0  0  0  0  0  0  0  0  0  0
   -6.4520   25.2890  -30.0170 C   0  0  0  0  0  0  0  0  0  0  0  0
   -5.2850   23.4430  -31.3380 C   0  0  0  0  0  0  0  0  0  0  0  0
   -6.3660   23.4040  -32.2900 N   0  0  0  0  0  0  0  0  0  0  0  0
   -7.7320   23.0200  -31.9240 C   0  0  0  0  0  0  0  0  0  0  0  0
   -7.9260   21.5410  -32.0590 C   0  0  0  0  0  0  0  0  0  0  0  0
   -8.9620   20.8080  -31.5160 C   0  0  0  0  0  0  0  0  0  0  0  0
   -8.7570   19.5120  -31.9370 C   0  0  0  0  0  0  0  0  0  0  0  0
   -7.6150   19.5360  -32.7120 C   0  0  0  0  0  0  0  0  0  0  0  0
   -7.1440   20.7600  -32.7680 O   0  0  0  0  0  0  0  0  0  0  0  0
   -3.9763   20.6384  -32.3698 H   0  0  0  0  0  0  0  0  0  0  0  0
   -4.9923   21.7767  -33.3177 H   0  0  0  0  0  0  0  0  0  0  0  0
   -3.2049   21.9549  -33.3177 H   0  0  0  0  0  0  0  0  0  0  0  0
   -2.2586   21.9462  -30.7256 H   0  0  0  0  0  0  0  0  0  0  0  0
   -3.2762   23.7074  -26.7549 H   0  0  0  0  0  0  0  0  0  0  0  0
   -2.6580   22.0278  -27.0207 H   0  0  0  0  0  0  0  0  0  0  0  0
   -1.5571   23.4310  -25.1295 H   0  0  0  0  0  0  0  0  0  0  0  0
   -0.4752   22.5876  -26.2906 H   0  0  0  0  0  0  0  0  0  0  0  0
   -1.0991   27.3054  -26.9442 H   0  0  0  0  0  0  0  0  0  0  0  0
   -0.7855   29.1205  -25.2555 H   0  0  0  0  0  0  0  0  0  0  0  0
    0.0351   28.5538  -22.9608 H   0  0  0  0  0  0  0  0  0  0  0  0
    0.5302   26.1713  -22.3880 H   0  0  0  0  0  0  0  0  0  0  0  0
    0.1990   24.4660  -24.0490 H   0  0  0  0  0  0  0  0  0  0  0  0
   -0.6828   25.8773  -28.2749 H   0  0  0  0  0  0  0  0  0  0  0  0
    0.8536   24.9539  -28.0162 H   0  0  0  0  0  0  0  0  0  0  0  0
   -0.7458   24.1585  -29.9123 H   0  0  0  0  0  0  0  0  0  0  0  0
   -0.0892   22.9290  -28.7754 H   0  0  0  0  0  0  0  0  0  0  0  0
   -4.3299   24.9404  -28.4030 H   0  0  0  0  0  0  0  0  0  0  0  0
   -6.6172   25.4306  -28.9387 H   0  0  0  0  0  0  0  0  0  0  0  0
   -6.1986   26.2546  -30.4790 H   0  0  0  0  0  0  0  0  0  0  0  0
   -7.3673   24.8905  -30.4790 H   0  0  0  0  0  0  0  0  0  0  0  0
   -6.1260   23.4100  -33.3080 H   0  0  0  0  0  0  0  0  0  0  0  0
   -7.9217   23.3144  -30.8812 H   0  0  0  0  0  0  0  0  0  0  0  0
   -8.4335   23.5296  -32.6009 H   0  0  0  0  0  0  0  0  0  0  0  0
   -9.7793   21.1802  -30.8808 H   0  0  0  0  0  0  0  0  0  0  0  0
   -9.3783   18.6350  -31.7027 H   0  0  0  0  0  0  0  0  0  0  0  0
   -7.1674   18.6619  -33.2076 H   0  0  0  0  0  0  0  0  0  0  0  0
  1  2  1  0
  2  3  2  0
  3  4  1  0
  4  5  1  0
  5  6  1  0
  6  7  1  0
  7  8  1  0
  8  9  1  0
  9 10  2  0
 10 11  1  0
 11 12  2  0
 12 13  1  0
 13 14  2  0
  8 15  1  0
 15 16  1  0
  4 17  2  0
 17 18  1  0
 18 19  1  0
 18 20  2  0
 20 21  1  0
 21 22  1  0
 22 23  1  0
 23 24  2  0
 24 25  1  0
 25 26  2  0
 26 27  1  0
 20  2  1  0
 27 23  1  0
 16  5  1  0
 14  9  1  0
  1 28  1  0
  1 29  1  0
  1 30  1  0
  3 31  1  0
  6 32  1  0
  6 33  1  0
  7 34  1  0
  7 35  1  0
 10 36  1  0
 11 37  1  0
 12 38  1  0
 13 39  1  0
 14 40  1  0
 15 41  1  0
 15 42  1  0
 16 43  1  0
 16 44  1  0
 17 45  1  0
 19 46  1  0
 19 47  1  0
 19 48  1  0
 21 49  1  0
 22 50  1  0
 22 51  1  0
 24 52  1  0
 25 53  1  0
 26 54  1  0
M  CHG  1  14   1
M  END
>  <UniqueID>  (33) 
32

>  <SMILES>  (33) 
Cc1cc(N2CCN(c3cccc[nH+]3)CC2)cc(C)c1NCc1ccco1

>  <Energy>  (33) 
94.72044709421618

>  <Genealogy>  (33) 
Cc1cc(N2CCN(c3cccc[nH+]3)CC2)cc(C)c1NCc1ccco1 (protonated)
Cc1cc(N2CCN(c3cccc[nH+]3)CC2)cc(C)c1NCc1ccco1 (3D coordinates assigned)
Cc1cc(N2CCN(c3cccc[nH+]3)CC2)cc(C)c1NCc1ccco1 (nonaromatic ring conformer: 94.72044709421618 kcal/mol)

>  <smiles>  (33) 
Cc1cc(N2CCN(c3ccccn3)CC2)cc(C)c1NCc1ccco1

>  <score_type>  (33) 
oracle

>  <origin>  (33) 
adg

>  <m_score__min__energy>  (33) 
-8.2899999999999991

>  <m_primary>  (33) 
energy

$$$$
33:0
     RDKit          3D

 34 34  0  0  0  0  0  0  0  0999 V2000
   -5.7600   25.6590  -30.1110 C   0  0  0  0  0  0  0  0  0  0  0  0
   -4.9790   24.5430  -30.8150 C   0  0  0  0  0  0  0  0  0  0  0  0
   -5.8210   23.4350  -31.3270 N   0  0  0  0  0  0  0  0  0  0  0  0
   -5.1350   22.1280  -31.4160 C   0  0  0  0  0  0  0  0  0  0  0  0
   -4.3530   22.0320  -32.7210 C   0  0  0  0  0  0  0  0  0  0  0  0
   -7.1920   23.3830  -30.7720 C   0  0  0  0  0  0  0  0  0  0  0  0
   -7.9960   22.2840  -31.3330 C   0  0  0  0  0  0  0  0  0  0  0  0
   -8.6540   21.3860  -31.7940 C   0  0  0  0  0  0  0  0  0  0  0  0
   -9.4620   20.2930  -32.3570 C   0  0  0  0  0  0  0  0  0  0  0  0
   -8.6150   19.1790  -32.8180 N   0  0  2  0  0  0  0  0  0  0  0  0
   -8.6030   18.2230  -31.8340 O   0  0  0  0  0  0  0  0  0  0  0  0
   -7.2580   17.8370  -31.5950 C   0  0  0  0  0  0  0  0  0  0  0  0
   -6.3150   18.8490  -32.2080 C   0  0  0  0  0  0  0  0  0  0  0  0
   -7.2620   19.5860  -33.0180 C   0  0  0  0  0  0  0  0  0  0  0  0
   -6.9320   20.4300  -33.8390 O   0  0  0  0  0  0  0  0  0  0  0  0
   -5.6737   25.5357  -29.0213 H   0  0  0  0  0  0  0  0  0  0  0  0
   -5.3474   26.6359  -30.4033 H   0  0  0  0  0  0  0  0  0  0  0  0
   -6.8191   25.6060  -30.4033 H   0  0  0  0  0  0  0  0  0  0  0  0
   -4.4380   24.9850  -31.6647 H   0  0  0  0  0  0  0  0  0  0  0  0
   -4.3086   24.1051  -30.0608 H   0  0  0  0  0  0  0  0  0  0  0  0
   -4.4418   22.0230  -30.5684 H   0  0  0  0  0  0  0  0  0  0  0  0
   -5.8866   21.3253  -31.3880 H   0  0  0  0  0  0  0  0  0  0  0  0
   -3.2837   21.9007  -32.4989 H   0  0  0  0  0  0  0  0  0  0  0  0
   -4.7149   21.1715  -33.3029 H   0  0  0  0  0  0  0  0  0  0  0  0
   -4.4961   22.9545  -33.3029 H   0  0  0  0  0  0  0  0  0  0  0  0
   -7.1247   23.2479  -29.6824 H   0  0  0  0  0  0  0  0  0  0  0  0
   -7.6916   24.3264  -31.0374 H   0  0  0  0  0  0  0  0  0  0  0  0
  -10.1507   19.9223  -31.5835 H   0  0  0  0  0  0  0  0  0  0  0  0
  -10.0187   20.6845  -33.2212 H   0  0  0  0  0  0  0  0  0  0  0  0
   -8.9980   18.7470  -33.6930 H   0  0  0  0  0  0  0  0  0  0  0  0
   -7.0811   17.7837  -30.5106 H   0  0  0  0  0  0  0  0  0  0  0  0
   -7.0777   16.8519  -32.0501 H   0  0  0  0  0  0  0  0  0  0  0  0
   -5.8421   19.4856  -31.4457 H   0  0  0  0  0  0  0  0  0  0  0  0
   -5.4582   18.4255  -32.7526 H   0  0  0  0  0  0  0  0  0  0  0  0
  1  2  1  0
  2  3  1  0
  3  4  1  0
  4  5  1  0
  3  6  1  0
  6  7  1  0
  7  8  3  0
  8  9  1  0
  9 10  1  0
 10 11  1  0
 11 12  1  0
 12 13  1  0
 13 14  1  0
 14 15  2  0
 14 10  1  0
  1 16  1  0
  1 17  1  0
  1 18  1  0
  2 19  1  0
  2 20  1  0
  4 21  1  0
  4 22  1  0
  5 23  1  0
  5 24  1  0
  5 25  1  0
  6 26  1  0
  6 27  1  0
  9 28  1  0
  9 29  1  0
 10 30  1  6
 12 31  1  0
 12 32  1  0
 13 33  1  0
 13 34  1  0
M  CHG  1  10   1
M  END
>  <UniqueID>  (34) 
33

>  <SMILES>  (34) 
CCN(CC)CC#CC[N@@H+]1OCCC1=O

>  <Energy>  (34) 
34.36656647309777

>  <Genealogy>  (34) 
CCN(CC)CC#CC[NH+]1OCCC1=O (protonated)
CCN(CC)CC#CC[N@@H+]1OCCC1=O (chirality)
CCN(CC)CC#CC[N@@H+]1OCCC1=O (3D coordinates assigned)
CCN(CC)CC#CC[N@@H+]1OCCC1=O (nonaromatic ring conformer: 34.36656647309777 kcal/mol)

>  <smiles>  (34) 
CCN(CC)CC#CCN1OCCC1=O

>  <score_type>  (34) 
oracle

>  <origin>  (34) 
adg

>  <m_score__min__energy>  (34) 
-5.3300000000000001

>  <m_primary>  (34) 
energy

$$$$
34:0
     RDKit          3D

 42 43  0  0  0  0  0  0  0  0999 V2000
   -0.1210   23.1280  -26.3400 C   0  0  0  0  0  0  0  0  0  0  0  0
    0.4250   24.3120  -27.1440 C   0  0  0  0  0  0  0  0  0  0  0  0
    0.1560   24.1820  -28.5860 N   0  0  0  0  0  0  0  0  0  0  0  0
   -1.0770   23.4310  -28.8670 C   0  0  0  0  0  0  0  0  0  0  0  0
   -2.2250   24.3750  -29.1090 C   0  0  0  0  0  0  0  0  0  0  0  0
   -2.0140   25.6090  -28.9470 O   0  0  0  0  0  0  0  0  0  0  0  0
   -3.5440   23.9230  -29.5110 N   0  0  0  0  0  0  0  0  0  0  0  0
   -4.6720   24.8620  -29.3180 C   0  0  0  0  0  0  0  0  0  0  0  0
   -5.5970   25.0200  -30.5420 C   0  0  0  0  0  0  0  0  0  0  0  0
   -6.5830   23.8510  -30.7430 C   0  0  0  0  0  0  0  0  0  0  0  0
   -5.9300   22.6430  -31.2680 N   0  0  0  0  0  0  0  0  0  0  0  0
   -6.7320   21.5540  -31.7600 C   0  0  0  0  0  0  0  0  0  0  0  0
   -6.3250   20.8220  -32.8880 C   0  0  0  0  0  0  0  0  0  0  0  0
   -7.1080   19.7620  -33.3590 C   0  0  0  0  0  0  0  0  0  0  0  0
   -8.2990   19.4280  -32.7090 C   0  0  0  0  0  0  0  0  0  0  0  0
   -8.7100   20.1530  -31.5880 C   0  0  0  0  0  0  0  0  0  0  0  0
   -7.9310   21.2130  -31.1150 C   0  0  0  0  0  0  0  0  0  0  0  0
   -4.4670   22.5760  -31.3900 C   0  0  0  0  0  0  0  0  0  0  0  0
   -3.7720   22.5550  -30.0220 C   0  0  0  0  0  0  0  0  0  0  0  0
   -0.0237   23.3389  -25.2648 H   0  0  0  0  0  0  0  0  0  0  0  0
   -1.1813   22.9735  -26.5889 H   0  0  0  0  0  0  0  0  0  0  0  0
    0.4499   22.2213  -26.5889 H   0  0  0  0  0  0  0  0  0  0  0  0
   -0.0475   25.2355  -26.7782 H   0  0  0  0  0  0  0  0  0  0  0  0
    1.5161   24.3364  -27.0068 H   0  0  0  0  0  0  0  0  0  0  0  0
    0.0830   25.1320  -29.0210 H   0  0  0  0  0  0  0  0  0  0  0  0
   -0.9258   22.8080  -29.7609 H   0  0  0  0  0  0  0  0  0  0  0  0
   -1.3137   22.7976  -27.9994 H   0  0  0  0  0  0  0  0  0  0  0  0
   -5.2786   24.4999  -28.4748 H   0  0  0  0  0  0  0  0  0  0  0  0
   -4.2251   25.8507  -29.1372 H   0  0  0  0  0  0  0  0  0  0  0  0
   -6.1791   25.9450  -30.4177 H   0  0  0  0  0  0  0  0  0  0  0  0
   -4.9471   25.0421  -31.4292 H   0  0  0  0  0  0  0  0  0  0  0  0
   -7.0444   23.6090  -29.7742 H   0  0  0  0  0  0  0  0  0  0  0  0
   -7.3327   24.1714  -31.4814 H   0  0  0  0  0  0  0  0  0  0  0  0
   -5.3883   21.0828  -33.4024 H   0  0  0  0  0  0  0  0  0  0  0  0
   -6.7854   19.1910  -34.2421 H   0  0  0  0  0  0  0  0  0  0  0  0
   -8.9129   18.5941  -33.0801 H   0  0  0  0  0  0  0  0  0  0  0  0
   -9.6477   19.8895  -31.0768 H   0  0  0  0  0  0  0  0  0  0  0  0
   -8.2593   21.7826  -30.2331 H   0  0  0  0  0  0  0  0  0  0  0  0
   -4.1987   21.6606  -31.9378 H   0  0  0  0  0  0  0  0  0  0  0  0
   -4.1311   23.4760  -31.9258 H   0  0  0  0  0  0  0  0  0  0  0  0
   -4.4043   22.0071  -29.3079 H   0  0  0  0  0  0  0  0  0  0  0  0
   -2.7956   22.0618  -30.1377 H   0  0  0  0  0  0  0  0  0  0  0  0
  1  2  1  0
  2  3  1  0
  3  4  1  0
  4  5  1  0
  5  6  2  0
  5  7  1  0
  7  8  1  0
  8  9  1  0
  9 10  1  0
 10 11  1  0
 11 12  1  0
 12 13  2  0
 13 14  1  0
 14 15  2  0
 15 16  1  0
 16 17  2  0
 11 18  1  0
 18 19  1  0
 19  7  1  0
 17 12  1  0
  1 20  1  0
  1 21  1  0
  1 22  1  0
  2 23  1  0
  2 24  1  0
  3 25  1  0
  4 26  1  0
  4 27  1  0
  8 28  1  0
  8 29  1  0
  9 30  1  0
  9 31  1  0
 10 32  1  0
 10 33  1  0
 13 34  1  0
 14 35  1  0
 15 36  1  0
 16 37  1  0
 17 38  1  0
 18 39  1  0
 18 40  1  0
 19 41  1  0
 19 42  1  0
M  END
>  <UniqueID>  (35) 
34

>  <SMILES>  (35) 
CCNCC(=O)N1CCCN(c2ccccc2)CC1

>  <Energy>  (35) 
48.56434916002203

>  <Genealogy>  (35) 
CCNCC(=O)N1CCCN(c2ccccc2)CC1 (3D coordinates assigned)
CCNCC(=O)N1CCCN(c2ccccc2)CC1 (nonaromatic ring conformer: 48.56434916002203 kcal/mol)

>  <smiles>  (35) 
CCNCC(=O)N1CCCN(c2ccccc2)CC1

>  <score_type>  (35) 
oracle

>  <origin>  (35) 
adg

>  <m_score__min__energy>  (35) 
-5.5999999999999996

>  <m_primary>  (35) 
energy

$$$$
35:0
     RDKit          3D

 60 63  0  0  0  0  0  0  0  0999 V2000
   -1.2610   25.7420  -28.2430 C   0  0  0  0  0  0  0  0  0  0  0  0
   -2.2190   24.9480  -27.3580 C   0  0  0  0  0  0  0  0  0  0  0  0
   -2.9720   23.9590  -28.1510 N   0  0  0  0  0  0  0  0  0  0  0  0
   -4.4360   24.1210  -28.2210 C   0  0  0  0  0  0  0  0  0  0  0  0
   -4.8580   24.9210  -29.4570 C   0  0  0  0  0  0  0  0  0  0  0  0
   -3.8960   24.7700  -30.4800 O   0  0  0  0  0  0  0  0  0  0  0  0
   -4.0840   23.5280  -31.1270 C   0  0  0  0  0  0  0  0  0  0  0  0
   -5.5780   23.2660  -31.3170 C   0  0  0  0  0  0  0  0  0  0  0  0
   -5.8480   22.6060  -32.5980 N   0  0  0  0  0  0  0  0  0  0  0  0
   -5.7500   21.1780  -32.7540 C   0  0  0  0  0  0  0  0  0  0  0  0
   -6.8700   20.3640  -32.5130 C   0  0  0  0  0  0  0  0  0  0  0  0
   -8.0510   20.9030  -31.9630 C   0  0  0  0  0  0  0  0  0  0  0  0
   -9.1360   20.0820  -31.6680 C   0  0  0  0  0  0  0  0  0  0  0  0
   -9.0740   18.7200  -31.9360 C   0  0  0  0  0  0  0  0  0  0  0  0
   -7.9270   18.1690  -32.5040 C   0  0  0  0  0  0  0  0  0  0  0  0
   -6.8070   18.9790  -32.8260 C   0  0  0  0  0  0  0  0  0  0  0  0
   -5.6720   18.4530  -33.4140 N   0  0  0  0  0  0  0  0  0  0  0  0
   -5.7090   17.1010  -34.0140 C   0  0  0  0  0  0  0  0  0  0  0  0
   -4.5060   19.1940  -33.4450 C   0  0  0  0  0  0  0  0  0  0  0  0
   -3.2550   18.6050  -33.7620 C   0  0  0  0  0  0  0  0  0  0  0  0
   -2.0890   19.3680  -33.7990 C   0  0  0  0  0  0  0  0  0  0  0  0
   -2.1300   20.7250  -33.5010 C   0  0  0  0  0  0  0  0  0  0  0  0
   -3.3380   21.3270  -33.1540 C   0  0  0  0  0  0  0  0  0  0  0  0
   -4.5350   20.5800  -33.1300 C   0  0  0  0  0  0  0  0  0  0  0  0
   -2.3070   22.8220  -28.7770 C   0  0  0  0  0  0  0  0  0  0  0  0
   -2.6710   21.4930  -28.4550 C   0  0  0  0  0  0  0  0  0  0  0  0
   -2.0070   20.4070  -29.0320 C   0  0  0  0  0  0  0  0  0  0  0  0
   -0.9770   20.6180  -29.9450 C   0  0  0  0  0  0  0  0  0  0  0  0
   -0.6100   21.9180  -30.2900 C   0  0  0  0  0  0  0  0  0  0  0  0
   -1.2690   23.0100  -29.7190 C   0  0  0  0  0  0  0  0  0  0  0  0
   -0.5681   26.3162  -27.6104 H   0  0  0  0  0  0  0  0  0  0  0  0
   -0.6892   25.0494  -28.8781 H   0  0  0  0  0  0  0  0  0  0  0  0
   -1.8355   26.4324  -28.8781 H   0  0  0  0  0  0  0  0  0  0  0  0
   -1.6415   24.4233  -26.5826 H   0  0  0  0  0  0  0  0  0  0  0  0
   -2.9335   25.6470  -26.8987 H   0  0  0  0  0  0  0  0  0  0  0  0
   -4.9033   23.1261  -28.2635 H   0  0  0  0  0  0  0  0  0  0  0  0
   -4.7636   24.6720  -27.3271 H   0  0  0  0  0  0  0  0  0  0  0  0
   -5.8311   24.5533  -29.8145 H   0  0  0  0  0  0  0  0  0  0  0  0
   -4.9375   25.9850  -29.1894 H   0  0  0  0  0  0  0  0  0  0  0  0
   -3.5888   23.5488  -32.1090 H   0  0  0  0  0  0  0  0  0  0  0  0
   -3.6496   22.7271  -30.5106 H   0  0  0  0  0  0  0  0  0  0  0  0
   -5.9347   22.6212  -30.5003 H   0  0  0  0  0  0  0  0  0  0  0  0
   -6.1022   24.2330  -31.3092 H   0  0  0  0  0  0  0  0  0  0  0  0
   -6.0180   23.1970  -33.4410 H   0  0  0  0  0  0  0  0  0  0  0  0
   -8.1158   21.9831  -31.7650 H   0  0  0  0  0  0  0  0  0  0  0  0
  -10.0445   20.5126  -31.2217 H   0  0  0  0  0  0  0  0  0  0  0  0
   -9.9329   18.0748  -31.6991 H   0  0  0  0  0  0  0  0  0  0  0  0
   -7.8890   17.0884  -32.7061 H   0  0  0  0  0  0  0  0  0  0  0  0
   -5.7297   16.3456  -33.2147 H   0  0  0  0  0  0  0  0  0  0  0  0
   -6.6102   17.0007  -34.6367 H   0  0  0  0  0  0  0  0  0  0  0  0
   -4.8146   16.9516  -34.6367 H   0  0  0  0  0  0  0  0  0  0  0  0
   -3.2042   17.5285  -33.9822 H   0  0  0  0  0  0  0  0  0  0  0  0
   -1.1326   18.8943  -34.0651 H   0  0  0  0  0  0  0  0  0  0  0  0
   -1.2083   21.3242  -33.5391 H   0  0  0  0  0  0  0  0  0  0  0  0
   -3.3587   22.3961  -32.8960 H   0  0  0  0  0  0  0  0  0  0  0  0
   -3.4878   21.3122  -27.7407 H   0  0  0  0  0  0  0  0  0  0  0  0
   -2.2993   19.3810  -28.7637 H   0  0  0  0  0  0  0  0  0  0  0  0
   -0.4538   19.7605  -30.3932 H   0  0  0  0  0  0  0  0  0  0  0  0
    0.2011   22.0847  -31.0141 H   0  0  0  0  0  0  0  0  0  0  0  0
   -0.9761   24.0306  -30.0064 H   0  0  0  0  0  0  0  0  0  0  0  0
  1  2  1  0
  2  3  1  0
  3  4  1  0
  4  5  1  0
  5  6  1  0
  6  7  1  0
  7  8  1  0
  8  9  1  0
  9 10  1  0
 10 11  1  0
 11 12  2  0
 12 13  1  0
 13 14  2  0
 14 15  1  0
 15 16  2  0
 16 17  1  0
 17 18  1  0
 17 19  2  0
 19 20  1  0
 20 21  2  0
 21 22  1  0
 22 23  2  0
 23 24  1  0
  3 25  1  0
 25 26  2  0
 26 27  1  0
 27 28  2  0
 28 29  1  0
 29 30  2  0
 24 10  2  0
 30 25  1  0
 16 11  1  0
 24 19  1  0
  1 31  1  0
  1 32  1  0
  1 33  1  0
  2 34  1  0
  2 35  1  0
  4 36  1  0
  4 37  1  0
  5 38  1  0
  5 39  1  0
  7 40  1  0
  7 41  1  0
  8 42  1  0
  8 43  1  0
  9 44  1  0
 12 45  1  0
 13 46  1  0
 14 47  1  0
 15 48  1  0
 18 49  1  0
 18 50  1  0
 18 51  1  0
 20 52  1  0
 21 53  1  0
 22 54  1  0
 23 55  1  0
 26 56  1  0
 27 57  1  0
 28 58  1  0
 29 59  1  0
 30 60  1  0
M  CHG  1  17   1
M  END
>  <UniqueID>  (36) 
35

>  <SMILES>  (36) 
CCN(CCOCCNc1c2ccccc2[n+](C)c2ccccc12)c1ccccc1

>  <Energy>  (36) 
83.93367631686748

>  <Genealogy>  (36) 
CCN(CCOCCNc1c2ccccc2[n+](C)c2ccccc12)c1ccccc1 (3D coordinates assigned)
CCN(CCOCCNc1c2ccccc2[n+](C)c2ccccc12)c1ccccc1 (optimized conformer: 83.93367631686748 kcal/mol)

>  <smiles>  (36) 
CCN(CCOCCNc1c2ccccc2[n+](C)c2ccccc12)c1ccccc1

>  <score_type>  (36) 
oracle

>  <origin>  (36) 
adg

>  <m_score__min__energy>  (36) 
-9.9199999999999999

>  <m_primary>  (36) 
energy

$$$$
36:0
     RDKit          3D

 42 42  0  0  0  0  0  0  0  0999 V2000
   -9.1220   21.7490  -31.1180 C   0  0  0  0  0  0  0  0  0  0  0  0
   -8.8150   22.9760  -31.9700 C   0  0  0  0  0  0  0  0  0  0  0  0
   -7.4490   22.9750  -32.3810 O   0  0  0  0  0  0  0  0  0  0  0  0
   -6.3500   23.3460  -31.5860 C   0  0  0  0  0  0  0  0  0  0  0  0
   -6.4910   24.1800  -30.4580 C   0  0  0  0  0  0  0  0  0  0  0  0
   -5.3760   24.5280  -29.6920 C   0  0  0  0  0  0  0  0  0  0  0  0
   -4.1110   24.0530  -30.0370 C   0  0  0  0  0  0  0  0  0  0  0  0
   -2.5920   24.5280  -28.9820 Br  0  0  0  0  0  0  0  0  0  0  0  0
   -3.9560   23.2290  -31.1540 C   0  0  0  0  0  0  0  0  0  0  0  0
   -5.0680   22.8670  -31.9370 C   0  0  0  0  0  0  0  0  0  0  0  0
   -4.8950   21.9830  -33.0680 N   0  0  0  0  0  0  0  0  0  0  0  0
   -4.1980   20.7410  -32.6890 C   0  0  0  0  0  0  0  0  0  0  0  0
   -5.1400   19.5240  -32.6680 C   0  0  0  0  0  0  0  0  0  0  0  0
   -6.2050   19.6910  -33.6840 N   0  0  0  0  0  0  0  0  0  0  0  0
   -6.0950   18.6670  -34.7480 C   0  0  0  0  0  0  0  0  0  0  0  0
   -5.3830   17.4260  -34.2180 C   0  0  0  0  0  0  0  0  0  0  0  0
   -7.5480   19.6690  -33.0590 C   0  0  0  0  0  0  0  0  0  0  0  0
   -7.5650   18.6980  -31.8820 C   0  0  0  0  0  0  0  0  0  0  0  0
   -9.0552   22.0161  -30.0530 H   0  0  0  0  0  0  0  0  0  0  0  0
  -10.1374   21.3909  -31.3432 H   0  0  0  0  0  0  0  0  0  0  0  0
   -8.3948   20.9549  -31.3432 H   0  0  0  0  0  0  0  0  0  0  0  0
   -9.4602   22.9677  -32.8609 H   0  0  0  0  0  0  0  0  0  0  0  0
   -9.0036   23.8790  -31.3708 H   0  0  0  0  0  0  0  0  0  0  0  0
   -7.4853   24.5590  -30.1794 H   0  0  0  0  0  0  0  0  0  0  0  0
   -5.4961   25.1790  -28.8135 H   0  0  0  0  0  0  0  0  0  0  0  0
   -2.9557   22.8596  -31.4242 H   0  0  0  0  0  0  0  0  0  0  0  0
   -4.3690   22.4610  -33.8370 H   0  0  0  0  0  0  0  0  0  0  0  0
   -5.8350   21.7370  -33.4560 H   0  0  0  0  0  0  0  0  0  0  0  0
   -3.3927   20.5522  -33.4141 H   0  0  0  0  0  0  0  0  0  0  0  0
   -3.8005   20.8757  -31.6722 H   0  0  0  0  0  0  0  0  0  0  0  0
   -4.5641   18.6135  -32.8901 H   0  0  0  0  0  0  0  0  0  0  0  0
   -5.6002   19.4404  -31.6724 H   0  0  0  0  0  0  0  0  0  0  0  0
   -7.1030   18.3889  -35.0894 H   0  0  0  0  0  0  0  0  0  0  0  0
   -5.5145   19.0821  -35.5851 H   0  0  0  0  0  0  0  0  0  0  0  0
   -5.3912   17.4402  -33.1181 H   0  0  0  0  0  0  0  0  0  0  0  0
   -5.9013   16.5246  -34.5769 H   0  0  0  0  0  0  0  0  0  0  0  0
   -4.3432   17.4185  -34.5769 H   0  0  0  0  0  0  0  0  0  0  0  0
   -7.7989   20.6784  -32.7011 H   0  0  0  0  0  0  0  0  0  0  0  0
   -8.2863   19.3413  -33.8057 H   0  0  0  0  0  0  0  0  0  0  0  0
   -7.5551   19.2645  -30.9391 H   0  0  0  0  0  0  0  0  0  0  0  0
   -8.4741   18.0805  -31.9292 H   0  0  0  0  0  0  0  0  0  0  0  0
   -6.6781   18.0490  -31.9292 H   0  0  0  0  0  0  0  0  0  0  0  0
  1  2  1  0
  2  3  1  0
  3  4  1  0
  4  5  2  0
  5  6  1  0
  6  7  2  0
  7  8  1  0
  7  9  1  0
  9 10  2  0
 10 11  1  0
 11 12  1  0
 12 13  1  0
 13 14  1  0
 14 15  1  0
 15 16  1  0
 14 17  1  0
 17 18  1  0
 10  4  1  0
  1 19  1  0
  1 20  1  0
  1 21  1  0
  2 22  1  0
  2 23  1  0
  5 24  1  0
  6 25  1  0
  9 26  1  0
 11 27  1  0
 11 28  1  0
 12 29  1  0
 12 30  1  0
 13 31  1  0
 13 32  1  0
 15 33  1  0
 15 34  1  0
 16 35  1  0
 16 36  1  0
 16 37  1  0
 17 38  1  0
 17 39  1  0
 18 40  1  0
 18 41  1  0
 18 42  1  0
M  CHG  1  11   1
M  END
>  <UniqueID>  (37) 
36

>  <SMILES>  (37) 
CCOc1ccc(Br)cc1[NH2+]CCN(CC)CC

>  <Energy>  (37) 
35.513992376839425

>  <Genealogy>  (37) 
CCOc1ccc(Br)cc1[NH2+]CCN(CC)CC (protonated)
CCOc1ccc(Br)cc1[NH2+]CCN(CC)CC (3D coordinates assigned)
CCOc1ccc(Br)cc1[NH2+]CCN(CC)CC (optimized conformer: 35.513992376839425 kcal/mol)

>  <smiles>  (37) 
CCOc1ccc(Br)cc1NCCN(CC)CC

>  <score_type>  (37) 
oracle

>  <origin>  (37) 
adg

>  <m_score__min__energy>  (37) 
-5.7400000000000002

>  <m_primary>  (37) 
energy

$$$$
37:0
     RDKit          3D

 56 58  0  0  0  0  0  0  0  0999 V2000
   -3.8920   22.7550  -27.8460 C   0  0  0  0  0  0  0  0  0  0  0  0
   -3.6650   24.0730  -28.5790 C   0  0  0  0  0  0  0  0  0  0  0  0
   -3.4830   23.8680  -30.0940 C   0  0  0  0  0  0  0  0  0  0  0  0
   -4.5380   24.5660  -30.8700 N   0  0  0  0  0  0  0  0  0  0  0  0
   -5.4560   25.3080  -29.9720 C   0  0  0  0  0  0  0  0  0  0  0  0
   -6.8710   24.7470  -30.0780 C   0  0  0  0  0  0  0  0  0  0  0  0
   -5.2820   23.6060  -31.7210 C   0  0  0  0  0  0  0  0  0  0  0  0
   -4.5150   22.2760  -31.8210 C   0  0  0  0  0  0  0  0  0  0  0  0
   -4.5860   21.7170  -33.1840 N   0  0  0  0  0  0  0  0  0  0  0  0
   -5.0820   20.3480  -33.1580 C   0  0  0  0  0  0  0  0  0  0  0  0
   -4.2190   19.2600  -33.4540 C   0  0  0  0  0  0  0  0  0  0  0  0
   -2.8280   19.4430  -33.6490 C   0  0  0  0  0  0  0  0  0  0  0  0
   -1.9840   18.3630  -33.8930 C   0  0  0  0  0  0  0  0  0  0  0  0
   -2.4980   17.0750  -33.9400 C   0  0  0  0  0  0  0  0  0  0  0  0
   -3.8640   16.8630  -33.7620 C   0  0  0  0  0  0  0  0  0  0  0  0
   -4.7560   17.9450  -33.5460 C   0  0  0  0  0  0  0  0  0  0  0  0
   -6.1130   17.7370  -33.4120 N   0  0  0  0  0  0  0  0  0  0  0  0
   -6.7090   16.4510  -33.8350 C   0  0  0  0  0  0  0  0  0  0  0  0
   -6.9160   18.7350  -32.8970 C   0  0  0  0  0  0  0  0  0  0  0  0
   -8.2340   18.4590  -32.4510 C   0  0  0  0  0  0  0  0  0  0  0  0
   -9.0620   19.4700  -31.9740 C   0  0  0  0  0  0  0  0  0  0  0  0
   -8.6060   20.7840  -31.9130 C   0  0  0  0  0  0  0  0  0  0  0  0
   -9.4870   21.8630  -31.3500 C   0  0  0  0  0  0  0  0  0  0  0  0
   -7.2900   21.0740  -32.2890 C   0  0  0  0  0  0  0  0  0  0  0  0
   -6.4250   20.0660  -32.7850 C   0  0  0  0  0  0  0  0  0  0  0  0
   -3.8620   22.9293  -26.7603 H   0  0  0  0  0  0  0  0  0  0  0  0
   -4.8740   22.3450  -28.1245 H   0  0  0  0  0  0  0  0  0  0  0  0
   -3.1038   22.0401  -28.1245 H   0  0  0  0  0  0  0  0  0  0  0  0
   -4.5337   24.7266  -28.4111 H   0  0  0  0  0  0  0  0  0  0  0  0
   -2.7433   24.5260  -28.1849 H   0  0  0  0  0  0  0  0  0  0  0  0
   -2.5004   24.2625  -30.3922 H   0  0  0  0  0  0  0  0  0  0  0  0
   -3.5548   22.7912  -30.3067 H   0  0  0  0  0  0  0  0  0  0  0  0
   -5.1045   25.2116  -28.9341 H   0  0  0  0  0  0  0  0  0  0  0  0
   -5.4683   26.3669  -30.2696 H   0  0  0  0  0  0  0  0  0  0  0  0
   -7.2780   24.5856  -29.0689 H   0  0  0  0  0  0  0  0  0  0  0  0
   -7.5086   25.4604  -30.6208 H   0  0  0  0  0  0  0  0  0  0  0  0
   -6.8465   23.7905  -30.6208 H   0  0  0  0  0  0  0  0  0  0  0  0
   -6.2724   23.4215  -31.2794 H   0  0  0  0  0  0  0  0  0  0  0  0
   -5.3925   24.0322  -32.7290 H   0  0  0  0  0  0  0  0  0  0  0  0
   -3.4608   22.4499  -31.5596 H   0  0  0  0  0  0  0  0  0  0  0  0
   -4.9749   21.5572  -31.1268 H   0  0  0  0  0  0  0  0  0  0  0  0
   -5.1890   22.3170  -33.7900 H   0  0  0  0  0  0  0  0  0  0  0  0
   -3.6550   21.7690  -33.6540 H   0  0  0  0  0  0  0  0  0  0  0  0
   -2.4064   20.4581  -33.6068 H   0  0  0  0  0  0  0  0  0  0  0  0
   -0.9081   18.5310  -34.0488 H   0  0  0  0  0  0  0  0  0  0  0  0
   -1.8274   16.2213  -34.1177 H   0  0  0  0  0  0  0  0  0  0  0  0
   -4.2583   15.8365  -33.7895 H   0  0  0  0  0  0  0  0  0  0  0  0
   -6.9814   15.8631  -32.9461 H   0  0  0  0  0  0  0  0  0  0  0  0
   -7.6093   16.6444  -34.4367 H   0  0  0  0  0  0  0  0  0  0  0  0
   -5.9795   15.8891  -34.4367 H   0  0  0  0  0  0  0  0  0  0  0  0
   -8.6087   17.4253  -32.4830 H   0  0  0  0  0  0  0  0  0  0  0  0
  -10.0832   19.2298  -31.6430 H   0  0  0  0  0  0  0  0  0  0  0  0
   -9.4562   21.8253  -30.2511 H   0  0  0  0  0  0  0  0  0  0  0  0
   -9.1292   22.8449  -31.6934 H   0  0  0  0  0  0  0  0  0  0  0  0
  -10.5206   21.7088  -31.6934 H   0  0  0  0  0  0  0  0  0  0  0  0
   -6.9187   22.1054  -32.1979 H   0  0  0  0  0  0  0  0  0  0  0  0
  1  2  1  0
  2  3  1  0
  3  4  1  0
  4  5  1  0
  5  6  1  0
  4  7  1  0
  7  8  1  0
  8  9  1  0
  9 10  1  0
 10 11  2  0
 11 12  1  0
 12 13  2  0
 13 14  1  0
 14 15  2  0
 15 16  1  0
 16 17  2  0
 17 18  1  0
 17 19  1  0
 19 20  2  0
 20 21  1  0
 21 22  2  0
 22 23  1  0
 22 24  1  0
 24 25  2  0
 25 10  1  0
 16 11  1  0
 25 19  1  0
  1 26  1  0
  1 27  1  0
  1 28  1  0
  2 29  1  0
  2 30  1  0
  3 31  1  0
  3 32  1  0
  5 33  1  0
  5 34  1  0
  6 35  1  0
  6 36  1  0
  6 37  1  0
  7 38  1  0
  7 39  1  0
  8 40  1  0
  8 41  1  0
  9 42  1  0
  9 43  1  0
 12 44  1  0
 13 45  1  0
 14 46  1  0
 15 47  1  0
 18 48  1  0
 18 49  1  0
 18 50  1  0
 20 51  1  0
 21 52  1  0
 23 53  1  0
 23 54  1  0
 23 55  1  0
 24 56  1  0
M  CHG  2   9   1  17   1
M  END
>  <UniqueID>  (38) 
37

>  <SMILES>  (38) 
CCCN(CC)CC[NH2+]c1c2ccccc2[n+](C)c2ccc(C)cc12

>  <Energy>  (38) 
79.84365998865934

>  <Genealogy>  (38) 
CCCN(CC)CC[NH2+]c1c2ccccc2[n+](C)c2ccc(C)cc12 (protonated)
CCCN(CC)CC[NH2+]c1c2ccccc2[n+](C)c2ccc(C)cc12 (3D coordinates assigned)
CCCN(CC)CC[NH2+]c1c2ccccc2[n+](C)c2ccc(C)cc12 (optimized conformer: 79.84365998865934 kcal/mol)

>  <smiles>  (38) 
CCCN(CC)CCNc1c2ccccc2[n+](C)c2ccc(C)cc12

>  <score_type>  (38) 
oracle

>  <origin>  (38) 
adg

>  <m_score__min__energy>  (38) 
-8.6300000000000008

>  <m_primary>  (38) 
energy

$$$$
