0:0
     RDKit          3D

 35 37  0  0  0  0  0  0  0  0999 V2000
   -3.4800   23.0420  -31.6380 H   0  0  0  0  0  0  0  0  0  0  0  0
   -4.3610   22.5150  -31.8120 N   0  0  0  0  0  0  0  0  0  0  0  0
   -5.5350   22.9250  -31.4410 C   0  0  0  0  0  0  0  0  0  0  0  0
   -5.8490   24.1510  -30.8690 C   0  0  0  0  0  0  0  0  0  0  0  0
   -4.9970   25.3240  -30.5920 C   0  0  0  0  0  0  0  0  0  0  0  0
   -5.5330   26.4590  -30.4680 O   0  0  0  0  0  0  0  0  0  0  0  0
   -3.6100   25.1860  -30.4690 O   0  0  0  0  0  0  0  0  0  0  0  0
   -2.9850   24.3170  -29.5280 C   0  0  0  0  0  0  0  0  0  0  0  0
   -2.8401   23.3291  -29.9895 H   0  0  0  0  0  0  0  0  0  0  0  0
   -2.0155   24.7481  -29.2376 H   0  0  0  0  0  0  0  0  0  0  0  0
   -3.8480   24.1650  -28.2800 C   0  0  0  0  0  0  0  0  0  0  0  0
   -3.2196   24.2757  -27.3840 H   0  0  0  0  0  0  0  0  0  0  0  0
   -4.6292   24.9394  -28.2779 H   0  0  0  0  0  0  0  0  0  0  0  0
   -4.3177   23.1703  -28.2779 H   0  0  0  0  0  0  0  0  0  0  0  0
   -7.2000   24.0490  -30.5840 C   0  0  0  0  0  0  0  0  0  0  0  0
   -7.8090   24.8374  -30.1175 H   0  0  0  0  0  0  0  0  0  0  0  0
   -7.6580   22.8380  -30.9640 N   0  0  0  0  0  0  0  0  0  0  0  0
   -6.6480   22.1630  -31.4930 N   0  0  0  0  0  0  0  0  0  0  0  0
   -6.7750   20.8180  -31.9910 C   0  0  0  0  0  0  0  0  0  0  0  0
   -7.9130   20.0630  -31.6700 C   0  0  0  0  0  0  0  0  0  0  0  0
   -8.7016   20.4970  -31.0377 H   0  0  0  0  0  0  0  0  0  0  0  0
   -8.0430   18.7630  -32.1530 C   0  0  0  0  0  0  0  0  0  0  0  0
   -8.9307   18.1663  -31.8964 H   0  0  0  0  0  0  0  0  0  0  0  0
   -7.0440   18.2180  -32.9640 C   0  0  0  0  0  0  0  0  0  0  0  0
   -7.1500   16.9110  -33.4640 C   0  0  0  0  0  0  0  0  0  0  0  0
   -8.0257   16.2949  -33.2118 H   0  0  0  0  0  0  0  0  0  0  0  0
   -6.1420   16.3920  -34.2830 C   0  0  0  0  0  0  0  0  0  0  0  0
   -6.2266   15.3676  -34.6747 H   0  0  0  0  0  0  0  0  0  0  0  0
   -5.0280   17.1710  -34.6050 C   0  0  0  0  0  0  0  0  0  0  0  0
   -4.2380   16.7572  -35.2489 H   0  0  0  0  0  0  0  0  0  0  0  0
   -4.9130   18.4750  -34.1120 C   0  0  0  0  0  0  0  0  0  0  0  0
   -4.0345   19.0842  -34.3710 H   0  0  0  0  0  0  0  0  0  0  0  0
   -5.9170   19.0080  -33.2870 C   0  0  0  0  0  0  0  0  0  0  0  0
   -5.8140   20.2790  -32.8010 N   0  0  0  0  0  0  0  0  0  0  0  0
   -4.9960   20.8630  -33.0820 H   0  0  0  0  0  0  0  0  0  0  0  0
  1  2  1  0
  2  3  2  0
  3  4  1  0
  4  5  1  0
  5  6  2  0
  5  7  1  0
  7  8  1  0
  8  9  1  0
  8 10  1  0
  8 11  1  0
 11 12  1  0
 11 13  1  0
 11 14  1  0
  4 15  2  0
 15 16  1  0
 15 17  1  0
 17 18  1  0
 18 19  1  0
 19 20  2  0
 20 21  1  0
 20 22  1  0
 22 23  1  0
 22 24  2  0
 24 25  1  0
 25 26  1  0
 25 27  2  0
 27 28  1  0
 27 29  1  0
 29 30  1  0
 29 31  2  0
 31 32  1  0
 31 33  1  0
 33 34  2  0
 34 35  1  0
 18  3  1  0
 34 19  1  0
 33 24  1  0
M  CHG  2  17  -1  34   1
M  END
>  <UniqueID>  (1) 
1

>  <SMILES>  (1) 
[H]/N=c1\c(C(=O)OCC)c[n-]n1-c1ccc2ccccc2[nH+]1

>  <Energy>  (1) 
74.54616931073723

>  <Genealogy>  (1) 
CCOC(=O)c1c[n-]n(-c2ccc3ccccc3[nH+]2)c1=N (protonated)
[H]/N=c1\c(C(=O)OCC)c[n-]n1-c1ccc2ccccc2[nH+]1 (cis-trans isomerization)
[H]/N=c1\c(C(=O)OCC)c[n-]n1-c1ccc2ccccc2[nH+]1 (3D coordinates assigned)
[H]/N=c1\c(C(=O)OCC)c[n-]n1-c1ccc2ccccc2[nH+]1 (optimized conformer: 74.54616931073723 kcal/mol)

>  <smiles>  (1) 
CCOC(=O)c1c[nH]n(-c2ccc3ccccc3n2)c1=N

>  <score_type>  (1) 
oracle

>  <origin>  (1) 
adg

>  <m_score__min__energy>  (1) 
-7.6200000000000001

>  <m_primary>  (1) 
energy

$$$$
1:0
     RDKit          3D

 36 37  0  0  0  0  0  0  0  0999 V2000
   -2.7870   23.7110  -27.7510 C   0  0  0  0  0  0  0  0  0  0  0  0
   -2.4930   24.1490  -29.1590 C   0  0  0  0  0  0  0  0  0  0  0  0
   -1.9640   25.2350  -29.3410 O   0  0  0  0  0  0  0  0  0  0  0  0
   -2.8380   23.3010  -30.3600 C   0  0  0  0  0  0  0  0  0  0  0  0
   -4.2730   23.3750  -30.7040 N   0  0  0  0  0  0  0  0  0  0  0  0
   -4.8910   24.6070  -30.8460 C   0  0  0  0  0  0  0  0  0  0  0  0
   -4.2460   25.6750  -30.6640 O   0  0  0  0  0  0  0  0  0  0  0  0
   -6.2090   24.6890  -31.1970 N   0  0  0  0  0  0  0  0  0  0  0  0
   -6.8980   23.5480  -31.4100 C   0  0  0  0  0  0  0  0  0  0  0  0
   -8.1790   23.4570  -31.8050 N   0  0  0  0  0  0  0  0  0  0  0  0
   -8.3540   22.1140  -31.9250 C   0  0  0  0  0  0  0  0  0  0  0  0
   -7.2430   21.3950  -31.6190 N   0  0  0  0  0  0  0  0  0  0  0  0
   -7.0870   19.9490  -31.7920 C   0  0  0  0  0  0  0  0  0  0  0  0
   -7.0390   19.5870  -33.2820 C   0  0  0  0  0  0  0  0  0  0  0  0
   -6.6640   18.1660  -33.4560 N   0  0  0  0  0  0  0  0  0  0  0  0
   -5.4430   18.0390  -34.2680 C   0  0  0  0  0  0  0  0  0  0  0  0
   -6.4650   17.5110  -32.1530 C   0  0  0  0  0  0  0  0  0  0  0  0
   -6.3260   22.3280  -31.2980 C   0  0  0  0  0  0  0  0  0  0  0  0
   -4.9860   22.2180  -30.9320 C   0  0  0  0  0  0  0  0  0  0  0  0
   -4.4410   21.0870  -30.8140 O   0  0  0  0  0  0  0  0  0  0  0  0
   -2.3174   24.4105  -27.0438 H   0  0  0  0  0  0  0  0  0  0  0  0
   -3.8750   23.7016  -27.5896 H   0  0  0  0  0  0  0  0  0  0  0  0
   -2.3836   22.7005  -27.5896 H   0  0  0  0  0  0  0  0  0  0  0  0
   -2.2492   23.6505  -31.2209 H   0  0  0  0  0  0  0  0  0  0  0  0
   -2.6045   22.2550  -30.1122 H   0  0  0  0  0  0  0  0  0  0  0  0
   -9.3028   21.6546  -32.2392 H   0  0  0  0  0  0  0  0  0  0  0  0
   -6.1521   19.6259  -31.3109 H   0  0  0  0  0  0  0  0  0  0  0  0
   -7.9468   19.4412  -31.3306 H   0  0  0  0  0  0  0  0  0  0  0  0
   -8.0297   19.7577  -33.7285 H   0  0  0  0  0  0  0  0  0  0  0  0
   -6.2868   20.2178  -33.7783 H   0  0  0  0  0  0  0  0  0  0  0  0
   -4.5697   17.9482  -33.6053 H   0  0  0  0  0  0  0  0  0  0  0  0
   -5.5163   17.1436  -34.9028 H   0  0  0  0  0  0  0  0  0  0  0  0
   -5.3304   18.9303  -34.9028 H   0  0  0  0  0  0  0  0  0  0  0  0
   -6.6823   18.2263  -31.3461 H   0  0  0  0  0  0  0  0  0  0  0  0
   -7.1413   16.6475  -32.0696 H   0  0  0  0  0  0  0  0  0  0  0  0
   -5.4226   17.1697  -32.0696 H   0  0  0  0  0  0  0  0  0  0  0  0
  1  2  1  0
  2  3  2  0
  2  4  1  0
  4  5  1  0
  5  6  1  0
  6  7  2  0
  6  8  1  0
  8  9  1  0
  9 10  1  0
 10 11  2  0
 11 12  1  0
 12 13  1  0
 13 14  1  0
 14 15  1  0
 15 16  1  0
 15 17  1  0
 12 18  1  0
 18 19  1  0
 19 20  2  0
 19  5  1  0
 18  9  2  0
  1 21  1  0
  1 22  1  0
  1 23  1  0
  4 24  1  0
  4 25  1  0
 11 26  1  0
 13 27  1  0
 13 28  1  0
 14 29  1  0
 14 30  1  0
 16 31  1  0
 16 32  1  0
 16 33  1  0
 17 34  1  0
 17 35  1  0
 17 36  1  0
M  CHG  1   8  -1
M  END
>  <UniqueID>  (2) 
2

>  <SMILES>  (2) 
CC(=O)Cn1c(=O)[n-]c2ncn(CCN(C)C)c2c1=O

>  <Energy>  (2) 
75.6455697958507

>  <Genealogy>  (2) 
CC(=O)Cn1c(=O)[n-]c2ncn(CCN(C)C)c2c1=O (protonated)
CC(=O)Cn1c(=O)[n-]c2ncn(CCN(C)C)c2c1=O (3D coordinates assigned)
CC(=O)Cn1c(=O)[n-]c2ncn(CCN(C)C)c2c1=O (optimized conformer: 75.6455697958507 kcal/mol)

>  <smiles>  (2) 
CC(=O)Cn1c(=O)[nH]c2ncn(CCN(C)C)c2c1=O

>  <score_type>  (2) 
oracle

>  <origin>  (2) 
adg

>  <m_score__min__energy>  (2) 
-7.2699999999999996

>  <m_primary>  (2) 
energy

$$$$
2:0
     RDKit          3D

 41 44  0  0  0  0  0  0  0  0999 V2000
   -5.0030   25.6470  -31.2120 O   0  0  0  0  0  0  0  0  0  0  0  0
   -5.3920   24.6680  -30.1410 S   0  0  0  0  0  0  0  0  0  0  0  0
   -6.5780   25.2150  -29.3970 O   0  0  0  0  0  0  0  0  0  0  0  0
   -4.0640   24.4230  -29.0120 C   0  0  0  0  0  0  0  0  0  0  0  0
   -4.2710   24.5460  -27.6300 C   0  0  0  0  0  0  0  0  0  0  0  0
   -3.2040   24.3750  -26.7430 C   0  0  0  0  0  0  0  0  0  0  0  0
   -1.9260   24.0860  -27.2320 C   0  0  0  0  0  0  0  0  0  0  0  0
   -1.7140   23.9700  -28.6080 C   0  0  0  0  0  0  0  0  0  0  0  0
   -2.7790   24.1420  -29.4990 C   0  0  0  0  0  0  0  0  0  0  0  0
   -5.8040   23.1530  -30.8710 N   0  0  0  0  0  0  0  0  0  0  0  0
   -6.9590   22.4560  -30.7430 C   0  0  0  0  0  0  0  0  0  0  0  0
   -6.9420   21.2720  -31.4130 N   0  0  0  0  0  0  0  0  0  0  0  0
   -5.7170   21.2590  -31.9770 C   0  0  0  0  0  0  0  0  0  0  0  0
   -5.1050   20.2770  -32.7590 C   0  0  0  0  0  0  0  0  0  0  0  0
   -5.7850   19.0570  -33.1300 N   0  0  0  0  0  0  0  0  0  0  0  0
   -5.7690   18.5810  -34.5190 C   0  0  0  0  0  0  0  0  0  0  0  0
   -5.9470   17.0600  -34.5600 C   0  0  0  0  0  0  0  0  0  0  0  0
   -7.1860   16.6240  -33.8900 N   0  0  0  0  0  0  0  0  0  0  0  0
   -7.5810   17.4290  -32.7170 C   0  0  0  0  0  0  0  0  0  0  0  0
   -6.4200   18.2250  -32.1030 C   0  0  0  0  0  0  0  0  0  0  0  0
   -3.8120   20.5130  -33.1580 N   0  0  0  0  0  0  0  0  0  0  0  0
   -3.1500   21.6630  -32.8030 C   0  0  0  0  0  0  0  0  0  0  0  0
   -3.7640   22.6100  -32.0350 N   0  0  0  0  0  0  0  0  0  0  0  0
   -5.0390   22.3810  -31.6460 C   0  0  0  0  0  0  0  0  0  0  0  0
   -5.2746   24.7774  -27.2436 H   0  0  0  0  0  0  0  0  0  0  0  0
   -3.3698   24.4678  -25.6595 H   0  0  0  0  0  0  0  0  0  0  0  0
   -1.0876   23.9500  -26.5331 H   0  0  0  0  0  0  0  0  0  0  0  0
   -0.7083   23.7431  -28.9915 H   0  0  0  0  0  0  0  0  0  0  0  0
   -2.6084   24.0568  -30.5823 H   0  0  0  0  0  0  0  0  0  0  0  0
   -7.8206   22.8106  -30.1583 H   0  0  0  0  0  0  0  0  0  0  0  0
   -6.5892   19.0578  -35.0758 H   0  0  0  0  0  0  0  0  0  0  0  0
   -4.8030   18.8414  -34.9762 H   0  0  0  0  0  0  0  0  0  0  0  0
   -5.9799   16.7358  -35.6106 H   0  0  0  0  0  0  0  0  0  0  0  0
   -5.0983   16.6071  -34.0265 H   0  0  0  0  0  0  0  0  0  0  0  0
   -7.0540   15.6300  -33.5870 H   0  0  0  0  0  0  0  0  0  0  0  0
   -8.3631   18.1373  -33.0279 H   0  0  0  0  0  0  0  0  0  0  0  0
   -7.9361   16.7279  -31.9474 H   0  0  0  0  0  0  0  0  0  0  0  0
   -6.8050   18.8692  -31.2988 H   0  0  0  0  0  0  0  0  0  0  0  0
   -5.6768   17.5239  -31.6954 H   0  0  0  0  0  0  0  0  0  0  0  0
   -3.3110   19.8210  -33.7570 H   0  0  0  0  0  0  0  0  0  0  0  0
   -2.1153   21.8224  -33.1407 H   0  0  0  0  0  0  0  0  0  0  0  0
  1  2  2  0
  2  3  2  0
  2  4  1  0
  4  5  2  0
  5  6  1  0
  6  7  2  0
  7  8  1  0
  8  9  2  0
  2 10  1  0
 10 11  1  0
 11 12  2  0
 12 13  1  0
 13 14  2  0
 14 15  1  0
 15 16  1  0
 16 17  1  0
 17 18  1  0
 18 19  1  0
 19 20  1  0
 14 21  1  0
 21 22  2  0
 22 23  1  0
 23 24  2  0
  9  4  1  0
 24 10  1  0
 24 13  1  0
 20 15  1  0
  5 25  1  0
  6 26  1  0
  7 27  1  0
  8 28  1  0
  9 29  1  0
 11 30  1  0
 16 31  1  0
 16 32  1  0
 17 33  1  0
 17 34  1  0
 18 35  1  0
 19 36  1  0
 19 37  1  0
 20 38  1  0
 20 39  1  0
 21 40  1  0
 22 41  1  0
M  CHG  1  21   1
M  END
>  <UniqueID>  (3) 
3

>  <SMILES>  (3) 
O=S(=O)(c1ccccc1)n1cnc2c(N3CCNCC3)[nH+]cnc21

>  <Energy>  (3) 
94.21051011140857

>  <Genealogy>  (3) 
O=S(=O)(c1ccccc1)n1cnc2c(N3CCNCC3)[nH+]cnc21 (protonated)
O=S(=O)(c1ccccc1)n1cnc2c(N3CCNCC3)[nH+]cnc21 (3D coordinates assigned)
O=S(=O)(c1ccccc1)n1cnc2c(N3CCNCC3)[nH+]cnc21 (nonaromatic ring conformer: 94.21051011140857 kcal/mol)

>  <smiles>  (3) 
O=S(=O)(c1ccccc1)n1cnc2c(N3CCNCC3)ncnc21

>  <score_type>  (3) 
oracle

>  <origin>  (3) 
adg

>  <m_score__min__energy>  (3) 
-7.5099999999999998

>  <m_primary>  (3) 
energy

$$$$
3:0
     RDKit          3D

 42 45  0  0  0  0  0  0  0  0999 V2000
   -0.9510   16.1730  -35.3610 C   0  0  0  0  0  0  0  0  0  0  0  0
   -2.3500   16.2960  -35.5970 O   0  0  0  0  0  0  0  0  0  0  0  0
   -3.1820   17.2300  -34.9620 C   0  0  0  0  0  0  0  0  0  0  0  0
   -2.6740   18.3170  -34.2280 C   0  0  0  0  0  0  0  0  0  0  0  0
   -3.5440   19.2220  -33.6140 C   0  0  0  0  0  0  0  0  0  0  0  0
   -4.9370   19.0650  -33.7260 C   0  0  0  0  0  0  0  0  0  0  0  0
   -5.8470   20.0310  -33.0620 C   0  0  0  0  0  0  0  0  0  0  0  0
   -5.3110   21.1090  -32.4000 N   0  0  0  0  0  0  0  0  0  0  0  0
   -6.0920   22.0360  -31.7710 C   0  0  0  0  0  0  0  0  0  0  0  0
   -5.4930   23.1470  -31.0880 N   0  0  0  0  0  0  0  0  0  0  0  0
   -4.4840   22.9130  -30.0480 C   0  0  0  0  0  0  0  0  0  0  0  0
   -3.5060   24.1060  -29.9390 C   0  0  0  0  0  0  0  0  0  0  0  0
   -3.8970   25.2390  -30.6990 O   0  0  0  0  0  0  0  0  0  0  0  0
   -5.2650   25.5200  -30.4890 C   0  0  0  0  0  0  0  0  0  0  0  0
   -6.1130   24.4690  -31.2090 C   0  0  0  0  0  0  0  0  0  0  0  0
   -7.4710   21.8460  -31.8070 C   0  0  0  0  0  0  0  0  0  0  0  0
   -8.4460   22.5600  -31.2200 N   0  0  0  0  0  0  0  0  0  0  0  0
   -9.6020   21.9330  -31.5450 C   0  0  0  0  0  0  0  0  0  0  0  0
   -9.3570   20.8110  -32.3330 C   0  0  0  0  0  0  0  0  0  0  0  0
   -7.9890   20.7810  -32.4730 C   0  0  0  0  0  0  0  0  0  0  0  0
   -7.2100   19.8710  -33.1080 N   0  0  0  0  0  0  0  0  0  0  0  0
   -5.4390   17.9700  -34.4530 C   0  0  0  0  0  0  0  0  0  0  0  0
   -4.5660   17.0660  -35.0650 C   0  0  0  0  0  0  0  0  0  0  0  0
   -0.7620   16.1564  -34.2775 H   0  0  0  0  0  0  0  0  0  0  0  0
   -0.5838   15.2391  -35.8116 H   0  0  0  0  0  0  0  0  0  0  0  0
   -0.4265   17.0285  -35.8116 H   0  0  0  0  0  0  0  0  0  0  0  0
   -1.5866   18.4554  -34.1368 H   0  0  0  0  0  0  0  0  0  0  0  0
   -3.1354   20.0651  -33.0377 H   0  0  0  0  0  0  0  0  0  0  0  0
   -4.9905   22.7748  -29.0814 H   0  0  0  0  0  0  0  0  0  0  0  0
   -3.9089   22.0146  -30.3166 H   0  0  0  0  0  0  0  0  0  0  0  0
   -3.4388   24.4038  -28.8822 H   0  0  0  0  0  0  0  0  0  0  0  0
   -2.5409   23.7668  -30.3433 H   0  0  0  0  0  0  0  0  0  0  0  0
   -5.4844   25.4940  -29.4114 H   0  0  0  0  0  0  0  0  0  0  0  0
   -5.5013   26.5187  -30.8849 H   0  0  0  0  0  0  0  0  0  0  0  0
   -7.1165   24.4419  -30.7593 H   0  0  0  0  0  0  0  0  0  0  0  0
   -6.1849   24.7349  -32.2740 H   0  0  0  0  0  0  0  0  0  0  0  0
   -8.3450   23.4060  -30.6170 H   0  0  0  0  0  0  0  0  0  0  0  0
  -10.6015   22.2658  -31.2286 H   0  0  0  0  0  0  0  0  0  0  0  0
  -10.0923   20.1070  -32.7498 H   0  0  0  0  0  0  0  0  0  0  0  0
   -7.6580   19.0830  -33.6250 H   0  0  0  0  0  0  0  0  0  0  0  0
   -6.5258   17.8243  -34.5404 H   0  0  0  0  0  0  0  0  0  0  0  0
   -4.9726   16.2167  -35.6336 H   0  0  0  0  0  0  0  0  0  0  0  0
  1  2  1  0
  2  3  1  0
  3  4  2  0
  4  5  1  0
  5  6  2  0
  6  7  1  0
  7  8  2  0
  8  9  1  0
  9 10  1  0
 10 11  1  0
 11 12  1  0
 12 13  1  0
 13 14  1  0
 14 15  1  0
  9 16  2  0
 16 17  1  0
 17 18  1  0
 18 19  2  0
 19 20  1  0
 20 21  2  0
  6 22  1  0
 22 23  2  0
 23  3  1  0
 21  7  1  0
 15 10  1  0
 20 16  1  0
  1 24  1  0
  1 25  1  0
  1 26  1  0
  4 27  1  0
  5 28  1  0
 11 29  1  0
 11 30  1  0
 12 31  1  0
 12 32  1  0
 14 33  1  0
 14 34  1  0
 15 35  1  0
 15 36  1  0
 17 37  1  0
 18 38  1  0
 19 39  1  0
 21 40  1  0
 22 41  1  0
 23 42  1  0
M  CHG  1  21   1
M  END
>  <UniqueID>  (4) 
4

>  <SMILES>  (4) 
COc1ccc(-c2nc(N3CCOCC3)c3[nH]ccc3[nH+]2)cc1

>  <Energy>  (4) 
93.57459318069766

>  <Genealogy>  (4) 
COc1ccc(-c2nc(N3CCOCC3)c3[nH]ccc3[nH+]2)cc1 (protonated)
COc1ccc(-c2nc(N3CCOCC3)c3[nH]ccc3[nH+]2)cc1 (3D coordinates assigned)
COc1ccc(-c2nc(N3CCOCC3)c3[nH]ccc3[nH+]2)cc1 (nonaromatic ring conformer: 93.57459318069766 kcal/mol)

>  <smiles>  (4) 
COc1ccc(-c2nc(N3CCOCC3)c3[nH]ccc3n2)cc1

>  <score_type>  (4) 
oracle

>  <origin>  (4) 
adg

>  <m_score__min__energy>  (4) 
-7.7400000000000002

>  <m_primary>  (4) 
energy

$$$$
4:0
     RDKit          3D

 50 52  0  0  0  0  0  0  0  0999 V2000
   -8.7160   21.7500  -31.3420 C   0  0  0  0  0  0  0  0  0  0  0  0
   -8.1680   23.0350  -31.9570 C   0  0  0  0  0  0  0  0  0  0  0  0
   -7.0090   23.5960  -31.1260 C   0  0  0  0  0  0  0  0  0  0  0  0
   -5.7550   23.7780  -31.9840 C   0  0  0  0  0  0  0  0  0  0  0  0
   -4.7270   22.8070  -31.5920 N   0  0  0  0  0  0  0  0  0  0  0  0
   -4.6760   21.4740  -31.8850 C   0  0  0  0  0  0  0  0  0  0  0  0
   -5.6650   20.7410  -32.7660 C   0  0  0  0  0  0  0  0  0  0  0  0
   -5.5800   19.2630  -32.6570 N   0  0  0  0  0  0  0  0  0  0  0  0
   -6.8570   18.6590  -32.2110 C   0  0  0  0  0  0  0  0  0  0  0  0
   -6.8500   17.1400  -32.4580 C   0  0  0  0  0  0  0  0  0  0  0  0
   -6.6610   16.7660  -33.8190 O   0  0  0  0  0  0  0  0  0  0  0  0
   -6.0980   17.7910  -34.6250 C   0  0  0  0  0  0  0  0  0  0  0  0
   -5.0320   18.6170  -33.8820 C   0  0  0  0  0  0  0  0  0  0  0  0
   -3.6340   20.8360  -31.2910 N   0  0  0  0  0  0  0  0  0  0  0  0
   -3.0260   21.8190  -30.6040 C   0  0  0  0  0  0  0  0  0  0  0  0
   -3.6750   22.9950  -30.7690 C   0  0  0  0  0  0  0  0  0  0  0  0
   -3.2260   24.1370  -30.1090 C   0  0  0  0  0  0  0  0  0  0  0  0
   -3.8480   25.2280  -30.2150 O   0  0  0  0  0  0  0  0  0  0  0  0
   -2.0910   24.0410  -29.3350 N   0  0  0  0  0  0  0  0  0  0  0  0
   -1.5950   25.2250  -28.6130 C   0  0  0  0  0  0  0  0  0  0  0  0
   -1.4560   22.8210  -29.1770 C   0  0  0  0  0  0  0  0  0  0  0  0
   -0.4290   22.7390  -28.4450 O   0  0  0  0  0  0  0  0  0  0  0  0
   -1.9310   21.6920  -29.8060 N   0  0  0  0  0  0  0  0  0  0  0  0
   -1.2400   20.4030  -29.6750 C   0  0  0  0  0  0  0  0  0  0  0  0
   -8.6837   21.8257  -30.2451 H   0  0  0  0  0  0  0  0  0  0  0  0
   -9.7558   21.6014  -31.6689 H   0  0  0  0  0  0  0  0  0  0  0  0
   -8.1034   20.8968  -31.6689 H   0  0  0  0  0  0  0  0  0  0  0  0
   -7.8094   22.8213  -32.9747 H   0  0  0  0  0  0  0  0  0  0  0  0
   -8.9747   23.7824  -31.9793 H   0  0  0  0  0  0  0  0  0  0  0  0
   -7.3040   24.5704  -30.7094 H   0  0  0  0  0  0  0  0  0  0  0  0
   -6.7805   22.8843  -30.3190 H   0  0  0  0  0  0  0  0  0  0  0  0
   -6.0137   23.6259  -33.0423 H   0  0  0  0  0  0  0  0  0  0  0  0
   -5.3631   24.7950  -31.8354 H   0  0  0  0  0  0  0  0  0  0  0  0
   -6.6809   21.0524  -32.4814 H   0  0  0  0  0  0  0  0  0  0  0  0
   -5.4225   21.0011  -33.8069 H   0  0  0  0  0  0  0  0  0  0  0  0
   -4.8870   19.0790  -31.8890 H   0  0  0  0  0  0  0  0  0  0  0  0
   -6.9921   18.8504  -31.1362 H   0  0  0  0  0  0  0  0  0  0  0  0
   -7.6821   19.1086  -32.7829 H   0  0  0  0  0  0  0  0  0  0  0  0
   -6.0363   16.6986  -31.8638 H   0  0  0  0  0  0  0  0  0  0  0  0
   -7.8439   16.7700  -32.1660 H   0  0  0  0  0  0  0  0  0  0  0  0
   -5.6319   17.3281  -35.5073 H   0  0  0  0  0  0  0  0  0  0  0  0
   -6.9116   18.4761  -34.9053 H   0  0  0  0  0  0  0  0  0  0  0  0
   -4.2051   17.9517  -33.5929 H   0  0  0  0  0  0  0  0  0  0  0  0
   -4.6854   19.4117  -34.5590 H   0  0  0  0  0  0  0  0  0  0  0  0
   -1.6680   25.0508  -27.5293 H   0  0  0  0  0  0  0  0  0  0  0  0
   -0.5449   25.4072  -28.8852 H   0  0  0  0  0  0  0  0  0  0  0  0
   -2.2017   26.1013  -28.8852 H   0  0  0  0  0  0  0  0  0  0  0  0
   -1.1112   20.1627  -28.6093 H   0  0  0  0  0  0  0  0  0  0  0  0
   -1.8372   19.6160  -30.1588 H   0  0  0  0  0  0  0  0  0  0  0  0
   -0.2540   20.4647  -30.1588 H   0  0  0  0  0  0  0  0  0  0  0  0
  1  2  1  0
  2  3  1  0
  3  4  1  0
  4  5  1  0
  5  6  1  0
  6  7  1  0
  7  8  1  0
  8  9  1  0
  9 10  1  0
 10 11  1  0
 11 12  1  0
 12 13  1  0
  6 14  2  0
 14 15  1  0
 15 16  2  0
 16 17  1  0
 17 18  2  0
 17 19  1  0
 19 20  1  0
 19 21  1  0
 21 22  2  0
 21 23  1  0
 23 24  1  0
 16  5  1  0
 13  8  1  0
 23 15  1  0
  1 25  1  0
  1 26  1  0
  1 27  1  0
  2 28  1  0
  2 29  1  0
  3 30  1  0
  3 31  1  0
  4 32  1  0
  4 33  1  0
  7 34  1  0
  7 35  1  0
  8 36  1  0
  9 37  1  0
  9 38  1  0
 10 39  1  0
 10 40  1  0
 12 41  1  0
 12 42  1  0
 13 43  1  0
 13 44  1  0
 20 45  1  0
 20 46  1  0
 20 47  1  0
 24 48  1  0
 24 49  1  0
 24 50  1  0
M  CHG  1   8   1
M  END
>  <UniqueID>  (5) 
5

>  <SMILES>  (5) 
CCCCn1c(C[NH+]2CCOCC2)nc2c1c(=O)n(C)c(=O)n2C

>  <Energy>  (5) 
104.43858762904611

>  <Genealogy>  (5) 
CCCCn1c(C[NH+]2CCOCC2)nc2c1c(=O)n(C)c(=O)n2C (protonated)
CCCCn1c(C[NH+]2CCOCC2)nc2c1c(=O)n(C)c(=O)n2C (3D coordinates assigned)
CCCCn1c(C[NH+]2CCOCC2)nc2c1c(=O)n(C)c(=O)n2C (nonaromatic ring conformer: 104.43858762904611 kcal/mol)

>  <smiles>  (5) 
CCCCn1c(CN2CCOCC2)nc2c1c(=O)n(C)c(=O)n2C

>  <score_type>  (5) 
oracle

>  <origin>  (5) 
adg

>  <m_score__min__energy>  (5) 
-6.3399999999999999

>  <m_primary>  (5) 
energy

$$$$
5:0
     RDKit          3D

 47 50  0  0  0  0  0  0  0  0999 V2000
   -8.1800   21.9690  -30.1220 C   0  0  0  0  0  0  0  0  0  0  0  0
   -8.6890   22.3570  -31.4490 N   0  0  0  0  0  0  0  0  0  0  0  0
   -9.2960   21.2160  -32.1710 C   0  0  0  0  0  0  0  0  0  0  0  0
   -8.3510   20.0480  -32.3690 C   0  0  0  0  0  0  0  0  0  0  0  0
   -8.4340   18.9120  -31.5260 C   0  0  0  0  0  0  0  0  0  0  0  0
   -7.5730   17.8190  -31.7110 C   0  0  0  0  0  0  0  0  0  0  0  0
   -6.6350   17.8850  -32.7400 C   0  0  0  0  0  0  0  0  0  0  0  0
   -6.5370   18.9890  -33.5640 C   0  0  0  0  0  0  0  0  0  0  0  0
   -7.3820   20.0850  -33.3940 C   0  0  0  0  0  0  0  0  0  0  0  0
   -5.4520   18.8190  -34.5890 C   0  0  0  0  0  0  0  0  0  0  0  0
   -4.9470   17.4520  -34.2280 C   0  0  0  0  0  0  0  0  0  0  0  0
   -3.9180   16.7330  -34.8380 C   0  0  0  0  0  0  0  0  0  0  0  0
   -3.6010   15.4590  -34.3400 C   0  0  0  0  0  0  0  0  0  0  0  0
   -4.3110   14.9230  -33.2470 C   0  0  0  0  0  0  0  0  0  0  0  0
   -5.3440   15.6580  -32.6430 C   0  0  0  0  0  0  0  0  0  0  0  0
   -5.6400   16.9210  -33.1550 C   0  0  0  0  0  0  0  0  0  0  0  0
   -7.6610   23.0550  -32.2500 C   0  0  0  0  0  0  0  0  0  0  0  0
   -6.5340   23.5410  -31.3590 C   0  0  0  0  0  0  0  0  0  0  0  0
   -6.7980   24.6400  -30.5240 C   0  0  0  0  0  0  0  0  0  0  0  0
   -5.8090   25.1210  -29.6730 C   0  0  0  0  0  0  0  0  0  0  0  0
   -4.5610   24.5100  -29.6540 C   0  0  0  0  0  0  0  0  0  0  0  0
   -4.3170   23.4200  -30.4890 C   0  0  0  0  0  0  0  0  0  0  0  0
   -5.2910   22.9410  -31.3250 N   0  0  0  0  0  0  0  0  0  0  0  0
   -4.9650   21.7950  -32.1880 C   0  0  0  0  0  0  0  0  0  0  0  0
   -8.7962   22.4387  -29.3412 H   0  0  0  0  0  0  0  0  0  0  0  0
   -8.2264   20.8750  -30.0170 H   0  0  0  0  0  0  0  0  0  0  0  0
   -7.1374   22.3036  -30.0170 H   0  0  0  0  0  0  0  0  0  0  0  0
  -10.1662   20.8651  -31.5969 H   0  0  0  0  0  0  0  0  0  0  0  0
   -9.5721   21.5792  -33.1719 H   0  0  0  0  0  0  0  0  0  0  0  0
   -9.1806   18.8865  -30.7186 H   0  0  0  0  0  0  0  0  0  0  0  0
   -7.6368   16.9338  -31.0612 H   0  0  0  0  0  0  0  0  0  0  0  0
   -7.2946   20.9646  -34.0487 H   0  0  0  0  0  0  0  0  0  0  0  0
   -5.8527   18.8466  -35.6130 H   0  0  0  0  0  0  0  0  0  0  0  0
   -4.6856   19.6080  -34.5806 H   0  0  0  0  0  0  0  0  0  0  0  0
   -3.3669   17.1555  -35.6911 H   0  0  0  0  0  0  0  0  0  0  0  0
   -2.7933   14.8756  -34.8060 H   0  0  0  0  0  0  0  0  0  0  0  0
   -4.0547   13.9238  -32.8650 H   0  0  0  0  0  0  0  0  0  0  0  0
   -5.9043   15.2487  -31.7894 H   0  0  0  0  0  0  0  0  0  0  0  0
   -7.2552   22.3619  -33.0016 H   0  0  0  0  0  0  0  0  0  0  0  0
   -8.1231   23.9221  -32.7447 H   0  0  0  0  0  0  0  0  0  0  0  0
   -7.7875   25.1200  -30.5436 H   0  0  0  0  0  0  0  0  0  0  0  0
   -6.0135   25.9808  -29.0181 H   0  0  0  0  0  0  0  0  0  0  0  0
   -3.7714   24.8834  -28.9853 H   0  0  0  0  0  0  0  0  0  0  0  0
   -3.3283   22.9379  -30.4762 H   0  0  0  0  0  0  0  0  0  0  0  0
   -4.7173   20.9242  -31.5632 H   0  0  0  0  0  0  0  0  0  0  0  0
   -5.8308   21.5562  -32.8230 H   0  0  0  0  0  0  0  0  0  0  0  0
   -4.1031   22.0477  -32.8230 H   0  0  0  0  0  0  0  0  0  0  0  0
  1  2  1  0
  2  3  1  0
  3  4  1  0
  4  5  2  0
  5  6  1  0
  6  7  2  0
  7  8  1  0
  8  9  2  0
  8 10  1  0
 10 11  1  0
 11 12  2  0
 12 13  1  0
 13 14  2  0
 14 15  1  0
 15 16  2  0
  2 17  1  0
 17 18  1  0
 18 19  2  0
 19 20  1  0
 20 21  2  0
 21 22  1  0
 22 23  2  0
 23 24  1  0
  9  4  1  0
 16 11  1  0
 23 18  1  0
 16  7  1  0
  1 25  1  0
  1 26  1  0
  1 27  1  0
  3 28  1  0
  3 29  1  0
  5 30  1  0
  6 31  1  0
  9 32  1  0
 10 33  1  0
 10 34  1  0
 12 35  1  0
 13 36  1  0
 14 37  1  0
 15 38  1  0
 17 39  1  0
 17 40  1  0
 19 41  1  0
 20 42  1  0
 21 43  1  0
 22 44  1  0
 24 45  1  0
 24 46  1  0
 24 47  1  0
M  CHG  1  23   1
M  END
>  <UniqueID>  (6) 
6

>  <SMILES>  (6) 
CN(Cc1ccc2c(c1)Cc1ccccc1-2)Cc1cccc[n+]1C

>  <Energy>  (6) 
78.9499924548658

>  <Genealogy>  (6) 
CN(Cc1ccc2c(c1)Cc1ccccc1-2)Cc1cccc[n+]1C (3D coordinates assigned)
CN(Cc1ccc2c(c1)Cc1ccccc1-2)Cc1cccc[n+]1C (nonaromatic ring conformer: 78.9499924548658 kcal/mol)

>  <smiles>  (6) 
CN(Cc1ccc2c(c1)Cc1ccccc1-2)Cc1cccc[n+]1C

>  <score_type>  (6) 
oracle

>  <origin>  (6) 
adg

>  <m_score__min__energy>  (6) 
-8.0299999999999994

>  <m_primary>  (6) 
energy

$$$$
6:0
     RDKit          3D

 45 47  0  0  0  0  0  0  0  0999 V2000
   -9.4530   21.0420  -31.9170 N   0  0  0  0  0  0  0  0  0  0  0  0
   -8.3490   21.3880  -31.9020 C   0  0  0  0  0  0  0  0  0  0  0  0
   -6.9670   21.8210  -31.8830 C   0  0  0  0  0  0  0  0  0  0  0  0
   -5.9250   20.9660  -32.2850 C   0  0  0  0  0  0  0  0  0  0  0  0
   -6.1850   19.5990  -32.8030 C   0  0  0  0  0  0  0  0  0  0  0  0
   -6.8820   18.6560  -32.0270 C   0  0  0  0  0  0  0  0  0  0  0  0
   -7.1380   17.3780  -32.5330 C   0  0  0  0  0  0  0  0  0  0  0  0
   -6.7080   17.0340  -33.8180 C   0  0  0  0  0  0  0  0  0  0  0  0
   -6.0260   17.9700  -34.6000 C   0  0  0  0  0  0  0  0  0  0  0  0
   -5.7690   19.2490  -34.0980 C   0  0  0  0  0  0  0  0  0  0  0  0
   -4.6390   21.3980  -32.1830 N   0  0  0  0  0  0  0  0  0  0  0  0
   -4.3410   22.6380  -31.7210 C   0  0  0  0  0  0  0  0  0  0  0  0
   -5.3290   23.5010  -31.3310 N   0  0  0  0  0  0  0  0  0  0  0  0
   -4.9610   24.8120  -30.8350 C   0  0  0  0  0  0  0  0  0  0  0  0
   -5.7340   25.7960  -31.0100 O   0  0  0  0  0  0  0  0  0  0  0  0
   -3.7440   25.0040  -30.1710 O   0  0  0  0  0  0  0  0  0  0  0  0
   -3.5030   24.5460  -28.8440 C   0  0  0  0  0  0  0  0  0  0  0  0
   -2.1690   23.7800  -28.7810 C   0  0  0  0  0  0  0  0  0  0  0  0
   -2.0290   22.6850  -29.7690 N   0  0  0  0  0  0  0  0  0  0  0  0
   -0.6620   22.4930  -30.2760 C   0  0  0  0  0  0  0  0  0  0  0  0
   -0.6820   21.4960  -31.4550 C   0  0  0  0  0  0  0  0  0  0  0  0
   -1.9070   20.7870  -31.5540 O   0  0  0  0  0  0  0  0  0  0  0  0
   -2.2720   20.2700  -30.2900 C   0  0  0  0  0  0  0  0  0  0  0  0
   -2.6300   21.4130  -29.3210 C   0  0  0  0  0  0  0  0  0  0  0  0
   -6.6420   23.1020  -31.4090 C   0  0  0  0  0  0  0  0  0  0  0  0
   -7.5730   23.8830  -31.0640 O   0  0  0  0  0  0  0  0  0  0  0  0
   -7.2272   18.9249  -31.0178 H   0  0  0  0  0  0  0  0  0  0  0  0
   -7.6784   16.6423  -31.9193 H   0  0  0  0  0  0  0  0  0  0  0  0
   -6.9065   16.0269  -34.2134 H   0  0  0  0  0  0  0  0  0  0  0  0
   -5.6908   17.6999  -35.6123 H   0  0  0  0  0  0  0  0  0  0  0  0
   -5.2384   19.9848  -34.7201 H   0  0  0  0  0  0  0  0  0  0  0  0
   -3.8530   20.7750  -32.4770 H   0  0  0  0  0  0  0  0  0  0  0  0
   -3.2894   22.9547  -31.6589 H   0  0  0  0  0  0  0  0  0  0  0  0
   -3.4589   25.4094  -28.1638 H   0  0  0  0  0  0  0  0  0  0  0  0
   -4.3187   23.8724  -28.5427 H   0  0  0  0  0  0  0  0  0  0  0  0
   -1.3541   24.4991  -28.9508 H   0  0  0  0  0  0  0  0  0  0  0  0
   -2.1331   23.3058  -27.7891 H   0  0  0  0  0  0  0  0  0  0  0  0
   -0.2600   23.4577  -30.6191 H   0  0  0  0  0  0  0  0  0  0  0  0
   -0.0266   22.0945  -29.4714 H   0  0  0  0  0  0  0  0  0  0  0  0
   -0.5219   22.0535  -32.3896 H   0  0  0  0  0  0  0  0  0  0  0  0
    0.1147   20.7583  -31.2788 H   0  0  0  0  0  0  0  0  0  0  0  0
   -3.1434   19.6090  -30.4074 H   0  0  0  0  0  0  0  0  0  0  0  0
   -1.4215   19.7076  -29.8772 H   0  0  0  0  0  0  0  0  0  0  0  0
   -3.7237   21.5243  -29.2824 H   0  0  0  0  0  0  0  0  0  0  0  0
   -2.2357   21.1676  -28.3239 H   0  0  0  0  0  0  0  0  0  0  0  0
  1  2  3  0
  2  3  1  0
  3  4  2  0
  4  5  1  0
  5  6  2  0
  6  7  1  0
  7  8  2  0
  8  9  1  0
  9 10  2  0
  4 11  1  0
 11 12  2  0
 12 13  1  0
 13 14  1  0
 14 15  2  0
 14 16  1  0
 16 17  1  0
 17 18  1  0
 18 19  1  0
 19 20  1  0
 20 21  1  0
 21 22  1  0
 22 23  1  0
 23 24  1  0
 13 25  1  0
 25 26  2  0
 25  3  1  0
 10  5  1  0
 24 19  1  0
  6 27  1  0
  7 28  1  0
  8 29  1  0
  9 30  1  0
 10 31  1  0
 11 32  1  0
 12 33  1  0
 17 34  1  0
 17 35  1  0
 18 36  1  0
 18 37  1  0
 20 38  1  0
 20 39  1  0
 21 40  1  0
 21 41  1  0
 23 42  1  0
 23 43  1  0
 24 44  1  0
 24 45  1  0
M  CHG  1  11   1
M  END
>  <UniqueID>  (7) 
7

>  <SMILES>  (7) 
N#Cc1c(-c2ccccc2)[nH+]cn(C(=O)OCCN2CCOCC2)c1=O

>  <Energy>  (7) 
68.65059416042742

>  <Genealogy>  (7) 
N#Cc1c(-c2ccccc2)[nH+]cn(C(=O)OCCN2CCOCC2)c1=O (protonated)
N#Cc1c(-c2ccccc2)[nH+]cn(C(=O)OCCN2CCOCC2)c1=O (3D coordinates assigned)
N#Cc1c(-c2ccccc2)[nH+]cn(C(=O)OCCN2CCOCC2)c1=O (nonaromatic ring conformer: 68.65059416042742 kcal/mol)

>  <smiles>  (7) 
N#Cc1c(-c2ccccc2)ncn(C(=O)OCCN2CCOCC2)c1=O

>  <score_type>  (7) 
oracle

>  <origin>  (7) 
adg

>  <m_score__min__energy>  (7) 
-7.8099999999999996

>  <m_primary>  (7) 
energy

$$$$
7:0
     RDKit          3D

 44 46  0  0  0  0  0  0  0  0999 V2000
   -3.9100   25.6190  -30.8320 O   0  0  0  0  0  0  0  0  0  0  0  0
   -4.5990   24.5850  -30.6150 C   0  0  0  0  0  0  0  0  0  0  0  0
   -4.9880   24.2340  -29.2110 C   0  0  0  0  0  0  0  0  0  0  0  0
   -3.8230   23.6200  -28.4810 C   0  0  0  0  0  0  0  0  0  0  0  0
   -3.8560   22.2630  -28.1160 C   0  0  0  0  0  0  0  0  0  0  0  0
   -2.7570   21.6770  -27.4790 C   0  0  0  0  0  0  0  0  0  0  0  0
   -1.6200   22.4390  -27.2030 C   0  0  0  0  0  0  0  0  0  0  0  0
   -1.5800   23.7890  -27.5620 C   0  0  0  0  0  0  0  0  0  0  0  0
   -2.6760   24.3800  -28.1980 C   0  0  0  0  0  0  0  0  0  0  0  0
   -4.9630   23.7060  -31.6870 N   0  0  0  0  0  0  0  0  0  0  0  0
   -6.1390   22.8830  -31.7690 C   0  0  0  0  0  0  0  0  0  0  0  0
   -7.4220   23.4070  -31.5190 C   0  0  0  0  0  0  0  0  0  0  0  0
   -8.5480   22.5860  -31.6040 C   0  0  0  0  0  0  0  0  0  0  0  0
   -8.4090   21.2380  -31.9330 C   0  0  0  0  0  0  0  0  0  0  0  0
   -7.1410   20.6980  -32.1530 C   0  0  0  0  0  0  0  0  0  0  0  0
   -5.9960   21.5040  -32.0390 C   0  0  0  0  0  0  0  0  0  0  0  0
   -4.6600   20.9170  -32.2770 C   0  0  0  0  0  0  0  0  0  0  0  0
   -4.5990   19.6810  -32.5210 O   0  0  0  0  0  0  0  0  0  0  0  0
   -3.4370   21.7060  -32.2830 N   0  0  0  0  0  0  0  0  0  0  0  0
   -2.6820   21.5870  -31.0170 C   0  0  0  0  0  0  0  0  0  0  0  0
   -1.8090   20.3100  -30.9470 C   0  0  0  0  0  0  0  0  0  0  0  0
   -1.7900   19.5830  -32.1590 O   0  0  0  0  0  0  0  0  0  0  0  0
   -1.4650   20.4470  -33.2250 C   0  0  0  0  0  0  0  0  0  0  0  0
   -2.5910   21.4680  -33.4760 C   0  0  0  0  0  0  0  0  0  0  0  0
   -5.3058   25.1459  -28.6843 H   0  0  0  0  0  0  0  0  0  0  0  0
   -5.8133   23.5074  -29.2407 H   0  0  0  0  0  0  0  0  0  0  0  0
   -4.7498   21.6593  -28.3322 H   0  0  0  0  0  0  0  0  0  0  0  0
   -2.7886   20.6147  -27.1952 H   0  0  0  0  0  0  0  0  0  0  0  0
   -0.7560   21.9768  -26.7031 H   0  0  0  0  0  0  0  0  0  0  0  0
   -0.6838   24.3883  -27.3436 H   0  0  0  0  0  0  0  0  0  0  0  0
   -2.6400   25.4433  -28.4776 H   0  0  0  0  0  0  0  0  0  0  0  0
   -7.5376   24.4687  -31.2554 H   0  0  0  0  0  0  0  0  0  0  0  0
   -9.5472   23.0035  -31.4110 H   0  0  0  0  0  0  0  0  0  0  0  0
   -9.3003   20.5992  -32.0193 H   0  0  0  0  0  0  0  0  0  0  0  0
   -7.0375   19.6352  -32.4172 H   0  0  0  0  0  0  0  0  0  0  0  0
   -3.7390   22.7090  -32.3390 H   0  0  0  0  0  0  0  0  0  0  0  0
   -2.0267   22.4648  -30.9166 H   0  0  0  0  0  0  0  0  0  0  0  0
   -3.4176   21.5261  -30.2014 H   0  0  0  0  0  0  0  0  0  0  0  0
   -0.7784   20.6039  -30.6991 H   0  0  0  0  0  0  0  0  0  0  0  0
   -2.2472   19.6554  -30.1792 H   0  0  0  0  0  0  0  0  0  0  0  0
   -0.5387   20.9871  -32.9797 H   0  0  0  0  0  0  0  0  0  0  0  0
   -1.3320   19.8436  -34.1350 H   0  0  0  0  0  0  0  0  0  0  0  0
   -2.1365   22.4228  -33.7789 H   0  0  0  0  0  0  0  0  0  0  0  0
   -3.2405   21.0533  -34.2610 H   0  0  0  0  0  0  0  0  0  0  0  0
  1  2  2  0
  2  3  1  0
  3  4  1  0
  4  5  2  0
  5  6  1  0
  6  7  2  0
  7  8  1  0
  8  9  2  0
  2 10  1  0
 10 11  1  0
 11 12  2  0
 12 13  1  0
 13 14  2  0
 14 15  1  0
 15 16  2  0
 16 17  1  0
 17 18  2  0
 17 19  1  0
 19 20  1  0
 20 21  1  0
 21 22  1  0
 22 23  1  0
 23 24  1  0
  9  4  1  0
 16 11  1  0
 24 19  1  0
  3 25  1  0
  3 26  1  0
  5 27  1  0
  6 28  1  0
  7 29  1  0
  8 30  1  0
  9 31  1  0
 12 32  1  0
 13 33  1  0
 14 34  1  0
 15 35  1  0
 19 36  1  0
 20 37  1  0
 20 38  1  0
 21 39  1  0
 21 40  1  0
 23 41  1  0
 23 42  1  0
 24 43  1  0
 24 44  1  0
M  CHG  2  10  -1  19   1
M  END
>  <UniqueID>  (8) 
8

>  <SMILES>  (8) 
O=C(Cc1ccccc1)[N-]c1ccccc1C(=O)[NH+]1CCOCC1

>  <Energy>  (8) 
67.41368110418989

>  <Genealogy>  (8) 
O=C(Cc1ccccc1)[N-]c1ccccc1C(=O)[NH+]1CCOCC1 (protonated)
O=C(Cc1ccccc1)[N-]c1ccccc1C(=O)[NH+]1CCOCC1 (3D coordinates assigned)
O=C(Cc1ccccc1)[N-]c1ccccc1C(=O)[NH+]1CCOCC1 (nonaromatic ring conformer: 67.41368110418989 kcal/mol)

>  <smiles>  (8) 
O=C(Cc1ccccc1)Nc1ccccc1C(=O)N1CCOCC1

>  <score_type>  (8) 
oracle

>  <origin>  (8) 
adg

>  <m_score__min__energy>  (8) 
-8.4000000000000004

>  <m_primary>  (8) 
energy

$$$$
8:0
     RDKit          3D

 44 45  0  0  0  0  0  0  0  0999 V2000
   -1.6800   21.8630  -26.8790 C   0  0  0  0  0  0  0  0  0  0  0  0
   -1.2500   23.3100  -26.6060 C   0  0  1  0  0  0  0  0  0  0  0  0
    0.1920   23.6130  -27.1020 C   0  0  0  0  0  0  0  0  0  0  0  0
    0.2540   24.8490  -27.9030 N   0  0  0  0  0  0  0  0  0  0  0  0
    1.2140   25.8150  -27.3520 C   0  0  0  0  0  0  0  0  0  0  0  0
    1.5260   25.4800  -25.8930 C   0  0  0  0  0  0  0  0  0  0  0  0
    0.5600   26.1210  -25.0040 N   0  0  0  0  0  0  0  0  0  0  0  0
   -0.0880   27.2790  -25.2340 C   0  0  0  0  0  0  0  0  0  0  0  0
   -0.8410   27.5870  -24.1180 C   0  0  0  0  0  0  0  0  0  0  0  0
   -0.5950   26.5590  -23.2240 C   0  0  0  0  0  0  0  0  0  0  0  0
    0.2600   25.6890  -23.7890 N   0  0  0  0  0  0  0  0  0  0  0  0
   -2.2940   24.2560  -27.0960 N   0  0  0  0  0  0  0  0  0  0  0  0
   -2.6290   25.3450  -26.1630 C   0  0  0  0  0  0  0  0  0  0  0  0
   -3.5140   23.5720  -27.5750 C   0  0  0  0  0  0  0  0  0  0  0  0
   -3.8050   23.9590  -28.9960 C   0  0  0  0  0  0  0  0  0  0  0  0
   -4.9290   24.6000  -29.4670 C   0  0  0  0  0  0  0  0  0  0  0  0
   -4.8010   24.7170  -30.8050 N   0  0  0  0  0  0  0  0  0  0  0  0
   -3.6410   24.1670  -31.1370 N   0  0  0  0  0  0  0  0  0  0  0  0
   -3.0200   23.7130  -30.0610 N   0  0  0  0  0  0  0  0  0  0  0  0
   -1.7540   22.9910  -30.0870 C   0  0  0  0  0  0  0  0  0  0  0  0
   -1.8354   21.3402  -25.9237 H   0  0  0  0  0  0  0  0  0  0  0  0
   -2.6174   21.8614  -27.4545 H   0  0  0  0  0  0  0  0  0  0  0  0
   -0.8956   21.3498  -27.4545 H   0  0  0  0  0  0  0  0  0  0  0  0
   -1.1805   23.4604  -25.5185 H   0  0  0  0  0  0  0  0  0  0  0  0
    0.8519   23.7226  -26.2288 H   0  0  0  0  0  0  0  0  0  0  0  0
    0.5129   22.7778  -27.7420 H   0  0  0  0  0  0  0  0  0  0  0  0
   -0.6920   25.3000  -27.8920 H   0  0  0  0  0  0  0  0  0  0  0  0
    2.1433   25.7784  -27.9394 H   0  0  0  0  0  0  0  0  0  0  0  0
    0.7760   26.8228  -27.4019 H   0  0  0  0  0  0  0  0  0  0  0  0
    1.4787   24.3899  -25.7536 H   0  0  0  0  0  0  0  0  0  0  0  0
    2.5333   25.8495  -25.6503 H   0  0  0  0  0  0  0  0  0  0  0  0
   -0.0277   27.8780  -26.1547 H   0  0  0  0  0  0  0  0  0  0  0  0
   -1.4944   28.4597  -23.9713 H   0  0  0  0  0  0  0  0  0  0  0  0
   -1.0280   26.4689  -22.2168 H   0  0  0  0  0  0  0  0  0  0  0  0
    0.6470   24.8260  -23.3460 H   0  0  0  0  0  0  0  0  0  0  0  0
   -2.5192   24.9881  -25.1283 H   0  0  0  0  0  0  0  0  0  0  0  0
   -1.9506   26.1942  -26.3319 H   0  0  0  0  0  0  0  0  0  0  0  0
   -3.6675   25.6661  -26.3319 H   0  0  0  0  0  0  0  0  0  0  0  0
   -3.3655   22.4835  -27.5186 H   0  0  0  0  0  0  0  0  0  0  0  0
   -4.3629   23.8701  -26.9422 H   0  0  0  0  0  0  0  0  0  0  0  0
   -5.7774   24.9527  -28.8621 H   0  0  0  0  0  0  0  0  0  0  0  0
   -1.4195   22.8002  -29.0566 H   0  0  0  0  0  0  0  0  0  0  0  0
   -1.8885   22.0338  -30.6120 H   0  0  0  0  0  0  0  0  0  0  0  0
   -0.9986   23.5941  -30.6120 H   0  0  0  0  0  0  0  0  0  0  0  0
  1  2  1  0
  2  3  1  0
  3  4  1  0
  4  5  1  0
  5  6  1  0
  6  7  1  0
  7  8  1  0
  8  9  2  0
  9 10  1  0
 10 11  2  0
  2 12  1  0
 12 13  1  0
 12 14  1  0
 14 15  1  0
 15 16  2  0
 16 17  1  0
 17 18  2  0
 18 19  1  0
 19 20  1  0
 11  7  1  0
 19 15  1  0
  1 21  1  0
  1 22  1  0
  1 23  1  0
  2 24  1  1
  3 25  1  0
  3 26  1  0
  4 27  1  0
  5 28  1  0
  5 29  1  0
  6 30  1  0
  6 31  1  0
  8 32  1  0
  9 33  1  0
 10 34  1  0
 11 35  1  0
 13 36  1  0
 13 37  1  0
 13 38  1  0
 14 39  1  0
 14 40  1  0
 16 41  1  0
 20 42  1  0
 20 43  1  0
 20 44  1  0
M  CHG  1  11   1
M  END
>  <UniqueID>  (9) 
9

>  <SMILES>  (9) 
C[C@@H](CNCCn1ccc[nH+]1)N(C)Cc1cnnn1C

>  <Energy>  (9) 
106.13229887460854

>  <Genealogy>  (9) 
CC(CNCCn1ccc[nH+]1)N(C)Cc1cnnn1C (protonated)
C[C@@H](CNCCn1ccc[nH+]1)N(C)Cc1cnnn1C (chirality)
C[C@@H](CNCCn1ccc[nH+]1)N(C)Cc1cnnn1C (3D coordinates assigned)
C[C@@H](CNCCn1ccc[nH+]1)N(C)Cc1cnnn1C (optimized conformer: 106.13229887460854 kcal/mol)

>  <smiles>  (9) 
CC(CNCCn1cccn1)N(C)Cc1cnnn1C

>  <score_type>  (9) 
oracle

>  <origin>  (9) 
adg

>  <m_score__min__energy>  (9) 
-6.5700000000000003

>  <m_primary>  (9) 
energy

$$$$
9:0
     RDKit          3D

 54 56  0  0  0  0  0  0  0  0999 V2000
    0.1310   19.1310  -27.7990 C   0  0  0  0  0  0  0  0  0  0  0  0
   -1.0640   19.8940  -28.4020 C   0  0  0  0  0  0  0  0  0  0  0  0
   -2.3650   19.7460  -27.6800 N   0  0  0  0  0  0  0  0  0  0  0  0
   -2.3370   18.8480  -26.4940 C   0  0  0  0  0  0  0  0  0  0  0  0
   -3.7360   18.5930  -25.9230 C   0  0  0  0  0  0  0  0  0  0  0  0
   -3.0250   21.0490  -27.3900 C   0  0  0  0  0  0  0  0  0  0  0  0
   -2.8130   22.1210  -28.4740 C   0  0  0  0  0  0  0  0  0  0  0  0
   -2.7930   23.5370  -27.8780 C   0  0  0  0  0  0  0  0  0  0  0  0
   -2.1610   24.5740  -28.8230 C   0  0  0  0  0  0  0  0  0  0  0  0
   -3.1290   25.1230  -29.7240 O   0  0  0  0  0  0  0  0  0  0  0  0
   -4.2660   24.4420  -30.1820 C   0  0  0  0  0  0  0  0  0  0  0  0
   -4.0980   23.4440  -31.1490 C   0  0  0  0  0  0  0  0  0  0  0  0
   -5.1790   22.6490  -31.5390 C   0  0  0  0  0  0  0  0  0  0  0  0
   -6.4500   22.8630  -30.9850 C   0  0  0  0  0  0  0  0  0  0  0  0
   -7.5510   22.0180  -31.3510 N   0  0  0  0  0  0  0  0  0  0  0  0
   -8.8440   22.4080  -31.4720 C   0  0  0  0  0  0  0  0  0  0  0  0
   -9.6420   21.3390  -31.8670 C   0  0  0  0  0  0  0  0  0  0  0  0
   -8.7830   20.2630  -31.9710 C   0  0  0  0  0  0  0  0  0  0  0  0
   -9.0400   18.9340  -32.3030 C   0  0  0  0  0  0  0  0  0  0  0  0
   -7.9590   18.0330  -32.2870 C   0  0  0  0  0  0  0  0  0  0  0  0
   -6.6640   18.4730  -31.9330 C   0  0  0  0  0  0  0  0  0  0  0  0
   -6.4360   19.8220  -31.6020 C   0  0  0  0  0  0  0  0  0  0  0  0
   -7.5230   20.7020  -31.6480 C   0  0  0  0  0  0  0  0  0  0  0  0
   -6.6390   23.9230  -30.0870 C   0  0  0  0  0  0  0  0  0  0  0  0
   -5.5540   24.7070  -29.6840 C   0  0  0  0  0  0  0  0  0  0  0  0
    0.0733   19.1679  -26.7011 H   0  0  0  0  0  0  0  0  0  0  0  0
    0.1031   18.0832  -28.1327 H   0  0  0  0  0  0  0  0  0  0  0  0
    1.0698   19.5972  -28.1327 H   0  0  0  0  0  0  0  0  0  0  0  0
   -0.8074   20.9635  -28.4183 H   0  0  0  0  0  0  0  0  0  0  0  0
   -1.2249   19.4558  -29.3980 H   0  0  0  0  0  0  0  0  0  0  0  0
   -3.0140   19.2920  -28.3700 H   0  0  0  0  0  0  0  0  0  0  0  0
   -1.8951   17.8851  -26.7900 H   0  0  0  0  0  0  0  0  0  0  0  0
   -1.7401   19.3415  -25.7129 H   0  0  0  0  0  0  0  0  0  0  0  0
   -3.6906   18.6013  -24.8240 H   0  0  0  0  0  0  0  0  0  0  0  0
   -4.4219   19.3809  -26.2676 H   0  0  0  0  0  0  0  0  0  0  0  0
   -4.0998   17.6138  -26.2676 H   0  0  0  0  0  0  0  0  0  0  0  0
   -4.1058   20.8724  -27.2868 H   0  0  0  0  0  0  0  0  0  0  0  0
   -2.5656   21.4370  -26.4689 H   0  0  0  0  0  0  0  0  0  0  0  0
   -1.8536   21.9330  -28.9782 H   0  0  0  0  0  0  0  0  0  0  0  0
   -3.6507   22.0602  -29.1843 H   0  0  0  0  0  0  0  0  0  0  0  0
   -3.8277   23.8423  -27.6630 H   0  0  0  0  0  0  0  0  0  0  0  0
   -2.1791   23.5033  -26.9659 H   0  0  0  0  0  0  0  0  0  0  0  0
   -1.7296   25.3884  -28.2225 H   0  0  0  0  0  0  0  0  0  0  0  0
   -1.3839   24.0706  -29.4169 H   0  0  0  0  0  0  0  0  0  0  0  0
   -3.1095   23.2846  -31.6045 H   0  0  0  0  0  0  0  0  0  0  0  0
   -5.0328   21.8523  -32.2833 H   0  0  0  0  0  0  0  0  0  0  0  0
   -9.2110   23.4278  -31.2840 H   0  0  0  0  0  0  0  0  0  0  0  0
  -10.7256   21.3489  -32.0560 H   0  0  0  0  0  0  0  0  0  0  0  0
  -10.0540   18.6004  -32.5687 H   0  0  0  0  0  0  0  0  0  0  0  0
   -8.1236   16.9782  -32.5521 H   0  0  0  0  0  0  0  0  0  0  0  0
   -5.8290   17.7572  -31.9159 H   0  0  0  0  0  0  0  0  0  0  0  0
   -5.4338   20.1737  -31.3159 H   0  0  0  0  0  0  0  0  0  0  0  0
   -7.6451   24.1386  -29.6980 H   0  0  0  0  0  0  0  0  0  0  0  0
   -5.7083   25.5338  -28.9751 H   0  0  0  0  0  0  0  0  0  0  0  0
  1  2  1  0
  2  3  1  0
  3  4  1  0
  4  5  1  0
  3  6  1  0
  6  7  1  0
  7  8  1  0
  8  9  1  0
  9 10  1  0
 10 11  1  0
 11 12  2  0
 12 13  1  0
 13 14  2  0
 14 15  1  0
 15 16  1  0
 16 17  2  0
 17 18  1  0
 18 19  2  0
 19 20  1  0
 20 21  2  0
 21 22  1  0
 22 23  2  0
 14 24  1  0
 24 25  2  0
 25 11  1  0
 23 15  1  0
 23 18  1  0
  1 26  1  0
  1 27  1  0
  1 28  1  0
  2 29  1  0
  2 30  1  0
  3 31  1  0
  4 32  1  0
  4 33  1  0
  5 34  1  0
  5 35  1  0
  5 36  1  0
  6 37  1  0
  6 38  1  0
  7 39  1  0
  7 40  1  0
  8 41  1  0
  8 42  1  0
  9 43  1  0
  9 44  1  0
 12 45  1  0
 13 46  1  0
 16 47  1  0
 17 48  1  0
 19 49  1  0
 20 50  1  0
 21 51  1  0
 22 52  1  0
 24 53  1  0
 25 54  1  0
M  CHG  1   3   1
M  END
>  <UniqueID>  (10) 
10

>  <SMILES>  (10) 
CC[NH+](CC)CCCCOc1ccc(-n2ccc3ccccc32)cc1

>  <Energy>  (10) 
97.35184747960126

>  <Genealogy>  (10) 
CC[NH+](CC)CCCCOc1ccc(-n2ccc3ccccc32)cc1 (protonated)
CC[NH+](CC)CCCCOc1ccc(-n2ccc3ccccc32)cc1 (3D coordinates assigned)
CC[NH+](CC)CCCCOc1ccc(-n2ccc3ccccc32)cc1 (optimized conformer: 97.35184747960126 kcal/mol)

>  <smiles>  (10) 
CCN(CC)CCCCOc1ccc(-n2ccc3ccccc32)cc1

>  <score_type>  (10) 
oracle

>  <origin>  (10) 
adg

>  <m_score__min__energy>  (10) 
-8.5

>  <m_primary>  (10) 
energy

$$$$
10:0
     RDKit          3D

 53 55  0  0  0  0  0  0  0  0999 V2000
   -4.9690   22.6010  -32.4390 C   0  0  0  0  0  0  0  0  0  0  0  0
   -5.4860   23.5870  -31.4370 C   0  0  0  0  0  0  0  0  0  0  0  0
   -4.7940   24.7390  -31.2170 N   0  0  0  0  0  0  0  0  0  0  0  0
   -5.2120   25.6720  -30.3240 C   0  0  0  0  0  0  0  0  0  0  0  0
   -6.3840   25.4660  -29.5980 C   0  0  0  0  0  0  0  0  0  0  0  0
   -7.1190   24.2960  -29.7990 C   0  0  0  0  0  0  0  0  0  0  0  0
   -6.6760   23.3370  -30.7300 C   0  0  0  0  0  0  0  0  0  0  0  0
   -7.3730   22.1390  -30.9720 O   0  0  0  0  0  0  0  0  0  0  0  0
   -8.7650   21.9230  -30.7390 C   0  0  0  0  0  0  0  0  0  0  0  0
   -9.4510   21.4150  -32.0110 C   0  0  0  0  0  0  0  0  0  0  0  0
   -9.1380   19.9370  -32.3600 C   0  0  0  0  0  0  0  0  0  0  0  0
   -7.7020   19.5360  -32.3450 N   0  0  1  0  0  0  0  0  0  0  0  0
   -7.4940   18.0920  -32.0930 C   0  0  0  0  0  0  0  0  0  0  0  0
   -6.0140   17.7910  -31.7960 C   0  0  0  0  0  0  0  0  0  0  0  0
   -5.0350   18.5450  -32.7400 C   0  0  2  0  0  0  0  0  0  0  0  0
   -4.2160   19.6330  -32.0000 C   0  0  0  0  0  0  0  0  0  0  0  0
   -2.8810   19.8880  -32.6600 C   0  0  0  0  0  0  0  0  0  0  0  0
   -2.4390   19.0620  -33.7090 C   0  0  0  0  0  0  0  0  0  0  0  0
   -1.2100   19.3040  -34.3300 C   0  0  0  0  0  0  0  0  0  0  0  0
   -0.4110   20.3680  -33.9080 C   0  0  0  0  0  0  0  0  0  0  0  0
   -0.8370   21.1930  -32.8630 C   0  0  0  0  0  0  0  0  0  0  0  0
   -2.0650   20.9560  -32.2380 C   0  0  0  0  0  0  0  0  0  0  0  0
   -2.4580   21.7650  -31.2210 F   0  0  0  0  0  0  0  0  0  0  0  0
   -5.7750   19.1450  -33.9510 C   0  0  0  0  0  0  0  0  0  0  0  0
   -6.9530   20.0470  -33.5270 C   0  0  0  0  0  0  0  0  0  0  0  0
   -4.5203   21.7452  -31.9134 H   0  0  0  0  0  0  0  0  0  0  0  0
   -5.7990   22.2498  -33.0697 H   0  0  0  0  0  0  0  0  0  0  0  0
   -4.2081   23.0839  -33.0697 H   0  0  0  0  0  0  0  0  0  0  0  0
   -4.6259   26.5906  -30.1733 H   0  0  0  0  0  0  0  0  0  0  0  0
   -6.7269   26.2188  -28.8729 H   0  0  0  0  0  0  0  0  0  0  0  0
   -8.0444   24.1234  -29.2299 H   0  0  0  0  0  0  0  0  0  0  0  0
   -8.8865   21.1769  -29.9399 H   0  0  0  0  0  0  0  0  0  0  0  0
   -9.2275   22.8760  -30.4425 H   0  0  0  0  0  0  0  0  0  0  0  0
  -10.5385   21.5146  -31.8788 H   0  0  0  0  0  0  0  0  0  0  0  0
   -9.0630   22.0230  -32.8415 H   0  0  0  0  0  0  0  0  0  0  0  0
   -9.6688   19.3033  -31.6342 H   0  0  0  0  0  0  0  0  0  0  0  0
   -9.4629   19.8108  -33.4033 H   0  0  0  0  0  0  0  0  0  0  0  0
   -7.2960   20.0300  -31.5120 H   0  0  0  0  0  0  0  0  0  0  0  0
   -7.8054   17.5233  -32.9816 H   0  0  0  0  0  0  0  0  0  0  0  0
   -8.0933   17.7992  -31.2183 H   0  0  0  0  0  0  0  0  0  0  0  0
   -5.8472   16.7098  -31.9105 H   0  0  0  0  0  0  0  0  0  0  0  0
   -5.8096   18.1340  -30.7710 H   0  0  0  0  0  0  0  0  0  0  0  0
   -4.3177   17.7968  -33.1083 H   0  0  0  0  0  0  0  0  0  0  0  0
   -4.7935   20.5692  -31.9948 H   0  0  0  0  0  0  0  0  0  0  0  0
   -4.0250   19.2756  -30.9774 H   0  0  0  0  0  0  0  0  0  0  0  0
   -3.0640   18.2206  -34.0428 H   0  0  0  0  0  0  0  0  0  0  0  0
   -0.8724   18.6554  -35.1518 H   0  0  0  0  0  0  0  0  0  0  0  0
    0.5552   20.5575  -34.3985 H   0  0  0  0  0  0  0  0  0  0  0  0
   -0.2049   22.0302  -32.5318 H   0  0  0  0  0  0  0  0  0  0  0  0
   -6.1633   18.3237  -34.5712 H   0  0  0  0  0  0  0  0  0  0  0  0
   -5.0592   19.7655  -34.5101 H   0  0  0  0  0  0  0  0  0  0  0  0
   -7.6515   20.1269  -34.3730 H   0  0  0  0  0  0  0  0  0  0  0  0
   -6.5269   21.0202  -33.2419 H   0  0  0  0  0  0  0  0  0  0  0  0
  1  2  1  0
  2  3  2  0
  3  4  1  0
  4  5  2  0
  5  6  1  0
  6  7  2  0
  7  8  1  0
  8  9  1  0
  9 10  1  0
 10 11  1  0
 11 12  1  0
 12 13  1  0
 13 14  1  0
 14 15  1  0
 15 16  1  0
 16 17  1  0
 17 18  2  0
 18 19  1  0
 19 20  2  0
 20 21  1  0
 21 22  2  0
 22 23  1  0
 15 24  1  0
 24 25  1  0
  7  2  1  0
 25 12  1  0
 22 17  1  0
  1 26  1  0
  1 27  1  0
  1 28  1  0
  4 29  1  0
  5 30  1  0
  6 31  1  0
  9 32  1  0
  9 33  1  0
 10 34  1  0
 10 35  1  0
 11 36  1  0
 11 37  1  0
 12 38  1  1
 13 39  1  0
 13 40  1  0
 14 41  1  0
 14 42  1  0
 15 43  1  6
 16 44  1  0
 16 45  1  0
 18 46  1  0
 19 47  1  0
 20 48  1  0
 21 49  1  0
 24 50  1  0
 24 51  1  0
 25 52  1  0
 25 53  1  0
M  CHG  1  12   1
M  END
>  <UniqueID>  (11) 
11

>  <SMILES>  (11) 
Cc1ncccc1OCCC[NH+]1CCC(Cc2ccccc2F)CC1

>  <Energy>  (11) 
65.51601516896079

>  <Genealogy>  (11) 
Cc1ncccc1OCCC[NH+]1CCC(Cc2ccccc2F)CC1 (protonated)
Cc1ncccc1OCCC[NH+]1CCC(Cc2ccccc2F)CC1 (3D coordinates assigned)
Cc1ncccc1OCCC[NH+]1CCC(Cc2ccccc2F)CC1 (nonaromatic ring conformer: 65.51601516896079 kcal/mol)

>  <smiles>  (11) 
Cc1ncccc1OCCCN1CCC(Cc2ccccc2F)CC1

>  <score_type>  (11) 
oracle

>  <origin>  (11) 
adg

>  <m_score__min__energy>  (11) 
-7.7599999999999998

>  <m_primary>  (11) 
energy

$$$$
11:0
     RDKit          3D

 48 51  0  0  0  0  0  0  0  0999 V2000
   -1.9970   26.1570  -25.7470 C   0  0  0  0  0  0  0  0  0  0  0  0
   -1.7360   25.2090  -26.8810 C   0  0  0  0  0  0  0  0  0  0  0  0
   -0.4340   25.0240  -27.3610 C   0  0  0  0  0  0  0  0  0  0  0  0
   -0.1960   24.1790  -28.4460 C   0  0  0  0  0  0  0  0  0  0  0  0
   -1.2570   23.5140  -29.0810 C   0  0  0  0  0  0  0  0  0  0  0  0
   -0.9590   22.6480  -30.2760 C   0  0  0  0  0  0  0  0  0  0  0  0
   -2.5730   23.6750  -28.5810 C   0  0  0  0  0  0  0  0  0  0  0  0
   -3.6950   23.0000  -29.1690 N   0  0  0  0  0  0  0  0  0  0  0  0
   -4.4510   23.5600  -30.2530 C   0  0  0  0  0  0  0  0  0  0  0  0
   -4.0280   24.5900  -30.8460 O   0  0  0  0  0  0  0  0  0  0  0  0
   -5.6730   22.9000  -30.7520 C   0  0  0  0  0  0  0  0  0  0  0  0
   -7.2010   23.6180  -30.6510 S   0  0  0  0  0  0  0  0  0  0  0  0
   -8.0020   22.3620  -31.4060 C   0  0  0  0  0  0  0  0  0  0  0  0
   -9.3320   22.2930  -31.6440 N   0  0  0  0  0  0  0  0  0  0  0  0
   -9.8320   21.1940  -32.2680 C   0  0  0  0  0  0  0  0  0  0  0  0
   -8.9980   20.1900  -32.6640 N   0  0  0  0  0  0  0  0  0  0  0  0
   -7.6530   20.2380  -32.4370 C   0  0  0  0  0  0  0  0  0  0  0  0
   -6.8270   19.1960  -32.9640 N   0  0  0  0  0  0  0  0  0  0  0  0
   -6.1200   19.3480  -34.2230 C   0  0  0  0  0  0  0  0  0  0  0  0
   -5.5100   17.9850  -34.5050 C   0  0  0  0  0  0  0  0  0  0  0  0
   -6.3320   16.9900  -33.6900 C   0  0  0  0  0  0  0  0  0  0  0  0
   -7.0040   17.8040  -32.5890 C   0  0  0  0  0  0  0  0  0  0  0  0
   -7.1210   21.3550  -31.7630 C   0  0  0  0  0  0  0  0  0  0  0  0
   -5.7900   21.6280  -31.3530 C   0  0  0  0  0  0  0  0  0  0  0  0
   -4.6470   20.6520  -31.4430 C   0  0  0  0  0  0  0  0  0  0  0  0
   -2.8020   24.5480  -27.5070 C   0  0  0  0  0  0  0  0  0  0  0  0
   -1.8528   25.6331  -24.7906 H   0  0  0  0  0  0  0  0  0  0  0  0
   -1.2988   27.0047  -25.8097 H   0  0  0  0  0  0  0  0  0  0  0  0
   -3.0307   26.5279  -25.8097 H   0  0  0  0  0  0  0  0  0  0  0  0
    0.4058   25.5473  -26.8805 H   0  0  0  0  0  0  0  0  0  0  0  0
    0.8327   24.0326  -28.8071 H   0  0  0  0  0  0  0  0  0  0  0  0
   -0.6186   21.6587  -29.9362 H   0  0  0  0  0  0  0  0  0  0  0  0
   -1.8696   22.5340  -30.8825 H   0  0  0  0  0  0  0  0  0  0  0  0
   -0.1711   23.1185  -30.8825 H   0  0  0  0  0  0  0  0  0  0  0  0
   -3.8000   21.9780  -28.9790 H   0  0  0  0  0  0  0  0  0  0  0  0
  -10.9131   21.1139  -32.4543 H   0  0  0  0  0  0  0  0  0  0  0  0
   -6.8173   19.6319  -35.0250 H   0  0  0  0  0  0  0  0  0  0  0  0
   -5.3559   20.1377  -34.1725 H   0  0  0  0  0  0  0  0  0  0  0  0
   -5.5756   17.7496  -35.5775 H   0  0  0  0  0  0  0  0  0  0  0  0
   -4.4447   17.9519  -34.2327 H   0  0  0  0  0  0  0  0  0  0  0  0
   -7.0894   16.5082  -34.3258 H   0  0  0  0  0  0  0  0  0  0  0  0
   -5.7010   16.1912  -33.2732 H   0  0  0  0  0  0  0  0  0  0  0  0
   -8.0741   17.5565  -32.5281 H   0  0  0  0  0  0  0  0  0  0  0  0
   -6.5663   17.5910  -31.6026 H   0  0  0  0  0  0  0  0  0  0  0  0
   -4.3215   20.3741  -30.4297 H   0  0  0  0  0  0  0  0  0  0  0  0
   -4.9755   19.7514  -31.9825 H   0  0  0  0  0  0  0  0  0  0  0  0
   -3.8090   21.1175  -31.9825 H   0  0  0  0  0  0  0  0  0  0  0  0
   -3.8296   24.7157  -27.1521 H   0  0  0  0  0  0  0  0  0  0  0  0
  1  2  1  0
  2  3  2  0
  3  4  1  0
  4  5  2  0
  5  6  1  0
  5  7  1  0
  7  8  1  0
  8  9  1  0
  9 10  2  0
  9 11  1  0
 11 12  1  0
 12 13  1  0
 13 14  2  0
 14 15  1  0
 15 16  2  0
 16 17  1  0
 17 18  1  0
 18 19  1  0
 19 20  1  0
 20 21  1  0
 21 22  1  0
 17 23  2  0
 23 24  1  0
 24 25  1  0
  7 26  2  0
 26  2  1  0
 24 11  2  0
 23 13  1  0
 22 18  1  0
  1 27  1  0
  1 28  1  0
  1 29  1  0
  3 30  1  0
  4 31  1  0
  6 32  1  0
  6 33  1  0
  6 34  1  0
  8 35  1  0
 15 36  1  0
 19 37  1  0
 19 38  1  0
 20 39  1  0
 20 40  1  0
 21 41  1  0
 21 42  1  0
 22 43  1  0
 22 44  1  0
 25 45  1  0
 25 46  1  0
 25 47  1  0
 26 48  1  0
M  END
>  <UniqueID>  (12) 
12

>  <SMILES>  (12) 
Cc1ccc(C)c(NC(=O)c2sc3ncnc(N4CCCC4)c3c2C)c1

>  <Energy>  (12) 
99.79624253758753

>  <Genealogy>  (12) 
Cc1ccc(C)c(NC(=O)c2sc3ncnc(N4CCCC4)c3c2C)c1 (3D coordinates assigned)
Cc1ccc(C)c(NC(=O)c2sc3ncnc(N4CCCC4)c3c2C)c1 (nonaromatic ring conformer: 99.79624253758753 kcal/mol)

>  <smiles>  (12) 
Cc1ccc(C)c(NC(=O)c2sc3ncnc(N4CCCC4)c3c2C)c1

>  <score_type>  (12) 
oracle

>  <origin>  (12) 
adg

>  <m_score__min__energy>  (12) 
-9.5399999999999991

>  <m_primary>  (12) 
energy

$$$$
12:0
     RDKit          3D

 42 44  0  0  0  0  0  0  0  0999 V2000
   -2.7720   21.1150  -32.5700 C   0  0  0  0  0  0  0  0  0  0  0  0
   -3.2870   21.7640  -31.4110 O   0  0  0  0  0  0  0  0  0  0  0  0
   -4.5500   22.3700  -31.3210 C   0  0  0  0  0  0  0  0  0  0  0  0
   -5.7130   21.6630  -31.6820 C   0  0  0  0  0  0  0  0  0  0  0  0
   -6.9720   22.2740  -31.6360 C   0  0  0  0  0  0  0  0  0  0  0  0
   -8.1550   21.5510  -32.0200 N   0  0  0  0  0  0  0  0  0  0  0  0
   -9.3810   22.0340  -31.9140 N   0  0  0  0  0  0  0  0  0  0  0  0
  -10.2450   21.0900  -32.2510 N   0  0  0  0  0  0  0  0  0  0  0  0
   -9.5990   19.9780  -32.5800 N   0  0  0  0  0  0  0  0  0  0  0  0
   -8.2930   20.2740  -32.4380 C   0  0  0  0  0  0  0  0  0  0  0  0
   -7.2050   19.3340  -32.7830 C   0  0  0  0  0  0  0  0  0  0  0  0
   -6.9350   18.2450  -31.9420 C   0  0  0  0  0  0  0  0  0  0  0  0
   -5.9010   17.3540  -32.2500 C   0  0  0  0  0  0  0  0  0  0  0  0
   -5.1430   17.5190  -33.4210 C   0  0  0  0  0  0  0  0  0  0  0  0
   -3.9920   16.5950  -33.7270 C   0  0  0  0  0  0  0  0  0  0  0  0
   -2.8040   17.1080  -33.2350 F   0  0  0  0  0  0  0  0  0  0  0  0
   -3.8840   16.4420  -35.0970 F   0  0  0  0  0  0  0  0  0  0  0  0
   -4.1980   15.3540  -33.1500 F   0  0  0  0  0  0  0  0  0  0  0  0
   -5.4170   18.6110  -34.2620 C   0  0  0  0  0  0  0  0  0  0  0  0
   -6.4500   19.5000  -33.9550 C   0  0  0  0  0  0  0  0  0  0  0  0
   -7.0800   23.5850  -31.1680 C   0  0  0  0  0  0  0  0  0  0  0  0
   -5.9360   24.3070  -30.7850 C   0  0  0  0  0  0  0  0  0  0  0  0
   -6.0170   25.6310  -30.3210 O   0  0  0  0  0  0  0  0  0  0  0  0
   -6.4940   26.0100  -29.0340 C   0  0  0  0  0  0  0  0  0  0  0  0
   -4.6670   23.7080  -30.8650 C   0  0  0  0  0  0  0  0  0  0  0  0
   -3.5700   24.5000  -30.4740 O   0  0  0  0  0  0  0  0  0  0  0  0
   -2.6830   24.2440  -29.3900 C   0  0  0  0  0  0  0  0  0  0  0  0
   -2.1150   20.2871  -32.2652 H   0  0  0  0  0  0  0  0  0  0  0  0
   -3.6052   20.7201  -33.1698 H   0  0  0  0  0  0  0  0  0  0  0  0
   -2.1981   21.8367  -33.1698 H   0  0  0  0  0  0  0  0  0  0  0  0
   -5.6312   20.6147  -32.0051 H   0  0  0  0  0  0  0  0  0  0  0  0
   -7.5390   18.0904  -31.0357 H   0  0  0  0  0  0  0  0  0  0  0  0
   -5.6801   16.5181  -31.5700 H   0  0  0  0  0  0  0  0  0  0  0  0
   -4.8138   18.7669  -35.1685 H   0  0  0  0  0  0  0  0  0  0  0  0
   -6.6732   20.3349  -34.6355 H   0  0  0  0  0  0  0  0  0  0  0  0
   -8.0707   24.0580  -31.0982 H   0  0  0  0  0  0  0  0  0  0  0  0
   -5.8829   25.5245  -28.2589 H   0  0  0  0  0  0  0  0  0  0  0  0
   -6.4251   27.1024  -28.9245 H   0  0  0  0  0  0  0  0  0  0  0  0
   -7.5425   25.6960  -28.9245 H   0  0  0  0  0  0  0  0  0  0  0  0
   -3.2132   24.3970  -28.4384 H   0  0  0  0  0  0  0  0  0  0  0  0
   -2.3243   23.2057  -29.4471 H   0  0  0  0  0  0  0  0  0  0  0  0
   -1.8262   24.9315  -29.4471 H   0  0  0  0  0  0  0  0  0  0  0  0
  1  2  1  0
  2  3  1  0
  3  4  2  0
  4  5  1  0
  5  6  1  0
  6  7  1  0
  7  8  2  0
  8  9  1  0
  9 10  2  0
 10 11  1  0
 11 12  2  0
 12 13  1  0
 13 14  2  0
 14 15  1  0
 15 16  1  0
 15 17  1  0
 15 18  1  0
 14 19  1  0
 19 20  2  0
  5 21  2  0
 21 22  1  0
 22 23  1  0
 23 24  1  0
 22 25  2  0
 25 26  1  0
 26 27  1  0
 25  3  1  0
 10  6  1  0
 20 11  1  0
  1 28  1  0
  1 29  1  0
  1 30  1  0
  4 31  1  0
 12 32  1  0
 13 33  1  0
 19 34  1  0
 20 35  1  0
 21 36  1  0
 24 37  1  0
 24 38  1  0
 24 39  1  0
 27 40  1  0
 27 41  1  0
 27 42  1  0
M  END
>  <UniqueID>  (13) 
13

>  <SMILES>  (13) 
COc1cc(-n2nnnc2-c2ccc(C(F)(F)F)cc2)cc(OC)c1OC

>  <Energy>  (13) 
94.14070768192141

>  <Genealogy>  (13) 
COc1cc(-n2nnnc2-c2ccc(C(F)(F)F)cc2)cc(OC)c1OC (3D coordinates assigned)
COc1cc(-n2nnnc2-c2ccc(C(F)(F)F)cc2)cc(OC)c1OC (optimized conformer: 94.14070768192141 kcal/mol)

>  <smiles>  (13) 
COc1cc(-n2nnnc2-c2ccc(C(F)(F)F)cc2)cc(OC)c1OC

>  <score_type>  (13) 
oracle

>  <origin>  (13) 
adg

>  <m_score__min__energy>  (13) 
-8.2400000000000002

>  <m_primary>  (13) 
energy

$$$$
13:0
     RDKit          3D

 38 40  0  0  0  0  0  0  0  0999 V2000
   -1.6280   25.2820  -27.6640 C   0  0  0  0  0  0  0  0  0  0  0  0
   -2.0530   25.2850  -29.0230 O   0  0  0  0  0  0  0  0  0  0  0  0
   -2.5860   24.1720  -29.6930 C   0  0  0  0  0  0  0  0  0  0  0  0
   -2.0010   22.8990  -29.6000 C   0  0  0  0  0  0  0  0  0  0  0  0
   -2.5360   21.8220  -30.2990 C   0  0  0  0  0  0  0  0  0  0  0  0
   -3.6800   21.9820  -31.0950 C   0  0  0  0  0  0  0  0  0  0  0  0
   -4.1670   20.8280  -31.8900 C   0  0  0  0  0  0  0  0  0  0  0  0
   -3.4070   20.3150  -32.8970 N   0  0  0  0  0  0  0  0  0  0  0  0
   -3.8220   19.2520  -33.6330 C   0  0  0  0  0  0  0  0  0  0  0  0
   -3.0850   18.8170  -34.5580 O   0  0  0  0  0  0  0  0  0  0  0  0
   -5.0600   18.6520  -33.3530 C   0  0  0  0  0  0  0  0  0  0  0  0
   -5.5480   17.5480  -34.0760 C   0  0  0  0  0  0  0  0  0  0  0  0
   -6.7880   16.9920  -33.7480 C   0  0  0  0  0  0  0  0  0  0  0  0
   -7.5470   17.5280  -32.7030 C   0  0  0  0  0  0  0  0  0  0  0  0
   -7.0700   18.6240  -31.9790 C   0  0  0  0  0  0  0  0  0  0  0  0
   -5.8310   19.1890  -32.3000 C   0  0  0  0  0  0  0  0  0  0  0  0
   -5.3670   20.2550  -31.5970 N   0  0  0  0  0  0  0  0  0  0  0  0
   -4.3160   23.2460  -31.1470 C   0  0  0  0  0  0  0  0  0  0  0  0
   -5.5230   23.3940  -31.8340 O   0  0  0  0  0  0  0  0  0  0  0  0
   -6.7640   22.9910  -31.2620 C   0  0  0  0  0  0  0  0  0  0  0  0
   -3.7360   24.3570  -30.4780 C   0  0  0  0  0  0  0  0  0  0  0  0
   -4.2530   25.6640  -30.5430 O   0  0  0  0  0  0  0  0  0  0  0  0
   -5.6130   26.0470  -30.3730 C   0  0  0  0  0  0  0  0  0  0  0  0
   -2.5084   25.2882  -27.0045 H   0  0  0  0  0  0  0  0  0  0  0  0
   -1.0300   24.3796  -27.4688 H   0  0  0  0  0  0  0  0  0  0  0  0
   -1.0173   26.1759  -27.4688 H   0  0  0  0  0  0  0  0  0  0  0  0
   -1.1120   22.7522  -28.9690 H   0  0  0  0  0  0  0  0  0  0  0  0
   -2.0570   20.8344  -30.2269 H   0  0  0  0  0  0  0  0  0  0  0  0
   -4.9543   17.1228  -34.8986 H   0  0  0  0  0  0  0  0  0  0  0  0
   -7.1683   16.1291  -34.3144 H   0  0  0  0  0  0  0  0  0  0  0  0
   -8.5220   17.0858  -32.4502 H   0  0  0  0  0  0  0  0  0  0  0  0
   -7.6688   19.0425  -31.1566 H   0  0  0  0  0  0  0  0  0  0  0  0
   -6.6874   23.0159  -30.1650 H   0  0  0  0  0  0  0  0  0  0  0  0
   -7.5588   23.6772  -31.5897 H   0  0  0  0  0  0  0  0  0  0  0  0
   -7.0040   21.9687  -31.5897 H   0  0  0  0  0  0  0  0  0  0  0  0
   -5.8442   26.1121  -29.2995 H   0  0  0  0  0  0  0  0  0  0  0  0
   -5.7796   27.0270  -30.8440 H   0  0  0  0  0  0  0  0  0  0  0  0
   -6.2665   25.2980  -30.8440 H   0  0  0  0  0  0  0  0  0  0  0  0
  1  2  1  0
  2  3  1  0
  3  4  2  0
  4  5  1  0
  5  6  2  0
  6  7  1  0
  7  8  2  0
  8  9  1  0
  9 10  2  0
  9 11  1  0
 11 12  2  0
 12 13  1  0
 13 14  2  0
 14 15  1  0
 15 16  2  0
 16 17  1  0
  6 18  1  0
 18 19  1  0
 19 20  1  0
 18 21  2  0
 21 22  1  0
 22 23  1  0
 21  3  1  0
 17  7  1  0
 16 11  1  0
  1 24  1  0
  1 25  1  0
  1 26  1  0
  4 27  1  0
  5 28  1  0
 12 29  1  0
 13 30  1  0
 14 31  1  0
 15 32  1  0
 20 33  1  0
 20 34  1  0
 20 35  1  0
 23 36  1  0
 23 37  1  0
 23 38  1  0
M  CHG  1  17  -1
M  END
>  <UniqueID>  (14) 
14

>  <SMILES>  (14) 
COc1ccc(-c2nc(=O)c3ccccc3[n-]2)c(OC)c1OC

>  <Energy>  (14) 
56.837703811629936

>  <Genealogy>  (14) 
COc1ccc(-c2nc(=O)c3ccccc3[n-]2)c(OC)c1OC (protonated)
COc1ccc(-c2nc(=O)c3ccccc3[n-]2)c(OC)c1OC (3D coordinates assigned)
COc1ccc(-c2nc(=O)c3ccccc3[n-]2)c(OC)c1OC (optimized conformer: 56.837703811629936 kcal/mol)

>  <smiles>  (14) 
COc1ccc(-c2nc(=O)c3ccccc3[nH]2)c(OC)c1OC

>  <score_type>  (14) 
oracle

>  <origin>  (14) 
adg

>  <m_score__min__energy>  (14) 
-8.0700000000000003

>  <m_primary>  (14) 
energy

$$$$
14:0
     RDKit          3D

 27 28  0  0  0  0  0  0  0  0999 V2000
   -6.5320   19.6500  -33.8240 C   0  0  0  0  0  0  0  0  0  0  0  0
   -6.7010   19.9500  -32.3990 N   0  0  0  0  0  0  0  0  0  0  0  0
   -7.9560   19.6170  -31.7160 C   0  0  0  0  0  0  0  0  0  0  0  0
   -8.6070   20.8710  -31.1290 C   0  0  0  0  0  0  0  0  0  0  0  0
   -8.2200   22.0650  -31.8100 O   0  0  0  0  0  0  0  0  0  0  0  0
   -7.0570   22.7800  -31.5100 C   0  0  0  0  0  0  0  0  0  0  0  0
   -7.1620   24.1400  -31.2010 C   0  0  0  0  0  0  0  0  0  0  0  0
   -6.0270   24.8770  -30.8580 C   0  0  0  0  0  0  0  0  0  0  0  0
   -4.7670   24.2580  -30.8190 C   0  0  0  0  0  0  0  0  0  0  0  0
   -3.5780   24.9730  -30.4450 N   0  0  0  0  0  0  0  0  0  0  0  0
   -2.7170   24.6780  -29.3400 C   0  0  0  0  0  0  0  0  0  0  0  0
   -1.7510   25.4290  -29.0440 O   0  0  0  0  0  0  0  0  0  0  0  0
   -4.6680   22.8880  -31.0880 C   0  0  0  0  0  0  0  0  0  0  0  0
   -5.8020   22.1400  -31.4510 C   0  0  0  0  0  0  0  0  0  0  0  0
   -5.6760   20.6830  -31.7000 C   0  0  0  0  0  0  0  0  0  0  0  0
   -4.6470   20.0770  -31.2930 O   0  0  0  0  0  0  0  0  0  0  0  0
   -5.9950   18.6967  -33.9368 H   0  0  0  0  0  0  0  0  0  0  0  0
   -7.5196   19.5733  -34.3022 H   0  0  0  0  0  0  0  0  0  0  0  0
   -5.9546   20.4549  -34.3022 H   0  0  0  0  0  0  0  0  0  0  0  0
   -8.6472   19.1562  -32.4370 H   0  0  0  0  0  0  0  0  0  0  0  0
   -7.7352   18.9185  -30.8954 H   0  0  0  0  0  0  0  0  0  0  0  0
   -9.6997   20.7651  -31.1983 H   0  0  0  0  0  0  0  0  0  0  0  0
   -8.2715   20.9611  -30.0853 H   0  0  0  0  0  0  0  0  0  0  0  0
   -8.1454   24.6322  -31.2284 H   0  0  0  0  0  0  0  0  0  0  0  0
   -6.1200   25.9463  -30.6174 H   0  0  0  0  0  0  0  0  0  0  0  0
   -2.9033   23.7768  -28.7373 H   0  0  0  0  0  0  0  0  0  0  0  0
   -3.6900   22.3898  -31.0145 H   0  0  0  0  0  0  0  0  0  0  0  0
  1  2  1  0
  2  3  1  0
  3  4  1  0
  4  5  1  0
  5  6  1  0
  6  7  2  0
  7  8  1  0
  8  9  2  0
  9 10  1  0
 10 11  1  0
 11 12  2  0
  9 13  1  0
 13 14  2  0
 14 15  1  0
 15 16  2  0
 15  2  1  0
 14  6  1  0
  1 17  1  0
  1 18  1  0
  1 19  1  0
  3 20  1  0
  3 21  1  0
  4 22  1  0
  4 23  1  0
  7 24  1  0
  8 25  1  0
 11 26  1  0
 13 27  1  0
M  CHG  1  10  -1
M  END
>  <UniqueID>  (15) 
15

>  <SMILES>  (15) 
CN1CCOc2ccc([N-]C=O)cc2C1=O

>  <Energy>  (15) 
40.40973291274101

>  <Genealogy>  (15) 
CN1CCOc2ccc([N-]C=O)cc2C1=O (protonated)
CN1CCOc2ccc([N-]C=O)cc2C1=O (3D coordinates assigned)
CN1CCOc2ccc([N-]C=O)cc2C1=O (nonaromatic ring conformer: 40.40973291274101 kcal/mol)

>  <smiles>  (15) 
CN1CCOc2ccc(NC=O)cc2C1=O

>  <score_type>  (15) 
oracle

>  <origin>  (15) 
adg

>  <m_score__min__energy>  (15) 
-6.2999999999999998

>  <m_primary>  (15) 
energy

$$$$
15:0
     RDKit          3D

 56 60  0  0  0  0  0  0  0  0999 V2000
   -3.1100   14.1870  -35.8810 C   0  0  0  0  0  0  0  0  0  0  0  0
   -3.3690   14.7840  -34.6130 O   0  0  0  0  0  0  0  0  0  0  0  0
   -4.5480   15.4700  -34.2870 C   0  0  0  0  0  0  0  0  0  0  0  0
   -5.8250   14.9540  -34.5760 C   0  0  0  0  0  0  0  0  0  0  0  0
   -6.9690   15.6760  -34.2270 C   0  0  0  0  0  0  0  0  0  0  0  0
   -6.8530   16.9120  -33.5890 C   0  0  0  0  0  0  0  0  0  0  0  0
   -5.5860   17.4450  -33.2920 C   0  0  0  0  0  0  0  0  0  0  0  0
   -5.4610   18.7600  -32.6140 C   0  0  0  0  0  0  0  0  0  0  0  0
   -4.2640   19.1240  -31.9770 C   0  0  0  0  0  0  0  0  0  0  0  0
   -4.1400   20.3660  -31.3490 C   0  0  0  0  0  0  0  0  0  0  0  0
   -5.2130   21.2780  -31.3490 C   0  0  0  0  0  0  0  0  0  0  0  0
   -6.4290   20.8980  -31.9480 C   0  0  0  0  0  0  0  0  0  0  0  0
   -6.5410   19.6580  -32.5950 C   0  0  0  0  0  0  0  0  0  0  0  0
   -7.5860   21.8550  -31.9440 C   0  0  0  0  0  0  0  0  0  0  0  0
   -7.5990   22.6620  -30.6430 C   0  0  0  0  0  0  0  0  0  0  0  0
   -6.2890   23.3000  -30.3970 N   0  0  0  0  0  0  0  0  0  0  0  0
   -5.1310   22.6250  -30.7050 C   0  0  0  0  0  0  0  0  0  0  0  0
   -3.8910   23.2400  -30.4660 C   0  0  0  0  0  0  0  0  0  0  0  0
   -3.8540   24.5110  -29.8850 C   0  0  0  0  0  0  0  0  0  0  0  0
   -2.6520   25.1950  -29.6300 O   0  0  0  0  0  0  0  0  0  0  0  0
   -1.5060   24.6720  -28.9540 C   0  0  0  0  0  0  0  0  0  0  0  0
   -1.8790   24.1730  -27.5470 C   0  0  1  0  0  0  0  0  0  0  0  0
   -0.6260   23.7710  -26.7300 C   0  0  0  0  0  0  0  0  0  0  0  0
   -0.9200   23.8450  -25.3530 O   0  0  0  0  0  0  0  0  0  0  0  0
   -1.1670   25.1910  -24.9810 C   0  0  0  0  0  0  0  0  0  0  0  0
   -1.9510   25.9800  -26.0520 C   0  0  0  0  0  0  0  0  0  0  0  0
   -2.7100   25.1070  -26.8670 O   0  0  0  0  0  0  0  0  0  0  0  0
   -5.0210   25.1090  -29.5360 N   0  0  0  0  0  0  0  0  0  0  0  0
   -6.2240   24.5250  -29.7800 C   0  0  0  0  0  0  0  0  0  0  0  0
   -7.2780   25.1250  -29.4300 O   0  0  0  0  0  0  0  0  0  0  0  0
   -4.4390   16.7110  -33.6480 C   0  0  0  0  0  0  0  0  0  0  0  0
   -2.6761   13.1870  -35.7337 H   0  0  0  0  0  0  0  0  0  0  0  0
   -4.0509   14.0992  -36.4440 H   0  0  0  0  0  0  0  0  0  0  0  0
   -2.4030   14.8141  -36.4440 H   0  0  0  0  0  0  0  0  0  0  0  0
   -5.9226   13.9800  -35.0778 H   0  0  0  0  0  0  0  0  0  0  0  0
   -7.9649   15.2689  -34.4559 H   0  0  0  0  0  0  0  0  0  0  0  0
   -7.7591   17.4731  -33.3166 H   0  0  0  0  0  0  0  0  0  0  0  0
   -3.4152   18.4244  -31.9723 H   0  0  0  0  0  0  0  0  0  0  0  0
   -3.1966   20.6335  -30.8506 H   0  0  0  0  0  0  0  0  0  0  0  0
   -7.4839   19.3864  -33.0923 H   0  0  0  0  0  0  0  0  0  0  0  0
   -7.4919   22.5427  -32.7974 H   0  0  0  0  0  0  0  0  0  0  0  0
   -8.5237   21.2854  -32.0229 H   0  0  0  0  0  0  0  0  0  0  0  0
   -8.3709   23.4426  -30.7126 H   0  0  0  0  0  0  0  0  0  0  0  0
   -7.8146   21.9767  -29.8100 H   0  0  0  0  0  0  0  0  0  0  0  0
   -2.9563   22.7256  -30.7339 H   0  0  0  0  0  0  0  0  0  0  0  0
   -1.0956   23.8339  -29.5364 H   0  0  0  0  0  0  0  0  0  0  0  0
   -0.7593   25.4738  -28.8562 H   0  0  0  0  0  0  0  0  0  0  0  0
   -2.4741   23.2551  -27.6627 H   0  0  0  0  0  0  0  0  0  0  0  0
   -0.3344   22.7422  -26.9880 H   0  0  0  0  0  0  0  0  0  0  0  0
    0.2014   24.4564  -26.9660 H   0  0  0  0  0  0  0  0  0  0  0  0
   -1.7484   25.1953  -24.0472 H   0  0  0  0  0  0  0  0  0  0  0  0
   -0.1906   25.6828  -24.8598 H   0  0  0  0  0  0  0  0  0  0  0  0
   -2.6293   26.6880  -25.5533 H   0  0  0  0  0  0  0  0  0  0  0  0
   -1.2329   26.5190  -26.6875 H   0  0  0  0  0  0  0  0  0  0  0  0
   -4.9900   26.0500  -29.0800 H   0  0  0  0  0  0  0  0  0  0  0  0
   -3.4427   17.1182  -33.4209 H   0  0  0  0  0  0  0  0  0  0  0  0
  1  2  1  0
  2  3  1  0
  3  4  2  0
  4  5  1  0
  5  6  2  0
  6  7  1  0
  7  8  1  0
  8  9  2  0
  9 10  1  0
 10 11  2  0
 11 12  1  0
 12 13  2  0
 12 14  1  0
 14 15  1  0
 15 16  1  0
 16 17  1  0
 17 18  2  0
 18 19  1  0
 19 20  1  0
 20 21  1  0
 21 22  1  0
 22 23  1  0
 23 24  1  0
 24 25  1  0
 25 26  1  0
 26 27  1  0
 19 28  2  0
 28 29  1  0
 29 30  2  0
  7 31  2  0
 31  3  1  0
 13  8  1  0
 29 16  1  0
 17 11  1  0
 27 22  1  0
  1 32  1  0
  1 33  1  0
  1 34  1  0
  4 35  1  0
  5 36  1  0
  6 37  1  0
  9 38  1  0
 10 39  1  0
 13 40  1  0
 14 41  1  0
 14 42  1  0
 15 43  1  0
 15 44  1  0
 18 45  1  0
 21 46  1  0
 21 47  1  0
 22 48  1  6
 23 49  1  0
 23 50  1  0
 25 51  1  0
 25 52  1  0
 26 53  1  0
 26 54  1  0
 28 55  1  0
 31 56  1  0
M  CHG  1  28   1
M  END
>  <UniqueID>  (16) 
16

>  <SMILES>  (16) 
COc1cccc(-c2ccc3c(c2)CCn2c-3cc(OC[C@H]3COCCO3)[nH+]c2=O)c1

>  <Energy>  (16) 
84.8983612364026

>  <Genealogy>  (16) 
COc1cccc(-c2ccc3c(c2)CCn2c-3cc(OCC3COCCO3)[nH+]c2=O)c1 (protonated)
COc1cccc(-c2ccc3c(c2)CCn2c-3cc(OC[C@H]3COCCO3)[nH+]c2=O)c1 (chirality)
COc1cccc(-c2ccc3c(c2)CCn2c-3cc(OC[C@H]3COCCO3)[nH+]c2=O)c1 (3D coordinates assigned)
COc1cccc(-c2ccc3c(c2)CCn2c-3cc(OC[C@H]3COCCO3)[nH+]c2=O)c1 (nonaromatic ring conformer: 84.8983612364026 kcal/mol)

>  <smiles>  (16) 
COc1cccc(-c2ccc3c(c2)CCn2c-3cc(OCC3COCCO3)nc2=O)c1

>  <score_type>  (16) 
oracle

>  <origin>  (16) 
adg

>  <m_score__min__energy>  (16) 
-8.5600000000000005

>  <m_primary>  (16) 
energy

$$$$
16:0
     RDKit          3D

 54 57  0  0  0  0  0  0  0  0999 V2000
   -8.6010   19.0930  -32.2980 C   0  0  0  0  0  0  0  0  0  0  0  0
   -7.8400   18.1440  -31.6090 C   0  0  0  0  0  0  0  0  0  0  0  0
   -6.4510   18.1190  -31.7600 C   0  0  0  0  0  0  0  0  0  0  0  0
   -5.8130   19.0440  -32.6060 C   0  0  0  0  0  0  0  0  0  0  0  0
   -4.3120   19.0360  -32.7470 C   0  0  0  0  0  0  0  0  0  0  0  0
   -3.8160   20.0190  -33.8330 C   0  0  0  0  0  0  0  0  0  0  0  0
   -3.0350   21.1650  -33.2960 N   0  0  2  0  0  0  0  0  0  0  0  0
   -2.0810   20.6780  -32.2630 C   0  0  0  0  0  0  0  0  0  0  0  0
   -1.6400   21.8060  -31.3270 C   0  0  0  0  0  0  0  0  0  0  0  0
   -2.8580   22.3130  -30.5220 C   0  0  1  0  0  0  0  0  0  0  0  0
   -2.7650   23.7950  -30.1360 C   0  0  0  0  0  0  0  0  0  0  0  0
   -3.9610   24.4450  -30.5090 O   0  0  0  0  0  0  0  0  0  0  0  0
   -4.9170   23.4310  -30.7090 C   0  0  1  0  0  0  0  0  0  0  0  0
   -6.1150   23.9730  -31.5160 C   0  0  0  0  0  0  0  0  0  0  0  0
   -7.1560   22.9300  -31.6730 N   0  0  0  0  0  0  0  0  0  0  0  0
   -7.5880   22.3840  -30.3840 C   0  0  0  0  0  0  0  0  0  0  0  0
   -8.9780   21.8030  -30.6010 C   0  0  0  0  0  0  0  0  0  0  0  0
   -9.4900   22.4570  -31.8750 C   0  0  0  0  0  0  0  0  0  0  0  0
   -8.3900   23.4190  -32.2960 C   0  0  0  0  0  0  0  0  0  0  0  0
   -4.1740   22.2190  -31.2820 C   0  0  1  0  0  0  0  0  0  0  0  0
   -3.9170   22.2710  -32.8120 C   0  0  0  0  0  0  0  0  0  0  0  0
   -6.5860   19.9970  -33.2910 C   0  0  0  0  0  0  0  0  0  0  0  0
   -7.9750   20.0180  -33.1380 C   0  0  0  0  0  0  0  0  0  0  0  0
   -9.6944   19.1117  -32.1788 H   0  0  0  0  0  0  0  0  0  0  0  0
   -8.3346   17.4170  -30.9480 H   0  0  0  0  0  0  0  0  0  0  0  0
   -5.8541   17.3729  -31.2150 H   0  0  0  0  0  0  0  0  0  0  0  0
   -3.8652   19.3202  -31.7828 H   0  0  0  0  0  0  0  0  0  0  0  0
   -4.0092   18.0225  -33.0488 H   0  0  0  0  0  0  0  0  0  0  0  0
   -3.1781   19.4645  -34.5370 H   0  0  0  0  0  0  0  0  0  0  0  0
   -4.7104   20.4399  -34.3157 H   0  0  0  0  0  0  0  0  0  0  0  0
   -2.4460   21.5560  -34.0670 H   0  0  0  0  0  0  0  0  0  0  0  0
   -2.5690   19.8914  -31.6689 H   0  0  0  0  0  0  0  0  0  0  0  0
   -1.1893   20.2873  -32.7750 H   0  0  0  0  0  0  0  0  0  0  0  0
   -0.8736   21.4289  -30.6339 H   0  0  0  0  0  0  0  0  0  0  0  0
   -1.2226   22.6329  -31.9204 H   0  0  0  0  0  0  0  0  0  0  0  0
   -2.8401   21.6532  -29.6420 H   0  0  0  0  0  0  0  0  0  0  0  0
   -2.6207   23.8843  -29.0492 H   0  0  0  0  0  0  0  0  0  0  0  0
   -1.9132   24.2602  -30.6537 H   0  0  0  0  0  0  0  0  0  0  0  0
   -5.3937   23.0854  -29.7799 H   0  0  0  0  0  0  0  0  0  0  0  0
   -6.5456   24.8362  -30.9873 H   0  0  0  0  0  0  0  0  0  0  0  0
   -5.7623   24.2735  -32.5137 H   0  0  0  0  0  0  0  0  0  0  0  0
   -6.8947   21.5962  -30.0541 H   0  0  0  0  0  0  0  0  0  0  0  0
   -7.6008   23.1632  -29.6077 H   0  0  0  0  0  0  0  0  0  0  0  0
   -8.9248   20.7110  -30.7226 H   0  0  0  0  0  0  0  0  0  0  0  0
   -9.6418   21.9952  -29.7452 H   0  0  0  0  0  0  0  0  0  0  0  0
   -9.6613   21.7009  -32.6553 H   0  0  0  0  0  0  0  0  0  0  0  0
  -10.4494   22.9714  -31.7174 H   0  0  0  0  0  0  0  0  0  0  0  0
   -8.2875   23.4248  -33.3912 H   0  0  0  0  0  0  0  0  0  0  0  0
   -8.6165   24.4483  -31.9811 H   0  0  0  0  0  0  0  0  0  0  0  0
   -4.7471   21.2876  -31.1636 H   0  0  0  0  0  0  0  0  0  0  0  0
   -4.8838   22.2010  -33.3321 H   0  0  0  0  0  0  0  0  0  0  0  0
   -3.4021   23.2191  -33.0263 H   0  0  0  0  0  0  0  0  0  0  0  0
   -6.0961   20.7290  -33.9499 H   0  0  0  0  0  0  0  0  0  0  0  0
   -8.5762   20.7634  -33.6793 H   0  0  0  0  0  0  0  0  0  0  0  0
  1  2  2  0
  2  3  1  0
  3  4  2  0
  4  5  1  0
  5  6  1  0
  6  7  1  0
  7  8  1  0
  8  9  1  0
  9 10  1  0
 10 11  1  0
 11 12  1  0
 12 13  1  0
 13 14  1  0
 14 15  1  0
 15 16  1  0
 16 17  1  0
 17 18  1  0
 18 19  1  0
 13 20  1  0
 20 21  1  0
  4 22  1  0
 22 23  2  0
 23  1  1  0
 21  7  1  0
 20 10  1  0
 19 15  1  0
  1 24  1  0
  2 25  1  0
  3 26  1  0
  5 27  1  0
  5 28  1  0
  6 29  1  0
  6 30  1  0
  7 31  1  6
  8 32  1  0
  8 33  1  0
  9 34  1  0
  9 35  1  0
 10 36  1  1
 11 37  1  0
 11 38  1  0
 13 39  1  1
 14 40  1  0
 14 41  1  0
 16 42  1  0
 16 43  1  0
 17 44  1  0
 17 45  1  0
 18 46  1  0
 18 47  1  0
 19 48  1  0
 19 49  1  0
 20 50  1  6
 21 51  1  0
 21 52  1  0
 22 53  1  0
 23 54  1  0
M  CHG  1   7   1
M  END
>  <UniqueID>  (17) 
17

>  <SMILES>  (17) 
c1ccc(CC[N@@H+]2CC[C@H]3COC(CN4CCCC4)C3C2)cc1

>  <Energy>  (17) 
71.81970591603043

>  <Genealogy>  (17) 
c1ccc(CC[NH+]2CCC3COC(CN4CCCC4)C3C2)cc1 (protonated)
c1ccc(CC[N@@H+]2CC[C@H]3COC(CN4CCCC4)C3C2)cc1 (chirality)
c1ccc(CC[N@@H+]2CC[C@H]3COC(CN4CCCC4)C3C2)cc1 (3D coordinates assigned)
c1ccc(CC[N@@H+]2CC[C@H]3COC(CN4CCCC4)C3C2)cc1 (nonaromatic ring conformer: 71.81970591603043 kcal/mol)

>  <smiles>  (17) 
c1ccc(CCN2CCC3COC(CN4CCCC4)C3C2)cc1

>  <score_type>  (17) 
oracle

>  <origin>  (17) 
adg

>  <m_score__min__energy>  (17) 
-8.2400000000000002

>  <m_primary>  (17) 
energy

$$$$
17:0
     RDKit          3D

 43 44  0  0  0  0  0  0  0  0999 V2000
   -7.8414   24.3470  -32.7095 H   0  0  0  0  0  0  0  0  0  0  0  0
   -7.3940   23.5760  -32.0650 C   0  0  0  0  0  0  0  0  0  0  0  0
   -7.9330   22.3910  -32.0780 N   0  0  0  0  0  0  0  0  0  0  0  0
   -9.0650   21.9370  -31.2740 C   0  0  0  0  0  0  0  0  0  0  0  0
  -10.0019   22.2982  -31.7232 H   0  0  0  0  0  0  0  0  0  0  0  0
   -8.9711   22.3335  -30.2523 H   0  0  0  0  0  0  0  0  0  0  0  0
   -9.0780   20.4090  -31.2280 C   0  0  0  0  0  0  0  0  0  0  0  0
  -10.0003   20.0872  -30.7222 H   0  0  0  0  0  0  0  0  0  0  0  0
   -8.1678   20.1016  -30.6922 H   0  0  0  0  0  0  0  0  0  0  0  0
   -9.0250   19.7280  -32.6240 C   0  0  0  0  0  0  0  0  0  0  0  0
   -9.2424   20.5030  -33.3737 H   0  0  0  0  0  0  0  0  0  0  0  0
   -9.7554   18.9084  -32.5560 H   0  0  0  0  0  0  0  0  0  0  0  0
   -7.7500   19.0570  -33.0350 N   0  0  0  0  0  0  0  0  0  0  0  0
   -7.9730   18.7640  -34.0190 H   0  0  0  0  0  0  0  0  0  0  0  0
   -6.5830   19.9530  -33.2710 C   0  0  0  0  0  0  0  0  0  0  0  0
   -6.2835   20.3776  -32.3015 H   0  0  0  0  0  0  0  0  0  0  0  0
   -6.9257   20.6989  -34.0032 H   0  0  0  0  0  0  0  0  0  0  0  0
   -5.3480   19.2980  -33.8970 C   0  0  0  0  0  0  0  0  0  0  0  0
   -4.6779   18.9426  -33.1003 H   0  0  0  0  0  0  0  0  0  0  0  0
   -5.6604   18.4470  -34.5201 H   0  0  0  0  0  0  0  0  0  0  0  0
   -4.8188   20.0340  -34.5201 H   0  0  0  0  0  0  0  0  0  0  0  0
   -7.4370   17.7390  -32.4170 C   0  0  0  0  0  0  0  0  0  0  0  0
   -8.3836   17.2867  -32.0862 H   0  0  0  0  0  0  0  0  0  0  0  0
   -6.9148   17.1589  -33.1921 H   0  0  0  0  0  0  0  0  0  0  0  0
   -6.4880   17.7820  -31.2130 C   0  0  0  0  0  0  0  0  0  0  0  0
   -7.0745   17.7554  -30.2828 H   0  0  0  0  0  0  0  0  0  0  0  0
   -5.8138   16.9135  -31.2463 H   0  0  0  0  0  0  0  0  0  0  0  0
   -5.8951   18.7079  -31.2463 H   0  0  0  0  0  0  0  0  0  0  0  0
   -6.2230   23.9610  -31.2460 C   0  0  0  0  0  0  0  0  0  0  0  0
   -6.1180   24.9640  -30.2780 C   0  0  0  0  0  0  0  0  0  0  0  0
   -6.9198   25.6713  -30.0192 H   0  0  0  0  0  0  0  0  0  0  0  0
   -4.8940   24.9440  -29.7040 N   0  0  0  0  0  0  0  0  0  0  0  0
   -4.5500   25.5740  -28.9470 H   0  0  0  0  0  0  0  0  0  0  0  0
   -4.2260   23.9340  -30.2850 C   0  0  0  0  0  0  0  0  0  0  0  0
   -2.9250   23.5140  -30.0100 C   0  0  0  0  0  0  0  0  0  0  0  0
   -2.3117   24.0247  -29.2530 H   0  0  0  0  0  0  0  0  0  0  0  0
   -2.4220   22.4160  -30.7320 C   0  0  0  0  0  0  0  0  0  0  0  0
   -1.3991   22.0590  -30.5418 H   0  0  0  0  0  0  0  0  0  0  0  0
   -3.2230   21.7690  -31.7000 C   0  0  0  0  0  0  0  0  0  0  0  0
   -2.8190   20.9123  -32.2593 H   0  0  0  0  0  0  0  0  0  0  0  0
   -4.5330   22.2130  -31.9530 C   0  0  0  0  0  0  0  0  0  0  0  0
   -5.1658   21.7159  -32.7029 H   0  0  0  0  0  0  0  0  0  0  0  0
   -5.0050   23.3050  -31.2220 C   0  0  0  0  0  0  0  0  0  0  0  0
  1  2  1  0
  2  3  2  0
  3  4  1  0
  4  5  1  0
  4  6  1  0
  4  7  1  0
  7  8  1  0
  7  9  1  0
  7 10  1  0
 10 11  1  0
 10 12  1  0
 10 13  1  0
 13 14  1  0
 13 15  1  0
 15 16  1  0
 15 17  1  0
 15 18  1  0
 18 19  1  0
 18 20  1  0
 18 21  1  0
 13 22  1  0
 22 23  1  0
 22 24  1  0
 22 25  1  0
 25 26  1  0
 25 27  1  0
 25 28  1  0
  2 29  1  0
 29 30  2  0
 30 31  1  0
 30 32  1  0
 32 33  1  0
 32 34  1  0
 34 35  2  0
 35 36  1  0
 35 37  1  0
 37 38  1  0
 37 39  2  0
 39 40  1  0
 39 41  1  0
 41 42  1  0
 41 43  2  0
 43 29  1  0
 43 34  1  0
M  CHG  1  13   1
M  END
>  <UniqueID>  (18) 
18

>  <SMILES>  (18) 
CC[NH+](CC)CCC/N=C\c1c[nH]c2ccccc12

>  <Energy>  (18) 
97.7207095354094

>  <Genealogy>  (18) 
CC[NH+](CC)CCCN=Cc1c[nH]c2ccccc12 (protonated)
CC[NH+](CC)CCC/N=C\c1c[nH]c2ccccc12 (cis-trans isomerization)
CC[NH+](CC)CCC/N=C\c1c[nH]c2ccccc12 (3D coordinates assigned)
CC[NH+](CC)CCC/N=C\c1c[nH]c2ccccc12 (optimized conformer: 97.7207095354094 kcal/mol)

>  <smiles>  (18) 
CCN(CC)CCCN=Cc1c[nH]c2ccccc12

>  <score_type>  (18) 
oracle

>  <origin>  (18) 
adg

>  <m_score__min__energy>  (18) 
-6.3099999999999996

>  <m_primary>  (18) 
energy

$$$$
18:0
     RDKit          3D

 42 43  0  0  0  0  0  0  0  0999 V2000
   -9.1160   18.1720  -31.6010 C   0  0  0  0  0  0  0  0  0  0  0  0
   -7.8890   19.0480  -31.8810 C   0  0  0  0  0  0  0  0  0  0  0  0
   -8.1180   20.1480  -32.8550 N   0  0  0  0  0  0  0  0  0  0  0  0
   -9.0330   21.2080  -32.3340 C   0  0  0  0  0  0  0  0  0  0  0  0
   -8.8880   21.5470  -30.8400 C   0  0  0  0  0  0  0  0  0  0  0  0
   -6.8490   20.6320  -33.4680 C   0  0  0  0  0  0  0  0  0  0  0  0
   -5.6640   20.6680  -32.4590 C   0  0  2  0  0  0  0  0  0  0  0  0
   -5.5740   22.0100  -31.7520 C   0  0  0  0  0  0  0  0  0  0  0  0
   -6.2060   23.1530  -32.2790 C   0  0  0  0  0  0  0  0  0  0  0  0
   -6.1210   24.3790  -31.6130 C   0  0  0  0  0  0  0  0  0  0  0  0
   -5.4110   24.4780  -30.4150 C   0  0  0  0  0  0  0  0  0  0  0  0
   -5.3310   25.6680  -29.7690 F   0  0  0  0  0  0  0  0  0  0  0  0
   -4.7840   23.3500  -29.8800 C   0  0  0  0  0  0  0  0  0  0  0  0
   -4.8650   22.1220  -30.5420 C   0  0  0  0  0  0  0  0  0  0  0  0
   -4.3170   20.3080  -33.0830 C   0  0  0  0  0  0  0  0  0  0  0  0
   -3.2380   21.2160  -33.0790 C   0  0  0  0  0  0  0  0  0  0  0  0
   -2.0070   20.8560  -33.6260 C   0  0  0  0  0  0  0  0  0  0  0  0
   -1.8420   19.5820  -34.1600 C   0  0  0  0  0  0  0  0  0  0  0  0
   -2.8730   18.6990  -34.1390 N   0  0  0  0  0  0  0  0  0  0  0  0
   -4.0880   19.0160  -33.6170 C   0  0  0  0  0  0  0  0  0  0  0  0
   -5.3260   17.7660  -33.6180 Cl  0  0  0  0  0  0  0  0  0  0  0  0
   -9.2553   18.0726  -30.5144 H   0  0  0  0  0  0  0  0  0  0  0  0
  -10.0083   18.6385  -32.0439 H   0  0  0  0  0  0  0  0  0  0  0  0
   -8.9646   17.1765  -32.0439 H   0  0  0  0  0  0  0  0  0  0  0  0
   -7.5634   19.4950  -30.9301 H   0  0  0  0  0  0  0  0  0  0  0  0
   -7.1331   18.3878  -32.3312 H   0  0  0  0  0  0  0  0  0  0  0  0
   -8.6510   19.6780  -33.6260 H   0  0  0  0  0  0  0  0  0  0  0  0
   -8.8448   22.1274  -32.9079 H   0  0  0  0  0  0  0  0  0  0  0  0
  -10.0504   20.8062  -32.4504 H   0  0  0  0  0  0  0  0  0  0  0  0
   -9.2494   20.7020  -30.2355 H   0  0  0  0  0  0  0  0  0  0  0  0
   -7.8297   21.7374  -30.6083 H   0  0  0  0  0  0  0  0  0  0  0  0
   -9.4812   22.4439  -30.6083 H   0  0  0  0  0  0  0  0  0  0  0  0
   -6.5825   19.9619  -34.2986 H   0  0  0  0  0  0  0  0  0  0  0  0
   -7.0208   21.6625  -33.8124 H   0  0  0  0  0  0  0  0  0  0  0  0
   -5.8892   19.8863  -31.7186 H   0  0  0  0  0  0  0  0  0  0  0  0
   -6.7700   23.0805  -33.2206 H   0  0  0  0  0  0  0  0  0  0  0  0
   -6.6145   25.2676  -32.0336 H   0  0  0  0  0  0  0  0  0  0  0  0
   -4.2254   23.4286  -28.9357 H   0  0  0  0  0  0  0  0  0  0  0  0
   -4.3711   21.2371  -30.1142 H   0  0  0  0  0  0  0  0  0  0  0  0
   -3.3686   22.2164  -32.6408 H   0  0  0  0  0  0  0  0  0  0  0  0
   -1.1732   21.5734  -33.6352 H   0  0  0  0  0  0  0  0  0  0  0  0
   -0.8765   19.2902  -34.5991 H   0  0  0  0  0  0  0  0  0  0  0  0
  1  2  1  0
  2  3  1  0
  3  4  1  0
  4  5  1  0
  3  6  1  0
  6  7  1  0
  7  8  1  0
  8  9  2  0
  9 10  1  0
 10 11  2  0
 11 12  1  0
 11 13  1  0
 13 14  2  0
  7 15  1  0
 15 16  2  0
 16 17  1  0
 17 18  2  0
 18 19  1  0
 19 20  2  0
 20 21  1  0
 14  8  1  0
 20 15  1  0
  1 22  1  0
  1 23  1  0
  1 24  1  0
  2 25  1  0
  2 26  1  0
  3 27  1  0
  4 28  1  0
  4 29  1  0
  5 30  1  0
  5 31  1  0
  5 32  1  0
  6 33  1  0
  6 34  1  0
  7 35  1  1
  9 36  1  0
 10 37  1  0
 13 38  1  0
 14 39  1  0
 16 40  1  0
 17 41  1  0
 18 42  1  0
M  CHG  1   3   1
M  END
>  <UniqueID>  (19) 
19

>  <SMILES>  (19) 
CC[NH+](CC)C[C@H](c1ccc(F)cc1)c1cccnc1Cl

>  <Energy>  (19) 
53.56761450682161

>  <Genealogy>  (19) 
CC[NH+](CC)CC(c1ccc(F)cc1)c1cccnc1Cl (protonated)
CC[NH+](CC)C[C@H](c1ccc(F)cc1)c1cccnc1Cl (chirality)
CC[NH+](CC)C[C@H](c1ccc(F)cc1)c1cccnc1Cl (3D coordinates assigned)
CC[NH+](CC)C[C@H](c1ccc(F)cc1)c1cccnc1Cl (optimized conformer: 53.56761450682161 kcal/mol)

>  <smiles>  (19) 
CCN(CC)CC(c1ccc(F)cc1)c1cccnc1Cl

>  <score_type>  (19) 
oracle

>  <origin>  (19) 
adg

>  <m_score__min__energy>  (19) 
-6.29

>  <m_primary>  (19) 
energy

$$$$
19:0
     RDKit          3D

 52 55  0  0  0  0  0  0  0  0999 V2000
   -4.7840   23.4620  -33.0160 H   0  0  0  0  0  0  0  0  0  0  0  0
   -4.5460   22.4480  -33.0450 N   0  0  0  0  0  0  0  0  0  0  0  0
   -5.4110   21.5100  -32.8080 C   0  0  0  0  0  0  0  0  0  0  0  0
   -5.0930   20.1900  -32.8480 N   0  0  0  0  0  0  0  0  0  0  0  0
   -3.7890   19.6000  -33.1750 C   0  0  0  0  0  0  0  0  0  0  0  0
   -3.8138   18.5220  -32.9574 H   0  0  0  0  0  0  0  0  0  0  0  0
   -3.5796   19.7647  -34.2423 H   0  0  0  0  0  0  0  0  0  0  0  0
   -2.7000   20.2480  -32.3560 C   0  0  0  0  0  0  0  0  0  0  0  0
   -2.8780   20.4360  -30.9750 C   0  0  0  0  0  0  0  0  0  0  0  0
   -3.8020   20.0880  -30.4901 H   0  0  0  0  0  0  0  0  0  0  0  0
   -1.8870   21.0630  -30.2140 C   0  0  0  0  0  0  0  0  0  0  0  0
   -2.0310   21.2023  -29.1324 H   0  0  0  0  0  0  0  0  0  0  0  0
   -0.7140   21.5130  -30.8250 C   0  0  0  0  0  0  0  0  0  0  0  0
    0.0647   22.0069  -30.2252 H   0  0  0  0  0  0  0  0  0  0  0  0
   -0.5310   21.3350  -32.1990 C   0  0  0  0  0  0  0  0  0  0  0  0
    0.3929   21.6895  -32.6794 H   0  0  0  0  0  0  0  0  0  0  0  0
   -1.5180   20.7080  -32.9650 C   0  0  0  0  0  0  0  0  0  0  0  0
   -1.3160   20.5480  -34.2970 F   0  0  0  0  0  0  0  0  0  0  0  0
   -6.2580   19.5610  -32.5830 C   0  0  0  0  0  0  0  0  0  0  0  0
   -6.5180   18.1900  -32.4940 C   0  0  0  0  0  0  0  0  0  0  0  0
   -5.7177   17.4498  -32.6407 H   0  0  0  0  0  0  0  0  0  0  0  0
   -7.8350   17.7880  -32.2110 C   0  0  0  0  0  0  0  0  0  0  0  0
   -8.0737   16.7170  -32.1332 H   0  0  0  0  0  0  0  0  0  0  0  0
   -8.8530   18.7470  -32.0260 C   0  0  0  0  0  0  0  0  0  0  0  0
   -9.8798   18.4180  -31.8081 H   0  0  0  0  0  0  0  0  0  0  0  0
   -8.5650   20.1200  -32.1180 C   0  0  0  0  0  0  0  0  0  0  0  0
   -9.3529   20.8754  -31.9819 H   0  0  0  0  0  0  0  0  0  0  0  0
   -7.2450   20.4950  -32.3880 C   0  0  0  0  0  0  0  0  0  0  0  0
   -6.7220   21.7350  -32.5180 N   0  0  0  0  0  0  0  0  0  0  0  0
   -7.4030   23.0250  -32.3410 C   0  0  0  0  0  0  0  0  0  0  0  0
   -6.8099   23.8112  -32.8309 H   0  0  0  0  0  0  0  0  0  0  0  0
   -8.4042   22.9483  -32.7902 H   0  0  0  0  0  0  0  0  0  0  0  0
   -7.5710   23.3810  -30.8550 C   0  0  0  0  0  0  0  0  0  0  0  0
   -7.5118   24.4745  -30.7516 H   0  0  0  0  0  0  0  0  0  0  0  0
   -8.5449   22.9799  -30.5379 H   0  0  0  0  0  0  0  0  0  0  0  0
   -6.5070   22.7490  -29.9400 C   0  0  0  0  0  0  0  0  0  0  0  0
   -6.9942   22.0162  -29.2800 H   0  0  0  0  0  0  0  0  0  0  0  0
   -5.7513   22.2653  -30.5763 H   0  0  0  0  0  0  0  0  0  0  0  0
   -5.8260   23.7670  -29.1070 N   0  0  0  0  0  0  0  0  0  0  0  0
   -6.0760   25.1540  -29.5730 C   0  0  0  0  0  0  0  0  0  0  0  0
   -7.0364   25.1776  -30.1088 H   0  0  0  0  0  0  0  0  0  0  0  0
   -6.0890   25.8054  -28.6867 H   0  0  0  0  0  0  0  0  0  0  0  0
   -4.9720   25.6720  -30.5160 C   0  0  0  0  0  0  0  0  0  0  0  0
   -5.4128   26.3754  -31.2378 H   0  0  0  0  0  0  0  0  0  0  0  0
   -4.2004   26.1778  -29.9170 H   0  0  0  0  0  0  0  0  0  0  0  0
   -4.3780   24.6010  -31.2150 O   0  0  0  0  0  0  0  0  0  0  0  0
   -3.6340   23.7910  -30.3210 C   0  0  0  0  0  0  0  0  0  0  0  0
   -3.4173   22.8328  -30.8159 H   0  0  0  0  0  0  0  0  0  0  0  0
   -2.7170   24.3429  -30.0672 H   0  0  0  0  0  0  0  0  0  0  0  0
   -4.3770   23.5020  -28.9950 C   0  0  0  0  0  0  0  0  0  0  0  0
   -4.2283   22.4456  -28.7268 H   0  0  0  0  0  0  0  0  0  0  0  0
   -3.9670   24.1686  -28.2220 H   0  0  0  0  0  0  0  0  0  0  0  0
  1  2  1  0
  2  3  2  0
  3  4  1  0
  4  5  1  0
  5  6  1  0
  5  7  1  0
  5  8  1  0
  8  9  2  0
  9 10  1  0
  9 11  1  0
 11 12  1  0
 11 13  2  0
 13 14  1  0
 13 15  1  0
 15 16  1  0
 15 17  2  0
 17 18  1  0
  4 19  1  0
 19 20  2  0
 20 21  1  0
 20 22  1  0
 22 23  1  0
 22 24  2  0
 24 25  1  0
 24 26  1  0
 26 27  1  0
 26 28  2  0
 28 29  1  0
 29 30  1  0
 30 31  1  0
 30 32  1  0
 30 33  1  0
 33 34  1  0
 33 35  1  0
 33 36  1  0
 36 37  1  0
 36 38  1  0
 36 39  1  0
 39 40  1  0
 40 41  1  0
 40 42  1  0
 40 43  1  0
 43 44  1  0
 43 45  1  0
 43 46  1  0
 46 47  1  0
 47 48  1  0
 47 49  1  0
 47 50  1  0
 50 51  1  0
 50 52  1  0
 29  3  1  0
 50 39  1  0
 17  8  1  0
 28 19  1  0
M  END
>  <UniqueID>  (20) 
20

>  <SMILES>  (20) 
[H]/N=c1\n(CCCN2CCOCC2)c2ccccc2n1Cc1ccccc1F

>  <Energy>  (20) 
104.02907661864182

>  <Genealogy>  (20) 
[H]/N=c1\n(CCCN2CCOCC2)c2ccccc2n1Cc1ccccc1F (cis-trans isomerization)
[H]/N=c1\n(CCCN2CCOCC2)c2ccccc2n1Cc1ccccc1F (3D coordinates assigned)
[H]/N=c1\n(CCCN2CCOCC2)c2ccccc2n1Cc1ccccc1F (nonaromatic ring conformer: 104.02907661864182 kcal/mol)

>  <smiles>  (20) 
N=c1n(CCCN2CCOCC2)c2ccccc2n1Cc1ccccc1F

>  <score_type>  (20) 
oracle

>  <origin>  (20) 
adg

>  <m_score__min__energy>  (20) 
-8.2899999999999991

>  <m_primary>  (20) 
energy

$$$$
20:0
     RDKit          3D

 48 50  0  0  1  0  0  0  0  0999 V2000
   -6.4240   25.3110  -29.7170 C   0  0  0  0  0  0  0  0  0  0  0  0
   -5.3690   26.0750  -30.4710 C   0  0  0  0  0  0  0  0  0  0  0  0
   -4.2670   25.2880  -30.8070 O   0  0  0  0  0  0  0  0  0  0  0  0
   -4.1610   23.9220  -30.6690 C   0  0  0  0  0  0  0  0  0  0  0  0
   -4.6660   23.1310  -31.6590 N   0  0  0  0  0  0  0  0  0  0  0  0
   -4.5740   21.7950  -31.5470 C   0  0  0  0  0  0  0  0  0  0  0  0
   -5.0510   21.0200  -32.4890 N   0  0  0  0  0  0  0  0  0  0  0  0
   -6.3730   20.5030  -32.4250 C   0  0  0  0  0  0  0  0  0  0  0  0
   -7.4240   21.3520  -32.0620 C   0  0  0  0  0  0  0  0  0  0  0  0
   -8.7330   20.8750  -31.9880 C   0  0  0  0  0  0  0  0  0  0  0  0
   -9.0180   19.5380  -32.2770 C   0  0  0  0  0  0  0  0  0  0  0  0
   -7.9520   18.7370  -32.6310 C   0  0  0  0  0  0  0  0  0  0  0  0
   -6.6540   19.1840  -32.7110 C   0  0  0  0  0  0  0  0  0  0  0  0
   -3.9790   21.3050  -30.4470 N   0  0  0  0  0  0  0  0  0  0  0  0
   -3.4760   22.0470  -29.4640 C   0  0  0  0  0  0  0  0  0  0  0  0
   -2.8600   21.5150  -28.3250 O   0  0  0  0  0  0  0  0  0  0  0  0
   -1.4530   21.3570  -28.3470 C   0  0  0  0  0  0  0  0  0  0  0  0
   -0.8280   21.9140  -27.1050 C   0  0  0  0  0  0  0  0  0  0  0  0
   -0.6980   23.3380  -27.1120 N   0  0  0  0  0  0  0  0  0  0  0  0
   -1.9220   24.0660  -27.0190 C   0  0  0  0  0  0  0  0  0  0  0  0
   -1.6870   25.4680  -27.5360 C   0  0  0  0  0  0  0  0  0  0  0  0
   -1.4940   25.4600  -28.9340 O   0  0  0  0  0  0  0  0  0  0  0  0
   -0.8890   24.2530  -29.3100 C   0  0  0  0  0  0  0  0  0  0  0  0
    0.0810   23.8370  -28.2150 C   0  0  0  0  0  0  0  0  0  0  0  0
   -3.5740   23.4040  -29.5840 N   0  0  0  0  0  0  0  0  0  0  0  0
   -6.2602   25.4296  -28.6357 H   0  0  0  0  0  0  0  0  0  0  0  0
   -7.4182   25.6999  -29.9821 H   0  0  0  0  0  0  0  0  0  0  0  0
   -6.3646   24.2451  -29.9821 H   0  0  0  0  0  0  0  0  0  0  0  0
   -5.8145   26.4691  -31.3963 H   0  0  0  0  0  0  0  0  0  0  0  0
   -5.0116   26.8816  -29.8140 H   0  0  0  0  0  0  0  0  0  0  0  0
   -7.2160   22.4075  -31.8324 H   0  0  0  0  0  0  0  0  0  0  0  0
   -9.5469   21.5567  -31.7000 H   0  0  0  0  0  0  0  0  0  0  0  0
  -10.0433   19.1430  -32.2248 H   0  0  0  0  0  0  0  0  0  0  0  0
   -8.1518   17.6804  -32.8625 H   0  0  0  0  0  0  0  0  0  0  0  0
   -5.8469   18.4951  -33.0007 H   0  0  0  0  0  0  0  0  0  0  0  0
   -1.2129   20.2861  -28.4207 H   0  0  0  0  0  0  0  0  0  0  0  0
   -1.0537   21.9035  -29.2142 H   0  0  0  0  0  0  0  0  0  0  0  0
   -1.4508   21.6270  -26.2449 H   0  0  0  0  0  0  0  0  0  0  0  0
    0.1894   21.5001  -27.0455 H   0  0  0  0  0  0  0  0  0  0  0  0
   -2.6949   23.5715  -27.6257 H   0  0  0  0  0  0  0  0  0  0  0  0
   -2.2607   24.1018  -25.9731 H   0  0  0  0  0  0  0  0  0  0  0  0
   -2.5604   26.0922  -27.2959 H   0  0  0  0  0  0  0  0  0  0  0  0
   -0.7836   25.8739  -27.0573 H   0  0  0  0  0  0  0  0  0  0  0  0
   -1.6579   23.4770  -29.4389 H   0  0  0  0  0  0  0  0  0  0  0  0
   -0.3510   24.3815  -30.2608 H   0  0  0  0  0  0  0  0  0  0  0  0
    0.7521   23.0490  -28.5875 H   0  0  0  0  0  0  0  0  0  0  0  0
    0.6969   24.6917  -27.8984 H   0  0  0  0  0  0  0  0  0  0  0  0
   -3.1880   24.0390  -28.8270 H   0  0  0  0  0  0  0  0  0  0  0  0
  1  2  1  0
  2  3  1  0
  3  4  1  0
  4  5  2  0
  5  6  1  0
  6  7  2  0
  7  8  1  0
  8  9  2  0
  9 10  1  0
 10 11  2  0
 11 12  1  0
 12 13  2  0
  6 14  1  0
 14 15  2  0
 15 16  1  0
 16 17  1  0
 17 18  1  0
 18 19  1  0
 19 20  1  0
 20 21  1  0
 21 22  1  0
 22 23  1  0
 23 24  1  0
 15 25  1  0
 25  4  1  0
 13  8  1  0
 24 19  1  0
  1 26  1  0
  1 27  1  0
  1 28  1  0
  2 29  1  0
  2 30  1  0
  9 31  1  0
 10 32  1  0
 11 33  1  0
 12 34  1  0
 13 35  1  0
 17 36  1  0
 17 37  1  0
 18 38  1  0
 18 39  1  0
 20 40  1  0
 20 41  1  0
 21 42  1  0
 21 43  1  0
 23 44  1  0
 23 45  1  0
 24 46  1  0
 24 47  1  0
 25 48  1  0
M  END
>  <smiles>  (21) 
CCOc1nc(=Nc2ccccc2)nc(OCCN2CCOCC2)[nH]1

>  <score_type>  (21) 
oracle

>  <origin>  (21) 
adg

>  <m_score__min__energy>  (21) 
-7.5300000000000002

>  <m_primary>  (21) 
energy

$$$$
21:0
     RDKit          3D

 94 99  0  0  0  0  0  0  0  0999 V2000
    3.3250   25.1010  -27.0710 C   0  0  0  0  0  0  0  0  0  0  0  0
    1.9530   25.5900  -27.5110 C   0  0  0  0  0  0  0  0  0  0  0  0
    1.1540   24.4640  -27.9760 N   0  0  0  0  0  0  0  0  0  0  0  0
   -0.2490   24.5620  -28.2460 C   0  0  0  0  0  0  0  0  0  0  0  0
   -0.6320   25.1440  -29.2990 O   0  0  0  0  0  0  0  0  0  0  0  0
   -1.2890   23.8990  -27.3360 C   0  0  2  0  0  0  0  0  0  0  0  0
   -1.5160   24.8070  -26.0940 C   0  0  0  0  0  0  0  0  0  0  0  0
   -0.2560   24.9150  -25.2080 C   0  0  0  0  0  0  0  0  0  0  0  0
    0.2880   23.5390  -24.7300 C   0  0  0  0  0  0  0  0  0  0  0  0
    1.6830   23.7510  -24.1020 C   0  0  0  0  0  0  0  0  0  0  0  0
   -0.6310   22.9430  -23.6360 C   0  0  0  0  0  0  0  0  0  0  0  0
    0.4280   22.5620  -25.9330 C   0  0  0  0  0  0  0  0  0  0  0  0
   -0.8520   22.4990  -26.8070 C   0  0  2  0  0  0  0  0  0  0  0  0
   -0.8720   21.4830  -27.9470 C   0  0  0  0  0  0  0  0  0  0  0  0
    0.2530   20.9060  -28.4020 C   0  0  0  0  0  0  0  0  0  0  0  0
    0.3360   20.0330  -29.6160 C   0  0  0  0  0  0  0  0  0  0  0  0
   -0.9900   19.7090  -30.3790 C   0  0  2  0  0  0  0  0  0  0  0  0
   -0.7430   19.3190  -31.9300 C   0  0  2  0  0  0  0  0  0  0  0  0
   -1.7910   18.2310  -32.3490 C   0  0  0  0  0  0  0  0  0  0  0  0
    0.6590   18.5980  -32.1010 C   0  0  0  0  0  0  0  0  0  0  0  0
    1.7080   19.4960  -32.6690 C   0  0  0  0  0  0  0  0  0  0  0  0
    3.0780   19.3350  -32.6330 C   0  0  0  0  0  0  0  0  0  0  0  0
    3.8360   18.3550  -31.7960 C   0  0  0  0  0  0  0  0  0  0  0  0
    3.6210   20.0660  -33.6250 N   0  0  0  0  0  0  0  0  0  0  0  0
    2.6490   20.6710  -34.2960 N   0  0  0  0  0  0  0  0  0  0  0  0
    2.8930   21.4090  -35.5330 C   0  0  0  0  0  0  0  0  0  0  0  0
    1.4610   20.3530  -33.7150 C   0  0  0  0  0  0  0  0  0  0  0  0
    0.0370   20.5970  -34.1930 C   0  0  0  0  0  0  0  0  0  0  0  0
   -0.1040   21.9340  -34.9700 C   0  0  0  0  0  0  0  0  0  0  0  0
   -0.3590   19.4700  -35.1770 C   0  0  0  0  0  0  0  0  0  0  0  0
   -0.9070   20.5940  -32.9000 C   0  0  2  0  0  0  0  0  0  0  0  0
   -0.7430   21.9210  -32.1060 C   0  0  0  0  0  0  0  0  0  0  0  0
   -1.6920   22.1080  -30.9130 C   0  0  0  0  0  0  0  0  0  0  0  0
   -2.0910   20.8230  -30.1320 C   0  0  1  0  0  0  0  0  0  0  0  0
   -3.4680   20.3150  -30.6730 C   0  0  0  0  0  0  0  0  0  0  0  0
   -2.2310   21.1570  -28.5620 C   0  0  1  0  0  0  0  0  0  0  0  0
   -2.7600   19.9170  -27.7800 C   0  0  0  0  0  0  0  0  0  0  0  0
   -3.2320   22.3550  -28.2500 C   0  0  0  0  0  0  0  0  0  0  0  0
   -2.6250   23.7760  -28.1570 C   0  0  0  0  0  0  0  0  0  0  0  0
    3.3731   25.0838  -25.9722 H   0  0  0  0  0  0  0  0  0  0  0  0
    3.4953   24.0868  -27.4614 H   0  0  0  0  0  0  0  0  0  0  0  0
    4.0984   25.7788  -27.4614 H   0  0  0  0  0  0  0  0  0  0  0  0
    1.4467   26.0708  -26.6610 H   0  0  0  0  0  0  0  0  0  0  0  0
    2.0710   26.3147  -28.3301 H   0  0  0  0  0  0  0  0  0  0  0  0
   -1.7936   25.8142  -26.4383 H   0  0  0  0  0  0  0  0  0  0  0  0
   -2.3151   24.3546  -25.4884 H   0  0  0  0  0  0  0  0  0  0  0  0
    0.5329   25.4195  -25.7852 H   0  0  0  0  0  0  0  0  0  0  0  0
   -0.5416   25.4795  -24.3081 H   0  0  0  0  0  0  0  0  0  0  0  0
    1.5973   23.7380  -23.0054 H   0  0  0  0  0  0  0  0  0  0  0  0
    2.3576   22.9451  -24.4266 H   0  0  0  0  0  0  0  0  0  0  0  0
    2.0877   24.7210  -24.4266 H   0  0  0  0  0  0  0  0  0  0  0  0
   -0.2338   23.2006  -22.6431 H   0  0  0  0  0  0  0  0  0  0  0  0
   -1.6448   23.3560  -23.7438 H   0  0  0  0  0  0  0  0  0  0  0  0
   -0.6674   21.8489  -23.7438 H   0  0  0  0  0  0  0  0  0  0  0  0
    1.2668   22.8959  -26.5614 H   0  0  0  0  0  0  0  0  0  0  0  0
    0.6004   21.5554  -25.5244 H   0  0  0  0  0  0  0  0  0  0  0  0
   -1.5888   22.1204  -26.0833 H   0  0  0  0  0  0  0  0  0  0  0  0
    1.1816   21.0884  -27.8413 H   0  0  0  0  0  0  0  0  0  0  0  0
    1.0113   20.5280  -30.3294 H   0  0  0  0  0  0  0  0  0  0  0  0
    0.6770   19.0602  -29.2322 H   0  0  0  0  0  0  0  0  0  0  0  0
   -1.4110   18.7895  -29.9462 H   0  0  0  0  0  0  0  0  0  0  0  0
   -2.2284   17.7769  -31.4476 H   0  0  0  0  0  0  0  0  0  0  0  0
   -2.5868   18.6994  -32.9467 H   0  0  0  0  0  0  0  0  0  0  0  0
   -1.2931   17.4533  -32.9467 H   0  0  0  0  0  0  0  0  0  0  0  0
    0.9951   18.2454  -31.1147 H   0  0  0  0  0  0  0  0  0  0  0  0
    0.5188   17.7660  -32.8068 H   0  0  0  0  0  0  0  0  0  0  0  0
    3.6667   18.5739  -30.7314 H   0  0  0  0  0  0  0  0  0  0  0  0
    3.4891   17.3356  -32.0204 H   0  0  0  0  0  0  0  0  0  0  0  0
    4.9099   18.4346  -32.0204 H   0  0  0  0  0  0  0  0  0  0  0  0
    4.6310   20.0850  -33.8870 H   0  0  0  0  0  0  0  0  0  0  0  0
    3.2299   22.4280  -35.2917 H   0  0  0  0  0  0  0  0  0  0  0  0
    3.6692   20.8954  -36.1194 H   0  0  0  0  0  0  0  0  0  0  0  0
    1.9637   21.4593  -36.1194 H   0  0  0  0  0  0  0  0  0  0  0  0
   -0.1917   22.7658  -34.2556 H   0  0  0  0  0  0  0  0  0  0  0  0
    0.7831   22.0859  -35.6024 H   0  0  0  0  0  0  0  0  0  0  0  0
   -1.0033   21.8975  -35.6024 H   0  0  0  0  0  0  0  0  0  0  0  0
   -0.6714   18.5809  -34.6096 H   0  0  0  0  0  0  0  0  0  0  0  0
   -1.1909   19.8118  -35.8104 H   0  0  0  0  0  0  0  0  0  0  0  0
    0.5038   19.2163  -35.8104 H   0  0  0  0  0  0  0  0  0  0  0  0
   -1.9314   20.5124  -33.2924 H   0  0  0  0  0  0  0  0  0  0  0  0
    0.2886   21.9617  -31.7262 H   0  0  0  0  0  0  0  0  0  0  0  0
   -0.9913   22.7253  -32.8141 H   0  0  0  0  0  0  0  0  0  0  0  0
   -1.2046   22.7922  -30.2029 H   0  0  0  0  0  0  0  0  0  0  0  0
   -2.6297   22.4876  -31.3451 H   0  0  0  0  0  0  0  0  0  0  0  0
   -4.1273   20.0718  -29.8267 H   0  0  0  0  0  0  0  0  0  0  0  0
   -3.9334   21.1006  -31.2864 H   0  0  0  0  0  0  0  0  0  0  0  0
   -3.3117   19.4154  -31.2864 H   0  0  0  0  0  0  0  0  0  0  0  0
   -2.6803   20.1039  -26.6989 H   0  0  0  0  0  0  0  0  0  0  0  0
   -3.8127   19.7384  -28.0446 H   0  0  0  0  0  0  0  0  0  0  0  0
   -2.1604   19.0335  -28.0446 H   0  0  0  0  0  0  0  0  0  0  0  0
   -3.9895   22.3699  -29.0475 H   0  0  0  0  0  0  0  0  0  0  0  0
   -3.6208   22.1455  -27.2426 H   0  0  0  0  0  0  0  0  0  0  0  0
   -2.4249   24.1249  -29.1808 H   0  0  0  0  0  0  0  0  0  0  0  0
   -3.3655   24.3815  -27.6138 H   0  0  0  0  0  0  0  0  0  0  0  0
  1  2  1  0
  2  3  1  0
  3  4  1  0
  4  5  2  0
  6  4  1  6
  6  7  1  0
  7  8  1  0
  8  9  1  0
  9 10  1  0
  9 11  1  0
  9 12  1  0
 12 13  1  0
 13 14  1  0
 14 15  2  0
 15 16  1  0
 16 17  1  0
 17 18  1  0
 18 19  1  6
 18 20  1  0
 20 21  1  0
 21 22  1  0
 22 23  1  0
 22 24  2  0
 24 25  1  0
 25 26  1  0
 25 27  1  0
 27 28  1  0
 28 29  1  0
 28 30  1  0
 28 31  1  0
 31 32  1  0
 32 33  1  0
 33 34  1  0
 34 35  1  6
 34 36  1  0
 36 37  1  1
 36 38  1  0
 38 39  1  0
 13  6  1  0
 36 14  1  0
 39  6  1  0
 34 17  1  0
 31 18  1  0
 27 21  2  0
  1 40  1  0
  1 41  1  0
  1 42  1  0
  2 43  1  0
  2 44  1  0
  7 45  1  0
  7 46  1  0
  8 47  1  0
  8 48  1  0
 10 49  1  0
 10 50  1  0
 10 51  1  0
 11 52  1  0
 11 53  1  0
 11 54  1  0
 12 55  1  0
 12 56  1  0
 13 57  1  1
 15 58  1  0
 16 59  1  0
 16 60  1  0
 17 61  1  1
 19 62  1  0
 19 63  1  0
 19 64  1  0
 20 65  1  0
 20 66  1  0
 23 67  1  0
 23 68  1  0
 23 69  1  0
 24 70  1  0
 26 71  1  0
 26 72  1  0
 26 73  1  0
 29 74  1  0
 29 75  1  0
 29 76  1  0
 30 77  1  0
 30 78  1  0
 30 79  1  0
 31 80  1  6
 32 81  1  0
 32 82  1  0
 33 83  1  0
 33 84  1  0
 35 85  1  0
 35 86  1  0
 35 87  1  0
 37 88  1  0
 37 89  1  0
 37 90  1  0
 38 91  1  0
 38 92  1  0
 39 93  1  0
 39 94  1  0
M  CHG  2   3  -1  24   1
M  END
>  <UniqueID>  (22) 
21

>  <SMILES>  (22) 
CC[N-]C(=O)[C@]12CCC(C)(C)C[C@@H]1C1=CCC3C4(C)Cc5c(C)[nH+]n(C)c5C(C)(C)C4CCC3(C)C1(C)CC2

>  <Energy>  (22) 
191.86715107422356

>  <Genealogy>  (22) 
CC[N-]C(=O)C12CCC(C)(C)CC1C1=CCC3C4(C)Cc5c(C)[nH+]n(C)c5C(C)(C)C4CCC3(C)C1(C)CC2 (protonated)
CC[N-]C(=O)[C@]12CCC(C)(C)C[C@@H]1C1=CCC3C4(C)Cc5c(C)[nH+]n(C)c5C(C)(C)C4CCC3(C)C1(C)CC2 (chirality)
CC[N-]C(=O)[C@]12CCC(C)(C)C[C@@H]1C1=CCC3C4(C)Cc5c(C)[nH+]n(C)c5C(C)(C)C4CCC3(C)C1(C)CC2 (3D coordinates assigned)
CC[N-]C(=O)[C@]12CCC(C)(C)C[C@@H]1C1=CCC3C4(C)Cc5c(C)[nH+]n(C)c5C(C)(C)C4CCC3(C)C1(C)CC2 (nonaromatic ring conformer: 191.86715107422356 kcal/mol)

>  <smiles>  (22) 
CCNC(=O)C12CCC(C)(C)CC1C1=CCC3C4(C)Cc5c(C)nn(C)c5C(C)(C)C4CCC3(C)C1(C)CC2

>  <score_type>  (22) 
oracle

>  <origin>  (22) 
adg

>  <m_score__min__energy>  (22) 
-9.0399999999999991

>  <m_primary>  (22) 
energy

$$$$
22:0
     RDKit          3D

 29 30  0  0  0  0  0  0  0  0999 V2000
   -9.4510   21.9390  -31.6290 C   0  0  0  0  0  0  0  0  0  0  0  0
   -8.3740   22.8030  -31.9780 O   0  0  0  0  0  0  0  0  0  0  0  0
   -7.0200   22.4240  -31.9970 C   0  0  0  0  0  0  0  0  0  0  0  0
   -6.6000   21.2170  -32.5810 C   0  0  0  0  0  0  0  0  0  0  0  0
   -5.2510   20.8690  -32.5950 C   0  0  0  0  0  0  0  0  0  0  0  0
   -4.2860   21.7220  -32.0350 C   0  0  0  0  0  0  0  0  0  0  0  0
   -2.9210   21.3860  -32.0240 O   0  0  0  0  0  0  0  0  0  0  0  0
   -2.2080   20.8600  -33.1390 C   0  0  0  0  0  0  0  0  0  0  0  0
   -4.6910   22.9460  -31.4660 C   0  0  0  0  0  0  0  0  0  0  0  0
   -6.0650   23.2820  -31.4180 C   0  0  0  0  0  0  0  0  0  0  0  0
   -6.5140   24.5980  -30.8270 C   0  0  0  0  0  0  0  0  0  0  0  0
   -5.4280   25.2430  -29.9610 C   0  0  0  0  0  0  0  0  0  0  0  0
   -4.1350   25.2250  -30.6500 N   0  0  0  0  0  0  0  0  0  0  0  0
   -3.6580   23.8470  -30.8170 C   0  0  0  0  0  0  0  0  0  0  0  0
   -9.5300   21.8756  -30.5337 H   0  0  0  0  0  0  0  0  0  0  0  0
  -10.3894   22.3376  -32.0419 H   0  0  0  0  0  0  0  0  0  0  0  0
   -9.2654   20.9365  -32.0419 H   0  0  0  0  0  0  0  0  0  0  0  0
   -7.3424   20.5413  -33.0308 H   0  0  0  0  0  0  0  0  0  0  0  0
   -4.9387   19.9170  -33.0490 H   0  0  0  0  0  0  0  0  0  0  0  0
   -1.3710   20.2426  -32.7809 H   0  0  0  0  0  0  0  0  0  0  0  0
   -2.8843   20.2428  -33.7487 H   0  0  0  0  0  0  0  0  0  0  0  0
   -1.8179   21.6883  -33.7487 H   0  0  0  0  0  0  0  0  0  0  0  0
   -6.7688   25.2860  -31.6466 H   0  0  0  0  0  0  0  0  0  0  0  0
   -7.3852   24.4005  -30.1851 H   0  0  0  0  0  0  0  0  0  0  0  0
   -5.7085   26.2850  -29.7474 H   0  0  0  0  0  0  0  0  0  0  0  0
   -5.3372   24.6717  -29.0254 H   0  0  0  0  0  0  0  0  0  0  0  0
   -4.2410   25.6660  -31.5950 H   0  0  0  0  0  0  0  0  0  0  0  0
   -2.7566   23.8603  -31.4473 H   0  0  0  0  0  0  0  0  0  0  0  0
   -3.4473   23.4441  -29.8154 H   0  0  0  0  0  0  0  0  0  0  0  0
  1  2  1  0
  2  3  1  0
  3  4  2  0
  4  5  1  0
  5  6  2  0
  6  7  1  0
  7  8  1  0
  6  9  1  0
  9 10  2  0
 10 11  1  0
 11 12  1  0
 12 13  1  0
 13 14  1  0
 10  3  1  0
 14  9  1  0
  1 15  1  0
  1 16  1  0
  1 17  1  0
  4 18  1  0
  5 19  1  0
  8 20  1  0
  8 21  1  0
  8 22  1  0
 11 23  1  0
 11 24  1  0
 12 25  1  0
 12 26  1  0
 13 27  1  0
 14 28  1  0
 14 29  1  0
M  END
>  <UniqueID>  (23) 
22

>  <SMILES>  (23) 
COc1ccc(OC)c2c1CCNC2

>  <Energy>  (23) 
30.493741575360765

>  <Genealogy>  (23) 
COc1ccc(OC)c2c1CCNC2 (3D coordinates assigned)
COc1ccc(OC)c2c1CCNC2 (nonaromatic ring conformer: 30.493741575360765 kcal/mol)

>  <smiles>  (23) 
COc1ccc(OC)c2c1CCNC2

>  <score_type>  (23) 
oracle

>  <origin>  (23) 
adg

>  <m_score__min__energy>  (23) 
-5.9500000000000002

>  <m_primary>  (23) 
energy

$$$$
23:0
     RDKit          3D

 94 97  0  0  0  0  0  0  0  0999 V2000
    1.3048   28.4762  -34.9090 H   0  0  0  0  0  0  0  0  0  0  0  0
    0.7530   27.6920  -35.4480 C   0  0  0  0  0  0  0  0  0  0  0  0
    1.2490   26.3840  -35.4760 C   0  0  0  0  0  0  0  0  0  0  0  0
    2.1866   26.1434  -34.9535 H   0  0  0  0  0  0  0  0  0  0  0  0
    0.5570   25.3770  -36.1670 C   0  0  0  0  0  0  0  0  0  0  0  0
    1.0960   23.9670  -36.1940 C   0  0  0  0  0  0  0  0  0  0  0  0
    1.0920   23.6076  -37.2336 H   0  0  0  0  0  0  0  0  0  0  0  0
    2.1141   23.9902  -35.7782 H   0  0  0  0  0  0  0  0  0  0  0  0
    0.2970   23.0420  -35.3710 N   0  0  0  0  0  0  0  0  0  0  0  0
   -0.5320   22.7270  -35.9270 H   0  0  0  0  0  0  0  0  0  0  0  0
    1.0440   21.8510  -34.9300 C   0  0  0  0  0  0  0  0  0  0  0  0
    2.1019   22.1254  -34.8055 H   0  0  0  0  0  0  0  0  0  0  0  0
    0.5977   21.5106  -33.9840 H   0  0  0  0  0  0  0  0  0  0  0  0
    0.9520   20.6850  -35.9340 C   0  0  0  0  0  0  0  0  0  0  0  0
    0.6594   21.0936  -36.9125 H   0  0  0  0  0  0  0  0  0  0  0  0
    1.9410   20.2040  -35.9538 H   0  0  0  0  0  0  0  0  0  0  0  0
   -0.0630   19.5980  -35.5410 C   0  0  0  0  0  0  0  0  0  0  0  0
   -1.0159   20.0828  -35.2823 H   0  0  0  0  0  0  0  0  0  0  0  0
   -0.1732   18.9190  -36.3994 H   0  0  0  0  0  0  0  0  0  0  0  0
    0.4040   18.7600  -34.3420 C   0  0  0  0  0  0  0  0  0  0  0  0
    1.5019   18.6935  -34.3577 H   0  0  0  0  0  0  0  0  0  0  0  0
    0.0557   19.2498  -33.4207 H   0  0  0  0  0  0  0  0  0  0  0  0
   -0.1830   17.3420  -34.3870 C   0  0  0  0  0  0  0  0  0  0  0  0
   -0.3755   17.0644  -35.4339 H   0  0  0  0  0  0  0  0  0  0  0  0
    0.5388   16.6470  -33.9331 H   0  0  0  0  0  0  0  0  0  0  0  0
   -1.4420   17.2740  -33.6310 N   0  0  0  0  0  0  0  0  0  0  0  0
   -1.3480   16.5650  -32.8680 H   0  0  0  0  0  0  0  0  0  0  0  0
   -2.6060   16.9410  -34.4730 C   0  0  0  0  0  0  0  0  0  0  0  0
   -2.3587   17.1595  -35.5223 H   0  0  0  0  0  0  0  0  0  0  0  0
   -2.8331   15.8743  -34.3299 H   0  0  0  0  0  0  0  0  0  0  0  0
   -3.8450   17.7410  -34.0830 C   0  0  0  0  0  0  0  0  0  0  0  0
   -5.0630   17.0470  -34.0760 C   0  0  0  0  0  0  0  0  0  0  0  0
   -5.0749   15.9770  -34.3307 H   0  0  0  0  0  0  0  0  0  0  0  0
   -6.2550   17.6830  -33.7540 C   0  0  0  0  0  0  0  0  0  0  0  0
   -7.1924   17.1075  -33.7559 H   0  0  0  0  0  0  0  0  0  0  0  0
   -6.2840   19.0440  -33.4270 C   0  0  0  0  0  0  0  0  0  0  0  0
   -7.6370   19.6640  -33.1100 C   0  0  0  0  0  0  0  0  0  0  0  0
   -7.8076   20.5091  -33.7931 H   0  0  0  0  0  0  0  0  0  0  0  0
   -8.4024   18.8842  -33.2366 H   0  0  0  0  0  0  0  0  0  0  0  0
   -7.7170   20.1540  -31.7190 N   0  0  0  0  0  0  0  0  0  0  0  0
   -7.0440   20.9440  -31.5830 H   0  0  0  0  0  0  0  0  0  0  0  0
   -9.0670   20.6150  -31.3570 C   0  0  0  0  0  0  0  0  0  0  0  0
   -9.7818   20.2826  -32.1242 H   0  0  0  0  0  0  0  0  0  0  0  0
   -9.3394   20.1913  -30.3791 H   0  0  0  0  0  0  0  0  0  0  0  0
   -9.1000   22.1460  -31.2640 C   0  0  0  0  0  0  0  0  0  0  0  0
   -9.9948   22.5163  -31.7857 H   0  0  0  0  0  0  0  0  0  0  0  0
   -9.1219   22.4261  -30.2005 H   0  0  0  0  0  0  0  0  0  0  0  0
   -7.8520   22.7780  -31.9030 C   0  0  0  0  0  0  0  0  0  0  0  0
   -7.5966   22.2292  -32.8215 H   0  0  0  0  0  0  0  0  0  0  0  0
   -8.0647   23.8306  -32.1414 H   0  0  0  0  0  0  0  0  0  0  0  0
   -6.7160   22.7170  -30.9680 N   0  0  0  0  0  0  0  0  0  0  0  0
   -6.5400   21.7140  -30.7150 H   0  0  0  0  0  0  0  0  0  0  0  0
   -6.9700   23.4930  -29.7400 C   0  0  0  0  0  0  0  0  0  0  0  0
   -8.0564   23.6082  -29.6118 H   0  0  0  0  0  0  0  0  0  0  0  0
   -6.5237   22.9465  -28.8961 H   0  0  0  0  0  0  0  0  0  0  0  0
   -6.3250   24.8920  -29.7930 C   0  0  0  0  0  0  0  0  0  0  0  0
   -7.1199   25.6435  -29.9085 H   0  0  0  0  0  0  0  0  0  0  0  0
   -5.7648   25.0392  -28.8579 H   0  0  0  0  0  0  0  0  0  0  0  0
   -5.3360   25.0360  -30.9600 C   0  0  0  0  0  0  0  0  0  0  0  0
   -5.5521   24.2608  -31.7099 H   0  0  0  0  0  0  0  0  0  0  0  0
   -5.4542   26.0408  -31.3917 H   0  0  0  0  0  0  0  0  0  0  0  0
   -3.9530   24.8890  -30.5090 N   0  0  0  0  0  0  0  0  0  0  0  0
   -3.4260   23.8050  -30.0200 C   0  0  0  0  0  0  0  0  0  0  0  0
   -3.9940   22.5160  -30.1430 N   0  0  0  0  0  0  0  0  0  0  0  0
   -4.9180   22.2870  -30.5720 H   0  0  0  0  0  0  0  0  0  0  0  0
   -3.0760   21.5260  -29.6190 C   0  0  0  0  0  0  0  0  0  0  0  0
   -2.6853   20.8986  -30.4337 H   0  0  0  0  0  0  0  0  0  0  0  0
   -3.5731   20.8575  -28.9006 H   0  0  0  0  0  0  0  0  0  0  0  0
   -1.9310   22.3140  -28.9550 C   0  0  0  0  0  0  0  0  0  0  0  0
   -0.9608   21.9609  -29.3346 H   0  0  0  0  0  0  0  0  0  0  0  0
   -1.9409   22.1726  -27.8642 H   0  0  0  0  0  0  0  0  0  0  0  0
   -2.1300   23.7940  -29.3150 C   0  0  0  0  0  0  0  0  0  0  0  0
   -1.3224   24.1513  -29.9709 H   0  0  0  0  0  0  0  0  0  0  0  0
   -2.1146   24.4549  -28.4358 H   0  0  0  0  0  0  0  0  0  0  0  0
   -5.0690   19.7810  -33.4210 C   0  0  0  0  0  0  0  0  0  0  0  0
   -5.0460   21.1560  -33.0900 C   0  0  0  0  0  0  0  0  0  0  0  0
   -5.9874   21.6706  -32.8472 H   0  0  0  0  0  0  0  0  0  0  0  0
   -3.8510   21.8670  -33.0670 C   0  0  0  0  0  0  0  0  0  0  0  0
   -3.8532   22.9335  -32.7974 H   0  0  0  0  0  0  0  0  0  0  0  0
   -2.6550   21.2360  -33.3830 C   0  0  0  0  0  0  0  0  0  0  0  0
   -1.7135   21.8046  -33.3629 H   0  0  0  0  0  0  0  0  0  0  0  0
   -2.6430   19.8870  -33.7250 C   0  0  0  0  0  0  0  0  0  0  0  0
   -1.6894   19.4025  -33.9817 H   0  0  0  0  0  0  0  0  0  0  0  0
   -3.8380   19.1280  -33.7480 C   0  0  0  0  0  0  0  0  0  0  0  0
   -0.6400   25.6950  -36.8240 C   0  0  0  0  0  0  0  0  0  0  0  0
   -1.1905   24.9129  -37.3674 H   0  0  0  0  0  0  0  0  0  0  0  0
   -1.1370   27.0000  -36.7920 C   0  0  0  0  0  0  0  0  0  0  0  0
   -2.0778   27.2370  -37.3103 H   0  0  0  0  0  0  0  0  0  0  0  0
   -0.4510   28.0080  -36.1080 C   0  0  0  0  0  0  0  0  0  0  0  0
   -0.9890   29.3030  -36.1120 O   0  0  0  0  0  0  0  0  0  0  0  0
   -0.5000   30.3740  -36.9120 C   0  0  0  0  0  0  0  0  0  0  0  0
   -0.1320   31.1801  -36.2603 H   0  0  0  0  0  0  0  0  0  0  0  0
    0.3219   30.0117  -37.5470 H   0  0  0  0  0  0  0  0  0  0  0  0
   -1.3121   30.7578  -37.5470 H   0  0  0  0  0  0  0  0  0  0  0  0
  1  2  1  0
  2  3  2  0
  3  4  1  0
  3  5  1  0
  5  6  1  0
  6  7  1  0
  6  8  1  0
  6  9  1  0
  9 10  1  0
  9 11  1  0
 11 12  1  0
 11 13  1  0
 11 14  1  0
 14 15  1  0
 14 16  1  0
 14 17  1  0
 17 18  1  0
 17 19  1  0
 17 20  1  0
 20 21  1  0
 20 22  1  0
 20 23  1  0
 23 24  1  0
 23 25  1  0
 23 26  1  0
 26 27  1  0
 26 28  1  0
 28 29  1  0
 28 30  1  0
 28 31  1  0
 31 32  2  0
 32 33  1  0
 32 34  1  0
 34 35  1  0
 34 36  2  0
 36 37  1  0
 37 38  1  0
 37 39  1  0
 37 40  1  0
 40 41  1  0
 40 42  1  0
 42 43  1  0
 42 44  1  0
 42 45  1  0
 45 46  1  0
 45 47  1  0
 45 48  1  0
 48 49  1  0
 48 50  1  0
 48 51  1  0
 51 52  1  0
 51 53  1  0
 53 54  1  0
 53 55  1  0
 53 56  1  0
 56 57  1  0
 56 58  1  0
 56 59  1  0
 59 60  1  0
 59 61  1  0
 59 62  1  0
 62 63  2  0
 63 64  1  0
 64 65  1  0
 64 66  1  0
 66 67  1  0
 66 68  1  0
 66 69  1  0
 69 70  1  0
 69 71  1  0
 69 72  1  0
 72 73  1  0
 72 74  1  0
 36 75  1  0
 75 76  2  0
 76 77  1  0
 76 78  1  0
 78 79  1  0
 78 80  2  0
 80 81  1  0
 80 82  1  0
 82 83  1  0
 82 84  2  0
  5 85  2  0
 85 86  1  0
 85 87  1  0
 87 88  1  0
 87 89  2  0
 89 90  1  0
 90 91  1  0
 91 92  1  0
 91 93  1  0
 91 94  1  0
 89  2  1  0
 84 31  1  0
 72 63  1  0
 84 75  1  0
M  END
>  <UniqueID>  (24) 
23

>  <SMILES>  (24) 
COc1ccc(CNCCCCCNCc2ccc(CNCCCNCCC/N=C3/CCCN3)c3ccccc23)cc1

>  <Energy>  (24) 
103.5407856864292

>  <Genealogy>  (24) 
COc1ccc(CNCCCCCNCc2ccc(CNCCCNCCC/N=C3/CCCN3)c3ccccc23)cc1 (cis-trans isomerization)
COc1ccc(CNCCCCCNCc2ccc(CNCCCNCCC/N=C3/CCCN3)c3ccccc23)cc1 (3D coordinates assigned)
COc1ccc(CNCCCCCNCc2ccc(CNCCCNCCC/N=C3/CCCN3)c3ccccc23)cc1 (nonaromatic ring conformer: 103.5407856864292 kcal/mol)

>  <smiles>  (24) 
COc1ccc(CNCCCCCNCc2ccc(CNCCCNCCCN=C3CCCN3)c3ccccc23)cc1

>  <score_type>  (24) 
oracle

>  <origin>  (24) 
adg

>  <m_score__min__energy>  (24) 
-10.08

>  <m_primary>  (24) 
energy

$$$$
24:0
     RDKit          3D

 46 48  0  0  0  0  0  0  0  0999 V2000
   -8.8010   18.9000  -32.3170 C   0  0  0  0  0  0  0  0  0  0  0  0
   -8.2040   20.2630  -32.1160 C   0  0  0  0  0  0  0  0  0  0  0  0
   -6.9010   20.5390  -32.5590 C   0  0  0  0  0  0  0  0  0  0  0  0
   -6.3340   21.7990  -32.3450 C   0  0  0  0  0  0  0  0  0  0  0  0
   -7.0630   22.8060  -31.6860 C   0  0  0  0  0  0  0  0  0  0  0  0
   -6.4520   24.1780  -31.4700 C   0  0  0  0  0  0  0  0  0  0  0  0
   -5.6330   24.3040  -30.2380 N   0  0  0  0  0  0  0  0  0  0  0  0
   -5.4640   23.0500  -29.4980 C   0  0  0  0  0  0  0  0  0  0  0  0
   -4.0760   22.5020  -29.8070 C   0  0  0  0  0  0  0  0  0  0  0  0
   -3.3070   23.6530  -30.4450 C   0  0  2  0  0  0  0  0  0  0  0  0
   -2.1150   23.9710  -29.6620 N   0  0  0  0  0  0  0  0  0  0  0  0
   -2.1010   24.9270  -28.5960 C   0  0  0  0  0  0  0  0  0  0  0  0
   -1.5590   26.0550  -28.7560 O   0  0  0  0  0  0  0  0  0  0  0  0
   -2.7260   24.5820  -27.2830 C   0  0  0  0  0  0  0  0  0  0  0  0
   -1.7510   24.8040  -26.1590 C   0  0  0  0  0  0  0  0  0  0  0  0
   -0.8580   23.7920  -25.7790 C   0  0  0  0  0  0  0  0  0  0  0  0
    0.0240   24.0130  -24.7180 C   0  0  0  0  0  0  0  0  0  0  0  0
    0.0060   25.1980  -24.0480 N   0  0  0  0  0  0  0  0  0  0  0  0
   -0.8560   26.1940  -24.3910 C   0  0  0  0  0  0  0  0  0  0  0  0
   -1.7480   26.0160  -25.4520 C   0  0  0  0  0  0  0  0  0  0  0  0
   -4.2830   24.8310  -30.4690 C   0  0  0  0  0  0  0  0  0  0  0  0
   -8.3490   22.5090  -31.2000 C   0  0  0  0  0  0  0  0  0  0  0  0
   -8.9150   21.2480  -31.4150 C   0  0  0  0  0  0  0  0  0  0  0  0
   -9.0025   18.4400  -31.3383 H   0  0  0  0  0  0  0  0  0  0  0  0
   -9.7416   18.9911  -32.8800 H   0  0  0  0  0  0  0  0  0  0  0  0
   -8.0962   18.2704  -32.8800 H   0  0  0  0  0  0  0  0  0  0  0  0
   -6.3229   19.7598  -33.0773 H   0  0  0  0  0  0  0  0  0  0  0  0
   -5.3113   22.0044  -32.6941 H   0  0  0  0  0  0  0  0  0  0  0  0
   -5.8101   24.4073  -32.3334 H   0  0  0  0  0  0  0  0  0  0  0  0
   -7.2924   24.8789  -31.3582 H   0  0  0  0  0  0  0  0  0  0  0  0
   -5.5588   23.2384  -28.4184 H   0  0  0  0  0  0  0  0  0  0  0  0
   -6.2354   22.3246  -29.7958 H   0  0  0  0  0  0  0  0  0  0  0  0
   -3.5786   22.1754  -28.8819 H   0  0  0  0  0  0  0  0  0  0  0  0
   -4.1250   21.6290  -30.4744 H   0  0  0  0  0  0  0  0  0  0  0  0
   -2.9550   23.4025  -31.4566 H   0  0  0  0  0  0  0  0  0  0  0  0
   -3.6103   25.2169  -27.1254 H   0  0  0  0  0  0  0  0  0  0  0  0
   -3.0172   23.5213  -27.2962 H   0  0  0  0  0  0  0  0  0  0  0  0
   -0.8518   22.8302  -26.3127 H   0  0  0  0  0  0  0  0  0  0  0  0
    0.7350   23.2272  -24.4232 H   0  0  0  0  0  0  0  0  0  0  0  0
    0.6680   25.3450  -23.2560 H   0  0  0  0  0  0  0  0  0  0  0  0
   -0.8505   27.1412  -23.8318 H   0  0  0  0  0  0  0  0  0  0  0  0
   -2.4435   26.8212  -25.7312 H   0  0  0  0  0  0  0  0  0  0  0  0
   -4.0217   25.5489  -29.6776 H   0  0  0  0  0  0  0  0  0  0  0  0
   -4.2347   25.3485  -31.4385 H   0  0  0  0  0  0  0  0  0  0  0  0
   -8.9138   23.2739  -30.6468 H   0  0  0  0  0  0  0  0  0  0  0  0
   -9.9226   21.0278  -31.0324 H   0  0  0  0  0  0  0  0  0  0  0  0
  1  2  1  0
  2  3  2  0
  3  4  1  0
  4  5  2  0
  5  6  1  0
  6  7  1  0
  7  8  1  0
  8  9  1  0
  9 10  1  0
 10 11  1  0
 11 12  1  0
 12 13  2  0
 12 14  1  0
 14 15  1  0
 15 16  2  0
 16 17  1  0
 17 18  2  0
 18 19  1  0
 19 20  2  0
 10 21  1  0
  5 22  1  0
 22 23  2  0
 23  2  1  0
 21  7  1  0
 20 15  1  0
  1 24  1  0
  1 25  1  0
  1 26  1  0
  3 27  1  0
  4 28  1  0
  6 29  1  0
  6 30  1  0
  8 31  1  0
  8 32  1  0
  9 33  1  0
  9 34  1  0
 10 35  1  6
 14 36  1  0
 14 37  1  0
 16 38  1  0
 17 39  1  0
 18 40  1  0
 19 41  1  0
 20 42  1  0
 21 43  1  0
 21 44  1  0
 22 45  1  0
 23 46  1  0
M  CHG  2  11  -1  18   1
M  END
>  <UniqueID>  (25) 
24

>  <SMILES>  (25) 
Cc1ccc(CN2CC[C@H]([N-]C(=O)Cc3cc[nH+]cc3)C2)cc1

>  <Energy>  (25) 
49.05782098937875

>  <Genealogy>  (25) 
Cc1ccc(CN2CCC([N-]C(=O)Cc3cc[nH+]cc3)C2)cc1 (protonated)
Cc1ccc(CN2CC[C@H]([N-]C(=O)Cc3cc[nH+]cc3)C2)cc1 (chirality)
Cc1ccc(CN2CC[C@H]([N-]C(=O)Cc3cc[nH+]cc3)C2)cc1 (3D coordinates assigned)
Cc1ccc(CN2CC[C@H]([N-]C(=O)Cc3cc[nH+]cc3)C2)cc1 (nonaromatic ring conformer: 49.05782098937875 kcal/mol)

>  <smiles>  (25) 
Cc1ccc(CN2CCC(NC(=O)Cc3ccncc3)C2)cc1

>  <score_type>  (25) 
oracle

>  <origin>  (25) 
adg

>  <m_score__min__energy>  (25) 
-11.109999999999999

>  <m_primary>  (25) 
energy

$$$$
25:0
     RDKit          3D

 56 60  0  0  0  0  0  0  0  0999 V2000
    0.3690   17.7020  -28.1710 C   0  0  0  0  0  0  0  0  0  0  0  0
    0.8560   18.0650  -29.4590 O   0  0  0  0  0  0  0  0  0  0  0  0
    0.2010   18.9470  -30.3320 C   0  0  0  0  0  0  0  0  0  0  0  0
    0.5190   20.3160  -30.4000 C   0  0  0  0  0  0  0  0  0  0  0  0
   -0.1730   21.1550  -31.2760 C   0  0  0  0  0  0  0  0  0  0  0  0
   -1.2060   20.6460  -32.0780 C   0  0  0  0  0  0  0  0  0  0  0  0
   -1.4980   19.2820  -32.0380 C   0  0  0  0  0  0  0  0  0  0  0  0
   -0.8020   18.4380  -31.1660 C   0  0  0  0  0  0  0  0  0  0  0  0
   -2.4900   18.7590  -32.8570 O   0  0  0  0  0  0  0  0  0  0  0  0
   -3.3180   19.5770  -33.6250 C   0  0  0  0  0  0  0  0  0  0  0  0
   -4.1860   19.0350  -34.3620 O   0  0  0  0  0  0  0  0  0  0  0  0
   -3.2000   21.0180  -33.5940 N   0  0  1  0  0  0  0  0  0  0  0  0
   -4.4210   21.7020  -33.0820 C   0  0  0  0  0  0  0  0  0  0  0  0
   -5.0960   21.1660  -31.7700 C   0  0  1  0  0  0  0  0  0  0  0  0
   -4.1490   21.0770  -30.6410 C   0  0  0  0  0  0  0  0  0  0  0  0
   -3.4040   21.0010  -29.6960 C   0  0  0  0  0  0  0  0  0  0  0  0
   -2.5190   20.9470  -28.5680 C   0  0  0  0  0  0  0  0  0  0  0  0
   -2.6590   19.9420  -27.6050 C   0  0  0  0  0  0  0  0  0  0  0  0
   -1.8220   19.9480  -26.4870 C   0  0  0  0  0  0  0  0  0  0  0  0
   -0.8590   20.9500  -26.3450 C   0  0  0  0  0  0  0  0  0  0  0  0
   -0.7490   21.9350  -27.3300 C   0  0  0  0  0  0  0  0  0  0  0  0
   -1.5760   21.9140  -28.4080 N   0  0  0  0  0  0  0  0  0  0  0  0
   -6.2430   22.1640  -31.3830 C   0  0  0  0  0  0  0  0  0  0  0  0
   -7.4660   21.4700  -31.8610 C   0  0  0  0  0  0  0  0  0  0  0  0
   -8.7720   21.9620  -31.9190 C   0  0  0  0  0  0  0  0  0  0  0  0
   -9.7920   21.0980  -32.3490 C   0  0  0  0  0  0  0  0  0  0  0  0
   -9.4950   19.7660  -32.6910 C   0  0  0  0  0  0  0  0  0  0  0  0
   -8.1750   19.2920  -32.6080 C   0  0  0  0  0  0  0  0  0  0  0  0
   -7.1750   20.1780  -32.1900 C   0  0  0  0  0  0  0  0  0  0  0  0
   -5.7980   19.8830  -32.0150 N   0  0  0  0  0  0  0  0  0  0  0  0
   -5.3750   18.5520  -31.5610 C   0  0  0  0  0  0  0  0  0  0  0  0
   -1.9160   21.5500  -33.0520 C   0  0  0  0  0  0  0  0  0  0  0  0
    0.9957   18.1691  -27.3970 H   0  0  0  0  0  0  0  0  0  0  0  0
   -0.6692   18.0483  -28.0605 H   0  0  0  0  0  0  0  0  0  0  0  0
    0.4043   16.6081  -28.0605 H   0  0  0  0  0  0  0  0  0  0  0  0
    1.3150   20.7265  -29.7613 H   0  0  0  0  0  0  0  0  0  0  0  0
    0.0930   22.2206  -31.3377 H   0  0  0  0  0  0  0  0  0  0  0  0
   -1.0447   17.3656  -31.1353 H   0  0  0  0  0  0  0  0  0  0  0  0
   -3.1770   21.2860  -34.6090 H   0  0  0  0  0  0  0  0  0  0  0  0
   -4.1504   22.7525  -32.9000 H   0  0  0  0  0  0  0  0  0  0  0  0
   -5.1746   21.5186  -33.8620 H   0  0  0  0  0  0  0  0  0  0  0  0
   -3.4192   19.1564  -27.7269 H   0  0  0  0  0  0  0  0  0  0  0  0
   -1.9208   19.1656  -25.7201 H   0  0  0  0  0  0  0  0  0  0  0  0
   -0.1951   20.9634  -25.4681 H   0  0  0  0  0  0  0  0  0  0  0  0
    0.0074   22.7277  -27.2327 H   0  0  0  0  0  0  0  0  0  0  0  0
   -6.2784   22.3228  -30.2951 H   0  0  0  0  0  0  0  0  0  0  0  0
   -6.1131   23.1644  -31.8216 H   0  0  0  0  0  0  0  0  0  0  0  0
   -8.9960   23.0008  -31.6348 H   0  0  0  0  0  0  0  0  0  0  0  0
  -10.8270   21.4639  -32.4187 H   0  0  0  0  0  0  0  0  0  0  0  0
  -10.2990   19.0934  -33.0245 H   0  0  0  0  0  0  0  0  0  0  0  0
   -7.9332   18.2502  -32.8652 H   0  0  0  0  0  0  0  0  0  0  0  0
   -5.3665   18.5252  -30.4614 H   0  0  0  0  0  0  0  0  0  0  0  0
   -6.0768   17.7949  -31.9408 H   0  0  0  0  0  0  0  0  0  0  0  0
   -4.3649   18.3389  -31.9408 H   0  0  0  0  0  0  0  0  0  0  0  0
   -1.2397   21.7348  -33.8996 H   0  0  0  0  0  0  0  0  0  0  0  0
   -2.1759   22.4592  -32.4901 H   0  0  0  0  0  0  0  0  0  0  0  0
  1  2  1  0
  2  3  1  0
  3  4  2  0
  4  5  1  0
  5  6  2  0
  6  7  1  0
  7  8  2  0
  7  9  1  0
  9 10  1  0
 10 11  2  0
 10 12  1  0
 12 13  1  0
 13 14  1  0
 14 15  1  1
 15 16  3  0
 16 17  1  0
 17 18  2  0
 18 19  1  0
 19 20  2  0
 20 21  1  0
 21 22  2  0
 14 23  1  0
 23 24  1  0
 24 25  2  0
 25 26  1  0
 26 27  2  0
 27 28  1  0
 28 29  2  0
 29 30  1  0
 30 31  1  0
 12 32  1  0
  8  3  1  0
 30 14  1  0
 32  6  1  0
 22 17  1  0
 29 24  1  0
  1 33  1  0
  1 34  1  0
  1 35  1  0
  4 36  1  0
  5 37  1  0
  8 38  1  0
 12 39  1  6
 13 40  1  0
 13 41  1  0
 18 42  1  0
 19 43  1  0
 20 44  1  0
 21 45  1  0
 23 46  1  0
 23 47  1  0
 25 48  1  0
 26 49  1  0
 27 50  1  0
 28 51  1  0
 31 52  1  0
 31 53  1  0
 31 54  1  0
 32 55  1  0
 32 56  1  0
M  CHG  1  12   1
M  END
>  <UniqueID>  (26) 
25

>  <SMILES>  (26) 
COc1ccc2c(c1)OC(=O)[N@@H+](C[C@@]1(C#Cc3ccccn3)Cc3ccccc3N1C)C2

>  <Energy>  (26) 
89.09539458531705

>  <Genealogy>  (26) 
COc1ccc2c(c1)OC(=O)[NH+](CC1(C#Cc3ccccn3)Cc3ccccc3N1C)C2 (protonated)
COc1ccc2c(c1)OC(=O)[N@@H+](C[C@@]1(C#Cc3ccccn3)Cc3ccccc3N1C)C2 (chirality)
COc1ccc2c(c1)OC(=O)[N@@H+](C[C@@]1(C#Cc3ccccn3)Cc3ccccc3N1C)C2 (3D coordinates assigned)
COc1ccc2c(c1)OC(=O)[N@@H+](C[C@@]1(C#Cc3ccccn3)Cc3ccccc3N1C)C2 (nonaromatic ring conformer: 89.09539458531705 kcal/mol)

>  <smiles>  (26) 
COc1ccc2c(c1)OC(=O)N(CC1(C#Cc3ccccn3)Cc3ccccc3N1C)C2

>  <score_type>  (26) 
oracle

>  <origin>  (26) 
adg

>  <m_score__min__energy>  (26) 
-7.9500000000000002

>  <m_primary>  (26) 
energy

$$$$
26:0
     RDKit          3D

 41 42  0  0  0  0  0  0  0  0999 V2000
   -6.1320   25.2640  -29.7340 C   0  0  0  0  0  0  0  0  0  0  0  0
   -5.1000   25.2320  -30.8560 C   0  0  0  0  0  0  0  0  0  0  0  0
   -5.0020   23.8600  -31.4030 N   0  0  0  0  0  0  0  0  0  0  0  0
   -6.2400   23.0640  -31.2670 C   0  0  0  0  0  0  0  0  0  0  0  0
   -7.2520   23.4230  -32.3510 C   0  0  0  0  0  0  0  0  0  0  0  0
   -3.7660   23.1340  -31.0140 C   0  0  0  0  0  0  0  0  0  0  0  0
   -3.1010   22.2800  -32.1310 C   0  0  0  0  0  0  0  0  0  0  0  0
   -3.9300   22.1110  -33.3370 N   0  0  0  0  0  0  0  0  0  0  0  0
   -4.4520   20.7750  -33.4430 C   0  0  0  0  0  0  0  0  0  0  0  0
   -5.7620   20.3970  -33.1510 C   0  0  0  0  0  0  0  0  0  0  0  0
   -5.9610   19.0180  -33.2940 C   0  0  0  0  0  0  0  0  0  0  0  0
   -4.8280   18.3300  -33.7000 C   0  0  0  0  0  0  0  0  0  0  0  0
   -3.5460   19.4080  -33.8480 S   0  0  0  0  0  0  0  0  0  0  0  0
   -4.7730   16.8410  -33.8470 C   0  0  0  0  0  0  0  0  0  0  0  0
   -6.1770   16.2820  -34.1490 C   0  0  0  0  0  0  0  0  0  0  0  0
   -7.2340   16.7950  -33.1490 C   0  0  0  0  0  0  0  0  0  0  0  0
   -7.2210   18.3000  -33.0510 C   0  0  0  0  0  0  0  0  0  0  0  0
   -8.2610   18.9220  -32.7100 O   0  0  0  0  0  0  0  0  0  0  0  0
   -5.6174   25.2480  -28.7619 H   0  0  0  0  0  0  0  0  0  0  0  0
   -6.7337   26.1812  -29.8153 H   0  0  0  0  0  0  0  0  0  0  0  0
   -6.7894   24.3858  -29.8153 H   0  0  0  0  0  0  0  0  0  0  0  0
   -5.4065   25.9233  -31.6548 H   0  0  0  0  0  0  0  0  0  0  0  0
   -4.1205   25.5375  -30.4596 H   0  0  0  0  0  0  0  0  0  0  0  0
   -5.9901   21.9959  -31.3497 H   0  0  0  0  0  0  0  0  0  0  0  0
   -6.6883   23.2841  -30.2869 H   0  0  0  0  0  0  0  0  0  0  0  0
   -8.1896   23.7556  -31.8816 H   0  0  0  0  0  0  0  0  0  0  0  0
   -6.8477   24.2326  -32.9764 H   0  0  0  0  0  0  0  0  0  0  0  0
   -7.4483   22.5396  -32.9764 H   0  0  0  0  0  0  0  0  0  0  0  0
   -3.0302   23.8782  -30.6754 H   0  0  0  0  0  0  0  0  0  0  0  0
   -4.0722   22.4200  -30.2353 H   0  0  0  0  0  0  0  0  0  0  0  0
   -2.1604   22.7687  -32.4248 H   0  0  0  0  0  0  0  0  0  0  0  0
   -2.9465   21.2753  -31.7106 H   0  0  0  0  0  0  0  0  0  0  0  0
   -3.3320   22.2870  -34.1770 H   0  0  0  0  0  0  0  0  0  0  0  0
   -4.7030   22.8130  -33.3590 H   0  0  0  0  0  0  0  0  0  0  0  0
   -6.5491   21.1012  -32.8435 H   0  0  0  0  0  0  0  0  0  0  0  0
   -4.0940   16.5826  -34.6729 H   0  0  0  0  0  0  0  0  0  0  0  0
   -4.4070   16.4016  -32.9073 H   0  0  0  0  0  0  0  0  0  0  0  0
   -6.4703   16.5892  -35.1637 H   0  0  0  0  0  0  0  0  0  0  0  0
   -6.1313   15.1865  -34.0609 H   0  0  0  0  0  0  0  0  0  0  0  0
   -8.2297   16.4675  -33.4827 H   0  0  0  0  0  0  0  0  0  0  0  0
   -6.9973   16.3835  -32.1567 H   0  0  0  0  0  0  0  0  0  0  0  0
  1  2  1  0
  2  3  1  0
  3  4  1  0
  4  5  1  0
  3  6  1  0
  6  7  1  0
  7  8  1  0
  8  9  1  0
  9 10  2  0
 10 11  1  0
 11 12  2  0
 12 13  1  0
 12 14  1  0
 14 15  1  0
 15 16  1  0
 16 17  1  0
 17 18  2  0
 13  9  1  0
 17 11  1  0
  1 19  1  0
  1 20  1  0
  1 21  1  0
  2 22  1  0
  2 23  1  0
  4 24  1  0
  4 25  1  0
  5 26  1  0
  5 27  1  0
  5 28  1  0
  6 29  1  0
  6 30  1  0
  7 31  1  0
  7 32  1  0
  8 33  1  0
  8 34  1  0
 10 35  1  0
 14 36  1  0
 14 37  1  0
 15 38  1  0
 15 39  1  0
 16 40  1  0
 16 41  1  0
M  CHG  1   8   1
M  END
>  <UniqueID>  (27) 
26

>  <SMILES>  (27) 
CCN(CC)CC[NH2+]c1cc2c(s1)CCCC2=O

>  <Energy>  (27) 
70.36911466893959

>  <Genealogy>  (27) 
CCN(CC)CC[NH2+]c1cc2c(s1)CCCC2=O (protonated)
CCN(CC)CC[NH2+]c1cc2c(s1)CCCC2=O (3D coordinates assigned)
CCN(CC)CC[NH2+]c1cc2c(s1)CCCC2=O (nonaromatic ring conformer: 70.36911466893959 kcal/mol)

>  <smiles>  (27) 
CCN(CC)CCNc1cc2c(s1)CCCC2=O

>  <score_type>  (27) 
oracle

>  <origin>  (27) 
adg

>  <m_score__min__energy>  (27) 
-6.5700000000000003

>  <m_primary>  (27) 
energy

$$$$
27:0
     RDKit          3D

 71 70  0  0  0  0  0  0  0  0999 V2000
   -4.9190   21.1260  -32.7080 C   0  0  0  0  0  0  0  0  0  0  0  0
   -5.7930   19.9400  -33.1180 C   0  0  0  0  0  0  0  0  0  0  0  0
   -6.1790   19.0420  -31.9220 C   0  0  0  0  0  0  0  0  0  0  0  0
   -7.4560   18.2120  -32.1520 C   0  0  0  0  0  0  0  0  0  0  0  0
   -8.7750   18.9060  -31.7530 C   0  0  0  0  0  0  0  0  0  0  0  0
   -9.1260   20.1490  -32.5990 C   0  0  0  0  0  0  0  0  0  0  0  0
   -9.4760   21.3790  -31.7510 C   0  0  0  0  0  0  0  0  0  0  0  0
   -8.2670   21.8470  -30.9260 C   0  0  0  0  0  0  0  0  0  0  0  0
   -7.6130   23.1190  -31.4900 C   0  0  0  0  0  0  0  0  0  0  0  0
   -6.6800   23.8660  -30.5190 C   0  0  0  0  0  0  0  0  0  0  0  0
   -5.7130   22.9510  -29.7400 C   0  0  0  0  0  0  0  0  0  0  0  0
   -4.8040   23.7250  -28.7750 C   0  0  0  0  0  0  0  0  0  0  0  0
   -3.3220   24.2850  -29.6070 S   0  0  0  0  0  0  0  0  0  0  0  0
   -3.7120   25.0760  -30.8230 O   0  0  0  0  0  0  0  0  0  0  0  0
   -2.5160   23.0910  -30.0400 O   0  0  0  0  0  0  0  0  0  0  0  0
   -2.3640   25.2920  -28.5620 N   0  0  0  0  0  0  0  0  0  0  0  0
   -0.9630   25.2490  -28.9720 C   0  0  0  0  0  0  0  0  0  0  0  0
   -0.2450   24.1150  -28.2290 C   0  0  0  0  0  0  0  0  0  0  0  0
   -1.1740   23.0300  -27.8500 N   0  0  0  0  0  0  0  0  0  0  0  0
   -0.9020   22.4900  -26.5010 C   0  0  0  0  0  0  0  0  0  0  0  0
   -1.2180   20.9830  -26.4070 C   0  0  0  0  0  0  0  0  0  0  0  0
   -1.8800   20.4970  -27.6400 N   0  0  0  0  0  0  0  0  0  0  0  0
   -0.9420   19.7500  -28.5200 C   0  0  0  0  0  0  0  0  0  0  0  0
   -1.1120   20.2140  -29.9620 C   0  0  0  0  0  0  0  0  0  0  0  0
   -3.0730   19.6860  -27.3040 C   0  0  0  0  0  0  0  0  0  0  0  0
   -2.8280   18.8580  -26.0430 C   0  0  0  0  0  0  0  0  0  0  0  0
   -4.8744   21.1865  -31.6106 H   0  0  0  0  0  0  0  0  0  0  0  0
   -3.9039   20.9895  -33.1093 H   0  0  0  0  0  0  0  0  0  0  0  0
   -5.3500   22.0551  -33.1093 H   0  0  0  0  0  0  0  0  0  0  0  0
   -6.7138   20.3248  -33.5807 H   0  0  0  0  0  0  0  0  0  0  0  0
   -5.2107   19.3255  -33.8204 H   0  0  0  0  0  0  0  0  0  0  0  0
   -5.3468   18.3501  -31.7255 H   0  0  0  0  0  0  0  0  0  0  0  0
   -6.3813   19.7108  -31.0724 H   0  0  0  0  0  0  0  0  0  0  0  0
   -7.5124   17.9650  -33.2224 H   0  0  0  0  0  0  0  0  0  0  0  0
   -7.3671   17.3305  -31.5000 H   0  0  0  0  0  0  0  0  0  0  0  0
   -9.5921   18.1771  -31.8579 H   0  0  0  0  0  0  0  0  0  0  0  0
   -8.6429   19.2583  -30.7193 H   0  0  0  0  0  0  0  0  0  0  0  0
   -8.2615   20.3959  -33.2327 H   0  0  0  0  0  0  0  0  0  0  0  0
  -10.0166   19.8983  -33.1939 H   0  0  0  0  0  0  0  0  0  0  0  0
   -9.7939   22.1951  -32.4165 H   0  0  0  0  0  0  0  0  0  0  0  0
  -10.2858   21.1058  -31.0584 H   0  0  0  0  0  0  0  0  0  0  0  0
   -8.6014   22.0507  -29.8980 H   0  0  0  0  0  0  0  0  0  0  0  0
   -7.5140   21.0459  -30.9608 H   0  0  0  0  0  0  0  0  0  0  0  0
   -7.0250   22.8348  -32.3751 H   0  0  0  0  0  0  0  0  0  0  0  0
   -8.4379   23.8119  -31.7123 H   0  0  0  0  0  0  0  0  0  0  0  0
   -6.0826   24.5847  -31.0991 H   0  0  0  0  0  0  0  0  0  0  0  0
   -7.3252   24.3520  -29.7723 H   0  0  0  0  0  0  0  0  0  0  0  0
   -6.3050   22.2275  -29.1602 H   0  0  0  0  0  0  0  0  0  0  0  0
   -5.0647   22.4534  -30.4763 H   0  0  0  0  0  0  0  0  0  0  0  0
   -5.3504   24.5970  -28.3863 H   0  0  0  0  0  0  0  0  0  0  0  0
   -4.5139   23.0559  -27.9515 H   0  0  0  0  0  0  0  0  0  0  0  0
   -0.9039   25.0717  -30.0560 H   0  0  0  0  0  0  0  0  0  0  0  0
   -0.4813   26.2077  -28.7294 H   0  0  0  0  0  0  0  0  0  0  0  0
    0.5375   23.7013  -28.8821 H   0  0  0  0  0  0  0  0  0  0  0  0
    0.1873   24.5313  -27.3072 H   0  0  0  0  0  0  0  0  0  0  0  0
   -1.1100   22.2620  -28.5610 H   0  0  0  0  0  0  0  0  0  0  0  0
   -2.1590   23.3840  -27.8830 H   0  0  0  0  0  0  0  0  0  0  0  0
    0.1609   22.6454  -26.2640 H   0  0  0  0  0  0  0  0  0  0  0  0
   -1.5505   23.0182  -25.7866 H   0  0  0  0  0  0  0  0  0  0  0  0
   -0.2796   20.4280  -26.2608 H   0  0  0  0  0  0  0  0  0  0  0  0
   -1.8997   20.8221  -25.5588 H   0  0  0  0  0  0  0  0  0  0  0  0
    0.0921   19.9372  -28.1950 H   0  0  0  0  0  0  0  0  0  0  0  0
   -1.1600   18.6738  -28.4551 H   0  0  0  0  0  0  0  0  0  0  0  0
   -1.4904   21.2468  -29.9727 H   0  0  0  0  0  0  0  0  0  0  0  0
   -0.1408   20.1740  -30.4770 H   0  0  0  0  0  0  0  0  0  0  0  0
   -1.8275   19.5560  -30.4770 H   0  0  0  0  0  0  0  0  0  0  0  0
   -3.9288   20.3561  -27.1349 H   0  0  0  0  0  0  0  0  0  0  0  0
   -3.2818   19.0023  -28.1400 H   0  0  0  0  0  0  0  0  0  0  0  0
   -3.0120   19.4799  -25.1545 H   0  0  0  0  0  0  0  0  0  0  0  0
   -3.5091   17.9942  -26.0334 H   0  0  0  0  0  0  0  0  0  0  0  0
   -1.7866   18.5039  -26.0334 H   0  0  0  0  0  0  0  0  0  0  0  0
  1  2  1  0
  2  3  1  0
  3  4  1  0
  4  5  1  0
  5  6  1  0
  6  7  1  0
  7  8  1  0
  8  9  1  0
  9 10  1  0
 10 11  1  0
 11 12  1  0
 12 13  1  0
 13 14  2  0
 13 15  2  0
 13 16  1  0
 16 17  1  0
 17 18  1  0
 18 19  1  0
 19 20  1  0
 20 21  1  0
 21 22  1  0
 22 23  1  0
 23 24  1  0
 22 25  1  0
 25 26  1  0
  1 27  1  0
  1 28  1  0
  1 29  1  0
  2 30  1  0
  2 31  1  0
  3 32  1  0
  3 33  1  0
  4 34  1  0
  4 35  1  0
  5 36  1  0
  5 37  1  0
  6 38  1  0
  6 39  1  0
  7 40  1  0
  7 41  1  0
  8 42  1  0
  8 43  1  0
  9 44  1  0
  9 45  1  0
 10 46  1  0
 10 47  1  0
 11 48  1  0
 11 49  1  0
 12 50  1  0
 12 51  1  0
 17 52  1  0
 17 53  1  0
 18 54  1  0
 18 55  1  0
 19 56  1  0
 19 57  1  0
 20 58  1  0
 20 59  1  0
 21 60  1  0
 21 61  1  0
 23 62  1  0
 23 63  1  0
 24 64  1  0
 24 65  1  0
 24 66  1  0
 25 67  1  0
 25 68  1  0
 26 69  1  0
 26 70  1  0
 26 71  1  0
M  CHG  2  16  -1  19   1
M  END
>  <UniqueID>  (28) 
27

>  <SMILES>  (28) 
CCCCCCCCCCCCS(=O)(=O)[N-]CC[NH2+]CCN(CC)CC

>  <Energy>  (28) 
45.98100077761119

>  <Genealogy>  (28) 
CCCCCCCCCCCCS(=O)(=O)[N-]CC[NH2+]CCN(CC)CC (protonated)
CCCCCCCCCCCCS(=O)(=O)[N-]CC[NH2+]CCN(CC)CC (3D coordinates assigned)
CCCCCCCCCCCCS(=O)(=O)[N-]CC[NH2+]CCN(CC)CC (optimized conformer: 45.98100077761119 kcal/mol)

>  <smiles>  (28) 
CCCCCCCCCCCCS(=O)(=O)NCCNCCN(CC)CC

>  <score_type>  (28) 
oracle

>  <origin>  (28) 
adg

>  <m_score__min__energy>  (28) 
-8.3300000000000001

>  <m_primary>  (28) 
energy

$$$$
28:0
     RDKit          3D

 36 38  0  0  0  0  0  0  0  0999 V2000
   -5.9974   18.2744  -34.5097 H   0  0  0  0  0  0  0  0  0  0  0  0
   -4.9060   18.1450  -34.4630 C   0  0  0  0  0  0  0  0  0  0  0  0
   -4.3140   17.0220  -35.0490 C   0  0  0  0  0  0  0  0  0  0  0  0
   -4.9420   16.2807  -35.5649 H   0  0  0  0  0  0  0  0  0  0  0  0
   -2.9230   16.8330  -34.9840 C   0  0  0  0  0  0  0  0  0  0  0  0
   -2.2810   15.6480  -35.6620 C   0  0  0  0  0  0  0  0  0  0  0  0
   -3.0740   15.2440  -36.7190 F   0  0  0  0  0  0  0  0  0  0  0  0
   -2.1410   14.5950  -34.7750 F   0  0  0  0  0  0  0  0  0  0  0  0
   -1.0250   15.9800  -36.1400 F   0  0  0  0  0  0  0  0  0  0  0  0
   -2.1320   17.8120  -34.3610 C   0  0  0  0  0  0  0  0  0  0  0  0
   -1.0386   17.6946  -34.3357 H   0  0  0  0  0  0  0  0  0  0  0  0
   -2.7220   18.9340  -33.7730 C   0  0  0  0  0  0  0  0  0  0  0  0
   -2.0916   19.6849  -33.2742 H   0  0  0  0  0  0  0  0  0  0  0  0
   -4.1160   19.1090  -33.8150 C   0  0  0  0  0  0  0  0  0  0  0  0
   -4.7360   20.3020  -33.2050 C   0  0  0  0  0  0  0  0  0  0  0  0
   -5.9210   20.2920  -32.5560 N   0  0  0  0  0  0  0  0  0  0  0  0
   -6.0710   21.5390  -32.1470 N   0  0  0  0  0  0  0  0  0  0  0  0
   -7.1900   22.0140  -31.3380 C   0  0  0  0  0  0  0  0  0  0  0  0
   -6.9372   21.9004  -30.2735 H   0  0  0  0  0  0  0  0  0  0  0  0
   -8.0802   21.4190  -31.5899 H   0  0  0  0  0  0  0  0  0  0  0  0
   -7.4880   23.4640  -31.6210 C   0  0  0  0  0  0  0  0  0  0  0  0
   -8.6630   23.7910  -31.9310 O   0  0  0  0  0  0  0  0  0  0  0  0
   -6.4660   24.4740  -31.6290 N   0  0  0  0  0  0  0  0  0  0  0  0
   -5.4520   24.5730  -30.8210 C   0  0  0  0  0  0  0  0  0  0  0  0
   -4.2690   25.0880  -31.2050 N   0  0  0  0  0  0  0  0  0  0  0  0
   -3.4910   25.0490  -30.1620 O   0  0  0  0  0  0  0  0  0  0  0  0
   -4.1180   24.5480  -29.1230 C   0  0  0  0  0  0  0  0  0  0  0  0
   -3.5010   24.3410  -27.7810 C   0  0  0  0  0  0  0  0  0  0  0  0
   -4.2340   24.5869  -26.9986 H   0  0  0  0  0  0  0  0  0  0  0  0
   -3.1926   23.2902  -27.6773 H   0  0  0  0  0  0  0  0  0  0  0  0
   -2.6213   24.9932  -27.6773 H   0  0  0  0  0  0  0  0  0  0  0  0
   -5.4080   24.2230  -29.4830 C   0  0  0  0  0  0  0  0  0  0  0  0
   -6.2057   23.7918  -28.8604 H   0  0  0  0  0  0  0  0  0  0  0  0
   -5.0420   22.2760  -32.5240 N   0  0  0  0  0  0  0  0  0  0  0  0
   -4.9170   23.2920  -32.3140 H   0  0  0  0  0  0  0  0  0  0  0  0
   -4.1790   21.5330  -33.1930 N   0  0  0  0  0  0  0  0  0  0  0  0
  1  2  1  0
  2  3  2  0
  3  4  1  0
  3  5  1  0
  5  6  1  0
  6  7  1  0
  6  8  1  0
  6  9  1  0
  5 10  2  0
 10 11  1  0
 10 12  1  0
 12 13  1  0
 12 14  2  0
 14 15  1  0
 15 16  2  0
 16 17  1  0
 17 18  1  0
 18 19  1  0
 18 20  1  0
 18 21  1  0
 21 22  2  0
 21 23  1  0
 23 24  2  0
 24 25  1  0
 25 26  1  0
 26 27  1  0
 27 28  1  0
 28 29  1  0
 28 30  1  0
 28 31  1  0
 27 32  2  0
 32 33  1  0
 17 34  1  0
 34 35  1  0
 34 36  2  0
 14  2  1  0
 36 15  1  0
 32 24  1  0
M  CHG  2  25  -1  34   1
M  END
>  <UniqueID>  (29) 
28

>  <SMILES>  (29) 
Cc1c/c(=N\C(=O)Cn2nc(-c3ccc(C(F)(F)F)cc3)n[nH+]2)[n-]o1

>  <Energy>  (29) 
112.32502160155815

>  <Genealogy>  (29) 
Cc1cc(=NC(=O)Cn2nc(-c3ccc(C(F)(F)F)cc3)n[nH+]2)[n-]o1 (protonated)
Cc1c/c(=N\C(=O)Cn2nc(-c3ccc(C(F)(F)F)cc3)n[nH+]2)[n-]o1 (cis-trans isomerization)
Cc1c/c(=N\C(=O)Cn2nc(-c3ccc(C(F)(F)F)cc3)n[nH+]2)[n-]o1 (3D coordinates assigned)
Cc1c/c(=N\C(=O)Cn2nc(-c3ccc(C(F)(F)F)cc3)n[nH+]2)[n-]o1 (optimized conformer: 112.32502160155815 kcal/mol)

>  <smiles>  (29) 
Cc1cc(=NC(=O)Cn2nnc(-c3ccc(C(F)(F)F)cc3)n2)[nH]o1

>  <score_type>  (29) 
oracle

>  <origin>  (29) 
adg

>  <m_score__min__energy>  (29) 
-8.1099999999999994

>  <m_primary>  (29) 
energy

$$$$
29:0
     RDKit          3D

 64 69  0  0  0  0  0  0  0  0999 V2000
   -1.1450   14.8250  -37.1900 C   0  0  0  0  0  0  0  0  0  0  0  0
   -2.0900   15.5170  -36.3810 O   0  0  0  0  0  0  0  0  0  0  0  0
   -3.1560   14.9050  -35.7050 C   0  0  0  0  0  0  0  0  0  0  0  0
   -3.5070   13.5570  -35.9260 C   0  0  0  0  0  0  0  0  0  0  0  0
   -4.5910   12.9900  -35.2500 C   0  0  0  0  0  0  0  0  0  0  0  0
   -5.3360   13.7570  -34.3510 C   0  0  0  0  0  0  0  0  0  0  0  0
   -6.3900   13.2040  -33.7000 F   0  0  0  0  0  0  0  0  0  0  0  0
   -4.9950   15.0910  -34.1220 C   0  0  0  0  0  0  0  0  0  0  0  0
   -3.9040   15.6670  -34.7890 C   0  0  0  0  0  0  0  0  0  0  0  0
   -3.5680   17.0380  -34.5380 N   0  0  0  0  0  0  0  0  0  0  0  0
   -2.1680   17.3810  -34.2300 C   0  0  0  0  0  0  0  0  0  0  0  0
   -1.9420   18.8970  -34.1440 C   0  0  0  0  0  0  0  0  0  0  0  0
   -3.0400   19.5490  -33.3590 C   0  0  0  0  0  0  0  0  0  0  0  0
   -2.7630   20.5820  -32.5230 N   0  0  0  0  0  0  0  0  0  0  0  0
   -3.7490   21.2150  -31.8360 C   0  0  0  0  0  0  0  0  0  0  0  0
   -3.4090   22.3380  -30.9330 C   0  0  0  0  0  0  0  0  0  0  0  0
   -2.2040   22.3630  -30.1750 C   0  0  0  0  0  0  0  0  0  0  0  0
   -1.2120   21.2310  -30.2400 C   0  0  0  0  0  0  0  0  0  0  0  0
   -1.9160   23.4770  -29.3450 C   0  0  0  0  0  0  0  0  0  0  0  0
   -2.8130   24.5520  -29.2420 C   0  0  0  0  0  0  0  0  0  0  0  0
   -3.9870   24.4960  -29.9850 C   0  0  0  0  0  0  0  0  0  0  0  0
   -4.9510   25.4300  -30.0440 N   0  0  0  0  0  0  0  0  0  0  0  0
   -5.8670   24.9610  -30.9200 C   0  0  0  0  0  0  0  0  0  0  0  0
   -5.4820   23.7220  -31.4170 C   0  0  0  0  0  0  0  0  0  0  0  0
   -4.2780   23.4340  -30.8010 C   0  0  0  0  0  0  0  0  0  0  0  0
   -5.0430   20.8160  -31.9890 N   0  0  0  0  0  0  0  0  0  0  0  0
   -5.3740   19.7960  -32.8300 C   0  0  0  0  0  0  0  0  0  0  0  0
   -6.7500   19.4120  -32.9660 N   0  0  0  0  0  0  0  0  0  0  0  0
   -7.1780   18.0640  -32.5880 C   0  0  0  0  0  0  0  0  0  0  0  0
   -8.1460   18.1690  -31.4050 C   0  0  0  0  0  0  0  0  0  0  0  0
   -9.2170   19.0460  -31.7090 O   0  0  0  0  0  0  0  0  0  0  0  0
   -8.7280   20.3640  -31.9010 C   0  0  0  0  0  0  0  0  0  0  0  0
   -7.7920   20.4280  -33.1130 C   0  0  0  0  0  0  0  0  0  0  0  0
   -4.3610   19.1300  -33.5440 C   0  0  0  0  0  0  0  0  0  0  0  0
   -4.6350   18.0500  -34.5590 C   0  0  0  0  0  0  0  0  0  0  0  0
   -0.4261   14.2985  -36.5450 H   0  0  0  0  0  0  0  0  0  0  0  0
   -1.6700   14.0962  -37.8250 H   0  0  0  0  0  0  0  0  0  0  0  0
   -0.6087   15.5455  -37.8250 H   0  0  0  0  0  0  0  0  0  0  0  0
   -2.9247   12.9489  -36.6339 H   0  0  0  0  0  0  0  0  0  0  0  0
   -4.8581   11.9376  -35.4262 H   0  0  0  0  0  0  0  0  0  0  0  0
   -5.5846   15.6933  -33.4152 H   0  0  0  0  0  0  0  0  0  0  0  0
   -1.8976   16.9282  -33.2647 H   0  0  0  0  0  0  0  0  0  0  0  0
   -1.5406   16.9943  -35.0466 H   0  0  0  0  0  0  0  0  0  0  0  0
   -0.9789   19.0917  -33.6495 H   0  0  0  0  0  0  0  0  0  0  0  0
   -1.9373   19.3138  -35.1620 H   0  0  0  0  0  0  0  0  0  0  0  0
   -0.9411   20.9218  -29.2197 H   0  0  0  0  0  0  0  0  0  0  0  0
   -1.6608   20.3804  -30.7739 H   0  0  0  0  0  0  0  0  0  0  0  0
   -0.3098   21.5643  -30.7739 H   0  0  0  0  0  0  0  0  0  0  0  0
   -0.9762   23.4987  -28.7738 H   0  0  0  0  0  0  0  0  0  0  0  0
   -2.5937   25.4127  -28.5931 H   0  0  0  0  0  0  0  0  0  0  0  0
   -4.9820   26.3400  -29.5330 H   0  0  0  0  0  0  0  0  0  0  0  0
   -6.7908   25.4880  -31.2010 H   0  0  0  0  0  0  0  0  0  0  0  0
   -6.0215   23.1008  -32.1470 H   0  0  0  0  0  0  0  0  0  0  0  0
   -5.7970   21.2840  -31.4380 H   0  0  0  0  0  0  0  0  0  0  0  0
   -7.6840   17.5842  -33.4387 H   0  0  0  0  0  0  0  0  0  0  0  0
   -6.3040   17.4593  -32.3043 H   0  0  0  0  0  0  0  0  0  0  0  0
   -8.5497   17.1710  -31.1794 H   0  0  0  0  0  0  0  0  0  0  0  0
   -7.6003   18.5659  -30.5363 H   0  0  0  0  0  0  0  0  0  0  0  0
   -9.5776   21.0431  -32.0656 H   0  0  0  0  0  0  0  0  0  0  0  0
   -8.1647   20.6642  -31.0052 H   0  0  0  0  0  0  0  0  0  0  0  0
   -8.3656   20.2373  -34.0321 H   0  0  0  0  0  0  0  0  0  0  0  0
   -7.3318   21.4252  -33.1741 H   0  0  0  0  0  0  0  0  0  0  0  0
   -5.5953   17.5679  -34.3238 H   0  0  0  0  0  0  0  0  0  0  0  0
   -4.6730   18.5049  -35.5598 H   0  0  0  0  0  0  0  0  0  0  0  0
  1  2  1  0
  2  3  1  0
  3  4  2  0
  4  5  1  0
  5  6  2  0
  6  7  1  0
  6  8  1  0
  8  9  2  0
  9 10  1  0
 10 11  1  0
 11 12  1  0
 12 13  1  0
 13 14  2  0
 14 15  1  0
 15 16  1  0
 16 17  2  0
 17 18  1  0
 17 19  1  0
 19 20  2  0
 20 21  1  0
 21 22  1  0
 22 23  1  0
 23 24  2  0
 24 25  1  0
 15 26  2  0
 26 27  1  0
 27 28  1  0
 28 29  1  0
 29 30  1  0
 30 31  1  0
 31 32  1  0
 32 33  1  0
 27 34  2  0
 34 35  1  0
  9  3  1  0
 35 10  1  0
 34 13  1  0
 25 16  1  0
 33 28  1  0
 25 21  2  0
  1 36  1  0
  1 37  1  0
  1 38  1  0
  4 39  1  0
  5 40  1  0
  8 41  1  0
 11 42  1  0
 11 43  1  0
 12 44  1  0
 12 45  1  0
 18 46  1  0
 18 47  1  0
 18 48  1  0
 19 49  1  0
 20 50  1  0
 22 51  1  0
 23 52  1  0
 24 53  1  0
 26 54  1  0
 29 55  1  0
 29 56  1  0
 30 57  1  0
 30 58  1  0
 32 59  1  0
 32 60  1  0
 33 61  1  0
 33 62  1  0
 35 63  1  0
 35 64  1  0
M  CHG  1  26   1
M  END
>  <UniqueID>  (30) 
29

>  <SMILES>  (30) 
COc1ccc(F)cc1N1CCc2nc(-c3c(C)ccc4[nH]ccc34)[nH+]c(N3CCOCC3)c2C1

>  <Energy>  (30) 
123.03487592802242

>  <Genealogy>  (30) 
COc1ccc(F)cc1N1CCc2nc(-c3c(C)ccc4[nH]ccc34)[nH+]c(N3CCOCC3)c2C1 (protonated)
COc1ccc(F)cc1N1CCc2nc(-c3c(C)ccc4[nH]ccc34)[nH+]c(N3CCOCC3)c2C1 (3D coordinates assigned)
COc1ccc(F)cc1N1CCc2nc(-c3c(C)ccc4[nH]ccc34)[nH+]c(N3CCOCC3)c2C1 (nonaromatic ring conformer: 123.03487592802242 kcal/mol)

>  <smiles>  (30) 
COc1ccc(F)cc1N1CCc2nc(-c3c(C)ccc4[nH]ccc34)nc(N3CCOCC3)c2C1

>  <score_type>  (30) 
oracle

>  <origin>  (30) 
adg

>  <m_score__min__energy>  (30) 
-8.3900000000000006

>  <m_primary>  (30) 
energy

$$$$
30:0
     RDKit          3D

 37 39  0  0  0  0  0  0  0  0999 V2000
   -9.7080   20.8560  -32.0120 C   0  0  0  0  0  0  0  0  0  0  0  0
   -8.2810   20.4730  -32.3440 C   0  0  0  0  0  0  0  0  0  0  0  0
   -8.0140   19.1080  -32.5060 C   0  0  0  0  0  0  0  0  0  0  0  0
   -6.7290   18.6720  -32.7700 C   0  0  0  0  0  0  0  0  0  0  0  0
   -5.6890   19.5910  -32.8540 C   0  0  0  0  0  0  0  0  0  0  0  0
   -4.3870   19.1360  -33.1220 C   0  0  0  0  0  0  0  0  0  0  0  0
   -3.3320   20.0380  -33.2100 C   0  0  0  0  0  0  0  0  0  0  0  0
   -3.5620   21.3960  -33.0230 C   0  0  0  0  0  0  0  0  0  0  0  0
   -4.8490   21.8650  -32.7510 C   0  0  0  0  0  0  0  0  0  0  0  0
   -5.9540   20.9760  -32.6710 C   0  0  0  0  0  0  0  0  0  0  0  0
   -7.2590   21.4060  -32.4350 N   0  0  0  0  0  0  0  0  0  0  0  0
   -7.5920   22.8520  -32.3360 C   0  0  0  0  0  0  0  0  0  0  0  0
   -7.6180   23.3390  -30.8740 C   0  0  0  0  0  0  0  0  0  0  0  0
   -6.2460   23.6600  -30.3450 C   0  0  0  0  0  0  0  0  0  0  0  0
   -5.5570   24.7950  -30.8050 C   0  0  0  0  0  0  0  0  0  0  0  0
   -4.2560   25.0560  -30.3630 C   0  0  0  0  0  0  0  0  0  0  0  0
   -3.6370   24.1920  -29.4560 C   0  0  0  0  0  0  0  0  0  0  0  0
   -1.8550   24.5430  -28.8660 Br  0  0  0  0  0  0  0  0  0  0  0  0
   -4.3210   23.0660  -28.9860 C   0  0  0  0  0  0  0  0  0  0  0  0
   -5.6200   22.7990  -29.4280 C   0  0  0  0  0  0  0  0  0  0  0  0
   -9.8339   20.8898  -30.9198 H   0  0  0  0  0  0  0  0  0  0  0  0
   -9.9305   21.8457  -32.4375 H   0  0  0  0  0  0  0  0  0  0  0  0
  -10.3961   20.1108  -32.4375 H   0  0  0  0  0  0  0  0  0  0  0  0
   -8.8323   18.3777  -32.4226 H   0  0  0  0  0  0  0  0  0  0  0  0
   -6.5296   17.5998  -32.9134 H   0  0  0  0  0  0  0  0  0  0  0  0
   -4.2011   18.0610  -33.2629 H   0  0  0  0  0  0  0  0  0  0  0  0
   -2.3160   19.6768  -33.4275 H   0  0  0  0  0  0  0  0  0  0  0  0
   -2.7246   22.1061  -33.0897 H   0  0  0  0  0  0  0  0  0  0  0  0
   -5.0099   22.9421  -32.5959 H   0  0  0  0  0  0  0  0  0  0  0  0
   -6.8366   23.4292  -32.8893 H   0  0  0  0  0  0  0  0  0  0  0  0
   -8.5955   22.9998  -32.7615 H   0  0  0  0  0  0  0  0  0  0  0  0
   -8.2387   24.2453  -30.8158 H   0  0  0  0  0  0  0  0  0  0  0  0
   -8.0293   22.5246  -30.2595 H   0  0  0  0  0  0  0  0  0  0  0  0
   -6.0425   25.4805  -31.5151 H   0  0  0  0  0  0  0  0  0  0  0  0
   -3.7191   25.9431  -30.7301 H   0  0  0  0  0  0  0  0  0  0  0  0
   -3.8358   22.3893  -28.2672 H   0  0  0  0  0  0  0  0  0  0  0  0
   -6.1539   21.9118  -29.0566 H   0  0  0  0  0  0  0  0  0  0  0  0
  1  2  1  0
  2  3  2  0
  3  4  1  0
  4  5  2  0
  5  6  1  0
  6  7  2  0
  7  8  1  0
  8  9  2  0
  9 10  1  0
 10 11  2  0
 11 12  1  0
 12 13  1  0
 13 14  1  0
 14 15  2  0
 15 16  1  0
 16 17  2  0
 17 18  1  0
 17 19  1  0
 19 20  2  0
 11  2  1  0
 20 14  1  0
 10  5  1  0
  1 21  1  0
  1 22  1  0
  1 23  1  0
  3 24  1  0
  4 25  1  0
  6 26  1  0
  7 27  1  0
  8 28  1  0
  9 29  1  0
 12 30  1  0
 12 31  1  0
 13 32  1  0
 13 33  1  0
 15 34  1  0
 16 35  1  0
 19 36  1  0
 20 37  1  0
M  CHG  1  11   1
M  END
>  <UniqueID>  (31) 
30

>  <SMILES>  (31) 
Cc1ccc2ccccc2[n+]1CCc1ccc(Br)cc1

>  <Energy>  (31) 
48.27672213071225

>  <Genealogy>  (31) 
Cc1ccc2ccccc2[n+]1CCc1ccc(Br)cc1 (3D coordinates assigned)
Cc1ccc2ccccc2[n+]1CCc1ccc(Br)cc1 (optimized conformer: 48.27672213071225 kcal/mol)

>  <smiles>  (31) 
Cc1ccc2ccccc2[n+]1CCc1ccc(Br)cc1

>  <score_type>  (31) 
oracle

>  <origin>  (31) 
adg

>  <m_score__min__energy>  (31) 
-7.7400000000000002

>  <m_primary>  (31) 
energy

$$$$
31:0
     RDKit          3D

 39 42  0  0  1  0  0  0  0  0999 V2000
  -10.2270   21.9270  -31.1330 O   0  0  0  0  0  0  0  0  0  0  0  0
   -9.4240   22.5680  -31.7970 N   0  0  0  0  0  0  0  0  0  0  0  0
   -9.8640   23.7500  -32.3830 O   0  0  0  0  0  0  0  0  0  0  0  0
   -8.0850   22.1300  -31.9690 C   0  0  0  0  0  0  0  0  0  0  0  0
   -7.8350   20.8700  -32.4340 C   0  0  0  0  0  0  0  0  0  0  0  0
   -6.5390   20.3690  -32.6290 C   0  0  0  0  0  0  0  0  0  0  0  0
   -6.3360   19.0050  -33.1310 C   0  0  0  0  0  0  0  0  0  0  0  0
   -6.8360   17.8910  -32.5370 C   0  0  0  0  0  0  0  0  0  0  0  0
   -6.5920   16.6980  -33.0760 C   0  0  0  0  0  0  0  0  0  0  0  0
   -5.8430   16.6500  -34.2080 C   0  0  0  0  0  0  0  0  0  0  0  0
   -5.4860   18.4000  -34.4950 S   0  0  0  0  0  0  0  0  0  0  0  0
   -5.5240   21.2210  -32.3250 C   0  0  0  0  0  0  0  0  0  0  0  0
   -4.2330   20.8990  -32.4550 N   0  0  0  0  0  0  0  0  0  0  0  0
   -3.2180   21.7510  -32.1520 C   0  0  0  0  0  0  0  0  0  0  0  0
   -3.4570   23.0010  -31.6900 N   0  0  0  0  0  0  0  0  0  0  0  0
   -4.7540   23.3850  -31.5390 C   0  0  0  0  0  0  0  0  0  0  0  0
   -5.0020   24.5640  -31.1040 N   0  0  0  0  0  0  0  0  0  0  0  0
   -5.0210   24.7480  -29.6630 C   0  0  0  0  0  0  0  0  0  0  0  0
   -3.7690   24.3230  -29.0090 C   0  0  0  0  0  0  0  0  0  0  0  0
   -3.8290   23.2700  -28.1180 C   0  0  0  0  0  0  0  0  0  0  0  0
   -2.6890   22.8180  -27.4660 C   0  0  0  0  0  0  0  0  0  0  0  0
   -1.4870   23.4610  -27.7420 C   0  0  0  0  0  0  0  0  0  0  0  0
   -1.4970   24.5060  -28.6420 C   0  0  0  0  0  0  0  0  0  0  0  0
   -2.6050   24.9340  -29.2660 N   0  0  0  0  0  0  0  0  0  0  0  0
   -5.7730   22.5160  -31.8490 C   0  0  0  0  0  0  0  0  0  0  0  0
   -7.0580   22.9880  -31.6640 C   0  0  0  0  0  0  0  0  0  0  0  0
   -8.6897   20.2177  -32.6664 H   0  0  0  0  0  0  0  0  0  0  0  0
   -7.4369   17.9732  -31.6193 H   0  0  0  0  0  0  0  0  0  0  0  0
   -6.9854   15.7785  -32.6180 H   0  0  0  0  0  0  0  0  0  0  0  0
   -5.5337   15.7742  -34.7974 H   0  0  0  0  0  0  0  0  0  0  0  0
   -3.9590   19.9840  -32.7930 H   0  0  0  0  0  0  0  0  0  0  0  0
   -2.1784   21.4171  -32.2853 H   0  0  0  0  0  0  0  0  0  0  0  0
   -5.1836   25.8145  -29.4483 H   0  0  0  0  0  0  0  0  0  0  0  0
   -5.8300   24.1194  -29.2626 H   0  0  0  0  0  0  0  0  0  0  0  0
   -4.7947   22.7814  -27.9215 H   0  0  0  0  0  0  0  0  0  0  0  0
   -2.7352   21.9797  -26.7553 H   0  0  0  0  0  0  0  0  0  0  0  0
   -0.5528   23.1443  -27.2552 H   0  0  0  0  0  0  0  0  0  0  0  0
   -0.5466   25.0153  -28.8597 H   0  0  0  0  0  0  0  0  0  0  0  0
   -7.2493   24.0045  -31.2896 H   0  0  0  0  0  0  0  0  0  0  0  0
  1  2  2  0
  2  3  1  0
  2  4  1  0
  4  5  2  0
  5  6  1  0
  6  7  1  0
  7  8  2  0
  8  9  1  0
  9 10  2  0
 10 11  1  0
  6 12  2  0
 12 13  1  0
 13 14  1  0
 14 15  2  0
 15 16  1  0
 16 17  2  0
 17 18  1  0
 18 19  1  0
 19 20  2  0
 20 21  1  0
 21 22  2  0
 22 23  1  0
 23 24  2  0
 16 25  1  0
 25 26  2  0
 26  4  1  0
 11  7  1  0
 25 12  1  0
 24 19  1  0
  5 27  1  0
  8 28  1  0
  9 29  1  0
 10 30  1  0
 13 31  1  0
 14 32  1  0
 18 33  1  0
 18 34  1  0
 20 35  1  0
 21 36  1  0
 22 37  1  0
 23 38  1  0
 26 39  1  0
M  CHG  2   2   1   3  -1
M  END
>  <smiles>  (32) 
O=[N+]([O-])c1cc(-c2cccs2)c2[nH]cnc(=NCc3ccccn3)c2c1

>  <score_type>  (32) 
oracle

>  <origin>  (32) 
adg

>  <m_score__min__energy>  (32) 
-9.1799999999999997

>  <m_primary>  (32) 
energy

$$$$
32:0
     RDKit          3D

 39 41  0  0  0  0  0  0  0  0999 V2000
   -6.5950   25.7030  -29.3220 C   0  0  0  0  0  0  0  0  0  0  0  0
   -5.6050   25.6770  -30.4660 C   0  0  0  0  0  0  0  0  0  0  0  0
   -4.8360   24.4430  -30.4790 N   0  0  0  0  0  0  0  0  0  0  0  0
   -3.5070   24.4820  -29.9420 C   0  0  0  0  0  0  0  0  0  0  0  0
   -3.4340   23.9650  -28.5200 C   0  0  0  0  0  0  0  0  0  0  0  0
   -5.4710   23.2980  -31.0220 C   0  0  0  0  0  0  0  0  0  0  0  0
   -4.6970   22.3120  -31.4720 N   0  0  0  0  0  0  0  0  0  0  0  0
   -5.1570   21.1930  -32.0150 C   0  0  0  0  0  0  0  0  0  0  0  0
   -4.2990   20.3270  -32.4290 N   0  0  0  0  0  0  0  0  0  0  0  0
   -6.5490   20.9760  -32.1510 C   0  0  0  0  0  0  0  0  0  0  0  0
   -7.1610   19.9330  -32.6790 C   0  0  0  0  0  0  0  0  0  0  0  0
   -6.5170   18.7080  -33.2190 C   0  0  0  0  0  0  0  0  0  0  0  0
   -6.3840   17.6750  -32.3040 C   0  0  0  0  0  0  0  0  0  0  0  0
   -5.7760   16.4800  -32.6470 C   0  0  0  0  0  0  0  0  0  0  0  0
   -5.3010   16.3670  -33.9590 C   0  0  0  0  0  0  0  0  0  0  0  0
   -4.4620   14.7100  -34.4150 Br  0  0  0  0  0  0  0  0  0  0  0  0
   -5.4440   17.4040  -34.8480 C   0  0  0  0  0  0  0  0  0  0  0  0
   -6.0570   18.6130  -34.5080 C   0  0  0  0  0  0  0  0  0  0  0  0
   -8.5870   19.9430  -32.7250 C   0  0  0  0  0  0  0  0  0  0  0  0
   -9.0440   21.5590  -31.9620 S   0  0  0  0  0  0  0  0  0  0  0  0
   -7.2800   22.0610  -31.6540 C   0  0  0  0  0  0  0  0  0  0  0  0
   -6.7890   23.1670  -31.1170 N   0  0  0  0  0  0  0  0  0  0  0  0
   -6.0511   25.6887  -28.3660 H   0  0  0  0  0  0  0  0  0  0  0  0
   -7.2032   26.6174  -29.3842 H   0  0  0  0  0  0  0  0  0  0  0  0
   -7.2504   24.8218  -29.3842 H   0  0  0  0  0  0  0  0  0  0  0  0
   -6.1536   25.7660  -31.4152 H   0  0  0  0  0  0  0  0  0  0  0  0
   -4.9066   26.5169  -30.3364 H   0  0  0  0  0  0  0  0  0  0  0  0
   -2.8537   23.8635  -30.5750 H   0  0  0  0  0  0  0  0  0  0  0  0
   -3.1852   25.5338  -29.9293 H   0  0  0  0  0  0  0  0  0  0  0  0
   -3.5524   24.8038  -27.8183 H   0  0  0  0  0  0  0  0  0  0  0  0
   -4.2376   23.2323  -28.3545 H   0  0  0  0  0  0  0  0  0  0  0  0
   -2.4590   23.4834  -28.3545 H   0  0  0  0  0  0  0  0  0  0  0  0
   -4.1780   20.2000  -33.4690 H   0  0  0  0  0  0  0  0  0  0  0  0
   -6.7703   17.8081  -31.2827 H   0  0  0  0  0  0  0  0  0  0  0  0
   -5.6710   15.6583  -31.9233 H   0  0  0  0  0  0  0  0  0  0  0  0
   -5.0598   17.2776  -35.8709 H   0  0  0  0  0  0  0  0  0  0  0  0
   -6.1640   19.4370  -35.2289 H   0  0  0  0  0  0  0  0  0  0  0  0
   -9.2579   19.1674  -33.1229 H   0  0  0  0  0  0  0  0  0  0  0  0
   -7.4390   23.8950  -30.7820 H   0  0  0  0  0  0  0  0  0  0  0  0
  1  2  1  0
  2  3  1  0
  3  4  1  0
  4  5  1  0
  3  6  1  0
  6  7  2  0
  7  8  1  0
  8  9  2  3
  8 10  1  0
 10 11  1  0
 11 12  1  0
 12 13  2  0
 13 14  1  0
 14 15  2  0
 15 16  1  0
 15 17  1  0
 17 18  2  0
 11 19  2  0
 19 20  1  0
 20 21  1  0
 21 22  1  0
 22  6  1  0
 21 10  2  0
 18 12  1  0
  1 23  1  0
  1 24  1  0
  1 25  1  0
  2 26  1  0
  2 27  1  0
  4 28  1  0
  4 29  1  0
  5 30  1  0
  5 31  1  0
  5 32  1  0
  9 33  1  0
 13 34  1  0
 14 35  1  0
 17 36  1  0
 18 37  1  0
 19 38  1  0
 22 39  1  0
M  END
>  <smiles>  (33) 
CCN(CC)c1nc(=N)c2c(-c3ccc(Br)cc3)csc2[nH]1

>  <score_type>  (33) 
oracle

>  <origin>  (33) 
adg

>  <m_score__min__energy>  (33) 
-7.3499999999999996

>  <m_primary>  (33) 
energy

$$$$
33:0
     RDKit          3D

 39 40  0  0  0  0  0  0  0  0999 V2000
   -0.8370   23.8180  -29.3180 C   0  0  0  0  0  0  0  0  0  0  0  0
   -1.9550   24.6070  -28.7780 N   0  0  0  0  0  0  0  0  0  0  0  0
   -1.4740   25.4560  -27.6750 C   0  0  0  0  0  0  0  0  0  0  0  0
   -3.0460   23.7130  -28.3280 C   0  0  0  0  0  0  0  0  0  0  0  0
   -4.3170   24.5110  -28.0150 C   0  0  0  0  0  0  0  0  0  0  0  0
   -5.2730   24.3930  -29.1150 N   0  0  0  0  0  0  0  0  0  0  0  0
   -4.9210   24.6710  -30.4760 C   0  0  0  0  0  0  0  0  0  0  0  0
   -3.8630   25.3020  -30.7470 O   0  0  0  0  0  0  0  0  0  0  0  0
   -5.7730   24.1500  -31.5940 C   0  0  0  0  0  0  0  0  0  0  0  0
   -5.3760   22.7140  -31.9310 C   0  0  0  0  0  0  0  0  0  0  0  0
   -6.4970   21.8080  -31.6810 N   0  0  0  0  0  0  0  0  0  0  0  0
   -7.5160   21.9630  -30.7980 C   0  0  0  0  0  0  0  0  0  0  0  0
   -7.6620   22.9830  -30.0730 O   0  0  0  0  0  0  0  0  0  0  0  0
   -8.3380   20.9280  -30.7680 O   0  0  0  0  0  0  0  0  0  0  0  0
   -7.8520   20.0670  -31.6320 C   0  0  0  0  0  0  0  0  0  0  0  0
   -8.3360   18.8070  -31.9700 C   0  0  0  0  0  0  0  0  0  0  0  0
   -7.6100   18.0630  -32.9190 C   0  0  0  0  0  0  0  0  0  0  0  0
   -6.4340   18.5910  -33.4980 C   0  0  0  0  0  0  0  0  0  0  0  0
   -5.9710   19.8700  -33.1350 C   0  0  0  0  0  0  0  0  0  0  0  0
   -6.7180   20.5850  -32.1970 C   0  0  0  0  0  0  0  0  0  0  0  0
   -0.2473   23.4018  -28.4879 H   0  0  0  0  0  0  0  0  0  0  0  0
   -1.2317   22.9973  -29.9349 H   0  0  0  0  0  0  0  0  0  0  0  0
   -0.1960   24.4649  -29.9349 H   0  0  0  0  0  0  0  0  0  0  0  0
   -1.7371   24.9915  -26.7132 H   0  0  0  0  0  0  0  0  0  0  0  0
   -0.3813   25.5626  -27.7440 H   0  0  0  0  0  0  0  0  0  0  0  0
   -1.9442   26.4480  -27.7440 H   0  0  0  0  0  0  0  0  0  0  0  0
   -3.2652   22.9848  -29.1228 H   0  0  0  0  0  0  0  0  0  0  0  0
   -2.7213   23.1979  -27.4119 H   0  0  0  0  0  0  0  0  0  0  0  0
   -4.7735   24.1200  -27.0937 H   0  0  0  0  0  0  0  0  0  0  0  0
   -4.0515   25.5703  -27.8832 H   0  0  0  0  0  0  0  0  0  0  0  0
   -6.1820   23.9120  -28.9190 H   0  0  0  0  0  0  0  0  0  0  0  0
   -6.8292   24.1731  -31.2877 H   0  0  0  0  0  0  0  0  0  0  0  0
   -5.6271   24.7819  -32.4825 H   0  0  0  0  0  0  0  0  0  0  0  0
   -5.0909   22.6553  -32.9918 H   0  0  0  0  0  0  0  0  0  0  0  0
   -4.5271   22.4181  -31.2971 H   0  0  0  0  0  0  0  0  0  0  0  0
   -9.2527   18.4069  -31.5122 H   0  0  0  0  0  0  0  0  0  0  0  0
   -7.9608   17.0626  -33.2123 H   0  0  0  0  0  0  0  0  0  0  0  0
   -5.8762   17.9982  -34.2379 H   0  0  0  0  0  0  0  0  0  0  0  0
   -5.0544   20.2905  -33.5743 H   0  0  0  0  0  0  0  0  0  0  0  0
  1  2  1  0
  2  3  1  0
  2  4  1  0
  4  5  1  0
  5  6  1  0
  6  7  1  0
  7  8  2  0
  7  9  1  0
  9 10  1  0
 10 11  1  0
 11 12  1  0
 12 13  2  0
 12 14  1  0
 14 15  1  0
 15 16  2  0
 16 17  1  0
 17 18  2  0
 18 19  1  0
 19 20  2  0
 20 11  1  0
 20 15  1  0
  1 21  1  0
  1 22  1  0
  1 23  1  0
  3 24  1  0
  3 25  1  0
  3 26  1  0
  4 27  1  0
  4 28  1  0
  5 29  1  0
  5 30  1  0
  6 31  1  0
  9 32  1  0
  9 33  1  0
 10 34  1  0
 10 35  1  0
 16 36  1  0
 17 37  1  0
 18 38  1  0
 19 39  1  0
M  END
>  <UniqueID>  (34) 
31

>  <SMILES>  (34) 
CN(C)CCNC(=O)CCn1c(=O)oc2ccccc21

>  <Energy>  (34) 
72.0487967454688

>  <Genealogy>  (34) 
CN(C)CCNC(=O)CCn1c(=O)oc2ccccc21 (3D coordinates assigned)
CN(C)CCNC(=O)CCn1c(=O)oc2ccccc21 (optimized conformer: 72.0487967454688 kcal/mol)

>  <smiles>  (34) 
CN(C)CCNC(=O)CCn1c(=O)oc2ccccc21

>  <score_type>  (34) 
oracle

>  <origin>  (34) 
adg

>  <m_score__min__energy>  (34) 
-7.5099999999999998

>  <m_primary>  (34) 
energy

$$$$
34:0
     RDKit          3D

 22 22  0  0  0  0  0  0  0  0999 V2000
  -10.1417   21.0306  -31.8282 H   0  0  0  0  0  0  0  0  0  0  0  0
   -9.0880   21.3310  -31.9250 C   0  0  0  0  0  0  0  0  0  0  0  0
   -8.7220   22.6680  -31.7350 C   0  0  0  0  0  0  0  0  0  0  0  0
   -9.4874   23.4182  -31.4874 H   0  0  0  0  0  0  0  0  0  0  0  0
   -7.3830   23.0500  -31.8600 C   0  0  0  0  0  0  0  0  0  0  0  0
   -7.0954   24.1009  -31.7083 H   0  0  0  0  0  0  0  0  0  0  0  0
   -6.4070   22.0970  -32.1780 C   0  0  0  0  0  0  0  0  0  0  0  0
   -4.6900   22.5870  -32.3410 S   0  0  0  0  0  0  0  0  0  0  0  0
   -4.7080   23.5010  -30.7980 C   0  0  0  0  0  0  0  0  0  0  0  0
   -4.6520   24.7900  -30.8440 N   0  0  0  0  0  0  0  0  0  0  0  0
   -5.6880   25.6730  -30.3560 C   0  0  0  0  0  0  0  0  0  0  0  0
   -5.6843   25.6699  -29.2560 H   0  0  0  0  0  0  0  0  0  0  0  0
   -5.5013   26.6940  -30.7204 H   0  0  0  0  0  0  0  0  0  0  0  0
   -6.6665   25.3269  -30.7204 H   0  0  0  0  0  0  0  0  0  0  0  0
   -4.7900   22.7410  -29.5000 C   0  0  0  0  0  0  0  0  0  0  0  0
   -4.7141   23.4445  -28.6578 H   0  0  0  0  0  0  0  0  0  0  0  0
   -5.7509   22.2081  -29.4472 H   0  0  0  0  0  0  0  0  0  0  0  0
   -3.9649   22.0154  -29.4472 H   0  0  0  0  0  0  0  0  0  0  0  0
   -6.7750   20.7570  -32.3630 C   0  0  0  0  0  0  0  0  0  0  0  0
   -6.0099   20.0051  -32.6065 H   0  0  0  0  0  0  0  0  0  0  0  0
   -8.1150   20.3760  -32.2380 C   0  0  0  0  0  0  0  0  0  0  0  0
   -8.4038   19.3249  -32.3859 H   0  0  0  0  0  0  0  0  0  0  0  0
  1  2  1  0
  2  3  2  0
  3  4  1  0
  3  5  1  0
  5  6  1  0
  5  7  2  0
  7  8  1  0
  8  9  1  0
  9 10  2  0
 10 11  1  0
 11 12  1  0
 11 13  1  0
 11 14  1  0
  9 15  1  0
 15 16  1  0
 15 17  1  0
 15 18  1  0
  7 19  1  0
 19 20  1  0
 19 21  2  0
 21 22  1  0
 21  2  1  0
M  END
>  <UniqueID>  (35) 
32

>  <SMILES>  (35) 
C/N=C(\C)Sc1ccccc1

>  <Energy>  (35) 
12.684419640186126

>  <Genealogy>  (35) 
C/N=C(\C)Sc1ccccc1 (cis-trans isomerization)
C/N=C(\C)Sc1ccccc1 (3D coordinates assigned)
C/N=C(\C)Sc1ccccc1 (optimized conformer: 12.684419640186126 kcal/mol)

>  <smiles>  (35) 
CN=C(C)Sc1ccccc1

>  <score_type>  (35) 
oracle

>  <origin>  (35) 
adg

>  <m_score__min__energy>  (35) 
-5.2999999999999998

>  <m_primary>  (35) 
energy

$$$$
35:0
     RDKit          3D

 37 40  0  0  0  0  0  0  0  0999 V2000
   -1.4430   25.6990  -29.8260 H   0  0  0  0  0  0  0  0  0  0  0  0
   -2.2730   25.2910  -29.3400 N   0  0  0  0  0  0  0  0  0  0  0  0
   -3.2200   24.7130  -30.0030 C   0  0  0  0  0  0  0  0  0  0  0  0
   -4.2810   25.3890  -30.4880 N   0  0  0  0  0  0  0  0  0  0  0  0
   -5.0100   24.4360  -31.0960 C   0  0  0  0  0  0  0  0  0  0  0  0
   -5.9643   24.5988  -31.6182 H   0  0  0  0  0  0  0  0  0  0  0  0
   -4.3700   23.2230  -30.9600 C   0  0  0  0  0  0  0  0  0  0  0  0
   -4.8430   21.9280  -31.4850 C   0  0  0  0  0  0  0  0  0  0  0  0
   -3.9370   20.9880  -31.8710 N   0  0  0  0  0  0  0  0  0  0  0  0
   -4.3110   19.7750  -32.3630 C   0  0  0  0  0  0  0  0  0  0  0  0
   -3.3380   18.8420  -32.7470 C   0  0  0  0  0  0  0  0  0  0  0  0
   -1.9840   19.1880  -32.6080 O   0  0  0  0  0  0  0  0  0  0  0  0
   -1.3470   20.2560  -33.3030 C   0  0  0  0  0  0  0  0  0  0  0  0
   -0.9239   20.9654  -32.5766 H   0  0  0  0  0  0  0  0  0  0  0  0
   -0.5413   19.8536  -33.9345 H   0  0  0  0  0  0  0  0  0  0  0  0
   -2.0840   20.7737  -33.9345 H   0  0  0  0  0  0  0  0  0  0  0  0
   -3.7440   17.5930  -33.2550 C   0  0  0  0  0  0  0  0  0  0  0  0
   -2.9844   16.8570  -33.5573 H   0  0  0  0  0  0  0  0  0  0  0  0
   -5.1090   17.2740  -33.3810 C   0  0  0  0  0  0  0  0  0  0  0  0
   -5.5270   15.9540  -33.9200 C   0  0  0  0  0  0  0  0  0  0  0  0
   -4.5720   14.9760  -34.2530 C   0  0  0  0  0  0  0  0  0  0  0  0
   -3.5014   15.1868  -34.1140 H   0  0  0  0  0  0  0  0  0  0  0  0
   -4.9660   13.7710  -34.7460 N   0  0  0  0  0  0  0  0  0  0  0  0
   -6.2780   13.4680  -34.9300 C   0  0  0  0  0  0  0  0  0  0  0  0
   -6.5634   12.4834  -35.3289 H   0  0  0  0  0  0  0  0  0  0  0  0
   -7.2630   14.4030  -34.6140 C   0  0  0  0  0  0  0  0  0  0  0  0
   -8.3260   14.1618  -34.7617 H   0  0  0  0  0  0  0  0  0  0  0  0
   -6.8860   15.6490  -34.1080 C   0  0  0  0  0  0  0  0  0  0  0  0
   -7.6551   16.3939  -33.8559 H   0  0  0  0  0  0  0  0  0  0  0  0
   -6.0740   18.2190  -32.9910 C   0  0  0  0  0  0  0  0  0  0  0  0
   -7.1434   17.9787  -33.0840 H   0  0  0  0  0  0  0  0  0  0  0  0
   -5.6820   19.4640  -32.4850 C   0  0  0  0  0  0  0  0  0  0  0  0
   -6.6310   20.4180  -32.0960 C   0  0  0  0  0  0  0  0  0  0  0  0
   -7.7044   20.1949  -32.1861 H   0  0  0  0  0  0  0  0  0  0  0  0
   -6.2140   21.6520  -31.5940 C   0  0  0  0  0  0  0  0  0  0  0  0
   -6.9560   22.4033  -31.2858 H   0  0  0  0  0  0  0  0  0  0  0  0
   -3.2300   23.3900  -30.2640 N   0  0  0  0  0  0  0  0  0  0  0  0
  1  2  1  0
  2  3  2  0
  3  4  1  0
  4  5  1  0
  5  6  1  0
  5  7  2  0
  7  8  1  0
  8  9  2  0
  9 10  1  0
 10 11  2  0
 11 12  1  0
 12 13  1  0
 13 14  1  0
 13 15  1  0
 13 16  1  0
 11 17  1  0
 17 18  1  0
 17 19  2  0
 19 20  1  0
 20 21  2  0
 21 22  1  0
 21 23  1  0
 23 24  2  0
 24 25  1  0
 24 26  1  0
 26 27  1  0
 26 28  2  0
 28 29  1  0
 19 30  1  0
 30 31  1  0
 30 32  2  0
 32 33  1  0
 33 34  1  0
 33 35  2  0
 35 36  1  0
  7 37  1  0
 37  3  1  0
 35  8  1  0
 32 10  1  0
 28 20  1  0
M  CHG  2   4  -1  37  -1
M  END
>  <UniqueID>  (36) 
33

>  <SMILES>  (36) 
[H]/N=c1/[n-]cc(-c2ccc3cc(-c4cccnc4)cc(OC)c3n2)[n-]1

>  <Energy>  (36) 
78.18212067758577

>  <Genealogy>  (36) 
COc1cc(-c2cccnc2)cc2ccc(-c3c[n-]c(=N)[n-]3)nc12 (protonated)
[H]/N=c1/[n-]cc(-c2ccc3cc(-c4cccnc4)cc(OC)c3n2)[n-]1 (cis-trans isomerization)
[H]/N=c1/[n-]cc(-c2ccc3cc(-c4cccnc4)cc(OC)c3n2)[n-]1 (3D coordinates assigned)
[H]/N=c1/[n-]cc(-c2ccc3cc(-c4cccnc4)cc(OC)c3n2)[n-]1 (optimized conformer: 78.18212067758577 kcal/mol)

>  <smiles>  (36) 
COc1cc(-c2cccnc2)cc2ccc(-c3c[nH]c(=N)[nH]3)nc12

>  <score_type>  (36) 
oracle

>  <origin>  (36) 
adg

>  <m_score__min__energy>  (36) 
-10.06

>  <m_primary>  (36) 
energy

$$$$
36:0
     RDKit          3D

 51 54  0  0  0  0  0  0  0  0999 V2000
    0.1250   23.0120  -24.8860 C   0  0  0  0  0  0  0  0  0  0  0  0
    0.2660   22.8090  -26.2880 O   0  0  0  0  0  0  0  0  0  0  0  0
   -0.7310   23.0900  -27.2330 C   0  0  0  0  0  0  0  0  0  0  0  0
   -1.8590   23.8070  -26.8170 C   0  0  0  0  0  0  0  0  0  0  0  0
   -2.8780   24.1170  -27.7230 C   0  0  0  0  0  0  0  0  0  0  0  0
   -2.7740   23.7230  -29.0640 C   0  0  0  0  0  0  0  0  0  0  0  0
   -3.8460   24.0350  -30.0280 C   0  0  0  0  0  0  0  0  0  0  0  0
   -4.2060   25.2970  -30.3360 N   0  0  0  0  0  0  0  0  0  0  0  0
   -5.1920   25.2170  -31.2170 N   0  0  0  0  0  0  0  0  0  0  0  0
   -5.4290   23.9080  -31.4200 C   0  0  0  0  0  0  0  0  0  0  0  0
   -6.7120   23.2980  -32.5200 S   0  0  0  0  0  0  0  0  0  0  0  0
   -7.7430   22.5950  -31.1840 C   0  0  0  0  0  0  0  0  0  0  0  0
   -8.5280   21.4170  -31.6880 C   0  0  0  0  0  0  0  0  0  0  0  0
   -9.7860   21.4980  -31.6810 O   0  0  0  0  0  0  0  0  0  0  0  0
   -7.8750   20.1830  -32.2120 C   0  0  0  0  0  0  0  0  0  0  0  0
   -8.0570   18.9290  -31.5940 C   0  0  0  0  0  0  0  0  0  0  0  0
   -7.4340   17.7860  -32.1040 C   0  0  0  0  0  0  0  0  0  0  0  0
   -6.6240   17.8760  -33.2390 C   0  0  0  0  0  0  0  0  0  0  0  0
   -6.4310   19.1100  -33.8590 C   0  0  0  0  0  0  0  0  0  0  0  0
   -7.0490   20.2560  -33.3530 C   0  0  0  0  0  0  0  0  0  0  0  0
   -4.5980   23.1310  -30.6970 N   0  0  0  0  0  0  0  0  0  0  0  0
   -4.6180   21.6680  -30.5810 C   0  0  0  0  0  0  0  0  0  0  0  0
   -3.8080   21.0350  -31.6840 C   0  0  0  0  0  0  0  0  0  0  0  0
   -3.9520   19.6680  -31.9800 C   0  0  0  0  0  0  0  0  0  0  0  0
   -3.1810   19.0820  -32.9910 C   0  0  0  0  0  0  0  0  0  0  0  0
   -2.2700   19.8560  -33.7160 C   0  0  0  0  0  0  0  0  0  0  0  0
   -2.1260   21.2160  -33.4310 C   0  0  0  0  0  0  0  0  0  0  0  0
   -2.8930   21.8050  -32.4190 C   0  0  0  0  0  0  0  0  0  0  0  0
   -1.6610   22.9800  -29.4800 C   0  0  0  0  0  0  0  0  0  0  0  0
   -0.6390   22.6750  -28.5750 C   0  0  0  0  0  0  0  0  0  0  0  0
    0.6713   22.2254  -24.3448 H   0  0  0  0  0  0  0  0  0  0  0  0
    0.5350   23.9961  -24.6149 H   0  0  0  0  0  0  0  0  0  0  0  0
   -0.9403   22.9713  -24.6149 H   0  0  0  0  0  0  0  0  0  0  0  0
   -1.9445   24.1292  -25.7687 H   0  0  0  0  0  0  0  0  0  0  0  0
   -3.7644   24.6721  -27.3820 H   0  0  0  0  0  0  0  0  0  0  0  0
   -7.0929   22.2700  -30.3583 H   0  0  0  0  0  0  0  0  0  0  0  0
   -8.4450   23.3661  -30.8338 H   0  0  0  0  0  0  0  0  0  0  0  0
   -8.6954   18.8491  -30.7018 H   0  0  0  0  0  0  0  0  0  0  0  0
   -7.5818   16.8139  -31.6108 H   0  0  0  0  0  0  0  0  0  0  0  0
   -6.1394   16.9748  -33.6428 H   0  0  0  0  0  0  0  0  0  0  0  0
   -5.7897   19.1813  -34.7499 H   0  0  0  0  0  0  0  0  0  0  0  0
   -6.8899   21.2248  -33.8492 H   0  0  0  0  0  0  0  0  0  0  0  0
   -4.1937   21.3770  -29.6087 H   0  0  0  0  0  0  0  0  0  0  0  0
   -5.6586   21.3209  -30.6624 H   0  0  0  0  0  0  0  0  0  0  0  0
   -4.6723   19.0574  -31.4157 H   0  0  0  0  0  0  0  0  0  0  0  0
   -3.2922   18.0109  -33.2153 H   0  0  0  0  0  0  0  0  0  0  0  0
   -1.6664   19.3939  -34.5111 H   0  0  0  0  0  0  0  0  0  0  0  0
   -1.4094   21.8244  -34.0022 H   0  0  0  0  0  0  0  0  0  0  0  0
   -2.7781   22.8766  -32.1986 H   0  0  0  0  0  0  0  0  0  0  0  0
   -1.5908   22.6353  -30.5222 H   0  0  0  0  0  0  0  0  0  0  0  0
    0.2408   22.1082  -28.9136 H   0  0  0  0  0  0  0  0  0  0  0  0
  1  2  1  0
  2  3  1  0
  3  4  2  0
  4  5  1  0
  5  6  2  0
  6  7  1  0
  7  8  2  0
  8  9  1  0
  9 10  2  0
 10 11  1  0
 11 12  1  0
 12 13  1  0
 13 14  2  0
 13 15  1  0
 15 16  2  0
 16 17  1  0
 17 18  2  0
 18 19  1  0
 19 20  2  0
 10 21  1  0
 21 22  1  0
 22 23  1  0
 23 24  2  0
 24 25  1  0
 25 26  2  0
 26 27  1  0
 27 28  2  0
  6 29  1  0
 29 30  2  0
 30  3  1  0
 21  7  1  0
 28 23  1  0
 20 15  1  0
  1 31  1  0
  1 32  1  0
  1 33  1  0
  4 34  1  0
  5 35  1  0
 12 36  1  0
 12 37  1  0
 16 38  1  0
 17 39  1  0
 18 40  1  0
 19 41  1  0
 20 42  1  0
 22 43  1  0
 22 44  1  0
 24 45  1  0
 25 46  1  0
 26 47  1  0
 27 48  1  0
 28 49  1  0
 29 50  1  0
 30 51  1  0
M  END
>  <UniqueID>  (37) 
34

>  <SMILES>  (37) 
COc1ccc(-c2nnc(SCC(=O)c3ccccc3)n2Cc2ccccc2)cc1

>  <Energy>  (37) 
90.59658719676743

>  <Genealogy>  (37) 
COc1ccc(-c2nnc(SCC(=O)c3ccccc3)n2Cc2ccccc2)cc1 (3D coordinates assigned)
COc1ccc(-c2nnc(SCC(=O)c3ccccc3)n2Cc2ccccc2)cc1 (optimized conformer: 90.59658719676743 kcal/mol)

>  <smiles>  (37) 
COc1ccc(-c2nnc(SCC(=O)c3ccccc3)n2Cc2ccccc2)cc1

>  <score_type>  (37) 
oracle

>  <origin>  (37) 
adg

>  <m_score__min__energy>  (37) 
-9.4900000000000002

>  <m_primary>  (37) 
energy

$$$$
37:0
     RDKit          3D

 48 50  0  0  0  0  0  0  0  0999 V2000
   -5.1711   25.5812  -29.8139 H   0  0  0  0  0  0  0  0  0  0  0  0
   -5.2960   24.5230  -30.0870 C   0  0  0  0  0  0  0  0  0  0  0  0
   -4.2710   23.5810  -29.9750 C   0  0  0  0  0  0  0  0  0  0  0  0
   -2.8880   23.8180  -29.4870 C   0  0  0  0  0  0  0  0  0  0  0  0
   -2.5900   24.9100  -28.6480 C   0  0  0  0  0  0  0  0  0  0  0  0
   -3.3916   25.5999  -28.3455 H   0  0  0  0  0  0  0  0  0  0  0  0
   -1.2850   25.1240  -28.1970 C   0  0  0  0  0  0  0  0  0  0  0  0
   -1.0687   25.9815  -27.5428 H   0  0  0  0  0  0  0  0  0  0  0  0
   -0.2510   24.2590  -28.5690 C   0  0  0  0  0  0  0  0  0  0  0  0
    1.0410   24.5180  -28.0880 O   0  0  0  0  0  0  0  0  0  0  0  0
    1.4640   24.2770  -26.7500 C   0  0  0  0  0  0  0  0  0  0  0  0
    0.7261   24.6974  -26.0508 H   0  0  0  0  0  0  0  0  0  0  0  0
    1.5517   23.1933  -26.5827 H   0  0  0  0  0  0  0  0  0  0  0  0
    2.4409   24.7541  -26.5827 H   0  0  0  0  0  0  0  0  0  0  0  0
   -0.5400   23.1680  -29.4090 C   0  0  0  0  0  0  0  0  0  0  0  0
    0.2645   22.4811  -29.7107 H   0  0  0  0  0  0  0  0  0  0  0  0
   -1.8450   22.9530  -29.8620 C   0  0  0  0  0  0  0  0  0  0  0  0
   -2.0582   22.0972  -30.5194 H   0  0  0  0  0  0  0  0  0  0  0  0
   -4.8880   22.1000  -30.4910 S   0  0  0  0  0  0  0  0  0  0  0  0
   -6.4430   22.6320  -30.8630 C   0  0  0  0  0  0  0  0  0  0  0  0
   -7.5430   21.7860  -31.3950 C   0  0  0  0  0  0  0  0  0  0  0  0
   -8.8380   22.3020  -31.5560 C   0  0  0  0  0  0  0  0  0  0  0  0
   -9.0530   23.3467  -31.2868 H   0  0  0  0  0  0  0  0  0  0  0  0
   -9.8510   21.4870  -32.0580 C   0  0  0  0  0  0  0  0  0  0  0  0
  -10.8674   21.8900  -32.1788 H   0  0  0  0  0  0  0  0  0  0  0  0
   -9.5910   20.1980  -32.3990 N   0  0  0  0  0  0  0  0  0  0  0  0
  -10.3740   19.6160  -32.7750 H   0  0  0  0  0  0  0  0  0  0  0  0
   -8.3470   19.6540  -32.2700 C   0  0  0  0  0  0  0  0  0  0  0  0
   -8.1710   18.4090  -32.6240 N   0  0  0  0  0  0  0  0  0  0  0  0
   -6.9690   17.5880  -32.4570 C   0  0  0  0  0  0  0  0  0  0  0  0
   -6.1736   18.2033  -32.0112 H   0  0  0  0  0  0  0  0  0  0  0  0
   -7.2159   16.7388  -31.8028 H   0  0  0  0  0  0  0  0  0  0  0  0
   -6.4800   17.0370  -33.8040 C   0  0  0  0  0  0  0  0  0  0  0  0
   -5.8513   16.1527  -33.6229 H   0  0  0  0  0  0  0  0  0  0  0  0
   -7.3581   16.7712  -34.4109 H   0  0  0  0  0  0  0  0  0  0  0  0
   -5.6900   18.0480  -34.5410 N   0  0  0  0  0  0  0  0  0  0  0  0
   -5.0990   19.0160  -33.6020 C   0  0  0  0  0  0  0  0  0  0  0  0
   -5.2965   18.6926  -32.5693 H   0  0  0  0  0  0  0  0  0  0  0  0
   -4.0129   19.0713  -33.7676 H   0  0  0  0  0  0  0  0  0  0  0  0
   -5.5461   20.0073  -33.7676 H   0  0  0  0  0  0  0  0  0  0  0  0
   -4.6180   17.4130  -35.3280 C   0  0  0  0  0  0  0  0  0  0  0  0
   -3.8748   16.9727  -34.6470 H   0  0  0  0  0  0  0  0  0  0  0  0
   -5.0473   16.6234  -35.9622 H   0  0  0  0  0  0  0  0  0  0  0  0
   -4.1318   18.1689  -35.9622 H   0  0  0  0  0  0  0  0  0  0  0  0
   -7.3010   20.4490  -31.7550 C   0  0  0  0  0  0  0  0  0  0  0  0
   -6.2945   20.0217  -31.6351 H   0  0  0  0  0  0  0  0  0  0  0  0
   -6.4980   23.9970  -30.5790 C   0  0  0  0  0  0  0  0  0  0  0  0
   -7.4026   24.6049  -30.7278 H   0  0  0  0  0  0  0  0  0  0  0  0
  1  2  1  0
  2  3  2  0
  3  4  1  0
  4  5  2  0
  5  6  1  0
  5  7  1  0
  7  8  1  0
  7  9  2  0
  9 10  1  0
 10 11  1  0
 11 12  1  0
 11 13  1  0
 11 14  1  0
  9 15  1  0
 15 16  1  0
 15 17  2  0
 17 18  1  0
  3 19  1  0
 19 20  1  0
 20 21  1  0
 21 22  1  0
 22 23  1  0
 22 24  2  0
 24 25  1  0
 24 26  1  0
 26 27  1  0
 26 28  1  0
 28 29  2  0
 29 30  1  0
 30 31  1  0
 30 32  1  0
 30 33  1  0
 33 34  1  0
 33 35  1  0
 33 36  1  0
 36 37  1  0
 37 38  1  0
 37 39  1  0
 37 40  1  0
 36 41  1  0
 41 42  1  0
 41 43  1  0
 41 44  1  0
 28 45  1  0
 45 46  1  0
 20 47  2  0
 47 48  1  0
 47  2  1  0
 17  4  1  0
 45 21  2  0
M  END
>  <UniqueID>  (38) 
35

>  <SMILES>  (38) 
COc1ccc(-c2ccc(-c3cc[nH]/c(=N/CCN(C)C)c3)s2)cc1

>  <Energy>  (38) 
81.57721281411911

>  <Genealogy>  (38) 
COc1ccc(-c2ccc(-c3cc[nH]/c(=N/CCN(C)C)c3)s2)cc1 (cis-trans isomerization)
COc1ccc(-c2ccc(-c3cc[nH]/c(=N/CCN(C)C)c3)s2)cc1 (3D coordinates assigned)
COc1ccc(-c2ccc(-c3cc[nH]/c(=N/CCN(C)C)c3)s2)cc1 (optimized conformer: 81.57721281411911 kcal/mol)

>  <smiles>  (38) 
COc1ccc(-c2ccc(-c3cc[nH]c(=NCCN(C)C)c3)s2)cc1

>  <score_type>  (38) 
oracle

>  <origin>  (38) 
adg

>  <m_score__min__energy>  (38) 
-8.1199999999999992

>  <m_primary>  (38) 
energy

$$$$
38:0
     RDKit          3D

 49 51  0  0  0  0  0  0  0  0999 V2000
   -9.0770   21.1200  -31.9270 C   0  0  0  0  0  0  0  0  0  0  0  0
   -8.7330   19.6240  -31.8820 C   0  0  0  0  0  0  0  0  0  0  0  0
   -7.3280   19.3110  -32.2400 N   0  0  0  0  0  0  0  0  0  0  0  0
   -7.0200   17.8700  -32.3790 C   0  0  0  0  0  0  0  0  0  0  0  0
   -6.4860   17.5300  -33.7710 C   0  0  0  0  0  0  0  0  0  0  0  0
   -6.8380   20.1090  -33.3870 C   0  0  0  0  0  0  0  0  0  0  0  0
   -5.6400   20.9680  -32.9650 C   0  0  0  0  0  0  0  0  0  0  0  0
   -5.2230   20.6520  -31.5970 N   0  0  0  0  0  0  0  0  0  0  0  0
   -4.5910   21.6000  -30.7170 C   0  0  0  0  0  0  0  0  0  0  0  0
   -3.2940   21.3760  -30.2300 C   0  0  0  0  0  0  0  0  0  0  0  0
   -2.6750   22.3100  -29.4000 C   0  0  0  0  0  0  0  0  0  0  0  0
   -3.3350   23.4900  -29.0270 C   0  0  0  0  0  0  0  0  0  0  0  0
   -2.6340   24.4340  -28.1310 C   0  0  0  0  0  0  0  0  0  0  0  0
   -3.0600   24.6040  -26.8030 C   0  0  0  0  0  0  0  0  0  0  0  0
   -2.3800   25.4830  -25.9540 C   0  0  0  0  0  0  0  0  0  0  0  0
   -1.2680   26.1900  -26.4210 C   0  0  0  0  0  0  0  0  0  0  0  0
   -0.8310   26.0150  -27.7380 C   0  0  0  0  0  0  0  0  0  0  0  0
   -1.5080   25.1370  -28.5910 C   0  0  0  0  0  0  0  0  0  0  0  0
   -4.6410   23.7380  -29.5160 C   0  0  0  0  0  0  0  0  0  0  0  0
   -5.3100   24.8990  -29.2350 N   0  0  0  0  0  0  0  0  0  0  0  0
   -6.5600   25.1270  -29.7180 C   0  0  0  0  0  0  0  0  0  0  0  0
   -7.1750   24.1730  -30.5240 C   0  0  0  0  0  0  0  0  0  0  0  0
   -6.5150   23.0280  -30.8270 N   0  0  0  0  0  0  0  0  0  0  0  0
   -5.2660   22.7780  -30.3500 C   0  0  0  0  0  0  0  0  0  0  0  0
   -9.1659   21.5068  -30.9011 H   0  0  0  0  0  0  0  0  0  0  0  0
   -8.2804   21.6637  -32.4561 H   0  0  0  0  0  0  0  0  0  0  0  0
  -10.0310   21.2611  -32.4561 H   0  0  0  0  0  0  0  0  0  0  0  0
   -8.9184   19.2582  -30.8613 H   0  0  0  0  0  0  0  0  0  0  0  0
   -9.3674   19.1316  -32.6337 H   0  0  0  0  0  0  0  0  0  0  0  0
   -6.2619   17.5951  -31.6309 H   0  0  0  0  0  0  0  0  0  0  0  0
   -7.9525   17.3070  -32.2260 H   0  0  0  0  0  0  0  0  0  0  0  0
   -5.5616   16.9414  -33.6754 H   0  0  0  0  0  0  0  0  0  0  0  0
   -7.2385   16.9444  -34.3194 H   0  0  0  0  0  0  0  0  0  0  0  0
   -6.2737   18.4596  -34.3194 H   0  0  0  0  0  0  0  0  0  0  0  0
   -6.5307   19.4303  -34.1963 H   0  0  0  0  0  0  0  0  0  0  0  0
   -7.6464   20.7689  -33.7350 H   0  0  0  0  0  0  0  0  0  0  0  0
   -4.8010   20.7764  -33.6501 H   0  0  0  0  0  0  0  0  0  0  0  0
   -5.9365   22.0265  -33.0051 H   0  0  0  0  0  0  0  0  0  0  0  0
   -5.5170   19.7260  -31.2110 H   0  0  0  0  0  0  0  0  0  0  0  0
   -2.7604   20.4545  -30.5058 H   0  0  0  0  0  0  0  0  0  0  0  0
   -1.6558   22.1188  -29.0330 H   0  0  0  0  0  0  0  0  0  0  0  0
   -3.9305   24.0444  -26.4301 H   0  0  0  0  0  0  0  0  0  0  0  0
   -2.7207   25.6183  -24.9169 H   0  0  0  0  0  0  0  0  0  0  0  0
   -0.7369   26.8838  -25.7528 H   0  0  0  0  0  0  0  0  0  0  0  0
    0.0464   26.5686  -28.1036 H   0  0  0  0  0  0  0  0  0  0  0  0
   -1.1579   24.9967  -29.6243 H   0  0  0  0  0  0  0  0  0  0  0  0
   -4.8740   25.6510  -28.6590 H   0  0  0  0  0  0  0  0  0  0  0  0
   -7.0840   26.0625  -29.4727 H   0  0  0  0  0  0  0  0  0  0  0  0
   -8.1894   24.3469  -30.9124 H   0  0  0  0  0  0  0  0  0  0  0  0
  1  2  1  0
  2  3  1  0
  3  4  1  0
  4  5  1  0
  3  6  1  0
  6  7  1  0
  7  8  1  0
  8  9  1  0
  9 10  2  0
 10 11  1  0
 11 12  2  0
 12 13  1  0
 13 14  2  0
 14 15  1  0
 15 16  2  0
 16 17  1  0
 17 18  2  0
 12 19  1  0
 19 20  2  0
 20 21  1  0
 21 22  2  0
 22 23  1  0
 23 24  2  0
 24  9  1  0
 18 13  1  0
 24 19  1  0
  1 25  1  0
  1 26  1  0
  1 27  1  0
  2 28  1  0
  2 29  1  0
  4 30  1  0
  4 31  1  0
  5 32  1  0
  5 33  1  0
  5 34  1  0
  6 35  1  0
  6 36  1  0
  7 37  1  0
  7 38  1  0
  8 39  1  0
 10 40  1  0
 11 41  1  0
 14 42  1  0
 15 43  1  0
 16 44  1  0
 17 45  1  0
 18 46  1  0
 20 47  1  0
 21 48  1  0
 22 49  1  0
M  CHG  1  20   1
M  END
>  <UniqueID>  (39) 
36

>  <SMILES>  (39) 
CCN(CC)CCNc1ccc(-c2ccccc2)c2[nH+]ccnc12

>  <Energy>  (39) 
63.134448958794685

>  <Genealogy>  (39) 
CCN(CC)CCNc1ccc(-c2ccccc2)c2[nH+]ccnc12 (protonated)
CCN(CC)CCNc1ccc(-c2ccccc2)c2[nH+]ccnc12 (3D coordinates assigned)
CCN(CC)CCNc1ccc(-c2ccccc2)c2[nH+]ccnc12 (optimized conformer: 63.134448958794685 kcal/mol)

>  <smiles>  (39) 
CCN(CC)CCNc1ccc(-c2ccccc2)c2nccnc12

>  <score_type>  (39) 
oracle

>  <origin>  (39) 
adg

>  <m_score__min__energy>  (39) 
-7.4100000000000001

>  <m_primary>  (39) 
energy

$$$$
39:0
     RDKit          3D

 56 58  0  0  0  0  0  0  0  0999 V2000
   -5.9890   24.9330  -30.6440 C   0  0  0  0  0  0  0  0  0  0  0  0
   -4.8820   24.5540  -29.6650 C   0  0  0  0  0  0  0  0  0  0  0  0
   -3.5700   24.5820  -30.3180 N   0  0  0  0  0  0  0  0  0  0  0  0
   -2.3550   24.1460  -29.6700 C   0  0  0  0  0  0  0  0  0  0  0  0
   -1.6380   24.9980  -28.8130 C   0  0  0  0  0  0  0  0  0  0  0  0
   -0.4410   24.5780  -28.2270 C   0  0  0  0  0  0  0  0  0  0  0  0
    0.2340   25.4730  -27.3790 O   0  0  0  0  0  0  0  0  0  0  0  0
    0.1110   25.5230  -25.9560 C   0  0  0  0  0  0  0  0  0  0  0  0
   -1.1240   26.3180  -25.5480 C   0  0  0  0  0  0  0  0  0  0  0  0
    0.0270   23.2860  -28.5050 C   0  0  0  0  0  0  0  0  0  0  0  0
   -0.6750   22.4650  -29.3310 N   0  0  0  0  0  0  0  0  0  0  0  0
   -1.8440   22.8540  -29.9100 C   0  0  0  0  0  0  0  0  0  0  0  0
   -2.5540   21.9320  -30.7490 N   0  0  0  0  0  0  0  0  0  0  0  0
   -2.2220   21.8630  -32.1740 C   0  0  0  0  0  0  0  0  0  0  0  0
   -3.2250   20.9860  -32.9230 C   0  0  0  0  0  0  0  0  0  0  0  0
   -4.5690   21.2150  -32.3630 N   0  0  0  0  0  0  0  0  0  0  0  0
   -5.6220   20.6640  -33.2380 C   0  0  0  0  0  0  0  0  0  0  0  0
   -6.9880   20.9060  -32.6370 C   0  0  0  0  0  0  0  0  0  0  0  0
   -7.3750   22.2140  -32.3010 C   0  0  0  0  0  0  0  0  0  0  0  0
   -8.6230   22.4540  -31.7290 C   0  0  0  0  0  0  0  0  0  0  0  0
   -9.4840   21.3850  -31.4920 C   0  0  0  0  0  0  0  0  0  0  0  0
   -9.1040   20.1210  -31.8160 N   0  0  0  0  0  0  0  0  0  0  0  0
   -7.8930   19.8480  -32.3770 C   0  0  0  0  0  0  0  0  0  0  0  0
   -7.5590   18.4200  -32.6970 C   0  0  0  0  0  0  0  0  0  0  0  0
   -4.6720   20.6410  -31.0030 C   0  0  0  0  0  0  0  0  0  0  0  0
   -3.4240   20.9220  -30.1350 C   0  0  0  0  0  0  0  0  0  0  0  0
   -6.8847   25.2397  -30.0839 H   0  0  0  0  0  0  0  0  0  0  0  0
   -5.6493   25.7660  -31.2770 H   0  0  0  0  0  0  0  0  0  0  0  0
   -6.2312   24.0666  -31.2770 H   0  0  0  0  0  0  0  0  0  0  0  0
   -4.8824   25.2677  -28.8280 H   0  0  0  0  0  0  0  0  0  0  0  0
   -5.0705   23.5330  -29.3015 H   0  0  0  0  0  0  0  0  0  0  0  0
   -3.5180   24.9290  -31.3010 H   0  0  0  0  0  0  0  0  0  0  0  0
   -2.0231   26.0064  -28.6011 H   0  0  0  0  0  0  0  0  0  0  0  0
    0.0260   24.4984  -25.5650 H   0  0  0  0  0  0  0  0  0  0  0  0
    1.0020   26.0176  -25.5418 H   0  0  0  0  0  0  0  0  0  0  0  0
   -1.1877   26.3590  -24.4506 H   0  0  0  0  0  0  0  0  0  0  0  0
   -1.0516   27.3396  -25.9495 H   0  0  0  0  0  0  0  0  0  0  0  0
   -2.0239   25.8291  -25.9495 H   0  0  0  0  0  0  0  0  0  0  0  0
    0.9663   22.9348  -28.0529 H   0  0  0  0  0  0  0  0  0  0  0  0
   -0.3080   21.5020  -29.5080 H   0  0  0  0  0  0  0  0  0  0  0  0
   -2.2424   22.8775  -32.5986 H   0  0  0  0  0  0  0  0  0  0  0  0
   -1.2196   21.4231  -32.2816 H   0  0  0  0  0  0  0  0  0  0  0  0
   -3.2201   21.2487  -33.9912 H   0  0  0  0  0  0  0  0  0  0  0  0
   -2.9501   19.9267  -32.8124 H   0  0  0  0  0  0  0  0  0  0  0  0
   -5.5675   21.1524  -34.2221 H   0  0  0  0  0  0  0  0  0  0  0  0
   -5.4662   19.5803  -33.3442 H   0  0  0  0  0  0  0  0  0  0  0  0
   -6.6894   23.0531  -32.4904 H   0  0  0  0  0  0  0  0  0  0  0  0
   -8.9254   23.4786  -31.4670 H   0  0  0  0  0  0  0  0  0  0  0  0
  -10.4719   21.5639  -31.0424 H   0  0  0  0  0  0  0  0  0  0  0  0
   -7.4271   17.8559  -31.7619 H   0  0  0  0  0  0  0  0  0  0  0  0
   -8.3771   17.9743  -33.2818 H   0  0  0  0  0  0  0  0  0  0  0  0
   -6.6280   18.3834  -33.2818 H   0  0  0  0  0  0  0  0  0  0  0  0
   -5.5512   21.0752  -30.5045 H   0  0  0  0  0  0  0  0  0  0  0  0
   -4.7598   19.5499  -31.1112 H   0  0  0  0  0  0  0  0  0  0  0  0
   -3.7496   21.2837  -29.1485 H   0  0  0  0  0  0  0  0  0  0  0  0
   -2.8524   19.9868  -30.0420 H   0  0  0  0  0  0  0  0  0  0  0  0
  1  2  1  0
  2  3  1  0
  3  4  1  0
  4  5  2  0
  5  6  1  0
  6  7  1  0
  7  8  1  0
  8  9  1  0
  6 10  2  0
 10 11  1  0
 11 12  2  0
 12 13  1  0
 13 14  1  0
 14 15  1  0
 15 16  1  0
 16 17  1  0
 17 18  1  0
 18 19  2  0
 19 20  1  0
 20 21  2  0
 21 22  1  0
 22 23  2  0
 23 24  1  0
 16 25  1  0
 25 26  1  0
 12  4  1  0
 26 13  1  0
 23 18  1  0
  1 27  1  0
  1 28  1  0
  1 29  1  0
  2 30  1  0
  2 31  1  0
  3 32  1  0
  5 33  1  0
  8 34  1  0
  8 35  1  0
  9 36  1  0
  9 37  1  0
  9 38  1  0
 10 39  1  0
 11 40  1  0
 14 41  1  0
 14 42  1  0
 15 43  1  0
 15 44  1  0
 17 45  1  0
 17 46  1  0
 19 47  1  0
 20 48  1  0
 21 49  1  0
 24 50  1  0
 24 51  1  0
 24 52  1  0
 25 53  1  0
 25 54  1  0
 26 55  1  0
 26 56  1  0
M  CHG  1  11   1
M  END
>  <UniqueID>  (40) 
37

>  <SMILES>  (40) 
CCNc1cc(OCC)c[nH+]c1N1CCN(Cc2cccnc2C)CC1

>  <Energy>  (40) 
61.10095223273826

>  <Genealogy>  (40) 
CCNc1cc(OCC)c[nH+]c1N1CCN(Cc2cccnc2C)CC1 (protonated)
CCNc1cc(OCC)c[nH+]c1N1CCN(Cc2cccnc2C)CC1 (3D coordinates assigned)
CCNc1cc(OCC)c[nH+]c1N1CCN(Cc2cccnc2C)CC1 (nonaromatic ring conformer: 61.10095223273826 kcal/mol)

>  <smiles>  (40) 
CCNc1cc(OCC)cnc1N1CCN(Cc2cccnc2C)CC1

>  <score_type>  (40) 
oracle

>  <origin>  (40) 
adg

>  <m_score__min__energy>  (40) 
-6.8499999999999996

>  <m_primary>  (40) 
energy

$$$$
40:0
     RDKit          3D

 46 49  0  0  0  0  0  0  0  0999 V2000
   -3.0090   24.9580  -26.9600 C   0  0  0  0  0  0  0  0  0  0  0  0
   -2.1970   24.6570  -28.2310 C   0  0  1  0  0  0  0  0  0  0  0  0
   -0.9890   25.5810  -28.3070 C   0  0  0  0  0  0  0  0  0  0  0  0
   -1.1790   26.7890  -28.6260 O   0  0  0  0  0  0  0  0  0  0  0  0
    0.3630   25.1550  -28.0800 N   0  0  0  0  0  0  0  0  0  0  0  0
    1.2790   25.5720  -27.0180 C   0  0  0  0  0  0  0  0  0  0  0  0
    0.5200   26.0830  -25.8200 C   0  0  0  0  0  0  0  0  0  0  0  0
   -0.1880   27.2920  -25.8790 C   0  0  0  0  0  0  0  0  0  0  0  0
   -0.8630   27.7620  -24.7470 C   0  0  0  0  0  0  0  0  0  0  0  0
   -0.8230   27.0200  -23.5640 C   0  0  0  0  0  0  0  0  0  0  0  0
   -0.1260   25.8510  -23.5160 N   0  0  0  0  0  0  0  0  0  0  0  0
    0.5450   25.3780  -24.6050 C   0  0  0  0  0  0  0  0  0  0  0  0
   -1.7470   23.1520  -28.2650 C   0  0  0  0  0  0  0  0  0  0  0  0
   -2.4270   22.6210  -29.4810 C   0  0  0  0  0  0  0  0  0  0  0  0
   -2.3540   21.3560  -30.0820 C   0  0  0  0  0  0  0  0  0  0  0  0
   -1.5260   20.2690  -29.5200 C   0  0  0  0  0  0  0  0  0  0  0  0
   -1.6830   19.8870  -28.1750 C   0  0  0  0  0  0  0  0  0  0  0  0
   -0.9110   18.8510  -27.6410 C   0  0  0  0  0  0  0  0  0  0  0  0
    0.0340   18.1940  -28.4430 C   0  0  0  0  0  0  0  0  0  0  0  0
    0.8260   17.1260  -27.8950 C   0  0  0  0  0  0  0  0  0  0  0  0
    1.4640   16.2670  -27.4540 N   0  0  0  0  0  0  0  0  0  0  0  0
    0.2000   18.5750  -29.7790 C   0  0  0  0  0  0  0  0  0  0  0  0
   -0.5730   19.6090  -30.3150 C   0  0  0  0  0  0  0  0  0  0  0  0
   -3.0780   21.1580  -31.2770 C   0  0  0  0  0  0  0  0  0  0  0  0
   -3.8390   22.2140  -31.8160 C   0  0  0  0  0  0  0  0  0  0  0  0
   -3.8570   23.4330  -31.2050 N   0  0  0  0  0  0  0  0  0  0  0  0
   -3.1500   23.6200  -30.0620 C   0  0  0  0  0  0  0  0  0  0  0  0
   -3.0490   24.8060  -29.3720 O   0  0  0  0  0  0  0  0  0  0  0  0
   -2.3990   24.7319  -26.0730 H   0  0  0  0  0  0  0  0  0  0  0  0
   -3.2922   26.0209  -26.9490 H   0  0  0  0  0  0  0  0  0  0  0  0
   -3.9166   24.3366  -26.9490 H   0  0  0  0  0  0  0  0  0  0  0  0
    1.8934   24.7116  -26.7144 H   0  0  0  0  0  0  0  0  0  0  0  0
    1.9150   26.3831  -27.4021 H   0  0  0  0  0  0  0  0  0  0  0  0
   -0.2127   27.8704  -26.8143 H   0  0  0  0  0  0  0  0  0  0  0  0
   -1.4212   28.7090  -24.7883 H   0  0  0  0  0  0  0  0  0  0  0  0
   -1.3547   27.3801  -22.6709 H   0  0  0  0  0  0  0  0  0  0  0  0
   -0.1060   25.3050  -22.6250 H   0  0  0  0  0  0  0  0  0  0  0  0
    1.1102   24.4372  -24.5315 H   0  0  0  0  0  0  0  0  0  0  0  0
   -0.6539   23.0690  -28.3563 H   0  0  0  0  0  0  0  0  0  0  0  0
   -2.0094   22.6023  -27.3490 H   0  0  0  0  0  0  0  0  0  0  0  0
   -2.4167   20.4060  -27.5406 H   0  0  0  0  0  0  0  0  0  0  0  0
   -1.0447   18.5508  -26.5912 H   0  0  0  0  0  0  0  0  0  0  0  0
    0.9403   18.0599  -30.4088 H   0  0  0  0  0  0  0  0  0  0  0  0
   -0.4348   19.9078  -31.3646 H   0  0  0  0  0  0  0  0  0  0  0  0
   -3.0483   20.1831  -31.7856 H   0  0  0  0  0  0  0  0  0  0  0  0
   -4.4220   22.0543  -32.7350 H   0  0  0  0  0  0  0  0  0  0  0  0
  2  1  1  1
  2  3  1  0
  3  4  2  0
  3  5  1  0
  5  6  1  0
  6  7  1  0
  7  8  2  0
  8  9  1  0
  9 10  2  0
 10 11  1  0
 11 12  2  0
  2 13  1  0
 13 14  1  0
 14 15  2  0
 15 16  1  0
 16 17  2  0
 17 18  1  0
 18 19  2  0
 19 20  1  0
 20 21  3  0
 19 22  1  0
 22 23  2  0
 15 24  1  0
 24 25  2  0
 25 26  1  0
 26 27  2  0
 27 28  1  0
 28  2  1  0
 12  7  1  0
 27 14  1  0
 23 16  1  0
  1 29  1  0
  1 30  1  0
  1 31  1  0
  6 32  1  0
  6 33  1  0
  8 34  1  0
  9 35  1  0
 10 36  1  0
 11 37  1  0
 12 38  1  0
 13 39  1  0
 13 40  1  0
 17 41  1  0
 18 42  1  0
 22 43  1  0
 23 44  1  0
 24 45  1  0
 25 46  1  0
M  CHG  2   5  -1  11   1
M  END
>  <UniqueID>  (41) 
38

>  <SMILES>  (41) 
C[C@@]1(C(=O)[N-]Cc2ccc[nH+]c2)Cc2c(-c3ccc(C#N)cc3)ccnc2O1

>  <Energy>  (41) 
74.36276888127726

>  <Genealogy>  (41) 
CC1(C(=O)[N-]Cc2ccc[nH+]c2)Cc2c(-c3ccc(C#N)cc3)ccnc2O1 (protonated)
C[C@@]1(C(=O)[N-]Cc2ccc[nH+]c2)Cc2c(-c3ccc(C#N)cc3)ccnc2O1 (chirality)
C[C@@]1(C(=O)[N-]Cc2ccc[nH+]c2)Cc2c(-c3ccc(C#N)cc3)ccnc2O1 (3D coordinates assigned)
C[C@@]1(C(=O)[N-]Cc2ccc[nH+]c2)Cc2c(-c3ccc(C#N)cc3)ccnc2O1 (nonaromatic ring conformer: 74.36276888127726 kcal/mol)

>  <smiles>  (41) 
CC1(C(=O)NCc2cccnc2)Cc2c(-c3ccc(C#N)cc3)ccnc2O1

>  <score_type>  (41) 
oracle

>  <origin>  (41) 
adg

>  <m_score__min__energy>  (41) 
-10.470000000000001

>  <m_primary>  (41) 
energy

$$$$
41:0
     RDKit          3D

 66 69  0  0  0  0  0  0  0  0999 V2000
   -2.4360   24.8970  -26.9440 C   0  0  0  0  0  0  0  0  0  0  0  0
   -1.6370   25.2880  -28.1780 C   0  0  0  0  0  0  0  0  0  0  0  0
   -2.3960   25.0030  -29.3330 O   0  0  0  0  0  0  0  0  0  0  0  0
   -2.4100   23.6120  -29.5920 C   0  0  0  0  0  0  0  0  0  0  0  0
   -3.8530   23.1290  -29.7430 C   0  0  0  0  0  0  0  0  0  0  0  0
   -4.4080   23.2630  -31.1770 C   0  0  0  0  0  0  0  0  0  0  0  0
   -4.7530   21.9480  -31.7710 N   0  0  0  0  0  0  0  0  0  0  0  0
   -6.1480   21.5330  -31.8430 C   0  0  0  0  0  0  0  0  0  0  0  0
   -7.1690   22.4230  -31.7260 C   0  0  0  0  0  0  0  0  0  0  0  0
   -8.6340   22.0350  -31.7740 C   0  0  0  0  0  0  0  0  0  0  0  0
   -9.4550   23.2090  -32.3430 C   0  0  0  0  0  0  0  0  0  0  0  0
   -9.1220   21.7320  -30.3430 C   0  0  0  0  0  0  0  0  0  0  0  0
   -8.8220   20.8110  -32.6870 C   0  0  0  0  0  0  0  0  0  0  0  0
   -7.8760   19.7310  -32.2700 C   0  0  0  0  0  0  0  0  0  0  0  0
   -8.2900   18.5930  -32.1080 O   0  0  0  0  0  0  0  0  0  0  0  0
   -6.4130   20.0540  -32.0330 C   0  0  1  0  0  0  0  0  0  0  0  0
   -5.5240   19.5380  -33.1840 C   0  0  2  0  0  0  0  0  0  0  0  0
   -5.7000   18.0390  -33.3280 C   0  0  0  0  0  0  0  0  0  0  0  0
   -5.4310   17.0890  -32.3650 C   0  0  0  0  0  0  0  0  0  0  0  0
   -5.7120   15.8730  -32.9570 C   0  0  0  0  0  0  0  0  0  0  0  0
   -6.1170   16.0610  -34.1940 O   0  0  0  0  0  0  0  0  0  0  0  0
   -6.1180   17.3490  -34.4510 C   0  0  0  0  0  0  0  0  0  0  0  0
   -4.0590   19.9110  -32.9580 C   0  0  0  0  0  0  0  0  0  0  0  0
   -3.7160   21.0390  -32.2680 C   0  0  0  0  0  0  0  0  0  0  0  0
   -2.2460   21.2590  -31.8800 C   0  0  0  0  0  0  0  0  0  0  0  0
   -1.2040   20.6240  -32.8370 C   0  0  0  0  0  0  0  0  0  0  0  0
    0.1870   20.6580  -32.1690 C   0  0  0  0  0  0  0  0  0  0  0  0
   -1.1280   21.4190  -34.1620 C   0  0  0  0  0  0  0  0  0  0  0  0
   -1.5900   19.1630  -33.1040 C   0  0  0  0  0  0  0  0  0  0  0  0
   -2.9920   19.0980  -33.6080 C   0  0  0  0  0  0  0  0  0  0  0  0
   -3.2500   18.3700  -34.6070 O   0  0  0  0  0  0  0  0  0  0  0  0
   -1.8729   25.1725  -26.0401 H   0  0  0  0  0  0  0  0  0  0  0  0
   -3.4012   25.4246  -26.9498 H   0  0  0  0  0  0  0  0  0  0  0  0
   -2.6116   23.8111  -26.9498 H   0  0  0  0  0  0  0  0  0  0  0  0
   -1.4099   26.3638  -28.1434 H   0  0  0  0  0  0  0  0  0  0  0  0
   -0.6964   24.7182  -28.2045 H   0  0  0  0  0  0  0  0  0  0  0  0
   -1.8572   23.4077  -30.5208 H   0  0  0  0  0  0  0  0  0  0  0  0
   -1.9346   23.0812  -28.7540 H   0  0  0  0  0  0  0  0  0  0  0  0
   -3.8962   22.0690  -29.4521 H   0  0  0  0  0  0  0  0  0  0  0  0
   -4.4739   23.7682  -29.0981 H   0  0  0  0  0  0  0  0  0  0  0  0
   -5.3132   23.8874  -31.1493 H   0  0  0  0  0  0  0  0  0  0  0  0
   -3.6249   23.7194  -31.8003 H   0  0  0  0  0  0  0  0  0  0  0  0
   -6.9180   23.4851  -31.5887 H   0  0  0  0  0  0  0  0  0  0  0  0
   -9.8697   23.8020  -31.5145 H   0  0  0  0  0  0  0  0  0  0  0  0
   -8.8046   23.8461  -32.9603 H   0  0  0  0  0  0  0  0  0  0  0  0
  -10.2766   22.8167  -32.9603 H   0  0  0  0  0  0  0  0  0  0  0  0
   -8.4204   22.1676  -29.6164 H   0  0  0  0  0  0  0  0  0  0  0  0
  -10.1206   22.1691  -30.1959 H   0  0  0  0  0  0  0  0  0  0  0  0
   -9.1731   20.6431  -30.1959 H   0  0  0  0  0  0  0  0  0  0  0  0
   -9.8562   20.4457  -32.6029 H   0  0  0  0  0  0  0  0  0  0  0  0
   -8.6184   21.0956  -33.7299 H   0  0  0  0  0  0  0  0  0  0  0  0
   -6.1558   19.5367  -31.0969 H   0  0  0  0  0  0  0  0  0  0  0  0
   -5.8367   20.0199  -34.1221 H   0  0  0  0  0  0  0  0  0  0  0  0
   -5.0689   17.2630  -31.3410 H   0  0  0  0  0  0  0  0  0  0  0  0
   -5.6119   14.8934  -32.4668 H   0  0  0  0  0  0  0  0  0  0  0  0
   -6.4060   17.8068  -35.4089 H   0  0  0  0  0  0  0  0  0  0  0  0
   -2.0618   22.3430  -31.8485 H   0  0  0  0  0  0  0  0  0  0  0  0
   -2.1104   20.7596  -30.9093 H   0  0  0  0  0  0  0  0  0  0  0  0
    0.0687   20.6551  -31.0754 H   0  0  0  0  0  0  0  0  0  0  0  0
    0.7638   19.7737  -32.4778 H   0  0  0  0  0  0  0  0  0  0  0  0
    0.7199   21.5694  -32.4778 H   0  0  0  0  0  0  0  0  0  0  0  0
   -1.0255   22.4916  -33.9407 H   0  0  0  0  0  0  0  0  0  0  0  0
   -0.2582   21.0799  -34.7437 H   0  0  0  0  0  0  0  0  0  0  0  0
   -2.0463   21.2508  -34.7437 H   0  0  0  0  0  0  0  0  0  0  0  0
   -0.9106   18.7370  -33.8569 H   0  0  0  0  0  0  0  0  0  0  0  0
   -1.5118   18.5887  -32.1691 H   0  0  0  0  0  0  0  0  0  0  0  0
  1  2  1  0
  2  3  1  0
  3  4  1  0
  4  5  1  0
  5  6  1  0
  6  7  1  0
  7  8  1  0
  8  9  2  0
  9 10  1  0
 10 11  1  0
 10 12  1  0
 10 13  1  0
 13 14  1  0
 14 15  2  0
 14 16  1  0
 16 17  1  0
 17 18  1  0
 18 19  1  0
 19 20  2  0
 20 21  1  0
 21 22  1  0
 17 23  1  0
 23 24  2  0
 24 25  1  0
 25 26  1  0
 26 27  1  0
 26 28  1  0
 26 29  1  0
 29 30  1  0
 30 31  2  0
 24  7  1  0
 16  8  1  0
 22 18  2  0
 30 23  1  0
  1 32  1  0
  1 33  1  0
  1 34  1  0
  2 35  1  0
  2 36  1  0
  4 37  1  0
  4 38  1  0
  5 39  1  0
  5 40  1  0
  6 41  1  0
  6 42  1  0
  9 43  1  0
 11 44  1  0
 11 45  1  0
 11 46  1  0
 12 47  1  0
 12 48  1  0
 12 49  1  0
 13 50  1  0
 13 51  1  0
 16 52  1  1
 17 53  1  6
 19 54  1  0
 20 55  1  0
 22 56  1  0
 25 57  1  0
 25 58  1  0
 27 59  1  0
 27 60  1  0
 27 61  1  0
 28 62  1  0
 28 63  1  0
 28 64  1  0
 29 65  1  0
 29 66  1  0
M  END
>  <UniqueID>  (42) 
39

>  <SMILES>  (42) 
CCOCCCN1C2=CC(C)(C)CC(=O)[C@H]2[C@H](c2ccoc2)C2=C1CC(C)(C)CC2=O

>  <Energy>  (42) 
101.30202923096623

>  <Genealogy>  (42) 
CCOCCCN1C2=CC(C)(C)CC(=O)[C@H]2[C@H](c2ccoc2)C2=C1CC(C)(C)CC2=O (chirality)
CCOCCCN1C2=CC(C)(C)CC(=O)[C@H]2[C@H](c2ccoc2)C2=C1CC(C)(C)CC2=O (3D coordinates assigned)
CCOCCCN1C2=CC(C)(C)CC(=O)[C@H]2[C@H](c2ccoc2)C2=C1CC(C)(C)CC2=O (nonaromatic ring conformer: 101.30202923096623 kcal/mol)

>  <smiles>  (42) 
CCOCCCN1C2=CC(C)(C)CC(=O)C2C(c2ccoc2)C2=C1CC(C)(C)CC2=O

>  <score_type>  (42) 
oracle

>  <origin>  (42) 
adg

>  <m_score__min__energy>  (42) 
-10.800000000000001

>  <m_primary>  (42) 
energy

$$$$
42:0
     RDKit          3D

 46 50  0  0  0  0  0  0  0  0999 V2000
   -5.6550   25.7700  -30.1890 C   0  0  0  0  0  0  0  0  0  0  0  0
   -5.1770   24.8890  -31.2000 O   0  0  0  0  0  0  0  0  0  0  0  0
   -5.7540   23.6480  -31.5140 C   0  0  0  0  0  0  0  0  0  0  0  0
   -7.1470   23.4450  -31.4870 C   0  0  0  0  0  0  0  0  0  0  0  0
   -7.6880   22.1970  -31.8060 C   0  0  0  0  0  0  0  0  0  0  0  0
   -9.0340   22.0180  -31.7740 N   0  0  0  0  0  0  0  0  0  0  0  0
   -9.6040   20.8230  -32.0760 C   0  0  0  0  0  0  0  0  0  0  0  0
   -8.8070   19.7340  -32.4300 C   0  0  0  0  0  0  0  0  0  0  0  0
   -7.4080   19.8730  -32.4720 C   0  0  0  0  0  0  0  0  0  0  0  0
   -6.5630   18.8030  -32.8220 O   0  0  0  0  0  0  0  0  0  0  0  0
   -6.4060   18.2650  -34.1340 C   0  0  0  0  0  0  0  0  0  0  0  0
   -5.2170   17.3590  -34.1890 C   0  0  0  0  0  0  0  0  0  0  0  0
   -5.2670   16.0030  -34.2860 N   0  0  0  0  0  0  0  0  0  0  0  0
   -4.0090   15.5450  -34.3310 N   0  0  0  0  0  0  0  0  0  0  0  0
   -3.2430   16.6470  -34.2540 C   0  0  0  0  0  0  0  0  0  0  0  0
   -1.5980   16.9420  -34.2960 S   0  0  0  0  0  0  0  0  0  0  0  0
   -1.9400   18.6380  -34.1850 C   0  0  0  0  0  0  0  0  0  0  0  0
   -0.9200   19.7110  -34.1670 C   0  0  0  0  0  0  0  0  0  0  0  0
   -0.4550   20.2890  -35.3610 C   0  0  0  0  0  0  0  0  0  0  0  0
    0.5090   21.2990  -35.3110 C   0  0  0  0  0  0  0  0  0  0  0  0
    0.9940   21.7220  -34.1150 N   0  0  0  0  0  0  0  0  0  0  0  0
    0.5650   21.1840  -32.9430 C   0  0  0  0  0  0  0  0  0  0  0  0
   -0.3970   20.1700  -32.9470 C   0  0  0  0  0  0  0  0  0  0  0  0
   -3.2820   18.8900  -34.1280 N   0  0  0  0  0  0  0  0  0  0  0  0
   -3.9410   17.7440  -34.1660 N   0  0  0  0  0  0  0  0  0  0  0  0
   -6.8390   21.1250  -32.1590 C   0  0  0  0  0  0  0  0  0  0  0  0
   -5.4480   21.3290  -32.1840 C   0  0  0  0  0  0  0  0  0  0  0  0
   -4.9030   22.5880  -31.8620 C   0  0  0  0  0  0  0  0  0  0  0  0
   -3.5200   22.8260  -31.8780 O   0  0  0  0  0  0  0  0  0  0  0  0
   -2.5530   22.0260  -31.2030 C   0  0  0  0  0  0  0  0  0  0  0  0
   -5.4269   25.3496  -29.1984 H   0  0  0  0  0  0  0  0  0  0  0  0
   -5.1643   26.7489  -30.2937 H   0  0  0  0  0  0  0  0  0  0  0  0
   -6.7432   25.8923  -30.2937 H   0  0  0  0  0  0  0  0  0  0  0  0
   -7.8144   24.2753  -31.2127 H   0  0  0  0  0  0  0  0  0  0  0  0
  -10.6980   20.7133  -32.0414 H   0  0  0  0  0  0  0  0  0  0  0  0
   -9.2721   18.7680  -32.6759 H   0  0  0  0  0  0  0  0  0  0  0  0
   -7.3080   17.6954  -34.4022 H   0  0  0  0  0  0  0  0  0  0  0  0
   -6.2560   19.0928  -34.8427 H   0  0  0  0  0  0  0  0  0  0  0  0
   -0.8482   19.9478  -36.3300 H   0  0  0  0  0  0  0  0  0  0  0  0
    0.8763   21.7530  -36.2432 H   0  0  0  0  0  0  0  0  0  0  0  0
    0.9757   21.5473  -31.9894 H   0  0  0  0  0  0  0  0  0  0  0  0
   -0.7430   19.7333  -31.9986 H   0  0  0  0  0  0  0  0  0  0  0  0
   -4.7798   20.4990  -32.4571 H   0  0  0  0  0  0  0  0  0  0  0  0
   -2.6827   22.1333  -30.1160 H   0  0  0  0  0  0  0  0  0  0  0  0
   -2.6874   20.9716  -31.4860 H   0  0  0  0  0  0  0  0  0  0  0  0
   -1.5424   22.3556  -31.4860 H   0  0  0  0  0  0  0  0  0  0  0  0
  1  2  1  0
  2  3  1  0
  3  4  2  0
  4  5  1  0
  5  6  2  0
  6  7  1  0
  7  8  2  0
  8  9  1  0
  9 10  1  0
 10 11  1  0
 11 12  1  0
 12 13  2  0
 13 14  1  0
 14 15  2  0
 15 16  1  0
 16 17  1  0
 17 18  1  0
 18 19  2  0
 19 20  1  0
 20 21  2  0
 21 22  1  0
 22 23  2  0
 17 24  2  0
 24 25  1  0
  9 26  2  0
 26 27  1  0
 27 28  2  0
 28 29  1  0
 29 30  1  0
 28  3  1  0
 26  5  1  0
 25 12  1  0
 25 15  1  0
 23 18  1  0
  1 31  1  0
  1 32  1  0
  1 33  1  0
  4 34  1  0
  7 35  1  0
  8 36  1  0
 11 37  1  0
 11 38  1  0
 19 39  1  0
 20 40  1  0
 22 41  1  0
 23 42  1  0
 27 43  1  0
 30 44  1  0
 30 45  1  0
 30 46  1  0
M  END
>  <UniqueID>  (43) 
40

>  <SMILES>  (43) 
COc1cc2nccc(OCc3nnc4sc(-c5ccncc5)nn34)c2cc1OC

>  <Energy>  (43) 
149.69005730597254

>  <Genealogy>  (43) 
COc1cc2nccc(OCc3nnc4sc(-c5ccncc5)nn34)c2cc1OC (3D coordinates assigned)
COc1cc2nccc(OCc3nnc4sc(-c5ccncc5)nn34)c2cc1OC (optimized conformer: 149.69005730597254 kcal/mol)

>  <smiles>  (43) 
COc1cc2nccc(OCc3nnc4sc(-c5ccncc5)nn34)c2cc1OC

>  <score_type>  (43) 
oracle

>  <origin>  (43) 
adg

>  <m_score__min__energy>  (43) 
-9.0099999999999998

>  <m_primary>  (43) 
energy

$$$$
43:0
     RDKit          3D

 54 57  0  0  0  0  0  0  0  0999 V2000
   -5.9760   17.4130  -34.4260 C   0  0  0  0  0  0  0  0  0  0  0  0
   -5.7620   18.9110  -34.6210 C   0  0  0  0  0  0  0  0  0  0  0  0
   -5.1760   19.5060  -33.4160 N   0  0  0  0  0  0  0  0  0  0  0  0
   -3.7810   19.8420  -33.3690 C   0  0  0  0  0  0  0  0  0  0  0  0
   -2.8120   18.8270  -33.3080 C   0  0  0  0  0  0  0  0  0  0  0  0
   -1.4530   19.1510  -33.2600 C   0  0  0  0  0  0  0  0  0  0  0  0
   -1.0520   20.4890  -33.2760 C   0  0  0  0  0  0  0  0  0  0  0  0
   -2.0110   21.5060  -33.3360 C   0  0  0  0  0  0  0  0  0  0  0  0
   -3.3710   21.1850  -33.3820 C   0  0  0  0  0  0  0  0  0  0  0  0
   -6.1430   19.6460  -31.9800 S   0  0  0  0  0  0  0  0  0  0  0  0
   -7.5110   19.0640  -32.2040 O   0  0  0  0  0  0  0  0  0  0  0  0
   -5.4830   18.8900  -30.8600 O   0  0  0  0  0  0  0  0  0  0  0  0
   -6.3030   21.3510  -31.5740 C   0  0  0  0  0  0  0  0  0  0  0  0
   -7.5230   21.9980  -31.7940 C   0  0  0  0  0  0  0  0  0  0  0  0
   -7.6570   23.3580  -31.5110 C   0  0  0  0  0  0  0  0  0  0  0  0
   -6.5740   24.0800  -31.0050 C   0  0  0  0  0  0  0  0  0  0  0  0
   -5.3440   23.4420  -30.7670 C   0  0  0  0  0  0  0  0  0  0  0  0
   -4.1860   24.2050  -30.2420 C   0  0  0  0  0  0  0  0  0  0  0  0
   -3.8590   25.2880  -30.7970 O   0  0  0  0  0  0  0  0  0  0  0  0
   -3.4260   23.7350  -29.1120 N   0  0  0  0  0  0  0  0  0  0  0  0
   -2.0920   24.2680  -28.8380 C   0  0  0  0  0  0  0  0  0  0  0  0
   -1.0550   23.1770  -29.0960 C   0  0  0  0  0  0  0  0  0  0  0  0
   -1.4360   21.8800  -28.4230 C   0  0  0  0  0  0  0  0  0  0  0  0
   -0.4420   20.9140  -28.1920 C   0  0  0  0  0  0  0  0  0  0  0  0
   -0.7760   19.6770  -27.6400 C   0  0  0  0  0  0  0  0  0  0  0  0
   -2.1030   19.3890  -27.3150 C   0  0  0  0  0  0  0  0  0  0  0  0
   -3.1020   20.3370  -27.5380 C   0  0  0  0  0  0  0  0  0  0  0  0
   -2.7850   21.5810  -28.1090 C   0  0  0  0  0  0  0  0  0  0  0  0
   -3.8860   22.5940  -28.3100 C   0  0  0  0  0  0  0  0  0  0  0  0
   -5.2130   22.0750  -31.0680 C   0  0  0  0  0  0  0  0  0  0  0  0
   -6.0087   17.1842  -33.3506 H   0  0  0  0  0  0  0  0  0  0  0  0
   -6.9259   17.1144  -34.8934 H   0  0  0  0  0  0  0  0  0  0  0  0
   -5.1477   16.8604  -34.8934 H   0  0  0  0  0  0  0  0  0  0  0  0
   -5.0832   19.0722  -35.4714 H   0  0  0  0  0  0  0  0  0  0  0  0
   -6.7340   19.3872  -34.8169 H   0  0  0  0  0  0  0  0  0  0  0  0
   -3.1240   17.7722  -33.2980 H   0  0  0  0  0  0  0  0  0  0  0  0
   -0.6989   18.3518  -33.2096 H   0  0  0  0  0  0  0  0  0  0  0  0
    0.0177   20.7431  -33.2414 H   0  0  0  0  0  0  0  0  0  0  0  0
   -1.6946   22.5594  -33.3470 H   0  0  0  0  0  0  0  0  0  0  0  0
   -4.1223   21.9871  -33.4285 H   0  0  0  0  0  0  0  0  0  0  0  0
   -8.3794   21.4334  -32.1912 H   0  0  0  0  0  0  0  0  0  0  0  0
   -8.6184   23.8627  -31.6870 H   0  0  0  0  0  0  0  0  0  0  0  0
   -6.6839   25.1535  -30.7915 H   0  0  0  0  0  0  0  0  0  0  0  0
   -1.8956   25.1262  -29.4976 H   0  0  0  0  0  0  0  0  0  0  0  0
   -2.0321   24.5956  -27.7896 H   0  0  0  0  0  0  0  0  0  0  0  0
   -0.9768   23.0075  -30.1801 H   0  0  0  0  0  0  0  0  0  0  0  0
   -0.0926   23.5110  -28.6811 H   0  0  0  0  0  0  0  0  0  0  0  0
    0.6049   21.1343  -28.4477 H   0  0  0  0  0  0  0  0  0  0  0  0
    0.0081   18.9267  -27.4604 H   0  0  0  0  0  0  0  0  0  0  0  0
   -2.3616   18.4115  -26.8818 H   0  0  0  0  0  0  0  0  0  0  0  0
   -4.1431   20.1094  -27.2654 H   0  0  0  0  0  0  0  0  0  0  0  0
   -4.7276   22.1097  -28.8268 H   0  0  0  0  0  0  0  0  0  0  0  0
   -4.1962   22.9678  -27.3231 H   0  0  0  0  0  0  0  0  0  0  0  0
   -4.2495   21.5697  -30.9057 H   0  0  0  0  0  0  0  0  0  0  0  0
  1  2  1  0
  2  3  1  0
  3  4  1  0
  4  5  2  0
  5  6  1  0
  6  7  2  0
  7  8  1  0
  8  9  2  0
  3 10  1  0
 10 11  2  0
 10 12  2  0
 10 13  1  0
 13 14  2  0
 14 15  1  0
 15 16  2  0
 16 17  1  0
 17 18  1  0
 18 19  2  0
 18 20  1  0
 20 21  1  0
 21 22  1  0
 22 23  1  0
 23 24  2  0
 24 25  1  0
 25 26  2  0
 26 27  1  0
 27 28  2  0
 28 29  1  0
 17 30  2  0
  9  4  1  0
 30 13  1  0
 29 20  1  0
 28 23  1  0
  1 31  1  0
  1 32  1  0
  1 33  1  0
  2 34  1  0
  2 35  1  0
  5 36  1  0
  6 37  1  0
  7 38  1  0
  8 39  1  0
  9 40  1  0
 14 41  1  0
 15 42  1  0
 16 43  1  0
 21 44  1  0
 21 45  1  0
 22 46  1  0
 22 47  1  0
 24 48  1  0
 25 49  1  0
 26 50  1  0
 27 51  1  0
 29 52  1  0
 29 53  1  0
 30 54  1  0
M  END
>  <UniqueID>  (44) 
41

>  <SMILES>  (44) 
CCN(c1ccccc1)S(=O)(=O)c1cccc(C(=O)N2CCc3ccccc3C2)c1

>  <Energy>  (44) 
67.05618482927495

>  <Genealogy>  (44) 
CCN(c1ccccc1)S(=O)(=O)c1cccc(C(=O)N2CCc3ccccc3C2)c1 (3D coordinates assigned)
CCN(c1ccccc1)S(=O)(=O)c1cccc(C(=O)N2CCc3ccccc3C2)c1 (nonaromatic ring conformer: 67.05618482927495 kcal/mol)

>  <smiles>  (44) 
CCN(c1ccccc1)S(=O)(=O)c1cccc(C(=O)N2CCc3ccccc3C2)c1

>  <score_type>  (44) 
oracle

>  <origin>  (44) 
adg

>  <m_score__min__energy>  (44) 
-10.33

>  <m_primary>  (44) 
energy

$$$$
44:0
     RDKit          3D

 48 50  0  0  0  0  0  0  0  0999 V2000
    0.6960   22.4370  -27.0350 C   0  0  0  0  0  0  0  0  0  0  0  0
    1.4540   23.7640  -27.0760 C   0  0  0  0  0  0  0  0  0  0  0  0
    0.7120   24.7790  -27.8570 N   0  0  0  0  0  0  0  0  0  0  0  0
    0.3620   25.9650  -27.0300 C   0  0  0  0  0  0  0  0  0  0  0  0
    0.3760   25.5810  -25.5560 C   0  0  0  0  0  0  0  0  0  0  0  0
   -0.4860   24.1770  -28.4830 C   0  0  0  0  0  0  0  0  0  0  0  0
   -1.7470   24.9800  -28.1380 C   0  0  0  0  0  0  0  0  0  0  0  0
   -2.4850   25.2890  -29.3220 O   0  0  0  0  0  0  0  0  0  0  0  0
   -3.5760   24.5540  -29.8150 C   0  0  0  0  0  0  0  0  0  0  0  0
   -4.7040   25.1610  -30.3990 C   0  0  0  0  0  0  0  0  0  0  0  0
   -5.7610   24.3790  -30.8730 C   0  0  0  0  0  0  0  0  0  0  0  0
   -5.7120   22.9770  -30.7780 C   0  0  0  0  0  0  0  0  0  0  0  0
   -6.8350   22.1460  -31.2800 C   0  0  0  0  0  0  0  0  0  0  0  0
   -8.1200   22.7240  -31.5120 C   0  0  0  0  0  0  0  0  0  0  0  0
   -9.1600   21.9610  -31.9730 N   0  0  0  0  0  0  0  0  0  0  0  0
   -8.9460   20.6450  -32.2070 C   0  0  0  0  0  0  0  0  0  0  0  0
   -9.8310   19.7330  -32.6470 N   0  0  0  0  0  0  0  0  0  0  0  0
   -9.1520   18.5870  -32.7050 N   0  0  0  0  0  0  0  0  0  0  0  0
   -7.8890   18.7610  -32.3240 N   0  0  0  0  0  0  0  0  0  0  0  0
   -6.8850   17.7070  -32.2500 C   0  0  0  0  0  0  0  0  0  0  0  0
   -7.7470   20.0540  -32.0040 C   0  0  0  0  0  0  0  0  0  0  0  0
   -6.6490   20.7650  -31.5350 C   0  0  0  0  0  0  0  0  0  0  0  0
   -4.5820   22.3760  -30.1970 C   0  0  0  0  0  0  0  0  0  0  0  0
   -3.5260   23.1590  -29.7230 C   0  0  0  0  0  0  0  0  0  0  0  0
    0.5280   22.1429  -25.9884 H   0  0  0  0  0  0  0  0  0  0  0  0
   -0.2726   22.5521  -27.5435 H   0  0  0  0  0  0  0  0  0  0  0  0
    1.2872   21.6612  -27.5435 H   0  0  0  0  0  0  0  0  0  0  0  0
    1.5907   24.1313  -26.0482 H   0  0  0  0  0  0  0  0  0  0  0  0
    2.4275   23.5949  -27.5595 H   0  0  0  0  0  0  0  0  0  0  0  0
    1.0963   26.7646  -27.2072 H   0  0  0  0  0  0  0  0  0  0  0  0
   -0.6419   26.3199  -27.3060 H   0  0  0  0  0  0  0  0  0  0  0  0
    0.3428   26.4915  -24.9396 H   0  0  0  0  0  0  0  0  0  0  0  0
   -0.4999   24.9544  -25.3320 H   0  0  0  0  0  0  0  0  0  0  0  0
    1.2952   25.0198  -25.3320 H   0  0  0  0  0  0  0  0  0  0  0  0
   -0.3542   24.1653  -29.5750 H   0  0  0  0  0  0  0  0  0  0  0  0
   -0.6058   23.1531  -28.0991 H   0  0  0  0  0  0  0  0  0  0  0  0
   -2.3800   24.3866  -27.4618 H   0  0  0  0  0  0  0  0  0  0  0  0
   -1.4473   25.9197  -27.6510 H   0  0  0  0  0  0  0  0  0  0  0  0
   -4.7538   26.2567  -30.4827 H   0  0  0  0  0  0  0  0  0  0  0  0
   -6.6388   24.8646  -31.3243 H   0  0  0  0  0  0  0  0  0  0  0  0
   -8.2766   23.7954  -31.3181 H   0  0  0  0  0  0  0  0  0  0  0  0
  -10.0980   22.3880  -32.1420 H   0  0  0  0  0  0  0  0  0  0  0  0
   -6.6687   17.4800  -31.1956 H   0  0  0  0  0  0  0  0  0  0  0  0
   -7.2646   16.8033  -32.7493 H   0  0  0  0  0  0  0  0  0  0  0  0
   -5.9639   18.0423  -32.7493 H   0  0  0  0  0  0  0  0  0  0  0  0
   -5.6775   20.2766  -31.3689 H   0  0  0  0  0  0  0  0  0  0  0  0
   -4.5285   21.2804  -30.1147 H   0  0  0  0  0  0  0  0  0  0  0  0
   -2.6472   22.6738  -29.2733 H   0  0  0  0  0  0  0  0  0  0  0  0
  1  2  1  0
  2  3  1  0
  3  4  1  0
  4  5  1  0
  3  6  1  0
  6  7  1  0
  7  8  1  0
  8  9  1  0
  9 10  2  0
 10 11  1  0
 11 12  2  0
 12 13  1  0
 13 14  2  0
 14 15  1  0
 15 16  2  0
 16 17  1  0
 17 18  2  0
 18 19  1  0
 19 20  1  0
 19 21  1  0
 21 22  2  0
 12 23  1  0
 23 24  2  0
 24  9  1  0
 22 13  1  0
 21 16  1  0
  1 25  1  0
  1 26  1  0
  1 27  1  0
  2 28  1  0
  2 29  1  0
  4 30  1  0
  4 31  1  0
  5 32  1  0
  5 33  1  0
  5 34  1  0
  6 35  1  0
  6 36  1  0
  7 37  1  0
  7 38  1  0
 10 39  1  0
 11 40  1  0
 14 41  1  0
 15 42  1  0
 20 43  1  0
 20 44  1  0
 20 45  1  0
 22 46  1  0
 23 47  1  0
 24 48  1  0
M  CHG  1  15   1
M  END
>  <UniqueID>  (45) 
42

>  <SMILES>  (45) 
CCN(CC)CCOc1ccc(-c2c[nH+]c3nnn(C)c3c2)cc1

>  <Energy>  (45) 
98.68951777599761

>  <Genealogy>  (45) 
CCN(CC)CCOc1ccc(-c2c[nH+]c3nnn(C)c3c2)cc1 (protonated)
CCN(CC)CCOc1ccc(-c2c[nH+]c3nnn(C)c3c2)cc1 (3D coordinates assigned)
CCN(CC)CCOc1ccc(-c2c[nH+]c3nnn(C)c3c2)cc1 (optimized conformer: 98.68951777599761 kcal/mol)

>  <smiles>  (45) 
CCN(CC)CCOc1ccc(-c2cnc3nnn(C)c3c2)cc1

>  <score_type>  (45) 
oracle

>  <origin>  (45) 
adg

>  <m_score__min__energy>  (45) 
-7.9299999999999997

>  <m_primary>  (45) 
energy

$$$$
45:0
     RDKit          3D

 49 51  0  0  0  0  0  0  0  0999 V2000
   -9.0910   18.4300  -31.6790 C   0  0  0  0  0  0  0  0  0  0  0  0
   -8.4590   19.7880  -31.8050 C   0  0  0  0  0  0  0  0  0  0  0  0
   -8.8080   20.8010  -30.8960 C   0  0  0  0  0  0  0  0  0  0  0  0
   -8.2020   22.0550  -30.9680 C   0  0  0  0  0  0  0  0  0  0  0  0
   -7.2260   22.3040  -31.9300 C   0  0  0  0  0  0  0  0  0  0  0  0
   -6.8540   21.3010  -32.8280 C   0  0  0  0  0  0  0  0  0  0  0  0
   -7.4770   20.0370  -32.7880 C   0  0  0  0  0  0  0  0  0  0  0  0
   -7.1490   19.0050  -33.6870 O   0  0  0  0  0  0  0  0  0  0  0  0
   -5.8370   18.6240  -34.1100 C   0  0  0  0  0  0  0  0  0  0  0  0
   -4.9150   18.3460  -32.9130 C   0  0  0  0  0  0  0  0  0  0  0  0
   -3.4550   18.3590  -33.2830 C   0  0  0  0  0  0  0  0  0  0  0  0
   -2.8440   17.4180  -34.0960 C   0  0  0  0  0  0  0  0  0  0  0  0
   -1.5610   17.8960  -34.2850 C   0  0  0  0  0  0  0  0  0  0  0  0
   -0.4560   17.1960  -35.0120 C   0  0  0  0  0  0  0  0  0  0  0  0
    0.5870   16.9570  -34.1360 F   0  0  0  0  0  0  0  0  0  0  0  0
   -0.9080   15.9920  -35.5210 F   0  0  0  0  0  0  0  0  0  0  0  0
   -0.0030   17.9830  -36.0550 F   0  0  0  0  0  0  0  0  0  0  0  0
   -1.4210   19.0600  -33.6240 N   0  0  0  0  0  0  0  0  0  0  0  0
   -2.5660   19.3520  -33.0260 N   0  0  0  0  0  0  0  0  0  0  0  0
   -2.7820   20.5700  -32.2960 C   0  0  0  0  0  0  0  0  0  0  0  0
   -2.0780   20.8060  -31.1050 C   0  0  0  0  0  0  0  0  0  0  0  0
   -2.3020   21.9740  -30.3700 C   0  0  0  0  0  0  0  0  0  0  0  0
   -3.2400   22.9160  -30.8140 C   0  0  0  0  0  0  0  0  0  0  0  0
   -3.5400   24.3770  -29.8790 S   0  0  0  0  0  0  0  0  0  0  0  0
   -4.5980   23.9910  -28.5040 C   0  0  0  0  0  0  0  0  0  0  0  0
   -2.2390   24.9340  -29.3710 O   0  0  0  0  0  0  0  0  0  0  0  0
   -4.2000   25.4100  -30.7480 O   0  0  0  0  0  0  0  0  0  0  0  0
   -3.9630   22.6710  -31.9880 C   0  0  0  0  0  0  0  0  0  0  0  0
   -3.7370   21.5040  -32.7220 C   0  0  0  0  0  0  0  0  0  0  0  0
   -9.2085   18.1776  -30.6148 H   0  0  0  0  0  0  0  0  0  0  0  0
  -10.0778   18.4383  -32.1650 H   0  0  0  0  0  0  0  0  0  0  0  0
   -8.4492   17.6804  -32.1650 H   0  0  0  0  0  0  0  0  0  0  0  0
   -9.5645   20.6036  -30.1222 H   0  0  0  0  0  0  0  0  0  0  0  0
   -8.4951   22.8482  -30.2644 H   0  0  0  0  0  0  0  0  0  0  0  0
   -6.7471   23.2929  -31.9826 H   0  0  0  0  0  0  0  0  0  0  0  0
   -6.0687   21.4989  -33.5724 H   0  0  0  0  0  0  0  0  0  0  0  0
   -5.9100   17.7137  -34.7233 H   0  0  0  0  0  0  0  0  0  0  0  0
   -5.4076   19.4547  -34.6892 H   0  0  0  0  0  0  0  0  0  0  0  0
   -5.0903   19.1171  -32.1483 H   0  0  0  0  0  0  0  0  0  0  0  0
   -5.1523   17.3387  -32.5402 H   0  0  0  0  0  0  0  0  0  0  0  0
   -3.2830   16.4945  -34.5015 H   0  0  0  0  0  0  0  0  0  0  0  0
   -0.5560   19.6440  -33.5760 H   0  0  0  0  0  0  0  0  0  0  0  0
   -1.3454   20.0674  -30.7476 H   0  0  0  0  0  0  0  0  0  0  0  0
   -1.7408   22.1540  -29.4412 H   0  0  0  0  0  0  0  0  0  0  0  0
   -4.0625   24.1864  -27.5632 H   0  0  0  0  0  0  0  0  0  0  0  0
   -5.5010   24.6176  -28.5489 H   0  0  0  0  0  0  0  0  0  0  0  0
   -4.8853   22.9301  -28.5489 H   0  0  0  0  0  0  0  0  0  0  0  0
   -4.7112   23.3997  -32.3333 H   0  0  0  0  0  0  0  0  0  0  0  0
   -4.3123   21.3166  -33.6406 H   0  0  0  0  0  0  0  0  0  0  0  0
  1  2  1  0
  2  3  2  0
  3  4  1  0
  4  5  2  0
  5  6  1  0
  6  7  2  0
  7  8  1  0
  8  9  1  0
  9 10  1  0
 10 11  1  0
 11 12  2  0
 12 13  1  0
 13 14  1  0
 14 15  1  0
 14 16  1  0
 14 17  1  0
 13 18  2  0
 18 19  1  0
 19 20  1  0
 20 21  2  0
 21 22  1  0
 22 23  2  0
 23 24  1  0
 24 25  1  0
 24 26  2  0
 24 27  2  0
 23 28  1  0
 28 29  2  0
  7  2  1  0
 19 11  1  0
 29 20  1  0
  1 30  1  0
  1 31  1  0
  1 32  1  0
  3 33  1  0
  4 34  1  0
  5 35  1  0
  6 36  1  0
  9 37  1  0
  9 38  1  0
 10 39  1  0
 10 40  1  0
 12 41  1  0
 18 42  1  0
 21 43  1  0
 22 44  1  0
 25 45  1  0
 25 46  1  0
 25 47  1  0
 28 48  1  0
 29 49  1  0
M  CHG  1  18   1
M  END
>  <UniqueID>  (46) 
43

>  <SMILES>  (46) 
Cc1ccccc1OCCc1cc(C(F)(F)F)[nH+]n1-c1ccc(S(C)(=O)=O)cc1

>  <Energy>  (46) 
81.24187067777643

>  <Genealogy>  (46) 
Cc1ccccc1OCCc1cc(C(F)(F)F)[nH+]n1-c1ccc(S(C)(=O)=O)cc1 (protonated)
Cc1ccccc1OCCc1cc(C(F)(F)F)[nH+]n1-c1ccc(S(C)(=O)=O)cc1 (3D coordinates assigned)
Cc1ccccc1OCCc1cc(C(F)(F)F)[nH+]n1-c1ccc(S(C)(=O)=O)cc1 (optimized conformer: 81.24187067777643 kcal/mol)

>  <smiles>  (46) 
Cc1ccccc1OCCc1cc(C(F)(F)F)nn1-c1ccc(S(C)(=O)=O)cc1

>  <score_type>  (46) 
oracle

>  <origin>  (46) 
adg

>  <m_score__min__energy>  (46) 
-8.25

>  <m_primary>  (46) 
energy

$$$$
46:0
     RDKit          3D

 24 23  0  0  0  0  0  0  0  0999 V2000
   -1.9970   25.3250  -28.9780 N   0  0  0  0  0  0  0  0  0  0  0  0
   -1.5910   23.9210  -28.9760 C   0  0  0  0  0  0  0  0  0  0  0  0
   -2.6300   23.0400  -29.6870 C   0  0  0  0  0  0  0  0  0  0  0  0
   -4.0300   23.6820  -29.7090 C   0  0  0  0  0  0  0  0  0  0  0  0
   -4.0650   24.9680  -30.4320 N   0  0  0  0  0  0  0  0  0  0  0  0
   -5.4300   25.3420  -30.8240 C   0  0  0  0  0  0  0  0  0  0  0  0
   -6.1500   24.1730  -31.5140 C   0  0  0  0  0  0  0  0  0  0  0  0
   -7.2330   23.5320  -30.6380 C   0  0  0  0  0  0  0  0  0  0  0  0
   -8.1760   22.1110  -31.5650 Br  0  0  0  0  0  0  0  0  0  0  0  0
   -2.0180   25.6700  -29.9650 H   0  0  0  0  0  0  0  0  0  0  0  0
   -2.9690   25.3970  -28.5950 H   0  0  0  0  0  0  0  0  0  0  0  0
   -0.6255   23.8262  -29.4944 H   0  0  0  0  0  0  0  0  0  0  0  0
   -1.5060   23.5850  -27.9320 H   0  0  0  0  0  0  0  0  0  0  0  0
   -2.3016   22.8737  -30.7236 H   0  0  0  0  0  0  0  0  0  0  0  0
   -2.7042   22.0943  -29.1302 H   0  0  0  0  0  0  0  0  0  0  0  0
   -4.7269   22.9859  -30.1986 H   0  0  0  0  0  0  0  0  0  0  0  0
   -4.3151   23.8839  -28.6659 H   0  0  0  0  0  0  0  0  0  0  0  0
   -3.4590   24.9370  -31.2850 H   0  0  0  0  0  0  0  0  0  0  0  0
   -5.9948   25.6312  -29.9255 H   0  0  0  0  0  0  0  0  0  0  0  0
   -5.3713   26.1817  -31.5322 H   0  0  0  0  0  0  0  0  0  0  0  0
   -6.6208   24.5466  -32.4353 H   0  0  0  0  0  0  0  0  0  0  0  0
   -5.3956   23.3997  -31.7212 H   0  0  0  0  0  0  0  0  0  0  0  0
   -6.7594   23.1145  -29.7372 H   0  0  0  0  0  0  0  0  0  0  0  0
   -7.9648   24.3116  -30.3795 H   0  0  0  0  0  0  0  0  0  0  0  0
  1  2  1  0
  2  3  1  0
  3  4  1  0
  4  5  1  0
  5  6  1  0
  6  7  1  0
  7  8  1  0
  8  9  1  0
  1 10  1  0
  1 11  1  0
  2 12  1  0
  2 13  1  0
  3 14  1  0
  3 15  1  0
  4 16  1  0
  4 17  1  0
  5 18  1  0
  6 19  1  0
  6 20  1  0
  7 21  1  0
  7 22  1  0
  8 23  1  0
  8 24  1  0
M  END
>  <UniqueID>  (47) 
44

>  <SMILES>  (47) 
NCCCNCCCBr

>  <Energy>  (47) 
13.762240322336408

>  <Genealogy>  (47) 
NCCCNCCCBr (3D coordinates assigned)
NCCCNCCCBr (optimized conformer: 13.762240322336408 kcal/mol)

>  <smiles>  (47) 
NCCCNCCCBr

>  <score_type>  (47) 
oracle

>  <origin>  (47) 
adg

>  <m_score__min__energy>  (47) 
-5.0199999999999996

>  <m_primary>  (47) 
energy

$$$$
47:0
     RDKit          3D

 57 60  0  0  0  0  0  0  0  0999 V2000
   -0.8770   21.6550  -30.6310 C   0  0  0  0  0  0  0  0  0  0  0  0
   -0.7320   20.4310  -31.5530 C   0  0  0  0  0  0  0  0  0  0  0  0
   -1.4820   20.4900  -32.8430 N   0  0  0  0  0  0  0  0  0  0  0  0
   -0.8560   21.3050  -33.9160 C   0  0  0  0  0  0  0  0  0  0  0  0
   -0.2100   20.4370  -35.0030 C   0  0  0  0  0  0  0  0  0  0  0  0
   -1.9470   19.1600  -33.3240 C   0  0  0  0  0  0  0  0  0  0  0  0
   -3.3460   19.1210  -33.9780 C   0  0  0  0  0  0  0  0  0  0  0  0
   -4.3560   18.4790  -33.1290 N   0  0  0  0  0  0  0  0  0  0  0  0
   -5.6090   19.0910  -32.7390 C   0  0  0  0  0  0  0  0  0  0  0  0
   -6.8310   18.5230  -33.1760 C   0  0  0  0  0  0  0  0  0  0  0  0
   -8.0560   19.0850  -32.8170 C   0  0  0  0  0  0  0  0  0  0  0  0
   -8.0630   20.2450  -32.0590 C   0  0  0  0  0  0  0  0  0  0  0  0
   -6.9050   20.8620  -31.6650 C   0  0  0  0  0  0  0  0  0  0  0  0
   -5.6350   20.2800  -31.9400 C   0  0  0  0  0  0  0  0  0  0  0  0
   -4.3950   20.7630  -31.2090 C   0  0  0  0  0  0  0  0  0  0  0  0
   -4.1700   22.2290  -31.3920 C   0  0  0  0  0  0  0  0  0  0  0  0
   -3.4050   22.6310  -32.2580 O   0  0  0  0  0  0  0  0  0  0  0  0
   -5.0070   23.1760  -30.5840 C   0  0  1  0  0  0  0  0  0  0  0  0
   -4.4870   24.6080  -30.4940 C   0  0  0  0  0  0  0  0  0  0  0  0
   -5.7310   25.4640  -30.2550 C   0  0  0  0  0  0  0  0  0  0  0  0
   -6.9420   24.5630  -30.5180 C   0  0  0  0  0  0  0  0  0  0  0  0
   -6.3850   23.3060  -31.1940 C   0  0  2  0  0  0  0  0  0  0  0  0
   -7.1910   22.0890  -30.9770 N   0  0  0  0  0  0  0  0  0  0  0  0
   -8.6500   22.1480  -30.7880 C   0  0  0  0  0  0  0  0  0  0  0  0
   -9.2550   20.9880  -31.5950 C   0  0  0  0  0  0  0  0  0  0  0  0
   -0.8385   21.3297  -29.5809 H   0  0  0  0  0  0  0  0  0  0  0  0
   -0.0562   22.3607  -30.8266 H   0  0  0  0  0  0  0  0  0  0  0  0
   -1.8400   22.1494  -30.8266 H   0  0  0  0  0  0  0  0  0  0  0  0
    0.3357   20.3127  -31.7897 H   0  0  0  0  0  0  0  0  0  0  0  0
   -1.1661   19.5875  -30.9962 H   0  0  0  0  0  0  0  0  0  0  0  0
   -2.3790   20.9800  -32.6100 H   0  0  0  0  0  0  0  0  0  0  0  0
   -1.6299   21.9346  -34.3793 H   0  0  0  0  0  0  0  0  0  0  0  0
   -0.0640   21.9151  -33.4571 H   0  0  0  0  0  0  0  0  0  0  0  0
    0.3833   19.6398  -34.5312 H   0  0  0  0  0  0  0  0  0  0  0  0
   -0.9955   19.9881  -35.6287 H   0  0  0  0  0  0  0  0  0  0  0  0
    0.4455   21.0605  -35.6287 H   0  0  0  0  0  0  0  0  0  0  0  0
   -1.2197   18.7986  -34.0659 H   0  0  0  0  0  0  0  0  0  0  0  0
   -2.0259   18.5330  -32.4237 H   0  0  0  0  0  0  0  0  0  0  0  0
   -3.6657   20.1531  -34.1844 H   0  0  0  0  0  0  0  0  0  0  0  0
   -3.2630   18.5259  -34.8994 H   0  0  0  0  0  0  0  0  0  0  0  0
   -4.0650   17.5890  -32.6710 H   0  0  0  0  0  0  0  0  0  0  0  0
   -6.8134   17.6236  -33.8091 H   0  0  0  0  0  0  0  0  0  0  0  0
   -9.0002   18.6155  -33.1302 H   0  0  0  0  0  0  0  0  0  0  0  0
   -4.5118   20.5533  -30.1355 H   0  0  0  0  0  0  0  0  0  0  0  0
   -3.5270   20.2322  -31.6271 H   0  0  0  0  0  0  0  0  0  0  0  0
   -4.9930   22.7288  -29.5791 H   0  0  0  0  0  0  0  0  0  0  0  0
   -3.7798   24.7111  -29.6578 H   0  0  0  0  0  0  0  0  0  0  0  0
   -3.9451   24.9096  -31.4025 H   0  0  0  0  0  0  0  0  0  0  0  0
   -5.7473   25.8277  -29.2170 H   0  0  0  0  0  0  0  0  0  0  0  0
   -5.7401   26.3426  -30.9168 H   0  0  0  0  0  0  0  0  0  0  0  0
   -7.4382   24.3016  -29.5717 H   0  0  0  0  0  0  0  0  0  0  0  0
   -7.6916   25.0643  -31.1480 H   0  0  0  0  0  0  0  0  0  0  0  0
   -6.3864   23.4056  -32.2895 H   0  0  0  0  0  0  0  0  0  0  0  0
   -8.8977   22.0362  -29.7221 H   0  0  0  0  0  0  0  0  0  0  0  0
   -9.0511   23.1141  -31.1282 H   0  0  0  0  0  0  0  0  0  0  0  0
   -9.8923   20.3552  -30.9599 H   0  0  0  0  0  0  0  0  0  0  0  0
   -9.9021   21.3250  -32.4182 H   0  0  0  0  0  0  0  0  0  0  0  0
  1  2  1  0
  2  3  1  0
  3  4  1  0
  4  5  1  0
  3  6  1  0
  6  7  1  0
  7  8  1  0
  8  9  1  0
  9 10  2  0
 10 11  1  0
 11 12  2  0
 12 13  1  0
 13 14  2  0
 14 15  1  0
 15 16  1  0
 16 17  2  0
 16 18  1  0
 18 19  1  0
 19 20  1  0
 20 21  1  0
 21 22  1  0
 22 23  1  0
 23 24  1  0
 24 25  1  0
 14  9  1  0
 22 18  1  0
 25 12  1  0
 23 13  1  0
  1 26  1  0
  1 27  1  0
  1 28  1  0
  2 29  1  0
  2 30  1  0
  3 31  1  0
  4 32  1  0
  4 33  1  0
  5 34  1  0
  5 35  1  0
  5 36  1  0
  6 37  1  0
  6 38  1  0
  7 39  1  0
  7 40  1  0
  8 41  1  0
 10 42  1  0
 11 43  1  0
 15 44  1  0
 15 45  1  0
 18 46  1  1
 19 47  1  0
 19 48  1  0
 20 49  1  0
 20 50  1  0
 21 51  1  0
 21 52  1  0
 22 53  1  6
 24 54  1  0
 24 55  1  0
 25 56  1  0
 25 57  1  0
M  CHG  1   3   1
M  END
>  <UniqueID>  (48) 
45

>  <SMILES>  (48) 
CC[NH+](CC)CCNc1ccc2c3c1CC(=O)[C@H]1CCC[C@@H]1N3CC2

>  <Energy>  (48) 
94.78685273978924

>  <Genealogy>  (48) 
CC[NH+](CC)CCNc1ccc2c3c1CC(=O)C1CCCC1N3CC2 (protonated)
CC[NH+](CC)CCNc1ccc2c3c1CC(=O)[C@H]1CCC[C@@H]1N3CC2 (chirality)
CC[NH+](CC)CCNc1ccc2c3c1CC(=O)[C@H]1CCC[C@@H]1N3CC2 (3D coordinates assigned)
CC[NH+](CC)CCNc1ccc2c3c1CC(=O)[C@H]1CCC[C@@H]1N3CC2 (nonaromatic ring conformer: 94.78685273978924 kcal/mol)

>  <smiles>  (48) 
CCN(CC)CCNc1ccc2c3c1CC(=O)C1CCCC1N3CC2

>  <score_type>  (48) 
oracle

>  <origin>  (48) 
adg

>  <m_score__min__energy>  (48) 
-6.5999999999999996

>  <m_primary>  (48) 
energy

$$$$
